# Generated by pormake.
# Topology wiv, (6)-cn, num edge types: 1
# Building blocks:
#     Node 0, Type 0, BuildingBlock: BETDEL_clean_sbu_0, # of connection points: 6
#     Node 1, Type 0, BuildingBlock: BETDEL_clean_sbu_0, # of connection points: 6
#     Node 2, Type 0, BuildingBlock: BETDEL_clean_sbu_0, # of connection points: 6
#     Node 3, Type 0, BuildingBlock: BETDEL_clean_sbu_0, # of connection points: 6
#     Node 4, Type 0, BuildingBlock: BETDEL_clean_sbu_0, # of connection points: 6
#     Node 5, Type 0, BuildingBlock: BETDEL_clean_sbu_0, # of connection points: 6
#     Node 6, Type 0, BuildingBlock: BETDEL_clean_sbu_0, # of connection points: 6
#     Node 7, Type 0, BuildingBlock: BETDEL_clean_sbu_0, # of connection points: 6
#     Node 8, Type 0, BuildingBlock: BETDEL_clean_sbu_0, # of connection points: 6
#     Node 9, Type 0, BuildingBlock: BETDEL_clean_sbu_0, # of connection points: 6
#     Node 10, Type 0, BuildingBlock: BETDEL_clean_sbu_0, # of connection points: 6
#     Node 11, Type 0, BuildingBlock: BETDEL_clean_sbu_0, # of connection points: 6
#     Node 12, Type 0, BuildingBlock: BETDEL_clean_sbu_0, # of connection points: 6
#     Node 13, Type 0, BuildingBlock: BETDEL_clean_sbu_0, # of connection points: 6
#     Node 14, Type 0, BuildingBlock: BETDEL_clean_sbu_0, # of connection points: 6
#     Node 15, Type 0, BuildingBlock: BETDEL_clean_sbu_0, # of connection points: 6
#     Edge 16, Type (0, 0), BuildingBlock: UVAHIK_clean_linker_0, # of connection points: 2
#     Edge 17, Type (0, 0), BuildingBlock: UVAHIK_clean_linker_0, # of connection points: 2
#     Edge 18, Type (0, 0), BuildingBlock: UVAHIK_clean_linker_0, # of connection points: 2
#     Edge 19, Type (0, 0), BuildingBlock: UVAHIK_clean_linker_0, # of connection points: 2
#     Edge 20, Type (0, 0), BuildingBlock: UVAHIK_clean_linker_0, # of connection points: 2
#     Edge 21, Type (0, 0), BuildingBlock: UVAHIK_clean_linker_0, # of connection points: 2
#     Edge 22, Type (0, 0), BuildingBlock: UVAHIK_clean_linker_0, # of connection points: 2
#     Edge 23, Type (0, 0), BuildingBlock: UVAHIK_clean_linker_0, # of connection points: 2
#     Edge 24, Type (0, 0), BuildingBlock: UVAHIK_clean_linker_0, # of connection points: 2
#     Edge 25, Type (0, 0), BuildingBlock: UVAHIK_clean_linker_0, # of connection points: 2
#     Edge 26, Type (0, 0), BuildingBlock: UVAHIK_clean_linker_0, # of connection points: 2
#     Edge 27, Type (0, 0), BuildingBlock: UVAHIK_clean_linker_0, # of connection points: 2
#     Edge 28, Type (0, 0), BuildingBlock: UVAHIK_clean_linker_0, # of connection points: 2
#     Edge 29, Type (0, 0), BuildingBlock: UVAHIK_clean_linker_0, # of connection points: 2
#     Edge 30, Type (0, 0), BuildingBlock: UVAHIK_clean_linker_0, # of connection points: 2
#     Edge 31, Type (0, 0), BuildingBlock: UVAHIK_clean_linker_0, # of connection points: 2
#     Edge 32, Type (0, 0), BuildingBlock: UVAHIK_clean_linker_0, # of connection points: 2
#     Edge 33, Type (0, 0), BuildingBlock: UVAHIK_clean_linker_0, # of connection points: 2
#     Edge 34, Type (0, 0), BuildingBlock: UVAHIK_clean_linker_0, # of connection points: 2
#     Edge 35, Type (0, 0), BuildingBlock: UVAHIK_clean_linker_0, # of connection points: 2
#     Edge 36, Type (0, 0), BuildingBlock: UVAHIK_clean_linker_0, # of connection points: 2
#     Edge 37, Type (0, 0), BuildingBlock: UVAHIK_clean_linker_0, # of connection points: 2
#     Edge 38, Type (0, 0), BuildingBlock: UVAHIK_clean_linker_0, # of connection points: 2
#     Edge 39, Type (0, 0), BuildingBlock: UVAHIK_clean_linker_0, # of connection points: 2
#     Edge 40, Type (0, 0), BuildingBlock: UVAHIK_clean_linker_0, # of connection points: 2
#     Edge 41, Type (0, 0), BuildingBlock: UVAHIK_clean_linker_0, # of connection points: 2
#     Edge 42, Type (0, 0), BuildingBlock: UVAHIK_clean_linker_0, # of connection points: 2
#     Edge 43, Type (0, 0), BuildingBlock: UVAHIK_clean_linker_0, # of connection points: 2
#     Edge 44, Type (0, 0), BuildingBlock: UVAHIK_clean_linker_0, # of connection points: 2
#     Edge 45, Type (0, 0), BuildingBlock: UVAHIK_clean_linker_0, # of connection points: 2
#     Edge 46, Type (0, 0), BuildingBlock: UVAHIK_clean_linker_0, # of connection points: 2
#     Edge 47, Type (0, 0), BuildingBlock: UVAHIK_clean_linker_0, # of connection points: 2
#     Edge 48, Type (0, 0), BuildingBlock: UVAHIK_clean_linker_0, # of connection points: 2
#     Edge 49, Type (0, 0), BuildingBlock: UVAHIK_clean_linker_0, # of connection points: 2
#     Edge 50, Type (0, 0), BuildingBlock: UVAHIK_clean_linker_0, # of connection points: 2
#     Edge 51, Type (0, 0), BuildingBlock: UVAHIK_clean_linker_0, # of connection points: 2
#     Edge 52, Type (0, 0), BuildingBlock: UVAHIK_clean_linker_0, # of connection points: 2
#     Edge 53, Type (0, 0), BuildingBlock: UVAHIK_clean_linker_0, # of connection points: 2
#     Edge 54, Type (0, 0), BuildingBlock: UVAHIK_clean_linker_0, # of connection points: 2
#     Edge 55, Type (0, 0), BuildingBlock: UVAHIK_clean_linker_0, # of connection points: 2
#     Edge 56, Type (0, 0), BuildingBlock: UVAHIK_clean_linker_0, # of connection points: 2
#     Edge 57, Type (0, 0), BuildingBlock: UVAHIK_clean_linker_0, # of connection points: 2
#     Edge 58, Type (0, 0), BuildingBlock: UVAHIK_clean_linker_0, # of connection points: 2
#     Edge 59, Type (0, 0), BuildingBlock: UVAHIK_clean_linker_0, # of connection points: 2
#     Edge 60, Type (0, 0), BuildingBlock: UVAHIK_clean_linker_0, # of connection points: 2
#     Edge 61, Type (0, 0), BuildingBlock: UVAHIK_clean_linker_0, # of connection points: 2
#     Edge 62, Type (0, 0), BuildingBlock: UVAHIK_clean_linker_0, # of connection points: 2
#     Edge 63, Type (0, 0), BuildingBlock: UVAHIK_clean_linker_0, # of connection points: 2
# Relax obj value: 0.065
# Max RMSD: 0.126
# Mean RMSD: 0.126
data_MOF--net-wiv--node1-BETDEL_clean_sbu_0--edge1-UVAHIK_clean_linker_0
_symmetry_space_group_name_H-M    P1
_symmetry_Int_Tables_number       1
_symmetry_cell_setting            triclinic
loop_
_symmetry_equiv_pos_as_xyz
'x, y, z'
_cell_length_a     72.374249
_cell_length_b     72.370905
_cell_length_c     22.271625
_cell_angle_alpha  90.040907
_cell_angle_beta   89.981895
_cell_angle_gamma 90.042049
loop_
_atom_site_label
_atom_site_type_symbol
_atom_site_fract_x
_atom_site_fract_y
_atom_site_fract_z
_atom_type_partial_charge
Dy0 Dy 0.3659 0.11917 0.16232 0.0
C1 C 0.39043 0.1238 0.91968 0.0
C2 C 0.35924 0.11419 0.28247 0.0
Dy3 Dy 0.38388 0.11895 0.03987 0.0
O4 O 0.3549 0.12876 0.2517 0.0
O5 O 0.36656 0.10198 0.24696 0.0
O6 O 0.35267 0.14606 0.14097 0.0
O7 O 0.37924 0.14062 0.10722 0.0
C8 C 0.36612 0.15217 0.10793 0.0
C9 C 0.38342 0.08635 0.09678 0.0
O10 O 0.40866 0.12838 0.09036 0.0
O11 O 0.3966 0.11886 0.18171 0.0
O12 O 0.39578 0.10972 0.95127 0.0
O13 O 0.38222 0.13564 0.95447 0.0
O14 O 0.39687 0.09153 0.062 0.0
O15 O 0.3706 0.09805 0.09561 0.0
O16 O 0.34083 0.11027 0.11047 0.0
O17 O 0.35358 0.11839 0.01863 0.0
C18 C 0.4107 0.1244 0.14799 0.0
C19 C 0.3393 0.11319 0.05181 0.0
Dy20 Dy 0.1207 0.6228 0.98368 0.0
C21 C 0.11497 0.64713 0.74165 0.0
C22 C 0.12565 0.61631 0.10396 0.0
Dy23 Dy 0.12022 0.64044 0.86175 0.0
O24 O 0.11158 0.61091 0.07242 0.0
O25 O 0.13746 0.62452 0.06907 0.0
O26 O 0.09295 0.61013 0.96412 0.0
O27 O 0.09939 0.63634 0.92978 0.0
C28 C 0.08755 0.62362 0.93005 0.0
C29 C 0.15379 0.63975 0.91306 0.0
O30 O 0.11165 0.66555 0.91411 0.0
O31 O 0.1215 0.65312 1.00426 0.0
O32 O 0.12937 0.65197 0.77257 0.0
O33 O 0.10305 0.6393 0.77703 0.0
O34 O 0.14741 0.65336 0.88139 0.0
O35 O 0.14204 0.62679 0.91463 0.0
O36 O 0.12948 0.59779 0.9332 0.0
O37 O 0.11913 0.60972 0.8428 0.0
C38 C 0.11574 0.66735 0.97195 0.0
C39 C 0.12484 0.59563 0.87615 0.0
Dy40 Dy 0.6383 0.88298 0.16004 0.0
C41 C 0.61448 0.87892 0.91706 0.0
C42 C 0.64488 0.88818 0.28004 0.0
Dy43 Dy 0.62093 0.88373 0.03727 0.0
O44 O 0.6503 0.87405 0.24878 0.0
O45 O 0.63647 0.89981 0.24515 0.0
O46 O 0.65075 0.85566 0.13975 0.0
O47 O 0.62451 0.86186 0.10463 0.0
C48 C 0.63728 0.84993 0.10609 0.0
C49 C 0.62232 0.91651 0.09329 0.0
O50 O 0.59543 0.8756 0.08608 0.0
O51 O 0.60758 0.88321 0.17921 0.0
O52 O 0.60954 0.89321 0.94837 0.0
O53 O 0.62229 0.8669 0.95205 0.0
O54 O 0.60906 0.91178 0.05721 0.0
O55 O 0.6347 0.90433 0.09346 0.0
O56 O 0.66364 0.89147 0.10851 0.0
O57 O 0.65123 0.8827 0.01707 0.0
C58 C 0.59338 0.87875 0.14424 0.0
C59 C 0.66548 0.88788 0.0503 0.0
Dy60 Dy 0.88121 0.38144 0.98303 0.0
C61 C 0.88556 0.35772 0.74001 0.0
C62 C 0.8762 0.38779 0.10318 0.0
Dy63 Dy 0.88058 0.36429 0.86009 0.0
O64 O 0.89042 0.39301 0.07203 0.0
O65 O 0.86435 0.37973 0.06807 0.0
O66 O 0.90923 0.39351 0.96414 0.0
O67 O 0.90195 0.36792 0.92664 0.0
C68 C 0.91406 0.38039 0.92763 0.0
C69 C 0.84753 0.36504 0.91437 0.0
O70 O 0.88937 0.33897 0.91096 0.0
O71 O 0.8805 0.35108 1.00273 0.0
O72 O 0.87155 0.35218 0.77158 0.0
O73 O 0.89719 0.36628 0.7746 0.0
O74 O 0.85334 0.3516 0.88073 0.0
O75 O 0.85939 0.37789 0.91552 0.0
O76 O 0.87311 0.407 0.93455 0.0
O77 O 0.88087 0.39502 0.84132 0.0
C78 C 0.88582 0.33696 0.96911 0.0
C79 C 0.87638 0.40916 0.87651 0.0
Dy80 Dy 0.36247 0.38117 0.11321 0.0
C81 C 0.38607 0.37628 0.35589 0.0
C82 C 0.35594 0.38639 0.99316 0.0
Dy83 Dy 0.37972 0.38133 0.2357 0.0
O84 O 0.35013 0.37248 0.02465 0.0
O85 O 0.36471 0.39783 0.02787 0.0
O86 O 0.34964 0.354 0.1328 0.0
O87 O 0.37603 0.35962 0.16753 0.0
C88 C 0.36312 0.34781 0.16544 0.0
C89 C 0.37881 0.41433 0.1811 0.0
O90 O 0.40518 0.37315 0.18679 0.0
O91 O 0.39318 0.38136 0.09411 0.0
O92 O 0.3914 0.39044 0.32468 0.0
O93 O 0.37793 0.36448 0.32079 0.0
O94 O 0.392 0.4093 0.21697 0.0
O95 O 0.36625 0.40232 0.1804 0.0
O96 O 0.33724 0.38998 0.16473 0.0
O97 O 0.34939 0.38057 0.25574 0.0
C98 C 0.40731 0.37663 0.12888 0.0
C99 C 0.33527 0.38616 0.2227 0.0
Dy100 Dy 0.38288 0.62002 0.78976 0.0
C101 C 0.38764 0.64447 0.03225 0.0
C102 C 0.37819 0.61344 0.66948 0.0
Dy103 Dy 0.38264 0.63778 0.91212 0.0
O104 O 0.39237 0.60838 0.70108 0.0
O105 O 0.36618 0.62139 0.70428 0.0
O106 O 0.41047 0.60733 0.81139 0.0
O107 O 0.40379 0.63358 0.84514 0.0
C108 C 0.41563 0.62088 0.84575 0.0
C109 C 0.34954 0.63721 0.85807 0.0
O110 O 0.3913 0.66294 0.86042 0.0
O111 O 0.38252 0.65038 0.76909 0.0
O112 O 0.37308 0.64885 1.00145 0.0
O113 O 0.39982 0.63709 0.99678 0.0
O114 O 0.35556 0.65073 0.89104 0.0
O115 O 0.36123 0.62422 0.85744 0.0
O116 O 0.37378 0.59505 0.83988 0.0
O117 O 0.38338 0.60707 0.93116 0.0
C118 C 0.38782 0.66466 0.80215 0.0
C119 C 0.37791 0.59296 0.89738 0.0
Dy120 Dy 0.63876 0.62126 0.11199 0.0
C121 C 0.61553 0.62585 0.35497 0.0
C122 C 0.64521 0.61596 0.99197 0.0
Dy123 Dy 0.62185 0.62092 0.23474 0.0
O124 O 0.65089 0.62999 0.02321 0.0
O125 O 0.63658 0.60447 0.02687 0.0
O126 O 0.65162 0.64841 0.13159 0.0
O127 O 0.6253 0.64275 0.16693 0.0
C128 C 0.63821 0.65457 0.16462 0.0
C129 C 0.62277 0.58795 0.17968 0.0
O130 O 0.59623 0.62905 0.18679 0.0
O131 O 0.608 0.62121 0.09337 0.0
O132 O 0.61033 0.61164 0.32372 0.0
O133 O 0.62356 0.63773 0.31994 0.0
O134 O 0.60962 0.59292 0.2158 0.0
O135 O 0.63528 0.60002 0.17889 0.0
O136 O 0.66419 0.61263 0.16275 0.0
O137 O 0.65219 0.62177 0.25432 0.0
C138 C 0.59395 0.62578 0.12881 0.0
C139 C 0.66628 0.61636 0.22076 0.0
Dy140 Dy 0.61892 0.38232 0.78857 0.0
C141 C 0.61384 0.35773 0.03078 0.0
C142 C 0.62402 0.3888 0.66841 0.0
Dy143 Dy 0.61873 0.36436 0.91051 0.0
O144 O 0.61007 0.39451 0.70001 0.0
O145 O 0.63562 0.38027 0.70319 0.0
O146 O 0.59161 0.39562 0.80993 0.0
O147 O 0.59769 0.36925 0.8438 0.0
C148 C 0.58616 0.38224 0.84449 0.0
C149 C 0.65195 0.36442 0.85681 0.0
O150 O 0.60962 0.33936 0.85866 0.0
O151 O 0.618 0.35204 0.76701 0.0
O152 O 0.62826 0.35311 0.9996 0.0
O153 O 0.60171 0.3653 0.99559 0.0
O154 O 0.64548 0.35089 0.88872 0.0
O155 O 0.64048 0.3776 0.85631 0.0
O156 O 0.62846 0.40704 0.83924 0.0
O157 O 0.61856 0.39505 0.93017 0.0
C158 C 0.61259 0.33781 0.80003 0.0
C159 C 0.62431 0.40911 0.89674 0.0
Dy160 Dy 0.8643 0.62123 0.65745 0.0
C161 C 0.88872 0.62493 0.41473 0.0
C162 C 0.85771 0.61627 0.77756 0.0
Dy163 Dy 0.88222 0.62041 0.53502 0.0
O164 O 0.85308 0.63074 0.74665 0.0
O165 O 0.86529 0.60418 0.74222 0.0
O166 O 0.85076 0.64785 0.63468 0.0
O167 O 0.87736 0.64246 0.60092 0.0
C168 C 0.86413 0.6539 0.60113 0.0
C169 C 0.88225 0.58821 0.59411 0.0
O170 O 0.90725 0.62965 0.58427 0.0
O171 O 0.89495 0.62228 0.67747 0.0
O172 O 0.89343 0.61059 0.44617 0.0
O173 O 0.88116 0.63716 0.44966 0.0
O174 O 0.89558 0.59333 0.55877 0.0
O175 O 0.86924 0.5997 0.59229 0.0
O176 O 0.83924 0.61196 0.60617 0.0
O177 O 0.85195 0.6194 0.51368 0.0
C178 C 0.90914 0.62697 0.64274 0.0
C179 C 0.8377 0.6144 0.5473 0.0
Dy180 Dy 0.62347 0.1234 0.47918 0.0
C181 C 0.61742 0.14713 0.23666 0.0
C182 C 0.62908 0.11713 0.59921 0.0
Dy183 Dy 0.62274 0.14067 0.35682 0.0
O184 O 0.61533 0.11082 0.5679 0.0
O185 O 0.64022 0.12619 0.56423 0.0
O186 O 0.59546 0.11094 0.46252 0.0
O187 O 0.60201 0.13671 0.42522 0.0
C188 C 0.59009 0.12408 0.42699 0.0
C189 C 0.6564 0.14022 0.4076 0.0
O190 O 0.61379 0.16576 0.40871 0.0
O191 O 0.62394 0.15378 0.49912 0.0
O192 O 0.6313 0.15303 0.26814 0.0
O193 O 0.60605 0.13832 0.27146 0.0
O194 O 0.64994 0.15369 0.37553 0.0
O195 O 0.64472 0.12722 0.40968 0.0
O196 O 0.63224 0.09828 0.42901 0.0
O197 O 0.62181 0.10995 0.33839 0.0
C198 C 0.61792 0.16781 0.46644 0.0
C199 C 0.62757 0.09595 0.37205 0.0
Dy200 Dy 0.13827 0.38322 0.66505 0.0
C201 C 0.1143 0.37766 0.42235 0.0
C202 C 0.14474 0.38829 0.78528 0.0
Dy203 Dy 0.12064 0.38313 0.54231 0.0
O204 O 0.15022 0.37423 0.75382 0.0
O205 O 0.13635 0.39995 0.75045 0.0
O206 O 0.15152 0.35625 0.6447 0.0
O207 O 0.12505 0.3616 0.61017 0.0
C208 C 0.13817 0.35006 0.61144 0.0
C209 C 0.12096 0.41603 0.59773 0.0
O210 O 0.09575 0.3738 0.59252 0.0
O211 O 0.10757 0.38345 0.68401 0.0
O212 O 0.10811 0.39145 0.45374 0.0
O213 O 0.12328 0.36643 0.45719 0.0
O214 O 0.10785 0.41084 0.5617 0.0
O215 O 0.13373 0.40426 0.598 0.0
O216 O 0.16333 0.39242 0.61347 0.0
O217 O 0.15094 0.38391 0.5215 0.0
C218 C 0.09356 0.37787 0.65003 0.0
C219 C 0.16506 0.38938 0.5549 0.0
Dy220 Dy 0.38253 0.88067 0.48916 0.0
C221 C 0.38676 0.8564 0.24644 0.0
C222 C 0.37781 0.88712 0.60941 0.0
Dy223 Dy 0.38188 0.86298 0.3666 0.0
O224 O 0.39216 0.89193 0.57811 0.0
O225 O 0.36567 0.87946 0.57436 0.0
O226 O 0.40963 0.89411 0.46662 0.0
O227 O 0.40339 0.86782 0.43196 0.0
C228 C 0.41486 0.8809 0.43103 0.0
C229 C 0.34908 0.86291 0.42259 0.0
O230 O 0.39114 0.83787 0.41743 0.0
O231 O 0.38347 0.85037 0.50999 0.0
O232 O 0.37231 0.85176 0.27749 0.0
O233 O 0.39888 0.86401 0.28164 0.0
O234 O 0.35517 0.84949 0.38933 0.0
O235 O 0.36059 0.87607 0.42273 0.0
O236 O 0.37352 0.90581 0.44015 0.0
O237 O 0.38122 0.89366 0.34702 0.0
C238 C 0.38857 0.8362 0.4762 0.0
C239 C 0.37649 0.90781 0.38186 0.0
Dy240 Dy 0.86237 0.88323 0.60675 0.0
C241 C 0.88622 0.87696 0.84919 0.0
C242 C 0.85595 0.8884 0.48649 0.0
Dy243 Dy 0.87992 0.88264 0.72926 0.0
O244 O 0.8504 0.87434 0.5178 0.0
O245 O 0.86436 0.90002 0.5215 0.0
O246 O 0.84902 0.85628 0.62629 0.0
O247 O 0.87558 0.8613 0.66039 0.0
C248 C 0.86244 0.84976 0.65848 0.0
C249 C 0.87972 0.91577 0.67543 0.0
O250 O 0.90484 0.87355 0.67881 0.0
O251 O 0.89308 0.88375 0.58797 0.0
O252 O 0.8925 0.89076 0.81802 0.0
O253 O 0.87718 0.86582 0.8141 0.0
O254 O 0.89282 0.91039 0.71113 0.0
O255 O 0.86691 0.90403 0.67461 0.0
O256 O 0.83734 0.89241 0.65854 0.0
O257 O 0.84961 0.88331 0.74997 0.0
C258 C 0.90708 0.87801 0.62164 0.0
C259 C 0.83555 0.88907 0.7169 0.0
Dy260 Dy 0.88546 0.12137 0.2846 0.0
C261 C 0.88993 0.14601 0.52726 0.0
C262 C 0.88048 0.11482 0.16447 0.0
Dy263 Dy 0.88521 0.13932 0.407 0.0
O264 O 0.89455 0.10937 0.19598 0.0
O265 O 0.86873 0.12314 0.19931 0.0
O266 O 0.91281 0.10827 0.30632 0.0
O267 O 0.90644 0.13456 0.34062 0.0
C268 C 0.91806 0.12163 0.34134 0.0
C269 C 0.85223 0.13902 0.35207 0.0
O270 O 0.89415 0.16441 0.35544 0.0
O271 O 0.8862 0.15167 0.26339 0.0
O272 O 0.87542 0.15033 0.49614 0.0
O273 O 0.90222 0.13869 0.49204 0.0
O274 O 0.8583 0.15252 0.38497 0.0
O275 O 0.8638 0.12594 0.35191 0.0
O276 O 0.87604 0.09659 0.33507 0.0
O277 O 0.88562 0.10863 0.42637 0.0
C278 C 0.89133 0.16594 0.29674 0.0
C279 C 0.88008 0.09453 0.39264 0.0
Dy280 Dy 0.1415 0.12107 0.61255 0.0
C281 C 0.11738 0.12494 0.85502 0.0
C282 C 0.14814 0.11599 0.49245 0.0
Dy283 Dy 0.12393 0.12059 0.73458 0.0
O284 O 0.15311 0.1303 0.52361 0.0
O285 O 0.14019 0.10407 0.52755 0.0
O286 O 0.15464 0.14798 0.63379 0.0
O287 O 0.12809 0.14253 0.66761 0.0
C288 C 0.14113 0.15421 0.66634 0.0
C289 C 0.12451 0.08797 0.67755 0.0
O290 O 0.09864 0.12923 0.68572 0.0
O291 O 0.1108 0.1213 0.5929 0.0
O292 O 0.1129 0.11056 0.82339 0.0
O293 O 0.12475 0.13731 0.82021 0.0
O294 O 0.11099 0.09316 0.71195 0.0
O295 O 0.13731 0.09972 0.67876 0.0
O296 O 0.16666 0.1122 0.66388 0.0
O297 O 0.15425 0.121 0.75528 0.0
C298 C 0.09662 0.12605 0.62757 0.0
C299 C 0.16846 0.11564 0.72215 0.0
Dy300 Dy 0.12008 0.88148 0.29192 0.0
C301 C 0.11541 0.85815 0.53481 0.0
C302 C 0.12539 0.88756 0.17184 0.0
Dy303 Dy 0.12045 0.86444 0.41464 0.0
O304 O 0.11143 0.89348 0.20298 0.0
O305 O 0.13682 0.87892 0.2069 0.0
O306 O 0.09261 0.89466 0.31169 0.0
O307 O 0.09901 0.86884 0.34896 0.0
C308 C 0.08739 0.88175 0.34841 0.0
C309 C 0.15342 0.86384 0.35964 0.0
O310 O 0.11088 0.83921 0.36452 0.0
O311 O 0.11883 0.8512 0.27158 0.0
O312 O 0.12942 0.85252 0.50341 0.0
O313 O 0.10382 0.86666 0.50002 0.0
O314 O 0.14696 0.85059 0.39279 0.0
O315 O 0.14206 0.87715 0.35864 0.0
O316 O 0.12928 0.90676 0.33971 0.0
O317 O 0.1216 0.8952 0.43351 0.0
C318 C 0.11349 0.83725 0.30584 0.0
C319 C 0.12642 0.90911 0.39787 0.0
C320 C 0.37466 0.92833 0.29173 0.0
C321 C 0.37511 0.92639 0.35448 0.0
C322 C 0.37472 0.94584 0.2654 0.0
C323 C 0.36759 0.9958 0.29768 0.0
H324 H 0.39646 0.00172 0.15231 0.0
C325 C 0.39808 0.05706 0.13176 0.0
C326 C 0.38255 0.06861 0.12916 0.0
C327 C 0.39714 0.04007 0.16146 0.0
C328 C 0.38851 1.00041 0.19326 0.0
H329 H 0.37568 0.94134 0.43887 0.0
H330 H 0.37624 0.97191 0.39295 0.0
H331 H 0.39477 0.97166 0.20021 0.0
H332 H 0.35394 0.07168 0.15595 0.0
H333 H 0.3521 0.04184 0.20641 0.0
H334 H 0.36189 0.02475 0.29178 0.0
C335 C 0.37547 0.95991 0.36399 0.0
C336 C 0.38728 0.98304 0.22027 0.0
C337 C 0.37522 0.94237 0.39037 0.0
C338 C 0.36613 0.06301 0.15733 0.0
C339 C 0.36513 0.04596 0.18663 0.0
C340 C 0.36894 0.01323 0.27087 0.0
C341 C 0.37546 0.96187 0.3011 0.0
C342 C 0.37673 0.98047 0.27268 0.0
C343 C 0.3806 0.0342 0.18878 0.0
C344 C 0.37938 0.01575 0.21819 0.0
H345 H 0.37439 0.91631 0.26274 0.0
H346 H 0.37426 0.94678 0.2169 0.0
H347 H 0.35921 0.99433 0.33768 0.0
H348 H 0.41097 0.06114 0.11086 0.0
H349 H 0.40944 0.03157 0.16319 0.0
C350 C 0.92939 0.62965 0.73338 0.0
C351 C 0.92763 0.62877 0.67062 0.0
C352 C 0.94681 0.63011 0.76026 0.0
C353 C 0.9841 0.61858 0.80738 0.0
H354 H 0.02563 0.6441 0.73523 0.0
C355 C 0.05813 0.60882 0.89667 0.0
C356 C 0.06968 0.62438 0.89836 0.0
C357 C 0.0411 0.60957 0.8672 0.0
C358 C 0.01415 0.63703 0.75634 0.0
H359 H 0.94284 0.62799 0.58676 0.0
H360 H 0.97328 0.62832 0.63366 0.0
H361 H 0.99527 0.64607 0.68851 0.0
H362 H 0.07266 0.65289 0.87028 0.0
H363 H 0.04272 0.65441 0.8202 0.0
H364 H 0.00275 0.61006 0.87628 0.0
C365 C 0.96118 0.62902 0.66219 0.0
C366 C 0.99676 0.63797 0.72906 0.0
C367 C 0.94371 0.62876 0.63524 0.0
C368 C 0.064 0.64068 0.86963 0.0
C369 C 0.04689 0.64149 0.84056 0.0
C370 C 1.00142 0.61776 0.83484 0.0
C371 C 0.96296 0.62947 0.72513 0.0
C372 C 0.9815 0.62874 0.75422 0.0
C373 C 0.03516 0.62597 0.8392 0.0
C374 C 0.01671 0.62692 0.80965 0.0
H375 H 0.91728 0.62987 0.76199 0.0
H376 H 0.9476 0.6309 0.80875 0.0
H377 H 0.97278 0.61104 0.82764 0.0
H378 H 0.06228 0.59603 0.91797 0.0
H379 H 0.03264 0.59723 0.86609 0.0
C380 C 0.61082 0.94852 0.11176 0.0
C381 C 0.62384 0.93461 0.12345 0.0
C382 C 0.61239 0.96581 0.13931 0.0
C383 C 0.63016 0.98952 0.271 0.0
H384 H 0.62863 0.03333 0.17106 0.0
C385 C 0.63898 0.06314 0.37062 0.0
C386 C 0.62846 0.07734 0.34463 0.0
C387 C 0.63962 0.0456 0.34398 0.0
C388 C 0.6288 0.02129 0.1999 0.0
H389 H 0.64865 0.92778 0.17318 0.0
H390 H 0.65102 0.9579 0.22302 0.0
H391 H 0.6269 0.0029 0.12473 0.0
H392 H 0.61005 0.08419 0.27113 0.0
H393 H 0.61057 0.05369 0.22627 0.0
H394 H 0.63132 0.0078 0.34645 0.0
C395 C 0.63971 0.95541 0.19223 0.0
C396 C 0.62792 0.00386 0.17317 0.0
C397 C 0.63834 0.93822 0.16374 0.0
C398 C 0.61849 0.07362 0.29191 0.0
C399 C 0.6189 0.05609 0.26588 0.0
C400 C 0.63073 0.007 0.29795 0.0
C401 C 0.62682 0.9694 0.17984 0.0
C402 C 0.62846 0.98782 0.20845 0.0
C403 C 0.62955 0.04183 0.29122 0.0
C404 C 0.62989 0.02315 0.26277 0.0
H405 H 0.59951 0.94611 0.0809 0.0
H406 H 0.60221 0.97633 0.12936 0.0
H407 H 0.6305 0.97733 0.29919 0.0
H408 H 0.64689 0.06562 0.41112 0.0
H409 H 0.64818 0.03509 0.36444 0.0
C410 C 0.94609 0.39206 0.91062 0.0
C411 C 0.93221 0.37909 0.89778 0.0
C412 C 0.96341 0.39068 0.8833 0.0
C413 C 0.98725 0.37392 0.7507 0.0
H414 H 0.03097 0.37465 0.85122 0.0
C415 C 0.06085 0.36615 0.65077 0.0
C416 C 0.07502 0.37653 0.67768 0.0
C417 C 0.04334 0.36517 0.67741 0.0
C418 C 0.01896 0.37471 0.82226 0.0
H419 H 0.92545 0.35458 0.84624 0.0
H420 H 0.95565 0.35256 0.79679 0.0
H421 H 1.00049 0.37599 0.89737 0.0
H422 H 0.08184 0.39431 0.75294 0.0
H423 H 0.05137 0.39321 0.79787 0.0
H424 H 0.00559 0.37341 0.67539 0.0
C425 C 0.95311 0.36368 0.82833 0.0
C426 C 1.0015 0.37536 0.84887 0.0
C427 C 0.93588 0.36484 0.85659 0.0
C428 C 0.0713 0.38599 0.73141 0.0
C429 C 0.05378 0.38525 0.75747 0.0
C430 C 0.00475 0.37359 0.72391 0.0
C431 C 0.96707 0.37651 0.84185 0.0
C432 C 0.9855 0.3751 0.81336 0.0
C433 C 0.03955 0.37476 0.73109 0.0
C434 C 0.02086 0.37415 0.75934 0.0
H435 H 0.94362 0.40318 0.94221 0.0
H436 H 0.97393 0.40082 0.89412 0.0
H437 H 0.97509 0.37381 0.72237 0.0
H438 H 0.06334 0.35863 0.60949 0.0
H439 H 0.03285 0.35674 0.65615 0.0
C440 C 0.39097 0.44611 0.16283 0.0
C441 C 0.37771 0.43243 0.15088 0.0
C442 C 0.38986 0.46336 0.1349 0.0
C443 C 0.37318 0.48697 1.00178 0.0
H444 H 0.37518 0.5311 0.10031 0.0
C445 C 0.36609 0.5603 0.89929 0.0
C446 C 0.3767 0.57446 0.92529 0.0
C447 C 0.36508 0.54288 0.9265 0.0
C448 C 0.37489 0.51897 0.07187 0.0
H449 H 0.35294 0.42596 0.10036 0.0
H450 H 0.35137 0.456 0.04987 0.0
H451 H 0.37609 0.50081 0.14774 0.0
H452 H 0.39491 0.58135 0.99932 0.0
H453 H 0.39377 0.551 0.0452 0.0
H454 H 0.37273 0.50498 0.92569 0.0
C455 C 0.36252 0.45337 0.08117 0.0
C456 C 0.3753 0.50162 0.09923 0.0
C457 C 0.36342 0.43623 0.11003 0.0
C458 C 0.38641 0.5708 0.97854 0.0
C459 C 0.38564 0.55337 1.00514 0.0
C460 C 0.37309 0.50434 0.97423 0.0
C461 C 0.37566 0.46713 0.09372 0.0
C462 C 0.37456 0.48547 0.06446 0.0
C463 C 0.37487 0.53917 0.97982 0.0
C464 C 0.3741 0.5206 1.0089 0.0
H465 H 0.40213 0.44354 0.19413 0.0
H466 H 0.40023 0.4737 0.145 0.0
H467 H 0.3727 0.47468 0.974 0.0
H468 H 0.35838 0.56274 0.8584 0.0
H469 H 0.35643 0.53241 0.90604 0.0
C470 C 0.57295 0.62854 0.03995 0.0
C471 C 0.57522 0.62702 0.10244 0.0
C472 C 0.55528 0.6289 0.01466 0.0
C473 C 0.50819 0.61308 0.04009 0.0
H474 H 0.49476 0.64939 0.9197 0.0
C475 C 0.44453 0.60611 0.88382 0.0
C476 C 0.43337 0.62186 0.87812 0.0
C477 C 0.46143 0.60711 0.91417 0.0
C478 C 0.49831 0.63922 0.95346 0.0
H479 H 0.56075 0.62475 0.18741 0.0
H480 H 0.52984 0.62504 0.14291 0.0
H481 H 0.52521 0.6509 0.96737 0.0
H482 H 0.43095 0.65096 0.89982 0.0
H483 H 0.46068 0.65279 0.9518 0.0
H484 H 0.48142 0.60119 0.0253 0.0
C485 C 0.54177 0.62606 0.11372 0.0
C486 C 0.51573 0.64002 0.98041 0.0
C487 C 0.55945 0.62601 0.13914 0.0
C488 C 0.43933 0.63862 0.90343 0.0
C489 C 0.45634 0.63969 0.93297 0.0
C490 C 0.49087 0.6121 0.01243 0.0
C491 C 0.53953 0.62745 0.05122 0.0
C492 C 0.52085 0.62695 0.02394 0.0
C493 C 0.46756 0.62395 0.93857 0.0
C494 C 0.48577 0.62516 0.96881 0.0
H495 H 0.58482 0.62938 1.01044 0.0
H496 H 0.55394 0.62985 0.96632 0.0
H497 H 0.51184 0.60275 0.0732 0.0
H498 H 0.4402 0.59301 0.8649 0.0
H499 H 0.46987 0.5948 0.91754 0.0
C500 C 0.61084 0.55605 0.16176 0.0
C501 C 0.62398 0.56983 0.14958 0.0
C502 C 0.61208 0.53877 0.13401 0.0
C503 C 0.62893 0.51512 1.00103 0.0
H504 H 0.62732 0.4711 0.09999 0.0
C505 C 0.63628 0.44173 0.89888 0.0
C506 C 0.62569 0.42758 0.92495 0.0
C507 C 0.63733 0.45916 0.92612 0.0
C508 C 0.62751 0.4832 0.07144 0.0
H509 H 0.64867 0.57643 0.09883 0.0
H510 H 0.65047 0.54633 0.04865 0.0
H511 H 0.62619 0.50144 0.14714 0.0
H512 H 0.60758 0.4207 0.99928 0.0
H513 H 0.60878 0.45104 0.04522 0.0
H514 H 0.6295 0.49701 0.9251 0.0
C515 C 0.63932 0.54891 0.07999 0.0
C516 C 0.62697 0.50058 0.09863 0.0
C517 C 0.63828 0.56609 0.10867 0.0
C518 C 0.61606 0.43123 0.97841 0.0
C519 C 0.61687 0.44867 1.00505 0.0
C520 C 0.62915 0.4977 0.97364 0.0
C521 C 0.6263 0.53506 0.09278 0.0
C522 C 0.62755 0.51669 0.0637 0.0
C523 C 0.62758 0.46288 0.97956 0.0
C524 C 0.62828 0.48148 1.00848 0.0
H525 H 0.59968 0.55857 0.19312 0.0
H526 H 0.60181 0.52835 0.14429 0.0
H527 H 0.62929 0.52737 0.97312 0.0
H528 H 0.64393 0.43929 0.85783 0.0
H529 H 0.64593 0.46963 0.90553 0.0
C530 C 0.44187 0.3755 0.13787 0.0
C531 C 0.42596 0.3756 0.10173 0.0
C532 C 0.45946 0.37585 0.11177 0.0
C533 C 0.49536 0.36788 0.04557 0.0
H534 H 0.50181 0.39699 0.901 0.0
C535 C 0.56249 0.36537 0.90493 0.0
C536 C 0.56839 0.38169 0.87684 0.0
C537 C 0.54543 0.36469 0.93434 0.0
C538 C 0.50036 0.38896 0.94175 0.0
H539 H 0.41605 0.37542 1.00979 0.0
H540 H 0.44658 0.37545 0.96444 0.0
H541 H 0.47171 0.39569 0.9489 0.0
H542 H 0.56147 0.41025 0.85882 0.0
H543 H 0.5319 0.40928 0.91142 0.0
H544 H 0.52421 0.3617 0.03949 0.0
C545 C 0.44556 0.37568 0.01294 0.0
C546 C 0.48297 0.38797 0.96876 0.0
C547 C 0.42801 0.37552 0.03899 0.0
C548 C 0.55714 0.39744 0.87963 0.0
C549 C 0.54015 0.39682 0.9095 0.0
C550 C 0.51282 0.369 0.01879 0.0
C551 C 0.46153 0.37614 0.04892 0.0
C552 C 0.48019 0.37731 0.02081 0.0
C553 C 0.53398 0.38038 0.93676 0.0
C554 C 0.51553 0.3795 0.96635 0.0
H555 H 0.44075 0.37567 0.18636 0.0
H556 H 0.47141 0.37641 0.14095 0.0
H557 H 0.49374 0.35941 0.08528 0.0
H558 H 0.57092 0.35301 0.9034 0.0
H559 H 0.54108 0.35172 0.95403 0.0
C560 C 0.87515 0.42998 0.78697 0.0
C561 C 0.87532 0.42784 0.84967 0.0
C562 C 0.87525 0.44757 0.76122 0.0
C563 C 0.8675 0.49734 0.79478 0.0
H564 H 0.89657 0.50395 0.65013 0.0
C565 C 0.89731 0.55922 0.62986 0.0
C566 C 0.88161 0.57053 0.62697 0.0
C567 C 0.89661 0.54224 0.65966 0.0
C568 C 0.88855 0.50245 0.69091 0.0
H569 H 0.87551 0.44253 0.93455 0.0
H570 H 0.87616 0.47325 0.88964 0.0
H571 H 0.89522 0.47379 0.69741 0.0
H572 H 0.85293 0.57319 0.65346 0.0
H573 H 0.85149 0.54334 0.70408 0.0
H574 H 0.86138 0.52622 0.78929 0.0
C575 C 0.87557 0.46134 0.86027 0.0
C576 C 0.88753 0.48502 0.71756 0.0
C577 C 0.87527 0.44371 0.88608 0.0
C578 C 0.86525 0.56471 0.65507 0.0
C579 C 0.86448 0.54766 0.68444 0.0
C580 C 0.86864 0.51484 0.76833 0.0
C581 C 0.87576 0.46349 0.79746 0.0
C582 C 0.87691 0.48219 0.76965 0.0
C583 C 0.88012 0.53612 0.68675 0.0
C584 C 0.87914 0.51761 0.7159 0.0
H585 H 0.875 0.41805 0.75757 0.0
H586 H 0.87495 0.44865 0.71274 0.0
H587 H 0.85905 0.49567 0.83454 0.0
H588 H 0.91016 0.56349 0.60906 0.0
H589 H 0.90903 0.53394 0.66155 0.0
C590 C 0.56785 0.13914 0.35643 0.0
C591 C 0.57185 0.125 0.39761 0.0
C592 C 0.5506 0.1399 0.32828 0.0
C593 C 0.50244 0.12709 0.34843 0.0
H594 H 0.49858 0.12941 0.17496 0.0
C595 C 0.43286 0.11616 0.22948 0.0
C596 C 0.42918 0.12574 0.176 0.0
C597 C 0.45033 0.11692 0.25586 0.0
C598 C 0.49935 0.12911 0.22348 0.0
H599 H 0.56098 0.10071 0.44221 0.0
H600 H 0.53061 0.10237 0.39427 0.0
H601 H 0.529 0.12941 0.22234 0.0
H602 H 0.44088 0.14389 0.10862 0.0
H603 H 0.47126 0.14585 0.15586 0.0
H604 H 0.47296 0.12731 0.35038 0.0
C605 C 0.54089 0.11273 0.38338 0.0
C606 C 0.5168 0.12901 0.25051 0.0
C607 C 0.55826 0.11175 0.41063 0.0
C608 C 0.44334 0.13627 0.14968 0.0
C609 C 0.46079 0.13728 0.17665 0.0
C610 C 0.48501 0.12751 0.32158 0.0
C611 C 0.53692 0.12678 0.34185 0.0
C612 C 0.51849 0.12774 0.31317 0.0
C613 C 0.46454 0.12756 0.23007 0.0
C614 C 0.48319 0.12824 0.25865 0.0
H615 H 0.57806 0.1496 0.34591 0.0
H616 H 0.54782 0.15094 0.2967 0.0
H617 H 0.50339 0.12638 0.39692 0.0
H618 H 0.42232 0.10772 0.25054 0.0
H619 H 0.45272 0.10887 0.29604 0.0
C620 C 0.11527 0.57336 0.79642 0.0
C621 C 0.12557 0.57706 0.84848 0.0
C622 C 0.11548 0.55583 0.77037 0.0
C623 C 0.12763 0.50675 0.80184 0.0
H624 H 0.12291 0.5025 0.62889 0.0
C625 C 0.13638 0.43822 0.66784 0.0
C626 C 0.12192 0.43417 0.62786 0.0
C627 C 0.13728 0.45544 0.69624 0.0
C628 C 0.12416 0.5035 0.67726 0.0
H629 H 0.14441 0.56533 0.9137 0.0
H630 H 0.1454 0.53482 0.86691 0.0
H631 H 0.12448 0.53298 0.67497 0.0
H632 H 0.09715 0.44489 0.58582 0.0
H633 H 0.09904 0.47521 0.63419 0.0
H634 H 0.12785 0.47709 0.80324 0.0
C635 C 0.1367 0.54533 0.84705 0.0
C636 C 0.12496 0.52097 0.70386 0.0
C637 C 0.13624 0.56285 0.87374 0.0
C638 C 0.10845 0.44766 0.61645 0.0
C639 C 0.10955 0.46499 0.64394 0.0
C640 C 0.12715 0.48926 0.77502 0.0
C641 C 0.12628 0.54156 0.79502 0.0
C642 C 0.12644 0.52287 0.76663 0.0
C643 C 0.12396 0.46903 0.68412 0.0
C644 C 0.12517 0.4875 0.71258 0.0
H645 H 0.1067 0.58395 0.77626 0.0
H646 H 0.1069 0.55343 0.73133 0.0
H647 H 0.1285 0.50758 0.85029 0.0
H648 H 0.14703 0.42811 0.67705 0.0
H649 H 0.1486 0.45828 0.72673 0.0
C650 C 0.55883 0.87731 0.13558 0.0
C651 C 0.57477 0.87747 0.17156 0.0
C652 C 0.54126 0.87723 0.16188 0.0
C653 C 0.50557 0.86824 0.22802 0.0
H654 H 0.49882 0.89664 0.37404 0.0
C655 C 0.4385 0.86439 0.36922 0.0
C656 C 0.43251 0.88058 0.39797 0.0
C657 C 0.45552 0.86398 0.3395 0.0
C658 C 0.50035 0.88881 0.3329 0.0
H659 H 0.58479 0.87698 0.26337 0.0
H660 H 0.5543 0.87629 0.30903 0.0
H661 H 0.52888 0.89603 0.32588 0.0
H662 H 0.43919 0.90918 0.41671 0.0
H663 H 0.46865 0.90867 0.36363 0.0
H664 H 0.47681 0.86158 0.23405 0.0
C665 C 0.55527 0.87679 0.26054 0.0
C666 C 0.51773 0.88821 0.30573 0.0
C667 C 0.57279 0.87705 0.2343 0.0
C668 C 0.4436 0.89646 0.39542 0.0
C669 C 0.46053 0.89611 0.36528 0.0
C670 C 0.48812 0.86896 0.25499 0.0
C671 C 0.53926 0.87715 0.22475 0.0
C672 C 0.52062 0.87784 0.25312 0.0
C673 C 0.46683 0.8798 0.3375 0.0
C674 C 0.48529 0.87922 0.30791 0.0
H675 H 0.55988 0.87772 0.08709 0.0
H676 H 0.52927 0.87773 0.13287 0.0
H677 H 0.50729 0.85998 0.18787 0.0
H678 H 0.43018 0.85195 0.37054 0.0
H679 H 0.45999 0.85112 0.31932 0.0
C680 C 0.89261 0.94724 0.65669 0.0
C681 C 0.879 0.93388 0.64522 0.0
C682 C 0.8918 0.96452 0.62882 0.0
C683 C 0.87512 0.98855 0.49652 0.0
H684 H 0.87781 0.03257 0.59542 0.0
C685 C 0.86807 0.06196 0.39492 0.0
C686 C 0.87881 0.07606 0.42064 0.0
C687 C 0.86707 0.04453 0.42207 0.0
C688 C 0.87733 0.02047 0.56687 0.0
H689 H 0.8539 0.928 0.59564 0.0
H690 H 0.85285 0.95806 0.54523 0.0
H691 H 0.87864 0.00223 0.6425 0.0
H692 H 0.89728 0.08285 0.4941 0.0
H693 H 0.89618 0.05249 0.53983 0.0
H694 H 0.87455 0.00663 0.42062 0.0
C695 C 0.86405 0.95516 0.57608 0.0
C696 C 0.8777 0.00309 0.59403 0.0
C697 C 0.86466 0.93801 0.60489 0.0
C698 C 0.88867 0.07235 0.47357 0.0
C699 C 0.88793 0.05491 0.50008 0.0
C700 C 0.87508 0.00595 0.46914 0.0
C701 C 0.87754 0.96861 0.58818 0.0
C702 C 0.87668 0.98699 0.55913 0.0
C703 C 0.87703 0.04075 0.47502 0.0
C704 C 0.87631 0.02217 0.50395 0.0
H705 H 0.90381 0.94441 0.68759 0.0
H706 H 0.90242 0.97464 0.63857 0.0
H707 H 0.87443 0.9763 0.46864 0.0
H708 H 0.86025 0.06445 0.35427 0.0
H709 H 0.85832 0.03411 0.40184 0.0
C710 C 0.07612 0.12769 0.5373 0.0
C711 C 0.07805 0.12738 0.60007 0.0
C712 C 0.05862 0.12781 0.5109 0.0
C713 C 0.00879 0.13589 0.54295 0.0
H714 H 0.0024 0.10713 0.3975 0.0
C715 C 0.94163 0.13855 0.40226 0.0
C716 C 0.93579 0.12224 0.37388 0.0
C717 C 0.95868 0.13926 0.43168 0.0
C718 C 0.00384 0.11506 0.43848 0.0
H719 H 0.06307 0.12718 0.6844 0.0
H720 H 0.03251 0.12691 0.63838 0.0
H721 H 0.03245 0.10823 0.44564 0.0
H722 H 0.94282 0.09372 0.35542 0.0
H723 H 0.97236 0.09473 0.40799 0.0
H724 H 0.97996 0.14215 0.53684 0.0
C725 C 0.04452 0.12745 0.60944 0.0
C726 C 0.0212 0.11594 0.46563 0.0
C727 C 0.06206 0.12752 0.6359 0.0
C728 C 0.9471 0.10653 0.37644 0.0
C729 C 0.96407 0.10717 0.40628 0.0
C730 C 0.99136 0.13488 0.516 0.0
C731 C 0.04258 0.12739 0.54655 0.0
C732 C 0.02396 0.12644 0.51806 0.0
C733 C 0.97019 0.1236 0.43377 0.0
C734 C 0.98866 0.12449 0.46329 0.0
H735 H 0.08815 0.12777 0.50835 0.0
H736 H 0.0577 0.12821 0.4624 0.0
H737 H 0.0104 0.14424 0.58295 0.0
H738 H 0.93315 0.15087 0.40093 0.0
H739 H 0.963 0.15221 0.4516 0.0
C740 C 0.12771 0.94355 0.387 0.0
C741 C 0.1283 0.92783 0.42399 0.0
C742 C 0.12827 0.96127 0.41205 0.0
C743 C 0.14268 0.98739 0.54487 0.0
H744 H 0.10448 0.02218 0.49863 0.0
C745 C 0.14215 0.06406 0.62041 0.0
C746 C 0.12541 0.07019 0.64536 0.0
C747 C 0.14311 0.04698 0.5912 0.0
C748 C 0.11523 0.0126 0.51187 0.0
H749 H 0.13048 0.91837 0.51614 0.0
H750 H 0.13182 0.94934 0.55967 0.0
H751 H 0.10558 0.99162 0.45154 0.0
H752 H 0.09649 0.06359 0.65829 0.0
H753 H 0.09808 0.03383 0.6062 0.0
H754 H 0.15233 0.00839 0.6052 0.0
C755 C 0.13081 0.94791 0.51136 0.0
C756 C 0.11594 0.9952 0.48467 0.0
C757 C 0.12995 0.9302 0.48642 0.0
C758 C 0.10957 0.05913 0.63963 0.0
C759 C 0.11046 0.04218 0.60961 0.0
C760 C 0.14215 0.00491 0.57138 0.0
C761 C 0.12973 0.96361 0.47449 0.0
C762 C 0.12956 0.98237 0.50133 0.0
C763 C 0.12727 0.03587 0.58555 0.0
C764 C 0.1283 0.01761 0.55556 0.0
H765 H 0.12637 0.9422 0.33876 0.0
H766 H 0.12754 0.97315 0.38261 0.0
H767 H 0.15338 0.97778 0.55829 0.0
H768 H 0.15456 0.07237 0.62408 0.0
H769 H 0.1562 0.0425 0.57264 0.0
C770 C 0.0651 0.86662 0.4187 0.0
C771 C 0.0692 0.88093 0.3782 0.0
C772 C 0.04781 0.86575 0.44659 0.0
C773 C 0.99974 0.8784 0.42533 0.0
H774 H 0.99512 0.8747 0.59836 0.0
C775 C 0.92944 0.88716 0.54171 0.0
C776 C 0.92568 0.87712 0.59424 0.0
C777 C 0.94704 0.88692 0.51613 0.0
C778 C 0.99611 0.87539 0.54992 0.0
H779 H 0.05848 0.90546 0.33477 0.0
H780 H 0.02802 0.90362 0.38228 0.0
H781 H 0.02576 0.8755 0.55243 0.0
H782 H 0.93737 0.85868 0.66073 0.0
H783 H 0.96799 0.85763 0.61479 0.0
H784 H 0.97028 0.87773 0.42195 0.0
C785 C 0.03827 0.89322 0.39282 0.0
C786 C 0.01368 0.87596 0.52374 0.0
C787 C 0.05568 0.89429 0.36583 0.0
C788 C 0.93988 0.86664 0.62038 0.0
C789 C 0.95748 0.86615 0.59418 0.0
C790 C 0.9822 0.87751 0.4513 0.0
C791 C 0.03418 0.87894 0.43346 0.0
C792 C 0.01564 0.8777 0.46128 0.0
C793 C 0.96132 0.87636 0.54176 0.0
C794 C 0.9801 0.87626 0.51406 0.0
H795 H 0.07522 0.85604 0.42865 0.0
H796 H 0.04493 0.85454 0.47745 0.0
H797 H 1.0009 0.87946 0.37695 0.0
H798 H 0.91886 0.89557 0.52083 0.0
H799 H 0.94948 0.89533 0.47674 0.0
C800 C 0.38603 0.18042 0.09745 0.0
C801 C 0.36844 0.17219 0.09811 0.0
C802 C 0.38779 0.19971 0.09953 0.0
C803 C 0.36147 0.24324 0.07865 0.0
H804 H 0.39396 0.26324 0.20114 0.0
C805 C 0.35047 0.31602 0.16775 0.0
C806 C 0.36592 0.32769 0.17098 0.0
C807 C 0.35266 0.29705 0.15956 0.0
C808 C 0.385 0.25787 0.16631 0.0
H809 H 0.339 0.17749 0.09804 0.0
H810 H 0.342 0.21094 0.10085 0.0
H811 H 0.3948 0.23014 0.17799 0.0
H812 H 0.39585 0.32859 0.1723 0.0
H813 H 0.39973 0.29516 0.15813 0.0
H814 H 0.35136 0.27076 0.06771 0.0
C815 C 0.35446 0.20268 0.09882 0.0
C816 C 0.38552 0.23895 0.15283 0.0
C817 C 0.35272 0.1835 0.09737 0.0
C818 C 0.3837 0.31987 0.17017 0.0
C819 C 0.38591 0.30077 0.16183 0.0
C820 C 0.36092 0.26206 0.09215 0.0
C821 C 0.37199 0.21103 0.10141 0.0
C822 C 0.37343 0.23137 0.10984 0.0
C823 C 0.37038 0.28929 0.15419 0.0
C824 C 0.37232 0.26952 0.13719 0.0
H825 H 0.39838 0.17198 0.09839 0.0
H826 H 0.40148 0.20576 0.10091 0.0
H827 H 0.35225 0.23791 0.04448 0.0
H828 H 0.33661 0.32167 0.16877 0.0
H829 H 0.34043 0.28851 0.15551 0.0
C830 C 0.32142 0.6171 0.84779 0.0
C831 C 0.32955 0.63474 0.84809 0.0
C832 C 0.30212 0.61524 0.84947 0.0
C833 C 0.25852 0.64125 0.82645 0.0
H834 H 0.23836 0.60917 0.94969 0.0
C835 C 0.18559 0.65245 0.91406 0.0
C836 C 0.17394 0.637 0.918 0.0
C837 C 0.20455 0.65025 0.90589 0.0
C838 C 0.24377 0.61802 0.91463 0.0
H839 H 0.32409 0.66414 0.84706 0.0
H840 H 0.29065 0.66097 0.84915 0.0
H841 H 0.27151 0.60836 0.92742 0.0
H842 H 0.17308 0.60707 0.92051 0.0
H843 H 0.20651 0.60318 0.90641 0.0
H844 H 0.231 0.65123 0.81441 0.0
C845 C 0.29898 0.64855 0.8477 0.0
C846 C 0.26273 0.6175 0.90167 0.0
C847 C 0.31816 0.65039 0.84667 0.0
C848 C 0.18178 0.61923 0.91778 0.0
C849 C 0.20088 0.61701 0.90951 0.0
C850 C 0.23967 0.64179 0.83943 0.0
C851 C 0.29072 0.63098 0.85057 0.0
C852 C 0.27036 0.62946 0.85843 0.0
C853 C 0.21234 0.63253 0.9013 0.0
C854 C 0.23215 0.63055 0.88473 0.0
H855 H 0.32992 0.6048 0.84927 0.0
H856 H 0.29615 0.60153 0.85112 0.0
H857 H 0.2639 0.65037 0.79208 0.0
H858 H 0.17992 0.6663 0.91463 0.0
H859 H 0.21307 0.66248 0.90139 0.0
C860 C 0.64995 0.81834 0.09471 0.0
C861 C 0.63448 0.82998 0.09614 0.0
C862 C 0.64783 0.7992 0.09614 0.0
C863 C 0.61634 0.76355 0.15152 0.0
H864 H 0.6497 0.73116 0.0651 0.0
C865 C 0.61765 0.68253 0.16954 0.0
C866 C 0.63542 0.6747 0.17025 0.0
C867 C 0.61545 0.70163 0.16104 0.0
C868 C 0.64035 0.74003 0.08985 0.0
H869 H 0.60455 0.83081 0.09775 0.0
H870 H 0.60077 0.79708 0.10028 0.0
H871 H 0.64911 0.76397 0.04143 0.0
H872 H 0.66473 0.68068 0.16778 0.0
H873 H 0.66095 0.71382 0.15412 0.0
H874 H 0.60783 0.73944 0.20058 0.0
C875 C 0.61457 0.80285 0.09829 0.0
C876 C 0.63997 0.75882 0.07612 0.0
C877 C 0.61672 0.82211 0.0962 0.0
C878 C 0.65088 0.68635 0.16684 0.0
C879 C 0.6487 0.7053 0.15844 0.0
C880 C 0.61669 0.74464 0.1652 0.0
C881 C 0.63015 0.79121 0.09943 0.0
C882 C 0.62835 0.7709 0.10786 0.0
C883 C 0.631 0.71307 0.15309 0.0
C884 C 0.6291 0.73279 0.13563 0.0
H885 H 0.66379 0.82407 0.09487 0.0
H886 H 0.66013 0.7907 0.09763 0.0
H887 H 0.60732 0.77253 0.17708 0.0
H888 H 0.60548 0.67383 0.17182 0.0
H889 H 0.60164 0.70726 0.15739 0.0
C890 C 0.81962 0.3854 0.92453 0.0
C891 C 0.82758 0.3677 0.92441 0.0
C892 C 0.80035 0.38742 0.92249 0.0
C893 C 0.75643 0.36174 0.94426 0.0
H894 H 0.73698 0.39399 0.8204 0.0
C895 C 0.68357 0.3513 0.85505 0.0
C896 C 0.67213 0.3669 0.85136 0.0
C897 C 0.70256 0.35328 0.86327 0.0
C898 C 0.74219 0.3851 0.8556 0.0
H899 H 0.82183 0.33834 0.92548 0.0
H900 H 0.78843 0.34178 0.92278 0.0
H901 H 0.77006 0.39453 0.84371 0.0
H902 H 0.67168 0.39684 0.84912 0.0
H903 H 0.70513 0.40032 0.86328 0.0
H904 H 0.72877 0.35198 0.95538 0.0
C905 C 0.79688 0.35414 0.92436 0.0
C906 C 0.76111 0.38546 0.86918 0.0
C907 C 0.81603 0.35214 0.92576 0.0
C908 C 0.68021 0.38457 0.85167 0.0
C909 C 0.69933 0.38656 0.85998 0.0
C910 C 0.73763 0.36135 0.93064 0.0
C911 C 0.7888 0.37177 0.9212 0.0
C912 C 0.76849 0.37344 0.91269 0.0
C913 C 0.71057 0.37091 0.86812 0.0
C914 C 0.73036 0.37266 0.88513 0.0
H915 H 0.82825 0.39763 0.92308 0.0
H916 H 0.79451 0.40118 0.92064 0.0
H917 H 0.76161 0.35258 0.97881 0.0
H918 H 0.67772 0.33752 0.85441 0.0
H919 H 0.71093 0.34095 0.86773 0.0
C920 C 0.88392 0.6822 0.59005 0.0
C921 C 0.86636 0.67391 0.59096 0.0
C922 C 0.88564 0.70149 0.59219 0.0
C923 C 0.85925 0.74502 0.57228 0.0
H924 H 0.89211 0.76486 0.69397 0.0
C925 C 0.84923 0.81817 0.66022 0.0
C926 C 0.86487 0.82958 0.66375 0.0
C927 C 0.85112 0.79916 0.65213 0.0
C928 C 0.88304 0.75955 0.65937 0.0
H929 H 0.83691 0.67914 0.59129 0.0
H930 H 0.83983 0.71261 0.59421 0.0
H931 H 0.89275 0.73177 0.67083 0.0
H932 H 0.89481 0.82997 0.66562 0.0
H933 H 0.89816 0.7965 0.65153 0.0
H934 H 0.84927 0.77259 0.56145 0.0
C935 C 0.8523 0.70438 0.59195 0.0
C936 C 0.88345 0.74063 0.6459 0.0
C937 C 0.85061 0.68519 0.59042 0.0
C938 C 0.88251 0.82146 0.66323 0.0
C939 C 0.88442 0.80233 0.65497 0.0
C940 C 0.85883 0.76384 0.58575 0.0
C941 C 0.86982 0.71277 0.59442 0.0
C942 C 0.87125 0.7331 0.60312 0.0
C943 C 0.86871 0.7911 0.64713 0.0
C944 C 0.87038 0.77127 0.63044 0.0
H945 H 0.8963 0.67379 0.59082 0.0
H946 H 0.89931 0.70757 0.59341 0.0
H947 H 0.84993 0.73973 0.53831 0.0
H948 H 0.83547 0.82406 0.66101 0.0
H949 H 0.83875 0.79083 0.64796 0.0
C950 C 0.8241 0.11894 0.3413 0.0
C951 C 0.83222 0.13659 0.34225 0.0
C952 C 0.80482 0.11705 0.34317 0.0
C953 C 0.76114 0.14304 0.32191 0.0
H954 H 0.74121 0.11024 0.44356 0.0
C955 C 0.68805 0.15322 0.40947 0.0
C956 C 0.67656 0.13764 0.41275 0.0
C957 C 0.70704 0.15124 0.40143 0.0
C958 C 0.74655 0.11929 0.40895 0.0
H959 H 0.82672 0.16599 0.34257 0.0
H960 H 0.79328 0.16276 0.34503 0.0
H961 H 0.77436 0.10974 0.42115 0.0
H962 H 0.67599 0.1077 0.41421 0.0
H963 H 0.70947 0.10419 0.40025 0.0
H964 H 0.73355 0.1529 0.31041 0.0
C965 C 0.80163 0.15036 0.34292 0.0
C966 C 0.76551 0.11896 0.39591 0.0
C967 C 0.8208 0.15223 0.34167 0.0
C968 C 0.68457 0.11995 0.41201 0.0
C969 C 0.7037 0.11795 0.40382 0.0
C970 C 0.74229 0.1434 0.33497 0.0
C971 C 0.7934 0.13277 0.34515 0.0
C972 C 0.77306 0.13116 0.35322 0.0
C973 C 0.71501 0.13361 0.39625 0.0
C974 C 0.73484 0.13188 0.37968 0.0
H975 H 0.83262 0.10664 0.34209 0.0
H976 H 0.79887 0.10332 0.34427 0.0
H977 H 0.76645 0.15235 0.28797 0.0
H978 H 0.68224 0.16702 0.41045 0.0
H979 H 0.71545 0.16357 0.39746 0.0
C980 C 0.11838 0.32171 0.60074 0.0
C981 C 0.13594 0.33002 0.60171 0.0
C982 C 0.1167 0.30241 0.60277 0.0
C983 C 0.14323 0.25899 0.58201 0.0
H984 H 0.11053 0.2388 0.70352 0.0
C985 C 0.15397 0.18595 0.66923 0.0
C986 C 0.13846 0.17435 0.67228 0.0
C987 C 0.15187 0.20494 0.66148 0.0
C988 C 0.11957 0.24422 0.66896 0.0
H989 H 0.16539 0.32484 0.6022 0.0
H990 H 0.16253 0.29138 0.60491 0.0
H991 H 0.10967 0.27192 0.68088 0.0
H992 H 0.10853 0.1736 0.67369 0.0
H993 H 0.10481 0.20705 0.66026 0.0
H994 H 0.15342 0.23151 0.57076 0.0
C995 C 0.15004 0.29958 0.60268 0.0
C996 C 0.11902 0.26315 0.65578 0.0
C997 C 0.1517 0.31877 0.60128 0.0
C998 C 0.12073 0.18226 0.6717 0.0
C999 C 0.11861 0.20138 0.66379 0.0
C1000 C 0.1438 0.24016 0.5952 0.0
C1001 C 0.13255 0.29116 0.6049 0.0
C1002 C 0.13117 0.27081 0.61312 0.0
C1003 C 0.13419 0.2128 0.65637 0.0
C1004 C 0.13232 0.23262 0.63986 0.0
H1005 H 0.106 0.33011 0.60144 0.0
H1006 H 0.10304 0.2963 0.60387 0.0
H1007 H 0.15251 0.26438 0.54809 0.0
H1008 H 0.1678 0.18022 0.67008 0.0
H1009 H 0.16414 0.21343 0.6576 0.0
C1010 C 0.32094 0.88294 0.43273 0.0
C1011 C 0.32904 0.8653 0.43173 0.0
C1012 C 0.30168 0.88485 0.42959 0.0
C1013 C 0.25776 0.85878 0.44607 0.0
H1014 H 0.23888 0.89254 0.32557 0.0
C1015 C 0.18478 0.85023 0.35555 0.0
C1016 C 0.1736 0.86604 0.35343 0.0
C1017 C 0.20381 0.8518 0.36367 0.0
C1018 C 0.24393 0.8832 0.35981 0.0
H1019 H 0.32348 0.8359 0.43019 0.0
H1020 H 0.29008 0.83916 0.42543 0.0
H1021 H 0.27187 0.89265 0.35013 0.0
H1022 H 0.17365 0.89598 0.35391 0.0
H1023 H 0.20717 0.89878 0.36801 0.0
H1024 H 0.23002 0.84905 0.45511 0.0
C1025 C 0.29843 0.85155 0.42857 0.0
C1026 C 0.2628 0.88332 0.37411 0.0
C1027 C 0.31758 0.84966 0.43116 0.0
C1028 C 0.18198 0.88356 0.35514 0.0
C1029 C 0.20114 0.88515 0.36345 0.0
C1030 C 0.239 0.85863 0.43174 0.0
C1031 C 0.29024 0.86915 0.42621 0.0
C1032 C 0.26997 0.87081 0.41651 0.0
C1033 C 0.21213 0.86924 0.37011 0.0
C1034 C 0.23192 0.87053 0.38748 0.0
H1035 H 0.32948 0.89524 0.43284 0.0
H1036 H 0.29577 0.89859 0.42852 0.0
H1037 H 0.26277 0.84922 0.47976 0.0
H1038 H 0.17868 0.83656 0.35385 0.0
H1039 H 0.21196 0.83929 0.36695 0.0
C1040 C 0.18711 0.11467 0.81633 0.0
C1041 C 0.18639 0.11305 0.75335 0.0
C1042 C 0.20372 0.11262 0.84718 0.0
C1043 C 0.25381 0.11648 0.82855 0.0
H1044 H 0.25513 0.09077 0.98138 0.0
C1045 C 0.32177 0.10746 0.95746 0.0
C1046 C 0.32157 0.11017 0.02001 0.0
C1047 C 0.30536 0.10602 0.92513 0.0
C1048 C 0.25496 0.09815 0.93911 0.0
H1049 H 0.20272 0.1078 0.67357 0.0
H1050 H 0.23201 0.10426 0.72791 0.0
H1051 H 0.22666 0.09112 0.92263 0.0
H1052 H 0.3039 0.11291 0.09797 0.0
H1053 H 0.27496 0.11075 0.04104 0.0
H1054 H 0.28193 0.12385 0.84533 0.0
C1055 C 0.21955 0.10721 0.7531 0.0
C1056 C 0.23866 0.0983 0.90529 0.0
C1057 C 0.20279 0.10917 0.72199 0.0
C1058 C 0.30449 0.11081 0.04986 0.0
C1059 C 0.28794 0.10952 0.01719 0.0
C1060 C 0.27007 0.11639 0.86241 0.0
C1061 C 0.22017 0.10893 0.81611 0.0
C1062 C 0.23786 0.10758 0.84981 0.0
C1063 C 0.28822 0.10743 0.95421 0.0
C1064 C 0.27085 0.10728 0.91826 0.0
H1065 H 0.17481 0.11764 0.84229 0.0
H1066 H 0.20372 0.11435 0.8955 0.0
H1067 H 0.25358 0.12401 0.78656 0.0
H1068 H 0.33469 0.10657 0.93303 0.0
H1069 H 0.30615 0.10391 0.87705 0.0
C1070 C 0.10781 0.70139 0.97401 0.0
C1071 C 0.11335 0.68521 1.00385 0.0
C1072 C 0.10571 0.718 1.00595 0.0
C1073 C 0.09938 0.7363 0.16063 0.0
H1074 H 0.12058 0.78121 0.09591 0.0
C1075 C 0.11191 0.80242 0.30409 0.0
C1076 C 0.10982 0.8195 0.27506 0.0
C1077 C 0.11044 0.78589 0.27131 0.0
C1078 C 0.11432 0.76887 0.1144 0.0
H1079 H 0.12095 0.67391 0.09095 0.0
H1080 H 0.11743 0.70255 0.14548 0.0
H1081 H 0.12107 0.75305 0.03612 0.0
H1082 H 0.10325 0.83265 0.19013 0.0
H1083 H 0.1002 0.80412 0.13406 0.0
H1084 H 0.09274 0.75209 0.23915 0.0
C1085 C 0.11446 0.70247 0.09781 0.0
C1086 C 0.11459 0.75272 0.07996 0.0
C1087 C 0.11663 0.68602 0.06613 0.0
C1088 C 0.1053 0.81971 0.21367 0.0
C1089 C 0.10364 0.80333 0.1813 0.0
C1090 C 0.09904 0.75248 0.19505 0.0
C1091 C 0.10898 0.71867 0.06831 0.0
C1092 C 0.1073 0.7362 0.10287 0.0
C1093 C 0.10667 0.7862 0.20915 0.0
C1094 C 0.10661 0.76896 0.17252 0.0
H1095 H 0.10515 0.70124 0.92617 0.0
H1096 H 0.10139 0.73027 0.98198 0.0
H1097 H 0.09343 0.72382 0.17932 0.0
H1098 H 0.11544 0.80185 0.35131 0.0
H1099 H 0.11292 0.77293 0.29419 0.0
C1100 C 0.68418 0.88807 0.95619 0.0
C1101 C 0.68344 0.89025 0.019 0.0
C1102 C 0.70074 0.8901 0.92507 0.0
C1103 C 0.75086 0.88723 0.94304 0.0
H1104 H 0.75148 0.91184 0.78823 0.0
C1105 C 0.81832 0.8957 0.81104 0.0
C1106 C 0.81792 0.89247 0.74877 0.0
C1107 C 0.80202 0.89738 0.8438 0.0
C1108 C 0.7515 0.90476 0.83107 0.0
H1109 H 0.69972 0.89638 0.09821 0.0
H1110 H 0.72896 0.89987 0.04335 0.0
H1111 H 0.72318 0.91156 0.8479 0.0
H1112 H 0.80005 0.88913 0.67162 0.0
H1113 H 0.77126 0.89168 0.72936 0.0
H1114 H 0.779 0.88006 0.9259 0.0
C1115 C 0.71653 0.89653 0.01853 0.0
C1116 C 0.73531 0.90467 0.86541 0.0
C1117 C 0.6998 0.89459 0.04993 0.0
C1118 C 0.80077 0.89163 0.71951 0.0
C1119 C 0.78432 0.89313 0.75265 0.0
C1120 C 0.76702 0.88727 0.90865 0.0
C1121 C 0.71713 0.89433 0.95567 0.0
C1122 C 0.73476 0.89576 0.92157 0.0
C1123 C 0.78478 0.89568 0.81546 0.0
C1124 C 0.76754 0.89596 0.85207 0.0
H1125 H 0.67192 0.88471 0.93051 0.0
H1126 H 0.70074 0.88797 0.87692 0.0
H1127 H 0.75081 0.87999 0.98559 0.0
H1128 H 0.83132 0.89678 0.83492 0.0
H1129 H 0.80296 0.89987 0.89166 0.0
C1130 C 0.88625 0.31796 0.06256 0.0
C1131 C 0.88845 0.31895 0.99981 0.0
C1132 C 0.88863 0.30134 0.09307 0.0
C1133 C 0.88702 0.25119 0.07325 0.0
H1134 H 0.91186 0.25073 0.22769 0.0
C1135 C 0.89743 0.18354 0.20284 0.0
C1136 C 0.89428 0.1837 0.26516 0.0
C1137 C 0.89863 0.19997 0.17052 0.0
C1138 C 0.90472 0.25065 0.18496 0.0
H1139 H 0.89494 0.30306 0.92003 0.0
H1140 H 0.89904 0.27374 0.97379 0.0
H1141 H 0.91071 0.27923 0.16924 0.0
H1142 H 0.89055 0.20132 0.34282 0.0
H1143 H 0.89228 0.23028 0.28594 0.0
H1144 H 0.88065 0.22279 0.0893 0.0
C1145 C 0.89542 0.286 0.99905 0.0
C1146 C 0.90413 0.26696 0.15131 0.0
C1147 C 0.89312 0.30278 0.96829 0.0
C1148 C 0.89301 0.20077 0.29489 0.0
C1149 C 0.89405 0.21733 0.26224 0.0
C1150 C 0.88755 0.23491 0.10696 0.0
C1151 C 0.89323 0.28515 0.06188 0.0
C1152 C 0.89513 0.26746 0.0953 0.0
C1153 C 0.89654 0.21709 0.19941 0.0
C1154 C 0.89633 0.23444 0.1634 0.0
H1155 H 0.88263 0.33006 0.08865 0.0
H1156 H 0.8865 0.30113 0.14121 0.0
H1157 H 0.87973 0.25118 0.03079 0.0
H1158 H 0.8988 0.17063 0.17857 0.0
H1159 H 0.90107 0.19922 0.1226 0.0
C1160 C 0.3011 0.39358 0.22309 0.0
C1161 C 0.31733 0.38874 0.25394 0.0
C1162 C 0.2844 0.39576 0.25443 0.0
C1163 C 0.26568 0.40369 0.40773 0.0
H1164 H 0.22146 0.38035 0.3457 0.0
C1165 C 0.19987 0.39141 0.55256 0.0
C1166 C 0.18275 0.39271 0.52329 0.0
C1167 C 0.21636 0.39277 0.51957 0.0
C1168 C 0.23359 0.38722 0.36339 0.0
H1169 H 0.32863 0.38254 0.34223 0.0
H1170 H 0.29983 0.38621 0.39572 0.0
H1171 H 0.24968 0.37988 0.28625 0.0
H1172 H 0.16947 0.39767 0.43737 0.0
H1173 H 0.19791 0.4005 0.38087 0.0
H1174 H 0.24963 0.41093 0.4851 0.0
C1175 C 0.29994 0.38855 0.34769 0.0
C1176 C 0.24978 0.38694 0.32914 0.0
C1177 C 0.31648 0.38629 0.31662 0.0
C1178 C 0.18243 0.39625 0.46122 0.0
C1179 C 0.19878 0.39778 0.4286 0.0
C1180 C 0.24946 0.40403 0.44193 0.0
C1181 C 0.28368 0.39329 0.31716 0.0
C1182 C 0.26607 0.395 0.35116 0.0
C1183 C 0.21597 0.39561 0.45691 0.0
C1184 C 0.23323 0.39568 0.42038 0.0
H1185 H 0.30128 0.3956 0.17492 0.0
H1186 H 0.27208 0.3995 0.22968 0.0
H1187 H 0.27797 0.41023 0.42567 0.0
H1188 H 0.20052 0.38866 0.6003 0.0
H1189 H 0.22937 0.39095 0.54282 0.0
C1190 C 0.39401 0.69904 0.80235 0.0
C1191 C 0.39026 0.68261 0.77093 0.0
C1192 C 0.39577 0.71583 0.77136 0.0
C1193 C 0.40427 0.73523 0.61923 0.0
H1194 H 0.37851 0.77815 0.68077 0.0
C1195 C 0.39114 0.8014 0.47692 0.0
C1196 C 0.39176 0.81839 0.50733 0.0
C1197 C 0.39257 0.78475 0.50898 0.0
C1198 C 0.38603 0.76639 0.66324 0.0
H1199 H 0.38575 0.67101 0.68198 0.0
H1200 H 0.3887 0.7 0.62891 0.0
H1201 H 0.37862 0.74966 0.7388 0.0
H1202 H 0.39549 0.83127 0.59465 0.0
H1203 H 0.39839 0.80257 0.64959 0.0
H1204 H 0.41158 0.75194 0.54342 0.0
C1205 C 0.39046 0.69999 0.67721 0.0
C1206 C 0.3861 0.75005 0.69668 0.0
C1207 C 0.38861 0.68334 0.70797 0.0
C1208 C 0.39461 0.81842 0.5698 0.0
C1209 C 0.39618 0.80192 0.60154 0.0
C1210 C 0.40425 0.7516 0.58582 0.0
C1211 C 0.39398 0.71647 0.70837 0.0
C1212 C 0.39509 0.73423 0.67488 0.0
C1213 C 0.39478 0.78485 0.57191 0.0
C1214 C 0.39506 0.76738 0.60729 0.0
H1215 H 0.39539 0.69896 0.85076 0.0
H1216 H 0.39861 0.72831 0.79663 0.0
H1217 H 0.41151 0.72333 0.60147 0.0
H1218 H 0.38893 0.80094 0.42884 0.0
H1219 H 0.39136 0.77184 0.48473 0.0
C1220 C 0.70058 0.60958 0.21974 0.0
C1221 C 0.68434 0.61391 0.25136 0.0
C1222 C 0.71742 0.60763 0.25041 0.0
C1223 C 0.7368 0.59945 0.40272 0.0
H1224 H 0.78036 0.62387 0.3401 0.0
C1225 C 0.80288 0.61221 0.54567 0.0
C1226 C 0.81994 0.6112 0.51584 0.0
C1227 C 0.7863 0.61083 0.51317 0.0
C1228 C 0.76841 0.61672 0.35794 0.0
H1229 H 0.67316 0.6194 0.34033 0.0
H1230 H 0.70219 0.61611 0.39272 0.0
H1231 H 0.75191 0.62404 0.28177 0.0
H1232 H 0.833 0.60681 0.42915 0.0
H1233 H 0.80441 0.60398 0.37347 0.0
H1234 H 0.75326 0.59223 0.47912 0.0
C1235 C 0.702 0.61401 0.34456 0.0
C1236 C 0.7521 0.61681 0.32433 0.0
C1237 C 0.68532 0.61605 0.31415 0.0
C1238 C 0.82009 0.60799 0.45353 0.0
C1239 C 0.80366 0.60646 0.42137 0.0
C1240 C 0.75314 0.5993 0.43628 0.0
C1241 C 0.71828 0.60981 0.31325 0.0
C1242 C 0.73604 0.60835 0.34657 0.0
C1243 C 0.78653 0.60826 0.45037 0.0
C1244 C 0.76914 0.60804 0.41451 0.0
H1245 H 0.70031 0.60782 0.17146 0.0
H1246 H 0.72975 0.60429 0.22504 0.0
H1247 H 0.72471 0.5926 0.42082 0.0
H1248 H 0.80232 0.61471 0.59359 0.0
H1249 H 0.77335 0.61238 0.53696 0.0
C1250 C 0.61012 0.20188 0.4671 0.0
C1251 C 0.61513 0.18569 0.49786 0.0
C1252 C 0.60775 0.21855 0.49854 0.0
C1253 C 0.59945 0.23713 0.65176 0.0
H1254 H 0.62247 0.2816 0.59037 0.0
C1255 C 0.61078 0.30299 0.79723 0.0
C1256 C 0.60945 0.32013 0.76809 0.0
C1257 C 0.60963 0.28651 0.76407 0.0
C1258 C 0.61569 0.2694 0.60787 0.0
H1259 H 0.62139 0.1744 0.58608 0.0
H1260 H 0.61736 0.20314 0.6398 0.0
H1261 H 0.62332 0.2534 0.53083 0.0
H1262 H 0.60467 0.33344 0.68212 0.0
H1263 H 0.60218 0.305 0.62529 0.0
H1264 H 0.59191 0.2531 0.72901 0.0
C1265 C 0.61507 0.20304 0.59174 0.0
C1266 C 0.61618 0.25322 0.57357 0.0
C1267 C 0.61754 0.18654 0.56056 0.0
C1268 C 0.6061 0.32046 0.7059 0.0
C1269 C 0.60477 0.30412 0.67309 0.0
C1270 C 0.59888 0.25334 0.68599 0.0
C1271 C 0.61017 0.21926 0.56129 0.0
C1272 C 0.60825 0.23685 0.59537 0.0
C1273 C 0.60696 0.28692 0.70132 0.0
C1274 C 0.60711 0.26967 0.66469 0.0
H1275 H 0.60814 0.20171 0.41891 0.0
H1276 H 0.6039 0.23084 0.47384 0.0
H1277 H 0.59301 0.22478 0.66952 0.0
H1278 H 0.6134 0.30232 0.84505 0.0
H1279 H 0.61147 0.2735 0.78728 0.0
C1280 C 0.35329 0.1285 0.38272 0.0
C1281 C 0.35965 0.11343 0.34882 0.0
C1282 C 0.35616 0.12917 0.44481 0.0
C1283 C 0.3874 0.11078 0.56133 0.0
H1284 H 0.35131 0.13126 0.67138 0.0
C1285 C 0.39646 0.1091 0.81996 0.0
C1286 C 0.38988 0.1242 0.85331 0.0
C1287 C 0.39341 0.10807 0.75799 0.0
C1288 C 0.36166 0.12574 0.64118 0.0
H1289 H 0.37335 0.08687 0.35347 0.0
H1290 H 0.37816 0.08787 0.46214 0.0
H1291 H 0.34357 0.12794 0.56541 0.0
H1292 H 0.3756 0.15043 0.84771 0.0
H1293 H 0.37057 0.14886 0.73933 0.0
H1294 H 0.40552 0.10864 0.63703 0.0
C1295 C 0.3712 0.09933 0.44066 0.0
C1296 C 0.35718 0.12377 0.58037 0.0
C1297 C 0.36827 0.09866 0.37852 0.0
C1298 C 0.38085 0.13863 0.82313 0.0
C1299 C 0.37779 0.13762 0.76113 0.0
C1300 C 0.39189 0.11277 0.62213 0.0
C1301 C 0.36551 0.11477 0.47442 0.0
C1302 C 0.37 0.11628 0.53961 0.0
C1303 C 0.38369 0.12214 0.72794 0.0
C1304 C 0.37909 0.12031 0.66287 0.0
H1305 H 0.34668 0.14014 0.36097 0.0
H1306 H 0.35172 0.14133 0.46918 0.0
H1307 H 0.39775 0.10527 0.53108 0.0
H1308 H 0.40336 0.09771 0.84211 0.0
H1309 H 0.39802 0.09588 0.73411 0.0
C1310 C 0.12918 0.65355 0.64151 0.0
C1311 C 0.11426 0.64674 0.67526 0.0
C1312 C 0.12996 0.65072 0.57939 0.0
C1313 C 0.11241 0.61903 0.46235 0.0
H1314 H 0.13225 0.65562 0.35281 0.0
C1315 C 0.11104 0.61003 0.20364 0.0
C1316 C 0.12603 0.61692 0.17038 0.0
C1317 C 0.10993 0.61307 0.26562 0.0
C1318 C 0.12692 0.64513 0.38287 0.0
H1319 H 0.08811 0.63226 0.67025 0.0
H1320 H 0.0893 0.62753 0.56156 0.0
H1321 H 0.12867 0.66323 0.45882 0.0
H1322 H 0.15196 0.63176 0.17615 0.0
H1323 H 0.15024 0.63678 0.28456 0.0
H1324 H 0.1107 0.60092 0.38645 0.0
C1325 C 0.10056 0.63482 0.58318 0.0
C1326 C 0.1248 0.64953 0.44371 0.0
C1327 C 0.09977 0.63769 0.64535 0.0
C1328 C 0.14026 0.62626 0.20066 0.0
C1329 C 0.13915 0.62931 0.26268 0.0
C1330 C 0.11454 0.61462 0.40151 0.0
C1331 C 0.11586 0.64096 0.54956 0.0
C1332 C 0.11754 0.63654 0.4843 0.0
C1333 C 0.12379 0.62308 0.2958 0.0
C1334 C 0.12185 0.6276 0.36093 0.0
H1335 H 0.14061 0.66048 0.66341 0.0
H1336 H 0.14202 0.65552 0.55519 0.0
H1337 H 0.1071 0.60854 0.49243 0.0
H1338 H 0.09979 0.60289 0.18143 0.0
H1339 H 0.09782 0.6082 0.28942 0.0
C1340 C 0.63565 0.90345 0.3762 0.0
C1341 C 0.64461 0.8889 0.34634 0.0
C1342 C 0.63285 0.90273 0.43834 0.0
C1343 C 0.64747 0.8786 0.57779 0.0
H1344 H 0.5989 0.89298 0.63462 0.0
C1345 C 0.62398 0.86386 0.82078 0.0
C1346 C 0.615 0.87837 0.85076 0.0
C1347 C 0.62698 0.86474 0.75875 0.0
C1348 C 0.61259 0.88906 0.61963 0.0
H1349 H 0.65832 0.86256 0.35813 0.0
H1350 H 0.65344 0.86124 0.46644 0.0
H1351 H 0.60654 0.89629 0.52858 0.0
H1352 H 0.60152 0.90486 0.83928 0.0
H1353 H 0.60672 0.90641 0.73115 0.0
H1354 H 0.6535 0.87135 0.66887 0.0
C1355 C 0.64866 0.87329 0.44218 0.0
C1356 C 0.617 0.89102 0.5588 0.0
C1357 C 0.65145 0.87402 0.38005 0.0
C1358 C 0.60839 0.89341 0.81725 0.0
C1359 C 0.61136 0.89428 0.75525 0.0
C1360 C 0.64305 0.87664 0.63862 0.0
C1361 C 0.63896 0.88744 0.47193 0.0
C1362 C 0.63451 0.88582 0.53708 0.0
C1363 C 0.62104 0.88014 0.7254 0.0
C1364 C 0.62554 0.88183 0.66032 0.0
H1365 H 0.63023 0.9151 0.35129 0.0
H1366 H 0.62563 0.91403 0.45995 0.0
H1367 H 0.66115 0.87468 0.5628 0.0
H1368 H 0.62925 0.85212 0.84553 0.0
H1369 H 0.63419 0.85345 0.73704 0.0
C1370 C 0.89049 0.39424 0.20304 0.0
C1371 C 0.87561 0.38729 0.16945 0.0
C1372 C 0.8914 0.39128 0.26501 0.0
C1373 C 0.86374 0.37745 0.39795 0.0
H1374 H 0.91136 0.36271 0.46177 0.0
C1375 C 0.87132 0.35073 0.64041 0.0
C1376 C 0.88615 0.35791 0.67372 0.0
C1377 C 0.87042 0.35342 0.57829 0.0
C1378 C 0.898 0.36696 0.44481 0.0
H1379 H 0.84968 0.37241 0.17444 0.0
H1380 H 0.85123 0.36722 0.28267 0.0
H1381 H 0.90847 0.37045 0.35566 0.0
H1382 H 0.91203 0.37286 0.66812 0.0
H1383 H 0.91049 0.37758 0.55967 0.0
H1384 H 0.85327 0.37397 0.48711 0.0
C1385 C 0.86215 0.37506 0.26136 0.0
C1386 C 0.89634 0.37146 0.38398 0.0
C1387 C 0.86125 0.37802 0.19932 0.0
C1388 C 0.90048 0.3671 0.64346 0.0
C1389 C 0.89959 0.36978 0.5813 0.0
C1390 C 0.8654 0.37295 0.45878 0.0
C1391 C 0.87744 0.3813 0.29476 0.0
C1392 C 0.8792 0.3768 0.35978 0.0
C1393 C 0.88434 0.36334 0.54815 0.0
C1394 C 0.88255 0.36765 0.483 0.0
H1395 H 0.90175 0.40143 0.18114 0.0
H1396 H 0.90319 0.39658 0.28951 0.0
H1397 H 0.85038 0.38172 0.38102 0.0
H1398 H 0.86008 0.34358 0.6626 0.0
H1399 H 0.85865 0.34797 0.55399 0.0
C1400 C 0.37606 0.36156 0.45217 0.0
C1401 C 0.38555 0.37575 0.42221 0.0
C1402 C 0.37309 0.36254 0.51422 0.0
C1403 C 0.37009 0.39686 0.63699 0.0
H1404 H 0.37173 0.35376 0.73999 0.0
C1405 C 0.36568 0.40112 0.89663 0.0
C1406 C 0.35619 0.38697 0.92684 0.0
C1407 C 0.3684 0.40017 0.83446 0.0
C1408 C 0.37095 0.3659 0.71171 0.0
H1409 H 0.40004 0.40171 0.43381 0.0
H1410 H 0.3952 0.40328 0.54218 0.0
H1411 H 0.37943 0.35071 0.63388 0.0
H1412 H 0.3414 0.36117 0.91557 0.0
H1413 H 0.34585 0.35963 0.80698 0.0
H1414 H 0.36165 0.41206 0.71487 0.0
C1415 C 0.38972 0.39155 0.51774 0.0
C1416 C 0.37542 0.36415 0.65084 0.0
C1417 C 0.39268 0.39056 0.45575 0.0
C1418 C 0.34878 0.37227 0.89344 0.0
C1419 C 0.3515 0.3713 0.83132 0.0
C1420 C 0.36563 0.39861 0.69787 0.0
C1421 C 0.37954 0.37776 0.54759 0.0
C1422 C 0.37508 0.37961 0.61269 0.0
C1423 C 0.3617 0.38503 0.80122 0.0
C1424 C 0.366 0.38315 0.73603 0.0
H1425 H 0.37029 0.35004 0.42734 0.0
H1426 H 0.36509 0.35174 0.53557 0.0
H1427 H 0.36932 0.40901 0.60872 0.0
H1428 H 0.37164 0.41256 0.92133 0.0
H1429 H 0.37641 0.41092 0.81288 0.0
C1430 C 0.40319 0.6355 0.12832 0.0
C1431 C 0.3884 0.64408 0.09859 0.0
C1432 C 0.40253 0.6326 0.19046 0.0
C1433 C 0.378 0.64656 0.33011 0.0
H1434 H 0.39344 0.59834 0.38694 0.0
C1435 C 0.36328 0.62284 0.57286 0.0
C1436 C 0.3778 0.61398 0.60311 0.0
C1437 C 0.36426 0.62588 0.51086 0.0
C1438 C 0.38923 0.61193 0.37198 0.0
H1439 H 0.36165 0.65698 0.11069 0.0
H1440 H 0.36047 0.65196 0.21889 0.0
H1441 H 0.39676 0.60609 0.28096 0.0
H1442 H 0.40443 0.60077 0.59203 0.0
H1443 H 0.40621 0.60606 0.484 0.0
H1444 H 0.37046 0.65241 0.42109 0.0
C1445 C 0.37265 0.64755 0.19455 0.0
C1446 C 0.39119 0.61641 0.31117 0.0
C1447 C 0.37331 0.65041 0.13247 0.0
C1448 C 0.39297 0.60754 0.56983 0.0
C1449 C 0.39397 0.61056 0.50785 0.0
C1450 C 0.37605 0.64209 0.39091 0.0
C1451 C 0.38707 0.63825 0.22419 0.0
C1452 C 0.38558 0.63377 0.2894 0.0
C1453 C 0.37981 0.62012 0.47773 0.0
C1454 C 0.38159 0.6247 0.41266 0.0
H1455 H 0.41499 0.63045 0.10329 0.0
H1456 H 0.41402 0.62567 0.21196 0.0
H1457 H 0.37376 0.66014 0.31511 0.0
H1458 H 0.35142 0.62798 0.5974 0.0
H1459 H 0.35295 0.63298 0.489 0.0
C1460 C 0.65214 0.62999 0.89205 0.0
C1461 C 0.64496 0.61524 0.92569 0.0
C1462 C 0.64941 0.63079 0.82992 0.0
C1463 C 0.61746 0.61373 0.71315 0.0
H1464 H 0.65447 0.63265 0.60332 0.0
C1465 C 0.60904 0.61152 0.45472 0.0
C1466 C 0.616 0.62641 0.42126 0.0
C1467 C 0.61192 0.6106 0.51674 0.0
C1468 C 0.64389 0.62758 0.63351 0.0
H1469 H 0.63004 0.58933 0.92064 0.0
H1470 H 0.62554 0.59051 0.81195 0.0
H1471 H 0.66198 0.62913 0.70942 0.0
H1472 H 0.6308 0.65238 0.42655 0.0
H1473 H 0.6356 0.65097 0.53509 0.0
H1474 H 0.59937 0.61217 0.63725 0.0
C1475 C 0.63298 0.60166 0.83362 0.0
C1476 C 0.64822 0.6255 0.69434 0.0
C1477 C 0.63572 0.60087 0.89577 0.0
C1478 C 0.62525 0.64075 0.45128 0.0
C1479 C 0.62817 0.63983 0.51333 0.0
C1480 C 0.61313 0.6158 0.65232 0.0
C1481 C 0.63943 0.61683 0.80011 0.0
C1482 C 0.63507 0.61855 0.73496 0.0
C1483 C 0.62187 0.62455 0.54664 0.0
C1484 C 0.62628 0.62277 0.61172 0.0
H1485 H 0.65923 0.64131 0.91402 0.0
H1486 H 0.65445 0.64274 0.8057 0.0
H1487 H 0.60687 0.60868 0.74332 0.0
H1488 H 0.60195 0.60021 0.43266 0.0
H1489 H 0.607 0.59856 0.54081 0.0
C1490 C 0.60955 0.39529 0.56869 0.0
C1491 C 0.62444 0.38826 0.602 0.0
C1492 C 0.60848 0.39232 0.50667 0.0
C1493 C 0.63586 0.3784 0.37301 0.0
H1494 H 0.58811 0.36388 0.30944 0.0
C1495 C 0.62825 0.35143 0.13063 0.0
C1496 C 0.61326 0.35818 0.09717 0.0
C1497 C 0.62917 0.35434 0.19267 0.0
C1498 C 0.60151 0.36809 0.32626 0.0
H1499 H 0.6502 0.37315 0.59634 0.0
H1500 H 0.6484 0.36798 0.4881 0.0
H1501 H 0.59111 0.37168 0.41553 0.0
H1502 H 0.58716 0.37271 0.10261 0.0
H1503 H 0.58875 0.37788 0.21092 0.0
H1504 H 0.64626 0.37486 0.2838 0.0
C1505 C 0.63758 0.37589 0.50967 0.0
C1506 C 0.60323 0.37261 0.38715 0.0
C1507 C 0.63862 0.37885 0.57174 0.0
C1508 C 0.59883 0.36724 0.12734 0.0
C1509 C 0.59975 0.37019 0.18946 0.0
C1510 C 0.63413 0.3739 0.31213 0.0
C1511 C 0.62229 0.38225 0.47653 0.0
C1512 C 0.62043 0.37782 0.41135 0.0
C1513 C 0.61514 0.36414 0.22274 0.0
C1514 C 0.61694 0.36865 0.28792 0.0
H1515 H 0.59839 0.40258 0.59083 0.0
H1516 H 0.59668 0.3977 0.48244 0.0
H1517 H 0.64926 0.38259 0.38987 0.0
H1518 H 0.63958 0.34438 0.10858 0.0
H1519 H 0.64104 0.34915 0.21696 0.0
C1520 C 0.85181 0.63064 0.87778 0.0
C1521 C 0.85807 0.61552 0.84388 0.0
C1522 C 0.85467 0.63126 0.93988 0.0
C1523 C 0.88569 0.61244 0.05639 0.0
H1524 H 0.84987 0.63338 0.16648 0.0
C1525 C 0.89436 0.61014 0.31497 0.0
C1526 C 0.88818 0.6254 0.34839 0.0
C1527 C 0.89134 0.60927 0.25298 0.0
C1528 C 0.86014 0.62773 0.13624 0.0
H1529 H 0.87155 0.58884 0.84852 0.0
H1530 H 0.87629 0.58975 0.95717 0.0
H1531 H 0.84211 0.63025 0.06044 0.0
H1532 H 0.87464 0.65202 0.34298 0.0
H1533 H 0.86963 0.65068 0.23454 0.0
H1534 H 0.90372 0.60994 0.13219 0.0
C1535 C 0.86945 0.60129 0.9357 0.0
C1536 C 0.85566 0.62587 0.07541 0.0
C1537 C 0.86656 0.60067 0.87357 0.0
C1538 C 0.87958 0.6401 0.31831 0.0
C1539 C 0.87654 0.63923 0.2563 0.0
C1540 C 0.89017 0.61429 0.11723 0.0
C1541 C 0.86389 0.61677 0.96947 0.0
C1542 C 0.86838 0.61822 0.03466 0.0
C1543 C 0.88204 0.62363 0.22303 0.0
C1544 C 0.87747 0.62199 0.15795 0.0
H1545 H 0.84532 0.64233 0.85602 0.0
H1546 H 0.85033 0.64346 0.96425 0.0
H1547 H 0.89597 0.60681 0.02615 0.0
H1548 H 0.90093 0.59855 0.33705 0.0
H1549 H 0.89564 0.59698 0.22897 0.0
C1550 C 0.61516 0.10977 0.69909 0.0
C1551 C 0.62958 0.11767 0.66557 0.0
C1552 C 0.614 0.11269 0.7611 0.0
C1553 C 0.64062 0.1283 0.89435 0.0
H1554 H 0.59212 0.13995 0.95815 0.0
C1555 C 0.63138 0.15462 0.13695 0.0
C1556 C 0.61689 0.14679 0.1703 0.0
C1557 C 0.63248 0.15187 0.07486 0.0
C1558 C 0.60574 0.13656 0.94125 0.0
H1559 H 0.65445 0.13425 0.67081 0.0
H1560 H 0.65248 0.13935 0.77906 0.0
H1561 H 0.59554 0.13234 0.85206 0.0
H1562 H 0.59181 0.13054 0.16468 0.0
H1563 H 0.5937 0.12568 0.05631 0.0
H1564 H 0.65082 0.13248 0.98352 0.0
C1565 C 0.64211 0.1308 0.75766 0.0
C1566 C 0.6077 0.13214 0.88038 0.0
C1567 C 0.64325 0.12789 0.6956 0.0
C1568 C 0.60308 0.13683 0.14003 0.0
C1569 C 0.60418 0.13407 0.07788 0.0
C1570 C 0.63865 0.13271 0.95522 0.0
C1571 C 0.62724 0.12357 0.79101 0.0
C1572 C 0.62516 0.12794 0.85613 0.0
C1573 C 0.61912 0.14121 0.04469 0.0
C1574 C 0.62119 0.13691 0.9795 0.0
H1575 H 0.60441 0.10184 0.67712 0.0
H1576 H 0.60256 0.10663 0.78551 0.0
H1577 H 0.65423 0.12492 0.87743 0.0
H1578 H 0.64223 0.16237 0.15912 0.0
H1579 H 0.64398 0.15788 0.0506 0.0
C1580 C 0.1247 0.36322 0.32602 0.0
C1581 C 0.11479 0.37712 0.35601 0.0
C1582 C 0.12762 0.36427 0.26397 0.0
C1583 C 0.12983 0.39855 0.14134 0.0
H1584 H 0.12905 0.3554 0.03823 0.0
C1585 C 0.1348 0.40294 0.88179 0.0
C1586 C 0.14438 0.38885 0.85161 0.0
C1587 C 0.13198 0.40195 0.94391 0.0
C1588 C 0.12959 0.36756 0.06652 0.0
H1589 H 0.09953 0.40261 0.34444 0.0
H1590 H 0.10435 0.40431 0.23602 0.0
H1591 H 0.12134 0.35222 0.14426 0.0
H1592 H 0.15925 0.36312 0.8629 0.0
H1593 H 0.15467 0.36154 0.97139 0.0
H1594 H 0.13811 0.41389 0.06363 0.0
C1595 C 0.11014 0.39275 0.26047 0.0
C1596 C 0.1251 0.36574 0.12734 0.0
C1597 C 0.10721 0.39169 0.32247 0.0
C1598 C 0.15179 0.37418 0.88501 0.0
C1599 C 0.14899 0.37318 0.94708 0.0
C1600 C 0.13434 0.40038 0.08051 0.0
C1601 C 0.12071 0.37927 0.23062 0.0
C1602 C 0.12514 0.38121 0.16554 0.0
C1603 C 0.13868 0.38683 0.97715 0.0
C1604 C 0.13429 0.3849 0.04229 0.0
H1605 H 0.13081 0.3519 0.35083 0.0
H1606 H 0.13593 0.35371 0.24259 0.0
H1607 H 0.13034 0.41071 0.16966 0.0
H1608 H 0.12884 0.41436 0.85709 0.0
H1609 H 0.12388 0.41264 0.96541 0.0
C1610 C 0.37235 0.85037 0.14641 0.0
C1611 C 0.38746 0.85675 0.18012 0.0
C1612 C 0.37167 0.8532 0.08432 0.0
C1613 C 0.39018 0.88434 0.96766 0.0
H1614 H 0.36952 0.84829 0.85771 0.0
C1615 C 0.39246 0.89297 0.70919 0.0
C1616 C 0.37729 0.88661 0.67573 0.0
C1617 C 0.39332 0.88998 0.77118 0.0
C1618 C 0.37509 0.85862 0.88791 0.0
H1619 H 0.41407 0.87039 0.17516 0.0
H1620 H 0.41305 0.87509 0.06651 0.0
H1621 H 0.37274 0.84059 0.96374 0.0
H1622 H 0.35078 0.87279 0.68106 0.0
H1623 H 0.35209 0.86784 0.78954 0.0
H1624 H 0.39251 0.90239 0.89186 0.0
C1625 C 0.40157 0.86818 0.08813 0.0
C1626 C 0.377 0.85417 0.94873 0.0
C1627 C 0.40225 0.86531 0.15026 0.0
C1628 C 0.36263 0.87787 0.70577 0.0
C1629 C 0.36349 0.87486 0.76779 0.0
C1630 C 0.38827 0.8888 0.90685 0.0
C1631 C 0.38609 0.8625 0.05456 0.0
C1632 C 0.38457 0.86697 0.98941 0.0
C1633 C 0.37902 0.88054 0.8011 0.0
C1634 C 0.38068 0.87601 0.86618 0.0
H1635 H 0.36071 0.84381 0.16833 0.0
H1636 H 0.35948 0.84877 0.06008 0.0
H1637 H 0.39574 0.89468 0.99786 0.0
H1638 H 0.40401 0.89965 0.68713 0.0
H1639 H 0.40555 0.89442 0.7952 0.0
C1640 C 0.84894 0.87431 0.38656 0.0
C1641 C 0.85635 0.88898 0.42014 0.0
C1642 C 0.85175 0.87335 0.32446 0.0
C1643 C 0.88424 0.88938 0.20771 0.0
H1644 H 0.84678 0.87153 0.09763 0.0
C1645 C 0.89333 0.89091 0.94925 0.0
C1646 C 0.88567 0.8764 0.91554 0.0
C1647 C 0.89038 0.89198 0.01126 0.0
C1648 C 0.85749 0.87628 0.12785 0.0
H1649 H 0.87187 0.91453 0.41491 0.0
H1650 H 0.87658 0.91302 0.3063 0.0
H1651 H 0.8393 0.8753 0.20368 0.0
H1652 H 0.86956 0.85122 0.9205 0.0
H1653 H 0.8647 0.85283 0.02897 0.0
H1654 H 0.90246 0.8903 0.13199 0.0
C1655 C 0.86883 0.90209 0.32801 0.0
C1656 C 0.85317 0.87852 0.18869 0.0
C1657 C 0.86598 0.90307 0.39013 0.0
C1658 C 0.87566 0.86255 0.94538 0.0
C1659 C 0.8727 0.8636 1.00743 0.0
C1660 C 0.88857 0.88712 0.1469 0.0
C1661 C 0.86209 0.88701 0.29458 0.0
C1662 C 0.86648 0.8851 0.22943 0.0
C1663 C 0.87969 0.87855 0.04099 0.0
C1664 C 0.87526 0.88053 0.10613 0.0
H1665 H 0.84155 0.86319 0.40857 0.0
H1666 H 0.84647 0.86147 0.30031 0.0
H1667 H 0.89494 0.89414 0.23796 0.0
H1668 H 0.90101 0.90186 0.92737 0.0
H1669 H 0.89585 0.90376 0.03543 0.0
C1670 C 0.89504 0.10856 0.06471 0.0
C1671 C 0.88003 0.11532 0.0981 0.0
C1672 C 0.89603 0.11154 1.0027 0.0
C1673 C 0.86837 0.12489 0.86926 0.0
H1674 H 0.91579 0.14049 0.80575 0.0
C1675 C 0.87542 0.15206 0.62712 0.0
C1676 C 0.89053 0.14559 0.59362 0.0
C1677 C 0.87456 0.14914 0.68915 0.0
C1678 C 0.90249 0.13599 0.82256 0.0
H1679 H 0.85397 0.12992 0.09263 0.0
H1680 H 0.85563 0.1351 0.9844 0.0
H1681 H 0.91295 0.1326 0.91179 0.0
H1682 H 0.91692 0.1316 0.59892 0.0
H1683 H 0.91545 0.12642 0.70721 0.0
H1684 H 0.85791 0.12822 0.78008 0.0
C1685 C 0.86661 0.1274 1.0059 0.0
C1686 C 0.90086 0.13141 0.88341 0.0
C1687 C 0.86565 0.12444 0.06795 0.0
C1688 C 0.90515 0.13684 0.6237 0.0
C1689 C 0.9043 0.13389 0.6858 0.0
C1690 C 0.87 0.12944 0.80842 0.0
C1691 C 0.88201 0.12134 0.97268 0.0
C1692 C 0.88378 0.12581 0.90756 0.0
C1693 C 0.88878 0.13963 0.71913 0.0
C1694 C 0.88707 0.13508 0.78425 0.0
H1695 H 0.90634 0.1015 0.08678 0.0
H1696 H 0.90792 0.10639 0.97839 0.0
H1697 H 0.85507 0.12041 0.88611 0.0
H1698 H 0.86394 0.15887 0.60512 0.0
H1699 H 0.86259 0.15409 0.7135 0.0
C1700 C 0.12653 0.13999 0.95177 0.0
C1701 C 0.1179 0.12533 0.92137 0.0
C1702 C 0.12951 0.13905 0.01382 0.0
C1703 C 0.13426 0.10475 0.13614 0.0
H1704 H 0.13028 0.14764 0.23962 0.0
C1705 C 0.139 0.10071 0.39601 0.0
C1706 C 0.14779 0.11533 0.4261 0.0
C1707 C 0.13616 0.10149 0.33386 0.0
C1708 C 0.1317 0.13558 0.21122 0.0
H1709 H 0.10496 0.09855 0.93223 0.0
H1710 H 0.1098 0.09703 0.04059 0.0
H1711 H 0.12249 0.15035 0.13353 0.0
H1712 H 0.16122 0.14186 0.41458 0.0
H1713 H 0.15654 0.14313 0.30611 0.0
H1714 H 0.14343 0.08997 0.21394 0.0
C1715 C 0.11461 0.10911 0.0165 0.0
C1716 C 0.12718 0.13713 0.15034 0.0
C1717 C 0.11164 0.11006 0.9545 0.0
C1718 C 0.15438 0.13038 0.39257 0.0
C1719 C 0.15153 0.13119 0.33051 0.0
C1720 C 0.13876 0.1032 0.19705 0.0
C1721 C 0.12393 0.12342 0.0468 0.0
C1722 C 0.1284 0.12174 0.11196 0.0
C1723 C 0.14202 0.11695 0.30053 0.0
C1724 C 0.13756 0.1186 0.23538 0.0
H1725 H 0.13162 0.15188 0.92728 0.0
H1726 H 0.13685 0.15027 0.03548 0.0
H1727 H 0.1357 0.09269 0.10774 0.0
H1728 H 0.13368 0.08898 0.42081 0.0
H1729 H 0.12869 0.09033 0.31236 0.0
C1730 C 0.10047 0.86775 0.63106 0.0
C1731 C 0.11475 0.85841 0.60106 0.0
C1732 C 0.10131 0.87048 0.6932 0.0
C1733 C 0.12483 0.85493 0.83237 0.0
H1734 H 0.11245 0.90403 0.88948 0.0
C1735 C 0.14016 0.87747 0.07581 0.0
C1736 C 0.12603 0.88709 0.10559 0.0
C1737 C 0.13927 0.87459 0.01374 0.0
C1738 C 0.11581 0.8902 0.87441 0.0
H1739 H 0.1407 0.84394 0.61257 0.0
H1740 H 0.14219 0.84867 0.72097 0.0
H1741 H 0.1089 0.8966 0.78334 0.0
H1742 H 0.10024 0.90183 0.09377 0.0
H1743 H 0.09864 0.89682 0.98558 0.0
H1744 H 0.13172 0.84853 0.92346 0.0
C1745 C 0.13029 0.85382 0.69676 0.0
C1746 C 0.11371 0.88592 0.81355 0.0
C1747 C 0.12946 0.85112 0.63462 0.0
C1748 C 0.11139 0.89445 0.07189 0.0
C1749 C 0.11049 0.89159 1.00985 0.0
C1750 C 0.12691 0.85922 0.89326 0.0
C1751 C 0.11643 0.86389 0.72663 0.0
C1752 C 0.11819 0.86822 0.79176 0.0
C1753 C 0.12422 0.88129 0.98017 0.0
C1754 C 0.12244 0.87692 0.91505 0.0
H1755 H 0.08897 0.87351 0.60626 0.0
H1756 H 0.09024 0.878 0.71496 0.0
H1757 H 0.1282 0.84112 0.81725 0.0
H1758 H 0.1516 0.87162 0.10073 0.0
H1759 H 0.15025 0.86689 0.99216 0.0
loop_
_geom_bond_atom_site_label_1
_geom_bond_atom_site_label_2
_geom_bond_distance
_geom_bond_site_symmetry_2
_ccdc_geom_bond_type
Dy0 O4 2.398 . S
Dy0 O5 2.491 . S
Dy0 O6 2.403 . S
Dy0 O7 2.664 . S
Dy0 O11 2.326 . S
Dy0 O15 2.310 . S
Dy0 O16 2.351 . S
C1 O12 1.185 . S
C1 O13 1.355 . S
C2 O4 1.185 . S
C2 O5 1.355 . S
Dy3 O7 2.310 . S
Dy3 O10 2.351 . S
Dy3 O12 2.398 1_554 S
Dy3 O13 2.491 1_554 S
Dy3 O14 2.403 . S
Dy3 O15 2.664 . S
Dy3 O17 2.326 . S
O4 Dy0 2.398 . S
O4 C2 1.185 . S
O5 Dy0 2.491 . S
O5 C2 1.355 . S
O6 Dy0 2.403 . S
O6 C8 1.254 . S
O7 Dy0 2.664 . S
O7 Dy3 2.310 . S
O7 C8 1.268 . S
C8 O6 1.254 . S
C8 O7 1.268 . S
C9 O14 1.254 . S
C9 O15 1.268 . S
O10 Dy3 2.351 . S
O10 C18 1.249 . S
O11 Dy0 2.326 . S
O11 C18 1.267 . S
O12 C1 1.185 . S
O12 Dy3 2.398 1_556 S
O13 C1 1.355 . S
O13 Dy3 2.491 1_556 S
O14 Dy3 2.403 . S
O14 C9 1.254 . S
O15 Dy0 2.310 . S
O15 Dy3 2.664 . S
O15 C9 1.268 . S
O16 Dy0 2.351 . S
O16 C19 1.249 . S
O17 Dy3 2.326 . S
O17 C19 1.267 . S
C18 O10 1.249 . S
C18 O11 1.267 . S
C19 O16 1.249 . S
C19 O17 1.267 . S
Dy20 O24 2.398 1_556 S
Dy20 O25 2.491 1_556 S
Dy20 O26 2.403 . S
Dy20 O27 2.664 . S
Dy20 O31 2.326 . S
Dy20 O35 2.310 . S
Dy20 O36 2.351 . S
C21 O32 1.185 . S
C21 O33 1.355 . S
C22 O24 1.185 . S
C22 O25 1.355 . S
Dy23 O27 2.310 . S
Dy23 O30 2.351 . S
Dy23 O32 2.398 . S
Dy23 O33 2.491 . S
Dy23 O34 2.403 . S
Dy23 O35 2.664 . S
Dy23 O37 2.326 . S
O24 Dy20 2.398 1_554 S
O24 C22 1.185 . S
O25 Dy20 2.491 1_554 S
O25 C22 1.355 . S
O26 Dy20 2.403 . S
O26 C28 1.254 . S
O27 Dy20 2.664 . S
O27 Dy23 2.310 . S
O27 C28 1.268 . S
C28 O26 1.254 . S
C28 O27 1.268 . S
C29 O34 1.254 . S
C29 O35 1.268 . S
O30 Dy23 2.351 . S
O30 C38 1.249 . S
O31 Dy20 2.326 . S
O31 C38 1.267 . S
O32 C21 1.185 . S
O32 Dy23 2.398 . S
O33 C21 1.355 . S
O33 Dy23 2.491 . S
O34 Dy23 2.403 . S
O34 C29 1.254 . S
O35 Dy20 2.310 . S
O35 Dy23 2.664 . S
O35 C29 1.268 . S
O36 Dy20 2.351 . S
O36 C39 1.249 . S
O37 Dy23 2.326 . S
O37 C39 1.267 . S
C38 O30 1.249 . S
C38 O31 1.267 . S
C39 O36 1.249 . S
C39 O37 1.267 . S
Dy40 O44 2.398 . S
Dy40 O45 2.491 . S
Dy40 O46 2.403 . S
Dy40 O47 2.664 . S
Dy40 O51 2.326 . S
Dy40 O55 2.310 . S
Dy40 O56 2.351 . S
C41 O52 1.185 . S
C41 O53 1.355 . S
C42 O44 1.185 . S
C42 O45 1.355 . S
Dy43 O47 2.310 . S
Dy43 O50 2.351 . S
Dy43 O52 2.398 1_554 S
Dy43 O53 2.491 1_554 S
Dy43 O54 2.403 . S
Dy43 O55 2.664 . S
Dy43 O57 2.326 . S
O44 Dy40 2.398 . S
O44 C42 1.185 . S
O45 Dy40 2.491 . S
O45 C42 1.355 . S
O46 Dy40 2.403 . S
O46 C48 1.254 . S
O47 Dy40 2.664 . S
O47 Dy43 2.310 . S
O47 C48 1.268 . S
C48 O46 1.254 . S
C48 O47 1.268 . S
C49 O54 1.254 . S
C49 O55 1.268 . S
O50 Dy43 2.351 . S
O50 C58 1.249 . S
O51 Dy40 2.326 . S
O51 C58 1.267 . S
O52 C41 1.185 . S
O52 Dy43 2.398 1_556 S
O53 C41 1.355 . S
O53 Dy43 2.491 1_556 S
O54 Dy43 2.403 . S
O54 C49 1.254 . S
O55 Dy40 2.310 . S
O55 Dy43 2.664 . S
O55 C49 1.268 . S
O56 Dy40 2.351 . S
O56 C59 1.249 . S
O57 Dy43 2.326 . S
O57 C59 1.267 . S
C58 O50 1.249 . S
C58 O51 1.267 . S
C59 O56 1.249 . S
C59 O57 1.267 . S
Dy60 O64 2.398 1_556 S
Dy60 O65 2.491 1_556 S
Dy60 O66 2.403 . S
Dy60 O67 2.664 . S
Dy60 O71 2.326 . S
Dy60 O75 2.310 . S
Dy60 O76 2.351 . S
C61 O72 1.185 . S
C61 O73 1.355 . S
C62 O64 1.185 . S
C62 O65 1.355 . S
Dy63 O67 2.310 . S
Dy63 O70 2.351 . S
Dy63 O72 2.398 . S
Dy63 O73 2.491 . S
Dy63 O74 2.403 . S
Dy63 O75 2.664 . S
Dy63 O77 2.326 . S
O64 Dy60 2.398 1_554 S
O64 C62 1.185 . S
O65 Dy60 2.491 1_554 S
O65 C62 1.355 . S
O66 Dy60 2.403 . S
O66 C68 1.254 . S
O67 Dy60 2.664 . S
O67 Dy63 2.310 . S
O67 C68 1.268 . S
C68 O66 1.254 . S
C68 O67 1.268 . S
C69 O74 1.254 . S
C69 O75 1.268 . S
O70 Dy63 2.351 . S
O70 C78 1.249 . S
O71 Dy60 2.326 . S
O71 C78 1.267 . S
O72 C61 1.185 . S
O72 Dy63 2.398 . S
O73 C61 1.355 . S
O73 Dy63 2.491 . S
O74 Dy63 2.403 . S
O74 C69 1.254 . S
O75 Dy60 2.310 . S
O75 Dy63 2.664 . S
O75 C69 1.268 . S
O76 Dy60 2.351 . S
O76 C79 1.249 . S
O77 Dy63 2.326 . S
O77 C79 1.267 . S
C78 O70 1.249 . S
C78 O71 1.267 . S
C79 O76 1.249 . S
C79 O77 1.267 . S
Dy80 O84 2.398 1_554 S
Dy80 O85 2.491 1_554 S
Dy80 O86 2.403 . S
Dy80 O87 2.664 . S
Dy80 O91 2.326 . S
Dy80 O95 2.310 . S
Dy80 O96 2.351 . S
C81 O92 1.185 . S
C81 O93 1.355 . S
C82 O84 1.185 . S
C82 O85 1.355 . S
Dy83 O87 2.310 . S
Dy83 O90 2.351 . S
Dy83 O92 2.398 . S
Dy83 O93 2.491 . S
Dy83 O94 2.403 . S
Dy83 O95 2.664 . S
Dy83 O97 2.326 . S
O84 Dy80 2.398 1_556 S
O84 C82 1.185 . S
O85 Dy80 2.491 1_556 S
O85 C82 1.355 . S
O86 Dy80 2.403 . S
O86 C88 1.254 . S
O87 Dy80 2.664 . S
O87 Dy83 2.310 . S
O87 C88 1.268 . S
C88 O86 1.254 . S
C88 O87 1.268 . S
C89 O94 1.254 . S
C89 O95 1.268 . S
O90 Dy83 2.351 . S
O90 C98 1.249 . S
O91 Dy80 2.326 . S
O91 C98 1.267 . S
O92 C81 1.185 . S
O92 Dy83 2.398 . S
O93 C81 1.355 . S
O93 Dy83 2.491 . S
O94 Dy83 2.403 . S
O94 C89 1.254 . S
O95 Dy80 2.310 . S
O95 Dy83 2.664 . S
O95 C89 1.268 . S
O96 Dy80 2.351 . S
O96 C99 1.249 . S
O97 Dy83 2.326 . S
O97 C99 1.267 . S
C98 O90 1.249 . S
C98 O91 1.267 . S
C99 O96 1.249 . S
C99 O97 1.267 . S
Dy100 O104 2.398 . S
Dy100 O105 2.491 . S
Dy100 O106 2.403 . S
Dy100 O107 2.664 . S
Dy100 O111 2.326 . S
Dy100 O115 2.310 . S
Dy100 O116 2.351 . S
C101 O112 1.185 . S
C101 O113 1.355 . S
C102 O104 1.185 . S
C102 O105 1.355 . S
Dy103 O107 2.310 . S
Dy103 O110 2.351 . S
Dy103 O112 2.398 1_556 S
Dy103 O113 2.491 1_556 S
Dy103 O114 2.403 . S
Dy103 O115 2.664 . S
Dy103 O117 2.326 . S
O104 Dy100 2.398 . S
O104 C102 1.185 . S
O105 Dy100 2.491 . S
O105 C102 1.355 . S
O106 Dy100 2.403 . S
O106 C108 1.254 . S
O107 Dy100 2.664 . S
O107 Dy103 2.310 . S
O107 C108 1.268 . S
C108 O106 1.254 . S
C108 O107 1.268 . S
C109 O114 1.254 . S
C109 O115 1.268 . S
O110 Dy103 2.351 . S
O110 C118 1.249 . S
O111 Dy100 2.326 . S
O111 C118 1.267 . S
O112 C101 1.185 . S
O112 Dy103 2.398 1_554 S
O113 C101 1.355 . S
O113 Dy103 2.491 1_554 S
O114 Dy103 2.403 . S
O114 C109 1.254 . S
O115 Dy100 2.310 . S
O115 Dy103 2.664 . S
O115 C109 1.268 . S
O116 Dy100 2.351 . S
O116 C119 1.249 . S
O117 Dy103 2.326 . S
O117 C119 1.267 . S
C118 O110 1.249 . S
C118 O111 1.267 . S
C119 O116 1.249 . S
C119 O117 1.267 . S
Dy120 O124 2.398 1_554 S
Dy120 O125 2.491 1_554 S
Dy120 O126 2.403 . S
Dy120 O127 2.664 . S
Dy120 O131 2.326 . S
Dy120 O135 2.310 . S
Dy120 O136 2.351 . S
C121 O132 1.185 . S
C121 O133 1.355 . S
C122 O124 1.185 . S
C122 O125 1.355 . S
Dy123 O127 2.310 . S
Dy123 O130 2.351 . S
Dy123 O132 2.398 . S
Dy123 O133 2.491 . S
Dy123 O134 2.403 . S
Dy123 O135 2.664 . S
Dy123 O137 2.326 . S
O124 Dy120 2.398 1_556 S
O124 C122 1.185 . S
O125 Dy120 2.491 1_556 S
O125 C122 1.355 . S
O126 Dy120 2.403 . S
O126 C128 1.254 . S
O127 Dy120 2.664 . S
O127 Dy123 2.310 . S
O127 C128 1.268 . S
C128 O126 1.254 . S
C128 O127 1.268 . S
C129 O134 1.254 . S
C129 O135 1.268 . S
O130 Dy123 2.351 . S
O130 C138 1.249 . S
O131 Dy120 2.326 . S
O131 C138 1.267 . S
O132 C121 1.185 . S
O132 Dy123 2.398 . S
O133 C121 1.355 . S
O133 Dy123 2.491 . S
O134 Dy123 2.403 . S
O134 C129 1.254 . S
O135 Dy120 2.310 . S
O135 Dy123 2.664 . S
O135 C129 1.268 . S
O136 Dy120 2.351 . S
O136 C139 1.249 . S
O137 Dy123 2.326 . S
O137 C139 1.267 . S
C138 O130 1.249 . S
C138 O131 1.267 . S
C139 O136 1.249 . S
C139 O137 1.267 . S
Dy140 O144 2.398 . S
Dy140 O145 2.491 . S
Dy140 O146 2.403 . S
Dy140 O147 2.664 . S
Dy140 O151 2.326 . S
Dy140 O155 2.310 . S
Dy140 O156 2.351 . S
C141 O152 1.185 . S
C141 O153 1.355 . S
C142 O144 1.185 . S
C142 O145 1.355 . S
Dy143 O147 2.310 . S
Dy143 O150 2.351 . S
Dy143 O152 2.398 1_556 S
Dy143 O153 2.491 1_556 S
Dy143 O154 2.403 . S
Dy143 O155 2.664 . S
Dy143 O157 2.326 . S
O144 Dy140 2.398 . S
O144 C142 1.185 . S
O145 Dy140 2.491 . S
O145 C142 1.355 . S
O146 Dy140 2.403 . S
O146 C148 1.254 . S
O147 Dy140 2.664 . S
O147 Dy143 2.310 . S
O147 C148 1.268 . S
C148 O146 1.254 . S
C148 O147 1.268 . S
C149 O154 1.254 . S
C149 O155 1.268 . S
O150 Dy143 2.351 . S
O150 C158 1.249 . S
O151 Dy140 2.326 . S
O151 C158 1.267 . S
O152 C141 1.185 . S
O152 Dy143 2.398 1_554 S
O153 C141 1.355 . S
O153 Dy143 2.491 1_554 S
O154 Dy143 2.403 . S
O154 C149 1.254 . S
O155 Dy140 2.310 . S
O155 Dy143 2.664 . S
O155 C149 1.268 . S
O156 Dy140 2.351 . S
O156 C159 1.249 . S
O157 Dy143 2.326 . S
O157 C159 1.267 . S
C158 O150 1.249 . S
C158 O151 1.267 . S
C159 O156 1.249 . S
C159 O157 1.267 . S
Dy160 O164 2.398 . S
Dy160 O165 2.491 . S
Dy160 O166 2.403 . S
Dy160 O167 2.664 . S
Dy160 O171 2.326 . S
Dy160 O175 2.310 . S
Dy160 O176 2.351 . S
C161 O172 1.185 . S
C161 O173 1.355 . S
C162 O164 1.185 . S
C162 O165 1.355 . S
Dy163 O167 2.310 . S
Dy163 O170 2.351 . S
Dy163 O172 2.398 . S
Dy163 O173 2.491 . S
Dy163 O174 2.403 . S
Dy163 O175 2.664 . S
Dy163 O177 2.326 . S
O164 Dy160 2.398 . S
O164 C162 1.185 . S
O165 Dy160 2.491 . S
O165 C162 1.355 . S
O166 Dy160 2.403 . S
O166 C168 1.254 . S
O167 Dy160 2.664 . S
O167 Dy163 2.310 . S
O167 C168 1.268 . S
C168 O166 1.254 . S
C168 O167 1.268 . S
C169 O174 1.254 . S
C169 O175 1.268 . S
O170 Dy163 2.351 . S
O170 C178 1.249 . S
O171 Dy160 2.326 . S
O171 C178 1.267 . S
O172 C161 1.185 . S
O172 Dy163 2.398 . S
O173 C161 1.355 . S
O173 Dy163 2.491 . S
O174 Dy163 2.403 . S
O174 C169 1.254 . S
O175 Dy160 2.310 . S
O175 Dy163 2.664 . S
O175 C169 1.268 . S
O176 Dy160 2.351 . S
O176 C179 1.249 . S
O177 Dy163 2.326 . S
O177 C179 1.267 . S
C178 O170 1.249 . S
C178 O171 1.267 . S
C179 O176 1.249 . S
C179 O177 1.267 . S
Dy180 O184 2.398 . S
Dy180 O185 2.491 . S
Dy180 O186 2.403 . S
Dy180 O187 2.664 . S
Dy180 O191 2.326 . S
Dy180 O195 2.310 . S
Dy180 O196 2.351 . S
C181 O192 1.185 . S
C181 O193 1.355 . S
C182 O184 1.185 . S
C182 O185 1.355 . S
Dy183 O187 2.310 . S
Dy183 O190 2.351 . S
Dy183 O192 2.398 . S
Dy183 O193 2.491 . S
Dy183 O194 2.403 . S
Dy183 O195 2.664 . S
Dy183 O197 2.326 . S
O184 Dy180 2.398 . S
O184 C182 1.185 . S
O185 Dy180 2.491 . S
O185 C182 1.355 . S
O186 Dy180 2.403 . S
O186 C188 1.254 . S
O187 Dy180 2.664 . S
O187 Dy183 2.310 . S
O187 C188 1.268 . S
C188 O186 1.254 . S
C188 O187 1.268 . S
C189 O194 1.254 . S
C189 O195 1.268 . S
O190 Dy183 2.351 . S
O190 C198 1.249 . S
O191 Dy180 2.326 . S
O191 C198 1.267 . S
O192 C181 1.185 . S
O192 Dy183 2.398 . S
O193 C181 1.355 . S
O193 Dy183 2.491 . S
O194 Dy183 2.403 . S
O194 C189 1.254 . S
O195 Dy180 2.310 . S
O195 Dy183 2.664 . S
O195 C189 1.268 . S
O196 Dy180 2.351 . S
O196 C199 1.249 . S
O197 Dy183 2.326 . S
O197 C199 1.267 . S
C198 O190 1.249 . S
C198 O191 1.267 . S
C199 O196 1.249 . S
C199 O197 1.267 . S
Dy200 O204 2.398 . S
Dy200 O205 2.491 . S
Dy200 O206 2.403 . S
Dy200 O207 2.664 . S
Dy200 O211 2.326 . S
Dy200 O215 2.310 . S
Dy200 O216 2.351 . S
C201 O212 1.185 . S
C201 O213 1.355 . S
C202 O204 1.185 . S
C202 O205 1.355 . S
Dy203 O207 2.310 . S
Dy203 O210 2.351 . S
Dy203 O212 2.398 . S
Dy203 O213 2.491 . S
Dy203 O214 2.403 . S
Dy203 O215 2.664 . S
Dy203 O217 2.326 . S
O204 Dy200 2.398 . S
O204 C202 1.185 . S
O205 Dy200 2.491 . S
O205 C202 1.355 . S
O206 Dy200 2.403 . S
O206 C208 1.254 . S
O207 Dy200 2.664 . S
O207 Dy203 2.310 . S
O207 C208 1.268 . S
C208 O206 1.254 . S
C208 O207 1.268 . S
C209 O214 1.254 . S
C209 O215 1.268 . S
O210 Dy203 2.351 . S
O210 C218 1.249 . S
O211 Dy200 2.326 . S
O211 C218 1.267 . S
O212 C201 1.185 . S
O212 Dy203 2.398 . S
O213 C201 1.355 . S
O213 Dy203 2.491 . S
O214 Dy203 2.403 . S
O214 C209 1.254 . S
O215 Dy200 2.310 . S
O215 Dy203 2.664 . S
O215 C209 1.268 . S
O216 Dy200 2.351 . S
O216 C219 1.249 . S
O217 Dy203 2.326 . S
O217 C219 1.267 . S
C218 O210 1.249 . S
C218 O211 1.267 . S
C219 O216 1.249 . S
C219 O217 1.267 . S
Dy220 O224 2.398 . S
Dy220 O225 2.491 . S
Dy220 O226 2.403 . S
Dy220 O227 2.664 . S
Dy220 O231 2.326 . S
Dy220 O235 2.310 . S
Dy220 O236 2.351 . S
C221 O232 1.185 . S
C221 O233 1.355 . S
C222 O224 1.185 . S
C222 O225 1.355 . S
Dy223 O227 2.310 . S
Dy223 O230 2.351 . S
Dy223 O232 2.398 . S
Dy223 O233 2.491 . S
Dy223 O234 2.403 . S
Dy223 O235 2.664 . S
Dy223 O237 2.326 . S
O224 Dy220 2.398 . S
O224 C222 1.185 . S
O225 Dy220 2.491 . S
O225 C222 1.355 . S
O226 Dy220 2.403 . S
O226 C228 1.254 . S
O227 Dy220 2.664 . S
O227 Dy223 2.310 . S
O227 C228 1.268 . S
C228 O226 1.254 . S
C228 O227 1.268 . S
C229 O234 1.254 . S
C229 O235 1.268 . S
O230 Dy223 2.351 . S
O230 C238 1.249 . S
O231 Dy220 2.326 . S
O231 C238 1.267 . S
O232 C221 1.185 . S
O232 Dy223 2.398 . S
O233 C221 1.355 . S
O233 Dy223 2.491 . S
O234 Dy223 2.403 . S
O234 C229 1.254 . S
O235 Dy220 2.310 . S
O235 Dy223 2.664 . S
O235 C229 1.268 . S
O236 Dy220 2.351 . S
O236 C239 1.249 . S
O237 Dy223 2.326 . S
O237 C239 1.267 . S
C238 O230 1.249 . S
C238 O231 1.267 . S
C239 O236 1.249 . S
C239 O237 1.267 . S
Dy240 O244 2.398 . S
Dy240 O245 2.491 . S
Dy240 O246 2.403 . S
Dy240 O247 2.664 . S
Dy240 O251 2.326 . S
Dy240 O255 2.310 . S
Dy240 O256 2.351 . S
C241 O252 1.185 . S
C241 O253 1.355 . S
C242 O244 1.185 . S
C242 O245 1.355 . S
Dy243 O247 2.310 . S
Dy243 O250 2.351 . S
Dy243 O252 2.398 . S
Dy243 O253 2.491 . S
Dy243 O254 2.403 . S
Dy243 O255 2.664 . S
Dy243 O257 2.326 . S
O244 Dy240 2.398 . S
O244 C242 1.185 . S
O245 Dy240 2.491 . S
O245 C242 1.355 . S
O246 Dy240 2.403 . S
O246 C248 1.254 . S
O247 Dy240 2.664 . S
O247 Dy243 2.310 . S
O247 C248 1.268 . S
C248 O246 1.254 . S
C248 O247 1.268 . S
C249 O254 1.254 . S
C249 O255 1.268 . S
O250 Dy243 2.351 . S
O250 C258 1.249 . S
O251 Dy240 2.326 . S
O251 C258 1.267 . S
O252 C241 1.185 . S
O252 Dy243 2.398 . S
O253 C241 1.355 . S
O253 Dy243 2.491 . S
O254 Dy243 2.403 . S
O254 C249 1.254 . S
O255 Dy240 2.310 . S
O255 Dy243 2.664 . S
O255 C249 1.268 . S
O256 Dy240 2.351 . S
O256 C259 1.249 . S
O257 Dy243 2.326 . S
O257 C259 1.267 . S
C258 O250 1.249 . S
C258 O251 1.267 . S
C259 O256 1.249 . S
C259 O257 1.267 . S
Dy260 O264 2.398 . S
Dy260 O265 2.491 . S
Dy260 O266 2.403 . S
Dy260 O267 2.664 . S
Dy260 O271 2.326 . S
Dy260 O275 2.310 . S
Dy260 O276 2.351 . S
C261 O272 1.185 . S
C261 O273 1.355 . S
C262 O264 1.185 . S
C262 O265 1.355 . S
Dy263 O267 2.310 . S
Dy263 O270 2.351 . S
Dy263 O272 2.398 . S
Dy263 O273 2.491 . S
Dy263 O274 2.403 . S
Dy263 O275 2.664 . S
Dy263 O277 2.326 . S
O264 Dy260 2.398 . S
O264 C262 1.185 . S
O265 Dy260 2.491 . S
O265 C262 1.355 . S
O266 Dy260 2.403 . S
O266 C268 1.254 . S
O267 Dy260 2.664 . S
O267 Dy263 2.310 . S
O267 C268 1.268 . S
C268 O266 1.254 . S
C268 O267 1.268 . S
C269 O274 1.254 . S
C269 O275 1.268 . S
O270 Dy263 2.351 . S
O270 C278 1.249 . S
O271 Dy260 2.326 . S
O271 C278 1.267 . S
O272 C261 1.185 . S
O272 Dy263 2.398 . S
O273 C261 1.355 . S
O273 Dy263 2.491 . S
O274 Dy263 2.403 . S
O274 C269 1.254 . S
O275 Dy260 2.310 . S
O275 Dy263 2.664 . S
O275 C269 1.268 . S
O276 Dy260 2.351 . S
O276 C279 1.249 . S
O277 Dy263 2.326 . S
O277 C279 1.267 . S
C278 O270 1.249 . S
C278 O271 1.267 . S
C279 O276 1.249 . S
C279 O277 1.267 . S
Dy280 O284 2.398 . S
Dy280 O285 2.491 . S
Dy280 O286 2.403 . S
Dy280 O287 2.664 . S
Dy280 O291 2.326 . S
Dy280 O295 2.310 . S
Dy280 O296 2.351 . S
C281 O292 1.185 . S
C281 O293 1.355 . S
C282 O284 1.185 . S
C282 O285 1.355 . S
Dy283 O287 2.310 . S
Dy283 O290 2.351 . S
Dy283 O292 2.398 . S
Dy283 O293 2.491 . S
Dy283 O294 2.403 . S
Dy283 O295 2.664 . S
Dy283 O297 2.326 . S
O284 Dy280 2.398 . S
O284 C282 1.185 . S
O285 Dy280 2.491 . S
O285 C282 1.355 . S
O286 Dy280 2.403 . S
O286 C288 1.254 . S
O287 Dy280 2.664 . S
O287 Dy283 2.310 . S
O287 C288 1.268 . S
C288 O286 1.254 . S
C288 O287 1.268 . S
C289 O294 1.254 . S
C289 O295 1.268 . S
O290 Dy283 2.351 . S
O290 C298 1.249 . S
O291 Dy280 2.326 . S
O291 C298 1.267 . S
O292 C281 1.185 . S
O292 Dy283 2.398 . S
O293 C281 1.355 . S
O293 Dy283 2.491 . S
O294 Dy283 2.403 . S
O294 C289 1.254 . S
O295 Dy280 2.310 . S
O295 Dy283 2.664 . S
O295 C289 1.268 . S
O296 Dy280 2.351 . S
O296 C299 1.249 . S
O297 Dy283 2.326 . S
O297 C299 1.267 . S
C298 O290 1.249 . S
C298 O291 1.267 . S
C299 O296 1.249 . S
C299 O297 1.267 . S
Dy300 O304 2.398 . S
Dy300 O305 2.491 . S
Dy300 O306 2.403 . S
Dy300 O307 2.664 . S
Dy300 O311 2.326 . S
Dy300 O315 2.310 . S
Dy300 O316 2.351 . S
C301 O312 1.185 . S
C301 O313 1.355 . S
C302 O304 1.185 . S
C302 O305 1.355 . S
Dy303 O307 2.310 . S
Dy303 O310 2.351 . S
Dy303 O312 2.398 . S
Dy303 O313 2.491 . S
Dy303 O314 2.403 . S
Dy303 O315 2.664 . S
Dy303 O317 2.326 . S
O304 Dy300 2.398 . S
O304 C302 1.185 . S
O305 Dy300 2.491 . S
O305 C302 1.355 . S
O306 Dy300 2.403 . S
O306 C308 1.254 . S
O307 Dy300 2.664 . S
O307 Dy303 2.310 . S
O307 C308 1.268 . S
C308 O306 1.254 . S
C308 O307 1.268 . S
C309 O314 1.254 . S
C309 O315 1.268 . S
O310 Dy303 2.351 . S
O310 C318 1.249 . S
O311 Dy300 2.326 . S
O311 C318 1.267 . S
O312 C301 1.185 . S
O312 Dy303 2.398 . S
O313 C301 1.355 . S
O313 Dy303 2.491 . S
O314 Dy303 2.403 . S
O314 C309 1.254 . S
O315 Dy300 2.310 . S
O315 Dy303 2.664 . S
O315 C309 1.268 . S
O316 Dy300 2.351 . S
O316 C319 1.249 . S
O317 Dy303 2.326 . S
O317 C319 1.267 . S
C318 O310 1.249 . S
C318 O311 1.267 . S
C319 O316 1.249 . S
C319 O317 1.267 . S
C320 C321 1.349 . S
C320 C322 1.327 . S
C320 H345 0.950 . S
C321 C320 1.349 . S
C321 C337 1.349 . S
C322 C320 1.327 . S
C322 C341 1.429 . S
C322 H346 0.950 . S
C323 C340 1.574 1_565 S
C323 C342 1.368 . S
C323 H347 0.949 . S
H324 C328 0.949 1_545 S
C325 C326 1.349 . S
C325 C327 1.327 . S
C325 H348 0.950 . S
C326 C325 1.349 . S
C326 C338 1.349 . S
C327 C325 1.327 . S
C327 C343 1.429 . S
C327 H349 0.950 . S
C328 H324 0.949 1_565 S
C328 C336 1.574 . S
C328 C344 1.368 1_565 S
H329 C337 0.950 . S
H330 C335 0.950 . S
H331 C336 0.949 . S
H332 C338 0.950 . S
H333 C339 0.950 . S
H334 C340 0.949 . S
C335 H330 0.950 . S
C335 C337 1.327 . S
C335 C341 1.429 . S
C336 C328 1.574 . S
C336 H331 0.949 . S
C336 C342 1.368 . S
C337 C321 1.349 . S
C337 H329 0.950 . S
C337 C335 1.327 . S
C338 C326 1.349 . S
C338 H332 0.950 . S
C338 C339 1.327 . S
C339 H333 0.950 . S
C339 C338 1.327 . S
C339 C343 1.429 . S
C340 C323 1.574 1_545 S
C340 H334 0.949 . S
C340 C344 1.368 . S
C341 C322 1.429 . S
C341 C335 1.429 . S
C341 C342 1.523 . S
C342 C323 1.368 . S
C342 C336 1.368 . S
C342 C341 1.523 . S
C343 C327 1.429 . S
C343 C339 1.429 . S
C343 C344 1.523 . S
C344 C328 1.368 1_545 S
C344 C340 1.368 . S
C344 C343 1.523 . S
H345 C320 0.950 . S
H346 C322 0.950 . S
H347 C323 0.949 . S
H348 C325 0.950 . S
H349 C327 0.950 . S
C350 C351 1.349 . S
C350 C352 1.327 . S
C350 H375 0.950 . S
C351 C350 1.349 . S
C351 C367 1.349 . S
C352 C350 1.327 . S
C352 C371 1.429 . S
C352 H376 0.950 . S
C353 C370 1.574 1_655 S
C353 C372 1.368 . S
C353 H377 0.949 . S
H354 C358 0.949 1_455 S
C355 C356 1.349 . S
C355 C357 1.327 . S
C355 H378 0.950 . S
C356 C355 1.349 . S
C356 C368 1.349 . S
C357 C355 1.327 . S
C357 C373 1.429 . S
C357 H379 0.950 . S
C358 H354 0.949 1_655 S
C358 C366 1.574 . S
C358 C374 1.368 1_655 S
H359 C367 0.950 . S
H360 C365 0.950 . S
H361 C366 0.949 . S
H362 C368 0.950 . S
H363 C369 0.950 . S
H364 C370 0.949 . S
C365 H360 0.950 . S
C365 C367 1.327 . S
C365 C371 1.429 . S
C366 C358 1.574 . S
C366 H361 0.949 . S
C366 C372 1.368 . S
C367 C351 1.349 . S
C367 H359 0.950 . S
C367 C365 1.327 . S
C368 C356 1.349 . S
C368 H362 0.950 . S
C368 C369 1.327 . S
C369 H363 0.950 . S
C369 C368 1.327 . S
C369 C373 1.429 . S
C370 C353 1.574 1_455 S
C370 H364 0.949 . S
C370 C374 1.368 . S
C371 C352 1.429 . S
C371 C365 1.429 . S
C371 C372 1.523 . S
C372 C353 1.368 . S
C372 C366 1.368 . S
C372 C371 1.523 . S
C373 C357 1.429 . S
C373 C369 1.429 . S
C373 C374 1.523 . S
C374 C358 1.368 1_455 S
C374 C370 1.368 . S
C374 C373 1.523 . S
H375 C350 0.950 . S
H376 C352 0.950 . S
H377 C353 0.949 . S
H378 C355 0.950 . S
H379 C357 0.950 . S
C380 C381 1.349 . S
C380 C382 1.327 . S
C380 H405 0.950 . S
C381 C380 1.349 . S
C381 C397 1.349 . S
C382 C380 1.327 . S
C382 C401 1.429 . S
C382 H406 0.950 . S
C383 C400 1.574 1_565 S
C383 C402 1.368 . S
C383 H407 0.949 . S
H384 C388 0.949 . S
C385 C386 1.349 . S
C385 C387 1.327 . S
C385 H408 0.950 . S
C386 C385 1.349 . S
C386 C398 1.349 . S
C387 C385 1.327 . S
C387 C403 1.429 . S
C387 H409 0.950 . S
C388 H384 0.949 . S
C388 C396 1.618 . S
C388 C404 1.368 . S
H389 C397 0.950 . S
H390 C395 0.950 . S
H391 C396 0.931 1_565 S
H392 C398 0.950 . S
H393 C399 0.950 . S
H394 C400 0.949 . S
C395 H390 0.950 . S
C395 C397 1.327 . S
C395 C401 1.429 . S
C396 C388 1.618 . S
C396 H391 0.931 1_545 S
C396 C402 1.345 1_545 S
C397 C381 1.349 . S
C397 H389 0.950 . S
C397 C395 1.327 . S
C398 C386 1.349 . S
C398 H392 0.950 . S
C398 C399 1.327 . S
C399 H393 0.950 . S
C399 C398 1.327 . S
C399 C403 1.429 . S
C400 C383 1.574 1_545 S
C400 H394 0.949 . S
C400 C404 1.368 . S
C401 C382 1.429 . S
C401 C395 1.429 . S
C401 C402 1.523 . S
C402 C383 1.368 . S
C402 C396 1.345 1_565 S
C402 C401 1.523 . S
C403 C387 1.429 . S
C403 C399 1.429 . S
C403 C404 1.523 . S
C404 C388 1.368 . S
C404 C400 1.368 . S
C404 C403 1.523 . S
H405 C380 0.950 . S
H406 C382 0.950 . S
H407 C383 0.949 . S
H408 C385 0.950 . S
H409 C387 0.950 . S
C410 C411 1.349 . S
C410 C412 1.327 . S
C410 H435 0.950 . S
C411 C410 1.349 . S
C411 C427 1.349 . S
C412 C410 1.327 . S
C412 C431 1.429 . S
C412 H436 0.950 . S
C413 C430 1.574 1_655 S
C413 C432 1.368 . S
C413 H437 0.949 . S
H414 C418 0.949 . S
C415 C416 1.349 . S
C415 C417 1.327 . S
C415 H438 0.950 . S
C416 C415 1.349 . S
C416 C428 1.349 . S
C417 C415 1.327 . S
C417 C433 1.429 . S
C417 H439 0.950 . S
C418 H414 0.949 . S
C418 C426 1.563 1_455 S
C418 C434 1.368 . S
H419 C427 0.950 . S
H420 C425 0.950 . S
H421 C426 0.954 . S
H422 C428 0.950 . S
H423 C429 0.950 . S
H424 C430 0.949 . S
C425 H420 0.950 . S
C425 C427 1.327 . S
C425 C431 1.429 . S
C426 C418 1.563 1_655 S
C426 H421 0.954 . S
C426 C432 1.373 . S
C427 C411 1.349 . S
C427 H419 0.950 . S
C427 C425 1.327 . S
C428 C416 1.349 . S
C428 H422 0.950 . S
C428 C429 1.327 . S
C429 H423 0.950 . S
C429 C428 1.327 . S
C429 C433 1.429 . S
C430 C413 1.574 1_455 S
C430 H424 0.949 . S
C430 C434 1.368 . S
C431 C412 1.429 . S
C431 C425 1.429 . S
C431 C432 1.523 . S
C432 C413 1.368 . S
C432 C426 1.373 . S
C432 C431 1.523 . S
C433 C417 1.429 . S
C433 C429 1.429 . S
C433 C434 1.523 . S
C434 C418 1.368 . S
C434 C430 1.368 . S
C434 C433 1.523 . S
H435 C410 0.950 . S
H436 C412 0.950 . S
H437 C413 0.949 . S
H438 C415 0.950 . S
H439 C417 0.950 . S
C440 C441 1.349 . S
C440 C442 1.327 . S
C440 H465 0.950 . S
C441 C440 1.349 . S
C441 C457 1.349 . S
C442 C440 1.327 . S
C442 C461 1.429 . S
C442 H466 0.950 . S
C443 C460 1.574 . S
C443 C462 1.368 1_556 S
C443 H467 0.949 . S
H444 C448 0.949 . S
C445 C446 1.349 . S
C445 C447 1.327 . S
C445 H468 0.950 . S
C446 C445 1.349 . S
C446 C458 1.349 1_556 S
C447 C445 1.327 . S
C447 C463 1.429 . S
C447 H469 0.950 . S
C448 H444 0.949 . S
C448 C456 1.574 . S
C448 C464 1.368 . S
H449 C457 0.950 . S
H450 C455 0.950 1_556 S
H451 C456 0.949 . S
H452 C458 0.950 . S
H453 C459 0.950 . S
H454 C460 0.949 . S
C455 H450 0.950 1_554 S
C455 C457 1.327 . S
C455 C461 1.429 . S
C456 C448 1.574 . S
C456 H451 0.949 . S
C456 C462 1.368 . S
C457 C441 1.349 . S
C457 H449 0.950 . S
C457 C455 1.327 . S
C458 C446 1.349 1_554 S
C458 H452 0.950 . S
C458 C459 1.327 . S
C459 H453 0.950 . S
C459 C458 1.327 . S
C459 C463 1.429 1_554 S
C460 C443 1.574 . S
C460 H454 0.949 . S
C460 C464 1.368 1_556 S
C461 C442 1.429 . S
C461 C455 1.429 . S
C461 C462 1.523 . S
C462 C443 1.368 1_554 S
C462 C456 1.368 . S
C462 C461 1.523 . S
C463 C447 1.429 . S
C463 C459 1.429 1_556 S
C463 C464 1.523 1_556 S
C464 C448 1.368 . S
C464 C460 1.368 1_554 S
C464 C463 1.523 1_554 S
H465 C440 0.950 . S
H466 C442 0.950 . S
H467 C443 0.949 . S
H468 C445 0.950 . S
H469 C447 0.950 . S
C470 C471 1.349 . S
C470 C472 1.327 1_554 S
C470 H495 0.950 1_554 S
C471 C470 1.349 . S
C471 C487 1.349 . S
C472 C470 1.327 1_556 S
C472 C491 1.429 1_556 S
C472 H496 0.950 . S
C473 C490 1.574 1_554 S
C473 C492 1.368 1_554 S
C473 H497 0.949 . S
H474 C478 0.949 . S
C475 C476 1.349 . S
C475 C477 1.327 . S
C475 H498 0.950 . S
C476 C475 1.349 . S
C476 C488 1.349 . S
C477 C475 1.327 . S
C477 C493 1.429 . S
C477 H499 0.950 . S
C478 H474 0.949 . S
C478 C486 1.574 . S
C478 C494 1.368 . S
H479 C487 0.950 . S
H480 C485 0.950 . S
H481 C486 0.949 . S
H482 C488 0.950 . S
H483 C489 0.950 . S
H484 C490 0.949 1_554 S
C485 H480 0.950 . S
C485 C487 1.327 . S
C485 C491 1.429 . S
C486 C478 1.574 . S
C486 H481 0.949 . S
C486 C492 1.368 . S
C487 C471 1.349 . S
C487 H479 0.950 . S
C487 C485 1.327 . S
C488 C476 1.349 . S
C488 H482 0.950 . S
C488 C489 1.327 . S
C489 H483 0.950 . S
C489 C488 1.327 . S
C489 C493 1.429 . S
C490 C473 1.574 1_556 S
C490 H484 0.949 1_556 S
C490 C494 1.368 . S
C491 C472 1.429 1_554 S
C491 C485 1.429 . S
C491 C492 1.523 1_554 S
C492 C473 1.368 1_556 S
C492 C486 1.368 . S
C492 C491 1.523 1_556 S
C493 C477 1.429 . S
C493 C489 1.429 . S
C493 C494 1.523 . S
C494 C478 1.368 . S
C494 C490 1.368 . S
C494 C493 1.523 . S
H495 C470 0.950 1_556 S
H496 C472 0.950 . S
H497 C473 0.949 . S
H498 C475 0.950 . S
H499 C477 0.950 . S
C500 C501 1.349 . S
C500 C502 1.327 . S
C500 H525 0.950 . S
C501 C500 1.349 . S
C501 C517 1.349 . S
C502 C500 1.327 . S
C502 C521 1.429 . S
C502 H526 0.950 . S
C503 C520 1.574 1_554 S
C503 C522 1.368 . S
C503 H527 0.949 1_554 S
H504 C508 0.949 . S
C505 C506 1.349 . S
C505 C507 1.327 . S
C505 H528 0.950 . S
C506 C505 1.349 . S
C506 C518 1.349 . S
C507 C505 1.327 . S
C507 C523 1.429 . S
C507 H529 0.950 . S
C508 H504 0.949 . S
C508 C516 1.574 . S
C508 C524 1.368 . S
H509 C517 0.950 . S
H510 C515 0.950 . S
H511 C516 0.949 . S
H512 C518 0.950 1_554 S
H513 C519 0.950 . S
H514 C520 0.949 . S
C515 H510 0.950 . S
C515 C517 1.327 . S
C515 C521 1.429 . S
C516 C508 1.574 . S
C516 H511 0.949 . S
C516 C522 1.368 . S
C517 C501 1.349 . S
C517 H509 0.950 . S
C517 C515 1.327 . S
C518 C506 1.349 . S
C518 H512 0.950 1_556 S
C518 C519 1.327 1_556 S
C519 H513 0.950 . S
C519 C518 1.327 1_554 S
C519 C523 1.429 1_554 S
C520 C503 1.574 1_556 S
C520 H514 0.949 . S
C520 C524 1.368 1_556 S
C521 C502 1.429 . S
C521 C515 1.429 . S
C521 C522 1.523 . S
C522 C503 1.368 . S
C522 C516 1.368 . S
C522 C521 1.523 . S
C523 C507 1.429 . S
C523 C519 1.429 1_556 S
C523 C524 1.523 1_556 S
C524 C508 1.368 . S
C524 C520 1.368 1_554 S
C524 C523 1.523 1_554 S
H525 C500 0.950 . S
H526 C502 0.950 . S
H527 C503 0.949 1_556 S
H528 C505 0.950 . S
H529 C507 0.950 . S
C530 C531 1.349 . S
C530 C532 1.327 . S
C530 H555 0.950 . S
C531 C530 1.349 . S
C531 C547 1.349 . S
C532 C530 1.327 . S
C532 C551 1.429 . S
C532 H556 0.950 . S
C533 C550 1.574 . S
C533 C552 1.368 . S
C533 H557 0.949 . S
H534 C538 0.949 . S
C535 C536 1.349 . S
C535 C537 1.327 . S
C535 H558 0.950 . S
C536 C535 1.349 . S
C536 C548 1.349 . S
C537 C535 1.327 . S
C537 C553 1.429 . S
C537 H559 0.950 . S
C538 H534 0.949 . S
C538 C546 1.574 1_556 S
C538 C554 1.368 . S
H539 C547 0.950 . S
H540 C545 0.950 . S
H541 C546 0.949 . S
H542 C548 0.950 . S
H543 C549 0.950 . S
H544 C550 0.949 . S
C545 H540 0.950 . S
C545 C547 1.327 1_556 S
C545 C551 1.429 1_556 S
C546 C538 1.574 1_554 S
C546 H541 0.949 . S
C546 C552 1.368 1_554 S
C547 C531 1.349 . S
C547 H539 0.950 . S
C547 C545 1.327 1_554 S
C548 C536 1.349 . S
C548 H542 0.950 . S
C548 C549 1.327 . S
C549 H543 0.950 . S
C549 C548 1.327 . S
C549 C553 1.429 . S
C550 C533 1.574 . S
C550 H544 0.949 . S
C550 C554 1.368 . S
C551 C532 1.429 . S
C551 C545 1.429 1_554 S
C551 C552 1.523 1_554 S
C552 C533 1.368 . S
C552 C546 1.368 1_556 S
C552 C551 1.523 1_556 S
C553 C537 1.429 . S
C553 C549 1.429 . S
C553 C554 1.523 . S
C554 C538 1.368 . S
C554 C550 1.368 . S
C554 C553 1.523 . S
H555 C530 0.950 . S
H556 C532 0.950 . S
H557 C533 0.949 . S
H558 C535 0.950 . S
H559 C537 0.950 . S
C560 C561 1.349 . S
C560 C562 1.327 . S
C560 H585 0.950 . S
C561 C560 1.349 . S
C561 C577 1.349 . S
C562 C560 1.327 . S
C562 C581 1.429 . S
C562 H586 0.950 . S
C563 C580 1.574 . S
C563 C582 1.368 . S
C563 H587 0.949 . S
H564 C568 0.949 . S
C565 C566 1.349 . S
C565 C567 1.327 . S
C565 H588 0.950 . S
C566 C565 1.349 . S
C566 C578 1.349 . S
C567 C565 1.327 . S
C567 C583 1.429 . S
C567 H589 0.950 . S
C568 H564 0.949 . S
C568 C576 1.574 . S
C568 C584 1.368 . S
H569 C577 0.950 . S
H570 C575 0.950 . S
H571 C576 0.949 . S
H572 C578 0.950 . S
H573 C579 0.950 . S
H574 C580 0.949 . S
C575 H570 0.950 . S
C575 C577 1.327 . S
C575 C581 1.429 . S
C576 C568 1.574 . S
C576 H571 0.949 . S
C576 C582 1.368 . S
C577 C561 1.349 . S
C577 H569 0.950 . S
C577 C575 1.327 . S
C578 C566 1.349 . S
C578 H572 0.950 . S
C578 C579 1.327 . S
C579 H573 0.950 . S
C579 C578 1.327 . S
C579 C583 1.429 . S
C580 C563 1.574 . S
C580 H574 0.949 . S
C580 C584 1.368 . S
C581 C562 1.429 . S
C581 C575 1.429 . S
C581 C582 1.523 . S
C582 C563 1.368 . S
C582 C576 1.368 . S
C582 C581 1.523 . S
C583 C567 1.429 . S
C583 C579 1.429 . S
C583 C584 1.523 . S
C584 C568 1.368 . S
C584 C580 1.368 . S
C584 C583 1.523 . S
H585 C560 0.950 . S
H586 C562 0.950 . S
H587 C563 0.949 . S
H588 C565 0.950 . S
H589 C567 0.950 . S
C590 C591 1.349 . S
C590 C592 1.327 . S
C590 H615 0.950 . S
C591 C590 1.349 . S
C591 C607 1.349 . S
C592 C590 1.327 . S
C592 C611 1.429 . S
C592 H616 0.950 . S
C593 C610 1.574 . S
C593 C612 1.368 . S
C593 H617 0.949 . S
H594 C598 0.949 . S
C595 C596 1.349 . S
C595 C597 1.327 . S
C595 H618 0.950 . S
C596 C595 1.349 . S
C596 C608 1.349 . S
C597 C595 1.327 . S
C597 C613 1.429 . S
C597 H619 0.950 . S
C598 H594 0.949 . S
C598 C606 1.574 . S
C598 C614 1.368 . S
H599 C607 0.950 . S
H600 C605 0.950 . S
H601 C606 0.949 . S
H602 C608 0.950 . S
H603 C609 0.950 . S
H604 C610 0.949 . S
C605 H600 0.950 . S
C605 C607 1.327 . S
C605 C611 1.429 . S
C606 C598 1.574 . S
C606 H601 0.949 . S
C606 C612 1.368 . S
C607 C591 1.349 . S
C607 H599 0.950 . S
C607 C605 1.327 . S
C608 C596 1.349 . S
C608 H602 0.950 . S
C608 C609 1.327 . S
C609 H603 0.950 . S
C609 C608 1.327 . S
C609 C613 1.429 . S
C610 C593 1.574 . S
C610 H604 0.949 . S
C610 C614 1.368 . S
C611 C592 1.429 . S
C611 C605 1.429 . S
C611 C612 1.523 . S
C612 C593 1.368 . S
C612 C606 1.368 . S
C612 C611 1.523 . S
C613 C597 1.429 . S
C613 C609 1.429 . S
C613 C614 1.523 . S
C614 C598 1.368 . S
C614 C610 1.368 . S
C614 C613 1.523 . S
H615 C590 0.950 . S
H616 C592 0.950 . S
H617 C593 0.949 . S
H618 C595 0.950 . S
H619 C597 0.950 . S
C620 C621 1.349 . S
C620 C622 1.327 . S
C620 H645 0.950 . S
C621 C620 1.349 . S
C621 C637 1.349 . S
C622 C620 1.327 . S
C622 C641 1.429 . S
C622 H646 0.950 . S
C623 C640 1.574 . S
C623 C642 1.368 . S
C623 H647 0.949 . S
H624 C628 0.949 . S
C625 C626 1.349 . S
C625 C627 1.327 . S
C625 H648 0.950 . S
C626 C625 1.349 . S
C626 C638 1.349 . S
C627 C625 1.327 . S
C627 C643 1.429 . S
C627 H649 0.950 . S
C628 H624 0.949 . S
C628 C636 1.574 . S
C628 C644 1.368 . S
H629 C637 0.950 . S
H630 C635 0.950 . S
H631 C636 0.949 . S
H632 C638 0.950 . S
H633 C639 0.950 . S
H634 C640 0.949 . S
C635 H630 0.950 . S
C635 C637 1.327 . S
C635 C641 1.429 . S
C636 C628 1.574 . S
C636 H631 0.949 . S
C636 C642 1.368 . S
C637 C621 1.349 . S
C637 H629 0.950 . S
C637 C635 1.327 . S
C638 C626 1.349 . S
C638 H632 0.950 . S
C638 C639 1.327 . S
C639 H633 0.950 . S
C639 C638 1.327 . S
C639 C643 1.429 . S
C640 C623 1.574 . S
C640 H634 0.949 . S
C640 C644 1.368 . S
C641 C622 1.429 . S
C641 C635 1.429 . S
C641 C642 1.523 . S
C642 C623 1.368 . S
C642 C636 1.368 . S
C642 C641 1.523 . S
C643 C627 1.429 . S
C643 C639 1.429 . S
C643 C644 1.523 . S
C644 C628 1.368 . S
C644 C640 1.368 . S
C644 C643 1.523 . S
H645 C620 0.950 . S
H646 C622 0.950 . S
H647 C623 0.949 . S
H648 C625 0.950 . S
H649 C627 0.950 . S
C650 C651 1.349 . S
C650 C652 1.327 . S
C650 H675 0.950 . S
C651 C650 1.349 . S
C651 C667 1.349 . S
C652 C650 1.327 . S
C652 C671 1.429 . S
C652 H676 0.950 . S
C653 C670 1.574 . S
C653 C672 1.368 . S
C653 H677 0.949 . S
H654 C658 0.949 . S
C655 C656 1.349 . S
C655 C657 1.327 . S
C655 H678 0.950 . S
C656 C655 1.349 . S
C656 C668 1.349 . S
C657 C655 1.327 . S
C657 C673 1.429 . S
C657 H679 0.950 . S
C658 H654 0.949 . S
C658 C666 1.574 . S
C658 C674 1.368 . S
H659 C667 0.950 . S
H660 C665 0.950 . S
H661 C666 0.949 . S
H662 C668 0.950 . S
H663 C669 0.950 . S
H664 C670 0.949 . S
C665 H660 0.950 . S
C665 C667 1.327 . S
C665 C671 1.429 . S
C666 C658 1.574 . S
C666 H661 0.949 . S
C666 C672 1.368 . S
C667 C651 1.349 . S
C667 H659 0.950 . S
C667 C665 1.327 . S
C668 C656 1.349 . S
C668 H662 0.950 . S
C668 C669 1.327 . S
C669 H663 0.950 . S
C669 C668 1.327 . S
C669 C673 1.429 . S
C670 C653 1.574 . S
C670 H664 0.949 . S
C670 C674 1.368 . S
C671 C652 1.429 . S
C671 C665 1.429 . S
C671 C672 1.523 . S
C672 C653 1.368 . S
C672 C666 1.368 . S
C672 C671 1.523 . S
C673 C657 1.429 . S
C673 C669 1.429 . S
C673 C674 1.523 . S
C674 C658 1.368 . S
C674 C670 1.368 . S
C674 C673 1.523 . S
H675 C650 0.950 . S
H676 C652 0.950 . S
H677 C653 0.949 . S
H678 C655 0.950 . S
H679 C657 0.950 . S
C680 C681 1.349 . S
C680 C682 1.327 . S
C680 H705 0.950 . S
C681 C680 1.349 . S
C681 C697 1.349 . S
C682 C680 1.327 . S
C682 C701 1.429 . S
C682 H706 0.950 . S
C683 C700 1.574 1_565 S
C683 C702 1.368 . S
C683 H707 0.949 . S
H684 C688 0.949 . S
C685 C686 1.349 . S
C685 C687 1.327 . S
C685 H708 0.950 . S
C686 C685 1.349 . S
C686 C698 1.349 . S
C687 C685 1.327 . S
C687 C703 1.429 . S
C687 H709 0.950 . S
C688 H684 0.949 . S
C688 C696 1.610 . S
C688 C704 1.368 . S
H689 C697 0.950 . S
H690 C695 0.950 . S
H691 C696 0.934 1_565 S
H692 C698 0.950 . S
H693 C699 0.950 . S
H694 C700 0.949 . S
C695 H690 0.950 . S
C695 C697 1.327 . S
C695 C701 1.429 . S
C696 C688 1.610 . S
C696 H691 0.934 1_545 S
C696 C702 1.350 1_545 S
C697 C681 1.349 . S
C697 H689 0.950 . S
C697 C695 1.327 . S
C698 C686 1.349 . S
C698 H692 0.950 . S
C698 C699 1.327 . S
C699 H693 0.950 . S
C699 C698 1.327 . S
C699 C703 1.429 . S
C700 C683 1.574 1_545 S
C700 H694 0.949 . S
C700 C704 1.368 . S
C701 C682 1.429 . S
C701 C695 1.429 . S
C701 C702 1.523 . S
C702 C683 1.368 . S
C702 C696 1.350 1_565 S
C702 C701 1.523 . S
C703 C687 1.429 . S
C703 C699 1.429 . S
C703 C704 1.523 . S
C704 C688 1.368 . S
C704 C700 1.368 . S
C704 C703 1.523 . S
H705 C680 0.950 . S
H706 C682 0.950 . S
H707 C683 0.949 . S
H708 C685 0.950 . S
H709 C687 0.950 . S
C710 C711 1.349 . S
C710 C712 1.327 . S
C710 H735 0.950 . S
C711 C710 1.349 . S
C711 C727 1.349 . S
C712 C710 1.327 . S
C712 C731 1.429 . S
C712 H736 0.950 . S
C713 C730 1.574 1_455 S
C713 C732 1.368 . S
C713 H737 0.949 . S
H714 C718 0.949 . S
C715 C716 1.349 . S
C715 C717 1.327 . S
C715 H738 0.950 . S
C716 C715 1.349 . S
C716 C728 1.349 . S
C717 C715 1.327 . S
C717 C733 1.429 . S
C717 H739 0.950 . S
C718 H714 0.949 . S
C718 C726 1.574 1_655 S
C718 C734 1.368 . S
H719 C727 0.950 . S
H720 C725 0.950 . S
H721 C726 0.949 . S
H722 C728 0.950 . S
H723 C729 0.950 . S
H724 C730 0.949 . S
C725 H720 0.950 . S
C725 C727 1.327 . S
C725 C731 1.429 . S
C726 C718 1.574 1_455 S
C726 H721 0.949 . S
C726 C732 1.368 . S
C727 C711 1.349 . S
C727 H719 0.950 . S
C727 C725 1.327 . S
C728 C716 1.349 . S
C728 H722 0.950 . S
C728 C729 1.327 . S
C729 H723 0.950 . S
C729 C728 1.327 . S
C729 C733 1.429 . S
C730 C713 1.574 1_655 S
C730 H724 0.949 . S
C730 C734 1.368 . S
C731 C712 1.429 . S
C731 C725 1.429 . S
C731 C732 1.523 . S
C732 C713 1.368 . S
C732 C726 1.368 . S
C732 C731 1.523 . S
C733 C717 1.429 . S
C733 C729 1.429 . S
C733 C734 1.523 . S
C734 C718 1.368 . S
C734 C730 1.368 . S
C734 C733 1.523 . S
H735 C710 0.950 . S
H736 C712 0.950 . S
H737 C713 0.949 . S
H738 C715 0.950 . S
H739 C717 0.950 . S
C740 C741 1.349 . S
C740 C742 1.327 . S
C740 H765 0.950 . S
C741 C740 1.349 . S
C741 C757 1.349 . S
C742 C740 1.327 . S
C742 C761 1.429 . S
C742 H766 0.950 . S
C743 C760 1.574 . S
C743 C762 1.368 . S
C743 H767 0.949 . S
H744 C748 0.949 . S
C745 C746 1.349 . S
C745 C747 1.327 . S
C745 H768 0.950 . S
C746 C745 1.349 . S
C746 C758 1.349 . S
C747 C745 1.327 . S
C747 C763 1.429 . S
C747 H769 0.950 . S
C748 H744 0.949 . S
C748 C756 1.574 1_545 S
C748 C764 1.368 . S
H749 C757 0.950 . S
H750 C755 0.950 . S
H751 C756 0.949 . S
H752 C758 0.950 . S
H753 C759 0.950 . S
H754 C760 0.949 1_545 S
C755 H750 0.950 . S
C755 C757 1.327 . S
C755 C761 1.429 . S
C756 C748 1.574 1_565 S
C756 H751 0.949 . S
C756 C762 1.368 . S
C757 C741 1.349 . S
C757 H749 0.950 . S
C757 C755 1.327 . S
C758 C746 1.349 . S
C758 H752 0.950 . S
C758 C759 1.327 . S
C759 H753 0.950 . S
C759 C758 1.327 . S
C759 C763 1.429 . S
C760 C743 1.574 . S
C760 H754 0.949 1_565 S
C760 C764 1.368 1_565 S
C761 C742 1.429 . S
C761 C755 1.429 . S
C761 C762 1.523 . S
C762 C743 1.368 . S
C762 C756 1.368 . S
C762 C761 1.523 . S
C763 C747 1.429 . S
C763 C759 1.429 . S
C763 C764 1.523 . S
C764 C748 1.368 . S
C764 C760 1.368 1_545 S
C764 C763 1.523 . S
H765 C740 0.950 . S
H766 C742 0.950 . S
H767 C743 0.949 . S
H768 C745 0.950 . S
H769 C747 0.950 . S
C770 C771 1.349 . S
C770 C772 1.327 . S
C770 H795 0.950 . S
C771 C770 1.349 . S
C771 C787 1.349 . S
C772 C770 1.327 . S
C772 C791 1.429 . S
C772 H796 0.950 . S
C773 C790 1.631 . S
C773 C792 1.338 1_655 S
C773 H797 0.927 1_655 S
H774 C778 0.949 . S
C775 C776 1.349 . S
C775 C777 1.327 . S
C775 H798 0.950 . S
C776 C775 1.349 . S
C776 C788 1.349 . S
C777 C775 1.327 . S
C777 C793 1.429 . S
C777 H799 0.950 . S
C778 H774 0.949 . S
C778 C786 1.574 1_655 S
C778 C794 1.368 . S
H779 C787 0.950 . S
H780 C785 0.950 . S
H781 C786 0.949 . S
H782 C788 0.950 . S
H783 C789 0.950 . S
H784 C790 0.949 . S
C785 H780 0.950 . S
C785 C787 1.327 . S
C785 C791 1.429 . S
C786 C778 1.574 1_455 S
C786 H781 0.949 . S
C786 C792 1.368 . S
C787 C771 1.349 . S
C787 H779 0.950 . S
C787 C785 1.327 . S
C788 C776 1.349 . S
C788 H782 0.950 . S
C788 C789 1.327 . S
C789 H783 0.950 . S
C789 C788 1.327 . S
C789 C793 1.429 . S
C790 C773 1.631 . S
C790 H784 0.949 . S
C790 C794 1.368 . S
C791 C772 1.429 . S
C791 C785 1.429 . S
C791 C792 1.523 . S
C792 C773 1.338 1_455 S
C792 C786 1.368 . S
C792 C791 1.523 . S
C793 C777 1.429 . S
C793 C789 1.429 . S
C793 C794 1.523 . S
C794 C778 1.368 . S
C794 C790 1.368 . S
C794 C793 1.523 . S
H795 C770 0.950 . S
H796 C772 0.950 . S
H797 C773 0.927 1_455 S
H798 C775 0.950 . S
H799 C777 0.950 . S
C800 C801 1.349 . S
C800 C802 1.327 . S
C800 H825 0.950 . S
C801 C800 1.349 . S
C801 C817 1.349 . S
C802 C800 1.327 . S
C802 C821 1.429 . S
C802 H826 0.950 . S
C803 C820 1.574 . S
C803 C822 1.368 . S
C803 H827 0.949 . S
H804 C808 0.949 . S
C805 C806 1.349 . S
C805 C807 1.327 . S
C805 H828 0.950 . S
C806 C805 1.349 . S
C806 C818 1.349 . S
C807 C805 1.327 . S
C807 C823 1.429 . S
C807 H829 0.950 . S
C808 H804 0.949 . S
C808 C816 1.574 . S
C808 C824 1.368 . S
H809 C817 0.950 . S
H810 C815 0.950 . S
H811 C816 0.949 . S
H812 C818 0.950 . S
H813 C819 0.950 . S
H814 C820 0.949 . S
C815 H810 0.950 . S
C815 C817 1.327 . S
C815 C821 1.429 . S
C816 C808 1.574 . S
C816 H811 0.949 . S
C816 C822 1.368 . S
C817 C801 1.349 . S
C817 H809 0.950 . S
C817 C815 1.327 . S
C818 C806 1.349 . S
C818 H812 0.950 . S
C818 C819 1.327 . S
C819 H813 0.950 . S
C819 C818 1.327 . S
C819 C823 1.429 . S
C820 C803 1.574 . S
C820 H814 0.949 . S
C820 C824 1.368 . S
C821 C802 1.429 . S
C821 C815 1.429 . S
C821 C822 1.523 . S
C822 C803 1.368 . S
C822 C816 1.368 . S
C822 C821 1.523 . S
C823 C807 1.429 . S
C823 C819 1.429 . S
C823 C824 1.523 . S
C824 C808 1.368 . S
C824 C820 1.368 . S
C824 C823 1.523 . S
H825 C800 0.950 . S
H826 C802 0.950 . S
H827 C803 0.949 . S
H828 C805 0.950 . S
H829 C807 0.950 . S
C830 C831 1.349 . S
C830 C832 1.327 . S
C830 H855 0.950 . S
C831 C830 1.349 . S
C831 C847 1.349 . S
C832 C830 1.327 . S
C832 C851 1.429 . S
C832 H856 0.950 . S
C833 C850 1.574 . S
C833 C852 1.368 . S
C833 H857 0.949 . S
H834 C838 0.949 . S
C835 C836 1.349 . S
C835 C837 1.327 . S
C835 H858 0.950 . S
C836 C835 1.349 . S
C836 C848 1.349 . S
C837 C835 1.327 . S
C837 C853 1.429 . S
C837 H859 0.950 . S
C838 H834 0.949 . S
C838 C846 1.574 . S
C838 C854 1.368 . S
H839 C847 0.950 . S
H840 C845 0.950 . S
H841 C846 0.949 . S
H842 C848 0.950 . S
H843 C849 0.950 . S
H844 C850 0.949 . S
C845 H840 0.950 . S
C845 C847 1.327 . S
C845 C851 1.429 . S
C846 C838 1.574 . S
C846 H841 0.949 . S
C846 C852 1.368 . S
C847 C831 1.349 . S
C847 H839 0.950 . S
C847 C845 1.327 . S
C848 C836 1.349 . S
C848 H842 0.950 . S
C848 C849 1.327 . S
C849 H843 0.950 . S
C849 C848 1.327 . S
C849 C853 1.429 . S
C850 C833 1.574 . S
C850 H844 0.949 . S
C850 C854 1.368 . S
C851 C832 1.429 . S
C851 C845 1.429 . S
C851 C852 1.523 . S
C852 C833 1.368 . S
C852 C846 1.368 . S
C852 C851 1.523 . S
C853 C837 1.429 . S
C853 C849 1.429 . S
C853 C854 1.523 . S
C854 C838 1.368 . S
C854 C850 1.368 . S
C854 C853 1.523 . S
H855 C830 0.950 . S
H856 C832 0.950 . S
H857 C833 0.949 . S
H858 C835 0.950 . S
H859 C837 0.950 . S
C860 C861 1.349 . S
C860 C862 1.327 . S
C860 H885 0.950 . S
C861 C860 1.349 . S
C861 C877 1.349 . S
C862 C860 1.327 . S
C862 C881 1.429 . S
C862 H886 0.950 . S
C863 C880 1.574 . S
C863 C882 1.368 . S
C863 H887 0.949 . S
H864 C868 0.949 . S
C865 C866 1.349 . S
C865 C867 1.327 . S
C865 H888 0.950 . S
C866 C865 1.349 . S
C866 C878 1.349 . S
C867 C865 1.327 . S
C867 C883 1.429 . S
C867 H889 0.950 . S
C868 H864 0.949 . S
C868 C876 1.574 . S
C868 C884 1.368 . S
H869 C877 0.950 . S
H870 C875 0.950 . S
H871 C876 0.949 . S
H872 C878 0.950 . S
H873 C879 0.950 . S
H874 C880 0.949 . S
C875 H870 0.950 . S
C875 C877 1.327 . S
C875 C881 1.429 . S
C876 C868 1.574 . S
C876 H871 0.949 . S
C876 C882 1.368 . S
C877 C861 1.349 . S
C877 H869 0.950 . S
C877 C875 1.327 . S
C878 C866 1.349 . S
C878 H872 0.950 . S
C878 C879 1.327 . S
C879 H873 0.950 . S
C879 C878 1.327 . S
C879 C883 1.429 . S
C880 C863 1.574 . S
C880 H874 0.949 . S
C880 C884 1.368 . S
C881 C862 1.429 . S
C881 C875 1.429 . S
C881 C882 1.523 . S
C882 C863 1.368 . S
C882 C876 1.368 . S
C882 C881 1.523 . S
C883 C867 1.429 . S
C883 C879 1.429 . S
C883 C884 1.523 . S
C884 C868 1.368 . S
C884 C880 1.368 . S
C884 C883 1.523 . S
H885 C860 0.950 . S
H886 C862 0.950 . S
H887 C863 0.949 . S
H888 C865 0.950 . S
H889 C867 0.950 . S
C890 C891 1.349 . S
C890 C892 1.327 . S
C890 H915 0.950 . S
C891 C890 1.349 . S
C891 C907 1.349 . S
C892 C890 1.327 . S
C892 C911 1.429 . S
C892 H916 0.950 . S
C893 C910 1.574 . S
C893 C912 1.368 . S
C893 H917 0.949 . S
H894 C898 0.949 . S
C895 C896 1.349 . S
C895 C897 1.327 . S
C895 H918 0.950 . S
C896 C895 1.349 . S
C896 C908 1.349 . S
C897 C895 1.327 . S
C897 C913 1.429 . S
C897 H919 0.950 . S
C898 H894 0.949 . S
C898 C906 1.574 . S
C898 C914 1.368 . S
H899 C907 0.950 . S
H900 C905 0.950 . S
H901 C906 0.949 . S
H902 C908 0.950 . S
H903 C909 0.950 . S
H904 C910 0.949 . S
C905 H900 0.950 . S
C905 C907 1.327 . S
C905 C911 1.429 . S
C906 C898 1.574 . S
C906 H901 0.949 . S
C906 C912 1.368 . S
C907 C891 1.349 . S
C907 H899 0.950 . S
C907 C905 1.327 . S
C908 C896 1.349 . S
C908 H902 0.950 . S
C908 C909 1.327 . S
C909 H903 0.950 . S
C909 C908 1.327 . S
C909 C913 1.429 . S
C910 C893 1.574 . S
C910 H904 0.949 . S
C910 C914 1.368 . S
C911 C892 1.429 . S
C911 C905 1.429 . S
C911 C912 1.523 . S
C912 C893 1.368 . S
C912 C906 1.368 . S
C912 C911 1.523 . S
C913 C897 1.429 . S
C913 C909 1.429 . S
C913 C914 1.523 . S
C914 C898 1.368 . S
C914 C910 1.368 . S
C914 C913 1.523 . S
H915 C890 0.950 . S
H916 C892 0.950 . S
H917 C893 0.949 . S
H918 C895 0.950 . S
H919 C897 0.950 . S
C920 C921 1.349 . S
C920 C922 1.327 . S
C920 H945 0.950 . S
C921 C920 1.349 . S
C921 C937 1.349 . S
C922 C920 1.327 . S
C922 C941 1.429 . S
C922 H946 0.950 . S
C923 C940 1.574 . S
C923 C942 1.368 . S
C923 H947 0.949 . S
H924 C928 0.949 . S
C925 C926 1.349 . S
C925 C927 1.327 . S
C925 H948 0.950 . S
C926 C925 1.349 . S
C926 C938 1.349 . S
C927 C925 1.327 . S
C927 C943 1.429 . S
C927 H949 0.950 . S
C928 H924 0.949 . S
C928 C936 1.574 . S
C928 C944 1.368 . S
H929 C937 0.950 . S
H930 C935 0.950 . S
H931 C936 0.949 . S
H932 C938 0.950 . S
H933 C939 0.950 . S
H934 C940 0.949 . S
C935 H930 0.950 . S
C935 C937 1.327 . S
C935 C941 1.429 . S
C936 C928 1.574 . S
C936 H931 0.949 . S
C936 C942 1.368 . S
C937 C921 1.349 . S
C937 H929 0.950 . S
C937 C935 1.327 . S
C938 C926 1.349 . S
C938 H932 0.950 . S
C938 C939 1.327 . S
C939 H933 0.950 . S
C939 C938 1.327 . S
C939 C943 1.429 . S
C940 C923 1.574 . S
C940 H934 0.949 . S
C940 C944 1.368 . S
C941 C922 1.429 . S
C941 C935 1.429 . S
C941 C942 1.523 . S
C942 C923 1.368 . S
C942 C936 1.368 . S
C942 C941 1.523 . S
C943 C927 1.429 . S
C943 C939 1.429 . S
C943 C944 1.523 . S
C944 C928 1.368 . S
C944 C940 1.368 . S
C944 C943 1.523 . S
H945 C920 0.950 . S
H946 C922 0.950 . S
H947 C923 0.949 . S
H948 C925 0.950 . S
H949 C927 0.950 . S
C950 C951 1.349 . S
C950 C952 1.327 . S
C950 H975 0.950 . S
C951 C950 1.349 . S
C951 C967 1.349 . S
C952 C950 1.327 . S
C952 C971 1.429 . S
C952 H976 0.950 . S
C953 C970 1.574 . S
C953 C972 1.368 . S
C953 H977 0.949 . S
H954 C958 0.949 . S
C955 C956 1.349 . S
C955 C957 1.327 . S
C955 H978 0.950 . S
C956 C955 1.349 . S
C956 C968 1.349 . S
C957 C955 1.327 . S
C957 C973 1.429 . S
C957 H979 0.950 . S
C958 H954 0.949 . S
C958 C966 1.574 . S
C958 C974 1.368 . S
H959 C967 0.950 . S
H960 C965 0.950 . S
H961 C966 0.949 . S
H962 C968 0.950 . S
H963 C969 0.950 . S
H964 C970 0.949 . S
C965 H960 0.950 . S
C965 C967 1.327 . S
C965 C971 1.429 . S
C966 C958 1.574 . S
C966 H961 0.949 . S
C966 C972 1.368 . S
C967 C951 1.349 . S
C967 H959 0.950 . S
C967 C965 1.327 . S
C968 C956 1.349 . S
C968 H962 0.950 . S
C968 C969 1.327 . S
C969 H963 0.950 . S
C969 C968 1.327 . S
C969 C973 1.429 . S
C970 C953 1.574 . S
C970 H964 0.949 . S
C970 C974 1.368 . S
C971 C952 1.429 . S
C971 C965 1.429 . S
C971 C972 1.523 . S
C972 C953 1.368 . S
C972 C966 1.368 . S
C972 C971 1.523 . S
C973 C957 1.429 . S
C973 C969 1.429 . S
C973 C974 1.523 . S
C974 C958 1.368 . S
C974 C970 1.368 . S
C974 C973 1.523 . S
H975 C950 0.950 . S
H976 C952 0.950 . S
H977 C953 0.949 . S
H978 C955 0.950 . S
H979 C957 0.950 . S
C980 C981 1.349 . S
C980 C982 1.327 . S
C980 H1005 0.950 . S
C981 C980 1.349 . S
C981 C997 1.349 . S
C982 C980 1.327 . S
C982 C1001 1.429 . S
C982 H1006 0.950 . S
C983 C1000 1.574 . S
C983 C1002 1.368 . S
C983 H1007 0.949 . S
H984 C988 0.949 . S
C985 C986 1.349 . S
C985 C987 1.327 . S
C985 H1008 0.950 . S
C986 C985 1.349 . S
C986 C998 1.349 . S
C987 C985 1.327 . S
C987 C1003 1.429 . S
C987 H1009 0.950 . S
C988 H984 0.949 . S
C988 C996 1.574 . S
C988 C1004 1.368 . S
H989 C997 0.950 . S
H990 C995 0.950 . S
H991 C996 0.949 . S
H992 C998 0.950 . S
H993 C999 0.950 . S
H994 C1000 0.949 . S
C995 H990 0.950 . S
C995 C997 1.327 . S
C995 C1001 1.429 . S
C996 C988 1.574 . S
C996 H991 0.949 . S
C996 C1002 1.368 . S
C997 C981 1.349 . S
C997 H989 0.950 . S
C997 C995 1.327 . S
C998 C986 1.349 . S
C998 H992 0.950 . S
C998 C999 1.327 . S
C999 H993 0.950 . S
C999 C998 1.327 . S
C999 C1003 1.429 . S
C1000 C983 1.574 . S
C1000 H994 0.949 . S
C1000 C1004 1.368 . S
C1001 C982 1.429 . S
C1001 C995 1.429 . S
C1001 C1002 1.523 . S
C1002 C983 1.368 . S
C1002 C996 1.368 . S
C1002 C1001 1.523 . S
C1003 C987 1.429 . S
C1003 C999 1.429 . S
C1003 C1004 1.523 . S
C1004 C988 1.368 . S
C1004 C1000 1.368 . S
C1004 C1003 1.523 . S
H1005 C980 0.950 . S
H1006 C982 0.950 . S
H1007 C983 0.949 . S
H1008 C985 0.950 . S
H1009 C987 0.950 . S
C1010 C1011 1.349 . S
C1010 C1012 1.327 . S
C1010 H1035 0.950 . S
C1011 C1010 1.349 . S
C1011 C1027 1.349 . S
C1012 C1010 1.327 . S
C1012 C1031 1.429 . S
C1012 H1036 0.950 . S
C1013 C1030 1.574 . S
C1013 C1032 1.368 . S
C1013 H1037 0.949 . S
H1014 C1018 0.949 . S
C1015 C1016 1.349 . S
C1015 C1017 1.327 . S
C1015 H1038 0.950 . S
C1016 C1015 1.349 . S
C1016 C1028 1.349 . S
C1017 C1015 1.327 . S
C1017 C1033 1.429 . S
C1017 H1039 0.950 . S
C1018 H1014 0.949 . S
C1018 C1026 1.574 . S
C1018 C1034 1.368 . S
H1019 C1027 0.950 . S
H1020 C1025 0.950 . S
H1021 C1026 0.949 . S
H1022 C1028 0.950 . S
H1023 C1029 0.950 . S
H1024 C1030 0.949 . S
C1025 H1020 0.950 . S
C1025 C1027 1.327 . S
C1025 C1031 1.429 . S
C1026 C1018 1.574 . S
C1026 H1021 0.949 . S
C1026 C1032 1.368 . S
C1027 C1011 1.349 . S
C1027 H1019 0.950 . S
C1027 C1025 1.327 . S
C1028 C1016 1.349 . S
C1028 H1022 0.950 . S
C1028 C1029 1.327 . S
C1029 H1023 0.950 . S
C1029 C1028 1.327 . S
C1029 C1033 1.429 . S
C1030 C1013 1.574 . S
C1030 H1024 0.949 . S
C1030 C1034 1.368 . S
C1031 C1012 1.429 . S
C1031 C1025 1.429 . S
C1031 C1032 1.523 . S
C1032 C1013 1.368 . S
C1032 C1026 1.368 . S
C1032 C1031 1.523 . S
C1033 C1017 1.429 . S
C1033 C1029 1.429 . S
C1033 C1034 1.523 . S
C1034 C1018 1.368 . S
C1034 C1030 1.368 . S
C1034 C1033 1.523 . S
H1035 C1010 0.950 . S
H1036 C1012 0.950 . S
H1037 C1013 0.949 . S
H1038 C1015 0.950 . S
H1039 C1017 0.950 . S
C1040 C1041 1.349 . S
C1040 C1042 1.327 . S
C1040 H1065 0.950 . S
C1041 C1040 1.349 . S
C1041 C1057 1.349 . S
C1042 C1040 1.327 . S
C1042 C1061 1.429 . S
C1042 H1066 0.950 . S
C1043 C1060 1.574 . S
C1043 C1062 1.368 . S
C1043 H1067 0.949 . S
H1044 C1048 0.949 . S
C1045 C1046 1.349 1_556 S
C1045 C1047 1.327 . S
C1045 H1068 0.950 . S
C1046 C1045 1.349 1_554 S
C1046 C1058 1.349 . S
C1047 C1045 1.327 . S
C1047 C1063 1.429 . S
C1047 H1069 0.950 . S
C1048 H1044 0.949 . S
C1048 C1056 1.574 . S
C1048 C1064 1.368 . S
H1049 C1057 0.950 . S
H1050 C1055 0.950 . S
H1051 C1056 0.949 . S
H1052 C1058 0.950 . S
H1053 C1059 0.950 1_554 S
H1054 C1060 0.949 . S
C1055 H1050 0.950 . S
C1055 C1057 1.327 . S
C1055 C1061 1.429 . S
C1056 C1048 1.574 . S
C1056 H1051 0.949 . S
C1056 C1062 1.368 . S
C1057 C1041 1.349 . S
C1057 H1049 0.950 . S
C1057 C1055 1.327 . S
C1058 C1046 1.349 . S
C1058 H1052 0.950 . S
C1058 C1059 1.327 1_554 S
C1059 H1053 0.950 1_556 S
C1059 C1058 1.327 1_556 S
C1059 C1063 1.429 . S
C1060 C1043 1.574 . S
C1060 H1054 0.949 . S
C1060 C1064 1.368 . S
C1061 C1042 1.429 . S
C1061 C1055 1.429 . S
C1061 C1062 1.523 . S
C1062 C1043 1.368 . S
C1062 C1056 1.368 . S
C1062 C1061 1.523 . S
C1063 C1047 1.429 . S
C1063 C1059 1.429 . S
C1063 C1064 1.523 . S
C1064 C1048 1.368 . S
C1064 C1060 1.368 . S
C1064 C1063 1.523 . S
H1065 C1040 0.950 . S
H1066 C1042 0.950 . S
H1067 C1043 0.949 . S
H1068 C1045 0.950 . S
H1069 C1047 0.950 . S
C1070 C1071 1.349 . S
C1070 C1072 1.327 1_556 S
C1070 H1095 0.950 . S
C1071 C1070 1.349 . S
C1071 C1087 1.349 1_556 S
C1072 C1070 1.327 1_554 S
C1072 C1091 1.429 . S
C1072 H1096 0.950 1_554 S
C1073 C1090 1.574 . S
C1073 C1092 1.368 . S
C1073 H1097 0.949 . S
H1074 C1078 0.949 . S
C1075 C1076 1.349 . S
C1075 C1077 1.327 . S
C1075 H1098 0.950 . S
C1076 C1075 1.349 . S
C1076 C1088 1.349 . S
C1077 C1075 1.327 . S
C1077 C1093 1.429 . S
C1077 H1099 0.950 . S
C1078 H1074 0.949 . S
C1078 C1086 1.574 . S
C1078 C1094 1.368 . S
H1079 C1087 0.950 . S
H1080 C1085 0.950 . S
H1081 C1086 0.949 . S
H1082 C1088 0.950 . S
H1083 C1089 0.950 . S
H1084 C1090 0.949 . S
C1085 H1080 0.950 . S
C1085 C1087 1.327 . S
C1085 C1091 1.429 . S
C1086 C1078 1.574 . S
C1086 H1081 0.949 . S
C1086 C1092 1.368 . S
C1087 C1071 1.349 1_554 S
C1087 H1079 0.950 . S
C1087 C1085 1.327 . S
C1088 C1076 1.349 . S
C1088 H1082 0.950 . S
C1088 C1089 1.327 . S
C1089 H1083 0.950 . S
C1089 C1088 1.327 . S
C1089 C1093 1.429 . S
C1090 C1073 1.574 . S
C1090 H1084 0.949 . S
C1090 C1094 1.368 . S
C1091 C1072 1.429 . S
C1091 C1085 1.429 . S
C1091 C1092 1.523 . S
C1092 C1073 1.368 . S
C1092 C1086 1.368 . S
C1092 C1091 1.523 . S
C1093 C1077 1.429 . S
C1093 C1089 1.429 . S
C1093 C1094 1.523 . S
C1094 C1078 1.368 . S
C1094 C1090 1.368 . S
C1094 C1093 1.523 . S
H1095 C1070 0.950 . S
H1096 C1072 0.950 1_556 S
H1097 C1073 0.949 . S
H1098 C1075 0.950 . S
H1099 C1077 0.950 . S
C1100 C1101 1.349 1_556 S
C1100 C1102 1.327 . S
C1100 H1125 0.950 . S
C1101 C1100 1.349 1_554 S
C1101 C1117 1.349 . S
C1102 C1100 1.327 . S
C1102 C1121 1.429 . S
C1102 H1126 0.950 . S
C1103 C1120 1.574 . S
C1103 C1122 1.368 . S
C1103 H1127 0.949 . S
H1104 C1108 0.949 . S
C1105 C1106 1.349 . S
C1105 C1107 1.327 . S
C1105 H1128 0.950 . S
C1106 C1105 1.349 . S
C1106 C1118 1.349 . S
C1107 C1105 1.327 . S
C1107 C1123 1.429 . S
C1107 H1129 0.950 . S
C1108 H1104 0.949 . S
C1108 C1116 1.574 . S
C1108 C1124 1.368 . S
H1109 C1117 0.950 . S
H1110 C1115 0.950 1_554 S
H1111 C1116 0.949 . S
H1112 C1118 0.950 . S
H1113 C1119 0.950 . S
H1114 C1120 0.949 . S
C1115 H1110 0.950 1_556 S
C1115 C1117 1.327 1_556 S
C1115 C1121 1.429 . S
C1116 C1108 1.574 . S
C1116 H1111 0.949 . S
C1116 C1122 1.368 . S
C1117 C1101 1.349 . S
C1117 H1109 0.950 . S
C1117 C1115 1.327 1_554 S
C1118 C1106 1.349 . S
C1118 H1112 0.950 . S
C1118 C1119 1.327 . S
C1119 H1113 0.950 . S
C1119 C1118 1.327 . S
C1119 C1123 1.429 . S
C1120 C1103 1.574 . S
C1120 H1114 0.949 . S
C1120 C1124 1.368 . S
C1121 C1102 1.429 . S
C1121 C1115 1.429 . S
C1121 C1122 1.523 . S
C1122 C1103 1.368 . S
C1122 C1116 1.368 . S
C1122 C1121 1.523 . S
C1123 C1107 1.429 . S
C1123 C1119 1.429 . S
C1123 C1124 1.523 . S
C1124 C1108 1.368 . S
C1124 C1120 1.368 . S
C1124 C1123 1.523 . S
H1125 C1100 0.950 . S
H1126 C1102 0.950 . S
H1127 C1103 0.949 . S
H1128 C1105 0.950 . S
H1129 C1107 0.950 . S
C1130 C1131 1.349 1_554 S
C1130 C1132 1.327 . S
C1130 H1155 0.950 . S
C1131 C1130 1.349 1_556 S
C1131 C1147 1.349 . S
C1132 C1130 1.327 . S
C1132 C1151 1.429 . S
C1132 H1156 0.950 . S
C1133 C1150 1.574 . S
C1133 C1152 1.368 . S
C1133 H1157 0.949 . S
H1134 C1138 0.949 . S
C1135 C1136 1.349 . S
C1135 C1137 1.327 . S
C1135 H1158 0.950 . S
C1136 C1135 1.349 . S
C1136 C1148 1.349 . S
C1137 C1135 1.327 . S
C1137 C1153 1.429 . S
C1137 H1159 0.950 . S
C1138 H1134 0.949 . S
C1138 C1146 1.574 . S
C1138 C1154 1.368 . S
H1139 C1147 0.950 . S
H1140 C1145 0.950 . S
H1141 C1146 0.949 . S
H1142 C1148 0.950 . S
H1143 C1149 0.950 . S
H1144 C1150 0.949 . S
C1145 H1140 0.950 . S
C1145 C1147 1.327 . S
C1145 C1151 1.429 1_556 S
C1146 C1138 1.574 . S
C1146 H1141 0.949 . S
C1146 C1152 1.368 . S
C1147 C1131 1.349 . S
C1147 H1139 0.950 . S
C1147 C1145 1.327 . S
C1148 C1136 1.349 . S
C1148 H1142 0.950 . S
C1148 C1149 1.327 . S
C1149 H1143 0.950 . S
C1149 C1148 1.327 . S
C1149 C1153 1.429 . S
C1150 C1133 1.574 . S
C1150 H1144 0.949 . S
C1150 C1154 1.368 . S
C1151 C1132 1.429 . S
C1151 C1145 1.429 1_554 S
C1151 C1152 1.523 . S
C1152 C1133 1.368 . S
C1152 C1146 1.368 . S
C1152 C1151 1.523 . S
C1153 C1137 1.429 . S
C1153 C1149 1.429 . S
C1153 C1154 1.523 . S
C1154 C1138 1.368 . S
C1154 C1150 1.368 . S
C1154 C1153 1.523 . S
H1155 C1130 0.950 . S
H1156 C1132 0.950 . S
H1157 C1133 0.949 . S
H1158 C1135 0.950 . S
H1159 C1137 0.950 . S
C1160 C1161 1.349 . S
C1160 C1162 1.327 . S
C1160 H1185 0.950 . S
C1161 C1160 1.349 . S
C1161 C1177 1.349 . S
C1162 C1160 1.327 . S
C1162 C1181 1.429 . S
C1162 H1186 0.950 . S
C1163 C1180 1.574 . S
C1163 C1182 1.368 . S
C1163 H1187 0.949 . S
H1164 C1168 0.949 . S
C1165 C1166 1.349 . S
C1165 C1167 1.327 . S
C1165 H1188 0.950 . S
C1166 C1165 1.349 . S
C1166 C1178 1.349 . S
C1167 C1165 1.327 . S
C1167 C1183 1.429 . S
C1167 H1189 0.950 . S
C1168 H1164 0.949 . S
C1168 C1176 1.574 . S
C1168 C1184 1.368 . S
H1169 C1177 0.950 . S
H1170 C1175 0.950 . S
H1171 C1176 0.949 . S
H1172 C1178 0.950 . S
H1173 C1179 0.950 . S
H1174 C1180 0.949 . S
C1175 H1170 0.950 . S
C1175 C1177 1.327 . S
C1175 C1181 1.429 . S
C1176 C1168 1.574 . S
C1176 H1171 0.949 . S
C1176 C1182 1.368 . S
C1177 C1161 1.349 . S
C1177 H1169 0.950 . S
C1177 C1175 1.327 . S
C1178 C1166 1.349 . S
C1178 H1172 0.950 . S
C1178 C1179 1.327 . S
C1179 H1173 0.950 . S
C1179 C1178 1.327 . S
C1179 C1183 1.429 . S
C1180 C1163 1.574 . S
C1180 H1174 0.949 . S
C1180 C1184 1.368 . S
C1181 C1162 1.429 . S
C1181 C1175 1.429 . S
C1181 C1182 1.523 . S
C1182 C1163 1.368 . S
C1182 C1176 1.368 . S
C1182 C1181 1.523 . S
C1183 C1167 1.429 . S
C1183 C1179 1.429 . S
C1183 C1184 1.523 . S
C1184 C1168 1.368 . S
C1184 C1180 1.368 . S
C1184 C1183 1.523 . S
H1185 C1160 0.950 . S
H1186 C1162 0.950 . S
H1187 C1163 0.949 . S
H1188 C1165 0.950 . S
H1189 C1167 0.950 . S
C1190 C1191 1.349 . S
C1190 C1192 1.327 . S
C1190 H1215 0.950 . S
C1191 C1190 1.349 . S
C1191 C1207 1.349 . S
C1192 C1190 1.327 . S
C1192 C1211 1.429 . S
C1192 H1216 0.950 . S
C1193 C1210 1.574 . S
C1193 C1212 1.368 . S
C1193 H1217 0.949 . S
H1194 C1198 0.949 . S
C1195 C1196 1.349 . S
C1195 C1197 1.327 . S
C1195 H1218 0.950 . S
C1196 C1195 1.349 . S
C1196 C1208 1.349 . S
C1197 C1195 1.327 . S
C1197 C1213 1.429 . S
C1197 H1219 0.950 . S
C1198 H1194 0.949 . S
C1198 C1206 1.574 . S
C1198 C1214 1.368 . S
H1199 C1207 0.950 . S
H1200 C1205 0.950 . S
H1201 C1206 0.949 . S
H1202 C1208 0.950 . S
H1203 C1209 0.950 . S
H1204 C1210 0.949 . S
C1205 H1200 0.950 . S
C1205 C1207 1.327 . S
C1205 C1211 1.429 . S
C1206 C1198 1.574 . S
C1206 H1201 0.949 . S
C1206 C1212 1.368 . S
C1207 C1191 1.349 . S
C1207 H1199 0.950 . S
C1207 C1205 1.327 . S
C1208 C1196 1.349 . S
C1208 H1202 0.950 . S
C1208 C1209 1.327 . S
C1209 H1203 0.950 . S
C1209 C1208 1.327 . S
C1209 C1213 1.429 . S
C1210 C1193 1.574 . S
C1210 H1204 0.949 . S
C1210 C1214 1.368 . S
C1211 C1192 1.429 . S
C1211 C1205 1.429 . S
C1211 C1212 1.523 . S
C1212 C1193 1.368 . S
C1212 C1206 1.368 . S
C1212 C1211 1.523 . S
C1213 C1197 1.429 . S
C1213 C1209 1.429 . S
C1213 C1214 1.523 . S
C1214 C1198 1.368 . S
C1214 C1210 1.368 . S
C1214 C1213 1.523 . S
H1215 C1190 0.950 . S
H1216 C1192 0.950 . S
H1217 C1193 0.949 . S
H1218 C1195 0.950 . S
H1219 C1197 0.950 . S
C1220 C1221 1.349 . S
C1220 C1222 1.327 . S
C1220 H1245 0.950 . S
C1221 C1220 1.349 . S
C1221 C1237 1.349 . S
C1222 C1220 1.327 . S
C1222 C1241 1.429 . S
C1222 H1246 0.950 . S
C1223 C1240 1.574 . S
C1223 C1242 1.368 . S
C1223 H1247 0.949 . S
H1224 C1228 0.949 . S
C1225 C1226 1.349 . S
C1225 C1227 1.327 . S
C1225 H1248 0.950 . S
C1226 C1225 1.349 . S
C1226 C1238 1.349 . S
C1227 C1225 1.327 . S
C1227 C1243 1.429 . S
C1227 H1249 0.950 . S
C1228 H1224 0.949 . S
C1228 C1236 1.574 . S
C1228 C1244 1.368 . S
H1229 C1237 0.950 . S
H1230 C1235 0.950 . S
H1231 C1236 0.949 . S
H1232 C1238 0.950 . S
H1233 C1239 0.950 . S
H1234 C1240 0.949 . S
C1235 H1230 0.950 . S
C1235 C1237 1.327 . S
C1235 C1241 1.429 . S
C1236 C1228 1.574 . S
C1236 H1231 0.949 . S
C1236 C1242 1.368 . S
C1237 C1221 1.349 . S
C1237 H1229 0.950 . S
C1237 C1235 1.327 . S
C1238 C1226 1.349 . S
C1238 H1232 0.950 . S
C1238 C1239 1.327 . S
C1239 H1233 0.950 . S
C1239 C1238 1.327 . S
C1239 C1243 1.429 . S
C1240 C1223 1.574 . S
C1240 H1234 0.949 . S
C1240 C1244 1.368 . S
C1241 C1222 1.429 . S
C1241 C1235 1.429 . S
C1241 C1242 1.523 . S
C1242 C1223 1.368 . S
C1242 C1236 1.368 . S
C1242 C1241 1.523 . S
C1243 C1227 1.429 . S
C1243 C1239 1.429 . S
C1243 C1244 1.523 . S
C1244 C1228 1.368 . S
C1244 C1240 1.368 . S
C1244 C1243 1.523 . S
H1245 C1220 0.950 . S
H1246 C1222 0.950 . S
H1247 C1223 0.949 . S
H1248 C1225 0.950 . S
H1249 C1227 0.950 . S
C1250 C1251 1.349 . S
C1250 C1252 1.327 . S
C1250 H1275 0.950 . S
C1251 C1250 1.349 . S
C1251 C1267 1.349 . S
C1252 C1250 1.327 . S
C1252 C1271 1.429 . S
C1252 H1276 0.950 . S
C1253 C1270 1.574 . S
C1253 C1272 1.368 . S
C1253 H1277 0.949 . S
H1254 C1258 0.949 . S
C1255 C1256 1.349 . S
C1255 C1257 1.327 . S
C1255 H1278 0.950 . S
C1256 C1255 1.349 . S
C1256 C1268 1.349 . S
C1257 C1255 1.327 . S
C1257 C1273 1.429 . S
C1257 H1279 0.950 . S
C1258 H1254 0.949 . S
C1258 C1266 1.574 . S
C1258 C1274 1.368 . S
H1259 C1267 0.950 . S
H1260 C1265 0.950 . S
H1261 C1266 0.949 . S
H1262 C1268 0.950 . S
H1263 C1269 0.950 . S
H1264 C1270 0.949 . S
C1265 H1260 0.950 . S
C1265 C1267 1.327 . S
C1265 C1271 1.429 . S
C1266 C1258 1.574 . S
C1266 H1261 0.949 . S
C1266 C1272 1.368 . S
C1267 C1251 1.349 . S
C1267 H1259 0.950 . S
C1267 C1265 1.327 . S
C1268 C1256 1.349 . S
C1268 H1262 0.950 . S
C1268 C1269 1.327 . S
C1269 H1263 0.950 . S
C1269 C1268 1.327 . S
C1269 C1273 1.429 . S
C1270 C1253 1.574 . S
C1270 H1264 0.949 . S
C1270 C1274 1.368 . S
C1271 C1252 1.429 . S
C1271 C1265 1.429 . S
C1271 C1272 1.523 . S
C1272 C1253 1.368 . S
C1272 C1266 1.368 . S
C1272 C1271 1.523 . S
C1273 C1257 1.429 . S
C1273 C1269 1.429 . S
C1273 C1274 1.523 . S
C1274 C1258 1.368 . S
C1274 C1270 1.368 . S
C1274 C1273 1.523 . S
H1275 C1250 0.950 . S
H1276 C1252 0.950 . S
H1277 C1253 0.949 . S
H1278 C1255 0.950 . S
H1279 C1257 0.950 . S
C1280 C1281 1.349 . S
C1280 C1282 1.327 . S
C1280 H1305 0.950 . S
C1281 C1280 1.349 . S
C1281 C1297 1.349 . S
C1282 C1280 1.327 . S
C1282 C1301 1.429 . S
C1282 H1306 0.950 . S
C1283 C1300 1.574 . S
C1283 C1302 1.368 . S
C1283 H1307 0.949 . S
H1284 C1288 0.949 . S
C1285 C1286 1.349 . S
C1285 C1287 1.327 . S
C1285 H1308 0.950 . S
C1286 C1285 1.349 . S
C1286 C1298 1.349 . S
C1287 C1285 1.327 . S
C1287 C1303 1.429 . S
C1287 H1309 0.950 . S
C1288 H1284 0.949 . S
C1288 C1296 1.574 . S
C1288 C1304 1.368 . S
H1289 C1297 0.950 . S
H1290 C1295 0.950 . S
H1291 C1296 0.949 . S
H1292 C1298 0.950 . S
H1293 C1299 0.950 . S
H1294 C1300 0.949 . S
C1295 H1290 0.950 . S
C1295 C1297 1.327 . S
C1295 C1301 1.429 . S
C1296 C1288 1.574 . S
C1296 H1291 0.949 . S
C1296 C1302 1.368 . S
C1297 C1281 1.349 . S
C1297 H1289 0.950 . S
C1297 C1295 1.327 . S
C1298 C1286 1.349 . S
C1298 H1292 0.950 . S
C1298 C1299 1.327 . S
C1299 H1293 0.950 . S
C1299 C1298 1.327 . S
C1299 C1303 1.429 . S
C1300 C1283 1.574 . S
C1300 H1294 0.949 . S
C1300 C1304 1.368 . S
C1301 C1282 1.429 . S
C1301 C1295 1.429 . S
C1301 C1302 1.523 . S
C1302 C1283 1.368 . S
C1302 C1296 1.368 . S
C1302 C1301 1.523 . S
C1303 C1287 1.429 . S
C1303 C1299 1.429 . S
C1303 C1304 1.523 . S
C1304 C1288 1.368 . S
C1304 C1300 1.368 . S
C1304 C1303 1.523 . S
H1305 C1280 0.950 . S
H1306 C1282 0.950 . S
H1307 C1283 0.949 . S
H1308 C1285 0.950 . S
H1309 C1287 0.950 . S
C1310 C1311 1.349 . S
C1310 C1312 1.327 . S
C1310 H1335 0.950 . S
C1311 C1310 1.349 . S
C1311 C1327 1.349 . S
C1312 C1310 1.327 . S
C1312 C1331 1.429 . S
C1312 H1336 0.950 . S
C1313 C1330 1.574 . S
C1313 C1332 1.368 . S
C1313 H1337 0.949 . S
H1314 C1318 0.949 . S
C1315 C1316 1.349 . S
C1315 C1317 1.327 . S
C1315 H1338 0.950 . S
C1316 C1315 1.349 . S
C1316 C1328 1.349 . S
C1317 C1315 1.327 . S
C1317 C1333 1.429 . S
C1317 H1339 0.950 . S
C1318 H1314 0.949 . S
C1318 C1326 1.574 . S
C1318 C1334 1.368 . S
H1319 C1327 0.950 . S
H1320 C1325 0.950 . S
H1321 C1326 0.949 . S
H1322 C1328 0.950 . S
H1323 C1329 0.950 . S
H1324 C1330 0.949 . S
C1325 H1320 0.950 . S
C1325 C1327 1.327 . S
C1325 C1331 1.429 . S
C1326 C1318 1.574 . S
C1326 H1321 0.949 . S
C1326 C1332 1.368 . S
C1327 C1311 1.349 . S
C1327 H1319 0.950 . S
C1327 C1325 1.327 . S
C1328 C1316 1.349 . S
C1328 H1322 0.950 . S
C1328 C1329 1.327 . S
C1329 H1323 0.950 . S
C1329 C1328 1.327 . S
C1329 C1333 1.429 . S
C1330 C1313 1.574 . S
C1330 H1324 0.949 . S
C1330 C1334 1.368 . S
C1331 C1312 1.429 . S
C1331 C1325 1.429 . S
C1331 C1332 1.523 . S
C1332 C1313 1.368 . S
C1332 C1326 1.368 . S
C1332 C1331 1.523 . S
C1333 C1317 1.429 . S
C1333 C1329 1.429 . S
C1333 C1334 1.523 . S
C1334 C1318 1.368 . S
C1334 C1330 1.368 . S
C1334 C1333 1.523 . S
H1335 C1310 0.950 . S
H1336 C1312 0.950 . S
H1337 C1313 0.949 . S
H1338 C1315 0.950 . S
H1339 C1317 0.950 . S
C1340 C1341 1.349 . S
C1340 C1342 1.327 . S
C1340 H1365 0.950 . S
C1341 C1340 1.349 . S
C1341 C1357 1.349 . S
C1342 C1340 1.327 . S
C1342 C1361 1.429 . S
C1342 H1366 0.950 . S
C1343 C1360 1.574 . S
C1343 C1362 1.368 . S
C1343 H1367 0.949 . S
H1344 C1348 0.949 . S
C1345 C1346 1.349 . S
C1345 C1347 1.327 . S
C1345 H1368 0.950 . S
C1346 C1345 1.349 . S
C1346 C1358 1.349 . S
C1347 C1345 1.327 . S
C1347 C1363 1.429 . S
C1347 H1369 0.950 . S
C1348 H1344 0.949 . S
C1348 C1356 1.574 . S
C1348 C1364 1.368 . S
H1349 C1357 0.950 . S
H1350 C1355 0.950 . S
H1351 C1356 0.949 . S
H1352 C1358 0.950 . S
H1353 C1359 0.950 . S
H1354 C1360 0.949 . S
C1355 H1350 0.950 . S
C1355 C1357 1.327 . S
C1355 C1361 1.429 . S
C1356 C1348 1.574 . S
C1356 H1351 0.949 . S
C1356 C1362 1.368 . S
C1357 C1341 1.349 . S
C1357 H1349 0.950 . S
C1357 C1355 1.327 . S
C1358 C1346 1.349 . S
C1358 H1352 0.950 . S
C1358 C1359 1.327 . S
C1359 H1353 0.950 . S
C1359 C1358 1.327 . S
C1359 C1363 1.429 . S
C1360 C1343 1.574 . S
C1360 H1354 0.949 . S
C1360 C1364 1.368 . S
C1361 C1342 1.429 . S
C1361 C1355 1.429 . S
C1361 C1362 1.523 . S
C1362 C1343 1.368 . S
C1362 C1356 1.368 . S
C1362 C1361 1.523 . S
C1363 C1347 1.429 . S
C1363 C1359 1.429 . S
C1363 C1364 1.523 . S
C1364 C1348 1.368 . S
C1364 C1360 1.368 . S
C1364 C1363 1.523 . S
H1365 C1340 0.950 . S
H1366 C1342 0.950 . S
H1367 C1343 0.949 . S
H1368 C1345 0.950 . S
H1369 C1347 0.950 . S
C1370 C1371 1.349 . S
C1370 C1372 1.327 . S
C1370 H1395 0.950 . S
C1371 C1370 1.349 . S
C1371 C1387 1.349 . S
C1372 C1370 1.327 . S
C1372 C1391 1.429 . S
C1372 H1396 0.950 . S
C1373 C1390 1.574 . S
C1373 C1392 1.368 . S
C1373 H1397 0.949 . S
H1374 C1378 0.949 . S
C1375 C1376 1.349 . S
C1375 C1377 1.327 . S
C1375 H1398 0.950 . S
C1376 C1375 1.349 . S
C1376 C1388 1.349 . S
C1377 C1375 1.327 . S
C1377 C1393 1.429 . S
C1377 H1399 0.950 . S
C1378 H1374 0.949 . S
C1378 C1386 1.574 . S
C1378 C1394 1.368 . S
H1379 C1387 0.950 . S
H1380 C1385 0.950 . S
H1381 C1386 0.949 . S
H1382 C1388 0.950 . S
H1383 C1389 0.950 . S
H1384 C1390 0.949 . S
C1385 H1380 0.950 . S
C1385 C1387 1.327 . S
C1385 C1391 1.429 . S
C1386 C1378 1.574 . S
C1386 H1381 0.949 . S
C1386 C1392 1.368 . S
C1387 C1371 1.349 . S
C1387 H1379 0.950 . S
C1387 C1385 1.327 . S
C1388 C1376 1.349 . S
C1388 H1382 0.950 . S
C1388 C1389 1.327 . S
C1389 H1383 0.950 . S
C1389 C1388 1.327 . S
C1389 C1393 1.429 . S
C1390 C1373 1.574 . S
C1390 H1384 0.949 . S
C1390 C1394 1.368 . S
C1391 C1372 1.429 . S
C1391 C1385 1.429 . S
C1391 C1392 1.523 . S
C1392 C1373 1.368 . S
C1392 C1386 1.368 . S
C1392 C1391 1.523 . S
C1393 C1377 1.429 . S
C1393 C1389 1.429 . S
C1393 C1394 1.523 . S
C1394 C1378 1.368 . S
C1394 C1390 1.368 . S
C1394 C1393 1.523 . S
H1395 C1370 0.950 . S
H1396 C1372 0.950 . S
H1397 C1373 0.949 . S
H1398 C1375 0.950 . S
H1399 C1377 0.950 . S
C1400 C1401 1.349 . S
C1400 C1402 1.327 . S
C1400 H1425 0.950 . S
C1401 C1400 1.349 . S
C1401 C1417 1.349 . S
C1402 C1400 1.327 . S
C1402 C1421 1.429 . S
C1402 H1426 0.950 . S
C1403 C1420 1.574 . S
C1403 C1422 1.368 . S
C1403 H1427 0.949 . S
H1404 C1408 0.949 . S
C1405 C1406 1.349 . S
C1405 C1407 1.327 . S
C1405 H1428 0.950 . S
C1406 C1405 1.349 . S
C1406 C1418 1.349 . S
C1407 C1405 1.327 . S
C1407 C1423 1.429 . S
C1407 H1429 0.950 . S
C1408 H1404 0.949 . S
C1408 C1416 1.574 . S
C1408 C1424 1.368 . S
H1409 C1417 0.950 . S
H1410 C1415 0.950 . S
H1411 C1416 0.949 . S
H1412 C1418 0.950 . S
H1413 C1419 0.950 . S
H1414 C1420 0.949 . S
C1415 H1410 0.950 . S
C1415 C1417 1.327 . S
C1415 C1421 1.429 . S
C1416 C1408 1.574 . S
C1416 H1411 0.949 . S
C1416 C1422 1.368 . S
C1417 C1401 1.349 . S
C1417 H1409 0.950 . S
C1417 C1415 1.327 . S
C1418 C1406 1.349 . S
C1418 H1412 0.950 . S
C1418 C1419 1.327 . S
C1419 H1413 0.950 . S
C1419 C1418 1.327 . S
C1419 C1423 1.429 . S
C1420 C1403 1.574 . S
C1420 H1414 0.949 . S
C1420 C1424 1.368 . S
C1421 C1402 1.429 . S
C1421 C1415 1.429 . S
C1421 C1422 1.523 . S
C1422 C1403 1.368 . S
C1422 C1416 1.368 . S
C1422 C1421 1.523 . S
C1423 C1407 1.429 . S
C1423 C1419 1.429 . S
C1423 C1424 1.523 . S
C1424 C1408 1.368 . S
C1424 C1420 1.368 . S
C1424 C1423 1.523 . S
H1425 C1400 0.950 . S
H1426 C1402 0.950 . S
H1427 C1403 0.949 . S
H1428 C1405 0.950 . S
H1429 C1407 0.950 . S
C1430 C1431 1.349 . S
C1430 C1432 1.327 . S
C1430 H1455 0.950 . S
C1431 C1430 1.349 . S
C1431 C1447 1.349 . S
C1432 C1430 1.327 . S
C1432 C1451 1.429 . S
C1432 H1456 0.950 . S
C1433 C1450 1.574 . S
C1433 C1452 1.368 . S
C1433 H1457 0.949 . S
H1434 C1438 0.949 . S
C1435 C1436 1.349 . S
C1435 C1437 1.327 . S
C1435 H1458 0.950 . S
C1436 C1435 1.349 . S
C1436 C1448 1.349 . S
C1437 C1435 1.327 . S
C1437 C1453 1.429 . S
C1437 H1459 0.950 . S
C1438 H1434 0.949 . S
C1438 C1446 1.574 . S
C1438 C1454 1.368 . S
H1439 C1447 0.950 . S
H1440 C1445 0.950 . S
H1441 C1446 0.949 . S
H1442 C1448 0.950 . S
H1443 C1449 0.950 . S
H1444 C1450 0.949 . S
C1445 H1440 0.950 . S
C1445 C1447 1.327 . S
C1445 C1451 1.429 . S
C1446 C1438 1.574 . S
C1446 H1441 0.949 . S
C1446 C1452 1.368 . S
C1447 C1431 1.349 . S
C1447 H1439 0.950 . S
C1447 C1445 1.327 . S
C1448 C1436 1.349 . S
C1448 H1442 0.950 . S
C1448 C1449 1.327 . S
C1449 H1443 0.950 . S
C1449 C1448 1.327 . S
C1449 C1453 1.429 . S
C1450 C1433 1.574 . S
C1450 H1444 0.949 . S
C1450 C1454 1.368 . S
C1451 C1432 1.429 . S
C1451 C1445 1.429 . S
C1451 C1452 1.523 . S
C1452 C1433 1.368 . S
C1452 C1446 1.368 . S
C1452 C1451 1.523 . S
C1453 C1437 1.429 . S
C1453 C1449 1.429 . S
C1453 C1454 1.523 . S
C1454 C1438 1.368 . S
C1454 C1450 1.368 . S
C1454 C1453 1.523 . S
H1455 C1430 0.950 . S
H1456 C1432 0.950 . S
H1457 C1433 0.949 . S
H1458 C1435 0.950 . S
H1459 C1437 0.950 . S
C1460 C1461 1.349 . S
C1460 C1462 1.327 . S
C1460 H1485 0.950 . S
C1461 C1460 1.349 . S
C1461 C1477 1.349 . S
C1462 C1460 1.327 . S
C1462 C1481 1.429 . S
C1462 H1486 0.950 . S
C1463 C1480 1.574 . S
C1463 C1482 1.368 . S
C1463 H1487 0.949 . S
H1464 C1468 0.949 . S
C1465 C1466 1.349 . S
C1465 C1467 1.327 . S
C1465 H1488 0.950 . S
C1466 C1465 1.349 . S
C1466 C1478 1.349 . S
C1467 C1465 1.327 . S
C1467 C1483 1.429 . S
C1467 H1489 0.950 . S
C1468 H1464 0.949 . S
C1468 C1476 1.574 . S
C1468 C1484 1.368 . S
H1469 C1477 0.950 . S
H1470 C1475 0.950 . S
H1471 C1476 0.949 . S
H1472 C1478 0.950 . S
H1473 C1479 0.950 . S
H1474 C1480 0.949 . S
C1475 H1470 0.950 . S
C1475 C1477 1.327 . S
C1475 C1481 1.429 . S
C1476 C1468 1.574 . S
C1476 H1471 0.949 . S
C1476 C1482 1.368 . S
C1477 C1461 1.349 . S
C1477 H1469 0.950 . S
C1477 C1475 1.327 . S
C1478 C1466 1.349 . S
C1478 H1472 0.950 . S
C1478 C1479 1.327 . S
C1479 H1473 0.950 . S
C1479 C1478 1.327 . S
C1479 C1483 1.429 . S
C1480 C1463 1.574 . S
C1480 H1474 0.949 . S
C1480 C1484 1.368 . S
C1481 C1462 1.429 . S
C1481 C1475 1.429 . S
C1481 C1482 1.523 . S
C1482 C1463 1.368 . S
C1482 C1476 1.368 . S
C1482 C1481 1.523 . S
C1483 C1467 1.429 . S
C1483 C1479 1.429 . S
C1483 C1484 1.523 . S
C1484 C1468 1.368 . S
C1484 C1480 1.368 . S
C1484 C1483 1.523 . S
H1485 C1460 0.950 . S
H1486 C1462 0.950 . S
H1487 C1463 0.949 . S
H1488 C1465 0.950 . S
H1489 C1467 0.950 . S
C1490 C1491 1.349 . S
C1490 C1492 1.327 . S
C1490 H1515 0.950 . S
C1491 C1490 1.349 . S
C1491 C1507 1.349 . S
C1492 C1490 1.327 . S
C1492 C1511 1.429 . S
C1492 H1516 0.950 . S
C1493 C1510 1.574 . S
C1493 C1512 1.368 . S
C1493 H1517 0.949 . S
H1494 C1498 0.949 . S
C1495 C1496 1.349 . S
C1495 C1497 1.327 . S
C1495 H1518 0.950 . S
C1496 C1495 1.349 . S
C1496 C1508 1.349 . S
C1497 C1495 1.327 . S
C1497 C1513 1.429 . S
C1497 H1519 0.950 . S
C1498 H1494 0.949 . S
C1498 C1506 1.574 . S
C1498 C1514 1.368 . S
H1499 C1507 0.950 . S
H1500 C1505 0.950 . S
H1501 C1506 0.949 . S
H1502 C1508 0.950 . S
H1503 C1509 0.950 . S
H1504 C1510 0.949 . S
C1505 H1500 0.950 . S
C1505 C1507 1.327 . S
C1505 C1511 1.429 . S
C1506 C1498 1.574 . S
C1506 H1501 0.949 . S
C1506 C1512 1.368 . S
C1507 C1491 1.349 . S
C1507 H1499 0.950 . S
C1507 C1505 1.327 . S
C1508 C1496 1.349 . S
C1508 H1502 0.950 . S
C1508 C1509 1.327 . S
C1509 H1503 0.950 . S
C1509 C1508 1.327 . S
C1509 C1513 1.429 . S
C1510 C1493 1.574 . S
C1510 H1504 0.949 . S
C1510 C1514 1.368 . S
C1511 C1492 1.429 . S
C1511 C1505 1.429 . S
C1511 C1512 1.523 . S
C1512 C1493 1.368 . S
C1512 C1506 1.368 . S
C1512 C1511 1.523 . S
C1513 C1497 1.429 . S
C1513 C1509 1.429 . S
C1513 C1514 1.523 . S
C1514 C1498 1.368 . S
C1514 C1510 1.368 . S
C1514 C1513 1.523 . S
H1515 C1490 0.950 . S
H1516 C1492 0.950 . S
H1517 C1493 0.949 . S
H1518 C1495 0.950 . S
H1519 C1497 0.950 . S
C1520 C1521 1.349 . S
C1520 C1522 1.327 . S
C1520 H1545 0.950 . S
C1521 C1520 1.349 . S
C1521 C1537 1.349 . S
C1522 C1520 1.327 . S
C1522 C1541 1.429 1_556 S
C1522 H1546 0.950 . S
C1523 C1540 1.574 . S
C1523 C1542 1.368 . S
C1523 H1547 0.949 . S
H1524 C1528 0.949 . S
C1525 C1526 1.349 . S
C1525 C1527 1.327 . S
C1525 H1548 0.950 . S
C1526 C1525 1.349 . S
C1526 C1538 1.349 . S
C1527 C1525 1.327 . S
C1527 C1543 1.429 . S
C1527 H1549 0.950 . S
C1528 H1524 0.949 . S
C1528 C1536 1.574 . S
C1528 C1544 1.368 . S
H1529 C1537 0.950 . S
H1530 C1535 0.950 . S
H1531 C1536 0.949 . S
H1532 C1538 0.950 . S
H1533 C1539 0.950 . S
H1534 C1540 0.949 . S
C1535 H1530 0.950 . S
C1535 C1537 1.327 . S
C1535 C1541 1.429 1_556 S
C1536 C1528 1.574 . S
C1536 H1531 0.949 . S
C1536 C1542 1.368 . S
C1537 C1521 1.349 . S
C1537 H1529 0.950 . S
C1537 C1535 1.327 . S
C1538 C1526 1.349 . S
C1538 H1532 0.950 . S
C1538 C1539 1.327 . S
C1539 H1533 0.950 . S
C1539 C1538 1.327 . S
C1539 C1543 1.429 . S
C1540 C1523 1.574 . S
C1540 H1534 0.949 . S
C1540 C1544 1.368 . S
C1541 C1522 1.429 1_554 S
C1541 C1535 1.429 1_554 S
C1541 C1542 1.523 . S
C1542 C1523 1.368 . S
C1542 C1536 1.368 . S
C1542 C1541 1.523 . S
C1543 C1527 1.429 . S
C1543 C1539 1.429 . S
C1543 C1544 1.523 . S
C1544 C1528 1.368 . S
C1544 C1540 1.368 . S
C1544 C1543 1.523 . S
H1545 C1520 0.950 . S
H1546 C1522 0.950 . S
H1547 C1523 0.949 . S
H1548 C1525 0.950 . S
H1549 C1527 0.950 . S
C1550 C1551 1.349 . S
C1550 C1552 1.327 . S
C1550 H1575 0.950 . S
C1551 C1550 1.349 . S
C1551 C1567 1.349 . S
C1552 C1550 1.327 . S
C1552 C1571 1.429 . S
C1552 H1576 0.950 . S
C1553 C1570 1.574 . S
C1553 C1572 1.368 . S
C1553 H1577 0.949 . S
H1554 C1558 0.949 . S
C1555 C1556 1.349 . S
C1555 C1557 1.327 . S
C1555 H1578 0.950 . S
C1556 C1555 1.349 . S
C1556 C1568 1.349 . S
C1557 C1555 1.327 . S
C1557 C1573 1.429 1_554 S
C1557 H1579 0.950 . S
C1558 H1554 0.949 . S
C1558 C1566 1.574 . S
C1558 C1574 1.368 . S
H1559 C1567 0.950 . S
H1560 C1565 0.950 . S
H1561 C1566 0.949 . S
H1562 C1568 0.950 . S
H1563 C1569 0.950 . S
H1564 C1570 0.949 . S
C1565 H1560 0.950 . S
C1565 C1567 1.327 . S
C1565 C1571 1.429 . S
C1566 C1558 1.574 . S
C1566 H1561 0.949 . S
C1566 C1572 1.368 . S
C1567 C1551 1.349 . S
C1567 H1559 0.950 . S
C1567 C1565 1.327 . S
C1568 C1556 1.349 . S
C1568 H1562 0.950 . S
C1568 C1569 1.327 . S
C1569 H1563 0.950 . S
C1569 C1568 1.327 . S
C1569 C1573 1.429 1_554 S
C1570 C1553 1.574 . S
C1570 H1564 0.949 . S
C1570 C1574 1.368 . S
C1571 C1552 1.429 . S
C1571 C1565 1.429 . S
C1571 C1572 1.523 . S
C1572 C1553 1.368 . S
C1572 C1566 1.368 . S
C1572 C1571 1.523 . S
C1573 C1557 1.429 1_556 S
C1573 C1569 1.429 1_556 S
C1573 C1574 1.523 . S
C1574 C1558 1.368 . S
C1574 C1570 1.368 . S
C1574 C1573 1.523 . S
H1575 C1550 0.950 . S
H1576 C1552 0.950 . S
H1577 C1553 0.949 . S
H1578 C1555 0.950 . S
H1579 C1557 0.950 . S
C1580 C1581 1.349 . S
C1580 C1582 1.327 . S
C1580 H1605 0.950 . S
C1581 C1580 1.349 . S
C1581 C1597 1.349 . S
C1582 C1580 1.327 . S
C1582 C1601 1.429 . S
C1582 H1606 0.950 . S
C1583 C1600 1.574 . S
C1583 C1602 1.368 . S
C1583 H1607 0.949 . S
H1584 C1588 0.949 . S
C1585 C1586 1.349 . S
C1585 C1587 1.327 . S
C1585 H1608 0.950 . S
C1586 C1585 1.349 . S
C1586 C1598 1.349 . S
C1587 C1585 1.327 . S
C1587 C1603 1.429 1_556 S
C1587 H1609 0.950 . S
C1588 H1584 0.949 . S
C1588 C1596 1.574 . S
C1588 C1604 1.368 . S
H1589 C1597 0.950 . S
H1590 C1595 0.950 . S
H1591 C1596 0.949 . S
H1592 C1598 0.950 . S
H1593 C1599 0.950 . S
H1594 C1600 0.949 . S
C1595 H1590 0.950 . S
C1595 C1597 1.327 . S
C1595 C1601 1.429 . S
C1596 C1588 1.574 . S
C1596 H1591 0.949 . S
C1596 C1602 1.368 . S
C1597 C1581 1.349 . S
C1597 H1589 0.950 . S
C1597 C1595 1.327 . S
C1598 C1586 1.349 . S
C1598 H1592 0.950 . S
C1598 C1599 1.327 . S
C1599 H1593 0.950 . S
C1599 C1598 1.327 . S
C1599 C1603 1.429 1_556 S
C1600 C1583 1.574 . S
C1600 H1594 0.949 . S
C1600 C1604 1.368 . S
C1601 C1582 1.429 . S
C1601 C1595 1.429 . S
C1601 C1602 1.523 . S
C1602 C1583 1.368 . S
C1602 C1596 1.368 . S
C1602 C1601 1.523 . S
C1603 C1587 1.429 1_554 S
C1603 C1599 1.429 1_554 S
C1603 C1604 1.523 . S
C1604 C1588 1.368 . S
C1604 C1600 1.368 . S
C1604 C1603 1.523 . S
H1605 C1580 0.950 . S
H1606 C1582 0.950 . S
H1607 C1583 0.949 . S
H1608 C1585 0.950 . S
H1609 C1587 0.950 . S
C1610 C1611 1.349 . S
C1610 C1612 1.327 . S
C1610 H1635 0.950 . S
C1611 C1610 1.349 . S
C1611 C1627 1.349 . S
C1612 C1610 1.327 . S
C1612 C1631 1.429 1_554 S
C1612 H1636 0.950 . S
C1613 C1630 1.574 . S
C1613 C1632 1.368 . S
C1613 H1637 0.949 . S
H1614 C1618 0.949 . S
C1615 C1616 1.349 . S
C1615 C1617 1.327 . S
C1615 H1638 0.950 . S
C1616 C1615 1.349 . S
C1616 C1628 1.349 . S
C1617 C1615 1.327 . S
C1617 C1633 1.429 . S
C1617 H1639 0.950 . S
C1618 H1614 0.949 . S
C1618 C1626 1.574 . S
C1618 C1634 1.368 . S
H1619 C1627 0.950 . S
H1620 C1625 0.950 . S
H1621 C1626 0.949 . S
H1622 C1628 0.950 . S
H1623 C1629 0.950 . S
H1624 C1630 0.949 . S
C1625 H1620 0.950 . S
C1625 C1627 1.327 . S
C1625 C1631 1.429 1_554 S
C1626 C1618 1.574 . S
C1626 H1621 0.949 . S
C1626 C1632 1.368 . S
C1627 C1611 1.349 . S
C1627 H1619 0.950 . S
C1627 C1625 1.327 . S
C1628 C1616 1.349 . S
C1628 H1622 0.950 . S
C1628 C1629 1.327 . S
C1629 H1623 0.950 . S
C1629 C1628 1.327 . S
C1629 C1633 1.429 . S
C1630 C1613 1.574 . S
C1630 H1624 0.949 . S
C1630 C1634 1.368 . S
C1631 C1612 1.429 1_556 S
C1631 C1625 1.429 1_556 S
C1631 C1632 1.523 . S
C1632 C1613 1.368 . S
C1632 C1626 1.368 . S
C1632 C1631 1.523 . S
C1633 C1617 1.429 . S
C1633 C1629 1.429 . S
C1633 C1634 1.523 . S
C1634 C1618 1.368 . S
C1634 C1630 1.368 . S
C1634 C1633 1.523 . S
H1635 C1610 0.950 . S
H1636 C1612 0.950 . S
H1637 C1613 0.949 . S
H1638 C1615 0.950 . S
H1639 C1617 0.950 . S
C1640 C1641 1.349 . S
C1640 C1642 1.327 . S
C1640 H1665 0.950 . S
C1641 C1640 1.349 . S
C1641 C1657 1.349 . S
C1642 C1640 1.327 . S
C1642 C1661 1.429 . S
C1642 H1666 0.950 . S
C1643 C1660 1.574 . S
C1643 C1662 1.368 . S
C1643 H1667 0.949 . S
H1644 C1648 0.949 . S
C1645 C1646 1.349 . S
C1645 C1647 1.327 . S
C1645 H1668 0.950 . S
C1646 C1645 1.349 . S
C1646 C1658 1.349 . S
C1647 C1645 1.327 . S
C1647 C1663 1.429 . S
C1647 H1669 0.950 . S
C1648 H1644 0.949 . S
C1648 C1656 1.574 . S
C1648 C1664 1.368 . S
H1649 C1657 0.950 . S
H1650 C1655 0.950 . S
H1651 C1656 0.949 . S
H1652 C1658 0.950 . S
H1653 C1659 0.950 . S
H1654 C1660 0.949 . S
C1655 H1650 0.950 . S
C1655 C1657 1.327 . S
C1655 C1661 1.429 . S
C1656 C1648 1.574 . S
C1656 H1651 0.949 . S
C1656 C1662 1.368 . S
C1657 C1641 1.349 . S
C1657 H1649 0.950 . S
C1657 C1655 1.327 . S
C1658 C1646 1.349 . S
C1658 H1652 0.950 . S
C1658 C1659 1.327 . S
C1659 H1653 0.950 . S
C1659 C1658 1.327 . S
C1659 C1663 1.429 . S
C1660 C1643 1.574 . S
C1660 H1654 0.949 . S
C1660 C1664 1.368 . S
C1661 C1642 1.429 . S
C1661 C1655 1.429 . S
C1661 C1662 1.523 . S
C1662 C1643 1.368 . S
C1662 C1656 1.368 . S
C1662 C1661 1.523 . S
C1663 C1647 1.429 . S
C1663 C1659 1.429 . S
C1663 C1664 1.523 1_556 S
C1664 C1648 1.368 . S
C1664 C1660 1.368 . S
C1664 C1663 1.523 1_554 S
H1665 C1640 0.950 . S
H1666 C1642 0.950 . S
H1667 C1643 0.949 . S
H1668 C1645 0.950 . S
H1669 C1647 0.950 . S
C1670 C1671 1.349 . S
C1670 C1672 1.327 . S
C1670 H1695 0.950 . S
C1671 C1670 1.349 . S
C1671 C1687 1.349 . S
C1672 C1670 1.327 . S
C1672 C1691 1.429 . S
C1672 H1696 0.950 . S
C1673 C1690 1.574 . S
C1673 C1692 1.368 . S
C1673 H1697 0.949 . S
H1674 C1678 0.949 . S
C1675 C1676 1.349 . S
C1675 C1677 1.327 . S
C1675 H1698 0.950 . S
C1676 C1675 1.349 . S
C1676 C1688 1.349 . S
C1677 C1675 1.327 . S
C1677 C1693 1.429 . S
C1677 H1699 0.950 . S
C1678 H1674 0.949 . S
C1678 C1686 1.574 . S
C1678 C1694 1.368 . S
H1679 C1687 0.950 . S
H1680 C1685 0.950 . S
H1681 C1686 0.949 . S
H1682 C1688 0.950 . S
H1683 C1689 0.950 . S
H1684 C1690 0.949 . S
C1685 H1680 0.950 . S
C1685 C1687 1.327 . S
C1685 C1691 1.429 . S
C1686 C1678 1.574 . S
C1686 H1681 0.949 . S
C1686 C1692 1.368 . S
C1687 C1671 1.349 . S
C1687 H1679 0.950 . S
C1687 C1685 1.327 . S
C1688 C1676 1.349 . S
C1688 H1682 0.950 . S
C1688 C1689 1.327 . S
C1689 H1683 0.950 . S
C1689 C1688 1.327 . S
C1689 C1693 1.429 . S
C1690 C1673 1.574 . S
C1690 H1684 0.949 . S
C1690 C1694 1.368 . S
C1691 C1672 1.429 . S
C1691 C1685 1.429 . S
C1691 C1692 1.523 1_554 S
C1692 C1673 1.368 . S
C1692 C1686 1.368 . S
C1692 C1691 1.523 1_556 S
C1693 C1677 1.429 . S
C1693 C1689 1.429 . S
C1693 C1694 1.523 . S
C1694 C1678 1.368 . S
C1694 C1690 1.368 . S
C1694 C1693 1.523 . S
H1695 C1670 0.950 . S
H1696 C1672 0.950 . S
H1697 C1673 0.949 . S
H1698 C1675 0.950 . S
H1699 C1677 0.950 . S
C1700 C1701 1.349 . S
C1700 C1702 1.327 . S
C1700 H1725 0.950 . S
C1701 C1700 1.349 . S
C1701 C1717 1.349 . S
C1702 C1700 1.327 . S
C1702 C1721 1.429 . S
C1702 H1726 0.950 . S
C1703 C1720 1.574 . S
C1703 C1722 1.368 . S
C1703 H1727 0.949 . S
H1704 C1708 0.949 . S
C1705 C1706 1.349 . S
C1705 C1707 1.327 . S
C1705 H1728 0.950 . S
C1706 C1705 1.349 . S
C1706 C1718 1.349 . S
C1707 C1705 1.327 . S
C1707 C1723 1.429 . S
C1707 H1729 0.950 . S
C1708 H1704 0.949 . S
C1708 C1716 1.574 . S
C1708 C1724 1.368 . S
H1709 C1717 0.950 . S
H1710 C1715 0.950 . S
H1711 C1716 0.949 . S
H1712 C1718 0.950 . S
H1713 C1719 0.950 . S
H1714 C1720 0.949 . S
C1715 H1710 0.950 . S
C1715 C1717 1.327 . S
C1715 C1721 1.429 . S
C1716 C1708 1.574 . S
C1716 H1711 0.949 . S
C1716 C1722 1.368 . S
C1717 C1701 1.349 . S
C1717 H1709 0.950 . S
C1717 C1715 1.327 . S
C1718 C1706 1.349 . S
C1718 H1712 0.950 . S
C1718 C1719 1.327 . S
C1719 H1713 0.950 . S
C1719 C1718 1.327 . S
C1719 C1723 1.429 . S
C1720 C1703 1.574 . S
C1720 H1714 0.949 . S
C1720 C1724 1.368 . S
C1721 C1702 1.429 . S
C1721 C1715 1.429 . S
C1721 C1722 1.523 1_556 S
C1722 C1703 1.368 . S
C1722 C1716 1.368 . S
C1722 C1721 1.523 1_554 S
C1723 C1707 1.429 . S
C1723 C1719 1.429 . S
C1723 C1724 1.523 . S
C1724 C1708 1.368 . S
C1724 C1720 1.368 . S
C1724 C1723 1.523 . S
H1725 C1700 0.950 . S
H1726 C1702 0.950 . S
H1727 C1703 0.949 . S
H1728 C1705 0.950 . S
H1729 C1707 0.950 . S
C1730 C1731 1.349 . S
C1730 C1732 1.327 . S
C1730 H1755 0.950 . S
C1731 C1730 1.349 . S
C1731 C1747 1.349 . S
C1732 C1730 1.327 . S
C1732 C1751 1.429 . S
C1732 H1756 0.950 . S
C1733 C1750 1.574 . S
C1733 C1752 1.368 . S
C1733 H1757 0.949 . S
H1734 C1738 0.949 . S
C1735 C1736 1.349 . S
C1735 C1737 1.327 . S
C1735 H1758 0.950 . S
C1736 C1735 1.349 . S
C1736 C1748 1.349 . S
C1737 C1735 1.327 . S
C1737 C1753 1.429 . S
C1737 H1759 0.950 . S
C1738 H1734 0.949 . S
C1738 C1746 1.574 . S
C1738 C1754 1.368 . S
H1739 C1747 0.950 . S
H1740 C1745 0.950 . S
H1741 C1746 0.949 . S
H1742 C1748 0.950 . S
H1743 C1749 0.950 . S
H1744 C1750 0.949 . S
C1745 H1740 0.950 . S
C1745 C1747 1.327 . S
C1745 C1751 1.429 . S
C1746 C1738 1.574 . S
C1746 H1741 0.949 . S
C1746 C1752 1.368 . S
C1747 C1731 1.349 . S
C1747 H1739 0.950 . S
C1747 C1745 1.327 . S
C1748 C1736 1.349 . S
C1748 H1742 0.950 . S
C1748 C1749 1.327 . S
C1749 H1743 0.950 . S
C1749 C1748 1.327 . S
C1749 C1753 1.429 . S
C1750 C1733 1.574 . S
C1750 H1744 0.949 . S
C1750 C1754 1.368 . S
C1751 C1732 1.429 . S
C1751 C1745 1.429 . S
C1751 C1752 1.523 . S
C1752 C1733 1.368 . S
C1752 C1746 1.368 . S
C1752 C1751 1.523 . S
C1753 C1737 1.429 . S
C1753 C1749 1.429 . S
C1753 C1754 1.523 1_554 S
C1754 C1738 1.368 . S
C1754 C1750 1.368 . S
C1754 C1753 1.523 1_556 S
H1755 C1730 0.950 . S
H1756 C1732 0.950 . S
H1757 C1733 0.949 . S
H1758 C1735 0.950 . S
H1759 C1737 0.950 . S
C321 C239 1.606 . S
C326 C9 1.607 . S
C351 C178 1.606 . S
C356 C28 1.607 . S
C381 C49 1.607 . S
C386 C199 1.606 . S
C411 C68 1.607 . S
C416 C218 1.606 . S
C441 C89 1.607 . S
C446 C119 1.606 . S
C471 C138 1.606 . S
C476 C108 1.607 . S
C501 C129 1.607 . S
C506 C159 1.606 . S
C531 C98 1.606 . S
C536 C148 1.607 . S
C561 C79 1.606 . S
C566 C169 1.607 . S
C591 C188 1.607 . S
C596 C18 1.606 . S
C621 C39 1.606 . S
C626 C209 1.607 . S
C651 C58 1.606 . S
C656 C228 1.607 . S
C681 C249 1.607 . S
C686 C279 1.606 . S
C711 C298 1.606 . S
C716 C268 1.607 . S
C741 C319 1.606 . S
C746 C289 1.607 . S
C771 C308 1.607 . S
C776 C258 1.606 . S
C801 C8 1.271 . S
C806 C88 1.271 . S
C831 C109 1.271 . S
C836 C29 1.271 . S
C861 C48 1.271 . S
C866 C128 1.271 . S
C891 C69 1.271 . S
C896 C149 1.271 . S
C921 C168 1.271 . S
C926 C248 1.271 . S
C951 C269 1.271 . S
C956 C189 1.271 . S
C981 C208 1.271 . S
C986 C288 1.271 . S
C1011 C229 1.271 . S
C1016 C309 1.271 . S
C1041 C299 1.869 . S
C1046 C19 1.869 . S
C1071 C38 1.869 . S
C1076 C318 1.869 . S
C1101 C59 1.869 . S
C1106 C259 1.869 . S
C1131 C78 1.869 . S
C1136 C278 1.869 . S
C1161 C99 1.869 . S
C1166 C219 1.869 . S
C1191 C118 1.869 . S
C1196 C238 1.869 . S
C1221 C139 1.869 . S
C1226 C179 1.869 . S
C1251 C198 1.869 . S
C1256 C158 1.869 . S
C1281 C2 1.313 . S
C1286 C1 1.313 . S
C1311 C21 1.313 . S
C1316 C22 1.313 . S
C1341 C42 1.313 . S
C1346 C41 1.313 . S
C1371 C62 1.313 . S
C1376 C61 1.313 . S
C1401 C81 1.313 . S
C1406 C82 1.313 . S
C1431 C101 1.313 . S
C1436 C102 1.313 . S
C1461 C122 1.313 . S
C1466 C121 1.313 . S
C1491 C142 1.313 . S
C1496 C141 1.313 . S
C1521 C162 1.313 . S
C1526 C161 1.313 . S
C1551 C182 1.313 . S
C1556 C181 1.313 . S
C1581 C201 1.313 . S
C1586 C202 1.313 . S
C1611 C221 1.313 . S
C1616 C222 1.313 . S
C1641 C242 1.313 . S
C1646 C241 1.313 . S
C1671 C262 1.313 . S
C1676 C261 1.313 . S
C1701 C281 1.313 . S
C1706 C282 1.313 . S
C1731 C301 1.313 . S
C1736 C302 1.313 . S
