# Generated by pormake.
# Topology qtz-a, (4)-cn, num edge types: 1
# Building blocks:
#     Node 0, Type 0, BuildingBlock: KUFVIS_clean_sbu_0, # of connection points: 4
#     Node 1, Type 0, BuildingBlock: KUFVIS_clean_sbu_0, # of connection points: 4
#     Node 2, Type 0, BuildingBlock: KUFVIS_clean_sbu_0, # of connection points: 4
#     Node 3, Type 0, BuildingBlock: KUFVIS_clean_sbu_0, # of connection points: 4
#     Node 4, Type 0, BuildingBlock: KUFVIS_clean_sbu_0, # of connection points: 4
#     Node 5, Type 0, BuildingBlock: KUFVIS_clean_sbu_0, # of connection points: 4
#     Node 6, Type 0, BuildingBlock: KUFVIS_clean_sbu_0, # of connection points: 4
#     Node 7, Type 0, BuildingBlock: KUFVIS_clean_sbu_0, # of connection points: 4
#     Node 8, Type 0, BuildingBlock: KUFVIS_clean_sbu_0, # of connection points: 4
#     Node 9, Type 0, BuildingBlock: KUFVIS_clean_sbu_0, # of connection points: 4
#     Node 10, Type 0, BuildingBlock: KUFVIS_clean_sbu_0, # of connection points: 4
#     Node 11, Type 0, BuildingBlock: KUFVIS_clean_sbu_0, # of connection points: 4
#     Edge 12, Type (0, 0), BuildingBlock: XUDNAN_clean_linker_2, # of connection points: 2
#     Edge 13, Type (0, 0), BuildingBlock: XUDNAN_clean_linker_2, # of connection points: 2
#     Edge 14, Type (0, 0), BuildingBlock: XUDNAN_clean_linker_2, # of connection points: 2
#     Edge 15, Type (0, 0), BuildingBlock: XUDNAN_clean_linker_2, # of connection points: 2
#     Edge 16, Type (0, 0), BuildingBlock: XUDNAN_clean_linker_2, # of connection points: 2
#     Edge 17, Type (0, 0), BuildingBlock: XUDNAN_clean_linker_2, # of connection points: 2
#     Edge 18, Type (0, 0), BuildingBlock: XUDNAN_clean_linker_2, # of connection points: 2
#     Edge 19, Type (0, 0), BuildingBlock: XUDNAN_clean_linker_2, # of connection points: 2
#     Edge 20, Type (0, 0), BuildingBlock: XUDNAN_clean_linker_2, # of connection points: 2
#     Edge 21, Type (0, 0), BuildingBlock: XUDNAN_clean_linker_2, # of connection points: 2
#     Edge 22, Type (0, 0), BuildingBlock: XUDNAN_clean_linker_2, # of connection points: 2
#     Edge 23, Type (0, 0), BuildingBlock: XUDNAN_clean_linker_2, # of connection points: 2
#     Edge 24, Type (0, 0), BuildingBlock: XUDNAN_clean_linker_2, # of connection points: 2
#     Edge 25, Type (0, 0), BuildingBlock: XUDNAN_clean_linker_2, # of connection points: 2
#     Edge 26, Type (0, 0), BuildingBlock: XUDNAN_clean_linker_2, # of connection points: 2
#     Edge 27, Type (0, 0), BuildingBlock: XUDNAN_clean_linker_2, # of connection points: 2
#     Edge 28, Type (0, 0), BuildingBlock: XUDNAN_clean_linker_2, # of connection points: 2
#     Edge 29, Type (0, 0), BuildingBlock: XUDNAN_clean_linker_2, # of connection points: 2
#     Edge 30, Type (0, 0), BuildingBlock: XUDNAN_clean_linker_2, # of connection points: 2
#     Edge 31, Type (0, 0), BuildingBlock: XUDNAN_clean_linker_2, # of connection points: 2
#     Edge 32, Type (0, 0), BuildingBlock: XUDNAN_clean_linker_2, # of connection points: 2
#     Edge 33, Type (0, 0), BuildingBlock: XUDNAN_clean_linker_2, # of connection points: 2
#     Edge 34, Type (0, 0), BuildingBlock: XUDNAN_clean_linker_2, # of connection points: 2
#     Edge 35, Type (0, 0), BuildingBlock: XUDNAN_clean_linker_2, # of connection points: 2
# Relax obj value: 0.787
# Max RMSD: 0.770
# Mean RMSD: 0.767
data_MOF--net-qtz-a--node1-KUFVIS_clean_sbu_0--edge1-XUDNAN_clean_linker_2
_symmetry_space_group_name_H-M    P1
_symmetry_Int_Tables_number       1
_symmetry_cell_setting            triclinic
loop_
_symmetry_equiv_pos_as_xyz
'x, y, z'
_cell_length_a     34.238426
_cell_length_b     33.07118
_cell_length_c     56.395759
_cell_angle_alpha  89.928374
_cell_angle_beta   89.872268
_cell_angle_gamma 121.2049
loop_
_atom_site_label
_atom_site_type_symbol
_atom_site_fract_x
_atom_site_fract_y
_atom_site_fract_z
_atom_type_partial_charge
Mn0 Mn 0.659 0.18509 0.1044 0.0
Mn1 Mn 0.63548 0.07613 0.10571 0.0
C2 C 0.58503 0.12962 0.11043 0.0
C3 C 0.6875 0.25693 0.12328 0.0
C4 C 0.62761 0.11448 0.06124 0.0
O5 O 0.71886 0.18891 0.10919 0.0
O6 O 0.69802 0.12185 0.09197 0.0
C7 C 0.70103 0.10042 0.14546 0.0
N8 N 0.65765 0.07527 0.13684 0.0
C9 C 0.62945 0.03483 0.1742 0.0
C10 C 0.67358 0.06129 0.18358 0.0
C11 C 0.70954 0.09411 0.16911 0.0
C12 C 0.62286 0.04339 0.15063 0.0
H13 H 0.72921 0.12472 0.13442 0.0
C14 C 0.728 0.16531 0.0953 0.0
O15 O 0.69171 0.2557 0.10038 0.0
O16 O 0.66791 0.21734 0.13471 0.0
N17 N 0.57768 0.02736 0.11714 0.0
C18 C 0.53932 -0.00042 0.10426 0.0
C19 C 0.50116 0.96204 0.11545 0.0
C20 C 0.50325 0.95303 0.1396 0.0
C21 C 0.54366 0.9808 0.15223 0.0
C22 C 0.58068 0.01763 0.14009 0.0
H23 H 0.538 0.00614 0.08559 0.0
O24 O 0.59689 0.17204 0.10374 0.0
O25 O 0.61845 0.12222 0.11564 0.0
O26 O 0.65064 0.15778 0.06902 0.0
O27 O 0.61251 0.07843 0.07488 0.0
C28 C 0.54912 0.97221 0.1761 0.0
C29 C 0.59198 -0.00056 0.18714 0.0
H30 H 0.68039 0.05606 0.20172 0.0
H31 H 0.74388 0.11412 0.17608 0.0
H32 H 0.47028 0.94023 0.1055 0.0
H33 H 0.47371 0.92469 0.14835 0.0
H34 H 0.52087 0.94409 0.18596 0.0
H35 H 0.59604 0.99208 0.20539 0.0
Mn36 Mn 0.31524 0.48476 0.43227 0.0
Mn37 Mn 0.39404 0.56344 0.47143 0.0
C38 C 0.34742 0.56745 0.42576 0.0
C39 C 0.38699 0.4999 0.41131 0.0
C40 C 0.29332 0.51811 0.47925 0.0
O41 O 0.32525 0.44346 0.45393 0.0
O42 O 0.38371 0.49753 0.47618 0.0
C43 C 0.4771 0.56438 0.45551 0.0
N44 N 0.45454 0.58771 0.4593 0.0
C45 C 0.52108 0.66207 0.44847 0.0
C46 C 0.54445 0.63854 0.44367 0.0
C47 C 0.52246 0.58955 0.4474 0.0
C48 C 0.47597 0.63515 0.45665 0.0
H49 H 0.46053 0.52682 0.45867 0.0
C50 C 0.35571 0.45454 0.46964 0.0
O51 O 0.34701 0.47258 0.40383 0.0
O52 O 0.38728 0.52078 0.43024 0.0
N53 N 0.40733 0.62711 0.46886 0.0
C54 C 0.37963 0.64438 0.47363 0.0
C55 C 0.39647 0.69286 0.47071 0.0
C56 C 0.44162 0.72312 0.46304 0.0
C57 C 0.46957 0.70461 0.45838 0.0
C58 C 0.45097 0.656 0.4617 0.0
H59 H 0.34481 0.62135 0.47941 0.0
O60 O 0.31265 0.53511 0.41452 0.0
O61 O 0.36757 0.55069 0.43877 0.0
O62 O 0.28153 0.49558 0.45972 0.0
O63 O 0.33465 0.54266 0.48594 0.0
C64 C 0.51489 0.73235 0.45017 0.0
C65 C 0.54066 0.71112 0.44529 0.0
H66 H 0.57938 0.65777 0.4373 0.0
H67 H 0.54057 0.57136 0.44416 0.0
H68 H 0.37464 0.70684 0.47431 0.0
H69 H 0.4544 0.76045 0.46067 0.0
H70 H 0.53014 0.77 0.44738 0.0
H71 H 0.5754 0.73279 0.43887 0.0
Mn72 Mn 0.78746 0.34341 0.70059 0.0
Mn73 Mn 0.70219 0.23104 0.70355 0.0
C74 C 0.77738 0.29249 0.67057 0.0
C75 C 0.82068 0.42395 0.69194 0.0
C76 C 0.78898 0.26227 0.72774 0.0
O77 O 0.74563 0.34586 0.72498 0.0
O78 O 0.70484 0.26822 0.73224 0.0
C79 C 0.63095 0.25564 0.69742 0.0
N80 N 0.65155 0.23204 0.68992 0.0
C81 C 0.60041 0.19943 0.65672 0.0
C82 C 0.57875 0.22348 0.66408 0.0
C83 C 0.59411 0.25171 0.68451 0.0
C84 C 0.63708 0.20486 0.67024 0.0
H85 H 0.64246 0.27727 0.71312 0.0
C86 C 0.72068 0.31114 0.73858 0.0
O87 O 0.83619 0.40909 0.70864 0.0
O88 O 0.78535 0.39203 0.68034 0.0
N89 N 0.69547 0.19036 0.67782 0.0
C90 C 0.71888 0.16801 0.67368 0.0
C91 C 0.70775 0.13837 0.65387 0.0
C92 C 0.67197 0.13113 0.63888 0.0
C93 C 0.64726 0.15313 0.64403 0.0
C94 C 0.6601 0.1825 0.66394 0.0
H95 H 0.74634 0.17346 0.68522 0.0
O96 O 0.81734 0.32957 0.67447 0.0
O97 O 0.74399 0.28656 0.68423 0.0
O98 O 0.8031 0.306 0.72418 0.0
O99 O 0.75383 0.22882 0.71738 0.0
C100 C 0.61034 0.14698 0.63023 0.0
C101 C 0.587 0.17022 0.63653 0.0
H102 H 0.55027 0.22048 0.6542 0.0
H103 H 0.57754 0.27035 0.69032 0.0
H104 H 0.7267 0.12117 0.65015 0.0
H105 H 0.66351 0.1083 0.6236 0.0
H106 H 0.5997 0.1246 0.61468 0.0
H107 H 0.55877 0.16536 0.62572 0.0
Mn108 Mn 0.3731 0.847 0.07795 0.0
Mn109 Mn 0.27819 0.82555 0.04981 0.0
C110 C 0.34098 0.88944 0.08943 0.0
C111 C 0.40679 0.82646 0.10751 0.0
C112 C 0.36988 0.89752 0.03164 0.0
O113 O 0.35575 0.78792 0.0598 0.0
O114 O 0.3038 0.78801 0.03631 0.0
C115 C 0.22786 0.73054 0.07199 0.0
N116 N 0.23353 0.7741 0.06873 0.0
C117 C 0.17373 0.75689 0.09679 0.0
C118 C 0.16744 0.71195 0.10049 0.0
C119 C 0.19461 0.69873 0.08801 0.0
C120 C 0.20794 0.78738 0.08089 0.0
H121 H 0.2486 0.7201 0.06249 0.0
C122 C 0.33171 0.77449 0.04127 0.0
O123 O 0.42996 0.8493 0.08876 0.0
O124 O 0.36425 0.81397 0.10842 0.0
N125 N 0.24781 0.85772 0.05967 0.0
C126 C 0.24832 0.89478 0.04877 0.0
C127 C 0.22131 0.91182 0.05781 0.0
C128 C 0.1911 0.88801 0.07669 0.0
C129 C 0.18662 0.8461 0.08543 0.0
C130 C 0.21527 0.83159 0.07596 0.0
H131 H 0.26971 0.91143 0.0334 0.0
O132 O 0.382 0.90161 0.09552 0.0
O133 O 0.31785 0.84928 0.07784 0.0
O134 O 0.39179 0.88643 0.0464 0.0
O135 O 0.32629 0.87941 0.03167 0.0
C136 C 0.15294 0.81668 0.10205 0.0
C137 C 0.14672 0.77221 0.10786 0.0
H138 H 0.14152 0.68715 0.11267 0.0
H139 H 0.18987 0.66405 0.09071 0.0
H140 H 0.22304 0.94256 0.04993 0.0
H141 H 0.16968 0.90069 0.08337 0.0
H142 H 0.13068 0.82725 0.10989 0.0
H143 H 0.12011 0.74947 0.1203 0.0
Mn144 Mn 0.49629 0.29104 0.40602 0.0
Mn145 Mn 0.52275 0.22664 0.44084 0.0
C146 C 0.56326 0.29382 0.39971 0.0
C147 C 0.45975 0.30183 0.37355 0.0
C148 C 0.55132 0.32447 0.45348 0.0
O149 O 0.43708 0.24721 0.42283 0.0
O150 O 0.46701 0.22606 0.45171 0.0
C151 C 0.44378 0.1378 0.42267 0.0
N152 N 0.48965 0.16611 0.42589 0.0
C153 C 0.50376 0.11094 0.40553 0.0
C154 C 0.45667 0.08131 0.40192 0.0
C155 C 0.42656 0.09481 0.41054 0.0
C156 C 0.51895 0.15359 0.41752 0.0
H157 H 0.42046 0.14787 0.4293 0.0
C158 C 0.43627 0.2334 0.44388 0.0
O159 O 0.46974 0.32732 0.39251 0.0
O160 O 0.46819 0.26783 0.37401 0.0
N161 N 0.57609 0.22408 0.43388 0.0
C162 C 0.61932 0.25284 0.44216 0.0
C163 C 0.65368 0.24362 0.43591 0.0
C164 C 0.64274 0.20366 0.42222 0.0
C165 C 0.59732 0.17272 0.41539 0.0
C166 C 0.56469 0.18412 0.42192 0.0
H167 H 0.62757 0.28317 0.45301 0.0
O168 O 0.55618 0.32555 0.39069 0.0
O169 O 0.5284 0.25759 0.41017 0.0
O170 O 0.52628 0.32825 0.43756 0.0
O171 O 0.5569 0.28908 0.45514 0.0
C172 C 0.58292 0.13035 0.40297 0.0
C173 C 0.53618 0.09957 0.39795 0.0
H174 H 0.44323 0.04798 0.3927 0.0
H175 H 0.39016 0.07207 0.40789 0.0
H176 H 0.68845 0.26717 0.44164 0.0
H177 H 0.66927 0.19645 0.41757 0.0
H178 H 0.6074 0.12073 0.39753 0.0
H179 H 0.52545 0.06686 0.38861 0.0
Mn180 Mn 0.01966 0.6003 0.7814 0.0
Mn181 Mn 0.05848 0.52862 0.79994 0.0
C182 C 0.09133 0.61265 0.76701 0.0
C183 C 0.99042 0.54453 0.74661 0.0
C184 C 0.07771 0.61487 0.82669 0.0
O185 O 0.96525 0.54997 0.79921 0.0
O186 O 0.99359 0.50484 0.81054 0.0
C187 C 0.99473 0.44354 0.77201 0.0
N188 N 0.03824 0.47765 0.77778 0.0
C189 C 0.06929 0.44229 0.75263 0.0
C190 C 0.02486 0.40742 0.7461 0.0
C191 C 0.98742 0.40796 0.75591 0.0
C192 C 0.07447 0.47668 0.76892 0.0
H193 H 0.96573 0.44366 0.77945 0.0
C194 C 0.96116 0.51371 0.8096 0.0
O195 O 0.98652 0.58019 0.74884 0.0
O196 O 0.0118 0.54026 0.76385 0.0
N197 N 0.11898 0.54546 0.79065 0.0
C198 C 0.15973 0.58371 0.79718 0.0
C199 C 0.20054 0.58888 0.7885 0.0
C200 C 0.1991 0.55475 0.77316 0.0
C201 C 0.1568 0.51592 0.76647 0.0
C202 C 0.11721 0.51242 0.77584 0.0
H203 H 0.16105 0.61075 0.80834 0.0
O204 O 0.07958 0.64357 0.76505 0.0
O205 O 0.05877 0.5722 0.7754 0.0
O206 O 0.05328 0.624 0.81329 0.0
O207 O 0.08225 0.5794 0.82354 0.0
C208 C 0.15236 0.48139 0.75028 0.0
C209 C 0.10865 0.44457 0.74339 0.0
H210 H 0.01909 0.3801 0.73355 0.0
H211 H 0.95301 0.38108 0.75103 0.0
H212 H 0.23303 0.61938 0.79342 0.0
H213 H 0.23065 0.55914 0.76629 0.0
H214 H 0.18236 0.4832 0.74275 0.0
H215 H 0.10569 0.41848 0.73076 0.0
Mn216 Mn 0.89565 0.44384 0.54637 0.0
Mn217 Mn 0.87397 0.40284 0.49043 0.0
C218 C 0.84135 0.36685 0.53931 0.0
C219 C 0.93552 0.45889 0.58195 0.0
C220 C 0.83242 0.45525 0.51201 0.0
O221 O 0.94914 0.49505 0.52835 0.0
O222 O 0.9299 0.46777 0.49096 0.0
C223 C 0.95471 0.39304 0.48505 0.0
N224 N 0.90853 0.37314 0.48527 0.0
C225 C 0.89658 0.29563 0.47873 0.0
C226 C 0.94402 0.31534 0.47829 0.0
C227 C 0.9732 0.36426 0.48148 0.0
C228 C 0.88014 0.3261 0.48227 0.0
H229 H 0.97725 0.43055 0.48768 0.0
C230 C 0.95562 0.49933 0.50605 0.0
O231 O 0.91536 0.48154 0.57609 0.0
O232 O 0.93503 0.42965 0.56654 0.0
N233 N 0.82121 0.3409 0.48726 0.0
C234 C 0.77629 0.32755 0.48815 0.0
C235 C 0.74259 0.27963 0.48556 0.0
C236 C 0.75541 0.24609 0.48175 0.0
C237 C 0.80186 0.26082 0.4805 0.0
C238 C 0.83392 0.30906 0.48321 0.0
H239 H 0.76626 0.35317 0.49117 0.0
O240 O 0.84169 0.38734 0.55897 0.0
O241 O 0.87477 0.39182 0.52449 0.0
O242 O 0.85345 0.46436 0.5318 0.0
O243 O 0.83651 0.4315 0.49536 0.0
C244 C 0.81764 0.22952 0.47682 0.0
C245 C 0.86495 0.2469 0.47595 0.0
H246 H 0.95843 0.29324 0.47561 0.0
H247 H 0.00985 0.3797 0.48126 0.0
H248 H 0.70684 0.26856 0.4866 0.0
H249 H 0.7293 0.20914 0.4798 0.0
H250 H 0.79367 0.192 0.47471 0.0
H251 H 0.87666 0.22247 0.4732 0.0
Mn252 Mn 0.45191 0.90883 0.87481 0.0
Mn253 Mn 0.54604 0.90196 0.8666 0.0
C254 C 0.50303 0.9568 0.84581 0.0
C255 C 0.3734 0.87079 0.86967 0.0
C256 C 0.54038 0.96133 0.90554 0.0
O257 O 0.43999 0.85325 0.89415 0.0
O258 O 0.50239 0.84938 0.88832 0.0
C259 C 0.4952 0.81414 0.83851 0.0
N260 N 0.52914 0.86041 0.84 0.0
C261 C 0.54662 0.86272 0.79849 0.0
C262 C 0.51205 0.81505 0.79655 0.0
C263 C 0.48623 0.79067 0.81666 0.0
C264 C 0.55371 0.88435 0.82069 0.0
H265 H 0.47489 0.79533 0.85383 0.0
C266 C 0.46308 0.83403 0.89766 0.0
O267 O 0.39314 0.89962 0.88725 0.0
O268 O 0.3994 0.86636 0.85446 0.0
N269 N 0.59245 0.94831 0.84617 0.0
C270 C 0.63122 0.98924 0.8523 0.0
C271 C 0.66211 0.01775 0.83454 0.0
C272 C 0.65446 0.00218 0.81091 0.0
C273 C 0.61736 0.95723 0.80553 0.0
C274 C 0.58742 0.93086 0.82398 0.0
H275 H 0.63808 0.00019 0.87063 0.0
O276 O 0.46924 0.96144 0.85235 0.0
O277 O 0.50249 0.91988 0.85502 0.0
O278 O 0.49986 0.95214 0.90022 0.0
O279 O 0.56248 0.94601 0.89384 0.0
C280 C 0.61023 0.93666 0.78288 0.0
C281 C 0.57471 0.88947 0.77934 0.0
H282 H 0.50517 0.79677 0.77975 0.0
H283 H 0.45939 0.7539 0.81531 0.0
H284 H 0.69205 0.05116 0.83916 0.0
H285 H 0.67837 0.02388 0.79719 0.0
H286 H 0.63258 0.95641 0.76823 0.0
H287 H 0.56996 0.87376 0.76194 0.0
Mn288 Mn 0.62578 0.40475 0.30167 0.0
Mn289 Mn 0.71906 0.51277 0.28634 0.0
C290 C 0.69432 0.43812 0.32383 0.0
C291 C 0.60454 0.45155 0.32816 0.0
C292 C 0.7042 0.426 0.26465 0.0
O293 O 0.60008 0.4242 0.27547 0.0
O294 O 0.66465 0.4917 0.26468 0.0
C295 C 0.67755 0.56956 0.29836 0.0
N296 N 0.70905 0.55718 0.30286 0.0
C297 C 0.74091 0.61287 0.33493 0.0
C298 C 0.70728 0.62441 0.33143 0.0
C299 C 0.67584 0.60312 0.31286 0.0
C300 C 0.74065 0.57891 0.32003 0.0
H301 H 0.65367 0.55357 0.28393 0.0
C302 C 0.62261 0.45889 0.26137 0.0
O303 O 0.58386 0.40716 0.32765 0.0
O304 O 0.63905 0.47027 0.31448 0.0
N305 N 0.77274 0.53686 0.30538 0.0
C306 C 0.80751 0.52832 0.30341 0.0
C307 C 0.84408 0.54967 0.31943 0.0
C308 C 0.84522 0.58074 0.33676 0.0
C309 C 0.8103 0.591 0.33757 0.0
C310 C 0.77451 0.56825 0.32131 0.0
H311 H 0.8067 0.50448 0.29007 0.0
O312 O 0.66152 0.39542 0.32672 0.0
O313 O 0.68419 0.46361 0.31062 0.0
O314 O 0.66548 0.40066 0.27497 0.0
O315 O 0.73167 0.46945 0.26932 0.0
C316 C 0.81022 0.62385 0.35343 0.0
C317 C 0.77553 0.63479 0.35211 0.0
H318 H 0.706 0.65045 0.34251 0.0
H319 H 0.65041 0.6126 0.30969 0.0
H320 H 0.87133 0.54226 0.31839 0.0
H321 H 0.8736 0.59735 0.349 0.0
H322 H 0.83724 0.64173 0.36635 0.0
H323 H 0.77643 0.66094 0.36401 0.0
Mn324 Mn 0.11507 0.7027 0.60154 0.0
Mn325 Mn 0.228 0.76779 0.59495 0.0
C326 C 0.16076 0.69699 0.62868 0.0
C327 C 0.04457 0.68884 0.61553 0.0
C328 C 0.17468 0.67271 0.57405 0.0
O329 O 0.12304 0.7515 0.57749 0.0
O330 O 0.19374 0.7721 0.56733 0.0
C331 C 0.2281 0.857 0.60062 0.0
N332 N 0.24218 0.82734 0.60796 0.0
C333 C 0.28341 0.87846 0.64067 0.0
C334 C 0.26916 0.90939 0.6335 0.0
C335 C 0.24145 0.89863 0.61336 0.0
C336 C 0.2689 0.83742 0.62732 0.0
H337 H 0.20686 0.84904 0.58517 0.0
C338 C 0.1548 0.76634 0.56217 0.0
O339 O 0.04711 0.6658 0.59751 0.0
O340 O 0.08301 0.72227 0.62403 0.0
N341 N 0.26618 0.76705 0.61944 0.0
C342 C 0.28098 0.73624 0.62242 0.0
C343 C 0.30988 0.74246 0.64149 0.0
C344 C 0.32453 0.7812 0.65676 0.0
C345 C 0.31095 0.81394 0.65249 0.0
C346 C 0.28194 0.80571 0.63327 0.0
H347 H 0.26989 0.70657 0.61062 0.0
O348 O 0.11848 0.66351 0.62645 0.0
O349 O 0.17484 0.73525 0.61596 0.0
O350 O 0.13629 0.6705 0.57697 0.0
O351 O 0.21266 0.70593 0.58248 0.0
C352 C 0.32549 0.85468 0.66635 0.0
C353 C 0.31165 0.88687 0.66048 0.0
H354 H 0.27944 0.94158 0.64325 0.0
H355 H 0.2304 0.92239 0.60766 0.0
H356 H 0.32082 0.71748 0.6444 0.0
H357 H 0.34676 0.78588 0.67148 0.0
H358 H 0.34764 0.8618 0.68145 0.0
H359 H 0.32328 0.91824 0.67119 0.0
Mn360 Mn 0.67376 0.19655 0.89838 0.0
Mn361 Mn 0.63959 0.26507 0.92396 0.0
C362 C 0.63059 0.21661 0.87507 0.0
C363 C 0.73534 0.19809 0.8796 0.0
C364 C 0.58764 0.15855 0.93085 0.0
O365 O 0.70629 0.21265 0.92965 0.0
O366 O 0.68697 0.26282 0.94376 0.0
C367 C 0.72958 0.35028 0.91378 0.0
N368 N 0.68329 0.32589 0.91134 0.0
C369 C 0.68754 0.38313 0.88339 0.0
C370 C 0.73518 0.40898 0.88575 0.0
C371 C 0.75627 0.39243 0.901 0.0
C372 C 0.66278 0.34096 0.89629 0.0
H373 H 0.7461 0.33739 0.92517 0.0
C374 C 0.70865 0.24099 0.94533 0.0
O375 O 0.70332 0.15945 0.88956 0.0
O376 O 0.73213 0.23513 0.88144 0.0
N377 N 0.59499 0.27411 0.90827 0.0
C378 C 0.54977 0.25366 0.9137 0.0
C379 C 0.52294 0.26733 0.90127 0.0
C380 C 0.54368 0.30481 0.88492 0.0
C381 C 0.59128 0.32977 0.88221 0.0
C382 C 0.61592 0.31383 0.89488 0.0
H383 H 0.53421 0.22596 0.92692 0.0
O384 O 0.64209 0.18712 0.86808 0.0
O385 O 0.64954 0.23775 0.89523 0.0
O386 O 0.61305 0.15119 0.91651 0.0
O387 O 0.59415 0.1999 0.93554 0.0
C388 C 0.61542 0.37147 0.86862 0.0
C389 C 0.66358 0.39789 0.86901 0.0
H390 H 0.75586 0.44167 0.87603 0.0
H391 H 0.79305 0.41204 0.90283 0.0
H392 H 0.48657 0.24958 0.90456 0.0
H393 H 0.52306 0.31578 0.87559 0.0
H394 H 0.59727 0.38426 0.85835 0.0
H395 H 0.6818 0.43023 0.85875 0.0
Mn396 Mn 0.51643 0.63098 0.25952 0.0
Mn397 Mn 0.40395 0.58249 0.24582 0.0
C398 C 0.46956 0.63355 0.29005 0.0
C399 C 0.48969 0.54894 0.27564 0.0
C400 C 0.47741 0.67996 0.23092 0.0
O401 O 0.50931 0.60408 0.22685 0.0
O402 O 0.4334 0.55597 0.22529 0.0
C403 C 0.36753 0.48257 0.2596 0.0
N404 N 0.36553 0.52261 0.26084 0.0
C405 C 0.29399 0.48156 0.28189 0.0
C406 C 0.29597 0.44025 0.28142 0.0
C407 C 0.33287 0.44076 0.27017 0.0
C408 C 0.32955 0.52217 0.27104 0.0
H409 H 0.39526 0.48248 0.2505 0.0
C410 C 0.47359 0.571 0.21709 0.0
O411 O 0.53042 0.58224 0.27415 0.0
O412 O 0.46243 0.56149 0.26869 0.0
N413 N 0.36848 0.60272 0.26253 0.0
C414 C 0.37398 0.64652 0.2635 0.0
C415 C 0.34041 0.65233 0.27454 0.0
C416 C 0.30134 0.613 0.28426 0.0
C417 C 0.29628 0.56818 0.28294 0.0
C418 C 0.33049 0.56441 0.27136 0.0
H419 H 0.40368 0.6767 0.25591 0.0
O420 O 0.51324 0.65464 0.29129 0.0
O421 O 0.45226 0.60455 0.27178 0.0
O422 O 0.50853 0.68274 0.24427 0.0
O423 O 0.43818 0.64292 0.22878 0.0
C424 C 0.2596 0.52748 0.29349 0.0
C425 C 0.25846 0.48422 0.29297 0.0
H426 H 0.26934 0.40795 0.28961 0.0
H427 H 0.33444 0.40893 0.2695 0.0
H428 H 0.34463 0.68706 0.27555 0.0
H429 H 0.27584 0.61775 0.29305 0.0
H430 H 0.23259 0.5293 0.30252 0.0
H431 H 0.23043 0.45337 0.30146 0.0
H432 H 0.74836 0.1321 0.05475 0.0
H433 H 0.78188 0.26115 0.09168 0.0
H434 H 0.80069 0.30339 0.05403 0.0
H435 H 0.84602 0.21899 0.00136 0.0
H436 H 0.81351 0.17137 0.98089 0.0
H437 H 0.82451 0.15887 0.01047 0.0
H438 H 0.7413 0.10156 0.01354 0.0
H439 H 0.72309 0.11703 0.98703 0.0
H440 H 0.70199 0.12111 0.01571 0.0
H441 H 0.77967 0.31872 0.01536 0.0
H442 H 0.74319 0.31384 0.97705 0.0
H443 H 0.7336 0.1801 0.96286 0.0
C444 C 0.76324 0.17003 0.0551 0.0
C445 C 0.76148 0.1926 0.07608 0.0
C446 C 0.78133 0.24239 0.07583 0.0
C447 C 0.79262 0.26714 0.05441 0.0
C448 C 0.78793 0.24261 0.03359 0.0
C449 C 0.77806 0.1963 0.03381 0.0
C450 C 0.77208 0.17793 0.00851 0.0
C451 C 0.81667 0.18207 -0.0002 0.0
C452 C 0.73215 0.12657 0.00592 0.0
C453 C 0.76533 0.21447 0.99576 0.0
C454 C 0.77855 0.25335 0.0101 0.0
C455 C 0.77127 0.28964 0.00351 0.0
C456 C 0.74993 0.28629 0.98183 0.0
C457 C 0.73576 0.2468 0.96692 0.0
C458 C 0.74483 0.21112 0.97375 0.0
H459 H 0.5094 0.69102 0.32783 0.0
H460 H 0.37985 0.57996 0.3052 0.0
H461 H 0.34091 0.60169 0.3347 0.0
H462 H 0.47784 0.62687 0.37517 0.0
H463 H 0.51012 0.67136 0.39709 0.0
H464 H 0.5294 0.6806 0.36697 0.0
H465 H 0.52981 0.75853 0.36598 0.0
H466 H 0.50998 0.74929 0.39629 0.0
H467 H 0.47896 0.75914 0.37353 0.0
H468 H 0.31984 0.63874 0.36948 0.0
H469 H 0.30168 0.60717 0.40987 0.0
H470 H 0.43808 0.63173 0.4157 0.0
C471 C 0.47253 0.6735 0.32806 0.0
C472 C 0.4457 0.6411 0.31006 0.0
C473 C 0.39867 0.61312 0.31396 0.0
C474 C 0.3773 0.62442 0.3318 0.0
C475 C 0.40451 0.65934 0.34831 0.0
C476 C 0.45129 0.67848 0.34808 0.0
C477 C 0.47019 0.68846 0.37313 0.0
C478 C 0.49848 0.66536 0.37839 0.0
C479 C 0.49891 0.74203 0.37748 0.0
C480 C 0.42593 0.66683 0.38719 0.0
C481 C 0.39087 0.66027 0.3725 0.0
C482 C 0.34681 0.64258 0.381 0.0
C483 C 0.33695 0.62451 0.40403 0.0
C484 C 0.36822 0.61566 0.41588 0.0
C485 C 0.41428 0.6402 0.40828 0.0
H486 H 0.75065 0.31634 0.54326 0.0
H487 H 0.86871 0.30308 0.5376 0.0
H488 H 0.83995 0.24526 0.56992 0.0
H489 H 0.7596 0.34272 0.59264 0.0
H490 H 0.70259 0.31239 0.60484 0.0
H491 H 0.71034 0.322 0.5737 0.0
H492 H 0.65979 0.23218 0.56497 0.0
H493 H 0.64918 0.22404 0.5964 0.0
H494 H 0.66977 0.19103 0.58087 0.0
H495 H 0.82864 0.23402 0.61187 0.0
H496 H 0.82641 0.25575 0.65337 0.0
H497 H 0.71573 0.27768 0.63682 0.0
C498 C 0.76779 0.29754 0.54766 0.0
C499 C 0.81239 0.31514 0.53904 0.0
C500 C 0.83465 0.29048 0.54439 0.0
C501 C 0.81865 0.25795 0.56317 0.0
C502 C 0.77983 0.24988 0.57564 0.0
C503 C 0.75307 0.26727 0.56739 0.0
C504 C 0.72139 0.26578 0.58675 0.0
C505 C 0.72382 0.31357 0.58964 0.0
C506 C 0.67213 0.2258 0.58197 0.0
C507 C 0.74077 0.25414 0.60803 0.0
C508 C 0.77252 0.24232 0.6011 0.0
C509 C 0.80226 0.2407 0.61749 0.0
C510 C 0.80114 0.25349 0.64103 0.0
C511 C 0.76993 0.26687 0.64816 0.0
C512 C 0.73828 0.26531 0.63175 0.0
H513 H 0.29328 0.74444 0.99735 0.0
H514 H 0.40266 0.75843 0.0419 0.0
H515 H 0.44133 0.7514 0.00691 0.0
H516 H 0.30543 0.664 0.95009 0.0
H517 H 0.29217 0.69201 0.92675 0.0
H518 H 0.26483 0.68227 0.95529 0.0
H519 H 0.29283 0.77132 0.95892 0.0
H520 H 0.31825 0.78088 0.93017 0.0
H521 H 0.3528 0.81429 0.95507 0.0
H522 H 0.48013 0.77225 0.96781 0.0
H523 H 0.51031 0.81158 0.92916 0.0
H524 H 0.3742 0.77537 0.90861 0.0
C525 C 0.32407 0.74341 -0.00012 0.0
C526 C 0.34497 0.75254 0.02237 0.0
C527 C 0.38568 0.7515 0.02491 0.0
C528 C 0.40807 0.74745 0.00504 0.0
C529 C 0.38864 0.74272 0.98278 0.0
C530 C 0.3466 0.73887 0.98018 0.0
C531 C 0.33602 0.74053 0.95429 0.0
C532 C 0.2973 0.69179 0.94614 0.0
C533 C 0.32437 0.77906 0.94937 0.0
C534 C 0.38105 0.7524 0.94309 0.0
C535 C 0.41056 0.75194 0.95964 0.0
C536 C 0.45684 0.77077 0.95442 0.0
C537 C 0.47382 0.79296 0.93234 0.0
C538 C 0.44454 0.79634 0.91591 0.0
C539 C 0.39719 0.77269 0.92079 0.0
H540 H 0.62719 0.36869 0.42197 0.0
H541 H 0.60608 0.25252 0.37844 0.0
H542 H 0.68681 0.2973 0.36645 0.0
H543 H 0.65658 0.43916 0.38681 0.0
H544 H 0.70331 0.49335 0.39895 0.0
H545 H 0.66436 0.44815 0.41836 0.0
H546 H 0.72965 0.44499 0.43889 0.0
H547 H 0.76947 0.49229 0.41969 0.0
H548 H 0.77026 0.43834 0.42166 0.0
H549 H 0.75119 0.35976 0.3455 0.0
H550 H 0.75507 0.41116 0.31346 0.0
H551 H 0.73082 0.49473 0.36225 0.0
C552 C 0.64111 0.35193 0.41139 0.0
C553 C 0.61125 0.30716 0.40162 0.0
C554 C 0.62885 0.28629 0.38671 0.0
C555 C 0.675 0.31191 0.37986 0.0
C556 C 0.70251 0.35921 0.38706 0.0
C557 C 0.68588 0.37893 0.40293 0.0
C558 C 0.71287 0.43247 0.40122 0.0
C559 C 0.68236 0.45438 0.40123 0.0
C560 C 0.74767 0.45326 0.42154 0.0
C561 C 0.73712 0.4385 0.37779 0.0
C562 C 0.73724 0.39741 0.37232 0.0
C563 C 0.75046 0.39125 0.34978 0.0
C564 C 0.75323 0.4213 0.33151 0.0
C565 C 0.7377 0.45266 0.33579 0.0
C566 C 0.73985 0.46833 0.35913 0.0
H567 H 0.20527 0.75266 0.6662 0.0
H568 H 0.17225 0.62288 0.63122 0.0
H569 H 0.18133 0.59104 0.66863 0.0
H570 H 0.28198 0.7333 0.7183 0.0
H571 H 0.26453 0.76289 0.73874 0.0
H572 H 0.28005 0.78421 0.70869 0.0
H573 H 0.20288 0.7788 0.70346 0.0
H574 H 0.1867 0.75736 0.73301 0.0
H575 H 0.15054 0.72309 0.70868 0.0
H576 H 0.14363 0.5614 0.70555 0.0
H577 H 0.09205 0.54669 0.73859 0.0
H578 H 0.16862 0.69401 0.75745 0.0
C579 C 0.20411 0.71934 0.6663 0.0
C580 C 0.18815 0.69006 0.64622 0.0
C581 C 0.18476 0.64574 0.6466 0.0
C582 C 0.19013 0.62751 0.66782 0.0
C583 C 0.20002 0.65464 0.6883 0.0
C584 C 0.21073 0.70127 0.68747 0.0
C585 C 0.21287 0.71987 0.7123 0.0
C586 C 0.26282 0.75194 0.71996 0.0
C587 C 0.18657 0.74615 0.71444 0.0
C588 C 0.19047 0.67383 0.72617 0.0
C589 C 0.18461 0.63666 0.71211 0.0
C590 C 0.15145 0.58992 0.71769 0.0
C591 C 0.1224 0.58131 0.73697 0.0
C592 C 0.12898 0.61846 0.75187 0.0
C593 C 0.16515 0.66478 0.74709 0.0
H594 H 0.58734 0.02653 0.04183 0.0
H595 H 0.65103 0.17469 0.02193 0.0
H596 H 0.64284 0.151 0.97945 0.0
H597 H 0.63267 0.98831 0.99314 0.0
H598 H 0.57987 0.9323 0.99068 0.0
H599 H 0.59752 0.96141 0.01901 0.0
H600 H 0.50244 0.92953 0.9943 0.0
H601 H 0.50401 0.98361 0.00058 0.0
H602 H 0.52066 0.95694 0.02294 0.0
H603 H 0.64175 0.1083 0.93977 0.0
H604 H 0.60894 0.05535 0.90522 0.0
H605 H 0.52968 0.9366 0.9523 0.0
C606 C 0.60052 0.05468 0.0288 0.0
C607 C 0.62094 0.10293 0.03547 0.0
C608 C 0.63574 0.13771 0.01742 0.0
C609 C 0.63194 0.12459 0.99329 0.0
C610 C 0.61326 0.07675 0.98765 0.0
C611 C 0.59633 0.04232 0.00497 0.0
C612 C 0.57103 0.99296 0.99453 0.0
C613 C 0.59682 0.96724 -0.00036 0.0
C614 C 0.52159 0.964 0.00362 0.0
C615 C 0.57355 0.00484 0.96848 0.0
C616 C 0.60147 0.05299 0.96483 0.0
C617 C 0.61616 0.0714 0.94221 0.0
C618 C 0.59751 0.04081 0.92272 0.0
C619 C 0.56369 0.99253 0.92604 0.0
C620 C 0.55308 0.974 0.94927 0.0
H621 H 0.5771 0.44534 0.37451 0.0
H622 H 0.58363 0.5115 0.30726 0.0
H623 H 0.54048 0.54548 0.32425 0.0
H624 H 0.47005 0.40821 0.38892 0.0
H625 H 0.47629 0.42148 0.42015 0.0
H626 H 0.5176 0.41264 0.40527 0.0
H627 H 0.58392 0.49377 0.41781 0.0
H628 H 0.54321 0.50166 0.43425 0.0
H629 H 0.58027 0.54556 0.4128 0.0
H630 H 0.48136 0.55453 0.34477 0.0
H631 H 0.41529 0.54272 0.36846 0.0
H632 H 0.44974 0.47646 0.42402 0.0
C633 C 0.57094 0.46863 0.36377 0.0
C634 C 0.58526 0.47749 0.33982 0.0
C635 C 0.57501 0.50634 0.32591 0.0
C636 C 0.55017 0.5255 0.33541 0.0
C637 C 0.53628 0.51612 0.35906 0.0
C638 C 0.54692 0.48895 0.37323 0.0
C639 C 0.52413 0.48044 0.39736 0.0
C640 C 0.4952 0.42748 0.40322 0.0
C641 C 0.56003 0.50701 0.41669 0.0
C642 C 0.49477 0.502 0.39354 0.0
C643 C 0.50365 0.52408 0.37161 0.0
C644 C 0.47577 0.53963 0.36243 0.0
C645 C 0.43791 0.53218 0.37582 0.0
C646 C 0.42859 0.51012 0.39826 0.0
C647 C 0.4576 0.49532 0.40732 0.0
H648 H 0.95698 0.62397 0.60174 0.0
H649 H 0.03629 0.7094 0.66128 0.0
H650 H 0.97394 0.65786 0.68834 0.0
H651 H 0.83536 0.58528 0.63383 0.0
H652 H 0.8109 0.52884 0.61926 0.0
H653 H 0.85251 0.582 0.60401 0.0
H654 H 0.90093 0.54447 0.59637 0.0
H655 H 0.86068 0.49184 0.612 0.0
H656 H 0.9195 0.52421 0.62122 0.0
H657 H 0.92252 0.58288 0.70861 0.0
H658 H 0.87494 0.49918 0.72039 0.0
H659 H 0.82198 0.46288 0.64897 0.0
C660 C 0.95973 0.6335 0.62028 0.0
C661 C 0.00162 0.67035 0.62937 0.0
C662 C 0.00457 0.68154 0.65378 0.0
C663 C 0.96903 0.65241 0.66941 0.0
C664 C 0.92973 0.61347 0.66026 0.0
C665 C 0.92362 0.60545 0.63605 0.0
C666 C 0.88122 0.55759 0.63115 0.0
C667 C 0.84271 0.56381 0.6215 0.0
C668 C 0.89123 0.52775 0.61419 0.0
C669 C 0.86987 0.53675 0.65594 0.0
C670 C 0.89726 0.57012 0.67261 0.0
C671 C 0.89909 0.55718 0.69598 0.0
C672 C 0.87235 0.50937 0.70247 0.0
C673 C 0.84408 0.47478 0.68569 0.0
C674 C 0.84206 0.48894 0.66232 0.0
H675 H 0.42166 0.99415 0.03502 0.0
H676 H 0.37582 0.87762 0.98599 0.0
H677 H 0.41841 0.93401 0.9535 0.0
H678 H 0.41996 0.07975 0.99055 0.0
H679 H 0.47036 0.12947 0.00307 0.0
H680 H 0.43139 0.08074 0.02179 0.0
H681 H 0.49815 0.0654 0.03499 0.0
H682 H 0.53436 0.11934 0.01871 0.0
H683 H 0.53375 0.06597 0.01196 0.0
H684 H 0.47155 -2e-05 0.92831 0.0
H685 H 0.53453 0.07164 0.91125 0.0
H686 H 0.54757 0.14939 0.97513 0.0
C687 C 0.42001 0.98096 0.01728 0.0
C688 C 0.39573 0.93184 0.01275 0.0
C689 C 0.39443 0.91522 0.98958 0.0
C690 C 0.41797 0.94699 0.97105 0.0
C691 C 0.4416 0.99532 0.97594 0.0
C692 C 0.44262 0.01248 0.9984 0.0
C693 C 0.47441 0.06594 -0.0009 0.0
C694 C 0.44742 0.09043 0.00392 0.0
C695 C 0.5124 0.08027 0.01735 0.0
C696 C 0.49357 0.07563 0.97405 0.0
C697 C 0.47318 0.03429 0.96103 0.0
C698 C 0.48734 0.03262 0.93825 0.0
C699 C 0.52385 0.0738 0.92864 0.0
C700 C 0.54672 0.11652 0.94149 0.0
C701 C 0.53056 0.11759 0.96451 0.0
H702 H 0.42104 0.48585 0.3062 0.0
H703 H 0.53224 0.5041 0.26149 0.0
H704 H 0.521 0.4287 0.27618 0.0
H705 H 0.44197 0.4406 0.35643 0.0
H706 H 0.38338 0.39852 0.36281 0.0
H707 H 0.39753 0.44984 0.34535 0.0
H708 H 0.34115 0.38886 0.31418 0.0
H709 H 0.33413 0.33942 0.33132 0.0
H710 H 0.35411 0.34741 0.30112 0.0
H711 H 0.50595 0.35828 0.29769 0.0
H712 H 0.49969 0.30804 0.33145 0.0
H713 H 0.40305 0.33683 0.3654 0.0
C714 C 0.44161 0.47272 0.29886 0.0
C715 C 0.47708 0.50036 0.28244 0.0
C716 C 0.50455 0.4832 0.2738 0.0
C717 C 0.498 0.44002 0.2817 0.0
C718 C 0.46355 0.41378 0.29811 0.0
C719 C 0.43569 0.4293 0.30676 0.0
C720 C 0.40519 0.3965 0.32653 0.0
C721 C 0.40716 0.42319 0.3491 0.0
C722 C 0.35573 0.36625 0.31775 0.0
C723 C 0.42617 0.36608 0.3302 0.0
C724 C 0.45683 0.37397 0.31222 0.0
C725 C 0.48187 0.35158 0.31182 0.0
C726 C 0.47801 0.32295 0.33109 0.0
C727 C 0.45095 0.31863 0.35099 0.0
C728 C 0.42354 0.33919 0.35022 0.0
H729 H 0.0335 0.5814 0.70492 0.0
H730 H 0.92989 0.45105 0.73789 0.0
H731 H 0.91458 0.41011 0.6991 0.0
H732 H 0.98026 0.57405 0.65389 0.0
H733 H 0.02856 0.59662 0.63426 0.0
H734 H 0.03712 0.61316 0.66504 0.0
H735 H 0.09095 0.5809 0.66938 0.0
H736 H 0.08311 0.56438 0.63848 0.0
H737 H 0.07173 0.52088 0.66102 0.0
H738 H 0.90168 0.388 0.65595 0.0
H739 H 0.89238 0.38598 0.61242 0.0
H740 H 0.00498 0.53075 0.60741 0.0
C741 C 0.008 0.54405 0.7039 0.0
C742 C 0.98254 0.51913 0.7241 0.0
C743 C 0.94972 0.47041 0.72246 0.0
C744 C 0.94095 0.44702 0.70057 0.0
C745 C 0.96594 0.47283 0.68071 0.0
C746 C -0.00053 0.52008 0.68231 0.0
C747 C 0.01969 0.54045 0.65818 0.0
C748 C 0.01632 0.58382 0.65253 0.0
C749 C 0.06933 0.55233 0.65666 0.0
C750 C 0.9888 0.49903 0.6424 0.0
C751 C 0.95925 0.45971 0.65582 0.0
C752 C 0.92514 0.41823 0.64531 0.0
C753 C 0.92015 0.41739 0.6206 0.0
C754 C 0.94838 0.45806 0.60676 0.0
C755 C 0.98376 0.49899 0.61769 0.0
H756 H 0.33525 0.92447 0.13113 0.0
H757 H 0.33377 0.94378 0.05583 0.0
H758 H 0.38368 0.02633 0.05963 0.0
H759 H 0.40564 0.07308 0.14527 0.0
H760 H 0.4378 0.06224 0.16693 0.0
H761 H 0.37695 0.0222 0.16443 0.0
H762 H 0.39289 0.95613 0.16106 0.0
H763 H 0.45382 0.9935 0.15958 0.0
H764 H 0.42277 0.95261 0.13578 0.0
H765 H 0.46086 0.0809 0.0633 0.0
H766 H 0.5428 0.1167 0.0697 0.0
H767 H 0.51742 0.06766 0.14263 0.0
C768 C 0.34269 0.94742 0.11593 0.0
C769 C 0.32984 0.92649 0.09309 0.0
C770 C 0.33988 0.95701 0.07358 0.0
C771 C 0.37113 0.00521 0.07562 0.0
C772 C 0.39412 0.02187 0.097 0.0
C773 C 0.37891 0.99492 0.11756 0.0
C774 C 0.41703 0.01538 0.13613 0.0
C775 C 0.40888 0.045 0.15425 0.0
C776 C 0.42212 0.9772 0.14884 0.0
C777 C 0.45798 0.04762 0.12059 0.0
C778 C 0.44301 0.05329 0.0988 0.0
C779 C 0.47309 0.07724 0.08032 0.0
C780 C 0.51957 0.09664 0.08404 0.0
C781 C 0.53658 0.09379 0.10639 0.0
C782 C 0.50532 0.06912 0.12512 0.0
H783 H 0.35484 0.22771 0.43782 0.0
H784 H 0.46504 0.27057 0.48791 0.0
H785 H 0.4451 0.32415 0.50705 0.0
H786 H 0.37403 0.3304 0.42542 0.0
H787 H 0.31643 0.31822 0.423 0.0
H788 H 0.32767 0.27163 0.41857 0.0
H789 H 0.26991 0.22128 0.45161 0.0
H790 H 0.25718 0.26733 0.45578 0.0
H791 H 0.27491 0.24634 0.48062 0.0
H792 H 0.43208 0.39203 0.51052 0.0
H793 H 0.41629 0.4561 0.50293 0.0
H794 H 0.30976 0.36422 0.45364 0.0
C795 C 0.37257 0.24588 0.45385 0.0
C796 C 0.41131 0.24498 0.46131 0.0
C797 C 0.43473 0.27013 0.482 0.0
C798 C 0.42388 0.30113 0.49294 0.0
C799 C 0.38839 0.30509 0.48358 0.0
C800 C 0.3617 0.27648 0.46512 0.0
C801 C 0.33009 0.29201 0.45594 0.0
C802 C 0.33758 0.30378 0.42919 0.0
C803 C 0.28005 0.25451 0.46132 0.0
C804 C 0.34578 0.33589 0.47069 0.0
C805 C 0.37919 0.34301 0.48669 0.0
C806 C 0.40443 0.38582 0.49888 0.0
C807 C 0.39547 0.42219 0.49439 0.0
C808 C 0.36146 0.41529 0.47791 0.0
C809 C 0.33544 0.37079 0.46674 0.0
H810 H 0.8836 0.51688 0.80619 0.0
H811 H 0.93205 0.42431 0.82697 0.0
H812 H 0.85353 0.35616 0.82485 0.0
H813 H 0.75517 0.43457 0.82811 0.0
H814 H 0.73697 0.45175 0.80201 0.0
H815 H 0.78916 0.49397 0.81673 0.0
H816 H 0.83338 0.50922 0.77705 0.0
H817 H 0.78183 0.46758 0.76256 0.0
H818 H 0.83028 0.45989 0.76159 0.0
H819 H 0.77972 0.29793 0.80797 0.0
H820 H 0.72923 0.2602 0.77404 0.0
H821 H 0.72828 0.38824 0.76008 0.0
C822 C 0.87736 0.48256 0.81148 0.0
C823 C 0.91415 0.47607 0.81657 0.0
C824 C 0.90459 0.43049 0.82313 0.0
C825 C 0.85978 0.39141 0.82207 0.0
C826 C 0.82479 0.39835 0.81454 0.0
C827 C 0.83315 0.44322 0.8096 0.0
C828 C 0.79409 0.44104 0.79587 0.0
C829 C 0.76726 0.45622 0.81163 0.0
C830 C 0.81094 0.47109 0.77293 0.0
C831 C 0.76586 0.38856 0.79076 0.0
C832 C 0.78206 0.36407 0.80325 0.0
C833 C 0.76618 0.31657 0.79858 0.0
C834 C 0.737 0.29514 0.77922 0.0
C835 C 0.72559 0.32188 0.76424 0.0
C836 C 0.73643 0.3673 0.77149 0.0
H837 H 0.94916 0.57545 0.51001 0.0
H838 H 0.03924 0.52907 0.48572 0.0
H839 H 0.10276 0.61238 0.48313 0.0
H840 H 0.01411 0.70235 0.48014 0.0
H841 H 0.00228 0.72566 0.50625 0.0
H842 H 0.96098 0.66715 0.49589 0.0
H843 H 0.96048 0.63283 0.53727 0.0
H844 H 0.00117 0.69049 0.54766 0.0
H845 H 0.01359 0.64383 0.54972 0.0
H846 H 0.15867 0.69322 0.49515 0.0
H847 H 0.19978 0.75409 0.5251 0.0
H848 H 0.07553 0.7515 0.543 0.0
C849 C 0.98181 0.58349 0.50283 0.0
C850 C 0.98961 0.54671 0.49758 0.0
C851 C 0.03267 0.55723 0.48917 0.0
C852 C 0.06875 0.6045 0.48759 0.0
C853 C 0.06088 0.64042 0.4944 0.0
C854 C 0.01802 0.63028 0.50164 0.0
C855 C 0.0201 0.67226 0.51367 0.0
C856 C 0.99807 0.69309 0.49804 0.0
C857 C 0.99763 0.65905 0.53853 0.0
C858 C 0.0713 0.70556 0.5149 0.0
C859 C 0.09414 0.68787 0.50237 0.0
C860 C 0.14121 0.70792 0.50448 0.0
C861 C 0.16452 0.74299 0.52161 0.0
C862 C 0.14024 0.7562 0.53702 0.0
C863 C 0.09461 0.74157 0.53156 0.0
H864 H 0.53942 0.0194 0.80132 0.0
H865 H 0.58217 0.01817 0.87084 0.0
H866 H 0.57205 0.08372 0.88075 0.0
H867 H 0.62489 0.13953 0.81887 0.0
H868 H 0.61406 0.17001 0.79564 0.0
H869 H 0.60191 0.11084 0.79086 0.0
H870 H 0.5189 0.08612 0.77995 0.0
H871 H 0.53074 0.14503 0.78599 0.0
H872 H 0.48442 0.09496 0.80106 0.0
H873 H 0.50112 0.10618 0.88832 0.0
H874 H 0.55134 0.18572 0.89818 0.0
H875 H 0.60787 0.21553 0.82756 0.0
C876 C 0.53909 0.02818 0.81976 0.0
C877 C 0.54429 0.00155 0.83821 0.0
C878 C 0.56517 0.02822 0.85856 0.0
C879 C 0.55533 0.06236 0.8655 0.0
C880 C 0.53065 0.07378 0.85007 0.0
C881 C 0.5355 0.06764 0.8264 0.0
C882 C 0.5525 0.11516 0.8139 0.0
C883 C 0.60125 0.1351 0.80425 0.0
C884 C 0.51967 0.10999 0.79404 0.0
C885 C 0.551 0.14505 0.83448 0.0
C886 C 0.52788 0.11515 0.85303 0.0
C887 C 0.52161 0.13096 0.87453 0.0
C888 C 0.54987 0.17843 0.87977 0.0
C889 C 0.58687 0.20714 0.86467 0.0
C890 C 0.58121 0.19351 0.84011 0.0
H891 H 0.64876 0.53225 0.2303 0.0
H892 H 0.54184 0.38741 0.24391 0.0
H893 H 0.49326 0.39422 0.21453 0.0
H894 H 0.59541 0.5825 0.23105 0.0
H895 H 0.61926 0.62284 0.20626 0.0
H896 H 0.65134 0.60039 0.21951 0.0
H897 H 0.65816 0.56879 0.17873 0.0
H898 H 0.62498 0.59086 0.16532 0.0
H899 H 0.6075 0.52953 0.16213 0.0
H900 H 0.44794 0.42536 0.20128 0.0
H901 H 0.41693 0.47672 0.20673 0.0
H902 H 0.54917 0.59883 0.19086 0.0
C903 C 0.6159 0.50151 0.22618 0.0
C904 C 0.59843 0.46017 0.23997 0.0
C905 C 0.55555 0.4202 0.23409 0.0
C906 C 0.52786 0.4234 0.21701 0.0
C907 C 0.5441 0.4662 0.20518 0.0
C908 C 0.58808 0.5041 0.20875 0.0
C909 C 0.59437 0.54847 0.19731 0.0
C910 C 0.61621 0.59089 0.21459 0.0
C911 C 0.62293 0.56006 0.17451 0.0
C912 C 0.54506 0.53199 0.19144 0.0
C913 C 0.51681 0.48357 0.19481 0.0
C914 C 0.46957 0.46279 0.19767 0.0
C915 C 0.45185 0.49229 0.20062 0.0
C916 C 0.48152 0.54178 0.20026 0.0
C917 C 0.52646 0.56086 0.19171 0.0
H918 H 0.64105 0.35942 0.23554 0.0
H919 H 0.78727 0.45208 0.24425 0.0
H920 H 0.79984 0.42726 0.20484 0.0
H921 H 0.64181 0.26498 0.20666 0.0
H922 H 0.595 0.25306 0.18747 0.0
H923 H 0.59976 0.27887 0.21612 0.0
H924 H 0.59752 0.34824 0.19588 0.0
H925 H 0.59436 0.32327 0.16706 0.0
H926 H 0.63927 0.38294 0.17345 0.0
H927 H 0.79517 0.38769 0.16493 0.0
H928 H 0.77366 0.33276 0.13077 0.0
H929 H 0.63094 0.27295 0.14808 0.0
C930 C 0.67585 0.37391 0.22944 0.0
C931 C 0.71326 0.40694 0.24311 0.0
C932 C 0.75816 0.42618 0.23411 0.0
C933 C 0.76555 0.41269 0.21169 0.0
C934 C 0.7276 0.38089 0.19838 0.0
C935 C 0.68369 0.3618 0.20706 0.0
C936 C 0.64844 0.32809 0.18972 0.0
C937 C 0.6196 0.27832 0.20064 0.0
C938 C 0.61812 0.34677 0.18102 0.0
C939 C 0.6793 0.32951 0.17018 0.0
C940 C 0.72491 0.36056 0.1752 0.0
C941 C 0.75958 0.36409 0.16057 0.0
C942 C 0.74719 0.33333 0.14106 0.0
C943 C 0.70072 0.29995 0.13663 0.0
C944 C 0.66661 0.29948 0.15076 0.0
H945 H 0.23655 0.64548 0.57825 0.0
H946 H 0.11733 0.61748 0.538 0.0
H947 H 0.12741 0.56286 0.51208 0.0
H948 H 0.30287 0.65317 0.531 0.0
H949 H 0.33021 0.62606 0.54579 0.0
H950 H 0.30878 0.65633 0.56282 0.0
H951 H 0.25957 0.58057 0.58799 0.0
H952 H 0.28083 0.54994 0.57089 0.0
H953 H 0.22019 0.52582 0.57342 0.0
H954 H 0.15848 0.52049 0.48722 0.0
H955 H 0.20681 0.49639 0.46624 0.0
H956 H 0.30358 0.55162 0.52428 0.0
C957 C 0.21199 0.62727 0.56425 0.0
C958 C 0.17627 0.63576 0.56008 0.0
C959 C 0.1448 0.61116 0.5416 0.0
C960 C 0.15029 0.58011 0.52682 0.0
C961 C 0.18686 0.57355 0.5311 0.0
C962 C 0.2168 0.59622 0.5496 0.0
C963 C 0.25556 0.58691 0.54954 0.0
C964 C 0.30206 0.63336 0.54713 0.0
C965 C 0.25391 0.55914 0.57178 0.0
C966 C 0.24406 0.55695 0.52754 0.0
C967 C 0.20405 0.54891 0.51721 0.0
C968 C 0.18931 0.52578 0.49545 0.0
C969 C 0.21692 0.51202 0.48369 0.0
C970 C 0.25897 0.52189 0.49363 0.0
C971 C 0.27149 0.54307 0.51624 0.0
H972 H 0.71961 0.13507 0.84504 0.0
H973 H 0.82349 0.26821 0.87457 0.0
H974 H 0.86586 0.28906 0.83692 0.0
H975 H 0.80533 0.12895 0.79548 0.0
H976 H 0.75533 0.09952 0.777 0.0
H977 H 0.75085 0.08886 0.80859 0.0
H978 H 0.68703 0.11178 0.80779 0.0
H979 H 0.6971 0.12619 0.77701 0.0
H980 H 0.70336 0.17044 0.79786 0.0
H981 H 0.8794 0.30846 0.79487 0.0
H982 H 0.8648 0.32197 0.75389 0.0
H983 H 0.75305 0.1764 0.7496 0.0
C984 C 0.75317 0.16665 0.844 0.0
C985 C 0.76886 0.19955 0.86269 0.0
C986 C 0.8115 0.24213 0.86054 0.0
C987 C 0.83574 0.25431 0.83912 0.0
C988 C 0.81713 0.2233 0.82004 0.0
C989 C 0.77747 0.17942 0.82247 0.0
C990 C 0.75974 0.15695 0.79839 0.0
C991 C 0.76824 0.11612 0.79461 0.0
C992 C 0.70887 0.14046 0.7951 0.0
C993 C 0.79059 0.19804 0.78226 0.0
C994 C 0.82521 0.23494 0.79496 0.0
C995 C 0.85357 0.27919 0.78461 0.0
C996 C 0.84491 0.28663 0.76122 0.0
C997 C 0.80772 0.2502 0.74845 0.0
C998 C 0.78221 0.20467 0.75871 0.0
H999 H 0.50023 0.6965 0.1845 0.0
H1000 H 0.46928 0.75284 0.24615 0.0
H1001 H 0.45915 0.80727 0.22044 0.0
H1002 H 0.55985 0.81504 0.14924 0.0
H1003 H 0.53713 0.78352 0.12184 0.0
H1004 H 0.55224 0.75727 0.14541 0.0
H1005 H 0.47063 0.68355 0.1442 0.0
H1006 H 0.45481 0.70978 0.12114 0.0
H1007 H 0.42224 0.69063 0.1483 0.0
H1008 H 0.4296 0.83464 0.18858 0.0
H1009 H 0.39848 0.8485 0.1522 0.0
H1010 H 0.45906 0.78556 0.11007 0.0
C1011 C 0.49383 0.72226 0.19254 0.0
C1012 C 0.48589 0.72123 0.21714 0.0
C1013 C 0.47592 0.75381 0.2273 0.0
C1014 C 0.47016 0.78475 0.21284 0.0
C1015 C 0.47582 0.78334 0.18841 0.0
C1016 C 0.48915 0.75424 0.17834 0.0
C1017 C 0.4887 0.75648 0.15146 0.0
C1018 C 0.53738 0.77946 0.14139 0.0
C1019 C 0.45721 0.70719 0.14067 0.0
C1020 C 0.46948 0.78829 0.14802 0.0
C1021 C 0.46233 0.8033 0.16964 0.0
C1022 C 0.43716 0.82534 0.17151 0.0
C1023 C 0.41925 0.83261 0.15081 0.0
C1024 C 0.42819 0.81983 0.12845 0.0
C1025 C 0.45394 0.79778 0.12694 0.0
H1026 H 0.75271 0.40297 0.53375 0.0
H1027 H 0.82358 0.51721 0.48351 0.0
H1028 H 0.7503 0.51008 0.47238 0.0
H1029 H 0.67614 0.33394 0.49572 0.0
H1030 H 0.62857 0.30307 0.51586 0.0
H1031 H 0.68555 0.32965 0.52684 0.0
H1032 H 0.66909 0.378 0.55708 0.0
H1033 H 0.61159 0.35153 0.546 0.0
H1034 H 0.64813 0.41497 0.54686 0.0
H1035 H 0.66973 0.47829 0.4599 0.0
H1036 H 0.59557 0.41893 0.44247 0.0
H1037 H 0.5768 0.32046 0.4982 0.0
C1038 C 0.75278 0.42836 0.52155 0.0
C1039 C 0.79346 0.46194 0.51019 0.0
C1040 C 0.79268 0.49255 0.493 0.0
C1041 C 0.75118 0.48866 0.48665 0.0
C1042 C 0.71083 0.4532 0.49726 0.0
C1043 C 0.71149 0.42335 0.51434 0.0
C1044 C 0.66438 0.38065 0.51849 0.0
C1045 C 0.66367 0.33419 0.51392 0.0
C1046 C 0.64729 0.38137 0.5436 0.0
C1047 C 0.63754 0.38927 0.49998 0.0
C1048 C 0.66424 0.43236 0.4887 0.0
C1049 C 0.64835 0.44487 0.46885 0.0
C1050 C 0.60602 0.41107 0.45911 0.0
C1051 C 0.58123 0.36503 0.46881 0.0
C1052 C 0.59534 0.3556 0.49054 0.0
H1053 H 0.15265 0.62225 0.84803 0.0
H1054 H 0.07743 0.69432 0.84134 0.0
H1055 H 0.14312 0.7666 0.85802 0.0
H1056 H 0.22867 0.68956 0.89964 0.0
H1057 H 0.27576 0.68945 0.88524 0.0
H1058 H 0.21824 0.64083 0.88089 0.0
H1059 H 0.23221 0.65426 0.83573 0.0
H1060 H 0.2883 0.70482 0.84 0.0
H1061 H 0.2468 0.7105 0.82304 0.0
H1062 H 0.22201 0.83497 0.8696 0.0
H1063 H 0.30565 0.8918 0.87301 0.0
H1064 H 0.32995 0.77635 0.86545 0.0
C1065 C 0.14915 0.65259 0.85074 0.0
C1066 C 0.10978 0.65245 0.84319 0.0
C1067 C 0.10708 0.69331 0.84707 0.0
C1068 C 0.14435 0.73466 0.85652 0.0
C1069 C 0.18417 0.7347 0.8618 0.0
C1070 C 0.18661 0.6945 0.85907 0.0
C1071 C 0.23508 0.70534 0.86155 0.0
C1072 C 0.23966 0.67977 0.88314 0.0
C1073 C 0.25153 0.69305 0.83872 0.0
C1074 C 0.25981 0.75809 0.86545 0.0
C1075 C 0.22993 0.77439 0.8663 0.0
C1076 C 0.24559 0.82243 0.86913 0.0
C1077 C 0.29296 0.85444 0.87095 0.0
C1078 C 0.32372 0.83818 0.86909 0.0
C1079 C 0.30686 0.78951 0.86659 0.0
loop_
_geom_bond_atom_site_label_1
_geom_bond_atom_site_label_2
_geom_bond_distance
_geom_bond_site_symmetry_2
_ccdc_geom_bond_type
Mn0 O5 2.095 . S
Mn0 O15 2.162 . S
Mn0 O16 2.297 . S
Mn0 O24 2.385 . S
Mn0 O25 2.209 . S
Mn0 O26 2.094 . S
Mn1 O6 2.121 . S
Mn1 N8 2.257 . S
Mn1 N17 2.282 . S
Mn1 O25 2.215 . S
Mn1 O27 2.117 . S
C2 O24 1.234 . S
C2 O25 1.283 . S
C3 O15 1.281 . S
C3 O16 1.236 . S
C4 O26 1.240 . S
C4 O27 1.264 . S
O5 Mn0 2.095 . S
O5 C14 1.250 . S
O6 Mn1 2.121 . S
O6 C14 1.258 . S
C7 N8 1.326 . S
C7 C11 1.460 . S
C7 H13 0.929 . S
N8 Mn1 2.257 . S
N8 C7 1.326 . S
N8 C12 1.362 . S
C9 C10 1.258 . S
C9 C12 1.431 . S
C9 C29 1.449 1_545 S
C10 C9 1.258 . S
C10 C11 1.477 . S
C10 H30 0.931 . S
C11 C7 1.460 . S
C11 C10 1.477 . S
C11 H31 0.930 . S
C12 N8 1.362 . S
C12 C9 1.431 . S
C12 C22 1.476 . S
H13 C7 0.929 . S
C14 O5 1.250 . S
C14 O6 1.258 . S
O15 Mn0 2.162 . S
O15 C3 1.281 . S
O16 Mn0 2.297 . S
O16 C3 1.236 . S
N17 Mn1 2.282 . S
N17 C18 1.328 1_545 S
N17 C22 1.318 . S
C18 N17 1.328 1_565 S
C18 C19 1.457 . S
C18 H23 0.929 1_565 S
C19 C18 1.457 . S
C19 C20 1.291 . S
C19 H32 0.931 . S
C20 C19 1.291 . S
C20 C21 1.373 . S
C20 H33 0.929 . S
C21 C20 1.373 . S
C21 C22 1.396 1_565 S
C21 C28 1.403 . S
C22 C12 1.476 . S
C22 N17 1.318 . S
C22 C21 1.396 1_545 S
H23 C18 0.929 1_545 S
O24 Mn0 2.385 . S
O24 C2 1.234 . S
O25 Mn0 2.209 . S
O25 Mn1 2.215 . S
O25 C2 1.283 . S
O26 Mn0 2.094 . S
O26 C4 1.240 . S
O27 Mn1 2.117 . S
O27 C4 1.264 . S
C28 C21 1.403 . S
C28 C29 1.399 . S
C28 H34 0.929 . S
C29 C9 1.449 1_565 S
C29 C28 1.399 . S
C29 H35 0.930 . S
H30 C10 0.931 . S
H31 C11 0.930 . S
H32 C19 0.931 . S
H33 C20 0.929 . S
H34 C28 0.929 . S
H35 C29 0.930 . S
Mn36 O41 2.095 . S
Mn36 O51 2.162 . S
Mn36 O52 2.297 . S
Mn36 O60 2.385 . S
Mn36 O61 2.209 . S
Mn36 O62 2.094 . S
Mn37 O42 2.121 . S
Mn37 N44 2.257 . S
Mn37 N53 2.282 . S
Mn37 O61 2.215 . S
Mn37 O63 2.117 . S
C38 O60 1.234 . S
C38 O61 1.283 . S
C39 O51 1.281 . S
C39 O52 1.236 . S
C40 O62 1.240 . S
C40 O63 1.264 . S
O41 Mn36 2.095 . S
O41 C50 1.250 . S
O42 Mn37 2.121 . S
O42 C50 1.258 . S
C43 N44 1.326 . S
C43 C47 1.460 . S
C43 H49 0.929 . S
N44 Mn37 2.257 . S
N44 C43 1.326 . S
N44 C48 1.362 . S
C45 C46 1.258 . S
C45 C48 1.431 . S
C45 C65 1.449 . S
C46 C45 1.258 . S
C46 C47 1.477 . S
C46 H66 0.931 . S
C47 C43 1.460 . S
C47 C46 1.477 . S
C47 H67 0.930 . S
C48 N44 1.362 . S
C48 C45 1.431 . S
C48 C58 1.476 . S
H49 C43 0.929 . S
C50 O41 1.250 . S
C50 O42 1.258 . S
O51 Mn36 2.162 . S
O51 C39 1.281 . S
O52 Mn36 2.297 . S
O52 C39 1.236 . S
N53 Mn37 2.282 . S
N53 C54 1.328 . S
N53 C58 1.318 . S
C54 N53 1.328 . S
C54 C55 1.457 . S
C54 H59 0.929 . S
C55 C54 1.457 . S
C55 C56 1.291 . S
C55 H68 0.931 . S
C56 C55 1.291 . S
C56 C57 1.373 . S
C56 H69 0.929 . S
C57 C56 1.373 . S
C57 C58 1.396 . S
C57 C64 1.403 . S
C58 C48 1.476 . S
C58 N53 1.318 . S
C58 C57 1.396 . S
H59 C54 0.929 . S
O60 Mn36 2.385 . S
O60 C38 1.234 . S
O61 Mn36 2.209 . S
O61 Mn37 2.215 . S
O61 C38 1.283 . S
O62 Mn36 2.094 . S
O62 C40 1.240 . S
O63 Mn37 2.117 . S
O63 C40 1.264 . S
C64 C57 1.403 . S
C64 C65 1.399 . S
C64 H70 0.929 . S
C65 C45 1.449 . S
C65 C64 1.399 . S
C65 H71 0.930 . S
H66 C46 0.931 . S
H67 C47 0.930 . S
H68 C55 0.931 . S
H69 C56 0.929 . S
H70 C64 0.929 . S
H71 C65 0.930 . S
Mn72 O77 2.095 . S
Mn72 O87 2.162 . S
Mn72 O88 2.297 . S
Mn72 O96 2.385 . S
Mn72 O97 2.209 . S
Mn72 O98 2.094 . S
Mn73 O78 2.121 . S
Mn73 N80 2.257 . S
Mn73 N89 2.282 . S
Mn73 O97 2.215 . S
Mn73 O99 2.117 . S
C74 O96 1.234 . S
C74 O97 1.283 . S
C75 O87 1.281 . S
C75 O88 1.236 . S
C76 O98 1.240 . S
C76 O99 1.264 . S
O77 Mn72 2.095 . S
O77 C86 1.250 . S
O78 Mn73 2.121 . S
O78 C86 1.258 . S
C79 N80 1.326 . S
C79 C83 1.460 . S
C79 H85 0.929 . S
N80 Mn73 2.257 . S
N80 C79 1.326 . S
N80 C84 1.362 . S
C81 C82 1.258 . S
C81 C84 1.431 . S
C81 C101 1.449 . S
C82 C81 1.258 . S
C82 C83 1.477 . S
C82 H102 0.931 . S
C83 C79 1.460 . S
C83 C82 1.477 . S
C83 H103 0.930 . S
C84 N80 1.362 . S
C84 C81 1.431 . S
C84 C94 1.476 . S
H85 C79 0.929 . S
C86 O77 1.250 . S
C86 O78 1.258 . S
O87 Mn72 2.162 . S
O87 C75 1.281 . S
O88 Mn72 2.297 . S
O88 C75 1.236 . S
N89 Mn73 2.282 . S
N89 C90 1.328 . S
N89 C94 1.318 . S
C90 N89 1.328 . S
C90 C91 1.457 . S
C90 H95 0.929 . S
C91 C90 1.457 . S
C91 C92 1.291 . S
C91 H104 0.931 . S
C92 C91 1.291 . S
C92 C93 1.373 . S
C92 H105 0.929 . S
C93 C92 1.373 . S
C93 C94 1.396 . S
C93 C100 1.403 . S
C94 C84 1.476 . S
C94 N89 1.318 . S
C94 C93 1.396 . S
H95 C90 0.929 . S
O96 Mn72 2.385 . S
O96 C74 1.234 . S
O97 Mn72 2.209 . S
O97 Mn73 2.215 . S
O97 C74 1.283 . S
O98 Mn72 2.094 . S
O98 C76 1.240 . S
O99 Mn73 2.117 . S
O99 C76 1.264 . S
C100 C93 1.403 . S
C100 C101 1.399 . S
C100 H106 0.929 . S
C101 C81 1.449 . S
C101 C100 1.399 . S
C101 H107 0.930 . S
H102 C82 0.931 . S
H103 C83 0.930 . S
H104 C91 0.931 . S
H105 C92 0.929 . S
H106 C100 0.929 . S
H107 C101 0.930 . S
Mn108 O113 2.095 . S
Mn108 O123 2.162 . S
Mn108 O124 2.297 . S
Mn108 O132 2.385 . S
Mn108 O133 2.209 . S
Mn108 O134 2.094 . S
Mn109 O114 2.121 . S
Mn109 N116 2.257 . S
Mn109 N125 2.282 . S
Mn109 O133 2.215 . S
Mn109 O135 2.117 . S
C110 O132 1.234 . S
C110 O133 1.283 . S
C111 O123 1.281 . S
C111 O124 1.236 . S
C112 O134 1.240 . S
C112 O135 1.264 . S
O113 Mn108 2.095 . S
O113 C122 1.250 . S
O114 Mn109 2.121 . S
O114 C122 1.258 . S
C115 N116 1.326 . S
C115 C119 1.460 . S
C115 H121 0.929 . S
N116 Mn109 2.257 . S
N116 C115 1.326 . S
N116 C120 1.362 . S
C117 C118 1.258 . S
C117 C120 1.431 . S
C117 C137 1.449 1_565 S
C118 C117 1.258 . S
C118 C119 1.477 . S
C118 H138 0.931 . S
C119 C115 1.460 . S
C119 C118 1.477 . S
C119 H139 0.930 . S
C120 N116 1.362 . S
C120 C117 1.431 . S
C120 C130 1.476 . S
H121 C115 0.929 . S
C122 O113 1.250 . S
C122 O114 1.258 . S
O123 Mn108 2.162 . S
O123 C111 1.281 . S
O124 Mn108 2.297 . S
O124 C111 1.236 . S
N125 Mn109 2.282 . S
N125 C126 1.328 1_565 S
N125 C130 1.318 . S
C126 N125 1.328 1_545 S
C126 C127 1.457 . S
C126 H131 0.929 1_545 S
C127 C126 1.457 . S
C127 C128 1.291 . S
C127 H140 0.931 . S
C128 C127 1.291 . S
C128 C129 1.373 . S
C128 H141 0.929 . S
C129 C128 1.373 . S
C129 C130 1.396 1_545 S
C129 C136 1.403 . S
C130 C120 1.476 . S
C130 N125 1.318 . S
C130 C129 1.396 1_565 S
H131 C126 0.929 1_565 S
O132 Mn108 2.385 . S
O132 C110 1.234 . S
O133 Mn108 2.209 . S
O133 Mn109 2.215 . S
O133 C110 1.283 . S
O134 Mn108 2.094 . S
O134 C112 1.240 . S
O135 Mn109 2.117 . S
O135 C112 1.264 . S
C136 C129 1.403 . S
C136 C137 1.399 . S
C136 H142 0.929 . S
C137 C117 1.449 1_545 S
C137 C136 1.399 . S
C137 H143 0.930 . S
H138 C118 0.931 . S
H139 C119 0.930 . S
H140 C127 0.931 . S
H141 C128 0.929 . S
H142 C136 0.929 . S
H143 C137 0.930 . S
Mn144 O149 2.095 . S
Mn144 O159 2.162 . S
Mn144 O160 2.297 . S
Mn144 O168 2.385 . S
Mn144 O169 2.209 . S
Mn144 O170 2.094 . S
Mn145 O150 2.121 . S
Mn145 N152 2.257 . S
Mn145 N161 2.282 . S
Mn145 O169 2.215 . S
Mn145 O171 2.117 . S
C146 O168 1.234 . S
C146 O169 1.283 . S
C147 O159 1.281 . S
C147 O160 1.236 . S
C148 O170 1.240 . S
C148 O171 1.264 . S
O149 Mn144 2.095 . S
O149 C158 1.250 . S
O150 Mn145 2.121 . S
O150 C158 1.258 . S
C151 N152 1.326 . S
C151 C155 1.460 . S
C151 H157 0.929 . S
N152 Mn145 2.257 . S
N152 C151 1.326 . S
N152 C156 1.362 . S
C153 C154 1.258 . S
C153 C156 1.431 . S
C153 C173 1.449 . S
C154 C153 1.258 . S
C154 C155 1.477 . S
C154 H174 0.931 . S
C155 C151 1.460 . S
C155 C154 1.477 . S
C155 H175 0.930 . S
C156 N152 1.362 . S
C156 C153 1.431 . S
C156 C166 1.476 . S
H157 C151 0.929 . S
C158 O149 1.250 . S
C158 O150 1.258 . S
O159 Mn144 2.162 . S
O159 C147 1.281 . S
O160 Mn144 2.297 . S
O160 C147 1.236 . S
N161 Mn145 2.282 . S
N161 C162 1.328 . S
N161 C166 1.318 . S
C162 N161 1.328 . S
C162 C163 1.457 . S
C162 H167 0.929 . S
C163 C162 1.457 . S
C163 C164 1.291 . S
C163 H176 0.931 . S
C164 C163 1.291 . S
C164 C165 1.373 . S
C164 H177 0.929 . S
C165 C164 1.373 . S
C165 C166 1.396 . S
C165 C172 1.403 . S
C166 C156 1.476 . S
C166 N161 1.318 . S
C166 C165 1.396 . S
H167 C162 0.929 . S
O168 Mn144 2.385 . S
O168 C146 1.234 . S
O169 Mn144 2.209 . S
O169 Mn145 2.215 . S
O169 C146 1.283 . S
O170 Mn144 2.094 . S
O170 C148 1.240 . S
O171 Mn145 2.117 . S
O171 C148 1.264 . S
C172 C165 1.403 . S
C172 C173 1.399 . S
C172 H178 0.929 . S
C173 C153 1.449 . S
C173 C172 1.399 . S
C173 H179 0.930 . S
H174 C154 0.931 . S
H175 C155 0.930 . S
H176 C163 0.931 . S
H177 C164 0.929 . S
H178 C172 0.929 . S
H179 C173 0.930 . S
Mn180 O185 2.095 . S
Mn180 O195 2.162 . S
Mn180 O196 2.297 . S
Mn180 O204 2.385 . S
Mn180 O205 2.209 . S
Mn180 O206 2.094 . S
Mn181 O186 2.121 . S
Mn181 N188 2.257 . S
Mn181 N197 2.282 . S
Mn181 O205 2.215 . S
Mn181 O207 2.117 . S
C182 O204 1.234 . S
C182 O205 1.283 . S
C183 O195 1.281 . S
C183 O196 1.236 . S
C184 O206 1.240 . S
C184 O207 1.264 . S
O185 Mn180 2.095 . S
O185 C194 1.250 . S
O186 Mn181 2.121 . S
O186 C194 1.258 . S
C187 N188 1.326 . S
C187 C191 1.460 . S
C187 H193 0.929 . S
N188 Mn181 2.257 . S
N188 C187 1.326 . S
N188 C192 1.362 . S
C189 C190 1.258 . S
C189 C192 1.431 . S
C189 C209 1.449 . S
C190 C189 1.258 . S
C190 C191 1.477 . S
C190 H210 0.931 . S
C191 C187 1.460 . S
C191 C190 1.477 . S
C191 H211 0.930 . S
C192 N188 1.362 . S
C192 C189 1.431 . S
C192 C202 1.476 . S
H193 C187 0.929 . S
C194 O185 1.250 . S
C194 O186 1.258 . S
O195 Mn180 2.162 . S
O195 C183 1.281 . S
O196 Mn180 2.297 . S
O196 C183 1.236 . S
N197 Mn181 2.282 . S
N197 C198 1.328 . S
N197 C202 1.318 . S
C198 N197 1.328 . S
C198 C199 1.457 . S
C198 H203 0.929 . S
C199 C198 1.457 . S
C199 C200 1.291 . S
C199 H212 0.931 . S
C200 C199 1.291 . S
C200 C201 1.373 . S
C200 H213 0.929 . S
C201 C200 1.373 . S
C201 C202 1.396 . S
C201 C208 1.403 . S
C202 C192 1.476 . S
C202 N197 1.318 . S
C202 C201 1.396 . S
H203 C198 0.929 . S
O204 Mn180 2.385 . S
O204 C182 1.234 . S
O205 Mn180 2.209 . S
O205 Mn181 2.215 . S
O205 C182 1.283 . S
O206 Mn180 2.094 . S
O206 C184 1.240 . S
O207 Mn181 2.117 . S
O207 C184 1.264 . S
C208 C201 1.403 . S
C208 C209 1.399 . S
C208 H214 0.929 . S
C209 C189 1.449 . S
C209 C208 1.399 . S
C209 H215 0.930 . S
H210 C190 0.931 . S
H211 C191 0.930 . S
H212 C199 0.931 . S
H213 C200 0.929 . S
H214 C208 0.929 . S
H215 C209 0.930 . S
Mn216 O221 2.095 . S
Mn216 O231 2.162 . S
Mn216 O232 2.297 . S
Mn216 O240 2.385 . S
Mn216 O241 2.209 . S
Mn216 O242 2.094 . S
Mn217 O222 2.121 . S
Mn217 N224 2.257 . S
Mn217 N233 2.282 . S
Mn217 O241 2.215 . S
Mn217 O243 2.117 . S
C218 O240 1.234 . S
C218 O241 1.283 . S
C219 O231 1.281 . S
C219 O232 1.236 . S
C220 O242 1.240 . S
C220 O243 1.264 . S
O221 Mn216 2.095 . S
O221 C230 1.250 . S
O222 Mn217 2.121 . S
O222 C230 1.258 . S
C223 N224 1.326 . S
C223 C227 1.460 . S
C223 H229 0.929 . S
N224 Mn217 2.257 . S
N224 C223 1.326 . S
N224 C228 1.362 . S
C225 C226 1.258 . S
C225 C228 1.431 . S
C225 C245 1.449 . S
C226 C225 1.258 . S
C226 C227 1.477 . S
C226 H246 0.931 . S
C227 C223 1.460 . S
C227 C226 1.477 . S
C227 H247 0.930 . S
C228 N224 1.362 . S
C228 C225 1.431 . S
C228 C238 1.476 . S
H229 C223 0.929 . S
C230 O221 1.250 . S
C230 O222 1.258 . S
O231 Mn216 2.162 . S
O231 C219 1.281 . S
O232 Mn216 2.297 . S
O232 C219 1.236 . S
N233 Mn217 2.282 . S
N233 C234 1.328 . S
N233 C238 1.318 . S
C234 N233 1.328 . S
C234 C235 1.457 . S
C234 H239 0.929 . S
C235 C234 1.457 . S
C235 C236 1.291 . S
C235 H248 0.931 . S
C236 C235 1.291 . S
C236 C237 1.373 . S
C236 H249 0.929 . S
C237 C236 1.373 . S
C237 C238 1.396 . S
C237 C244 1.403 . S
C238 C228 1.476 . S
C238 N233 1.318 . S
C238 C237 1.396 . S
H239 C234 0.929 . S
O240 Mn216 2.385 . S
O240 C218 1.234 . S
O241 Mn216 2.209 . S
O241 Mn217 2.215 . S
O241 C218 1.283 . S
O242 Mn216 2.094 . S
O242 C220 1.240 . S
O243 Mn217 2.117 . S
O243 C220 1.264 . S
C244 C237 1.403 . S
C244 C245 1.399 . S
C244 H250 0.929 . S
C245 C225 1.449 . S
C245 C244 1.399 . S
C245 H251 0.930 . S
H246 C226 0.931 . S
H247 C227 0.930 . S
H248 C235 0.931 . S
H249 C236 0.929 . S
H250 C244 0.929 . S
H251 C245 0.930 . S
Mn252 O257 2.095 . S
Mn252 O267 2.162 . S
Mn252 O268 2.297 . S
Mn252 O276 2.385 . S
Mn252 O277 2.209 . S
Mn252 O278 2.094 . S
Mn253 O258 2.121 . S
Mn253 N260 2.257 . S
Mn253 N269 2.282 . S
Mn253 O277 2.215 . S
Mn253 O279 2.117 . S
C254 O276 1.234 . S
C254 O277 1.283 . S
C255 O267 1.281 . S
C255 O268 1.236 . S
C256 O278 1.240 . S
C256 O279 1.264 . S
O257 Mn252 2.095 . S
O257 C266 1.250 . S
O258 Mn253 2.121 . S
O258 C266 1.258 . S
C259 N260 1.326 . S
C259 C263 1.460 . S
C259 H265 0.929 . S
N260 Mn253 2.257 . S
N260 C259 1.326 . S
N260 C264 1.362 . S
C261 C262 1.258 . S
C261 C264 1.431 . S
C261 C281 1.449 1_565 S
C262 C261 1.258 . S
C262 C263 1.477 . S
C262 H282 0.931 . S
C263 C259 1.460 . S
C263 C262 1.477 . S
C263 H283 0.930 . S
C264 N260 1.362 . S
C264 C261 1.431 . S
C264 C274 1.476 . S
H265 C259 0.929 . S
C266 O257 1.250 . S
C266 O258 1.258 . S
O267 Mn252 2.162 . S
O267 C255 1.281 . S
O268 Mn252 2.297 . S
O268 C255 1.236 . S
N269 Mn253 2.282 . S
N269 C270 1.328 1_565 S
N269 C274 1.318 . S
C270 N269 1.328 1_545 S
C270 C271 1.457 . S
C270 H275 0.929 1_545 S
C271 C270 1.457 . S
C271 C272 1.291 . S
C271 H284 0.931 . S
C272 C271 1.291 . S
C272 C273 1.373 . S
C272 H285 0.929 . S
C273 C272 1.373 . S
C273 C274 1.396 1_545 S
C273 C280 1.403 . S
C274 C264 1.476 . S
C274 N269 1.318 . S
C274 C273 1.396 1_565 S
H275 C270 0.929 1_565 S
O276 Mn252 2.385 . S
O276 C254 1.234 . S
O277 Mn252 2.209 . S
O277 Mn253 2.215 . S
O277 C254 1.283 . S
O278 Mn252 2.094 . S
O278 C256 1.240 . S
O279 Mn253 2.117 . S
O279 C256 1.264 . S
C280 C273 1.403 . S
C280 C281 1.399 . S
C280 H286 0.929 . S
C281 C261 1.449 1_545 S
C281 C280 1.399 . S
C281 H287 0.930 . S
H282 C262 0.931 . S
H283 C263 0.930 . S
H284 C271 0.931 . S
H285 C272 0.929 . S
H286 C280 0.929 . S
H287 C281 0.930 . S
Mn288 O293 2.095 . S
Mn288 O303 2.162 . S
Mn288 O304 2.297 . S
Mn288 O312 2.385 . S
Mn288 O313 2.209 . S
Mn288 O314 2.094 . S
Mn289 O294 2.121 . S
Mn289 N296 2.257 . S
Mn289 N305 2.282 . S
Mn289 O313 2.215 . S
Mn289 O315 2.117 . S
C290 O312 1.234 . S
C290 O313 1.283 . S
C291 O303 1.281 . S
C291 O304 1.236 . S
C292 O314 1.240 . S
C292 O315 1.264 . S
O293 Mn288 2.095 . S
O293 C302 1.250 . S
O294 Mn289 2.121 . S
O294 C302 1.258 . S
C295 N296 1.326 . S
C295 C299 1.460 . S
C295 H301 0.929 . S
N296 Mn289 2.257 . S
N296 C295 1.326 . S
N296 C300 1.362 . S
C297 C298 1.258 . S
C297 C300 1.431 . S
C297 C317 1.449 . S
C298 C297 1.258 . S
C298 C299 1.477 . S
C298 H318 0.931 . S
C299 C295 1.460 . S
C299 C298 1.477 . S
C299 H319 0.930 . S
C300 N296 1.362 . S
C300 C297 1.431 . S
C300 C310 1.476 . S
H301 C295 0.929 . S
C302 O293 1.250 . S
C302 O294 1.258 . S
O303 Mn288 2.162 . S
O303 C291 1.281 . S
O304 Mn288 2.297 . S
O304 C291 1.236 . S
N305 Mn289 2.282 . S
N305 C306 1.328 . S
N305 C310 1.318 . S
C306 N305 1.328 . S
C306 C307 1.457 . S
C306 H311 0.929 . S
C307 C306 1.457 . S
C307 C308 1.291 . S
C307 H320 0.931 . S
C308 C307 1.291 . S
C308 C309 1.373 . S
C308 H321 0.929 . S
C309 C308 1.373 . S
C309 C310 1.396 . S
C309 C316 1.403 . S
C310 C300 1.476 . S
C310 N305 1.318 . S
C310 C309 1.396 . S
H311 C306 0.929 . S
O312 Mn288 2.385 . S
O312 C290 1.234 . S
O313 Mn288 2.209 . S
O313 Mn289 2.215 . S
O313 C290 1.283 . S
O314 Mn288 2.094 . S
O314 C292 1.240 . S
O315 Mn289 2.117 . S
O315 C292 1.264 . S
C316 C309 1.403 . S
C316 C317 1.399 . S
C316 H322 0.929 . S
C317 C297 1.449 . S
C317 C316 1.399 . S
C317 H323 0.930 . S
H318 C298 0.931 . S
H319 C299 0.930 . S
H320 C307 0.931 . S
H321 C308 0.929 . S
H322 C316 0.929 . S
H323 C317 0.930 . S
Mn324 O329 2.095 . S
Mn324 O339 2.162 . S
Mn324 O340 2.297 . S
Mn324 O348 2.385 . S
Mn324 O349 2.209 . S
Mn324 O350 2.094 . S
Mn325 O330 2.121 . S
Mn325 N332 2.257 . S
Mn325 N341 2.282 . S
Mn325 O349 2.215 . S
Mn325 O351 2.117 . S
C326 O348 1.234 . S
C326 O349 1.283 . S
C327 O339 1.281 . S
C327 O340 1.236 . S
C328 O350 1.240 . S
C328 O351 1.264 . S
O329 Mn324 2.095 . S
O329 C338 1.250 . S
O330 Mn325 2.121 . S
O330 C338 1.258 . S
C331 N332 1.326 . S
C331 C335 1.460 . S
C331 H337 0.929 . S
N332 Mn325 2.257 . S
N332 C331 1.326 . S
N332 C336 1.362 . S
C333 C334 1.258 . S
C333 C336 1.431 . S
C333 C353 1.449 . S
C334 C333 1.258 . S
C334 C335 1.477 . S
C334 H354 0.931 . S
C335 C331 1.460 . S
C335 C334 1.477 . S
C335 H355 0.930 . S
C336 N332 1.362 . S
C336 C333 1.431 . S
C336 C346 1.476 . S
H337 C331 0.929 . S
C338 O329 1.250 . S
C338 O330 1.258 . S
O339 Mn324 2.162 . S
O339 C327 1.281 . S
O340 Mn324 2.297 . S
O340 C327 1.236 . S
N341 Mn325 2.282 . S
N341 C342 1.328 . S
N341 C346 1.318 . S
C342 N341 1.328 . S
C342 C343 1.457 . S
C342 H347 0.929 . S
C343 C342 1.457 . S
C343 C344 1.291 . S
C343 H356 0.931 . S
C344 C343 1.291 . S
C344 C345 1.373 . S
C344 H357 0.929 . S
C345 C344 1.373 . S
C345 C346 1.396 . S
C345 C352 1.403 . S
C346 C336 1.476 . S
C346 N341 1.318 . S
C346 C345 1.396 . S
H347 C342 0.929 . S
O348 Mn324 2.385 . S
O348 C326 1.234 . S
O349 Mn324 2.209 . S
O349 Mn325 2.215 . S
O349 C326 1.283 . S
O350 Mn324 2.094 . S
O350 C328 1.240 . S
O351 Mn325 2.117 . S
O351 C328 1.264 . S
C352 C345 1.403 . S
C352 C353 1.399 . S
C352 H358 0.929 . S
C353 C333 1.449 . S
C353 C352 1.399 . S
C353 H359 0.930 . S
H354 C334 0.931 . S
H355 C335 0.930 . S
H356 C343 0.931 . S
H357 C344 0.929 . S
H358 C352 0.929 . S
H359 C353 0.930 . S
Mn360 O365 2.095 . S
Mn360 O375 2.162 . S
Mn360 O376 2.297 . S
Mn360 O384 2.385 . S
Mn360 O385 2.209 . S
Mn360 O386 2.094 . S
Mn361 O366 2.121 . S
Mn361 N368 2.257 . S
Mn361 N377 2.282 . S
Mn361 O385 2.215 . S
Mn361 O387 2.117 . S
C362 O384 1.234 . S
C362 O385 1.283 . S
C363 O375 1.281 . S
C363 O376 1.236 . S
C364 O386 1.240 . S
C364 O387 1.264 . S
O365 Mn360 2.095 . S
O365 C374 1.250 . S
O366 Mn361 2.121 . S
O366 C374 1.258 . S
C367 N368 1.326 . S
C367 C371 1.460 . S
C367 H373 0.929 . S
N368 Mn361 2.257 . S
N368 C367 1.326 . S
N368 C372 1.362 . S
C369 C370 1.258 . S
C369 C372 1.431 . S
C369 C389 1.449 1_545 S
C370 C369 1.258 . S
C370 C371 1.477 . S
C370 H390 0.931 . S
C371 C367 1.460 . S
C371 C370 1.477 . S
C371 H391 0.930 . S
C372 N368 1.362 . S
C372 C369 1.431 . S
C372 C382 1.476 . S
H373 C367 0.929 . S
C374 O365 1.250 . S
C374 O366 1.258 . S
O375 Mn360 2.162 . S
O375 C363 1.281 . S
O376 Mn360 2.297 . S
O376 C363 1.236 . S
N377 Mn361 2.282 . S
N377 C378 1.328 1_545 S
N377 C382 1.318 . S
C378 N377 1.328 1_565 S
C378 C379 1.457 . S
C378 H383 0.929 1_565 S
C379 C378 1.457 . S
C379 C380 1.291 . S
C379 H392 0.931 . S
C380 C379 1.291 . S
C380 C381 1.373 . S
C380 H393 0.929 . S
C381 C380 1.373 . S
C381 C382 1.396 1_565 S
C381 C388 1.403 . S
C382 C372 1.476 . S
C382 N377 1.318 . S
C382 C381 1.396 1_545 S
H383 C378 0.929 1_545 S
O384 Mn360 2.385 . S
O384 C362 1.234 . S
O385 Mn360 2.209 . S
O385 Mn361 2.215 . S
O385 C362 1.283 . S
O386 Mn360 2.094 . S
O386 C364 1.240 . S
O387 Mn361 2.117 . S
O387 C364 1.264 . S
C388 C381 1.403 . S
C388 C389 1.399 . S
C388 H394 0.929 . S
C389 C369 1.449 1_565 S
C389 C388 1.399 . S
C389 H395 0.930 . S
H390 C370 0.931 . S
H391 C371 0.930 . S
H392 C379 0.931 . S
H393 C380 0.929 . S
H394 C388 0.929 . S
H395 C389 0.930 . S
Mn396 O401 2.095 . S
Mn396 O411 2.162 . S
Mn396 O412 2.297 . S
Mn396 O420 2.385 . S
Mn396 O421 2.209 . S
Mn396 O422 2.094 . S
Mn397 O402 2.121 . S
Mn397 N404 2.257 . S
Mn397 N413 2.282 . S
Mn397 O421 2.215 . S
Mn397 O423 2.117 . S
C398 O420 1.234 . S
C398 O421 1.283 . S
C399 O411 1.281 . S
C399 O412 1.236 . S
C400 O422 1.240 . S
C400 O423 1.264 . S
O401 Mn396 2.095 . S
O401 C410 1.250 . S
O402 Mn397 2.121 . S
O402 C410 1.258 . S
C403 N404 1.326 . S
C403 C407 1.460 . S
C403 H409 0.929 . S
N404 Mn397 2.257 . S
N404 C403 1.326 . S
N404 C408 1.362 . S
C405 C406 1.258 . S
C405 C408 1.431 . S
C405 C425 1.449 . S
C406 C405 1.258 . S
C406 C407 1.477 . S
C406 H426 0.931 . S
C407 C403 1.460 . S
C407 C406 1.477 . S
C407 H427 0.930 . S
C408 N404 1.362 . S
C408 C405 1.431 . S
C408 C418 1.476 . S
H409 C403 0.929 . S
C410 O401 1.250 . S
C410 O402 1.258 . S
O411 Mn396 2.162 . S
O411 C399 1.281 . S
O412 Mn396 2.297 . S
O412 C399 1.236 . S
N413 Mn397 2.282 . S
N413 C414 1.328 . S
N413 C418 1.318 . S
C414 N413 1.328 . S
C414 C415 1.457 . S
C414 H419 0.929 . S
C415 C414 1.457 . S
C415 C416 1.291 . S
C415 H428 0.931 . S
C416 C415 1.291 . S
C416 C417 1.373 . S
C416 H429 0.929 . S
C417 C416 1.373 . S
C417 C418 1.396 . S
C417 C424 1.403 . S
C418 C408 1.476 . S
C418 N413 1.318 . S
C418 C417 1.396 . S
H419 C414 0.929 . S
O420 Mn396 2.385 . S
O420 C398 1.234 . S
O421 Mn396 2.209 . S
O421 Mn397 2.215 . S
O421 C398 1.283 . S
O422 Mn396 2.094 . S
O422 C400 1.240 . S
O423 Mn397 2.117 . S
O423 C400 1.264 . S
C424 C417 1.403 . S
C424 C425 1.399 . S
C424 H430 0.929 . S
C425 C405 1.449 . S
C425 C424 1.399 . S
C425 H431 0.930 . S
H426 C406 0.931 . S
H427 C407 0.930 . S
H428 C415 0.931 . S
H429 C416 0.929 . S
H430 C424 0.929 . S
H431 C425 0.930 . S
H432 C444 0.930 . S
H433 C446 0.930 . S
H434 C447 0.930 . S
H435 C451 0.959 . S
H436 C451 0.959 . S
H437 C451 0.961 . S
H438 C452 0.960 . S
H439 C452 0.961 . S
H440 C452 0.959 . S
H441 C455 0.929 . S
H442 C456 0.931 . S
H443 C458 0.930 . S
C444 H432 0.930 . S
C444 C445 1.399 . S
C444 C449 1.399 . S
C445 C444 1.399 . S
C445 C446 1.376 . S
C446 H433 0.930 . S
C446 C445 1.376 . S
C446 C447 1.388 . S
C447 H434 0.930 . S
C447 C446 1.388 . S
C447 C448 1.390 . S
C448 C447 1.390 . S
C448 C449 1.394 . S
C448 C454 1.465 1_554 S
C449 C444 1.399 . S
C449 C448 1.394 . S
C449 C450 1.516 . S
C450 C449 1.516 . S
C450 C451 1.502 1_554 S
C450 C452 1.561 . S
C450 C453 1.526 1_554 S
C451 H435 0.959 . S
C451 H436 0.959 . S
C451 H437 0.961 . S
C451 C450 1.502 1_556 S
C452 H438 0.960 . S
C452 H439 0.961 . S
C452 H440 0.959 . S
C452 C450 1.561 . S
C453 C450 1.526 1_556 S
C453 C454 1.396 . S
C453 C458 1.390 . S
C454 C448 1.465 1_556 S
C454 C453 1.396 . S
C454 C455 1.399 . S
C455 H441 0.929 . S
C455 C454 1.399 . S
C455 C456 1.385 . S
C456 H442 0.931 . S
C456 C455 1.385 . S
C456 C457 1.389 . S
C457 C456 1.389 . S
C457 C458 1.387 . S
C458 H443 0.930 . S
C458 C453 1.390 . S
C458 C457 1.387 . S
H459 C471 0.930 . S
H460 C473 0.930 . S
H461 C474 0.930 . S
H462 C478 0.959 . S
H463 C478 0.959 . S
H464 C478 0.961 . S
H465 C479 0.960 . S
H466 C479 0.961 . S
H467 C479 0.959 . S
H468 C482 0.929 . S
H469 C483 0.931 . S
H470 C485 0.930 . S
C471 H459 0.930 . S
C471 C472 1.399 . S
C471 C476 1.399 . S
C472 C471 1.399 . S
C472 C473 1.376 . S
C473 H460 0.930 . S
C473 C472 1.376 . S
C473 C474 1.388 . S
C474 H461 0.930 . S
C474 C473 1.388 . S
C474 C475 1.390 . S
C475 C474 1.390 . S
C475 C476 1.394 . S
C475 C481 1.465 . S
C476 C471 1.399 . S
C476 C475 1.394 . S
C476 C477 1.516 . S
C477 C476 1.516 . S
C477 C478 1.502 . S
C477 C479 1.561 . S
C477 C480 1.526 . S
C478 H462 0.959 . S
C478 H463 0.959 . S
C478 H464 0.961 . S
C478 C477 1.502 . S
C479 H465 0.960 . S
C479 H466 0.961 . S
C479 H467 0.959 . S
C479 C477 1.561 . S
C480 C477 1.526 . S
C480 C481 1.396 . S
C480 C485 1.390 . S
C481 C475 1.465 . S
C481 C480 1.396 . S
C481 C482 1.399 . S
C482 H468 0.929 . S
C482 C481 1.399 . S
C482 C483 1.385 . S
C483 H469 0.931 . S
C483 C482 1.385 . S
C483 C484 1.389 . S
C484 C483 1.389 . S
C484 C485 1.387 . S
C485 H470 0.930 . S
C485 C480 1.390 . S
C485 C484 1.387 . S
H486 C498 0.930 . S
H487 C500 0.930 . S
H488 C501 0.930 . S
H489 C505 0.959 . S
H490 C505 0.959 . S
H491 C505 0.961 . S
H492 C506 0.960 . S
H493 C506 0.961 . S
H494 C506 0.959 . S
H495 C509 0.929 . S
H496 C510 0.931 . S
H497 C512 0.930 . S
C498 H486 0.930 . S
C498 C499 1.399 . S
C498 C503 1.399 . S
C499 C498 1.399 . S
C499 C500 1.376 . S
C500 H487 0.930 . S
C500 C499 1.376 . S
C500 C501 1.388 . S
C501 H488 0.930 . S
C501 C500 1.388 . S
C501 C502 1.390 . S
C502 C501 1.390 . S
C502 C503 1.394 . S
C502 C508 1.465 . S
C503 C498 1.399 . S
C503 C502 1.394 . S
C503 C504 1.516 . S
C504 C503 1.516 . S
C504 C505 1.502 . S
C504 C506 1.561 . S
C504 C507 1.526 . S
C505 H489 0.959 . S
C505 H490 0.959 . S
C505 H491 0.961 . S
C505 C504 1.502 . S
C506 H492 0.960 . S
C506 H493 0.961 . S
C506 H494 0.959 . S
C506 C504 1.561 . S
C507 C504 1.526 . S
C507 C508 1.396 . S
C507 C512 1.390 . S
C508 C502 1.465 . S
C508 C507 1.396 . S
C508 C509 1.399 . S
C509 H495 0.929 . S
C509 C508 1.399 . S
C509 C510 1.385 . S
C510 H496 0.931 . S
C510 C509 1.385 . S
C510 C511 1.389 . S
C511 C510 1.389 . S
C511 C512 1.387 . S
C512 H497 0.930 . S
C512 C507 1.390 . S
C512 C511 1.387 . S
H513 C525 0.930 1_556 S
H514 C527 0.930 . S
H515 C528 0.930 . S
H516 C532 0.959 . S
H517 C532 0.959 . S
H518 C532 0.961 . S
H519 C533 0.960 . S
H520 C533 0.961 . S
H521 C533 0.959 . S
H522 C536 0.929 . S
H523 C537 0.932 . S
H524 C539 0.930 . S
C525 H513 0.930 1_554 S
C525 C526 1.399 . S
C525 C530 1.400 1_554 S
C526 C525 1.399 . S
C526 C527 1.376 . S
C527 H514 0.930 . S
C527 C526 1.376 . S
C527 C528 1.388 . S
C528 H515 0.930 . S
C528 C527 1.388 . S
C528 C529 1.390 . S
C529 C528 1.390 . S
C529 C530 1.397 1_554 S
C529 C535 1.465 . S
C530 C525 1.400 1_556 S
C530 C529 1.397 1_556 S
C530 C531 1.512 . S
C531 C530 1.512 . S
C531 C532 1.502 . S
C531 C533 1.561 . S
C531 C534 1.526 . S
C532 H516 0.959 . S
C532 H517 0.959 . S
C532 H518 0.961 . S
C532 C531 1.502 . S
C533 H519 0.960 . S
C533 H520 0.961 . S
C533 H521 0.959 . S
C533 C531 1.561 . S
C534 C531 1.526 . S
C534 C535 1.396 1_556 S
C534 C539 1.390 . S
C535 C529 1.465 . S
C535 C534 1.396 1_554 S
C535 C536 1.399 . S
C536 H522 0.929 . S
C536 C535 1.399 . S
C536 C537 1.385 1_554 S
C537 H523 0.932 . S
C537 C536 1.385 1_556 S
C537 C538 1.389 . S
C538 C537 1.389 . S
C538 C539 1.387 . S
C539 H524 0.930 . S
C539 C534 1.390 . S
C539 C538 1.387 . S
H540 C552 0.930 . S
H541 C554 0.930 . S
H542 C555 0.930 . S
H543 C559 0.959 . S
H544 C559 0.959 . S
H545 C559 0.961 . S
H546 C560 0.960 . S
H547 C560 0.961 . S
H548 C560 0.959 . S
H549 C563 0.929 . S
H550 C564 0.931 . S
H551 C566 0.930 . S
C552 H540 0.930 . S
C552 C553 1.399 . S
C552 C557 1.399 . S
C553 C552 1.399 . S
C553 C554 1.376 . S
C554 H541 0.930 . S
C554 C553 1.376 . S
C554 C555 1.388 . S
C555 H542 0.930 . S
C555 C554 1.388 . S
C555 C556 1.390 . S
C556 C555 1.390 . S
C556 C557 1.394 . S
C556 C562 1.465 . S
C557 C552 1.399 . S
C557 C556 1.394 . S
C557 C558 1.516 . S
C558 C557 1.516 . S
C558 C559 1.502 . S
C558 C560 1.561 . S
C558 C561 1.526 . S
C559 H543 0.959 . S
C559 H544 0.959 . S
C559 H545 0.961 . S
C559 C558 1.502 . S
C560 H546 0.960 . S
C560 H547 0.961 . S
C560 H548 0.959 . S
C560 C558 1.561 . S
C561 C558 1.526 . S
C561 C562 1.396 . S
C561 C566 1.390 . S
C562 C556 1.465 . S
C562 C561 1.396 . S
C562 C563 1.399 . S
C563 H549 0.929 . S
C563 C562 1.399 . S
C563 C564 1.385 . S
C564 H550 0.931 . S
C564 C563 1.385 . S
C564 C565 1.389 . S
C565 C564 1.389 . S
C565 C566 1.387 . S
C566 H551 0.930 . S
C566 C561 1.390 . S
C566 C565 1.387 . S
H567 C579 0.930 . S
H568 C581 0.930 . S
H569 C582 0.930 . S
H570 C586 0.959 . S
H571 C586 0.959 . S
H572 C586 0.961 . S
H573 C587 0.960 . S
H574 C587 0.961 . S
H575 C587 0.959 . S
H576 C590 0.929 . S
H577 C591 0.931 . S
H578 C593 0.930 . S
C579 H567 0.930 . S
C579 C580 1.399 . S
C579 C584 1.399 . S
C580 C579 1.399 . S
C580 C581 1.376 . S
C581 H568 0.930 . S
C581 C580 1.376 . S
C581 C582 1.388 . S
C582 H569 0.930 . S
C582 C581 1.388 . S
C582 C583 1.390 . S
C583 C582 1.390 . S
C583 C584 1.394 . S
C583 C589 1.465 . S
C584 C579 1.399 . S
C584 C583 1.394 . S
C584 C585 1.516 . S
C585 C584 1.516 . S
C585 C586 1.502 . S
C585 C587 1.561 . S
C585 C588 1.526 . S
C586 H570 0.959 . S
C586 H571 0.959 . S
C586 H572 0.961 . S
C586 C585 1.502 . S
C587 H573 0.960 . S
C587 H574 0.961 . S
C587 H575 0.959 . S
C587 C585 1.561 . S
C588 C585 1.526 . S
C588 C589 1.396 . S
C588 C593 1.390 . S
C589 C583 1.465 . S
C589 C588 1.396 . S
C589 C590 1.399 . S
C590 H576 0.929 . S
C590 C589 1.399 . S
C590 C591 1.385 . S
C591 H577 0.931 . S
C591 C590 1.385 . S
C591 C592 1.389 . S
C592 C591 1.389 . S
C592 C593 1.387 . S
C593 H578 0.930 . S
C593 C588 1.390 . S
C593 C592 1.387 . S
H594 C606 0.930 . S
H595 C608 0.930 . S
H596 C609 0.930 1_556 S
H597 C613 0.959 . S
H598 C613 0.959 . S
H599 C613 0.961 . S
H600 C614 0.960 . S
H601 C614 0.961 . S
H602 C614 0.959 . S
H603 C617 0.929 . S
H604 C618 0.931 . S
H605 C620 0.930 . S
C606 H594 0.930 . S
C606 C607 1.399 . S
C606 C611 1.399 . S
C607 C606 1.399 . S
C607 C608 1.376 . S
C608 H595 0.930 . S
C608 C607 1.376 . S
C608 C609 1.388 . S
C609 H596 0.930 1_554 S
C609 C608 1.388 . S
C609 C610 1.390 . S
C610 C609 1.390 . S
C610 C611 1.394 . S
C610 C616 1.465 1_554 S
C611 C606 1.399 . S
C611 C610 1.394 . S
C611 C612 1.516 1_545 S
C612 C611 1.516 1_565 S
C612 C613 1.502 . S
C612 C614 1.561 . S
C612 C615 1.526 1_554 S
C613 H597 0.959 . S
C613 H598 0.959 . S
C613 H599 0.961 . S
C613 C612 1.502 . S
C614 H600 0.960 . S
C614 H601 0.961 . S
C614 H602 0.959 . S
C614 C612 1.561 . S
C615 C612 1.526 1_556 S
C615 C616 1.396 1_565 S
C615 C620 1.390 . S
C616 C610 1.465 1_556 S
C616 C615 1.396 1_545 S
C616 C617 1.399 . S
C617 H603 0.929 . S
C617 C616 1.399 . S
C617 C618 1.385 1_545 S
C618 H604 0.931 . S
C618 C617 1.385 1_565 S
C618 C619 1.389 . S
C619 C618 1.389 . S
C619 C620 1.387 . S
C620 H605 0.930 . S
C620 C615 1.390 . S
C620 C619 1.387 . S
H621 C633 0.930 . S
H622 C635 0.930 . S
H623 C636 0.930 . S
H624 C640 0.959 . S
H625 C640 0.959 . S
H626 C640 0.961 . S
H627 C641 0.960 . S
H628 C641 0.961 . S
H629 C641 0.959 . S
H630 C644 0.929 . S
H631 C645 0.931 . S
H632 C647 0.930 . S
C633 H621 0.930 . S
C633 C634 1.399 . S
C633 C638 1.399 . S
C634 C633 1.399 . S
C634 C635 1.376 . S
C635 H622 0.930 . S
C635 C634 1.376 . S
C635 C636 1.388 . S
C636 H623 0.930 . S
C636 C635 1.388 . S
C636 C637 1.390 . S
C637 C636 1.390 . S
C637 C638 1.394 . S
C637 C643 1.465 . S
C638 C633 1.399 . S
C638 C637 1.394 . S
C638 C639 1.516 . S
C639 C638 1.516 . S
C639 C640 1.502 . S
C639 C641 1.561 . S
C639 C642 1.526 . S
C640 H624 0.959 . S
C640 H625 0.959 . S
C640 H626 0.961 . S
C640 C639 1.502 . S
C641 H627 0.960 . S
C641 H628 0.961 . S
C641 H629 0.959 . S
C641 C639 1.561 . S
C642 C639 1.526 . S
C642 C643 1.396 . S
C642 C647 1.390 . S
C643 C637 1.465 . S
C643 C642 1.396 . S
C643 C644 1.399 . S
C644 H630 0.929 . S
C644 C643 1.399 . S
C644 C645 1.385 . S
C645 H631 0.931 . S
C645 C644 1.385 . S
C645 C646 1.389 . S
C646 C645 1.389 . S
C646 C647 1.387 . S
C647 H632 0.930 . S
C647 C642 1.390 . S
C647 C646 1.387 . S
H648 C660 0.930 . S
H649 C662 0.930 . S
H650 C663 0.930 . S
H651 C667 0.959 . S
H652 C667 0.959 . S
H653 C667 0.961 . S
H654 C668 0.960 . S
H655 C668 0.961 . S
H656 C668 0.959 . S
H657 C671 0.929 . S
H658 C672 0.931 . S
H659 C674 0.930 . S
C660 H648 0.930 . S
C660 C661 1.399 . S
C660 C665 1.399 . S
C661 C660 1.399 . S
C661 C662 1.376 . S
C662 H649 0.930 . S
C662 C661 1.376 . S
C662 C663 1.388 . S
C663 H650 0.930 . S
C663 C662 1.388 . S
C663 C664 1.390 . S
C664 C663 1.390 . S
C664 C665 1.394 . S
C664 C670 1.465 . S
C665 C660 1.399 . S
C665 C664 1.394 . S
C665 C666 1.516 1_455 S
C666 C665 1.516 1_655 S
C666 C667 1.502 . S
C666 C668 1.561 . S
C666 C669 1.526 . S
C667 H651 0.959 . S
C667 H652 0.959 . S
C667 H653 0.961 . S
C667 C666 1.502 . S
C668 H654 0.960 . S
C668 H655 0.961 . S
C668 H656 0.959 . S
C668 C666 1.561 . S
C669 C666 1.526 . S
C669 C670 1.396 1_655 S
C669 C674 1.390 . S
C670 C664 1.465 . S
C670 C669 1.396 1_455 S
C670 C671 1.399 . S
C671 H657 0.929 . S
C671 C670 1.399 . S
C671 C672 1.385 1_455 S
C672 H658 0.931 . S
C672 C671 1.385 1_655 S
C672 C673 1.389 . S
C673 C672 1.389 . S
C673 C674 1.387 . S
C674 H659 0.930 . S
C674 C669 1.390 . S
C674 C673 1.387 . S
H675 C687 0.930 . S
H676 C689 0.930 . S
H677 C690 0.930 1_556 S
H678 C694 0.959 . S
H679 C694 0.959 . S
H680 C694 0.961 . S
H681 C695 0.960 . S
H682 C695 0.961 . S
H683 C695 0.959 . S
H684 C698 0.929 . S
H685 C699 0.931 . S
H686 C701 0.930 . S
C687 H675 0.930 . S
C687 C688 1.399 . S
C687 C692 1.399 . S
C688 C687 1.399 . S
C688 C689 1.376 . S
C689 H676 0.930 . S
C689 C688 1.376 . S
C689 C690 1.388 . S
C690 H677 0.930 1_554 S
C690 C689 1.388 . S
C690 C691 1.390 . S
C691 C690 1.390 . S
C691 C692 1.394 . S
C691 C697 1.465 1_564 S
C692 C687 1.399 . S
C692 C691 1.394 . S
C692 C693 1.516 1_565 S
C693 C692 1.516 1_545 S
C693 C694 1.502 . S
C693 C695 1.561 . S
C693 C696 1.526 1_554 S
C694 H678 0.959 . S
C694 H679 0.959 . S
C694 H680 0.961 . S
C694 C693 1.502 . S
C695 H681 0.960 . S
C695 H682 0.961 . S
C695 H683 0.959 . S
C695 C693 1.561 . S
C696 C693 1.526 1_556 S
C696 C697 1.396 . S
C696 C701 1.390 . S
C697 C691 1.465 1_546 S
C697 C696 1.396 . S
C697 C698 1.399 1_545 S
C698 H684 0.929 . S
C698 C697 1.399 1_565 S
C698 C699 1.385 1_565 S
C699 H685 0.931 . S
C699 C698 1.385 1_545 S
C699 C700 1.389 . S
C700 C699 1.389 . S
C700 C701 1.387 . S
C701 H686 0.930 . S
C701 C696 1.390 . S
C701 C700 1.387 . S
H702 C714 0.930 . S
H703 C716 0.930 . S
H704 C717 0.930 . S
H705 C721 0.959 . S
H706 C721 0.959 . S
H707 C721 0.961 . S
H708 C722 0.960 . S
H709 C722 0.961 . S
H710 C722 0.959 . S
H711 C725 0.929 . S
H712 C726 0.931 . S
H713 C728 0.930 . S
C714 H702 0.930 . S
C714 C715 1.399 . S
C714 C719 1.399 . S
C715 C714 1.399 . S
C715 C716 1.376 . S
C716 H703 0.930 . S
C716 C715 1.376 . S
C716 C717 1.388 . S
C717 H704 0.930 . S
C717 C716 1.388 . S
C717 C718 1.390 . S
C718 C717 1.390 . S
C718 C719 1.394 . S
C718 C724 1.465 . S
C719 C714 1.399 . S
C719 C718 1.394 . S
C719 C720 1.516 . S
C720 C719 1.516 . S
C720 C721 1.502 . S
C720 C722 1.561 . S
C720 C723 1.526 . S
C721 H705 0.959 . S
C721 H706 0.959 . S
C721 H707 0.961 . S
C721 C720 1.502 . S
C722 H708 0.960 . S
C722 H709 0.961 . S
C722 H710 0.959 . S
C722 C720 1.561 . S
C723 C720 1.526 . S
C723 C724 1.396 . S
C723 C728 1.390 . S
C724 C718 1.465 . S
C724 C723 1.396 . S
C724 C725 1.399 . S
C725 H711 0.929 . S
C725 C724 1.399 . S
C725 C726 1.385 . S
C726 H712 0.931 . S
C726 C725 1.385 . S
C726 C727 1.389 . S
C727 C726 1.389 . S
C727 C728 1.387 . S
C728 H713 0.930 . S
C728 C723 1.390 . S
C728 C727 1.387 . S
H729 C741 0.930 . S
H730 C743 0.930 . S
H731 C744 0.930 . S
H732 C748 0.959 . S
H733 C748 0.959 . S
H734 C748 0.961 . S
H735 C749 0.960 . S
H736 C749 0.961 . S
H737 C749 0.959 . S
H738 C752 0.929 . S
H739 C753 0.931 . S
H740 C755 0.930 . S
C741 H729 0.930 . S
C741 C742 1.399 . S
C741 C746 1.399 . S
C742 C741 1.399 . S
C742 C743 1.376 . S
C743 H730 0.930 . S
C743 C742 1.376 . S
C743 C744 1.388 . S
C744 H731 0.930 . S
C744 C743 1.388 . S
C744 C745 1.390 . S
C745 C744 1.390 . S
C745 C746 1.394 . S
C745 C751 1.465 1_455 S
C746 C741 1.399 . S
C746 C745 1.394 . S
C746 C747 1.516 . S
C747 C746 1.516 . S
C747 C748 1.502 . S
C747 C749 1.561 1_455 S
C747 C750 1.526 1_455 S
C748 H732 0.959 . S
C748 H733 0.959 . S
C748 H734 0.961 . S
C748 C747 1.502 . S
C749 H735 0.960 . S
C749 H736 0.961 . S
C749 H737 0.959 . S
C749 C747 1.561 1_655 S
C750 C747 1.526 1_655 S
C750 C751 1.396 . S
C750 C755 1.390 . S
C751 C745 1.465 1_655 S
C751 C750 1.396 . S
C751 C752 1.399 . S
C752 H738 0.929 . S
C752 C751 1.399 . S
C752 C753 1.385 . S
C753 H739 0.931 . S
C753 C752 1.385 . S
C753 C754 1.389 . S
C754 C753 1.389 . S
C754 C755 1.387 . S
C755 H740 0.930 . S
C755 C750 1.390 . S
C755 C754 1.387 . S
H756 C768 0.930 . S
H757 C770 0.930 . S
H758 C771 0.930 . S
H759 C775 0.959 . S
H760 C775 0.959 . S
H761 C775 0.961 . S
H762 C776 0.960 . S
H763 C776 0.961 . S
H764 C776 0.959 . S
H765 C779 0.929 . S
H766 C780 0.931 . S
H767 C782 0.930 . S
C768 H756 0.930 . S
C768 C769 1.399 . S
C768 C773 1.399 . S
C769 C768 1.399 . S
C769 C770 1.376 . S
C770 H757 0.930 . S
C770 C769 1.376 . S
C770 C771 1.388 . S
C771 H758 0.930 . S
C771 C770 1.388 . S
C771 C772 1.390 . S
C772 C771 1.390 . S
C772 C773 1.394 . S
C772 C778 1.465 1_565 S
C773 C768 1.399 . S
C773 C772 1.394 . S
C773 C774 1.516 1_565 S
C774 C773 1.516 1_545 S
C774 C775 1.502 . S
C774 C776 1.561 1_545 S
C774 C777 1.526 . S
C775 H759 0.959 . S
C775 H760 0.959 . S
C775 H761 0.961 . S
C775 C774 1.502 . S
C776 H762 0.960 . S
C776 H763 0.961 . S
C776 H764 0.959 . S
C776 C774 1.561 1_565 S
C777 C774 1.526 . S
C777 C778 1.396 . S
C777 C782 1.390 . S
C778 C772 1.465 1_545 S
C778 C777 1.396 . S
C778 C779 1.399 . S
C779 H765 0.929 . S
C779 C778 1.399 . S
C779 C780 1.385 . S
C780 H766 0.931 . S
C780 C779 1.385 . S
C780 C781 1.389 . S
C781 C780 1.389 . S
C781 C782 1.387 . S
C782 H767 0.930 . S
C782 C777 1.390 . S
C782 C781 1.387 . S
H783 C795 0.930 . S
H784 C797 0.930 . S
H785 C798 0.930 . S
H786 C802 0.959 . S
H787 C802 0.959 . S
H788 C802 0.961 . S
H789 C803 0.960 . S
H790 C803 0.961 . S
H791 C803 0.959 . S
H792 C806 0.929 . S
H793 C807 0.931 . S
H794 C809 0.930 . S
C795 H783 0.930 . S
C795 C796 1.399 . S
C795 C800 1.399 . S
C796 C795 1.399 . S
C796 C797 1.376 . S
C797 H784 0.930 . S
C797 C796 1.376 . S
C797 C798 1.388 . S
C798 H785 0.930 . S
C798 C797 1.388 . S
C798 C799 1.390 . S
C799 C798 1.390 . S
C799 C800 1.394 . S
C799 C805 1.465 . S
C800 C795 1.399 . S
C800 C799 1.394 . S
C800 C801 1.516 . S
C801 C800 1.516 . S
C801 C802 1.502 . S
C801 C803 1.561 . S
C801 C804 1.526 . S
C802 H786 0.959 . S
C802 H787 0.959 . S
C802 H788 0.961 . S
C802 C801 1.502 . S
C803 H789 0.960 . S
C803 H790 0.961 . S
C803 H791 0.959 . S
C803 C801 1.561 . S
C804 C801 1.526 . S
C804 C805 1.396 . S
C804 C809 1.390 . S
C805 C799 1.465 . S
C805 C804 1.396 . S
C805 C806 1.399 . S
C806 H792 0.929 . S
C806 C805 1.399 . S
C806 C807 1.385 . S
C807 H793 0.931 . S
C807 C806 1.385 . S
C807 C808 1.389 . S
C808 C807 1.389 . S
C808 C809 1.387 . S
C809 H794 0.930 . S
C809 C804 1.390 . S
C809 C808 1.387 . S
H810 C822 0.930 . S
H811 C824 0.930 . S
H812 C825 0.930 . S
H813 C829 0.959 . S
H814 C829 0.959 . S
H815 C829 0.961 . S
H816 C830 0.960 . S
H817 C830 0.969 . S
H818 C830 0.959 1_655 S
H819 C833 0.929 . S
H820 C834 0.931 . S
H821 C836 0.930 . S
C822 H810 0.930 . S
C822 C823 1.399 . S
C822 C827 1.399 . S
C823 C822 1.399 . S
C823 C824 1.376 . S
C824 H811 0.930 . S
C824 C823 1.376 . S
C824 C825 1.388 1_455 S
C825 H812 0.930 . S
C825 C824 1.388 1_655 S
C825 C826 1.390 . S
C826 C825 1.390 . S
C826 C827 1.394 1_655 S
C826 C832 1.465 . S
C827 C822 1.399 . S
C827 C826 1.394 1_455 S
C827 C828 1.516 . S
C828 C827 1.516 . S
C828 C829 1.502 . S
C828 C830 1.561 . S
C828 C831 1.526 1_455 S
C829 H813 0.959 . S
C829 H814 0.959 . S
C829 H815 0.961 . S
C829 C828 1.502 . S
C830 H816 0.960 . S
C830 H817 0.969 . S
C830 H818 0.959 1_455 S
C830 C828 1.561 . S
C831 C828 1.526 1_655 S
C831 C832 1.396 . S
C831 C836 1.390 . S
C832 C826 1.465 . S
C832 C831 1.396 . S
C832 C833 1.399 . S
C833 H819 0.929 . S
C833 C832 1.399 . S
C833 C834 1.385 . S
C834 H820 0.931 . S
C834 C833 1.385 . S
C834 C835 1.389 . S
C835 C834 1.389 . S
C835 C836 1.387 . S
C836 H821 0.930 . S
C836 C831 1.390 . S
C836 C835 1.387 . S
H837 C849 0.930 . S
H838 C851 0.930 . S
H839 C852 0.930 . S
H840 C856 0.959 . S
H841 C856 0.959 . S
H842 C856 0.961 . S
H843 C857 0.960 . S
H844 C857 0.961 . S
H845 C857 0.959 . S
H846 C860 0.929 . S
H847 C861 0.931 . S
H848 C863 0.930 . S
C849 H837 0.930 . S
C849 C850 1.399 . S
C849 C854 1.399 . S
C850 C849 1.399 . S
C850 C851 1.376 . S
C851 H838 0.930 . S
C851 C850 1.376 . S
C851 C852 1.388 . S
C852 H839 0.930 . S
C852 C851 1.388 . S
C852 C853 1.390 . S
C853 C852 1.390 . S
C853 C854 1.394 . S
C853 C859 1.465 1_655 S
C854 C849 1.399 . S
C854 C853 1.394 . S
C854 C855 1.516 . S
C855 C854 1.516 . S
C855 C856 1.502 . S
C855 C857 1.561 1_655 S
C855 C858 1.526 1_655 S
C856 H840 0.959 . S
C856 H841 0.959 . S
C856 H842 0.961 . S
C856 C855 1.502 . S
C857 H843 0.960 . S
C857 H844 0.961 . S
C857 H845 0.959 . S
C857 C855 1.561 1_455 S
C858 C855 1.526 1_455 S
C858 C859 1.396 . S
C858 C863 1.390 . S
C859 C853 1.465 1_455 S
C859 C858 1.396 . S
C859 C860 1.399 . S
C860 H846 0.929 . S
C860 C859 1.399 . S
C860 C861 1.385 . S
C861 H847 0.931 . S
C861 C860 1.385 . S
C861 C862 1.389 . S
C862 C861 1.389 . S
C862 C863 1.387 . S
C863 H848 0.930 . S
C863 C858 1.390 . S
C863 C862 1.387 . S
H864 C876 0.930 . S
H865 C878 0.930 . S
H866 C879 0.930 . S
H867 C883 0.959 . S
H868 C883 0.959 . S
H869 C883 0.961 . S
H870 C884 0.960 . S
H871 C884 0.961 . S
H872 C884 0.959 . S
H873 C887 0.929 1_565 S
H874 C888 0.931 . S
H875 C890 0.930 . S
C876 H864 0.930 . S
C876 C877 1.399 . S
C876 C881 1.399 . S
C877 C876 1.399 . S
C877 C878 1.376 . S
C878 H865 0.930 . S
C878 C877 1.376 . S
C878 C879 1.388 . S
C879 H866 0.930 . S
C879 C878 1.388 . S
C879 C880 1.390 . S
C880 C879 1.390 . S
C880 C881 1.394 . S
C880 C886 1.465 1_565 S
C881 C876 1.399 . S
C881 C880 1.394 . S
C881 C882 1.516 1_565 S
C882 C881 1.516 1_545 S
C882 C883 1.502 . S
C882 C884 1.561 1_545 S
C882 C885 1.526 . S
C883 H867 0.959 . S
C883 H868 0.959 . S
C883 H869 0.961 . S
C883 C882 1.502 . S
C884 H870 0.960 . S
C884 H871 0.961 . S
C884 H872 0.959 . S
C884 C882 1.561 1_565 S
C885 C882 1.526 . S
C885 C886 1.396 . S
C885 C890 1.390 . S
C886 C880 1.465 1_545 S
C886 C885 1.396 . S
C886 C887 1.399 . S
C887 H873 0.929 1_545 S
C887 C886 1.399 . S
C887 C888 1.385 . S
C888 H874 0.931 . S
C888 C887 1.385 . S
C888 C889 1.389 . S
C889 C888 1.389 . S
C889 C890 1.387 . S
C890 H875 0.930 . S
C890 C885 1.390 . S
C890 C889 1.387 . S
H891 C903 0.930 . S
H892 C905 0.930 . S
H893 C906 0.930 . S
H894 C910 0.959 . S
H895 C910 0.959 . S
H896 C910 0.961 . S
H897 C911 0.960 . S
H898 C911 0.961 . S
H899 C911 0.959 . S
H900 C914 0.929 . S
H901 C915 0.931 . S
H902 C917 0.930 . S
C903 H891 0.930 . S
C903 C904 1.399 . S
C903 C908 1.399 . S
C904 C903 1.399 . S
C904 C905 1.376 . S
C905 H892 0.930 . S
C905 C904 1.376 . S
C905 C906 1.388 . S
C906 H893 0.930 . S
C906 C905 1.388 . S
C906 C907 1.390 . S
C907 C906 1.390 . S
C907 C908 1.394 . S
C907 C913 1.465 . S
C908 C903 1.399 . S
C908 C907 1.394 . S
C908 C909 1.516 . S
C909 C908 1.516 . S
C909 C910 1.502 . S
C909 C911 1.561 . S
C909 C912 1.526 . S
C910 H894 0.959 . S
C910 H895 0.959 . S
C910 H896 0.961 . S
C910 C909 1.502 . S
C911 H897 0.960 . S
C911 H898 0.961 . S
C911 H899 0.959 . S
C911 C909 1.561 . S
C912 C909 1.526 . S
C912 C913 1.396 . S
C912 C917 1.390 . S
C913 C907 1.465 . S
C913 C912 1.396 . S
C913 C914 1.399 . S
C914 H900 0.929 . S
C914 C913 1.399 . S
C914 C915 1.385 . S
C915 H901 0.931 . S
C915 C914 1.385 . S
C915 C916 1.389 . S
C916 C915 1.389 . S
C916 C917 1.387 . S
C917 H902 0.930 . S
C917 C912 1.390 . S
C917 C916 1.387 . S
H918 C930 0.930 . S
H919 C932 0.930 . S
H920 C933 0.930 . S
H921 C937 0.959 . S
H922 C937 0.959 . S
H923 C937 0.961 . S
H924 C938 0.960 . S
H925 C938 0.961 . S
H926 C938 0.959 . S
H927 C941 0.929 . S
H928 C942 0.931 . S
H929 C944 0.930 . S
C930 H918 0.930 . S
C930 C931 1.399 . S
C930 C935 1.399 . S
C931 C930 1.399 . S
C931 C932 1.376 . S
C932 H919 0.930 . S
C932 C931 1.376 . S
C932 C933 1.388 . S
C933 H920 0.930 . S
C933 C932 1.388 . S
C933 C934 1.390 . S
C934 C933 1.390 . S
C934 C935 1.394 . S
C934 C940 1.465 . S
C935 C930 1.399 . S
C935 C934 1.394 . S
C935 C936 1.516 . S
C936 C935 1.516 . S
C936 C937 1.502 . S
C936 C938 1.561 . S
C936 C939 1.526 . S
C937 H921 0.959 . S
C937 H922 0.959 . S
C937 H923 0.961 . S
C937 C936 1.502 . S
C938 H924 0.960 . S
C938 H925 0.961 . S
C938 H926 0.959 . S
C938 C936 1.561 . S
C939 C936 1.526 . S
C939 C940 1.396 . S
C939 C944 1.390 . S
C940 C934 1.465 . S
C940 C939 1.396 . S
C940 C941 1.399 . S
C941 H927 0.929 . S
C941 C940 1.399 . S
C941 C942 1.385 . S
C942 H928 0.931 . S
C942 C941 1.385 . S
C942 C943 1.389 . S
C943 C942 1.389 . S
C943 C944 1.387 . S
C944 H929 0.930 . S
C944 C939 1.390 . S
C944 C943 1.387 . S
H945 C957 0.930 . S
H946 C959 0.930 . S
H947 C960 0.930 . S
H948 C964 0.959 . S
H949 C964 0.959 . S
H950 C964 0.961 . S
H951 C965 0.960 . S
H952 C965 0.961 . S
H953 C965 0.959 . S
H954 C968 0.929 . S
H955 C969 0.931 . S
H956 C971 0.930 . S
C957 H945 0.930 . S
C957 C958 1.399 . S
C957 C962 1.399 . S
C958 C957 1.399 . S
C958 C959 1.376 . S
C959 H946 0.930 . S
C959 C958 1.376 . S
C959 C960 1.388 . S
C960 H947 0.930 . S
C960 C959 1.388 . S
C960 C961 1.390 . S
C961 C960 1.390 . S
C961 C962 1.394 . S
C961 C967 1.465 . S
C962 C957 1.399 . S
C962 C961 1.394 . S
C962 C963 1.516 . S
C963 C962 1.516 . S
C963 C964 1.502 . S
C963 C965 1.561 . S
C963 C966 1.526 . S
C964 H948 0.959 . S
C964 H949 0.959 . S
C964 H950 0.961 . S
C964 C963 1.502 . S
C965 H951 0.960 . S
C965 H952 0.961 . S
C965 H953 0.959 . S
C965 C963 1.561 . S
C966 C963 1.526 . S
C966 C967 1.396 . S
C966 C971 1.390 . S
C967 C961 1.465 . S
C967 C966 1.396 . S
C967 C968 1.399 . S
C968 H954 0.929 . S
C968 C967 1.399 . S
C968 C969 1.385 . S
C969 H955 0.931 . S
C969 C968 1.385 . S
C969 C970 1.389 . S
C970 C969 1.389 . S
C970 C971 1.387 . S
C971 H956 0.930 . S
C971 C966 1.390 . S
C971 C970 1.387 . S
H972 C984 0.930 . S
H973 C986 0.930 . S
H974 C987 0.930 . S
H975 C991 0.959 . S
H976 C991 0.959 . S
H977 C991 0.961 . S
H978 C992 0.960 . S
H979 C992 0.961 . S
H980 C992 0.959 . S
H981 C995 0.929 . S
H982 C996 0.931 . S
H983 C998 0.930 . S
C984 H972 0.930 . S
C984 C985 1.399 . S
C984 C989 1.399 . S
C985 C984 1.399 . S
C985 C986 1.376 . S
C986 H973 0.930 . S
C986 C985 1.376 . S
C986 C987 1.388 . S
C987 H974 0.930 . S
C987 C986 1.388 . S
C987 C988 1.390 . S
C988 C987 1.390 . S
C988 C989 1.394 . S
C988 C994 1.465 . S
C989 C984 1.399 . S
C989 C988 1.394 . S
C989 C990 1.516 . S
C990 C989 1.516 . S
C990 C991 1.502 . S
C990 C992 1.561 . S
C990 C993 1.526 . S
C991 H975 0.959 . S
C991 H976 0.959 . S
C991 H977 0.961 . S
C991 C990 1.502 . S
C992 H978 0.960 . S
C992 H979 0.961 . S
C992 H980 0.959 . S
C992 C990 1.561 . S
C993 C990 1.526 . S
C993 C994 1.396 . S
C993 C998 1.390 . S
C994 C988 1.465 . S
C994 C993 1.396 . S
C994 C995 1.399 . S
C995 H981 0.929 . S
C995 C994 1.399 . S
C995 C996 1.385 . S
C996 H982 0.931 . S
C996 C995 1.385 . S
C996 C997 1.389 . S
C997 C996 1.389 . S
C997 C998 1.387 . S
C998 H983 0.930 . S
C998 C993 1.390 . S
C998 C997 1.387 . S
H999 C1011 0.930 . S
H1000 C1013 0.930 . S
H1001 C1014 0.930 . S
H1002 C1018 0.959 . S
H1003 C1018 0.959 . S
H1004 C1018 0.961 . S
H1005 C1019 0.960 . S
H1006 C1019 0.961 . S
H1007 C1019 0.959 . S
H1008 C1022 0.929 . S
H1009 C1023 0.931 . S
H1010 C1025 0.930 . S
C1011 H999 0.930 . S
C1011 C1012 1.399 . S
C1011 C1016 1.399 . S
C1012 C1011 1.399 . S
C1012 C1013 1.376 . S
C1013 H1000 0.930 . S
C1013 C1012 1.376 . S
C1013 C1014 1.388 . S
C1014 H1001 0.930 . S
C1014 C1013 1.388 . S
C1014 C1015 1.390 . S
C1015 C1014 1.390 . S
C1015 C1016 1.394 . S
C1015 C1021 1.465 . S
C1016 C1011 1.399 . S
C1016 C1015 1.394 . S
C1016 C1017 1.516 . S
C1017 C1016 1.516 . S
C1017 C1018 1.502 . S
C1017 C1019 1.561 . S
C1017 C1020 1.526 . S
C1018 H1002 0.959 . S
C1018 H1003 0.959 . S
C1018 H1004 0.961 . S
C1018 C1017 1.502 . S
C1019 H1005 0.960 . S
C1019 H1006 0.961 . S
C1019 H1007 0.959 . S
C1019 C1017 1.561 . S
C1020 C1017 1.526 . S
C1020 C1021 1.396 . S
C1020 C1025 1.390 . S
C1021 C1015 1.465 . S
C1021 C1020 1.396 . S
C1021 C1022 1.399 . S
C1022 H1008 0.929 . S
C1022 C1021 1.399 . S
C1022 C1023 1.385 . S
C1023 H1009 0.931 . S
C1023 C1022 1.385 . S
C1023 C1024 1.389 . S
C1024 C1023 1.389 . S
C1024 C1025 1.387 . S
C1025 H1010 0.930 . S
C1025 C1020 1.390 . S
C1025 C1024 1.387 . S
H1026 C1038 0.930 . S
H1027 C1040 0.930 . S
H1028 C1041 0.930 . S
H1029 C1045 0.959 . S
H1030 C1045 0.959 . S
H1031 C1045 0.961 . S
H1032 C1046 0.960 . S
H1033 C1046 0.961 . S
H1034 C1046 0.959 . S
H1035 C1049 0.929 . S
H1036 C1050 0.931 . S
H1037 C1052 0.930 . S
C1038 H1026 0.930 . S
C1038 C1039 1.399 . S
C1038 C1043 1.399 . S
C1039 C1038 1.399 . S
C1039 C1040 1.376 . S
C1040 H1027 0.930 . S
C1040 C1039 1.376 . S
C1040 C1041 1.388 . S
C1041 H1028 0.930 . S
C1041 C1040 1.388 . S
C1041 C1042 1.390 . S
C1042 C1041 1.390 . S
C1042 C1043 1.394 . S
C1042 C1048 1.465 . S
C1043 C1038 1.399 . S
C1043 C1042 1.394 . S
C1043 C1044 1.516 . S
C1044 C1043 1.516 . S
C1044 C1045 1.502 . S
C1044 C1046 1.561 . S
C1044 C1047 1.526 . S
C1045 H1029 0.959 . S
C1045 H1030 0.959 . S
C1045 H1031 0.961 . S
C1045 C1044 1.502 . S
C1046 H1032 0.960 . S
C1046 H1033 0.961 . S
C1046 H1034 0.959 . S
C1046 C1044 1.561 . S
C1047 C1044 1.526 . S
C1047 C1048 1.396 . S
C1047 C1052 1.390 . S
C1048 C1042 1.465 . S
C1048 C1047 1.396 . S
C1048 C1049 1.399 . S
C1049 H1035 0.929 . S
C1049 C1048 1.399 . S
C1049 C1050 1.385 . S
C1050 H1036 0.931 . S
C1050 C1049 1.385 . S
C1050 C1051 1.389 . S
C1051 C1050 1.389 . S
C1051 C1052 1.387 . S
C1052 H1037 0.930 . S
C1052 C1047 1.390 . S
C1052 C1051 1.387 . S
H1053 C1065 0.930 . S
H1054 C1067 0.930 . S
H1055 C1068 0.930 . S
H1056 C1072 0.959 . S
H1057 C1072 0.959 . S
H1058 C1072 0.961 . S
H1059 C1073 0.960 . S
H1060 C1073 0.961 . S
H1061 C1073 0.959 . S
H1062 C1076 0.929 . S
H1063 C1077 0.931 . S
H1064 C1079 0.930 . S
C1065 H1053 0.930 . S
C1065 C1066 1.399 . S
C1065 C1070 1.399 . S
C1066 C1065 1.399 . S
C1066 C1067 1.376 . S
C1067 H1054 0.930 . S
C1067 C1066 1.376 . S
C1067 C1068 1.388 . S
C1068 H1055 0.930 . S
C1068 C1067 1.388 . S
C1068 C1069 1.390 . S
C1069 C1068 1.390 . S
C1069 C1070 1.394 . S
C1069 C1075 1.465 . S
C1070 C1065 1.399 . S
C1070 C1069 1.394 . S
C1070 C1071 1.516 . S
C1071 C1070 1.516 . S
C1071 C1072 1.502 . S
C1071 C1073 1.561 . S
C1071 C1074 1.526 . S
C1072 H1056 0.959 . S
C1072 H1057 0.959 . S
C1072 H1058 0.961 . S
C1072 C1071 1.502 . S
C1073 H1059 0.960 . S
C1073 H1060 0.961 . S
C1073 H1061 0.959 . S
C1073 C1071 1.561 . S
C1074 C1071 1.526 . S
C1074 C1075 1.396 . S
C1074 C1079 1.390 . S
C1075 C1069 1.465 . S
C1075 C1074 1.396 . S
C1075 C1076 1.399 . S
C1076 H1062 0.929 . S
C1076 C1075 1.399 . S
C1076 C1077 1.385 . S
C1077 H1063 0.931 . S
C1077 C1076 1.385 . S
C1077 C1078 1.389 . S
C1078 C1077 1.389 . S
C1078 C1079 1.387 . S
C1079 H1064 0.930 . S
C1079 C1074 1.390 . S
C1079 C1078 1.387 . S
C445 C14 2.446 . S
C457 C374 2.461 . S
C472 C398 2.199 . S
C484 C38 2.182 . S
C499 C218 2.256 . S
C511 C74 2.170 . S
C526 C122 2.374 . S
C538 C266 2.412 . S
C553 C146 2.243 . S
C565 C290 2.158 . S
C580 C326 2.192 . S
C592 C182 2.246 . S
C607 C4 0.711 . S
C619 C256 0.695 . S
C634 C291 0.625 . S
C646 C39 0.638 . S
C661 C327 0.711 . S
C673 C75 0.688 . S
C688 C112 0.777 . S
C700 C364 0.766 . S
C715 C399 0.623 . S
C727 C147 0.634 . S
C742 C183 0.733 . S
C754 C219 0.743 . S
C769 C110 1.980 . S
C781 C2 2.010 . S
C796 C158 2.460 . S
C808 C50 2.480 . S
C823 C194 2.501 . S
C835 C86 2.443 . S
C850 C230 2.527 . S
C862 C338 2.494 . S
C877 C254 1.978 . S
C889 C362 2.018 . S
C904 C302 2.416 . S
C916 C410 2.471 . S
C931 C292 1.298 . S
C943 C3 1.297 . S
C958 C328 1.314 . S
C970 C40 1.324 . S
C985 C363 1.297 . S
C997 C76 1.298 . S
C1012 C400 1.288 . S
C1024 C111 1.304 . S
C1039 C220 1.304 . S
C1051 C148 1.288 . S
C1066 C184 1.317 . S
C1078 C255 1.311 . S
