# Generated by pormake.
# Topology fnu, (5)-cn, num edge types: 1
# Building blocks:
#     Node 0, Type 0, BuildingBlock: XOMCOT_clean_sbu_0, # of connection points: 5
#     Node 1, Type 0, BuildingBlock: XOMCOT_clean_sbu_0, # of connection points: 5
#     Node 2, Type 0, BuildingBlock: XOMCOT_clean_sbu_0, # of connection points: 5
#     Node 3, Type 0, BuildingBlock: XOMCOT_clean_sbu_0, # of connection points: 5
#     Node 4, Type 0, BuildingBlock: XOMCOT_clean_sbu_0, # of connection points: 5
#     Node 5, Type 0, BuildingBlock: XOMCOT_clean_sbu_0, # of connection points: 5
#     Edge 6, Type (0, 0), BuildingBlock: OJICUG_clean_linker_0, # of connection points: 2
#     Edge 7, Type (0, 0), BuildingBlock: OJICUG_clean_linker_0, # of connection points: 2
#     Edge 8, Type (0, 0), BuildingBlock: OJICUG_clean_linker_0, # of connection points: 2
#     Edge 9, Type (0, 0), BuildingBlock: OJICUG_clean_linker_0, # of connection points: 2
#     Edge 10, Type (0, 0), BuildingBlock: OJICUG_clean_linker_0, # of connection points: 2
#     Edge 11, Type (0, 0), BuildingBlock: OJICUG_clean_linker_0, # of connection points: 2
#     Edge 12, Type (0, 0), BuildingBlock: OJICUG_clean_linker_0, # of connection points: 2
#     Edge 13, Type (0, 0), BuildingBlock: OJICUG_clean_linker_0, # of connection points: 2
#     Edge 14, Type (0, 0), BuildingBlock: OJICUG_clean_linker_0, # of connection points: 2
#     Edge 15, Type (0, 0), BuildingBlock: OJICUG_clean_linker_0, # of connection points: 2
#     Edge 16, Type (0, 0), BuildingBlock: OJICUG_clean_linker_0, # of connection points: 2
#     Edge 17, Type (0, 0), BuildingBlock: OJICUG_clean_linker_0, # of connection points: 2
#     Edge 18, Type (0, 0), BuildingBlock: OJICUG_clean_linker_0, # of connection points: 2
#     Edge 19, Type (0, 0), BuildingBlock: OJICUG_clean_linker_0, # of connection points: 2
#     Edge 20, Type (0, 0), BuildingBlock: OJICUG_clean_linker_0, # of connection points: 2
# Relax obj value: 0.186
# Max RMSD: 0.134
# Mean RMSD: 0.134
data_MOF--net-fnu--node1-XOMCOT_clean_sbu_0--edge1-OJICUG_clean_linker_0
_symmetry_space_group_name_H-M    P1
_symmetry_Int_Tables_number       1
_symmetry_cell_setting            triclinic
loop_
_symmetry_equiv_pos_as_xyz
'x, y, z'
_cell_length_a     18.906839
_cell_length_b     21.221805
_cell_length_c     25.954663
_cell_angle_alpha  90.038192
_cell_angle_beta   97.192637
_cell_angle_gamma 124.45683
loop_
_atom_site_label
_atom_site_type_symbol
_atom_site_fract_x
_atom_site_fract_y
_atom_site_fract_z
_atom_type_partial_charge
Co0 Co 0.09611 0.053 0.25148 0.0
C1 C 0.09324 1.04482 0.36554 0.0
C2 C 0.20144 1.04858 0.34431 0.0
C3 C 0.20266 1.04362 0.39746 0.0
N4 N 0.13284 1.04953 0.32428 0.0
N5 N 0.13439 1.04115 0.41087 0.0
H6 H 1.03564 1.04461 0.36263 0.0
H7 H 0.247 1.05037 0.32194 0.0
C8 C 0.24244 0.09805 0.19062 0.0
O9 O 0.18366 1.05156 0.15125 0.0
N10 N 1.05631 0.05673 0.17995 0.0
C11 C 0.98027 1.00413 0.15007 0.0
C12 C 0.97255 1.0354 0.10529 0.0
C13 C 0.09149 0.12024 0.15398 0.0
N14 N 1.0428 0.10844 0.10767 0.0
C15 C 0.97441 0.88973 0.23407 0.0
C16 C 1.08374 0.85886 0.19766 0.0
C17 C 0.99382 0.80302 0.18715 0.0
C18 C 0.93971 0.81764 0.20902 0.0
C19 C 0.11572 0.9299 0.22378 0.0
N20 N 1.06026 0.94737 0.23638 0.0
H21 H 0.93036 0.90057 0.2477 0.0
H22 H 0.18492 0.97106 0.23182 0.0
H23 H 0.93203 0.94757 0.15994 0.0
H24 H 0.15218 0.17381 0.16881 0.0
O25 O 0.98775 1.03293 0.26673 0.0
O26 O 0.10896 0.14823 0.26767 0.0
O27 O 0.21936 0.10073 0.2348 0.0
C28 C 1.02576 0.10685 0.26874 0.0
H29 H 0.24945 1.04049 0.42384 0.0
H30 H 0.92067 1.00532 0.07262 0.0
H31 H 0.12915 0.84952 0.18398 0.0
H32 H 0.87044 0.77475 0.2053 0.0
Co33 Co 1.08904 0.08586 0.77215 0.0
C34 C 1.08846 0.0547 0.66091 0.0
C35 C 0.95905 0.99328 0.67946 0.0
C36 C 0.9546 0.97926 0.62686 0.0
N37 N 1.04301 1.04061 0.70078 0.0
N38 N 1.03604 1.01828 0.61494 0.0
H39 H 0.15844 0.0929 0.66531 0.0
H40 H 0.90452 0.97155 0.70025 0.0
C41 C 0.9603 0.97457 0.8396 0.0
O42 O 1.02671 0.98712 0.87246 0.0
N43 N 0.13754 0.1348 0.84255 0.0
C44 C 0.22176 0.1774 0.86435 0.0
C45 C 0.22976 0.21211 0.91127 0.0
C46 C 0.09677 0.14829 0.87529 0.0
N47 N 0.1507 0.19301 0.91873 0.0
C48 C 0.22067 0.05645 0.79122 0.0
C49 C 0.11231 0.90623 0.81374 0.0
C50 C 0.20213 0.94508 0.83029 0.0
C51 C 0.25655 1.01954 0.81501 0.0
C52 C 1.07957 0.94521 0.78882 0.0
N53 N 0.13323 1.0221 0.78405 0.0
H54 H 0.26372 0.11421 0.7809 0.0
H55 H 1.01045 0.91447 0.77668 0.0
H56 H 0.2752 0.18612 0.84707 0.0
H57 H 1.02842 0.12481 0.8673 0.0
O58 O 0.18891 0.17623 0.74975 0.0
O59 O 1.06583 0.16215 0.7579 0.0
O60 O 0.973 1.0061 0.79631 0.0
C61 C 0.14647 0.20761 0.75091 0.0
H62 H 0.8954 0.94329 0.59961 0.0
H63 H 0.28961 0.24728 0.93805 0.0
H64 H 1.06688 0.84757 0.82199 0.0
H65 H 0.32649 1.05019 0.8225 0.0
Co66 Co 0.78024 0.43003 0.57745 0.0
C67 C 0.77248 0.39167 0.68849 0.0
C68 C 0.90066 0.48114 0.67585 0.0
C69 C 0.90183 0.47204 0.72819 0.0
N70 N 0.82022 0.42934 0.65033 0.0
N71 N 0.82098 0.41619 0.73662 0.0
H72 H 0.70279 0.35145 0.68173 0.0
H73 H 0.9543 0.52608 0.65833 0.0
C74 C 0.95571 0.46151 0.56993 0.0
O75 O 0.93553 0.40372 0.59815 0.0
N76 N 0.73891 0.4323 0.50667 0.0
C77 C 0.65883 0.3808 0.4809 0.0
C78 C 0.65104 0.4064 0.43353 0.0
C79 C 0.77826 0.48917 0.47552 0.0
N80 N 0.72628 0.4746 0.42994 0.0
C81 C 0.68071 0.26499 0.57749 0.0
C82 C 0.73948 0.24274 0.49136 0.0
C83 C 0.66823 0.17909 0.50925 0.0
C84 C 0.64005 0.19066 0.55368 0.0
C85 C 0.77735 0.31583 0.51572 0.0
N86 N 0.74813 0.32687 0.55827 0.0
H87 H 0.65339 0.27303 0.60876 0.0
H88 H 0.8252 0.36403 0.49704 0.0
H89 H 0.60975 0.32817 0.49557 0.0
H90 H 0.84384 0.53947 0.48606 0.0
O91 O 0.67068 0.40545 0.59407 0.0
O92 O 0.78909 0.52284 0.59457 0.0
O93 O 0.90178 0.47963 0.55896 0.0
C94 C 0.70615 0.47913 0.59644 0.0
H95 H 0.9581 0.50652 0.7577 0.0
H96 H 0.59564 0.3746 0.40307 0.0
H97 H 0.76208 0.23697 0.45647 0.0
H98 H 0.58499 0.14299 0.56884 0.0
Co99 Co 0.75102 0.37845 0.09695 0.0
C100 C 0.74858 0.37619 0.98276 0.0
C101 C 0.6491 0.2663 1.00417 0.0
C102 C 0.64857 0.26131 0.95094 0.0
N103 N 0.71204 0.33854 0.02407 0.0
N104 N 0.71168 0.33061 0.93749 0.0
H105 H 0.80191 0.43589 0.98581 0.0
H106 H 0.60803 0.21986 0.02683 0.0
C107 C 0.6045 0.28058 0.1589 0.0
O108 O 0.66303 0.29483 0.19885 0.0
N109 N 0.79426 0.42195 0.16848 0.0
C110 C 0.87017 0.4423 0.19667 0.0
C111 C 0.88534 0.48597 0.24088 0.0
C112 C 0.76634 0.45635 0.19507 0.0
N113 N 0.81992 0.4948 0.24001 0.0
C114 C 0.86847 0.33279 0.10846 0.0
C115 C 0.76343 0.19839 0.15346 0.0
C116 C 0.85286 0.23116 0.15961 0.0
C117 C 0.90434 0.29653 0.13346 0.0
C118 C 0.7302 0.23619 0.12744 0.0
N119 N 0.7844 0.30694 0.11054 0.0
H120 H 0.91088 0.38567 0.09164 0.0
H121 H 0.66133 0.20892 0.12285 0.0
H122 H 0.91384 0.42921 0.18576 0.0
H123 H 0.70771 0.45294 0.18148 0.0
O124 O 0.85998 0.46682 0.08134 0.0
O125 O 0.74036 0.46219 0.08203 0.0
O126 O 0.62773 0.30364 0.11421 0.0
C127 C 0.8233 0.50356 0.0802 0.0
H128 H 0.60671 0.20981 0.92469 0.0
H129 H 0.93913 0.50703 0.27212 0.0
H130 H 0.71966 0.14595 0.17057 0.0
H131 H 0.9727 0.32147 0.13397 0.0
Co132 Co 0.44689 0.76661 0.91673 0.0
C133 C 0.43432 0.72594 0.02676 0.0
C134 C 0.56404 0.81545 0.01674 0.0
C135 C 0.56218 0.80518 0.06898 0.0
N136 N 0.48443 0.76429 0.98976 0.0
N137 N 0.48046 0.7491 0.07543 0.0
H138 H 0.36473 0.68532 0.01884 0.0
H139 H 0.61874 0.86111 1.00033 0.0
C140 C 0.6235 0.79924 0.91066 0.0
O141 O 0.60339 0.74132 0.93872 0.0
N142 N 0.40804 0.77051 0.84581 0.0
C143 C 0.3292 0.7193 0.81839 0.0
C144 C 0.3236 0.74693 0.77144 0.0
C145 C 0.44865 0.8291 0.81617 0.0
N146 N 0.39882 0.81601 0.77003 0.0
C147 C 0.34635 0.60164 0.9151 0.0
C148 C 0.40731 0.58048 0.82973 0.0
C149 C 0.33463 0.5167 0.84651 0.0
C150 C 0.30548 0.52772 0.89064 0.0
C151 C 0.44558 0.65325 0.85486 0.0
N152 N 0.4151 0.66374 0.89697 0.0
H153 H 0.31801 0.60924 0.94592 0.0
H154 H 0.49468 0.70175 0.837 0.0
H155 H 0.27948 0.66563 0.83168 0.0
H156 H 0.51343 0.87986 0.82826 0.0
O157 O 0.33641 0.74129 0.93202 0.0
O158 O 0.45503 0.85901 0.9343 0.0
O159 O 0.56929 0.817 0.89955 0.0
C160 C 0.37182 0.81495 0.93526 0.0
H161 H 0.6156 0.84026 0.10013 0.0
H162 H 0.26989 0.7164 0.73981 0.0
H163 H 0.43086 0.57516 0.79516 0.0
H164 H 0.24947 0.47998 0.90504 0.0
Co165 Co 0.42229 0.74771 0.43293 0.0
C166 C 0.41882 0.71792 0.32168 0.0
C167 C 0.28964 0.6612 0.33991 0.0
C168 C 0.28489 0.65026 0.28679 0.0
N169 N 0.37373 0.70373 0.36163 0.0
N170 N 0.36632 0.68639 0.27524 0.0
H171 H 0.48893 0.75391 0.32639 0.0
H172 H 0.23555 0.64171 0.36073 0.0
C173 C 0.29421 0.63863 0.50144 0.0
O174 O 0.36049 0.65133 0.53451 0.0
N175 N 0.47423 0.79575 0.5032 0.0
C176 C 0.55941 0.83712 0.52296 0.0
C177 C 0.57281 0.87754 0.56843 0.0
C178 C 0.43805 0.81468 0.53601 0.0
N179 N 0.49623 0.86311 0.57705 0.0
C180 C 0.55177 0.71525 0.44726 0.0
C181 C 0.44411 0.56767 0.47478 0.0
C182 C 0.53431 0.6059 0.48904 0.0
C183 C 0.58808 0.67869 0.47115 0.0
C184 C 0.41088 0.60623 0.44981 0.0
N185 N 0.46478 0.68234 0.44273 0.0
H186 H 0.5944 0.77209 0.43531 0.0
H187 H 0.34151 0.57593 0.43948 0.0
H188 H 0.61032 0.84255 0.50457 0.0
H189 H 0.37029 0.79352 0.52932 0.0
O190 O 0.52187 0.83833 0.41014 0.0
O191 O 0.39995 0.82484 0.42067 0.0
O192 O 0.30686 0.66894 0.45775 0.0
C193 C 0.48009 0.87012 0.41285 0.0
H194 H 0.22582 0.61934 0.25888 0.0
H195 H 0.63483 0.91461 0.59294 0.0
H196 H 0.39898 0.51005 0.485 0.0
H197 H 0.65794 0.7085 0.47693 0.0
C198 C 0.35712 0.15582 0.13207 0.0
C199 C 0.33527 0.14567 0.18289 0.0
H200 H 0.45841 0.20654 0.08438 0.0
C201 C 0.40272 0.18141 0.22536 0.0
H202 H 0.30683 0.1298 0.09831 0.0
C203 C 0.48966 0.22491 0.21724 0.0
C204 C 0.51156 0.23468 0.16643 0.0
H205 H 0.38844 0.17511 0.26491 0.0
H206 H 0.5399 0.25131 0.25102 0.0
C207 C 0.44409 0.20013 0.12393 0.0
C208 C 1.01714 0.21833 0.25145 0.0
C209 C 0.9749 0.13876 0.25266 0.0
H210 H 1.01157 0.30976 0.22212 0.0
C211 C 0.88895 0.08985 0.22702 0.0
H212 H 1.08345 0.25755 0.27057 0.0
C213 C 0.84861 0.11954 0.19762 0.0
C214 C 0.89281 0.19901 0.1937 0.0
H215 H 0.85487 1.02812 0.22636 0.0
H216 H 0.78442 0.07971 0.17595 0.0
C217 C 0.97643 0.24809 0.22264 0.0
C218 C 0.83507 0.62591 0.09296 0.0
C219 C 0.87534 0.58693 0.09565 0.0
H220 H 0.84149 0.72499 0.11841 0.0
C221 C 0.95903 0.62303 0.12442 0.0
H222 H 0.77049 0.59948 0.07131 0.0
C223 C 0.99862 0.69384 0.15318 0.0
C224 C 0.95594 0.73076 0.15323 0.0
H225 H 0.99129 0.59395 0.12812 0.0
H226 H 1.06057 0.71738 0.17745 0.0
C227 C 0.87518 0.69721 0.12098 0.0
C228 C 0.14957 0.32164 0.77985 0.0
C229 C 0.19386 0.29156 0.76358 0.0
H230 H 0.15903 0.41552 0.8191 0.0
C231 C 0.28515 0.33877 0.77093 0.0
H232 H 1.07934 0.28692 0.77513 0.0
C233 C 0.33092 0.41243 0.79677 0.0
C234 C 0.28646 0.44037 0.81613 0.0
H235 H 0.32144 0.31725 0.75948 0.0
H236 H 0.40117 0.44613 0.80368 0.0
C237 C 0.19528 0.39494 0.80599 0.0
C238 C 0.72324 0.89037 0.84989 0.0
C239 C 0.70858 0.84295 0.89101 0.0
H240 H 0.81338 0.9679 0.8005 0.0
C241 C 0.77619 0.83715 0.91318 0.0
H242 H 0.67237 0.89576 0.83162 0.0
C243 C 0.85682 0.87879 0.89566 0.0
C244 C 0.87198 0.92663 0.85487 0.0
H245 H 0.76742 0.80128 0.94482 0.0
H246 H 0.90764 0.87368 0.91444 0.0
C247 C 0.80383 0.93127 0.83175 0.0
C248 C 0.31665 0.9557 0.89897 0.0
C249 C 0.23934 0.90947 0.86332 0.0
H250 H 0.41863 0.96191 0.95068 0.0
C251 C 0.19924 0.82961 0.85946 0.0
H252 H 0.34821 1.01703 0.90486 0.0
C253 C 0.23795 0.79774 0.88786 0.0
C254 C 0.31869 0.84494 0.92 0.0
H255 H 0.14017 0.79163 0.83255 0.0
H256 H 0.20779 0.73666 0.88128 0.0
C257 C 0.3563 0.92399 0.92639 0.0
C258 C 0.10873 0.49998 0.57363 0.0
C259 C 1.04114 0.50545 0.55081 0.0
H260 H 0.24071 0.53741 0.57609 0.0
C261 C 1.05636 0.55306 0.50979 0.0
H262 H 0.09949 0.46396 0.60523 0.0
C263 C 0.1375 0.59454 0.49238 0.0
C264 C 0.20562 0.59032 0.51619 0.0
H265 H 1.00552 0.55819 0.49106 0.0
H266 H 0.14747 0.63129 0.46115 0.0
C267 C 0.18992 0.54225 0.55686 0.0
C268 C 0.69135 0.58827 0.58504 0.0
C269 C 0.6529 0.50896 0.58082 0.0
H270 H 0.68356 0.68064 0.56098 0.0
C271 C 0.57087 0.46076 0.55015 0.0
H272 H 0.75464 0.62698 0.60815 0.0
C273 C 0.53157 0.49164 0.52105 0.0
C274 C 0.57247 0.57157 0.52267 0.0
H275 H 0.53995 0.3994 0.54525 0.0
H276 H 0.47127 0.45272 0.49535 0.0
C277 C 0.65127 0.61908 0.55685 0.0
C278 C 0.48344 0.98379 0.44293 0.0
C279 C 0.52777 0.95395 0.42628 0.0
H280 H 0.49274 0.07731 0.48264 0.0
C281 C 0.61905 1.0011 0.43382 0.0
H282 H 0.41319 0.9491 0.43812 0.0
C283 C 0.66472 0.07462 0.4599 0.0
C284 C 0.62017 0.1024 0.4794 0.0
H285 H 0.65535 0.9797 0.42218 0.0
H286 H 0.73498 0.10848 0.46672 0.0
C287 C 0.52902 0.05686 0.46938 0.0
C288 C 0.14619 1.04905 0.55753 0.0
C289 C 1.06098 1.02329 0.56355 0.0
H290 H 0.23658 0.07575 0.50505 0.0
C291 C 1.00059 1.00318 0.51814 0.0
H292 H 0.19461 0.06446 0.5912 0.0
C293 C 1.02447 1.0087 0.46852 0.0
C294 C 0.10971 1.03485 0.46243 0.0
H295 H 0.93465 0.98388 0.52061 0.0
H296 H 0.97539 0.99172 0.43495 0.0
C297 C 0.17017 0.05479 0.50778 0.0
C298 C 0.81974 0.41844 0.88183 0.0
C299 C 0.73823 0.35141 0.88652 0.0
H300 H 0.90871 0.4922 0.83224 0.0
C301 C 0.68404 0.3055 0.84048 0.0
H302 H 0.86462 0.45515 0.91576 0.0
C303 C 0.71077 0.3263 0.79144 0.0
C304 C 0.79232 0.39377 0.78699 0.0
H305 H 0.62062 0.25368 0.84208 0.0
H306 H 0.66755 0.28905 0.75718 0.0
C307 C 0.84598 0.4394 0.83314 0.0
C308 C 0.33615 0.68744 0.17915 0.0
C309 C 0.39252 0.69636 0.22401 0.0
H310 H 0.31966 0.69744 0.09702 0.0
C311 C 0.47642 0.71837 0.21807 0.0
H312 H 0.27139 0.67135 0.18187 0.0
C313 C 0.50415 0.73366 0.16925 0.0
C314 C 0.44876 0.72702 0.12479 0.0
H315 H 0.52123 0.72429 0.25119 0.0
H316 H 0.56942 0.75114 0.16635 0.0
C317 C 0.36384 0.7024 0.1302 0.0
C318 C 1.00955 0.13907 0.02045 0.0
C319 C 1.07009 0.15494 0.06453 0.0
H320 H 0.98773 0.14174 0.93849 0.0
C321 C 0.1589 0.20612 0.06164 0.0
H322 H 0.94062 0.1035 0.02213 0.0
C323 C 0.18631 0.2286 0.0136 0.0
C324 C 0.12536 0.1991 0.96768 0.0
H325 H 0.20786 0.2222 0.09511 0.0
H326 H 0.25526 0.26219 0.01254 0.0
C327 C 1.03696 0.16116 0.97228 0.0
C328 C 0.71392 0.49095 0.28858 0.0
C329 C 0.80053 0.5207 0.2839 0.0
H330 H 0.62196 0.45665 0.3406 0.0
C331 C 0.86464 0.56122 0.32763 0.0
H332 H 0.66275 0.46257 0.25549 0.0
C333 C 0.84078 0.55556 0.37688 0.0
C334 C 0.75248 0.51046 0.38248 0.0
H335 H 0.93268 0.58953 0.32476 0.0
H336 H 0.89147 0.5788 0.41022 0.0
C337 C 0.69021 0.48672 0.33774 0.0
C338 C 0.39103 0.85138 0.63086 0.0
C339 C 0.47706 0.87992 0.62515 0.0
H340 H 0.29818 0.81024 0.68321 0.0
C341 C 0.54039 0.91113 0.66997 0.0
H342 H 0.34095 0.83163 0.5975 0.0
C343 C 0.51558 0.89859 0.71915 0.0
C344 C 0.42719 0.85552 0.72415 0.0
H345 H 0.60823 0.93789 0.66772 0.0
H346 H 0.56518 0.91515 0.75231 0.0
C347 C 0.36626 0.83917 0.68016 0.0
loop_
_geom_bond_atom_site_label_1
_geom_bond_atom_site_label_2
_geom_bond_distance
_geom_bond_site_symmetry_2
_ccdc_geom_bond_type
Co0 N4 2.148 . S
Co0 N10 2.128 . S
Co0 N20 2.194 1_445 S
Co0 O25 2.351 1_455 S
Co0 O26 2.155 . S
Co0 O27 2.096 . S
C1 N4 1.301 . S
C1 N5 1.328 . S
C1 H6 0.930 1_455 S
C2 C3 1.333 . S
C2 N4 1.317 . S
C2 H7 0.930 . S
C3 C2 1.333 . S
C3 N5 1.350 . S
C3 H29 0.931 . S
N4 Co0 2.148 . S
N4 C1 1.301 . S
N4 C2 1.317 . S
N5 C1 1.328 . S
N5 C3 1.350 . S
H6 C1 0.930 1_655 S
H7 C2 0.930 . S
C8 O9 1.224 . S
C8 O27 1.247 . S
O9 C8 1.224 . S
N10 Co0 2.128 . S
N10 C11 1.355 1_445 S
N10 C13 1.311 . S
C11 N10 1.355 1_665 S
C11 C12 1.363 . S
C11 H23 0.929 . S
C12 C11 1.363 . S
C12 N14 1.375 1_665 S
C12 H30 0.931 . S
C13 N10 1.311 . S
C13 N14 1.347 . S
C13 H24 0.929 . S
N14 C12 1.375 1_445 S
N14 C13 1.347 . S
C15 C18 1.365 . S
C15 N20 1.328 . S
C15 H21 0.929 . S
C16 C17 1.362 . S
C16 C19 1.378 1_655 S
C16 H31 0.929 . S
C17 C16 1.362 . S
C17 C18 1.366 . S
C18 C15 1.365 . S
C18 C17 1.366 . S
C18 H32 0.930 . S
C19 C16 1.378 1_455 S
C19 N20 1.315 1_455 S
C19 H22 0.930 . S
N20 Co0 2.194 1_665 S
N20 C15 1.328 . S
N20 C19 1.315 1_655 S
H21 C15 0.929 . S
H22 C19 0.930 . S
H23 C11 0.929 . S
H24 C13 0.929 . S
O25 Co0 2.351 1_655 S
O25 C28 1.244 . S
O26 Co0 2.155 . S
O26 C28 1.240 1_455 S
O27 Co0 2.096 . S
O27 C8 1.247 . S
C28 O25 1.244 . S
C28 O26 1.240 1_655 S
H29 C3 0.931 . S
H30 C12 0.931 . S
H31 C16 0.929 . S
H32 C18 0.930 . S
Co33 N37 2.148 . S
Co33 N43 2.128 1_655 S
Co33 N53 2.194 1_645 S
Co33 O58 2.351 1_655 S
Co33 O59 2.155 1_655 S
Co33 O60 2.096 1_545 S
C34 N37 1.301 1_455 S
C34 N38 1.328 1_455 S
C34 H39 0.930 . S
C35 C36 1.333 . S
C35 N37 1.317 1_565 S
C35 H40 0.930 . S
C36 C35 1.333 . S
C36 N38 1.350 1_565 S
C36 H62 0.931 . S
N37 Co33 2.148 . S
N37 C34 1.301 1_655 S
N37 C35 1.317 1_545 S
N38 C34 1.328 1_655 S
N38 C36 1.350 1_545 S
H39 C34 0.930 . S
H40 C35 0.930 . S
C41 O42 1.224 . S
C41 O60 1.247 . S
O42 C41 1.224 . S
N43 Co33 2.128 1_455 S
N43 C44 1.355 . S
N43 C46 1.311 1_455 S
C44 N43 1.355 . S
C44 C45 1.363 . S
C44 H56 0.929 . S
C45 C44 1.363 . S
C45 N47 1.375 . S
C45 H63 0.931 . S
C46 N43 1.311 1_655 S
C46 N47 1.347 1_655 S
C46 H57 0.929 1_545 S
N47 C45 1.375 . S
N47 C46 1.347 1_455 S
C48 C51 1.365 1_545 S
C48 N53 1.328 1_545 S
C48 H54 0.929 . S
C49 C50 1.362 . S
C49 C52 1.378 . S
C49 H64 0.929 . S
C50 C49 1.362 . S
C50 C51 1.366 . S
C51 C48 1.365 1_565 S
C51 C50 1.366 . S
C51 H65 0.930 . S
C52 C49 1.378 . S
C52 N53 1.315 . S
C52 H55 0.930 1_455 S
N53 Co33 2.194 1_465 S
N53 C48 1.328 1_565 S
N53 C52 1.315 . S
H54 C48 0.929 . S
H55 C52 0.930 1_655 S
H56 C44 0.929 . S
H57 C46 0.929 1_565 S
O58 Co33 2.351 1_455 S
O58 C61 1.244 . S
O59 Co33 2.155 1_455 S
O59 C61 1.240 . S
O60 Co33 2.096 1_565 S
O60 C41 1.247 . S
C61 O58 1.244 . S
C61 O59 1.240 . S
H62 C36 0.931 . S
H63 C45 0.931 . S
H64 C49 0.929 . S
H65 C51 0.930 . S
Co66 N70 2.148 . S
Co66 N76 2.128 . S
Co66 N86 2.194 . S
Co66 O91 2.351 . S
Co66 O92 2.155 . S
Co66 O93 2.096 . S
C67 N70 1.301 . S
C67 N71 1.328 . S
C67 H72 0.930 . S
C68 C69 1.333 . S
C68 N70 1.317 . S
C68 H73 0.930 . S
C69 C68 1.333 . S
C69 N71 1.350 . S
C69 H95 0.931 . S
N70 Co66 2.148 . S
N70 C67 1.301 . S
N70 C68 1.317 . S
N71 C67 1.328 . S
N71 C69 1.350 . S
H72 C67 0.930 . S
H73 C68 0.930 . S
C74 O75 1.224 . S
C74 O93 1.247 . S
O75 C74 1.224 . S
N76 Co66 2.128 . S
N76 C77 1.355 . S
N76 C79 1.311 . S
C77 N76 1.355 . S
C77 C78 1.363 . S
C77 H89 0.929 . S
C78 C77 1.363 . S
C78 N80 1.375 . S
C78 H96 0.931 . S
C79 N76 1.311 . S
C79 N80 1.347 . S
C79 H90 0.929 . S
N80 C78 1.375 . S
N80 C79 1.347 . S
C81 C84 1.365 . S
C81 N86 1.328 . S
C81 H87 0.929 . S
C82 C83 1.362 . S
C82 C85 1.378 . S
C82 H97 0.929 . S
C83 C82 1.362 . S
C83 C84 1.366 . S
C84 C81 1.365 . S
C84 C83 1.366 . S
C84 H98 0.930 . S
C85 C82 1.378 . S
C85 N86 1.315 . S
C85 H88 0.930 . S
N86 Co66 2.194 . S
N86 C81 1.328 . S
N86 C85 1.315 . S
H87 C81 0.929 . S
H88 C85 0.930 . S
H89 C77 0.929 . S
H90 C79 0.929 . S
O91 Co66 2.351 . S
O91 C94 1.244 . S
O92 Co66 2.155 . S
O92 C94 1.240 . S
O93 Co66 2.096 . S
O93 C74 1.247 . S
C94 O91 1.244 . S
C94 O92 1.240 . S
H95 C69 0.931 . S
H96 C78 0.931 . S
H97 C82 0.929 . S
H98 C84 0.930 . S
Co99 N103 2.148 . S
Co99 N109 2.128 . S
Co99 N119 2.194 . S
Co99 O124 2.351 . S
Co99 O125 2.155 . S
Co99 O126 2.096 . S
C100 N103 1.301 . S
C100 N104 1.328 1_554 S
C100 H105 0.930 . S
C101 C102 1.333 1_554 S
C101 N103 1.317 . S
C101 H106 0.930 . S
C102 C101 1.333 1_556 S
C102 N104 1.350 . S
C102 H128 0.931 . S
N103 Co99 2.148 . S
N103 C100 1.301 . S
N103 C101 1.317 . S
N104 C100 1.328 1_556 S
N104 C102 1.350 . S
H105 C100 0.930 . S
H106 C101 0.930 . S
C107 O108 1.224 . S
C107 O126 1.247 . S
O108 C107 1.224 . S
N109 Co99 2.128 . S
N109 C110 1.355 . S
N109 C112 1.311 . S
C110 N109 1.355 . S
C110 C111 1.363 . S
C110 H122 0.929 . S
C111 C110 1.363 . S
C111 N113 1.375 . S
C111 H129 0.931 . S
C112 N109 1.311 . S
C112 N113 1.347 . S
C112 H123 0.929 . S
N113 C111 1.375 . S
N113 C112 1.347 . S
C114 C117 1.365 . S
C114 N119 1.328 . S
C114 H120 0.929 . S
C115 C116 1.362 . S
C115 C118 1.378 . S
C115 H130 0.929 . S
C116 C115 1.362 . S
C116 C117 1.366 . S
C117 C114 1.365 . S
C117 C116 1.366 . S
C117 H131 0.930 . S
C118 C115 1.378 . S
C118 N119 1.315 . S
C118 H121 0.930 . S
N119 Co99 2.194 . S
N119 C114 1.328 . S
N119 C118 1.315 . S
H120 C114 0.929 . S
H121 C118 0.930 . S
H122 C110 0.929 . S
H123 C112 0.929 . S
O124 Co99 2.351 . S
O124 C127 1.244 . S
O125 Co99 2.155 . S
O125 C127 1.240 . S
O126 Co99 2.096 . S
O126 C107 1.247 . S
C127 O124 1.244 . S
C127 O125 1.240 . S
H128 C102 0.931 . S
H129 C111 0.931 . S
H130 C115 0.929 . S
H131 C117 0.930 . S
Co132 N136 2.148 . S
Co132 N142 2.128 . S
Co132 N152 2.194 . S
Co132 O157 2.351 . S
Co132 O158 2.155 . S
Co132 O159 2.096 . S
C133 N136 1.301 . S
C133 N137 1.328 1_556 S
C133 H138 0.930 . S
C134 C135 1.333 1_556 S
C134 N136 1.317 . S
C134 H139 0.930 . S
C135 C134 1.333 1_554 S
C135 N137 1.350 . S
C135 H161 0.931 . S
N136 Co132 2.148 . S
N136 C133 1.301 . S
N136 C134 1.317 . S
N137 C133 1.328 1_554 S
N137 C135 1.350 . S
H138 C133 0.930 . S
H139 C134 0.930 . S
C140 O141 1.224 . S
C140 O159 1.247 . S
O141 C140 1.224 . S
N142 Co132 2.128 . S
N142 C143 1.355 . S
N142 C145 1.311 . S
C143 N142 1.355 . S
C143 C144 1.363 . S
C143 H155 0.929 . S
C144 C143 1.363 . S
C144 N146 1.375 . S
C144 H162 0.931 . S
C145 N142 1.311 . S
C145 N146 1.347 . S
C145 H156 0.929 . S
N146 C144 1.375 . S
N146 C145 1.347 . S
C147 C150 1.365 . S
C147 N152 1.328 . S
C147 H153 0.929 . S
C148 C149 1.362 . S
C148 C151 1.378 . S
C148 H163 0.929 . S
C149 C148 1.362 . S
C149 C150 1.366 . S
C150 C147 1.365 . S
C150 C149 1.366 . S
C150 H164 0.930 . S
C151 C148 1.378 . S
C151 N152 1.315 . S
C151 H154 0.930 . S
N152 Co132 2.194 . S
N152 C147 1.328 . S
N152 C151 1.315 . S
H153 C147 0.929 . S
H154 C151 0.930 . S
H155 C143 0.929 . S
H156 C145 0.929 . S
O157 Co132 2.351 . S
O157 C160 1.244 . S
O158 Co132 2.155 . S
O158 C160 1.240 . S
O159 Co132 2.096 . S
O159 C140 1.247 . S
C160 O157 1.244 . S
C160 O158 1.240 . S
H161 C135 0.931 . S
H162 C144 0.931 . S
H163 C148 0.929 . S
H164 C150 0.930 . S
Co165 N169 2.148 . S
Co165 N175 2.128 . S
Co165 N185 2.194 . S
Co165 O190 2.351 . S
Co165 O191 2.155 . S
Co165 O192 2.096 . S
C166 N169 1.301 . S
C166 N170 1.328 . S
C166 H171 0.930 . S
C167 C168 1.333 . S
C167 N169 1.317 . S
C167 H172 0.930 . S
C168 C167 1.333 . S
C168 N170 1.350 . S
C168 H194 0.931 . S
N169 Co165 2.148 . S
N169 C166 1.301 . S
N169 C167 1.317 . S
N170 C166 1.328 . S
N170 C168 1.350 . S
H171 C166 0.930 . S
H172 C167 0.930 . S
C173 O174 1.224 . S
C173 O192 1.247 . S
O174 C173 1.224 . S
N175 Co165 2.128 . S
N175 C176 1.355 . S
N175 C178 1.311 . S
C176 N175 1.355 . S
C176 C177 1.363 . S
C176 H188 0.929 . S
C177 C176 1.363 . S
C177 N179 1.375 . S
C177 H195 0.931 . S
C178 N175 1.311 . S
C178 N179 1.347 . S
C178 H189 0.929 . S
N179 C177 1.375 . S
N179 C178 1.347 . S
C180 C183 1.365 . S
C180 N185 1.328 . S
C180 H186 0.929 . S
C181 C182 1.362 . S
C181 C184 1.378 . S
C181 H196 0.929 . S
C182 C181 1.362 . S
C182 C183 1.366 . S
C183 C180 1.365 . S
C183 C182 1.366 . S
C183 H197 0.930 . S
C184 C181 1.378 . S
C184 N185 1.315 . S
C184 H187 0.930 . S
N185 Co165 2.194 . S
N185 C180 1.328 . S
N185 C184 1.315 . S
H186 C180 0.929 . S
H187 C184 0.930 . S
H188 C176 0.929 . S
H189 C178 0.929 . S
O190 Co165 2.351 . S
O190 C193 1.244 . S
O191 Co165 2.155 . S
O191 C193 1.240 . S
O192 Co165 2.096 . S
O192 C173 1.247 . S
C193 O190 1.244 . S
C193 O191 1.240 . S
H194 C168 0.931 . S
H195 C177 0.931 . S
H196 C181 0.929 . S
H197 C183 0.930 . S
C198 C199 1.387 . S
C198 H202 0.950 . S
C198 C207 1.390 . S
C199 C198 1.387 . S
C199 C201 1.387 . S
H200 C207 0.950 . S
C201 C199 1.387 . S
C201 C203 1.390 . S
C201 H205 0.950 . S
H202 C198 0.950 . S
C203 C201 1.390 . S
C203 C204 1.387 . S
C203 H206 0.950 . S
C204 C203 1.387 . S
C204 C207 1.387 . S
H205 C201 0.950 . S
H206 C203 0.950 . S
C207 C198 1.390 . S
C207 H200 0.950 . S
C207 C204 1.387 . S
C208 C209 1.387 . S
C208 H212 0.950 . S
C208 C217 1.390 . S
C209 C208 1.387 . S
C209 C211 1.387 . S
H210 C217 0.950 . S
C211 C209 1.387 . S
C211 C213 1.390 . S
C211 H215 0.950 . S
H212 C208 0.950 . S
C213 C211 1.390 . S
C213 C214 1.387 . S
C213 H216 0.950 . S
C214 C213 1.387 . S
C214 C217 1.387 . S
H215 C211 0.950 . S
H216 C213 0.950 . S
C217 C208 1.390 . S
C217 H210 0.950 . S
C217 C214 1.387 . S
C218 C219 1.387 . S
C218 H222 0.950 . S
C218 C227 1.390 . S
C219 C218 1.387 . S
C219 C221 1.387 . S
H220 C227 0.950 . S
C221 C219 1.387 . S
C221 C223 1.390 . S
C221 H225 0.950 . S
H222 C218 0.950 . S
C223 C221 1.390 . S
C223 C224 1.387 . S
C223 H226 0.950 . S
C224 C223 1.387 . S
C224 C227 1.387 . S
H225 C221 0.950 . S
H226 C223 0.950 . S
C227 C218 1.390 . S
C227 H220 0.950 . S
C227 C224 1.387 . S
C228 C229 1.387 . S
C228 H232 0.950 . S
C228 C237 1.390 . S
C229 C228 1.387 . S
C229 C231 1.387 . S
H230 C237 0.950 . S
C231 C229 1.387 . S
C231 C233 1.390 . S
C231 H235 0.950 . S
H232 C228 0.950 . S
C233 C231 1.390 . S
C233 C234 1.387 . S
C233 H236 0.950 . S
C234 C233 1.387 . S
C234 C237 1.387 . S
H235 C231 0.950 . S
H236 C233 0.950 . S
C237 C228 1.390 . S
C237 H230 0.950 . S
C237 C234 1.387 . S
C238 C239 1.387 . S
C238 H242 0.950 . S
C238 C247 1.390 . S
C239 C238 1.387 . S
C239 C241 1.387 . S
H240 C247 0.950 . S
C241 C239 1.387 . S
C241 C243 1.390 . S
C241 H245 0.950 . S
H242 C238 0.950 . S
C243 C241 1.390 . S
C243 C244 1.387 . S
C243 H246 0.950 . S
C244 C243 1.387 . S
C244 C247 1.387 . S
H245 C241 0.950 . S
H246 C243 0.950 . S
C247 C238 1.390 . S
C247 H240 0.950 . S
C247 C244 1.387 . S
C248 C249 1.387 . S
C248 H252 0.950 . S
C248 C257 1.390 . S
C249 C248 1.387 . S
C249 C251 1.387 . S
H250 C257 0.950 . S
C251 C249 1.387 . S
C251 C253 1.390 . S
C251 H255 0.950 . S
H252 C248 0.950 . S
C253 C251 1.390 . S
C253 C254 1.387 . S
C253 H256 0.950 . S
C254 C253 1.387 . S
C254 C257 1.387 . S
H255 C251 0.950 . S
H256 C253 0.950 . S
C257 C248 1.390 . S
C257 H250 0.950 . S
C257 C254 1.387 . S
C258 C259 1.387 . S
C258 H262 0.950 . S
C258 C267 1.390 1_655 S
C259 C258 1.387 . S
C259 C261 1.387 1_655 S
H260 C267 0.950 . S
C261 C259 1.387 1_455 S
C261 C263 1.390 . S
C261 H265 0.950 . S
H262 C258 0.950 . S
C263 C261 1.390 . S
C263 C264 1.387 . S
C263 H266 0.950 . S
C264 C263 1.387 . S
C264 C267 1.387 . S
H265 C261 0.950 . S
H266 C263 0.950 . S
C267 C258 1.390 1_455 S
C267 H260 0.950 . S
C267 C264 1.387 . S
C268 C269 1.387 . S
C268 H272 0.950 . S
C268 C277 1.390 . S
C269 C268 1.387 . S
C269 C271 1.387 . S
H270 C277 0.950 . S
C271 C269 1.387 . S
C271 C273 1.390 . S
C271 H275 0.950 . S
H272 C268 0.950 . S
C273 C271 1.390 . S
C273 C274 1.387 . S
C273 H276 0.950 . S
C274 C273 1.387 . S
C274 C277 1.387 . S
H275 C271 0.950 . S
H276 C273 0.950 . S
C277 C268 1.390 . S
C277 H270 0.950 . S
C277 C274 1.387 . S
C278 C279 1.387 . S
C278 H282 0.950 . S
C278 C287 1.390 . S
C279 C278 1.387 . S
C279 C281 1.387 . S
H280 C287 0.950 . S
C281 C279 1.387 . S
C281 C283 1.390 1_565 S
C281 H285 0.950 . S
H282 C278 0.950 . S
C283 C281 1.390 1_545 S
C283 C284 1.387 . S
C283 H286 0.950 . S
C284 C283 1.387 . S
C284 C287 1.387 1_545 S
H285 C281 0.950 . S
H286 C283 0.950 . S
C287 C278 1.390 . S
C287 H280 0.950 . S
C287 C284 1.387 1_565 S
C288 C289 1.387 1_455 S
C288 H292 0.950 . S
C288 C297 1.390 . S
C289 C288 1.387 1_655 S
C289 C291 1.387 1_545 S
H290 C297 0.950 . S
C291 C289 1.387 1_565 S
C291 C293 1.390 . S
C291 H295 0.950 . S
H292 C288 0.950 . S
C293 C291 1.390 . S
C293 C294 1.387 1_665 S
C293 H296 0.950 . S
C294 C293 1.387 1_445 S
C294 C297 1.387 . S
H295 C291 0.950 . S
H296 C293 0.950 . S
C297 C288 1.390 . S
C297 H290 0.950 . S
C297 C294 1.387 . S
C298 C299 1.387 . S
C298 H302 0.950 . S
C298 C307 1.390 . S
C299 C298 1.387 . S
C299 C301 1.387 . S
H300 C307 0.950 . S
C301 C299 1.387 . S
C301 C303 1.390 . S
C301 H305 0.950 . S
H302 C298 0.950 . S
C303 C301 1.390 . S
C303 C304 1.387 . S
C303 H306 0.950 . S
C304 C303 1.387 . S
C304 C307 1.387 . S
H305 C301 0.950 . S
H306 C303 0.950 . S
C307 C298 1.390 . S
C307 H300 0.950 . S
C307 C304 1.387 . S
C308 C309 1.387 . S
C308 H312 0.950 . S
C308 C317 1.390 . S
C309 C308 1.387 . S
C309 C311 1.387 . S
H310 C317 0.950 . S
C311 C309 1.387 . S
C311 C313 1.390 . S
C311 H315 0.950 . S
H312 C308 0.950 . S
C313 C311 1.390 . S
C313 C314 1.387 . S
C313 H316 0.950 . S
C314 C313 1.387 . S
C314 C317 1.387 . S
H315 C311 0.950 . S
H316 C313 0.950 . S
C317 C308 1.390 . S
C317 H310 0.950 . S
C317 C314 1.387 . S
C318 C319 1.387 1_665 S
C318 H322 0.950 . S
C318 C327 1.390 1_554 S
C319 C318 1.387 1_445 S
C319 C321 1.387 . S
H320 C327 0.950 . S
C321 C319 1.387 . S
C321 C323 1.390 1_554 S
C321 H325 0.950 . S
H322 C318 0.950 . S
C323 C321 1.390 1_556 S
C323 C324 1.387 1_445 S
C323 H326 0.950 . S
C324 C323 1.387 1_665 S
C324 C327 1.387 . S
H325 C321 0.950 . S
H326 C323 0.950 . S
C327 C318 1.390 1_556 S
C327 H320 0.950 . S
C327 C324 1.387 . S
C328 C329 1.387 . S
C328 H332 0.950 . S
C328 C337 1.390 . S
C329 C328 1.387 . S
C329 C331 1.387 . S
H330 C337 0.950 . S
C331 C329 1.387 . S
C331 C333 1.390 . S
C331 H335 0.950 . S
H332 C328 0.950 . S
C333 C331 1.390 . S
C333 C334 1.387 . S
C333 H336 0.950 . S
C334 C333 1.387 . S
C334 C337 1.387 . S
H335 C331 0.950 . S
H336 C333 0.950 . S
C337 C328 1.390 . S
C337 H330 0.950 . S
C337 C334 1.387 . S
C338 C339 1.387 . S
C338 H342 0.950 . S
C338 C347 1.390 . S
C339 C338 1.387 . S
C339 C341 1.387 . S
H340 C347 0.950 . S
C341 C339 1.387 . S
C341 C343 1.390 . S
C341 H345 0.950 . S
H342 C338 0.950 . S
C343 C341 1.390 . S
C343 C344 1.387 . S
C343 H346 0.950 . S
C344 C343 1.387 . S
C344 C347 1.387 . S
H345 C341 0.950 . S
H346 C343 0.950 . S
C347 C338 1.390 . S
C347 H340 0.950 . S
C347 C344 1.387 . S
C199 C8 1.890 . S
C204 C107 1.891 . S
C209 C28 1.605 . S
C214 C116 1.662 . S
C219 C127 1.606 . S
C224 C17 1.663 . S
C229 C61 1.605 . S
C234 C149 1.662 . S
C239 C140 1.890 . S
C244 C41 1.890 . S
C249 C50 1.662 . S
C254 C160 1.605 . S
C259 C74 1.891 . S
C264 C173 1.891 . S
C269 C94 1.606 . S
C274 C182 1.663 . S
C279 C193 1.606 . S
C284 C83 1.663 . S
C289 N38 2.074 . S
C294 N5 2.074 . S
C299 N104 2.074 . S
C304 N71 2.074 . S
C309 N170 2.075 . S
C314 N137 2.075 . S
C319 N14 0.621 . S
C324 N47 0.621 1_665 S
C329 N113 0.618 . S
C334 N80 0.618 . S
C339 N179 0.621 . S
C344 N146 0.621 . S
