# Generated by pormake.
# Topology sou, (8)-cn, num edge types: 1
# Building blocks:
#     Node 0, Type 0, BuildingBlock: EBIMEJ_clean_sbu_0, # of connection points: 8
#     Node 1, Type 0, BuildingBlock: EBIMEJ_clean_sbu_0, # of connection points: 8
#     Node 2, Type 0, BuildingBlock: EBIMEJ_clean_sbu_0, # of connection points: 8
#     Node 3, Type 0, BuildingBlock: EBIMEJ_clean_sbu_0, # of connection points: 8
#     Node 4, Type 0, BuildingBlock: EBIMEJ_clean_sbu_0, # of connection points: 8
#     Node 5, Type 0, BuildingBlock: EBIMEJ_clean_sbu_0, # of connection points: 8
#     Node 6, Type 0, BuildingBlock: EBIMEJ_clean_sbu_0, # of connection points: 8
#     Node 7, Type 0, BuildingBlock: EBIMEJ_clean_sbu_0, # of connection points: 8
#     Node 8, Type 0, BuildingBlock: EBIMEJ_clean_sbu_0, # of connection points: 8
#     Node 9, Type 0, BuildingBlock: EBIMEJ_clean_sbu_0, # of connection points: 8
#     Node 10, Type 0, BuildingBlock: EBIMEJ_clean_sbu_0, # of connection points: 8
#     Node 11, Type 0, BuildingBlock: EBIMEJ_clean_sbu_0, # of connection points: 8
#     Node 12, Type 0, BuildingBlock: EBIMEJ_clean_sbu_0, # of connection points: 8
#     Node 13, Type 0, BuildingBlock: EBIMEJ_clean_sbu_0, # of connection points: 8
#     Node 14, Type 0, BuildingBlock: EBIMEJ_clean_sbu_0, # of connection points: 8
#     Node 15, Type 0, BuildingBlock: EBIMEJ_clean_sbu_0, # of connection points: 8
#     Node 16, Type 0, BuildingBlock: EBIMEJ_clean_sbu_0, # of connection points: 8
#     Node 17, Type 0, BuildingBlock: EBIMEJ_clean_sbu_0, # of connection points: 8
#     Node 18, Type 0, BuildingBlock: EBIMEJ_clean_sbu_0, # of connection points: 8
#     Node 19, Type 0, BuildingBlock: EBIMEJ_clean_sbu_0, # of connection points: 8
#     Node 20, Type 0, BuildingBlock: EBIMEJ_clean_sbu_0, # of connection points: 8
#     Node 21, Type 0, BuildingBlock: EBIMEJ_clean_sbu_0, # of connection points: 8
#     Node 22, Type 0, BuildingBlock: EBIMEJ_clean_sbu_0, # of connection points: 8
#     Node 23, Type 0, BuildingBlock: EBIMEJ_clean_sbu_0, # of connection points: 8
#     Node 24, Type 0, BuildingBlock: EBIMEJ_clean_sbu_0, # of connection points: 8
#     Node 25, Type 0, BuildingBlock: EBIMEJ_clean_sbu_0, # of connection points: 8
#     Node 26, Type 0, BuildingBlock: EBIMEJ_clean_sbu_0, # of connection points: 8
#     Node 27, Type 0, BuildingBlock: EBIMEJ_clean_sbu_0, # of connection points: 8
#     Node 28, Type 0, BuildingBlock: EBIMEJ_clean_sbu_0, # of connection points: 8
#     Node 29, Type 0, BuildingBlock: EBIMEJ_clean_sbu_0, # of connection points: 8
#     Node 30, Type 0, BuildingBlock: EBIMEJ_clean_sbu_0, # of connection points: 8
#     Node 31, Type 0, BuildingBlock: EBIMEJ_clean_sbu_0, # of connection points: 8
#     Edge 32, Type (0, 0), BuildingBlock: AJUNOK_clean_linker_0, # of connection points: 2
#     Edge 33, Type (0, 0), BuildingBlock: AJUNOK_clean_linker_0, # of connection points: 2
#     Edge 34, Type (0, 0), BuildingBlock: AJUNOK_clean_linker_0, # of connection points: 2
#     Edge 35, Type (0, 0), BuildingBlock: AJUNOK_clean_linker_0, # of connection points: 2
#     Edge 36, Type (0, 0), BuildingBlock: AJUNOK_clean_linker_0, # of connection points: 2
#     Edge 37, Type (0, 0), BuildingBlock: AJUNOK_clean_linker_0, # of connection points: 2
#     Edge 38, Type (0, 0), BuildingBlock: AJUNOK_clean_linker_0, # of connection points: 2
#     Edge 39, Type (0, 0), BuildingBlock: AJUNOK_clean_linker_0, # of connection points: 2
#     Edge 40, Type (0, 0), BuildingBlock: AJUNOK_clean_linker_0, # of connection points: 2
#     Edge 41, Type (0, 0), BuildingBlock: AJUNOK_clean_linker_0, # of connection points: 2
#     Edge 42, Type (0, 0), BuildingBlock: AJUNOK_clean_linker_0, # of connection points: 2
#     Edge 43, Type (0, 0), BuildingBlock: AJUNOK_clean_linker_0, # of connection points: 2
#     Edge 44, Type (0, 0), BuildingBlock: AJUNOK_clean_linker_0, # of connection points: 2
#     Edge 45, Type (0, 0), BuildingBlock: AJUNOK_clean_linker_0, # of connection points: 2
#     Edge 46, Type (0, 0), BuildingBlock: AJUNOK_clean_linker_0, # of connection points: 2
#     Edge 47, Type (0, 0), BuildingBlock: AJUNOK_clean_linker_0, # of connection points: 2
#     Edge 48, Type (0, 0), BuildingBlock: AJUNOK_clean_linker_0, # of connection points: 2
#     Edge 49, Type (0, 0), BuildingBlock: AJUNOK_clean_linker_0, # of connection points: 2
#     Edge 50, Type (0, 0), BuildingBlock: AJUNOK_clean_linker_0, # of connection points: 2
#     Edge 51, Type (0, 0), BuildingBlock: AJUNOK_clean_linker_0, # of connection points: 2
#     Edge 52, Type (0, 0), BuildingBlock: AJUNOK_clean_linker_0, # of connection points: 2
#     Edge 53, Type (0, 0), BuildingBlock: AJUNOK_clean_linker_0, # of connection points: 2
#     Edge 54, Type (0, 0), BuildingBlock: AJUNOK_clean_linker_0, # of connection points: 2
#     Edge 55, Type (0, 0), BuildingBlock: AJUNOK_clean_linker_0, # of connection points: 2
#     Edge 56, Type (0, 0), BuildingBlock: AJUNOK_clean_linker_0, # of connection points: 2
#     Edge 57, Type (0, 0), BuildingBlock: AJUNOK_clean_linker_0, # of connection points: 2
#     Edge 58, Type (0, 0), BuildingBlock: AJUNOK_clean_linker_0, # of connection points: 2
#     Edge 59, Type (0, 0), BuildingBlock: AJUNOK_clean_linker_0, # of connection points: 2
#     Edge 60, Type (0, 0), BuildingBlock: AJUNOK_clean_linker_0, # of connection points: 2
#     Edge 61, Type (0, 0), BuildingBlock: AJUNOK_clean_linker_0, # of connection points: 2
#     Edge 62, Type (0, 0), BuildingBlock: AJUNOK_clean_linker_0, # of connection points: 2
#     Edge 63, Type (0, 0), BuildingBlock: AJUNOK_clean_linker_0, # of connection points: 2
#     Edge 64, Type (0, 0), BuildingBlock: AJUNOK_clean_linker_0, # of connection points: 2
#     Edge 65, Type (0, 0), BuildingBlock: AJUNOK_clean_linker_0, # of connection points: 2
#     Edge 66, Type (0, 0), BuildingBlock: AJUNOK_clean_linker_0, # of connection points: 2
#     Edge 67, Type (0, 0), BuildingBlock: AJUNOK_clean_linker_0, # of connection points: 2
#     Edge 68, Type (0, 0), BuildingBlock: AJUNOK_clean_linker_0, # of connection points: 2
#     Edge 69, Type (0, 0), BuildingBlock: AJUNOK_clean_linker_0, # of connection points: 2
#     Edge 70, Type (0, 0), BuildingBlock: AJUNOK_clean_linker_0, # of connection points: 2
#     Edge 71, Type (0, 0), BuildingBlock: AJUNOK_clean_linker_0, # of connection points: 2
#     Edge 72, Type (0, 0), BuildingBlock: AJUNOK_clean_linker_0, # of connection points: 2
#     Edge 73, Type (0, 0), BuildingBlock: AJUNOK_clean_linker_0, # of connection points: 2
#     Edge 74, Type (0, 0), BuildingBlock: AJUNOK_clean_linker_0, # of connection points: 2
#     Edge 75, Type (0, 0), BuildingBlock: AJUNOK_clean_linker_0, # of connection points: 2
#     Edge 76, Type (0, 0), BuildingBlock: AJUNOK_clean_linker_0, # of connection points: 2
#     Edge 77, Type (0, 0), BuildingBlock: AJUNOK_clean_linker_0, # of connection points: 2
#     Edge 78, Type (0, 0), BuildingBlock: AJUNOK_clean_linker_0, # of connection points: 2
#     Edge 79, Type (0, 0), BuildingBlock: AJUNOK_clean_linker_0, # of connection points: 2
#     Edge 80, Type (0, 0), BuildingBlock: AJUNOK_clean_linker_0, # of connection points: 2
#     Edge 81, Type (0, 0), BuildingBlock: AJUNOK_clean_linker_0, # of connection points: 2
#     Edge 82, Type (0, 0), BuildingBlock: AJUNOK_clean_linker_0, # of connection points: 2
#     Edge 83, Type (0, 0), BuildingBlock: AJUNOK_clean_linker_0, # of connection points: 2
#     Edge 84, Type (0, 0), BuildingBlock: AJUNOK_clean_linker_0, # of connection points: 2
#     Edge 85, Type (0, 0), BuildingBlock: AJUNOK_clean_linker_0, # of connection points: 2
#     Edge 86, Type (0, 0), BuildingBlock: AJUNOK_clean_linker_0, # of connection points: 2
#     Edge 87, Type (0, 0), BuildingBlock: AJUNOK_clean_linker_0, # of connection points: 2
#     Edge 88, Type (0, 0), BuildingBlock: AJUNOK_clean_linker_0, # of connection points: 2
#     Edge 89, Type (0, 0), BuildingBlock: AJUNOK_clean_linker_0, # of connection points: 2
#     Edge 90, Type (0, 0), BuildingBlock: AJUNOK_clean_linker_0, # of connection points: 2
#     Edge 91, Type (0, 0), BuildingBlock: AJUNOK_clean_linker_0, # of connection points: 2
#     Edge 92, Type (0, 0), BuildingBlock: AJUNOK_clean_linker_0, # of connection points: 2
#     Edge 93, Type (0, 0), BuildingBlock: AJUNOK_clean_linker_0, # of connection points: 2
#     Edge 94, Type (0, 0), BuildingBlock: AJUNOK_clean_linker_0, # of connection points: 2
#     Edge 95, Type (0, 0), BuildingBlock: AJUNOK_clean_linker_0, # of connection points: 2
#     Edge 96, Type (0, 0), BuildingBlock: AJUNOK_clean_linker_0, # of connection points: 2
#     Edge 97, Type (0, 0), BuildingBlock: AJUNOK_clean_linker_0, # of connection points: 2
#     Edge 98, Type (0, 0), BuildingBlock: AJUNOK_clean_linker_0, # of connection points: 2
#     Edge 99, Type (0, 0), BuildingBlock: AJUNOK_clean_linker_0, # of connection points: 2
#     Edge 100, Type (0, 0), BuildingBlock: AJUNOK_clean_linker_0, # of connection points: 2
#     Edge 101, Type (0, 0), BuildingBlock: AJUNOK_clean_linker_0, # of connection points: 2
#     Edge 102, Type (0, 0), BuildingBlock: AJUNOK_clean_linker_0, # of connection points: 2
#     Edge 103, Type (0, 0), BuildingBlock: AJUNOK_clean_linker_0, # of connection points: 2
#     Edge 104, Type (0, 0), BuildingBlock: AJUNOK_clean_linker_0, # of connection points: 2
#     Edge 105, Type (0, 0), BuildingBlock: AJUNOK_clean_linker_0, # of connection points: 2
#     Edge 106, Type (0, 0), BuildingBlock: AJUNOK_clean_linker_0, # of connection points: 2
#     Edge 107, Type (0, 0), BuildingBlock: AJUNOK_clean_linker_0, # of connection points: 2
#     Edge 108, Type (0, 0), BuildingBlock: AJUNOK_clean_linker_0, # of connection points: 2
#     Edge 109, Type (0, 0), BuildingBlock: AJUNOK_clean_linker_0, # of connection points: 2
#     Edge 110, Type (0, 0), BuildingBlock: AJUNOK_clean_linker_0, # of connection points: 2
#     Edge 111, Type (0, 0), BuildingBlock: AJUNOK_clean_linker_0, # of connection points: 2
#     Edge 112, Type (0, 0), BuildingBlock: AJUNOK_clean_linker_0, # of connection points: 2
#     Edge 113, Type (0, 0), BuildingBlock: AJUNOK_clean_linker_0, # of connection points: 2
#     Edge 114, Type (0, 0), BuildingBlock: AJUNOK_clean_linker_0, # of connection points: 2
#     Edge 115, Type (0, 0), BuildingBlock: AJUNOK_clean_linker_0, # of connection points: 2
#     Edge 116, Type (0, 0), BuildingBlock: AJUNOK_clean_linker_0, # of connection points: 2
#     Edge 117, Type (0, 0), BuildingBlock: AJUNOK_clean_linker_0, # of connection points: 2
#     Edge 118, Type (0, 0), BuildingBlock: AJUNOK_clean_linker_0, # of connection points: 2
#     Edge 119, Type (0, 0), BuildingBlock: AJUNOK_clean_linker_0, # of connection points: 2
#     Edge 120, Type (0, 0), BuildingBlock: AJUNOK_clean_linker_0, # of connection points: 2
#     Edge 121, Type (0, 0), BuildingBlock: AJUNOK_clean_linker_0, # of connection points: 2
#     Edge 122, Type (0, 0), BuildingBlock: AJUNOK_clean_linker_0, # of connection points: 2
#     Edge 123, Type (0, 0), BuildingBlock: AJUNOK_clean_linker_0, # of connection points: 2
#     Edge 124, Type (0, 0), BuildingBlock: AJUNOK_clean_linker_0, # of connection points: 2
#     Edge 125, Type (0, 0), BuildingBlock: AJUNOK_clean_linker_0, # of connection points: 2
#     Edge 126, Type (0, 0), BuildingBlock: AJUNOK_clean_linker_0, # of connection points: 2
#     Edge 127, Type (0, 0), BuildingBlock: AJUNOK_clean_linker_0, # of connection points: 2
#     Edge 128, Type (0, 0), BuildingBlock: AJUNOK_clean_linker_0, # of connection points: 2
#     Edge 129, Type (0, 0), BuildingBlock: AJUNOK_clean_linker_0, # of connection points: 2
#     Edge 130, Type (0, 0), BuildingBlock: AJUNOK_clean_linker_0, # of connection points: 2
#     Edge 131, Type (0, 0), BuildingBlock: AJUNOK_clean_linker_0, # of connection points: 2
#     Edge 132, Type (0, 0), BuildingBlock: AJUNOK_clean_linker_0, # of connection points: 2
#     Edge 133, Type (0, 0), BuildingBlock: AJUNOK_clean_linker_0, # of connection points: 2
#     Edge 134, Type (0, 0), BuildingBlock: AJUNOK_clean_linker_0, # of connection points: 2
#     Edge 135, Type (0, 0), BuildingBlock: AJUNOK_clean_linker_0, # of connection points: 2
#     Edge 136, Type (0, 0), BuildingBlock: AJUNOK_clean_linker_0, # of connection points: 2
#     Edge 137, Type (0, 0), BuildingBlock: AJUNOK_clean_linker_0, # of connection points: 2
#     Edge 138, Type (0, 0), BuildingBlock: AJUNOK_clean_linker_0, # of connection points: 2
#     Edge 139, Type (0, 0), BuildingBlock: AJUNOK_clean_linker_0, # of connection points: 2
#     Edge 140, Type (0, 0), BuildingBlock: AJUNOK_clean_linker_0, # of connection points: 2
#     Edge 141, Type (0, 0), BuildingBlock: AJUNOK_clean_linker_0, # of connection points: 2
#     Edge 142, Type (0, 0), BuildingBlock: AJUNOK_clean_linker_0, # of connection points: 2
#     Edge 143, Type (0, 0), BuildingBlock: AJUNOK_clean_linker_0, # of connection points: 2
#     Edge 144, Type (0, 0), BuildingBlock: AJUNOK_clean_linker_0, # of connection points: 2
#     Edge 145, Type (0, 0), BuildingBlock: AJUNOK_clean_linker_0, # of connection points: 2
#     Edge 146, Type (0, 0), BuildingBlock: AJUNOK_clean_linker_0, # of connection points: 2
#     Edge 147, Type (0, 0), BuildingBlock: AJUNOK_clean_linker_0, # of connection points: 2
#     Edge 148, Type (0, 0), BuildingBlock: AJUNOK_clean_linker_0, # of connection points: 2
#     Edge 149, Type (0, 0), BuildingBlock: AJUNOK_clean_linker_0, # of connection points: 2
#     Edge 150, Type (0, 0), BuildingBlock: AJUNOK_clean_linker_0, # of connection points: 2
#     Edge 151, Type (0, 0), BuildingBlock: AJUNOK_clean_linker_0, # of connection points: 2
#     Edge 152, Type (0, 0), BuildingBlock: AJUNOK_clean_linker_0, # of connection points: 2
#     Edge 153, Type (0, 0), BuildingBlock: AJUNOK_clean_linker_0, # of connection points: 2
#     Edge 154, Type (0, 0), BuildingBlock: AJUNOK_clean_linker_0, # of connection points: 2
#     Edge 155, Type (0, 0), BuildingBlock: AJUNOK_clean_linker_0, # of connection points: 2
#     Edge 156, Type (0, 0), BuildingBlock: AJUNOK_clean_linker_0, # of connection points: 2
#     Edge 157, Type (0, 0), BuildingBlock: AJUNOK_clean_linker_0, # of connection points: 2
#     Edge 158, Type (0, 0), BuildingBlock: AJUNOK_clean_linker_0, # of connection points: 2
#     Edge 159, Type (0, 0), BuildingBlock: AJUNOK_clean_linker_0, # of connection points: 2
# Relax obj value: 0.095
# Max RMSD: 0.250
# Mean RMSD: 0.185
data_MOF--net-sou--node1-EBIMEJ_clean_sbu_0--edge1-AJUNOK_clean_linker_0
_symmetry_space_group_name_H-M    P1
_symmetry_Int_Tables_number       1
_symmetry_cell_setting            triclinic
loop_
_symmetry_equiv_pos_as_xyz
'x, y, z'
_cell_length_a     52.225851
_cell_length_b     33.737809
_cell_length_c     33.503056
_cell_angle_alpha  88.8217
_cell_angle_beta   96.961956
_cell_angle_gamma 94.942081
loop_
_atom_site_label
_atom_site_type_symbol
_atom_site_fract_x
_atom_site_fract_y
_atom_site_fract_z
_atom_type_partial_charge
Co0 Co 0.97865 0.25504 0.01277 0.0
Co1 Co 1.00784 0.34477 0.01103 0.0
Co2 Co 0.03835 0.2785 0.04582 0.0
H3 H 1.00776 0.27669 0.03349 0.0
O4 O 1.0019 0.29676 0.04357 0.0
H5 H 0.03889 0.34512 0.01609 0.0
O6 O 0.04353 0.32321 0.00766 0.0
Co7 Co 0.06973 0.36823 0.02573 0.0
O8 O 0.05224 0.41872 0.01294 0.0
O9 O 1.01444 0.39505 0.9804 0.0
O10 O 0.09564 0.33047 0.05121 0.0
O11 O 0.07568 0.26877 0.05495 0.0
O12 O 0.95643 0.21581 0.97234 0.0
O13 O 0.94392 0.22732 0.02671 0.0
O14 O 0.05709 0.39116 0.07459 0.0
O15 O 1.0145 0.37448 0.06318 0.0
C16 C 1.01112 0.20772 0.07792 0.0
C17 C 0.95033 0.3323 0.00513 0.0
C18 C 0.11022 0.4016 -5e-05 0.0
C19 C 0.01943 0.24073 0.96713 0.0
C20 C 0.03045 0.42412 0.99303 0.0
C21 C 0.09583 0.29328 0.05935 0.0
C22 C 0.93882 0.20825 -0.00549 0.0
C23 C 0.03421 0.39157 0.08422 0.0
O24 O 0.99107 0.21186 0.05253 0.0
O25 O 0.03083 0.23316 0.08188 0.0
O26 O 0.97086 0.35627 0.00991 0.0
O27 O 0.95076 0.29446 0.00418 0.0
O28 O 0.1095 0.38361 0.03307 0.0
O29 O 0.0879 0.39989 0.98086 0.0
O30 O 0.99856 0.2576 0.96523 0.0
O31 O 0.03467 0.2404 -0.00025 0.0
Co32 Co 0.30505 0.91639 0.00151 0.0
Co33 Co 0.2467 0.90687 0.03082 0.0
Co34 Co 0.28131 0.98149 0.05029 0.0
H35 H 0.28922 0.94177 0.03273 0.0
O36 O 0.28395 0.92117 0.04596 0.0
H37 H 0.23922 0.94305 0.05518 0.0
O38 O 0.24361 0.96506 0.04354 0.0
Co39 Co 0.22372 0.96274 0.09102 0.0
O40 O 0.19416 0.92054 0.07012 0.0
O41 O 0.20887 0.89365 0.01773 0.0
O42 O 0.23776 0.02217 0.09337 0.0
O43 O 0.27416 0.03557 0.06326 0.0
O44 O 0.32811 0.87795 0.97819 0.0
O45 O 0.34265 0.91236 0.02765 0.0
O46 O 0.24434 0.92706 0.12972 0.0
O47 O 0.24604 0.88068 0.08433 0.0
C48 C 0.33296 0.99621 0.01939 0.0
C49 C 0.27091 0.83788 -0.00064 0.0
C50 C 0.18692 0.98289 0.12628 0.0
C51 C 0.2746 0.9786 0.95942 0.0
C52 C 0.19075 0.89779 0.03935 0.0
C53 C 0.25588 0.04644 0.08168 0.0
C54 C 0.34751 0.88711 0.00331 0.0
C55 C 0.24852 0.89197 0.12064 0.0
O56 O 0.32591 0.96852 -0.00583 0.0
O57 O 0.31997 1.00052 0.04935 0.0
O58 O 0.25206 0.85331 0.01212 0.0
O59 O 0.29225 0.8577 -0.00582 0.0
O60 O 0.20615 0.96642 0.14315 0.0
O61 O 0.18879 0.98817 0.08948 0.0
O62 O 0.28411 0.94528 0.95693 0.0
O63 O 0.27461 0.99602 0.99272 0.0
Co64 Co 0.97681 0.99978 0.21481 0.0
Co65 Co 1.00025 0.91463 0.21906 0.0
Co66 Co 0.03493 0.98735 0.20018 0.0
H67 H 1.00449 0.98389 0.2012 0.0
O68 O 0.99704 0.964 0.18735 0.0
H69 H 0.03075 0.91858 0.21969 0.0
O70 O 0.03809 0.93875 0.23323 0.0
Co71 Co 0.05884 0.90238 0.20813 0.0
O72 O 0.04354 0.8513 0.23074 0.0
O73 O 1.00514 0.86366 0.2492 0.0
O74 O 0.08309 0.94172 0.18203 0.0
O75 O 0.07383 1.00063 0.20396 0.0
O76 O 0.95655 0.05025 0.21288 0.0
O77 O 0.94655 1.00198 0.24858 0.0
O78 O 0.04154 0.89916 0.15161 0.0
O79 O 1.00209 0.88438 0.16858 0.0
C80 C 1.01017 0.05788 0.16625 0.0
C81 C 0.94274 0.92154 0.20402 0.0
C82 C 0.09847 0.86658 0.22599 0.0
C83 C 0.01709 0.00825 0.27652 0.0
C84 C 0.02304 0.84052 0.24639 0.0
C85 C 0.08907 0.9785 0.18885 0.0
C86 C 0.94128 0.03619 0.23683 0.0
C87 C 0.01858 0.88371 0.14363 0.0
O88 O 0.9898 0.04798 0.18315 0.0
O89 O 0.02931 0.03639 0.16794 0.0
O90 O 0.96183 0.89971 0.21054 0.0
O91 O 0.94588 0.95944 0.20309 0.0
O92 O 0.08233 0.85971 0.19554 0.0
O93 O 0.09215 0.89411 0.24657 0.0
O94 O 0.99784 0.98413 0.26554 0.0
O95 O 0.03288 0.01829 0.25105 0.0
Co96 Co 0.30533 0.26075 0.19503 0.0
Co97 Co 0.28215 0.3457 0.20533 0.0
Co98 Co 0.24595 0.2758 0.17347 0.0
H99 H 0.27655 0.27892 0.1796 0.0
O100 O 0.28283 0.3006 0.16923 0.0
H101 H 0.25135 0.34087 0.20396 0.0
O102 O 0.24592 0.31811 0.21324 0.0
Co103 Co 0.22142 0.3586 0.19642 0.0
O104 O 0.23888 0.40595 0.22709 0.0
O105 O 0.28064 0.39356 0.23932 0.0
O106 O 0.1986 0.32464 0.15485 0.0
O107 O 0.20781 0.26222 0.16979 0.0
O108 O 0.32415 0.22144 0.23374 0.0
O109 O 0.33869 0.23872 0.18063 0.0
O110 O 0.23452 0.3984 0.15777 0.0
O111 O 0.27443 0.37995 0.15627 0.0
C112 C 0.26653 0.20912 0.13683 0.0
C113 C 0.33855 0.34098 0.2003 0.0
C114 C 0.18235 0.38824 0.21508 0.0
C115 C 0.26948 0.2399 0.24876 0.0
C116 C 0.26214 0.41568 0.24153 0.0
C117 C 0.19284 0.28721 0.15275 0.0
C118 C 0.34179 0.21792 0.2121 0.0
C119 C 0.25628 0.40202 0.14444 0.0
O120 O 0.28836 0.21575 0.15853 0.0
O121 O 0.24829 0.23223 0.13569 0.0
O122 O 0.31961 0.36245 0.20211 0.0
O123 O 0.33555 0.30313 0.19731 0.0
O124 O 0.20326 0.4071 0.20907 0.0
O125 O 0.18343 0.35141 0.21099 0.0
O126 O 0.2891 0.26394 0.24578 0.0
O127 O 0.25168 0.23627 0.21918 0.0
Co128 Co 0.96265 0.64087 0.96052 0.0
Co129 Co 0.99537 0.72826 0.94227 0.0
Co130 Co 0.02433 0.66143 0.97991 0.0
H131 H 0.99349 0.66248 0.97286 0.0
O132 O 0.98896 0.68463 0.98091 0.0
H133 H 0.02573 0.72876 0.95461 0.0
O134 O 0.03135 0.70793 0.94563 0.0
Co135 Co 0.05495 0.75017 0.97461 0.0
O136 O 0.04334 0.79402 0.93516 0.0
O137 O 1.00381 0.7725 0.90541 0.0
O138 O 0.08159 0.70905 0.97676 0.0
O139 O 0.06104 0.64824 0.98304 0.0
O140 O 0.92499 0.61604 0.9481 0.0
O141 O 0.94179 0.61803 0.00693 0.0
O142 O 0.03555 0.74955 0.02263 0.0
O143 O 0.99961 0.76698 0.98774 0.0
C144 C 0.99936 0.58401 -0.00011 0.0
C145 C 0.9385 0.71592 0.92458 0.0
C146 C 0.09452 0.79616 -0.00432 0.0
C147 C 0.9991 0.61603 0.90494 0.0
C148 C 0.02346 0.79798 0.9094 0.0
C149 C 0.08166 0.6712 0.98065 0.0
C150 C 0.9218 0.60681 0.98379 0.0
C151 C 1.01474 0.76658 0.02046 0.0
O152 O 0.97874 0.5902 0.97717 0.0
O153 O 1.01631 0.61229 0.0117 0.0
O154 O 0.95855 0.73997 0.93281 0.0
O155 O 0.93814 0.67831 0.93042 0.0
O156 O 0.07501 0.79177 0.0144 0.0
O157 O 0.09149 0.7744 0.96521 0.0
O158 O 0.9758 0.61911 0.91154 0.0
O159 O 0.01838 0.63019 0.92889 0.0
Co160 Co 0.81041 0.04095 0.89694 0.0
Co161 Co 0.75168 0.02355 0.93465 0.0
Co162 Co 0.78616 0.09792 0.95463 0.0
H163 H 0.79412 0.06133 0.93142 0.0
O164 O 0.78939 0.03952 0.9431 0.0
H165 H 0.74362 0.06353 0.95138 0.0
O166 O 0.74912 0.08392 0.93805 0.0
Co167 Co 0.72746 0.08919 0.98179 0.0
O168 O 0.70612 0.03723 0.98887 0.0
O169 O 0.71291 0.00505 0.93418 0.0
O170 O 0.74032 0.14803 0.98892 0.0
O171 O 0.7806 0.15184 0.97165 0.0
O172 O 0.82742 0.03304 0.84499 0.0
O173 O 0.8462 0.01808 0.90037 0.0
O174 O 0.74792 0.06074 0.02732 0.0
O175 O 0.75747 0.00943 0.99237 0.0
C176 C 0.84259 0.10603 0.95012 0.0
C177 C 0.77712 0.95786 0.90477 0.0
C178 C 0.6846 0.11745 0.9774 0.0
C179 C 0.78671 0.1115 0.86505 0.0
C180 C 0.69941 0.00955 0.96348 0.0
C181 C 0.76171 0.16774 0.98363 0.0
C182 C 0.8474 0.01958 0.86314 0.0
C183 C 0.75735 0.02727 0.02538 0.0
O184 O 0.84007 0.08294 0.91955 0.0
O185 O 0.82369 0.11076 0.96984 0.0
O186 O 0.75876 0.96931 0.92257 0.0
O187 O 0.79577 0.98158 0.89374 0.0
O188 O 0.70318 0.12637 0.00406 0.0
O189 O 0.69059 0.09331 0.95287 0.0
O190 O 0.79071 0.0762 0.85657 0.0
O191 O 0.7884 0.12336 0.90105 0.0
Co192 Co 0.97327 0.1018 0.78019 0.0
Co193 Co 0.99824 0.01768 0.78644 0.0
Co194 Co 0.03176 0.09162 0.76761 0.0
H195 H 1.00135 0.08666 0.76766 0.0
O196 O 0.99418 0.06647 0.75396 0.0
H197 H 0.02873 0.02191 0.78512 0.0
O198 O 0.03594 0.04206 0.7988 0.0
Co199 Co 0.0567 0.00624 0.77206 0.0
O200 O 0.04426 0.95802 0.80415 0.0
O201 O 1.00443 0.96862 0.81846 0.0
O202 O 0.08712 0.04847 0.77759 0.0
O203 O 0.06982 0.10735 0.77527 0.0
O204 O 0.95082 0.14614 0.79161 0.0
O205 O 0.93821 0.10696 0.74503 0.0
O206 O 0.03568 0.02057 0.72066 0.0
O207 O 1.00032 0.98722 0.73533 0.0
C208 C 1.00781 0.1655 0.74184 0.0
C209 C 0.94454 0.02449 0.79961 0.0
C210 C 0.09134 0.96355 0.75752 0.0
C211 C 1.01393 0.12323 0.84377 0.0
C212 C 0.02383 0.94764 0.82063 0.0
C213 C 0.08938 0.0865 0.77833 0.0
C214 C 0.93315 0.13665 0.76386 0.0
C215 C 1.01632 0.99642 0.70996 0.0
O216 O 0.98769 0.15367 0.75802 0.0
O217 O 0.02604 0.1431 0.73837 0.0
O218 O 0.95958 0.00328 0.78302 0.0
O219 O 0.95039 0.06113 0.80732 0.0
O220 O 0.0686 0.96056 0.74014 0.0
O221 O 0.0943 0.99051 0.78334 0.0
O222 O 0.99074 0.1086 0.83627 0.0
O223 O 0.03031 0.12123 0.81879 0.0
Co224 Co 0.81302 0.64849 0.79531 0.0
Co225 Co 0.78679 0.72891 0.81419 0.0
Co226 Co 0.75241 0.65963 0.77584 0.0
H227 H 0.78323 0.66515 0.78185 0.0
O228 O 0.78909 0.68813 0.77364 0.0
H229 H 0.75631 0.72472 0.80575 0.0
O230 O 0.74979 0.70226 0.81419 0.0
Co231 Co 0.72777 0.74315 0.78919 0.0
O232 O 0.74387 0.78923 0.82497 0.0
O233 O 0.78245 0.77087 0.85278 0.0
O234 O 0.69843 0.69944 0.78663 0.0
O235 O 0.71449 0.64172 0.77433 0.0
O236 O 0.83729 0.60309 0.80102 0.0
O237 O 0.84493 0.65106 0.76354 0.0
O238 O 0.74481 0.74478 0.73881 0.0
O239 O 0.78206 0.76959 0.76962 0.0
C240 C 0.77479 0.59036 0.74627 0.0
C241 C 0.84249 0.72256 0.83204 0.0
C242 C 0.69025 0.78417 0.77343 0.0
C243 C 0.7771 0.61761 0.8494 0.0
C244 C 0.76477 0.79506 0.84908 0.0
C245 C 0.6955 0.6622 0.77944 0.0
C246 C 0.85229 0.61843 0.77735 0.0
C247 C 0.7652 0.76783 0.73878 0.0
O248 O 0.79574 0.59875 0.7691 0.0
O249 O 0.75689 0.61437 0.74004 0.0
O250 O 0.82473 0.7455 0.82048 0.0
O251 O 0.83934 0.6849 0.82886 0.0
O252 O 0.70451 0.77471 0.74817 0.0
O253 O 0.69737 0.77034 0.80769 0.0
O254 O 0.79944 0.63498 0.84762 0.0
O255 O 0.75831 0.62199 0.82225 0.0
Co256 Co 0.97606 0.75223 0.52003 0.0
Co257 Co 1.00619 0.84294 0.50718 0.0
Co258 Co 0.03725 0.77747 0.54382 0.0
H259 H 1.00629 0.77532 0.53388 0.0
O260 O 1.00094 0.79654 0.54253 0.0
H261 H 0.03724 0.8437 0.51305 0.0
O262 O 0.04204 0.82175 0.50497 0.0
Co263 Co 0.06782 0.86727 0.52329 0.0
O264 O 0.05023 0.91716 0.5079 0.0
O265 O 1.01247 0.89269 0.47527 0.0
O266 O 0.09421 0.82982 0.54794 0.0
O267 O 0.07454 0.76797 0.55171 0.0
O268 O 0.95595 0.71457 0.47639 0.0
O269 O 0.93785 0.7321 0.52386 0.0
O270 O 0.0548 0.88908 0.57245 0.0
O271 O 1.0122 0.87445 0.55804 0.0
C272 C 1.01049 0.70966 0.5849 0.0
C273 C 0.9491 0.831 0.51 0.0
C274 C 0.10697 0.90619 0.49916 0.0
C275 C 1.0158 0.71346 0.483 0.0
C276 C 0.02875 0.92191 0.48685 0.0
C277 C 0.0946 0.7926 0.55587 0.0
C278 C 0.9355 0.71104 0.49289 0.0
C279 C 0.03162 0.89043 0.58053 0.0
O280 O 0.98865 0.7144 0.56452 0.0
O281 O 0.03099 0.73238 0.58146 0.0
O282 O 0.96918 0.85404 0.50466 0.0
O283 O 0.94971 0.79376 0.51747 0.0
O284 O 0.09268 0.91847 0.52296 0.0
O285 O 0.09917 0.87108 0.4889 0.0
O286 O 0.99258 0.71369 0.48998 0.0
O287 O 0.03371 0.73915 0.49755 0.0
Co288 Co 0.30698 0.41922 0.50506 0.0
Co289 Co 0.24687 0.40807 0.5292 0.0
Co290 Co 0.28113 0.48097 0.5547 0.0
H291 H 0.28972 0.44238 0.53596 0.0
O292 O 0.28386 0.42116 0.54759 0.0
H293 H 0.23858 0.44322 0.55445 0.0
O294 O 0.24353 0.46554 0.54397 0.0
Co295 Co 0.22193 0.46189 0.5896 0.0
O296 O 0.19314 0.41958 0.56589 0.0
O297 O 0.20935 0.39584 0.51321 0.0
O298 O 0.23535 0.52181 0.59341 0.0
O299 O 0.27388 0.53433 0.56904 0.0
O300 O 0.34484 0.4149 0.52931 0.0
O301 O 0.33018 0.38439 0.4773 0.0
O302 O 0.24065 0.42362 0.62804 0.0
O303 O 0.24439 0.37976 0.58103 0.0
C304 C 0.33356 0.49872 0.52879 0.0
C305 C 0.27313 0.33926 0.50355 0.0
C306 C 0.18477 0.48186 0.62419 0.0
C307 C 0.27675 0.48176 0.46415 0.0
C308 C 0.19073 0.39806 0.53423 0.0
C309 C 0.25459 0.54562 0.58457 0.0
C310 C 0.34972 0.39222 0.50255 0.0
C311 C 0.24503 0.389 0.61764 0.0
O312 O 0.32847 0.4723 0.5016 0.0
O313 O 0.3198 0.49946 0.55826 0.0
O314 O 0.25267 0.35517 0.50941 0.0
O315 O 0.29501 0.35943 0.50266 0.0
O316 O 0.20463 0.46753 0.64176 0.0
O317 O 0.18622 0.48514 0.5871 0.0
O318 O 0.28592 0.44831 0.46097 0.0
O319 O 0.27665 0.49838 0.49782 0.0
Co320 Co 0.97528 0.49848 0.71619 0.0
Co321 Co 0.99924 0.41258 0.7185 0.0
Co322 Co 0.03369 0.48629 0.70157 0.0
H323 H 1.00316 0.48277 0.70273 0.0
O324 O 0.99579 0.46307 0.68852 0.0
H325 H 0.02985 0.41723 0.72027 0.0
O326 O 0.03679 0.43737 0.73423 0.0
Co327 Co 0.05853 0.40219 0.70973 0.0
O328 O 0.04297 0.3493 0.72758 0.0
O329 O 1.00428 0.36002 0.74606 0.0
O330 O 0.0811 0.4414 0.6805 0.0
O331 O 0.07263 0.49948 0.7051 0.0
O332 O 0.95654 0.55044 0.71325 0.0
O333 O 0.94359 0.50246 0.7469 0.0
O334 O 0.04201 0.40088 0.65282 0.0
O335 O 1.00202 0.38475 0.66691 0.0
C336 C 1.00955 0.55797 0.66976 0.0
C337 C 0.94177 0.4191 0.70454 0.0
C338 C 0.09968 0.3715 0.73215 0.0
C339 C 1.01557 0.50828 0.77755 0.0
C340 C 0.0221 0.33712 0.74158 0.0
C341 C 0.08736 0.47795 0.68812 0.0
C342 C 0.94001 0.53746 0.73561 0.0
C343 C 0.01937 0.38471 0.64331 0.0
O344 O 0.98933 0.54796 0.68708 0.0
O345 O 0.02816 0.53563 0.66979 0.0
O346 O 0.96094 0.39731 0.70899 0.0
O347 O 0.94463 0.45708 0.70578 0.0
O348 O 0.09193 0.37997 0.69634 0.0
O349 O 0.08411 0.38082 0.7555 0.0
O350 O 0.99661 0.48346 0.76691 0.0
O351 O 0.03179 0.5172 0.75247 0.0
Co352 Co 0.30371 0.76298 0.694 0.0
Co353 Co 0.27908 0.84707 0.70459 0.0
Co354 Co 0.24405 0.77624 0.67209 0.0
H355 H 0.27466 0.7803 0.67866 0.0
O356 O 0.28069 0.80227 0.66852 0.0
H357 H 0.24833 0.84114 0.70294 0.0
O358 O 0.24323 0.81814 0.71204 0.0
Co359 Co 0.21807 0.85761 0.69542 0.0
O360 O 0.2349 0.90741 0.72204 0.0
O361 O 0.27642 0.89487 0.73831 0.0
O362 O 0.19649 0.82383 0.65244 0.0
O363 O 0.20599 0.76163 0.66774 0.0
O364 O 0.32313 0.72093 0.72833 0.0
O365 O 0.33732 0.74443 0.67692 0.0
O366 O 0.23056 0.89733 0.65607 0.0
O367 O 0.27108 0.88108 0.65536 0.0
C368 C 0.26518 0.70941 0.63718 0.0
C369 C 0.3357 0.84446 0.69884 0.0
C370 C 0.17757 0.87813 0.71868 0.0
C371 C 0.26765 0.74005 0.74758 0.0
C372 C 0.25789 0.91763 0.73745 0.0
C373 C 0.191 0.78634 0.65022 0.0
C374 C 0.34075 0.72061 0.70599 0.0
C375 C 0.25246 0.9022 0.64322 0.0
O376 O 0.28661 0.71642 0.6598 0.0
O377 O 0.2471 0.73295 0.63424 0.0
O378 O 0.3164 0.86487 0.7019 0.0
O379 O 0.33337 0.80659 0.69538 0.0
O380 O 0.19941 0.88111 0.73921 0.0
O381 O 0.17854 0.86189 0.68558 0.0
O382 O 0.28769 0.76345 0.7453 0.0
O383 O 0.25 0.73675 0.71774 0.0
Co384 Co 0.96328 0.13888 0.46057 0.0
Co385 Co 0.99443 0.22884 0.44304 0.0
Co386 Co 0.02501 0.1618 0.47585 0.0
H387 H 0.99402 0.16169 0.47117 0.0
O388 O 0.98947 0.18333 0.48039 0.0
H389 H 0.02496 0.22991 0.45371 0.0
O390 O 0.03049 0.20983 0.44315 0.0
Co391 Co 0.05436 0.25092 0.4733 0.0
O392 O 0.04276 0.29309 0.43229 0.0
O393 O 1.00162 0.27497 0.40694 0.0
O394 O 0.0821 0.21164 0.47762 0.0
O395 O 0.06173 0.15007 0.47584 0.0
O396 O 0.92872 0.1038 0.44981 0.0
O397 O 0.94048 0.12376 0.50728 0.0
O398 O 0.03568 0.24756 0.52208 0.0
O399 O 0.9993 0.26596 0.48984 0.0
C400 C 1.00167 0.08285 0.49672 0.0
C401 C 0.93869 0.21368 0.42437 0.0
C402 C 0.0945 0.29649 0.49119 0.0
C403 C 0.99878 0.11386 0.40343 0.0
C404 C 0.02237 0.29831 0.40813 0.0
C405 C 0.0823 0.1738 0.47737 0.0
C406 C 0.92334 0.10298 0.48537 0.0
C407 C 1.01513 0.26495 0.52175 0.0
O408 O 0.97987 0.08836 0.47698 0.0
O409 O 0.01897 0.11126 0.50635 0.0
O410 O 0.95743 0.23884 0.43666 0.0
O411 O 0.93977 0.17596 0.42733 0.0
O412 O 0.07404 0.29766 0.50724 0.0
O413 O 0.09197 0.26961 0.46532 0.0
O414 O 0.97589 0.11334 0.41314 0.0
O415 O 0.01819 0.13229 0.42381 0.0
Co416 Co 0.80894 0.54141 0.39305 0.0
Co417 Co 0.74943 0.52533 0.427 0.0
Co418 Co 0.78544 0.59692 0.45342 0.0
H419 H 0.79279 0.56108 0.42829 0.0
O420 O 0.78728 0.53888 0.43841 0.0
H421 H 0.74247 0.56338 0.44867 0.0
O422 O 0.74811 0.58497 0.43737 0.0
Co423 Co 0.72712 0.5857 0.4826 0.0
O424 O 0.7035 0.5354 0.48164 0.0
O425 O 0.71026 0.50829 0.42403 0.0
O426 O 0.74021 0.64468 0.48894 0.0
O427 O 0.78081 0.65055 0.47292 0.0
O428 O 0.82811 0.53722 0.3426 0.0
O429 O 0.84351 0.51489 0.3973 0.0
O430 O 0.74319 0.54762 0.5247 0.0
O431 O 0.75348 0.50353 0.48188 0.0
C432 C 0.84135 0.6059 0.44567 0.0
C433 C 0.7749 0.45915 0.39681 0.0
C434 C 0.68459 0.61307 0.48521 0.0
C435 C 0.78437 0.61282 0.36432 0.0
C436 C 0.69686 0.50996 0.45397 0.0
C437 C 0.7613 0.66557 0.48409 0.0
C438 C 0.84663 0.52011 0.36093 0.0
C439 C 0.75137 0.5143 0.51721 0.0
O440 O 0.83807 0.58454 0.41387 0.0
O441 O 0.82327 0.60819 0.46775 0.0
O442 O 0.75524 0.4723 0.4096 0.0
O443 O 0.79531 0.48151 0.39019 0.0
O444 O 0.69261 0.58471 0.50671 0.0
O445 O 0.70118 0.62686 0.46324 0.0
O446 O 0.78826 0.57765 0.35499 0.0
O447 O 0.78715 0.624 0.40066 0.0
Co448 Co 0.97462 0.60279 0.28541 0.0
Co449 Co 0.99899 0.51815 0.28696 0.0
Co450 Co 0.03272 0.59311 0.27142 0.0
H451 H 1.00239 0.58797 0.27141 0.0
O452 O 0.99502 0.56846 0.25689 0.0
H453 H 0.02941 0.52214 0.28399 0.0
O454 O 0.03703 0.54134 0.29863 0.0
Co455 Co 0.05711 0.50766 0.26827 0.0
O456 O 0.04457 0.45813 0.29896 0.0
O457 O 1.00539 0.46783 0.31673 0.0
O458 O 0.08689 0.5513 0.26778 0.0
O459 O 0.0708 0.60916 0.27983 0.0
O460 O 0.95283 0.64924 0.29395 0.0
O461 O 0.94008 0.60858 0.24892 0.0
O462 O 0.03409 0.52559 0.22059 0.0
O463 O 1.00001 0.48929 0.23462 0.0
C464 C 1.00979 0.66955 0.25543 0.0
C465 C 0.94473 0.52539 0.30055 0.0
C466 C 0.09371 0.46923 0.25291 0.0
C467 C 1.0154 0.6099 0.35101 0.0
C468 C 0.02476 0.44698 0.31683 0.0
C469 C 0.08966 0.58872 0.27459 0.0
C470 C 0.93523 0.63932 0.26618 0.0
C471 C 1.01563 0.50023 0.20925 0.0
O472 O 0.99053 0.65734 0.27347 0.0
O473 O 0.02675 0.64674 0.24692 0.0
O474 O 0.96017 0.50433 0.28451 0.0
O475 O 0.95031 0.56193 0.30894 0.0
O476 O 0.07079 0.45433 0.25255 0.0
O477 O 0.09549 0.50526 0.26193 0.0
O478 O 0.9927 0.59414 0.34078 0.0
O479 O 0.03133 0.61644 0.32534 0.0
Co480 Co 0.8136 0.14698 0.29332 0.0
Co481 Co 0.7882 0.22811 0.31377 0.0
Co482 Co 0.7531 0.15855 0.27717 0.0
H483 H 0.78381 0.16404 0.28144 0.0
O484 O 0.78964 0.18696 0.27305 0.0
H485 H 0.75777 0.22396 0.30608 0.0
O486 O 0.75122 0.20176 0.31504 0.0
Co487 Co 0.72924 0.24227 0.28969 0.0
O488 O 0.74555 0.28804 0.32507 0.0
O489 O 0.78452 0.27083 0.35225 0.0
O490 O 0.6995 0.19927 0.28698 0.0
O491 O 0.71531 0.14078 0.27761 0.0
O492 O 0.83387 0.09733 0.29338 0.0
O493 O 0.84719 0.14907 0.26552 0.0
O494 O 0.7458 0.24295 0.23888 0.0
O495 O 0.78305 0.26837 0.26907 0.0
C496 C 0.77419 0.08757 0.24923 0.0
C497 C 0.8442 0.22146 0.32786 0.0
C498 C 0.6933 0.28654 0.27883 0.0
C499 C 0.77938 0.11993 0.35086 0.0
C500 C 0.76641 0.29432 0.34901 0.0
C501 C 0.69638 0.16172 0.28175 0.0
C502 C 0.85128 0.11357 0.27436 0.0
C503 C 0.76607 0.2662 0.23841 0.0
O504 O 0.79568 0.09614 0.27055 0.0
O505 O 0.75677 0.11228 0.24223 0.0
O506 O 0.8261 0.24444 0.31891 0.0
O507 O 0.84116 0.18394 0.32339 0.0
O508 O 0.70869 0.28171 0.25365 0.0
O509 O 0.6983 0.26606 0.31007 0.0
O510 O 0.80118 0.13831 0.34722 0.0
O511 O 0.76009 0.12212 0.32414 0.0
Co512 Co 0.47798 0.25266 0.5132 0.0
Co513 Co 0.50776 0.34191 0.50753 0.0
Co514 Co 0.53814 0.27606 0.54376 0.0
H515 H 0.50751 0.27438 0.53198 0.0
O516 O 0.50187 0.29494 0.54145 0.0
H517 H 0.53867 0.3418 0.51242 0.0
O518 O 0.54327 0.31969 0.50437 0.0
Co519 Co 0.56933 0.36501 0.52221 0.0
O520 O 0.55205 0.41565 0.50903 0.0
O521 O 0.51441 0.39181 0.47614 0.0
O522 O 0.5956 0.32713 0.54677 0.0
O523 O 0.57525 0.26599 0.55256 0.0
O524 O 0.45436 0.21681 0.47157 0.0
O525 O 0.44427 0.22316 0.52875 0.0
O526 O 0.55712 0.3878 0.5717 0.0
O527 O 0.51455 0.37181 0.55917 0.0
C528 C 0.51034 0.20822 0.58061 0.0
C529 C 0.45052 0.33056 0.50519 0.0
C530 C 0.60864 0.40205 0.49697 0.0
C531 C 0.5177 0.22997 0.4684 0.0
C532 C 0.53045 0.42098 0.48851 0.0
C533 C 0.59558 0.29007 0.55574 0.0
C534 C 0.438 0.20675 0.49527 0.0
C535 C 0.53414 0.38801 0.58101 0.0
O536 O 0.48996 0.21241 0.55608 0.0
O537 O 0.53088 0.23187 0.58162 0.0
O538 O 0.4711 0.35423 0.50684 0.0
O539 O 0.45062 0.29269 0.50634 0.0
O540 O 0.60233 0.40354 0.53187 0.0
O541 O 0.59275 0.37849 0.47593 0.0
O542 O 0.49573 0.24367 0.46529 0.0
O543 O 0.53435 0.23633 0.4991 0.0
Co544 Co 0.80461 0.91823 0.50021 0.0
Co545 Co 0.74631 0.90845 0.53017 0.0
Co546 Co 0.78296 0.97935 0.55615 0.0
H547 H 0.78955 0.94111 0.53421 0.0
O548 O 0.78377 0.9197 0.54564 0.0
H549 H 0.73944 0.94424 0.55569 0.0
O550 O 0.74496 0.96644 0.54559 0.0
Co551 Co 0.7238 0.96369 0.59158 0.0
O552 O 0.69396 0.92193 0.57015 0.0
O553 O 0.70831 0.89755 0.51626 0.0
O554 O 0.7385 0.02294 0.59662 0.0
O555 O 0.77767 0.03244 0.57399 0.0
O556 O 0.83859 0.91663 0.4751 0.0
O557 O 0.83018 0.8771 0.52097 0.0
O558 O 0.74535 0.92779 0.6287 0.0
O559 O 0.74477 0.881 0.58295 0.0
C560 C 0.83545 0.99398 0.52846 0.0
C561 C 0.76937 0.83941 0.49798 0.0
C562 C 0.68613 0.98388 0.62457 0.0
C563 C 0.78124 0.99067 0.46597 0.0
C564 C 0.69031 0.90059 0.53835 0.0
C565 C 0.75873 0.04526 0.58916 0.0
C566 C 0.84653 0.88907 0.49786 0.0
C567 C 0.74861 0.8924 0.61927 0.0
O568 O 0.8288 0.96824 0.50101 0.0
O569 O 0.82215 0.99581 0.5585 0.0
O570 O 0.75049 0.85524 0.51009 0.0
O571 O 0.7908 0.85934 0.49294 0.0
O572 O 0.70452 0.96598 0.64214 0.0
O573 O 0.68933 0.99051 0.58841 0.0
O574 O 0.78941 0.95735 0.4584 0.0
O575 O 0.77872 1.00114 0.50126 0.0
Co576 Co 0.47592 0.99836 0.71639 0.0
Co577 Co 0.499 0.91281 0.71618 0.0
Co578 Co 0.53337 0.98625 0.6977 0.0
H579 H 0.5031 0.98278 0.70058 0.0
O580 O 0.49525 0.9633 0.68653 0.0
H581 H 0.52947 0.91715 0.71678 0.0
O582 O 0.53681 0.93732 0.73032 0.0
Co583 Co 0.5577 0.90136 0.70514 0.0
O584 O 0.54141 0.84786 0.72008 0.0
O585 O 0.5044 0.86042 0.74358 0.0
O586 O 0.58244 0.94023 0.67985 0.0
O587 O 0.57226 0.99945 0.69993 0.0
O588 O 0.45816 0.0265 0.75841 0.0
O589 O 0.44386 0.02926 0.69823 0.0
O590 O 0.53958 0.90859 0.64967 0.0
O591 O 0.50102 0.8856 0.66426 0.0
C592 C 0.50855 0.05794 0.66788 0.0
C593 C 0.44182 0.91936 0.70863 0.0
C594 C 0.59791 0.86829 0.72814 0.0
C595 C 0.51776 0.00741 0.77554 0.0
C596 C 0.52151 0.83696 0.73725 0.0
C597 C 0.58789 0.97725 0.68586 0.0
C598 C 0.44114 0.03964 0.73313 0.0
C599 C 0.51789 0.88941 0.63982 0.0
O600 O 0.48922 0.04769 0.68696 0.0
O601 O 0.52724 0.03596 0.66634 0.0
O602 O 0.4607 0.8975 0.70798 0.0
O603 O 0.44513 0.95713 0.71185 0.0
O604 O 0.59103 0.87829 0.69243 0.0
O605 O 0.5819 0.87714 0.75095 0.0
O606 O 0.49833 0.98305 0.76604 0.0
O607 O 0.53276 0.01691 0.7489 0.0
Co608 Co 0.80454 0.26351 0.70045 0.0
Co609 Co 0.77923 0.3473 0.7068 0.0
Co610 Co 0.74492 0.27515 0.67506 0.0
H611 H 0.77549 0.27983 0.68289 0.0
O612 O 0.78167 0.3015 0.67237 0.0
H613 H 0.74856 0.3407 0.70381 0.0
O614 O 0.74326 0.31811 0.71364 0.0
Co615 Co 0.71828 0.35609 0.69224 0.0
O616 O 0.73515 0.40911 0.71055 0.0
O617 O 0.77494 0.3961 0.73796 0.0
O618 O 0.69633 0.32124 0.65114 0.0
O619 O 0.70674 0.25996 0.66912 0.0
O620 O 0.83822 0.25622 0.73741 0.0
O621 O 0.82429 0.21388 0.69443 0.0
O622 O 0.72893 0.37318 0.63908 0.0
O623 O 0.7716 0.37993 0.6571 0.0
C624 C 0.76797 0.20913 0.64154 0.0
C625 C 0.83596 0.34516 0.70117 0.0
C626 C 0.67933 0.38026 0.71759 0.0
C627 C 0.76807 0.24106 0.75133 0.0
C628 C 0.75708 0.41997 0.7296 0.0
C629 C 0.69149 0.28364 0.65024 0.0
C630 C 0.84195 0.22389 0.7221 0.0
C631 C 0.75161 0.38628 0.63296 0.0
O632 O 0.78908 0.21714 0.66471 0.0
O633 O 0.74905 0.23114 0.6386 0.0
O634 O 0.81671 0.36579 0.70431 0.0
O635 O 0.83373 0.30721 0.69912 0.0
O636 O 0.70126 0.38038 0.73772 0.0
O637 O 0.67939 0.36517 0.68371 0.0
O638 O 0.78622 0.26784 0.74882 0.0
O639 O 0.75046 0.23644 0.72158 0.0
Co640 Co 0.46277 0.63891 0.4624 0.0
Co641 Co 0.49534 0.72829 0.44349 0.0
Co642 Co 0.52475 0.66045 0.47862 0.0
H643 H 0.49379 0.66112 0.47274 0.0
O644 O 0.4893 0.68319 0.48105 0.0
H645 H 0.52581 0.72875 0.45567 0.0
O646 O 0.53139 0.70829 0.44588 0.0
Co647 Co 0.55525 0.74957 0.47597 0.0
O648 O 0.543 0.79471 0.43967 0.0
O649 O 0.50378 0.77466 0.40814 0.0
O650 O 0.58204 0.70913 0.47583 0.0
O651 O 0.56162 0.64791 0.48063 0.0
O652 O 0.44509 0.60808 0.50803 0.0
O653 O 0.42324 0.62082 0.45478 0.0
O654 O 0.53567 0.74641 0.5239 0.0
O655 O 0.49972 0.76531 0.49052 0.0
C656 C 0.50035 0.58149 0.497 0.0
C657 C 0.43783 0.71517 0.42959 0.0
C658 C 0.59472 0.79677 0.49542 0.0
C659 C 0.49861 0.61461 0.40497 0.0
C660 C 0.52353 0.8001 0.41379 0.0
C661 C 0.58215 0.67126 0.47859 0.0
C662 C 0.42289 0.60406 0.48861 0.0
C663 C 0.51549 0.76494 0.52263 0.0
O664 O 0.47912 0.58788 0.47606 0.0
O665 O 0.51735 0.60978 0.50879 0.0
O666 O 0.45819 0.7393 0.43437 0.0
O667 O 0.43763 0.67784 0.43721 0.0
O668 O 0.57325 0.79846 0.50822 0.0
O669 O 0.59375 0.76828 0.47158 0.0
O670 O 0.47563 0.61551 0.414 0.0
O671 O 0.5183 0.63107 0.42649 0.0
Co672 Co 0.31004 0.04129 0.39634 0.0
Co673 Co 0.25118 0.0233 0.43289 0.0
Co674 Co 0.28596 0.09655 0.45575 0.0
H675 H 0.29374 0.06066 0.43133 0.0
O676 O 0.28885 0.03857 0.44233 0.0
H677 H 0.24317 0.06286 0.45066 0.0
O678 O 0.24893 0.08359 0.43811 0.0
Co679 Co 0.22694 0.08789 0.48156 0.0
O680 O 0.20448 0.03617 0.48575 0.0
O681 O 0.21245 0.00505 0.43095 0.0
O682 O 0.24029 0.14649 0.49076 0.0
O683 O 0.28082 0.15001 0.4746 0.0
O684 O 0.32844 0.03108 0.34607 0.0
O685 O 0.34673 0.02168 0.40321 0.0
O686 O 0.24795 0.05906 0.52601 0.0
O687 O 0.25599 0.00742 0.49027 0.0
C688 C 0.34212 0.10485 0.45112 0.0
C689 C 0.27656 0.95812 0.40188 0.0
C690 C 0.18406 0.11553 0.47856 0.0
C691 C 0.28743 0.11355 0.36667 0.0
C692 C 0.19861 0.00851 0.45998 0.0
C693 C 0.26199 0.16597 0.4867 0.0
C694 C 0.34872 0.0207 0.36629 0.0
C695 C 0.25618 0.02478 0.52365 0.0
O696 O 0.33931 0.08348 0.41932 0.0
O697 O 0.32347 0.10828 0.47173 0.0
O698 O 0.25809 0.96937 0.41954 0.0
O699 O 0.29537 0.98195 0.39152 0.0
O700 O 0.20297 0.12515 0.50445 0.0
O701 O 0.18975 0.09115 0.45405 0.0
O702 O 0.29113 0.07844 0.35694 0.0
O703 O 0.2886 0.12376 0.40315 0.0
Co704 Co 0.47487 0.10213 0.27889 0.0
Co705 Co 0.49896 0.01741 0.28611 0.0
Co706 Co 0.53322 0.09034 0.26692 0.0
H707 H 0.50281 0.08623 0.26667 0.0
O708 O 0.49547 0.06605 0.25314 0.0
H709 H 0.52951 0.02044 0.28399 0.0
O710 O 0.53699 0.04044 0.29756 0.0
Co711 Co 0.55751 0.00436 0.27089 0.0
O712 O 0.54526 0.95877 0.30681 0.0
O713 O 0.50461 0.96843 0.31845 0.0
O714 O 0.5883 0.04627 0.27406 0.0
O715 O 0.57132 0.10526 0.2746 0.0
O716 O 0.45131 0.1308 0.23544 0.0
O717 O 0.43927 0.11711 0.29117 0.0
O718 O 0.53574 0.01896 0.22019 0.0
O719 O 0.50025 0.98632 0.23546 0.0
C720 C 0.51089 0.1664 0.24567 0.0
C721 C 0.44572 0.02644 0.30085 0.0
C722 C 0.59171 0.96097 0.25556 0.0
C723 C 0.51551 0.11523 0.3443 0.0
C724 C 0.52455 0.94858 0.32274 0.0
C725 C 0.59076 0.0843 0.27567 0.0
C726 C 0.43352 0.13264 0.25731 0.0
C727 C 0.51613 0.99513 0.20987 0.0
O728 O 0.49092 0.15552 0.26274 0.0
O729 O 0.52791 0.14276 0.23936 0.0
O730 O 0.46013 0.00448 0.28377 0.0
O731 O 0.45217 0.06306 0.30799 0.0
O732 O 0.57114 0.96539 0.233 0.0
O733 O 0.59279 0.98106 0.28693 0.0
O734 O 0.49272 0.09942 0.33505 0.0
O735 O 0.53189 0.11755 0.31903 0.0
Co736 Co 0.31397 0.64719 0.2918 0.0
Co737 Co 0.28712 0.72776 0.31502 0.0
Co738 Co 0.25263 0.65704 0.28056 0.0
H739 H 0.28352 0.6632 0.28338 0.0
O740 O 0.28865 0.68639 0.27471 0.0
H741 H 0.25655 0.72352 0.30736 0.0
O742 O 0.25038 0.70139 0.31697 0.0
Co743 Co 0.22753 0.74068 0.29126 0.0
O744 O 0.24396 0.7871 0.32644 0.0
O745 O 0.28327 0.77043 0.35309 0.0
O746 O 0.1986 0.69655 0.29472 0.0
O747 O 0.21495 0.63919 0.28118 0.0
O748 O 0.35339 0.64221 0.30219 0.0
O749 O 0.33282 0.62315 0.24833 0.0
O750 O 0.24398 0.74447 0.24027 0.0
O751 O 0.2819 0.76816 0.27027 0.0
C752 C 0.27452 0.58609 0.25049 0.0
C753 C 0.34117 0.71929 0.33605 0.0
C754 C 0.18943 0.77911 0.2703 0.0
C755 C 0.27939 0.60534 0.3457 0.0
C756 C 0.2652 0.79401 0.34963 0.0
C757 C 0.19609 0.65918 0.28796 0.0
C758 C 0.35455 0.62586 0.26922 0.0
C759 C 0.26453 0.76715 0.24007 0.0
O760 O 0.29716 0.59623 0.26744 0.0
O761 O 0.2561 0.60924 0.24728 0.0
O762 O 0.32514 0.74338 0.32032 0.0
O763 O 0.33676 0.68167 0.33296 0.0
O764 O 0.19517 0.74978 0.25178 0.0
O765 O 0.2054 0.78668 0.30089 0.0
O766 O 0.30176 0.61157 0.33466 0.0
O767 O 0.25996 0.62302 0.32983 0.0
Co768 Co 0.47874 0.7517 0.01269 0.0
Co769 Co 0.50685 0.84153 0.00938 0.0
Co770 Co 0.53827 0.77613 0.04481 0.0
H771 H 0.50775 0.77385 0.03295 0.0
O772 O 0.50168 0.79388 0.04276 0.0
H773 H 0.5379 0.84255 0.01465 0.0
O774 O 0.5429 0.82082 0.00639 0.0
Co775 Co 0.56849 0.86632 0.02464 0.0
O776 O 0.55096 0.91629 0.01011 0.0
O777 O 0.51283 0.89216 0.97857 0.0
O778 O 0.59519 0.82844 0.04685 0.0
O779 O 0.5756 0.76687 0.05318 0.0
O780 O 0.45671 0.71529 0.96978 0.0
O781 O 0.44479 0.72078 0.02586 0.0
O782 O 0.55521 0.88961 0.07271 0.0
O783 O 0.51289 0.87132 0.06101 0.0
C784 C 0.51097 0.70641 0.07947 0.0
C785 C 0.44938 0.82748 0.0069 0.0
C786 C 0.60755 0.90694 0.0025 0.0
C787 C 0.5195 0.73996 0.96596 0.0
C788 C 0.52928 0.9213 0.98978 0.0
C789 C 0.59571 0.79141 0.05553 0.0
C790 C 0.43958 0.70471 0.99205 0.0
C791 C 0.53225 0.88896 0.08216 0.0
O792 O 0.49066 0.71047 0.05469 0.0
O793 O 0.5313 0.73058 0.08125 0.0
O794 O 0.46962 0.85204 0.0083 0.0
O795 O 0.45029 0.78975 0.00782 0.0
O796 O 0.59324 0.91742 0.02718 0.0
O797 O 0.5999 0.87238 0.99025 0.0
O798 O 0.49841 0.75615 0.96483 0.0
O799 O 0.53463 0.73854 -0.00144 0.0
Co800 Co 0.80561 0.42027 0.00132 0.0
Co801 Co 0.74665 0.40851 0.03114 0.0
Co802 Co 0.78253 0.48071 0.05647 0.0
H803 H 0.78978 0.44265 0.03483 0.0
O804 O 0.78418 0.4211 0.04624 0.0
H805 H 0.73944 0.44389 0.05707 0.0
O806 O 0.74462 0.46624 0.04689 0.0
Co807 Co 0.72369 0.46302 0.09315 0.0
O808 O 0.69404 0.42135 0.07152 0.0
O809 O 0.70854 0.39644 0.01793 0.0
O810 O 0.73754 0.52252 0.0973 0.0
O811 O 0.77649 0.53365 0.07406 0.0
O812 O 0.82925 0.38593 0.97327 0.0
O813 O 0.84281 0.41325 0.0274 0.0
O814 O 0.7449 0.42664 0.13009 0.0
O815 O 0.74577 0.38075 0.0838 0.0
C816 C 0.83402 0.49836 0.02631 0.0
C817 C 0.77109 0.34069 -0.00052 0.0
C818 C 0.6865 0.48336 0.12744 0.0
C819 C 0.77913 0.49021 0.96626 0.0
C820 C 0.69046 0.39978 0.03991 0.0
C821 C 0.75729 0.54559 0.08931 0.0
C822 C 0.84828 0.39195 -6e-05 0.0
C823 C 0.74878 0.39163 0.12026 0.0
O824 O 0.82817 0.47163 -0.00032 0.0
O825 O 0.82138 0.49904 0.05724 0.0
O826 O 0.7515 0.35555 0.01055 0.0
O827 O 0.79232 0.3614 -0.00496 0.0
O828 O 0.70496 0.46518 0.14438 0.0
O829 O 0.68934 0.49016 0.09118 0.0
O830 O 0.78826 0.45742 0.95926 0.0
O831 O 0.77713 0.50151 0.00144 0.0
Co832 Co 0.47649 0.4982 0.21817 0.0
Co833 Co 0.50158 0.41319 0.21993 0.0
Co834 Co 0.53521 0.48781 0.20308 0.0
H835 H 0.50467 0.48355 0.20461 0.0
O836 O 0.49752 0.46374 0.19043 0.0
H837 H 0.53228 0.41843 0.22275 0.0
O838 O 0.53879 0.4392 0.23611 0.0
Co839 Co 0.56155 0.40263 0.21606 0.0
O840 O 0.54643 0.34912 0.23252 0.0
O841 O 0.50676 0.36013 0.24683 0.0
O842 O 0.58351 0.44252 0.18636 0.0
O843 O 0.57401 0.50186 0.20674 0.0
O844 O 0.46344 0.54126 0.25219 0.0
O845 O 0.43934 0.51551 0.20457 0.0
O846 O 0.54499 0.37317 0.16794 0.0
O847 O 0.50401 0.38786 0.16679 0.0
C848 C 0.5096 0.55804 0.17038 0.0
C849 C 0.44399 0.41775 0.20976 0.0
C850 C 0.60397 0.37785 0.24123 0.0
C851 C 0.51716 0.50737 0.27924 0.0
C852 C 0.52496 0.33728 0.24471 0.0
C853 C 0.58934 0.47948 0.19226 0.0
C854 C 0.4414 0.54029 0.23244 0.0
C855 C 0.52163 0.37088 0.1522 0.0
O856 O 0.48968 0.54713 0.1879 0.0
O857 O 0.52899 0.53707 0.17106 0.0
O858 O 0.46357 0.39712 0.21043 0.0
O859 O 0.44615 0.45567 0.21268 0.0
O860 O 0.59823 0.39106 0.20629 0.0
O861 O 0.58589 0.38014 0.26244 0.0
O862 O 0.49851 0.48221 0.26792 0.0
O863 O 0.53294 0.51819 0.25403 0.0
Co864 Co 0.80565 0.76404 0.19698 0.0
Co865 Co 0.78065 0.84783 0.20476 0.0
Co866 Co 0.74634 0.77714 0.17058 0.0
H867 H 0.77693 0.78114 0.17914 0.0
O868 O 0.78319 0.80303 0.16912 0.0
H869 H 0.74985 0.84145 0.20213 0.0
O870 O 0.74473 0.81832 0.21088 0.0
Co871 Co 0.71944 0.85735 0.19356 0.0
O872 O 0.73559 0.90658 0.22156 0.0
O873 O 0.7772 0.89522 0.23859 0.0
O874 O 0.69872 0.82452 0.14906 0.0
O875 O 0.70825 0.76237 0.16428 0.0
O876 O 0.82696 0.71605 0.19063 0.0
O877 O 0.83898 0.75734 0.23537 0.0
O878 O 0.73246 0.89826 0.15577 0.0
O879 O 0.77297 0.88201 0.15552 0.0
C880 C 0.7684 0.71064 0.1377 0.0
C881 C 0.83704 0.84592 0.19807 0.0
C882 C 0.67813 0.87627 0.21552 0.0
C883 C 0.76763 0.73837 0.24625 0.0
C884 C 0.75828 0.91717 0.23799 0.0
C885 C 0.69332 0.78704 0.14661 0.0
C886 C 0.84389 0.72595 0.2194 0.0
C887 C 0.75447 0.90335 0.14329 0.0
O888 O 0.78922 0.71755 0.16189 0.0
O889 O 0.75046 0.73443 0.13289 0.0
O890 O 0.81795 0.86627 0.20271 0.0
O891 O 0.83466 0.80807 0.19453 0.0
O892 O 0.68056 0.86535 0.18068 0.0
O893 O 0.69895 0.87473 0.2384 0.0
O894 O 0.78795 0.76167 0.24677 0.0
O895 O 0.75087 0.73673 0.21531 0.0
Co896 Co 0.46376 0.13905 0.95597 0.0
Co897 Co 0.49453 0.22904 0.94136 0.0
Co898 Co 0.52525 0.16244 0.97502 0.0
H899 H 0.49425 0.1619 0.96877 0.0
O900 O 0.48927 0.1832 0.978 0.0
H901 H 0.52512 0.23079 0.95356 0.0
O902 O 0.53101 0.21095 0.94312 0.0
Co903 Co 0.55427 0.25209 0.97459 0.0
O904 O 0.54248 0.29482 0.93436 0.0
O905 O 0.50201 0.27564 0.90642 0.0
O906 O 0.5823 0.21323 0.97757 0.0
O907 O 0.56222 0.15139 0.97629 0.0
O908 O 0.43724 0.09011 0.95115 0.0
O909 O 0.43309 0.13296 0.99205 0.0
O910 O 0.5342 0.24656 0.02204 0.0
O911 O 0.49813 0.26514 0.98861 0.0
C912 C 0.50177 0.08313 -0.00589 0.0
C913 C 0.43918 0.21274 0.91824 0.0
C914 C 0.59364 0.29908 -0.0047 0.0
C915 C 0.50066 0.11563 0.90077 0.0
C916 C 0.52243 0.29974 0.90934 0.0
C917 C 0.58267 0.17537 0.97737 0.0
C918 C 0.42394 0.09983 0.97751 0.0
C919 C 0.51322 0.26304 0.02115 0.0
O920 O 0.48045 0.0889 0.97308 0.0
O921 O 0.51892 0.11147 0.00478 0.0
O922 O 0.45715 0.23818 0.93298 0.0
O923 O 0.44089 0.17517 0.92061 0.0
O924 O 0.57395 0.29491 0.01369 0.0
O925 O 0.59088 0.27651 0.96547 0.0
O926 O 0.4774 0.11535 0.90872 0.0
O927 O 0.51966 0.13322 0.92282 0.0
Co928 Co 0.30956 0.54198 0.894 0.0
Co929 Co 0.25176 0.52387 0.9321 0.0
Co930 Co 0.28649 0.59684 0.95594 0.0
H931 H 0.29409 0.56134 0.93024 0.0
O932 O 0.2894 0.5392 0.94133 0.0
H933 H 0.2435 0.56238 0.95134 0.0
O934 O 0.24915 0.58364 0.93954 0.0
Co935 Co 0.22658 0.58509 0.98305 0.0
O936 O 0.20507 0.53188 0.98621 0.0
O937 O 0.21318 0.50534 0.92903 0.0
O938 O 0.23874 0.64498 0.98413 0.0
O939 O 0.28101 0.64965 0.97607 0.0
O940 O 0.3271 0.53849 0.84173 0.0
O941 O 0.34458 0.51677 0.8953 0.0
O942 O 0.24849 0.55652 0.02651 0.0
O943 O 0.25679 0.50632 0.98906 0.0
C944 C 0.34239 0.60587 0.94751 0.0
C945 C 0.27703 0.45861 0.90071 0.0
C946 C 0.1834 0.61021 0.98724 0.0
C947 C 0.28634 0.61526 0.8668 0.0
C948 C 0.19973 0.5057 0.95881 0.0
C949 C 0.26055 0.66528 0.98247 0.0
C950 C 0.34644 0.52223 0.85853 0.0
C951 C 0.25736 0.5229 0.02294 0.0
O952 O 0.33879 0.58407 0.91604 0.0
O953 O 0.32444 0.60934 0.9697 0.0
O954 O 0.25863 0.47062 0.91775 0.0
O955 O 0.29608 0.48194 0.89034 0.0
O956 O 0.18918 0.57596 -0.00216 0.0
O957 O 0.20231 0.63055 0.97526 0.0
O958 O 0.29038 0.58049 0.8563 0.0
O959 O 0.2877 0.62471 0.9035 0.0
Co960 Co 0.47201 0.60218 0.77019 0.0
Co961 Co 0.49825 0.51727 0.78372 0.0
Co962 Co 0.53199 0.59128 0.76543 0.0
H963 H 0.50123 0.58625 0.7631 0.0
O964 O 0.49465 0.56536 0.74998 0.0
H965 H 0.52875 0.52133 0.7819 0.0
O966 O 0.536 0.54128 0.79579 0.0
Co967 Co 0.55681 0.50634 0.76833 0.0
O968 O 0.54385 0.45839 0.80022 0.0
O969 O 0.50449 0.46873 0.81674 0.0
O970 O 0.58722 0.54857 0.77071 0.0
O971 O 0.5702 0.60722 0.77409 0.0
O972 O 0.43493 0.61333 0.77874 0.0
O973 O 0.44881 0.62783 0.72437 0.0
O974 O 0.53501 0.51984 0.71745 0.0
O975 O 0.50036 0.48556 0.73348 0.0
C976 C 0.50866 0.66662 0.74 0.0
C977 C 0.44404 0.52572 0.7947 0.0
C978 C 0.59265 0.46477 0.75662 0.0
C979 C 0.51216 0.63299 0.83422 0.0
C980 C 0.52401 0.44799 0.81813 0.0
C981 C 0.58965 0.58645 0.77355 0.0
C982 C 0.43013 0.62887 0.74458 0.0
C983 C 0.51605 0.4947 0.70765 0.0
O984 O 0.48744 0.6552 0.75316 0.0
O985 O 0.52675 0.64369 0.73758 0.0
O986 O 0.45942 0.50327 0.7804 0.0
O987 O 0.44974 0.56281 0.79997 0.0
O988 O 0.57195 0.46618 0.7335 0.0
O989 O 0.59291 0.48689 0.78636 0.0
O990 O 0.48857 0.62948 0.81965 0.0
O991 O 0.52993 0.61784 0.81814 0.0
Co992 Co 0.31208 0.14582 0.78802 0.0
Co993 Co 0.28767 0.22864 0.81167 0.0
Co994 Co 0.25131 0.15832 0.78046 0.0
H995 H 0.28205 0.16327 0.78125 0.0
O996 O 0.28736 0.18608 0.77188 0.0
H997 H 0.25712 0.22511 0.80599 0.0
O998 O 0.2509 0.2035 0.81658 0.0
Co999 Co 0.22833 0.24302 0.79027 0.0
O1000 O 0.24542 0.28824 0.82597 0.0
O1001 O 0.28549 0.27245 0.84947 0.0
O1002 O 0.19834 0.20079 0.79057 0.0
O1003 O 0.21388 0.14151 0.78445 0.0
O1004 O 0.34858 0.12864 0.8061 0.0
O1005 O 0.33508 0.13081 0.74538 0.0
O1006 O 0.24388 0.24067 0.73881 0.0
O1007 O 0.28136 0.26789 0.76611 0.0
C1008 C 0.27122 0.08817 0.74445 0.0
C1009 C 0.34262 0.21938 0.8251 0.0
C1010 C 0.19149 0.28547 0.77488 0.0
C1011 C 0.27734 0.10124 0.83985 0.0
C1012 C 0.26702 0.29518 0.84811 0.0
C1013 C 0.19513 0.16299 0.78784 0.0
C1014 C 0.35342 0.12223 0.77111 0.0
C1015 C 0.26383 0.26411 0.73622 0.0
O1016 O 0.29445 0.09794 0.75895 0.0
O1017 O 0.25272 0.11043 0.74633 0.0
O1018 O 0.32562 0.24358 0.81361 0.0
O1019 O 0.3379 0.18177 0.82336 0.0
O1020 O 0.20407 0.27271 0.74891 0.0
O1021 O 0.19987 0.27409 0.80957 0.0
O1022 O 0.29877 0.10472 0.82548 0.0
O1023 O 0.25943 0.12417 0.82944 0.0
C1024 C 0.8956 0.39402 0.02496 0.0
C1025 C 0.87425 0.37714 -0.0008 0.0
C1026 C 0.92034 0.38032 0.02578 0.0
C1027 C 0.92459 0.34858 0.00153 0.0
H1028 H 0.89321 0.41809 0.04474 0.0
H1029 H 0.93609 0.39397 0.04636 0.0
S1030 S 0.87571 0.29542 0.92727 0.0
N1031 N 0.85953 0.32849 0.94709 0.0
N1032 N 0.90564 0.30157 0.94995 0.0
C1033 C 0.90352 0.33173 0.97531 0.0
C1034 C 0.87848 0.34634 0.97375 0.0
C1035 C 0.39536 0.89163 0.02462 0.0
C1036 C 0.37322 0.87142 0.00355 0.0
C1037 C 0.41999 0.87764 0.02509 0.0
C1038 C 0.42341 0.84285 0.00467 0.0
H1039 H 0.39369 0.91859 0.04079 0.0
H1040 H 0.43638 0.89367 0.04236 0.0
S1041 S 0.37157 0.77824 0.94602 0.0
N1042 N 0.35629 0.81443 0.96233 0.0
N1043 N 0.40239 0.78809 0.96329 0.0
C1044 C 0.40136 0.82217 0.98378 0.0
C1045 C 0.37635 0.83655 0.98307 0.0
C1046 C 0.88533 0.84379 0.20557 0.0
C1047 C 0.86358 0.86615 0.19793 0.0
C1048 C 0.91068 0.86166 0.20658 0.0
C1049 C 0.91554 0.90274 0.19975 0.0
H1050 H 0.88288 0.8121 0.21156 0.0
H1051 H 0.92656 0.84307 0.21349 0.0
S1052 S 0.86523 0.97442 0.17551 0.0
N1053 N 0.84857 0.93139 0.18172 0.0
N1054 N 0.89596 0.96511 0.18291 0.0
C1055 C 0.89387 0.92539 0.19105 0.0
C1056 C 0.86803 0.90713 0.19039 0.0
C1057 C 0.37028 0.4003 0.19168 0.0
C1058 C 0.3655 0.36011 0.20264 0.0
C1059 C 0.39567 0.41843 0.19355 0.0
C1060 C 0.41738 0.39718 0.2065 0.0
H1061 H 0.35431 0.41786 0.18128 0.0
H1062 H 0.39825 0.44943 0.18465 0.0
S1063 S 0.41526 0.29234 0.24276 0.0
N1064 N 0.38467 0.30036 0.22959 0.0
N1065 N 0.43208 0.33436 0.23303 0.0
C1066 C 0.41282 0.35715 0.21815 0.0
C1067 C 0.38701 0.3387 0.21627 0.0
C1068 C 0.15456 0.66517 0.98873 0.0
C1069 C 0.15729 0.6243 0.98688 0.0
C1070 C 0.13014 0.67975 0.9868 0.0
C1071 C 0.10721 0.65401 0.98285 0.0
H1072 H 0.17149 0.68611 0.99222 0.0
H1073 H 0.12938 0.71164 0.98859 0.0
S1074 S 0.10396 0.54386 0.97536 0.0
N1075 N 0.13523 0.55795 0.98043 0.0
N1076 N 0.08913 0.58509 0.97626 0.0
C1077 C 0.10971 0.61279 0.98098 0.0
C1078 C 0.13475 0.598 0.98321 0.0
C1079 C 0.65513 0.16619 -0.00264 0.0
C1080 C 0.65844 0.13165 0.97648 0.0
C1081 C 0.63055 0.17998 -0.0025 0.0
C1082 C 0.60821 0.15914 0.97773 0.0
H1083 H 0.67171 0.183 0.01336 0.0
H1084 H 0.62903 0.20707 0.01356 0.0
S1085 S 0.60629 0.06664 0.91902 0.0
N1086 N 0.63729 0.07709 0.93492 0.0
N1087 N 0.591 0.10203 0.9368 0.0
C1088 C 0.61119 0.12423 0.95715 0.0
C1089 C 0.63632 0.1108 0.95604 0.0
C1090 C 0.16303 0.10255 0.78359 0.0
C1091 C 0.16812 0.14402 0.78728 0.0
C1092 C 0.13767 0.08439 0.78117 0.0
C1093 C 0.11613 0.10683 0.78224 0.0
H1094 H 0.17872 0.08381 0.78214 0.0
H1095 H 0.13503 0.05238 0.77793 0.0
S1096 S 0.11867 0.21658 0.79269 0.0
N1097 N 0.14913 0.20711 0.79278 0.0
N1098 N 0.10181 0.17295 0.78814 0.0
C1099 C 0.12093 0.14831 0.78643 0.0
C1100 C 0.14675 0.16685 0.789 0.0
C1101 C 0.66367 0.60205 0.78479 0.0
C1102 C 0.6685 0.64291 0.77684 0.0
C1103 C 0.63821 0.58431 0.78412 0.0
C1104 C 0.61643 0.6066 0.77534 0.0
H1105 H 0.67965 0.5837 0.7922 0.0
H1106 H 0.63565 0.55276 0.79074 0.0
S1107 S 0.61854 0.71396 0.74803 0.0
N1108 N 0.64919 0.70465 0.75704 0.0
N1109 N 0.60172 0.67142 0.75587 0.0
C1110 C 0.62105 0.64733 0.76652 0.0
C1111 C 0.64691 0.66538 0.76718 0.0
C1112 C 0.90423 0.82958 0.52912 0.0
C1113 C 0.92346 0.84743 0.50691 0.0
C1114 C 0.87942 0.84309 0.52575 0.0
C1115 C 0.87272 0.87479 0.49976 0.0
H1116 H 0.90839 0.80497 0.54949 0.0
H1117 H 0.86538 0.82849 0.54368 0.0
S1118 S 0.91557 0.9308 0.43362 0.0
N1119 N 0.93377 0.89766 0.45688 0.0
N1120 N 0.88727 0.92355 0.45104 0.0
C1121 C 0.89169 0.89288 0.47721 0.0
C1122 C 0.91702 0.87912 0.48069 0.0
C1123 C 0.39718 0.39423 0.52583 0.0
C1124 C 0.37539 0.37697 0.50132 0.0
C1125 C 0.42165 0.37984 0.52613 0.0
C1126 C 0.4251 0.34728 0.50243 0.0
H1127 H 0.39534 0.41904 0.54502 0.0
H1128 H 0.43782 0.39365 0.5458 0.0
S1129 S 0.37474 0.29249 0.4319 0.0
N1130 N 0.35927 0.32668 0.45137 0.0
N1131 N 0.40501 0.29882 0.4531 0.0
C1132 C 0.40358 0.32998 0.47759 0.0
C1133 C 0.3788 0.3451 0.47665 0.0
C1134 C 0.88415 0.3441 0.71548 0.0
C1135 C 0.86257 0.36498 0.70082 0.0
C1136 C 0.90962 0.36121 0.71543 0.0
C1137 C 0.91472 0.40001 0.70058 0.0
H1138 H 0.88138 0.31431 0.72774 0.0
H1139 H 0.92537 0.34418 0.72807 0.0
S1140 S 0.86535 0.46535 0.65361 0.0
N1141 N 0.84819 0.42521 0.66772 0.0
N1142 N 0.89595 0.45758 0.6675 0.0
C1143 C 0.89334 0.4208 0.6846 0.0
C1144 C 0.86736 0.40332 0.6848 0.0
C1145 C 0.38264 0.84465 0.68809 0.0
C1146 C 0.36236 0.86485 0.70043 0.0
C1147 C 0.4082 0.8622 0.69089 0.0
C1148 C 0.41466 0.90079 0.70608 0.0
H1149 H 0.37881 0.81485 0.67613 0.0
H1150 H 0.42295 0.84542 0.68082 0.0
S1151 S 0.36934 0.9655 0.7454 0.0
N1152 N 0.351 0.92504 0.73028 0.0
N1153 N 0.3987 0.95802 0.73548 0.0
C1154 C 0.39462 0.92123 0.71887 0.0
C1155 C 0.36862 0.90333 0.71603 0.0
C1156 C 0.13031 0.1794 0.49626 0.0
C1157 C 0.10782 0.15738 0.47833 0.0
C1158 C 0.15487 0.16549 0.49655 0.0
C1159 C 0.15796 0.12951 0.47807 0.0
H1160 H 0.12895 0.20761 0.51042 0.0
H1161 H 0.17158 0.18336 0.51082 0.0
S1162 S 0.10548 0.06064 0.42668 0.0
N1163 N 0.09033 0.09749 0.44194 0.0
N1164 N 0.13655 0.072 0.4413 0.0
C1165 C 0.13572 0.10726 0.45981 0.0
C1166 C 0.11063 0.12098 0.4603 0.0
C1167 C 0.62783 0.67632 0.46211 0.0
C1168 C 0.60767 0.65451 0.47954 0.0
C1169 C 0.65251 0.66254 0.46386 0.0
C1170 C 0.65828 0.62679 0.48383 0.0
H1171 H 0.62454 0.70432 0.44674 0.0
H1172 H 0.66723 0.68024 0.44963 0.0
S1173 S 0.61239 0.55772 0.5335 0.0
N1174 N 0.59516 0.5947 0.51664 0.0
N1175 N 0.64161 0.56902 0.5203 0.0
C1176 C 0.63832 0.6044 0.50105 0.0
C1177 C 0.61303 0.61818 0.49879 0.0
C1178 C 0.15367 0.64435 0.31549 0.0
C1179 C 0.16941 0.63953 0.28491 0.0
C1180 C 0.12758 0.62884 0.31164 0.0
C1181 C 0.1163 0.60835 0.27689 0.0
H1182 H 0.16163 0.66012 0.34265 0.0
H1183 H 0.11631 0.63228 0.33626 0.0
S1184 S 0.1476 0.59478 0.1851 0.0
N1185 N 0.17078 0.61728 0.2168 0.0
N1186 N 0.12192 0.58813 0.2096 0.0
C1187 C 0.13153 0.60476 0.24552 0.0
C1188 C 0.15804 0.62038 0.24949 0.0
C1189 C 0.63928 0.08238 0.28019 0.0
C1190 C 0.61749 0.10479 0.27804 0.0
C1191 C 0.66457 0.10081 0.28135 0.0
C1192 C 0.66933 0.14248 0.28038 0.0
H1193 H 0.63689 0.05017 0.2809 0.0
H1194 H 0.68052 0.08217 0.28321 0.0
S1195 S 0.61901 0.21514 0.27403 0.0
N1196 N 0.60256 0.17125 0.27477 0.0
N1197 N 0.64964 0.20574 0.2765 0.0
C1198 C 0.64766 0.16529 0.27818 0.0
C1199 C 0.62195 0.14654 0.27713 0.0
C1200 C 0.15459 0.47135 0.93991 0.0
C1201 C 0.17843 0.47407 0.96486 0.0
C1202 C 0.13285 0.44702 0.95065 0.0
C1203 C 0.13402 0.42436 0.98677 0.0
H1204 H 0.15233 0.48957 0.91293 0.0
H1205 H 0.11475 0.44702 0.93109 0.0
S1206 S 0.19264 0.4189 0.06091 0.0
N1207 N 0.20214 0.45041 0.0262 0.0
N1208 N 0.16197 0.40484 0.04597 0.0
C1209 C 0.15814 0.42575 0.01096 0.0
C1210 C 0.18006 0.45056 0.00017 0.0
C1211 C 0.16199 0.84886 -0.00531 0.0
C1212 C 0.16537 0.87358 0.02878 0.0
C1213 C 0.13912 0.8243 0.98445 0.0
C1214 C 0.11836 0.82309 0.00769 0.0
H1215 H 0.17726 0.84808 0.97561 0.0
H1216 H 0.13782 0.80588 0.95806 0.0
S1217 S 0.11669 0.88156 0.10001 0.0
N1218 N 0.14543 0.89503 0.08588 0.0
N1219 N 0.10253 0.84888 0.06652 0.0
C1220 C 0.12122 0.84764 0.04178 0.0
C1221 C 0.14462 0.87282 0.0523 0.0
C1222 C 0.13965 0.85521 0.27001 0.0
C1223 C 0.12157 0.84408 0.23668 0.0
C1224 C 0.16162 0.83421 0.28057 0.0
C1225 C 0.16624 0.80112 0.25833 0.0
H1226 H 0.13685 0.88038 0.2881 0.0
H1227 H 0.17503 0.84397 0.30641 0.0
S1228 S 0.12423 0.75887 0.16929 0.0
N1229 N 0.10949 0.79724 0.18199 0.0
N1230 N 0.15049 0.75768 0.20197 0.0
C1231 C 0.14817 0.78948 0.22515 0.0
C1232 C 0.1259 0.81095 0.21431 0.0
C1233 C 0.13539 0.38713 0.22777 0.0
C1234 C 0.15967 0.4082 0.22535 0.0
C1235 C 0.11395 0.40679 0.23662 0.0
C1236 C 0.11616 0.44808 0.24368 0.0
H1237 H 0.13286 0.3554 0.22246 0.0
H1238 H 0.09559 0.38955 0.238 0.0
S1239 S 0.17553 0.51662 0.24105 0.0
N1240 N 0.1844 0.47272 0.2305 0.0
N1241 N 0.14478 0.50899 0.24795 0.0
C1242 C 0.14041 0.46918 0.24164 0.0
C1243 C 0.16197 0.44944 0.23227 0.0
C1244 C 0.87369 0.54763 0.04696 0.0
C1245 C 0.85496 0.52988 0.01727 0.0
C1246 C 0.89506 0.57309 0.03637 0.0
C1247 C 0.89831 0.58239 -0.00425 0.0
H1248 H 0.87243 0.5406 0.07838 0.0
H1249 H 0.90938 0.585 0.06016 0.0
S1250 S 0.85373 0.54622 0.9066 0.0
N1251 N 0.84094 0.52531 0.94531 0.0
N1252 N 0.87988 0.57318 0.92615 0.0
C1253 C 0.87912 0.56609 0.96614 0.0
C1254 C 0.85785 0.53995 0.97669 0.0
C1255 C 0.91016 0.16076 0.94709 0.0
C1256 C 0.9147 0.18123 0.98394 0.0
C1257 C 0.88727 0.13573 0.93668 0.0
C1258 C 0.86783 0.13017 0.9626 0.0
H1259 H 0.92432 0.16433 0.92591 0.0
H1260 H 0.8846 0.12126 0.90773 0.0
S1261 S 0.87072 0.17602 0.06345 0.0
N1262 N 0.89797 0.19342 0.04671 0.0
N1263 N 0.85547 0.14682 0.02771 0.0
C1264 C 0.87243 0.15018 -0.00018 0.0
C1265 C 0.89564 0.17552 0.0103 0.0
C1266 C 0.86798 0.16605 0.71414 0.0
C1267 C 0.86501 0.2016 0.73376 0.0
C1268 C 0.89004 0.14509 0.72401 0.0
C1269 C 0.90987 0.15885 0.75396 0.0
H1270 H 0.85324 0.1544 0.69079 0.0
H1271 H 0.89156 0.11798 0.70801 0.0
S1272 S 0.9117 0.25078 0.81378 0.0
N1273 N 0.88396 0.24978 0.78428 0.0
N1274 N 0.92523 0.21059 0.80278 0.0
C1275 C 0.90711 0.19436 0.77378 0.0
C1276 C 0.88473 0.21567 0.76371 0.0
C1277 C 0.88042 0.56153 0.78265 0.0
C1278 C 0.87525 0.59938 0.76673 0.0
C1279 C 0.90138 0.54199 0.7725 0.0
C1280 C 0.91833 0.55959 0.74632 0.0
H1281 H 0.86796 0.54652 0.80285 0.0
H1282 H 0.90423 0.51269 0.78523 0.0
S1283 S 0.91407 0.659 0.69751 0.0
N1284 N 0.88927 0.65413 0.724 0.0
N1285 N 0.92883 0.61768 0.70534 0.0
C1286 C 0.91369 0.59772 0.73065 0.0
C1287 C 0.89216 0.61754 0.74077 0.0
C1288 C 0.1572 0.99423 0.49092 0.0
C1289 C 0.17453 0.98155 0.46542 0.0
C1290 C 0.13561 0.96987 0.50066 0.0
C1291 C 0.12996 0.93096 0.48592 0.0
H1292 H 0.16037 0.02352 0.50417 0.0
H1293 H 0.12336 0.98176 0.52057 0.0
S1294 S 0.1684 0.88241 0.41735 0.0
N1295 N 0.18394 0.92693 0.42483 0.0
N1296 N 0.1434 0.88085 0.44345 0.0
C1297 C 0.14673 0.91769 0.4598 0.0
C1298 C 0.16888 0.94293 0.4495 0.0
C1299 C 0.12025 0.35339 0.52985 0.0
C1300 C 0.11888 0.32258 0.50167 0.0
C1301 C 0.14333 0.3779 0.54004 0.0
C1302 C 0.166 0.37276 0.52232 0.0
H1303 H 0.10338 0.35858 0.54425 0.0
H1304 H 0.14338 0.40104 0.56199 0.0
S1305 S 0.17276 0.29499 0.44781 0.0
N1306 N 0.14241 0.28765 0.45705 0.0
N1307 N 0.18537 0.33319 0.47567 0.0
C1308 C 0.16475 0.34181 0.49413 0.0
C1309 C 0.14137 0.31691 0.48398 0.0
C1310 C 0.13871 0.34045 0.71504 0.0
C1311 C 0.12354 0.35114 0.74447 0.0
C1312 C 0.16078 0.31971 0.72526 0.0
C1313 C 0.16866 0.30889 0.76536 0.0
H1314 H 0.13335 0.34774 0.68366 0.0
H1315 H 0.17161 0.31181 0.70141 0.0
S1316 S 0.13602 0.33051 0.85402 0.0
N1317 N 0.11822 0.34984 0.81559 0.0
N1318 N 0.15973 0.31103 0.83485 0.0
C1319 C 0.1539 0.31988 0.79521 0.0
C1320 C 0.13135 0.34093 0.78477 0.0
C1321 C 0.137 0.94474 0.77072 0.0
C1322 C 0.11242 0.93949 0.74815 0.0
C1323 C 0.15764 0.92374 0.76179 0.0
C1324 C 0.15465 0.8968 0.72969 0.0
H1325 H 0.14048 0.96567 0.79528 0.0
H1326 H 0.17629 0.9295 0.77961 0.0
S1327 S 0.0941 0.87125 0.66184 0.0
N1328 N 0.08612 0.90432 0.69283 0.0
N1329 N 0.12497 0.8653 0.67576 0.0
C1330 C 0.1301 0.89078 0.70718 0.0
C1331 C 0.10898 0.91198 0.71647 0.0
C1332 C 0.86577 0.02507 0.48167 0.0
C1333 C 0.8579 0.02364 0.52074 0.0
C1334 C 0.88635 0.05105 0.47116 0.0
C1335 C 0.90077 0.0774 0.49895 0.0
H1336 H 0.85581 0.00589 0.45816 0.0
H1337 H 0.89116 0.04999 0.44066 0.0
S1338 S 0.88871 0.08738 0.60532 0.0
N1339 N 0.86636 0.05239 0.58745 0.0
N1340 N 0.90552 0.10105 0.56782 0.0
C1341 C 0.89328 0.07698 0.53822 0.0
C1342 C 0.87182 0.05037 0.549 0.0
C1343 C 0.86823 0.65701 0.49002 0.0
C1344 C 0.86622 0.63123 0.45686 0.0
C1345 C 0.89049 0.68265 0.5009 0.0
C1346 C 0.912 0.68399 0.47928 0.0
H1347 H 0.85234 0.65782 0.50789 0.0
H1348 H 0.89077 0.70165 0.52666 0.0
S1349 S 0.91748 0.62264 0.39029 0.0
N1350 N 0.88832 0.6087 0.40259 0.0
N1351 N 0.93014 0.65692 0.42315 0.0
C1352 C 0.91053 0.6584 0.44614 0.0
C1353 C 0.88772 0.63209 0.43495 0.0
C1354 C 0.8925 0.64734 0.22471 0.0
C1355 C 0.91206 0.66171 0.25484 0.0
C1356 C 0.87051 0.66819 0.2135 0.0
C1357 C 0.86721 0.70424 0.23196 0.0
H1358 H 0.89415 0.61972 0.20967 0.0
H1359 H 0.85597 0.65591 0.19018 0.0
S1360 S 0.91321 0.75535 0.31166 0.0
N1361 N 0.92685 0.71469 0.30246 0.0
N1362 N 0.88577 0.75379 0.28134 0.0
C1363 C 0.88671 0.71903 0.26198 0.0
C1364 C 0.90904 0.69779 0.27344 0.0
C1365 C 0.89358 0.11428 0.24531 0.0
C1366 C 0.87394 0.09335 0.26459 0.0
C1367 C 0.91536 0.09573 0.23656 0.0
C1368 C 0.91846 0.05566 0.24711 0.0
H1369 H 0.89215 0.14527 0.23695 0.0
H1370 H 0.92991 0.11298 0.22155 0.0
S1371 S 0.87211 0.98713 0.29655 0.0
N1372 N 0.85869 0.0298 0.29268 0.0
N1373 N 0.89964 0.99538 0.27703 0.0
C1374 C 0.89892 0.03438 0.26626 0.0
C1375 C 0.87667 0.05309 0.27476 0.0
C1376 C 0.64463 0.45537 0.5102 0.0
C1377 C 0.63118 0.42742 0.48321 0.0
C1378 C 0.6653 0.48103 0.49973 0.0
C1379 C 0.67417 0.4807 0.46141 0.0
H1380 H 0.63907 0.45788 0.54012 0.0
H1381 H 0.67452 0.50132 0.52279 0.0
S1382 S 0.64619 0.4122 0.37916 0.0
N1383 N 0.62845 0.40009 0.41598 0.0
N1384 N 0.66776 0.4485 0.39634 0.0
C1385 C 0.6612 0.4524 0.43393 0.0
C1386 C 0.63969 0.42593 0.44473 0.0
C1387 C 0.64035 0.82234 0.48675 0.0
C1388 C 0.6183 0.82465 0.50662 0.0
C1389 C 0.66302 0.84751 0.4967 0.0
C1390 C 0.66501 0.87613 0.52739 0.0
H1391 H 0.6402 0.80072 0.46323 0.0
H1392 H 0.67931 0.84392 0.48033 0.0
S1393 S 0.61245 0.89487 0.58844 0.0
N1394 N 0.59961 0.85857 0.55806 0.0
N1395 N 0.64224 0.90541 0.57722 0.0
C1396 C 0.64295 0.879 0.54738 0.0
C1397 C 0.61967 0.85347 0.53691 0.0
C1398 C 0.66049 0.81976 0.72354 0.0
C1399 C 0.66706 0.80665 0.76332 0.0
C1400 C 0.63823 0.83988 0.71264 0.0
C1401 C 0.6216 0.84774 0.74107 0.0
H1402 H 0.67254 0.81422 0.70046 0.0
H1403 H 0.63397 0.84916 0.68156 0.0
S1404 S 0.63017 0.82015 0.84941 0.0
N1405 N 0.65517 0.80326 0.83138 0.0
N1406 N 0.61344 0.84123 0.81094 0.0
C1407 C 0.62803 0.83512 0.78105 0.0
C1408 C 0.65071 0.81455 0.79216 0.0
C1409 C 0.61263 0.41889 0.71355 0.0
C1410 C 0.6145 0.44164 0.7487 0.0
C1411 C 0.63343 0.39833 0.70436 0.0
C1412 C 0.65698 0.39961 0.72994 0.0
H1413 H 0.59507 0.41739 0.69257 0.0
H1414 H 0.63115 0.38181 0.67658 0.0
S1415 S 0.67167 0.4542 0.82622 0.0
N1416 N 0.6417 0.46355 0.80967 0.0
N1417 N 0.68072 0.4251 0.79239 0.0
C1418 C 0.65896 0.42168 0.76555 0.0
C1419 C 0.63776 0.44264 0.77491 0.0
C1420 C 0.37588 0.57696 0.47709 0.0
C1421 C 0.39966 0.58009 0.50223 0.0
C1422 C 0.35436 0.55219 0.48719 0.0
C1423 C 0.35527 0.52978 0.52329 0.0
H1424 H 0.37402 0.59297 0.44866 0.0
H1425 H 0.33692 0.54978 0.46593 0.0
S1426 S 0.41266 0.52651 0.59975 0.0
N1427 N 0.4226 0.55795 0.56522 0.0
N1428 N 0.3821 0.51209 0.58411 0.0
C1429 C 0.37863 0.53318 0.5492 0.0
C1430 C 0.40075 0.55812 0.53874 0.0
C1431 C 0.38629 0.13537 0.43718 0.0
C1432 C 0.36733 0.12867 0.46375 0.0
C1433 C 0.40907 0.16049 0.4475 0.0
C1434 C 0.41401 0.17969 0.48497 0.0
H1435 H 0.38334 0.12171 0.40785 0.0
H1436 H 0.42286 0.16503 0.4258 0.0
S1437 S 0.37172 0.17024 0.56672 0.0
N1438 N 0.35599 0.14227 0.53034 0.0
N1439 N 0.39849 0.18892 0.54935 0.0
C1440 C 0.39558 0.17251 0.51218 0.0
C1441 C 0.3724 0.14718 0.50171 0.0
C1442 C 0.40652 0.17491 0.20966 0.0
C1443 C 0.40938 0.15237 0.24549 0.0
C1444 C 0.38445 0.19553 0.19884 0.0
C1445 C 0.36431 0.19428 0.22333 0.0
H1446 H 0.42162 0.17714 0.19005 0.0
H1447 H 0.38337 0.21306 0.17132 0.0
S1448 S 0.36143 0.13734 0.31894 0.0
N1449 N 0.38955 0.12854 0.30459 0.0
N1450 N 0.34812 0.16714 0.28419 0.0
C1451 C 0.36662 0.17109 0.25877 0.0
C1452 C 0.38912 0.15017 0.26985 0.0
C1453 C 0.37529 0.58155 0.22553 0.0
C1454 C 0.37763 0.60713 0.25871 0.0
C1455 C 0.39608 0.56055 0.21707 0.0
C1456 C 0.42014 0.5643 0.24133 0.0
H1457 H 0.35704 0.57692 0.20642 0.0
H1458 H 0.39311 0.54075 0.19157 0.0
S1459 S 0.43677 0.62887 0.33077 0.0
N1460 N 0.40627 0.63599 0.31525 0.0
N1461 N 0.44529 0.59674 0.29931 0.0
C1462 C 0.42294 0.59046 0.2741 0.0
C1463 C 0.40172 0.61178 0.28278 0.0
C1464 C 0.66919 0.94488 0.95425 0.0
C1465 C 0.67494 0.98369 0.96983 0.0
C1466 C 0.64736 0.92004 0.96427 0.0
C1467 C 0.63027 0.93304 0.99009 0.0
H1468 H 0.68198 0.93317 0.93513 0.0
H1469 H 0.64407 0.89028 0.95216 0.0
S1470 S 0.63515 0.03284 0.03666 0.0
N1471 N 0.66033 0.0339 0.01133 0.0
N1472 N 0.62006 0.98827 0.02891 0.0
C1473 C 0.6354 0.97207 0.00466 0.0
C1474 C 0.65744 0.99701 -0.00511 0.0
C1475 C 0.63854 0.32668 0.98454 0.0
C1476 C 0.61752 0.32614 0.00724 0.0
C1477 C 0.66158 0.35089 -0.00497 0.0
C1478 C 0.66489 0.376 0.02882 0.0
H1479 H 0.63734 0.30789 0.95843 0.0
H1480 H 0.67707 0.34945 0.97646 0.0
S1481 S 0.61536 0.38659 0.09807 0.0
N1482 N 0.60128 0.35354 0.0649 0.0
N1483 N 0.64442 0.39903 0.08468 0.0
C1484 C 0.64382 0.37614 0.05162 0.0
C1485 C 0.62027 0.3513 0.04086 0.0
C1486 C 0.66797 0.3344 0.23593 0.0
C1487 C 0.67142 0.31198 0.27174 0.0
C1488 C 0.64658 0.3568 0.22711 0.0
C1489 C 0.62773 0.35754 0.25369 0.0
H1490 H 0.68169 0.33416 0.21414 0.0
H1491 H 0.64452 0.37295 0.19876 0.0
S1492 S 0.62803 0.30473 0.35203 0.0
N1493 N 0.65463 0.29295 0.33468 0.0
N1494 N 0.61413 0.3344 0.31772 0.0
C1495 C 0.63122 0.336 0.29007 0.0
C1496 C 0.65315 0.31339 0.2992 0.0
C1497 C 0.65604 0.91397 0.26352 0.0
C1498 C 0.65495 0.89435 0.22657 0.0
C1499 C 0.6354 0.93488 0.27284 0.0
C1500 C 0.6127 0.93684 0.24572 0.0
H1501 H 0.67327 0.91409 0.28508 0.0
H1502 H 0.63745 0.95016 0.30132 0.0
S1503 S 0.59953 0.88864 0.14586 0.0
N1504 N 0.62885 0.87697 0.16336 0.0
N1505 N 0.59006 0.91582 0.18089 0.0
C1506 C 0.61107 0.91641 0.20913 0.0
C1507 C 0.63215 0.89528 0.19959 0.0
C1508 C 0.38589 0.08489 0.01939 0.0
C1509 C 0.40106 0.07387 0.98978 0.0
C1510 C 0.36431 0.0598 0.03002 0.0
C1511 C 0.35706 0.02247 0.01165 0.0
H1512 H 0.39053 0.11328 0.03419 0.0
H1513 H 0.353 0.07005 0.0522 0.0
S1514 S 0.39124 0.97897 0.93329 0.0
N1515 N 0.40722 0.02261 0.94291 0.0
N1516 N 0.36832 0.97567 0.96317 0.0
C1517 C 0.3727 0.01105 0.98268 0.0
C1518 C 0.39415 0.03658 0.9717 0.0
C1519 C 0.37377 0.6472 -0.00365 0.0
C1520 C 0.36795 0.62941 0.9582 0.0
C1521 C 0.39699 0.67092 0.00694 0.0
C1522 C 0.41552 0.67832 0.97988 0.0
H1523 H 0.36023 0.64292 0.01842 0.0
H1524 H 0.40031 0.68387 0.03664 0.0
S1525 S 0.41 0.63963 0.87593 0.0
N1526 N 0.38302 0.62134 0.89305 0.0
N1527 N 0.42644 0.66605 0.91299 0.0
C1528 C 0.41011 0.66079 0.94164 0.0
C1529 C 0.38646 0.63635 0.93085 0.0
C1530 C 0.38637 0.64763 0.75622 0.0
C1531 C 0.4067 0.65008 0.73205 0.0
C1532 C 0.36495 0.67003 0.74717 0.0
C1533 C 0.36309 0.69599 0.71371 0.0
H1534 H 0.38711 0.62855 0.78268 0.0
H1535 H 0.34991 0.66735 0.76692 0.0
S1536 S 0.41113 0.7133 0.64073 0.0
N1537 N 0.42348 0.68027 0.67291 0.0
N1538 N 0.38339 0.72257 0.65605 0.0
C1539 C 0.38312 0.69834 0.68895 0.0
C1540 C 0.40487 0.67534 0.69806 0.0
C1541 C 0.37967 0.09425 0.72191 0.0
C1542 C 0.37677 0.10352 0.76182 0.0
C1543 C 0.40073 0.07416 0.71284 0.0
C1544 C 0.41968 0.06242 0.74331 0.0
H1545 H 0.36536 0.102 0.69749 0.0
H1546 H 0.40195 0.06732 0.68171 0.0
S1547 S 0.42118 0.07984 0.85264 0.0
N1548 N 0.39492 0.09981 0.83203 0.0
N1549 N 0.43419 0.06193 0.81504 0.0
C1550 C 0.41713 0.07188 0.78327 0.0
C1551 C 0.39578 0.09245 0.7925 0.0
C1552 C 0.03167 0.14808 0.91257 0.0
C1553 C 0.01889 0.15471 0.87404 0.0
C1554 C 0.03353 0.17742 0.94228 0.0
C1555 C 0.02254 0.21395 0.9341 0.0
H1556 H 0.03931 0.11969 0.92018 0.0
H1557 H 0.0423 0.17057 0.97232 0.0
S1558 S 0.98995 0.24694 0.83615 0.0
N1559 N 0.99724 0.20135 0.82824 0.0
N1560 N 1.00084 0.25627 0.88361 0.0
C1561 C 1.01115 0.22151 0.89492 0.0
C1562 C 1.00927 0.19186 0.86499 0.0
C1563 C 0.286 0.0028 0.89325 0.0
C1564 C 0.26937 0.00309 0.92307 0.0
C1565 C 0.28771 0.03425 0.86575 0.0
C1566 C 0.27273 0.06697 0.86689 0.0
H1567 H 0.29931 0.97988 0.89312 0.0
H1568 H 0.30161 0.03347 0.84431 0.0
S1569 S 0.22237 0.07737 0.93411 0.0
N1570 N 0.23488 0.03536 0.94866 0.0
N1571 N 0.23787 0.09454 0.89635 0.0
C1572 C 0.25415 0.06559 0.89396 0.0
C1573 C 0.25254 0.03358 0.92222 0.0
C1574 C 0.02192 0.09847 0.34466 0.0
C1575 C 1.00391 0.08678 0.37161 0.0
C1576 C 0.02731 0.07234 0.31507 0.0
C1577 C 1.01528 0.0333 0.31202 0.0
H1578 H 0.03145 0.12832 0.34586 0.0
H1579 H 0.04031 0.08326 0.2937 0.0
S1580 S 0.97035 0.98615 0.38064 0.0
N1581 N 0.97642 0.03238 0.39645 0.0
N1582 N 0.98697 0.98302 0.34211 0.0
C1583 C 0.9985 0.02065 0.34065 0.0
C1584 C 0.99268 0.04742 0.37006 0.0
C1585 C 0.26695 0.13797 0.29977 0.0
C1586 C 0.28316 0.14522 0.33599 0.0
C1587 C 0.26131 0.1692 0.27244 0.0
C1588 C 0.27196 0.20854 0.2803 0.0
H1589 H 0.25831 0.1082 0.2928 0.0
H1590 H 0.24917 0.16225 0.24449 0.0
S1591 S 0.31617 0.24256 0.37051 0.0
N1592 N 0.31015 0.19435 0.37789 0.0
N1593 N 0.29959 0.25262 0.3269 0.0
C1594 C 0.28821 0.21591 0.31645 0.0
C1595 C 0.29382 0.18438 0.34414 0.0
C1596 C 1.00252 0.85958 0.07416 0.0
C1597 C 1.01432 0.85249 0.1132 0.0
C1598 C 1.00105 0.83034 0.0445 0.0
C1599 C 1.01154 0.79353 0.0532 0.0
H1600 H 0.99524 0.88817 0.06625 0.0
H1601 H 0.99293 0.83744 0.01415 0.0
S1602 S 0.04169 0.75952 0.15241 0.0
N1603 N 0.03454 0.80525 0.15997 0.0
N1604 N 0.0319 0.75058 0.1045 0.0
C1605 C 0.0221 0.78562 0.09275 0.0
C1606 C 0.02348 0.81512 0.12271 0.0
C1607 C 0.74468 1.00171 0.09025 0.0
C1608 C 0.7624 0.00308 0.06193 0.0
C1609 C 0.74296 0.96976 0.11718 0.0
C1610 C 0.75902 0.93822 0.11696 0.0
H1611 H 0.73059 0.02358 0.08944 0.0
H1612 H 0.72823 0.9692 0.1374 0.0
S1613 S 0.81231 0.93269 0.05416 0.0
N1614 N 0.7989 0.97383 0.03893 0.0
N1615 N 0.79597 0.91383 0.09035 0.0
C1616 C 0.77861 0.94142 0.0916 0.0
C1617 C 0.78021 0.97388 0.06386 0.0
C1618 C 0.04451 0.94916 0.62482 0.0
C1619 C 0.02675 0.91649 0.61365 0.0
C1620 C 0.04008 0.97577 0.65423 0.0
C1621 C 0.01791 0.97063 0.67472 0.0
H1622 H 0.06199 0.95462 0.61042 0.0
H1623 H 0.05473 1.00006 0.66166 0.0
S1624 S 0.96444 0.89104 0.65489 0.0
N1625 N 0.9852 0.88164 0.62356 0.0
N1626 N 0.97725 0.93104 0.67997 0.0
C1627 C 0.9996 0.93858 0.66317 0.0
C1628 C 1.00393 0.9117 0.63249 0.0
C1629 C 0.75389 0.79106 0.66882 0.0
C1630 C 0.76502 0.79985 0.70816 0.0
C1631 C 0.74919 0.8213 0.64048 0.0
C1632 C 0.75495 0.86177 0.65048 0.0
H1633 H 0.74816 0.76051 0.66011 0.0
H1634 H 0.74021 0.81268 0.61071 0.0
S1635 S 0.78476 0.90051 0.74978 0.0
N1636 N 0.78227 0.85168 0.75592 0.0
N1637 N 0.7731 0.90888 0.70255 0.0
C1638 C 0.76653 0.87103 0.68966 0.0
C1639 C 0.77172 0.83998 0.71849 0.0
C1640 C 0.03759 0.69144 0.42587 0.0
C1641 C 0.02108 0.68256 0.45547 0.0
C1642 C 0.03747 0.6656 0.39357 0.0
C1643 C 0.02079 0.6303 0.39003 0.0
H1644 H 0.04909 0.71975 0.42593 0.0
H1645 H 0.04899 0.675 0.36972 0.0
S1646 S 0.97848 0.58973 0.46491 0.0
N1647 N 0.99123 0.63302 0.48325 0.0
N1648 N 0.99078 0.58488 0.42233 0.0
C1649 C 1.0063 0.61932 0.4217 0.0
C1650 C 1.00652 0.6454 0.45452 0.0
C1651 C 0.29091 0.53947 0.37236 0.0
C1652 C 0.27541 0.57157 0.37328 0.0
C1653 C 0.28911 0.50764 0.39929 0.0
C1654 C 0.27199 0.50708 0.42844 0.0
H1655 H 0.30503 0.5393 0.35119 0.0
H1656 H 0.30262 0.48501 0.39921 0.0
S1657 S 0.22409 0.58007 0.439 0.0
N1658 N 0.23989 0.59802 0.40184 0.0
N1659 N 0.23687 0.53825 0.45356 0.0
C1660 C 0.2549 0.53722 0.42762 0.0
C1661 C 0.25652 0.56951 0.39975 0.0
C1662 C 0.9893 0.53372 0.82775 0.0
C1663 C 1.01302 0.53537 0.81128 0.0
C1664 C 0.98481 0.56072 0.85674 0.0
C1665 C 1.00401 0.59027 0.87156 0.0
H1666 H 0.97368 0.5116 0.8179 0.0
H1667 H 0.96621 0.55772 0.86822 0.0
S1668 S 0.0701 0.60653 0.84048 0.0
N1669 N 0.05625 0.56878 0.81285 0.0
N1670 N 0.04817 0.61892 0.86852 0.0
C1671 C 0.0281 0.59191 0.85618 0.0
C1672 C 0.03251 0.56468 0.82588 0.0
C1673 C 0.26843 0.63823 0.79774 0.0
C1674 C 0.2808 0.64715 0.83657 0.0
C1675 C 0.26256 0.66871 0.76966 0.0
C1676 C 0.26922 0.70904 0.77934 0.0
H1677 H 0.26323 0.60758 0.78901 0.0
H1678 H 0.25374 0.66055 0.73968 0.0
S1679 S 0.30175 0.74842 0.87668 0.0
N1680 N 0.29929 0.69968 0.88311 0.0
N1681 N 0.2885 0.75629 0.83024 0.0
C1682 C 0.28133 0.71831 0.81805 0.0
C1683 C 0.28707 0.68757 0.84667 0.0
C1684 C 0.99752 0.32433 0.54926 0.0
C1685 C 1.01312 0.29201 0.55519 0.0
C1686 C 0.99907 0.35436 0.57812 0.0
C1687 C 0.01656 0.35316 0.61324 0.0
H1688 H 0.98481 0.32733 0.52151 0.0
H1689 H 0.98723 0.37917 0.57237 0.0
S1690 S 0.05859 0.27243 0.64605 0.0
N1691 N 0.04399 0.25844 0.60152 0.0
N1692 N 0.04769 0.31555 0.65445 0.0
C1693 C 0.03117 0.32014 0.62041 0.0
C1694 C 0.02923 0.28934 0.59172 0.0
C1695 C 0.76855 0.45334 0.61125 0.0
C1696 C 0.75393 0.41688 0.60181 0.0
C1697 C 0.76733 0.48578 0.58437 0.0
C1698 C 0.75188 0.48207 0.54722 0.0
H1699 H 0.78017 0.4573 0.64019 0.0
H1700 H 0.77861 0.51353 0.59246 0.0
S1701 S 0.71033 0.39265 0.50864 0.0
N1702 N 0.72362 0.3791 0.55347 0.0
N1703 N 0.72206 0.43901 0.50214 0.0
C1704 C 0.73764 0.44542 0.53736 0.0
C1705 C 0.73849 0.41301 0.56488 0.0
C1706 C 1.00394 0.43744 0.16869 0.0
C1707 C 0.0188 0.47419 0.17494 0.0
C1708 C 1.00911 0.41055 0.13963 0.0
C1709 C 0.0297 0.41895 0.11638 0.0
H1710 H 0.98849 0.42901 0.18682 0.0
H1711 H 0.99713 0.38273 0.13573 0.0
S1712 S 0.07278 0.51254 0.11779 0.0
N1713 N 0.05364 0.51873 0.15247 0.0
N1714 N 0.06375 0.46785 0.09943 0.0
C1715 C 0.04428 0.4559 0.12163 0.0
C1716 C 0.0387 0.48357 0.1504 0.0
C1717 C 0.74946 0.32039 0.14073 0.0
C1718 C 0.75506 0.36079 0.15116 0.0
C1719 C 0.75429 0.28994 0.16876 0.0
C1720 C 0.7654 0.29849 0.20815 0.0
H1721 H 0.74056 0.31203 0.11086 0.0
H1722 H 0.74876 0.25943 0.15975 0.0
S1723 S 0.78438 0.3989 0.25089 0.0
N1724 N 0.77276 0.40758 0.20372 0.0
N1725 N 0.78221 0.35002 0.25651 0.0
C1726 C 0.77181 0.33858 0.21893 0.0
C1727 C 0.76647 0.3698 0.19044 0.0
C1728 C 0.50257 0.16495 0.43828 0.0
C1729 C 0.52086 0.19808 0.44094 0.0
C1730 C 0.50253 0.13612 0.40906 0.0
C1731 C 0.52063 0.13962 0.38106 0.0
H1732 H 0.48763 0.16194 0.4582 0.0
H1733 H 0.48726 0.11211 0.40706 0.0
S1734 S 0.57469 0.2188 0.37929 0.0
N1735 N 0.55919 0.23107 0.41678 0.0
N1736 N 0.55922 0.17711 0.36092 0.0
C1737 C 0.54036 0.1712 0.38555 0.0
C1738 C 0.54041 0.20049 0.41572 0.0
C1739 C 0.7666 0.01845 0.39793 0.0
C1740 C 0.78076 0.023 0.43603 0.0
C1741 C 0.76515 0.05084 0.37106 0.0
C1742 C 0.77829 0.08825 0.38135 0.0
H1743 H 0.75637 0.99008 0.38914 0.0
H1744 H 0.75435 0.04624 0.34161 0.0
S1745 S 0.81865 0.11471 0.47712 0.0
N1746 N 0.80826 0.06757 0.48273 0.0
N1747 N 0.80613 0.12765 0.43161 0.0
C1748 C 0.7927 0.09287 0.41914 0.0
C1749 C 0.7938 0.06038 0.44664 0.0
C1750 C 0.49202 0.05174 0.8641 0.0
C1751 C 0.50636 0.08881 0.86917 0.0
C1752 C 0.49724 0.02466 0.83574 0.0
C1753 C 0.51672 0.03369 0.81044 0.0
H1754 H 0.47668 0.04332 0.88248 0.0
H1755 H 0.48518 0.99685 0.83279 0.0
S1756 S 0.56175 0.12535 0.81499 0.0
N1757 N 0.54254 0.13188 0.84958 0.0
N1758 N 0.5519 0.08149 0.79497 0.0
C1759 C 0.53207 0.07001 0.81653 0.0
C1760 C 0.52697 0.09743 0.84611 0.0
C1761 C 0.75641 0.17225 0.7781 0.0
C1762 C 0.77252 0.20818 0.78106 0.0
C1763 C 0.76172 0.13974 0.80392 0.0
C1764 C 0.78328 0.14217 0.83345 0.0
H1765 H 0.73963 0.1691 0.75564 0.0
H1766 H 0.7485 0.11309 0.80157 0.0
S1767 S 0.83226 0.22783 0.85298 0.0
N1768 N 0.8115 0.24308 0.81596 0.0
N1769 N 0.82129 0.18199 0.86355 0.0
C1770 C 0.79971 0.17736 0.83635 0.0
C1771 C 0.79437 0.21037 0.81046 0.0
C1772 C 0.53858 0.84031 0.60357 0.0
C1773 C 0.51631 0.85956 0.60799 0.0
C1774 C 0.5376 0.80824 0.57776 0.0
C1775 C 0.51452 0.7949 0.55394 0.0
H1776 H 0.55689 0.84918 0.62122 0.0
H1777 H 0.55536 0.79437 0.57615 0.0
S1778 S 0.45031 0.83348 0.55645 0.0
N1779 N 0.47002 0.8613 0.58896 0.0
N1780 N 0.46842 0.80216 0.53805 0.0
C1781 C 0.49193 0.81351 0.5584 0.0
C1782 C 0.49278 0.84557 0.58591 0.0
C1783 C 0.27489 0.96617 0.55825 0.0
C1784 C 0.26093 0.99996 0.56004 0.0
C1785 C 0.27312 0.93513 0.58639 0.0
C1786 C 0.25702 0.93673 0.61676 0.0
H1787 H 0.28599 0.96255 0.53346 0.0
H1788 H 0.28315 0.90884 0.58291 0.0
S1789 S 0.22105 0.02215 0.63985 0.0
N1790 N 0.23403 0.0359 0.59869 0.0
N1791 N 0.23041 0.97742 0.65131 0.0
C1792 C 0.24499 0.97194 0.62119 0.0
C1793 C 0.24712 0.00375 0.59297 0.0
C1794 C 0.54206 0.9516 0.12099 0.0
C1795 C 0.52716 0.91512 0.11475 0.0
C1796 C 0.5371 0.97818 0.15001 0.0
C1797 C 0.51728 0.96925 0.17474 0.0
H1798 H 0.55764 0.95993 0.10304 0.0
H1799 H 0.54954 0.00557 0.15383 0.0
S1800 S 0.47149 0.87844 0.16837 0.0
N1801 N 0.49063 0.87227 0.1336 0.0
N1802 N 0.48169 0.92179 0.18923 0.0
C1803 C 0.50161 0.93335 0.16787 0.0
C1804 C 0.50649 0.90641 0.13772 0.0
C1805 C 0.25511 0.7906 0.16979 0.0
C1806 C 0.26437 0.79945 0.20986 0.0
C1807 C 0.25062 0.82088 0.14141 0.0
C1808 C 0.25461 0.86141 0.1521 0.0
H1809 H 0.25077 0.75993 0.16046 0.0
H1810 H 0.24319 0.81217 0.11097 0.0
S1811 S 0.27847 0.90012 0.25396 0.0
N1812 N 0.27757 0.85126 0.25936 0.0
N1813 N 0.26865 0.90856 0.206 0.0
C1814 C 0.26411 0.87071 0.19221 0.0
C1815 C 0.26916 0.83964 0.22107 0.0
C1816 C 0.50831 0.69884 0.86165 0.0
C1817 C 0.5191 0.66207 0.86643 0.0
C1818 C 0.51039 0.72534 0.8934 0.0
C1819 C 0.52329 0.71599 0.93119 0.0
H1820 H 0.49723 0.70654 0.83348 0.0
H1821 H 0.5007 0.7525 0.88882 0.0
S1822 S 0.55784 0.62549 0.95731 0.0
N1823 N 0.54549 0.61918 0.90985 0.0
N1824 N 0.5494 0.66904 0.97045 0.0
C1825 C 0.53603 0.68066 0.93545 0.0
C1826 C 0.53393 0.6536 0.90275 0.0
C1827 C 0.78788 0.56018 0.94606 0.0
C1828 C 0.77694 0.52159 0.93541 0.0
C1829 C 0.7871 0.59148 0.91835 0.0
C1830 C 0.77452 0.58572 0.87939 0.0
H1831 H 0.79798 0.56601 0.97586 0.0
H1832 H 0.7967 0.62024 0.9273 0.0
S1833 S 0.74158 0.4911 0.83726 0.0
N1834 N 0.75277 0.47942 0.88386 0.0
N1835 N 0.75012 0.539 0.83152 0.0
C1836 C 0.76268 0.54764 0.86861 0.0
C1837 C 0.76422 0.51532 0.89669 0.0
C1838 C 0.52854 0.57025 0.31954 0.0
C1839 C 0.51438 0.53286 0.31406 0.0
C1840 C 0.52325 0.59688 0.34872 0.0
C1841 C 0.50323 0.58749 0.37282 0.0
H1842 H 0.54341 0.57945 0.30059 0.0
H1843 H 0.53463 0.62528 0.352 0.0
S1844 S 0.46227 0.4921 0.37372 0.0
N1845 N 0.481 0.48669 0.33829 0.0
N1846 N 0.4706 0.53718 0.39154 0.0
C1847 C 0.48944 0.54991 0.36846 0.0
C1848 C 0.49518 0.5225 0.3396 0.0
C1849 C 0.77704 0.71439 0.31624 0.0
C1850 C 0.76791 0.70579 0.27608 0.0
C1851 C 0.78179 0.68395 0.34428 0.0
C1852 C 0.77814 0.64352 0.33316 0.0
H1853 H 0.78111 0.74499 0.32588 0.0
H1854 H 0.78911 0.69249 0.37481 0.0
S1855 S 0.75458 0.60545 0.23097 0.0
N1856 N 0.75511 0.65432 0.22604 0.0
N1857 N 0.76446 0.59671 0.27884 0.0
C1858 C 0.7687 0.63446 0.29299 0.0
C1859 C 0.76343 0.66568 0.26445 0.0
C1860 C 0.5255 0.3049 0.12502 0.0
C1861 C 0.51459 0.3416 0.12023 0.0
C1862 C 0.52307 0.27811 0.0935 0.0
C1863 C 0.50971 0.28709 0.05596 0.0
H1864 H 0.53688 0.29744 0.15298 0.0
H1865 H 0.53287 0.25105 0.09802 0.0
S1866 S 0.47446 0.37701 0.0302 0.0
N1867 N 0.48744 0.38386 0.07729 0.0
N1868 N 0.48289 0.33345 0.01711 0.0
C1869 C 0.49679 0.32227 0.05181 0.0
C1870 C 0.49924 0.34963 0.08427 0.0
C1871 C 0.24889 0.50063 0.09137 0.0
C1872 C 0.26313 0.49784 0.05879 0.0
C1873 C 0.24772 0.46992 0.11979 0.0
C1874 C 0.26091 0.43558 0.1168 0.0
H1875 H 0.23691 0.52504 0.09325 0.0
H1876 H 0.23552 0.47245 0.14344 0.0
S1877 S 0.30521 0.41806 0.04187 0.0
N1878 N 0.29389 0.46121 0.02847 0.0
N1879 N 0.29177 0.40341 0.08244 0.0
C1880 C 0.27733 0.43432 0.08682 0.0
C1881 C 0.2784 0.46552 0.05763 0.0
C1882 C 0.5435 0.45076 0.62001 0.0
C1883 C 0.52925 0.41369 0.6142 0.0
C1884 C 0.53793 0.47741 0.64864 0.0
C1885 C 0.5182 0.46794 0.67348 0.0
H1886 H 0.55878 0.45969 0.60168 0.0
H1887 H 0.54971 0.50546 0.65185 0.0
S1888 S 0.4749 0.37446 0.66947 0.0
N1889 N 0.49398 0.36907 0.63443 0.0
N1890 N 0.48404 0.41856 0.68942 0.0
C1891 C 0.50353 0.43105 0.66753 0.0
C1892 C 0.50896 0.4041 0.63773 0.0
C1893 C 0.26822 0.33554 0.71479 0.0
C1894 C 0.26198 0.29522 0.70475 0.0
C1895 C 0.2623 0.36604 0.68684 0.0
C1896 C 0.2503 0.35711 0.64783 0.0
H1897 H 0.27681 0.34364 0.74491 0.0
H1898 H 0.26724 0.39669 0.69576 0.0
S1899 S 0.23046 0.25587 0.60687 0.0
N1900 N 0.24344 0.24794 0.65345 0.0
N1901 N 0.23254 0.30464 0.60072 0.0
C1902 C 0.24438 0.31671 0.63741 0.0
C1903 C 0.25018 0.28594 0.66591 0.0
C1904 C 0.16765 0.29107 0.08604 0.0
C1905 C 0.16958 0.27459 0.12511 0.0
C1906 C 0.1436 0.29369 0.06315 0.0
C1907 C 0.12059 0.27951 0.07832 0.0
H1908 H 0.1847 0.30529 0.07448 0.0
H1909 H 0.14288 0.30946 0.03456 0.0
S1910 S 0.11534 0.23067 0.17752 0.0
N1911 N 0.14677 0.24136 0.17688 0.0
N1912 N 0.10131 0.24557 0.13353 0.0
C1913 C 0.12238 0.25976 0.11588 0.0
C1914 C 0.14699 0.25744 0.13941 0.0
C1915 C 0.11772 0.00531 0.13854 0.0
C1916 C 0.11504 0.99343 0.17845 0.0
C1917 C 0.14146 0.00409 0.1226 0.0
C1918 C 0.16342 0.99037 0.14576 0.0
H1919 H 0.10085 0.01265 0.11854 0.0
H1920 H 0.14211 0.01173 0.09116 0.0
S1921 S 0.16686 0.9581 0.25274 0.0
N1922 N 0.13669 0.96943 0.24124 0.0
N1923 N 0.18113 0.96726 0.21176 0.0
C1924 C 0.16132 0.98056 0.18638 0.0
C1925 C 0.13721 0.98199 0.20253 0.0
C1926 C 0.91373 0.73378 0.86004 0.0
C1927 C 0.91534 0.73102 0.90216 0.0
C1928 C 0.88984 0.73684 0.83656 0.0
C1929 C 0.86701 0.73799 0.85463 0.0
H1930 H 0.93062 0.73003 0.84505 0.0
H1931 H 0.88887 0.73453 0.80419 0.0
S1932 S 0.86164 0.73616 0.96387 0.0
N1933 N 0.89276 0.73285 0.9611 0.0
N1934 N 0.84786 0.73971 0.91699 0.0
C1935 C 0.86884 0.73892 0.89678 0.0
C1936 C 0.89306 0.73504 0.92063 0.0
C1937 C 0.91725 1.00072 0.85241 0.0
C1938 C 0.91918 0.00843 0.81138 0.0
C1939 C 0.89357 1.00187 0.86839 0.0
C1940 C 0.87089 0.0114 0.8441 0.0
H1941 H 0.93458 0.99693 0.87293 0.0
H1942 H 0.89348 0.99772 0.90052 0.0
S1943 S 0.86534 0.03116 0.73408 0.0
N1944 N 0.89613 0.02354 0.74644 0.0
N1945 N 0.85168 0.0255 0.77604 0.0
C1946 C 0.87226 0.01667 0.80254 0.0
C1947 C 0.89637 0.0153 0.78634 0.0
C1948 C 0.16639 0.79106 0.58323 0.0
C1949 C 0.16816 0.77347 0.62183 0.0
C1950 C 0.14243 0.79399 0.56019 0.0
C1951 C 0.11939 0.77884 0.57463 0.0
H1952 H 0.18345 0.80599 0.57234 0.0
H1953 H 0.1418 0.81068 0.53214 0.0
S1954 S 0.11382 0.72558 0.67157 0.0
N1955 N 0.14522 0.7375 0.67194 0.0
N1956 N 0.09996 0.74186 0.62804 0.0
C1957 C 0.12107 0.75761 0.61139 0.0
C1958 C 0.14558 0.75513 0.63518 0.0
C1959 C 0.13886 0.50118 0.61991 0.0
C1960 C 0.16127 0.48958 0.64359 0.0
C1961 C 0.11522 0.50261 0.63606 0.0
C1962 C 0.11304 0.49313 0.6767 0.0
H1963 H 0.13913 0.50694 0.58803 0.0
H1964 H 0.09806 0.50819 0.61583 0.0
S1965 S 0.16598 0.46354 0.75233 0.0
N1966 N 0.17984 0.47087 0.7107 0.0
N1967 N 0.13554 0.47339 0.74055 0.0
C1968 C 0.13558 0.48381 0.70117 0.0
C1969 C 0.15963 0.48216 0.68481 0.0
C1970 C 0.89163 0.22845 0.33281 0.0
C1971 C 0.86916 0.23636 0.34934 0.0
C1972 C 0.91489 0.22445 0.35747 0.0
C1973 C 0.91632 0.22808 0.39935 0.0
H1974 H 0.89058 0.2215 0.30118 0.0
H1975 H 0.93133 0.21551 0.34401 0.0
S1976 S 0.86367 0.25199 0.45699 0.0
N1977 N 0.85028 0.25075 0.40967 0.0
N1978 N 0.89423 0.24309 0.45615 0.0
C1979 C 0.89467 0.23911 0.41598 0.0
C1980 C 0.87098 0.24346 0.39081 0.0
C1981 C 0.89684 0.52057 0.28701 0.0
C1982 C 0.9191 0.50922 0.31104 0.0
C1983 C 0.87306 0.52169 0.30266 0.0
C1984 C 0.87062 0.51202 0.34323 0.0
H1985 H 0.89833 0.53181 0.25677 0.0
H1986 H 0.8569 0.53252 0.28342 0.0
S1987 S 0.92301 0.47901 0.41838 0.0
N1988 N 0.93696 0.48681 0.3769 0.0
N1989 N 0.8925 0.48849 0.40646 0.0
C1990 C 0.89242 0.49849 0.36695 0.0
C1991 C 0.91656 0.49726 0.35086 0.0
C1992 C 0.64331 0.28851 0.55979 0.0
C1993 C 0.62009 0.27584 0.57508 0.0
C1994 C 0.66721 0.28495 0.58286 0.0
C1995 C 0.66874 0.26943 0.62236 0.0
H1996 H 0.64293 0.30377 0.53097 0.0
H1997 H 0.68451 0.29822 0.57125 0.0
S1998 S 0.61369 0.22856 0.67472 0.0
N1999 N 0.6001 0.24327 0.63038 0.0
N2000 N 0.64524 0.23816 0.67437 0.0
C2001 C 0.64586 0.25354 0.63668 0.0
C2002 C 0.62143 0.25647 0.61285 0.0
C2003 C 0.63578 0.97983 0.69844 0.0
C2004 C 0.61365 0.99267 0.67519 0.0
C2005 C 0.65954 0.97934 0.68263 0.0
C2006 C 0.66211 0.99112 0.64262 0.0
H2007 H 0.6342 0.96721 0.72814 0.0
H2008 H 0.67559 0.96744 0.70125 0.0
S2009 S 0.61007 0.0283 0.56951 0.0
N2010 N 0.59602 0.01852 0.61062 0.0
N2011 N 0.64047 0.01793 0.58075 0.0
C2012 C 0.64043 0.00593 0.6197 0.0
C2013 C 0.61628 0.00656 0.63598 0.0
C2014 C 0.3902 0.71619 0.42616 0.0
C2015 C 0.41325 0.72943 0.41058 0.0
C2016 C 0.36616 0.71822 0.40306 0.0
C2017 C 0.36429 0.73311 0.36338 0.0
H2018 H 0.39089 0.70139 0.45525 0.0
H2019 H 0.34907 0.70462 0.41499 0.0
S2020 S 0.41868 0.77454 0.30981 0.0
N2021 N 0.43265 0.76119 0.3544 0.0
N2022 N 0.38723 0.76405 0.31055 0.0
C2023 C 0.38694 0.74941 0.34857 0.0
C2024 C 0.41153 0.74779 0.37235 0.0
C2025 C 0.39766 0.0119 0.29119 0.0
C2026 C 0.42131 0.01079 0.31616 0.0
C2027 C 0.37401 0.01294 0.30747 0.0
C2028 C 0.37313 0.01335 0.34939 0.0
H2029 H 0.39765 0.01507 0.25894 0.0
H2030 H 0.35649 0.01557 0.28705 0.0
S2031 S 0.42984 0.01052 0.42762 0.0
N2032 N 0.44229 0.00952 0.38468 0.0
N2033 N 0.39829 0.01119 0.41535 0.0
C2034 C 0.39658 0.0104 0.37456 0.0
C2035 C 0.42051 0.00926 0.35794 0.0
C2036 C 0.66774 0.79192 0.08038 0.0
C2037 C 0.67025 0.77402 0.1188 0.0
C2038 C 0.64348 0.79408 0.05806 0.0
C2039 C 0.62086 0.778 0.07317 0.0
H2040 H 0.68443 0.80759 0.06906 0.0
H2041 H 0.64226 0.81099 0.03014 0.0
S2042 S 0.61736 0.72351 0.16993 0.0
N2043 N 0.64855 0.73658 0.16935 0.0
N2044 N 0.60269 0.73973 0.12695 0.0
C2045 C 0.62333 0.75643 0.10971 0.0
C2046 C 0.64816 0.75463 0.13269 0.0
C2047 C 0.66064 0.47908 0.18645 0.0
C2048 C 0.66287 0.49117 0.14643 0.0
C2049 C 0.63723 0.4804 0.20315 0.0
C2050 C 0.61509 0.49433 0.18085 0.0
H2051 H 0.67663 0.46633 0.20438 0.0
H2052 H 0.63588 0.46754 0.23281 0.0
S2053 S 0.61082 0.53149 0.07563 0.0
N2054 N 0.641 0.5197 0.08565 0.0
N2055 N 0.59719 0.52169 0.11712 0.0
C2056 C 0.61744 0.50854 0.14164 0.0
C2057 C 0.64125 0.50714 0.12447 0.0
C2058 C 0.41331 0.21503 0.85172 0.0
C2059 C 0.41684 0.22644 0.89221 0.0
C2060 C 0.38971 0.21848 0.82786 0.0
C2061 C 0.36872 0.23315 0.84375 0.0
H2062 H 0.42832 0.20077 0.83919 0.0
H2063 H 0.38708 0.20606 0.79791 0.0
S2064 S 0.36889 0.27018 0.9471 0.0
N2065 N 0.39839 0.25614 0.94637 0.0
N2066 N 0.35357 0.26198 0.9015 0.0
C2067 C 0.37265 0.24766 0.88323 0.0
C2068 C 0.39687 0.24434 0.90759 0.0
C2069 C 0.39203 0.50145 0.86207 0.0
C2070 C 0.36994 0.51482 0.83892 0.0
C2071 C 0.41567 0.4999 0.8459 0.0
C2072 C 0.41814 0.51102 0.80572 0.0
H2073 H 0.39154 0.49429 0.89365 0.0
H2074 H 0.43263 0.49287 0.86586 0.0
S2075 S 0.36597 0.54533 0.73137 0.0
N2076 N 0.35194 0.53702 0.77272 0.0
N2077 N 0.39615 0.53401 0.74274 0.0
C2078 C 0.39586 0.52218 0.78171 0.0
C2079 C 0.37185 0.52404 0.79812 0.0
C2080 C 0.04009 0.49682 0.00445 0.0
C2081 C 0.02179 0.46471 0.99292 0.0
C2082 C 0.03252 0.53487 0.00978 0.0
C2083 C 1.00633 0.5425 0.00353 0.0
H2084 H 0.06054 0.49253 0.0097 0.0
H2085 H 0.04745 0.5587 0.0175 0.0
S2086 S 0.95035 0.46817 0.97731 0.0
N2087 N 0.976 0.44267 0.97827 0.0
N2088 N 0.96176 0.51426 0.98839 0.0
C2089 C 0.98768 0.51044 0.99345 0.0
C2090 C 0.9954 0.47165 0.98785 0.0
C2091 C 0.28692 0.73033 -0.00342 0.0
C2092 C 0.26247 0.70938 0.98653 0.0
C2093 C 0.28968 0.77196 -0.00059 0.0
C2094 C 0.26807 0.79437 0.99251 0.0
H2095 H 0.30417 0.71446 0.00268 0.0
H2096 H 0.30879 0.78655 0.00808 0.0
S2097 S 0.20038 0.7552 0.95993 0.0
N2098 N 0.21665 0.71521 0.9657 0.0
N2099 N 0.22179 0.79317 0.97192 0.0
C2100 C 0.24366 0.7741 0.98131 0.0
C2101 C 0.24086 0.73174 0.97814 0.0
C2102 C 0.03734 0.73338 0.26295 0.0
C2103 C 1.01347 0.71281 0.2495 0.0
C2104 C 0.0398 0.77501 0.26471 0.0
C2105 C 0.01845 0.7974 0.25332 0.0
H2106 H 0.05401 0.71722 0.27315 0.0
H2107 H 0.0587 0.78989 0.27433 0.0
S2108 S 0.95227 0.75723 0.21293 0.0
N2109 N 0.96841 0.7175 0.22291 0.0
N2110 N 0.97308 0.79576 0.22595 0.0
C2111 C 0.99453 0.77704 0.23958 0.0
C2112 C 0.99207 0.73475 0.23761 0.0
C2113 C 0.28498 0.5223 0.22338 0.0
C2114 C 0.26886 0.54301 0.24473 0.0
C2115 C 0.28434 0.48067 0.22533 0.0
C2116 C 0.26798 0.45839 0.24945 0.0
H2117 H 0.29838 0.5385 0.20538 0.0
H2118 H 0.29599 0.46574 0.20663 0.0
S2119 S 0.22549 0.49868 0.31666 0.0
N2120 N 0.23816 0.53835 0.29405 0.0
N2121 N 0.23712 0.46007 0.29779 0.0
C2122 C 0.2525 0.47879 0.27204 0.0
C2123 C 0.25289 0.52109 0.26968 0.0
C2124 C 0.74491 0.27483 0.98991 0.0
C2125 C 0.76933 0.29676 -0.00575 0.0
C2126 C 0.74258 0.23317 0.98748 0.0
C2127 C 0.76458 0.2116 0.98925 0.0
H2128 H 0.72732 0.28994 0.98831 0.0
H2129 H 0.72335 0.21787 0.98352 0.0
S2130 S 0.83309 0.25417 0.00385 0.0
N2131 N 0.81602 0.29323 0.00248 0.0
N2132 N 0.8117 0.21522 -0.00229 0.0
C2133 C 0.78914 0.23306 -0.00583 0.0
C2134 C 0.79151 0.27548 -0.00335 0.0
C2135 C 0.03866 0.27032 0.7533 0.0
C2136 C 0.01734 0.29343 0.74477 0.0
C2137 C 0.03591 0.2289 0.74894 0.0
C2138 C 1.01175 0.20896 0.73576 0.0
H2139 H 0.05774 0.28448 0.76312 0.0
H2140 H 0.05261 0.2123 0.75758 0.0
S2141 S 0.95022 0.25559 0.70683 0.0
N2142 N 0.97155 0.29331 0.72053 0.0
N2143 N 0.96629 0.2154 0.71269 0.0
C2144 C 0.99038 0.23173 0.72637 0.0
C2145 C 0.99316 0.2739 0.73097 0.0
C2146 C 0.74509 0.52876 0.73489 0.0
C2147 C 0.76991 0.54819 0.73457 0.0
C2148 C 0.74142 0.48715 0.73513 0.0
C2149 C 0.76242 0.46335 0.73526 0.0
H2150 H 0.72861 0.54564 0.73725 0.0
H2151 H 0.72192 0.47348 0.73575 0.0
S2152 S 0.83072 0.5001 0.72907 0.0
N2153 N 0.81543 0.54077 0.7302 0.0
N2154 N 0.80848 0.46257 0.73125 0.0
C2155 C 0.78714 0.48247 0.7333 0.0
C2156 C 0.79084 0.52482 0.73253 0.0
C2157 C 0.03255 0.03389 0.48463 0.0
C2158 C 1.00916 0.04189 0.49843 0.0
C2159 C 0.03813 0.99477 0.47861 0.0
C2160 C 0.02038 0.96244 0.48577 0.0
H2161 H 0.04629 0.05804 0.47731 0.0
H2162 H 0.05655 0.98971 0.46865 0.0
S2163 S 0.95791 0.96781 0.52689 0.0
N2164 N 0.96895 0.01471 0.52147 0.0
N2165 N 0.97966 0.94098 0.51117 0.0
C2166 C 0.99718 0.97011 0.50041 0.0
C2167 C 0.99152 0.00992 0.50648 0.0
C2168 C 0.24649 0.27356 0.49482 0.0
C2169 C 0.2711 0.29503 0.4994 0.0
C2170 C 0.24367 0.23192 0.49201 0.0
C2171 C 0.26536 0.20973 0.49363 0.0
H2172 H 0.22908 0.289 0.49322 0.0
H2173 H 0.22429 0.21717 0.48767 0.0
S2174 S 0.33424 0.25058 0.50959 0.0
N2175 N 0.31765 0.29016 0.50831 0.0
N2176 N 0.31246 0.21216 0.5029 0.0
C2177 C 0.29014 0.23061 0.49926 0.0
C2178 C 0.29299 0.27307 0.50214 0.0
C2179 C 0.24575 0.98229 0.76023 0.0
C2180 C 0.26359 0.96076 0.74321 0.0
C2181 C 0.2468 0.0239 0.7573 0.0
C2182 C 0.26549 0.04541 0.73669 0.0
H2183 H 0.23063 0.96671 0.77545 0.0
H2184 H 0.23358 0.03938 0.77268 0.0
S2185 S 0.31425 0.00312 0.68217 0.0
N2186 N 0.29894 0.96401 0.70191 0.0
N2187 N 0.301 0.04225 0.69674 0.0
C2188 C 0.28292 0.02423 0.71859 0.0
C2189 C 0.28203 0.98196 0.72188 0.0
C2190 C 0.78653 0.7328 0.4864 0.0
C2191 C 0.76286 0.70975 0.4888 0.0
C2192 C 0.78838 0.77455 0.48835 0.0
C2193 C 0.76663 0.79529 0.49266 0.0
H2194 H 0.80394 0.71856 0.483 0.0
H2195 H 0.80715 0.79057 0.48702 0.0
S2196 S 0.69976 0.74946 0.49908 0.0
N2197 N 0.71701 0.71133 0.49511 0.0
N2198 N 0.72033 0.78929 0.49827 0.0
C2199 C 0.74274 0.77264 0.4947 0.0
C2200 C 0.74091 0.73014 0.49296 0.0
C2201 C 0.78598 0.98064 0.23532 0.0
C2202 C 0.76325 0.9601 0.24615 0.0
C2203 C 0.78847 0.02225 0.23308 0.0
C2204 C 0.76826 0.04488 0.24117 0.0
H2205 H 0.80163 0.96451 0.22716 0.0
H2206 H 0.80661 0.03696 0.2257 0.0
S2207 S 0.70543 0.00542 0.27314 0.0
N2208 N 0.72059 0.9655 0.26672 0.0
N2209 N 0.72527 0.04375 0.26206 0.0
C2210 C 0.7455 0.02476 0.25214 0.0
C2211 C 0.74308 0.98243 0.25499 0.0
C2212 C 0.53359 0.53246 0.5008 0.0
C2213 C 0.50746 0.54001 0.49901 0.0
C2214 C 0.54073 0.49415 0.49523 0.0
C2215 C 0.522 0.46176 0.4875 0.0
H2216 H 0.54864 0.55653 0.50528 0.0
H2217 H 0.56118 0.48988 0.49725 0.0
S2218 S 0.45076 0.46545 0.48194 0.0
N2219 N 0.46269 0.51175 0.49064 0.0
N2220 N 0.47602 0.43974 0.47963 0.0
C2221 C 0.49572 0.46883 0.48589 0.0
C2222 C 0.48849 0.50785 0.49198 0.0
C2223 C 0.49418 0.73205 0.71641 0.0
C2224 C 0.51367 0.70985 0.73611 0.0
C2225 C 0.49578 0.77356 0.71947 0.0
C2226 C 0.51672 0.79399 0.74287 0.0
H2227 H 0.47746 0.71711 0.69886 0.0
H2228 H 0.48105 0.78985 0.70237 0.0
S2229 S 0.57071 0.74943 0.80479 0.0
N2230 N 0.5531 0.71107 0.7829 0.0
N2231 N 0.55636 0.7893 0.78798 0.0
C2232 C 0.53595 0.77215 0.76347 0.0
C2233 C 0.53438 0.72999 0.76027 0.0
C2234 C 0.53755 0.2295 0.26237 0.0
C2235 C 0.51588 0.20951 0.24022 0.0
C2236 C 0.5396 0.27103 0.26587 0.0
C2237 C 0.51989 0.29383 0.24779 0.0
H2238 H 0.55253 0.21284 0.27825 0.0
H2239 H 0.55683 0.2855 0.28259 0.0
S2240 S 0.46102 0.25566 0.18216 0.0
N2241 N 0.47537 0.21538 0.19759 0.0
N2242 N 0.47944 0.29357 0.20344 0.0
C2243 C 0.49849 0.27416 0.22467 0.0
C2244 C 0.49646 0.23196 0.22107 0.0
C2245 C 0.53437 0.0335 -0.00574 0.0
C2246 C 0.50878 0.04174 -0.0025 0.0
C2247 C 0.54056 0.99448 0.9895 0.0
C2248 C 0.52139 0.9623 0.98755 0.0
H2249 H 0.5496 0.05742 -0.00593 0.0
H2250 H 0.56059 0.98944 0.98757 0.0
S2251 S 0.45189 0.96813 -0.00234 0.0
N2252 N 0.46443 0.01468 0.00051 0.0
N2253 N 0.47602 0.94127 0.9914 0.0
C2254 C 0.49579 0.97017 0.99121 0.0
C2255 C 0.48954 0.00986 -0.00362 0.0
C2256 C 0.98813 0.1135 0.13068 0.0
C2257 C 1.01128 0.09624 0.14411 0.0
C2258 C 0.98835 0.14984 0.1099 0.0
C2259 C 1.01174 0.1707 0.10219 0.0
H2260 H 0.96956 0.09863 0.13577 0.0
H2261 H 0.96999 0.16163 0.09976 0.0
S2262 S 0.07778 0.13874 0.13134 0.0
N2263 N 0.05832 0.103 0.14859 0.0
N2264 N 0.05874 0.17152 0.10954 0.0
C2265 C 0.0351 0.15411 0.11585 0.0
C2266 C 0.03486 0.1168 0.1367 0.0
C2267 C 0.28155 0.15412 0.09983 0.0
C2268 C 0.26148 0.17035 0.11662 0.0
C2269 C 0.27904 0.1146 0.08711 0.0
C2270 C 0.25655 0.08936 0.09148 0.0
H2271 H 0.29967 0.1718 0.09763 0.0
H2272 H 0.2954 0.10344 0.07525 0.0
S2273 S 0.19797 0.11838 0.13274 0.0
N2274 N 0.21801 0.15912 0.13576 0.0
N2275 N 0.21325 0.08454 0.11237 0.0
C2276 C 0.23593 0.10578 0.10706 0.0
C2277 C 0.2384 0.14633 0.11946 0.0
C2278 C 0.04611 0.85657 0.87819 0.0
C2279 C 0.02278 0.83492 0.88495 0.0
C2280 C 0.04617 0.89285 0.85729 0.0
C2281 C 0.0229 0.9093 0.84284 0.0
H2282 H 0.06455 0.84544 0.88918 0.0
H2283 H 0.06468 0.90835 0.85292 0.0
S2284 S 0.95646 0.8643 0.85234 0.0
N2285 N 0.97568 0.83232 0.87519 0.0
N2286 N 0.97582 0.90079 0.8361 0.0
C2287 C 0.99938 0.88792 0.84921 0.0
C2288 C 0.99931 0.85064 0.87012 0.0
C2289 C 0.75184 0.89176 0.8944 0.0
C2290 C 0.77566 0.91496 0.89461 0.0
C2291 C 0.74886 0.85226 0.88156 0.0
C2292 C 0.76967 0.83396 0.86924 0.0
H2293 H 0.73493 0.90456 0.9027 0.0
H2294 H 0.72987 0.83624 0.88024 0.0
S2295 S 0.8365 0.88026 0.86618 0.0
N2296 N 0.82081 0.9158 0.88281 0.0
N2297 N 0.8152 0.84118 0.85927 0.0
C2298 C 0.79391 0.85599 0.87093 0.0
C2299 C 0.79689 0.89658 0.88339 0.0
C2300 C 0.99024 0.6214 0.64817 0.0
C2301 C 1.01124 0.59758 0.64955 0.0
C2302 C 0.99068 0.65844 0.62873 0.0
C2303 C 1.01225 0.67354 0.61025 0.0
H2304 H 0.97298 0.61122 0.66156 0.0
H2305 H 0.97376 0.6751 0.62756 0.0
S2306 S 0.07247 0.62396 0.60527 0.0
N2307 N 0.05453 0.59249 0.63086 0.0
N2308 N 0.05526 0.66241 0.59445 0.0
C2309 C 0.03369 0.65079 0.6121 0.0
C2310 C 0.03319 0.61273 0.63162 0.0
C2311 C 0.28206 0.65132 0.60806 0.0
C2312 C 0.26066 0.67015 0.61756 0.0
C2313 C 0.27957 0.61157 0.59638 0.0
C2314 C 0.25559 0.58857 0.59417 0.0
H2315 H 0.30116 0.6671 0.61085 0.0
H2316 H 0.29694 0.59848 0.59046 0.0
S2317 S 0.19308 0.62472 0.61338 0.0
N2318 N 0.2143 0.66371 0.6219 0.0
N2319 N 0.20958 0.58853 0.60007 0.0
C2320 C 0.23374 0.60745 0.6021 0.0
C2321 C 0.23627 0.64834 0.61362 0.0
C2322 C 1.00025 0.35353 0.37104 0.0
C2323 C 0.02291 0.33421 0.38197 0.0
C2324 C 1.001 0.38991 0.34995 0.0
C2325 C 0.02438 0.40808 0.33851 0.0
H2326 H 0.98194 0.34114 0.37993 0.0
H2327 H 0.98309 0.40393 0.34275 0.0
S2328 S 0.0889 0.36783 0.35768 0.0
N2329 N 0.06916 0.33476 0.37819 0.0
N2330 N 0.07065 0.40276 0.33855 0.0
C2331 C 0.04706 0.3883 0.34827 0.0
C2332 C 0.0463 0.35151 0.36999 0.0
C2333 C 0.79342 0.35746 0.36768 0.0
C2334 C 0.77031 0.33311 0.36928 0.0
C2335 C 0.79502 0.39803 0.3774 0.0
C2336 C 0.77359 0.41554 0.38928 0.0
H2337 H 0.80983 0.34574 0.35648 0.0
H2338 H 0.81293 0.41594 0.3744 0.0
S2339 S 0.70941 0.36238 0.40192 0.0
N2340 N 0.72635 0.328 0.38628 0.0
N2341 N 0.729 0.40354 0.40495 0.0
C2342 C 0.75081 0.39052 0.39308 0.0
C2343 C 0.74928 0.34951 0.383 0.0
C2344 C 0.53204 0.1147 0.63396 0.0
C2345 C 0.50904 0.09732 0.64728 0.0
C2346 C 0.53274 0.15178 0.61421 0.0
C2347 C 0.51038 0.17248 0.60663 0.0
H2348 H 0.54963 0.09952 0.63858 0.0
H2349 H 0.55065 0.16357 0.60347 0.0
S2350 S 0.44566 0.14172 0.6373 0.0
N2351 N 0.46355 0.10518 0.65295 0.0
N2352 N 0.46507 0.17442 0.61572 0.0
C2353 C 0.48748 0.15612 0.62068 0.0
C2354 C 0.48675 0.11866 0.64101 0.0
C2355 C 0.73912 0.10628 0.60956 0.0
C2356 C 0.76067 0.08842 0.59871 0.0
C2357 C 0.74105 0.14646 0.62062 0.0
C2358 C 0.76466 0.17011 0.62159 0.0
H2359 H 0.72073 0.08896 0.61035 0.0
H2360 H 0.72432 0.15846 0.63049 0.0
S2361 S 0.82627 0.13953 0.59254 0.0
N2362 N 0.80608 0.09911 0.58701 0.0
N2363 N 0.80938 0.17411 0.60798 0.0
C2364 C 0.78598 0.15331 0.60914 0.0
C2365 C 0.78408 0.11264 0.59767 0.0
C2366 C 0.50247 0.8836 0.34206 0.0
C2367 C 0.52396 0.91188 0.34718 0.0
C2368 C 0.50252 0.84729 0.36331 0.0
C2369 C 0.52393 0.83831 0.3908 0.0
H2370 H 0.48579 0.88918 0.32081 0.0
H2371 H 0.48564 0.8262 0.3581 0.0
S2372 S 0.58416 0.90491 0.41689 0.0
N2373 N 0.56654 0.92993 0.38253 0.0
N2374 N 0.56681 0.86251 0.42309 0.0
C2375 C 0.54532 0.86718 0.39668 0.0
C2376 C 0.54529 0.90375 0.37471 0.0
C2377 C 0.25155 0.89177 0.39192 0.0
C2378 C 0.27527 0.91519 0.39186 0.0
C2379 C 0.24887 0.85194 0.38023 0.0
C2380 C 0.26987 0.83349 0.36871 0.0
H2381 H 0.23452 0.90456 0.39974 0.0
H2382 H 0.22996 0.83574 0.37922 0.0
S2383 S 0.33649 0.88046 0.365 0.0
N2384 N 0.3205 0.91622 0.38048 0.0
N2385 N 0.31544 0.841 0.35893 0.0
C2386 C 0.29398 0.85586 0.36994 0.0
C2387 C 0.29667 0.89678 0.38131 0.0
C2388 C 0.53331 0.64996 0.11317 0.0
C2389 C 0.51101 0.67079 0.10564 0.0
C2390 C 0.53274 0.61352 0.1341 0.0
C2391 C 0.50994 0.59691 0.14872 0.0
H2392 H 0.55107 0.66121 0.10163 0.0
H2393 H 0.55028 0.59821 0.13858 0.0
S2394 S 0.44691 0.64228 0.13955 0.0
N2395 N 0.46604 0.67384 0.11611 0.0
N2396 N 0.46477 0.60588 0.15576 0.0
C2397 C 0.48773 0.61844 0.14244 0.0
C2398 C 0.48832 0.65522 0.12083 0.0
C2399 C 0.78275 0.61122 0.10071 0.0
C2400 C 0.75864 0.58861 0.09863 0.0
C2401 C 0.78537 0.65135 0.11111 0.0
C2402 C 0.76396 0.67087 0.11933 0.0
H2403 H 0.80009 0.59763 0.09547 0.0
H2404 H 0.80452 0.66694 0.11383 0.0
S2405 S 0.69622 0.6263 0.11602 0.0
N2406 N 0.71261 0.58945 0.10403 0.0
N2407 N 0.71758 0.66527 0.12344 0.0
C2408 C 0.7395 0.64929 0.11587 0.0
C2409 C 0.73685 0.60807 0.1057 0.0
C2410 C 0.50052 0.3911 0.85166 0.0
C2411 C 0.52387 0.40984 0.84086 0.0
C2412 C 0.50001 0.3547 0.87265 0.0
C2413 C 0.52288 0.33603 0.88401 0.0
H2414 H 0.48245 0.40453 0.84379 0.0
H2415 H 0.48168 0.34165 0.88093 0.0
S2416 S 0.58899 0.3717 0.86197 0.0
N2417 N 0.57046 0.4061 0.84245 0.0
N2418 N 0.56934 0.33797 0.88176 0.0
C2419 C 0.54629 0.35407 0.87296 0.0
C2420 C 0.54683 0.39089 0.85143 0.0
C2421 C 0.29449 0.35772 0.86782 0.0
C2422 C 0.27117 0.33371 0.86889 0.0
C2423 C 0.29654 0.39794 0.87891 0.0
C2424 C 0.27541 0.41534 0.89182 0.0
H2425 H 0.31075 0.34604 0.85614 0.0
H2426 H 0.31458 0.41569 0.87636 0.0
S2427 S 0.21088 0.36302 0.9038 0.0
N2428 N 0.22734 0.32881 0.88665 0.0
N2429 N 0.23086 0.40371 0.90776 0.0
C2430 C 0.25243 0.39063 0.89509 0.0
C2431 C 0.25041 0.35001 0.88358 0.0
loop_
_geom_bond_atom_site_label_1
_geom_bond_atom_site_label_2
_geom_bond_distance
_geom_bond_site_symmetry_2
_ccdc_geom_bond_type
Co0 H3 2.400 . S
Co0 O4 2.009 . S
Co0 O12 2.115 . S
Co0 O13 2.315 . S
Co0 O24 2.053 . S
Co0 O27 2.094 1_554 S
Co0 O30 2.122 1_554 S
Co1 O4 2.126 . S
Co1 H5 2.388 1_654 S
Co1 O6 2.053 1_655 S
Co1 O9 2.047 1_554 S
Co1 O15 2.113 . S
Co1 O26 2.063 . S
Co2 H3 2.388 1_455 S
Co2 O4 2.053 1_455 S
Co2 O6 2.126 . S
Co2 O11 2.063 . S
Co2 O25 2.047 . S
Co2 O31 2.113 1_554 S
H3 Co0 2.400 . S
H3 Co2 2.388 1_655 S
H3 O4 0.760 . S
O4 Co0 2.009 . S
O4 Co1 2.126 . S
O4 Co2 2.053 1_655 S
O4 H3 0.760 . S
H5 Co1 2.388 1_456 S
H5 O6 0.760 1_556 S
H5 Co7 2.400 1_556 S
O6 Co1 2.053 1_455 S
O6 Co2 2.126 . S
O6 H5 0.760 1_554 S
O6 Co7 2.009 . S
Co7 H5 2.400 1_554 S
Co7 O6 2.009 . S
Co7 O8 2.053 . S
Co7 O10 2.094 . S
Co7 O14 2.122 . S
Co7 O28 2.115 . S
Co7 O29 2.315 1_554 S
O8 Co7 2.053 . S
O8 C20 1.259 1_554 S
O9 Co1 2.047 1_556 S
O9 C20 1.257 1_655 S
O10 Co7 2.094 . S
O10 C21 1.253 . S
O11 Co2 2.063 . S
O11 C21 1.268 . S
O12 Co0 2.115 . S
O12 C22 1.281 . S
O13 Co0 2.315 . S
O13 C22 1.252 . S
O14 Co7 2.122 . S
O14 C23 1.272 . S
O15 Co1 2.113 . S
O15 C23 1.245 1_655 S
C16 O24 1.262 . S
C16 O25 1.255 1_655 S
C17 O26 1.268 1_556 S
C17 O27 1.253 . S
C18 O28 1.281 . S
C18 O29 1.252 1_554 S
C19 O30 1.272 . S
C19 O31 1.245 1_655 S
C20 O8 1.259 1_556 S
C20 O9 1.257 1_455 S
C21 O10 1.253 . S
C21 O11 1.268 . S
C22 O12 1.281 . S
C22 O13 1.252 . S
C23 O14 1.272 . S
C23 O15 1.245 1_455 S
O24 Co0 2.053 . S
O24 C16 1.262 . S
O25 Co2 2.047 . S
O25 C16 1.255 1_455 S
O26 Co1 2.063 . S
O26 C17 1.268 1_554 S
O27 Co0 2.094 1_556 S
O27 C17 1.253 . S
O28 Co7 2.115 . S
O28 C18 1.281 . S
O29 Co7 2.315 1_556 S
O29 C18 1.252 1_556 S
O30 Co0 2.122 1_556 S
O30 C19 1.272 . S
O31 Co2 2.113 1_556 S
O31 C19 1.245 1_455 S
Co32 H35 2.400 . S
Co32 O36 2.009 . S
Co32 O44 2.115 1_554 S
Co32 O45 2.315 . S
Co32 O56 2.053 . S
Co32 O59 2.094 1_554 S
Co32 O62 2.122 1_554 S
Co33 O36 2.126 . S
Co33 H37 2.388 . S
Co33 O38 2.053 . S
Co33 O41 2.047 . S
Co33 O47 2.113 . S
Co33 O58 2.063 . S
Co34 H35 2.388 . S
Co34 O36 2.053 . S
Co34 O38 2.126 . S
Co34 O43 2.063 1_565 S
Co34 O57 2.047 1_565 S
Co34 O63 2.113 . S
H35 Co32 2.400 . S
H35 Co34 2.388 . S
H35 O36 0.760 . S
O36 Co32 2.009 . S
O36 Co33 2.126 . S
O36 Co34 2.053 . S
O36 H35 0.760 . S
H37 Co33 2.388 . S
H37 O38 0.760 . S
H37 Co39 2.400 . S
O38 Co33 2.053 . S
O38 Co34 2.126 . S
O38 H37 0.760 . S
O38 Co39 2.009 . S
Co39 H37 2.400 . S
Co39 O38 2.009 . S
Co39 O40 2.053 . S
Co39 O42 2.094 . S
Co39 O46 2.122 . S
Co39 O60 2.115 . S
Co39 O61 2.315 . S
O40 Co39 2.053 . S
O40 C52 1.259 . S
O41 Co33 2.047 . S
O41 C52 1.257 . S
O42 Co39 2.094 . S
O42 C53 1.253 1_565 S
O43 Co34 2.063 1_545 S
O43 C53 1.268 . S
O44 Co32 2.115 1_556 S
O44 C54 1.281 . S
O45 Co32 2.315 . S
O45 C54 1.252 1_554 S
O46 Co39 2.122 . S
O46 C55 1.272 . S
O47 Co33 2.113 . S
O47 C55 1.245 . S
C48 O56 1.244 1_545 S
C48 O57 1.261 . S
C49 O58 1.268 1_556 S
C49 O59 1.253 . S
C50 O60 1.281 . S
C50 O61 1.252 . S
C51 O62 1.272 . S
C51 O63 1.245 1_556 S
C52 O40 1.259 . S
C52 O41 1.257 . S
C53 O42 1.253 1_545 S
C53 O43 1.268 . S
C54 O44 1.281 . S
C54 O45 1.252 1_556 S
C55 O46 1.272 . S
C55 O47 1.245 . S
O56 Co32 2.053 . S
O56 C48 1.244 1_565 S
O57 Co34 2.047 1_545 S
O57 C48 1.261 . S
O58 Co33 2.063 . S
O58 C49 1.268 1_554 S
O59 Co32 2.094 1_556 S
O59 C49 1.253 . S
O60 Co39 2.115 . S
O60 C50 1.281 . S
O61 Co39 2.315 . S
O61 C50 1.252 . S
O62 Co32 2.122 1_556 S
O62 C51 1.272 . S
O63 Co34 2.113 . S
O63 C51 1.245 1_554 S
Co64 H67 2.400 . S
Co64 O68 2.009 . S
Co64 O76 2.115 1_565 S
Co64 O77 2.315 . S
Co64 O88 2.053 1_565 S
Co64 O91 2.094 . S
Co64 O94 2.122 1_565 S
Co65 O68 2.126 . S
Co65 H69 2.388 1_655 S
Co65 O70 2.053 1_655 S
Co65 O73 2.047 . S
Co65 O79 2.113 . S
Co65 O90 2.063 . S
Co66 H67 2.388 1_455 S
Co66 O68 2.053 1_455 S
Co66 O70 2.126 . S
Co66 O75 2.063 . S
Co66 O89 2.047 1_565 S
Co66 O95 2.113 1_565 S
H67 Co64 2.400 . S
H67 Co66 2.388 1_655 S
H67 O68 0.760 . S
O68 Co64 2.009 . S
O68 Co65 2.126 . S
O68 Co66 2.053 1_655 S
O68 H67 0.760 . S
H69 Co65 2.388 1_455 S
H69 O70 0.760 . S
H69 Co71 2.400 . S
O70 Co65 2.053 1_455 S
O70 Co66 2.126 . S
O70 H69 0.760 . S
O70 Co71 2.009 . S
Co71 H69 2.400 . S
Co71 O70 2.009 . S
Co71 O72 2.053 . S
Co71 O74 2.094 . S
Co71 O78 2.122 . S
Co71 O92 2.115 . S
Co71 O93 2.315 . S
O72 Co71 2.053 . S
O72 C84 1.259 . S
O73 Co65 2.047 . S
O73 C84 1.257 1_655 S
O74 Co71 2.094 . S
O74 C85 1.253 . S
O75 Co66 2.063 . S
O75 C85 1.268 . S
O76 Co64 2.115 1_545 S
O76 C86 1.281 . S
O77 Co64 2.315 . S
O77 C86 1.252 1_565 S
O78 Co71 2.122 . S
O78 C87 1.272 1_455 S
O79 Co65 2.113 . S
O79 C87 1.245 . S
C80 O88 1.258 1_455 S
C80 O89 1.259 . S
C81 O90 1.268 . S
C81 O91 1.253 . S
C82 O92 1.281 . S
C82 O93 1.252 . S
C83 O94 1.272 1_455 S
C83 O95 1.246 . S
C84 O72 1.259 . S
C84 O73 1.257 1_455 S
C85 O74 1.253 . S
C85 O75 1.268 . S
C86 O76 1.281 . S
C86 O77 1.252 1_545 S
C87 O78 1.272 1_655 S
C87 O79 1.245 . S
O88 Co64 2.053 1_545 S
O88 C80 1.258 1_655 S
O89 Co66 2.047 1_545 S
O89 C80 1.259 . S
O90 Co65 2.063 . S
O90 C81 1.268 . S
O91 Co64 2.094 . S
O91 C81 1.253 . S
O92 Co71 2.115 . S
O92 C82 1.281 . S
O93 Co71 2.315 . S
O93 C82 1.252 . S
O94 Co64 2.122 1_545 S
O94 C83 1.272 1_655 S
O95 Co66 2.113 1_545 S
O95 C83 1.246 . S
Co96 H99 2.400 . S
Co96 O100 2.009 . S
Co96 O108 2.115 . S
Co96 O109 2.315 . S
Co96 O120 2.053 . S
Co96 O123 2.094 . S
Co96 O126 2.122 . S
Co97 O100 2.126 . S
Co97 H101 2.388 . S
Co97 O102 2.053 . S
Co97 O105 2.047 . S
Co97 O111 2.113 . S
Co97 O122 2.063 . S
Co98 H99 2.388 . S
Co98 O100 2.053 . S
Co98 O102 2.126 . S
Co98 O107 2.063 . S
Co98 O121 2.047 . S
Co98 O127 2.113 . S
H99 Co96 2.400 . S
H99 Co98 2.388 . S
H99 O100 0.760 . S
O100 Co96 2.009 . S
O100 Co97 2.126 . S
O100 Co98 2.053 . S
O100 H99 0.760 . S
H101 Co97 2.388 . S
H101 O102 0.760 . S
H101 Co103 2.400 . S
O102 Co97 2.053 . S
O102 Co98 2.126 . S
O102 H101 0.760 . S
O102 Co103 2.009 . S
Co103 H101 2.400 . S
Co103 O102 2.009 . S
Co103 O104 2.053 . S
Co103 O106 2.094 . S
Co103 O110 2.122 . S
Co103 O124 2.115 . S
Co103 O125 2.315 . S
O104 Co103 2.053 . S
O104 C116 1.259 . S
O105 Co97 2.047 . S
O105 C116 1.257 . S
O106 Co103 2.094 . S
O106 C117 1.253 . S
O107 Co98 2.063 . S
O107 C117 1.268 . S
O108 Co96 2.115 . S
O108 C118 1.281 . S
O109 Co96 2.315 . S
O109 C118 1.252 . S
O110 Co103 2.122 . S
O110 C119 1.272 . S
O111 Co97 2.113 . S
O111 C119 1.245 . S
C112 O120 1.259 . S
C112 O121 1.257 . S
C113 O122 1.268 . S
C113 O123 1.253 . S
C114 O124 1.281 . S
C114 O125 1.252 . S
C115 O126 1.272 . S
C115 O127 1.245 . S
C116 O104 1.259 . S
C116 O105 1.257 . S
C117 O106 1.253 . S
C117 O107 1.268 . S
C118 O108 1.281 . S
C118 O109 1.252 . S
C119 O110 1.272 . S
C119 O111 1.245 . S
O120 Co96 2.053 . S
O120 C112 1.259 . S
O121 Co98 2.047 . S
O121 C112 1.257 . S
O122 Co97 2.063 . S
O122 C113 1.268 . S
O123 Co96 2.094 . S
O123 C113 1.253 . S
O124 Co103 2.115 . S
O124 C114 1.281 . S
O125 Co103 2.315 . S
O125 C114 1.252 . S
O126 Co96 2.122 . S
O126 C115 1.272 . S
O127 Co98 2.113 . S
O127 C115 1.245 . S
Co128 H131 2.400 1_556 S
Co128 O132 2.009 . S
Co128 O140 2.115 . S
Co128 O141 2.315 1_556 S
Co128 O152 2.053 . S
Co128 O155 2.094 . S
Co128 O158 2.122 . S
Co129 O132 2.126 . S
Co129 H133 2.388 1_655 S
Co129 O134 2.053 1_655 S
Co129 O137 2.047 . S
Co129 O143 2.113 1_556 S
Co129 O154 2.063 . S
Co130 H131 2.388 1_456 S
Co130 O132 2.053 1_455 S
Co130 O134 2.126 . S
Co130 O139 2.063 . S
Co130 O153 2.047 1_556 S
Co130 O159 2.113 . S
H131 Co128 2.400 1_554 S
H131 Co130 2.388 1_654 S
H131 O132 0.760 1_554 S
O132 Co128 2.009 . S
O132 Co129 2.126 . S
O132 Co130 2.053 1_655 S
O132 H131 0.760 1_556 S
H133 Co129 2.388 1_455 S
H133 O134 0.760 . S
H133 Co135 2.400 . S
O134 Co129 2.053 1_455 S
O134 Co130 2.126 . S
O134 H133 0.760 . S
O134 Co135 2.009 . S
Co135 H133 2.400 . S
Co135 O134 2.009 . S
Co135 O136 2.053 . S
Co135 O138 2.094 1_556 S
Co135 O142 2.122 1_556 S
Co135 O156 2.115 . S
Co135 O157 2.315 . S
O136 Co135 2.053 . S
O136 C148 1.262 . S
O137 Co129 2.047 . S
O137 C148 1.255 1_655 S
O138 Co135 2.094 1_554 S
O138 C149 1.253 . S
O139 Co130 2.063 . S
O139 C149 1.268 1_556 S
O140 Co128 2.115 . S
O140 C150 1.281 . S
O141 Co128 2.315 1_554 S
O141 C150 1.252 1_554 S
O142 Co135 2.122 1_554 S
O142 C151 1.272 . S
O143 Co129 2.113 1_554 S
O143 C151 1.245 1_655 S
C144 O152 1.259 1_554 S
C144 O153 1.257 1_655 S
C145 O154 1.268 . S
C145 O155 1.253 . S
C146 O156 1.281 . S
C146 O157 1.252 . S
C147 O158 1.272 . S
C147 O159 1.245 1_655 S
C148 O136 1.262 . S
C148 O137 1.255 1_455 S
C149 O138 1.253 . S
C149 O139 1.268 1_554 S
C150 O140 1.281 . S
C150 O141 1.252 1_556 S
C151 O142 1.272 . S
C151 O143 1.245 1_455 S
O152 Co128 2.053 . S
O152 C144 1.259 1_556 S
O153 Co130 2.047 1_554 S
O153 C144 1.257 1_455 S
O154 Co129 2.063 . S
O154 C145 1.268 . S
O155 Co128 2.094 . S
O155 C145 1.253 . S
O156 Co135 2.115 . S
O156 C146 1.281 . S
O157 Co135 2.315 . S
O157 C146 1.252 . S
O158 Co128 2.122 . S
O158 C147 1.272 . S
O159 Co130 2.113 . S
O159 C147 1.245 1_455 S
Co160 H163 2.400 . S
Co160 O164 2.009 . S
Co160 O172 2.115 . S
Co160 O173 2.315 . S
Co160 O184 2.053 . S
Co160 O187 2.094 . S
Co160 O190 2.122 . S
Co161 O164 2.126 . S
Co161 H165 2.388 . S
Co161 O166 2.053 . S
Co161 O169 2.047 1_545 S
Co161 O175 2.113 . S
Co161 O186 2.063 1_545 S
Co162 H163 2.388 . S
Co162 O164 2.053 . S
Co162 O166 2.126 . S
Co162 O171 2.063 . S
Co162 O185 2.047 . S
Co162 O191 2.113 . S
H163 Co160 2.400 . S
H163 Co162 2.388 . S
H163 O164 0.760 . S
O164 Co160 2.009 . S
O164 Co161 2.126 . S
O164 Co162 2.053 . S
O164 H163 0.760 . S
H165 Co161 2.388 . S
H165 O166 0.760 . S
H165 Co167 2.400 . S
O166 Co161 2.053 . S
O166 Co162 2.126 . S
O166 H165 0.760 . S
O166 Co167 2.009 . S
Co167 H165 2.400 . S
Co167 O166 2.009 . S
Co167 O168 2.053 . S
Co167 O170 2.094 1_556 S
Co167 O174 2.122 1_556 S
Co167 O188 2.115 1_556 S
Co167 O189 2.315 . S
O168 Co167 2.053 . S
O168 C180 1.244 1_545 S
O169 Co161 2.047 1_565 S
O169 C180 1.261 . S
O170 Co167 2.094 1_554 S
O170 C181 1.253 . S
O171 Co162 2.063 . S
O171 C181 1.268 1_556 S
O172 Co160 2.115 . S
O172 C182 1.281 . S
O173 Co160 2.315 . S
O173 C182 1.252 . S
O174 Co167 2.122 1_554 S
O174 C183 1.272 . S
O175 Co161 2.113 . S
O175 C183 1.245 1_556 S
C176 O184 1.259 . S
C176 O185 1.257 . S
C177 O186 1.268 . S
C177 O187 1.253 1_565 S
C178 O188 1.281 . S
C178 O189 1.252 1_554 S
C179 O190 1.272 . S
C179 O191 1.245 . S
C180 O168 1.244 1_565 S
C180 O169 1.261 . S
C181 O170 1.253 . S
C181 O171 1.268 1_554 S
C182 O172 1.281 . S
C182 O173 1.252 . S
C183 O174 1.272 . S
C183 O175 1.245 1_554 S
O184 Co160 2.053 . S
O184 C176 1.259 . S
O185 Co162 2.047 . S
O185 C176 1.257 . S
O186 Co161 2.063 1_565 S
O186 C177 1.268 . S
O187 Co160 2.094 . S
O187 C177 1.253 1_545 S
O188 Co167 2.115 1_554 S
O188 C178 1.281 . S
O189 Co167 2.315 . S
O189 C178 1.252 1_556 S
O190 Co160 2.122 . S
O190 C179 1.272 . S
O191 Co162 2.113 . S
O191 C179 1.245 . S
Co192 H195 2.400 . S
Co192 O196 2.009 . S
Co192 O204 2.115 . S
Co192 O205 2.315 . S
Co192 O216 2.053 . S
Co192 O219 2.094 . S
Co192 O222 2.122 . S
Co193 O196 2.126 . S
Co193 H197 2.388 1_655 S
Co193 O198 2.053 1_655 S
Co193 O201 2.047 1_545 S
Co193 O207 2.113 1_545 S
Co193 O218 2.063 . S
Co194 H195 2.388 1_455 S
Co194 O196 2.053 1_455 S
Co194 O198 2.126 . S
Co194 O203 2.063 . S
Co194 O217 2.047 . S
Co194 O223 2.113 . S
H195 Co192 2.400 . S
H195 Co194 2.388 1_655 S
H195 O196 0.760 . S
O196 Co192 2.009 . S
O196 Co193 2.126 . S
O196 Co194 2.053 1_655 S
O196 H195 0.760 . S
H197 Co193 2.388 1_455 S
H197 O198 0.760 . S
H197 Co199 2.400 . S
O198 Co193 2.053 1_455 S
O198 Co194 2.126 . S
O198 H197 0.760 . S
O198 Co199 2.009 . S
Co199 H197 2.400 . S
Co199 O198 2.009 . S
Co199 O200 2.053 1_545 S
Co199 O202 2.094 . S
Co199 O206 2.122 1_545 S
Co199 O220 2.115 1_545 S
Co199 O221 2.315 . S
O200 Co199 2.053 1_565 S
O200 C212 1.258 1_455 S
O201 Co193 2.047 1_565 S
O201 C212 1.259 . S
O202 Co199 2.094 . S
O202 C213 1.253 . S
O203 Co194 2.063 . S
O203 C213 1.268 . S
O204 Co192 2.115 . S
O204 C214 1.281 . S
O205 Co192 2.315 . S
O205 C214 1.252 . S
O206 Co199 2.122 1_565 S
O206 C215 1.272 1_455 S
O207 Co193 2.113 1_565 S
O207 C215 1.246 . S
C208 O216 1.259 . S
C208 O217 1.257 1_655 S
C209 O218 1.268 . S
C209 O219 1.253 . S
C210 O220 1.281 . S
C210 O221 1.252 1_565 S
C211 O222 1.272 1_455 S
C211 O223 1.245 . S
C212 O200 1.258 1_655 S
C212 O201 1.259 . S
C213 O202 1.253 . S
C213 O203 1.268 . S
C214 O204 1.281 . S
C214 O205 1.252 . S
C215 O206 1.272 1_655 S
C215 O207 1.246 . S
O216 Co192 2.053 . S
O216 C208 1.259 . S
O217 Co194 2.047 . S
O217 C208 1.257 1_455 S
O218 Co193 2.063 . S
O218 C209 1.268 . S
O219 Co192 2.094 . S
O219 C209 1.253 . S
O220 Co199 2.115 1_565 S
O220 C210 1.281 . S
O221 Co199 2.315 . S
O221 C210 1.252 1_545 S
O222 Co192 2.122 . S
O222 C211 1.272 1_655 S
O223 Co194 2.113 . S
O223 C211 1.245 . S
Co224 H227 2.400 . S
Co224 O228 2.009 . S
Co224 O236 2.115 . S
Co224 O237 2.315 . S
Co224 O248 2.053 . S
Co224 O251 2.094 . S
Co224 O254 2.122 . S
Co225 O228 2.126 . S
Co225 H229 2.388 . S
Co225 O230 2.053 . S
Co225 O233 2.047 . S
Co225 O239 2.113 . S
Co225 O250 2.063 . S
Co226 H227 2.388 . S
Co226 O228 2.053 . S
Co226 O230 2.126 . S
Co226 O235 2.063 . S
Co226 O249 2.047 . S
Co226 O255 2.113 . S
H227 Co224 2.400 . S
H227 Co226 2.388 . S
H227 O228 0.760 . S
O228 Co224 2.009 . S
O228 Co225 2.126 . S
O228 Co226 2.053 . S
O228 H227 0.760 . S
H229 Co225 2.388 . S
H229 O230 0.760 . S
H229 Co231 2.400 . S
O230 Co225 2.053 . S
O230 Co226 2.126 . S
O230 H229 0.760 . S
O230 Co231 2.009 . S
Co231 H229 2.400 . S
Co231 O230 2.009 . S
Co231 O232 2.053 . S
Co231 O234 2.094 . S
Co231 O238 2.122 . S
Co231 O252 2.115 . S
Co231 O253 2.315 . S
O232 Co231 2.053 . S
O232 C244 1.259 . S
O233 Co225 2.047 . S
O233 C244 1.257 . S
O234 Co231 2.094 . S
O234 C245 1.253 . S
O235 Co226 2.063 . S
O235 C245 1.268 . S
O236 Co224 2.115 . S
O236 C246 1.281 . S
O237 Co224 2.315 . S
O237 C246 1.252 . S
O238 Co231 2.122 . S
O238 C247 1.272 . S
O239 Co225 2.113 . S
O239 C247 1.245 . S
C240 O248 1.259 . S
C240 O249 1.257 . S
C241 O250 1.268 . S
C241 O251 1.253 . S
C242 O252 1.281 . S
C242 O253 1.252 . S
C243 O254 1.272 . S
C243 O255 1.245 . S
C244 O232 1.259 . S
C244 O233 1.257 . S
C245 O234 1.253 . S
C245 O235 1.268 . S
C246 O236 1.281 . S
C246 O237 1.252 . S
C247 O238 1.272 . S
C247 O239 1.245 . S
O248 Co224 2.053 . S
O248 C240 1.259 . S
O249 Co226 2.047 . S
O249 C240 1.257 . S
O250 Co225 2.063 . S
O250 C241 1.268 . S
O251 Co224 2.094 . S
O251 C241 1.253 . S
O252 Co231 2.115 . S
O252 C242 1.281 . S
O253 Co231 2.315 . S
O253 C242 1.252 . S
O254 Co224 2.122 . S
O254 C243 1.272 . S
O255 Co226 2.113 . S
O255 C243 1.245 . S
Co256 H259 2.400 . S
Co256 O260 2.009 . S
Co256 O268 2.115 . S
Co256 O269 2.315 . S
Co256 O280 2.053 . S
Co256 O283 2.094 . S
Co256 O286 2.122 . S
Co257 O260 2.126 . S
Co257 H261 2.388 1_655 S
Co257 O262 2.053 1_655 S
Co257 O265 2.047 . S
Co257 O271 2.113 . S
Co257 O282 2.063 . S
Co258 H259 2.388 1_455 S
Co258 O260 2.053 1_455 S
Co258 O262 2.126 . S
Co258 O267 2.063 . S
Co258 O281 2.047 . S
Co258 O287 2.113 . S
H259 Co256 2.400 . S
H259 Co258 2.388 1_655 S
H259 O260 0.760 . S
O260 Co256 2.009 . S
O260 Co257 2.126 . S
O260 Co258 2.053 1_655 S
O260 H259 0.760 . S
H261 Co257 2.388 1_455 S
H261 O262 0.760 . S
H261 Co263 2.400 . S
O262 Co257 2.053 1_455 S
O262 Co258 2.126 . S
O262 H261 0.760 . S
O262 Co263 2.009 . S
Co263 H261 2.400 . S
Co263 O262 2.009 . S
Co263 O264 2.053 . S
Co263 O266 2.094 . S
Co263 O270 2.122 . S
Co263 O284 2.115 . S
Co263 O285 2.315 . S
O264 Co263 2.053 . S
O264 C276 1.259 . S
O265 Co257 2.047 . S
O265 C276 1.257 1_655 S
O266 Co263 2.094 . S
O266 C277 1.253 . S
O267 Co258 2.063 . S
O267 C277 1.268 . S
O268 Co256 2.115 . S
O268 C278 1.281 . S
O269 Co256 2.315 . S
O269 C278 1.252 . S
O270 Co263 2.122 . S
O270 C279 1.272 . S
O271 Co257 2.113 . S
O271 C279 1.245 1_655 S
C272 O280 1.262 . S
C272 O281 1.255 1_655 S
C273 O282 1.268 . S
C273 O283 1.253 . S
C274 O284 1.281 . S
C274 O285 1.252 . S
C275 O286 1.272 . S
C275 O287 1.245 1_655 S
C276 O264 1.259 . S
C276 O265 1.257 1_455 S
C277 O266 1.253 . S
C277 O267 1.268 . S
C278 O268 1.281 . S
C278 O269 1.252 . S
C279 O270 1.272 . S
C279 O271 1.245 1_455 S
O280 Co256 2.053 . S
O280 C272 1.262 . S
O281 Co258 2.047 . S
O281 C272 1.255 1_455 S
O282 Co257 2.063 . S
O282 C273 1.268 . S
O283 Co256 2.094 . S
O283 C273 1.253 . S
O284 Co263 2.115 . S
O284 C274 1.281 . S
O285 Co263 2.315 . S
O285 C274 1.252 . S
O286 Co256 2.122 . S
O286 C275 1.272 . S
O287 Co258 2.113 . S
O287 C275 1.245 1_455 S
Co288 H291 2.400 . S
Co288 O292 2.009 . S
Co288 O300 2.115 . S
Co288 O301 2.315 . S
Co288 O312 2.053 . S
Co288 O315 2.094 . S
Co288 O318 2.122 . S
Co289 O292 2.126 . S
Co289 H293 2.388 . S
Co289 O294 2.053 . S
Co289 O297 2.047 . S
Co289 O303 2.113 . S
Co289 O314 2.063 . S
Co290 H291 2.388 . S
Co290 O292 2.053 . S
Co290 O294 2.126 . S
Co290 O299 2.063 . S
Co290 O313 2.047 . S
Co290 O319 2.113 . S
H291 Co288 2.400 . S
H291 Co290 2.388 . S
H291 O292 0.760 . S
O292 Co288 2.009 . S
O292 Co289 2.126 . S
O292 Co290 2.053 . S
O292 H291 0.760 . S
H293 Co289 2.388 . S
H293 O294 0.760 . S
H293 Co295 2.400 . S
O294 Co289 2.053 . S
O294 Co290 2.126 . S
O294 H293 0.760 . S
O294 Co295 2.009 . S
Co295 H293 2.400 . S
Co295 O294 2.009 . S
Co295 O296 2.053 . S
Co295 O298 2.094 . S
Co295 O302 2.122 . S
Co295 O316 2.115 . S
Co295 O317 2.315 . S
O296 Co295 2.053 . S
O296 C308 1.259 . S
O297 Co289 2.047 . S
O297 C308 1.257 . S
O298 Co295 2.094 . S
O298 C309 1.253 . S
O299 Co290 2.063 . S
O299 C309 1.268 . S
O300 Co288 2.115 . S
O300 C310 1.281 . S
O301 Co288 2.315 . S
O301 C310 1.252 . S
O302 Co295 2.122 . S
O302 C311 1.272 . S
O303 Co289 2.113 . S
O303 C311 1.245 . S
C304 O312 1.259 . S
C304 O313 1.257 . S
C305 O314 1.268 . S
C305 O315 1.253 . S
C306 O316 1.281 . S
C306 O317 1.252 . S
C307 O318 1.272 . S
C307 O319 1.245 . S
C308 O296 1.259 . S
C308 O297 1.257 . S
C309 O298 1.253 . S
C309 O299 1.268 . S
C310 O300 1.281 . S
C310 O301 1.252 . S
C311 O302 1.272 . S
C311 O303 1.245 . S
O312 Co288 2.053 . S
O312 C304 1.259 . S
O313 Co290 2.047 . S
O313 C304 1.257 . S
O314 Co289 2.063 . S
O314 C305 1.268 . S
O315 Co288 2.094 . S
O315 C305 1.253 . S
O316 Co295 2.115 . S
O316 C306 1.281 . S
O317 Co295 2.315 . S
O317 C306 1.252 . S
O318 Co288 2.122 . S
O318 C307 1.272 . S
O319 Co290 2.113 . S
O319 C307 1.245 . S
Co320 H323 2.400 . S
Co320 O324 2.009 . S
Co320 O332 2.115 . S
Co320 O333 2.315 . S
Co320 O344 2.053 . S
Co320 O347 2.094 . S
Co320 O350 2.122 . S
Co321 O324 2.126 . S
Co321 H325 2.388 1_655 S
Co321 O326 2.053 1_655 S
Co321 O329 2.047 . S
Co321 O335 2.113 . S
Co321 O346 2.063 . S
Co322 H323 2.388 1_455 S
Co322 O324 2.053 1_455 S
Co322 O326 2.126 . S
Co322 O331 2.063 . S
Co322 O345 2.047 . S
Co322 O351 2.113 . S
H323 Co320 2.400 . S
H323 Co322 2.388 1_655 S
H323 O324 0.760 . S
O324 Co320 2.009 . S
O324 Co321 2.126 . S
O324 Co322 2.053 1_655 S
O324 H323 0.760 . S
H325 Co321 2.388 1_455 S
H325 O326 0.760 . S
H325 Co327 2.400 . S
O326 Co321 2.053 1_455 S
O326 Co322 2.126 . S
O326 H325 0.760 . S
O326 Co327 2.009 . S
Co327 H325 2.400 . S
Co327 O326 2.009 . S
Co327 O328 2.053 . S
Co327 O330 2.094 . S
Co327 O334 2.122 . S
Co327 O348 2.115 . S
Co327 O349 2.315 . S
O328 Co327 2.053 . S
O328 C340 1.259 . S
O329 Co321 2.047 . S
O329 C340 1.257 1_655 S
O330 Co327 2.094 . S
O330 C341 1.253 . S
O331 Co322 2.063 . S
O331 C341 1.268 . S
O332 Co320 2.115 . S
O332 C342 1.281 . S
O333 Co320 2.315 . S
O333 C342 1.252 . S
O334 Co327 2.122 . S
O334 C343 1.272 1_455 S
O335 Co321 2.113 . S
O335 C343 1.245 . S
C336 O344 1.258 1_455 S
C336 O345 1.259 . S
C337 O346 1.268 . S
C337 O347 1.253 . S
C338 O348 1.281 . S
C338 O349 1.252 . S
C339 O350 1.272 1_455 S
C339 O351 1.245 . S
C340 O328 1.259 . S
C340 O329 1.257 1_455 S
C341 O330 1.253 . S
C341 O331 1.268 . S
C342 O332 1.281 . S
C342 O333 1.252 . S
C343 O334 1.272 1_655 S
C343 O335 1.245 . S
O344 Co320 2.053 . S
O344 C336 1.258 1_655 S
O345 Co322 2.047 . S
O345 C336 1.259 . S
O346 Co321 2.063 . S
O346 C337 1.268 . S
O347 Co320 2.094 . S
O347 C337 1.253 . S
O348 Co327 2.115 . S
O348 C338 1.281 . S
O349 Co327 2.315 . S
O349 C338 1.252 . S
O350 Co320 2.122 . S
O350 C339 1.272 1_655 S
O351 Co322 2.113 . S
O351 C339 1.245 . S
Co352 H355 2.400 . S
Co352 O356 2.009 . S
Co352 O364 2.115 . S
Co352 O365 2.315 . S
Co352 O376 2.053 . S
Co352 O379 2.094 . S
Co352 O382 2.122 . S
Co353 O356 2.126 . S
Co353 H357 2.388 . S
Co353 O358 2.053 . S
Co353 O361 2.047 . S
Co353 O367 2.113 . S
Co353 O378 2.063 . S
Co354 H355 2.388 . S
Co354 O356 2.053 . S
Co354 O358 2.126 . S
Co354 O363 2.063 . S
Co354 O377 2.047 . S
Co354 O383 2.113 . S
H355 Co352 2.400 . S
H355 Co354 2.388 . S
H355 O356 0.760 . S
O356 Co352 2.009 . S
O356 Co353 2.126 . S
O356 Co354 2.053 . S
O356 H355 0.760 . S
H357 Co353 2.388 . S
H357 O358 0.760 . S
H357 Co359 2.400 . S
O358 Co353 2.053 . S
O358 Co354 2.126 . S
O358 H357 0.760 . S
O358 Co359 2.009 . S
Co359 H357 2.400 . S
Co359 O358 2.009 . S
Co359 O360 2.053 . S
Co359 O362 2.094 . S
Co359 O366 2.122 . S
Co359 O380 2.115 . S
Co359 O381 2.315 . S
O360 Co359 2.053 . S
O360 C372 1.259 . S
O361 Co353 2.047 . S
O361 C372 1.257 . S
O362 Co359 2.094 . S
O362 C373 1.253 . S
O363 Co354 2.063 . S
O363 C373 1.268 . S
O364 Co352 2.115 . S
O364 C374 1.281 . S
O365 Co352 2.315 . S
O365 C374 1.252 . S
O366 Co359 2.122 . S
O366 C375 1.272 . S
O367 Co353 2.113 . S
O367 C375 1.245 . S
C368 O376 1.259 . S
C368 O377 1.257 . S
C369 O378 1.268 . S
C369 O379 1.253 . S
C370 O380 1.281 . S
C370 O381 1.252 . S
C371 O382 1.272 . S
C371 O383 1.245 . S
C372 O360 1.259 . S
C372 O361 1.257 . S
C373 O362 1.253 . S
C373 O363 1.268 . S
C374 O364 1.281 . S
C374 O365 1.252 . S
C375 O366 1.272 . S
C375 O367 1.245 . S
O376 Co352 2.053 . S
O376 C368 1.259 . S
O377 Co354 2.047 . S
O377 C368 1.257 . S
O378 Co353 2.063 . S
O378 C369 1.268 . S
O379 Co352 2.094 . S
O379 C369 1.253 . S
O380 Co359 2.115 . S
O380 C370 1.281 . S
O381 Co359 2.315 . S
O381 C370 1.252 . S
O382 Co352 2.122 . S
O382 C371 1.272 . S
O383 Co354 2.113 . S
O383 C371 1.245 . S
Co384 H387 2.400 . S
Co384 O388 2.009 . S
Co384 O396 2.115 . S
Co384 O397 2.315 . S
Co384 O408 2.053 . S
Co384 O411 2.094 . S
Co384 O414 2.122 . S
Co385 O388 2.126 . S
Co385 H389 2.388 1_655 S
Co385 O390 2.053 1_655 S
Co385 O393 2.047 . S
Co385 O399 2.113 . S
Co385 O410 2.063 . S
Co386 H387 2.388 1_455 S
Co386 O388 2.053 1_455 S
Co386 O390 2.126 . S
Co386 O395 2.063 . S
Co386 O409 2.047 . S
Co386 O415 2.113 . S
H387 Co384 2.400 . S
H387 Co386 2.388 1_655 S
H387 O388 0.760 . S
O388 Co384 2.009 . S
O388 Co385 2.126 . S
O388 Co386 2.053 1_655 S
O388 H387 0.760 . S
H389 Co385 2.388 1_455 S
H389 O390 0.760 . S
H389 Co391 2.400 . S
O390 Co385 2.053 1_455 S
O390 Co386 2.126 . S
O390 H389 0.760 . S
O390 Co391 2.009 . S
Co391 H389 2.400 . S
Co391 O390 2.009 . S
Co391 O392 2.053 . S
Co391 O394 2.094 . S
Co391 O398 2.122 . S
Co391 O412 2.115 . S
Co391 O413 2.315 . S
O392 Co391 2.053 . S
O392 C404 1.262 . S
O393 Co385 2.047 . S
O393 C404 1.255 1_655 S
O394 Co391 2.094 . S
O394 C405 1.253 . S
O395 Co386 2.063 . S
O395 C405 1.268 . S
O396 Co384 2.115 . S
O396 C406 1.281 . S
O397 Co384 2.315 . S
O397 C406 1.252 . S
O398 Co391 2.122 . S
O398 C407 1.272 . S
O399 Co385 2.113 . S
O399 C407 1.245 1_655 S
C400 O408 1.259 . S
C400 O409 1.257 1_655 S
C401 O410 1.268 . S
C401 O411 1.253 . S
C402 O412 1.281 . S
C402 O413 1.252 . S
C403 O414 1.272 . S
C403 O415 1.245 1_655 S
C404 O392 1.262 . S
C404 O393 1.255 1_455 S
C405 O394 1.253 . S
C405 O395 1.268 . S
C406 O396 1.281 . S
C406 O397 1.252 . S
C407 O398 1.272 . S
C407 O399 1.245 1_455 S
O408 Co384 2.053 . S
O408 C400 1.259 . S
O409 Co386 2.047 . S
O409 C400 1.257 1_455 S
O410 Co385 2.063 . S
O410 C401 1.268 . S
O411 Co384 2.094 . S
O411 C401 1.253 . S
O412 Co391 2.115 . S
O412 C402 1.281 . S
O413 Co391 2.315 . S
O413 C402 1.252 . S
O414 Co384 2.122 . S
O414 C403 1.272 . S
O415 Co386 2.113 . S
O415 C403 1.245 1_455 S
Co416 H419 2.400 . S
Co416 O420 2.009 . S
Co416 O428 2.115 . S
Co416 O429 2.315 . S
Co416 O440 2.053 . S
Co416 O443 2.094 . S
Co416 O446 2.122 . S
Co417 O420 2.126 . S
Co417 H421 2.388 . S
Co417 O422 2.053 . S
Co417 O425 2.047 . S
Co417 O431 2.113 . S
Co417 O442 2.063 . S
Co418 H419 2.388 . S
Co418 O420 2.053 . S
Co418 O422 2.126 . S
Co418 O427 2.063 . S
Co418 O441 2.047 . S
Co418 O447 2.113 . S
H419 Co416 2.400 . S
H419 Co418 2.388 . S
H419 O420 0.760 . S
O420 Co416 2.009 . S
O420 Co417 2.126 . S
O420 Co418 2.053 . S
O420 H419 0.760 . S
H421 Co417 2.388 . S
H421 O422 0.760 . S
H421 Co423 2.400 . S
O422 Co417 2.053 . S
O422 Co418 2.126 . S
O422 H421 0.760 . S
O422 Co423 2.009 . S
Co423 H421 2.400 . S
Co423 O422 2.009 . S
Co423 O424 2.053 . S
Co423 O426 2.094 . S
Co423 O430 2.122 . S
Co423 O444 2.115 . S
Co423 O445 2.315 . S
O424 Co423 2.053 . S
O424 C436 1.259 . S
O425 Co417 2.047 . S
O425 C436 1.257 . S
O426 Co423 2.094 . S
O426 C437 1.253 . S
O427 Co418 2.063 . S
O427 C437 1.268 . S
O428 Co416 2.115 . S
O428 C438 1.281 . S
O429 Co416 2.315 . S
O429 C438 1.252 . S
O430 Co423 2.122 . S
O430 C439 1.272 . S
O431 Co417 2.113 . S
O431 C439 1.245 . S
C432 O440 1.259 . S
C432 O441 1.257 . S
C433 O442 1.268 . S
C433 O443 1.253 . S
C434 O444 1.281 . S
C434 O445 1.252 . S
C435 O446 1.272 . S
C435 O447 1.245 . S
C436 O424 1.259 . S
C436 O425 1.257 . S
C437 O426 1.253 . S
C437 O427 1.268 . S
C438 O428 1.281 . S
C438 O429 1.252 . S
C439 O430 1.272 . S
C439 O431 1.245 . S
O440 Co416 2.053 . S
O440 C432 1.259 . S
O441 Co418 2.047 . S
O441 C432 1.257 . S
O442 Co417 2.063 . S
O442 C433 1.268 . S
O443 Co416 2.094 . S
O443 C433 1.253 . S
O444 Co423 2.115 . S
O444 C434 1.281 . S
O445 Co423 2.315 . S
O445 C434 1.252 . S
O446 Co416 2.122 . S
O446 C435 1.272 . S
O447 Co418 2.113 . S
O447 C435 1.245 . S
Co448 H451 2.400 . S
Co448 O452 2.009 . S
Co448 O460 2.115 . S
Co448 O461 2.315 . S
Co448 O472 2.053 . S
Co448 O475 2.094 . S
Co448 O478 2.122 . S
Co449 O452 2.126 . S
Co449 H453 2.388 1_655 S
Co449 O454 2.053 1_655 S
Co449 O457 2.047 . S
Co449 O463 2.113 . S
Co449 O474 2.063 . S
Co450 H451 2.388 1_455 S
Co450 O452 2.053 1_455 S
Co450 O454 2.126 . S
Co450 O459 2.063 . S
Co450 O473 2.047 . S
Co450 O479 2.113 . S
H451 Co448 2.400 . S
H451 Co450 2.388 1_655 S
H451 O452 0.760 . S
O452 Co448 2.009 . S
O452 Co449 2.126 . S
O452 Co450 2.053 1_655 S
O452 H451 0.760 . S
H453 Co449 2.388 1_455 S
H453 O454 0.760 . S
H453 Co455 2.400 . S
O454 Co449 2.053 1_455 S
O454 Co450 2.126 . S
O454 H453 0.760 . S
O454 Co455 2.009 . S
Co455 H453 2.400 . S
Co455 O454 2.009 . S
Co455 O456 2.053 . S
Co455 O458 2.094 . S
Co455 O462 2.122 . S
Co455 O476 2.115 . S
Co455 O477 2.315 . S
O456 Co455 2.053 . S
O456 C468 1.258 1_455 S
O457 Co449 2.047 . S
O457 C468 1.259 . S
O458 Co455 2.094 . S
O458 C469 1.253 . S
O459 Co450 2.063 . S
O459 C469 1.268 . S
O460 Co448 2.115 . S
O460 C470 1.281 . S
O461 Co448 2.315 . S
O461 C470 1.252 . S
O462 Co455 2.122 . S
O462 C471 1.272 1_455 S
O463 Co449 2.113 . S
O463 C471 1.245 . S
C464 O472 1.259 . S
C464 O473 1.257 1_655 S
C465 O474 1.268 . S
C465 O475 1.253 . S
C466 O476 1.281 . S
C466 O477 1.252 . S
C467 O478 1.272 1_455 S
C467 O479 1.245 . S
C468 O456 1.258 1_655 S
C468 O457 1.259 . S
C469 O458 1.253 . S
C469 O459 1.268 . S
C470 O460 1.281 . S
C470 O461 1.252 . S
C471 O462 1.272 1_655 S
C471 O463 1.245 . S
O472 Co448 2.053 . S
O472 C464 1.259 . S
O473 Co450 2.047 . S
O473 C464 1.257 1_455 S
O474 Co449 2.063 . S
O474 C465 1.268 . S
O475 Co448 2.094 . S
O475 C465 1.253 . S
O476 Co455 2.115 . S
O476 C466 1.281 . S
O477 Co455 2.315 . S
O477 C466 1.252 . S
O478 Co448 2.122 . S
O478 C467 1.272 1_655 S
O479 Co450 2.113 . S
O479 C467 1.245 . S
Co480 H483 2.400 . S
Co480 O484 2.009 . S
Co480 O492 2.115 . S
Co480 O493 2.315 . S
Co480 O504 2.053 . S
Co480 O507 2.094 . S
Co480 O510 2.122 . S
Co481 O484 2.126 . S
Co481 H485 2.388 . S
Co481 O486 2.053 . S
Co481 O489 2.047 . S
Co481 O495 2.113 . S
Co481 O506 2.063 . S
Co482 H483 2.388 . S
Co482 O484 2.053 . S
Co482 O486 2.126 . S
Co482 O491 2.063 . S
Co482 O505 2.047 . S
Co482 O511 2.113 . S
H483 Co480 2.400 . S
H483 Co482 2.388 . S
H483 O484 0.760 . S
O484 Co480 2.009 . S
O484 Co481 2.126 . S
O484 Co482 2.053 . S
O484 H483 0.760 . S
H485 Co481 2.388 . S
H485 O486 0.760 . S
H485 Co487 2.400 . S
O486 Co481 2.053 . S
O486 Co482 2.126 . S
O486 H485 0.760 . S
O486 Co487 2.009 . S
Co487 H485 2.400 . S
Co487 O486 2.009 . S
Co487 O488 2.053 . S
Co487 O490 2.094 . S
Co487 O494 2.122 . S
Co487 O508 2.115 . S
Co487 O509 2.315 . S
O488 Co487 2.053 . S
O488 C500 1.259 . S
O489 Co481 2.047 . S
O489 C500 1.257 . S
O490 Co487 2.094 . S
O490 C501 1.253 . S
O491 Co482 2.063 . S
O491 C501 1.268 . S
O492 Co480 2.115 . S
O492 C502 1.281 . S
O493 Co480 2.315 . S
O493 C502 1.252 . S
O494 Co487 2.122 . S
O494 C503 1.272 . S
O495 Co481 2.113 . S
O495 C503 1.245 . S
C496 O504 1.259 . S
C496 O505 1.257 . S
C497 O506 1.268 . S
C497 O507 1.253 . S
C498 O508 1.281 . S
C498 O509 1.252 . S
C499 O510 1.272 . S
C499 O511 1.245 . S
C500 O488 1.259 . S
C500 O489 1.257 . S
C501 O490 1.253 . S
C501 O491 1.268 . S
C502 O492 1.281 . S
C502 O493 1.252 . S
C503 O494 1.272 . S
C503 O495 1.245 . S
O504 Co480 2.053 . S
O504 C496 1.259 . S
O505 Co482 2.047 . S
O505 C496 1.257 . S
O506 Co481 2.063 . S
O506 C497 1.268 . S
O507 Co480 2.094 . S
O507 C497 1.253 . S
O508 Co487 2.115 . S
O508 C498 1.281 . S
O509 Co487 2.315 . S
O509 C498 1.252 . S
O510 Co480 2.122 . S
O510 C499 1.272 . S
O511 Co482 2.113 . S
O511 C499 1.245 . S
Co512 H515 2.400 . S
Co512 O516 2.009 . S
Co512 O524 2.115 . S
Co512 O525 2.315 . S
Co512 O536 2.053 . S
Co512 O539 2.094 . S
Co512 O542 2.122 . S
Co513 O516 2.126 . S
Co513 H517 2.388 . S
Co513 O518 2.053 . S
Co513 O521 2.047 . S
Co513 O527 2.113 . S
Co513 O538 2.063 . S
Co514 H515 2.388 . S
Co514 O516 2.053 . S
Co514 O518 2.126 . S
Co514 O523 2.063 . S
Co514 O537 2.047 . S
Co514 O543 2.113 . S
H515 Co512 2.400 . S
H515 Co514 2.388 . S
H515 O516 0.760 . S
O516 Co512 2.009 . S
O516 Co513 2.126 . S
O516 Co514 2.053 . S
O516 H515 0.760 . S
H517 Co513 2.388 . S
H517 O518 0.760 . S
H517 Co519 2.400 . S
O518 Co513 2.053 . S
O518 Co514 2.126 . S
O518 H517 0.760 . S
O518 Co519 2.009 . S
Co519 H517 2.400 . S
Co519 O518 2.009 . S
Co519 O520 2.053 . S
Co519 O522 2.094 . S
Co519 O526 2.122 . S
Co519 O540 2.115 . S
Co519 O541 2.315 . S
O520 Co519 2.053 . S
O520 C532 1.259 . S
O521 Co513 2.047 . S
O521 C532 1.257 . S
O522 Co519 2.094 . S
O522 C533 1.253 . S
O523 Co514 2.063 . S
O523 C533 1.268 . S
O524 Co512 2.115 . S
O524 C534 1.281 . S
O525 Co512 2.315 . S
O525 C534 1.252 . S
O526 Co519 2.122 . S
O526 C535 1.272 . S
O527 Co513 2.113 . S
O527 C535 1.245 . S
C528 O536 1.259 . S
C528 O537 1.257 . S
C529 O538 1.268 . S
C529 O539 1.253 . S
C530 O540 1.281 . S
C530 O541 1.252 . S
C531 O542 1.272 . S
C531 O543 1.245 . S
C532 O520 1.259 . S
C532 O521 1.257 . S
C533 O522 1.253 . S
C533 O523 1.268 . S
C534 O524 1.281 . S
C534 O525 1.252 . S
C535 O526 1.272 . S
C535 O527 1.245 . S
O536 Co512 2.053 . S
O536 C528 1.259 . S
O537 Co514 2.047 . S
O537 C528 1.257 . S
O538 Co513 2.063 . S
O538 C529 1.268 . S
O539 Co512 2.094 . S
O539 C529 1.253 . S
O540 Co519 2.115 . S
O540 C530 1.281 . S
O541 Co519 2.315 . S
O541 C530 1.252 . S
O542 Co512 2.122 . S
O542 C531 1.272 . S
O543 Co514 2.113 . S
O543 C531 1.245 . S
Co544 H547 2.400 . S
Co544 O548 2.009 . S
Co544 O556 2.115 . S
Co544 O557 2.315 . S
Co544 O568 2.053 . S
Co544 O571 2.094 . S
Co544 O574 2.122 . S
Co545 O548 2.126 . S
Co545 H549 2.388 . S
Co545 O550 2.053 . S
Co545 O553 2.047 . S
Co545 O559 2.113 . S
Co545 O570 2.063 . S
Co546 H547 2.388 . S
Co546 O548 2.053 . S
Co546 O550 2.126 . S
Co546 O555 2.063 1_565 S
Co546 O569 2.047 1_565 S
Co546 O575 2.113 . S
H547 Co544 2.400 . S
H547 Co546 2.388 . S
H547 O548 0.760 . S
O548 Co544 2.009 . S
O548 Co545 2.126 . S
O548 Co546 2.053 . S
O548 H547 0.760 . S
H549 Co545 2.388 . S
H549 O550 0.760 . S
H549 Co551 2.400 . S
O550 Co545 2.053 . S
O550 Co546 2.126 . S
O550 H549 0.760 . S
O550 Co551 2.009 . S
Co551 H549 2.400 . S
Co551 O550 2.009 . S
Co551 O552 2.053 . S
Co551 O554 2.094 . S
Co551 O558 2.122 . S
Co551 O572 2.115 . S
Co551 O573 2.315 . S
O552 Co551 2.053 . S
O552 C564 1.259 . S
O553 Co545 2.047 . S
O553 C564 1.257 . S
O554 Co551 2.094 . S
O554 C565 1.253 1_565 S
O555 Co546 2.063 1_545 S
O555 C565 1.268 . S
O556 Co544 2.115 . S
O556 C566 1.281 . S
O557 Co544 2.315 . S
O557 C566 1.252 . S
O558 Co551 2.122 . S
O558 C567 1.272 . S
O559 Co545 2.113 . S
O559 C567 1.245 . S
C560 O568 1.244 1_545 S
C560 O569 1.261 . S
C561 O570 1.268 . S
C561 O571 1.253 . S
C562 O572 1.281 . S
C562 O573 1.252 . S
C563 O574 1.272 . S
C563 O575 1.245 . S
C564 O552 1.259 . S
C564 O553 1.257 . S
C565 O554 1.253 1_545 S
C565 O555 1.268 . S
C566 O556 1.281 . S
C566 O557 1.252 . S
C567 O558 1.272 . S
C567 O559 1.245 . S
O568 Co544 2.053 . S
O568 C560 1.244 1_565 S
O569 Co546 2.047 1_545 S
O569 C560 1.261 . S
O570 Co545 2.063 . S
O570 C561 1.268 . S
O571 Co544 2.094 . S
O571 C561 1.253 . S
O572 Co551 2.115 . S
O572 C562 1.281 . S
O573 Co551 2.315 . S
O573 C562 1.252 . S
O574 Co544 2.122 . S
O574 C563 1.272 . S
O575 Co546 2.113 . S
O575 C563 1.245 . S
Co576 H579 2.400 . S
Co576 O580 2.009 . S
Co576 O588 2.115 1_565 S
Co576 O589 2.315 . S
Co576 O600 2.053 1_565 S
Co576 O603 2.094 . S
Co576 O606 2.122 1_565 S
Co577 O580 2.126 . S
Co577 H581 2.388 . S
Co577 O582 2.053 . S
Co577 O585 2.047 . S
Co577 O591 2.113 . S
Co577 O602 2.063 . S
Co578 H579 2.388 . S
Co578 O580 2.053 . S
Co578 O582 2.126 . S
Co578 O587 2.063 . S
Co578 O601 2.047 1_565 S
Co578 O607 2.113 1_565 S
H579 Co576 2.400 . S
H579 Co578 2.388 . S
H579 O580 0.760 . S
O580 Co576 2.009 . S
O580 Co577 2.126 . S
O580 Co578 2.053 . S
O580 H579 0.760 . S
H581 Co577 2.388 . S
H581 O582 0.760 . S
H581 Co583 2.400 . S
O582 Co577 2.053 . S
O582 Co578 2.126 . S
O582 H581 0.760 . S
O582 Co583 2.009 . S
Co583 H581 2.400 . S
Co583 O582 2.009 . S
Co583 O584 2.053 . S
Co583 O586 2.094 . S
Co583 O590 2.122 . S
Co583 O604 2.115 . S
Co583 O605 2.315 . S
O584 Co583 2.053 . S
O584 C596 1.259 . S
O585 Co577 2.047 . S
O585 C596 1.257 . S
O586 Co583 2.094 . S
O586 C597 1.253 . S
O587 Co578 2.063 . S
O587 C597 1.268 . S
O588 Co576 2.115 1_545 S
O588 C598 1.281 . S
O589 Co576 2.315 . S
O589 C598 1.252 1_565 S
O590 Co583 2.122 . S
O590 C599 1.272 . S
O591 Co577 2.113 . S
O591 C599 1.245 . S
C592 O600 1.259 . S
C592 O601 1.257 . S
C593 O602 1.268 . S
C593 O603 1.253 . S
C594 O604 1.281 . S
C594 O605 1.252 . S
C595 O606 1.272 . S
C595 O607 1.246 . S
C596 O584 1.259 . S
C596 O585 1.257 . S
C597 O586 1.253 . S
C597 O587 1.268 . S
C598 O588 1.281 . S
C598 O589 1.252 1_545 S
C599 O590 1.272 . S
C599 O591 1.245 . S
O600 Co576 2.053 1_545 S
O600 C592 1.259 . S
O601 Co578 2.047 1_545 S
O601 C592 1.257 . S
O602 Co577 2.063 . S
O602 C593 1.268 . S
O603 Co576 2.094 . S
O603 C593 1.253 . S
O604 Co583 2.115 . S
O604 C594 1.281 . S
O605 Co583 2.315 . S
O605 C594 1.252 . S
O606 Co576 2.122 1_545 S
O606 C595 1.272 . S
O607 Co578 2.113 1_545 S
O607 C595 1.246 . S
Co608 H611 2.400 . S
Co608 O612 2.009 . S
Co608 O620 2.115 . S
Co608 O621 2.315 . S
Co608 O632 2.053 . S
Co608 O635 2.094 . S
Co608 O638 2.122 . S
Co609 O612 2.126 . S
Co609 H613 2.388 . S
Co609 O614 2.053 . S
Co609 O617 2.047 . S
Co609 O623 2.113 . S
Co609 O634 2.063 . S
Co610 H611 2.388 . S
Co610 O612 2.053 . S
Co610 O614 2.126 . S
Co610 O619 2.063 . S
Co610 O633 2.047 . S
Co610 O639 2.113 . S
H611 Co608 2.400 . S
H611 Co610 2.388 . S
H611 O612 0.760 . S
O612 Co608 2.009 . S
O612 Co609 2.126 . S
O612 Co610 2.053 . S
O612 H611 0.760 . S
H613 Co609 2.388 . S
H613 O614 0.760 . S
H613 Co615 2.400 . S
O614 Co609 2.053 . S
O614 Co610 2.126 . S
O614 H613 0.760 . S
O614 Co615 2.009 . S
Co615 H613 2.400 . S
Co615 O614 2.009 . S
Co615 O616 2.053 . S
Co615 O618 2.094 . S
Co615 O622 2.122 . S
Co615 O636 2.115 . S
Co615 O637 2.315 . S
O616 Co615 2.053 . S
O616 C628 1.259 . S
O617 Co609 2.047 . S
O617 C628 1.257 . S
O618 Co615 2.094 . S
O618 C629 1.253 . S
O619 Co610 2.063 . S
O619 C629 1.268 . S
O620 Co608 2.115 . S
O620 C630 1.281 . S
O621 Co608 2.315 . S
O621 C630 1.252 . S
O622 Co615 2.122 . S
O622 C631 1.272 . S
O623 Co609 2.113 . S
O623 C631 1.245 . S
C624 O632 1.259 . S
C624 O633 1.257 . S
C625 O634 1.268 . S
C625 O635 1.253 . S
C626 O636 1.281 . S
C626 O637 1.252 . S
C627 O638 1.272 . S
C627 O639 1.245 . S
C628 O616 1.259 . S
C628 O617 1.257 . S
C629 O618 1.253 . S
C629 O619 1.268 . S
C630 O620 1.281 . S
C630 O621 1.252 . S
C631 O622 1.272 . S
C631 O623 1.245 . S
O632 Co608 2.053 . S
O632 C624 1.259 . S
O633 Co610 2.047 . S
O633 C624 1.257 . S
O634 Co609 2.063 . S
O634 C625 1.268 . S
O635 Co608 2.094 . S
O635 C625 1.253 . S
O636 Co615 2.115 . S
O636 C626 1.281 . S
O637 Co615 2.315 . S
O637 C626 1.252 . S
O638 Co608 2.122 . S
O638 C627 1.272 . S
O639 Co610 2.113 . S
O639 C627 1.245 . S
Co640 H643 2.400 . S
Co640 O644 2.009 . S
Co640 O652 2.115 . S
Co640 O653 2.315 . S
Co640 O664 2.053 . S
Co640 O667 2.094 . S
Co640 O670 2.122 . S
Co641 O644 2.126 . S
Co641 H645 2.388 . S
Co641 O646 2.053 . S
Co641 O649 2.047 . S
Co641 O655 2.113 . S
Co641 O666 2.063 . S
Co642 H643 2.388 . S
Co642 O644 2.053 . S
Co642 O646 2.126 . S
Co642 O651 2.063 . S
Co642 O665 2.047 . S
Co642 O671 2.113 . S
H643 Co640 2.400 . S
H643 Co642 2.388 . S
H643 O644 0.760 . S
O644 Co640 2.009 . S
O644 Co641 2.126 . S
O644 Co642 2.053 . S
O644 H643 0.760 . S
H645 Co641 2.388 . S
H645 O646 0.760 . S
H645 Co647 2.400 . S
O646 Co641 2.053 . S
O646 Co642 2.126 . S
O646 H645 0.760 . S
O646 Co647 2.009 . S
Co647 H645 2.400 . S
Co647 O646 2.009 . S
Co647 O648 2.053 . S
Co647 O650 2.094 . S
Co647 O654 2.122 . S
Co647 O668 2.115 . S
Co647 O669 2.315 . S
O648 Co647 2.053 . S
O648 C660 1.259 . S
O649 Co641 2.047 . S
O649 C660 1.257 . S
O650 Co647 2.094 . S
O650 C661 1.253 . S
O651 Co642 2.063 . S
O651 C661 1.268 . S
O652 Co640 2.115 . S
O652 C662 1.281 . S
O653 Co640 2.315 . S
O653 C662 1.252 . S
O654 Co647 2.122 . S
O654 C663 1.272 . S
O655 Co641 2.113 . S
O655 C663 1.245 . S
C656 O664 1.259 . S
C656 O665 1.257 . S
C657 O666 1.268 . S
C657 O667 1.253 . S
C658 O668 1.281 . S
C658 O669 1.252 . S
C659 O670 1.272 . S
C659 O671 1.245 . S
C660 O648 1.259 . S
C660 O649 1.257 . S
C661 O650 1.253 . S
C661 O651 1.268 . S
C662 O652 1.281 . S
C662 O653 1.252 . S
C663 O654 1.272 . S
C663 O655 1.245 . S
O664 Co640 2.053 . S
O664 C656 1.259 . S
O665 Co642 2.047 . S
O665 C656 1.257 . S
O666 Co641 2.063 . S
O666 C657 1.268 . S
O667 Co640 2.094 . S
O667 C657 1.253 . S
O668 Co647 2.115 . S
O668 C658 1.281 . S
O669 Co647 2.315 . S
O669 C658 1.252 . S
O670 Co640 2.122 . S
O670 C659 1.272 . S
O671 Co642 2.113 . S
O671 C659 1.245 . S
Co672 H675 2.400 . S
Co672 O676 2.009 . S
Co672 O684 2.115 . S
Co672 O685 2.315 . S
Co672 O696 2.053 . S
Co672 O699 2.094 . S
Co672 O702 2.122 . S
Co673 O676 2.126 . S
Co673 H677 2.388 . S
Co673 O678 2.053 . S
Co673 O681 2.047 1_545 S
Co673 O687 2.113 . S
Co673 O698 2.063 1_545 S
Co674 H675 2.388 . S
Co674 O676 2.053 . S
Co674 O678 2.126 . S
Co674 O683 2.063 . S
Co674 O697 2.047 . S
Co674 O703 2.113 . S
H675 Co672 2.400 . S
H675 Co674 2.388 . S
H675 O676 0.760 . S
O676 Co672 2.009 . S
O676 Co673 2.126 . S
O676 Co674 2.053 . S
O676 H675 0.760 . S
H677 Co673 2.388 . S
H677 O678 0.760 . S
H677 Co679 2.400 . S
O678 Co673 2.053 . S
O678 Co674 2.126 . S
O678 H677 0.760 . S
O678 Co679 2.009 . S
Co679 H677 2.400 . S
Co679 O678 2.009 . S
Co679 O680 2.053 . S
Co679 O682 2.094 . S
Co679 O686 2.122 . S
Co679 O700 2.115 . S
Co679 O701 2.315 . S
O680 Co679 2.053 . S
O680 C692 1.244 1_545 S
O681 Co673 2.047 1_565 S
O681 C692 1.261 . S
O682 Co679 2.094 . S
O682 C693 1.253 . S
O683 Co674 2.063 . S
O683 C693 1.268 . S
O684 Co672 2.115 . S
O684 C694 1.281 . S
O685 Co672 2.315 . S
O685 C694 1.252 . S
O686 Co679 2.122 . S
O686 C695 1.272 . S
O687 Co673 2.113 . S
O687 C695 1.245 . S
C688 O696 1.259 . S
C688 O697 1.257 . S
C689 O698 1.268 . S
C689 O699 1.253 1_565 S
C690 O700 1.281 . S
C690 O701 1.252 . S
C691 O702 1.272 . S
C691 O703 1.245 . S
C692 O680 1.244 1_565 S
C692 O681 1.261 . S
C693 O682 1.253 . S
C693 O683 1.268 . S
C694 O684 1.281 . S
C694 O685 1.252 . S
C695 O686 1.272 . S
C695 O687 1.245 . S
O696 Co672 2.053 . S
O696 C688 1.259 . S
O697 Co674 2.047 . S
O697 C688 1.257 . S
O698 Co673 2.063 1_565 S
O698 C689 1.268 . S
O699 Co672 2.094 . S
O699 C689 1.253 1_545 S
O700 Co679 2.115 . S
O700 C690 1.281 . S
O701 Co679 2.315 . S
O701 C690 1.252 . S
O702 Co672 2.122 . S
O702 C691 1.272 . S
O703 Co674 2.113 . S
O703 C691 1.245 . S
Co704 H707 2.400 . S
Co704 O708 2.009 . S
Co704 O716 2.115 . S
Co704 O717 2.315 . S
Co704 O728 2.053 . S
Co704 O731 2.094 . S
Co704 O734 2.122 . S
Co705 O708 2.126 . S
Co705 H709 2.388 . S
Co705 O710 2.053 . S
Co705 O713 2.047 1_545 S
Co705 O719 2.113 1_545 S
Co705 O730 2.063 . S
Co706 H707 2.388 . S
Co706 O708 2.053 . S
Co706 O710 2.126 . S
Co706 O715 2.063 . S
Co706 O729 2.047 . S
Co706 O735 2.113 . S
H707 Co704 2.400 . S
H707 Co706 2.388 . S
H707 O708 0.760 . S
O708 Co704 2.009 . S
O708 Co705 2.126 . S
O708 Co706 2.053 . S
O708 H707 0.760 . S
H709 Co705 2.388 . S
H709 O710 0.760 . S
H709 Co711 2.400 . S
O710 Co705 2.053 . S
O710 Co706 2.126 . S
O710 H709 0.760 . S
O710 Co711 2.009 . S
Co711 H709 2.400 . S
Co711 O710 2.009 . S
Co711 O712 2.053 1_545 S
Co711 O714 2.094 . S
Co711 O718 2.122 1_545 S
Co711 O732 2.115 1_545 S
Co711 O733 2.315 . S
O712 Co711 2.053 1_565 S
O712 C724 1.259 . S
O713 Co705 2.047 1_565 S
O713 C724 1.257 . S
O714 Co711 2.094 . S
O714 C725 1.253 . S
O715 Co706 2.063 . S
O715 C725 1.268 . S
O716 Co704 2.115 . S
O716 C726 1.281 . S
O717 Co704 2.315 . S
O717 C726 1.252 . S
O718 Co711 2.122 1_565 S
O718 C727 1.272 . S
O719 Co705 2.113 1_565 S
O719 C727 1.246 . S
C720 O728 1.259 . S
C720 O729 1.257 . S
C721 O730 1.268 . S
C721 O731 1.253 . S
C722 O732 1.281 . S
C722 O733 1.252 1_565 S
C723 O734 1.272 . S
C723 O735 1.245 . S
C724 O712 1.259 . S
C724 O713 1.257 . S
C725 O714 1.253 . S
C725 O715 1.268 . S
C726 O716 1.281 . S
C726 O717 1.252 . S
C727 O718 1.272 . S
C727 O719 1.246 . S
O728 Co704 2.053 . S
O728 C720 1.259 . S
O729 Co706 2.047 . S
O729 C720 1.257 . S
O730 Co705 2.063 . S
O730 C721 1.268 . S
O731 Co704 2.094 . S
O731 C721 1.253 . S
O732 Co711 2.115 1_565 S
O732 C722 1.281 . S
O733 Co711 2.315 . S
O733 C722 1.252 1_545 S
O734 Co704 2.122 . S
O734 C723 1.272 . S
O735 Co706 2.113 . S
O735 C723 1.245 . S
Co736 H739 2.400 . S
Co736 O740 2.009 . S
Co736 O748 2.115 . S
Co736 O749 2.315 . S
Co736 O760 2.053 . S
Co736 O763 2.094 . S
Co736 O766 2.122 . S
Co737 O740 2.126 . S
Co737 H741 2.388 . S
Co737 O742 2.053 . S
Co737 O745 2.047 . S
Co737 O751 2.113 . S
Co737 O762 2.063 . S
Co738 H739 2.388 . S
Co738 O740 2.053 . S
Co738 O742 2.126 . S
Co738 O747 2.063 . S
Co738 O761 2.047 . S
Co738 O767 2.113 . S
H739 Co736 2.400 . S
H739 Co738 2.388 . S
H739 O740 0.760 . S
O740 Co736 2.009 . S
O740 Co737 2.126 . S
O740 Co738 2.053 . S
O740 H739 0.760 . S
H741 Co737 2.388 . S
H741 O742 0.760 . S
H741 Co743 2.400 . S
O742 Co737 2.053 . S
O742 Co738 2.126 . S
O742 H741 0.760 . S
O742 Co743 2.009 . S
Co743 H741 2.400 . S
Co743 O742 2.009 . S
Co743 O744 2.053 . S
Co743 O746 2.094 . S
Co743 O750 2.122 . S
Co743 O764 2.115 . S
Co743 O765 2.315 . S
O744 Co743 2.053 . S
O744 C756 1.259 . S
O745 Co737 2.047 . S
O745 C756 1.257 . S
O746 Co743 2.094 . S
O746 C757 1.253 . S
O747 Co738 2.063 . S
O747 C757 1.268 . S
O748 Co736 2.115 . S
O748 C758 1.281 . S
O749 Co736 2.315 . S
O749 C758 1.252 . S
O750 Co743 2.122 . S
O750 C759 1.272 . S
O751 Co737 2.113 . S
O751 C759 1.245 . S
C752 O760 1.259 . S
C752 O761 1.257 . S
C753 O762 1.268 . S
C753 O763 1.253 . S
C754 O764 1.281 . S
C754 O765 1.252 . S
C755 O766 1.272 . S
C755 O767 1.245 . S
C756 O744 1.259 . S
C756 O745 1.257 . S
C757 O746 1.253 . S
C757 O747 1.268 . S
C758 O748 1.281 . S
C758 O749 1.252 . S
C759 O750 1.272 . S
C759 O751 1.245 . S
O760 Co736 2.053 . S
O760 C752 1.259 . S
O761 Co738 2.047 . S
O761 C752 1.257 . S
O762 Co737 2.063 . S
O762 C753 1.268 . S
O763 Co736 2.094 . S
O763 C753 1.253 . S
O764 Co743 2.115 . S
O764 C754 1.281 . S
O765 Co743 2.315 . S
O765 C754 1.252 . S
O766 Co736 2.122 . S
O766 C755 1.272 . S
O767 Co738 2.113 . S
O767 C755 1.245 . S
Co768 H771 2.400 . S
Co768 O772 2.009 . S
Co768 O780 2.115 . S
Co768 O781 2.315 . S
Co768 O792 2.053 . S
Co768 O795 2.094 1_554 S
Co768 O798 2.122 1_554 S
Co769 O772 2.126 . S
Co769 H773 2.388 1_554 S
Co769 O774 2.053 . S
Co769 O777 2.047 1_554 S
Co769 O783 2.113 . S
Co769 O794 2.063 . S
Co770 H771 2.388 . S
Co770 O772 2.053 . S
Co770 O774 2.126 . S
Co770 O779 2.063 . S
Co770 O793 2.047 . S
Co770 O799 2.113 1_554 S
H771 Co768 2.400 . S
H771 Co770 2.388 . S
H771 O772 0.760 . S
O772 Co768 2.009 . S
O772 Co769 2.126 . S
O772 Co770 2.053 . S
O772 H771 0.760 . S
H773 Co769 2.388 1_556 S
H773 O774 0.760 1_556 S
H773 Co775 2.400 1_556 S
O774 Co769 2.053 . S
O774 Co770 2.126 . S
O774 H773 0.760 1_554 S
O774 Co775 2.009 . S
Co775 H773 2.400 1_554 S
Co775 O774 2.009 . S
Co775 O776 2.053 . S
Co775 O778 2.094 . S
Co775 O782 2.122 . S
Co775 O796 2.115 . S
Co775 O797 2.315 1_554 S
O776 Co775 2.053 . S
O776 C788 1.259 1_554 S
O777 Co769 2.047 1_556 S
O777 C788 1.257 . S
O778 Co775 2.094 . S
O778 C789 1.253 . S
O779 Co770 2.063 . S
O779 C789 1.268 . S
O780 Co768 2.115 . S
O780 C790 1.281 . S
O781 Co768 2.315 . S
O781 C790 1.252 . S
O782 Co775 2.122 . S
O782 C791 1.272 . S
O783 Co769 2.113 . S
O783 C791 1.245 . S
C784 O792 1.259 . S
C784 O793 1.257 . S
C785 O794 1.268 1_556 S
C785 O795 1.253 . S
C786 O796 1.281 . S
C786 O797 1.252 1_554 S
C787 O798 1.272 . S
C787 O799 1.245 . S
C788 O776 1.259 1_556 S
C788 O777 1.257 . S
C789 O778 1.253 . S
C789 O779 1.268 . S
C790 O780 1.281 . S
C790 O781 1.252 . S
C791 O782 1.272 . S
C791 O783 1.245 . S
O792 Co768 2.053 . S
O792 C784 1.259 . S
O793 Co770 2.047 . S
O793 C784 1.257 . S
O794 Co769 2.063 . S
O794 C785 1.268 1_554 S
O795 Co768 2.094 1_556 S
O795 C785 1.253 . S
O796 Co775 2.115 . S
O796 C786 1.281 . S
O797 Co775 2.315 1_556 S
O797 C786 1.252 1_556 S
O798 Co768 2.122 1_556 S
O798 C787 1.272 . S
O799 Co770 2.113 1_556 S
O799 C787 1.245 . S
Co800 H803 2.400 . S
Co800 O804 2.009 . S
Co800 O812 2.115 1_554 S
Co800 O813 2.315 . S
Co800 O824 2.053 . S
Co800 O827 2.094 1_554 S
Co800 O830 2.122 1_554 S
Co801 O804 2.126 . S
Co801 H805 2.388 . S
Co801 O806 2.053 . S
Co801 O809 2.047 . S
Co801 O815 2.113 . S
Co801 O826 2.063 . S
Co802 H803 2.388 . S
Co802 O804 2.053 . S
Co802 O806 2.126 . S
Co802 O811 2.063 . S
Co802 O825 2.047 . S
Co802 O831 2.113 . S
H803 Co800 2.400 . S
H803 Co802 2.388 . S
H803 O804 0.760 . S
O804 Co800 2.009 . S
O804 Co801 2.126 . S
O804 Co802 2.053 . S
O804 H803 0.760 . S
H805 Co801 2.388 . S
H805 O806 0.760 . S
H805 Co807 2.400 . S
O806 Co801 2.053 . S
O806 Co802 2.126 . S
O806 H805 0.760 . S
O806 Co807 2.009 . S
Co807 H805 2.400 . S
Co807 O806 2.009 . S
Co807 O808 2.053 . S
Co807 O810 2.094 . S
Co807 O814 2.122 . S
Co807 O828 2.115 . S
Co807 O829 2.315 . S
O808 Co807 2.053 . S
O808 C820 1.259 . S
O809 Co801 2.047 . S
O809 C820 1.257 . S
O810 Co807 2.094 . S
O810 C821 1.253 . S
O811 Co802 2.063 . S
O811 C821 1.268 . S
O812 Co800 2.115 1_556 S
O812 C822 1.281 . S
O813 Co800 2.315 . S
O813 C822 1.252 1_554 S
O814 Co807 2.122 . S
O814 C823 1.272 . S
O815 Co801 2.113 . S
O815 C823 1.245 . S
C816 O824 1.259 . S
C816 O825 1.257 . S
C817 O826 1.268 1_556 S
C817 O827 1.253 . S
C818 O828 1.281 . S
C818 O829 1.252 . S
C819 O830 1.272 . S
C819 O831 1.245 1_556 S
C820 O808 1.259 . S
C820 O809 1.257 . S
C821 O810 1.253 . S
C821 O811 1.268 . S
C822 O812 1.281 . S
C822 O813 1.252 1_556 S
C823 O814 1.272 . S
C823 O815 1.245 . S
O824 Co800 2.053 . S
O824 C816 1.259 . S
O825 Co802 2.047 . S
O825 C816 1.257 . S
O826 Co801 2.063 . S
O826 C817 1.268 1_554 S
O827 Co800 2.094 1_556 S
O827 C817 1.253 . S
O828 Co807 2.115 . S
O828 C818 1.281 . S
O829 Co807 2.315 . S
O829 C818 1.252 . S
O830 Co800 2.122 1_556 S
O830 C819 1.272 . S
O831 Co802 2.113 . S
O831 C819 1.245 1_554 S
Co832 H835 2.400 . S
Co832 O836 2.009 . S
Co832 O844 2.115 . S
Co832 O845 2.315 . S
Co832 O856 2.053 . S
Co832 O859 2.094 . S
Co832 O862 2.122 . S
Co833 O836 2.126 . S
Co833 H837 2.388 . S
Co833 O838 2.053 . S
Co833 O841 2.047 . S
Co833 O847 2.113 . S
Co833 O858 2.063 . S
Co834 H835 2.388 . S
Co834 O836 2.053 . S
Co834 O838 2.126 . S
Co834 O843 2.063 . S
Co834 O857 2.047 . S
Co834 O863 2.113 . S
H835 Co832 2.400 . S
H835 Co834 2.388 . S
H835 O836 0.760 . S
O836 Co832 2.009 . S
O836 Co833 2.126 . S
O836 Co834 2.053 . S
O836 H835 0.760 . S
H837 Co833 2.388 . S
H837 O838 0.760 . S
H837 Co839 2.400 . S
O838 Co833 2.053 . S
O838 Co834 2.126 . S
O838 H837 0.760 . S
O838 Co839 2.009 . S
Co839 H837 2.400 . S
Co839 O838 2.009 . S
Co839 O840 2.053 . S
Co839 O842 2.094 . S
Co839 O846 2.122 . S
Co839 O860 2.115 . S
Co839 O861 2.315 . S
O840 Co839 2.053 . S
O840 C852 1.259 . S
O841 Co833 2.047 . S
O841 C852 1.257 . S
O842 Co839 2.094 . S
O842 C853 1.253 . S
O843 Co834 2.063 . S
O843 C853 1.268 . S
O844 Co832 2.115 . S
O844 C854 1.281 . S
O845 Co832 2.315 . S
O845 C854 1.252 . S
O846 Co839 2.122 . S
O846 C855 1.272 . S
O847 Co833 2.113 . S
O847 C855 1.245 . S
C848 O856 1.259 . S
C848 O857 1.257 . S
C849 O858 1.268 . S
C849 O859 1.253 . S
C850 O860 1.281 . S
C850 O861 1.252 . S
C851 O862 1.272 . S
C851 O863 1.245 . S
C852 O840 1.259 . S
C852 O841 1.257 . S
C853 O842 1.253 . S
C853 O843 1.268 . S
C854 O844 1.281 . S
C854 O845 1.252 . S
C855 O846 1.272 . S
C855 O847 1.245 . S
O856 Co832 2.053 . S
O856 C848 1.259 . S
O857 Co834 2.047 . S
O857 C848 1.257 . S
O858 Co833 2.063 . S
O858 C849 1.268 . S
O859 Co832 2.094 . S
O859 C849 1.253 . S
O860 Co839 2.115 . S
O860 C850 1.281 . S
O861 Co839 2.315 . S
O861 C850 1.252 . S
O862 Co832 2.122 . S
O862 C851 1.272 . S
O863 Co834 2.113 . S
O863 C851 1.245 . S
Co864 H867 2.400 . S
Co864 O868 2.009 . S
Co864 O876 2.115 . S
Co864 O877 2.315 . S
Co864 O888 2.053 . S
Co864 O891 2.094 . S
Co864 O894 2.122 . S
Co865 O868 2.126 . S
Co865 H869 2.388 . S
Co865 O870 2.053 . S
Co865 O873 2.047 . S
Co865 O879 2.113 . S
Co865 O890 2.063 . S
Co866 H867 2.388 . S
Co866 O868 2.053 . S
Co866 O870 2.126 . S
Co866 O875 2.063 . S
Co866 O889 2.047 . S
Co866 O895 2.113 . S
H867 Co864 2.400 . S
H867 Co866 2.388 . S
H867 O868 0.760 . S
O868 Co864 2.009 . S
O868 Co865 2.126 . S
O868 Co866 2.053 . S
O868 H867 0.760 . S
H869 Co865 2.388 . S
H869 O870 0.760 . S
H869 Co871 2.400 . S
O870 Co865 2.053 . S
O870 Co866 2.126 . S
O870 H869 0.760 . S
O870 Co871 2.009 . S
Co871 H869 2.400 . S
Co871 O870 2.009 . S
Co871 O872 2.053 . S
Co871 O874 2.094 . S
Co871 O878 2.122 . S
Co871 O892 2.115 . S
Co871 O893 2.315 . S
O872 Co871 2.053 . S
O872 C884 1.259 . S
O873 Co865 2.047 . S
O873 C884 1.257 . S
O874 Co871 2.094 . S
O874 C885 1.253 . S
O875 Co866 2.063 . S
O875 C885 1.268 . S
O876 Co864 2.115 . S
O876 C886 1.281 . S
O877 Co864 2.315 . S
O877 C886 1.252 . S
O878 Co871 2.122 . S
O878 C887 1.272 . S
O879 Co865 2.113 . S
O879 C887 1.245 . S
C880 O888 1.259 . S
C880 O889 1.257 . S
C881 O890 1.268 . S
C881 O891 1.253 . S
C882 O892 1.281 . S
C882 O893 1.252 . S
C883 O894 1.272 . S
C883 O895 1.245 . S
C884 O872 1.259 . S
C884 O873 1.257 . S
C885 O874 1.253 . S
C885 O875 1.268 . S
C886 O876 1.281 . S
C886 O877 1.252 . S
C887 O878 1.272 . S
C887 O879 1.245 . S
O888 Co864 2.053 . S
O888 C880 1.259 . S
O889 Co866 2.047 . S
O889 C880 1.257 . S
O890 Co865 2.063 . S
O890 C881 1.268 . S
O891 Co864 2.094 . S
O891 C881 1.253 . S
O892 Co871 2.115 . S
O892 C882 1.281 . S
O893 Co871 2.315 . S
O893 C882 1.252 . S
O894 Co864 2.122 . S
O894 C883 1.272 . S
O895 Co866 2.113 . S
O895 C883 1.245 . S
Co896 H899 2.400 1_556 S
Co896 O900 2.009 . S
Co896 O908 2.115 . S
Co896 O909 2.315 1_556 S
Co896 O920 2.053 . S
Co896 O923 2.094 . S
Co896 O926 2.122 . S
Co897 O900 2.126 . S
Co897 H901 2.388 . S
Co897 O902 2.053 . S
Co897 O905 2.047 . S
Co897 O911 2.113 1_556 S
Co897 O922 2.063 . S
Co898 H899 2.388 1_556 S
Co898 O900 2.053 . S
Co898 O902 2.126 . S
Co898 O907 2.063 . S
Co898 O921 2.047 1_556 S
Co898 O927 2.113 . S
H899 Co896 2.400 1_554 S
H899 Co898 2.388 1_554 S
H899 O900 0.760 1_554 S
O900 Co896 2.009 . S
O900 Co897 2.126 . S
O900 Co898 2.053 . S
O900 H899 0.760 1_556 S
H901 Co897 2.388 . S
H901 O902 0.760 . S
H901 Co903 2.400 . S
O902 Co897 2.053 . S
O902 Co898 2.126 . S
O902 H901 0.760 . S
O902 Co903 2.009 . S
Co903 H901 2.400 . S
Co903 O902 2.009 . S
Co903 O904 2.053 . S
Co903 O906 2.094 1_556 S
Co903 O910 2.122 1_556 S
Co903 O924 2.115 . S
Co903 O925 2.315 . S
O904 Co903 2.053 . S
O904 C916 1.259 . S
O905 Co897 2.047 . S
O905 C916 1.257 . S
O906 Co903 2.094 1_554 S
O906 C917 1.253 . S
O907 Co898 2.063 . S
O907 C917 1.268 1_556 S
O908 Co896 2.115 . S
O908 C918 1.281 . S
O909 Co896 2.315 1_554 S
O909 C918 1.252 1_554 S
O910 Co903 2.122 1_554 S
O910 C919 1.272 . S
O911 Co897 2.113 1_554 S
O911 C919 1.245 . S
C912 O920 1.259 1_554 S
C912 O921 1.257 . S
C913 O922 1.268 . S
C913 O923 1.253 . S
C914 O924 1.281 . S
C914 O925 1.252 . S
C915 O926 1.272 . S
C915 O927 1.245 . S
C916 O904 1.259 . S
C916 O905 1.257 . S
C917 O906 1.253 . S
C917 O907 1.268 1_554 S
C918 O908 1.281 . S
C918 O909 1.252 1_556 S
C919 O910 1.272 . S
C919 O911 1.245 . S
O920 Co896 2.053 . S
O920 C912 1.259 1_556 S
O921 Co898 2.047 1_554 S
O921 C912 1.257 . S
O922 Co897 2.063 . S
O922 C913 1.268 . S
O923 Co896 2.094 . S
O923 C913 1.253 . S
O924 Co903 2.115 . S
O924 C914 1.281 . S
O925 Co903 2.315 . S
O925 C914 1.252 . S
O926 Co896 2.122 . S
O926 C915 1.272 . S
O927 Co898 2.113 . S
O927 C915 1.245 . S
Co928 H931 2.400 . S
Co928 O932 2.009 . S
Co928 O940 2.115 . S
Co928 O941 2.315 . S
Co928 O952 2.053 . S
Co928 O955 2.094 . S
Co928 O958 2.122 . S
Co929 O932 2.126 . S
Co929 H933 2.388 . S
Co929 O934 2.053 . S
Co929 O937 2.047 . S
Co929 O943 2.113 . S
Co929 O954 2.063 . S
Co930 H931 2.388 . S
Co930 O932 2.053 . S
Co930 O934 2.126 . S
Co930 O939 2.063 . S
Co930 O953 2.047 . S
Co930 O959 2.113 . S
H931 Co928 2.400 . S
H931 Co930 2.388 . S
H931 O932 0.760 . S
O932 Co928 2.009 . S
O932 Co929 2.126 . S
O932 Co930 2.053 . S
O932 H931 0.760 . S
H933 Co929 2.388 . S
H933 O934 0.760 . S
H933 Co935 2.400 . S
O934 Co929 2.053 . S
O934 Co930 2.126 . S
O934 H933 0.760 . S
O934 Co935 2.009 . S
Co935 H933 2.400 . S
Co935 O934 2.009 . S
Co935 O936 2.053 . S
Co935 O938 2.094 1_556 S
Co935 O942 2.122 1_556 S
Co935 O956 2.115 1_556 S
Co935 O957 2.315 . S
O936 Co935 2.053 . S
O936 C948 1.259 . S
O937 Co929 2.047 . S
O937 C948 1.257 . S
O938 Co935 2.094 1_554 S
O938 C949 1.253 . S
O939 Co930 2.063 . S
O939 C949 1.268 1_556 S
O940 Co928 2.115 . S
O940 C950 1.281 . S
O941 Co928 2.315 . S
O941 C950 1.252 . S
O942 Co935 2.122 1_554 S
O942 C951 1.272 . S
O943 Co929 2.113 . S
O943 C951 1.245 1_556 S
C944 O952 1.259 . S
C944 O953 1.257 . S
C945 O954 1.268 . S
C945 O955 1.253 . S
C946 O956 1.281 . S
C946 O957 1.252 1_554 S
C947 O958 1.272 . S
C947 O959 1.245 . S
C948 O936 1.259 . S
C948 O937 1.257 . S
C949 O938 1.253 . S
C949 O939 1.268 1_554 S
C950 O940 1.281 . S
C950 O941 1.252 . S
C951 O942 1.272 . S
C951 O943 1.245 1_554 S
O952 Co928 2.053 . S
O952 C944 1.259 . S
O953 Co930 2.047 . S
O953 C944 1.257 . S
O954 Co929 2.063 . S
O954 C945 1.268 . S
O955 Co928 2.094 . S
O955 C945 1.253 . S
O956 Co935 2.115 1_554 S
O956 C946 1.281 . S
O957 Co935 2.315 . S
O957 C946 1.252 1_556 S
O958 Co928 2.122 . S
O958 C947 1.272 . S
O959 Co930 2.113 . S
O959 C947 1.245 . S
Co960 H963 2.400 . S
Co960 O964 2.009 . S
Co960 O972 2.115 . S
Co960 O973 2.315 . S
Co960 O984 2.053 . S
Co960 O987 2.094 . S
Co960 O990 2.122 . S
Co961 O964 2.126 . S
Co961 H965 2.388 . S
Co961 O966 2.053 . S
Co961 O969 2.047 . S
Co961 O975 2.113 . S
Co961 O986 2.063 . S
Co962 H963 2.388 . S
Co962 O964 2.053 . S
Co962 O966 2.126 . S
Co962 O971 2.063 . S
Co962 O985 2.047 . S
Co962 O991 2.113 . S
H963 Co960 2.400 . S
H963 Co962 2.388 . S
H963 O964 0.760 . S
O964 Co960 2.009 . S
O964 Co961 2.126 . S
O964 Co962 2.053 . S
O964 H963 0.760 . S
H965 Co961 2.388 . S
H965 O966 0.760 . S
H965 Co967 2.400 . S
O966 Co961 2.053 . S
O966 Co962 2.126 . S
O966 H965 0.760 . S
O966 Co967 2.009 . S
Co967 H965 2.400 . S
Co967 O966 2.009 . S
Co967 O968 2.053 . S
Co967 O970 2.094 . S
Co967 O974 2.122 . S
Co967 O988 2.115 . S
Co967 O989 2.315 . S
O968 Co967 2.053 . S
O968 C980 1.259 . S
O969 Co961 2.047 . S
O969 C980 1.257 . S
O970 Co967 2.094 . S
O970 C981 1.253 . S
O971 Co962 2.063 . S
O971 C981 1.268 . S
O972 Co960 2.115 . S
O972 C982 1.281 . S
O973 Co960 2.315 . S
O973 C982 1.252 . S
O974 Co967 2.122 . S
O974 C983 1.272 . S
O975 Co961 2.113 . S
O975 C983 1.245 . S
C976 O984 1.259 . S
C976 O985 1.257 . S
C977 O986 1.268 . S
C977 O987 1.253 . S
C978 O988 1.281 . S
C978 O989 1.252 . S
C979 O990 1.272 . S
C979 O991 1.245 . S
C980 O968 1.259 . S
C980 O969 1.257 . S
C981 O970 1.253 . S
C981 O971 1.268 . S
C982 O972 1.281 . S
C982 O973 1.252 . S
C983 O974 1.272 . S
C983 O975 1.245 . S
O984 Co960 2.053 . S
O984 C976 1.259 . S
O985 Co962 2.047 . S
O985 C976 1.257 . S
O986 Co961 2.063 . S
O986 C977 1.268 . S
O987 Co960 2.094 . S
O987 C977 1.253 . S
O988 Co967 2.115 . S
O988 C978 1.281 . S
O989 Co967 2.315 . S
O989 C978 1.252 . S
O990 Co960 2.122 . S
O990 C979 1.272 . S
O991 Co962 2.113 . S
O991 C979 1.245 . S
Co992 H995 2.400 . S
Co992 O996 2.009 . S
Co992 O1004 2.115 . S
Co992 O1005 2.315 . S
Co992 O1016 2.053 . S
Co992 O1019 2.094 . S
Co992 O1022 2.122 . S
Co993 O996 2.126 . S
Co993 H997 2.388 . S
Co993 O998 2.053 . S
Co993 O1001 2.047 . S
Co993 O1007 2.113 . S
Co993 O1018 2.063 . S
Co994 H995 2.388 . S
Co994 O996 2.053 . S
Co994 O998 2.126 . S
Co994 O1003 2.063 . S
Co994 O1017 2.047 . S
Co994 O1023 2.113 . S
H995 Co992 2.400 . S
H995 Co994 2.388 . S
H995 O996 0.760 . S
O996 Co992 2.009 . S
O996 Co993 2.126 . S
O996 Co994 2.053 . S
O996 H995 0.760 . S
H997 Co993 2.388 . S
H997 O998 0.760 . S
H997 Co999 2.400 . S
O998 Co993 2.053 . S
O998 Co994 2.126 . S
O998 H997 0.760 . S
O998 Co999 2.009 . S
Co999 H997 2.400 . S
Co999 O998 2.009 . S
Co999 O1000 2.053 . S
Co999 O1002 2.094 . S
Co999 O1006 2.122 . S
Co999 O1020 2.115 . S
Co999 O1021 2.315 . S
O1000 Co999 2.053 . S
O1000 C1012 1.259 . S
O1001 Co993 2.047 . S
O1001 C1012 1.257 . S
O1002 Co999 2.094 . S
O1002 C1013 1.253 . S
O1003 Co994 2.063 . S
O1003 C1013 1.268 . S
O1004 Co992 2.115 . S
O1004 C1014 1.281 . S
O1005 Co992 2.315 . S
O1005 C1014 1.252 . S
O1006 Co999 2.122 . S
O1006 C1015 1.272 . S
O1007 Co993 2.113 . S
O1007 C1015 1.245 . S
C1008 O1016 1.259 . S
C1008 O1017 1.257 . S
C1009 O1018 1.268 . S
C1009 O1019 1.253 . S
C1010 O1020 1.281 . S
C1010 O1021 1.252 . S
C1011 O1022 1.272 . S
C1011 O1023 1.245 . S
C1012 O1000 1.259 . S
C1012 O1001 1.257 . S
C1013 O1002 1.253 . S
C1013 O1003 1.268 . S
C1014 O1004 1.281 . S
C1014 O1005 1.252 . S
C1015 O1006 1.272 . S
C1015 O1007 1.245 . S
O1016 Co992 2.053 . S
O1016 C1008 1.259 . S
O1017 Co994 2.047 . S
O1017 C1008 1.257 . S
O1018 Co993 2.063 . S
O1018 C1009 1.268 . S
O1019 Co992 2.094 . S
O1019 C1009 1.253 . S
O1020 Co999 2.115 . S
O1020 C1010 1.281 . S
O1021 Co999 2.315 . S
O1021 C1010 1.252 . S
O1022 Co992 2.122 . S
O1022 C1011 1.272 . S
O1023 Co994 2.113 . S
O1023 C1011 1.245 . S
C1024 C1025 1.369 1_554 S
C1024 C1026 1.419 . S
C1024 H1028 0.930 . S
C1025 C1024 1.369 1_556 S
C1025 C1034 1.429 . S
C1026 C1024 1.419 . S
C1026 C1027 1.363 1_554 S
C1026 H1029 0.929 . S
C1027 C1026 1.363 1_556 S
C1027 C1033 1.428 . S
H1028 C1024 0.930 . S
H1029 C1026 0.929 . S
S1030 N1031 1.613 . S
S1030 N1032 1.610 . S
N1031 S1030 1.613 . S
N1031 C1034 1.350 . S
N1032 S1030 1.610 . S
N1032 C1033 1.351 . S
C1033 C1027 1.428 . S
C1033 N1032 1.351 . S
C1033 C1034 1.434 . S
C1034 C1025 1.429 . S
C1034 N1031 1.350 . S
C1034 C1033 1.434 . S
C1035 C1036 1.369 1_554 S
C1035 C1037 1.419 . S
C1035 H1039 0.930 . S
C1036 C1035 1.369 1_556 S
C1036 C1045 1.429 . S
C1037 C1035 1.419 . S
C1037 C1038 1.363 1_554 S
C1037 H1040 0.929 . S
C1038 C1037 1.363 1_556 S
C1038 C1044 1.428 . S
H1039 C1035 0.930 . S
H1040 C1037 0.929 . S
S1041 N1042 1.613 . S
S1041 N1043 1.610 . S
N1042 S1041 1.613 . S
N1042 C1045 1.350 . S
N1043 S1041 1.610 . S
N1043 C1044 1.351 . S
C1044 C1038 1.428 . S
C1044 N1043 1.351 . S
C1044 C1045 1.434 . S
C1045 C1036 1.429 . S
C1045 N1042 1.350 . S
C1045 C1044 1.434 . S
C1046 C1047 1.369 . S
C1046 C1048 1.419 . S
C1046 H1050 0.930 . S
C1047 C1046 1.369 . S
C1047 C1056 1.429 . S
C1048 C1046 1.419 . S
C1048 C1049 1.363 . S
C1048 H1051 0.929 . S
C1049 C1048 1.363 . S
C1049 C1055 1.428 . S
H1050 C1046 0.930 . S
H1051 C1048 0.929 . S
S1052 N1053 1.613 . S
S1052 N1054 1.610 . S
N1053 S1052 1.613 . S
N1053 C1056 1.350 . S
N1054 S1052 1.610 . S
N1054 C1055 1.351 . S
C1055 C1049 1.428 . S
C1055 N1054 1.351 . S
C1055 C1056 1.434 . S
C1056 C1047 1.429 . S
C1056 N1053 1.350 . S
C1056 C1055 1.434 . S
C1057 C1058 1.369 . S
C1057 C1059 1.419 . S
C1057 H1061 0.930 . S
C1058 C1057 1.369 . S
C1058 C1067 1.429 . S
C1059 C1057 1.419 . S
C1059 C1060 1.363 . S
C1059 H1062 0.929 . S
C1060 C1059 1.363 . S
C1060 C1066 1.428 . S
H1061 C1057 0.930 . S
H1062 C1059 0.929 . S
S1063 N1064 1.613 . S
S1063 N1065 1.610 . S
N1064 S1063 1.613 . S
N1064 C1067 1.350 . S
N1065 S1063 1.610 . S
N1065 C1066 1.351 . S
C1066 C1060 1.428 . S
C1066 N1065 1.351 . S
C1066 C1067 1.434 . S
C1067 C1058 1.429 . S
C1067 N1064 1.350 . S
C1067 C1066 1.434 . S
C1068 C1069 1.369 . S
C1068 C1070 1.419 . S
C1068 H1072 0.930 . S
C1069 C1068 1.369 . S
C1069 C1078 1.429 1_554 S
C1070 C1068 1.419 . S
C1070 C1071 1.363 . S
C1070 H1073 0.929 . S
C1071 C1070 1.363 . S
C1071 C1077 1.428 1_554 S
H1072 C1068 0.930 . S
H1073 C1070 0.929 . S
S1074 N1075 1.613 . S
S1074 N1076 1.610 . S
N1075 S1074 1.613 . S
N1075 C1078 1.350 . S
N1076 S1074 1.610 . S
N1076 C1077 1.351 . S
C1077 C1071 1.428 1_556 S
C1077 N1076 1.351 . S
C1077 C1078 1.434 . S
C1078 C1069 1.429 1_556 S
C1078 N1075 1.350 . S
C1078 C1077 1.434 . S
C1079 C1080 1.369 . S
C1079 C1081 1.419 . S
C1079 H1083 0.930 . S
C1080 C1079 1.369 . S
C1080 C1089 1.429 1_554 S
C1081 C1079 1.419 . S
C1081 C1082 1.363 . S
C1081 H1084 0.929 . S
C1082 C1081 1.363 . S
C1082 C1088 1.428 1_554 S
H1083 C1079 0.930 . S
H1084 C1081 0.929 . S
S1085 N1086 1.613 . S
S1085 N1087 1.610 . S
N1086 S1085 1.613 . S
N1086 C1089 1.350 . S
N1087 S1085 1.610 . S
N1087 C1088 1.351 . S
C1088 C1082 1.428 1_556 S
C1088 N1087 1.351 . S
C1088 C1089 1.434 . S
C1089 C1080 1.429 1_556 S
C1089 N1086 1.350 . S
C1089 C1088 1.434 . S
C1090 C1091 1.369 . S
C1090 C1092 1.419 . S
C1090 H1094 0.930 . S
C1091 C1090 1.369 . S
C1091 C1100 1.429 . S
C1092 C1090 1.419 . S
C1092 C1093 1.363 . S
C1092 H1095 0.929 . S
C1093 C1092 1.363 . S
C1093 C1099 1.428 . S
H1094 C1090 0.930 . S
H1095 C1092 0.929 . S
S1096 N1097 1.613 . S
S1096 N1098 1.610 . S
N1097 S1096 1.613 . S
N1097 C1100 1.350 . S
N1098 S1096 1.610 . S
N1098 C1099 1.351 . S
C1099 C1093 1.428 . S
C1099 N1098 1.351 . S
C1099 C1100 1.434 . S
C1100 C1091 1.429 . S
C1100 N1097 1.350 . S
C1100 C1099 1.434 . S
C1101 C1102 1.369 . S
C1101 C1103 1.419 . S
C1101 H1105 0.930 . S
C1102 C1101 1.369 . S
C1102 C1111 1.429 . S
C1103 C1101 1.419 . S
C1103 C1104 1.363 . S
C1103 H1106 0.929 . S
C1104 C1103 1.363 . S
C1104 C1110 1.428 . S
H1105 C1101 0.930 . S
H1106 C1103 0.929 . S
S1107 N1108 1.613 . S
S1107 N1109 1.610 . S
N1108 S1107 1.613 . S
N1108 C1111 1.350 . S
N1109 S1107 1.610 . S
N1109 C1110 1.351 . S
C1110 C1104 1.428 . S
C1110 N1109 1.351 . S
C1110 C1111 1.434 . S
C1111 C1102 1.429 . S
C1111 N1108 1.350 . S
C1111 C1110 1.434 . S
C1112 C1113 1.369 . S
C1112 C1114 1.419 . S
C1112 H1116 0.930 . S
C1113 C1112 1.369 . S
C1113 C1122 1.429 . S
C1114 C1112 1.419 . S
C1114 C1115 1.363 . S
C1114 H1117 0.929 . S
C1115 C1114 1.363 . S
C1115 C1121 1.428 . S
H1116 C1112 0.930 . S
H1117 C1114 0.929 . S
S1118 N1119 1.613 . S
S1118 N1120 1.610 . S
N1119 S1118 1.613 . S
N1119 C1122 1.350 . S
N1120 S1118 1.610 . S
N1120 C1121 1.351 . S
C1121 C1115 1.428 . S
C1121 N1120 1.351 . S
C1121 C1122 1.434 . S
C1122 C1113 1.429 . S
C1122 N1119 1.350 . S
C1122 C1121 1.434 . S
C1123 C1124 1.369 . S
C1123 C1125 1.419 . S
C1123 H1127 0.930 . S
C1124 C1123 1.369 . S
C1124 C1133 1.429 . S
C1125 C1123 1.419 . S
C1125 C1126 1.363 . S
C1125 H1128 0.929 . S
C1126 C1125 1.363 . S
C1126 C1132 1.428 . S
H1127 C1123 0.930 . S
H1128 C1125 0.929 . S
S1129 N1130 1.613 . S
S1129 N1131 1.610 . S
N1130 S1129 1.613 . S
N1130 C1133 1.350 . S
N1131 S1129 1.610 . S
N1131 C1132 1.351 . S
C1132 C1126 1.428 . S
C1132 N1131 1.351 . S
C1132 C1133 1.434 . S
C1133 C1124 1.429 . S
C1133 N1130 1.350 . S
C1133 C1132 1.434 . S
C1134 C1135 1.369 . S
C1134 C1136 1.419 . S
C1134 H1138 0.930 . S
C1135 C1134 1.369 . S
C1135 C1144 1.429 . S
C1136 C1134 1.419 . S
C1136 C1137 1.363 . S
C1136 H1139 0.929 . S
C1137 C1136 1.363 . S
C1137 C1143 1.428 . S
H1138 C1134 0.930 . S
H1139 C1136 0.929 . S
S1140 N1141 1.613 . S
S1140 N1142 1.610 . S
N1141 S1140 1.613 . S
N1141 C1144 1.350 . S
N1142 S1140 1.610 . S
N1142 C1143 1.351 . S
C1143 C1137 1.428 . S
C1143 N1142 1.351 . S
C1143 C1144 1.434 . S
C1144 C1135 1.429 . S
C1144 N1141 1.350 . S
C1144 C1143 1.434 . S
C1145 C1146 1.369 . S
C1145 C1147 1.419 . S
C1145 H1149 0.930 . S
C1146 C1145 1.369 . S
C1146 C1155 1.429 . S
C1147 C1145 1.419 . S
C1147 C1148 1.363 . S
C1147 H1150 0.929 . S
C1148 C1147 1.363 . S
C1148 C1154 1.428 . S
H1149 C1145 0.930 . S
H1150 C1147 0.929 . S
S1151 N1152 1.613 . S
S1151 N1153 1.610 . S
N1152 S1151 1.613 . S
N1152 C1155 1.350 . S
N1153 S1151 1.610 . S
N1153 C1154 1.351 . S
C1154 C1148 1.428 . S
C1154 N1153 1.351 . S
C1154 C1155 1.434 . S
C1155 C1146 1.429 . S
C1155 N1152 1.350 . S
C1155 C1154 1.434 . S
C1156 C1157 1.369 . S
C1156 C1158 1.419 . S
C1156 H1160 0.930 . S
C1157 C1156 1.369 . S
C1157 C1166 1.429 . S
C1158 C1156 1.419 . S
C1158 C1159 1.363 . S
C1158 H1161 0.929 . S
C1159 C1158 1.363 . S
C1159 C1165 1.428 . S
H1160 C1156 0.930 . S
H1161 C1158 0.929 . S
S1162 N1163 1.613 . S
S1162 N1164 1.610 . S
N1163 S1162 1.613 . S
N1163 C1166 1.350 . S
N1164 S1162 1.610 . S
N1164 C1165 1.351 . S
C1165 C1159 1.428 . S
C1165 N1164 1.351 . S
C1165 C1166 1.434 . S
C1166 C1157 1.429 . S
C1166 N1163 1.350 . S
C1166 C1165 1.434 . S
C1167 C1168 1.369 . S
C1167 C1169 1.419 . S
C1167 H1171 0.930 . S
C1168 C1167 1.369 . S
C1168 C1177 1.429 . S
C1169 C1167 1.419 . S
C1169 C1170 1.363 . S
C1169 H1172 0.929 . S
C1170 C1169 1.363 . S
C1170 C1176 1.428 . S
H1171 C1167 0.930 . S
H1172 C1169 0.929 . S
S1173 N1174 1.613 . S
S1173 N1175 1.610 . S
N1174 S1173 1.613 . S
N1174 C1177 1.350 . S
N1175 S1173 1.610 . S
N1175 C1176 1.351 . S
C1176 C1170 1.428 . S
C1176 N1175 1.351 . S
C1176 C1177 1.434 . S
C1177 C1168 1.429 . S
C1177 N1174 1.350 . S
C1177 C1176 1.434 . S
C1178 C1179 1.369 . S
C1178 C1180 1.419 . S
C1178 H1182 0.930 . S
C1179 C1178 1.369 . S
C1179 C1188 1.429 . S
C1180 C1178 1.419 . S
C1180 C1181 1.363 . S
C1180 H1183 0.929 . S
C1181 C1180 1.363 . S
C1181 C1187 1.428 . S
H1182 C1178 0.930 . S
H1183 C1180 0.929 . S
S1184 N1185 1.613 . S
S1184 N1186 1.610 . S
N1185 S1184 1.613 . S
N1185 C1188 1.350 . S
N1186 S1184 1.610 . S
N1186 C1187 1.351 . S
C1187 C1181 1.428 . S
C1187 N1186 1.351 . S
C1187 C1188 1.434 . S
C1188 C1179 1.429 . S
C1188 N1185 1.350 . S
C1188 C1187 1.434 . S
C1189 C1190 1.369 . S
C1189 C1191 1.419 . S
C1189 H1193 0.930 . S
C1190 C1189 1.369 . S
C1190 C1199 1.429 . S
C1191 C1189 1.419 . S
C1191 C1192 1.363 . S
C1191 H1194 0.929 . S
C1192 C1191 1.363 . S
C1192 C1198 1.428 . S
H1193 C1189 0.930 . S
H1194 C1191 0.929 . S
S1195 N1196 1.613 . S
S1195 N1197 1.610 . S
N1196 S1195 1.613 . S
N1196 C1199 1.350 . S
N1197 S1195 1.610 . S
N1197 C1198 1.351 . S
C1198 C1192 1.428 . S
C1198 N1197 1.351 . S
C1198 C1199 1.434 . S
C1199 C1190 1.429 . S
C1199 N1196 1.350 . S
C1199 C1198 1.434 . S
C1200 C1201 1.369 . S
C1200 C1202 1.419 . S
C1200 H1204 0.930 . S
C1201 C1200 1.369 . S
C1201 C1210 1.450 . S
C1202 C1200 1.419 . S
C1202 C1203 1.363 1_556 S
C1202 H1205 0.929 . S
C1203 C1202 1.363 1_554 S
C1203 C1209 1.428 . S
H1204 C1200 0.930 . S
H1205 C1202 0.929 . S
S1206 N1207 1.613 . S
S1206 N1208 1.610 . S
N1207 S1206 1.613 . S
N1207 C1210 1.342 1_554 S
N1208 S1206 1.610 . S
N1208 C1209 1.351 . S
C1209 C1203 1.428 . S
C1209 N1208 1.351 . S
C1209 C1210 1.420 1_554 S
C1210 C1201 1.450 . S
C1210 N1207 1.342 1_556 S
C1210 C1209 1.420 1_556 S
C1211 C1212 1.369 . S
C1211 C1213 1.419 1_554 S
C1211 H1215 0.930 . S
C1212 C1211 1.369 . S
C1212 C1221 1.429 . S
C1213 C1211 1.419 1_556 S
C1213 C1214 1.363 . S
C1213 H1216 0.929 . S
C1214 C1213 1.363 . S
C1214 C1220 1.428 1_556 S
H1215 C1211 0.930 . S
H1216 C1213 0.929 . S
S1217 N1218 1.613 . S
S1217 N1219 1.610 . S
N1218 S1217 1.613 . S
N1218 C1221 1.350 . S
N1219 S1217 1.610 . S
N1219 C1220 1.351 . S
C1220 C1214 1.428 1_554 S
C1220 N1219 1.351 . S
C1220 C1221 1.434 . S
C1221 C1212 1.429 . S
C1221 N1218 1.350 . S
C1221 C1220 1.434 . S
C1222 C1223 1.369 . S
C1222 C1224 1.419 . S
C1222 H1226 0.930 . S
C1223 C1222 1.369 . S
C1223 C1232 1.429 . S
C1224 C1222 1.419 . S
C1224 C1225 1.363 . S
C1224 H1227 0.929 . S
C1225 C1224 1.363 . S
C1225 C1231 1.428 . S
H1226 C1222 0.930 . S
H1227 C1224 0.929 . S
S1228 N1229 1.613 . S
S1228 N1230 1.610 . S
N1229 S1228 1.613 . S
N1229 C1232 1.350 . S
N1230 S1228 1.610 . S
N1230 C1231 1.351 . S
C1231 C1225 1.428 . S
C1231 N1230 1.351 . S
C1231 C1232 1.434 . S
C1232 C1223 1.429 . S
C1232 N1229 1.350 . S
C1232 C1231 1.434 . S
C1233 C1234 1.369 . S
C1233 C1235 1.419 . S
C1233 H1237 0.930 . S
C1234 C1233 1.369 . S
C1234 C1243 1.429 . S
C1235 C1233 1.419 . S
C1235 C1236 1.363 . S
C1235 H1238 0.929 . S
C1236 C1235 1.363 . S
C1236 C1242 1.428 . S
H1237 C1233 0.930 . S
H1238 C1235 0.929 . S
S1239 N1240 1.613 . S
S1239 N1241 1.610 . S
N1240 S1239 1.613 . S
N1240 C1243 1.350 . S
N1241 S1239 1.610 . S
N1241 C1242 1.351 . S
C1242 C1236 1.428 . S
C1242 N1241 1.351 . S
C1242 C1243 1.434 . S
C1243 C1234 1.429 . S
C1243 N1240 1.350 . S
C1243 C1242 1.434 . S
C1244 C1245 1.369 . S
C1244 C1246 1.419 . S
C1244 H1248 0.930 . S
C1245 C1244 1.369 . S
C1245 C1254 1.429 1_554 S
C1246 C1244 1.419 . S
C1246 C1247 1.363 1_554 S
C1246 H1249 0.929 . S
C1247 C1246 1.363 1_556 S
C1247 C1253 1.428 . S
H1248 C1244 0.930 . S
H1249 C1246 0.929 . S
S1250 N1251 1.613 . S
S1250 N1252 1.610 . S
N1251 S1250 1.613 . S
N1251 C1254 1.350 . S
N1252 S1250 1.610 . S
N1252 C1253 1.351 . S
C1253 C1247 1.428 . S
C1253 N1252 1.351 . S
C1253 C1254 1.434 . S
C1254 C1245 1.429 1_556 S
C1254 N1251 1.350 . S
C1254 C1253 1.434 . S
C1255 C1256 1.369 1_556 S
C1255 C1257 1.419 . S
C1255 H1259 0.930 . S
C1256 C1255 1.369 1_554 S
C1256 C1265 1.429 . S
C1257 C1255 1.419 . S
C1257 C1258 1.363 . S
C1257 H1260 0.929 . S
C1258 C1257 1.363 . S
C1258 C1264 1.428 1_556 S
H1259 C1255 0.930 . S
H1260 C1257 0.929 . S
S1261 N1262 1.613 . S
S1261 N1263 1.610 . S
N1262 S1261 1.613 . S
N1262 C1265 1.350 . S
N1263 S1261 1.610 . S
N1263 C1264 1.351 . S
C1264 C1258 1.428 1_554 S
C1264 N1263 1.351 . S
C1264 C1265 1.434 . S
C1265 C1256 1.429 . S
C1265 N1262 1.350 . S
C1265 C1264 1.434 . S
C1266 C1267 1.369 . S
C1266 C1268 1.419 . S
C1266 H1270 0.930 . S
C1267 C1266 1.369 . S
C1267 C1276 1.429 . S
C1268 C1266 1.419 . S
C1268 C1269 1.363 . S
C1268 H1271 0.929 . S
C1269 C1268 1.363 . S
C1269 C1275 1.428 . S
H1270 C1266 0.930 . S
H1271 C1268 0.929 . S
S1272 N1273 1.613 . S
S1272 N1274 1.610 . S
N1273 S1272 1.613 . S
N1273 C1276 1.350 . S
N1274 S1272 1.610 . S
N1274 C1275 1.351 . S
C1275 C1269 1.428 . S
C1275 N1274 1.351 . S
C1275 C1276 1.434 . S
C1276 C1267 1.429 . S
C1276 N1273 1.350 . S
C1276 C1275 1.434 . S
C1277 C1278 1.369 . S
C1277 C1279 1.419 . S
C1277 H1281 0.930 . S
C1278 C1277 1.369 . S
C1278 C1287 1.429 . S
C1279 C1277 1.419 . S
C1279 C1280 1.363 . S
C1279 H1282 0.929 . S
C1280 C1279 1.363 . S
C1280 C1286 1.428 . S
H1281 C1277 0.930 . S
H1282 C1279 0.929 . S
S1283 N1284 1.613 . S
S1283 N1285 1.610 . S
N1284 S1283 1.613 . S
N1284 C1287 1.350 . S
N1285 S1283 1.610 . S
N1285 C1286 1.351 . S
C1286 C1280 1.428 . S
C1286 N1285 1.351 . S
C1286 C1287 1.434 . S
C1287 C1278 1.429 . S
C1287 N1284 1.350 . S
C1287 C1286 1.434 . S
C1288 C1289 1.369 . S
C1288 C1290 1.419 . S
C1288 H1292 0.930 1_565 S
C1289 C1288 1.369 . S
C1289 C1298 1.429 . S
C1290 C1288 1.419 . S
C1290 C1291 1.363 . S
C1290 H1293 0.929 . S
C1291 C1290 1.363 . S
C1291 C1297 1.428 . S
H1292 C1288 0.930 1_545 S
H1293 C1290 0.929 . S
S1294 N1295 1.613 . S
S1294 N1296 1.610 . S
N1295 S1294 1.613 . S
N1295 C1298 1.350 . S
N1296 S1294 1.610 . S
N1296 C1297 1.351 . S
C1297 C1291 1.428 . S
C1297 N1296 1.351 . S
C1297 C1298 1.434 . S
C1298 C1289 1.429 . S
C1298 N1295 1.350 . S
C1298 C1297 1.434 . S
C1299 C1300 1.369 . S
C1299 C1301 1.419 . S
C1299 H1303 0.930 . S
C1300 C1299 1.369 . S
C1300 C1309 1.429 . S
C1301 C1299 1.419 . S
C1301 C1302 1.363 . S
C1301 H1304 0.929 . S
C1302 C1301 1.363 . S
C1302 C1308 1.428 . S
H1303 C1299 0.930 . S
H1304 C1301 0.929 . S
S1305 N1306 1.613 . S
S1305 N1307 1.610 . S
N1306 S1305 1.613 . S
N1306 C1309 1.350 . S
N1307 S1305 1.610 . S
N1307 C1308 1.351 . S
C1308 C1302 1.428 . S
C1308 N1307 1.351 . S
C1308 C1309 1.434 . S
C1309 C1300 1.429 . S
C1309 N1306 1.350 . S
C1309 C1308 1.434 . S
C1310 C1311 1.369 . S
C1310 C1312 1.419 . S
C1310 H1314 0.930 . S
C1311 C1310 1.369 . S
C1311 C1320 1.429 . S
C1312 C1310 1.419 . S
C1312 C1313 1.363 . S
C1312 H1315 0.929 . S
C1313 C1312 1.363 . S
C1313 C1319 1.428 . S
H1314 C1310 0.930 . S
H1315 C1312 0.929 . S
S1316 N1317 1.613 . S
S1316 N1318 1.610 . S
N1317 S1316 1.613 . S
N1317 C1320 1.350 . S
N1318 S1316 1.610 . S
N1318 C1319 1.351 . S
C1319 C1313 1.428 . S
C1319 N1318 1.351 . S
C1319 C1320 1.434 . S
C1320 C1311 1.429 . S
C1320 N1317 1.350 . S
C1320 C1319 1.434 . S
C1321 C1322 1.369 . S
C1321 C1323 1.419 . S
C1321 H1325 0.930 . S
C1322 C1321 1.369 . S
C1322 C1331 1.429 . S
C1323 C1321 1.419 . S
C1323 C1324 1.363 . S
C1323 H1326 0.929 . S
C1324 C1323 1.363 . S
C1324 C1330 1.428 . S
H1325 C1321 0.930 . S
H1326 C1323 0.929 . S
S1327 N1328 1.613 . S
S1327 N1329 1.610 . S
N1328 S1327 1.613 . S
N1328 C1331 1.350 . S
N1329 S1327 1.610 . S
N1329 C1330 1.351 . S
C1330 C1324 1.428 . S
C1330 N1329 1.351 . S
C1330 C1331 1.434 . S
C1331 C1322 1.429 . S
C1331 N1328 1.350 . S
C1331 C1330 1.434 . S
C1332 C1333 1.369 . S
C1332 C1334 1.419 . S
C1332 H1336 0.930 . S
C1333 C1332 1.369 . S
C1333 C1342 1.429 . S
C1334 C1332 1.419 . S
C1334 C1335 1.363 . S
C1334 H1337 0.929 . S
C1335 C1334 1.363 . S
C1335 C1341 1.428 . S
H1336 C1332 0.930 . S
H1337 C1334 0.929 . S
S1338 N1339 1.613 . S
S1338 N1340 1.610 . S
N1339 S1338 1.613 . S
N1339 C1342 1.350 . S
N1340 S1338 1.610 . S
N1340 C1341 1.351 . S
C1341 C1335 1.428 . S
C1341 N1340 1.351 . S
C1341 C1342 1.434 . S
C1342 C1333 1.429 . S
C1342 N1339 1.350 . S
C1342 C1341 1.434 . S
C1343 C1344 1.369 . S
C1343 C1345 1.419 . S
C1343 H1347 0.930 . S
C1344 C1343 1.369 . S
C1344 C1353 1.429 . S
C1345 C1343 1.419 . S
C1345 C1346 1.363 . S
C1345 H1348 0.929 . S
C1346 C1345 1.363 . S
C1346 C1352 1.428 . S
H1347 C1343 0.930 . S
H1348 C1345 0.929 . S
S1349 N1350 1.613 . S
S1349 N1351 1.610 . S
N1350 S1349 1.613 . S
N1350 C1353 1.350 . S
N1351 S1349 1.610 . S
N1351 C1352 1.351 . S
C1352 C1346 1.428 . S
C1352 N1351 1.351 . S
C1352 C1353 1.434 . S
C1353 C1344 1.429 . S
C1353 N1350 1.350 . S
C1353 C1352 1.434 . S
C1354 C1355 1.369 . S
C1354 C1356 1.419 . S
C1354 H1358 0.930 . S
C1355 C1354 1.369 . S
C1355 C1364 1.429 . S
C1356 C1354 1.419 . S
C1356 C1357 1.363 . S
C1356 H1359 0.929 . S
C1357 C1356 1.363 . S
C1357 C1363 1.428 . S
H1358 C1354 0.930 . S
H1359 C1356 0.929 . S
S1360 N1361 1.613 . S
S1360 N1362 1.610 . S
N1361 S1360 1.613 . S
N1361 C1364 1.350 . S
N1362 S1360 1.610 . S
N1362 C1363 1.351 . S
C1363 C1357 1.428 . S
C1363 N1362 1.351 . S
C1363 C1364 1.434 . S
C1364 C1355 1.429 . S
C1364 N1361 1.350 . S
C1364 C1363 1.434 . S
C1365 C1366 1.369 . S
C1365 C1367 1.419 . S
C1365 H1369 0.930 . S
C1366 C1365 1.369 . S
C1366 C1375 1.429 . S
C1367 C1365 1.419 . S
C1367 C1368 1.363 . S
C1367 H1370 0.929 . S
C1368 C1367 1.363 . S
C1368 C1374 1.428 . S
H1369 C1365 0.930 . S
H1370 C1367 0.929 . S
S1371 N1372 1.613 1_565 S
S1371 N1373 1.610 . S
N1372 S1371 1.613 1_545 S
N1372 C1375 1.350 . S
N1373 S1371 1.610 . S
N1373 C1374 1.351 1_565 S
C1374 C1368 1.428 . S
C1374 N1373 1.351 1_545 S
C1374 C1375 1.434 . S
C1375 C1366 1.429 . S
C1375 N1372 1.350 . S
C1375 C1374 1.434 . S
C1376 C1377 1.369 . S
C1376 C1378 1.419 . S
C1376 H1380 0.930 . S
C1377 C1376 1.369 . S
C1377 C1386 1.429 . S
C1378 C1376 1.419 . S
C1378 C1379 1.363 . S
C1378 H1381 0.929 . S
C1379 C1378 1.363 . S
C1379 C1385 1.428 . S
H1380 C1376 0.930 . S
H1381 C1378 0.929 . S
S1382 N1383 1.613 . S
S1382 N1384 1.610 . S
N1383 S1382 1.613 . S
N1383 C1386 1.350 . S
N1384 S1382 1.610 . S
N1384 C1385 1.351 . S
C1385 C1379 1.428 . S
C1385 N1384 1.351 . S
C1385 C1386 1.434 . S
C1386 C1377 1.429 . S
C1386 N1383 1.350 . S
C1386 C1385 1.434 . S
C1387 C1388 1.369 . S
C1387 C1389 1.419 . S
C1387 H1391 0.930 . S
C1388 C1387 1.369 . S
C1388 C1397 1.429 . S
C1389 C1387 1.419 . S
C1389 C1390 1.363 . S
C1389 H1392 0.929 . S
C1390 C1389 1.363 . S
C1390 C1396 1.428 . S
H1391 C1387 0.930 . S
H1392 C1389 0.929 . S
S1393 N1394 1.613 . S
S1393 N1395 1.610 . S
N1394 S1393 1.613 . S
N1394 C1397 1.350 . S
N1395 S1393 1.610 . S
N1395 C1396 1.351 . S
C1396 C1390 1.428 . S
C1396 N1395 1.351 . S
C1396 C1397 1.434 . S
C1397 C1388 1.429 . S
C1397 N1394 1.350 . S
C1397 C1396 1.434 . S
C1398 C1399 1.369 . S
C1398 C1400 1.419 . S
C1398 H1402 0.930 . S
C1399 C1398 1.369 . S
C1399 C1408 1.429 . S
C1400 C1398 1.419 . S
C1400 C1401 1.363 . S
C1400 H1403 0.929 . S
C1401 C1400 1.363 . S
C1401 C1407 1.428 . S
H1402 C1398 0.930 . S
H1403 C1400 0.929 . S
S1404 N1405 1.613 . S
S1404 N1406 1.610 . S
N1405 S1404 1.613 . S
N1405 C1408 1.350 . S
N1406 S1404 1.610 . S
N1406 C1407 1.351 . S
C1407 C1401 1.428 . S
C1407 N1406 1.351 . S
C1407 C1408 1.434 . S
C1408 C1399 1.429 . S
C1408 N1405 1.350 . S
C1408 C1407 1.434 . S
C1409 C1410 1.369 . S
C1409 C1411 1.419 . S
C1409 H1413 0.930 . S
C1410 C1409 1.369 . S
C1410 C1419 1.429 . S
C1411 C1409 1.419 . S
C1411 C1412 1.363 . S
C1411 H1414 0.929 . S
C1412 C1411 1.363 . S
C1412 C1418 1.428 . S
H1413 C1409 0.930 . S
H1414 C1411 0.929 . S
S1415 N1416 1.613 . S
S1415 N1417 1.610 . S
N1416 S1415 1.613 . S
N1416 C1419 1.350 . S
N1417 S1415 1.610 . S
N1417 C1418 1.351 . S
C1418 C1412 1.428 . S
C1418 N1417 1.351 . S
C1418 C1419 1.434 . S
C1419 C1410 1.429 . S
C1419 N1416 1.350 . S
C1419 C1418 1.434 . S
C1420 C1421 1.369 . S
C1420 C1422 1.419 . S
C1420 H1424 0.930 . S
C1421 C1420 1.369 . S
C1421 C1430 1.429 . S
C1422 C1420 1.419 . S
C1422 C1423 1.363 . S
C1422 H1425 0.929 . S
C1423 C1422 1.363 . S
C1423 C1429 1.428 . S
H1424 C1420 0.930 . S
H1425 C1422 0.929 . S
S1426 N1427 1.613 . S
S1426 N1428 1.610 . S
N1427 S1426 1.613 . S
N1427 C1430 1.350 . S
N1428 S1426 1.610 . S
N1428 C1429 1.351 . S
C1429 C1423 1.428 . S
C1429 N1428 1.351 . S
C1429 C1430 1.434 . S
C1430 C1421 1.429 . S
C1430 N1427 1.350 . S
C1430 C1429 1.434 . S
C1431 C1432 1.369 . S
C1431 C1433 1.419 . S
C1431 H1435 0.930 . S
C1432 C1431 1.369 . S
C1432 C1441 1.429 . S
C1433 C1431 1.419 . S
C1433 C1434 1.363 . S
C1433 H1436 0.929 . S
C1434 C1433 1.363 . S
C1434 C1440 1.428 . S
H1435 C1431 0.930 . S
H1436 C1433 0.929 . S
S1437 N1438 1.613 . S
S1437 N1439 1.610 . S
N1438 S1437 1.613 . S
N1438 C1441 1.350 . S
N1439 S1437 1.610 . S
N1439 C1440 1.351 . S
C1440 C1434 1.428 . S
C1440 N1439 1.351 . S
C1440 C1441 1.434 . S
C1441 C1432 1.429 . S
C1441 N1438 1.350 . S
C1441 C1440 1.434 . S
C1442 C1443 1.369 . S
C1442 C1444 1.419 . S
C1442 H1446 0.930 . S
C1443 C1442 1.369 . S
C1443 C1452 1.429 . S
C1444 C1442 1.419 . S
C1444 C1445 1.363 . S
C1444 H1447 0.929 . S
C1445 C1444 1.363 . S
C1445 C1451 1.428 . S
H1446 C1442 0.930 . S
H1447 C1444 0.929 . S
S1448 N1449 1.613 . S
S1448 N1450 1.610 . S
N1449 S1448 1.613 . S
N1449 C1452 1.350 . S
N1450 S1448 1.610 . S
N1450 C1451 1.351 . S
C1451 C1445 1.428 . S
C1451 N1450 1.351 . S
C1451 C1452 1.434 . S
C1452 C1443 1.429 . S
C1452 N1449 1.350 . S
C1452 C1451 1.434 . S
C1453 C1454 1.369 . S
C1453 C1455 1.419 . S
C1453 H1457 0.930 . S
C1454 C1453 1.369 . S
C1454 C1463 1.429 . S
C1455 C1453 1.419 . S
C1455 C1456 1.363 . S
C1455 H1458 0.929 . S
C1456 C1455 1.363 . S
C1456 C1462 1.428 . S
H1457 C1453 0.930 . S
H1458 C1455 0.929 . S
S1459 N1460 1.613 . S
S1459 N1461 1.610 . S
N1460 S1459 1.613 . S
N1460 C1463 1.350 . S
N1461 S1459 1.610 . S
N1461 C1462 1.351 . S
C1462 C1456 1.428 . S
C1462 N1461 1.351 . S
C1462 C1463 1.434 . S
C1463 C1454 1.429 . S
C1463 N1460 1.350 . S
C1463 C1462 1.434 . S
C1464 C1465 1.369 . S
C1464 C1466 1.419 . S
C1464 H1468 0.930 . S
C1465 C1464 1.369 . S
C1465 C1474 1.429 . S
C1466 C1464 1.419 . S
C1466 C1467 1.363 1_556 S
C1466 H1469 0.929 . S
C1467 C1466 1.363 1_554 S
C1467 C1473 1.428 1_554 S
H1468 C1464 0.930 . S
H1469 C1466 0.929 . S
S1470 N1471 1.613 . S
S1470 N1472 1.614 1_556 S
N1471 S1470 1.613 . S
N1471 C1474 1.350 1_545 S
N1472 S1470 1.614 1_554 S
N1472 C1473 1.348 1_544 S
C1473 C1467 1.428 1_556 S
C1473 N1472 1.348 1_566 S
C1473 C1474 1.434 . S
C1474 C1465 1.429 . S
C1474 N1471 1.350 1_565 S
C1474 C1473 1.434 . S
C1475 C1476 1.369 . S
C1475 C1477 1.419 . S
C1475 H1479 0.930 . S
C1476 C1475 1.369 . S
C1476 C1485 1.429 1_556 S
C1477 C1475 1.419 . S
C1477 C1478 1.363 1_556 S
C1477 H1480 0.929 . S
C1478 C1477 1.363 1_554 S
C1478 C1484 1.428 . S
H1479 C1475 0.930 . S
H1480 C1477 0.929 . S
S1481 N1482 1.613 . S
S1481 N1483 1.610 . S
N1482 S1481 1.613 . S
N1482 C1485 1.350 . S
N1483 S1481 1.610 . S
N1483 C1484 1.351 . S
C1484 C1478 1.428 . S
C1484 N1483 1.351 . S
C1484 C1485 1.434 . S
C1485 C1476 1.429 1_554 S
C1485 N1482 1.350 . S
C1485 C1484 1.434 . S
C1486 C1487 1.369 . S
C1486 C1488 1.419 . S
C1486 H1490 0.930 . S
C1487 C1486 1.369 . S
C1487 C1496 1.429 . S
C1488 C1486 1.419 . S
C1488 C1489 1.363 . S
C1488 H1491 0.929 . S
C1489 C1488 1.363 . S
C1489 C1495 1.428 . S
H1490 C1486 0.930 . S
H1491 C1488 0.929 . S
S1492 N1493 1.613 . S
S1492 N1494 1.610 . S
N1493 S1492 1.613 . S
N1493 C1496 1.350 . S
N1494 S1492 1.610 . S
N1494 C1495 1.351 . S
C1495 C1489 1.428 . S
C1495 N1494 1.351 . S
C1495 C1496 1.434 . S
C1496 C1487 1.429 . S
C1496 N1493 1.350 . S
C1496 C1495 1.434 . S
C1497 C1498 1.369 . S
C1497 C1499 1.419 . S
C1497 H1501 0.930 . S
C1498 C1497 1.369 . S
C1498 C1507 1.429 . S
C1499 C1497 1.419 . S
C1499 C1500 1.363 . S
C1499 H1502 0.929 . S
C1500 C1499 1.363 . S
C1500 C1506 1.428 . S
H1501 C1497 0.930 . S
H1502 C1499 0.929 . S
S1503 N1504 1.613 . S
S1503 N1505 1.610 . S
N1504 S1503 1.613 . S
N1504 C1507 1.350 . S
N1505 S1503 1.610 . S
N1505 C1506 1.351 . S
C1506 C1500 1.428 . S
C1506 N1505 1.351 . S
C1506 C1507 1.434 . S
C1507 C1498 1.429 . S
C1507 N1504 1.350 . S
C1507 C1506 1.434 . S
C1508 C1509 1.369 1_554 S
C1508 C1510 1.419 . S
C1508 H1512 0.930 . S
C1509 C1508 1.369 1_556 S
C1509 C1518 1.429 . S
C1510 C1508 1.419 . S
C1510 C1511 1.363 . S
C1510 H1513 0.929 . S
C1511 C1510 1.363 . S
C1511 C1517 1.428 . S
H1512 C1508 0.930 . S
H1513 C1510 0.929 . S
S1514 N1515 1.613 1_565 S
S1514 N1516 1.610 . S
N1515 S1514 1.613 1_545 S
N1515 C1518 1.350 . S
N1516 S1514 1.610 . S
N1516 C1517 1.351 1_566 S
C1517 C1511 1.428 . S
C1517 N1516 1.351 1_544 S
C1517 C1518 1.434 1_554 S
C1518 C1509 1.429 . S
C1518 N1515 1.350 . S
C1518 C1517 1.434 1_556 S
C1519 C1520 1.369 . S
C1519 C1521 1.419 1_556 S
C1519 H1523 0.929 1_556 S
C1520 C1519 1.369 . S
C1520 C1529 1.429 . S
C1521 C1519 1.419 1_554 S
C1521 C1522 1.363 . S
C1521 H1524 0.929 . S
C1522 C1521 1.363 . S
C1522 C1528 1.428 1_554 S
H1523 C1519 0.929 1_554 S
H1524 C1521 0.929 . S
S1525 N1526 1.613 . S
S1525 N1527 1.610 . S
N1526 S1525 1.613 . S
N1526 C1529 1.350 . S
N1527 S1525 1.610 . S
N1527 C1528 1.351 . S
C1528 C1522 1.428 1_556 S
C1528 N1527 1.351 . S
C1528 C1529 1.434 . S
C1529 C1520 1.429 . S
C1529 N1526 1.350 . S
C1529 C1528 1.434 . S
C1530 C1531 1.369 . S
C1530 C1532 1.419 . S
C1530 H1534 0.930 . S
C1531 C1530 1.369 . S
C1531 C1540 1.429 . S
C1532 C1530 1.419 . S
C1532 C1533 1.363 . S
C1532 H1535 0.929 . S
C1533 C1532 1.363 . S
C1533 C1539 1.428 . S
H1534 C1530 0.930 . S
H1535 C1532 0.929 . S
S1536 N1537 1.613 . S
S1536 N1538 1.610 . S
N1537 S1536 1.613 . S
N1537 C1540 1.350 . S
N1538 S1536 1.610 . S
N1538 C1539 1.351 . S
C1539 C1533 1.428 . S
C1539 N1538 1.351 . S
C1539 C1540 1.434 . S
C1540 C1531 1.429 . S
C1540 N1537 1.350 . S
C1540 C1539 1.434 . S
C1541 C1542 1.369 . S
C1541 C1543 1.419 . S
C1541 H1545 0.930 . S
C1542 C1541 1.369 . S
C1542 C1551 1.429 . S
C1543 C1541 1.419 . S
C1543 C1544 1.363 . S
C1543 H1546 0.929 . S
C1544 C1543 1.363 . S
C1544 C1550 1.428 . S
H1545 C1541 0.930 . S
H1546 C1543 0.929 . S
S1547 N1548 1.613 1_565 S
S1547 N1549 1.610 . S
N1548 S1547 1.613 1_545 S
N1548 C1551 1.350 . S
N1549 S1547 1.610 . S
N1549 C1550 1.351 1_565 S
C1550 C1544 1.428 . S
C1550 N1549 1.351 1_545 S
C1550 C1551 1.434 . S
C1551 C1542 1.429 . S
C1551 N1548 1.350 . S
C1551 C1550 1.434 . S
C1552 C1553 1.369 . S
C1552 C1554 1.419 . S
C1552 H1556 0.930 . S
C1553 C1552 1.369 . S
C1553 C1562 1.429 . S
C1554 C1552 1.419 . S
C1554 C1555 1.363 . S
C1554 H1557 0.929 . S
C1555 C1554 1.363 . S
C1555 C1561 1.428 . S
H1556 C1552 0.930 . S
H1557 C1554 0.929 . S
S1558 N1559 1.613 . S
S1558 N1560 1.610 . S
N1559 S1558 1.613 . S
N1559 C1562 1.350 . S
N1560 S1558 1.610 . S
N1560 C1561 1.351 . S
C1561 C1555 1.428 . S
C1561 N1560 1.351 . S
C1561 C1562 1.434 . S
C1562 C1553 1.429 . S
C1562 N1559 1.350 . S
C1562 C1561 1.434 . S
C1563 C1564 1.369 . S
C1563 C1565 1.419 . S
C1563 H1567 0.930 . S
C1564 C1563 1.369 . S
C1564 C1573 1.429 . S
C1565 C1563 1.419 . S
C1565 C1566 1.363 . S
C1565 H1568 0.929 . S
C1566 C1565 1.363 . S
C1566 C1572 1.428 . S
H1567 C1563 0.930 . S
H1568 C1565 0.929 . S
S1569 N1570 1.613 . S
S1569 N1571 1.610 . S
N1570 S1569 1.613 . S
N1570 C1573 1.350 . S
N1571 S1569 1.610 . S
N1571 C1572 1.351 . S
C1572 C1566 1.428 . S
C1572 N1571 1.351 . S
C1572 C1573 1.434 . S
C1573 C1564 1.429 . S
C1573 N1570 1.350 . S
C1573 C1572 1.434 . S
C1574 C1575 1.369 1_455 S
C1574 C1576 1.419 . S
C1574 H1578 0.930 . S
C1575 C1574 1.369 1_655 S
C1575 C1584 1.429 . S
C1576 C1574 1.419 . S
C1576 C1577 1.363 . S
C1576 H1579 0.929 . S
C1577 C1576 1.363 . S
C1577 C1583 1.428 1_455 S
H1578 C1574 0.930 . S
H1579 C1576 0.929 . S
S1580 N1581 1.613 1_565 S
S1580 N1582 1.610 . S
N1581 S1580 1.613 1_545 S
N1581 C1584 1.350 . S
N1582 S1580 1.610 . S
N1582 C1583 1.351 1_565 S
C1583 C1577 1.428 1_655 S
C1583 N1582 1.351 1_545 S
C1583 C1584 1.434 . S
C1584 C1575 1.429 . S
C1584 N1581 1.350 . S
C1584 C1583 1.434 . S
C1585 C1586 1.369 . S
C1585 C1587 1.419 . S
C1585 H1589 0.930 . S
C1586 C1585 1.369 . S
C1586 C1595 1.429 . S
C1587 C1585 1.419 . S
C1587 C1588 1.363 . S
C1587 H1590 0.929 . S
C1588 C1587 1.363 . S
C1588 C1594 1.428 . S
H1589 C1585 0.930 . S
H1590 C1587 0.929 . S
S1591 N1592 1.613 . S
S1591 N1593 1.610 . S
N1592 S1591 1.613 . S
N1592 C1595 1.350 . S
N1593 S1591 1.610 . S
N1593 C1594 1.351 . S
C1594 C1588 1.428 . S
C1594 N1593 1.351 . S
C1594 C1595 1.434 . S
C1595 C1586 1.429 . S
C1595 N1592 1.350 . S
C1595 C1594 1.434 . S
C1596 C1597 1.369 . S
C1596 C1598 1.419 . S
C1596 H1600 0.930 . S
C1597 C1596 1.369 . S
C1597 C1606 1.429 1_655 S
C1598 C1596 1.419 . S
C1598 C1599 1.363 . S
C1598 H1601 0.929 . S
C1599 C1598 1.363 . S
C1599 C1605 1.428 1_655 S
H1600 C1596 0.930 . S
H1601 C1598 0.929 . S
S1602 N1603 1.613 . S
S1602 N1604 1.610 . S
N1603 S1602 1.613 . S
N1603 C1606 1.350 . S
N1604 S1602 1.610 . S
N1604 C1605 1.351 . S
C1605 C1599 1.428 1_455 S
C1605 N1604 1.351 . S
C1605 C1606 1.434 . S
C1606 C1597 1.429 1_455 S
C1606 N1603 1.350 . S
C1606 C1605 1.434 . S
C1607 C1608 1.369 . S
C1607 C1609 1.419 . S
C1607 H1611 0.930 1_565 S
C1608 C1607 1.369 . S
C1608 C1617 1.429 . S
C1609 C1607 1.419 . S
C1609 C1610 1.363 . S
C1609 H1612 0.929 . S
C1610 C1609 1.363 . S
C1610 C1616 1.428 . S
H1611 C1607 0.930 1_545 S
H1612 C1609 0.929 . S
S1613 N1614 1.613 . S
S1613 N1615 1.610 . S
N1614 S1613 1.613 . S
N1614 C1617 1.350 . S
N1615 S1613 1.610 . S
N1615 C1616 1.351 . S
C1616 C1610 1.428 . S
C1616 N1615 1.351 . S
C1616 C1617 1.434 . S
C1617 C1608 1.429 . S
C1617 N1614 1.350 . S
C1617 C1616 1.434 . S
C1618 C1619 1.369 . S
C1618 C1620 1.419 . S
C1618 H1622 0.930 . S
C1619 C1618 1.369 . S
C1619 C1628 1.429 1_455 S
C1620 C1618 1.419 . S
C1620 C1621 1.363 1_455 S
C1620 H1623 0.929 . S
C1621 C1620 1.363 1_655 S
C1621 C1627 1.428 . S
H1622 C1618 0.930 . S
H1623 C1620 0.929 . S
S1624 N1625 1.613 . S
S1624 N1626 1.610 . S
N1625 S1624 1.613 . S
N1625 C1628 1.350 . S
N1626 S1624 1.610 . S
N1626 C1627 1.351 . S
C1627 C1621 1.428 . S
C1627 N1626 1.351 . S
C1627 C1628 1.434 . S
C1628 C1619 1.429 1_655 S
C1628 N1625 1.350 . S
C1628 C1627 1.434 . S
C1629 C1630 1.369 . S
C1629 C1631 1.419 . S
C1629 H1633 0.930 . S
C1630 C1629 1.369 . S
C1630 C1639 1.429 . S
C1631 C1629 1.419 . S
C1631 C1632 1.363 . S
C1631 H1634 0.929 . S
C1632 C1631 1.363 . S
C1632 C1638 1.428 . S
H1633 C1629 0.930 . S
H1634 C1631 0.929 . S
S1635 N1636 1.613 . S
S1635 N1637 1.610 . S
N1636 S1635 1.613 . S
N1636 C1639 1.350 . S
N1637 S1635 1.610 . S
N1637 C1638 1.351 . S
C1638 C1632 1.428 . S
C1638 N1637 1.351 . S
C1638 C1639 1.434 . S
C1639 C1630 1.429 . S
C1639 N1636 1.350 . S
C1639 C1638 1.434 . S
C1640 C1641 1.369 . S
C1640 C1642 1.419 . S
C1640 H1644 0.930 . S
C1641 C1640 1.369 . S
C1641 C1650 1.431 . S
C1642 C1640 1.419 . S
C1642 C1643 1.363 . S
C1642 H1645 0.929 . S
C1643 C1642 1.363 . S
C1643 C1649 1.428 . S
H1644 C1640 0.930 . S
H1645 C1642 0.929 . S
S1646 N1647 1.613 . S
S1646 N1648 1.610 1_655 S
N1647 S1646 1.613 . S
N1647 C1650 1.340 1_655 S
N1648 S1646 1.610 1_455 S
N1648 C1649 1.351 . S
C1649 C1643 1.428 . S
C1649 N1648 1.351 . S
C1649 C1650 1.446 . S
C1650 C1641 1.431 . S
C1650 N1647 1.340 1_455 S
C1650 C1649 1.446 . S
C1651 C1652 1.369 . S
C1651 C1653 1.419 . S
C1651 H1655 0.930 . S
C1652 C1651 1.369 . S
C1652 C1661 1.429 . S
C1653 C1651 1.419 . S
C1653 C1654 1.363 . S
C1653 H1656 0.929 . S
C1654 C1653 1.363 . S
C1654 C1660 1.428 . S
H1655 C1651 0.930 . S
H1656 C1653 0.929 . S
S1657 N1658 1.613 . S
S1657 N1659 1.610 . S
N1658 S1657 1.613 . S
N1658 C1661 1.350 . S
N1659 S1657 1.610 . S
N1659 C1660 1.351 . S
C1660 C1654 1.428 . S
C1660 N1659 1.351 . S
C1660 C1661 1.434 . S
C1661 C1652 1.429 . S
C1661 N1658 1.350 . S
C1661 C1660 1.434 . S
C1662 C1663 1.369 1_655 S
C1662 C1664 1.419 . S
C1662 H1666 0.930 . S
C1663 C1662 1.369 1_455 S
C1663 C1672 1.429 . S
C1664 C1662 1.419 . S
C1664 C1665 1.363 . S
C1664 H1667 0.929 . S
C1665 C1664 1.363 . S
C1665 C1671 1.428 1_655 S
H1666 C1662 0.930 . S
H1667 C1664 0.929 . S
S1668 N1669 1.613 . S
S1668 N1670 1.610 . S
N1669 S1668 1.613 . S
N1669 C1672 1.350 . S
N1670 S1668 1.610 . S
N1670 C1671 1.351 . S
C1671 C1665 1.428 1_455 S
C1671 N1670 1.351 . S
C1671 C1672 1.434 . S
C1672 C1663 1.429 . S
C1672 N1669 1.350 . S
C1672 C1671 1.434 . S
C1673 C1674 1.369 . S
C1673 C1675 1.419 . S
C1673 H1677 0.930 . S
C1674 C1673 1.369 . S
C1674 C1683 1.429 . S
C1675 C1673 1.419 . S
C1675 C1676 1.363 . S
C1675 H1678 0.929 . S
C1676 C1675 1.363 . S
C1676 C1682 1.428 . S
H1677 C1673 0.930 . S
H1678 C1675 0.929 . S
S1679 N1680 1.613 . S
S1679 N1681 1.610 . S
N1680 S1679 1.613 . S
N1680 C1683 1.350 . S
N1681 S1679 1.610 . S
N1681 C1682 1.351 . S
C1682 C1676 1.428 . S
C1682 N1681 1.351 . S
C1682 C1683 1.434 . S
C1683 C1674 1.429 . S
C1683 N1680 1.350 . S
C1683 C1682 1.434 . S
C1684 C1685 1.369 . S
C1684 C1686 1.419 . S
C1684 H1688 0.930 . S
C1685 C1684 1.369 . S
C1685 C1694 1.429 1_655 S
C1686 C1684 1.419 . S
C1686 C1687 1.363 . S
C1686 H1689 0.929 . S
C1687 C1686 1.363 . S
C1687 C1693 1.428 1_655 S
H1688 C1684 0.930 . S
H1689 C1686 0.929 . S
S1690 N1691 1.613 . S
S1690 N1692 1.610 . S
N1691 S1690 1.613 . S
N1691 C1694 1.350 . S
N1692 S1690 1.610 . S
N1692 C1693 1.351 . S
C1693 C1687 1.428 1_455 S
C1693 N1692 1.351 . S
C1693 C1694 1.434 . S
C1694 C1685 1.429 1_455 S
C1694 N1691 1.350 . S
C1694 C1693 1.434 . S
C1695 C1696 1.369 . S
C1695 C1697 1.419 . S
C1695 H1699 0.930 . S
C1696 C1695 1.369 . S
C1696 C1705 1.429 . S
C1697 C1695 1.419 . S
C1697 C1698 1.363 . S
C1697 H1700 0.929 . S
C1698 C1697 1.363 . S
C1698 C1704 1.428 . S
H1699 C1695 0.930 . S
H1700 C1697 0.929 . S
S1701 N1702 1.613 . S
S1701 N1703 1.610 . S
N1702 S1701 1.613 . S
N1702 C1705 1.350 . S
N1703 S1701 1.610 . S
N1703 C1704 1.351 . S
C1704 C1698 1.428 . S
C1704 N1703 1.351 . S
C1704 C1705 1.434 . S
C1705 C1696 1.429 . S
C1705 N1702 1.350 . S
C1705 C1704 1.434 . S
C1706 C1707 1.369 . S
C1706 C1708 1.419 . S
C1706 H1710 0.930 . S
C1707 C1706 1.369 . S
C1707 C1716 1.429 . S
C1708 C1706 1.419 . S
C1708 C1709 1.363 1_655 S
C1708 H1711 0.935 . S
C1709 C1708 1.363 1_455 S
C1709 C1715 1.428 1_455 S
H1710 C1706 0.930 . S
H1711 C1708 0.935 . S
S1712 N1713 1.613 . S
S1712 N1714 1.610 1_655 S
N1713 S1712 1.613 . S
N1713 C1716 1.350 . S
N1714 S1712 1.610 1_455 S
N1714 C1715 1.350 1_455 S
C1715 C1709 1.428 1_655 S
C1715 N1714 1.350 1_655 S
C1715 C1716 1.435 . S
C1716 C1707 1.429 . S
C1716 N1713 1.350 . S
C1716 C1715 1.435 . S
C1717 C1718 1.369 . S
C1717 C1719 1.419 . S
C1717 H1721 0.930 . S
C1718 C1717 1.369 . S
C1718 C1727 1.429 . S
C1719 C1717 1.419 . S
C1719 C1720 1.363 . S
C1719 H1722 0.929 . S
C1720 C1719 1.363 . S
C1720 C1726 1.428 . S
H1721 C1717 0.930 . S
H1722 C1719 0.929 . S
S1723 N1724 1.613 . S
S1723 N1725 1.610 . S
N1724 S1723 1.613 . S
N1724 C1727 1.350 . S
N1725 S1723 1.610 . S
N1725 C1726 1.351 . S
C1726 C1720 1.428 . S
C1726 N1725 1.351 . S
C1726 C1727 1.434 . S
C1727 C1718 1.429 . S
C1727 N1724 1.350 . S
C1727 C1726 1.434 . S
C1728 C1729 1.369 . S
C1728 C1730 1.419 . S
C1728 H1732 0.930 . S
C1729 C1728 1.369 . S
C1729 C1738 1.429 . S
C1730 C1728 1.419 . S
C1730 C1731 1.363 . S
C1730 H1733 0.929 . S
C1731 C1730 1.363 . S
C1731 C1737 1.428 . S
H1732 C1728 0.930 . S
H1733 C1730 0.929 . S
S1734 N1735 1.613 . S
S1734 N1736 1.610 . S
N1735 S1734 1.613 . S
N1735 C1738 1.350 . S
N1736 S1734 1.610 . S
N1736 C1737 1.351 . S
C1737 C1731 1.428 . S
C1737 N1736 1.351 . S
C1737 C1738 1.434 . S
C1738 C1729 1.429 . S
C1738 N1735 1.350 . S
C1738 C1737 1.434 . S
C1739 C1740 1.369 . S
C1739 C1741 1.419 . S
C1739 H1743 0.930 1_545 S
C1740 C1739 1.369 . S
C1740 C1749 1.429 . S
C1741 C1739 1.419 . S
C1741 C1742 1.363 . S
C1741 H1744 0.929 . S
C1742 C1741 1.363 . S
C1742 C1748 1.428 . S
H1743 C1739 0.930 1_565 S
H1744 C1741 0.929 . S
S1745 N1746 1.613 . S
S1745 N1747 1.610 . S
N1746 S1745 1.613 . S
N1746 C1749 1.350 . S
N1747 S1745 1.610 . S
N1747 C1748 1.351 . S
C1748 C1742 1.428 . S
C1748 N1747 1.351 . S
C1748 C1749 1.434 . S
C1749 C1740 1.429 . S
C1749 N1746 1.350 . S
C1749 C1748 1.434 . S
C1750 C1751 1.369 . S
C1750 C1752 1.419 . S
C1750 H1754 0.930 . S
C1751 C1750 1.369 . S
C1751 C1760 1.429 . S
C1752 C1750 1.419 . S
C1752 C1753 1.363 . S
C1752 H1755 0.929 1_545 S
C1753 C1752 1.363 . S
C1753 C1759 1.428 . S
H1754 C1750 0.930 . S
H1755 C1752 0.929 1_565 S
S1756 N1757 1.613 . S
S1756 N1758 1.610 . S
N1757 S1756 1.613 . S
N1757 C1760 1.350 . S
N1758 S1756 1.610 . S
N1758 C1759 1.351 . S
C1759 C1753 1.428 . S
C1759 N1758 1.351 . S
C1759 C1760 1.434 . S
C1760 C1751 1.429 . S
C1760 N1757 1.350 . S
C1760 C1759 1.434 . S
C1761 C1762 1.369 . S
C1761 C1763 1.419 . S
C1761 H1765 0.930 . S
C1762 C1761 1.369 . S
C1762 C1771 1.429 . S
C1763 C1761 1.419 . S
C1763 C1764 1.363 . S
C1763 H1766 0.929 . S
C1764 C1763 1.363 . S
C1764 C1770 1.428 . S
H1765 C1761 0.930 . S
H1766 C1763 0.929 . S
S1767 N1768 1.613 . S
S1767 N1769 1.610 . S
N1768 S1767 1.613 . S
N1768 C1771 1.350 . S
N1769 S1767 1.610 . S
N1769 C1770 1.351 . S
C1770 C1764 1.428 . S
C1770 N1769 1.351 . S
C1770 C1771 1.434 . S
C1771 C1762 1.429 . S
C1771 N1768 1.350 . S
C1771 C1770 1.434 . S
C1772 C1773 1.369 . S
C1772 C1774 1.419 . S
C1772 H1776 0.930 . S
C1773 C1772 1.369 . S
C1773 C1782 1.429 . S
C1774 C1772 1.419 . S
C1774 C1775 1.363 . S
C1774 H1777 0.929 . S
C1775 C1774 1.363 . S
C1775 C1781 1.428 . S
H1776 C1772 0.930 . S
H1777 C1774 0.929 . S
S1778 N1779 1.613 . S
S1778 N1780 1.610 . S
N1779 S1778 1.613 . S
N1779 C1782 1.350 . S
N1780 S1778 1.610 . S
N1780 C1781 1.351 . S
C1781 C1775 1.428 . S
C1781 N1780 1.351 . S
C1781 C1782 1.434 . S
C1782 C1773 1.429 . S
C1782 N1779 1.350 . S
C1782 C1781 1.434 . S
C1783 C1784 1.369 . S
C1783 C1785 1.419 . S
C1783 H1787 0.930 . S
C1784 C1783 1.369 . S
C1784 C1793 1.429 . S
C1785 C1783 1.419 . S
C1785 C1786 1.363 . S
C1785 H1788 0.929 . S
C1786 C1785 1.363 . S
C1786 C1792 1.428 . S
H1787 C1783 0.930 . S
H1788 C1785 0.929 . S
S1789 N1790 1.613 1_565 S
S1789 N1791 1.610 . S
N1790 S1789 1.613 1_545 S
N1790 C1793 1.350 1_545 S
N1791 S1789 1.610 . S
N1791 C1792 1.351 . S
C1792 C1786 1.428 . S
C1792 N1791 1.351 . S
C1792 C1793 1.434 . S
C1793 C1784 1.429 . S
C1793 N1790 1.350 1_565 S
C1793 C1792 1.434 . S
C1794 C1795 1.369 . S
C1794 C1796 1.419 . S
C1794 H1798 0.930 . S
C1795 C1794 1.369 . S
C1795 C1804 1.429 . S
C1796 C1794 1.419 . S
C1796 C1797 1.363 . S
C1796 H1799 0.929 . S
C1797 C1796 1.363 . S
C1797 C1803 1.428 . S
H1798 C1794 0.930 . S
H1799 C1796 0.929 . S
S1800 N1801 1.613 . S
S1800 N1802 1.610 . S
N1801 S1800 1.613 . S
N1801 C1804 1.350 . S
N1802 S1800 1.610 . S
N1802 C1803 1.351 . S
C1803 C1797 1.428 . S
C1803 N1802 1.351 . S
C1803 C1804 1.434 . S
C1804 C1795 1.429 . S
C1804 N1801 1.350 . S
C1804 C1803 1.434 . S
C1805 C1806 1.369 . S
C1805 C1807 1.419 . S
C1805 H1809 0.930 . S
C1806 C1805 1.369 . S
C1806 C1815 1.429 . S
C1807 C1805 1.419 . S
C1807 C1808 1.363 . S
C1807 H1810 0.929 . S
C1808 C1807 1.363 . S
C1808 C1814 1.428 . S
H1809 C1805 0.930 . S
H1810 C1807 0.929 . S
S1811 N1812 1.613 . S
S1811 N1813 1.610 . S
N1812 S1811 1.613 . S
N1812 C1815 1.350 . S
N1813 S1811 1.610 . S
N1813 C1814 1.351 . S
C1814 C1808 1.428 . S
C1814 N1813 1.351 . S
C1814 C1815 1.434 . S
C1815 C1806 1.429 . S
C1815 N1812 1.350 . S
C1815 C1814 1.434 . S
C1816 C1817 1.369 . S
C1816 C1818 1.419 . S
C1816 H1820 0.930 . S
C1817 C1816 1.369 . S
C1817 C1826 1.429 . S
C1818 C1816 1.419 . S
C1818 C1819 1.363 . S
C1818 H1821 0.929 . S
C1819 C1818 1.363 . S
C1819 C1825 1.428 . S
H1820 C1816 0.930 . S
H1821 C1818 0.929 . S
S1822 N1823 1.613 . S
S1822 N1824 1.610 . S
N1823 S1822 1.613 . S
N1823 C1826 1.350 . S
N1824 S1822 1.610 . S
N1824 C1825 1.351 . S
C1825 C1819 1.428 . S
C1825 N1824 1.351 . S
C1825 C1826 1.434 . S
C1826 C1817 1.429 . S
C1826 N1823 1.350 . S
C1826 C1825 1.434 . S
C1827 C1828 1.369 . S
C1827 C1829 1.419 . S
C1827 H1831 0.930 . S
C1828 C1827 1.369 . S
C1828 C1837 1.429 . S
C1829 C1827 1.419 . S
C1829 C1830 1.363 . S
C1829 H1832 0.929 . S
C1830 C1829 1.363 . S
C1830 C1836 1.428 . S
H1831 C1827 0.930 . S
H1832 C1829 0.929 . S
S1833 N1834 1.613 . S
S1833 N1835 1.610 . S
N1834 S1833 1.613 . S
N1834 C1837 1.350 . S
N1835 S1833 1.610 . S
N1835 C1836 1.351 . S
C1836 C1830 1.428 . S
C1836 N1835 1.351 . S
C1836 C1837 1.434 . S
C1837 C1828 1.429 . S
C1837 N1834 1.350 . S
C1837 C1836 1.434 . S
C1838 C1839 1.369 . S
C1838 C1840 1.419 . S
C1838 H1842 0.930 . S
C1839 C1838 1.369 . S
C1839 C1848 1.429 . S
C1840 C1838 1.419 . S
C1840 C1841 1.363 . S
C1840 H1843 0.929 . S
C1841 C1840 1.363 . S
C1841 C1847 1.428 . S
H1842 C1838 0.930 . S
H1843 C1840 0.929 . S
S1844 N1845 1.613 . S
S1844 N1846 1.610 . S
N1845 S1844 1.613 . S
N1845 C1848 1.350 . S
N1846 S1844 1.610 . S
N1846 C1847 1.351 . S
C1847 C1841 1.428 . S
C1847 N1846 1.351 . S
C1847 C1848 1.434 . S
C1848 C1839 1.429 . S
C1848 N1845 1.350 . S
C1848 C1847 1.434 . S
C1849 C1850 1.369 . S
C1849 C1851 1.419 . S
C1849 H1853 0.930 . S
C1850 C1849 1.369 . S
C1850 C1859 1.429 . S
C1851 C1849 1.419 . S
C1851 C1852 1.363 . S
C1851 H1854 0.929 . S
C1852 C1851 1.363 . S
C1852 C1858 1.428 . S
H1853 C1849 0.930 . S
H1854 C1851 0.929 . S
S1855 N1856 1.613 . S
S1855 N1857 1.610 . S
N1856 S1855 1.613 . S
N1856 C1859 1.350 . S
N1857 S1855 1.610 . S
N1857 C1858 1.351 . S
C1858 C1852 1.428 . S
C1858 N1857 1.351 . S
C1858 C1859 1.434 . S
C1859 C1850 1.429 . S
C1859 N1856 1.350 . S
C1859 C1858 1.434 . S
C1860 C1861 1.369 . S
C1860 C1862 1.419 . S
C1860 H1864 0.930 . S
C1861 C1860 1.369 . S
C1861 C1870 1.429 . S
C1862 C1860 1.419 . S
C1862 C1863 1.363 . S
C1862 H1865 0.929 . S
C1863 C1862 1.363 . S
C1863 C1869 1.428 . S
H1864 C1860 0.930 . S
H1865 C1862 0.929 . S
S1866 N1867 1.613 . S
S1866 N1868 1.610 . S
N1867 S1866 1.613 . S
N1867 C1870 1.350 . S
N1868 S1866 1.610 . S
N1868 C1869 1.351 . S
C1869 C1863 1.428 . S
C1869 N1868 1.351 . S
C1869 C1870 1.434 . S
C1870 C1861 1.429 . S
C1870 N1867 1.350 . S
C1870 C1869 1.434 . S
C1871 C1872 1.369 . S
C1871 C1873 1.419 . S
C1871 H1875 0.930 . S
C1872 C1871 1.369 . S
C1872 C1881 1.429 . S
C1873 C1871 1.419 . S
C1873 C1874 1.363 . S
C1873 H1876 0.929 . S
C1874 C1873 1.363 . S
C1874 C1880 1.428 . S
H1875 C1871 0.930 . S
H1876 C1873 0.929 . S
S1877 N1878 1.613 . S
S1877 N1879 1.610 . S
N1878 S1877 1.613 . S
N1878 C1881 1.350 . S
N1879 S1877 1.610 . S
N1879 C1880 1.351 . S
C1880 C1874 1.428 . S
C1880 N1879 1.351 . S
C1880 C1881 1.434 . S
C1881 C1872 1.429 . S
C1881 N1878 1.350 . S
C1881 C1880 1.434 . S
C1882 C1883 1.369 . S
C1882 C1884 1.419 . S
C1882 H1886 0.930 . S
C1883 C1882 1.369 . S
C1883 C1892 1.429 . S
C1884 C1882 1.419 . S
C1884 C1885 1.363 . S
C1884 H1887 0.929 . S
C1885 C1884 1.363 . S
C1885 C1891 1.428 . S
H1886 C1882 0.930 . S
H1887 C1884 0.929 . S
S1888 N1889 1.613 . S
S1888 N1890 1.610 . S
N1889 S1888 1.613 . S
N1889 C1892 1.350 . S
N1890 S1888 1.610 . S
N1890 C1891 1.351 . S
C1891 C1885 1.428 . S
C1891 N1890 1.351 . S
C1891 C1892 1.434 . S
C1892 C1883 1.429 . S
C1892 N1889 1.350 . S
C1892 C1891 1.434 . S
C1893 C1894 1.369 . S
C1893 C1895 1.419 . S
C1893 H1897 0.930 . S
C1894 C1893 1.369 . S
C1894 C1903 1.429 . S
C1895 C1893 1.419 . S
C1895 C1896 1.363 . S
C1895 H1898 0.929 . S
C1896 C1895 1.363 . S
C1896 C1902 1.428 . S
H1897 C1893 0.930 . S
H1898 C1895 0.929 . S
S1899 N1900 1.613 . S
S1899 N1901 1.610 . S
N1900 S1899 1.613 . S
N1900 C1903 1.350 . S
N1901 S1899 1.610 . S
N1901 C1902 1.351 . S
C1902 C1896 1.428 . S
C1902 N1901 1.351 . S
C1902 C1903 1.434 . S
C1903 C1894 1.429 . S
C1903 N1900 1.350 . S
C1903 C1902 1.434 . S
C1904 C1905 1.369 . S
C1904 C1906 1.419 . S
C1904 H1908 0.930 . S
C1905 C1904 1.369 . S
C1905 C1914 1.429 . S
C1906 C1904 1.419 . S
C1906 C1907 1.363 . S
C1906 H1909 0.929 . S
C1907 C1906 1.363 . S
C1907 C1913 1.428 . S
H1908 C1904 0.930 . S
H1909 C1906 0.929 . S
S1910 N1911 1.613 . S
S1910 N1912 1.610 . S
N1911 S1910 1.613 . S
N1911 C1914 1.350 . S
N1912 S1910 1.610 . S
N1912 C1913 1.351 . S
C1913 C1907 1.428 . S
C1913 N1912 1.351 . S
C1913 C1914 1.434 . S
C1914 C1905 1.429 . S
C1914 N1911 1.350 . S
C1914 C1913 1.434 . S
C1915 C1916 1.369 . S
C1915 C1917 1.419 . S
C1915 H1919 0.930 . S
C1916 C1915 1.369 . S
C1916 C1925 1.429 . S
C1917 C1915 1.419 . S
C1917 C1918 1.363 . S
C1917 H1920 0.929 . S
C1918 C1917 1.363 . S
C1918 C1924 1.428 . S
H1919 C1915 0.930 . S
H1920 C1917 0.929 . S
S1921 N1922 1.613 . S
S1921 N1923 1.610 . S
N1922 S1921 1.613 . S
N1922 C1925 1.350 1_545 S
N1923 S1921 1.610 . S
N1923 C1924 1.351 1_545 S
C1924 C1918 1.428 . S
C1924 N1923 1.351 1_565 S
C1924 C1925 1.434 . S
C1925 C1916 1.429 . S
C1925 N1922 1.350 1_565 S
C1925 C1924 1.434 . S
C1926 C1927 1.369 . S
C1926 C1928 1.419 . S
C1926 H1930 0.930 . S
C1927 C1926 1.369 . S
C1927 C1936 1.429 . S
C1928 C1926 1.419 . S
C1928 C1929 1.363 . S
C1928 H1931 0.929 . S
C1929 C1928 1.363 . S
C1929 C1935 1.428 . S
H1930 C1926 0.930 . S
H1931 C1928 0.929 . S
S1932 N1933 1.613 . S
S1932 N1934 1.610 . S
N1933 S1932 1.613 . S
N1933 C1936 1.350 . S
N1934 S1932 1.610 . S
N1934 C1935 1.351 . S
C1935 C1929 1.428 . S
C1935 N1934 1.351 . S
C1935 C1936 1.434 . S
C1936 C1927 1.429 . S
C1936 N1933 1.350 . S
C1936 C1935 1.434 . S
C1937 C1938 1.369 . S
C1937 C1939 1.419 . S
C1937 H1941 0.930 . S
C1938 C1937 1.369 . S
C1938 C1947 1.429 1_545 S
C1939 C1937 1.419 . S
C1939 C1940 1.363 . S
C1939 H1942 0.929 . S
C1940 C1939 1.363 . S
C1940 C1946 1.428 1_545 S
H1941 C1937 0.930 . S
H1942 C1939 0.929 . S
S1943 N1944 1.613 . S
S1943 N1945 1.610 . S
N1944 S1943 1.613 . S
N1944 C1947 1.350 . S
N1945 S1943 1.610 . S
N1945 C1946 1.351 . S
C1946 C1940 1.428 1_565 S
C1946 N1945 1.351 . S
C1946 C1947 1.434 . S
C1947 C1938 1.429 1_565 S
C1947 N1944 1.350 . S
C1947 C1946 1.434 . S
C1948 C1949 1.369 . S
C1948 C1950 1.419 . S
C1948 H1952 0.930 . S
C1949 C1948 1.369 . S
C1949 C1958 1.429 . S
C1950 C1948 1.419 . S
C1950 C1951 1.363 . S
C1950 H1953 0.929 . S
C1951 C1950 1.363 . S
C1951 C1957 1.428 . S
H1952 C1948 0.930 . S
H1953 C1950 0.929 . S
S1954 N1955 1.613 . S
S1954 N1956 1.610 . S
N1955 S1954 1.613 . S
N1955 C1958 1.350 . S
N1956 S1954 1.610 . S
N1956 C1957 1.351 . S
C1957 C1951 1.428 . S
C1957 N1956 1.351 . S
C1957 C1958 1.434 . S
C1958 C1949 1.429 . S
C1958 N1955 1.350 . S
C1958 C1957 1.434 . S
C1959 C1960 1.369 . S
C1959 C1961 1.419 . S
C1959 H1963 0.930 . S
C1960 C1959 1.369 . S
C1960 C1969 1.429 . S
C1961 C1959 1.419 . S
C1961 C1962 1.363 . S
C1961 H1964 0.929 . S
C1962 C1961 1.363 . S
C1962 C1968 1.428 . S
H1963 C1959 0.930 . S
H1964 C1961 0.929 . S
S1965 N1966 1.613 . S
S1965 N1967 1.610 . S
N1966 S1965 1.613 . S
N1966 C1969 1.350 . S
N1967 S1965 1.610 . S
N1967 C1968 1.351 . S
C1968 C1962 1.428 . S
C1968 N1967 1.351 . S
C1968 C1969 1.434 . S
C1969 C1960 1.429 . S
C1969 N1966 1.350 . S
C1969 C1968 1.434 . S
C1970 C1971 1.369 . S
C1970 C1972 1.419 . S
C1970 H1974 0.930 . S
C1971 C1970 1.369 . S
C1971 C1980 1.429 . S
C1972 C1970 1.419 . S
C1972 C1973 1.363 . S
C1972 H1975 0.929 . S
C1973 C1972 1.363 . S
C1973 C1979 1.428 . S
H1974 C1970 0.930 . S
H1975 C1972 0.929 . S
S1976 N1977 1.613 . S
S1976 N1978 1.610 . S
N1977 S1976 1.613 . S
N1977 C1980 1.350 . S
N1978 S1976 1.610 . S
N1978 C1979 1.351 . S
C1979 C1973 1.428 . S
C1979 N1978 1.351 . S
C1979 C1980 1.434 . S
C1980 C1971 1.429 . S
C1980 N1977 1.350 . S
C1980 C1979 1.434 . S
C1981 C1982 1.369 . S
C1981 C1983 1.419 . S
C1981 H1985 0.930 . S
C1982 C1981 1.369 . S
C1982 C1991 1.429 . S
C1983 C1981 1.419 . S
C1983 C1984 1.363 . S
C1983 H1986 0.929 . S
C1984 C1983 1.363 . S
C1984 C1990 1.428 . S
H1985 C1981 0.930 . S
H1986 C1983 0.929 . S
S1987 N1988 1.613 . S
S1987 N1989 1.610 . S
N1988 S1987 1.613 . S
N1988 C1991 1.350 . S
N1989 S1987 1.610 . S
N1989 C1990 1.351 . S
C1990 C1984 1.428 . S
C1990 N1989 1.351 . S
C1990 C1991 1.434 . S
C1991 C1982 1.429 . S
C1991 N1988 1.350 . S
C1991 C1990 1.434 . S
C1992 C1993 1.369 . S
C1992 C1994 1.419 . S
C1992 H1996 0.930 . S
C1993 C1992 1.369 . S
C1993 C2002 1.429 . S
C1994 C1992 1.419 . S
C1994 C1995 1.363 . S
C1994 H1997 0.929 . S
C1995 C1994 1.363 . S
C1995 C2001 1.428 . S
H1996 C1992 0.930 . S
H1997 C1994 0.929 . S
S1998 N1999 1.613 . S
S1998 N2000 1.610 . S
N1999 S1998 1.613 . S
N1999 C2002 1.350 . S
N2000 S1998 1.610 . S
N2000 C2001 1.351 . S
C2001 C1995 1.428 . S
C2001 N2000 1.351 . S
C2001 C2002 1.434 . S
C2002 C1993 1.429 . S
C2002 N1999 1.350 . S
C2002 C2001 1.434 . S
C2003 C2004 1.369 . S
C2003 C2005 1.419 . S
C2003 H2007 0.930 . S
C2004 C2003 1.369 . S
C2004 C2013 1.429 . S
C2005 C2003 1.419 . S
C2005 C2006 1.363 . S
C2005 H2008 0.929 . S
C2006 C2005 1.363 . S
C2006 C2012 1.428 . S
H2007 C2003 0.930 . S
H2008 C2005 0.929 . S
S2009 N2010 1.613 . S
S2009 N2011 1.610 . S
N2010 S2009 1.613 . S
N2010 C2013 1.350 1_545 S
N2011 S2009 1.610 . S
N2011 C2012 1.351 1_545 S
C2012 C2006 1.428 . S
C2012 N2011 1.351 1_565 S
C2012 C2013 1.434 . S
C2013 C2004 1.429 . S
C2013 N2010 1.350 1_565 S
C2013 C2012 1.434 . S
C2014 C2015 1.369 . S
C2014 C2016 1.419 . S
C2014 H2018 0.930 . S
C2015 C2014 1.369 . S
C2015 C2024 1.429 . S
C2016 C2014 1.419 . S
C2016 C2017 1.363 . S
C2016 H2019 0.929 . S
C2017 C2016 1.363 . S
C2017 C2023 1.428 . S
H2018 C2014 0.930 . S
H2019 C2016 0.929 . S
S2020 N2021 1.613 . S
S2020 N2022 1.610 . S
N2021 S2020 1.613 . S
N2021 C2024 1.350 . S
N2022 S2020 1.610 . S
N2022 C2023 1.351 . S
C2023 C2017 1.428 . S
C2023 N2022 1.351 . S
C2023 C2024 1.434 . S
C2024 C2015 1.429 . S
C2024 N2021 1.350 . S
C2024 C2023 1.434 . S
C2025 C2026 1.369 1_565 S
C2025 C2027 1.419 . S
C2025 H2029 0.930 . S
C2026 C2025 1.369 1_545 S
C2026 C2035 1.429 . S
C2027 C2025 1.419 . S
C2027 C2028 1.363 1_565 S
C2027 H2030 0.929 . S
C2028 C2027 1.363 1_545 S
C2028 C2034 1.428 . S
H2029 C2025 0.930 . S
H2030 C2027 0.929 . S
S2031 N2032 1.613 . S
S2031 N2033 1.610 . S
N2032 S2031 1.613 . S
N2032 C2035 1.350 . S
N2033 S2031 1.610 . S
N2033 C2034 1.351 . S
C2034 C2028 1.428 . S
C2034 N2033 1.351 . S
C2034 C2035 1.434 . S
C2035 C2026 1.429 . S
C2035 N2032 1.350 . S
C2035 C2034 1.434 . S
C2036 C2037 1.369 . S
C2036 C2038 1.419 . S
C2036 H2040 0.930 . S
C2037 C2036 1.369 . S
C2037 C2046 1.429 . S
C2038 C2036 1.419 . S
C2038 C2039 1.363 . S
C2038 H2041 0.929 . S
C2039 C2038 1.363 . S
C2039 C2045 1.428 . S
H2040 C2036 0.930 . S
H2041 C2038 0.929 . S
S2042 N2043 1.613 . S
S2042 N2044 1.610 . S
N2043 S2042 1.613 . S
N2043 C2046 1.350 . S
N2044 S2042 1.610 . S
N2044 C2045 1.351 . S
C2045 C2039 1.428 . S
C2045 N2044 1.351 . S
C2045 C2046 1.434 . S
C2046 C2037 1.429 . S
C2046 N2043 1.350 . S
C2046 C2045 1.434 . S
C2047 C2048 1.369 . S
C2047 C2049 1.419 . S
C2047 H2051 0.930 . S
C2048 C2047 1.369 . S
C2048 C2057 1.429 . S
C2049 C2047 1.419 . S
C2049 C2050 1.363 . S
C2049 H2052 0.929 . S
C2050 C2049 1.363 . S
C2050 C2056 1.428 . S
H2051 C2047 0.930 . S
H2052 C2049 0.929 . S
S2053 N2054 1.613 . S
S2053 N2055 1.610 . S
N2054 S2053 1.613 . S
N2054 C2057 1.350 . S
N2055 S2053 1.610 . S
N2055 C2056 1.351 . S
C2056 C2050 1.428 . S
C2056 N2055 1.351 . S
C2056 C2057 1.434 . S
C2057 C2048 1.429 . S
C2057 N2054 1.350 . S
C2057 C2056 1.434 . S
C2058 C2059 1.369 . S
C2058 C2060 1.419 . S
C2058 H2062 0.930 . S
C2059 C2058 1.369 . S
C2059 C2068 1.429 . S
C2060 C2058 1.419 . S
C2060 C2061 1.363 . S
C2060 H2063 0.929 . S
C2061 C2060 1.363 . S
C2061 C2067 1.428 . S
H2062 C2058 0.930 . S
H2063 C2060 0.929 . S
S2064 N2065 1.613 . S
S2064 N2066 1.610 . S
N2065 S2064 1.613 . S
N2065 C2068 1.350 . S
N2066 S2064 1.610 . S
N2066 C2067 1.351 . S
C2067 C2061 1.428 . S
C2067 N2066 1.351 . S
C2067 C2068 1.434 . S
C2068 C2059 1.429 . S
C2068 N2065 1.350 . S
C2068 C2067 1.434 . S
C2069 C2070 1.369 . S
C2069 C2071 1.419 . S
C2069 H2073 0.930 . S
C2070 C2069 1.369 . S
C2070 C2079 1.429 . S
C2071 C2069 1.419 . S
C2071 C2072 1.363 . S
C2071 H2074 0.929 . S
C2072 C2071 1.363 . S
C2072 C2078 1.428 . S
H2073 C2069 0.930 . S
H2074 C2071 0.929 . S
S2075 N2076 1.613 . S
S2075 N2077 1.610 . S
N2076 S2075 1.613 . S
N2076 C2079 1.350 . S
N2077 S2075 1.610 . S
N2077 C2078 1.351 . S
C2078 C2072 1.428 . S
C2078 N2077 1.351 . S
C2078 C2079 1.434 . S
C2079 C2070 1.429 . S
C2079 N2076 1.350 . S
C2079 C2078 1.434 . S
C2080 C2081 1.369 . S
C2080 C2082 1.419 . S
C2080 H2084 0.930 . S
C2081 C2080 1.369 . S
C2081 C2090 1.429 1_456 S
C2082 C2080 1.419 . S
C2082 C2083 1.363 1_456 S
C2082 H2085 0.929 . S
C2083 C2082 1.363 1_654 S
C2083 C2089 1.428 . S
H2084 C2080 0.930 . S
H2085 C2082 0.929 . S
S2086 N2087 1.613 . S
S2086 N2088 1.610 . S
N2087 S2086 1.613 . S
N2087 C2090 1.350 . S
N2088 S2086 1.610 . S
N2088 C2089 1.351 . S
C2089 C2083 1.428 . S
C2089 N2088 1.351 . S
C2089 C2090 1.434 . S
C2090 C2081 1.429 1_654 S
C2090 N2087 1.350 . S
C2090 C2089 1.434 . S
C2091 C2092 1.369 . S
C2091 C2093 1.419 . S
C2091 H2095 0.930 . S
C2092 C2091 1.369 . S
C2092 C2101 1.429 1_554 S
C2093 C2091 1.419 . S
C2093 C2094 1.363 1_554 S
C2093 H2096 0.929 . S
C2094 C2093 1.363 1_556 S
C2094 C2100 1.428 . S
H2095 C2091 0.930 . S
H2096 C2093 0.929 . S
S2097 N2098 1.613 . S
S2097 N2099 1.610 . S
N2098 S2097 1.613 . S
N2098 C2101 1.350 . S
N2099 S2097 1.610 . S
N2099 C2100 1.351 . S
C2100 C2094 1.428 . S
C2100 N2099 1.351 . S
C2100 C2101 1.434 . S
C2101 C2092 1.429 1_556 S
C2101 N2098 1.350 . S
C2101 C2100 1.434 . S
C2102 C2103 1.369 1_455 S
C2102 C2104 1.419 . S
C2102 H2106 0.930 . S
C2103 C2102 1.369 1_655 S
C2103 C2112 1.429 . S
C2104 C2102 1.419 . S
C2104 C2105 1.363 . S
C2104 H2107 0.929 . S
C2105 C2104 1.363 . S
C2105 C2111 1.428 1_455 S
H2106 C2102 0.930 . S
H2107 C2104 0.929 . S
S2108 N2109 1.613 . S
S2108 N2110 1.610 . S
N2109 S2108 1.613 . S
N2109 C2112 1.350 . S
N2110 S2108 1.610 . S
N2110 C2111 1.351 . S
C2111 C2105 1.428 1_655 S
C2111 N2110 1.351 . S
C2111 C2112 1.434 . S
C2112 C2103 1.429 . S
C2112 N2109 1.350 . S
C2112 C2111 1.434 . S
C2113 C2114 1.369 . S
C2113 C2115 1.419 . S
C2113 H2117 0.930 . S
C2114 C2113 1.369 . S
C2114 C2123 1.429 . S
C2115 C2113 1.419 . S
C2115 C2116 1.363 . S
C2115 H2118 0.929 . S
C2116 C2115 1.363 . S
C2116 C2122 1.428 . S
H2117 C2113 0.930 . S
H2118 C2115 0.929 . S
S2119 N2120 1.613 . S
S2119 N2121 1.610 . S
N2120 S2119 1.613 . S
N2120 C2123 1.350 . S
N2121 S2119 1.610 . S
N2121 C2122 1.351 . S
C2122 C2116 1.428 . S
C2122 N2121 1.351 . S
C2122 C2123 1.434 . S
C2123 C2114 1.429 . S
C2123 N2120 1.350 . S
C2123 C2122 1.434 . S
C2124 C2125 1.369 . S
C2124 C2126 1.419 . S
C2124 H2128 0.930 . S
C2125 C2124 1.369 . S
C2125 C2134 1.427 1_556 S
C2126 C2124 1.419 . S
C2126 C2127 1.363 1_556 S
C2126 H2129 0.929 . S
C2127 C2126 1.363 1_554 S
C2127 C2133 1.428 . S
H2128 C2124 0.930 . S
H2129 C2126 0.929 . S
S2130 N2131 1.615 . S
S2130 N2132 1.610 . S
N2131 S2130 1.615 . S
N2131 C2134 1.350 . S
N2132 S2130 1.610 . S
N2132 C2133 1.351 . S
C2133 C2127 1.428 . S
C2133 N2132 1.351 . S
C2133 C2134 1.436 . S
C2134 C2125 1.427 1_554 S
C2134 N2131 1.350 . S
C2134 C2133 1.436 . S
C2135 C2136 1.369 . S
C2135 C2137 1.419 . S
C2135 H2139 0.930 . S
C2136 C2135 1.369 . S
C2136 C2145 1.429 1_455 S
C2137 C2135 1.419 . S
C2137 C2138 1.363 1_455 S
C2137 H2140 0.929 . S
C2138 C2137 1.363 1_655 S
C2138 C2144 1.428 . S
H2139 C2135 0.930 . S
H2140 C2137 0.929 . S
S2141 N2142 1.613 . S
S2141 N2143 1.610 . S
N2142 S2141 1.613 . S
N2142 C2145 1.350 . S
N2143 S2141 1.610 . S
N2143 C2144 1.351 . S
C2144 C2138 1.428 . S
C2144 N2143 1.351 . S
C2144 C2145 1.434 . S
C2145 C2136 1.429 1_655 S
C2145 N2142 1.350 . S
C2145 C2144 1.434 . S
C2146 C2147 1.369 . S
C2146 C2148 1.419 . S
C2146 H2150 0.930 . S
C2147 C2146 1.369 . S
C2147 C2156 1.429 . S
C2148 C2146 1.419 . S
C2148 C2149 1.363 . S
C2148 H2151 0.929 . S
C2149 C2148 1.363 . S
C2149 C2155 1.428 . S
H2150 C2146 0.930 . S
H2151 C2148 0.929 . S
S2152 N2153 1.613 . S
S2152 N2154 1.610 . S
N2153 S2152 1.613 . S
N2153 C2156 1.350 . S
N2154 S2152 1.610 . S
N2154 C2155 1.351 . S
C2155 C2149 1.428 . S
C2155 N2154 1.351 . S
C2155 C2156 1.434 . S
C2156 C2147 1.429 . S
C2156 N2153 1.350 . S
C2156 C2155 1.434 . S
C2157 C2158 1.369 1_455 S
C2157 C2159 1.419 1_545 S
C2157 H2161 0.930 . S
C2158 C2157 1.369 1_655 S
C2158 C2167 1.429 . S
C2159 C2157 1.419 1_565 S
C2159 C2160 1.363 . S
C2159 H2162 0.929 . S
C2160 C2159 1.363 . S
C2160 C2166 1.428 1_455 S
H2161 C2157 0.930 . S
H2162 C2159 0.929 . S
S2163 N2164 1.613 1_565 S
S2163 N2165 1.610 . S
N2164 S2163 1.613 1_545 S
N2164 C2167 1.350 . S
N2165 S2163 1.610 . S
N2165 C2166 1.351 . S
C2166 C2160 1.428 1_655 S
C2166 N2165 1.351 . S
C2166 C2167 1.434 1_565 S
C2167 C2158 1.429 . S
C2167 N2164 1.350 . S
C2167 C2166 1.434 1_545 S
C2168 C2169 1.369 . S
C2168 C2170 1.419 . S
C2168 H2172 0.930 . S
C2169 C2168 1.369 . S
C2169 C2178 1.429 . S
C2170 C2168 1.419 . S
C2170 C2171 1.363 . S
C2170 H2173 0.929 . S
C2171 C2170 1.363 . S
C2171 C2177 1.428 . S
H2172 C2168 0.930 . S
H2173 C2170 0.929 . S
S2174 N2175 1.613 . S
S2174 N2176 1.610 . S
N2175 S2174 1.613 . S
N2175 C2178 1.350 . S
N2176 S2174 1.610 . S
N2176 C2177 1.351 . S
C2177 C2171 1.428 . S
C2177 N2176 1.351 . S
C2177 C2178 1.434 . S
C2178 C2169 1.429 . S
C2178 N2175 1.350 . S
C2178 C2177 1.434 . S
C2179 C2180 1.369 . S
C2179 C2181 1.419 1_565 S
C2179 H2183 0.930 . S
C2180 C2179 1.369 . S
C2180 C2189 1.429 . S
C2181 C2179 1.419 1_545 S
C2181 C2182 1.363 . S
C2181 H2184 0.929 . S
C2182 C2181 1.363 . S
C2182 C2188 1.428 . S
H2183 C2179 0.930 . S
H2184 C2181 0.929 . S
S2185 N2186 1.613 . S
S2185 N2187 1.610 1_565 S
N2186 S2185 1.613 . S
N2186 C2189 1.350 . S
N2187 S2185 1.610 1_545 S
N2187 C2188 1.351 . S
C2188 C2182 1.428 . S
C2188 N2187 1.351 . S
C2188 C2189 1.434 1_545 S
C2189 C2180 1.429 . S
C2189 N2186 1.350 . S
C2189 C2188 1.434 1_565 S
C2190 C2191 1.369 . S
C2190 C2192 1.419 . S
C2190 H2194 0.930 . S
C2191 C2190 1.369 . S
C2191 C2200 1.429 . S
C2192 C2190 1.419 . S
C2192 C2193 1.363 . S
C2192 H2195 0.929 . S
C2193 C2192 1.363 . S
C2193 C2199 1.428 . S
H2194 C2190 0.930 . S
H2195 C2192 0.929 . S
S2196 N2197 1.613 . S
S2196 N2198 1.610 . S
N2197 S2196 1.613 . S
N2197 C2200 1.350 . S
N2198 S2196 1.610 . S
N2198 C2199 1.351 . S
C2199 C2193 1.428 . S
C2199 N2198 1.351 . S
C2199 C2200 1.434 . S
C2200 C2191 1.429 . S
C2200 N2197 1.350 . S
C2200 C2199 1.434 . S
C2201 C2202 1.369 . S
C2201 C2203 1.419 1_565 S
C2201 H2205 0.930 . S
C2202 C2201 1.369 . S
C2202 C2211 1.429 . S
C2203 C2201 1.419 1_545 S
C2203 C2204 1.363 . S
C2203 H2206 0.929 . S
C2204 C2203 1.363 . S
C2204 C2210 1.428 . S
H2205 C2201 0.930 . S
H2206 C2203 0.929 . S
S2207 N2208 1.613 . S
S2207 N2209 1.610 1_565 S
N2208 S2207 1.613 . S
N2208 C2211 1.350 . S
N2209 S2207 1.610 1_545 S
N2209 C2210 1.351 . S
C2210 C2204 1.428 . S
C2210 N2209 1.351 . S
C2210 C2211 1.434 1_545 S
C2211 C2202 1.429 . S
C2211 N2208 1.350 . S
C2211 C2210 1.434 1_565 S
C2212 C2213 1.369 . S
C2212 C2214 1.419 . S
C2212 H2216 0.930 . S
C2213 C2212 1.369 . S
C2213 C2222 1.429 . S
C2214 C2212 1.419 . S
C2214 C2215 1.363 . S
C2214 H2217 0.929 . S
C2215 C2214 1.363 . S
C2215 C2221 1.428 . S
H2216 C2212 0.930 . S
H2217 C2214 0.929 . S
S2218 N2219 1.613 . S
S2218 N2220 1.610 . S
N2219 S2218 1.613 . S
N2219 C2222 1.350 . S
N2220 S2218 1.610 . S
N2220 C2221 1.351 . S
C2221 C2215 1.428 . S
C2221 N2220 1.351 . S
C2221 C2222 1.434 . S
C2222 C2213 1.429 . S
C2222 N2219 1.350 . S
C2222 C2221 1.434 . S
C2223 C2224 1.369 . S
C2223 C2225 1.419 . S
C2223 H2227 0.930 . S
C2224 C2223 1.369 . S
C2224 C2233 1.429 . S
C2225 C2223 1.419 . S
C2225 C2226 1.363 . S
C2225 H2228 0.929 . S
C2226 C2225 1.363 . S
C2226 C2232 1.428 . S
H2227 C2223 0.930 . S
H2228 C2225 0.929 . S
S2229 N2230 1.613 . S
S2229 N2231 1.610 . S
N2230 S2229 1.613 . S
N2230 C2233 1.350 . S
N2231 S2229 1.610 . S
N2231 C2232 1.351 . S
C2232 C2226 1.428 . S
C2232 N2231 1.351 . S
C2232 C2233 1.434 . S
C2233 C2224 1.429 . S
C2233 N2230 1.350 . S
C2233 C2232 1.434 . S
C2234 C2235 1.369 . S
C2234 C2236 1.419 . S
C2234 H2238 0.930 . S
C2235 C2234 1.369 . S
C2235 C2244 1.429 . S
C2236 C2234 1.419 . S
C2236 C2237 1.363 . S
C2236 H2239 0.929 . S
C2237 C2236 1.363 . S
C2237 C2243 1.428 . S
H2238 C2234 0.930 . S
H2239 C2236 0.929 . S
S2240 N2241 1.613 . S
S2240 N2242 1.610 . S
N2241 S2240 1.613 . S
N2241 C2244 1.350 . S
N2242 S2240 1.610 . S
N2242 C2243 1.351 . S
C2243 C2237 1.428 . S
C2243 N2242 1.351 . S
C2243 C2244 1.434 . S
C2244 C2235 1.429 . S
C2244 N2241 1.350 . S
C2244 C2243 1.434 . S
C2245 C2246 1.369 1_556 S
C2245 C2247 1.419 1_545 S
C2245 H2249 0.930 . S
C2246 C2245 1.369 1_554 S
C2246 C2255 1.429 . S
C2247 C2245 1.419 1_565 S
C2247 C2248 1.363 . S
C2247 H2250 0.929 . S
C2248 C2247 1.363 . S
C2248 C2254 1.428 1_556 S
H2249 C2245 0.930 . S
H2250 C2247 0.929 . S
S2251 N2252 1.613 1_565 S
S2251 N2253 1.610 . S
N2252 S2251 1.613 1_545 S
N2252 C2255 1.350 . S
N2253 S2251 1.610 . S
N2253 C2254 1.351 . S
C2254 C2248 1.428 1_554 S
C2254 N2253 1.351 . S
C2254 C2255 1.434 1_565 S
C2255 C2246 1.429 . S
C2255 N2252 1.350 . S
C2255 C2254 1.434 1_545 S
C2256 C2257 1.369 1_655 S
C2256 C2258 1.419 . S
C2256 H2260 0.930 . S
C2257 C2256 1.369 1_455 S
C2257 C2266 1.429 . S
C2258 C2256 1.419 . S
C2258 C2259 1.363 1_655 S
C2258 H2261 0.929 . S
C2259 C2258 1.363 1_455 S
C2259 C2265 1.428 . S
H2260 C2256 0.930 . S
H2261 C2258 0.929 . S
S2262 N2263 1.613 . S
S2262 N2264 1.610 . S
N2263 S2262 1.613 . S
N2263 C2266 1.350 . S
N2264 S2262 1.610 . S
N2264 C2265 1.351 . S
C2265 C2259 1.428 . S
C2265 N2264 1.351 . S
C2265 C2266 1.434 . S
C2266 C2257 1.429 . S
C2266 N2263 1.350 . S
C2266 C2265 1.434 . S
C2267 C2268 1.369 . S
C2267 C2269 1.419 . S
C2267 H2271 0.930 . S
C2268 C2267 1.369 . S
C2268 C2277 1.429 . S
C2269 C2267 1.419 . S
C2269 C2270 1.363 . S
C2269 H2272 0.929 . S
C2270 C2269 1.363 . S
C2270 C2276 1.428 . S
H2271 C2267 0.930 . S
H2272 C2269 0.929 . S
S2273 N2274 1.613 . S
S2273 N2275 1.610 . S
N2274 S2273 1.613 . S
N2274 C2277 1.350 . S
N2275 S2273 1.610 . S
N2275 C2276 1.351 . S
C2276 C2270 1.428 . S
C2276 N2275 1.351 . S
C2276 C2277 1.434 . S
C2277 C2268 1.429 . S
C2277 N2274 1.350 . S
C2277 C2276 1.434 . S
C2278 C2279 1.369 1_455 S
C2278 C2280 1.419 . S
C2278 H2282 0.930 . S
C2279 C2278 1.369 1_655 S
C2279 C2288 1.429 . S
C2280 C2278 1.419 . S
C2280 C2281 1.363 1_455 S
C2280 H2283 0.929 . S
C2281 C2280 1.363 1_655 S
C2281 C2287 1.428 . S
H2282 C2278 0.930 . S
H2283 C2280 0.929 . S
S2284 N2285 1.613 . S
S2284 N2286 1.610 . S
N2285 S2284 1.613 . S
N2285 C2288 1.350 . S
N2286 S2284 1.610 . S
N2286 C2287 1.351 . S
C2287 C2281 1.428 . S
C2287 N2286 1.351 . S
C2287 C2288 1.434 . S
C2288 C2279 1.429 . S
C2288 N2285 1.350 . S
C2288 C2287 1.434 . S
C2289 C2290 1.369 . S
C2289 C2291 1.419 . S
C2289 H2293 0.930 . S
C2290 C2289 1.369 . S
C2290 C2299 1.429 . S
C2291 C2289 1.419 . S
C2291 C2292 1.363 . S
C2291 H2294 0.929 . S
C2292 C2291 1.363 . S
C2292 C2298 1.428 . S
H2293 C2289 0.930 . S
H2294 C2291 0.929 . S
S2295 N2296 1.613 . S
S2295 N2297 1.610 . S
N2296 S2295 1.613 . S
N2296 C2299 1.350 . S
N2297 S2295 1.610 . S
N2297 C2298 1.351 . S
C2298 C2292 1.428 . S
C2298 N2297 1.351 . S
C2298 C2299 1.434 . S
C2299 C2290 1.429 . S
C2299 N2296 1.350 . S
C2299 C2298 1.434 . S
C2300 C2301 1.369 . S
C2300 C2302 1.419 . S
C2300 H2304 0.930 . S
C2301 C2300 1.369 . S
C2301 C2310 1.429 1_455 S
C2302 C2300 1.419 . S
C2302 C2303 1.363 . S
C2302 H2305 0.929 . S
C2303 C2302 1.363 . S
C2303 C2309 1.428 1_455 S
H2304 C2300 0.930 . S
H2305 C2302 0.929 . S
S2306 N2307 1.613 . S
S2306 N2308 1.610 . S
N2307 S2306 1.613 . S
N2307 C2310 1.350 . S
N2308 S2306 1.610 . S
N2308 C2309 1.350 . S
C2309 C2303 1.428 1_655 S
C2309 N2308 1.350 . S
C2309 C2310 1.434 . S
C2310 C2301 1.429 1_655 S
C2310 N2307 1.350 . S
C2310 C2309 1.434 . S
C2311 C2312 1.369 . S
C2311 C2313 1.419 . S
C2311 H2315 0.930 . S
C2312 C2311 1.369 . S
C2312 C2321 1.429 . S
C2313 C2311 1.419 . S
C2313 C2314 1.363 . S
C2313 H2316 0.929 . S
C2314 C2313 1.363 . S
C2314 C2320 1.428 . S
H2315 C2311 0.930 . S
H2316 C2313 0.929 . S
S2317 N2318 1.613 . S
S2317 N2319 1.610 . S
N2318 S2317 1.613 . S
N2318 C2321 1.350 . S
N2319 S2317 1.610 . S
N2319 C2320 1.351 . S
C2320 C2314 1.428 . S
C2320 N2319 1.351 . S
C2320 C2321 1.434 . S
C2321 C2312 1.429 . S
C2321 N2318 1.350 . S
C2321 C2320 1.434 . S
C2322 C2323 1.369 . S
C2322 C2324 1.419 . S
C2322 H2326 0.930 . S
C2323 C2322 1.369 . S
C2323 C2332 1.429 1_655 S
C2324 C2322 1.419 . S
C2324 C2325 1.363 . S
C2324 H2327 0.929 . S
C2325 C2324 1.363 . S
C2325 C2331 1.428 1_655 S
H2326 C2322 0.930 . S
H2327 C2324 0.929 . S
S2328 N2329 1.613 . S
S2328 N2330 1.610 . S
N2329 S2328 1.613 . S
N2329 C2332 1.350 . S
N2330 S2328 1.610 . S
N2330 C2331 1.351 . S
C2331 C2325 1.428 1_455 S
C2331 N2330 1.351 . S
C2331 C2332 1.434 . S
C2332 C2323 1.429 1_455 S
C2332 N2329 1.350 . S
C2332 C2331 1.434 . S
C2333 C2334 1.369 . S
C2333 C2335 1.419 . S
C2333 H2337 0.930 . S
C2334 C2333 1.369 . S
C2334 C2343 1.429 . S
C2335 C2333 1.419 . S
C2335 C2336 1.363 . S
C2335 H2338 0.929 . S
C2336 C2335 1.363 . S
C2336 C2342 1.428 . S
H2337 C2333 0.930 . S
H2338 C2335 0.929 . S
S2339 N2340 1.613 . S
S2339 N2341 1.610 . S
N2340 S2339 1.613 . S
N2340 C2343 1.350 . S
N2341 S2339 1.610 . S
N2341 C2342 1.351 . S
C2342 C2336 1.428 . S
C2342 N2341 1.351 . S
C2342 C2343 1.434 . S
C2343 C2334 1.429 . S
C2343 N2340 1.350 . S
C2343 C2342 1.434 . S
C2344 C2345 1.369 . S
C2344 C2346 1.419 . S
C2344 H2348 0.930 . S
C2345 C2344 1.369 . S
C2345 C2354 1.429 . S
C2346 C2344 1.419 . S
C2346 C2347 1.363 . S
C2346 H2349 0.929 . S
C2347 C2346 1.363 . S
C2347 C2353 1.428 . S
H2348 C2344 0.930 . S
H2349 C2346 0.929 . S
S2350 N2351 1.613 . S
S2350 N2352 1.610 . S
N2351 S2350 1.613 . S
N2351 C2354 1.350 . S
N2352 S2350 1.610 . S
N2352 C2353 1.351 . S
C2353 C2347 1.428 . S
C2353 N2352 1.351 . S
C2353 C2354 1.434 . S
C2354 C2345 1.429 . S
C2354 N2351 1.350 . S
C2354 C2353 1.434 . S
C2355 C2356 1.369 . S
C2355 C2357 1.419 . S
C2355 H2359 0.930 . S
C2356 C2355 1.369 . S
C2356 C2365 1.429 . S
C2357 C2355 1.419 . S
C2357 C2358 1.363 . S
C2357 H2360 0.929 . S
C2358 C2357 1.363 . S
C2358 C2364 1.428 . S
H2359 C2355 0.930 . S
H2360 C2357 0.929 . S
S2361 N2362 1.613 . S
S2361 N2363 1.610 . S
N2362 S2361 1.613 . S
N2362 C2365 1.350 . S
N2363 S2361 1.610 . S
N2363 C2364 1.351 . S
C2364 C2358 1.428 . S
C2364 N2363 1.351 . S
C2364 C2365 1.434 . S
C2365 C2356 1.429 . S
C2365 N2362 1.350 . S
C2365 C2364 1.434 . S
C2366 C2367 1.369 . S
C2366 C2368 1.419 . S
C2366 H2370 0.930 . S
C2367 C2366 1.369 . S
C2367 C2376 1.429 . S
C2368 C2366 1.419 . S
C2368 C2369 1.363 . S
C2368 H2371 0.929 . S
C2369 C2368 1.363 . S
C2369 C2375 1.428 . S
H2370 C2366 0.930 . S
H2371 C2368 0.929 . S
S2372 N2373 1.613 . S
S2372 N2374 1.610 . S
N2373 S2372 1.613 . S
N2373 C2376 1.350 . S
N2374 S2372 1.610 . S
N2374 C2375 1.351 . S
C2375 C2369 1.428 . S
C2375 N2374 1.351 . S
C2375 C2376 1.434 . S
C2376 C2367 1.429 . S
C2376 N2373 1.350 . S
C2376 C2375 1.434 . S
C2377 C2378 1.369 . S
C2377 C2379 1.419 . S
C2377 H2381 0.930 . S
C2378 C2377 1.369 . S
C2378 C2387 1.429 . S
C2379 C2377 1.419 . S
C2379 C2380 1.363 . S
C2379 H2382 0.929 . S
C2380 C2379 1.363 . S
C2380 C2386 1.428 . S
H2381 C2377 0.930 . S
H2382 C2379 0.929 . S
S2383 N2384 1.613 . S
S2383 N2385 1.610 . S
N2384 S2383 1.613 . S
N2384 C2387 1.350 . S
N2385 S2383 1.610 . S
N2385 C2386 1.351 . S
C2386 C2380 1.428 . S
C2386 N2385 1.351 . S
C2386 C2387 1.434 . S
C2387 C2378 1.429 . S
C2387 N2384 1.350 . S
C2387 C2386 1.434 . S
C2388 C2389 1.369 . S
C2388 C2390 1.419 . S
C2388 H2392 0.930 . S
C2389 C2388 1.369 . S
C2389 C2398 1.429 . S
C2390 C2388 1.419 . S
C2390 C2391 1.363 . S
C2390 H2393 0.929 . S
C2391 C2390 1.363 . S
C2391 C2397 1.428 . S
H2392 C2388 0.930 . S
H2393 C2390 0.929 . S
S2394 N2395 1.613 . S
S2394 N2396 1.610 . S
N2395 S2394 1.613 . S
N2395 C2398 1.350 . S
N2396 S2394 1.610 . S
N2396 C2397 1.351 . S
C2397 C2391 1.428 . S
C2397 N2396 1.351 . S
C2397 C2398 1.434 . S
C2398 C2389 1.429 . S
C2398 N2395 1.350 . S
C2398 C2397 1.434 . S
C2399 C2400 1.369 . S
C2399 C2401 1.419 . S
C2399 H2403 0.930 . S
C2400 C2399 1.369 . S
C2400 C2409 1.429 . S
C2401 C2399 1.419 . S
C2401 C2402 1.363 . S
C2401 H2404 0.929 . S
C2402 C2401 1.363 . S
C2402 C2408 1.428 . S
H2403 C2399 0.930 . S
H2404 C2401 0.929 . S
S2405 N2406 1.613 . S
S2405 N2407 1.610 . S
N2406 S2405 1.613 . S
N2406 C2409 1.350 . S
N2407 S2405 1.610 . S
N2407 C2408 1.351 . S
C2408 C2402 1.428 . S
C2408 N2407 1.351 . S
C2408 C2409 1.434 . S
C2409 C2400 1.429 . S
C2409 N2406 1.350 . S
C2409 C2408 1.434 . S
C2410 C2411 1.369 . S
C2410 C2412 1.419 . S
C2410 H2414 0.930 . S
C2411 C2410 1.369 . S
C2411 C2420 1.429 . S
C2412 C2410 1.419 . S
C2412 C2413 1.363 . S
C2412 H2415 0.929 . S
C2413 C2412 1.363 . S
C2413 C2419 1.428 . S
H2414 C2410 0.930 . S
H2415 C2412 0.929 . S
S2416 N2417 1.613 . S
S2416 N2418 1.610 . S
N2417 S2416 1.613 . S
N2417 C2420 1.350 . S
N2418 S2416 1.610 . S
N2418 C2419 1.351 . S
C2419 C2413 1.428 . S
C2419 N2418 1.351 . S
C2419 C2420 1.434 . S
C2420 C2411 1.429 . S
C2420 N2417 1.350 . S
C2420 C2419 1.434 . S
C2421 C2422 1.369 . S
C2421 C2423 1.419 . S
C2421 H2425 0.930 . S
C2422 C2421 1.369 . S
C2422 C2431 1.429 . S
C2423 C2421 1.419 . S
C2423 C2424 1.363 . S
C2423 H2426 0.929 . S
C2424 C2423 1.363 . S
C2424 C2430 1.428 . S
H2425 C2421 0.930 . S
H2426 C2423 0.929 . S
S2427 N2428 1.613 . S
S2427 N2429 1.610 . S
N2428 S2427 1.613 . S
N2428 C2431 1.350 . S
N2429 S2427 1.610 . S
N2429 C2430 1.351 . S
C2430 C2424 1.428 . S
C2430 N2429 1.351 . S
C2430 C2431 1.434 . S
C2431 C2422 1.429 . S
C2431 N2428 1.350 . S
C2431 C2430 1.434 . S
C1025 C822 1.688 . S
C1027 C17 1.716 . S
C1036 C54 1.687 . S
C1038 C785 1.715 . S
C1047 C881 1.930 . S
C1049 C81 1.941 . S
C1058 C113 1.933 . S
C1060 C849 1.941 . S
C1069 C946 1.682 . S
C1071 C149 1.714 . S
C1080 C178 1.682 . S
C1082 C917 1.714 . S
C1091 C1013 1.930 . S
C1093 C213 1.940 . S
C1102 C245 1.931 . S
C1104 C981 1.940 . S
C1113 C273 1.715 . S
C1115 C566 1.685 . S
C1124 C310 1.686 . S
C1126 C529 1.715 . S
C1135 C625 1.930 . S
C1137 C337 1.941 . S
C1146 C369 1.930 . S
C1148 C593 1.941 . S
C1157 C405 1.713 . S
C1159 C690 1.682 . S
C1168 C661 1.716 . S
C1170 C434 1.686 . S
C1179 C757 1.933 . S
C1181 C469 1.941 . S
C1190 C725 1.940 . S
C1192 C501 1.931 . S
C1201 C948 1.902 . S
C1203 C18 1.960 . S
C1212 C52 1.638 . S
C1214 C146 1.594 . S
C1223 C82 1.551 . S
C1225 C754 1.525 . S
C1234 C114 1.769 . S
C1236 C466 1.718 . S
C1245 C816 1.897 . S
C1247 C150 1.960 . S
C1256 C22 1.602 . S
C1258 C176 1.633 . S
C1267 C630 1.528 . S
C1269 C214 1.550 . S
C1278 C246 1.773 . S
C1280 C342 1.715 . S
C1289 C692 1.915 . S
C1291 C274 1.958 . S
C1300 C402 1.600 . S
C1302 C308 1.637 . S
C1311 C338 1.550 . S
C1313 C1010 1.528 . S
C1322 C210 1.712 . S
C1324 C370 1.775 . S
C1333 C560 1.915 . S
C1335 C406 1.957 . S
C1344 C432 1.640 . S
C1346 C278 1.593 . S
C1355 C470 1.550 . S
C1357 C886 1.527 . S
C1366 C502 1.773 . S
C1368 C86 1.715 . S
C1377 C530 1.957 . S
C1379 C436 1.905 . S
C1388 C658 1.594 . S
C1390 C564 1.636 . S
C1399 C242 1.528 . S
C1401 C594 1.550 . S
C1410 C978 1.716 . S
C1412 C626 1.772 . S
C1421 C662 1.957 . S
C1423 C304 1.900 . S
C1432 C688 1.634 . S
C1434 C534 1.602 . S
C1443 C726 1.555 . S
C1445 C118 1.523 . S
C1454 C758 1.777 . S
C1456 C854 1.711 . S
C1465 C180 1.908 . S
C1467 C786 1.959 . S
C1476 C914 1.592 . S
C1478 C820 1.639 . S
C1487 C498 1.529 . S
C1489 C850 1.550 . S
C1498 C882 1.777 . S
C1500 C722 1.710 . S
C1509 C918 1.960 . S
C1511 C48 1.908 . S
C1520 C944 1.641 . S
C1522 C790 1.595 . S
C1531 C982 1.550 . S
C1533 C374 1.528 . S
C1542 C1014 1.776 . S
C1544 C598 1.711 . S
C1553 C211 1.198 . S
C1555 C19 1.247 1_455 S
C1564 C51 1.376 1_545 S
C1566 C1011 1.342 . S
C1575 C403 1.334 . S
C1577 C83 1.246 . S
C1586 C691 1.106 . S
C1588 C115 1.005 . S
C1597 C87 1.192 . S
C1599 C151 1.244 1_655 S
C1608 C183 1.371 1_565 S
C1610 C887 1.345 . S
C1619 C279 1.338 . S
C1621 C215 1.251 . S
C1630 C247 1.000 . S
C1632 C567 1.111 . S
C1641 C275 1.240 1_455 S
C1643 C467 1.202 . S
C1652 C755 1.345 . S
C1654 C307 1.371 . S
C1663 C339 1.254 . S
C1665 C147 1.337 . S
C1674 C947 1.105 . S
C1676 C371 1.008 . S
C1685 C407 1.246 1_655 S
C1687 C343 1.194 . S
C1696 C631 1.342 . S
C1698 C439 1.370 . S
C1707 C471 1.252 . S
C1709 C23 1.335 . S
C1718 C823 1.106 . S
C1720 C503 1.012 . S
C1729 C531 1.247 . S
C1731 C723 1.202 . S
C1740 C563 1.370 1_545 S
C1742 C499 1.343 . S
C1751 C915 1.341 . S
C1753 C595 1.245 . S
C1762 C627 0.994 . S
C1764 C179 1.111 . S
C1773 C599 1.202 . S
C1775 C663 1.246 . S
C1784 C695 1.373 1_565 S
C1786 C375 1.338 . S
C1795 C791 1.339 . S
C1797 C727 1.251 . S
C1806 C759 0.998 . S
C1808 C55 1.111 . S
C1817 C979 1.201 . S
C1819 C787 1.240 . S
C1828 C819 1.374 . S
C1830 C243 1.339 . S
C1839 C851 1.238 . S
C1841 C659 1.338 . S
C1850 C883 1.004 . S
C1852 C435 1.111 . S
C1861 C855 1.206 . S
C1863 C919 1.242 . S
C1872 C951 1.371 . S
C1874 C119 1.345 . S
C1883 C535 1.341 . S
C1885 C983 1.243 . S
C1894 C1015 1.011 . S
C1896 C311 1.105 . S
C1905 C117 1.625 . S
C1907 C21 1.645 . S
C1916 C85 1.589 . S
C1918 C50 1.524 . S
C1927 C145 1.653 . S
C1929 C241 1.619 . S
C1938 C209 1.589 . S
C1940 C182 1.524 . S
C1949 C373 1.626 . S
C1951 C277 1.648 . S
C1960 C306 1.524 . S
C1962 C341 1.588 . S
C1971 C497 1.623 . S
C1973 C401 1.651 . S
C1982 C465 1.586 . S
C1984 C438 1.526 . S
C1993 C533 1.645 . S
C1995 C629 1.622 . S
C2004 C597 1.582 . S
C2006 C562 1.524 . S
C2015 C657 1.651 . S
C2017 C753 1.624 . S
C2026 C721 1.581 . S
C2028 C694 1.519 . S
C2037 C885 1.627 . S
C2039 C789 1.647 . S
C2048 C818 1.527 . S
C2050 C853 1.584 . S
C2059 C913 1.653 . S
C2061 C1009 1.619 . S
C2070 C950 1.519 . S
C2072 C977 1.587 . S
C2081 C20 1.045 . S
C2083 C144 1.053 . S
C2092 C949 1.664 . S
C2094 C49 1.666 . S
C2103 C464 1.025 . S
C2105 C84 1.018 . S
C2114 C752 1.023 . S
C2116 C116 1.030 . S
C2125 C817 1.670 . S
C2127 C181 1.662 . S
C2136 C340 1.021 . S
C2138 C208 1.022 . S
C2147 C240 1.029 . S
C2149 C628 1.026 . S
C2158 C400 1.056 . S
C2160 C276 1.045 . S
C2169 C305 1.671 . S
C2171 C693 1.662 . S
C2180 C372 1.023 . S
C2182 C1008 1.030 . S
C2191 C437 1.662 . S
C2193 C561 1.668 . S
C2202 C884 1.023 . S
C2204 C496 1.031 . S
C2213 C656 1.054 . S
C2215 C532 1.046 . S
C2224 C976 1.018 . S
C2226 C596 1.023 . S
C2235 C720 1.028 . S
C2237 C852 1.016 . S
C2246 C912 1.056 . S
C2248 C788 1.045 . S
C2257 C80 1.692 . S
C2259 C16 1.681 1_455 S
C2268 C112 1.743 . S
C2270 C53 1.731 . S
C2279 C148 1.681 1_655 S
C2281 C212 1.691 . S
C2290 C177 1.731 . S
C2292 C244 1.744 . S
C2301 C336 1.685 . S
C2303 C272 1.686 1_455 S
C2312 C368 1.743 . S
C2314 C309 1.731 . S
C2323 C404 1.681 1_655 S
C2325 C468 1.687 . S
C2334 C500 1.742 . S
C2336 C433 1.729 . S
C2345 C592 1.690 . S
C2347 C528 1.680 . S
C2356 C565 1.729 . S
C2358 C624 1.743 . S
C2367 C724 1.684 . S
C2369 C660 1.684 . S
C2378 C689 1.732 . S
C2380 C756 1.744 . S
C2389 C784 1.679 . S
C2391 C848 1.691 . S
C2400 C821 1.730 . S
C2402 C880 1.743 . S
C2411 C980 1.690 . S
C2413 C916 1.680 . S
C2422 C1012 1.742 . S
C2424 C945 1.729 . S
