# Generated by pormake.
# Topology uoy, (4)-cn, num edge types: 1
# Building blocks:
#     Node 0, Type 0, BuildingBlock: NAHDIM_clean_sbu_0, # of connection points: 4
#     Node 1, Type 0, BuildingBlock: NAHDIM_clean_sbu_0, # of connection points: 4
#     Node 2, Type 0, BuildingBlock: NAHDIM_clean_sbu_0, # of connection points: 4
#     Node 3, Type 0, BuildingBlock: NAHDIM_clean_sbu_0, # of connection points: 4
#     Node 4, Type 0, BuildingBlock: NAHDIM_clean_sbu_0, # of connection points: 4
#     Node 5, Type 0, BuildingBlock: NAHDIM_clean_sbu_0, # of connection points: 4
#     Node 6, Type 0, BuildingBlock: NAHDIM_clean_sbu_0, # of connection points: 4
#     Node 7, Type 0, BuildingBlock: NAHDIM_clean_sbu_0, # of connection points: 4
#     Node 8, Type 0, BuildingBlock: NAHDIM_clean_sbu_0, # of connection points: 4
#     Node 9, Type 0, BuildingBlock: NAHDIM_clean_sbu_0, # of connection points: 4
#     Node 10, Type 0, BuildingBlock: NAHDIM_clean_sbu_0, # of connection points: 4
#     Node 11, Type 0, BuildingBlock: NAHDIM_clean_sbu_0, # of connection points: 4
#     Node 12, Type 0, BuildingBlock: NAHDIM_clean_sbu_0, # of connection points: 4
#     Node 13, Type 0, BuildingBlock: NAHDIM_clean_sbu_0, # of connection points: 4
#     Node 14, Type 0, BuildingBlock: NAHDIM_clean_sbu_0, # of connection points: 4
#     Node 15, Type 0, BuildingBlock: NAHDIM_clean_sbu_0, # of connection points: 4
#     Edge 16, Type (0, 0), BuildingBlock: EZIPEK_clean_linker_0, # of connection points: 2
#     Edge 17, Type (0, 0), BuildingBlock: EZIPEK_clean_linker_0, # of connection points: 2
#     Edge 18, Type (0, 0), BuildingBlock: EZIPEK_clean_linker_0, # of connection points: 2
#     Edge 19, Type (0, 0), BuildingBlock: EZIPEK_clean_linker_0, # of connection points: 2
#     Edge 20, Type (0, 0), BuildingBlock: EZIPEK_clean_linker_0, # of connection points: 2
#     Edge 21, Type (0, 0), BuildingBlock: EZIPEK_clean_linker_0, # of connection points: 2
#     Edge 22, Type (0, 0), BuildingBlock: EZIPEK_clean_linker_0, # of connection points: 2
#     Edge 23, Type (0, 0), BuildingBlock: EZIPEK_clean_linker_0, # of connection points: 2
#     Edge 24, Type (0, 0), BuildingBlock: EZIPEK_clean_linker_0, # of connection points: 2
#     Edge 25, Type (0, 0), BuildingBlock: EZIPEK_clean_linker_0, # of connection points: 2
#     Edge 26, Type (0, 0), BuildingBlock: EZIPEK_clean_linker_0, # of connection points: 2
#     Edge 27, Type (0, 0), BuildingBlock: EZIPEK_clean_linker_0, # of connection points: 2
#     Edge 28, Type (0, 0), BuildingBlock: EZIPEK_clean_linker_0, # of connection points: 2
#     Edge 29, Type (0, 0), BuildingBlock: EZIPEK_clean_linker_0, # of connection points: 2
#     Edge 30, Type (0, 0), BuildingBlock: EZIPEK_clean_linker_0, # of connection points: 2
#     Edge 31, Type (0, 0), BuildingBlock: EZIPEK_clean_linker_0, # of connection points: 2
#     Edge 32, Type (0, 0), BuildingBlock: EZIPEK_clean_linker_0, # of connection points: 2
#     Edge 33, Type (0, 0), BuildingBlock: EZIPEK_clean_linker_0, # of connection points: 2
#     Edge 34, Type (0, 0), BuildingBlock: EZIPEK_clean_linker_0, # of connection points: 2
#     Edge 35, Type (0, 0), BuildingBlock: EZIPEK_clean_linker_0, # of connection points: 2
#     Edge 36, Type (0, 0), BuildingBlock: EZIPEK_clean_linker_0, # of connection points: 2
#     Edge 37, Type (0, 0), BuildingBlock: EZIPEK_clean_linker_0, # of connection points: 2
#     Edge 38, Type (0, 0), BuildingBlock: EZIPEK_clean_linker_0, # of connection points: 2
#     Edge 39, Type (0, 0), BuildingBlock: EZIPEK_clean_linker_0, # of connection points: 2
#     Edge 40, Type (0, 0), BuildingBlock: EZIPEK_clean_linker_0, # of connection points: 2
#     Edge 41, Type (0, 0), BuildingBlock: EZIPEK_clean_linker_0, # of connection points: 2
#     Edge 42, Type (0, 0), BuildingBlock: EZIPEK_clean_linker_0, # of connection points: 2
#     Edge 43, Type (0, 0), BuildingBlock: EZIPEK_clean_linker_0, # of connection points: 2
#     Edge 44, Type (0, 0), BuildingBlock: EZIPEK_clean_linker_0, # of connection points: 2
#     Edge 45, Type (0, 0), BuildingBlock: EZIPEK_clean_linker_0, # of connection points: 2
#     Edge 46, Type (0, 0), BuildingBlock: EZIPEK_clean_linker_0, # of connection points: 2
#     Edge 47, Type (0, 0), BuildingBlock: EZIPEK_clean_linker_0, # of connection points: 2
# Relax obj value: 0.103
# Max RMSD: 0.145
# Mean RMSD: 0.145
data_MOF--net-uoy--node1-NAHDIM_clean_sbu_0--edge1-EZIPEK_clean_linker_0
_symmetry_space_group_name_H-M    P1
_symmetry_Int_Tables_number       1
_symmetry_cell_setting            triclinic
loop_
_symmetry_equiv_pos_as_xyz
'x, y, z'
_cell_length_a     20.933444
_cell_length_b     20.881493
_cell_length_c     73.568702
_cell_angle_alpha  90.01149
_cell_angle_beta   89.980247
_cell_angle_gamma 89.981604
loop_
_atom_site_label
_atom_site_type_symbol
_atom_site_fract_x
_atom_site_fract_y
_atom_site_fract_z
_atom_type_partial_charge
C0 C 0.11548 0.06139 0.17812 0.0
O1 O 0.11202 0.124 0.17691 0.0
O2 O 0.24938 0.13737 0.20367 0.0
Zn3 Zn 0.24741 0.0909 0.17975 0.0
O4 O 0.2405 0.15459 0.15949 0.0
C5 C 0.37913 0.05541 0.18531 0.0
O6 O 0.37796 0.10448 0.19647 0.0
O7 O 0.16971 0.03434 0.17932 0.0
C8 C 0.28218 0.19811 0.15743 0.0
O9 O 0.33359 0.19532 0.16761 0.0
C10 C 0.22596 0.19279 0.20623 0.0
O11 O 0.19656 0.22274 0.19295 0.0
O12 O 0.32874 0.03961 0.17674 0.0
C13 C 0.91609 0.60722 0.43146 0.0
O14 O 0.85342 0.60485 0.43126 0.0
O15 O 0.84987 0.74596 0.45856 0.0
Zn16 Zn 0.89127 0.74052 0.43405 0.0
O17 O 0.82778 0.74345 0.41376 0.0
C18 C 0.91821 0.87159 0.43434 0.0
O19 O 0.85705 0.8723 0.43828 0.0
O20 O 0.94422 0.66093 0.43247 0.0
C21 C 0.85137 0.74326 0.39785 0.0
O22 O 0.91348 0.73859 0.39573 0.0
C23 C 0.79896 0.72022 0.46446 0.0
O24 O 0.76397 0.68416 0.45376 0.0
O25 O 0.9463 0.8185 0.43167 0.0
C26 C 0.33933 0.43796 0.68443 0.0
O27 O 0.34194 0.37527 0.68567 0.0
O28 O 0.21615 0.35869 0.70899 0.0
Zn29 Zn 0.21012 0.40753 0.68558 0.0
O30 O 0.21141 0.34933 0.66414 0.0
C31 C 0.07774 0.42209 0.68882 0.0
O32 O 0.08315 0.36028 0.69176 0.0
O33 O 0.28539 0.46573 0.68388 0.0
C34 C 0.20487 0.37387 0.64846 0.0
O35 O 0.19698 0.43602 0.64682 0.0
C36 C 0.22791 0.29919 0.71002 0.0
O37 O 0.23776 0.26558 0.69519 0.0
O38 O 0.12733 0.45525 0.6856 0.0
C39 C 0.56777 0.8838 0.92727 0.0
O40 O 0.62662 0.88519 0.92111 0.0
O41 O 0.6456 0.75395 0.95765 0.0
Zn42 Zn 0.59908 0.75259 0.93389 0.0
O43 O 0.66183 0.75379 0.91319 0.0
C44 C 0.55941 0.62426 0.94261 0.0
O45 O 0.60859 0.62756 0.95364 0.0
O46 O 0.54423 0.83157 0.93307 0.0
C47 C 0.7023 0.70928 0.91076 0.0
O48 O 0.70413 0.66049 0.92201 0.0
C49 C 0.69064 0.79187 0.9618 0.0
O50 O 0.71051 0.83511 0.95017 0.0
O51 O 0.54517 0.67217 0.93271 0.0
C52 C 0.13671 0.43863 0.05816 0.0
O53 O 0.13424 0.37687 0.06144 0.0
O54 O 0.26411 0.34999 0.03657 0.0
Zn55 Zn 0.26607 0.40776 0.05828 0.0
O56 O 0.25823 0.3616 0.08208 0.0
C57 C 0.39807 0.43306 0.05105 0.0
O58 O 0.3955 0.37565 0.04381 0.0
O59 O 0.19054 0.46583 0.05623 0.0
C60 C 0.29591 0.31815 0.08757 0.0
O61 O 0.34284 0.29855 0.07711 0.0
C62 C 0.24265 0.29336 0.03526 0.0
O63 O 0.21782 0.26437 0.04942 0.0
O64 O 0.34827 0.4577 0.05805 0.0
C65 C 0.55706 0.60921 0.31586 0.0
O66 O 0.61688 0.60817 0.3212 0.0
O67 O 0.63232 0.74348 0.28687 0.0
Zn68 Zn 0.58701 0.74029 0.31073 0.0
O69 O 0.64837 0.73531 0.33164 0.0
C70 C 0.55713 0.87136 0.30444 0.0
O71 O 0.61223 0.86831 0.29597 0.0
O72 O 0.53178 0.66165 0.31084 0.0
C73 C 0.69229 0.77594 0.33449 0.0
O74 O 0.69995 0.82444 0.32336 0.0
C75 C 0.6754 0.70794 0.28014 0.0
O76 O 0.69909 0.66003 0.28952 0.0
O77 O 0.535 0.8218 0.31232 0.0
C78 C 0.393 0.0831 0.56478 0.0
O79 O 0.39238 0.14384 0.56013 0.0
O80 O 0.26837 0.14177 0.53808 0.0
Zn81 Zn 0.2606 0.10514 0.56337 0.0
O82 O 0.25712 0.17409 0.58251 0.0
C83 C 0.1314 0.05987 0.55613 0.0
O84 O 0.1298 0.10973 0.54531 0.0
O85 O 0.34052 0.05399 0.56744 0.0
C86 C 0.20525 0.2007 0.58733 0.0
O87 O 0.1515 0.1851 0.57929 0.0
C88 C 0.23917 0.19108 0.53236 0.0
O89 O 0.20481 0.22523 0.54373 0.0
O90 O 0.18193 0.0476 0.56512 0.0
C91 C 0.92587 0.87379 0.81273 0.0
O92 O 0.86322 0.87564 0.81194 0.0
O93 O 0.84687 0.74453 0.78848 0.0
Zn94 Zn 0.89992 0.74117 0.81112 0.0
O95 O 0.8438 0.73534 0.83306 0.0
C96 C 0.92323 0.60926 0.80666 0.0
O97 O 0.86118 0.61054 0.80404 0.0
O98 O 0.95437 0.82008 0.8126 0.0
C99 C 0.86923 0.73438 0.84871 0.0
O100 O 0.93158 0.73841 0.85031 0.0
C101 C 0.78723 0.75552 0.78829 0.0
O102 O 0.75672 0.76799 0.80348 0.0
O103 O 0.95285 0.66105 0.81005 0.0
C104 C 0.57667 0.57794 0.68566 0.0
O105 O 0.57784 0.6408 0.68533 0.0
O106 O 0.7142 0.6389 0.71317 0.0
Zn107 Zn 0.7095 0.59748 0.6886 0.0
O108 O 0.70849 0.66324 0.66886 0.0
C109 C 0.83708 0.55444 0.69465 0.0
O110 O 0.83653 0.60251 0.70615 0.0
O111 O 0.62857 0.54675 0.68696 0.0
C112 C 0.75359 0.70302 0.66671 0.0
O113 O 0.80408 0.69714 0.67717 0.0
C114 C 0.69472 0.69453 0.71738 0.0
O115 O 0.6654 0.73019 0.70527 0.0
O116 O 0.78727 0.54145 0.68547 0.0
C117 C 0.42492 0.11959 0.93316 0.0
O118 O 0.3624 0.11839 0.93458 0.0
O119 O 0.35359 0.24724 0.96 0.0
Zn120 Zn 0.40022 0.25184 0.93629 0.0
O121 O 0.34009 0.25698 0.91528 0.0
C122 C 0.42322 0.38359 0.94094 0.0
O123 O 0.36232 0.38101 0.94518 0.0
O124 O 0.45406 0.17298 0.93354 0.0
C125 C 0.36498 0.26448 0.89968 0.0
O126 O 0.42737 0.26823 0.8981 0.0
C127 C 0.2963 0.22914 0.9623 0.0
O128 O 0.26202 0.20953 0.94843 0.0
O129 O 0.45247 0.33258 0.93646 0.0
C130 C 0.88088 0.91643 0.18145 0.0
O131 O 0.88276 0.85808 0.18807 0.0
O132 O 0.75614 0.83703 0.2025 0.0
Zn133 Zn 0.74902 0.88552 0.17906 0.0
O134 O 0.74382 0.82524 0.15792 0.0
C135 C 0.61609 0.91782 0.17457 0.0
O136 O 0.61383 0.86091 0.16701 0.0
O137 O 0.82777 0.94018 0.17645 0.0
C138 C 0.77413 0.77263 0.15776 0.0
O139 O 0.80947 0.75603 0.17172 0.0
C140 C 0.71256 0.79899 0.20769 0.0
O141 O 0.66375 0.78739 0.19699 0.0
O142 O 0.66909 0.93974 0.1803 0.0
C143 C 0.06382 0.374 0.43185 0.0
O144 O 0.12568 0.37617 0.43471 0.0
O145 O 0.13508 0.23491 0.4543 0.0
Zn146 Zn 0.08824 0.23993 0.43063 0.0
O147 O 0.14836 0.23598 0.40954 0.0
C148 C 0.05798 0.10901 0.43145 0.0
O149 O 0.12007 0.10604 0.43374 0.0
O150 O 0.03639 0.3204 0.42957 0.0
C151 C 0.1234 0.23065 0.39389 0.0
O152 O 0.06093 0.23003 0.39225 0.0
C153 C 0.1908 0.25515 0.45797 0.0
O154 O 0.22554 0.28307 0.4454 0.0
O155 O 0.03098 0.16305 0.42956 0.0
C156 C 0.62908 0.94045 0.56746 0.0
O157 O 0.62368 0.8778 0.56781 0.0
O158 O 0.74174 0.85067 0.54346 0.0
Zn159 Zn 0.75661 0.90274 0.56617 0.0
O160 O 0.75082 0.85334 0.58952 0.0
C161 C 0.89217 0.92207 0.55864 0.0
O162 O 0.8897 0.86242 0.55313 0.0
O163 O 0.68427 0.96574 0.56691 0.0
C164 C 0.79248 0.81668 0.59653 0.0
O165 O 0.84545 0.80377 0.58769 0.0
C166 C 0.76701 0.79784 0.53886 0.0
O167 O 0.80141 0.76577 0.55069 0.0
O168 O 0.84187 0.94924 0.5646 0.0
C169 C 0.06829 0.11049 0.81338 0.0
O170 O 0.12977 0.10778 0.80989 0.0
O171 O 0.13945 0.22964 0.78804 0.0
Zn172 Zn 0.09946 0.24026 0.81278 0.0
O173 O 0.16451 0.23642 0.83289 0.0
C174 C 0.06063 0.36915 0.80336 0.0
O175 O 0.105 0.36292 0.79086 0.0
O176 O 0.04167 0.16456 0.81574 0.0
C177 C 0.19894 0.284 0.83727 0.0
O178 O 0.19436 0.33781 0.82815 0.0
C179 C 0.19793 0.23779 0.78406 0.0
O180 O 0.23562 0.262 0.79652 0.0
O181 O 0.04928 0.3231 0.8142 0.0
C182 C 0.8992 0.57766 0.0543 0.0
O183 O 0.89879 0.64046 0.05527 0.0
O184 O 0.7634 0.65559 0.03215 0.0
Zn185 Zn 0.76723 0.59982 0.05415 0.0
O186 O 0.76871 0.65215 0.07692 0.0
C187 C 0.6354 0.57348 0.05448 0.0
O188 O 0.63397 0.63628 0.05549 0.0
O189 O 0.8468 0.54726 0.05338 0.0
C190 C 0.76335 0.6233 0.09202 0.0
O191 O 0.75634 0.56084 0.09236 0.0
C192 C 0.76917 0.71605 0.0322 0.0
O193 O 0.78067 0.74682 0.04742 0.0
O194 O 0.68887 0.54474 0.05398 0.0
C195 C 0.41526 0.37249 0.31384 0.0
O196 O 0.35764 0.3717 0.32089 0.0
O197 O 0.33793 0.2382 0.28248 0.0
Zn198 Zn 0.38458 0.24198 0.3062 0.0
O199 O 0.32258 0.24472 0.32703 0.0
C200 C 0.41943 0.11098 0.30094 0.0
O201 O 0.36516 0.11102 0.29199 0.0
O202 O 0.43824 0.32198 0.30674 0.0
C203 C 0.28154 0.20143 0.33018 0.0
O204 O 0.2774 0.15136 0.31946 0.0
C205 C 0.29483 0.27665 0.2772 0.0
O206 O 0.27606 0.3238 0.28773 0.0
O207 O 0.43927 0.1625 0.30825 0.0
C208 C 0.23268 0.26083 0.11145 0.0
C209 C 0.28917 0.29377 0.10634 0.0
C210 C 0.32891 0.28595 0.13764 0.0
C211 C 0.27768 0.24394 0.14178 0.0
N212 N 0.16564 0.22567 0.13628 0.0
N213 N 0.3901 0.34165 0.11457 0.0
C214 C 0.22474 0.24127 0.12977 0.0
C215 C 0.33701 0.30767 0.11946 0.0
N216 N 0.1878 0.24562 0.09867 0.0
N217 N 0.36522 0.31059 0.1514 0.0
H218 H 0.39504 0.36363 0.10193 0.0
H219 H 0.43054 0.34571 0.12272 0.0
H220 H 0.35321 0.30432 0.16504 0.0
H221 H 0.40077 0.34477 0.14954 0.0
H222 H 0.14951 0.21507 0.10123 0.0
H223 H 0.19157 0.25909 0.08507 0.0
H224 H 0.1242 0.22763 0.12847 0.0
H225 H 0.15656 0.22058 0.15015 0.0
C226 C 0.77665 0.80996 0.37922 0.0
C227 C 0.80988 0.75143 0.38181 0.0
C228 C 0.77218 0.71265 0.35229 0.0
C229 C 0.7341 0.76853 0.35052 0.0
N230 N 0.6914 0.86561 0.36358 0.0
N231 N 0.83156 0.64288 0.37248 0.0
C232 C 0.73403 0.81605 0.36431 0.0
C233 C 0.8056 0.70156 0.36879 0.0
N234 N 0.78757 0.86057 0.3906 0.0
N235 N 0.7783 0.67138 0.33796 0.0
H236 H 0.85581 0.63282 0.38453 0.0
H237 H 0.82417 0.60263 0.36439 0.0
H238 H 0.75535 0.67842 0.32553 0.0
H239 H 0.81061 0.63346 0.33776 0.0
H240 H 0.77048 0.90661 0.38813 0.0
H241 H 0.81827 0.8581 0.40172 0.0
H242 H 0.68417 0.89756 0.37426 0.0
H243 H 0.65911 0.87171 0.35294 0.0
C244 C 0.16618 0.23309 0.61813 0.0
C245 C 0.2048 0.24614 0.60273 0.0
C246 C 0.24693 0.34185 0.61778 0.0
C247 C 0.20329 0.33205 0.63229 0.0
N248 N 0.11054 0.27715 0.64405 0.0
N249 N 0.27317 0.31918 0.58635 0.0
C250 C 0.15959 0.28029 0.6318 0.0
C251 C 0.24276 0.30237 0.60208 0.0
N252 N 0.1386 0.17429 0.62025 0.0
N253 N 0.29412 0.38678 0.61927 0.0
H254 H 0.27063 0.2919 0.57449 0.0
H255 H 0.296 0.36305 0.58456 0.0
H256 H 0.29944 0.41618 0.63062 0.0
H257 H 0.33141 0.39098 0.60996 0.0
H258 H 0.11493 0.16039 0.63207 0.0
H259 H 0.14589 0.1369 0.61113 0.0
H260 H 0.07379 0.24365 0.64313 0.0
H261 H 0.10269 0.31207 0.65394 0.0
C262 C 0.79195 0.67005 0.8671 0.0
C263 C 0.82878 0.72656 0.865 0.0
C264 C 0.79051 0.76597 0.89438 0.0
C265 C 0.74781 0.71335 0.89541 0.0
N266 N 0.70105 0.61968 0.88152 0.0
N267 N 0.85615 0.833 0.8751 0.0
C268 C 0.74684 0.6663 0.88148 0.0
C269 C 0.82642 0.77578 0.87825 0.0
N270 N 0.80147 0.61917 0.85571 0.0
N271 N 0.79844 0.80529 0.90905 0.0
H272 H 0.88217 0.84239 0.86332 0.0
H273 H 0.85023 0.87306 0.88337 0.0
H274 H 0.7741 0.79853 0.92126 0.0
H275 H 0.83362 0.84045 0.90978 0.0
H276 H 0.78105 0.57429 0.8578 0.0
H277 H 0.83442 0.61987 0.84507 0.0
H278 H 0.69341 0.58861 0.87066 0.0
H279 H 0.66693 0.61545 0.89174 0.0
C280 C 0.72417 0.75623 0.61848 0.0
C281 C 0.78106 0.7911 0.61502 0.0
C282 C 0.80726 0.78799 0.64756 0.0
C283 C 0.75485 0.74622 0.65043 0.0
N284 N 0.64645 0.72495 0.64103 0.0
N285 N 0.87752 0.84121 0.6262 0.0
C286 C 0.70798 0.7402 0.63661 0.0
C287 C 0.82285 0.80745 0.62955 0.0
N288 N 0.68699 0.73561 0.60436 0.0
N289 N 0.83761 0.81432 0.66221 0.0
H290 H 0.8886 0.86054 0.61356 0.0
H291 H 0.91389 0.84709 0.6357 0.0
H292 H 0.82072 0.80836 0.67545 0.0
H293 H 0.8732 0.84893 0.66128 0.0
H294 H 0.64886 0.7041 0.60606 0.0
H295 H 0.69799 0.74458 0.59077 0.0
H296 H 0.60929 0.72458 0.63161 0.0
H297 H 0.63057 0.7232 0.65445 0.0
C298 C 0.32959 0.22528 0.86909 0.0
C299 C 0.32393 0.27033 0.88345 0.0
C300 C 0.23309 0.32073 0.86818 0.0
C301 C 0.24225 0.27939 0.85309 0.0
N302 N 0.30546 0.19909 0.83777 0.0
N303 N 0.27956 0.36897 0.89501 0.0
C304 C 0.29223 0.23344 0.85314 0.0
C305 C 0.2783 0.32041 0.88253 0.0
N306 N 0.36881 0.17332 0.87096 0.0
N307 N 0.17958 0.35809 0.86924 0.0
H308 H 0.31271 0.37112 0.90557 0.0
H309 H 0.25187 0.41022 0.89385 0.0
H310 H 0.14412 0.35808 0.8593 0.0
H311 H 0.16714 0.3841 0.8808 0.0
H312 H 0.3691 0.1349 0.86193 0.0
H313 H 0.39755 0.16588 0.88232 0.0
H314 H 0.3458 0.17034 0.83634 0.0
H315 H 0.27908 0.20336 0.82583 0.0
C316 C 0.71088 0.66673 0.11996 0.0
C317 C 0.76656 0.65976 0.10915 0.0
C318 C 0.82672 0.72852 0.12997 0.0
C319 C 0.77224 0.73204 0.14138 0.0
N320 N 0.66588 0.69719 0.1491 0.0
N321 N 0.88 0.67422 0.10511 0.0
C322 C 0.71519 0.69903 0.13691 0.0
C323 C 0.82527 0.68791 0.1145 0.0
N324 N 0.65346 0.64465 0.11367 0.0
N325 N 0.87889 0.76594 0.13352 0.0
H326 H 0.88075 0.64496 0.09363 0.0
H327 H 0.9254 0.68739 0.10951 0.0
H328 H 0.88203 0.79598 0.14481 0.0
H329 H 0.91706 0.77115 0.12456 0.0
H330 H 0.60996 0.65441 0.11995 0.0
H331 H 0.64849 0.62064 0.10132 0.0
H332 H 0.62567 0.66842 0.14751 0.0
H333 H 0.66742 0.72054 0.16163 0.0
C334 C 0.16135 0.26956 0.3636 0.0
C335 C 0.16414 0.22311 0.37764 0.0
C336 C 0.24599 0.16358 0.36085 0.0
C337 C 0.23949 0.20727 0.34621 0.0
N338 N 0.18376 0.29526 0.33211 0.0
N339 N 0.2012 0.12064 0.38862 0.0
C340 C 0.19514 0.25851 0.34715 0.0
C341 C 0.20436 0.16866 0.37601 0.0
N342 N 0.12849 0.3254 0.36627 0.0
N343 N 0.29362 0.11877 0.3606 0.0
H344 H 0.17224 0.12283 0.40011 0.0
H345 H 0.22339 0.07637 0.38699 0.0
H346 H 0.32453 0.11287 0.34964 0.0
H347 H 0.30581 0.0908 0.37179 0.0
H348 H 0.13047 0.36408 0.35736 0.0
H349 H 0.10356 0.33548 0.37821 0.0
H350 H 0.14717 0.32894 0.33134 0.0
H351 H 0.20719 0.28812 0.31975 0.0
C352 C 0.20428 0.19305 0.23953 0.0
C353 C 0.23268 0.22307 0.22426 0.0
C354 C 0.28372 0.30191 0.2442 0.0
C355 C 0.26439 0.26517 0.25942 0.0
N356 N 0.20558 0.17682 0.27218 0.0
N357 N 0.30169 0.30433 0.21165 0.0
C358 C 0.22387 0.21132 0.25727 0.0
C359 C 0.27207 0.27788 0.22642 0.0
N360 N 0.15769 0.14805 0.23699 0.0
N361 N 0.31383 0.35925 0.24678 0.0
H362 H 0.29443 0.28825 0.19839 0.0
H363 H 0.33688 0.33939 0.21256 0.0
H364 H 0.32364 0.37756 0.25966 0.0
H365 H 0.32387 0.39126 0.23632 0.0
H366 H 0.13099 0.12816 0.2475 0.0
H367 H 0.14155 0.13481 0.2241 0.0
H368 H 0.1829 0.13254 0.27145 0.0
H369 H 0.2156 0.19144 0.28545 0.0
C370 C 0.76953 0.69157 0.49676 0.0
C371 C 0.77683 0.73806 0.48287 0.0
C372 C 0.77654 0.8236 0.50542 0.0
C373 C 0.7658 0.77778 0.51945 0.0
N374 N 0.73421 0.67021 0.52754 0.0
N375 N 0.7642 0.84773 0.4735 0.0
C376 C 0.7567 0.71226 0.51484 0.0
C377 C 0.77242 0.80389 0.48708 0.0
N378 N 0.77776 0.62809 0.49293 0.0
N379 N 0.7956 0.88471 0.50931 0.0
H380 H 0.75875 0.83427 0.45992 0.0
H381 H 0.75528 0.89608 0.47597 0.0
H382 H 0.80452 0.90144 0.52237 0.0
H383 H 0.81021 0.91695 0.49932 0.0
H384 H 0.78027 0.59291 0.50295 0.0
H385 H 0.78665 0.61108 0.47985 0.0
H386 H 0.72144 0.62323 0.52446 0.0
H387 H 0.72179 0.68421 0.54069 0.0
C388 C 0.17882 0.22744 0.73342 0.0
C389 C 0.22955 0.26832 0.72805 0.0
C390 C 0.27614 0.2608 0.75852 0.0
C391 C 0.21881 0.23191 0.76465 0.0
N392 N 0.13669 0.1565 0.75661 0.0
N393 N 0.32911 0.32142 0.73481 0.0
C394 C 0.17642 0.20536 0.75165 0.0
C395 C 0.2795 0.28362 0.74035 0.0
N396 N 0.13079 0.21324 0.72149 0.0
N397 N 0.32868 0.26153 0.76951 0.0
H398 H 0.33514 0.33575 0.72133 0.0
H399 H 0.36245 0.34114 0.74369 0.0
H400 H 0.33025 0.23631 0.78173 0.0
H401 H 0.37325 0.27829 0.76541 0.0
H402 H 0.08861 0.19047 0.72531 0.0
H403 H 0.13111 0.22786 0.70794 0.0
H404 H 0.10788 0.1316 0.74749 0.0
H405 H 0.13908 0.13535 0.76944 0.0
C406 C 0.69723 0.78253 0.01276 0.0
C407 C 0.75664 0.75101 0.01518 0.0
C408 C 0.77897 0.75805 0.98259 0.0
C409 C 0.71865 0.78764 0.98012 0.0
N410 N 0.62846 0.84376 0.99268 0.0
N411 N 0.86068 0.72292 0.00382 0.0
C412 C 0.68054 0.80525 0.99521 0.0
C413 C 0.79984 0.74366 0.0005 0.0
N414 N 0.6551 0.78703 0.02691 0.0
N415 N 0.81445 0.74052 0.96779 0.0
H416 H 0.87694 0.71243 0.0169 0.0
H417 H 0.89647 0.72152 0.994 0.0
H418 H 0.80121 0.75172 0.9545 0.0
H419 H 0.85518 0.71206 0.96855 0.0
H420 H 0.60797 0.80208 0.02544 0.0
H421 H 0.66597 0.77206 0.04007 0.0
H422 H 0.60204 0.86342 0.0033 0.0
H423 H 0.61516 0.86089 0.97991 0.0
C424 C 0.20531 0.29066 0.00328 0.0
C425 C 0.24286 0.26281 0.0172 0.0
C426 C 0.29738 0.19588 0.99476 0.0
C427 C 0.26887 0.23269 0.98075 0.0
N428 N 0.19632 0.31619 0.97128 0.0
N429 N 0.32413 0.18842 0.02678 0.0
C430 C 0.22185 0.27946 0.98484 0.0
C431 C 0.28789 0.21419 0.01317 0.0
N432 N 0.15407 0.32799 0.00782 0.0
N433 N 0.33344 0.14354 0.99035 0.0
H434 H 0.31717 0.19962 0.04046 0.0
H435 H 0.36312 0.15852 0.02451 0.0
H436 H 0.34062 0.12904 0.97692 0.0
H437 H 0.35123 0.11135 -0.0001 0.0
H438 H 0.12126 0.34534 -0.0016 0.0
H439 H 0.14094 0.33648 0.0213 0.0
H440 H 0.1679 0.35625 0.97365 0.0
H441 H 0.20668 0.30919 0.95757 0.0
C442 C 0.72123 0.78842 0.2592 0.0
C443 C 0.70014 0.72481 0.26196 0.0
C444 C 0.70475 0.70598 0.22914 0.0
C445 C 0.71346 0.7727 0.22636 0.0
N446 N 0.71977 0.87957 0.23913 0.0
N447 N 0.6676 0.62289 0.24955 0.0
C448 C 0.71989 0.81459 0.24147 0.0
C449 C 0.69159 0.68303 0.24696 0.0
N450 N 0.74234 0.82382 0.27362 0.0
N451 N 0.71018 0.66454 0.21484 0.0
H452 H 0.65823 0.60396 0.26238 0.0
H453 H 0.65307 0.59333 0.23892 0.0
H454 H 0.72112 0.67969 0.20169 0.0
H455 H 0.71015 0.61494 0.21635 0.0
H456 H 0.76358 0.86867 0.27218 0.0
H457 H 0.74493 0.80518 0.28676 0.0
H458 H 0.71739 0.91175 0.24993 0.0
H459 H 0.71515 0.90174 0.22652 0.0
C460 C 0.22267 0.17458 0.48091 0.0
C461 C 0.21794 0.23973 0.47595 0.0
C462 C 0.2467 0.27094 0.50694 0.0
C463 C 0.23825 0.20645 0.51264 0.0
N464 N 0.20923 0.09711 0.50477 0.0
N465 N 0.22277 0.35135 0.48415 0.0
C466 C 0.22479 0.15797 0.49955 0.0
C467 C 0.23002 0.28851 0.48887 0.0
N468 N 0.22534 0.12853 0.46773 0.0
N469 N 0.27212 0.31494 0.51863 0.0
H470 H 0.21185 0.36591 0.47095 0.0
H471 H 0.22354 0.38865 0.49355 0.0
H472 H 0.28707 0.30312 0.53173 0.0
H473 H 0.28457 0.36123 0.51472 0.0
H474 H 0.23481 0.0805 0.47049 0.0
H475 H 0.22535 0.13967 0.4539 0.0
H476 H 0.19167 0.06284 0.49577 0.0
H477 H 0.20751 0.08194 0.51819 0.0
C478 C 0.74767 0.77266 0.73857 0.0
C479 C 0.70754 0.71863 0.73592 0.0
C480 C 0.71278 0.69335 0.7684 0.0
C481 C 0.75214 0.74776 0.77105 0.0
N482 N 0.79321 0.84809 0.76005 0.0
N483 N 0.63874 0.63773 0.74865 0.0
C484 C 0.76492 0.79043 0.75655 0.0
C485 C 0.68577 0.68234 0.75099 0.0
N486 N 0.77283 0.80437 0.72397 0.0
N487 N 0.70423 0.65014 0.78215 0.0
H488 H 0.6179 0.62878 0.73605 0.0
H489 H 0.61627 0.61421 0.75938 0.0
H490 H 0.72264 0.65658 0.79519 0.0
H491 H 0.68273 0.60564 0.78032 0.0
H492 H 0.80817 0.83923 0.72512 0.0
H493 H 0.7623 0.79262 0.71054 0.0
H494 H 0.7986 0.88393 0.75033 0.0
H495 H 0.80542 0.86245 0.77319 0.0
C496 C 0.03514 -0.00206 0.19568 0.0
C497 C 0.05617 0.02319 0.17881 0.0
C498 C 0.96385 0.97548 0.16341 0.0
C499 C 0.94023 0.95467 0.1805 0.0
N500 N 0.94671 0.95565 0.21324 0.0
N501 N 0.03785 0.04356 0.14696 0.0
C502 C 0.97418 0.96826 0.19674 0.0
C503 C 0.01954 0.01443 0.16278 0.0
N504 N 0.07347 0.00218 0.21069 0.0
N505 N 0.9349 0.95541 0.14774 0.0
H506 H 0.08011 0.06966 0.14572 0.0
H507 H 0.00927 0.04539 0.13539 0.0
H508 H 0.89436 0.92639 0.14763 0.0
H509 H 0.95388 0.96296 0.13484 0.0
H510 H 0.06416 0.97828 0.22282 0.0
H511 H 0.11728 0.02592 0.21068 0.0
H512 H 0.96588 0.97069 0.22558 0.0
H513 H 0.90149 0.93524 0.2146 0.0
C514 C 0.98349 0.44666 0.44629 0.0
C515 C 0.02601 0.43366 0.43171 0.0
C516 C 0.99313 0.53254 0.41637 0.0
C517 C 0.95376 0.54748 0.43149 0.0
N518 N 0.91833 0.52517 0.46203 0.0
N519 N 0.07719 0.4659 0.40378 0.0
C520 C 0.95046 0.50611 0.44675 0.0
C521 C 0.03276 0.47728 0.41704 0.0
N522 N 0.97476 0.40218 0.45972 0.0
N523 N 0.9905 0.56975 0.40109 0.0
H524 H 0.1045 0.42419 0.4032 0.0
H525 H 0.0899 0.49929 0.39392 0.0
H526 H 0.96221 0.61072 0.40014 0.0
H527 H 0.01236 0.55773 0.38885 0.0
H528 H 0.93874 0.4051 0.46944 0.0
H529 H 0.00124 0.35999 0.4606 0.0
H530 H 0.9199 0.50067 0.47434 0.0
H531 H 0.89397 0.56863 0.46295 0.0
C532 C 0.44225 0.46968 0.66965 0.0
C533 C 0.39895 0.47566 0.68442 0.0
C534 C 0.47292 0.54781 0.70016 0.0
C535 C 0.51499 0.54382 0.68508 0.0
N536 N 0.53681 0.51017 0.65437 0.0
N537 N 0.3691 0.5236 0.71307 0.0
C538 C 0.49901 0.50704 0.66953 0.0
C539 C 0.41296 0.51604 0.69944 0.0
N540 N 0.42913 0.42807 0.65577 0.0
N541 N 0.49177 0.57954 0.71552 0.0
H542 H 0.32707 0.49703 0.71395 0.0
H543 H 0.37249 0.55843 0.72314 0.0
H544 H 0.53471 0.60448 0.71641 0.0
H545 H 0.46725 0.57805 0.72782 0.0
H546 H 0.46197 0.41538 0.64578 0.0
H547 H 0.38611 0.40324 0.65468 0.0
H548 H 0.52462 0.4902 0.64189 0.0
H549 H 0.57865 0.53723 0.6538 0.0
C550 C 0.5075 0.04357 0.94504 0.0
C551 C 0.46107 0.05893 0.93168 0.0
C552 C 0.48031 0.95614 0.91645 0.0
C553 C 0.53086 0.94382 0.92878 0.0
N554 N 0.59826 0.97817 0.95355 0.0
N555 N 0.40871 0.03464 0.90327 0.0
C556 C 0.54634 0.98842 0.94265 0.0
C557 C 0.44862 0.01634 0.91704 0.0
N558 N 0.51204 0.07966 0.96051 0.0
N559 N 0.46239 0.91015 0.90423 0.0
H560 H 0.38455 0.07826 0.90318 0.0
H561 H 0.40336 0.00908 0.89122 0.0
H562 H 0.48642 0.86667 0.90281 0.0
H563 H 0.42119 0.91311 0.89636 0.0
H564 H 0.54 0.06689 0.97163 0.0
H565 H 0.48318 0.11939 0.96305 0.0
H566 H 0.61649 0.01253 0.9624 0.0
H567 H 0.62604 0.93681 0.95291 0.0
C568 C 0.03749 0.48004 0.07286 0.0
C569 C 0.07704 0.47608 0.05724 0.0
C570 C 0.00233 0.54339 0.04014 0.0
C571 C 0.96023 0.54258 0.05526 0.0
N572 N 0.9333 0.50504 0.08534 0.0
N573 N 0.09395 0.49527 0.02527 0.0
C574 C 0.97641 0.50918 0.07141 0.0
C575 C 0.05889 0.50575 0.04068 0.0
N576 N 0.05959 0.45852 0.08926 0.0
N577 N 0.98823 0.58012 0.02528 0.0
H578 H 0.1355 0.4677 0.02509 0.0
H579 H 0.07937 0.50946 0.01236 0.0
H580 H 0.94557 0.6055 0.02394 0.0
H581 H 0.0204 0.58878 0.01477 0.0
H582 H 0.03607 0.46626 0.10153 0.0
H583 H 0.10453 0.43773 0.09092 0.0
H584 H 0.93915 0.475 0.09651 0.0
H585 H 0.88932 0.52844 0.08525 0.0
C586 C 0.50361 0.52181 0.29826 0.0
C587 C 0.52014 0.54906 0.31528 0.0
C588 C 0.4742 0.45681 0.33116 0.0
C589 C 0.45292 0.43225 0.31424 0.0
N590 N 0.43893 0.44469 0.28189 0.0
N591 N 0.51402 0.54829 0.34801 0.0
C592 C 0.46544 0.46556 0.29781 0.0
C593 C 0.50357 0.51809 0.33178 0.0
N594 N 0.52635 0.54839 0.28254 0.0
N595 N 0.4683 0.4205 0.34654 0.0
H596 H 0.53557 0.5932 0.34898 0.0
H597 H 0.49672 0.53148 0.36039 0.0
H598 H 0.44715 0.37527 0.3466 0.0
H599 H 0.48906 0.43258 0.35893 0.0
H600 H 0.52213 0.52673 0.26985 0.0
H601 H 0.55406 0.58989 0.2823 0.0
H602 H 0.44005 0.47087 0.26985 0.0
H603 H 0.41138 0.40323 0.28099 0.0
C604 C 0.5525 0.01118 0.55077 0.0
C605 C 0.57086 0.98046 0.56715 0.0
C606 C 0.47535 0.02214 0.58246 0.0
C607 C 0.45428 0.04801 0.56568 0.0
N608 N 0.46697 0.05922 0.53323 0.0
N609 N 0.54845 0.95107 0.59822 0.0
C610 C 0.49151 0.04087 0.54967 0.0
C611 C 0.53178 0.9842 0.5829 0.0
N612 N 0.59319 0.01167 0.53621 0.0
N613 N 0.44281 0.03609 0.5981 0.0
H614 H 0.5914 0.92611 0.59946 0.0
H615 H 0.51829 0.94525 0.60935 0.0
H616 H 0.40144 0.06395 0.59831 0.0
H617 H 0.45932 0.02461 0.61104 0.0
H618 H 0.58598 0.03969 0.52469 0.0
H619 H 0.63673 0.98743 0.53608 0.0
H620 H 0.48849 0.04883 0.52082 0.0
H621 H 0.42201 0.08011 0.53178 0.0
C622 C 0.03802 0.00674 0.82806 0.0
C623 C 0.03031 0.05094 0.81358 0.0
C624 C 0.95911 0.97615 0.79783 0.0
C625 C 0.96287 0.9341 0.81294 0.0
N626 N -0.00124 0.91183 0.84343 0.0
N627 N 0.97922 0.08195 0.78552 0.0
C628 C 0.00066 0.94988 0.82831 0.0
C629 C 0.98921 0.03705 0.79876 0.0
N630 N 0.08145 0.01898 0.84151 0.0
N631 N 0.9298 0.95629 0.78219 0.0
H632 H 0.00338 0.12558 0.78505 0.0
H633 H 0.94402 0.0779 0.77559 0.0
H634 H 0.90891 0.91124 0.78081 0.0
H635 H 0.93111 0.98171 0.77003 0.0
H636 H 0.09516 0.9854 0.85121 0.0
H637 H 0.10687 0.06182 0.84241 0.0
H638 H 0.01914 0.92432 0.85584 0.0
H639 H 0.97266 0.8694 0.84405 0.0
C640 C 0.52447 0.98161 0.16219 0.0
C641 C 0.55626 0.95431 0.17736 0.0
C642 C 0.46894 0.9884 0.19743 0.0
C643 C 0.43954 0.01978 0.18249 0.0
N644 N 0.44415 0.05613 0.15139 0.0
N645 N 0.56336 0.93688 0.20974 0.0
C646 C 0.46841 0.01882 0.16503 0.0
C647 C 0.53001 0.95959 0.1951 0.0
N648 N 0.54778 0.9718 0.14504 0.0
N649 N 0.43697 0.98338 0.21359 0.0
H650 H 0.60628 0.9119 0.20855 0.0
H651 H 0.55072 0.94616 0.22317 0.0
H652 H 0.39173 0.00291 0.21574 0.0
H653 H 0.45249 0.95533 0.22442 0.0
H654 H 0.52268 0.98352 0.13329 0.0
H655 H 0.59073 0.94816 0.14246 0.0
H656 H 0.46702 0.06319 0.13898 0.0
H657 H 0.4037 0.08475 0.15295 0.0
C658 C 0.96239 0.96876 0.44962 0.0
C659 C 0.95404 0.93233 0.43351 0.0
C660 C 0.01444 0.01175 0.41602 0.0
C661 C 0.01984 0.04972 0.43193 0.0
N662 N 0.99304 0.07006 0.46327 0.0
N663 N 0.96336 0.92193 0.40097 0.0
C664 C 0.99187 0.02995 0.44856 0.0
C665 C 0.97792 0.95441 0.41658 0.0
N666 N 0.94459 0.94354 0.46603 0.0
N667 N 0.04485 0.03032 0.40043 0.0
H668 H 0.93724 0.87942 0.40086 0.0
H669 H 0.97304 0.93912 0.38798 0.0
H670 H 0.06836 0.07411 0.39919 0.0
H671 H 0.04972 0.00123 0.38903 0.0
H672 H 0.95535 0.96448 0.47849 0.0
H673 H 0.92315 0.8987 0.46738 0.0
H674 H 0.96758 0.06178 0.47519 0.0
H675 H 0.01606 0.11436 0.46315 0.0
C676 C 0.98715 0.48092 0.67423 0.0
C677 C 0.01459 0.45317 0.68999 0.0
C678 C 0.91999 0.48209 0.70776 0.0
C679 C 0.89592 0.51616 0.69256 0.0
N680 N 0.90979 0.55563 0.66197 0.0
N681 N 0.01218 0.43457 0.72236 0.0
C682 C 0.93012 0.51738 0.6759 0.0
C683 C 0.98227 0.45537 0.70692 0.0
N684 N 0.01462 0.47085 0.65761 0.0
N685 N 0.88252 0.4737 0.7228 0.0
H686 H 0.05794 0.41479 0.72237 0.0
H687 H 0.994 0.44195 0.73536 0.0
H688 H 0.83635 0.49219 0.72384 0.0
H689 H 0.8947 0.44347 0.73351 0.0
H690 H 0.9932 0.48402 0.64539 0.0
H691 H 0.05637 0.44423 0.65587 0.0
H692 H 0.93669 0.56425 0.65031 0.0
H693 H 0.86817 0.583 0.6626 0.0
C694 C 0.48126 0.4718 0.92481 0.0
C695 C 0.45697 0.44578 0.94122 0.0
C696 C 0.49073 0.54189 0.95775 0.0
C697 C 0.52136 0.56454 0.94179 0.0
N698 N 0.55362 0.54727 0.91068 0.0
N699 N 0.446 0.45114 0.97384 0.0
C700 C 0.51855 0.52862 0.92542 0.0
C701 C 0.4635 0.47957 0.95785 0.0
N702 N 0.46674 0.44355 0.90855 0.0
N703 N 0.48567 0.58087 0.97262 0.0
H704 H 0.42625 0.40534 0.97451 0.0
H705 H 0.45609 0.47052 0.98657 0.0
H706 H 0.50433 0.62717 0.97299 0.0
H707 H 0.45776 0.56979 0.98391 0.0
H708 H 0.47714 0.46419 0.89601 0.0
H709 H 0.43912 0.40215 0.90752 0.0
H710 H 0.55955 0.51907 0.89912 0.0
H711 H 0.58117 0.58878 0.91053 0.0
C712 C 0.53123 0.54941 0.0391 0.0
C713 C 0.57507 0.53677 0.0534 0.0
C714 C 0.50605 0.45073 0.06465 0.0
C715 C 0.45933 0.46799 0.05159 0.0
N716 N 0.42349 0.53737 0.02746 0.0
N717 N 0.59953 0.48332 0.08165 0.0
C718 C 0.47065 0.51864 0.03917 0.0
C719 C 0.56141 0.48934 0.06665 0.0
N720 N 0.54873 0.58832 0.025 0.0
N721 N 0.49786 0.39708 0.07504 0.0
H722 H 0.63982 0.51158 0.08383 0.0
H723 H 0.58806 0.4546 0.09274 0.0
H724 H 0.45735 0.36824 0.07423 0.0
H725 H 0.5334 0.37816 0.08336 0.0
H726 H 0.52154 0.59421 0.01327 0.0
H727 H 0.59333 0.61037 0.02417 0.0
H728 H 0.42609 0.57868 0.01957 0.0
H729 H 0.37965 0.51387 0.02648 0.0
C730 C 0.47534 0.01947 0.28582 0.0
C731 C 0.45715 0.05108 0.3021 0.0
C732 C 0.50779 0.96611 0.3201 0.0
C733 C 0.52023 0.9317 0.30385 0.0
N734 N 0.50605 0.91973 0.27148 0.0
N735 N 0.44779 0.05063 0.33483 0.0
C736 C 0.5013 0.95676 0.28676 0.0
C737 C 0.47129 0.02349 0.31929 0.0
N738 N 0.47022 0.05042 0.2695 0.0
N739 N 0.53287 0.9453 0.33621 0.0
H740 H 0.42175 0.09311 0.33489 0.0
H741 H 0.44986 0.02857 0.34751 0.0
H742 H 0.55923 0.90315 0.33739 0.0
H743 H 0.53193 0.97225 0.34812 0.0
H744 H 0.48882 0.0324 0.2574 0.0
H745 H 0.45306 0.09713 0.26829 0.0
H746 H 0.4868 0.93284 0.25897 0.0
H747 H 0.52384 0.87306 0.27163 0.0
C748 C 0.98802 0.9623 0.54165 0.0
C749 C 0.95411 0.95646 0.55829 0.0
C750 C 0.0386 0.01606 0.57403 0.0
C751 C 0.07392 0.01876 0.55758 0.0
N752 N 0.08972 0.98153 0.52693 0.0
N753 N 0.95252 0.96664 0.59098 0.0
C754 C 0.05077 0.98801 0.54173 0.0
C755 C 0.98088 0.98026 0.57469 0.0
N756 N 0.9593 0.94592 0.52563 0.0
N757 N 0.05888 0.04967 0.58887 0.0
H758 H 0.91004 0.94098 0.59206 0.0
H759 H 0.97368 0.97608 0.6035 0.0
H760 H 0.10207 0.07418 0.58913 0.0
H761 H 0.0312 0.05661 0.60047 0.0
H762 H 0.97893 0.95582 0.51293 0.0
H763 H 0.91304 0.92785 0.52492 0.0
H764 H 0.07795 0.95416 0.51558 0.0
H765 H 0.13678 -0.00215 0.52681 0.0
C766 C 0.98977 0.52459 0.82165 0.0
C767 C 0.95793 0.54759 0.80594 0.0
C768 C 0.98584 0.44922 0.78957 0.0
C769 C 0.0236 0.42951 0.80456 0.0
N770 N 0.06919 0.4525 0.83398 0.0
N771 N 0.9335 0.53695 0.77402 0.0
C772 C 0.02753 0.4682 0.8204 0.0
C773 C 0.9579 0.51124 0.78964 0.0
N774 N 0.982 0.55519 0.83794 0.0
N775 N 0.97458 0.40772 0.77555 0.0
H776 H 0.91324 0.58255 0.77343 0.0
H777 H 0.93853 0.51555 0.76131 0.0
H778 H 0.99379 0.36165 0.77505 0.0
H779 H 0.94124 0.41658 0.76536 0.0
H780 H -0.00188 0.53661 0.85025 0.0
H781 H 0.95442 0.59644 0.83947 0.0
H782 H 0.0797 0.48265 0.84485 0.0
H783 H 0.09741 0.41151 0.83362 0.0
loop_
_geom_bond_atom_site_label_1
_geom_bond_atom_site_label_2
_geom_bond_distance
_geom_bond_site_symmetry_2
_ccdc_geom_bond_type
C0 O1 1.160 . S
C0 O7 1.185 . S
O1 C0 1.160 . S
O2 Zn3 1.899 . S
O2 C10 1.284 . S
Zn3 O2 1.899 . S
Zn3 O4 2.032 . S
Zn3 O7 2.086 . S
Zn3 O12 1.977 . S
O4 Zn3 2.032 . S
O4 C8 1.278 . S
C5 O6 1.203 . S
C5 O12 1.267 . S
O6 C5 1.203 . S
O7 C0 1.185 . S
O7 Zn3 2.086 . S
C8 O4 1.278 . S
C8 O9 1.211 . S
O9 C8 1.211 . S
C10 O2 1.284 . S
C10 O11 1.273 . S
O11 C10 1.273 . S
O12 Zn3 1.977 . S
O12 C5 1.267 . S
C13 O14 1.160 . S
C13 O20 1.185 . S
O14 C13 1.160 . S
O15 Zn16 1.899 . S
O15 C23 1.284 . S
Zn16 O15 1.899 . S
Zn16 O17 2.032 . S
Zn16 O20 2.086 . S
Zn16 O25 1.977 . S
O17 Zn16 2.032 . S
O17 C21 1.278 . S
C18 O19 1.203 . S
C18 O25 1.267 . S
O19 C18 1.203 . S
O20 C13 1.185 . S
O20 Zn16 2.086 . S
C21 O17 1.278 . S
C21 O22 1.211 . S
O22 C21 1.211 . S
C23 O15 1.284 . S
C23 O24 1.273 . S
O24 C23 1.273 . S
O25 Zn16 1.977 . S
O25 C18 1.267 . S
C26 O27 1.160 . S
C26 O33 1.185 . S
O27 C26 1.160 . S
O28 Zn29 1.899 . S
O28 C36 1.284 . S
Zn29 O28 1.899 . S
Zn29 O30 2.032 . S
Zn29 O33 2.086 . S
Zn29 O38 1.977 . S
O30 Zn29 2.032 . S
O30 C34 1.278 . S
C31 O32 1.203 . S
C31 O38 1.267 . S
O32 C31 1.203 . S
O33 C26 1.185 . S
O33 Zn29 2.086 . S
C34 O30 1.278 . S
C34 O35 1.211 . S
O35 C34 1.211 . S
C36 O28 1.284 . S
C36 O37 1.273 . S
O37 C36 1.273 . S
O38 Zn29 1.977 . S
O38 C31 1.267 . S
C39 O40 1.160 . S
C39 O46 1.185 . S
O40 C39 1.160 . S
O41 Zn42 1.899 . S
O41 C49 1.284 . S
Zn42 O41 1.899 . S
Zn42 O43 2.032 . S
Zn42 O46 2.086 . S
Zn42 O51 1.977 . S
O43 Zn42 2.032 . S
O43 C47 1.278 . S
C44 O45 1.203 . S
C44 O51 1.267 . S
O45 C44 1.203 . S
O46 C39 1.185 . S
O46 Zn42 2.086 . S
C47 O43 1.278 . S
C47 O48 1.211 . S
O48 C47 1.211 . S
C49 O41 1.284 . S
C49 O50 1.273 . S
O50 C49 1.273 . S
O51 Zn42 1.977 . S
O51 C44 1.267 . S
C52 O53 1.160 . S
C52 O59 1.185 . S
O53 C52 1.160 . S
O54 Zn55 1.899 . S
O54 C62 1.284 . S
Zn55 O54 1.899 . S
Zn55 O56 2.032 . S
Zn55 O59 2.086 . S
Zn55 O64 1.977 . S
O56 Zn55 2.032 . S
O56 C60 1.278 . S
C57 O58 1.203 . S
C57 O64 1.267 . S
O58 C57 1.203 . S
O59 C52 1.185 . S
O59 Zn55 2.086 . S
C60 O56 1.278 . S
C60 O61 1.211 . S
O61 C60 1.211 . S
C62 O54 1.284 . S
C62 O63 1.273 . S
O63 C62 1.273 . S
O64 Zn55 1.977 . S
O64 C57 1.267 . S
C65 O66 1.160 . S
C65 O72 1.185 . S
O66 C65 1.160 . S
O67 Zn68 1.899 . S
O67 C75 1.284 . S
Zn68 O67 1.899 . S
Zn68 O69 2.032 . S
Zn68 O72 2.086 . S
Zn68 O77 1.977 . S
O69 Zn68 2.032 . S
O69 C73 1.278 . S
C70 O71 1.203 . S
C70 O77 1.267 . S
O71 C70 1.203 . S
O72 C65 1.185 . S
O72 Zn68 2.086 . S
C73 O69 1.278 . S
C73 O74 1.211 . S
O74 C73 1.211 . S
C75 O67 1.284 . S
C75 O76 1.273 . S
O76 C75 1.273 . S
O77 Zn68 1.977 . S
O77 C70 1.267 . S
C78 O79 1.160 . S
C78 O85 1.185 . S
O79 C78 1.160 . S
O80 Zn81 1.899 . S
O80 C88 1.284 . S
Zn81 O80 1.899 . S
Zn81 O82 2.032 . S
Zn81 O85 2.086 . S
Zn81 O90 1.977 . S
O82 Zn81 2.032 . S
O82 C86 1.278 . S
C83 O84 1.203 . S
C83 O90 1.267 . S
O84 C83 1.203 . S
O85 C78 1.185 . S
O85 Zn81 2.086 . S
C86 O82 1.278 . S
C86 O87 1.211 . S
O87 C86 1.211 . S
C88 O80 1.284 . S
C88 O89 1.273 . S
O89 C88 1.273 . S
O90 Zn81 1.977 . S
O90 C83 1.267 . S
C91 O92 1.160 . S
C91 O98 1.185 . S
O92 C91 1.160 . S
O93 Zn94 1.899 . S
O93 C101 1.284 . S
Zn94 O93 1.899 . S
Zn94 O95 2.032 . S
Zn94 O98 2.086 . S
Zn94 O103 1.977 . S
O95 Zn94 2.032 . S
O95 C99 1.278 . S
C96 O97 1.203 . S
C96 O103 1.267 . S
O97 C96 1.203 . S
O98 C91 1.185 . S
O98 Zn94 2.086 . S
C99 O95 1.278 . S
C99 O100 1.211 . S
O100 C99 1.211 . S
C101 O93 1.284 . S
C101 O102 1.273 . S
O102 C101 1.273 . S
O103 Zn94 1.977 . S
O103 C96 1.267 . S
C104 O105 1.160 . S
C104 O111 1.185 . S
O105 C104 1.160 . S
O106 Zn107 1.899 . S
O106 C114 1.284 . S
Zn107 O106 1.899 . S
Zn107 O108 2.032 . S
Zn107 O111 2.086 . S
Zn107 O116 1.977 . S
O108 Zn107 2.032 . S
O108 C112 1.278 . S
C109 O110 1.203 . S
C109 O116 1.267 . S
O110 C109 1.203 . S
O111 C104 1.185 . S
O111 Zn107 2.086 . S
C112 O108 1.278 . S
C112 O113 1.211 . S
O113 C112 1.211 . S
C114 O106 1.284 . S
C114 O115 1.273 . S
O115 C114 1.273 . S
O116 Zn107 1.977 . S
O116 C109 1.267 . S
C117 O118 1.160 . S
C117 O124 1.185 . S
O118 C117 1.160 . S
O119 Zn120 1.899 . S
O119 C127 1.284 . S
Zn120 O119 1.899 . S
Zn120 O121 2.032 . S
Zn120 O124 2.086 . S
Zn120 O129 1.977 . S
O121 Zn120 2.032 . S
O121 C125 1.278 . S
C122 O123 1.203 . S
C122 O129 1.267 . S
O123 C122 1.203 . S
O124 C117 1.185 . S
O124 Zn120 2.086 . S
C125 O121 1.278 . S
C125 O126 1.211 . S
O126 C125 1.211 . S
C127 O119 1.284 . S
C127 O128 1.273 . S
O128 C127 1.273 . S
O129 Zn120 1.977 . S
O129 C122 1.267 . S
C130 O131 1.160 . S
C130 O137 1.185 . S
O131 C130 1.160 . S
O132 Zn133 1.899 . S
O132 C140 1.284 . S
Zn133 O132 1.899 . S
Zn133 O134 2.032 . S
Zn133 O137 2.086 . S
Zn133 O142 1.977 . S
O134 Zn133 2.032 . S
O134 C138 1.278 . S
C135 O136 1.203 . S
C135 O142 1.267 . S
O136 C135 1.203 . S
O137 C130 1.185 . S
O137 Zn133 2.086 . S
C138 O134 1.278 . S
C138 O139 1.211 . S
O139 C138 1.211 . S
C140 O132 1.284 . S
C140 O141 1.273 . S
O141 C140 1.273 . S
O142 Zn133 1.977 . S
O142 C135 1.267 . S
C143 O144 1.160 . S
C143 O150 1.185 . S
O144 C143 1.160 . S
O145 Zn146 1.899 . S
O145 C153 1.284 . S
Zn146 O145 1.899 . S
Zn146 O147 2.032 . S
Zn146 O150 2.086 . S
Zn146 O155 1.977 . S
O147 Zn146 2.032 . S
O147 C151 1.278 . S
C148 O149 1.203 . S
C148 O155 1.267 . S
O149 C148 1.203 . S
O150 C143 1.185 . S
O150 Zn146 2.086 . S
C151 O147 1.278 . S
C151 O152 1.211 . S
O152 C151 1.211 . S
C153 O145 1.284 . S
C153 O154 1.273 . S
O154 C153 1.273 . S
O155 Zn146 1.977 . S
O155 C148 1.267 . S
C156 O157 1.160 . S
C156 O163 1.185 . S
O157 C156 1.160 . S
O158 Zn159 1.899 . S
O158 C166 1.284 . S
Zn159 O158 1.899 . S
Zn159 O160 2.032 . S
Zn159 O163 2.086 . S
Zn159 O168 1.977 . S
O160 Zn159 2.032 . S
O160 C164 1.278 . S
C161 O162 1.203 . S
C161 O168 1.267 . S
O162 C161 1.203 . S
O163 C156 1.185 . S
O163 Zn159 2.086 . S
C164 O160 1.278 . S
C164 O165 1.211 . S
O165 C164 1.211 . S
C166 O158 1.284 . S
C166 O167 1.273 . S
O167 C166 1.273 . S
O168 Zn159 1.977 . S
O168 C161 1.267 . S
C169 O170 1.160 . S
C169 O176 1.185 . S
O170 C169 1.160 . S
O171 Zn172 1.899 . S
O171 C179 1.284 . S
Zn172 O171 1.899 . S
Zn172 O173 2.032 . S
Zn172 O176 2.086 . S
Zn172 O181 1.977 . S
O173 Zn172 2.032 . S
O173 C177 1.278 . S
C174 O175 1.203 . S
C174 O181 1.267 . S
O175 C174 1.203 . S
O176 C169 1.185 . S
O176 Zn172 2.086 . S
C177 O173 1.278 . S
C177 O178 1.211 . S
O178 C177 1.211 . S
C179 O171 1.284 . S
C179 O180 1.273 . S
O180 C179 1.273 . S
O181 Zn172 1.977 . S
O181 C174 1.267 . S
C182 O183 1.160 . S
C182 O189 1.185 . S
O183 C182 1.160 . S
O184 Zn185 1.899 . S
O184 C192 1.284 . S
Zn185 O184 1.899 . S
Zn185 O186 2.032 . S
Zn185 O189 2.086 . S
Zn185 O194 1.977 . S
O186 Zn185 2.032 . S
O186 C190 1.278 . S
C187 O188 1.203 . S
C187 O194 1.267 . S
O188 C187 1.203 . S
O189 C182 1.185 . S
O189 Zn185 2.086 . S
C190 O186 1.278 . S
C190 O191 1.211 . S
O191 C190 1.211 . S
C192 O184 1.284 . S
C192 O193 1.273 . S
O193 C192 1.273 . S
O194 Zn185 1.977 . S
O194 C187 1.267 . S
C195 O196 1.160 . S
C195 O202 1.185 . S
O196 C195 1.160 . S
O197 Zn198 1.899 . S
O197 C205 1.284 . S
Zn198 O197 1.899 . S
Zn198 O199 2.032 . S
Zn198 O202 2.086 . S
Zn198 O207 1.977 . S
O199 Zn198 2.032 . S
O199 C203 1.278 . S
C200 O201 1.203 . S
C200 O207 1.267 . S
O201 C200 1.203 . S
O202 C195 1.185 . S
O202 Zn198 2.086 . S
C203 O199 1.278 . S
C203 O204 1.211 . S
O204 C203 1.211 . S
C205 O197 1.284 . S
C205 O206 1.273 . S
O206 C205 1.273 . S
O207 Zn198 1.977 . S
O207 C200 1.267 . S
C208 C209 1.363 . S
C208 C214 1.379 . S
C208 N216 1.356 . S
C209 C208 1.363 . S
C209 C215 1.363 . S
C210 C211 1.363 . S
C210 C215 1.379 . S
C210 N217 1.356 . S
C211 C210 1.363 . S
C211 C214 1.363 . S
N212 C214 1.356 . S
N212 H224 0.984 . S
N212 H225 0.985 . S
N213 C215 1.356 . S
N213 H218 0.984 . S
N213 H219 0.985 . S
C214 C208 1.379 . S
C214 C211 1.363 . S
C214 N212 1.356 . S
C215 C209 1.363 . S
C215 C210 1.379 . S
C215 N213 1.356 . S
N216 C208 1.356 . S
N216 H222 0.984 . S
N216 H223 0.984 . S
N217 C210 1.356 . S
N217 H220 0.984 . S
N217 H221 0.985 . S
H218 N213 0.984 . S
H219 N213 0.985 . S
H220 N217 0.984 . S
H221 N217 0.985 . S
H222 N216 0.984 . S
H223 N216 0.984 . S
H224 N212 0.984 . S
H225 N212 0.985 . S
C226 C227 1.363 . S
C226 C232 1.379 . S
C226 N234 1.356 . S
C227 C226 1.363 . S
C227 C233 1.363 . S
C228 C229 1.363 . S
C228 C233 1.379 . S
C228 N235 1.356 . S
C229 C228 1.363 . S
C229 C232 1.363 . S
N230 C232 1.356 . S
N230 H242 0.984 . S
N230 H243 0.985 . S
N231 C233 1.356 . S
N231 H236 0.984 . S
N231 H237 0.985 . S
C232 C226 1.379 . S
C232 C229 1.363 . S
C232 N230 1.356 . S
C233 C227 1.363 . S
C233 C228 1.379 . S
C233 N231 1.356 . S
N234 C226 1.356 . S
N234 H240 0.984 . S
N234 H241 0.984 . S
N235 C228 1.356 . S
N235 H238 0.984 . S
N235 H239 0.985 . S
H236 N231 0.984 . S
H237 N231 0.985 . S
H238 N235 0.984 . S
H239 N235 0.985 . S
H240 N234 0.984 . S
H241 N234 0.984 . S
H242 N230 0.984 . S
H243 N230 0.985 . S
C244 C245 1.363 . S
C244 C250 1.379 . S
C244 N252 1.356 . S
C245 C244 1.363 . S
C245 C251 1.363 . S
C246 C247 1.363 . S
C246 C251 1.379 . S
C246 N253 1.356 . S
C247 C246 1.363 . S
C247 C250 1.363 . S
N248 C250 1.356 . S
N248 H260 0.984 . S
N248 H261 0.985 . S
N249 C251 1.356 . S
N249 H254 0.984 . S
N249 H255 0.985 . S
C250 C244 1.379 . S
C250 C247 1.363 . S
C250 N248 1.356 . S
C251 C245 1.363 . S
C251 C246 1.379 . S
C251 N249 1.356 . S
N252 C244 1.356 . S
N252 H258 0.984 . S
N252 H259 0.984 . S
N253 C246 1.356 . S
N253 H256 0.984 . S
N253 H257 0.985 . S
H254 N249 0.984 . S
H255 N249 0.985 . S
H256 N253 0.984 . S
H257 N253 0.985 . S
H258 N252 0.984 . S
H259 N252 0.984 . S
H260 N248 0.984 . S
H261 N248 0.985 . S
C262 C263 1.363 . S
C262 C268 1.379 . S
C262 N270 1.356 . S
C263 C262 1.363 . S
C263 C269 1.363 . S
C264 C265 1.363 . S
C264 C269 1.379 . S
C264 N271 1.356 . S
C265 C264 1.363 . S
C265 C268 1.363 . S
N266 C268 1.356 . S
N266 H278 0.984 . S
N266 H279 0.985 . S
N267 C269 1.356 . S
N267 H272 0.984 . S
N267 H273 0.985 . S
C268 C262 1.379 . S
C268 C265 1.363 . S
C268 N266 1.356 . S
C269 C263 1.363 . S
C269 C264 1.379 . S
C269 N267 1.356 . S
N270 C262 1.356 . S
N270 H276 0.984 . S
N270 H277 0.984 . S
N271 C264 1.356 . S
N271 H274 0.984 . S
N271 H275 0.985 . S
H272 N267 0.984 . S
H273 N267 0.985 . S
H274 N271 0.984 . S
H275 N271 0.985 . S
H276 N270 0.984 . S
H277 N270 0.984 . S
H278 N266 0.984 . S
H279 N266 0.985 . S
C280 C281 1.363 . S
C280 C286 1.379 . S
C280 N288 1.356 . S
C281 C280 1.363 . S
C281 C287 1.363 . S
C282 C283 1.363 . S
C282 C287 1.379 . S
C282 N289 1.356 . S
C283 C282 1.363 . S
C283 C286 1.363 . S
N284 C286 1.356 . S
N284 H296 0.984 . S
N284 H297 0.985 . S
N285 C287 1.356 . S
N285 H290 0.984 . S
N285 H291 0.985 . S
C286 C280 1.379 . S
C286 C283 1.363 . S
C286 N284 1.356 . S
C287 C281 1.363 . S
C287 C282 1.379 . S
C287 N285 1.356 . S
N288 C280 1.356 . S
N288 H294 0.984 . S
N288 H295 0.984 . S
N289 C282 1.356 . S
N289 H292 0.984 . S
N289 H293 0.985 . S
H290 N285 0.984 . S
H291 N285 0.985 . S
H292 N289 0.984 . S
H293 N289 0.985 . S
H294 N288 0.984 . S
H295 N288 0.984 . S
H296 N284 0.984 . S
H297 N284 0.985 . S
C298 C299 1.363 . S
C298 C304 1.379 . S
C298 N306 1.356 . S
C299 C298 1.363 . S
C299 C305 1.363 . S
C300 C301 1.363 . S
C300 C305 1.379 . S
C300 N307 1.356 . S
C301 C300 1.363 . S
C301 C304 1.363 . S
N302 C304 1.356 . S
N302 H314 0.984 . S
N302 H315 0.985 . S
N303 C305 1.356 . S
N303 H308 0.984 . S
N303 H309 0.985 . S
C304 C298 1.379 . S
C304 C301 1.363 . S
C304 N302 1.356 . S
C305 C299 1.363 . S
C305 C300 1.379 . S
C305 N303 1.356 . S
N306 C298 1.356 . S
N306 H312 0.984 . S
N306 H313 0.984 . S
N307 C300 1.356 . S
N307 H310 0.984 . S
N307 H311 0.985 . S
H308 N303 0.984 . S
H309 N303 0.985 . S
H310 N307 0.984 . S
H311 N307 0.985 . S
H312 N306 0.984 . S
H313 N306 0.984 . S
H314 N302 0.984 . S
H315 N302 0.985 . S
C316 C317 1.363 . S
C316 C322 1.379 . S
C316 N324 1.356 . S
C317 C316 1.363 . S
C317 C323 1.363 . S
C318 C319 1.363 . S
C318 C323 1.379 . S
C318 N325 1.356 . S
C319 C318 1.363 . S
C319 C322 1.363 . S
N320 C322 1.356 . S
N320 H332 0.984 . S
N320 H333 0.985 . S
N321 C323 1.356 . S
N321 H326 0.984 . S
N321 H327 0.985 . S
C322 C316 1.379 . S
C322 C319 1.363 . S
C322 N320 1.356 . S
C323 C317 1.363 . S
C323 C318 1.379 . S
C323 N321 1.356 . S
N324 C316 1.356 . S
N324 H330 0.984 . S
N324 H331 0.984 . S
N325 C318 1.356 . S
N325 H328 0.984 . S
N325 H329 0.985 . S
H326 N321 0.984 . S
H327 N321 0.985 . S
H328 N325 0.984 . S
H329 N325 0.985 . S
H330 N324 0.984 . S
H331 N324 0.984 . S
H332 N320 0.984 . S
H333 N320 0.985 . S
C334 C335 1.363 . S
C334 C340 1.379 . S
C334 N342 1.356 . S
C335 C334 1.363 . S
C335 C341 1.363 . S
C336 C337 1.363 . S
C336 C341 1.379 . S
C336 N343 1.356 . S
C337 C336 1.363 . S
C337 C340 1.363 . S
N338 C340 1.356 . S
N338 H350 0.984 . S
N338 H351 0.985 . S
N339 C341 1.356 . S
N339 H344 0.984 . S
N339 H345 0.985 . S
C340 C334 1.379 . S
C340 C337 1.363 . S
C340 N338 1.356 . S
C341 C335 1.363 . S
C341 C336 1.379 . S
C341 N339 1.356 . S
N342 C334 1.356 . S
N342 H348 0.984 . S
N342 H349 0.984 . S
N343 C336 1.356 . S
N343 H346 0.984 . S
N343 H347 0.985 . S
H344 N339 0.984 . S
H345 N339 0.985 . S
H346 N343 0.984 . S
H347 N343 0.985 . S
H348 N342 0.984 . S
H349 N342 0.984 . S
H350 N338 0.984 . S
H351 N338 0.985 . S
C352 C353 1.363 . S
C352 C358 1.379 . S
C352 N360 1.356 . S
C353 C352 1.363 . S
C353 C359 1.363 . S
C354 C355 1.363 . S
C354 C359 1.379 . S
C354 N361 1.356 . S
C355 C354 1.363 . S
C355 C358 1.363 . S
N356 C358 1.356 . S
N356 H368 0.984 . S
N356 H369 0.985 . S
N357 C359 1.356 . S
N357 H362 0.984 . S
N357 H363 0.985 . S
C358 C352 1.379 . S
C358 C355 1.363 . S
C358 N356 1.356 . S
C359 C353 1.363 . S
C359 C354 1.379 . S
C359 N357 1.356 . S
N360 C352 1.356 . S
N360 H366 0.984 . S
N360 H367 0.984 . S
N361 C354 1.356 . S
N361 H364 0.984 . S
N361 H365 0.985 . S
H362 N357 0.984 . S
H363 N357 0.985 . S
H364 N361 0.984 . S
H365 N361 0.985 . S
H366 N360 0.984 . S
H367 N360 0.984 . S
H368 N356 0.984 . S
H369 N356 0.985 . S
C370 C371 1.363 . S
C370 C376 1.379 . S
C370 N378 1.356 . S
C371 C370 1.363 . S
C371 C377 1.363 . S
C372 C373 1.363 . S
C372 C377 1.379 . S
C372 N379 1.356 . S
C373 C372 1.363 . S
C373 C376 1.363 . S
N374 C376 1.356 . S
N374 H386 0.984 . S
N374 H387 0.985 . S
N375 C377 1.356 . S
N375 H380 0.984 . S
N375 H381 0.985 . S
C376 C370 1.379 . S
C376 C373 1.363 . S
C376 N374 1.356 . S
C377 C371 1.363 . S
C377 C372 1.379 . S
C377 N375 1.356 . S
N378 C370 1.356 . S
N378 H384 0.984 . S
N378 H385 0.984 . S
N379 C372 1.356 . S
N379 H382 0.984 . S
N379 H383 0.985 . S
H380 N375 0.984 . S
H381 N375 0.985 . S
H382 N379 0.984 . S
H383 N379 0.985 . S
H384 N378 0.984 . S
H385 N378 0.984 . S
H386 N374 0.984 . S
H387 N374 0.985 . S
C388 C389 1.363 . S
C388 C394 1.379 . S
C388 N396 1.356 . S
C389 C388 1.363 . S
C389 C395 1.363 . S
C390 C391 1.363 . S
C390 C395 1.379 . S
C390 N397 1.356 . S
C391 C390 1.363 . S
C391 C394 1.363 . S
N392 C394 1.356 . S
N392 H404 0.984 . S
N392 H405 0.985 . S
N393 C395 1.356 . S
N393 H398 0.984 . S
N393 H399 0.985 . S
C394 C388 1.379 . S
C394 C391 1.363 . S
C394 N392 1.356 . S
C395 C389 1.363 . S
C395 C390 1.379 . S
C395 N393 1.356 . S
N396 C388 1.356 . S
N396 H402 0.984 . S
N396 H403 0.984 . S
N397 C390 1.356 . S
N397 H400 0.984 . S
N397 H401 0.985 . S
H398 N393 0.984 . S
H399 N393 0.985 . S
H400 N397 0.984 . S
H401 N397 0.985 . S
H402 N396 0.984 . S
H403 N396 0.984 . S
H404 N392 0.984 . S
H405 N392 0.985 . S
C406 C407 1.363 . S
C406 C412 1.379 1_554 S
C406 N414 1.356 . S
C407 C406 1.363 . S
C407 C413 1.363 . S
C408 C409 1.363 . S
C408 C413 1.379 1_556 S
C408 N415 1.356 . S
C409 C408 1.363 . S
C409 C412 1.363 . S
N410 C412 1.356 . S
N410 H422 0.984 . S
N410 H423 0.985 . S
N411 C413 1.356 . S
N411 H416 0.984 . S
N411 H417 0.985 . S
C412 C406 1.379 1_556 S
C412 C409 1.363 . S
C412 N410 1.356 . S
C413 C407 1.363 . S
C413 C408 1.379 1_554 S
C413 N411 1.356 . S
N414 C406 1.356 . S
N414 H420 0.984 . S
N414 H421 0.984 . S
N415 C408 1.356 . S
N415 H418 0.984 . S
N415 H419 0.985 . S
H416 N411 0.984 . S
H417 N411 0.985 . S
H418 N415 0.984 . S
H419 N415 0.985 . S
H420 N414 0.984 . S
H421 N414 0.984 . S
H422 N410 0.984 . S
H423 N410 0.985 . S
C424 C425 1.363 . S
C424 C430 1.379 1_554 S
C424 N432 1.356 . S
C425 C424 1.363 . S
C425 C431 1.363 . S
C426 C427 1.363 . S
C426 C431 1.379 1_556 S
C426 N433 1.356 . S
C427 C426 1.363 . S
C427 C430 1.363 . S
N428 C430 1.356 . S
N428 H440 0.984 . S
N428 H441 0.985 . S
N429 C431 1.356 . S
N429 H434 0.984 . S
N429 H435 0.985 . S
C430 C424 1.379 1_556 S
C430 C427 1.363 . S
C430 N428 1.356 . S
C431 C425 1.363 . S
C431 C426 1.379 1_554 S
C431 N429 1.356 . S
N432 C424 1.356 . S
N432 H438 0.984 . S
N432 H439 0.984 . S
N433 C426 1.356 . S
N433 H436 0.984 . S
N433 H437 0.985 . S
H434 N429 0.984 . S
H435 N429 0.985 . S
H436 N433 0.984 . S
H437 N433 0.985 . S
H438 N432 0.984 . S
H439 N432 0.984 . S
H440 N428 0.984 . S
H441 N428 0.985 . S
C442 C443 1.363 . S
C442 C448 1.379 . S
C442 N450 1.356 . S
C443 C442 1.363 . S
C443 C449 1.363 . S
C444 C445 1.363 . S
C444 C449 1.379 . S
C444 N451 1.356 . S
C445 C444 1.363 . S
C445 C448 1.363 . S
N446 C448 1.356 . S
N446 H458 0.984 . S
N446 H459 0.985 . S
N447 C449 1.356 . S
N447 H452 0.984 . S
N447 H453 0.985 . S
C448 C442 1.379 . S
C448 C445 1.363 . S
C448 N446 1.356 . S
C449 C443 1.363 . S
C449 C444 1.379 . S
C449 N447 1.356 . S
N450 C442 1.356 . S
N450 H456 0.984 . S
N450 H457 0.984 . S
N451 C444 1.356 . S
N451 H454 0.984 . S
N451 H455 0.985 . S
H452 N447 0.984 . S
H453 N447 0.985 . S
H454 N451 0.984 . S
H455 N451 0.985 . S
H456 N450 0.984 . S
H457 N450 0.984 . S
H458 N446 0.984 . S
H459 N446 0.985 . S
C460 C461 1.363 . S
C460 C466 1.379 . S
C460 N468 1.356 . S
C461 C460 1.363 . S
C461 C467 1.363 . S
C462 C463 1.363 . S
C462 C467 1.379 . S
C462 N469 1.356 . S
C463 C462 1.363 . S
C463 C466 1.363 . S
N464 C466 1.356 . S
N464 H476 0.984 . S
N464 H477 0.985 . S
N465 C467 1.356 . S
N465 H470 0.984 . S
N465 H471 0.985 . S
C466 C460 1.379 . S
C466 C463 1.363 . S
C466 N464 1.356 . S
C467 C461 1.363 . S
C467 C462 1.379 . S
C467 N465 1.356 . S
N468 C460 1.356 . S
N468 H474 0.984 . S
N468 H475 0.984 . S
N469 C462 1.356 . S
N469 H472 0.984 . S
N469 H473 0.985 . S
H470 N465 0.984 . S
H471 N465 0.985 . S
H472 N469 0.984 . S
H473 N469 0.985 . S
H474 N468 0.984 . S
H475 N468 0.984 . S
H476 N464 0.984 . S
H477 N464 0.985 . S
C478 C479 1.363 . S
C478 C484 1.379 . S
C478 N486 1.356 . S
C479 C478 1.363 . S
C479 C485 1.363 . S
C480 C481 1.363 . S
C480 C485 1.379 . S
C480 N487 1.356 . S
C481 C480 1.363 . S
C481 C484 1.363 . S
N482 C484 1.356 . S
N482 H494 0.984 . S
N482 H495 0.985 . S
N483 C485 1.356 . S
N483 H488 0.984 . S
N483 H489 0.985 . S
C484 C478 1.379 . S
C484 C481 1.363 . S
C484 N482 1.356 . S
C485 C479 1.363 . S
C485 C480 1.379 . S
C485 N483 1.356 . S
N486 C478 1.356 . S
N486 H492 0.984 . S
N486 H493 0.984 . S
N487 C480 1.356 . S
N487 H490 0.984 . S
N487 H491 0.985 . S
H488 N483 0.984 . S
H489 N483 0.985 . S
H490 N487 0.984 . S
H491 N487 0.985 . S
H492 N486 0.984 . S
H493 N486 0.984 . S
H494 N482 0.984 . S
H495 N482 0.985 . S
C496 C497 1.363 1_565 S
C496 C502 1.379 1_455 S
C496 N504 1.356 . S
C497 C496 1.363 1_545 S
C497 C503 1.363 . S
C498 C499 1.363 1_545 S
C498 C503 1.379 1_655 S
C498 N505 1.356 . S
C499 C498 1.363 1_565 S
C499 C502 1.363 . S
N500 C502 1.356 . S
N500 H512 0.984 . S
N500 H513 0.985 . S
N501 C503 1.356 . S
N501 H506 0.984 . S
N501 H507 0.985 . S
C502 C496 1.379 1_655 S
C502 C499 1.363 . S
C502 N500 1.356 . S
C503 C497 1.363 . S
C503 C498 1.379 1_455 S
C503 N501 1.356 . S
N504 C496 1.356 . S
N504 H510 0.984 . S
N504 H511 0.984 1_565 S
N505 C498 1.356 . S
N505 H508 0.984 1_545 S
N505 H509 0.985 . S
H506 N501 0.984 . S
H507 N501 0.985 . S
H508 N505 0.984 1_565 S
H509 N505 0.985 . S
H510 N504 0.984 . S
H511 N504 0.984 1_545 S
H512 N500 0.984 . S
H513 N500 0.985 . S
C514 C515 1.363 1_655 S
C514 C520 1.379 . S
C514 N522 1.356 . S
C515 C514 1.363 1_455 S
C515 C521 1.363 . S
C516 C517 1.363 1_455 S
C516 C521 1.379 . S
C516 N523 1.356 . S
C517 C516 1.363 1_655 S
C517 C520 1.363 . S
N518 C520 1.356 . S
N518 H530 0.984 . S
N518 H531 0.985 . S
N519 C521 1.356 . S
N519 H524 0.984 . S
N519 H525 0.985 . S
C520 C514 1.379 . S
C520 C517 1.363 . S
C520 N518 1.356 . S
C521 C515 1.363 . S
C521 C516 1.379 . S
C521 N519 1.356 . S
N522 C514 1.356 . S
N522 H528 0.984 . S
N522 H529 0.984 1_655 S
N523 C516 1.356 . S
N523 H526 0.985 1_455 S
N523 H527 0.985 . S
H524 N519 0.984 . S
H525 N519 0.985 . S
H526 N523 0.985 1_655 S
H527 N523 0.985 . S
H528 N522 0.984 . S
H529 N522 0.984 1_455 S
H530 N518 0.984 . S
H531 N518 0.985 . S
C532 C533 1.363 . S
C532 C538 1.379 . S
C532 N540 1.356 . S
C533 C532 1.363 . S
C533 C539 1.363 . S
C534 C535 1.363 . S
C534 C539 1.379 . S
C534 N541 1.356 . S
C535 C534 1.363 . S
C535 C538 1.363 . S
N536 C538 1.356 . S
N536 H548 0.984 . S
N536 H549 0.985 . S
N537 C539 1.356 . S
N537 H542 0.984 . S
N537 H543 0.985 . S
C538 C532 1.379 . S
C538 C535 1.363 . S
C538 N536 1.356 . S
C539 C533 1.363 . S
C539 C534 1.379 . S
C539 N537 1.356 . S
N540 C532 1.356 . S
N540 H546 0.984 . S
N540 H547 0.984 . S
N541 C534 1.356 . S
N541 H544 0.984 . S
N541 H545 0.985 . S
H542 N537 0.984 . S
H543 N537 0.985 . S
H544 N541 0.984 . S
H545 N541 0.985 . S
H546 N540 0.984 . S
H547 N540 0.984 . S
H548 N536 0.984 . S
H549 N536 0.985 . S
C550 C551 1.363 . S
C550 C556 1.379 1_545 S
C550 N558 1.356 . S
C551 C550 1.363 . S
C551 C557 1.363 . S
C552 C553 1.363 . S
C552 C557 1.379 1_565 S
C552 N559 1.356 . S
C553 C552 1.363 . S
C553 C556 1.363 . S
N554 C556 1.356 . S
N554 H566 0.984 . S
N554 H567 0.985 . S
N555 C557 1.356 . S
N555 H560 0.984 . S
N555 H561 0.985 . S
C556 C550 1.379 1_565 S
C556 C553 1.363 . S
C556 N554 1.356 . S
C557 C551 1.363 . S
C557 C552 1.379 1_545 S
C557 N555 1.356 . S
N558 C550 1.356 . S
N558 H564 0.984 . S
N558 H565 0.984 . S
N559 C552 1.356 . S
N559 H562 0.984 . S
N559 H563 0.985 . S
H560 N555 0.984 . S
H561 N555 0.985 . S
H562 N559 0.984 . S
H563 N559 0.985 . S
H564 N558 0.984 . S
H565 N558 0.984 . S
H566 N554 0.984 . S
H567 N554 0.985 . S
C568 C569 1.363 . S
C568 C574 1.379 1_455 S
C568 N576 1.356 . S
C569 C568 1.363 . S
C569 C575 1.363 . S
C570 C571 1.363 . S
C570 C575 1.379 1_655 S
C570 N577 1.356 . S
C571 C570 1.363 . S
C571 C574 1.363 . S
N572 C574 1.356 . S
N572 H584 0.984 . S
N572 H585 0.985 . S
N573 C575 1.356 . S
N573 H578 0.984 . S
N573 H579 0.985 . S
C574 C568 1.379 1_655 S
C574 C571 1.363 . S
C574 N572 1.356 . S
C575 C569 1.363 . S
C575 C570 1.379 1_455 S
C575 N573 1.356 . S
N576 C568 1.356 . S
N576 H582 0.984 . S
N576 H583 0.984 . S
N577 C570 1.356 . S
N577 H580 0.984 . S
N577 H581 0.985 . S
H578 N573 0.984 . S
H579 N573 0.985 . S
H580 N577 0.984 . S
H581 N577 0.985 . S
H582 N576 0.984 . S
H583 N576 0.984 . S
H584 N572 0.984 . S
H585 N572 0.985 . S
C586 C587 1.363 . S
C586 C592 1.379 . S
C586 N594 1.356 . S
C587 C586 1.363 . S
C587 C593 1.363 . S
C588 C589 1.363 . S
C588 C593 1.379 . S
C588 N595 1.356 . S
C589 C588 1.363 . S
C589 C592 1.363 . S
N590 C592 1.356 . S
N590 H602 0.984 . S
N590 H603 0.985 . S
N591 C593 1.356 . S
N591 H596 0.984 . S
N591 H597 0.985 . S
C592 C586 1.379 . S
C592 C589 1.363 . S
C592 N590 1.356 . S
C593 C587 1.363 . S
C593 C588 1.379 . S
C593 N591 1.356 . S
N594 C586 1.356 . S
N594 H600 0.984 . S
N594 H601 0.984 . S
N595 C588 1.356 . S
N595 H598 0.984 . S
N595 H599 0.985 . S
H596 N591 0.984 . S
H597 N591 0.985 . S
H598 N595 0.984 . S
H599 N595 0.985 . S
H600 N594 0.984 . S
H601 N594 0.984 . S
H602 N590 0.984 . S
H603 N590 0.985 . S
C604 C605 1.363 1_545 S
C604 C610 1.379 . S
C604 N612 1.356 . S
C605 C604 1.363 1_565 S
C605 C611 1.363 . S
C606 C607 1.363 1_565 S
C606 C611 1.379 . S
C606 N613 1.356 . S
C607 C606 1.363 1_545 S
C607 C610 1.363 . S
N608 C610 1.356 . S
N608 H620 0.984 . S
N608 H621 0.985 . S
N609 C611 1.356 . S
N609 H614 0.984 . S
N609 H615 0.985 . S
C610 C604 1.379 . S
C610 C607 1.363 . S
C610 N608 1.356 . S
C611 C605 1.363 . S
C611 C606 1.379 . S
C611 N609 1.356 . S
N612 C604 1.356 . S
N612 H618 0.984 . S
N612 H619 0.984 1_545 S
N613 C606 1.356 . S
N613 H616 0.985 1_565 S
N613 H617 0.985 . S
H614 N609 0.984 . S
H615 N609 0.985 . S
H616 N613 0.985 1_545 S
H617 N613 0.985 . S
H618 N612 0.984 . S
H619 N612 0.984 1_565 S
H620 N608 0.984 . S
H621 N608 0.985 . S
C622 C623 1.363 . S
C622 C628 1.379 1_545 S
C622 N630 1.356 . S
C623 C622 1.363 . S
C623 C629 1.363 1_455 S
C624 C625 1.363 . S
C624 C629 1.379 1_565 S
C624 N631 1.356 . S
C625 C624 1.363 . S
C625 C628 1.363 1_655 S
N626 C628 1.356 . S
N626 H638 0.984 . S
N626 H639 0.984 1_455 S
N627 C629 1.356 . S
N627 H632 0.985 1_655 S
N627 H633 0.985 . S
C628 C622 1.379 1_565 S
C628 C625 1.363 1_455 S
C628 N626 1.356 . S
C629 C623 1.363 1_655 S
C629 C624 1.379 1_545 S
C629 N627 1.356 . S
N630 C622 1.356 . S
N630 H636 0.984 . S
N630 H637 0.984 . S
N631 C624 1.356 . S
N631 H634 0.984 . S
N631 H635 0.985 . S
H632 N627 0.985 1_455 S
H633 N627 0.985 . S
H634 N631 0.984 . S
H635 N631 0.985 . S
H636 N630 0.984 . S
H637 N630 0.984 . S
H638 N626 0.984 . S
H639 N626 0.984 1_655 S
C640 C641 1.363 1_545 S
C640 C646 1.379 . S
C640 N648 1.356 . S
C641 C640 1.363 1_565 S
C641 C647 1.363 . S
C642 C643 1.363 1_565 S
C642 C647 1.379 . S
C642 N649 1.356 . S
C643 C642 1.363 1_545 S
C643 C646 1.363 . S
N644 C646 1.356 . S
N644 H656 0.984 . S
N644 H657 0.985 . S
N645 C647 1.356 . S
N645 H650 0.984 . S
N645 H651 0.985 . S
C646 C640 1.379 . S
C646 C643 1.363 . S
C646 N644 1.356 . S
C647 C641 1.363 . S
C647 C642 1.379 . S
C647 N645 1.356 . S
N648 C640 1.356 . S
N648 H654 0.984 . S
N648 H655 0.984 . S
N649 C642 1.356 . S
N649 H652 0.984 . S
N649 H653 0.985 . S
H650 N645 0.984 . S
H651 N645 0.985 . S
H652 N649 0.984 . S
H653 N649 0.985 . S
H654 N648 0.984 . S
H655 N648 0.984 . S
H656 N644 0.984 . S
H657 N644 0.985 . S
C658 C659 1.363 . S
C658 C664 1.379 1_565 S
C658 N666 1.356 . S
C659 C658 1.363 . S
C659 C665 1.363 1_655 S
C660 C661 1.363 . S
C660 C665 1.379 1_545 S
C660 N667 1.356 . S
C661 C660 1.363 . S
C661 C664 1.363 1_455 S
N662 C664 1.356 . S
N662 H674 0.984 . S
N662 H675 0.985 . S
N663 C665 1.356 . S
N663 H668 0.984 . S
N663 H669 0.985 . S
C664 C658 1.379 1_545 S
C664 C661 1.363 1_655 S
C664 N662 1.356 . S
C665 C659 1.363 1_455 S
C665 C660 1.379 1_565 S
C665 N663 1.356 . S
N666 C658 1.356 . S
N666 H672 0.984 . S
N666 H673 0.984 . S
N667 C660 1.356 . S
N667 H670 0.984 . S
N667 H671 0.985 . S
H668 N663 0.984 . S
H669 N663 0.985 . S
H670 N667 0.984 . S
H671 N667 0.985 . S
H672 N666 0.984 . S
H673 N666 0.984 . S
H674 N662 0.984 . S
H675 N662 0.985 . S
C676 C677 1.363 . S
C676 C682 1.379 1_455 S
C676 N684 1.356 . S
C677 C676 1.363 . S
C677 C683 1.363 . S
C678 C679 1.363 . S
C678 C683 1.379 1_655 S
C678 N685 1.356 . S
C679 C678 1.363 . S
C679 C682 1.363 . S
N680 C682 1.356 . S
N680 H692 0.984 . S
N680 H693 0.985 . S
N681 C683 1.356 . S
N681 H686 0.984 . S
N681 H687 0.985 . S
C682 C676 1.379 1_655 S
C682 C679 1.363 . S
C682 N680 1.356 . S
C683 C677 1.363 . S
C683 C678 1.379 1_455 S
C683 N681 1.356 . S
N684 C676 1.356 . S
N684 H690 0.984 . S
N684 H691 0.984 . S
N685 C678 1.356 . S
N685 H688 0.984 . S
N685 H689 0.985 . S
H686 N681 0.984 . S
H687 N681 0.985 . S
H688 N685 0.984 . S
H689 N685 0.985 . S
H690 N684 0.984 . S
H691 N684 0.984 . S
H692 N680 0.984 . S
H693 N680 0.985 . S
C694 C695 1.363 . S
C694 C700 1.379 . S
C694 N702 1.356 . S
C695 C694 1.363 . S
C695 C701 1.363 . S
C696 C697 1.363 . S
C696 C701 1.379 . S
C696 N703 1.356 . S
C697 C696 1.363 . S
C697 C700 1.363 . S
N698 C700 1.356 . S
N698 H710 0.984 . S
N698 H711 0.985 . S
N699 C701 1.356 . S
N699 H704 0.984 . S
N699 H705 0.985 . S
C700 C694 1.379 . S
C700 C697 1.363 . S
C700 N698 1.356 . S
C701 C695 1.363 . S
C701 C696 1.379 . S
C701 N699 1.356 . S
N702 C694 1.356 . S
N702 H708 0.984 . S
N702 H709 0.984 . S
N703 C696 1.356 . S
N703 H706 0.984 . S
N703 H707 0.985 . S
H704 N699 0.984 . S
H705 N699 0.985 . S
H706 N703 0.984 . S
H707 N703 0.985 . S
H708 N702 0.984 . S
H709 N702 0.984 . S
H710 N698 0.984 . S
H711 N698 0.985 . S
C712 C713 1.363 . S
C712 C718 1.379 . S
C712 N720 1.356 . S
C713 C712 1.363 . S
C713 C719 1.363 . S
C714 C715 1.363 . S
C714 C719 1.379 . S
C714 N721 1.356 . S
C715 C714 1.363 . S
C715 C718 1.363 . S
N716 C718 1.356 . S
N716 H728 0.984 . S
N716 H729 0.985 . S
N717 C719 1.356 . S
N717 H722 0.984 . S
N717 H723 0.985 . S
C718 C712 1.379 . S
C718 C715 1.363 . S
C718 N716 1.356 . S
C719 C713 1.363 . S
C719 C714 1.379 . S
C719 N717 1.356 . S
N720 C712 1.356 . S
N720 H726 0.984 . S
N720 H727 0.984 . S
N721 C714 1.356 . S
N721 H724 0.984 . S
N721 H725 0.985 . S
H722 N717 0.984 . S
H723 N717 0.985 . S
H724 N721 0.984 . S
H725 N721 0.985 . S
H726 N720 0.984 . S
H727 N720 0.984 . S
H728 N716 0.984 . S
H729 N716 0.985 . S
C730 C731 1.363 . S
C730 C736 1.379 1_545 S
C730 N738 1.356 . S
C731 C730 1.363 . S
C731 C737 1.363 . S
C732 C733 1.363 . S
C732 C737 1.379 1_565 S
C732 N739 1.356 . S
C733 C732 1.363 . S
C733 C736 1.363 . S
N734 C736 1.356 . S
N734 H746 0.984 . S
N734 H747 0.985 . S
N735 C737 1.356 . S
N735 H740 0.984 . S
N735 H741 0.985 . S
C736 C730 1.379 1_565 S
C736 C733 1.363 . S
C736 N734 1.356 . S
C737 C731 1.363 . S
C737 C732 1.379 1_545 S
C737 N735 1.356 . S
N738 C730 1.356 . S
N738 H744 0.984 . S
N738 H745 0.984 . S
N739 C732 1.356 . S
N739 H742 0.984 . S
N739 H743 0.985 . S
H740 N735 0.984 . S
H741 N735 0.985 . S
H742 N739 0.984 . S
H743 N739 0.985 . S
H744 N738 0.984 . S
H745 N738 0.984 . S
H746 N734 0.984 . S
H747 N734 0.985 . S
C748 C749 1.363 . S
C748 C754 1.379 1_655 S
C748 N756 1.356 . S
C749 C748 1.363 . S
C749 C755 1.363 1_565 S
C750 C751 1.363 . S
C750 C755 1.379 1_455 S
C750 N757 1.356 . S
C751 C750 1.363 . S
C751 C754 1.363 1_545 S
N752 C754 1.356 . S
N752 H764 0.984 . S
N752 H765 0.985 . S
N753 C755 1.356 . S
N753 H758 0.984 . S
N753 H759 0.985 . S
C754 C748 1.379 1_455 S
C754 C751 1.363 1_565 S
C754 N752 1.356 . S
C755 C749 1.363 1_545 S
C755 C750 1.379 1_655 S
C755 N753 1.356 . S
N756 C748 1.356 . S
N756 H762 0.984 . S
N756 H763 0.984 . S
N757 C750 1.356 . S
N757 H760 0.984 . S
N757 H761 0.985 . S
H758 N753 0.984 . S
H759 N753 0.985 . S
H760 N757 0.984 . S
H761 N757 0.985 . S
H762 N756 0.984 . S
H763 N756 0.984 . S
H764 N752 0.984 . S
H765 N752 0.985 . S
C766 C767 1.363 1_455 S
C766 C772 1.379 . S
C766 N774 1.356 . S
C767 C766 1.363 1_655 S
C767 C773 1.363 . S
C768 C769 1.363 1_655 S
C768 C773 1.379 . S
C768 N775 1.356 . S
C769 C768 1.363 1_455 S
C769 C772 1.363 . S
N770 C772 1.356 . S
N770 H782 0.984 . S
N770 H783 0.985 . S
N771 C773 1.356 . S
N771 H776 0.984 . S
N771 H777 0.985 . S
C772 C766 1.379 . S
C772 C769 1.363 . S
C772 N770 1.356 . S
C773 C767 1.363 . S
C773 C768 1.379 . S
C773 N771 1.356 . S
N774 C766 1.356 . S
N774 H780 0.984 . S
N774 H781 0.984 . S
N775 C768 1.356 . S
N775 H778 0.984 . S
N775 H779 0.985 . S
H776 N771 0.984 . S
H777 N771 0.985 . S
H778 N775 0.984 . S
H779 N775 0.985 . S
H780 N774 0.984 . S
H781 N774 0.984 . S
H782 N770 0.984 . S
H783 N770 0.985 . S
C209 C60 1.176 . S
C211 C8 1.176 . S
C227 C21 1.177 . S
C229 C73 1.177 . S
C245 C86 1.177 . S
C247 C34 1.177 . S
C263 C99 1.176 . S
C265 C47 1.176 . S
C281 C164 1.176 . S
C283 C112 1.176 . S
C299 C125 1.177 . S
C301 C177 1.177 . S
C317 C190 1.177 . S
C319 C138 1.177 . S
C335 C151 1.176 . S
C337 C203 1.176 . S
C353 C10 1.345 . S
C355 C205 1.345 . S
C371 C23 1.345 . S
C373 C166 1.345 . S
C389 C36 1.345 . S
C391 C179 1.345 . S
C407 C192 1.345 . S
C409 C49 1.345 . S
C425 C62 1.345 . S
C427 C127 1.345 . S
C443 C75 1.345 . S
C445 C140 1.345 . S
C461 C153 1.345 . S
C463 C88 1.345 . S
C479 C114 1.345 . S
C481 C101 1.345 . S
C497 C0 1.473 . S
C499 C130 1.473 . S
C515 C143 1.473 . S
C517 C13 1.473 . S
C533 C26 1.473 . S
C535 C104 1.473 . S
C551 C117 1.473 . S
C553 C39 1.473 . S
C569 C52 1.473 . S
C571 C182 1.473 . S
C587 C65 1.473 . S
C589 C195 1.473 . S
C605 C156 1.473 . S
C607 C78 1.473 . S
C623 C169 1.473 . S
C625 C91 1.473 . S
C641 C135 1.442 . S
C643 C5 1.442 . S
C659 C18 1.442 . S
C661 C148 1.442 . S
C677 C31 1.442 . S
C679 C109 1.442 . S
C695 C122 1.442 . S
C697 C44 1.442 . S
C713 C187 1.442 . S
C715 C57 1.442 . S
C731 C200 1.442 . S
C733 C70 1.442 . S
C749 C161 1.442 . S
C751 C83 1.442 . S
C767 C96 1.442 . S
C769 C174 1.442 . S
