# Generated by pormake.
# Topology wjd, (6)-cn, num edge types: 1
# Building blocks:
#     Node 0, Type 0, BuildingBlock: PAMTOO_clean_sbu_0, # of connection points: 6
#     Node 1, Type 0, BuildingBlock: PAMTOO_clean_sbu_0, # of connection points: 6
#     Node 2, Type 0, BuildingBlock: PAMTOO_clean_sbu_0, # of connection points: 6
#     Node 3, Type 0, BuildingBlock: PAMTOO_clean_sbu_0, # of connection points: 6
#     Node 4, Type 0, BuildingBlock: PAMTOO_clean_sbu_0, # of connection points: 6
#     Node 5, Type 0, BuildingBlock: PAMTOO_clean_sbu_0, # of connection points: 6
#     Node 6, Type 0, BuildingBlock: PAMTOO_clean_sbu_0, # of connection points: 6
#     Node 7, Type 0, BuildingBlock: PAMTOO_clean_sbu_0, # of connection points: 6
#     Node 8, Type 0, BuildingBlock: PAMTOO_clean_sbu_0, # of connection points: 6
#     Node 9, Type 0, BuildingBlock: PAMTOO_clean_sbu_0, # of connection points: 6
#     Node 10, Type 0, BuildingBlock: PAMTOO_clean_sbu_0, # of connection points: 6
#     Node 11, Type 0, BuildingBlock: PAMTOO_clean_sbu_0, # of connection points: 6
#     Edge 12, Type (0, 0), BuildingBlock: CIFDUS_clean_linker_0, # of connection points: 2
#     Edge 13, Type (0, 0), BuildingBlock: CIFDUS_clean_linker_0, # of connection points: 2
#     Edge 14, Type (0, 0), BuildingBlock: CIFDUS_clean_linker_0, # of connection points: 2
#     Edge 15, Type (0, 0), BuildingBlock: CIFDUS_clean_linker_0, # of connection points: 2
#     Edge 16, Type (0, 0), BuildingBlock: CIFDUS_clean_linker_0, # of connection points: 2
#     Edge 17, Type (0, 0), BuildingBlock: CIFDUS_clean_linker_0, # of connection points: 2
#     Edge 18, Type (0, 0), BuildingBlock: CIFDUS_clean_linker_0, # of connection points: 2
#     Edge 19, Type (0, 0), BuildingBlock: CIFDUS_clean_linker_0, # of connection points: 2
#     Edge 20, Type (0, 0), BuildingBlock: CIFDUS_clean_linker_0, # of connection points: 2
#     Edge 21, Type (0, 0), BuildingBlock: CIFDUS_clean_linker_0, # of connection points: 2
#     Edge 22, Type (0, 0), BuildingBlock: CIFDUS_clean_linker_0, # of connection points: 2
#     Edge 23, Type (0, 0), BuildingBlock: CIFDUS_clean_linker_0, # of connection points: 2
#     Edge 24, Type (0, 0), BuildingBlock: CIFDUS_clean_linker_0, # of connection points: 2
#     Edge 25, Type (0, 0), BuildingBlock: CIFDUS_clean_linker_0, # of connection points: 2
#     Edge 26, Type (0, 0), BuildingBlock: CIFDUS_clean_linker_0, # of connection points: 2
#     Edge 27, Type (0, 0), BuildingBlock: CIFDUS_clean_linker_0, # of connection points: 2
#     Edge 28, Type (0, 0), BuildingBlock: CIFDUS_clean_linker_0, # of connection points: 2
#     Edge 29, Type (0, 0), BuildingBlock: CIFDUS_clean_linker_0, # of connection points: 2
#     Edge 30, Type (0, 0), BuildingBlock: CIFDUS_clean_linker_0, # of connection points: 2
#     Edge 31, Type (0, 0), BuildingBlock: CIFDUS_clean_linker_0, # of connection points: 2
#     Edge 32, Type (0, 0), BuildingBlock: CIFDUS_clean_linker_0, # of connection points: 2
#     Edge 33, Type (0, 0), BuildingBlock: CIFDUS_clean_linker_0, # of connection points: 2
#     Edge 34, Type (0, 0), BuildingBlock: CIFDUS_clean_linker_0, # of connection points: 2
#     Edge 35, Type (0, 0), BuildingBlock: CIFDUS_clean_linker_0, # of connection points: 2
#     Edge 36, Type (0, 0), BuildingBlock: CIFDUS_clean_linker_0, # of connection points: 2
#     Edge 37, Type (0, 0), BuildingBlock: CIFDUS_clean_linker_0, # of connection points: 2
#     Edge 38, Type (0, 0), BuildingBlock: CIFDUS_clean_linker_0, # of connection points: 2
#     Edge 39, Type (0, 0), BuildingBlock: CIFDUS_clean_linker_0, # of connection points: 2
#     Edge 40, Type (0, 0), BuildingBlock: CIFDUS_clean_linker_0, # of connection points: 2
#     Edge 41, Type (0, 0), BuildingBlock: CIFDUS_clean_linker_0, # of connection points: 2
#     Edge 42, Type (0, 0), BuildingBlock: CIFDUS_clean_linker_0, # of connection points: 2
#     Edge 43, Type (0, 0), BuildingBlock: CIFDUS_clean_linker_0, # of connection points: 2
#     Edge 44, Type (0, 0), BuildingBlock: CIFDUS_clean_linker_0, # of connection points: 2
#     Edge 45, Type (0, 0), BuildingBlock: CIFDUS_clean_linker_0, # of connection points: 2
#     Edge 46, Type (0, 0), BuildingBlock: CIFDUS_clean_linker_0, # of connection points: 2
#     Edge 47, Type (0, 0), BuildingBlock: CIFDUS_clean_linker_0, # of connection points: 2
# Relax obj value: 0.091
# Max RMSD: 0.219
# Mean RMSD: 0.219
data_MOF--net-wjd--node1-PAMTOO_clean_sbu_0--edge1-CIFDUS_clean_linker_0
_symmetry_space_group_name_H-M    P1
_symmetry_Int_Tables_number       1
_symmetry_cell_setting            triclinic
loop_
_symmetry_equiv_pos_as_xyz
'x, y, z'
_cell_length_a     36.217313
_cell_length_b     36.119339
_cell_length_c     46.918796
_cell_angle_alpha  90.106262
_cell_angle_beta   90.245212
_cell_angle_gamma 120.13877
loop_
_atom_site_label
_atom_site_type_symbol
_atom_site_fract_x
_atom_site_fract_y
_atom_site_fract_z
_atom_type_partial_charge
Dy0 Dy 0.3423 0.10453 0.14045 0.0
Dy1 Dy 0.39337 0.2012 0.11105 0.0
C2 C 0.34076 0.11481 0.07408 0.0
O3 O 0.40557 0.11402 0.12569 0.0
O4 O 0.44377 0.18766 0.1261 0.0
O5 O 0.31741 0.03625 0.13741 0.0
O6 O 0.30374 0.06293 0.17447 0.0
O7 O 0.39053 0.20913 0.15847 0.0
O8 O 0.38745 0.14731 0.17387 0.0
O9 O 0.32393 0.17907 0.10757 0.0
O10 O 0.3035 0.1363 0.14692 0.0
O11 O 0.44105 0.2475 0.08254 0.0
O12 O 0.40171 0.26468 0.10751 0.0
C13 C 0.4422 0.15051 0.12515 0.0
O14 O 0.31705 0.09773 0.09654 0.0
O15 O 0.3755 0.15286 0.07541 0.0
C16 C 0.24772 0.99837 0.15585 0.0
C17 C 0.15913 0.94182 0.1475 0.0
C18 C 0.17966 0.98271 0.135 0.0
C19 C 0.22344 1.01064 0.13913 0.0
C20 C 0.2276 0.95771 0.16835 0.0
C21 C 0.18373 0.92967 0.16422 0.0
C22 C 0.29385 0.02818 0.16008 0.0
C23 C 0.39484 0.18627 0.17867 0.0
C24 C 0.297 0.15965 0.12838 0.0
C25 C 0.4698 0.3214 0.0935 0.0
C26 C 0.54081 0.40548 0.09839 0.0
C27 C 0.53225 0.37497 0.11985 0.0
C28 C 0.49705 0.33315 0.11738 0.0
C29 C 0.47764 0.35207 0.07259 0.0
C30 C 0.51261 0.39353 0.07498 0.0
C31 C 0.43301 0.27773 0.08945 0.0
H32 H 0.16202 0.99301 0.12168 0.0
H33 H 0.23841 0.0419 0.12922 0.0
H34 H 0.24577 0.9477 0.18137 0.0
H35 H 0.16896 0.89869 0.17447 0.0
H36 H 0.55346 0.38303 0.13805 0.0
H37 H 0.49143 0.30993 0.13384 0.0
H38 H 0.45683 0.34382 0.05414 0.0
H39 H 0.51778 0.41627 0.05827 0.0
Dy40 Dy 0.8408 0.66005 0.40614 0.0
Dy41 Dy 0.79455 0.70924 0.37611 0.0
C42 C 0.82865 0.66099 0.33807 0.0
O43 O 0.8886 0.72964 0.40954 0.0
O44 O 0.86528 0.75053 0.37067 0.0
O45 O 0.89482 0.65034 0.41097 0.0
O46 O 0.83756 0.61252 0.43553 0.0
O47 O 0.81338 0.73535 0.41989 0.0
O48 O 0.80695 0.67544 0.4405 0.0
O49 O 0.74192 0.64427 0.39002 0.0
O50 O 0.77983 0.60924 0.38732 0.0
O51 O 0.74601 0.72721 0.37734 0.0
O52 O 0.79246 0.75035 0.34333 0.0
C53 C 0.89556 0.75694 0.38897 0.0
O54 O 0.85449 0.66473 0.35913 0.0
O55 O 0.79647 0.66756 0.34182 0.0
C56 C 0.87607 0.57896 0.42103 0.0
C57 C 0.87748 0.50289 0.40883 0.0
C58 C 0.85075 0.51355 0.39329 0.0
C59 C 0.85008 0.55122 0.39931 0.0
C60 C 0.90326 0.56892 0.43627 0.0
C61 C 0.90403 0.5313 0.43023 0.0
C62 C 0.87469 0.61804 0.42819 0.0
C63 C 0.80517 0.71092 0.4422 0.0
C64 C 0.74336 0.6086 0.38835 0.0
C65 C 0.77341 0.79915 0.36237 0.0
C66 C 0.79769 0.88568 0.3733 0.0
C67 C 0.78694 0.85638 0.39581 0.0
C68 C 0.77494 0.81369 0.39041 0.0
C69 C 0.78381 0.82819 0.33983 0.0
C70 C 0.79584 0.87099 0.34522 0.0
C71 C 0.76318 0.7546 0.35657 0.0
H72 H 0.8303 0.49277 0.37642 0.0
H73 H 0.82905 0.55855 0.38717 0.0
H74 H 0.92356 0.58995 0.45311 0.0
H75 H 0.92462 0.52394 0.44284 0.0
H76 H 0.78849 0.86657 0.41772 0.0
H77 H 0.76728 0.79221 0.40828 0.0
H78 H 0.78295 0.81782 0.31803 0.0
H79 H 0.80335 0.89249 0.32734 0.0
Dy80 Dy 0.9604 0.25281 0.13845 0.0
Dy81 Dy 0.87323 0.23083 0.10284 0.0
C82 C 0.95958 0.25264 0.07001 0.0
O83 O 0.94959 0.30879 0.14329 0.0
O84 O 0.92148 0.29994 0.09883 0.0
O85 O 1.02666 0.29629 0.14886 0.0
O86 O 0.99297 0.23398 0.16876 0.0
O87 O 0.86205 0.2431 0.14823 0.0
O88 O 0.9081 0.22573 0.17015 0.0
O89 O 0.86374 0.1695 0.12069 0.0
O90 O 0.9336 0.18684 0.12008 0.0
O91 O 0.81324 0.18684 0.08208 0.0
O92 O 0.83513 0.25466 0.08346 0.0
C93 C 0.93936 0.32422 0.1212 0.0
O94 O 0.98103 0.26986 0.09358 0.0
O95 O 0.91746 0.22959 0.06961 0.0
C96 C 0.06452 0.25971 0.15657 0.0
C97 C 0.12758 0.23888 0.1424 0.0
C98 C 0.10394 0.24489 0.12089 0.0
C99 C 0.07253 0.25498 0.12792 0.0
C100 C 0.08823 0.25415 0.17807 0.0
C101 C 0.11948 0.24379 0.17107 0.0
C102 C 1.02993 0.26797 0.16421 0.0
C103 C 0.87561 0.23213 0.17099 0.0
C104 C 0.89278 0.15793 0.12077 0.0
C105 C 0.76058 0.20831 0.08402 0.0
C106 C 0.68 0.1976 0.09832 0.0
C107 C 0.70656 0.22895 0.07866 0.0
C108 C 0.74626 0.23413 0.07156 0.0
C109 C 0.73387 0.1763 0.10332 0.0
C110 C 0.69375 0.17083 0.11028 0.0
C111 C 0.80385 0.21666 0.0769 0.0
H112 H 0.10909 0.24087 0.09865 0.0
H113 H 0.05412 0.25857 0.11099 0.0
H114 H 0.08228 0.2574 0.20029 0.0
H115 H 0.13747 0.23984 0.18811 0.0
H116 H 0.69664 0.24966 0.06876 0.0
H117 H 0.76616 0.25886 0.05653 0.0
H118 H 0.74417 0.15598 0.11332 0.0
H119 H 0.67403 0.14653 0.12558 0.0
Dy120 Dy 0.38962 0.18601 0.41249 0.0
Dy121 Dy 0.32524 0.09735 0.37706 0.0
C122 C 0.39096 0.18172 0.34408 0.0
O123 O 0.33961 0.19495 0.39151 0.0
O124 O 0.28631 0.12534 0.39363 0.0
O125 O 0.4007 0.24153 0.43721 0.0
O126 O 0.45297 0.23061 0.4277 0.0
O127 O 0.32153 0.07694 0.4219 0.0
O128 O 0.34513 0.14062 0.44583 0.0
O129 O 0.39236 0.10855 0.37364 0.0
O130 O 0.41217 0.13959 0.41742 0.0
O131 O 0.30262 0.03085 0.36725 0.0
O132 O 0.27355 0.06373 0.34687 0.0
C133 C 0.29888 0.16632 0.39184 0.0
O134 O 0.4141 0.19708 0.36742 0.0
O135 O 0.35245 0.14822 0.34426 0.0
C136 C 0.46928 0.30242 0.43071 0.0
C137 C 0.52799 0.3889 0.41795 0.0
C138 C 0.51321 0.35734 0.39644 0.0
C139 C 0.48402 0.31452 0.40274 0.0
C140 C 0.48282 0.33392 0.452 0.0
C141 C 0.51181 0.3768 0.44569 0.0
C142 C 0.4419 0.257 0.4383 0.0
C143 C 0.32605 0.0984 0.44544 0.0
C144 C 0.41925 0.1219 0.39534 0.0
C145 C 0.22803 0.99203 0.3596 0.0
C146 C 0.14428 0.9283 0.37406 0.0
C147 C 0.17416 0.95243 0.39546 0.0
C148 C 0.21558 0.98417 0.38829 0.0
C149 C 0.19853 0.96781 0.33822 0.0
C150 C 0.15701 0.93624 0.34536 0.0
C151 C 0.27079 0.02693 0.3518 0.0
H152 H 0.52466 0.3657 0.3748 0.0
H153 H 0.47375 0.29071 0.38593 0.0
H154 H 0.47183 0.32519 0.47371 0.0
H155 H 0.52284 0.40018 0.4628 0.0
H156 H 0.16523 0.94743 0.41772 0.0
H157 H 0.23772 1.00293 0.40514 0.0
H158 H 0.20749 0.97361 0.31597 0.0
H159 H 0.1349 0.91787 0.3284 0.0
Dy160 Dy 0.82226 0.7306 0.13871 0.0
Dy161 Dy 0.84189 0.66253 0.10442 0.0
C162 C 0.82162 0.72816 0.07033 0.0
O163 O 0.76398 0.66438 0.14252 0.0
O164 O 0.77356 0.64302 0.09898 0.0
O165 O 0.78298 0.75907 0.14661 0.0
O166 O 0.84177 0.78077 0.17024 0.0
O167 O 0.82748 0.63898 0.14967 0.0
O168 O 0.84478 0.70255 0.17175 0.0
O169 O 0.90277 0.71182 0.12461 0.0
O170 O 0.88928 0.76694 0.12196 0.0
O171 O 0.88297 0.64791 0.07928 0.0
O172 O 0.81954 0.59743 0.09087 0.0
C173 C 0.749 0.63734 0.12086 0.0
O174 O 0.80598 0.7346 0.09372 0.0
O175 O 0.84287 0.70726 0.07037 0.0
C176 C 0.82442 0.83376 0.15764 0.0
C177 C 0.85205 0.92086 0.14617 0.0
C178 C 0.87114 0.90961 0.16809 0.0
C179 C 0.85736 0.86663 0.17382 0.0
C180 C 0.80504 0.84492 0.13584 0.0
C181 C 0.81866 0.88797 0.13021 0.0
C182 C 0.81123 0.78839 0.16359 0.0
C183 C 0.837 0.66306 0.17266 0.0
C184 C 0.91648 0.75303 0.12421 0.0
C185 C 0.8715 0.57714 0.08352 0.0
C186 C 0.90113 0.51863 0.09054 0.0
C187 C 0.91468 0.55367 0.1093 0.0
C188 C 0.90001 0.58281 0.10578 0.0
C189 C 0.85735 0.54184 0.06528 0.0
C190 C 0.87187 0.51291 0.06874 0.0
C191 C 0.85545 0.60691 0.07863 0.0
H192 H 0.89645 0.93407 0.18109 0.0
H193 H 0.87268 0.85909 0.19092 0.0
H194 H 0.77953 0.82047 0.12294 0.0
H195 H 0.80347 0.89553 0.11306 0.0
H196 H 0.93718 0.55899 0.12628 0.0
H197 H 0.91107 0.60977 0.12026 0.0
H198 H 0.835 0.53663 0.04819 0.0
H199 H 0.85993 0.48581 0.05431 0.0
Dy200 Dy 0.8519 0.19741 0.40296 0.0
Dy201 Dy 0.94736 0.23925 0.37414 0.0
C202 C 0.86728 0.21596 0.33576 0.0
O203 O 0.87076 0.14758 0.40597 0.0
O204 O 0.91315 0.16826 0.36663 0.0
O205 O 0.78725 0.14437 0.40535 0.0
O206 O 0.80783 0.1993 0.4332 0.0
O207 O 0.9534 0.21981 0.41792 0.0
O208 O 0.90048 0.22713 0.43846 0.0
O209 O 0.94074 0.29488 0.38943 0.0
O210 O 0.86752 0.26271 0.38935 0.0
O211 O 1.01555 0.28203 0.37702 0.0
O212 O 0.98821 0.24082 0.34012 0.0
C213 C 0.88866 0.1386 0.38491 0.0
O214 O 0.84339 0.18835 0.35537 0.0
O215 O 0.90685 0.24568 0.34103 0.0
C216 C 0.73427 0.16018 0.42089 0.0
C217 C 0.65353 0.15407 0.41585 0.0
C218 C 0.67802 0.15894 0.39143 0.0
C219 C 0.7182 0.16213 0.39394 0.0
C220 C 0.70963 0.15471 0.44511 0.0
C221 C 0.66977 0.15165 0.44266 0.0
C222 C 0.77597 0.16274 0.42464 0.0
C223 C 0.93713 0.22781 0.44028 0.0
C224 C 0.90553 0.29724 0.3902 0.0
C225 C 0.05381 0.24991 0.35823 0.0
C226 C 0.10981 0.2174 0.36689 0.0
C227 C 0.11108 0.24897 0.38515 0.0
C228 C 0.08351 0.26507 0.38085 0.0
C229 C 0.05296 0.21879 0.33972 0.0
C230 C 0.0805 0.20263 0.34406 0.0
C231 C 1.02306 0.26546 0.35455 0.0
H232 H 0.66655 0.16122 0.37052 0.0
H233 H 0.73672 0.1663 0.37492 0.0
H234 H 0.72126 0.15276 0.46606 0.0
H235 H 0.65154 0.14725 0.46186 0.0
H236 H 0.13298 0.26081 0.40309 0.0
H237 H 0.08517 0.28907 0.39551 0.0
H238 H 1.03077 0.20661 0.32194 0.0
H239 H 0.07914 0.17885 0.32932 0.0
Dy240 Dy 0.19561 0.37237 0.60292 0.0
Dy241 Dy 0.10426 0.31684 0.63651 0.0
C242 C 0.19052 0.37556 0.67007 0.0
O243 O 0.19258 0.31412 0.62101 0.0
O244 O 0.12075 0.26963 0.61841 0.0
O245 O 0.26044 0.38564 0.59824 0.0
O246 O 0.23713 0.41863 0.57184 0.0
O247 O 0.08775 0.31955 0.5913 0.0
O248 O 0.14844 0.32918 0.56945 0.0
O249 O 0.12035 0.3854 0.64115 0.0
O250 O 0.16495 0.41234 0.60251 0.0
O251 O 0.03729 0.29545 0.64236 0.0
O252 O 0.06902 0.27194 0.66983 0.0
C253 C 0.15944 0.27543 0.62005 0.0
O254 O 0.20631 0.39935 0.6473 0.0
O255 O 0.15646 0.33751 0.66864 0.0
C256 C 0.30956 0.45696 0.58681 0.0
C257 C 0.38556 0.53325 0.60109 0.0
C258 C 0.34555 0.5273 0.6092 0.0
C259 C 0.3079 0.48942 0.60225 0.0
C260 C 0.34934 0.46257 0.57891 0.0
C261 C 0.38702 0.50032 0.58601 0.0
C262 C 0.2704 0.41635 0.58005 0.0
C263 C 0.10755 0.31747 0.56859 0.0
C264 C 0.14175 0.41607 0.62251 0.0
C265 C 0.99887 0.22311 0.65569 0.0
C266 C 0.93383 0.13864 0.6438 0.0
C267 C 0.97367 0.15575 0.63039 0.0
C268 C 1.00586 0.19773 0.6362 0.0
C269 C 0.95943 0.20608 0.66936 0.0
C270 C 0.92711 0.16417 0.66344 0.0
C271 C 0.03258 0.26734 0.66152 0.0
H272 H 0.34337 0.55186 0.62108 0.0
H273 H 0.27753 0.48543 0.60898 0.0
H274 H 0.35125 0.43769 0.56722 0.0
H275 H 0.41725 0.5041 0.57916 0.0
H276 H 0.97961 0.13705 0.61494 0.0
H277 H 0.03611 0.2105 0.62531 0.0
H278 H 0.95356 0.22522 0.68449 0.0
H279 H 0.89685 0.15168 0.67431 0.0
Dy280 Dy 0.27046 0.9549 0.88156 0.0
Dy281 Dy 0.22668 0.85757 0.90927 0.0
C282 C 0.25687 0.9423 0.94744 0.0
O283 O 0.32484 0.94678 0.89724 0.0
O284 O 0.29193 0.87325 0.89637 0.0
O285 O 0.31582 1.02258 0.88429 0.0
O286 O 0.27114 0.99758 0.84893 0.0
O287 O 0.22089 0.85001 0.86128 0.0
O288 O 0.27777 0.91527 0.84853 0.0
O289 O 0.17822 0.87803 0.9114 0.0
O290 O 0.20027 0.92076 0.87219 0.0
O291 O 0.17109 0.79464 0.91294 0.0
O292 O 0.22842 0.81041 0.93691 0.0
C293 C 0.32657 0.91115 0.89745 0.0
O294 O 0.24987 0.9594 0.92506 0.0
O295 O 0.25512 0.905 0.94576 0.0
C296 C 0.28513 0.06337 0.86882 0.0
C297 C 0.257 0.12218 0.87961 0.0
C298 C 0.25539 0.09435 0.90108 0.0
C299 C 0.26898 0.06503 0.89568 0.0
C300 C 0.2867 0.091 0.84729 0.0
C301 C 0.27261 0.12008 0.85259 0.0
C302 C 0.29856 0.03171 0.86296 0.0
C303 C 0.24937 0.8754 0.84251 0.0
C304 C 0.17006 0.89607 0.89 0.0
C305 C 0.18287 0.73749 0.92396 0.0
C306 C 0.16536 0.65307 0.91292 0.0
C307 C 0.18429 0.68509 0.89195 0.0
C308 C 0.1929 0.72693 0.89741 0.0
C309 C 0.1644 0.70587 0.94494 0.0
C310 C 0.15573 0.66415 0.93952 0.0
C311 C 0.18978 0.78062 0.93004 0.0
H312 H 0.24299 0.0948 0.92197 0.0
H313 H 0.26658 0.04347 0.91248 0.0
H314 H 0.29867 0.08996 0.82636 0.0
H315 H 0.27444 0.14131 0.83568 0.0
H316 H 0.19184 0.67767 0.87117 0.0
H317 H 0.20701 0.75089 0.88087 0.0
H318 H 0.15645 0.71342 0.96557 0.0
H319 H 0.1419 0.64066 0.95634 0.0
Dy320 Dy 0.66619 0.83338 0.60192 0.0
Dy321 Dy 0.72161 0.79201 0.63026 0.0
C322 C 0.67763 0.83086 0.6689 0.0
O323 O 0.72776 0.88809 0.61633 0.0
O324 O 0.77005 0.85771 0.61511 0.0
O325 O 0.65298 0.88528 0.5997 0.0
O326 O 0.62034 0.83113 0.57113 0.0
O327 O 0.6994 0.76621 0.5868 0.0
O328 O 0.70578 0.82641 0.56747 0.0
O329 O 0.65334 0.74057 0.63715 0.0
O330 O 0.61997 0.7638 0.60566 0.0
O331 O 0.75977 0.7629 0.62167 0.0
O332 O 0.74963 0.77526 0.66527 0.0
C333 C 0.76552 0.8916 0.61605 0.0
O334 O 0.64984 0.8237 0.64847 0.0
O335 O 0.7126 0.82947 0.66441 0.0
C336 C 0.58259 0.86511 0.58688 0.0
C337 C 0.50689 0.86582 0.6002 0.0
C338 C 0.51794 0.83873 0.6149 0.0
C339 C 0.55546 0.83842 0.60832 0.0
C340 C 0.57185 0.89218 0.57219 0.0
C341 C 0.53437 0.89256 0.57876 0.0
C342 C 0.62302 0.86643 0.58055 0.0
C343 C 0.70876 0.7917 0.56502 0.0
C344 C 0.61935 0.73472 0.62278 0.0
C345 C 0.81667 0.78243 0.65332 0.0
C346 C 0.90615 0.81861 0.65469 0.0
C347 C 0.88784 0.84447 0.65916 0.0
C348 C 0.84337 0.82654 0.65824 0.0
C349 C 0.83486 0.75645 0.64997 0.0
C350 C 0.87915 0.77433 0.6506 0.0
C351 C 0.77053 0.76371 0.64827 0.0
H352 H 0.49784 0.81811 0.63175 0.0
H353 H 0.56348 0.8176 0.62009 0.0
H354 H 0.59255 0.91315 0.55567 0.0
H355 H 0.52661 0.91336 0.56675 0.0
H356 H 0.90792 0.87871 0.66213 0.0
H357 H 0.82993 0.84727 0.66044 0.0
H358 H 0.81482 0.72244 0.6459 0.0
H359 H 0.8924 0.75362 0.64735 0.0
Dy360 Dy 0.11482 0.33183 0.87382 0.0
Dy361 Dy 0.21069 0.38236 0.90356 0.0
C362 C 0.12509 0.33219 0.94046 0.0
O363 O 0.12661 0.39736 0.88667 0.0
O364 O 0.1999 0.43306 0.88568 0.0
O365 O 0.0476 0.3114 0.87427 0.0
O366 O 0.07302 0.28994 0.84049 0.0
O367 O 0.21864 0.37655 0.85643 0.0
O368 O 0.15782 0.37441 0.83995 0.0
O369 O 0.18792 0.31294 0.90817 0.0
O370 O 0.14581 0.29179 0.86833 0.0
O371 O 0.27418 0.39134 0.9079 0.0
O372 O 0.25594 0.4301 0.93272 0.0
C373 C 0.16379 0.43328 0.88588 0.0
O374 O 0.10712 0.30785 0.91813 0.0
O375 O 0.16275 0.36716 0.93859 0.0
C376 C 1.00535 0.23922 0.85852 0.0
C377 C 0.94425 0.15204 0.86839 0.0
C378 C 0.96407 0.18061 0.8913 0.0
C379 C 0.99422 0.22356 0.88642 0.0
C380 C 0.98575 0.21084 0.83556 0.0
C381 C 0.95555 0.16767 0.84043 0.0
C382 C 0.03869 0.28432 0.85328 0.0
C383 C 0.19628 0.38061 0.8357 0.0
C384 C 0.16911 0.28568 0.88722 0.0
C385 C 0.32786 0.46224 0.91841 0.0
C386 C 0.40616 0.53741 0.90689 0.0
C387 C 0.40336 0.50932 0.92862 0.0
C388 C 0.36455 0.47213 0.93432 0.0
C389 C 0.33053 0.48963 0.89635 0.0
C390 C 0.3693 0.52688 0.89065 0.0
C391 C 0.287 0.42373 0.92531 0.0
H392 H 0.95672 0.16966 0.91311 0.0
H393 H 1.00903 0.24443 0.90455 0.0
H394 H 0.99395 0.22204 0.81384 0.0
H395 H 0.94066 0.14669 0.82229 0.0
H396 H 0.43089 0.51665 0.94175 0.0
H397 H 0.36305 0.45133 0.95144 0.0
H398 H 0.30255 0.48237 0.88372 0.0
H399 H 0.37041 0.54746 0.87352 0.0
Dy400 Dy 0.20652 0.84365 0.61044 0.0
Dy401 Dy 0.24654 0.93819 0.64025 0.0
C402 C 0.22194 0.8576 0.67773 0.0
O403 O 0.15914 0.86445 0.60372 0.0
O404 O 0.17481 0.90469 0.6441 0.0
O405 O 0.15365 0.77899 0.60635 0.0
O406 O 0.21029 0.79998 0.5806 0.0
O407 O 0.23152 0.94711 0.59594 0.0
O408 O 0.23726 0.89272 0.57548 0.0
O409 O 0.30252 0.93222 0.62519 0.0
O410 O 0.27086 0.85905 0.62551 0.0
O411 O 0.29151 1.00604 0.6406 0.0
O412 O 0.24532 0.97755 0.67455 0.0
C413 C 0.1476 0.88145 0.62393 0.0
O414 O 0.19425 0.83416 0.65781 0.0
O415 O 0.25225 0.89679 0.67257 0.0
C416 C 0.17285 0.72702 0.5938 0.0
C417 C 0.17227 0.64933 0.60232 0.0
C418 C 0.16393 0.66935 0.62512 0.0
C419 C 0.16443 0.70804 0.62094 0.0
C420 C 0.1805 0.70668 0.57103 0.0
C421 C 0.1803 0.66834 0.57522 0.0
C422 C 0.17375 0.76772 0.58844 0.0
C423 C 0.23891 0.92998 0.57371 0.0
C424 C 0.30516 0.89709 0.62459 0.0
C425 C 0.26147 0.04557 0.65836 0.0
C426 C 0.24078 0.10987 0.6481 0.0
C427 C 0.21865 0.07028 0.63383 0.0
C428 C 0.22897 0.0384 0.63889 0.0
C429 C 0.28303 0.08456 0.67307 0.0
C430 C 0.27276 0.11646 0.66802 0.0
C431 C 0.27384 1.013 0.66256 0.0
H432 H 0.15793 0.65559 0.64626 0.0
H433 H 0.15852 0.72317 0.63892 0.0
H434 H 0.18681 0.72059 0.54992 0.0
H435 H 0.18627 0.65342 0.55715 0.0
H436 H 0.19419 0.06437 0.61818 0.0
H437 H 0.21208 1.00839 0.62729 0.0
H438 H 0.30812 0.09051 0.6882 0.0
H439 H 0.28997 0.14638 0.67965 0.0
Dy440 Dy 0.74104 0.79743 0.87352 0.0
Dy441 Dy 0.68808 0.84149 0.90001 0.0
C442 C 0.74308 0.81357 0.9392 0.0
O443 O 0.67875 0.74328 0.88999 0.0
O444 O 0.63781 0.77542 0.88851 0.0
O445 O 0.76084 0.75035 0.87616 0.0
O446 O 0.78368 0.79628 0.84171 0.0
O447 O 0.68453 0.8441 0.85198 0.0
O448 O 0.69313 0.7871 0.84031 0.0
O449 O 0.75677 0.89125 0.90195 0.0
O450 O 0.77739 0.86784 0.86338 0.0
O451 O 0.67576 0.89426 0.90008 0.0
O452 O 0.6442 0.8427 0.93047 0.0
C453 C 0.64121 0.741 0.89031 0.0
O454 O 0.76709 0.81961 0.91698 0.0
O455 O 0.70713 0.81416 0.93672 0.0
C456 C 0.83264 0.77822 0.86171 0.0
C457 C 0.91853 0.80253 0.87358 0.0
C458 C 0.88852 0.78994 0.89567 0.0
C459 C 0.84611 0.77783 0.8898 0.0
C460 C 0.86241 0.79046 0.83957 0.0
C461 C 0.90495 0.80252 0.84542 0.0
C462 C 0.78825 0.76746 0.85548 0.0
C463 C 0.68077 0.81448 0.83383 0.0
C464 C 0.78295 0.8989 0.88071 0.0
C465 C 0.60575 0.87638 0.91422 0.0
C466 C 0.52884 0.87756 0.90568 0.0
C467 C 0.56839 0.91303 0.89819 0.0
C468 C 0.60638 0.91248 0.90252 0.0
C469 C 0.56626 0.84086 0.92165 0.0
C470 C 0.52833 0.84149 0.91747 0.0
C471 C 0.64644 0.87703 0.91963 0.0
H472 H 0.89791 0.79005 0.91763 0.0
H473 H 0.824 0.76849 0.90735 0.0
H474 H 0.85281 0.79093 0.81773 0.0
H475 H 0.9271 0.81146 0.82787 0.0
H476 H 0.57003 0.94116 0.88876 0.0
H477 H 0.63636 0.94045 0.89679 0.0
H478 H 0.56455 0.81263 0.93098 0.0
H479 H 0.49861 0.81386 0.92397 0.0
H480 H 0.14066 0.17855 0.16743 0.0
H481 H 0.1879 0.27292 0.1006 0.0
H482 H 0.24292 0.25503 0.08917 0.0
H483 H 0.27951 0.21471 0.09955 0.0
H484 H 0.23243 0.12087 0.16687 0.0
H485 H 0.1756 0.13651 0.17668 0.0
C486 C 0.16315 0.19536 0.15047 0.0
C487 C 0.16035 0.22723 0.13503 0.0
C488 C 0.19477 0.18502 0.14408 0.0
C489 C 0.1892 0.2481 0.11271 0.0
C490 C 0.22078 0.23801 0.10624 0.0
C491 C 0.25663 0.19739 0.11621 0.0
C492 C 0.2605 0.16683 0.13254 0.0
C493 C 0.22409 0.20675 0.12193 0.0
C494 C 0.23047 0.14475 0.15405 0.0
C495 C 0.19792 0.15369 0.15973 0.0
H496 H 0.07042 0.91398 0.3489 0.0
H497 H 0.11854 0.86845 0.41634 0.0
H498 H 0.04575 0.81304 0.4281 0.0
H499 H 0.96861 0.77564 0.4179 0.0
H500 H 0.92093 0.82104 0.34992 0.0
H501 H 0.99327 0.8782 0.33975 0.0
C502 C 0.06499 0.89177 0.36606 0.0
C503 C 0.09991 0.8952 0.38158 0.0
C504 C 1.02308 0.85992 0.37265 0.0
C505 C 0.09223 0.8667 0.40416 0.0
C506 C 0.05062 0.83488 0.41082 0.0
C507 C 0.97394 0.79823 0.40102 0.0
C508 C 0.93922 0.79379 0.38466 0.0
C509 C 1.0158 0.83099 0.39507 0.0
C510 C 0.94691 0.82346 0.36284 0.0
C511 C 0.98836 0.8562 0.35694 0.0
H512 H 0.94266 0.12142 0.12768 0.0
H513 H 0.81131 0.09022 0.11937 0.0
H514 H 0.78739 1.01456 0.12562 0.0
H515 H 0.80324 0.95717 0.13522 0.0
H516 H 0.93424 0.98781 0.14383 0.0
H517 H 0.95862 0.06349 0.13588 0.0
C518 C 0.90882 0.09807 0.12704 0.0
C519 C 0.87893 0.11172 0.12309 0.0
C520 C 0.89509 0.05437 0.13091 0.0
C521 C 0.83516 0.08085 0.12243 0.0
C522 C 0.82135 0.03745 0.12603 0.0
C523 C 0.83715 0.98032 0.13502 0.0
C524 C 0.8668 0.96674 0.14023 0.0
C525 C 0.85097 0.02384 0.13051 0.0
C526 C 0.91064 0.99738 0.14029 0.0
C527 C 0.92464 0.04068 0.1356 0.0
H528 H 0.21294 0.11896 0.38032 0.0
H529 H 0.31459 0.24777 0.39807 0.0
H530 H 0.26531 0.27446 0.39242 0.0
H531 H 0.1941 0.26219 0.38103 0.0
H532 H 0.09175 0.13411 0.36292 0.0
H533 H 0.1405 0.10645 0.36977 0.0
C534 C 0.2242 0.1528 0.38313 0.0
C535 C 0.26752 0.18123 0.38956 0.0
C536 C 0.19562 0.16825 0.37955 0.0
C537 C 0.28155 0.22507 0.39297 0.0
C538 C 0.25336 0.24048 0.38975 0.0
C539 C 0.18228 0.22814 0.37889 0.0
C540 C 0.13928 0.20035 0.37147 0.0
C541 C 0.21044 0.21247 0.38285 0.0
C542 C 0.1248 0.15637 0.3683 0.0
C543 C 0.15262 0.14047 0.37237 0.0
H544 H 0.11757 0.8554 0.13824 0.0
H545 H 0.09504 0.96139 0.1468 0.0
H546 H 1.01861 0.91314 0.13938 0.0
H547 H 0.95754 0.84027 0.13136 0.0
H548 H 0.98073 0.73447 0.12387 0.0
H549 H 0.05701 0.78305 0.13023 0.0
C550 C 0.09596 0.86797 0.13877 0.0
C551 C 0.11231 0.91211 0.14312 0.0
C552 C 0.0519 0.83997 0.13467 0.0
C553 C 0.08364 0.92773 0.14317 0.0
C554 C 0.03978 0.90007 0.13908 0.0
C555 C 0.97928 0.82786 0.13099 0.0
C556 C 0.96313 0.78363 0.12714 0.0
C557 C 1.02347 0.85607 0.13484 0.0
C558 C 0.99197 0.76825 0.12685 0.0
C559 C 0.03577 0.79605 0.1305 0.0
H560 H 0.86124 0.95773 0.34808 0.0
H561 H 0.76306 0.91623 0.41198 0.0
H562 H 0.78402 0.99048 0.4222 0.0
H563 H 0.82879 0.06713 0.41225 0.0
H564 H 0.92567 0.10895 0.34741 0.0
H565 H 0.90645 0.03476 0.33826 0.0
C566 C 0.84417 0.96488 0.36407 0.0
C567 C 0.81058 0.93123 0.37922 0.0
C568 C 0.85616 1.00779 0.36973 0.0
C569 C 0.78936 0.94133 0.40022 0.0
C570 C 0.80118 0.98385 0.406 0.0
C571 C 0.84597 0.06014 0.39625 0.0
C572 C 0.87867 0.09373 0.38056 0.0
C573 C 0.83445 1.01734 0.39086 0.0
C574 C 0.90033 0.08384 0.35979 0.0
C575 C 0.88931 0.04135 0.3545 0.0
H576 H 0.16305 0.10416 0.64079 0.0
H577 H 0.29859 0.19418 0.64033 0.0
H578 H 0.28504 0.25254 0.63064 0.0
H579 H 0.23536 0.27835 0.62335 0.0
H580 H 0.0995 0.18975 0.6238 0.0
H581 H 0.1126 0.13029 0.63188 0.0
C582 C 0.18958 0.13651 0.63832 0.0
C583 C 0.23179 0.14483 0.64158 0.0
C584 C 0.18155 0.17009 0.63267 0.0
C585 C 0.26581 0.18698 0.63851 0.0
C586 C 0.25811 0.22035 0.63276 0.0
C587 C 0.20845 0.24606 0.62509 0.0
C588 C 0.16648 0.23861 0.62307 0.0
C589 C 0.21618 0.21232 0.63002 0.0
C590 C 0.13215 0.19644 0.62527 0.0
C591 C 0.13962 0.16245 0.62998 0.0
H592 H 0.09819 0.83356 0.91487 0.0
H593 H 0.14177 0.93507 0.85297 0.0
H594 H 0.06789 0.91533 0.84254 0.0
H595 H 0.9908 0.86851 0.85058 0.0
H596 H 0.94786 0.76543 0.91123 0.0
H597 H 1.02165 0.78687 0.92272 0.0
C598 C 0.09164 0.85165 0.89924 0.0
C599 C 0.12553 0.88582 0.88478 0.0
C600 C 0.04914 0.83978 0.89307 0.0
C601 C 0.11632 0.9086 0.86441 0.0
C602 C 0.07406 0.89729 0.8584 0.0
C603 C 0.99757 0.85048 0.86611 0.0
C604 C 0.96371 0.81544 0.88004 0.0
C605 C 0.04019 0.86271 0.87244 0.0
C606 C 0.97319 0.79289 0.90046 0.0
C607 C 1.01542 0.80498 0.90695 0.0
H608 H 0.76525 0.96619 0.6159 0.0
H609 H 0.85037 0.91537 0.62268 0.0
H610 H 0.91061 0.98784 0.63097 0.0
H611 H 0.93809 0.06539 0.63862 0.0
H612 H 0.85098 0.11386 0.63262 0.0
H613 H 0.79226 0.04214 0.62202 0.0
C614 C 0.79694 0.97069 0.61906 0.0
C615 C 0.80316 0.93523 0.61877 0.0
C616 C 0.83099 1.01203 0.62424 0.0
C617 C 0.84462 0.94205 0.62275 0.0
C618 C 0.87903 0.98347 0.62761 0.0
C619 C 0.90629 0.0602 0.63476 0.0
C620 C 0.89881 0.09485 0.63667 0.0
C621 C 0.87247 1.01866 0.62874 0.0
C622 C 0.85742 0.08765 0.63178 0.0
C623 C 0.82388 0.04671 0.62555 0.0
H624 H 0.21584 0.26378 0.92166 0.0
H625 H 0.14369 0.22848 0.84295 0.0
H626 H 0.16437 0.17486 0.83367 0.0
H627 H 0.20505 0.13952 0.84706 0.0
H628 H 0.27681 0.17481 0.9258 0.0
H629 H 0.25413 0.22677 0.93588 0.0
C630 C 0.20432 0.24418 0.90256 0.0
C631 C 0.17834 0.25039 0.88301 0.0
C632 C 0.21651 0.2135 0.89725 0.0
C633 C 0.16369 0.22449 0.85842 0.0
C634 C 0.17565 0.19388 0.853 0.0
C635 C 0.21584 0.15876 0.86634 0.0
C636 C 0.24273 0.15346 0.88558 0.0
C637 C 0.20249 0.18847 0.87208 0.0
C638 C 0.25591 0.1781 0.91073 0.0
C639 C 0.24304 0.2079 0.91647 0.0
H640 H 0.10733 0.90402 0.66425 0.0
H641 H 0.08552 0.83439 0.58511 0.0
H642 H 1.00987 0.81018 0.58749 0.0
H643 H 0.94896 0.80542 0.61277 0.0
H644 H 0.96854 0.87493 0.69136 0.0
H645 H 0.04577 0.90278 0.68834 0.0
C646 C 0.08607 0.88388 0.64742 0.0
C647 C 0.10232 0.87082 0.62469 0.0
C648 C 0.04205 0.86979 0.64886 0.0
C649 C 0.07418 0.84484 0.603 0.0
C650 C 1.03071 0.83082 0.6043 0.0
C651 C 0.97016 0.82661 0.62928 0.0
C652 C 0.95313 0.83762 0.65246 0.0
C653 C 1.01421 0.84248 0.62731 0.0
C654 C 0.98099 0.86591 0.67335 0.0
C655 C 1.02507 0.88171 0.67165 0.0
H656 H 0.93371 0.07991 0.84128 0.0
H657 H 0.88084 0.12143 0.90801 0.0
H658 H 0.82801 0.04729 0.91831 0.0
H659 H 0.79599 0.97085 0.90821 0.0
H660 H 0.84685 0.92816 0.84089 0.0
H661 H 0.90105 1.00245 0.83098 0.0
C662 C 0.91041 0.07274 0.85791 0.0
C663 C 0.91153 0.10641 0.87391 0.0
C664 C 0.87975 0.02977 0.8637 0.0
C665 C 0.8813 0.09634 0.89563 0.0
C666 C 0.85086 0.05387 0.90147 0.0
C667 C 0.81902 0.9776 0.89144 0.0
C668 C 0.81726 0.94375 0.87538 0.0
C669 C 0.84981 1.02035 0.88569 0.0
C670 C 0.84736 0.95345 0.85364 0.0
C671 C 0.87836 0.99599 0.84791 0.0
H672 H 0.36665 0.21993 0.30503 0.0
H673 H 0.45417 0.17404 0.31975 0.0
H674 H 0.4673 0.17561 0.26845 0.0
H675 H 0.44373 0.17809 0.21931 0.0
H676 H 0.3584 0.22687 0.20476 0.0
H677 H 0.35492 0.23688 0.25605 0.0
C678 C 0.38993 0.21205 0.29697 0.0
C679 C 0.40968 0.19716 0.31587 0.0
C680 C 0.39701 0.2128 0.26751 0.0
C681 C 0.43927 0.1863 0.30546 0.0
C682 C 0.44627 0.18663 0.27614 0.0
C683 C 0.42531 0.19194 0.22743 0.0
C684 C 0.40092 0.20124 0.20849 0.0
C685 C 0.42382 0.19798 0.25692 0.0
C686 C 0.37745 0.21955 0.21903 0.0
C687 C 0.37524 0.22501 0.24834 0.0
H688 H 0.77388 0.61128 0.29641 0.0
H689 H 0.90702 0.69883 0.31405 0.0
H690 H 0.92332 0.70188 0.26328 0.0
H691 H 0.89733 0.68883 0.21356 0.0
H692 H 0.76497 0.59909 0.19576 0.0
H693 H 0.75064 0.58665 0.24689 0.0
C694 C 0.80656 0.63017 0.28909 0.0
C695 C 0.83916 0.65528 0.30869 0.0
C696 C 0.81572 0.63134 0.25991 0.0
C697 C 0.88147 0.67927 0.29924 0.0
C698 C 0.89075 0.6812 0.27022 0.0
C699 C 0.8658 0.66525 0.22096 0.0
C700 C 0.83224 0.6447 0.2012 0.0
C701 C 0.85788 0.65861 0.2503 0.0
C702 C 0.79133 0.61464 0.21074 0.0
C703 C 0.78305 0.60805 0.23995 0.0
H704 H 0.83512 0.16594 0.20708 0.0
H705 H 0.88387 0.30136 0.1989 0.0
H706 H 0.88112 0.30816 0.25071 0.0
H707 H 0.87702 0.27719 0.29833 0.0
H708 H 0.82542 0.14115 0.30642 0.0
H709 H 0.8163 0.13255 0.25466 0.0
C710 C 0.84337 0.19652 0.21667 0.0
C711 C 0.85948 0.2331 0.19946 0.0
C712 C 0.84191 0.2001 0.24641 0.0
C713 C 0.87075 0.27277 0.21186 0.0
C714 C 0.86972 0.27671 0.24147 0.0
C715 C 0.8627 0.24558 0.28872 0.0
C716 C 0.85237 0.2099 0.30593 0.0
C717 C 0.85723 0.2409 0.25899 0.0
C718 C 0.8335 0.16901 0.29348 0.0
C719 C 0.82858 0.16414 0.2639 0.0
H720 H 0.22289 0.34543 0.70951 0.0
H721 H 0.18937 0.44256 0.6948 0.0
H722 H 0.19288 0.45681 0.74613 0.0
H723 H 0.19358 0.43253 0.79526 0.0
H724 H 0.23041 0.3377 0.80983 0.0
H725 H 0.23836 0.33198 0.75849 0.0
C726 C 0.21801 0.37081 0.71759 0.0
C727 C 0.20602 0.39306 0.6987 0.0
C728 C 0.22006 0.37868 0.74704 0.0
C729 C 0.19924 0.42557 0.70911 0.0
C730 C 0.20073 0.4333 0.73843 0.0
C731 C 0.2045 0.41155 0.78712 0.0
C732 C 0.21101 0.38523 0.80605 0.0
C733 C 0.20933 0.40875 0.75763 0.0
C734 C 0.2254 0.35833 0.79554 0.0
C735 C 0.22962 0.35482 0.76621 0.0
H736 H 0.18072 0.82662 0.80776 0.0
H737 H 0.31833 0.89328 0.81123 0.0
H738 H 0.32137 0.88645 0.75976 0.0
H739 H 0.28592 0.87332 0.71357 0.0
H740 H 0.14875 0.80984 0.70846 0.0
H741 H 0.14423 0.80272 0.76059 0.0
C742 C 0.21118 0.83833 0.79725 0.0
C743 C 0.24929 0.86082 0.81311 0.0
C744 C 0.21275 0.83543 0.76732 0.0
C745 C 0.28864 0.87624 0.79933 0.0
C746 C 0.29042 0.87248 0.76991 0.0
C747 C 0.25498 0.85694 0.72386 0.0
C748 C 0.21778 0.8426 0.70741 0.0
C749 C 0.25283 0.85398 0.75363 0.0
C750 C 0.17783 0.82105 0.72079 0.0
C751 C 0.17531 0.81739 0.7506 0.0
H752 H 0.62949 0.76925 0.70595 0.0
H753 H 0.70982 0.90568 0.69803 0.0
H754 H 0.71177 0.91388 0.75003 0.0
H755 H 0.70046 0.88055 0.79761 0.0
H756 H 0.62641 0.74316 0.80454 0.0
H757 H 0.61138 0.73675 0.75343 0.0
C758 C 0.646 0.80081 0.71572 0.0
C759 C 0.6688 0.83691 0.6985 0.0
C760 C 0.6486 0.8049 0.74554 0.0
C761 C 0.69138 0.87764 0.7111 0.0
C762 C 0.69284 0.88222 0.74078 0.0
C763 C 0.68 0.84942 0.78795 0.0
C764 C 0.66459 0.81236 0.80464 0.0
C765 C 0.673 0.84589 0.75826 0.0
C766 C 0.6387 0.77207 0.79196 0.0
C767 C 0.63022 0.76838 0.76275 0.0
H768 H 0.30174 0.02843 0.95198 0.0
H769 H 0.24209 0.91376 1.00276 0.0
H770 H 0.26202 0.9575 0.04637 0.0
H771 H 0.2957 0.0283 0.06974 0.0
H772 H 0.3592 0.14279 0.01886 0.0
H773 H 0.3381 0.09903 0.97533 0.0
C774 C 0.29276 1.01296 0.97259 0.0
C775 C 0.26979 0.96786 0.97416 0.0
C776 C 0.30498 0.03829 0.99741 0.0
C777 C 0.25957 0.94832 1.00101 0.0
C778 C 0.27088 0.97335 0.02589 0.0
C779 C 0.30478 0.04375 0.04911 0.0
C780 C 0.32858 0.08887 0.0475 0.0
C781 C 0.2934 1.01835 0.0243 0.0
C782 C 0.34082 0.10826 0.02066 0.0
C783 C 0.32873 0.08322 0.99582 0.0
H784 H 0.79571 0.78034 0.45112 0.0
H785 H 0.77832 0.66575 0.49207 0.0
H786 H 0.74624 0.68048 0.53311 0.0
H787 H 0.72153 0.72455 0.55668 0.0
H788 H 0.73738 0.8385 0.51561 0.0
H789 H 0.77075 0.8246 0.47477 0.0
C790 C 0.7849 0.75846 0.46896 0.0
C791 C 0.78932 0.72176 0.46833 0.0
C792 C 0.7657 0.76671 0.49225 0.0
C793 C 0.7755 0.69421 0.4919 0.0
C794 C 0.75689 0.70251 0.51533 0.0
C795 C 0.73204 0.7464 0.53879 0.0
C796 C 0.72669 0.78254 0.53924 0.0
C797 C 0.75145 0.73839 0.51558 0.0
C798 C 0.7408 0.81038 0.51582 0.0
C799 C 0.76009 0.80254 0.49253 0.0
H800 H 0.04196 0.27141 0.94848 0.0
H801 H 0.15332 0.36735 0.9936 0.0
H802 H 0.11192 0.35016 0.03758 0.0
H803 H 0.04402 0.30941 0.06272 0.0
H804 H 0.93172 0.21553 0.01717 0.0
H805 H 0.9738 0.23068 0.97357 0.0
C806 C 0.05736 0.28851 0.96789 0.0
C807 C 0.10085 0.32066 0.96762 0.0
C808 C 0.03314 0.279 0.99293 0.0
C809 C 0.12002 0.34252 0.9931 0.0
C810 C 0.09631 0.33272 0.01826 0.0
C811 C 1.02856 0.29203 0.04333 0.0
C812 C 0.98457 0.26123 0.04332 0.0
C813 C 0.05281 0.30125 0.01834 0.0
C814 C 0.96535 0.23941 0.01784 0.0
C815 C 0.98945 0.24804 0.99292 0.0
H816 H 0.29668 1.01342 0.45211 0.0
H817 H 0.31896 0.12604 0.49884 0.0
H818 H 0.29221 0.08319 0.54226 0.0
H819 H 0.26378 1.01416 0.56691 0.0
H820 H 0.24426 0.90251 0.5202 0.0
H821 H 0.26861 0.94489 0.47657 0.0
C822 C 0.29567 0.02884 0.47171 0.0
C823 C 0.30986 0.07311 0.4721 0.0
C824 C 0.28071 1.00415 0.49655 0.0
C825 C 0.30839 0.09219 0.49786 0.0
C826 C 0.29303 0.06765 0.52268 0.0
C827 C 0.2645 0.99888 0.54716 0.0
C828 C 0.25192 0.95498 0.54685 0.0
C829 C 0.27923 0.02364 0.52226 0.0
C830 C 0.25365 0.93608 0.52109 0.0
C831 C 0.26762 0.96034 0.49614 0.0
H832 H 0.76518 0.75578 0.062 0.0
H833 H 0.85894 0.737 0.01786 0.0
H834 H 0.84461 0.76444 0.97394 0.0
H835 H 0.80465 0.7926 0.9482 0.0
H836 H 0.70828 0.80744 0.99198 0.0
H837 H 0.72509 0.78327 0.03628 0.0
C838 C 0.78274 0.75776 0.04286 0.0
C839 C 0.81329 0.74437 0.04334 0.0
C840 C 0.77398 0.77305 0.01772 0.0
C841 C 0.83525 0.74691 0.01815 0.0
C842 C 0.82712 0.76272 0.99306 0.0
C843 C 0.78737 0.79075 0.96741 0.0
C844 C 0.75518 0.80191 0.96666 0.0
C845 C 0.79647 0.77576 0.99261 0.0
C846 C 0.73316 0.79915 0.99186 0.0
C847 C 0.7427 0.7852 0.01719 0.0
H848 H 1.02379 0.29254 0.56105 0.0
H849 H 0.13285 0.30412 0.51602 0.0
H850 H 0.08907 0.27557 0.4728 0.0
H851 H 1.02013 0.24842 0.44779 0.0
H852 H 0.91202 0.23858 0.49313 0.0
H853 H 0.95537 0.26515 0.53645 0.0
C854 C 0.03828 0.28893 0.54186 0.0
C855 C 0.08184 0.30069 0.54191 0.0
C856 C 1.01299 0.2726 0.51718 0.0
C857 C 0.0996 0.29555 0.51668 0.0
C858 C 0.07451 0.27912 0.49197 0.0
C859 C 1.00582 0.25167 0.46719 0.0
C860 C 0.96261 0.24122 0.46715 0.0
C861 C 1.03117 0.26759 0.49198 0.0
C862 C 0.94499 0.24619 0.49248 0.0
C863 C 0.96984 0.26151 0.51727 0.0
H864 H 0.60101 0.1255 0.10268 0.0
H865 H 0.66692 0.26279 0.1131 0.0
H866 H 0.59968 0.25984 0.12367 0.0
H867 H 0.52228 0.2193 0.12767 0.0
H868 H 0.45457 0.08202 0.11673 0.0
H869 H 0.52235 0.08391 0.10902 0.0
C870 C 0.6006 0.15464 0.10759 0.0
C871 C 0.63891 0.19438 0.10678 0.0
C872 C 0.56152 0.15278 0.11347 0.0
C873 C 0.63785 0.2319 0.11308 0.0
C874 C 0.59942 0.23024 0.11923 0.0
C875 C 0.52213 0.18962 0.12375 0.0
C876 C 0.48317 0.15058 0.12264 0.0
C877 C 0.56104 0.19099 0.11906 0.0
C878 C 0.48397 0.11256 0.1177 0.0
C879 C 0.52277 0.11364 0.11321 0.0
H880 H 0.66572 0.58663 0.41149 0.0
H881 H 0.73256 0.53521 0.36496 0.0
H882 H 0.67085 0.4634 0.36832 0.0
H883 H 0.60014 0.41431 0.3874 0.0
H884 H 0.53332 0.46395 0.43568 0.0
H885 H 0.59261 0.53705 0.42889 0.0
C886 C 0.66642 0.55975 0.40174 0.0
C887 C 0.70372 0.56628 0.38805 0.0
C888 C 0.63097 0.51808 0.40434 0.0
C889 C 0.70436 0.53105 0.37578 0.0
C890 C 0.66907 0.48991 0.3777 0.0
C891 C 0.59815 0.44115 0.396 0.0
C892 C 0.56229 0.43362 0.41199 0.0
C893 C 0.63253 0.48292 0.39235 0.0
C894 C 0.56071 0.46881 0.42348 0.0
C895 C 0.59456 0.51063 0.41953 0.0
H896 H 0.94807 0.37388 0.07616 0.0
H897 H 0.93597 0.36907 0.16759 0.0
H898 H 0.92632 0.43169 0.16669 0.0
H899 H 0.91305 0.48258 0.13889 0.0
H900 H 0.92621 0.48609 0.04736 0.0
H901 H 0.94352 0.42922 0.04935 0.0
C902 C 0.94401 0.38695 0.09597 0.0
C903 C 0.94234 0.36667 0.12187 0.0
C904 C 0.93799 0.42238 0.0952 0.0
C905 C 0.93753 0.38421 0.14738 0.0
C906 C 0.93163 0.41979 0.14682 0.0
C907 C 0.92048 0.47141 0.11947 0.0
C908 C 0.9173 0.48801 0.09293 0.0
C909 C 0.93057 0.43841 0.12073 0.0
C910 C 0.92719 0.47316 0.06799 0.0
C911 C 0.93735 0.44075 0.06909 0.0
H912 H 0.48659 0.16496 0.43066 0.0
H913 H 0.44523 0.08055 0.35762 0.0
H914 H 0.51465 0.08372 0.35679 0.0
H915 H 0.5872 0.11023 0.37774 0.0
H916 H 0.62665 0.1966 0.44981 0.0
H917 H 0.55778 0.19292 0.44996 0.0
C918 C 0.49236 0.14688 0.41457 0.0
C919 C 0.46037 0.12206 0.39444 0.0
C920 C 0.5322 0.14936 0.41403 0.0
C921 C 0.4691 0.09964 0.37352 0.0
C922 C 0.50885 0.10156 0.37302 0.0
C923 C 0.58076 0.12848 0.39329 0.0
C924 C 0.61198 0.15317 0.41403 0.0
C925 C 0.54072 0.12635 0.39323 0.0
C926 C 0.60303 0.17661 0.43403 0.0
C927 C 0.56366 0.17468 0.43408 0.0
H928 H 0.57577 0.46288 0.14325 0.0
H929 H 0.59496 0.44533 0.0546 0.0
H930 H 0.6584 0.51598 0.05354 0.0
H931 H 0.70929 0.58197 0.07735 0.0
H932 H 0.69356 0.60159 0.16616 0.0
H933 H 0.6278 0.53141 0.16746 0.0
C934 C 0.594 0.47454 0.12378 0.0
C935 C 0.58022 0.44872 0.09896 0.0
C936 C 0.63092 0.51574 0.12324 0.0
C937 C 0.60421 0.46455 0.07388 0.0
C938 C 0.64069 0.505 0.07325 0.0
C939 C 0.69149 0.57124 0.09706 0.0
C940 C 0.70654 0.59727 0.12163 0.0
C941 C 0.65432 0.53083 0.09772 0.0
C942 C 0.68268 0.58252 0.14685 0.0
C943 C 0.64521 0.54218 0.14764 0.0
H944 H 0.94469 0.48802 0.40701 0.0
H945 H 0.80746 0.42431 0.39898 0.0
H946 H 0.8044 0.35602 0.39153 0.0
H947 H 0.84002 0.31381 0.38869 0.0
H948 H 0.97714 0.37644 0.3972 0.0
H949 H 0.98076 0.44549 0.40321 0.0
C950 C 0.9141 0.45917 0.40375 0.0
C951 C 0.87636 0.46152 0.40353 0.0
C952 C 0.91248 0.41969 0.39962 0.0
C953 C 0.83708 0.42376 0.39887 0.0
C954 C 0.83525 0.38454 0.39479 0.0
C955 C 0.87082 0.34249 0.39178 0.0
C956 C 0.90825 0.33968 0.39257 0.0
C957 C 0.87267 0.38207 0.39527 0.0
C958 C 0.94777 0.37745 0.39648 0.0
C959 C 0.94987 0.41702 0.39997 0.0
H960 H 0.11598 0.57688 0.63133 0.0
H961 H 0.23266 0.63236 0.58286 0.0
H962 H 0.2338 0.56566 0.58587 0.0
H963 H 0.20057 0.49127 0.60008 0.0
H964 H 0.08418 0.43367 0.64879 0.0
H965 H 0.0843 0.50176 0.64823 0.0
C966 C 0.14185 0.5744 0.62173 0.0
C967 C 0.17388 0.60938 0.60652 0.0
C968 C 0.14226 0.53564 0.62345 0.0
C969 C 0.20718 0.6057 0.59416 0.0
C970 C 0.20796 0.56762 0.59596 0.0
C971 C 0.17503 0.49337 0.61056 0.0
C972 C 0.142 0.45719 0.62407 0.0
C973 C 0.17535 0.53227 0.6101 0.0
C974 C 0.10984 0.46097 0.6381 0.0
C975 C 0.10989 0.49987 0.63772 0.0
H976 H 0.34269 0.84686 0.88651 0.0
H977 H 0.40481 0.98 0.91128 0.0
H978 H 0.47303 0.98167 0.91549 0.0
H979 H 0.51433 0.94435 0.91393 0.0
H980 H 0.45173 0.81176 0.88754 0.0
H981 H 0.38429 0.81083 0.88261 0.0
C982 C 0.3711 0.87634 0.89283 0.0
C983 C 0.36849 0.91318 0.89877 0.0
C984 C 0.41012 0.87709 0.89513 0.0
C985 C 0.40584 0.95116 0.90658 0.0
C986 C 0.44486 0.9521 0.90906 0.0
C987 C 0.48611 0.91539 0.90672 0.0
C988 C 0.48824 0.87805 0.9014 0.0
C989 C 0.44732 0.91515 0.90359 0.0
C990 C 0.45104 0.84073 0.89239 0.0
C991 C 0.41243 0.84022 0.88936 0.0
H992 H 0.5406 0.72174 0.61163 0.0
H993 H 0.6062 0.65526 0.6376 0.0
H994 H 0.53897 0.58668 0.63429 0.0
H995 H 0.46229 0.54553 0.62084 0.0
H996 H 0.39843 0.6137 0.59455 0.0
H997 H 0.46431 0.68176 0.60129 0.0
C998 C 0.54029 0.69229 0.61672 0.0
C999 C 0.57849 0.69356 0.62451 0.0
C1000 C 0.50182 0.65327 0.61458 0.0
C1001 C 0.57726 0.65517 0.63155 0.0
C1002 C 0.53888 0.61596 0.62948 0.0
C1003 C 0.46287 0.57532 0.61662 0.0
C1004 C 0.42544 0.57445 0.60708 0.0
C1005 C 0.5011 0.61457 0.62046 0.0
C1006 C 0.42655 0.61337 0.60214 0.0
C1007 C 0.4643 0.65234 0.60584 0.0
H1008 H 0.21535 0.62798 0.88529 0.0
H1009 H 0.09469 0.5775 0.92841 0.0
H1010 H 0.08171 0.5047 0.92221 0.0
H1011 H 0.10647 0.45522 0.90657 0.0
H1012 H 0.22802 0.50707 0.86434 0.0
H1013 H 0.23818 0.57887 0.86759 0.0
C1014 C 0.18588 0.60107 0.89294 0.0
C1015 C 0.15623 0.60845 0.90744 0.0
C1016 C 0.17868 0.55924 0.88943 0.0
C1017 C 0.11847 0.57298 0.91756 0.0
C1018 C 0.11088 0.53122 0.91389 0.0
C1019 C 0.13482 0.48218 0.89772 0.0
C1020 C 0.16645 0.47567 0.88532 0.0
C1021 C 0.141 0.52391 0.90016 0.0
C1022 C 0.20325 0.51109 0.8742 0.0
C1023 C 0.20918 0.55229 0.87606 0.0
H1024 H 0.32091 0.83108 0.62525 0.0
H1025 H 0.38425 0.96858 0.61733 0.0
H1026 H 0.45238 0.97123 0.60969 0.0
H1027 H 0.49356 0.93403 0.60393 0.0
H1028 H 0.4287 0.79632 0.61094 0.0
H1029 H 0.36171 0.79443 0.62054 0.0
C1030 C 0.34956 0.86178 0.62198 0.0
C1031 C 0.34725 0.89959 0.62178 0.0
C1032 C 0.38845 0.86303 0.61741 0.0
C1033 C 0.38495 0.93896 0.61761 0.0
C1034 C 0.42394 0.94048 0.61315 0.0
C1035 C 0.46473 0.90358 0.60741 0.0
C1036 C 0.46635 0.86535 0.60669 0.0
C1037 C 0.426 0.90264 0.61272 0.0
C1038 C 0.42869 0.82629 0.61171 0.0
C1039 C 0.39022 0.82513 0.61704 0.0
H1040 H 0.55959 0.72522 0.8878 0.0
H1041 H 0.6328 0.66173 0.89854 0.0
H1042 H 0.56669 0.59309 0.90411 0.0
H1043 H 0.48788 0.55127 0.90665 0.0
H1044 H 0.41587 0.61609 0.8964 0.0
H1045 H 0.48179 0.68389 0.8896 0.0
C1046 C 0.56131 0.69646 0.89131 0.0
C1047 C 0.60132 0.69885 0.89284 0.0
C1048 C 0.52327 0.6572 0.89451 0.0
C1049 C 0.60257 0.66099 0.89728 0.0
C1050 C 0.56473 0.62168 0.90051 0.0
C1051 C 0.48663 0.58026 0.90305 0.0
C1052 C 0.44679 0.57839 0.90198 0.0
C1053 C 0.52487 0.61944 0.89933 0.0
C1054 C 0.44587 0.6163 0.89691 0.0
C1055 C 0.48363 0.65522 0.89321 0.0
loop_
_geom_bond_atom_site_label_1
_geom_bond_atom_site_label_2
_geom_bond_distance
_geom_bond_site_symmetry_2
_ccdc_geom_bond_type
Dy0 O3 2.307 . S
Dy0 O5 2.395 . S
Dy0 O6 2.379 . S
Dy0 O8 2.339 . S
Dy0 O10 2.298 . S
Dy0 O14 2.275 . S
Dy0 C22 2.738 . S
Dy1 O4 2.298 . S
Dy1 O7 2.275 . S
Dy1 O9 2.307 . S
Dy1 O11 2.395 . S
Dy1 O12 2.379 . S
Dy1 O15 2.339 . S
Dy1 C31 2.738 . S
C2 O14 1.254 . S
C2 O15 1.257 . S
O3 Dy0 2.307 . S
O3 C13 1.266 . S
O4 Dy1 2.298 . S
O4 C13 1.236 . S
O5 Dy0 2.395 . S
O5 C22 1.255 . S
O6 Dy0 2.379 . S
O6 C22 1.249 . S
O7 Dy1 2.275 . S
O7 C23 1.254 . S
O8 Dy0 2.339 . S
O8 C23 1.257 . S
O9 Dy1 2.307 . S
O9 C24 1.266 . S
O10 Dy0 2.298 . S
O10 C24 1.236 . S
O11 Dy1 2.395 . S
O11 C31 1.255 . S
O12 Dy1 2.379 . S
O12 C31 1.249 . S
C13 O3 1.266 . S
C13 O4 1.236 . S
O14 Dy0 2.275 . S
O14 C2 1.254 . S
O15 Dy1 2.339 . S
O15 C2 1.257 . S
C16 C19 1.344 . S
C16 C20 1.328 . S
C16 C22 1.516 1_565 S
C17 C18 1.304 . S
C17 C21 1.323 . S
C18 C17 1.304 . S
C18 C19 1.371 . S
C18 H32 0.930 . S
C19 C16 1.344 . S
C19 C18 1.371 . S
C19 H33 0.931 . S
C20 C16 1.328 . S
C20 C21 1.433 . S
C20 H34 0.931 . S
C21 C17 1.323 . S
C21 C20 1.433 . S
C21 H35 0.933 . S
C22 Dy0 2.738 . S
C22 O5 1.255 . S
C22 O6 1.249 . S
C22 C16 1.516 1_545 S
C23 O7 1.254 . S
C23 O8 1.257 . S
C24 O9 1.266 . S
C24 O10 1.236 . S
C25 C28 1.344 . S
C25 C29 1.328 . S
C25 C31 1.516 . S
C26 C27 1.304 . S
C26 C30 1.323 . S
C27 C26 1.304 . S
C27 C28 1.371 . S
C27 H36 0.930 . S
C28 C25 1.344 . S
C28 C27 1.371 . S
C28 H37 0.931 . S
C29 C25 1.328 . S
C29 C30 1.433 . S
C29 H38 0.931 . S
C30 C26 1.323 . S
C30 C29 1.433 . S
C30 H39 0.933 . S
C31 Dy1 2.738 . S
C31 O11 1.255 . S
C31 O12 1.249 . S
C31 C25 1.516 . S
H32 C18 0.930 . S
H33 C19 0.931 . S
H34 C20 0.931 . S
H35 C21 0.933 . S
H36 C27 0.930 . S
H37 C28 0.931 . S
H38 C29 0.931 . S
H39 C30 0.933 . S
Dy40 O43 2.307 . S
Dy40 O45 2.395 . S
Dy40 O46 2.379 . S
Dy40 O48 2.339 . S
Dy40 O50 2.298 . S
Dy40 O54 2.275 . S
Dy40 C62 2.738 . S
Dy41 O44 2.298 . S
Dy41 O47 2.275 . S
Dy41 O49 2.307 . S
Dy41 O51 2.395 . S
Dy41 O52 2.379 . S
Dy41 O55 2.339 . S
Dy41 C71 2.738 . S
C42 O54 1.254 . S
C42 O55 1.257 . S
O43 Dy40 2.307 . S
O43 C53 1.266 . S
O44 Dy41 2.298 . S
O44 C53 1.236 . S
O45 Dy40 2.395 . S
O45 C62 1.255 . S
O46 Dy40 2.379 . S
O46 C62 1.249 . S
O47 Dy41 2.275 . S
O47 C63 1.254 . S
O48 Dy40 2.339 . S
O48 C63 1.257 . S
O49 Dy41 2.307 . S
O49 C64 1.266 . S
O50 Dy40 2.298 . S
O50 C64 1.236 . S
O51 Dy41 2.395 . S
O51 C71 1.255 . S
O52 Dy41 2.379 . S
O52 C71 1.249 . S
C53 O43 1.266 . S
C53 O44 1.236 . S
O54 Dy40 2.275 . S
O54 C42 1.254 . S
O55 Dy41 2.339 . S
O55 C42 1.257 . S
C56 C59 1.344 . S
C56 C60 1.328 . S
C56 C62 1.516 . S
C57 C58 1.304 . S
C57 C61 1.323 . S
C58 C57 1.304 . S
C58 C59 1.371 . S
C58 H72 0.930 . S
C59 C56 1.344 . S
C59 C58 1.371 . S
C59 H73 0.931 . S
C60 C56 1.328 . S
C60 C61 1.433 . S
C60 H74 0.931 . S
C61 C57 1.323 . S
C61 C60 1.433 . S
C61 H75 0.933 . S
C62 Dy40 2.738 . S
C62 O45 1.255 . S
C62 O46 1.249 . S
C62 C56 1.516 . S
C63 O47 1.254 . S
C63 O48 1.257 . S
C64 O49 1.266 . S
C64 O50 1.236 . S
C65 C68 1.344 . S
C65 C69 1.328 . S
C65 C71 1.516 . S
C66 C67 1.304 . S
C66 C70 1.323 . S
C67 C66 1.304 . S
C67 C68 1.371 . S
C67 H76 0.930 . S
C68 C65 1.344 . S
C68 C67 1.371 . S
C68 H77 0.931 . S
C69 C65 1.328 . S
C69 C70 1.433 . S
C69 H78 0.931 . S
C70 C66 1.323 . S
C70 C69 1.433 . S
C70 H79 0.933 . S
C71 Dy41 2.738 . S
C71 O51 1.255 . S
C71 O52 1.249 . S
C71 C65 1.516 . S
H72 C58 0.930 . S
H73 C59 0.931 . S
H74 C60 0.931 . S
H75 C61 0.933 . S
H76 C67 0.930 . S
H77 C68 0.931 . S
H78 C69 0.931 . S
H79 C70 0.933 . S
Dy80 O83 2.307 . S
Dy80 O85 2.395 . S
Dy80 O86 2.379 . S
Dy80 O88 2.339 . S
Dy80 O90 2.298 . S
Dy80 O94 2.275 . S
Dy80 C102 2.738 . S
Dy81 O84 2.298 . S
Dy81 O87 2.275 . S
Dy81 O89 2.307 . S
Dy81 O91 2.395 . S
Dy81 O92 2.379 . S
Dy81 O95 2.339 . S
Dy81 C111 2.738 . S
C82 O94 1.254 . S
C82 O95 1.257 . S
O83 Dy80 2.307 . S
O83 C93 1.266 . S
O84 Dy81 2.298 . S
O84 C93 1.236 . S
O85 Dy80 2.395 . S
O85 C102 1.255 . S
O86 Dy80 2.379 . S
O86 C102 1.249 . S
O87 Dy81 2.275 . S
O87 C103 1.254 . S
O88 Dy80 2.339 . S
O88 C103 1.257 . S
O89 Dy81 2.307 . S
O89 C104 1.266 . S
O90 Dy80 2.298 . S
O90 C104 1.236 . S
O91 Dy81 2.395 . S
O91 C111 1.255 . S
O92 Dy81 2.379 . S
O92 C111 1.249 . S
C93 O83 1.266 . S
C93 O84 1.236 . S
O94 Dy80 2.275 . S
O94 C82 1.254 . S
O95 Dy81 2.339 . S
O95 C82 1.257 . S
C96 C99 1.344 . S
C96 C100 1.328 . S
C96 C102 1.516 1_455 S
C97 C98 1.304 . S
C97 C101 1.323 . S
C98 C97 1.304 . S
C98 C99 1.371 . S
C98 H112 0.930 . S
C99 C96 1.344 . S
C99 C98 1.371 . S
C99 H113 0.931 . S
C100 C96 1.328 . S
C100 C101 1.433 . S
C100 H114 0.931 . S
C101 C97 1.323 . S
C101 C100 1.433 . S
C101 H115 0.933 . S
C102 Dy80 2.738 . S
C102 O85 1.255 . S
C102 O86 1.249 . S
C102 C96 1.516 1_655 S
C103 O87 1.254 . S
C103 O88 1.257 . S
C104 O89 1.266 . S
C104 O90 1.236 . S
C105 C108 1.344 . S
C105 C109 1.328 . S
C105 C111 1.516 . S
C106 C107 1.304 . S
C106 C110 1.323 . S
C107 C106 1.304 . S
C107 C108 1.371 . S
C107 H116 0.930 . S
C108 C105 1.344 . S
C108 C107 1.371 . S
C108 H117 0.931 . S
C109 C105 1.328 . S
C109 C110 1.433 . S
C109 H118 0.931 . S
C110 C106 1.323 . S
C110 C109 1.433 . S
C110 H119 0.933 . S
C111 Dy81 2.738 . S
C111 O91 1.255 . S
C111 O92 1.249 . S
C111 C105 1.516 . S
H112 C98 0.930 . S
H113 C99 0.931 . S
H114 C100 0.931 . S
H115 C101 0.933 . S
H116 C107 0.930 . S
H117 C108 0.931 . S
H118 C109 0.931 . S
H119 C110 0.933 . S
Dy120 O123 2.307 . S
Dy120 O125 2.395 . S
Dy120 O126 2.379 . S
Dy120 O128 2.339 . S
Dy120 O130 2.298 . S
Dy120 O134 2.275 . S
Dy120 C142 2.738 . S
Dy121 O124 2.298 . S
Dy121 O127 2.275 . S
Dy121 O129 2.307 . S
Dy121 O131 2.395 . S
Dy121 O132 2.379 . S
Dy121 O135 2.339 . S
Dy121 C151 2.738 . S
C122 O134 1.254 . S
C122 O135 1.257 . S
O123 Dy120 2.307 . S
O123 C133 1.266 . S
O124 Dy121 2.298 . S
O124 C133 1.236 . S
O125 Dy120 2.395 . S
O125 C142 1.255 . S
O126 Dy120 2.379 . S
O126 C142 1.249 . S
O127 Dy121 2.275 . S
O127 C143 1.254 . S
O128 Dy120 2.339 . S
O128 C143 1.257 . S
O129 Dy121 2.307 . S
O129 C144 1.266 . S
O130 Dy120 2.298 . S
O130 C144 1.236 . S
O131 Dy121 2.395 . S
O131 C151 1.255 . S
O132 Dy121 2.379 . S
O132 C151 1.249 . S
C133 O123 1.266 . S
C133 O124 1.236 . S
O134 Dy120 2.275 . S
O134 C122 1.254 . S
O135 Dy121 2.339 . S
O135 C122 1.257 . S
C136 C139 1.344 . S
C136 C140 1.328 . S
C136 C142 1.516 . S
C137 C138 1.304 . S
C137 C141 1.323 . S
C138 C137 1.304 . S
C138 C139 1.371 . S
C138 H152 0.930 . S
C139 C136 1.344 . S
C139 C138 1.371 . S
C139 H153 0.931 . S
C140 C136 1.328 . S
C140 C141 1.433 . S
C140 H154 0.931 . S
C141 C137 1.323 . S
C141 C140 1.433 . S
C141 H155 0.933 . S
C142 Dy120 2.738 . S
C142 O125 1.255 . S
C142 O126 1.249 . S
C142 C136 1.516 . S
C143 O127 1.254 . S
C143 O128 1.257 . S
C144 O129 1.266 . S
C144 O130 1.236 . S
C145 C148 1.344 . S
C145 C149 1.328 . S
C145 C151 1.516 1_565 S
C146 C147 1.304 . S
C146 C150 1.323 . S
C147 C146 1.304 . S
C147 C148 1.371 . S
C147 H156 0.930 . S
C148 C145 1.344 . S
C148 C147 1.371 . S
C148 H157 0.931 . S
C149 C145 1.328 . S
C149 C150 1.433 . S
C149 H158 0.931 . S
C150 C146 1.323 . S
C150 C149 1.433 . S
C150 H159 0.933 . S
C151 Dy121 2.738 . S
C151 O131 1.255 . S
C151 O132 1.249 . S
C151 C145 1.516 1_545 S
H152 C138 0.930 . S
H153 C139 0.931 . S
H154 C140 0.931 . S
H155 C141 0.933 . S
H156 C147 0.930 . S
H157 C148 0.931 . S
H158 C149 0.931 . S
H159 C150 0.933 . S
Dy160 O163 2.307 . S
Dy160 O165 2.395 . S
Dy160 O166 2.379 . S
Dy160 O168 2.339 . S
Dy160 O170 2.298 . S
Dy160 O174 2.275 . S
Dy160 C182 2.738 . S
Dy161 O164 2.298 . S
Dy161 O167 2.275 . S
Dy161 O169 2.307 . S
Dy161 O171 2.395 . S
Dy161 O172 2.379 . S
Dy161 O175 2.339 . S
Dy161 C191 2.738 . S
C162 O174 1.254 . S
C162 O175 1.257 . S
O163 Dy160 2.307 . S
O163 C173 1.266 . S
O164 Dy161 2.298 . S
O164 C173 1.236 . S
O165 Dy160 2.395 . S
O165 C182 1.255 . S
O166 Dy160 2.379 . S
O166 C182 1.249 . S
O167 Dy161 2.275 . S
O167 C183 1.254 . S
O168 Dy160 2.339 . S
O168 C183 1.257 . S
O169 Dy161 2.307 . S
O169 C184 1.266 . S
O170 Dy160 2.298 . S
O170 C184 1.236 . S
O171 Dy161 2.395 . S
O171 C191 1.255 . S
O172 Dy161 2.379 . S
O172 C191 1.249 . S
C173 O163 1.266 . S
C173 O164 1.236 . S
O174 Dy160 2.275 . S
O174 C162 1.254 . S
O175 Dy161 2.339 . S
O175 C162 1.257 . S
C176 C179 1.344 . S
C176 C180 1.328 . S
C176 C182 1.516 . S
C177 C178 1.304 . S
C177 C181 1.323 . S
C178 C177 1.304 . S
C178 C179 1.371 . S
C178 H192 0.930 . S
C179 C176 1.344 . S
C179 C178 1.371 . S
C179 H193 0.931 . S
C180 C176 1.328 . S
C180 C181 1.433 . S
C180 H194 0.931 . S
C181 C177 1.323 . S
C181 C180 1.433 . S
C181 H195 0.933 . S
C182 Dy160 2.738 . S
C182 O165 1.255 . S
C182 O166 1.249 . S
C182 C176 1.516 . S
C183 O167 1.254 . S
C183 O168 1.257 . S
C184 O169 1.266 . S
C184 O170 1.236 . S
C185 C188 1.344 . S
C185 C189 1.328 . S
C185 C191 1.516 . S
C186 C187 1.304 . S
C186 C190 1.323 . S
C187 C186 1.304 . S
C187 C188 1.371 . S
C187 H196 0.930 . S
C188 C185 1.344 . S
C188 C187 1.371 . S
C188 H197 0.931 . S
C189 C185 1.328 . S
C189 C190 1.433 . S
C189 H198 0.931 . S
C190 C186 1.323 . S
C190 C189 1.433 . S
C190 H199 0.933 . S
C191 Dy161 2.738 . S
C191 O171 1.255 . S
C191 O172 1.249 . S
C191 C185 1.516 . S
H192 C178 0.930 . S
H193 C179 0.931 . S
H194 C180 0.931 . S
H195 C181 0.933 . S
H196 C187 0.930 . S
H197 C188 0.931 . S
H198 C189 0.931 . S
H199 C190 0.933 . S
Dy200 O203 2.307 . S
Dy200 O205 2.395 . S
Dy200 O206 2.379 . S
Dy200 O208 2.339 . S
Dy200 O210 2.298 . S
Dy200 O214 2.275 . S
Dy200 C222 2.738 . S
Dy201 O204 2.298 . S
Dy201 O207 2.275 . S
Dy201 O209 2.307 . S
Dy201 O211 2.395 . S
Dy201 O212 2.379 . S
Dy201 O215 2.339 . S
Dy201 C231 2.738 . S
C202 O214 1.254 . S
C202 O215 1.257 . S
O203 Dy200 2.307 . S
O203 C213 1.266 . S
O204 Dy201 2.298 . S
O204 C213 1.236 . S
O205 Dy200 2.395 . S
O205 C222 1.255 . S
O206 Dy200 2.379 . S
O206 C222 1.249 . S
O207 Dy201 2.275 . S
O207 C223 1.254 . S
O208 Dy200 2.339 . S
O208 C223 1.257 . S
O209 Dy201 2.307 . S
O209 C224 1.266 . S
O210 Dy200 2.298 . S
O210 C224 1.236 . S
O211 Dy201 2.395 . S
O211 C231 1.255 . S
O212 Dy201 2.379 . S
O212 C231 1.249 . S
C213 O203 1.266 . S
C213 O204 1.236 . S
O214 Dy200 2.275 . S
O214 C202 1.254 . S
O215 Dy201 2.339 . S
O215 C202 1.257 . S
C216 C219 1.344 . S
C216 C220 1.328 . S
C216 C222 1.516 . S
C217 C218 1.304 . S
C217 C221 1.323 . S
C218 C217 1.304 . S
C218 C219 1.371 . S
C218 H232 0.930 . S
C219 C216 1.344 . S
C219 C218 1.371 . S
C219 H233 0.931 . S
C220 C216 1.328 . S
C220 C221 1.433 . S
C220 H234 0.931 . S
C221 C217 1.323 . S
C221 C220 1.433 . S
C221 H235 0.933 . S
C222 Dy200 2.738 . S
C222 O205 1.255 . S
C222 O206 1.249 . S
C222 C216 1.516 . S
C223 O207 1.254 . S
C223 O208 1.257 . S
C224 O209 1.266 . S
C224 O210 1.236 . S
C225 C228 1.344 . S
C225 C229 1.328 . S
C225 C231 1.516 1_455 S
C226 C227 1.304 . S
C226 C230 1.323 . S
C227 C226 1.304 . S
C227 C228 1.371 . S
C227 H236 0.930 . S
C228 C225 1.344 . S
C228 C227 1.371 . S
C228 H237 0.931 . S
C229 C225 1.328 . S
C229 C230 1.433 . S
C229 H238 0.931 . S
C230 C226 1.323 . S
C230 C229 1.433 . S
C230 H239 0.933 . S
C231 Dy201 2.738 . S
C231 O211 1.255 . S
C231 O212 1.249 . S
C231 C225 1.516 1_655 S
H232 C218 0.930 . S
H233 C219 0.931 . S
H234 C220 0.931 . S
H235 C221 0.933 . S
H236 C227 0.930 . S
H237 C228 0.931 . S
H238 C229 0.931 . S
H239 C230 0.933 . S
Dy240 O243 2.307 . S
Dy240 O245 2.395 . S
Dy240 O246 2.379 . S
Dy240 O248 2.339 . S
Dy240 O250 2.298 . S
Dy240 O254 2.275 . S
Dy240 C262 2.738 . S
Dy241 O244 2.298 . S
Dy241 O247 2.275 . S
Dy241 O249 2.307 . S
Dy241 O251 2.395 . S
Dy241 O252 2.379 . S
Dy241 O255 2.339 . S
Dy241 C271 2.738 . S
C242 O254 1.254 . S
C242 O255 1.257 . S
O243 Dy240 2.307 . S
O243 C253 1.266 . S
O244 Dy241 2.298 . S
O244 C253 1.236 . S
O245 Dy240 2.395 . S
O245 C262 1.255 . S
O246 Dy240 2.379 . S
O246 C262 1.249 . S
O247 Dy241 2.275 . S
O247 C263 1.254 . S
O248 Dy240 2.339 . S
O248 C263 1.257 . S
O249 Dy241 2.307 . S
O249 C264 1.266 . S
O250 Dy240 2.298 . S
O250 C264 1.236 . S
O251 Dy241 2.395 . S
O251 C271 1.255 . S
O252 Dy241 2.379 . S
O252 C271 1.249 . S
C253 O243 1.266 . S
C253 O244 1.236 . S
O254 Dy240 2.275 . S
O254 C242 1.254 . S
O255 Dy241 2.339 . S
O255 C242 1.257 . S
C256 C259 1.344 . S
C256 C260 1.328 . S
C256 C262 1.516 . S
C257 C258 1.304 . S
C257 C261 1.323 . S
C258 C257 1.304 . S
C258 C259 1.371 . S
C258 H272 0.930 . S
C259 C256 1.344 . S
C259 C258 1.371 . S
C259 H273 0.931 . S
C260 C256 1.328 . S
C260 C261 1.433 . S
C260 H274 0.931 . S
C261 C257 1.323 . S
C261 C260 1.433 . S
C261 H275 0.933 . S
C262 Dy240 2.738 . S
C262 O245 1.255 . S
C262 O246 1.249 . S
C262 C256 1.516 . S
C263 O247 1.254 . S
C263 O248 1.257 . S
C264 O249 1.266 . S
C264 O250 1.236 . S
C265 C268 1.344 . S
C265 C269 1.328 . S
C265 C271 1.516 1_655 S
C266 C267 1.304 . S
C266 C270 1.323 . S
C267 C266 1.304 . S
C267 C268 1.371 . S
C267 H276 0.930 . S
C268 C265 1.344 . S
C268 C267 1.371 . S
C268 H277 0.931 . S
C269 C265 1.328 . S
C269 C270 1.433 . S
C269 H278 0.931 . S
C270 C266 1.323 . S
C270 C269 1.433 . S
C270 H279 0.933 . S
C271 Dy241 2.738 . S
C271 O251 1.255 . S
C271 O252 1.249 . S
C271 C265 1.516 1_455 S
H272 C258 0.930 . S
H273 C259 0.931 . S
H274 C260 0.931 . S
H275 C261 0.933 . S
H276 C267 0.930 . S
H277 C268 0.931 . S
H278 C269 0.931 . S
H279 C270 0.933 . S
Dy280 O283 2.307 . S
Dy280 O285 2.395 . S
Dy280 O286 2.379 . S
Dy280 O288 2.339 . S
Dy280 O290 2.298 . S
Dy280 O294 2.275 . S
Dy280 C302 2.738 . S
Dy281 O284 2.298 . S
Dy281 O287 2.275 . S
Dy281 O289 2.307 . S
Dy281 O291 2.395 . S
Dy281 O292 2.379 . S
Dy281 O295 2.339 . S
Dy281 C311 2.738 . S
C282 O294 1.254 . S
C282 O295 1.257 . S
O283 Dy280 2.307 . S
O283 C293 1.266 . S
O284 Dy281 2.298 . S
O284 C293 1.236 . S
O285 Dy280 2.395 . S
O285 C302 1.255 . S
O286 Dy280 2.379 . S
O286 C302 1.249 . S
O287 Dy281 2.275 . S
O287 C303 1.254 . S
O288 Dy280 2.339 . S
O288 C303 1.257 . S
O289 Dy281 2.307 . S
O289 C304 1.266 . S
O290 Dy280 2.298 . S
O290 C304 1.236 . S
O291 Dy281 2.395 . S
O291 C311 1.255 . S
O292 Dy281 2.379 . S
O292 C311 1.249 . S
C293 O283 1.266 . S
C293 O284 1.236 . S
O294 Dy280 2.275 . S
O294 C282 1.254 . S
O295 Dy281 2.339 . S
O295 C282 1.257 . S
C296 C299 1.344 . S
C296 C300 1.328 . S
C296 C302 1.516 1_545 S
C297 C298 1.304 . S
C297 C301 1.323 . S
C298 C297 1.304 . S
C298 C299 1.371 . S
C298 H312 0.930 . S
C299 C296 1.344 . S
C299 C298 1.371 . S
C299 H313 0.931 . S
C300 C296 1.328 . S
C300 C301 1.433 . S
C300 H314 0.931 . S
C301 C297 1.323 . S
C301 C300 1.433 . S
C301 H315 0.933 . S
C302 Dy280 2.738 . S
C302 O285 1.255 . S
C302 O286 1.249 . S
C302 C296 1.516 1_565 S
C303 O287 1.254 . S
C303 O288 1.257 . S
C304 O289 1.266 . S
C304 O290 1.236 . S
C305 C308 1.344 . S
C305 C309 1.328 . S
C305 C311 1.516 . S
C306 C307 1.304 . S
C306 C310 1.323 . S
C307 C306 1.304 . S
C307 C308 1.371 . S
C307 H316 0.930 . S
C308 C305 1.344 . S
C308 C307 1.371 . S
C308 H317 0.931 . S
C309 C305 1.328 . S
C309 C310 1.433 . S
C309 H318 0.931 . S
C310 C306 1.323 . S
C310 C309 1.433 . S
C310 H319 0.933 . S
C311 Dy281 2.738 . S
C311 O291 1.255 . S
C311 O292 1.249 . S
C311 C305 1.516 . S
H312 C298 0.930 . S
H313 C299 0.931 . S
H314 C300 0.931 . S
H315 C301 0.933 . S
H316 C307 0.930 . S
H317 C308 0.931 . S
H318 C309 0.931 . S
H319 C310 0.933 . S
Dy320 O323 2.307 . S
Dy320 O325 2.395 . S
Dy320 O326 2.379 . S
Dy320 O328 2.339 . S
Dy320 O330 2.298 . S
Dy320 O334 2.275 . S
Dy320 C342 2.738 . S
Dy321 O324 2.298 . S
Dy321 O327 2.275 . S
Dy321 O329 2.307 . S
Dy321 O331 2.395 . S
Dy321 O332 2.379 . S
Dy321 O335 2.339 . S
Dy321 C351 2.738 . S
C322 O334 1.254 . S
C322 O335 1.257 . S
O323 Dy320 2.307 . S
O323 C333 1.266 . S
O324 Dy321 2.298 . S
O324 C333 1.236 . S
O325 Dy320 2.395 . S
O325 C342 1.255 . S
O326 Dy320 2.379 . S
O326 C342 1.249 . S
O327 Dy321 2.275 . S
O327 C343 1.254 . S
O328 Dy320 2.339 . S
O328 C343 1.257 . S
O329 Dy321 2.307 . S
O329 C344 1.266 . S
O330 Dy320 2.298 . S
O330 C344 1.236 . S
O331 Dy321 2.395 . S
O331 C351 1.255 . S
O332 Dy321 2.379 . S
O332 C351 1.249 . S
C333 O323 1.266 . S
C333 O324 1.236 . S
O334 Dy320 2.275 . S
O334 C322 1.254 . S
O335 Dy321 2.339 . S
O335 C322 1.257 . S
C336 C339 1.344 . S
C336 C340 1.328 . S
C336 C342 1.516 . S
C337 C338 1.304 . S
C337 C341 1.323 . S
C338 C337 1.304 . S
C338 C339 1.371 . S
C338 H352 0.930 . S
C339 C336 1.344 . S
C339 C338 1.371 . S
C339 H353 0.931 . S
C340 C336 1.328 . S
C340 C341 1.433 . S
C340 H354 0.931 . S
C341 C337 1.323 . S
C341 C340 1.433 . S
C341 H355 0.933 . S
C342 Dy320 2.738 . S
C342 O325 1.255 . S
C342 O326 1.249 . S
C342 C336 1.516 . S
C343 O327 1.254 . S
C343 O328 1.257 . S
C344 O329 1.266 . S
C344 O330 1.236 . S
C345 C348 1.344 . S
C345 C349 1.328 . S
C345 C351 1.516 . S
C346 C347 1.304 . S
C346 C350 1.323 . S
C347 C346 1.304 . S
C347 C348 1.371 . S
C347 H356 0.930 . S
C348 C345 1.344 . S
C348 C347 1.371 . S
C348 H357 0.931 . S
C349 C345 1.328 . S
C349 C350 1.433 . S
C349 H358 0.931 . S
C350 C346 1.323 . S
C350 C349 1.433 . S
C350 H359 0.933 . S
C351 Dy321 2.738 . S
C351 O331 1.255 . S
C351 O332 1.249 . S
C351 C345 1.516 . S
H352 C338 0.930 . S
H353 C339 0.931 . S
H354 C340 0.931 . S
H355 C341 0.933 . S
H356 C347 0.930 . S
H357 C348 0.931 . S
H358 C349 0.931 . S
H359 C350 0.933 . S
Dy360 O363 2.307 . S
Dy360 O365 2.395 . S
Dy360 O366 2.379 . S
Dy360 O368 2.339 . S
Dy360 O370 2.298 . S
Dy360 O374 2.275 . S
Dy360 C382 2.738 . S
Dy361 O364 2.298 . S
Dy361 O367 2.275 . S
Dy361 O369 2.307 . S
Dy361 O371 2.395 . S
Dy361 O372 2.379 . S
Dy361 O375 2.339 . S
Dy361 C391 2.738 . S
C362 O374 1.254 . S
C362 O375 1.257 . S
O363 Dy360 2.307 . S
O363 C373 1.266 . S
O364 Dy361 2.298 . S
O364 C373 1.236 . S
O365 Dy360 2.395 . S
O365 C382 1.255 . S
O366 Dy360 2.379 . S
O366 C382 1.249 . S
O367 Dy361 2.275 . S
O367 C383 1.254 . S
O368 Dy360 2.339 . S
O368 C383 1.257 . S
O369 Dy361 2.307 . S
O369 C384 1.266 . S
O370 Dy360 2.298 . S
O370 C384 1.236 . S
O371 Dy361 2.395 . S
O371 C391 1.255 . S
O372 Dy361 2.379 . S
O372 C391 1.249 . S
C373 O363 1.266 . S
C373 O364 1.236 . S
O374 Dy360 2.275 . S
O374 C362 1.254 . S
O375 Dy361 2.339 . S
O375 C362 1.257 . S
C376 C379 1.344 . S
C376 C380 1.328 . S
C376 C382 1.516 1_655 S
C377 C378 1.304 . S
C377 C381 1.323 . S
C378 C377 1.304 . S
C378 C379 1.371 . S
C378 H392 0.930 . S
C379 C376 1.344 . S
C379 C378 1.371 . S
C379 H393 0.931 . S
C380 C376 1.328 . S
C380 C381 1.433 . S
C380 H394 0.931 . S
C381 C377 1.323 . S
C381 C380 1.433 . S
C381 H395 0.933 . S
C382 Dy360 2.738 . S
C382 O365 1.255 . S
C382 O366 1.249 . S
C382 C376 1.516 1_455 S
C383 O367 1.254 . S
C383 O368 1.257 . S
C384 O369 1.266 . S
C384 O370 1.236 . S
C385 C388 1.344 . S
C385 C389 1.328 . S
C385 C391 1.516 . S
C386 C387 1.304 . S
C386 C390 1.323 . S
C387 C386 1.304 . S
C387 C388 1.371 . S
C387 H396 0.930 . S
C388 C385 1.344 . S
C388 C387 1.371 . S
C388 H397 0.931 . S
C389 C385 1.328 . S
C389 C390 1.433 . S
C389 H398 0.931 . S
C390 C386 1.323 . S
C390 C389 1.433 . S
C390 H399 0.933 . S
C391 Dy361 2.738 . S
C391 O371 1.255 . S
C391 O372 1.249 . S
C391 C385 1.516 . S
H392 C378 0.930 . S
H393 C379 0.931 . S
H394 C380 0.931 . S
H395 C381 0.933 . S
H396 C387 0.930 . S
H397 C388 0.931 . S
H398 C389 0.931 . S
H399 C390 0.933 . S
Dy400 O403 2.307 . S
Dy400 O405 2.395 . S
Dy400 O406 2.379 . S
Dy400 O408 2.339 . S
Dy400 O410 2.298 . S
Dy400 O414 2.275 . S
Dy400 C422 2.738 . S
Dy401 O404 2.298 . S
Dy401 O407 2.275 . S
Dy401 O409 2.307 . S
Dy401 O411 2.395 . S
Dy401 O412 2.379 . S
Dy401 O415 2.339 . S
Dy401 C431 2.738 . S
C402 O414 1.254 . S
C402 O415 1.257 . S
O403 Dy400 2.307 . S
O403 C413 1.266 . S
O404 Dy401 2.298 . S
O404 C413 1.236 . S
O405 Dy400 2.395 . S
O405 C422 1.255 . S
O406 Dy400 2.379 . S
O406 C422 1.249 . S
O407 Dy401 2.275 . S
O407 C423 1.254 . S
O408 Dy400 2.339 . S
O408 C423 1.257 . S
O409 Dy401 2.307 . S
O409 C424 1.266 . S
O410 Dy400 2.298 . S
O410 C424 1.236 . S
O411 Dy401 2.395 . S
O411 C431 1.255 . S
O412 Dy401 2.379 . S
O412 C431 1.249 . S
C413 O403 1.266 . S
C413 O404 1.236 . S
O414 Dy400 2.275 . S
O414 C402 1.254 . S
O415 Dy401 2.339 . S
O415 C402 1.257 . S
C416 C419 1.344 . S
C416 C420 1.328 . S
C416 C422 1.516 . S
C417 C418 1.304 . S
C417 C421 1.323 . S
C418 C417 1.304 . S
C418 C419 1.371 . S
C418 H432 0.930 . S
C419 C416 1.344 . S
C419 C418 1.371 . S
C419 H433 0.931 . S
C420 C416 1.328 . S
C420 C421 1.433 . S
C420 H434 0.931 . S
C421 C417 1.323 . S
C421 C420 1.433 . S
C421 H435 0.933 . S
C422 Dy400 2.738 . S
C422 O405 1.255 . S
C422 O406 1.249 . S
C422 C416 1.516 . S
C423 O407 1.254 . S
C423 O408 1.257 . S
C424 O409 1.266 . S
C424 O410 1.236 . S
C425 C428 1.344 . S
C425 C429 1.328 . S
C425 C431 1.516 1_545 S
C426 C427 1.304 . S
C426 C430 1.323 . S
C427 C426 1.304 . S
C427 C428 1.371 . S
C427 H436 0.930 . S
C428 C425 1.344 . S
C428 C427 1.371 . S
C428 H437 0.931 . S
C429 C425 1.328 . S
C429 C430 1.433 . S
C429 H438 0.931 . S
C430 C426 1.323 . S
C430 C429 1.433 . S
C430 H439 0.933 . S
C431 Dy401 2.738 . S
C431 O411 1.255 . S
C431 O412 1.249 . S
C431 C425 1.516 1_565 S
H432 C418 0.930 . S
H433 C419 0.931 . S
H434 C420 0.931 . S
H435 C421 0.933 . S
H436 C427 0.930 . S
H437 C428 0.931 . S
H438 C429 0.931 . S
H439 C430 0.933 . S
Dy440 O443 2.307 . S
Dy440 O445 2.395 . S
Dy440 O446 2.379 . S
Dy440 O448 2.339 . S
Dy440 O450 2.298 . S
Dy440 O454 2.275 . S
Dy440 C462 2.738 . S
Dy441 O444 2.298 . S
Dy441 O447 2.275 . S
Dy441 O449 2.307 . S
Dy441 O451 2.395 . S
Dy441 O452 2.379 . S
Dy441 O455 2.339 . S
Dy441 C471 2.738 . S
C442 O454 1.254 . S
C442 O455 1.257 . S
O443 Dy440 2.307 . S
O443 C453 1.266 . S
O444 Dy441 2.298 . S
O444 C453 1.236 . S
O445 Dy440 2.395 . S
O445 C462 1.255 . S
O446 Dy440 2.379 . S
O446 C462 1.249 . S
O447 Dy441 2.275 . S
O447 C463 1.254 . S
O448 Dy440 2.339 . S
O448 C463 1.257 . S
O449 Dy441 2.307 . S
O449 C464 1.266 . S
O450 Dy440 2.298 . S
O450 C464 1.236 . S
O451 Dy441 2.395 . S
O451 C471 1.255 . S
O452 Dy441 2.379 . S
O452 C471 1.249 . S
C453 O443 1.266 . S
C453 O444 1.236 . S
O454 Dy440 2.275 . S
O454 C442 1.254 . S
O455 Dy441 2.339 . S
O455 C442 1.257 . S
C456 C459 1.344 . S
C456 C460 1.328 . S
C456 C462 1.516 . S
C457 C458 1.304 . S
C457 C461 1.323 . S
C458 C457 1.304 . S
C458 C459 1.371 . S
C458 H472 0.930 . S
C459 C456 1.344 . S
C459 C458 1.371 . S
C459 H473 0.931 . S
C460 C456 1.328 . S
C460 C461 1.433 . S
C460 H474 0.931 . S
C461 C457 1.323 . S
C461 C460 1.433 . S
C461 H475 0.933 . S
C462 Dy440 2.738 . S
C462 O445 1.255 . S
C462 O446 1.249 . S
C462 C456 1.516 . S
C463 O447 1.254 . S
C463 O448 1.257 . S
C464 O449 1.266 . S
C464 O450 1.236 . S
C465 C468 1.344 . S
C465 C469 1.328 . S
C465 C471 1.516 . S
C466 C467 1.304 . S
C466 C470 1.323 . S
C467 C466 1.304 . S
C467 C468 1.371 . S
C467 H476 0.930 . S
C468 C465 1.344 . S
C468 C467 1.371 . S
C468 H477 0.931 . S
C469 C465 1.328 . S
C469 C470 1.433 . S
C469 H478 0.931 . S
C470 C466 1.323 . S
C470 C469 1.433 . S
C470 H479 0.933 . S
C471 Dy441 2.738 . S
C471 O451 1.255 . S
C471 O452 1.249 . S
C471 C465 1.516 . S
H472 C458 0.930 . S
H473 C459 0.931 . S
H474 C460 0.931 . S
H475 C461 0.933 . S
H476 C467 0.930 . S
H477 C468 0.931 . S
H478 C469 0.931 . S
H479 C470 0.933 . S
H480 C486 0.930 . S
H481 C489 0.930 . S
H482 C490 0.930 . S
H483 C491 0.930 . S
H484 C494 0.930 . S
H485 C495 0.930 . S
C486 H480 0.930 . S
C486 C487 1.355 . S
C486 C488 1.415 . S
C487 C486 1.355 . S
C487 C489 1.419 . S
C488 C486 1.415 . S
C488 C493 1.425 . S
C488 C495 1.409 . S
C489 H481 0.930 . S
C489 C487 1.419 . S
C489 C490 1.362 . S
C490 H482 0.930 . S
C490 C489 1.362 . S
C490 C493 1.409 . S
C491 H483 0.930 . S
C491 C492 1.355 . S
C491 C493 1.415 . S
C492 C491 1.355 . S
C492 C494 1.419 . S
C493 C488 1.425 . S
C493 C490 1.409 . S
C493 C491 1.415 . S
C494 H484 0.930 . S
C494 C492 1.419 . S
C494 C495 1.362 . S
C495 H485 0.930 . S
C495 C488 1.409 . S
C495 C494 1.362 . S
H496 C502 0.930 . S
H497 C505 0.930 . S
H498 C506 0.930 . S
H499 C507 0.930 . S
H500 C510 0.930 . S
H501 C511 0.930 . S
C502 H496 0.930 . S
C502 C503 1.355 . S
C502 C504 1.415 1_455 S
C503 C502 1.355 . S
C503 C505 1.419 . S
C504 C502 1.415 1_655 S
C504 C509 1.425 . S
C504 C511 1.409 . S
C505 H497 0.930 . S
C505 C503 1.419 . S
C505 C506 1.362 . S
C506 H498 0.930 . S
C506 C505 1.362 . S
C506 C509 1.409 1_455 S
C507 H499 0.930 . S
C507 C508 1.355 . S
C507 C509 1.415 . S
C508 C507 1.355 . S
C508 C510 1.419 . S
C509 C504 1.425 . S
C509 C506 1.409 1_655 S
C509 C507 1.415 . S
C510 H500 0.930 . S
C510 C508 1.419 . S
C510 C511 1.362 . S
C511 H501 0.930 . S
C511 C504 1.409 . S
C511 C510 1.362 . S
H512 C518 0.930 . S
H513 C521 0.930 . S
H514 C522 0.930 . S
H515 C523 0.930 . S
H516 C526 0.930 . S
H517 C527 0.930 . S
C518 H512 0.930 . S
C518 C519 1.355 . S
C518 C520 1.415 . S
C519 C518 1.355 . S
C519 C521 1.419 . S
C520 C518 1.415 . S
C520 C525 1.425 . S
C520 C527 1.409 1_545 S
C521 H513 0.930 . S
C521 C519 1.419 . S
C521 C522 1.362 . S
C522 H514 0.930 . S
C522 C521 1.362 . S
C522 C525 1.409 . S
C523 H515 0.930 . S
C523 C524 1.355 . S
C523 C525 1.415 1_565 S
C524 C523 1.355 . S
C524 C526 1.419 . S
C525 C520 1.425 . S
C525 C522 1.409 . S
C525 C523 1.415 1_545 S
C526 H516 0.930 . S
C526 C524 1.419 . S
C526 C527 1.362 . S
C527 H517 0.930 . S
C527 C520 1.409 1_565 S
C527 C526 1.362 . S
H528 C534 0.930 . S
H529 C537 0.930 . S
H530 C538 0.930 . S
H531 C539 0.930 . S
H532 C542 0.930 . S
H533 C543 0.930 . S
C534 H528 0.930 . S
C534 C535 1.355 . S
C534 C536 1.415 . S
C535 C534 1.355 . S
C535 C537 1.419 . S
C536 C534 1.415 . S
C536 C541 1.425 . S
C536 C543 1.409 . S
C537 H529 0.930 . S
C537 C535 1.419 . S
C537 C538 1.362 . S
C538 H530 0.930 . S
C538 C537 1.362 . S
C538 C541 1.409 . S
C539 H531 0.930 . S
C539 C540 1.355 . S
C539 C541 1.415 . S
C540 C539 1.355 . S
C540 C542 1.419 . S
C541 C536 1.425 . S
C541 C538 1.409 . S
C541 C539 1.415 . S
C542 H532 0.930 . S
C542 C540 1.419 . S
C542 C543 1.362 . S
C543 H533 0.930 . S
C543 C536 1.409 . S
C543 C542 1.362 . S
H544 C550 0.930 . S
H545 C553 0.930 . S
H546 C554 0.928 1_655 S
H547 C555 0.930 . S
H548 C558 0.930 . S
H549 C559 0.930 . S
C550 H544 0.930 . S
C550 C551 1.355 . S
C550 C552 1.436 . S
C551 C550 1.355 . S
C551 C553 1.419 . S
C552 C550 1.436 . S
C552 C557 1.403 1_455 S
C552 C559 1.409 1_455 S
C553 H545 0.930 . S
C553 C551 1.419 . S
C553 C554 1.364 . S
C554 H546 0.928 1_455 S
C554 C553 1.364 . S
C554 C557 1.409 1_455 S
C555 H547 0.930 . S
C555 C556 1.355 . S
C555 C557 1.415 . S
C556 C555 1.355 . S
C556 C558 1.419 . S
C557 C552 1.403 1_655 S
C557 C554 1.409 1_655 S
C557 C555 1.415 . S
C558 H548 0.930 . S
C558 C556 1.419 . S
C558 C559 1.362 . S
C559 H549 0.930 . S
C559 C552 1.409 1_655 S
C559 C558 1.362 . S
H560 C566 0.930 . S
H561 C569 0.930 . S
H562 C570 0.930 . S
H563 C571 0.930 . S
H564 C574 0.930 . S
H565 C575 0.930 . S
C566 H560 0.930 . S
C566 C567 1.355 . S
C566 C568 1.415 1_565 S
C567 C566 1.355 . S
C567 C569 1.419 . S
C568 C566 1.415 1_545 S
C568 C573 1.425 . S
C568 C575 1.409 . S
C569 H561 0.930 . S
C569 C567 1.419 . S
C569 C570 1.362 . S
C570 H562 0.930 . S
C570 C569 1.362 . S
C570 C573 1.409 1_565 S
C571 H563 0.930 . S
C571 C572 1.355 . S
C571 C573 1.415 . S
C572 C571 1.355 . S
C572 C574 1.419 . S
C573 C568 1.425 . S
C573 C570 1.409 1_545 S
C573 C571 1.415 . S
C574 H564 0.930 . S
C574 C572 1.419 . S
C574 C575 1.362 . S
C575 H565 0.930 . S
C575 C568 1.409 . S
C575 C574 1.362 . S
H576 C582 0.930 . S
H577 C585 0.930 . S
H578 C586 0.930 . S
H579 C587 0.930 . S
H580 C590 0.930 . S
H581 C591 0.930 . S
C582 H576 0.930 . S
C582 C583 1.355 . S
C582 C584 1.415 . S
C583 C582 1.355 . S
C583 C585 1.419 . S
C584 C582 1.415 . S
C584 C589 1.425 . S
C584 C591 1.409 . S
C585 H577 0.930 . S
C585 C583 1.419 . S
C585 C586 1.362 . S
C586 H578 0.930 . S
C586 C585 1.362 . S
C586 C589 1.409 . S
C587 H579 0.930 . S
C587 C588 1.355 . S
C587 C589 1.415 . S
C588 C587 1.355 . S
C588 C590 1.419 . S
C589 C584 1.425 . S
C589 C586 1.409 . S
C589 C587 1.415 . S
C590 H580 0.930 . S
C590 C588 1.419 . S
C590 C591 1.362 . S
C591 H581 0.930 . S
C591 C584 1.409 . S
C591 C590 1.362 . S
H592 C598 0.930 . S
H593 C601 0.930 . S
H594 C602 0.930 . S
H595 C603 0.930 . S
H596 C606 0.930 . S
H597 C607 0.930 . S
C598 H592 0.930 . S
C598 C599 1.355 . S
C598 C600 1.415 . S
C599 C598 1.355 . S
C599 C601 1.419 . S
C600 C598 1.415 . S
C600 C605 1.425 . S
C600 C607 1.409 1_455 S
C601 H593 0.930 . S
C601 C599 1.419 . S
C601 C602 1.362 . S
C602 H594 0.930 . S
C602 C601 1.362 . S
C602 C605 1.409 . S
C603 H595 0.930 . S
C603 C604 1.355 . S
C603 C605 1.415 1_655 S
C604 C603 1.355 . S
C604 C606 1.419 . S
C605 C600 1.425 . S
C605 C602 1.409 . S
C605 C603 1.415 1_455 S
C606 H596 0.930 . S
C606 C604 1.419 . S
C606 C607 1.362 . S
C607 H597 0.930 . S
C607 C600 1.409 1_655 S
C607 C606 1.362 . S
H608 C614 0.930 . S
H609 C617 0.930 . S
H610 C618 0.930 . S
H611 C619 0.930 . S
H612 C622 0.930 . S
H613 C623 0.930 . S
C614 H608 0.930 . S
C614 C615 1.355 . S
C614 C616 1.415 . S
C615 C614 1.355 . S
C615 C617 1.419 . S
C616 C614 1.415 . S
C616 C621 1.425 . S
C616 C623 1.409 1_565 S
C617 H609 0.930 . S
C617 C615 1.419 . S
C617 C618 1.362 . S
C618 H610 0.930 . S
C618 C617 1.362 . S
C618 C621 1.409 . S
C619 H611 0.930 . S
C619 C620 1.355 . S
C619 C621 1.415 1_545 S
C620 C619 1.355 . S
C620 C622 1.419 . S
C621 C616 1.425 . S
C621 C618 1.409 . S
C621 C619 1.415 1_565 S
C622 H612 0.930 . S
C622 C620 1.419 . S
C622 C623 1.362 . S
C623 H613 0.930 . S
C623 C616 1.409 1_545 S
C623 C622 1.362 . S
H624 C630 0.930 . S
H625 C633 0.930 . S
H626 C634 0.930 . S
H627 C635 0.930 . S
H628 C638 0.930 . S
H629 C639 0.930 . S
C630 H624 0.930 . S
C630 C631 1.355 . S
C630 C632 1.415 . S
C631 C630 1.355 . S
C631 C633 1.419 . S
C632 C630 1.415 . S
C632 C637 1.425 . S
C632 C639 1.409 . S
C633 H625 0.930 . S
C633 C631 1.419 . S
C633 C634 1.362 . S
C634 H626 0.930 . S
C634 C633 1.362 . S
C634 C637 1.409 . S
C635 H627 0.930 . S
C635 C636 1.355 . S
C635 C637 1.415 . S
C636 C635 1.355 . S
C636 C638 1.419 . S
C637 C632 1.425 . S
C637 C634 1.409 . S
C637 C635 1.415 . S
C638 H628 0.930 . S
C638 C636 1.419 . S
C638 C639 1.362 . S
C639 H629 0.930 . S
C639 C632 1.409 . S
C639 C638 1.362 . S
H640 C646 0.930 . S
H641 C649 0.930 . S
H642 C650 0.930 . S
H643 C651 0.930 . S
H644 C654 0.930 . S
H645 C655 0.930 1_455 S
C646 H640 0.930 . S
C646 C647 1.355 . S
C646 C648 1.415 . S
C647 C646 1.355 . S
C647 C649 1.419 . S
C648 C646 1.415 . S
C648 C653 1.425 . S
C648 C655 1.409 1_455 S
C649 H641 0.930 . S
C649 C647 1.419 . S
C649 C650 1.362 . S
C650 H642 0.930 . S
C650 C649 1.362 . S
C650 C653 1.409 . S
C651 H643 0.930 . S
C651 C652 1.355 . S
C651 C653 1.415 1_655 S
C652 C651 1.355 . S
C652 C654 1.419 . S
C653 C648 1.425 . S
C653 C650 1.409 . S
C653 C651 1.415 1_455 S
C654 H644 0.930 . S
C654 C652 1.419 . S
C654 C655 1.362 . S
C655 H645 0.930 1_655 S
C655 C648 1.409 1_655 S
C655 C654 1.362 . S
H656 C662 0.930 . S
H657 C665 0.930 . S
H658 C666 0.930 . S
H659 C667 0.930 . S
H660 C670 0.930 . S
H661 C671 0.930 . S
C662 H656 0.930 . S
C662 C663 1.355 . S
C662 C664 1.415 1_545 S
C663 C662 1.355 . S
C663 C665 1.419 . S
C664 C662 1.415 1_565 S
C664 C669 1.425 . S
C664 C671 1.409 . S
C665 H657 0.930 . S
C665 C663 1.419 . S
C665 C666 1.362 . S
C666 H658 0.930 . S
C666 C665 1.362 . S
C666 C669 1.409 1_545 S
C667 H659 0.930 . S
C667 C668 1.355 . S
C667 C669 1.415 . S
C668 C667 1.355 . S
C668 C670 1.419 . S
C669 C664 1.425 . S
C669 C666 1.409 1_565 S
C669 C667 1.415 . S
C670 H660 0.930 . S
C670 C668 1.419 . S
C670 C671 1.362 . S
C671 H661 0.930 . S
C671 C664 1.409 . S
C671 C670 1.362 . S
H672 C678 0.930 . S
H673 C681 0.930 . S
H674 C682 0.930 . S
H675 C683 0.930 . S
H676 C686 0.930 . S
H677 C687 0.930 . S
C678 H672 0.930 . S
C678 C679 1.355 . S
C678 C680 1.415 . S
C679 C678 1.355 . S
C679 C681 1.419 . S
C680 C678 1.415 . S
C680 C685 1.425 . S
C680 C687 1.409 . S
C681 H673 0.930 . S
C681 C679 1.419 . S
C681 C682 1.362 . S
C682 H674 0.930 . S
C682 C681 1.362 . S
C682 C685 1.409 . S
C683 H675 0.930 . S
C683 C684 1.355 . S
C683 C685 1.415 . S
C684 C683 1.355 . S
C684 C686 1.419 . S
C685 C680 1.425 . S
C685 C682 1.409 . S
C685 C683 1.415 . S
C686 H676 0.930 . S
C686 C684 1.419 . S
C686 C687 1.362 . S
C687 H677 0.930 . S
C687 C680 1.409 . S
C687 C686 1.362 . S
H688 C694 0.930 . S
H689 C697 0.930 . S
H690 C698 0.930 . S
H691 C699 0.930 . S
H692 C702 0.930 . S
H693 C703 0.930 . S
C694 H688 0.930 . S
C694 C695 1.355 . S
C694 C696 1.415 . S
C695 C694 1.355 . S
C695 C697 1.419 . S
C696 C694 1.415 . S
C696 C701 1.425 . S
C696 C703 1.409 . S
C697 H689 0.930 . S
C697 C695 1.419 . S
C697 C698 1.362 . S
C698 H690 0.930 . S
C698 C697 1.362 . S
C698 C701 1.409 . S
C699 H691 0.930 . S
C699 C700 1.355 . S
C699 C701 1.415 . S
C700 C699 1.355 . S
C700 C702 1.419 . S
C701 C696 1.425 . S
C701 C698 1.409 . S
C701 C699 1.415 . S
C702 H692 0.930 . S
C702 C700 1.419 . S
C702 C703 1.362 . S
C703 H693 0.930 . S
C703 C696 1.409 . S
C703 C702 1.362 . S
H704 C710 0.930 . S
H705 C713 0.930 . S
H706 C714 0.930 . S
H707 C715 0.930 . S
H708 C718 0.930 . S
H709 C719 0.930 . S
C710 H704 0.930 . S
C710 C711 1.355 . S
C710 C712 1.415 . S
C711 C710 1.355 . S
C711 C713 1.419 . S
C712 C710 1.415 . S
C712 C717 1.425 . S
C712 C719 1.409 . S
C713 H705 0.930 . S
C713 C711 1.419 . S
C713 C714 1.362 . S
C714 H706 0.930 . S
C714 C713 1.362 . S
C714 C717 1.409 . S
C715 H707 0.930 . S
C715 C716 1.355 . S
C715 C717 1.415 . S
C716 C715 1.355 . S
C716 C718 1.419 . S
C717 C712 1.425 . S
C717 C714 1.409 . S
C717 C715 1.415 . S
C718 H708 0.930 . S
C718 C716 1.419 . S
C718 C719 1.362 . S
C719 H709 0.930 . S
C719 C712 1.409 . S
C719 C718 1.362 . S
H720 C726 0.930 . S
H721 C729 0.930 . S
H722 C730 0.930 . S
H723 C731 0.930 . S
H724 C734 0.930 . S
H725 C735 0.930 . S
C726 H720 0.930 . S
C726 C727 1.355 . S
C726 C728 1.415 . S
C727 C726 1.355 . S
C727 C729 1.419 . S
C728 C726 1.415 . S
C728 C733 1.425 . S
C728 C735 1.409 . S
C729 H721 0.930 . S
C729 C727 1.419 . S
C729 C730 1.362 . S
C730 H722 0.930 . S
C730 C729 1.362 . S
C730 C733 1.409 . S
C731 H723 0.930 . S
C731 C732 1.355 . S
C731 C733 1.415 . S
C732 C731 1.355 . S
C732 C734 1.419 . S
C733 C728 1.425 . S
C733 C730 1.409 . S
C733 C731 1.415 . S
C734 H724 0.930 . S
C734 C732 1.419 . S
C734 C735 1.362 . S
C735 H725 0.930 . S
C735 C728 1.409 . S
C735 C734 1.362 . S
H736 C742 0.930 . S
H737 C745 0.930 . S
H738 C746 0.930 . S
H739 C747 0.930 . S
H740 C750 0.930 . S
H741 C751 0.930 . S
C742 H736 0.930 . S
C742 C743 1.355 . S
C742 C744 1.415 . S
C743 C742 1.355 . S
C743 C745 1.419 . S
C744 C742 1.415 . S
C744 C749 1.425 . S
C744 C751 1.409 . S
C745 H737 0.930 . S
C745 C743 1.419 . S
C745 C746 1.362 . S
C746 H738 0.930 . S
C746 C745 1.362 . S
C746 C749 1.409 . S
C747 H739 0.930 . S
C747 C748 1.355 . S
C747 C749 1.415 . S
C748 C747 1.355 . S
C748 C750 1.419 . S
C749 C744 1.425 . S
C749 C746 1.409 . S
C749 C747 1.415 . S
C750 H740 0.930 . S
C750 C748 1.419 . S
C750 C751 1.362 . S
C751 H741 0.930 . S
C751 C744 1.409 . S
C751 C750 1.362 . S
H752 C758 0.930 . S
H753 C761 0.930 . S
H754 C762 0.930 . S
H755 C763 0.930 . S
H756 C766 0.930 . S
H757 C767 0.930 . S
C758 H752 0.930 . S
C758 C759 1.355 . S
C758 C760 1.415 . S
C759 C758 1.355 . S
C759 C761 1.419 . S
C760 C758 1.415 . S
C760 C765 1.425 . S
C760 C767 1.409 . S
C761 H753 0.930 . S
C761 C759 1.419 . S
C761 C762 1.362 . S
C762 H754 0.930 . S
C762 C761 1.362 . S
C762 C765 1.409 . S
C763 H755 0.930 . S
C763 C764 1.355 . S
C763 C765 1.415 . S
C764 C763 1.355 . S
C764 C766 1.419 . S
C765 C760 1.425 . S
C765 C762 1.409 . S
C765 C763 1.415 . S
C766 H756 0.930 . S
C766 C764 1.419 . S
C766 C767 1.362 . S
C767 H757 0.930 . S
C767 C760 1.409 . S
C767 C766 1.362 . S
H768 C774 0.930 . S
H769 C777 0.930 . S
H770 C778 0.930 . S
H771 C779 0.930 . S
H772 C782 0.930 . S
H773 C783 0.930 . S
C774 H768 0.930 . S
C774 C775 1.355 . S
C774 C776 1.415 1_565 S
C775 C774 1.355 . S
C775 C777 1.419 1_556 S
C776 C774 1.415 1_545 S
C776 C781 1.425 1_546 S
C776 C783 1.409 . S
C777 H769 0.930 . S
C777 C775 1.419 1_554 S
C777 C778 1.362 . S
C778 H770 0.930 . S
C778 C777 1.362 . S
C778 C781 1.409 . S
C779 H771 0.930 . S
C779 C780 1.355 . S
C779 C781 1.415 1_545 S
C780 C779 1.355 . S
C780 C782 1.419 1_554 S
C781 C776 1.425 1_564 S
C781 C778 1.409 . S
C781 C779 1.415 1_565 S
C782 H772 0.930 . S
C782 C780 1.419 1_556 S
C782 C783 1.362 . S
C783 H773 0.930 . S
C783 C776 1.409 . S
C783 C782 1.362 . S
H784 C790 0.930 . S
H785 C793 0.930 . S
H786 C794 0.930 . S
H787 C795 0.930 . S
H788 C798 0.930 . S
H789 C799 0.930 . S
C790 H784 0.930 . S
C790 C791 1.355 . S
C790 C792 1.415 . S
C791 C790 1.355 . S
C791 C793 1.419 . S
C792 C790 1.415 . S
C792 C797 1.425 . S
C792 C799 1.409 . S
C793 H785 0.930 . S
C793 C791 1.419 . S
C793 C794 1.362 . S
C794 H786 0.930 . S
C794 C793 1.362 . S
C794 C797 1.409 . S
C795 H787 0.930 . S
C795 C796 1.355 . S
C795 C797 1.415 . S
C796 C795 1.355 . S
C796 C798 1.419 . S
C797 C792 1.425 . S
C797 C794 1.409 . S
C797 C795 1.415 . S
C798 H788 0.930 . S
C798 C796 1.419 . S
C798 C799 1.362 . S
C799 H789 0.930 . S
C799 C792 1.409 . S
C799 C798 1.362 . S
H800 C806 0.930 1_554 S
H801 C809 0.930 . S
H802 C810 0.930 . S
H803 C811 0.930 1_556 S
H804 C814 0.930 . S
H805 C815 0.930 . S
C806 H800 0.930 1_556 S
C806 C807 1.355 . S
C806 C808 1.415 1_556 S
C807 C806 1.355 . S
C807 C809 1.419 . S
C808 C806 1.415 1_554 S
C808 C813 1.425 1_454 S
C808 C815 1.409 . S
C809 H801 0.930 . S
C809 C807 1.419 . S
C809 C810 1.362 1_455 S
C810 H802 0.930 . S
C810 C809 1.362 1_655 S
C810 C813 1.409 . S
C811 H803 0.930 1_554 S
C811 C812 1.355 . S
C811 C813 1.415 1_554 S
C812 C811 1.355 . S
C812 C814 1.419 . S
C813 C808 1.425 1_656 S
C813 C810 1.409 . S
C813 C811 1.415 1_556 S
C814 H804 0.930 . S
C814 C812 1.419 . S
C814 C815 1.362 1_655 S
C815 H805 0.930 . S
C815 C808 1.409 . S
C815 C814 1.362 1_455 S
H816 C822 0.930 . S
H817 C825 0.930 . S
H818 C826 0.933 1_565 S
H819 C827 0.930 . S
H820 C830 0.930 . S
H821 C831 0.933 1_545 S
C822 H816 0.930 . S
C822 C823 1.355 . S
C822 C824 1.415 . S
C823 C822 1.355 . S
C823 C825 1.419 . S
C824 C822 1.415 . S
C824 C829 1.425 1_545 S
C824 C831 1.409 1_545 S
C825 H817 0.930 . S
C825 C823 1.419 . S
C825 C826 1.362 . S
C826 H818 0.933 1_545 S
C826 C825 1.362 . S
C826 C829 1.409 1_545 S
C827 H819 0.930 . S
C827 C828 1.355 . S
C827 C829 1.415 . S
C828 C827 1.355 . S
C828 C830 1.419 . S
C829 C824 1.425 1_565 S
C829 C826 1.409 1_565 S
C829 C827 1.415 . S
C830 H820 0.930 . S
C830 C828 1.419 . S
C830 C831 1.362 . S
C831 H821 0.933 1_565 S
C831 C824 1.409 1_565 S
C831 C830 1.362 . S
H832 C838 0.930 . S
H833 C841 0.929 1_556 S
H834 C842 0.930 . S
H835 C843 0.930 . S
H836 C846 0.929 1_554 S
H837 C847 0.930 . S
C838 H832 0.930 . S
C838 C839 1.355 . S
C838 C840 1.415 . S
C839 C838 1.355 . S
C839 C841 1.424 . S
C840 C838 1.415 . S
C840 C845 1.425 1_554 S
C840 C847 1.409 . S
C841 H833 0.929 1_554 S
C841 C839 1.424 . S
C841 C842 1.359 1_554 S
C842 H834 0.930 . S
C842 C841 1.359 1_556 S
C842 C845 1.409 . S
C843 H835 0.930 . S
C843 C844 1.355 . S
C843 C845 1.415 . S
C844 C843 1.355 . S
C844 C846 1.424 . S
C845 C840 1.425 1_556 S
C845 C842 1.409 . S
C845 C843 1.415 . S
C846 H836 0.929 1_556 S
C846 C844 1.424 . S
C846 C847 1.359 1_556 S
C847 H837 0.930 . S
C847 C840 1.409 . S
C847 C846 1.359 1_554 S
H848 C854 0.930 . S
H849 C857 0.930 . S
H850 C858 0.930 . S
H851 C859 0.930 . S
H852 C862 0.930 . S
H853 C863 0.930 . S
C854 H848 0.930 . S
C854 C855 1.355 . S
C854 C856 1.415 . S
C855 C854 1.355 . S
C855 C857 1.419 . S
C856 C854 1.415 . S
C856 C861 1.425 1_455 S
C856 C863 1.409 . S
C857 H849 0.930 . S
C857 C855 1.419 . S
C857 C858 1.362 1_455 S
C858 H850 0.930 . S
C858 C857 1.362 1_655 S
C858 C861 1.409 . S
C859 H851 0.930 . S
C859 C860 1.355 . S
C859 C861 1.415 . S
C860 C859 1.355 . S
C860 C862 1.419 . S
C861 C856 1.425 1_655 S
C861 C858 1.409 . S
C861 C859 1.415 . S
C862 H852 0.930 . S
C862 C860 1.419 . S
C862 C863 1.362 1_655 S
C863 H853 0.930 . S
C863 C856 1.409 . S
C863 C862 1.362 1_455 S
H864 C870 0.930 . S
H865 C873 0.930 . S
H866 C874 0.930 . S
H867 C875 0.930 . S
H868 C878 0.930 . S
H869 C879 0.930 . S
C870 H864 0.930 . S
C870 C871 1.355 . S
C870 C872 1.415 . S
C871 C870 1.355 . S
C871 C873 1.419 . S
C872 C870 1.415 . S
C872 C877 1.425 . S
C872 C879 1.409 . S
C873 H865 0.930 . S
C873 C871 1.419 . S
C873 C874 1.362 . S
C874 H866 0.930 . S
C874 C873 1.362 . S
C874 C877 1.409 . S
C875 H867 0.930 . S
C875 C876 1.355 . S
C875 C877 1.415 . S
C876 C875 1.355 . S
C876 C878 1.419 . S
C877 C872 1.425 . S
C877 C874 1.409 . S
C877 C875 1.415 . S
C878 H868 0.930 . S
C878 C876 1.419 . S
C878 C879 1.362 . S
C879 H869 0.930 . S
C879 C872 1.409 . S
C879 C878 1.362 . S
H880 C886 0.930 . S
H881 C889 0.930 . S
H882 C890 0.930 . S
H883 C891 0.930 . S
H884 C894 0.930 . S
H885 C895 0.930 . S
C886 H880 0.930 . S
C886 C887 1.355 . S
C886 C888 1.415 . S
C887 C886 1.355 . S
C887 C889 1.419 . S
C888 C886 1.415 . S
C888 C893 1.425 . S
C888 C895 1.409 . S
C889 H881 0.930 . S
C889 C887 1.419 . S
C889 C890 1.362 . S
C890 H882 0.930 . S
C890 C889 1.362 . S
C890 C893 1.409 . S
C891 H883 0.930 . S
C891 C892 1.355 . S
C891 C893 1.415 . S
C892 C891 1.355 . S
C892 C894 1.419 . S
C893 C888 1.425 . S
C893 C890 1.409 . S
C893 C891 1.415 . S
C894 H884 0.930 . S
C894 C892 1.419 . S
C894 C895 1.362 . S
C895 H885 0.930 . S
C895 C888 1.409 . S
C895 C894 1.362 . S
H896 C902 0.930 . S
H897 C905 0.930 . S
H898 C906 0.930 . S
H899 C907 0.930 . S
H900 C910 0.930 . S
H901 C911 0.930 . S
C902 H896 0.930 . S
C902 C903 1.355 . S
C902 C904 1.415 . S
C903 C902 1.355 . S
C903 C905 1.419 . S
C904 C902 1.415 . S
C904 C909 1.425 . S
C904 C911 1.409 . S
C905 H897 0.930 . S
C905 C903 1.419 . S
C905 C906 1.362 . S
C906 H898 0.930 . S
C906 C905 1.362 . S
C906 C909 1.409 . S
C907 H899 0.930 . S
C907 C908 1.355 . S
C907 C909 1.415 . S
C908 C907 1.355 . S
C908 C910 1.419 . S
C909 C904 1.425 . S
C909 C906 1.409 . S
C909 C907 1.415 . S
C910 H900 0.930 . S
C910 C908 1.419 . S
C910 C911 1.362 . S
C911 H901 0.930 . S
C911 C904 1.409 . S
C911 C910 1.362 . S
H912 C918 0.930 . S
H913 C921 0.930 . S
H914 C922 0.930 . S
H915 C923 0.930 . S
H916 C926 0.930 . S
H917 C927 0.930 . S
C918 H912 0.930 . S
C918 C919 1.355 . S
C918 C920 1.415 . S
C919 C918 1.355 . S
C919 C921 1.419 . S
C920 C918 1.415 . S
C920 C925 1.425 . S
C920 C927 1.409 . S
C921 H913 0.930 . S
C921 C919 1.419 . S
C921 C922 1.362 . S
C922 H914 0.930 . S
C922 C921 1.362 . S
C922 C925 1.409 . S
C923 H915 0.930 . S
C923 C924 1.355 . S
C923 C925 1.415 . S
C924 C923 1.355 . S
C924 C926 1.419 . S
C925 C920 1.425 . S
C925 C922 1.409 . S
C925 C923 1.415 . S
C926 H916 0.930 . S
C926 C924 1.419 . S
C926 C927 1.362 . S
C927 H917 0.930 . S
C927 C920 1.409 . S
C927 C926 1.362 . S
H928 C934 0.930 . S
H929 C937 0.930 . S
H930 C938 0.930 . S
H931 C939 0.930 . S
H932 C942 0.930 . S
H933 C943 0.930 . S
C934 H928 0.930 . S
C934 C935 1.355 . S
C934 C936 1.415 . S
C935 C934 1.355 . S
C935 C937 1.419 . S
C936 C934 1.415 . S
C936 C941 1.425 . S
C936 C943 1.409 . S
C937 H929 0.930 . S
C937 C935 1.419 . S
C937 C938 1.362 . S
C938 H930 0.930 . S
C938 C937 1.362 . S
C938 C941 1.409 . S
C939 H931 0.930 . S
C939 C940 1.355 . S
C939 C941 1.415 . S
C940 C939 1.355 . S
C940 C942 1.419 . S
C941 C936 1.425 . S
C941 C938 1.409 . S
C941 C939 1.415 . S
C942 H932 0.930 . S
C942 C940 1.419 . S
C942 C943 1.362 . S
C943 H933 0.930 . S
C943 C936 1.409 . S
C943 C942 1.362 . S
H944 C950 0.930 . S
H945 C953 0.930 . S
H946 C954 0.930 . S
H947 C955 0.930 . S
H948 C958 0.930 . S
H949 C959 0.930 . S
C950 H944 0.930 . S
C950 C951 1.355 . S
C950 C952 1.415 . S
C951 C950 1.355 . S
C951 C953 1.419 . S
C952 C950 1.415 . S
C952 C957 1.425 . S
C952 C959 1.409 . S
C953 H945 0.930 . S
C953 C951 1.419 . S
C953 C954 1.362 . S
C954 H946 0.930 . S
C954 C953 1.362 . S
C954 C957 1.409 . S
C955 H947 0.930 . S
C955 C956 1.355 . S
C955 C957 1.415 . S
C956 C955 1.355 . S
C956 C958 1.419 . S
C957 C952 1.425 . S
C957 C954 1.409 . S
C957 C955 1.415 . S
C958 H948 0.930 . S
C958 C956 1.419 . S
C958 C959 1.362 . S
C959 H949 0.930 . S
C959 C952 1.409 . S
C959 C958 1.362 . S
H960 C966 0.930 . S
H961 C969 0.930 . S
H962 C970 0.930 . S
H963 C971 0.930 . S
H964 C974 0.930 . S
H965 C975 0.930 . S
C966 H960 0.930 . S
C966 C967 1.355 . S
C966 C968 1.415 . S
C967 C966 1.355 . S
C967 C969 1.419 . S
C968 C966 1.415 . S
C968 C973 1.425 . S
C968 C975 1.409 . S
C969 H961 0.930 . S
C969 C967 1.419 . S
C969 C970 1.362 . S
C970 H962 0.930 . S
C970 C969 1.362 . S
C970 C973 1.409 . S
C971 H963 0.930 . S
C971 C972 1.355 . S
C971 C973 1.415 . S
C972 C971 1.355 . S
C972 C974 1.419 . S
C973 C968 1.425 . S
C973 C970 1.409 . S
C973 C971 1.415 . S
C974 H964 0.930 . S
C974 C972 1.419 . S
C974 C975 1.362 . S
C975 H965 0.930 . S
C975 C968 1.409 . S
C975 C974 1.362 . S
H976 C982 0.930 . S
H977 C985 0.930 . S
H978 C986 0.930 . S
H979 C987 0.930 . S
H980 C990 0.930 . S
H981 C991 0.930 . S
C982 H976 0.930 . S
C982 C983 1.355 . S
C982 C984 1.415 . S
C983 C982 1.355 . S
C983 C985 1.419 . S
C984 C982 1.415 . S
C984 C989 1.425 . S
C984 C991 1.409 . S
C985 H977 0.930 . S
C985 C983 1.419 . S
C985 C986 1.362 . S
C986 H978 0.930 . S
C986 C985 1.362 . S
C986 C989 1.409 . S
C987 H979 0.930 . S
C987 C988 1.355 . S
C987 C989 1.415 . S
C988 C987 1.355 . S
C988 C990 1.419 . S
C989 C984 1.425 . S
C989 C986 1.409 . S
C989 C987 1.415 . S
C990 H980 0.930 . S
C990 C988 1.419 . S
C990 C991 1.362 . S
C991 H981 0.930 . S
C991 C984 1.409 . S
C991 C990 1.362 . S
H992 C998 0.930 . S
H993 C1001 0.930 . S
H994 C1002 0.930 . S
H995 C1003 0.930 . S
H996 C1006 0.930 . S
H997 C1007 0.930 . S
C998 H992 0.930 . S
C998 C999 1.355 . S
C998 C1000 1.415 . S
C999 C998 1.355 . S
C999 C1001 1.419 . S
C1000 C998 1.415 . S
C1000 C1005 1.425 . S
C1000 C1007 1.409 . S
C1001 H993 0.930 . S
C1001 C999 1.419 . S
C1001 C1002 1.362 . S
C1002 H994 0.930 . S
C1002 C1001 1.362 . S
C1002 C1005 1.409 . S
C1003 H995 0.930 . S
C1003 C1004 1.355 . S
C1003 C1005 1.415 . S
C1004 C1003 1.355 . S
C1004 C1006 1.419 . S
C1005 C1000 1.425 . S
C1005 C1002 1.409 . S
C1005 C1003 1.415 . S
C1006 H996 0.930 . S
C1006 C1004 1.419 . S
C1006 C1007 1.362 . S
C1007 H997 0.930 . S
C1007 C1000 1.409 . S
C1007 C1006 1.362 . S
H1008 C1014 0.930 . S
H1009 C1017 0.930 . S
H1010 C1018 0.930 . S
H1011 C1019 0.930 . S
H1012 C1022 0.930 . S
H1013 C1023 0.930 . S
C1014 H1008 0.930 . S
C1014 C1015 1.355 . S
C1014 C1016 1.415 . S
C1015 C1014 1.355 . S
C1015 C1017 1.419 . S
C1016 C1014 1.415 . S
C1016 C1021 1.425 . S
C1016 C1023 1.409 . S
C1017 H1009 0.930 . S
C1017 C1015 1.419 . S
C1017 C1018 1.362 . S
C1018 H1010 0.930 . S
C1018 C1017 1.362 . S
C1018 C1021 1.409 . S
C1019 H1011 0.930 . S
C1019 C1020 1.355 . S
C1019 C1021 1.415 . S
C1020 C1019 1.355 . S
C1020 C1022 1.419 . S
C1021 C1016 1.425 . S
C1021 C1018 1.409 . S
C1021 C1019 1.415 . S
C1022 H1012 0.930 . S
C1022 C1020 1.419 . S
C1022 C1023 1.362 . S
C1023 H1013 0.930 . S
C1023 C1016 1.409 . S
C1023 C1022 1.362 . S
H1024 C1030 0.930 . S
H1025 C1033 0.930 . S
H1026 C1034 0.930 . S
H1027 C1035 0.930 . S
H1028 C1038 0.930 . S
H1029 C1039 0.930 . S
C1030 H1024 0.930 . S
C1030 C1031 1.355 . S
C1030 C1032 1.415 . S
C1031 C1030 1.355 . S
C1031 C1033 1.419 . S
C1032 C1030 1.415 . S
C1032 C1037 1.425 . S
C1032 C1039 1.409 . S
C1033 H1025 0.930 . S
C1033 C1031 1.419 . S
C1033 C1034 1.362 . S
C1034 H1026 0.930 . S
C1034 C1033 1.362 . S
C1034 C1037 1.409 . S
C1035 H1027 0.930 . S
C1035 C1036 1.355 . S
C1035 C1037 1.415 . S
C1036 C1035 1.355 . S
C1036 C1038 1.419 . S
C1037 C1032 1.425 . S
C1037 C1034 1.409 . S
C1037 C1035 1.415 . S
C1038 H1028 0.930 . S
C1038 C1036 1.419 . S
C1038 C1039 1.362 . S
C1039 H1029 0.930 . S
C1039 C1032 1.409 . S
C1039 C1038 1.362 . S
H1040 C1046 0.930 . S
H1041 C1049 0.930 . S
H1042 C1050 0.930 . S
H1043 C1051 0.930 . S
H1044 C1054 0.930 . S
H1045 C1055 0.930 . S
C1046 H1040 0.930 . S
C1046 C1047 1.355 . S
C1046 C1048 1.415 . S
C1047 C1046 1.355 . S
C1047 C1049 1.419 . S
C1048 C1046 1.415 . S
C1048 C1053 1.425 . S
C1048 C1055 1.409 . S
C1049 H1041 0.930 . S
C1049 C1047 1.419 . S
C1049 C1050 1.362 . S
C1050 H1042 0.930 . S
C1050 C1049 1.362 . S
C1050 C1053 1.409 . S
C1051 H1043 0.930 . S
C1051 C1052 1.355 . S
C1051 C1053 1.415 . S
C1052 C1051 1.355 . S
C1052 C1054 1.419 . S
C1053 C1048 1.425 . S
C1053 C1050 1.409 . S
C1053 C1051 1.415 . S
C1054 H1044 0.930 . S
C1054 C1052 1.419 . S
C1054 C1055 1.362 . S
C1055 H1045 0.930 . S
C1055 C1048 1.409 . S
C1055 C1054 1.362 . S
C487 C97 1.285 . S
C492 C24 1.283 . S
C503 C146 1.226 . S
C508 C53 1.224 . S
C519 C104 1.220 . S
C524 C177 1.222 . S
C535 C133 1.232 . S
C540 C226 1.234 . S
C551 C17 1.224 . S
C556 C184 1.221 . S
C567 C66 1.251 . S
C572 C213 1.248 . S
C583 C426 1.297 . S
C588 C253 1.296 . S
C599 C304 1.224 . S
C604 C457 1.227 . S
C615 C333 1.298 . S
C620 C266 1.299 . S
C631 C384 1.252 . S
C636 C297 1.255 . S
C647 C413 1.219 . S
C652 C346 1.222 . S
C663 C377 1.235 . S
C668 C464 1.232 . S
C679 C122 1.735 . S
C684 C23 1.716 . S
C695 C42 1.697 . S
C700 C183 1.754 . S
C711 C103 1.744 . S
C716 C202 1.707 . S
C727 C242 1.709 . S
C732 C383 1.742 . S
C743 C303 1.734 . S
C748 C402 1.718 . S
C759 C322 1.758 . S
C764 C463 1.693 . S
C775 C282 2.384 . S
C780 C2 2.395 . S
C791 C63 2.390 . S
C796 C343 2.396 . S
C807 C362 2.362 . S
C812 C82 2.365 . S
C823 C143 2.376 . S
C828 C423 2.364 . S
C839 C162 2.396 . S
C844 C442 2.391 . S
C855 C263 2.365 . S
C860 C223 2.362 . S
C871 C106 1.539 . S
C876 C13 1.537 . S
C887 C64 1.563 . S
C892 C137 1.564 . S
C903 C93 1.553 . S
C908 C186 1.554 . S
C919 C144 1.579 . S
C924 C217 1.580 . S
C935 C26 1.590 . S
C940 C173 1.589 . S
C951 C57 1.567 . S
C956 C224 1.565 . S
C967 C417 1.577 . S
C972 C264 1.575 . S
C983 C293 1.590 . S
C988 C466 1.591 . S
C999 C344 1.569 . S
C1004 C257 1.571 . S
C1015 C306 1.544 . S
C1020 C373 1.543 . S
C1031 C424 1.555 . S
C1036 C337 1.557 . S
C1047 C453 1.566 . S
C1052 C386 1.567 . S
