# Generated by pormake.
# Topology upc, (4)-cn, num edge types: 1
# Building blocks:
#     Node 0, Type 0, BuildingBlock: ICAMEG_clean_sbu_1, # of connection points: 4
#     Node 1, Type 0, BuildingBlock: ICAMEG_clean_sbu_1, # of connection points: 4
#     Node 2, Type 0, BuildingBlock: ICAMEG_clean_sbu_1, # of connection points: 4
#     Node 3, Type 0, BuildingBlock: ICAMEG_clean_sbu_1, # of connection points: 4
#     Node 4, Type 0, BuildingBlock: ICAMEG_clean_sbu_1, # of connection points: 4
#     Node 5, Type 0, BuildingBlock: ICAMEG_clean_sbu_1, # of connection points: 4
#     Node 6, Type 0, BuildingBlock: ICAMEG_clean_sbu_1, # of connection points: 4
#     Node 7, Type 0, BuildingBlock: ICAMEG_clean_sbu_1, # of connection points: 4
#     Node 8, Type 0, BuildingBlock: ICAMEG_clean_sbu_1, # of connection points: 4
#     Node 9, Type 0, BuildingBlock: ICAMEG_clean_sbu_1, # of connection points: 4
#     Node 10, Type 0, BuildingBlock: ICAMEG_clean_sbu_1, # of connection points: 4
#     Node 11, Type 0, BuildingBlock: ICAMEG_clean_sbu_1, # of connection points: 4
#     Node 12, Type 0, BuildingBlock: ICAMEG_clean_sbu_1, # of connection points: 4
#     Node 13, Type 0, BuildingBlock: ICAMEG_clean_sbu_1, # of connection points: 4
#     Node 14, Type 0, BuildingBlock: ICAMEG_clean_sbu_1, # of connection points: 4
#     Node 15, Type 0, BuildingBlock: ICAMEG_clean_sbu_1, # of connection points: 4
#     Edge 16, Type (0, 0), BuildingBlock: XUDNAN_clean_linker_2, # of connection points: 2
#     Edge 17, Type (0, 0), BuildingBlock: XUDNAN_clean_linker_2, # of connection points: 2
#     Edge 18, Type (0, 0), BuildingBlock: XUDNAN_clean_linker_2, # of connection points: 2
#     Edge 19, Type (0, 0), BuildingBlock: XUDNAN_clean_linker_2, # of connection points: 2
#     Edge 20, Type (0, 0), BuildingBlock: XUDNAN_clean_linker_2, # of connection points: 2
#     Edge 21, Type (0, 0), BuildingBlock: XUDNAN_clean_linker_2, # of connection points: 2
#     Edge 22, Type (0, 0), BuildingBlock: XUDNAN_clean_linker_2, # of connection points: 2
#     Edge 23, Type (0, 0), BuildingBlock: XUDNAN_clean_linker_2, # of connection points: 2
#     Edge 24, Type (0, 0), BuildingBlock: XUDNAN_clean_linker_2, # of connection points: 2
#     Edge 25, Type (0, 0), BuildingBlock: XUDNAN_clean_linker_2, # of connection points: 2
#     Edge 26, Type (0, 0), BuildingBlock: XUDNAN_clean_linker_2, # of connection points: 2
#     Edge 27, Type (0, 0), BuildingBlock: XUDNAN_clean_linker_2, # of connection points: 2
#     Edge 28, Type (0, 0), BuildingBlock: XUDNAN_clean_linker_2, # of connection points: 2
#     Edge 29, Type (0, 0), BuildingBlock: XUDNAN_clean_linker_2, # of connection points: 2
#     Edge 30, Type (0, 0), BuildingBlock: XUDNAN_clean_linker_2, # of connection points: 2
#     Edge 31, Type (0, 0), BuildingBlock: XUDNAN_clean_linker_2, # of connection points: 2
#     Edge 32, Type (0, 0), BuildingBlock: XUDNAN_clean_linker_2, # of connection points: 2
#     Edge 33, Type (0, 0), BuildingBlock: XUDNAN_clean_linker_2, # of connection points: 2
#     Edge 34, Type (0, 0), BuildingBlock: XUDNAN_clean_linker_2, # of connection points: 2
#     Edge 35, Type (0, 0), BuildingBlock: XUDNAN_clean_linker_2, # of connection points: 2
#     Edge 36, Type (0, 0), BuildingBlock: XUDNAN_clean_linker_2, # of connection points: 2
#     Edge 37, Type (0, 0), BuildingBlock: XUDNAN_clean_linker_2, # of connection points: 2
#     Edge 38, Type (0, 0), BuildingBlock: XUDNAN_clean_linker_2, # of connection points: 2
#     Edge 39, Type (0, 0), BuildingBlock: XUDNAN_clean_linker_2, # of connection points: 2
#     Edge 40, Type (0, 0), BuildingBlock: XUDNAN_clean_linker_2, # of connection points: 2
#     Edge 41, Type (0, 0), BuildingBlock: XUDNAN_clean_linker_2, # of connection points: 2
#     Edge 42, Type (0, 0), BuildingBlock: XUDNAN_clean_linker_2, # of connection points: 2
#     Edge 43, Type (0, 0), BuildingBlock: XUDNAN_clean_linker_2, # of connection points: 2
#     Edge 44, Type (0, 0), BuildingBlock: XUDNAN_clean_linker_2, # of connection points: 2
#     Edge 45, Type (0, 0), BuildingBlock: XUDNAN_clean_linker_2, # of connection points: 2
#     Edge 46, Type (0, 0), BuildingBlock: XUDNAN_clean_linker_2, # of connection points: 2
#     Edge 47, Type (0, 0), BuildingBlock: XUDNAN_clean_linker_2, # of connection points: 2
# Relax obj value: 0.215
# Max RMSD: 0.209
# Mean RMSD: 0.209
data_MOF--net-upc--node1-ICAMEG_clean_sbu_1--edge1-XUDNAN_clean_linker_2
_symmetry_space_group_name_H-M    P1
_symmetry_Int_Tables_number       1
_symmetry_cell_setting            triclinic
loop_
_symmetry_equiv_pos_as_xyz
'x, y, z'
_cell_length_a     35.359816
_cell_length_b     35.360407
_cell_length_c     46.957359
_cell_angle_alpha  89.883562
_cell_angle_beta   89.970587
_cell_angle_gamma 89.922281
loop_
_atom_site_label
_atom_site_type_symbol
_atom_site_fract_x
_atom_site_fract_y
_atom_site_fract_z
_atom_type_partial_charge
Co0 Co 0.1485 0.59813 0.15845 0.0
Co1 Co 0.07522 0.63855 0.11994 0.0
O2 O 0.10195 0.59543 0.1363 0.0
C3 C 0.09255 0.56447 0.19645 0.0
O4 O 0.07093 0.59276 0.18856 0.0
C5 C 0.08797 0.58388 0.07292 0.0
O6 O 0.12324 0.58163 0.0815 0.0
O7 O 0.12357 0.65958 0.10406 0.0
O8 O 0.1707 0.63468 0.13069 0.0
H9 H 0.05464 0.77601 0.09762 0.0
H10 H 0.11828 0.52346 0.14099 0.0
O11 O 0.12602 0.56166 0.18659 0.0
H12 H 0.24514 0.53165 0.09776 0.0
H13 H 0.25153 0.54361 0.22013 0.0
H14 H 0.20025 0.65965 0.17624 0.0
H15 H 0.22068 0.58358 0.12759 0.0
H16 H 0.1949 0.54093 0.18946 0.0
O17 O 0.06583 0.60796 0.08435 0.0
H18 H 0.0874 0.72138 0.11921 0.0
H19 H 0.00597 0.64664 0.0841 0.0
H20 H 0.25701 0.66361 0.20664 0.0
H21 H 0.1417 0.47079 0.11144 0.0
H22 H 0.28287 0.60531 0.22896 0.0
H23 H 0.20552 0.47476 0.08952 0.0
O24 O 0.12893 0.64113 0.18148 0.0
H25 H 0.98254 0.53561 0.1442 0.0
H26 H 0.01004 0.6719 0.1515 0.0
H27 H 0.95238 0.64633 0.17395 0.0
H28 H 0.9384 0.57767 0.17045 0.0
H29 H 0.04005 0.56227 0.12238 0.0
H30 H 0.97247 0.70041 0.06196 0.0
H31 H 0.99673 0.76567 0.06875 0.0
O32 O 0.08259 0.66866 0.15587 0.0
C33 C 0.15846 0.65634 0.11095 0.0
C34 C 0.04373 0.74772 0.09457 0.0
C35 C 0.99765 0.70528 0.07451 0.0
N36 N 0.0485 0.68093 0.10305 0.0
C37 C 0.06211 0.7167 0.1068 0.0
C38 C 0.0168 0.67494 0.08703 0.0
C39 C 0.01127 0.74189 0.07835 0.0
C40 C 0.14624 0.52521 0.13177 0.0
N41 N 0.16818 0.55645 0.13613 0.0
C42 C 0.15929 0.49537 0.11497 0.0
C43 C 0.19508 0.49764 0.10263 0.0
C44 C 0.21731 0.52957 0.10723 0.0
C45 C 0.2033 0.5589 0.12411 0.0
C46 C 0.24056 0.56919 0.21048 0.0
C47 C 0.21163 0.63409 0.18559 0.0
C48 C 0.20852 0.56784 0.1931 0.0
N49 N 0.19448 0.60005 0.18091 0.0
C50 C 0.24367 0.63653 0.20287 0.0
C51 C 0.25815 0.60382 0.21541 0.0
C52 C 0.10369 0.66648 0.17795 0.0
C53 C 0.98832 0.56557 0.14588 0.0
C54 C 0.00419 0.642 0.14996 0.0
C55 C 0.97144 0.62769 0.16263 0.0
C56 C 0.96358 0.58918 0.16063 0.0
N57 N 0.02849 0.61864 0.13572 0.0
C58 C 0.02078 0.58089 0.13345 0.0
Co59 Co 0.90244 0.13755 0.15611 0.0
Co60 Co 0.85738 0.08174 0.10623 0.0
O61 O 0.90078 0.0961 0.12897 0.0
C62 C 0.91692 0.06859 0.18792 0.0
O63 O 0.88606 0.05711 0.17519 0.0
C64 C 0.92098 0.09379 0.06611 0.0
O65 O 0.92546 0.12675 0.07848 0.0
O66 O 0.84892 0.13544 0.09462 0.0
O67 O 0.87513 0.1717 0.12884 0.0
H68 H 0.72468 0.09375 0.06913 0.0
H69 H 0.9729 0.09633 0.14113 0.0
O70 O 0.92869 0.10229 0.18372 0.0
H71 H 0.99533 0.2289 0.1131 0.0
H72 H 0.9644 0.21555 0.2325 0.0
H73 H 0.84898 0.19711 0.17534 0.0
H74 H 0.93505 0.21014 0.13554 0.0
H75 H 0.96117 0.16471 0.19658 0.0
O76 O 0.89287 0.0731 0.07303 0.0
H77 H 0.77925 0.11068 0.09924 0.0
H78 H 0.84433 0.0225 0.06223 0.0
H79 H 0.85109 0.24846 0.21076 0.0
H80 H 0.03361 0.11385 0.11886 0.0
H81 H 0.90914 0.25794 0.23963 0.0
H82 H 0.04508 0.18054 0.1046 0.0
O83 O 0.85281 0.12355 0.1727 0.0
H84 H 0.93543 0.96562 0.12593 0.0
H85 H 0.80708 0.02028 0.12748 0.0
H86 H 0.81686 0.95463 0.1438 0.0
H87 H 0.88142 0.92687 0.14303 0.0
H88 H 0.92446 0.03126 0.11021 0.0
H89 H 0.79056 0.00477 0.03157 0.0
H90 H 0.73017 0.04045 0.03499 0.0
O91 O 0.82199 0.08911 0.13976 0.0
C92 C 0.85537 0.16752 0.10619 0.0
C93 C 0.7508 0.0779 0.06752 0.0
C94 C 0.7878 0.028 0.04641 0.0
N95 N 0.81478 0.06738 0.08266 0.0
C96 C 0.78174 0.08727 0.08458 0.0
C97 C 0.81816 0.03821 0.06377 0.0
C98 C 0.75391 0.04802 0.04835 0.0
C99 C 0.97785 0.12548 0.13528 0.0
N100 N 0.95061 0.15225 0.1398 0.0
C101 C 0.01221 0.1352 0.12255 0.0
C102 C 0.0186 0.17262 0.11452 0.0
C103 C 0.99069 0.19976 0.11926 0.0
C104 C 0.95663 0.18898 0.13195 0.0
C105 C 0.93902 0.2118 0.21995 0.0
C106 C 0.87448 0.2013 0.1876 0.0
C107 C 0.93703 0.18306 0.19962 0.0
N108 N 0.9051 0.17827 0.18365 0.0
C109 C 0.87544 0.23031 0.20773 0.0
C110 C 0.90799 0.23557 0.22396 0.0
C111 C 0.82378 0.10568 0.164 0.0
C112 C 0.90715 0.97735 0.12629 0.0
C113 C 0.83526 0.00845 0.12723 0.0
C114 C 0.84062 0.97123 0.13639 0.0
C115 C 0.87684 0.95565 0.13592 0.0
N116 N 0.86512 0.02959 0.11786 0.0
C117 C 0.90072 0.01448 0.1173 0.0
Co118 Co 0.36113 0.90489 0.1512 0.0
Co119 Co 0.43451 0.86686 0.11161 0.0
O120 O 0.40716 0.90905 0.12855 0.0
C121 C 0.41697 0.93903 0.1886 0.0
O122 O 0.43888 0.91148 0.17983 0.0
C123 C 0.42012 0.92209 0.06487 0.0
O124 O 0.38484 0.92336 0.07356 0.0
O125 O 0.38636 0.84516 0.0959 0.0
O126 O 0.33959 0.86781 0.12376 0.0
H127 H 0.45781 0.73032 0.08798 0.0
H128 H 0.38914 0.98051 0.13375 0.0
O129 O 0.38318 0.94152 0.17932 0.0
H130 H 0.26201 0.96942 0.09147 0.0
H131 H 0.25685 0.95629 0.21314 0.0
H132 H 0.3107 0.84196 0.16878 0.0
H133 H 0.28822 0.91784 0.12095 0.0
H134 H 0.31394 0.9605 0.18299 0.0
O135 O 0.44291 0.89847 0.07622 0.0
H136 H 0.42405 0.78379 0.11019 0.0
H137 H 0.50352 0.86099 0.07525 0.0
H138 H 0.25341 0.83653 0.19846 0.0
H139 H 0.36398 0.03284 0.10452 0.0
H140 H 0.22619 0.89397 0.22098 0.0
H141 H 0.30002 0.02741 0.08308 0.0
O142 O 0.38202 0.8621 0.17383 0.0
H143 H 0.52578 0.97095 0.13576 0.0
H144 H 0.50039 0.83418 0.14278 0.0
H145 H 0.55783 0.86037 0.16502 0.0
H146 H 0.57076 0.92927 0.16165 0.0
H147 H 0.46848 0.94367 0.11419 0.0
H148 H 0.53799 0.80841 0.05249 0.0
H149 H 0.51523 0.7425 0.05888 0.0
O150 O 0.42805 0.83565 0.14732 0.0
C151 C 0.35166 0.8465 0.10378 0.0
C152 C 0.46807 0.7589 0.0851 0.0
C153 C 0.51303 0.80274 0.06514 0.0
N154 N 0.4619 0.82541 0.09414 0.0
C155 C 0.44912 0.78927 0.09768 0.0
C156 C 0.49333 0.83241 0.07801 0.0
C157 C 0.50026 0.76576 0.06875 0.0
C158 C 0.36112 0.97812 0.12474 0.0
N159 N 0.34008 0.94627 0.12916 0.0
C160 C 0.3471 0.00777 0.10811 0.0
C161 C 0.31123 0.00468 0.09604 0.0
C162 C 0.2899 0.97213 0.10073 0.0
C163 C 0.3049 0.943 0.1174 0.0
C164 C 0.26841 0.93108 0.2034 0.0
C165 C 0.29882 0.86715 0.17826 0.0
C166 C 0.30075 0.93329 0.18636 0.0
N167 N 0.31547 0.90156 0.17399 0.0
C168 C 0.26645 0.86387 0.19514 0.0
C169 C 0.25121 0.8961 0.20778 0.0
C170 C 0.40739 0.83705 0.1697 0.0
C171 C 0.52047 0.94088 0.13738 0.0
C172 C 0.50577 0.86418 0.14131 0.0
C173 C 0.5384 0.87884 0.15385 0.0
C174 C 0.54567 0.91749 0.15192 0.0
N175 N 0.48102 0.88733 0.12726 0.0
C176 C 0.48813 0.92522 0.12508 0.0
Co177 Co 0.61412 0.3714 0.15366 0.0
Co178 Co 0.6503 0.44921 0.11808 0.0
O179 O 0.60894 0.41938 0.13363 0.0
C180 C 0.57917 0.42295 0.194 0.0
O181 O 0.60714 0.4454 0.18697 0.0
C182 C 0.59606 0.43674 0.07096 0.0
O183 O 0.59708 0.40082 0.07804 0.0
O184 O 0.67317 0.40339 0.09979 0.0
O185 O 0.6518 0.35339 0.12519 0.0
H186 H 0.78595 0.47807 0.09494 0.0
H187 H 0.53775 0.39946 0.13799 0.0
O188 O 0.57689 0.39019 0.18283 0.0
H189 H 0.55178 0.27719 0.08875 0.0
H190 H 0.56493 0.26031 0.20966 0.0
H191 H 0.67818 0.32076 0.16862 0.0
H192 H 0.60291 0.30159 0.11936 0.0
H193 H 0.55952 0.32012 0.18272 0.0
O194 O 0.6182 0.45995 0.08333 0.0
H195 H 0.73362 0.44081 0.11547 0.0
H196 H 0.65399 0.52175 0.08571 0.0
H197 H 0.68487 0.26097 0.19525 0.0
H198 H 0.48584 0.37603 0.10775 0.0
H199 H 0.62797 0.23035 0.21603 0.0
H200 H 0.49274 0.31453 0.08281 0.0
O201 O 0.65665 0.3907 0.17711 0.0
H202 H 0.54408 0.53537 0.14761 0.0
H203 H 0.68138 0.51201 0.15323 0.0
H204 H 0.65381 0.5663 0.17885 0.0
H205 H 0.58465 0.5782 0.17617 0.0
H206 H 0.57274 0.48125 0.12256 0.0
H207 H 0.70541 0.55973 0.06465 0.0
H208 H 0.77196 0.53799 0.0693 0.0
O209 O 0.682 0.43981 0.15314 0.0
C210 C 0.67244 0.3681 0.10582 0.0
C211 C 0.75708 0.4879 0.09284 0.0
C212 C 0.71187 0.5337 0.0758 0.0
N213 N 0.69086 0.47924 0.10196 0.0
C214 C 0.72736 0.46698 0.1045 0.0
C215 C 0.68287 0.51203 0.08771 0.0
C216 C 0.74921 0.5215 0.07843 0.0
C217 C 0.54078 0.37247 0.12747 0.0
N218 N 0.57318 0.35177 0.13059 0.0
C219 C 0.51136 0.35942 0.11028 0.0
C220 C 0.51528 0.32495 0.09624 0.0
C221 C 0.54842 0.304 0.09955 0.0
C222 C 0.57728 0.31797 0.11688 0.0
C223 C 0.58992 0.27335 0.20065 0.0
C224 C 0.65323 0.30749 0.1774 0.0
C225 C 0.58702 0.30721 0.18542 0.0
N226 N 0.61844 0.32376 0.17395 0.0
C227 C 0.65723 0.27368 0.19254 0.0
C228 C 0.6253 0.25654 0.20422 0.0
C229 C 0.68134 0.41663 0.17413 0.0
C230 C 0.57426 0.53054 0.14888 0.0
C231 C 0.65128 0.51703 0.15195 0.0
C232 C 0.63583 0.54784 0.16646 0.0
C233 C 0.59703 0.55452 0.16494 0.0
N234 N 0.62875 0.4935 0.13636 0.0
C235 C 0.5907 0.50003 0.13462 0.0
Co236 Co 0.13062 0.90183 0.3584 0.0
Co237 Co 0.07156 0.8572 0.40668 0.0
O238 O 0.08788 0.9008 0.38457 0.0
C239 C 0.06448 0.9178 0.32373 0.0
O240 O 0.04977 0.88914 0.33755 0.0
C241 C 0.08433 0.91952 0.44748 0.0
O242 O 0.11761 0.92349 0.43543 0.0
O243 O 0.12469 0.84637 0.4189 0.0
O244 O 0.16281 0.87349 0.38621 0.0
H245 H 0.07799 0.72311 0.44187 0.0
H246 H 0.09039 0.97308 0.37228 0.0
O247 O 0.09789 0.92888 0.32966 0.0
H248 H 0.22174 0.99215 0.40438 0.0
H249 H 0.21426 0.96284 0.28473 0.0
H250 H 0.18872 0.84654 0.33953 0.0
H251 H 0.20287 0.93252 0.38116 0.0
H252 H 0.16199 0.96066 0.31959 0.0
O253 O 0.06325 0.89192 0.44026 0.0
H254 H 0.09761 0.77795 0.41285 0.0
H255 H 0.0107 0.84492 0.44969 0.0
H256 H 0.24138 0.84752 0.30507 0.0
H257 H 0.10804 0.03318 0.39529 0.0
H258 H 0.25441 0.90599 0.27736 0.0
H259 H 0.17412 0.04295 0.4116 0.0
O260 O 0.11599 0.85279 0.34125 0.0
H261 H 0.95826 0.93943 0.38721 0.0
H262 H 0.00932 0.80969 0.3834 0.0
H263 H 0.9444 0.82203 0.36658 0.0
H264 H 0.91844 0.88729 0.36849 0.0
H265 H 0.02319 0.92595 0.40341 0.0
H266 H 0.99028 0.7909 0.47925 0.0
H267 H 0.02396 0.72942 0.47537 0.0
O268 O 0.07846 0.82273 0.3728 0.0
C269 C 0.15735 0.85266 0.40815 0.0
C270 C 0.06301 0.74971 0.44368 0.0
C271 C 0.01382 0.78778 0.4647 0.0
N272 N 0.05512 0.81446 0.42942 0.0
C273 C 0.07391 0.78081 0.42724 0.0
C274 C 0.02555 0.81828 0.44795 0.0
C275 C 0.03272 0.75328 0.4625 0.0
C276 C 0.11929 0.97731 0.37904 0.0
N277 N 0.14564 0.94948 0.37524 0.0
C278 C 0.12908 0.01132 0.39216 0.0
C279 C 0.16615 0.01675 0.40135 0.0
C280 C 0.19288 0.98825 0.39733 0.0
C281 C 0.18204 0.95456 0.3842 0.0
C282 C 0.20898 0.93726 0.29679 0.0
C283 C 0.19451 0.87223 0.32782 0.0
C284 C 0.17945 0.93588 0.31655 0.0
N285 N 0.1727 0.9037 0.33189 0.0
C286 C 0.22425 0.87255 0.30823 0.0
C287 C 0.2315 0.90535 0.29266 0.0
C288 C 0.09635 0.82447 0.3491 0.0
C289 C 0.96922 0.91085 0.38634 0.0
C290 C 0.99827 0.83818 0.38421 0.0
C291 C 0.96146 0.84498 0.37472 0.0
C292 C 0.94691 0.8816 0.37581 0.0
N293 N 0.02 0.86701 0.39451 0.0
C294 C 0.00592 0.903 0.39563 0.0
Co295 Co 0.60077 0.1361 0.36537 0.0
Co296 Co 0.65123 0.06133 0.3946 0.0
O297 O 0.60421 0.08658 0.38385 0.0
C298 C 0.56701 0.08318 0.32539 0.0
O299 O 0.59722 0.06273 0.33041 0.0
C300 C 0.59949 0.05699 0.44575 0.0
O301 O 0.5859 0.09063 0.4398 0.0
O302 O 0.67063 0.10874 0.41293 0.0
O303 O 0.63892 0.15711 0.39229 0.0
H304 H 0.79224 0.05009 0.40446 0.0
H305 H 0.5303 0.09807 0.38426 0.0
O306 O 0.56282 0.11489 0.33787 0.0
H307 H 0.53527 0.21757 0.43808 0.0
H308 H 0.53123 0.24355 0.3182 0.0
H309 H 0.65586 0.19507 0.34823 0.0
H310 H 0.5853 0.20163 0.40348 0.0
H311 H 0.53674 0.18186 0.34256 0.0
O312 O 0.62729 0.04379 0.43147 0.0
H313 H 0.73246 0.0807 0.39014 0.0
H314 H 0.66991 0.98782 0.42282 0.0
H315 H 0.65165 0.25697 0.32409 0.0
H316 H 0.47949 0.11305 0.41845 0.0
H317 H 0.58898 0.28155 0.30886 0.0
H318 H 0.48186 0.17311 0.44573 0.0
O319 O 0.64197 0.12359 0.3378 0.0
H320 H 0.55286 0.96399 0.37019 0.0
H321 H 0.68463 0.0047 0.35479 0.0
H322 H 0.66056 0.94859 0.32958 0.0
H323 H 0.59417 0.92797 0.33712 0.0
H324 H 0.57793 0.02008 0.39476 0.0
H325 H 0.72896 0.95628 0.43766 0.0
H326 H 0.79072 0.98741 0.42842 0.0
O327 O 0.6754 0.07618 0.35752 0.0
C328 C 0.66393 0.14403 0.40927 0.0
C329 C 0.76552 0.03623 0.40859 0.0
C330 C 0.73 0.98361 0.42727 0.0
N331 N 0.69774 0.03612 0.40567 0.0
C332 C 0.73159 0.05342 0.40051 0.0
C333 C 0.69664 1.00168 0.41892 0.0
C334 C 0.76464 1.00108 0.42206 0.0
C335 C 0.5313 0.12446 0.39581 0.0
N336 N 0.56068 0.14899 0.39184 0.0
C337 C 0.50255 0.1327 0.41524 0.0
C338 C 0.50394 0.16637 0.43058 0.0
C339 C 0.53392 0.19131 0.42633 0.0
C340 C 0.56223 0.18208 0.40677 0.0
C341 C 0.55868 0.23318 0.32479 0.0
C342 C 0.62846 0.20574 0.34187 0.0
C343 C 0.56197 0.19827 0.33856 0.0
N344 N 0.59654 0.18507 0.347 0.0
C345 C 0.62626 0.24074 0.32813 0.0
C346 C 0.5911 0.2545 0.31956 0.0
C347 C 0.66915 0.0999 0.33753 0.0
C348 C 0.58188 0.97262 0.36679 0.0
C349 C 0.65576 0.99582 0.35832 0.0
C350 C 0.64229 0.96401 0.34397 0.0
C351 C 0.60505 0.95245 0.34821 0.0
N352 N 0.63282 0.0156 0.3764 0.0
C353 C 0.59633 0.00426 0.3808 0.0
Co354 Co 0.36554 0.609 0.35848 0.0
Co355 Co 0.43914 0.64544 0.3985 0.0
O356 O 0.41139 0.60395 0.38118 0.0
C357 C 0.42133 0.57429 0.32129 0.0
O358 O 0.44286 0.60234 0.32957 0.0
C359 C 0.42364 0.5901 0.44466 0.0
O360 O 0.38835 0.59045 0.43597 0.0
O361 O 0.39133 0.66702 0.41473 0.0
O362 O 0.34445 0.64658 0.38587 0.0
H363 H 0.46329 0.78105 0.42433 0.0
H364 H 0.39225 0.5328 0.37591 0.0
O365 O 0.38747 0.57194 0.33048 0.0
H366 H 0.26499 0.54619 0.41773 0.0
H367 H 0.26207 0.55976 0.295 0.0
H368 H 0.31607 0.67282 0.3408 0.0
H369 H 0.2923 0.59738 0.38846 0.0
H370 H 0.31801 0.55433 0.32621 0.0
O371 O 0.44736 0.61283 0.43342 0.0
H372 H 0.42895 0.72851 0.40151 0.0
H373 H 0.50857 0.64971 0.4344 0.0
H374 H 0.25999 0.67948 0.31 0.0
H375 H 0.36599 0.48085 0.40493 0.0
H376 H 0.23274 0.6227 0.2867 0.0
H377 H 0.30195 0.48743 0.42612 0.0
O378 O 0.38702 0.65159 0.33618 0.0
H379 H 0.52989 0.54136 0.37268 0.0
H380 H 0.5045 0.67831 0.36691 0.0
H381 H 0.5617 0.65224 0.3441 0.0
H382 H 0.57467 0.58328 0.3469 0.0
H383 H 0.47288 0.56854 0.39494 0.0
H384 H 0.54359 0.70135 0.45777 0.0
H385 H 0.52105 0.76758 0.45271 0.0
O386 O 0.4325 0.67778 0.3633 0.0
C387 C 0.35685 0.66651 0.40649 0.0
C388 C 0.47346 0.75232 0.42662 0.0
C389 C 0.5185 0.70758 0.44543 0.0
N390 N 0.46691 0.68616 0.41645 0.0
C391 C 0.4542 0.72248 0.41368 0.0
C392 C 0.4985 0.67845 0.43221 0.0
C393 C 0.50584 0.74474 0.44256 0.0
C394 C 0.3642 0.53569 0.38481 0.0
N395 N 0.34371 0.56795 0.38036 0.0
C396 C 0.34955 0.50625 0.40132 0.0
C397 C 0.31364 0.50999 0.41325 0.0
C398 C 0.29289 0.54297 0.40856 0.0
C399 C 0.3085 0.57186 0.392 0.0
C400 C 0.27365 0.58469 0.30507 0.0
C401 C 0.30413 0.6479 0.33103 0.0
C402 C 0.30533 0.58179 0.32273 0.0
N403 N 0.32016 0.61317 0.33544 0.0
C404 C 0.27245 0.65188 0.31351 0.0
C405 C 0.25719 0.62002 0.30043 0.0
C406 C 0.41194 0.6768 0.34087 0.0
C407 C 0.5246 0.57147 0.37138 0.0
C408 C 0.50993 0.64828 0.36819 0.0
C409 C 0.5424 0.63368 0.35528 0.0
C410 C 0.54968 0.59499 0.35687 0.0
N411 N 0.48538 0.62502 0.38229 0.0
C412 C 0.49245 0.58707 0.38407 0.0
Co413 Co 0.90702 0.35344 0.36363 0.0
Co414 Co 0.8687 0.42523 0.40458 0.0
O415 O 0.91103 0.39877 0.387 0.0
C416 C 0.94123 0.41042 0.32691 0.0
O417 O 0.91336 0.43203 0.33557 0.0
C418 C 0.92414 0.41018 0.45099 0.0
O419 O 0.92606 0.37518 0.44182 0.0
O420 O 0.84765 0.37646 0.41979 0.0
O421 O 0.87005 0.33087 0.3908 0.0
H422 H 0.7321 0.44627 0.42936 0.0
H423 H 0.98253 0.38109 0.38149 0.0
O424 O 0.94372 0.37646 0.33591 0.0
H425 H 0.97184 0.2525 0.42151 0.0
H426 H 0.95872 0.25099 0.30017 0.0
H427 H 0.84424 0.30341 0.34539 0.0
H428 H 0.92019 0.27955 0.39259 0.0
H429 H 0.96276 0.30739 0.33095 0.0
O430 O 0.9003 0.43294 0.43991 0.0
H431 H 0.78578 0.41378 0.40634 0.0
H432 H 0.86231 0.49315 0.44197 0.0
H433 H 0.839 0.24674 0.31513 0.0
H434 H 0.03495 0.35509 0.41015 0.0
H435 H 0.89652 0.22022 0.29222 0.0
H436 H 0.02973 0.29039 0.43045 0.0
O437 O 0.86423 0.375 0.34135 0.0
H438 H 0.97196 0.51778 0.38087 0.0
H439 H 0.83518 0.49213 0.37508 0.0
H440 H 0.86076 0.55039 0.3535 0.0
H441 H 0.92967 0.56345 0.35624 0.0
H442 H 0.94525 0.45968 0.40179 0.0
H443 H 0.8095 0.52632 0.46554 0.0
H444 H 0.74382 0.50297 0.45921 0.0
O445 O 0.83739 0.41959 0.36895 0.0
C446 C 0.84914 0.34205 0.41132 0.0
C447 C 0.76057 0.45678 0.43221 0.0
C448 C 0.80403 0.50167 0.45256 0.0
N449 N 0.82708 0.45168 0.42267 0.0
C450 C 0.79106 0.43857 0.41917 0.0
C451 C 0.83383 0.4827 0.43923 0.0
C452 C 0.76718 0.48857 0.44898 0.0
C453 C 0.98022 0.35277 0.39001 0.0
N454 N 0.94843 0.33179 0.38527 0.0
C455 C 0.00992 0.33826 0.40632 0.0
C456 C 0.00695 0.30198 0.41775 0.0
C457 C 0.97446 0.28072 0.41275 0.0
C458 C 0.94529 0.29619 0.39641 0.0
C459 C 0.93348 0.26224 0.31011 0.0
C460 C 0.86947 0.29184 0.33572 0.0
C461 C 0.93559 0.2942 0.32749 0.0
N462 N 0.90383 0.3085 0.34012 0.0
C463 C 0.86629 0.25982 0.31851 0.0
C464 C 0.89857 0.24497 0.30565 0.0
C465 C 0.83899 0.39999 0.34607 0.0
C466 C 0.94189 0.51239 0.3795 0.0
C467 C 0.86518 0.49753 0.37622 0.0
C468 C 0.8795 0.53064 0.36408 0.0
C469 C 0.91815 0.53799 0.36567 0.0
N470 N 0.88866 0.47237 0.38952 0.0
C471 C 0.92655 0.47959 0.39142 0.0
Co472 Co 0.85997 0.40161 0.87232 0.0
Co473 Co 0.93581 0.35431 0.90295 0.0
O474 O 0.90914 0.40038 0.89158 0.0
C475 C 0.9122 0.43782 0.83282 0.0
O476 O 0.93386 0.40872 0.83867 0.0
C477 C 0.94028 0.40765 0.95328 0.0
O478 O 0.90722 0.4222 0.94684 0.0
O479 O 0.88891 0.33398 0.92153 0.0
O480 O 0.84017 0.36168 0.89855 0.0
H481 H 0.9505 0.21386 0.91494 0.0
H482 H 0.89343 0.47406 0.89157 0.0
O483 O 0.88007 0.44087 0.845 0.0
H484 H 0.77337 0.46188 0.94425 0.0
H485 H 0.7501 0.46633 0.82449 0.0
H486 H 0.80402 0.34385 0.8544 0.0
H487 H 0.79304 0.41288 0.90996 0.0
H488 H 0.81176 0.46352 0.84905 0.0
O489 O 0.95284 0.37913 0.93952 0.0
H490 H 0.91826 0.27254 0.90002 0.0
H491 H 0.01014 0.33801 0.93073 0.0
H492 H 0.74218 0.34538 0.83019 0.0
H493 H 0.87467 0.52394 0.92543 0.0
H494 H 0.71484 0.40695 0.81502 0.0
H495 H 0.8143 0.51793 0.95213 0.0
O496 O 0.87515 0.36153 0.84492 0.0
H497 H 0.03067 0.45473 0.87729 0.0
H498 H 0.99325 0.32179 0.8633 0.0
H499 H 0.04879 0.34685 0.8378 0.0
H500 H 0.06778 0.41382 0.84464 0.0
H501 H 0.97513 0.42869 0.90214 0.0
H502 H 0.04325 0.28009 0.94619 0.0
H503 H 0.01345 0.21742 0.93824 0.0
O504 O 0.92177 0.32888 0.8663 0.0
C505 C 0.85353 0.33757 0.91622 0.0
C506 C 0.96379 0.24099 0.91851 0.0
C507 C 0.01581 0.27817 0.93609 0.0
N508 N 0.96226 0.30867 0.91453 0.0
C509 C 0.9457 0.27431 0.91007 0.0
C510 C 0.99684 0.31089 0.92742 0.0
C511 C 0.99909 0.24301 0.9316 0.0
C512 C 0.86693 0.47147 0.90287 0.0
N513 N 0.84433 0.44066 0.89877 0.0
C514 C 0.85654 0.49971 0.92212 0.0
C515 C 0.8227 0.49628 0.93714 0.0
C516 C 0.79975 0.46481 0.93276 0.0
C517 C 0.8111 0.43709 0.91339 0.0
C518 C 0.76169 0.43934 0.83105 0.0
C519 C 0.79219 0.37079 0.84807 0.0
C520 C 0.7966 0.43758 0.84491 0.0
N521 N 0.81131 0.40361 0.85334 0.0
C522 C 0.75721 0.37146 0.83428 0.0
C523 C 0.74191 0.40601 0.82575 0.0
C524 C 0.89894 0.33452 0.84569 0.0
C525 C 0.02278 0.42546 0.87422 0.0
C526 C 1.00141 0.35091 0.86654 0.0
C527 C 0.03291 0.36494 0.85202 0.0
C528 C 0.04355 0.40251 0.85587 0.0
N529 N 0.98105 0.37361 0.88443 0.0
C530 C 0.99146 0.41045 0.88841 0.0
Co531 Co 0.09294 0.88015 0.86191 0.0
Co532 Co 0.15091 0.94495 0.89427 0.0
O533 O 0.10101 0.92647 0.88345 0.0
C534 C 0.0546 0.93883 0.82928 0.0
O535 O 0.08611 0.95765 0.83311 0.0
C536 C 0.10123 0.95149 0.94572 0.0
O537 O 0.0886 0.9173 0.94062 0.0
O538 O 0.16304 0.89541 0.91259 0.0
O539 O 0.13595 0.85431 0.88227 0.0
H540 H 0.29192 0.93704 0.9059 0.0
H541 H 0.02697 0.91523 0.89052 0.0
O542 O 0.05098 0.90596 0.84023 0.0
H543 H 0.03979 0.7886 0.93367 0.0
H544 H 0.01292 0.78076 0.81471 0.0
H545 H 0.14289 0.82465 0.8331 0.0
H546 H 0.0836 0.80947 0.89587 0.0
H547 H 0.02433 0.83844 0.84295 0.0
O548 O 0.12832 0.96493 0.93082 0.0
H549 H 0.22894 0.91451 0.89111 0.0
H550 H 0.17839 0.01502 0.92279 0.0
H551 H 0.13287 0.76662 0.80507 0.0
H552 H 0.98232 0.89541 0.92808 0.0
H553 H 0.06746 0.74436 0.79567 0.0
H554 H 0.98868 0.83171 0.94997 0.0
O555 O 0.12883 0.89709 0.83237 0.0
H556 H 0.06862 0.05717 0.87147 0.0
H557 H 0.19138 0.99538 0.85332 0.0
H558 H 0.17577 0.05486 0.82849 0.0
H559 H 0.11398 0.08615 0.83747 0.0
H560 H 0.08507 0.9974 0.89553 0.0
H561 H 0.24079 0.03852 0.93812 0.0
H562 H 0.29812 0.99947 0.9296 0.0
O563 O 0.17428 0.92678 0.85724 0.0
C564 C 0.15938 0.86227 0.90214 0.0
C565 C 0.26716 0.95436 0.90967 0.0
C566 C 0.23845 0.01129 0.92778 0.0
N567 N 0.20007 0.96353 0.90593 0.0
C568 C 0.23144 0.94179 0.90128 0.0
C569 C 0.20319 0.9978 0.91912 0.0
C570 C 0.27062 0.98937 0.92299 0.0
C571 C 0.02961 0.88731 0.89972 0.0
N572 N 0.05776 0.86349 0.89099 0.0
C573 C 0.00437 0.87631 0.92107 0.0
C574 C 0.00802 0.8406 0.9334 0.0
C575 C 0.03672 0.81642 0.92428 0.0
C576 C 0.06152 0.82843 0.90295 0.0
C577 C 0.04156 0.79008 0.81877 0.0
C578 C 0.1144 0.81487 0.82942 0.0
C579 C 0.04818 0.82271 0.83473 0.0
N580 N 0.08427 0.83452 0.84005 0.0
C581 C 0.10888 0.78211 0.81339 0.0
C582 C 0.07217 0.76966 0.80809 0.0
C583 C 0.16117 0.91258 0.83422 0.0
C584 C 0.09569 0.04387 0.86745 0.0
C585 C 0.16441 0.00877 0.85735 0.0
C586 C 0.15577 0.04251 0.84326 0.0
C587 C 0.12112 0.06008 0.84834 0.0
N588 N 0.13926 0.99292 0.87599 0.0
C589 C 0.1053 0.01013 0.88118 0.0
Co590 Co 0.64118 0.08471 0.86819 0.0
Co591 Co 0.57313 0.1478 0.89133 0.0
O592 O 0.59183 0.09701 0.88384 0.0
C593 C 0.58655 0.05391 0.82789 0.0
O594 O 0.57034 0.08715 0.83 0.0
C595 C 0.5629 0.10232 0.94444 0.0
O596 O 0.59795 0.09066 0.94159 0.0
O597 O 0.62115 0.16196 0.91124 0.0
O598 O 0.66596 0.123 0.89349 0.0
H599 H 0.57883 0.28977 0.89376 0.0
H600 H 0.59216 0.02327 0.89016 0.0
O601 O 0.61643 0.04685 0.8422 0.0
H602 H 0.70786 0.018 0.94863 0.0
H603 H 0.74062 0.99578 0.8308 0.0
H604 H 0.70821 0.12898 0.85014 0.0
H605 H 0.70177 0.06466 0.90974 0.0
H606 H 0.67877 0.01261 0.85167 0.0
O607 O 0.55007 0.12809 0.92791 0.0
H608 H 0.60254 0.22566 0.8834 0.0
H609 H 0.50162 0.17761 0.91642 0.0
H610 H 0.77048 0.11344 0.82945 0.0
H611 H 0.59715 0.97597 0.92866 0.0
H612 H 0.78699 0.04641 0.81964 0.0
H613 H 0.65523 0.97328 0.95832 0.0
O614 O 0.63569 0.12366 0.83789 0.0
H615 H 0.4638 0.06324 0.8663 0.0
H616 H 0.52645 0.18499 0.84641 0.0
H617 H 0.4696 0.16723 0.81918 0.0
H618 H 0.43796 0.10589 0.82899 0.0
H619 H 0.52084 0.0819 0.89286 0.0
H620 H 0.47681 0.2412 0.92728 0.0
H621 H 0.51549 0.29785 0.91588 0.0
O622 O 0.59478 0.16726 0.85433 0.0
C623 C 0.65554 0.15102 0.90881 0.0
C624 C 0.56172 0.26531 0.89888 0.0
C625 C 0.50449 0.23805 0.91772 0.0
N626 N 0.55363 0.19792 0.89947 0.0
C627 C 0.57504 0.22894 0.89308 0.0
C628 C 0.51876 0.2021 0.91164 0.0
C629 C 0.52619 0.26982 0.91129 0.0
C630 C 0.61772 0.02194 0.90273 0.0
N631 N 0.64669 0.04661 0.89767 0.0
C632 C 0.62031 0.99522 0.92459 0.0
C633 C 0.65288 0.99378 0.94126 0.0
C634 C 0.6824 0.01889 0.93585 0.0
C635 C 0.67877 0.0453 0.91386 0.0
C636 C 0.73379 0.02508 0.83505 0.0
C637 C 0.71534 0.09973 0.84612 0.0
C638 C 0.69881 0.03477 0.84682 0.0
N639 N 0.69009 0.07169 0.85233 0.0
C640 C 0.75057 0.09111 0.83433 0.0
C641 C 0.7598 0.0535 0.82879 0.0
C642 C 0.61741 0.1546 0.83533 0.0
C643 C 0.47726 0.0901 0.86191 0.0
C644 C 0.51276 0.15833 0.85092 0.0
C645 C 0.48056 0.14842 0.83542 0.0
C646 C 0.4628 0.11402 0.84095 0.0
N647 N 0.52686 0.13467 0.8714 0.0
C648 C 0.50946 0.10096 0.87702 0.0
Co649 Co 0.40278 0.62463 0.86108 0.0
Co650 Co 0.3469 0.57999 0.91013 0.0
O651 O 0.39453 0.58579 0.8899 0.0
C652 C 0.4241 0.5535 0.83453 0.0
O653 O 0.39122 0.54187 0.84404 0.0
C654 C 0.40792 0.57465 0.95419 0.0
O655 O 0.4226 0.606 0.94406 0.0
O656 O 0.34921 0.63379 0.92253 0.0
O657 O 0.36963 0.66159 0.88226 0.0
H658 H 0.2163 0.61859 0.9408 0.0
H659 H 0.46931 0.58583 0.88619 0.0
O660 O 0.43453 0.58751 0.839 0.0
H661 H 0.48541 0.72076 0.90949 0.0
H662 H 0.48176 0.69662 0.79023 0.0
H663 H 0.35435 0.68081 0.83121 0.0
H664 H 0.43037 0.69933 0.88158 0.0
H665 H 0.47005 0.6489 0.82763 0.0
O666 O 0.37625 0.56282 0.94469 0.0
H667 H 0.27603 0.62465 0.91407 0.0
H668 H 0.31733 0.52336 0.95169 0.0
H669 H 0.36481 0.72903 0.79401 0.0
H670 H 0.52492 0.60603 0.91396 0.0
H671 H 0.42899 0.7373 0.77338 0.0
H672 H 0.53316 0.67394 0.92584 0.0
O673 O 0.35758 0.60787 0.83982 0.0
H674 H 0.39893 0.44938 0.89363 0.0
H675 H 0.28727 0.53202 0.88354 0.0
H676 H 0.28399 0.466 0.86696 0.0
H677 H 0.34005 0.42413 0.87207 0.0
H678 H 0.4013 0.51575 0.90935 0.0
H679 H 0.25812 0.51633 0.97898 0.0
H680 H 0.20705 0.56411 0.97355 0.0
O681 O 0.31672 0.59573 0.87534 0.0
C682 C 0.35243 0.6626 0.90627 0.0
C683 C 0.2383 0.59753 0.9433 0.0
C684 C 0.2618 0.54017 0.96475 0.0
N685 N 0.30006 0.57428 0.93119 0.0
C686 C 0.27217 0.60077 0.92817 0.0
C687 C 0.2953 0.54435 0.9493 0.0
C688 C 0.23315 0.56698 0.96169 0.0
C689 C 0.47295 0.61548 0.891 0.0
N690 N 0.44675 0.6414 0.88218 0.0
C691 C 0.50439 0.62672 0.90684 0.0
C692 C 0.50895 0.66482 0.91356 0.0
C693 C 0.48215 0.6911 0.90442 0.0
C694 C 0.451 0.6788 0.88869 0.0
C695 C 0.45374 0.69344 0.79919 0.0
C696 C 0.38238 0.68444 0.82249 0.0
C697 C 0.44694 0.66647 0.82035 0.0
N698 N 0.41168 0.6625 0.8319 0.0
C699 C 0.38811 0.71167 0.80134 0.0
C700 C 0.42409 0.71623 0.78971 0.0
C701 C 0.32429 0.60158 0.84899 0.0
C702 C 0.37426 0.46729 0.8914 0.0
C703 C 0.31189 0.51408 0.88567 0.0
C704 C 0.3098 0.47666 0.87634 0.0
C705 C 0.34125 0.45317 0.87925 0.0
N706 N 0.34438 0.52775 0.89756 0.0
C707 C 0.37534 0.50487 0.90044 0.0
Co708 Co 0.86167 0.11756 0.64569 0.0
Co709 Co 0.93839 0.16004 0.61263 0.0
O710 O 0.9108 0.11588 0.62654 0.0
C711 C 0.91301 0.08459 0.6875 0.0
O712 O 0.93495 0.11307 0.6807 0.0
C713 C 0.94137 0.10229 0.56507 0.0
O714 O 0.90834 0.08871 0.57261 0.0
O715 O 0.89201 0.17978 0.59293 0.0
O716 O 0.8427 0.15479 0.617 0.0
H717 H 0.95727 0.29867 0.59377 0.0
H718 H 0.89428 0.04279 0.63085 0.0
O719 O 0.88106 0.08092 0.67521 0.0
H720 H 0.77428 0.05105 0.57772 0.0
H721 H 0.75057 0.06021 0.69704 0.0
H722 H 0.80629 0.17797 0.65951 0.0
H723 H 0.79458 0.10325 0.60892 0.0
H724 H 0.81252 0.05927 0.67279 0.0
O725 O 0.95476 0.13142 0.57752 0.0
H726 H 0.9234 0.24254 0.61168 0.0
H727 H 0.01289 0.17144 0.5838 0.0
H728 H 0.7441 0.18013 0.68323 0.0
H729 H 0.87487 0.98972 0.60015 0.0
H730 H 0.71587 0.12096 0.70226 0.0
H731 H 0.81453 0.99374 0.57323 0.0
O732 O 0.87726 0.16034 0.67065 0.0
H733 H 0.03003 0.05945 0.64425 0.0
H734 H 0.99707 0.19467 0.65011 0.0
H735 H 0.05151 0.1704 0.67737 0.0
H736 H 0.06826 0.10226 0.6746 0.0
H737 H 0.97556 0.08481 0.61768 0.0
H738 H 0.04759 0.22675 0.56537 0.0
H739 H 0.01982 0.29096 0.57036 0.0
O740 O 0.92454 0.18947 0.64754 0.0
C741 C 0.85653 0.17697 0.59815 0.0
C742 C 0.96965 0.27084 0.59143 0.0
C743 C 0.02031 0.23047 0.57545 0.0
N744 N 0.96601 0.20371 0.59865 0.0
C745 C 0.95061 0.23894 0.60154 0.0
C746 C 1.00042 0.19922 0.58579 0.0
C747 C 0.00473 0.26649 0.57829 0.0
C748 C 0.8678 0.04456 0.61944 0.0
N749 N 0.84557 0.07605 0.62169 0.0
C750 C 0.85704 0.0145 0.60198 0.0
C751 C 0.82322 0.01681 0.58684 0.0
C752 C 0.80065 0.04898 0.58932 0.0
C753 C 0.81235 0.07852 0.60693 0.0
C754 C 0.76256 0.08618 0.68881 0.0
C755 C 0.79408 0.15204 0.66752 0.0
C756 C 0.79766 0.08582 0.67513 0.0
N757 N 0.81287 0.11847 0.66458 0.0
C758 C 0.75891 0.15347 0.68104 0.0
C759 C 0.74309 0.12026 0.69172 0.0
C760 C 0.90154 0.18677 0.6684 0.0
C761 C 0.02307 0.08921 0.64559 0.0
C762 C 0.0041 0.16503 0.64883 0.0
C763 C 0.03505 0.15144 0.66425 0.0
C764 C 0.04447 0.11323 0.66265 0.0
N765 N 0.98307 0.14128 0.63226 0.0
C766 C 0.99234 0.10381 0.63044 0.0
Co767 Co 0.40088 0.85413 0.65344 0.0
Co768 Co 0.36233 0.92409 0.61098 0.0
O769 O 0.40487 0.89924 0.62973 0.0
C770 C 0.43609 0.91046 0.69025 0.0
O771 O 0.40852 0.9327 0.68183 0.0
C772 C 0.42072 0.91263 0.56636 0.0
O773 O 0.42234 0.87729 0.57491 0.0
O774 O 0.34483 0.87498 0.59432 0.0
O775 O 0.36309 0.83147 0.6268 0.0
H776 H 0.22675 0.93948 0.58109 0.0
H777 H 0.47659 0.88056 0.63501 0.0
O778 O 0.43816 0.87676 0.68079 0.0
H779 H 0.46343 0.75224 0.59533 0.0
H780 H 0.45261 0.75098 0.71648 0.0
H781 H 0.33772 0.80571 0.67336 0.0
H782 H 0.41253 0.78003 0.62456 0.0
H783 H 0.45674 0.80722 0.68539 0.0
O784 O 0.39599 0.93471 0.57707 0.0
H785 H 0.2803 0.90844 0.60537 0.0
H786 H 0.35508 0.99338 0.57509 0.0
H787 H 0.33233 0.74934 0.70413 0.0
H788 H 0.5283 0.85377 0.60606 0.0
H789 H 0.39005 0.72158 0.72589 0.0
H790 H 0.52182 0.7892 0.58593 0.0
O791 O 0.35883 0.87668 0.67577 0.0
H792 H 0.4579 0.0226 0.63865 0.0
H793 H 0.32347 0.98599 0.64268 0.0
H794 H 0.34415 0.04492 0.66591 0.0
H795 H 0.41182 0.06353 0.66403 0.0
H796 H 0.43612 0.96375 0.61596 0.0
H797 H 0.30239 0.02522 0.55029 0.0
H798 H 0.23764 0.99832 0.55329 0.0
O799 O 0.32869 0.91495 0.64489 0.0
C800 C 0.3447 0.84146 0.60464 0.0
C801 C 0.25481 0.95153 0.57967 0.0
C802 C 0.29728 0.99961 0.56235 0.0
N803 N 0.32072 0.94918 0.59177 0.0
C804 C 0.28523 0.93411 0.59342 0.0
C805 C 0.32702 0.98141 0.57638 0.0
C806 C 0.26095 0.98452 0.56406 0.0
C807 C 0.47377 0.85228 0.6266 0.0
N808 N 0.4417 0.8318 0.63159 0.0
C809 C 0.50306 0.83732 0.61011 0.0
C810 C 0.49937 0.80112 0.59877 0.0
C811 C 0.4666 0.78038 0.60402 0.0
C812 C 0.43786 0.79628 0.62055 0.0
C813 C 0.42727 0.76275 0.70703 0.0
C814 C 0.36301 0.79364 0.6826 0.0
C815 C 0.42944 0.7946 0.68945 0.0
N816 N 0.39755 0.80949 0.67737 0.0
C817 C 0.35976 0.7618 0.70008 0.0
C818 C 0.39216 0.74627 0.71232 0.0
C819 C 0.33139 0.89832 0.66903 0.0
C820 C 0.42831 0.01486 0.63953 0.0
C821 C 0.35296 0.99391 0.64172 0.0
C822 C 0.36449 0.02734 0.65489 0.0
C823 C 0.40246 0.03778 0.6538 0.0
N824 N 0.37849 0.97152 0.62779 0.0
C825 C 0.41576 0.98166 0.62657 0.0
Co826 Co 0.62377 0.39904 0.65014 0.0
Co827 Co 0.5638 0.34265 0.61048 0.0
O828 O 0.57749 0.38998 0.62887 0.0
C829 C 0.56355 0.40975 0.69166 0.0
O830 O 0.54998 0.37833 0.68102 0.0
C831 C 0.55679 0.40311 0.56586 0.0
O832 O 0.58999 0.41606 0.57361 0.0
O833 O 0.61498 0.33799 0.5927 0.0
O834 O 0.65436 0.37247 0.62022 0.0
H835 H 0.57925 0.20623 0.5824 0.0
H836 H 0.57225 0.46316 0.63777 0.0
O837 O 0.59329 0.42447 0.68098 0.0
H838 H 0.69268 0.49542 0.59068 0.0
H839 H 0.71078 0.4771 0.71101 0.0
H840 H 0.6923 0.35404 0.6638 0.0
H841 H 0.68646 0.43633 0.61833 0.0
H842 H 0.65314 0.46471 0.68292 0.0
O843 O 0.54396 0.37271 0.57699 0.0
H844 H 0.59663 0.26531 0.60675 0.0
H845 H 0.49852 0.31953 0.57431 0.0
H846 H 0.75047 0.3653 0.6915 0.0
H847 H 0.57725 0.52263 0.61043 0.0
H848 H 0.75996 0.42718 0.71537 0.0
H849 H 0.63776 0.53899 0.58656 0.0
O850 O 0.61873 0.35042 0.67121 0.0
H851 H 0.44457 0.4097 0.64002 0.0
H852 H 0.51501 0.2893 0.64308 0.0
H853 H 0.45301 0.29389 0.66692 0.0
H854 H 0.41733 0.35441 0.66544 0.0
H855 H 0.50679 0.40402 0.61674 0.0
H856 H 0.47998 0.26104 0.54956 0.0
H857 H 0.52048 0.20382 0.55349 0.0
O858 O 0.58272 0.3124 0.64399 0.0
C859 C 0.64798 0.34956 0.59973 0.0
C860 C 0.56146 0.23102 0.58038 0.0
C861 C 0.50578 0.2618 0.56193 0.0
N862 N 0.54909 0.29611 0.59159 0.0
C863 C 0.57129 0.26464 0.59404 0.0
C864 C 0.51657 0.29493 0.57587 0.0
C865 C 0.52849 0.22969 0.56417 0.0
C866 C 0.59879 0.47032 0.6277 0.0
N867 N 0.62907 0.44643 0.62972 0.0
C868 C 0.60141 0.50394 0.61215 0.0
C869 C 0.63536 0.51307 0.59872 0.0
C870 C 0.66617 0.48862 0.601 0.0
C871 C 0.66247 0.45518 0.61665 0.0
C872 C 0.70701 0.45005 0.70065 0.0
C873 C 0.69639 0.38116 0.67393 0.0
C874 C 0.67443 0.44287 0.68475 0.0
N875 N 0.66956 0.40882 0.67155 0.0
C876 C 0.72932 0.38732 0.68967 0.0
C877 C 0.7346 0.42203 0.70308 0.0
C878 C 0.60288 0.31882 0.66606 0.0
C879 C 0.45978 0.38313 0.64072 0.0
C880 C 0.49966 0.31574 0.64235 0.0
C881 C 0.46455 0.31815 0.65586 0.0
C882 C 0.44454 0.35212 0.65501 0.0
N883 N 0.5144 0.34625 0.62832 0.0
C884 C 0.49496 0.37967 0.62743 0.0
Co885 Co 0.0868 0.63573 0.64992 0.0
Co886 Co 0.14604 0.56458 0.62668 0.0
O887 O 0.09617 0.5857 0.63416 0.0
C888 C 0.05191 0.58277 0.68946 0.0
O889 O 0.08443 0.56517 0.68737 0.0
C890 C 0.09997 0.55329 0.57401 0.0
O891 O 0.08888 0.58862 0.57607 0.0
O892 O 0.16105 0.61097 0.6052 0.0
O893 O 0.12805 0.65821 0.62571 0.0
H894 H 0.28781 0.56679 0.62019 0.0
H895 H 0.0224 0.59185 0.62681 0.0
O896 O 0.04645 0.61314 0.67524 0.0
H897 H 0.0283 0.70795 0.56863 0.0
H898 H 0.00361 0.74071 0.68615 0.0
H899 H 0.13496 0.69919 0.66952 0.0
H900 H 0.07324 0.69777 0.60811 0.0
H901 H 0.01691 0.67805 0.66528 0.0
O902 O 0.12515 0.5405 0.59101 0.0
H903 H 0.22464 0.59302 0.63064 0.0
H904 H 0.17316 0.4903 0.60462 0.0
H905 H 0.12299 0.76221 0.69009 0.0
H906 H 0.97679 0.60093 0.58762 0.0
H907 H 0.0569 0.7833 0.6986 0.0
H908 H 0.97968 0.65928 0.55816 0.0
O909 O 0.1241 0.6273 0.68067 0.0
H910 H 0.05842 0.45918 0.65534 0.0
H911 H 0.18232 0.51873 0.67261 0.0
H912 H 0.16307 0.46372 0.70149 0.0
H913 H 0.10067 0.43362 0.69299 0.0
H914 H 0.07855 0.51445 0.62715 0.0
H915 H 0.23575 0.46305 0.59365 0.0
H916 H 0.29364 0.50134 0.60154 0.0
O917 O 0.16729 0.58703 0.6629 0.0
C918 C 0.15426 0.64611 0.60921 0.0
C919 C 0.26281 0.54978 0.61674 0.0
C920 C 0.23358 0.49158 0.6018 0.0
N921 N 0.1953 0.54312 0.61842 0.0
C922 C 0.22698 0.56445 0.62269 0.0
C923 C 0.19821 0.50719 0.60798 0.0
C924 C 0.26605 0.51307 0.60625 0.0
C925 C 0.02352 0.61751 0.61429 0.0
N926 N 0.05031 0.64433 0.61979 0.0
C927 C 0.99774 0.62242 0.59205 0.0
C928 C 0.99944 0.65512 0.57549 0.0
C929 C 0.02674 0.68243 0.58133 0.0
C930 C 0.05215 0.67649 0.60367 0.0
C931 C 0.03252 0.73188 0.68247 0.0
C932 C 0.10612 0.70833 0.67288 0.0
C933 C 0.0402 0.69644 0.6707 0.0
N934 N 0.07663 0.68521 0.66589 0.0
C935 C 0.09952 0.74397 0.68466 0.0
C936 C 0.06243 0.75577 0.68944 0.0
C937 C 0.15494 0.60883 0.68255 0.0
C938 C 0.08574 0.47195 0.65917 0.0
C939 C 0.15515 0.50575 0.66871 0.0
C940 C 0.14443 0.47457 0.68512 0.0
C941 C 0.10943 0.45767 0.68032 0.0
N942 N 0.13171 0.51971 0.64805 0.0
C943 C 0.09743 0.50313 0.64313 0.0
H944 H 0.16027 0.73273 0.1144 0.0
H945 H 0.22137 0.6365 0.08095 0.0
H946 H 0.27437 0.67852 0.06703 0.0
H947 H 0.19711 0.80722 0.06416 0.0
H948 H 0.20066 0.8414 0.09246 0.0
H949 H 0.16444 0.80557 0.09363 0.0
H950 H 0.18818 0.78429 0.14343 0.0
H951 H 0.22429 0.81995 0.14233 0.0
H952 H 0.23712 0.77115 0.14786 0.0
H953 H 0.32386 0.72962 0.06262 0.0
H954 H 0.3671 0.78295 0.07193 0.0
H955 H 0.27467 0.84511 0.11087 0.0
C956 C 0.1841 0.72096 0.10292 0.0
C957 C 0.18636 0.68177 0.09768 0.0
C958 C 0.21885 0.6667 0.08428 0.0
C959 C 0.249 0.69037 0.07635 0.0
C960 C 0.24641 0.72894 0.08241 0.0
C961 C 0.21478 0.74408 0.09555 0.0
C962 C 0.22126 0.78497 0.10382 0.0
C963 C 0.19426 0.81135 0.08754 0.0
C964 C 0.21751 0.79037 0.13627 0.0
C965 C 0.26176 0.79022 0.09402 0.0
C966 C 0.27555 0.75791 0.08115 0.0
C967 C 0.31316 0.75524 0.0723 0.0
C968 C 0.33756 0.78581 0.07761 0.0
C969 C 0.32445 0.81843 0.09211 0.0
C970 C 0.28567 0.82087 0.09949 0.0
H971 H 0.84821 0.23739 0.13092 0.0
H972 H 0.81303 0.1726 0.05712 0.0
H973 H 0.7678 0.22304 0.04439 0.0
H974 H 0.75949 0.26351 0.15113 0.0
H975 H 0.77181 0.31001 0.16369 0.0
H976 H 0.80671 0.27304 0.16366 0.0
H977 H 0.85131 0.31465 0.13302 0.0
H978 H 0.81652 0.35197 0.1331 0.0
H979 H 0.83452 0.33408 0.09982 0.0
H980 H 0.71846 0.27508 0.04457 0.0
H981 H 0.67146 0.32461 0.05742 0.0
H982 H 0.73897 0.35459 0.13077 0.0
C983 C 0.83201 0.23424 0.11152 0.0
C984 C 0.83448 0.20093 0.095 0.0
C985 C 0.81199 0.19788 0.07009 0.0
C986 C 0.78613 0.22644 0.06266 0.0
C987 C 0.78315 0.25806 0.08022 0.0
C988 C 0.80582 0.26224 0.10401 0.0
C989 C 0.79427 0.29646 0.1213 0.0
C990 C 0.78236 0.28505 0.15172 0.0
C991 C 0.82605 0.32605 0.12182 0.0
C992 C 0.76083 0.31023 0.10404 0.0
C993 C 0.75499 0.28807 0.08021 0.0
C994 C 0.72339 0.29326 0.0627 0.0
C995 C 0.69692 0.3214 0.07002 0.0
C996 C 0.70251 0.34382 0.09449 0.0
C997 C 0.73502 0.33851 0.11137 0.0
H998 H 0.22703 0.84443 0.38344 0.0
H999 H 0.16075 0.80781 0.45624 0.0
H1000 H 0.21002 0.76066 0.46799 0.0
H1001 H 0.25002 0.75499 0.36141 0.0
H1002 H 0.29665 0.76662 0.34863 0.0
H1003 H 0.26045 0.80232 0.34946 0.0
H1004 H 0.3034 0.84515 0.3803 0.0
H1005 H 0.33994 0.80957 0.37943 0.0
H1006 H 0.32283 0.82703 0.41311 0.0
H1007 H 0.26242 0.71101 0.46754 0.0
H1008 H 0.31242 0.6645 0.45454 0.0
H1009 H 0.34177 0.73267 0.38118 0.0
C1010 C 0.22323 0.82743 0.40239 0.0
C1011 C 0.18995 0.83019 0.41899 0.0
C1012 C 0.18608 0.80662 0.4433 0.0
C1013 C 0.21395 0.77965 0.45013 0.0
C1014 C 0.24554 0.77652 0.43245 0.0
C1015 C 0.2503 0.79999 0.40913 0.0
C1016 C 0.28408 0.78821 0.39142 0.0
C1017 C 0.27206 0.77739 0.36095 0.0
C1018 C 0.31436 0.81935 0.39107 0.0
C1019 C 0.29725 0.754 0.40807 0.0
C1020 C 0.27507 0.74781 0.4319 0.0
C1021 C 0.28041 0.71606 0.44927 0.0
C1022 C 0.30879 0.68987 0.44185 0.0
C1023 C 0.33111 0.69574 0.4173 0.0
C1024 C 0.32552 0.7283 0.40049 0.0
H1025 H 0.84899 0.26529 0.40326 0.0
H1026 H 0.78693 0.35529 0.44529 0.0
H1027 H 0.7356 0.31033 0.45648 0.0
H1028 H 0.7741 0.22653 0.36912 0.0
H1029 H 0.78882 0.1779 0.37244 0.0
H1030 H 0.82354 0.21493 0.37266 0.0
H1031 H 0.84887 0.19119 0.42128 0.0
H1032 H 0.81427 0.15377 0.4212 0.0
H1033 H 0.81678 0.18593 0.45088 0.0
H1034 H 0.68586 0.25923 0.45407 0.0
H1035 H 0.64448 0.20537 0.44125 0.0
H1036 H 0.74006 0.14783 0.40335 0.0
C1037 C 0.82524 0.27541 0.41566 0.0
C1038 C 0.8222 0.31397 0.42343 0.0
C1039 C 0.79023 0.32592 0.43929 0.0
C1040 C 0.76084 0.30053 0.44571 0.0
C1041 C 0.76406 0.2631 0.43659 0.0
C1042 C 0.79584 0.25044 0.42234 0.0
C1043 C 0.79105 0.20998 0.41239 0.0
C1044 C 0.79457 0.20721 0.37974 0.0
C1045 C 0.81943 0.18366 0.42734 0.0
C1046 C 0.751 0.20222 0.42225 0.0
C1047 C 0.73591 0.23312 0.43631 0.0
C1048 C 0.69778 0.23442 0.44401 0.0
C1049 C 0.67448 0.20375 0.43672 0.0
C1050 C 0.68949 0.17198 0.42233 0.0
C1051 C 0.72837 0.17096 0.41561 0.0
H1052 H 0.77587 0.3381 0.91333 0.0
H1053 H 0.87041 0.27055 0.94344 0.0
H1054 H 0.82724 0.21688 0.95161 0.0
H1055 H 0.70224 0.29542 0.96211 0.0
H1056 H 0.66679 0.29804 0.93459 0.0
H1057 H 0.70381 0.333 0.93613 0.0
H1058 H 0.72182 0.31786 0.88396 0.0
H1059 H 0.68537 0.28259 0.88226 0.0
H1060 H 0.73363 0.26996 0.8743 0.0
H1061 H 0.77657 0.16694 0.94673 0.0
H1062 H 0.72159 0.12733 0.93361 0.0
H1063 H 0.65923 0.22806 0.9099 0.0
C1064 C 0.78741 0.31251 0.92261 0.0
C1065 C 0.82674 0.30877 0.92769 0.0
C1066 C 0.84049 0.27444 0.93948 0.0
C1067 C 0.81612 0.24365 0.94416 0.0
C1068 C 0.77786 0.24775 0.93755 0.0
C1069 C 0.76343 0.28166 0.92763 0.0
C1070 C 0.72198 0.27793 0.91985 0.0
C1071 C 0.69724 0.30256 0.93934 0.0
C1072 C 0.71534 0.28763 0.88823 0.0
C1073 C 0.71572 0.23622 0.92569 0.0
C1074 C 0.74822 0.21928 0.93601 0.0
C1075 C 0.75063 0.18012 0.93956 0.0
C1076 C 0.7193 0.15781 0.93203 0.0
C1077 C 0.68578 0.17467 0.92144 0.0
C1078 C 0.68386 0.21446 0.91893 0.0
H1079 H 0.31023 0.70176 0.86824 0.0
H1080 H 0.3374 0.69613 0.95809 0.0
H1081 H 0.29112 0.74762 0.96757 0.0
H1082 H 0.29337 0.80284 0.86232 0.0
H1083 H 0.2542 0.79662 0.83825 0.0
H1084 H 0.29208 0.76253 0.83889 0.0
H1085 H 0.24334 0.70917 0.84812 0.0
H1086 H 0.2054 0.74319 0.84798 0.0
H1087 H 0.21198 0.71252 0.87828 0.0
H1088 H 0.24161 0.80164 0.9662 0.0
H1089 H 0.19115 0.84831 0.95481 0.0
H1090 H 0.19318 0.81193 0.86677 0.0
C1091 C 0.30733 0.71212 0.88981 0.0
C1092 C 0.32832 0.69591 0.91233 0.0
C1093 C 0.32218 0.70883 0.94048 0.0
C1094 C 0.2959 0.73794 0.94602 0.0
C1095 C 0.27536 0.75308 0.92325 0.0
C1096 C 0.28063 0.74022 0.89574 0.0
C1097 C 0.25325 0.75867 0.8752 0.0
C1098 C 0.2745 0.78152 0.85232 0.0
C1099 C 0.22694 0.72913 0.8616 0.0
C1100 C 0.23183 0.78431 0.89531 0.0
C1101 C 0.24518 0.78124 0.92289 0.0
C1102 C 0.23067 0.8038 0.94474 0.0
C1103 C 0.202 0.83016 0.93814 0.0
C1104 C 0.18754 0.833 0.9101 0.0
C1105 C 0.20271 0.80957 0.8886 0.0
H1106 H 0.6569 0.27419 0.59323 0.0
H1107 H 0.71529 0.3805 0.58177 0.0
H1108 H 0.77424 0.34553 0.57018 0.0
H1109 H 0.72729 0.23417 0.63221 0.0
H1110 H 0.72041 0.18656 0.61966 0.0
H1111 H 0.68154 0.2193 0.61957 0.0
H1112 H 0.67172 0.20791 0.56554 0.0
H1113 H 0.7107 0.17497 0.56547 0.0
H1114 H 0.71071 0.21464 0.54129 0.0
H1115 H 0.8284 0.29841 0.56545 0.0
H1116 H 0.87331 0.24626 0.57455 0.0
H1117 H 0.77943 0.17172 0.59401 0.0
C1118 C 0.68149 0.29012 0.58689 0.0
C1119 C 0.68112 0.33003 0.58726 0.0
C1120 C 0.71474 0.34991 0.58074 0.0
C1121 C 0.74828 0.33022 0.57413 0.0
C1122 C 0.74787 0.29068 0.57473 0.0
C1123 C 0.71526 0.27093 0.58126 0.0
C1124 C 0.72327 0.22923 0.58567 0.0
C1125 C 0.7125 0.21661 0.61607 0.0
C1126 C 0.70289 0.20528 0.56314 0.0
C1127 C 0.76567 0.22853 0.58126 0.0
C1128 C 0.77928 0.26397 0.57416 0.0
C1129 C 0.81793 0.27052 0.57075 0.0
C1130 C 0.84331 0.2406 0.5759 0.0
C1131 C 0.83004 0.20478 0.58512 0.0
C1132 C 0.79058 0.19858 0.58679 0.0
H1133 H 0.15755 0.72273 0.61947 0.0
H1134 H 0.21408 0.6329 0.573 0.0
H1135 H 0.2657 0.6768 0.56069 0.0
H1136 H 0.18818 0.80297 0.57275 0.0
H1137 H 0.19436 0.83387 0.60287 0.0
H1138 H 0.15881 0.79737 0.60386 0.0
H1139 H 0.18795 0.77094 0.65044 0.0
H1140 H 0.22353 0.80719 0.64959 0.0
H1141 H 0.23733 0.75815 0.6511 0.0
H1142 H 0.31637 0.72715 0.56043 0.0
H1143 H 0.35982 0.78046 0.57089 0.0
H1144 H 0.27007 0.8377 0.61632 0.0
C1145 C 0.1801 0.71247 0.60593 0.0
C1146 C 0.18138 0.67419 0.59712 0.0
C1147 C 0.21206 0.66203 0.5799 0.0
C1148 C 0.24164 0.68683 0.57277 0.0
C1149 C 0.24018 0.72392 0.58277 0.0
C1150 C 0.20993 0.73682 0.59872 0.0
C1151 C 0.21678 0.77676 0.60923 0.0
C1152 C 0.18781 0.80438 0.5964 0.0
C1153 C 0.21638 0.77832 0.64202 0.0
C1154 C 0.25606 0.78393 0.59746 0.0
C1155 C 0.26904 0.75325 0.58204 0.0
C1156 C 0.30608 0.75178 0.57169 0.0
C1157 C 0.33054 0.78214 0.57758 0.0
C1158 C 0.31767 0.81363 0.59333 0.0
C1159 C 0.27991 0.81467 0.60305 0.0
H1160 H 0.938 0.47832 0.29986 0.0
H1161 H 0.00854 0.37854 0.30958 0.0
H1162 H 0.05624 0.40717 0.27739 0.0
H1163 H 0.95711 0.49389 0.22581 0.0
H1164 H 0.95649 0.54464 0.2292 0.0
H1165 H 0.92851 0.51597 0.2529 0.0
H1166 H 0.96111 0.54716 0.2964 0.0
H1167 H 0.98924 0.57588 0.27283 0.0
H1168 H 0.01196 0.54628 0.29905 0.0
H1169 H 0.09662 0.44824 0.24441 0.0
H1170 H 0.12452 0.49657 0.21239 0.0
H1171 H 0.02563 0.56757 0.22485 0.0
C1172 C 0.96342 0.46232 0.29526 0.0
C1173 C 0.96964 0.42623 0.30723 0.0
C1174 C 0.00323 0.40625 0.30055 0.0
C1175 C 0.03046 0.42231 0.28237 0.0
C1176 C 0.02342 0.45814 0.27105 0.0
C1177 C 0.99055 0.4777 0.27716 0.0
C1178 C 0.98925 0.51555 0.26228 0.0
C1179 C 0.95587 0.51761 0.2413 0.0
C1180 C 0.98782 0.54813 0.28393 0.0
C1181 C 0.02663 0.51442 0.2468 0.0
C1182 C 0.04613 0.48125 0.25211 0.0
C1183 C 0.08153 0.47427 0.24007 0.0
C1184 C 0.09717 0.50186 0.22199 0.0
C1185 C 0.07722 0.53576 0.21612 0.0
C1186 C 0.04161 0.54194 0.22883 0.0
H1187 H 0.97948 0.08047 0.22271 0.0
H1188 H 0.90157 0.99399 0.19303 0.0
H1189 H 0.93394 0.94674 0.22218 0.0
H1190 H 0.06328 0.01863 0.22615 0.0
H1191 H 0.08118 0.03978 0.25832 0.0
H1192 H 0.05349 0.06763 0.23377 0.0
H1193 H 0.00685 0.08464 0.27434 0.0
H1194 H 0.03438 0.0569 0.29899 0.0
H1195 H 0.98471 0.04724 0.29445 0.0
H1196 H 0.9704 0.90943 0.25559 0.0
H1197 H 0.01101 0.8826 0.29283 0.0
H1198 H 0.06783 0.99075 0.30213 0.0
C1199 C 0.96954 0.05153 0.22225 0.0
C1200 C 0.93792 0.04106 0.20556 0.0
C1201 C 0.92559 0.00292 0.20563 0.0
C1202 C 0.94387 0.97567 0.22206 0.0
C1203 C 0.97458 0.98679 0.23839 0.0
C1204 C 0.98756 0.02362 0.23875 0.0
C1205 C 0.02052 0.0276 0.2593 0.0
C1206 C 0.05677 0.03909 0.24343 0.0
C1207 C 0.01103 0.05577 0.28319 0.0
C1208 C 0.02331 0.9874 0.27063 0.0
C1209 C 0.99649 0.96454 0.25801 0.0
C1210 C 0.99179 0.92683 0.26552 0.0
C1211 C 0.01491 0.91193 0.28679 0.0
C1212 C 0.04254 0.93461 0.30028 0.0
C1213 C 0.04721 0.97275 0.29185 0.0
H1214 H 0.57268 0.02049 0.29245 0.0
H1215 H 0.49679 0.1131 0.3131 0.0
H1216 H 0.44914 0.08681 0.27983 0.0
H1217 H 0.5502 0.0154 0.21808 0.0
H1218 H 0.55414 0.9646 0.21709 0.0
H1219 H 0.58174 0.99127 0.24222 0.0
H1220 H 0.55385 0.95157 0.28372 0.0
H1221 H 0.52617 0.92479 0.25873 0.0
H1222 H 0.50327 0.94862 0.28794 0.0
H1223 H 0.40941 0.04849 0.2445 0.0
H1224 H 0.3823 0.00288 0.21003 0.0
H1225 H 0.4862 0.93745 0.21351 0.0
C1226 C 0.5461 0.03544 0.29003 0.0
C1227 C 0.53836 0.0688 0.30537 0.0
C1228 C 0.50326 0.08746 0.30148 0.0
C1229 C 0.47608 0.07274 0.28268 0.0
C1230 C 0.48469 0.03958 0.26796 0.0
C1231 C 0.519 0.02137 0.27141 0.0
C1232 C 0.52174 0.98622 0.25339 0.0
C1233 C 0.55385 0.9896 0.23139 0.0
C1234 C 0.52652 0.95071 0.27206 0.0
C1235 C 0.48347 0.98722 0.23926 0.0
C1236 C 0.46233 0.01807 0.24783 0.0
C1237 C 0.42579 0.02431 0.2376 0.0
C1238 C 0.41063 0.9983 0.21809 0.0
C1239 C 0.43214 0.96667 0.2091 0.0
C1240 C 0.46897 0.96133 0.21989 0.0
H1241 H 0.58254 0.48728 0.22505 0.0
H1242 H 0.50999 0.39125 0.20735 0.0
H1243 H 0.46052 0.4189 0.23862 0.0
H1244 H 0.55668 0.49875 0.29885 0.0
H1245 H 0.55958 0.54957 0.29684 0.0
H1246 H 0.58886 0.52085 0.27412 0.0
H1247 H 0.56216 0.55593 0.22993 0.0
H1248 H 0.53238 0.58437 0.25244 0.0
H1249 H 0.5118 0.55702 0.22405 0.0
H1250 H 0.41813 0.45978 0.27102 0.0
H1251 H 0.38857 0.50806 0.30229 0.0
H1252 H 0.49103 0.57526 0.29726 0.0
C1253 C 0.5564 0.47175 0.22781 0.0
C1254 C 0.55005 0.43713 0.21379 0.0
C1255 C 0.51543 0.41781 0.21804 0.0
C1256 C 0.48721 0.43333 0.23567 0.0
C1257 C 0.49433 0.46794 0.24888 0.0
C1258 C 0.5283 0.48663 0.24522 0.0
C1259 C 0.52935 0.52353 0.26121 0.0
C1260 C 0.56046 0.52312 0.28412 0.0
C1261 C 0.53418 0.55719 0.24068 0.0
C1262 C 0.49048 0.52306 0.27438 0.0
C1263 C 0.4705 0.49091 0.26716 0.0
C1264 C 0.43365 0.48495 0.27686 0.0
C1265 C 0.41706 0.51251 0.29452 0.0
C1266 C 0.43748 0.54539 0.30219 0.0
C1267 C 0.47457 0.55048 0.29186 0.0
H1268 H 0.05654 0.517 0.71894 0.0
H1269 H 0.98255 0.61324 0.70469 0.0
H1270 H 0.93701 0.5867 0.73977 0.0
H1271 H 0.98423 0.44676 0.72682 0.0
H1272 H 0.01006 0.42139 0.75389 0.0
H1273 H 0.0352 0.44782 0.7271 0.0
H1274 H 0.07003 0.48515 0.76665 0.0
H1275 H 0.04482 0.45908 0.79357 0.0
H1276 H 0.04286 0.51001 0.7932 0.0
H1277 H 0.90043 0.54869 0.77816 0.0
H1278 H 0.87694 0.50355 0.81471 0.0
H1279 H 0.97737 0.43475 0.80241 0.0
C1280 C 0.03074 0.53265 0.72297 0.0
C1281 C 0.0231 0.56726 0.70909 0.0
C1282 C 0.9889 0.5866 0.71506 0.0
C1283 C 0.96297 0.57176 0.73496 0.0
C1284 C 0.97178 0.53766 0.74853 0.0
C1285 C 0.00491 0.51845 0.7426 0.0
C1286 C 0.00867 0.4828 0.76006 0.0
C1287 C 0.00958 0.44762 0.74082 0.0
C1288 C 0.04366 0.48439 0.77952 0.0
C1289 C 0.97254 0.48482 0.77704 0.0
C1290 C 0.95137 0.51645 0.77021 0.0
C1291 C 0.91684 0.52384 0.78357 0.0
C1292 C 0.90374 0.49813 0.80431 0.0
C1293 C 0.9253 0.46566 0.81145 0.0
C1294 C 0.9601 0.45925 0.79755 0.0
H1295 H 0.05742 0.00659 0.80209 0.0
H1296 H 0.98597 0.90796 0.81344 0.0
H1297 H 0.93975 0.93515 0.77927 0.0
H1298 H 0.98306 0.07595 0.79528 0.0
H1299 H 0.0085 0.10265 0.76874 0.0
H1300 H 0.03405 0.07602 0.79524 0.0
H1301 H 0.0702 0.0406 0.75526 0.0
H1302 H 0.04461 0.06692 0.72866 0.0
H1303 H 0.04388 0.01596 0.72817 0.0
H1304 H 0.90256 0.97346 0.7418 0.0
H1305 H 0.87874 0.01843 0.70529 0.0
H1306 H 0.9769 0.08958 0.71933 0.0
C1307 C 0.03192 0.99068 0.79771 0.0
C1308 C 0.02524 0.95517 0.8105 0.0
C1309 C 0.99157 0.93532 0.80396 0.0
C1310 C 0.96522 0.95053 0.78457 0.0
C1311 C 0.9731 0.98549 0.77202 0.0
C1312 C 0.00571 0.00521 0.77846 0.0
C1313 C 0.00872 0.04144 0.76159 0.0
C1314 C 0.00855 0.07605 0.7814 0.0
C1315 C 0.04393 0.04118 0.74228 0.0
C1316 C 0.9728 0.03912 0.74439 0.0
C1317 C 0.95237 0.00687 0.75065 0.0
C1318 C 0.91834 0.99884 0.73685 0.0
C1319 C 0.90504 0.02448 0.71616 0.0
C1320 C 0.92594 0.05749 0.70945 0.0
C1321 C 0.96015 0.06466 0.72389 0.0
H1322 H 0.52369 0.06234 0.79514 0.0
H1323 H 0.61159 0.98145 0.81691 0.0
H1324 H 0.58289 0.9351 0.78379 0.0
H1325 H 0.44769 0.99634 0.78995 0.0
H1326 H 0.42575 0.02065 0.76049 0.0
H1327 H 0.4534 0.04673 0.78593 0.0
H1328 H 0.49527 0.07273 0.745 0.0
H1329 H 0.46786 0.04662 0.71943 0.0
H1330 H 0.51837 0.04013 0.72117 0.0
H1331 H 0.54368 0.89781 0.74773 0.0
H1332 H 0.49787 0.8732 0.71245 0.0
H1333 H 0.4373 0.98003 0.71508 0.0
C1334 C 0.53706 0.0349 0.79305 0.0
C1335 C 0.56992 0.02549 0.8086 0.0
C1336 C 0.58638 0.98923 0.80518 0.0
C1337 C 0.5703 0.96278 0.78643 0.0
C1338 C 0.53789 0.97316 0.77134 0.0
C1339 C 0.52156 0.00842 0.77451 0.0
C1340 C 0.48696 0.01302 0.75597 0.0
C1341 C 0.45135 0.01955 0.77417 0.0
C1342 C 0.49247 0.04501 0.7341 0.0
C1343 C 0.48624 0.97479 0.74174 0.0
C1344 C 0.51573 0.95207 0.75081 0.0
C1345 C 0.52051 0.9154 0.7405 0.0
C1346 C 0.4944 0.90168 0.72047 0.0
C1347 C 0.46402 0.92468 0.71101 0.0
C1348 C 0.46017 0.96168 0.72183 0.0
H1349 H 0.5614 0.4841 0.70971 0.0
H1350 H 0.52483 0.37046 0.73143 0.0
H1351 H 0.49107 0.39507 0.77322 0.0
H1352 H 0.57148 0.5191 0.78408 0.0
H1353 H 0.55287 0.56522 0.77551 0.0
H1354 H 0.5783 0.5386 0.74895 0.0
H1355 H 0.52114 0.54426 0.7147 0.0
H1356 H 0.49559 0.57083 0.74112 0.0
H1357 H 0.47522 0.52845 0.72641 0.0
H1358 H 0.45675 0.43097 0.80937 0.0
H1359 H 0.42206 0.47723 0.83836 0.0
H1360 H 0.47933 0.56904 0.79456 0.0
C1361 C 0.54684 0.46449 0.72365 0.0
C1362 C 0.54567 0.42542 0.71741 0.0
C1363 C 0.52584 0.40054 0.73574 0.0
C1364 C 0.5068 0.41418 0.75965 0.0
C1365 C 0.50777 0.45283 0.76498 0.0
C1366 C 0.52717 0.47777 0.74762 0.0
C1367 C 0.52083 0.51832 0.75716 0.0
C1368 C 0.55809 0.53637 0.76701 0.0
C1369 C 0.50208 0.54184 0.73343 0.0
C1370 C 0.49408 0.51212 0.78203 0.0
C1371 C 0.48743 0.47401 0.78625 0.0
C1372 C 0.46204 0.46089 0.80659 0.0
C1373 C 0.44235 0.48742 0.82287 0.0
C1374 C 0.44814 0.52665 0.81877 0.0
C1375 C 0.47487 0.53917 0.79843 0.0
H1376 H 0.1543 0.69866 0.21504 0.0
H1377 H 0.03446 0.68932 0.19687 0.0
H1378 H 0.01972 0.72414 0.24098 0.0
H1379 H 0.14901 0.68924 0.29095 0.0
H1380 H 0.18463 0.72433 0.29821 0.0
H1381 H 0.18615 0.69793 0.26545 0.0
H1382 H 0.18587 0.76028 0.23636 0.0
H1383 H 0.18503 0.78683 0.26903 0.0
H1384 H 0.14907 0.79466 0.24247 0.0
H1385 H 0.0178 0.75694 0.28847 0.0
H1386 H 0.02905 0.79598 0.33132 0.0
H1387 H 0.14992 0.78883 0.31689 0.0
C1388 C 0.12499 0.7043 0.22028 0.0
C1389 C 0.09547 0.6914 0.20247 0.0
C1390 C 0.0575 0.69937 0.20993 0.0
C1391 C 0.04884 0.71874 0.23515 0.0
C1392 C 0.07852 0.73049 0.25251 0.0
C1393 C 0.11588 0.72443 0.24507 0.0
C1394 C 0.14244 0.74195 0.2667 0.0
C1395 C 0.167 0.71155 0.28118 0.0
C1396 C 0.16704 0.77277 0.25281 0.0
C1397 C 0.11413 0.75877 0.28742 0.0
C1398 C 0.07743 0.75107 0.27918 0.0
C1399 C 0.04641 0.76325 0.29511 0.0
C1400 C 0.05302 0.78501 0.31958 0.0
C1401 C 0.09028 0.79492 0.32749 0.0
C1402 C 0.12117 0.78123 0.31139 0.0
H1403 H 0.79992 0.15588 0.20461 0.0
H1404 H 0.77937 0.04319 0.17183 0.0
H1405 H 0.73664 0.03032 0.21236 0.0
H1406 H 0.80273 0.13351 0.27667 0.0
H1407 H 0.77786 0.17486 0.28906 0.0
H1408 H 0.80426 0.17677 0.25631 0.0
H1409 H 0.74453 0.19883 0.22906 0.0
H1410 H 0.71799 0.19765 0.26183 0.0
H1411 H 0.70175 0.17131 0.23138 0.0
H1412 H 0.70329 0.02683 0.25945 0.0
H1413 H 0.67301 0.03605 0.3063 0.0
H1414 H 0.71072 0.15261 0.30741 0.0
C1415 C 0.78571 0.1288 0.20563 0.0
C1416 C 0.79288 0.1005 0.18499 0.0
C1417 C 0.77393 0.0654 0.18711 0.0
C1418 C 0.74985 0.05777 0.21021 0.0
C1419 C 0.74437 0.08583 0.23066 0.0
C1420 C 0.76093 0.12103 0.22822 0.0
C1421 C 0.75051 0.14613 0.25328 0.0
C1422 C 0.78595 0.15853 0.2698 0.0
C1423 C 0.72731 0.18051 0.24329 0.0
C1424 C 0.7265 0.11907 0.2707 0.0
C1425 C 0.72362 0.08437 0.25731 0.0
C1426 C 0.7049 0.05402 0.26992 0.0
C1427 C 0.68818 0.05937 0.29668 0.0
C1428 C 0.68986 0.09487 0.31047 0.0
C1429 C 0.70906 0.1252 0.29723 0.0
H1430 H 0.35967 0.71357 0.30808 0.0
H1431 H 0.48042 0.7001 0.32044 0.0
H1432 H 0.49241 0.73827 0.27713 0.0
H1433 H 0.35832 0.70803 0.23307 0.0
H1434 H 0.32286 0.74411 0.22807 0.0
H1435 H 0.32367 0.71677 0.26047 0.0
H1436 H 0.32779 0.77816 0.2903 0.0
H1437 H 0.32638 0.80573 0.25801 0.0
H1438 H 0.3647 0.81189 0.28286 0.0
H1439 H 0.49077 0.77288 0.22994 0.0
H1440 H 0.47634 0.81037 0.18684 0.0
H1441 H 0.35678 0.80552 0.20711 0.0
C1442 C 0.38863 0.71917 0.30185 0.0
C1443 C 0.4192 0.70404 0.3176 0.0
C1444 C 0.45668 0.71189 0.30889 0.0
C1445 C 0.46371 0.73323 0.28418 0.0
C1446 C 0.43291 0.74705 0.26874 0.0
C1447 C 0.39612 0.74113 0.27763 0.0
C1448 C 0.36809 0.75985 0.25761 0.0
C1449 C 0.34169 0.73043 0.24401 0.0
C1450 C 0.34541 0.79074 0.27312 0.0
C1451 C 0.39485 0.77672 0.23578 0.0
C1452 C 0.43208 0.76854 0.24237 0.0
C1453 C 0.46176 0.77981 0.22475 0.0
C1454 C 0.45328 0.80079 0.20014 0.0
C1455 C 0.4155 0.81083 0.19359 0.0
C1456 C 0.38596 0.79837 0.21164 0.0
H1457 H 0.7194 0.36211 0.20408 0.0
H1458 H 0.70195 0.48329 0.19869 0.0
H1459 H 0.73907 0.49193 0.24281 0.0
H1460 H 0.7131 0.3526 0.27878 0.0
H1461 H 0.75042 0.31808 0.28203 0.0
H1462 H 0.72352 0.32128 0.24955 0.0
H1463 H 0.78508 0.33073 0.22056 0.0
H1464 H 0.81227 0.32699 0.25289 0.0
H1465 H 0.8173 0.36798 0.23033 0.0
H1466 H 0.77271 0.48663 0.28989 0.0
H1467 H 0.80984 0.46931 0.3324 0.0
H1468 H 0.81014 0.35201 0.30553 0.0
C1469 C 0.72393 0.39048 0.21202 0.0
C1470 C 0.70796 0.42212 0.198 0.0
C1471 C 0.7144 0.45881 0.2089 0.0
C1472 C 0.73513 0.46391 0.23409 0.0
C1473 C 0.74983 0.43208 0.24778 0.0
C1474 C 0.74534 0.39614 0.23677 0.0
C1475 C 0.76484 0.3668 0.25529 0.0
C1476 C 0.73625 0.338 0.26711 0.0
C1477 C 0.79677 0.34697 0.23878 0.0
C1478 C 0.78041 0.39181 0.27874 0.0
C1479 C 0.77093 0.42927 0.27417 0.0
C1480 C 0.7807 0.45746 0.2935 0.0
C1481 C 0.80152 0.44729 0.31778 0.0
C1482 C 0.81294 0.40936 0.32234 0.0
C1483 C 0.80196 0.38129 0.30256 0.0
H1484 H 0.85215 0.19993 0.71306 0.0
H1485 H 0.96056 0.23492 0.67833 0.0
H1486 H 0.97145 0.27463 0.72034 0.0
H1487 H 0.82851 0.29309 0.74246 0.0
H1488 H 0.80524 0.27369 0.77336 0.0
H1489 H 0.80565 0.24763 0.74042 0.0
H1490 H 0.83525 0.19021 0.76651 0.0
H1491 H 0.83532 0.21619 0.79947 0.0
H1492 H 0.87872 0.19622 0.78603 0.0
H1493 H 0.97335 0.30668 0.76722 0.0
H1494 H 0.96201 0.3368 0.8138 0.0
H1495 H 0.85033 0.28661 0.81739 0.0
C1496 C 0.87808 0.21613 0.7142 0.0
C1497 C 0.9058 0.21366 0.69246 0.0
C1498 C 0.93907 0.23578 0.69469 0.0
C1499 C 0.94558 0.2585 0.71855 0.0
C1500 C 0.91821 0.25957 0.73983 0.0
C1501 C 0.88472 0.23973 0.73768 0.0
C1502 C 0.85959 0.24704 0.76336 0.0
C1503 C 0.82256 0.26653 0.75435 0.0
C1504 C 0.85177 0.21022 0.77981 0.0
C1505 C 0.88456 0.27356 0.78041 0.0
C1506 C 0.91843 0.27993 0.76649 0.0
C1507 C 0.94685 0.30217 0.77825 0.0
C1508 C 0.94034 0.31884 0.8048 0.0
C1509 C 0.90557 0.3136 0.81913 0.0
C1510 C 0.8772 0.29083 0.80677 0.0
H1511 H 0.33435 0.8842 0.72668 0.0
H1512 H 0.26057 0.92752 0.6602 0.0
H1513 H 0.21035 0.9379 0.69582 0.0
H1514 H 0.26343 0.83536 0.76682 0.0
H1515 H 0.28323 0.84739 0.80098 0.0
H1516 H 0.31352 0.84358 0.77028 0.0
H1517 H 0.33773 0.91174 0.77911 0.0
H1518 H 0.30724 0.91573 0.80973 0.0
H1519 H 0.30423 0.95009 0.78141 0.0
H1520 H 0.16711 0.94023 0.73766 0.0
H1521 H 0.13394 0.93695 0.78384 0.0
H1522 H 0.23628 0.89582 0.82432 0.0
C1523 C 0.30763 0.89587 0.71958 0.0
C1524 C 0.30138 0.90491 0.69054 0.0
C1525 C 0.2661 0.92042 0.68225 0.0
C1526 C 0.23738 0.9264 0.70234 0.0
C1527 C 0.24448 0.91717 0.73072 0.0
C1528 C 0.27877 0.90249 0.73943 0.0
C1529 C 0.27899 0.89511 0.77131 0.0
C1530 C 0.28515 0.85285 0.77771 0.0
C1531 C 0.30882 0.91964 0.78627 0.0
C1532 C 0.23923 0.90751 0.77909 0.0
C1533 C 0.21984 0.91996 0.75524 0.0
C1534 C 0.18209 0.93098 0.75653 0.0
C1535 C 0.16351 0.92896 0.7828 0.0
C1536 C 0.18275 0.91653 0.80754 0.0
C1537 C 0.22124 0.9061 0.80576 0.0
H1538 H 0.60423 0.23016 0.82314 0.0
H1539 H 0.63452 0.12311 0.78407 0.0
H1540 H 0.63387 0.1533 0.73678 0.0
H1541 H 0.5422 0.26335 0.76849 0.0
H1542 H 0.55753 0.31188 0.77031 0.0
H1543 H 0.5604 0.28212 0.80141 0.0
H1544 H 0.63198 0.29656 0.80583 0.0
H1545 H 0.62924 0.32656 0.77483 0.0
H1546 H 0.66266 0.28804 0.77583 0.0
H1547 H 0.62533 0.1937 0.69323 0.0
H1548 H 0.61686 0.24389 0.65688 0.0
H1549 H 0.59745 0.32593 0.72384 0.0
C1550 C 0.61094 0.21319 0.80464 0.0
C1551 C 0.61945 0.17424 0.80738 0.0
C1552 C 0.62824 0.15304 0.78262 0.0
C1553 C 0.62773 0.16988 0.75558 0.0
C1554 C 0.61894 0.20816 0.75355 0.0
C1555 C 0.61136 0.22977 0.77741 0.0
C1556 C 0.6038 0.27063 0.76921 0.0
C1557 C 0.56359 0.28269 0.77787 0.0
C1558 C 0.63371 0.297 0.7822 0.0
C1559 C 0.60779 0.26836 0.73706 0.0
C1560 C 0.61607 0.23195 0.72845 0.0
C1561 C 0.6193 0.22243 0.69972 0.0
C1562 C 0.61427 0.25098 0.67923 0.0
C1563 C 0.60687 0.28864 0.68763 0.0
C1564 C 0.60366 0.29737 0.71692 0.0
H1565 H 0.32866 0.59001 0.79135 0.0
H1566 H 0.2494 0.61634 0.85915 0.0
H1567 H 0.19801 0.6218 0.82369 0.0
H1568 H 0.29017 0.65261 0.7388 0.0
H1569 H 0.29765 0.62063 0.70948 0.0
H1570 H 0.32827 0.61873 0.7401 0.0
H1571 H 0.31291 0.54763 0.74676 0.0
H1572 H 0.28238 0.54925 0.71608 0.0
H1573 H 0.26429 0.53286 0.7498 0.0
H1574 H 0.15612 0.62705 0.78086 0.0
H1575 H 0.12477 0.62676 0.73411 0.0
H1576 H 0.23037 0.59378 0.69385 0.0
C1577 C 0.30045 0.59682 0.79876 0.0
C1578 C 0.29301 0.60279 0.82805 0.0
C1579 C 0.2557 0.61139 0.83689 0.0
C1580 C 0.22639 0.61474 0.81688 0.0
C1581 C 0.23478 0.60893 0.78818 0.0
C1582 C 0.27078 0.59972 0.77914 0.0
C1583 C 0.27208 0.59429 0.74709 0.0
C1584 C 0.29862 0.6233 0.73305 0.0
C1585 C 0.28359 0.55358 0.7395 0.0
C1586 C 0.23113 0.60197 0.73946 0.0
C1587 C 0.21028 0.61077 0.7635 0.0
C1588 C 0.1721 0.62 0.76193 0.0
C1589 C 0.15461 0.61994 0.73519 0.0
C1590 C 0.1751 0.61029 0.71023 0.0
C1591 C 0.21393 0.60112 0.71251 0.0
H1592 H 0.01605 0.57954 0.04981 0.0
H1593 H 0.12413 0.52111 0.05237 0.0
H1594 H 0.09717 0.46923 0.02392 0.0
H1595 H 0.95738 0.49742 0.05559 0.0
H1596 H 0.9218 0.51425 0.03116 0.0
H1597 H 0.94945 0.54749 0.05137 0.0
H1598 H 0.97049 0.58067 1.00479 0.0
H1599 H 0.94259 0.54779 0.98445 0.0
H1600 H 0.99229 0.55319 0.97694 0.0
H1601 H 0.05821 0.4224 0.99679 0.0
H1602 H 0.01179 0.38641 0.96889 0.0
H1603 H 0.92862 0.47518 0.98218 0.0
C1604 C 0.03419 0.55603 0.04413 0.0
C1605 C 0.07238 0.55463 0.05335 0.0
C1606 C 0.09496 0.52316 0.04551 0.0
C1607 C 0.07981 0.49335 0.02945 0.0
C1608 C 0.04201 0.49533 0.02113 0.0
C1609 C 0.01957 0.52605 0.02786 0.0
C1610 C 0.9799 0.52119 0.01589 0.0
C1611 C 0.95039 0.52002 0.03994 0.0
C1612 C 0.97079 0.55257 0.99423 0.0
C1613 C 0.98357 0.48292 1.00143 0.0
C1614 C 0.01959 0.46847 1.00498 0.0
C1615 C 0.02997 0.43354 0.99376 0.0
C1616 C 0.00322 0.41319 0.97795 0.0
C1617 C 0.96633 0.42775 0.97318 0.0
C1618 C 0.9564 0.46301 0.98549 0.0
H1619 H 0.03309 0.93881 0.97322 0.0
H1620 H 0.1218 0.02252 0.96279 0.0
H1621 H 0.08509 0.06758 0.99174 0.0
H1622 H 0.9556 0.00287 0.96802 0.0
H1623 H 0.92699 0.9796 0.99456 0.0
H1624 H 0.96089 0.9528 0.97422 0.0
H1625 H 0.99249 0.9295 0.02079 0.0
H1626 H 0.95849 0.95595 0.0413 0.0
H1627 H 0.00836 0.96358 0.04666 0.0
H1628 H 0.03802 0.10466 0.0204 0.0
H1629 H 0.98521 0.13018 0.04874 0.0
H1630 H 0.92609 0.02312 0.04089 0.0
C1631 C 0.04511 0.96639 0.97741 0.0
C1632 C 0.08062 0.9769 0.96577 0.0
C1633 C 0.09488 0.01358 0.97148 0.0
C1634 C 0.07414 0.03949 0.98788 0.0
C1635 C 0.03903 0.02851 0.99855 0.0
C1636 C 0.02468 0.99276 0.99376 0.0
C1637 C 0.98586 0.9885 1.00734 0.0
C1638 C 0.95555 0.98047 0.98468 0.0
C1639 C 0.98634 0.95755 0.03039 0.0
C1640 C 0.9806 0.02748 0.02036 0.0
C1641 C 0.01166 0.05007 0.01498 0.0
C1642 C 0.01357 0.0872 0.02477 0.0
C1643 C 0.98326 0.10152 0.0408 0.0
C1644 C 0.95121 0.07888 0.047 0.0
C1645 C 0.94994 0.04136 0.03639 0.0
H1646 H 0.49315 0.93149 0.04473 0.0
H1647 H 0.3805 0.9802 0.04021 0.0
H1648 H 0.40512 0.0321 0.01034 0.0
H1649 H 0.54348 0.01895 0.04946 0.0
H1650 H 0.58259 0.00379 0.02763 0.0
H1651 H 0.55619 0.9696 0.04801 0.0
H1652 H 0.54248 0.93139 1.00211 0.0
H1653 H 0.56937 0.96524 0.9818 0.0
H1654 H 0.52122 0.95489 0.97198 0.0
H1655 H 0.44215 0.07985 0.98175 0.0
H1656 H 0.48802 0.11778 0.95433 0.0
H1657 H 0.57702 0.03856 0.97708 0.0
C1658 C 0.47353 0.95281 0.0372 0.0
C1659 C 0.4347 0.95145 0.04479 0.0
C1660 C 0.41022 0.98027 0.03462 0.0
C1661 C 0.424 0.01005 0.0177 0.0
C1662 C 0.46242 0.01082 0.01098 0.0
C1663 C 0.48682 0.9828 0.02019 0.0
C1664 C 0.5269 0.99046 0.00996 0.0
C1665 C 0.55388 0.99603 0.03527 0.0
C1666 C 0.5408 0.9586 0.99029 0.0
C1667 C 0.52121 0.02714 0.99357 0.0
C1668 C 0.4838 0.03842 0.99453 0.0
C1669 C 0.4715 0.07125 0.98086 0.0
C1670 C 0.49789 0.09275 0.96539 0.0
C1671 C 0.53634 0.08149 0.96358 0.0
C1672 C 0.54802 0.04831 0.97819 0.0
H1673 H 0.47663 0.58947 0.98047 0.0
H1674 H 0.39095 0.5025 0.97083 0.0
H1675 H 0.43039 0.45821 0.99834 0.0
H1676 H 0.55723 0.52909 0.9744 0.0
H1677 H 0.58476 0.55295 1.00119 0.0
H1678 H 0.54964 0.57869 0.98119 0.0
H1679 H 0.51705 0.59928 0.02808 0.0
H1680 H 0.55228 0.57389 0.04822 0.0
H1681 H 0.50282 0.5638 0.05354 0.0
H1682 H 0.48022 0.42186 0.02453 0.0
H1683 H 0.53437 0.39775 0.05211 0.0
H1684 H 0.5875 0.50825 0.04736 0.0
C1685 C 0.46595 0.56126 0.98444 0.0
C1686 C 0.43048 0.54967 0.97341 0.0
C1687 C 0.41779 0.51235 0.97907 0.0
C1688 C 0.44013 0.4868 0.9946 0.0
C1689 C 0.47509 0.49888 1.00472 0.0
C1690 C 0.48778 0.53536 1.00029 0.0
C1691 C 0.52639 0.54102 0.01391 0.0
C1692 C 0.55627 0.55103 0.99132 0.0
C1693 C 0.52451 0.57129 0.03733 0.0
C1694 C 0.53345 0.50195 0.02645 0.0
C1695 C 0.50357 0.47806 0.02062 0.0
C1696 C 0.50367 0.44039 0.02939 0.0
C1697 C 0.53476 0.42688 0.04496 0.0
C1698 C 0.56537 0.45098 0.05199 0.0
C1699 C 0.56464 0.48903 0.04237 0.0
H1700 H 0.01477 0.92341 0.47462 0.0
H1701 H 0.11918 0.98578 0.46174 0.0
H1702 H 0.09285 0.03937 0.48868 0.0
H1703 H 0.95185 1.0025 0.46767 0.0
H1704 H 0.91971 0.98701 0.49511 0.0
H1705 H 0.94669 0.95278 0.47524 0.0
H1706 H 0.97395 0.92547 0.52216 0.0
H1707 H 0.94676 0.95937 0.54218 0.0
H1708 H 0.99728 0.95662 0.54689 0.0
H1709 H 0.05506 0.0871 0.51564 0.0
H1710 H 0.01013 0.12423 0.5442 0.0
H1711 H 0.92975 0.03152 0.54104 0.0
C1712 C 0.03227 0.94817 0.47774 0.0
C1713 C 0.06924 0.95014 0.46607 0.0
C1714 C 0.09096 0.98328 0.47052 0.0
C1715 C 0.07616 0.01406 0.48572 0.0
C1716 C 0.03955 0.01142 0.49652 0.0
C1717 C 0.01796 0.97924 0.49304 0.0
C1718 C 0.97946 0.98388 0.5071 0.0
C1719 C 0.94754 0.9814 0.48496 0.0
C1720 C 0.97406 0.9546 0.531 0.0
C1721 C 0.98286 0.02369 0.51902 0.0
C1722 C 0.01772 0.03903 0.51244 0.0
C1723 C 0.02774 0.07533 0.52102 0.0
C1724 C 1.00186 0.09627 0.53725 0.0
C1725 C 0.96623 0.08099 0.54502 0.0
C1726 C 0.95656 0.04426 0.53537 0.0
H1727 H 0.5323 0.06992 0.47483 0.0
H1728 H 0.61963 0.98522 0.46163 0.0
H1729 H 0.58312 0.93969 0.4902 0.0
H1730 H 0.50995 0.04246 0.54845 0.0
H1731 H 0.46002 0.05124 0.54433 0.0
H1732 H 0.49369 0.07794 0.52367 0.0
H1733 H 0.45995 0.05725 0.47734 0.0
H1734 H 0.42641 0.03019 0.49783 0.0
H1735 H 0.45362 0.00758 0.4702 0.0
H1736 H 0.53594 0.90185 0.51805 0.0
H1737 H 0.48353 0.87582 0.54658 0.0
H1738 H 0.42651 0.98461 0.54319 0.0
C1739 C 0.54407 0.042 0.47832 0.0
C1740 C 0.5791 0.03138 0.46589 0.0
C1741 C 0.59307 0.99431 0.47084 0.0
C1742 C 0.57242 0.96808 0.48703 0.0
C1743 C 0.53776 0.97916 0.49841 0.0
C1744 C 0.52382 0.01534 0.49462 0.0
C1745 C 0.48558 0.01969 0.50913 0.0
C1746 C 0.48743 0.04961 0.5328 0.0
C1747 C 0.45456 0.02924 0.48732 0.0
C1748 C 0.48017 0.98023 0.52143 0.0
C1749 C 0.5106 0.95732 0.51485 0.0
C1750 C 0.51204 0.91959 0.52345 0.0
C1751 C 0.48194 0.90498 0.53957 0.0
C1752 C 0.45066 0.92799 0.54716 0.0
C1753 C 0.44986 0.96615 0.53773 0.0
H1754 H 0.57301 0.47046 0.53799 0.0
H1755 H 0.48345 0.38825 0.55106 0.0
H1756 H 0.44002 0.42783 0.52283 0.0
H1757 H 0.51485 0.55333 0.54248 0.0
H1758 H 0.53942 0.57884 0.51484 0.0
H1759 H 0.56416 0.5439 0.53574 0.0
H1760 H 0.58356 0.50861 0.4897 0.0
H1761 H 0.5591 0.54358 0.46866 0.0
H1762 H 0.54755 0.49423 0.46481 0.0
H1763 H 0.40525 0.47703 0.49457 0.0
H1764 H 0.38284 0.53025 0.46511 0.0
H1765 H 0.49468 0.58068 0.46872 0.0
C1766 C 0.54437 0.46057 0.53469 0.0
C1767 C 0.53185 0.42598 0.54679 0.0
C1768 C 0.49399 0.41438 0.542 0.0
C1769 C 0.46895 0.4368 0.52605 0.0
C1770 C 0.48201 0.47083 0.51476 0.0
C1771 C 0.51892 0.48256 0.51857 0.0
C1772 C 0.52566 0.52031 0.50383 0.0
C1773 C 0.53667 0.5509 0.52552 0.0
C1774 C 0.55575 0.51644 0.48036 0.0
C1775 C 0.48675 0.52795 0.49125 0.0
C1776 C 0.462 0.4991 0.49802 0.0
C1777 C 0.42442 0.49973 0.48907 0.0
C1778 C 0.4119 0.53028 0.4724 0.0
C1779 C 0.43684 0.55991 0.46457 0.0
C1780 C 0.47478 0.55865 0.47437 0.0
H1781 H 0.93238 0.48292 0.47157 0.0
H1782 H 0.98196 0.37065 0.47619 0.0
H1783 H 0.03279 0.39538 0.50694 0.0
H1784 H 0.01945 0.53401 0.46819 0.0
H1785 H 0.00329 0.57277 0.48993 0.0
H1786 H 0.96995 0.54624 0.46898 0.0
H1787 H 0.93061 0.53188 0.51428 0.0
H1788 H 0.96367 0.55866 0.5353 0.0
H1789 H 0.95332 0.51029 0.5446 0.0
H1790 H 0.07927 0.43254 0.53647 0.0
H1791 H 0.11607 0.47854 0.56445 0.0
H1792 H 0.03679 0.56708 0.54079 0.0
C1793 C 0.95366 0.46339 0.4793 0.0
C1794 C 0.95288 0.42465 0.4715 0.0
C1795 C 0.98162 0.4003 0.48192 0.0
C1796 C 0.01077 0.41414 0.49935 0.0
C1797 C 0.01097 0.45248 0.50628 0.0
C1798 C 0.98302 0.47674 0.49676 0.0
C1799 C 0.99 0.51679 0.50723 0.0
C1800 C 0.99603 0.54406 0.48208 0.0
C1801 C 0.95746 0.53018 0.5265 0.0
C1802 C 0.02624 0.51126 0.52409 0.0
C1803 C 0.03788 0.47395 0.52319 0.0
C1804 C 0.07039 0.46181 0.5373 0.0
C1805 C 0.09123 0.48827 0.55311 0.0
C1806 C 0.07963 0.52662 0.5548 0.0
C1807 C 0.04677 0.53814 0.53978 0.0
loop_
_geom_bond_atom_site_label_1
_geom_bond_atom_site_label_2
_geom_bond_distance
_geom_bond_site_symmetry_2
_ccdc_geom_bond_type
Co0 O2 2.143 . S
Co0 O8 2.074 . S
Co0 O11 2.093 . S
Co0 O24 2.097 . S
Co0 N41 2.151 . S
Co0 N49 2.214 . S
Co1 O2 2.160 . S
Co1 O7 2.058 . S
Co1 O17 2.057 . S
Co1 O32 2.037 . S
Co1 N36 2.145 . S
Co1 N57 2.257 1_455 S
O2 Co0 2.143 . S
O2 Co1 2.160 . S
C3 O4 1.278 1_455 S
C3 O11 1.224 . S
O4 C3 1.278 1_655 S
C5 O6 1.245 . S
C5 O17 1.232 . S
O6 C5 1.245 . S
O7 Co1 2.058 . S
O7 C33 1.269 . S
O8 Co0 2.074 . S
O8 C33 1.257 . S
H9 C34 0.930 . S
H10 C40 0.930 . S
O11 Co0 2.093 . S
O11 C3 1.224 . S
H12 C44 0.929 . S
H13 C46 0.930 . S
H14 C47 0.930 . S
H15 C45 0.929 . S
H16 C48 0.928 . S
O17 Co1 2.057 . S
O17 C5 1.232 . S
H18 C37 0.929 . S
H19 C38 0.929 . S
H20 C50 0.931 . S
H21 C42 0.929 . S
H22 C51 0.930 . S
H23 C43 0.931 . S
O24 Co0 2.097 . S
O24 C52 1.214 . S
H25 C53 0.929 . S
H26 C54 0.929 . S
H27 C55 0.930 . S
H28 C56 0.929 . S
H29 C58 0.930 . S
H30 C35 0.930 . S
H31 C39 0.930 . S
O32 Co1 2.037 . S
O32 C52 1.234 . S
C33 O7 1.269 . S
C33 O8 1.257 . S
C34 H9 0.930 . S
C34 C37 1.388 . S
C34 C39 1.418 . S
C35 H30 0.930 . S
C35 C38 1.404 . S
C35 C39 1.353 . S
N36 Co1 2.145 . S
N36 C37 1.397 . S
N36 C38 1.334 . S
C37 H18 0.929 . S
C37 C34 1.388 . S
C37 N36 1.397 . S
C38 H19 0.929 . S
C38 C35 1.404 . S
C38 N36 1.334 . S
C39 H31 0.930 . S
C39 C34 1.418 . S
C39 C35 1.353 . S
C40 H10 0.930 . S
C40 N41 1.330 . S
C40 C42 1.446 . S
N41 Co0 2.151 . S
N41 C40 1.330 . S
N41 C45 1.418 . S
C42 H21 0.929 . S
C42 C40 1.446 . S
C42 C43 1.332 . S
C43 H23 0.931 . S
C43 C42 1.332 . S
C43 C44 1.267 . S
C44 H12 0.929 . S
C44 C43 1.267 . S
C44 C45 1.251 . S
C45 H15 0.929 . S
C45 N41 1.418 . S
C45 C44 1.251 . S
C46 H13 0.930 . S
C46 C48 1.406 . S
C46 C51 1.261 . S
C47 H14 0.930 . S
C47 N49 1.325 . S
C47 C50 1.357 . S
C48 H16 0.928 . S
C48 C46 1.406 . S
C48 N49 1.261 . S
N49 Co0 2.214 . S
N49 C47 1.325 . S
N49 C48 1.261 . S
C50 H20 0.931 . S
C50 C47 1.357 . S
C50 C51 1.312 . S
C51 H22 0.930 . S
C51 C46 1.261 . S
C51 C50 1.312 . S
C52 O24 1.214 . S
C52 O32 1.234 . S
C53 H25 0.929 . S
C53 C56 1.391 . S
C53 C58 1.391 . S
C54 H26 0.929 . S
C54 C55 1.390 . S
C54 N57 1.391 . S
C55 H27 0.930 . S
C55 C54 1.390 . S
C55 C56 1.392 . S
C56 H28 0.929 . S
C56 C53 1.391 . S
C56 C55 1.392 . S
N57 Co1 2.257 1_655 S
N57 C54 1.391 . S
N57 C58 1.388 . S
C58 H29 0.930 . S
C58 C53 1.391 . S
C58 N57 1.388 . S
Co59 O61 2.143 . S
Co59 O67 2.074 . S
Co59 O70 2.093 . S
Co59 O83 2.097 . S
Co59 N100 2.151 . S
Co59 N108 2.214 . S
Co60 O61 2.160 . S
Co60 O66 2.058 . S
Co60 O76 2.057 . S
Co60 O91 2.037 . S
Co60 N95 2.145 . S
Co60 N116 2.257 1_545 S
O61 Co59 2.143 . S
O61 Co60 2.160 . S
C62 O63 1.278 1_545 S
C62 O70 1.224 . S
O63 C62 1.278 1_565 S
C64 O65 1.245 . S
C64 O76 1.232 . S
O65 C64 1.245 . S
O66 Co60 2.058 . S
O66 C92 1.269 . S
O67 Co59 2.074 . S
O67 C92 1.257 . S
H68 C93 0.930 . S
H69 C99 0.930 . S
O70 Co59 2.093 . S
O70 C62 1.224 . S
H71 C103 0.929 . S
H72 C105 0.930 . S
H73 C106 0.930 . S
H74 C104 0.929 . S
H75 C107 0.928 . S
O76 Co60 2.057 . S
O76 C64 1.232 . S
H77 C96 0.929 . S
H78 C97 0.929 . S
H79 C109 0.931 . S
H80 C101 0.929 1_455 S
H81 C110 0.930 . S
H82 C102 0.931 1_455 S
O83 Co59 2.097 . S
O83 C111 1.214 . S
H84 C112 0.929 . S
H85 C113 0.929 . S
H86 C114 0.930 . S
H87 C115 0.929 . S
H88 C117 0.930 . S
H89 C94 0.930 . S
H90 C98 0.930 . S
O91 Co60 2.037 . S
O91 C111 1.234 . S
C92 O66 1.269 . S
C92 O67 1.257 . S
C93 H68 0.930 . S
C93 C96 1.388 . S
C93 C98 1.418 . S
C94 H89 0.930 . S
C94 C97 1.404 . S
C94 C98 1.353 . S
N95 Co60 2.145 . S
N95 C96 1.397 . S
N95 C97 1.334 . S
C96 H77 0.929 . S
C96 C93 1.388 . S
C96 N95 1.397 . S
C97 H78 0.929 . S
C97 C94 1.404 . S
C97 N95 1.334 . S
C98 H90 0.930 . S
C98 C93 1.418 . S
C98 C94 1.353 . S
C99 H69 0.930 . S
C99 N100 1.330 . S
C99 C101 1.446 . S
N100 Co59 2.151 . S
N100 C99 1.330 . S
N100 C104 1.418 . S
C101 H80 0.929 1_655 S
C101 C99 1.446 . S
C101 C102 1.332 . S
C102 H82 0.931 1_655 S
C102 C101 1.332 . S
C102 C103 1.267 . S
C103 H71 0.929 . S
C103 C102 1.267 . S
C103 C104 1.251 . S
C104 H74 0.929 . S
C104 N100 1.418 . S
C104 C103 1.251 . S
C105 H72 0.930 . S
C105 C107 1.406 . S
C105 C110 1.261 . S
C106 H73 0.930 . S
C106 N108 1.325 . S
C106 C109 1.357 . S
C107 H75 0.928 . S
C107 C105 1.406 . S
C107 N108 1.261 . S
N108 Co59 2.214 . S
N108 C106 1.325 . S
N108 C107 1.261 . S
C109 H79 0.931 . S
C109 C106 1.357 . S
C109 C110 1.312 . S
C110 H81 0.930 . S
C110 C105 1.261 . S
C110 C109 1.312 . S
C111 O83 1.214 . S
C111 O91 1.234 . S
C112 H84 0.929 . S
C112 C115 1.391 . S
C112 C117 1.391 . S
C113 H85 0.929 . S
C113 C114 1.390 . S
C113 N116 1.391 . S
C114 H86 0.930 . S
C114 C113 1.390 . S
C114 C115 1.392 . S
C115 H87 0.929 . S
C115 C112 1.391 . S
C115 C114 1.392 . S
N116 Co60 2.257 1_565 S
N116 C113 1.391 . S
N116 C117 1.388 . S
C117 H88 0.930 . S
C117 C112 1.391 . S
C117 N116 1.388 . S
Co118 O120 2.143 . S
Co118 O126 2.074 . S
Co118 O129 2.093 . S
Co118 O142 2.097 . S
Co118 N159 2.151 . S
Co118 N167 2.214 . S
Co119 O120 2.160 . S
Co119 O125 2.058 . S
Co119 O135 2.057 . S
Co119 O150 2.037 . S
Co119 N154 2.145 . S
Co119 N175 2.257 . S
O120 Co118 2.143 . S
O120 Co119 2.160 . S
C121 O122 1.278 . S
C121 O129 1.224 . S
O122 C121 1.278 . S
C123 O124 1.245 . S
C123 O135 1.232 . S
O124 C123 1.245 . S
O125 Co119 2.058 . S
O125 C151 1.269 . S
O126 Co118 2.074 . S
O126 C151 1.257 . S
H127 C152 0.930 . S
H128 C158 0.930 . S
O129 Co118 2.093 . S
O129 C121 1.224 . S
H130 C162 0.929 . S
H131 C164 0.930 . S
H132 C165 0.930 . S
H133 C163 0.929 . S
H134 C166 0.928 . S
O135 Co119 2.057 . S
O135 C123 1.232 . S
H136 C155 0.929 . S
H137 C156 0.929 . S
H138 C168 0.931 . S
H139 C160 0.929 1_545 S
H140 C169 0.930 . S
H141 C161 0.931 1_545 S
O142 Co118 2.097 . S
O142 C170 1.214 . S
H143 C171 0.929 . S
H144 C172 0.929 . S
H145 C173 0.930 . S
H146 C174 0.929 . S
H147 C176 0.930 . S
H148 C153 0.930 . S
H149 C157 0.930 . S
O150 Co119 2.037 . S
O150 C170 1.234 . S
C151 O125 1.269 . S
C151 O126 1.257 . S
C152 H127 0.930 . S
C152 C155 1.388 . S
C152 C157 1.418 . S
C153 H148 0.930 . S
C153 C156 1.404 . S
C153 C157 1.353 . S
N154 Co119 2.145 . S
N154 C155 1.397 . S
N154 C156 1.334 . S
C155 H136 0.929 . S
C155 C152 1.388 . S
C155 N154 1.397 . S
C156 H137 0.929 . S
C156 C153 1.404 . S
C156 N154 1.334 . S
C157 H149 0.930 . S
C157 C152 1.418 . S
C157 C153 1.353 . S
C158 H128 0.930 . S
C158 N159 1.330 . S
C158 C160 1.446 . S
N159 Co118 2.151 . S
N159 C158 1.330 . S
N159 C163 1.418 . S
C160 H139 0.929 1_565 S
C160 C158 1.446 . S
C160 C161 1.332 . S
C161 H141 0.931 1_565 S
C161 C160 1.332 . S
C161 C162 1.267 . S
C162 H130 0.929 . S
C162 C161 1.267 . S
C162 C163 1.251 . S
C163 H133 0.929 . S
C163 N159 1.418 . S
C163 C162 1.251 . S
C164 H131 0.930 . S
C164 C166 1.406 . S
C164 C169 1.261 . S
C165 H132 0.930 . S
C165 N167 1.325 . S
C165 C168 1.357 . S
C166 H134 0.928 . S
C166 C164 1.406 . S
C166 N167 1.261 . S
N167 Co118 2.214 . S
N167 C165 1.325 . S
N167 C166 1.261 . S
C168 H138 0.931 . S
C168 C165 1.357 . S
C168 C169 1.312 . S
C169 H140 0.930 . S
C169 C164 1.261 . S
C169 C168 1.312 . S
C170 O142 1.214 . S
C170 O150 1.234 . S
C171 H143 0.929 . S
C171 C174 1.391 . S
C171 C176 1.391 . S
C172 H144 0.929 . S
C172 C173 1.390 . S
C172 N175 1.391 . S
C173 H145 0.930 . S
C173 C172 1.390 . S
C173 C174 1.392 . S
C174 H146 0.929 . S
C174 C171 1.391 . S
C174 C173 1.392 . S
N175 Co119 2.257 . S
N175 C172 1.391 . S
N175 C176 1.388 . S
C176 H147 0.930 . S
C176 C171 1.391 . S
C176 N175 1.388 . S
Co177 O179 2.143 . S
Co177 O185 2.074 . S
Co177 O188 2.093 . S
Co177 O201 2.097 . S
Co177 N218 2.151 . S
Co177 N226 2.214 . S
Co178 O179 2.160 . S
Co178 O184 2.058 . S
Co178 O194 2.057 . S
Co178 O209 2.037 . S
Co178 N213 2.145 . S
Co178 N234 2.257 . S
O179 Co177 2.143 . S
O179 Co178 2.160 . S
C180 O181 1.278 . S
C180 O188 1.224 . S
O181 C180 1.278 . S
C182 O183 1.245 . S
C182 O194 1.232 . S
O183 C182 1.245 . S
O184 Co178 2.058 . S
O184 C210 1.269 . S
O185 Co177 2.074 . S
O185 C210 1.257 . S
H186 C211 0.930 . S
H187 C217 0.930 . S
O188 Co177 2.093 . S
O188 C180 1.224 . S
H189 C221 0.929 . S
H190 C223 0.930 . S
H191 C224 0.930 . S
H192 C222 0.929 . S
H193 C225 0.928 . S
O194 Co178 2.057 . S
O194 C182 1.232 . S
H195 C214 0.929 . S
H196 C215 0.929 . S
H197 C227 0.931 . S
H198 C219 0.929 . S
H199 C228 0.930 . S
H200 C220 0.931 . S
O201 Co177 2.097 . S
O201 C229 1.214 . S
H202 C230 0.929 . S
H203 C231 0.929 . S
H204 C232 0.930 . S
H205 C233 0.929 . S
H206 C235 0.930 . S
H207 C212 0.930 . S
H208 C216 0.930 . S
O209 Co178 2.037 . S
O209 C229 1.234 . S
C210 O184 1.269 . S
C210 O185 1.257 . S
C211 H186 0.930 . S
C211 C214 1.388 . S
C211 C216 1.418 . S
C212 H207 0.930 . S
C212 C215 1.404 . S
C212 C216 1.353 . S
N213 Co178 2.145 . S
N213 C214 1.397 . S
N213 C215 1.334 . S
C214 H195 0.929 . S
C214 C211 1.388 . S
C214 N213 1.397 . S
C215 H196 0.929 . S
C215 C212 1.404 . S
C215 N213 1.334 . S
C216 H208 0.930 . S
C216 C211 1.418 . S
C216 C212 1.353 . S
C217 H187 0.930 . S
C217 N218 1.330 . S
C217 C219 1.446 . S
N218 Co177 2.151 . S
N218 C217 1.330 . S
N218 C222 1.418 . S
C219 H198 0.929 . S
C219 C217 1.446 . S
C219 C220 1.332 . S
C220 H200 0.931 . S
C220 C219 1.332 . S
C220 C221 1.267 . S
C221 H189 0.929 . S
C221 C220 1.267 . S
C221 C222 1.251 . S
C222 H192 0.929 . S
C222 N218 1.418 . S
C222 C221 1.251 . S
C223 H190 0.930 . S
C223 C225 1.406 . S
C223 C228 1.261 . S
C224 H191 0.930 . S
C224 N226 1.325 . S
C224 C227 1.357 . S
C225 H193 0.928 . S
C225 C223 1.406 . S
C225 N226 1.261 . S
N226 Co177 2.214 . S
N226 C224 1.325 . S
N226 C225 1.261 . S
C227 H197 0.931 . S
C227 C224 1.357 . S
C227 C228 1.312 . S
C228 H199 0.930 . S
C228 C223 1.261 . S
C228 C227 1.312 . S
C229 O201 1.214 . S
C229 O209 1.234 . S
C230 H202 0.929 . S
C230 C233 1.391 . S
C230 C235 1.391 . S
C231 H203 0.929 . S
C231 C232 1.390 . S
C231 N234 1.391 . S
C232 H204 0.930 . S
C232 C231 1.390 . S
C232 C233 1.392 . S
C233 H205 0.929 . S
C233 C230 1.391 . S
C233 C232 1.392 . S
N234 Co178 2.257 . S
N234 C231 1.391 . S
N234 C235 1.388 . S
C235 H206 0.930 . S
C235 C230 1.391 . S
C235 N234 1.388 . S
Co236 O238 2.143 . S
Co236 O244 2.074 . S
Co236 O247 2.093 . S
Co236 O260 2.097 . S
Co236 N277 2.151 . S
Co236 N285 2.214 . S
Co237 O238 2.160 . S
Co237 O243 2.058 . S
Co237 O253 2.057 . S
Co237 O268 2.037 . S
Co237 N272 2.145 . S
Co237 N293 2.257 1_455 S
O238 Co236 2.143 . S
O238 Co237 2.160 . S
C239 O240 1.278 1_455 S
C239 O247 1.224 . S
O240 C239 1.278 1_655 S
C241 O242 1.245 . S
C241 O253 1.232 . S
O242 C241 1.245 . S
O243 Co237 2.058 . S
O243 C269 1.269 . S
O244 Co236 2.074 . S
O244 C269 1.257 . S
H245 C270 0.930 . S
H246 C276 0.930 . S
O247 Co236 2.093 . S
O247 C239 1.224 . S
H248 C280 0.929 . S
H249 C282 0.930 . S
H250 C283 0.930 . S
H251 C281 0.929 . S
H252 C284 0.928 . S
O253 Co237 2.057 . S
O253 C241 1.232 . S
H254 C273 0.929 . S
H255 C274 0.929 . S
H256 C286 0.931 . S
H257 C278 0.929 1_545 S
H258 C287 0.930 . S
H259 C279 0.931 1_545 S
O260 Co236 2.097 . S
O260 C288 1.214 . S
H261 C289 0.929 . S
H262 C290 0.929 . S
H263 C291 0.930 . S
H264 C292 0.929 . S
H265 C294 0.930 . S
H266 C271 0.930 . S
H267 C275 0.930 . S
O268 Co237 2.037 . S
O268 C288 1.234 . S
C269 O243 1.269 . S
C269 O244 1.257 . S
C270 H245 0.930 . S
C270 C273 1.388 . S
C270 C275 1.418 . S
C271 H266 0.930 . S
C271 C274 1.404 . S
C271 C275 1.353 . S
N272 Co237 2.145 . S
N272 C273 1.397 . S
N272 C274 1.334 . S
C273 H254 0.929 . S
C273 C270 1.388 . S
C273 N272 1.397 . S
C274 H255 0.929 . S
C274 C271 1.404 . S
C274 N272 1.334 . S
C275 H267 0.930 . S
C275 C270 1.418 . S
C275 C271 1.353 . S
C276 H246 0.930 . S
C276 N277 1.330 . S
C276 C278 1.446 . S
N277 Co236 2.151 . S
N277 C276 1.330 . S
N277 C281 1.418 . S
C278 H257 0.929 1_565 S
C278 C276 1.446 . S
C278 C279 1.332 . S
C279 H259 0.931 1_565 S
C279 C278 1.332 . S
C279 C280 1.267 . S
C280 H248 0.929 . S
C280 C279 1.267 . S
C280 C281 1.251 . S
C281 H251 0.929 . S
C281 N277 1.418 . S
C281 C280 1.251 . S
C282 H249 0.930 . S
C282 C284 1.406 . S
C282 C287 1.261 . S
C283 H250 0.930 . S
C283 N285 1.325 . S
C283 C286 1.357 . S
C284 H252 0.928 . S
C284 C282 1.406 . S
C284 N285 1.261 . S
N285 Co236 2.214 . S
N285 C283 1.325 . S
N285 C284 1.261 . S
C286 H256 0.931 . S
C286 C283 1.357 . S
C286 C287 1.312 . S
C287 H258 0.930 . S
C287 C282 1.261 . S
C287 C286 1.312 . S
C288 O260 1.214 . S
C288 O268 1.234 . S
C289 H261 0.929 . S
C289 C292 1.391 . S
C289 C294 1.391 . S
C290 H262 0.929 . S
C290 C291 1.390 . S
C290 N293 1.391 . S
C291 H263 0.930 . S
C291 C290 1.390 . S
C291 C292 1.392 . S
C292 H264 0.929 . S
C292 C289 1.391 . S
C292 C291 1.392 . S
N293 Co237 2.257 1_655 S
N293 C290 1.391 . S
N293 C294 1.388 . S
C294 H265 0.930 . S
C294 C289 1.391 . S
C294 N293 1.388 . S
Co295 O297 2.143 . S
Co295 O303 2.074 . S
Co295 O306 2.093 . S
Co295 O319 2.097 . S
Co295 N336 2.151 . S
Co295 N344 2.214 . S
Co296 O297 2.160 . S
Co296 O302 2.058 . S
Co296 O312 2.057 . S
Co296 O327 2.037 . S
Co296 N331 2.145 . S
Co296 N352 2.257 1_545 S
O297 Co295 2.143 . S
O297 Co296 2.160 . S
C298 O299 1.278 1_545 S
C298 O306 1.224 . S
O299 C298 1.278 1_565 S
C300 O301 1.245 . S
C300 O312 1.232 . S
O301 C300 1.245 . S
O302 Co296 2.058 . S
O302 C328 1.269 . S
O303 Co295 2.074 . S
O303 C328 1.257 . S
H304 C329 0.930 . S
H305 C335 0.930 . S
O306 Co295 2.093 . S
O306 C298 1.224 . S
H307 C339 0.929 . S
H308 C341 0.930 . S
H309 C342 0.930 . S
H310 C340 0.929 . S
H311 C343 0.928 . S
O312 Co296 2.057 . S
O312 C300 1.232 . S
H313 C332 0.929 . S
H314 C333 0.929 . S
H315 C345 0.931 . S
H316 C337 0.929 . S
H317 C346 0.930 . S
H318 C338 0.931 . S
O319 Co295 2.097 . S
O319 C347 1.214 . S
H320 C348 0.929 . S
H321 C349 0.929 . S
H322 C350 0.930 . S
H323 C351 0.929 . S
H324 C353 0.930 . S
H325 C330 0.930 . S
H326 C334 0.930 . S
O327 Co296 2.037 . S
O327 C347 1.234 . S
C328 O302 1.269 . S
C328 O303 1.257 . S
C329 H304 0.930 . S
C329 C332 1.388 . S
C329 C334 1.418 . S
C330 H325 0.930 . S
C330 C333 1.404 . S
C330 C334 1.353 . S
N331 Co296 2.145 . S
N331 C332 1.397 . S
N331 C333 1.334 . S
C332 H313 0.929 . S
C332 C329 1.388 . S
C332 N331 1.397 . S
C333 H314 0.929 . S
C333 C330 1.404 . S
C333 N331 1.334 . S
C334 H326 0.930 . S
C334 C329 1.418 . S
C334 C330 1.353 . S
C335 H305 0.930 . S
C335 N336 1.330 . S
C335 C337 1.446 . S
N336 Co295 2.151 . S
N336 C335 1.330 . S
N336 C340 1.418 . S
C337 H316 0.929 . S
C337 C335 1.446 . S
C337 C338 1.332 . S
C338 H318 0.931 . S
C338 C337 1.332 . S
C338 C339 1.267 . S
C339 H307 0.929 . S
C339 C338 1.267 . S
C339 C340 1.251 . S
C340 H310 0.929 . S
C340 N336 1.418 . S
C340 C339 1.251 . S
C341 H308 0.930 . S
C341 C343 1.406 . S
C341 C346 1.261 . S
C342 H309 0.930 . S
C342 N344 1.325 . S
C342 C345 1.357 . S
C343 H311 0.928 . S
C343 C341 1.406 . S
C343 N344 1.261 . S
N344 Co295 2.214 . S
N344 C342 1.325 . S
N344 C343 1.261 . S
C345 H315 0.931 . S
C345 C342 1.357 . S
C345 C346 1.312 . S
C346 H317 0.930 . S
C346 C341 1.261 . S
C346 C345 1.312 . S
C347 O319 1.214 . S
C347 O327 1.234 . S
C348 H320 0.929 . S
C348 C351 1.391 . S
C348 C353 1.391 . S
C349 H321 0.929 . S
C349 C350 1.390 . S
C349 N352 1.391 . S
C350 H322 0.930 . S
C350 C349 1.390 . S
C350 C351 1.392 . S
C351 H323 0.929 . S
C351 C348 1.391 . S
C351 C350 1.392 . S
N352 Co296 2.257 1_565 S
N352 C349 1.391 . S
N352 C353 1.388 . S
C353 H324 0.930 . S
C353 C348 1.391 . S
C353 N352 1.388 . S
Co354 O356 2.143 . S
Co354 O362 2.074 . S
Co354 O365 2.093 . S
Co354 O378 2.097 . S
Co354 N395 2.151 . S
Co354 N403 2.214 . S
Co355 O356 2.160 . S
Co355 O361 2.058 . S
Co355 O371 2.057 . S
Co355 O386 2.037 . S
Co355 N390 2.145 . S
Co355 N411 2.257 . S
O356 Co354 2.143 . S
O356 Co355 2.160 . S
C357 O358 1.278 . S
C357 O365 1.224 . S
O358 C357 1.278 . S
C359 O360 1.245 . S
C359 O371 1.232 . S
O360 C359 1.245 . S
O361 Co355 2.058 . S
O361 C387 1.269 . S
O362 Co354 2.074 . S
O362 C387 1.257 . S
H363 C388 0.930 . S
H364 C394 0.930 . S
O365 Co354 2.093 . S
O365 C357 1.224 . S
H366 C398 0.929 . S
H367 C400 0.930 . S
H368 C401 0.930 . S
H369 C399 0.929 . S
H370 C402 0.928 . S
O371 Co355 2.057 . S
O371 C359 1.232 . S
H372 C391 0.929 . S
H373 C392 0.929 . S
H374 C404 0.931 . S
H375 C396 0.929 . S
H376 C405 0.930 . S
H377 C397 0.931 . S
O378 Co354 2.097 . S
O378 C406 1.214 . S
H379 C407 0.929 . S
H380 C408 0.929 . S
H381 C409 0.930 . S
H382 C410 0.929 . S
H383 C412 0.930 . S
H384 C389 0.930 . S
H385 C393 0.930 . S
O386 Co355 2.037 . S
O386 C406 1.234 . S
C387 O361 1.269 . S
C387 O362 1.257 . S
C388 H363 0.930 . S
C388 C391 1.388 . S
C388 C393 1.418 . S
C389 H384 0.930 . S
C389 C392 1.404 . S
C389 C393 1.353 . S
N390 Co355 2.145 . S
N390 C391 1.397 . S
N390 C392 1.334 . S
C391 H372 0.929 . S
C391 C388 1.388 . S
C391 N390 1.397 . S
C392 H373 0.929 . S
C392 C389 1.404 . S
C392 N390 1.334 . S
C393 H385 0.930 . S
C393 C388 1.418 . S
C393 C389 1.353 . S
C394 H364 0.930 . S
C394 N395 1.330 . S
C394 C396 1.446 . S
N395 Co354 2.151 . S
N395 C394 1.330 . S
N395 C399 1.418 . S
C396 H375 0.929 . S
C396 C394 1.446 . S
C396 C397 1.332 . S
C397 H377 0.931 . S
C397 C396 1.332 . S
C397 C398 1.267 . S
C398 H366 0.929 . S
C398 C397 1.267 . S
C398 C399 1.251 . S
C399 H369 0.929 . S
C399 N395 1.418 . S
C399 C398 1.251 . S
C400 H367 0.930 . S
C400 C402 1.406 . S
C400 C405 1.261 . S
C401 H368 0.930 . S
C401 N403 1.325 . S
C401 C404 1.357 . S
C402 H370 0.928 . S
C402 C400 1.406 . S
C402 N403 1.261 . S
N403 Co354 2.214 . S
N403 C401 1.325 . S
N403 C402 1.261 . S
C404 H374 0.931 . S
C404 C401 1.357 . S
C404 C405 1.312 . S
C405 H376 0.930 . S
C405 C400 1.261 . S
C405 C404 1.312 . S
C406 O378 1.214 . S
C406 O386 1.234 . S
C407 H379 0.929 . S
C407 C410 1.391 . S
C407 C412 1.391 . S
C408 H380 0.929 . S
C408 C409 1.390 . S
C408 N411 1.391 . S
C409 H381 0.930 . S
C409 C408 1.390 . S
C409 C410 1.392 . S
C410 H382 0.929 . S
C410 C407 1.391 . S
C410 C409 1.392 . S
N411 Co355 2.257 . S
N411 C408 1.391 . S
N411 C412 1.388 . S
C412 H383 0.930 . S
C412 C407 1.391 . S
C412 N411 1.388 . S
Co413 O415 2.143 . S
Co413 O421 2.074 . S
Co413 O424 2.093 . S
Co413 O437 2.097 . S
Co413 N454 2.151 . S
Co413 N462 2.214 . S
Co414 O415 2.160 . S
Co414 O420 2.058 . S
Co414 O430 2.057 . S
Co414 O445 2.037 . S
Co414 N449 2.145 . S
Co414 N470 2.257 . S
O415 Co413 2.143 . S
O415 Co414 2.160 . S
C416 O417 1.278 . S
C416 O424 1.224 . S
O417 C416 1.278 . S
C418 O419 1.245 . S
C418 O430 1.232 . S
O419 C418 1.245 . S
O420 Co414 2.058 . S
O420 C446 1.269 . S
O421 Co413 2.074 . S
O421 C446 1.257 . S
H422 C447 0.930 . S
H423 C453 0.930 . S
O424 Co413 2.093 . S
O424 C416 1.224 . S
H425 C457 0.929 . S
H426 C459 0.930 . S
H427 C460 0.930 . S
H428 C458 0.929 . S
H429 C461 0.928 . S
O430 Co414 2.057 . S
O430 C418 1.232 . S
H431 C450 0.929 . S
H432 C451 0.929 . S
H433 C463 0.931 . S
H434 C455 0.929 1_455 S
H435 C464 0.930 . S
H436 C456 0.931 1_455 S
O437 Co413 2.097 . S
O437 C465 1.214 . S
H438 C466 0.929 . S
H439 C467 0.929 . S
H440 C468 0.930 . S
H441 C469 0.929 . S
H442 C471 0.930 . S
H443 C448 0.930 . S
H444 C452 0.930 . S
O445 Co414 2.037 . S
O445 C465 1.234 . S
C446 O420 1.269 . S
C446 O421 1.257 . S
C447 H422 0.930 . S
C447 C450 1.388 . S
C447 C452 1.418 . S
C448 H443 0.930 . S
C448 C451 1.404 . S
C448 C452 1.353 . S
N449 Co414 2.145 . S
N449 C450 1.397 . S
N449 C451 1.334 . S
C450 H431 0.929 . S
C450 C447 1.388 . S
C450 N449 1.397 . S
C451 H432 0.929 . S
C451 C448 1.404 . S
C451 N449 1.334 . S
C452 H444 0.930 . S
C452 C447 1.418 . S
C452 C448 1.353 . S
C453 H423 0.930 . S
C453 N454 1.330 . S
C453 C455 1.446 . S
N454 Co413 2.151 . S
N454 C453 1.330 . S
N454 C458 1.418 . S
C455 H434 0.929 1_655 S
C455 C453 1.446 . S
C455 C456 1.332 . S
C456 H436 0.931 1_655 S
C456 C455 1.332 . S
C456 C457 1.267 . S
C457 H425 0.929 . S
C457 C456 1.267 . S
C457 C458 1.251 . S
C458 H428 0.929 . S
C458 N454 1.418 . S
C458 C457 1.251 . S
C459 H426 0.930 . S
C459 C461 1.406 . S
C459 C464 1.261 . S
C460 H427 0.930 . S
C460 N462 1.325 . S
C460 C463 1.357 . S
C461 H429 0.928 . S
C461 C459 1.406 . S
C461 N462 1.261 . S
N462 Co413 2.214 . S
N462 C460 1.325 . S
N462 C461 1.261 . S
C463 H433 0.931 . S
C463 C460 1.357 . S
C463 C464 1.312 . S
C464 H435 0.930 . S
C464 C459 1.261 . S
C464 C463 1.312 . S
C465 O437 1.214 . S
C465 O445 1.234 . S
C466 H438 0.929 . S
C466 C469 1.391 . S
C466 C471 1.391 . S
C467 H439 0.929 . S
C467 C468 1.390 . S
C467 N470 1.391 . S
C468 H440 0.930 . S
C468 C467 1.390 . S
C468 C469 1.392 . S
C469 H441 0.929 . S
C469 C466 1.391 . S
C469 C468 1.392 . S
N470 Co414 2.257 . S
N470 C467 1.391 . S
N470 C471 1.388 . S
C471 H442 0.930 . S
C471 C466 1.391 . S
C471 N470 1.388 . S
Co472 O474 2.143 . S
Co472 O480 2.074 . S
Co472 O483 2.093 . S
Co472 O496 2.097 . S
Co472 N513 2.151 . S
Co472 N521 2.214 . S
Co473 O474 2.160 . S
Co473 O479 2.058 . S
Co473 O489 2.057 . S
Co473 O504 2.037 . S
Co473 N508 2.145 . S
Co473 N529 2.257 1_655 S
O474 Co472 2.143 . S
O474 Co473 2.160 . S
C475 O476 1.278 1_655 S
C475 O483 1.224 . S
O476 C475 1.278 1_455 S
C477 O478 1.245 . S
C477 O489 1.232 . S
O478 C477 1.245 . S
O479 Co473 2.058 . S
O479 C505 1.269 . S
O480 Co472 2.074 . S
O480 C505 1.257 . S
H481 C506 0.930 . S
H482 C512 0.930 . S
O483 Co472 2.093 . S
O483 C475 1.224 . S
H484 C516 0.929 . S
H485 C518 0.930 . S
H486 C519 0.930 . S
H487 C517 0.929 . S
H488 C520 0.928 . S
O489 Co473 2.057 . S
O489 C477 1.232 . S
H490 C509 0.929 . S
H491 C510 0.929 . S
H492 C522 0.931 . S
H493 C514 0.929 . S
H494 C523 0.930 . S
H495 C515 0.931 . S
O496 Co472 2.097 . S
O496 C524 1.214 . S
H497 C525 0.929 . S
H498 C526 0.929 . S
H499 C527 0.930 . S
H500 C528 0.929 . S
H501 C530 0.930 . S
H502 C507 0.930 . S
H503 C511 0.930 . S
O504 Co473 2.037 . S
O504 C524 1.234 . S
C505 O479 1.269 . S
C505 O480 1.257 . S
C506 H481 0.930 . S
C506 C509 1.388 . S
C506 C511 1.418 . S
C507 H502 0.930 . S
C507 C510 1.404 . S
C507 C511 1.353 . S
N508 Co473 2.145 . S
N508 C509 1.397 . S
N508 C510 1.334 . S
C509 H490 0.929 . S
C509 C506 1.388 . S
C509 N508 1.397 . S
C510 H491 0.929 . S
C510 C507 1.404 . S
C510 N508 1.334 . S
C511 H503 0.930 . S
C511 C506 1.418 . S
C511 C507 1.353 . S
C512 H482 0.930 . S
C512 N513 1.330 . S
C512 C514 1.446 . S
N513 Co472 2.151 . S
N513 C512 1.330 . S
N513 C517 1.418 . S
C514 H493 0.929 . S
C514 C512 1.446 . S
C514 C515 1.332 . S
C515 H495 0.931 . S
C515 C514 1.332 . S
C515 C516 1.267 . S
C516 H484 0.929 . S
C516 C515 1.267 . S
C516 C517 1.251 . S
C517 H487 0.929 . S
C517 N513 1.418 . S
C517 C516 1.251 . S
C518 H485 0.930 . S
C518 C520 1.406 . S
C518 C523 1.261 . S
C519 H486 0.930 . S
C519 N521 1.325 . S
C519 C522 1.357 . S
C520 H488 0.928 . S
C520 C518 1.406 . S
C520 N521 1.261 . S
N521 Co472 2.214 . S
N521 C519 1.325 . S
N521 C520 1.261 . S
C522 H492 0.931 . S
C522 C519 1.357 . S
C522 C523 1.312 . S
C523 H494 0.930 . S
C523 C518 1.261 . S
C523 C522 1.312 . S
C524 O496 1.214 . S
C524 O504 1.234 . S
C525 H497 0.929 . S
C525 C528 1.391 . S
C525 C530 1.391 . S
C526 H498 0.929 . S
C526 C527 1.390 . S
C526 N529 1.391 . S
C527 H499 0.930 . S
C527 C526 1.390 . S
C527 C528 1.392 . S
C528 H500 0.929 . S
C528 C525 1.391 . S
C528 C527 1.392 . S
N529 Co473 2.257 1_455 S
N529 C526 1.391 . S
N529 C530 1.388 . S
C530 H501 0.930 . S
C530 C525 1.391 . S
C530 N529 1.388 . S
Co531 O533 2.143 . S
Co531 O539 2.074 . S
Co531 O542 2.093 . S
Co531 O555 2.097 . S
Co531 N572 2.151 . S
Co531 N580 2.214 . S
Co532 O533 2.160 . S
Co532 O538 2.058 . S
Co532 O548 2.057 . S
Co532 O563 2.037 . S
Co532 N567 2.145 . S
Co532 N588 2.257 1_565 S
O533 Co531 2.143 . S
O533 Co532 2.160 . S
C534 O535 1.278 1_565 S
C534 O542 1.224 . S
O535 C534 1.278 1_545 S
C536 O537 1.245 . S
C536 O548 1.232 . S
O537 C536 1.245 . S
O538 Co532 2.058 . S
O538 C564 1.269 . S
O539 Co531 2.074 . S
O539 C564 1.257 . S
H540 C565 0.930 . S
H541 C571 0.930 . S
O542 Co531 2.093 . S
O542 C534 1.224 . S
H543 C575 0.929 . S
H544 C577 0.930 . S
H545 C578 0.930 . S
H546 C576 0.929 . S
H547 C579 0.928 . S
O548 Co532 2.057 . S
O548 C536 1.232 . S
H549 C568 0.929 . S
H550 C569 0.929 . S
H551 C581 0.931 . S
H552 C573 0.929 1_655 S
H553 C582 0.930 . S
H554 C574 0.931 1_655 S
O555 Co531 2.097 . S
O555 C583 1.214 . S
H556 C584 0.929 . S
H557 C585 0.929 . S
H558 C586 0.930 . S
H559 C587 0.929 . S
H560 C589 0.930 . S
H561 C566 0.930 . S
H562 C570 0.930 . S
O563 Co532 2.037 . S
O563 C583 1.234 . S
C564 O538 1.269 . S
C564 O539 1.257 . S
C565 H540 0.930 . S
C565 C568 1.388 . S
C565 C570 1.418 . S
C566 H561 0.930 . S
C566 C569 1.404 . S
C566 C570 1.353 . S
N567 Co532 2.145 . S
N567 C568 1.397 . S
N567 C569 1.334 . S
C568 H549 0.929 . S
C568 C565 1.388 . S
C568 N567 1.397 . S
C569 H550 0.929 . S
C569 C566 1.404 . S
C569 N567 1.334 . S
C570 H562 0.930 . S
C570 C565 1.418 . S
C570 C566 1.353 . S
C571 H541 0.930 . S
C571 N572 1.330 . S
C571 C573 1.446 . S
N572 Co531 2.151 . S
N572 C571 1.330 . S
N572 C576 1.418 . S
C573 H552 0.929 1_455 S
C573 C571 1.446 . S
C573 C574 1.332 . S
C574 H554 0.931 1_455 S
C574 C573 1.332 . S
C574 C575 1.267 . S
C575 H543 0.929 . S
C575 C574 1.267 . S
C575 C576 1.251 . S
C576 H546 0.929 . S
C576 N572 1.418 . S
C576 C575 1.251 . S
C577 H544 0.930 . S
C577 C579 1.406 . S
C577 C582 1.261 . S
C578 H545 0.930 . S
C578 N580 1.325 . S
C578 C581 1.357 . S
C579 H547 0.928 . S
C579 C577 1.406 . S
C579 N580 1.261 . S
N580 Co531 2.214 . S
N580 C578 1.325 . S
N580 C579 1.261 . S
C581 H551 0.931 . S
C581 C578 1.357 . S
C581 C582 1.312 . S
C582 H553 0.930 . S
C582 C577 1.261 . S
C582 C581 1.312 . S
C583 O555 1.214 . S
C583 O563 1.234 . S
C584 H556 0.929 . S
C584 C587 1.391 . S
C584 C589 1.391 . S
C585 H557 0.929 . S
C585 C586 1.390 . S
C585 N588 1.391 . S
C586 H558 0.930 . S
C586 C585 1.390 . S
C586 C587 1.392 . S
C587 H559 0.929 . S
C587 C584 1.391 . S
C587 C586 1.392 . S
N588 Co532 2.257 1_545 S
N588 C585 1.391 . S
N588 C589 1.388 . S
C589 H560 0.930 . S
C589 C584 1.391 . S
C589 N588 1.388 . S
Co590 O592 2.143 . S
Co590 O598 2.074 . S
Co590 O601 2.093 . S
Co590 O614 2.097 . S
Co590 N631 2.151 . S
Co590 N639 2.214 . S
Co591 O592 2.160 . S
Co591 O597 2.058 . S
Co591 O607 2.057 . S
Co591 O622 2.037 . S
Co591 N626 2.145 . S
Co591 N647 2.257 . S
O592 Co590 2.143 . S
O592 Co591 2.160 . S
C593 O594 1.278 . S
C593 O601 1.224 . S
O594 C593 1.278 . S
C595 O596 1.245 . S
C595 O607 1.232 . S
O596 C595 1.245 . S
O597 Co591 2.058 . S
O597 C623 1.269 . S
O598 Co590 2.074 . S
O598 C623 1.257 . S
H599 C624 0.930 . S
H600 C630 0.930 . S
O601 Co590 2.093 . S
O601 C593 1.224 . S
H602 C634 0.929 . S
H603 C636 0.930 . S
H604 C637 0.930 . S
H605 C635 0.929 . S
H606 C638 0.928 . S
O607 Co591 2.057 . S
O607 C595 1.232 . S
H608 C627 0.929 . S
H609 C628 0.929 . S
H610 C640 0.931 . S
H611 C632 0.929 1_565 S
H612 C641 0.930 . S
H613 C633 0.931 1_565 S
O614 Co590 2.097 . S
O614 C642 1.214 . S
H615 C643 0.929 . S
H616 C644 0.929 . S
H617 C645 0.930 . S
H618 C646 0.929 . S
H619 C648 0.930 . S
H620 C625 0.930 . S
H621 C629 0.930 . S
O622 Co591 2.037 . S
O622 C642 1.234 . S
C623 O597 1.269 . S
C623 O598 1.257 . S
C624 H599 0.930 . S
C624 C627 1.388 . S
C624 C629 1.418 . S
C625 H620 0.930 . S
C625 C628 1.404 . S
C625 C629 1.353 . S
N626 Co591 2.145 . S
N626 C627 1.397 . S
N626 C628 1.334 . S
C627 H608 0.929 . S
C627 C624 1.388 . S
C627 N626 1.397 . S
C628 H609 0.929 . S
C628 C625 1.404 . S
C628 N626 1.334 . S
C629 H621 0.930 . S
C629 C624 1.418 . S
C629 C625 1.353 . S
C630 H600 0.930 . S
C630 N631 1.330 . S
C630 C632 1.446 . S
N631 Co590 2.151 . S
N631 C630 1.330 . S
N631 C635 1.418 . S
C632 H611 0.929 1_545 S
C632 C630 1.446 . S
C632 C633 1.332 . S
C633 H613 0.931 1_545 S
C633 C632 1.332 . S
C633 C634 1.267 . S
C634 H602 0.929 . S
C634 C633 1.267 . S
C634 C635 1.251 . S
C635 H605 0.929 . S
C635 N631 1.418 . S
C635 C634 1.251 . S
C636 H603 0.930 . S
C636 C638 1.406 . S
C636 C641 1.261 . S
C637 H604 0.930 . S
C637 N639 1.325 . S
C637 C640 1.357 . S
C638 H606 0.928 . S
C638 C636 1.406 . S
C638 N639 1.261 . S
N639 Co590 2.214 . S
N639 C637 1.325 . S
N639 C638 1.261 . S
C640 H610 0.931 . S
C640 C637 1.357 . S
C640 C641 1.312 . S
C641 H612 0.930 . S
C641 C636 1.261 . S
C641 C640 1.312 . S
C642 O614 1.214 . S
C642 O622 1.234 . S
C643 H615 0.929 . S
C643 C646 1.391 . S
C643 C648 1.391 . S
C644 H616 0.929 . S
C644 C645 1.390 . S
C644 N647 1.391 . S
C645 H617 0.930 . S
C645 C644 1.390 . S
C645 C646 1.392 . S
C646 H618 0.929 . S
C646 C643 1.391 . S
C646 C645 1.392 . S
N647 Co591 2.257 . S
N647 C644 1.391 . S
N647 C648 1.388 . S
C648 H619 0.930 . S
C648 C643 1.391 . S
C648 N647 1.388 . S
Co649 O651 2.143 . S
Co649 O657 2.074 . S
Co649 O660 2.093 . S
Co649 O673 2.097 . S
Co649 N690 2.151 . S
Co649 N698 2.214 . S
Co650 O651 2.160 . S
Co650 O656 2.058 . S
Co650 O666 2.057 . S
Co650 O681 2.037 . S
Co650 N685 2.145 . S
Co650 N706 2.257 . S
O651 Co649 2.143 . S
O651 Co650 2.160 . S
C652 O653 1.278 . S
C652 O660 1.224 . S
O653 C652 1.278 . S
C654 O655 1.245 . S
C654 O666 1.232 . S
O655 C654 1.245 . S
O656 Co650 2.058 . S
O656 C682 1.269 . S
O657 Co649 2.074 . S
O657 C682 1.257 . S
H658 C683 0.930 . S
H659 C689 0.930 . S
O660 Co649 2.093 . S
O660 C652 1.224 . S
H661 C693 0.929 . S
H662 C695 0.930 . S
H663 C696 0.930 . S
H664 C694 0.929 . S
H665 C697 0.928 . S
O666 Co650 2.057 . S
O666 C654 1.232 . S
H667 C686 0.929 . S
H668 C687 0.929 . S
H669 C699 0.931 . S
H670 C691 0.929 . S
H671 C700 0.930 . S
H672 C692 0.931 . S
O673 Co649 2.097 . S
O673 C701 1.214 . S
H674 C702 0.929 . S
H675 C703 0.929 . S
H676 C704 0.930 . S
H677 C705 0.929 . S
H678 C707 0.930 . S
H679 C684 0.930 . S
H680 C688 0.930 . S
O681 Co650 2.037 . S
O681 C701 1.234 . S
C682 O656 1.269 . S
C682 O657 1.257 . S
C683 H658 0.930 . S
C683 C686 1.388 . S
C683 C688 1.418 . S
C684 H679 0.930 . S
C684 C687 1.404 . S
C684 C688 1.353 . S
N685 Co650 2.145 . S
N685 C686 1.397 . S
N685 C687 1.334 . S
C686 H667 0.929 . S
C686 C683 1.388 . S
C686 N685 1.397 . S
C687 H668 0.929 . S
C687 C684 1.404 . S
C687 N685 1.334 . S
C688 H680 0.930 . S
C688 C683 1.418 . S
C688 C684 1.353 . S
C689 H659 0.930 . S
C689 N690 1.330 . S
C689 C691 1.446 . S
N690 Co649 2.151 . S
N690 C689 1.330 . S
N690 C694 1.418 . S
C691 H670 0.929 . S
C691 C689 1.446 . S
C691 C692 1.332 . S
C692 H672 0.931 . S
C692 C691 1.332 . S
C692 C693 1.267 . S
C693 H661 0.929 . S
C693 C692 1.267 . S
C693 C694 1.251 . S
C694 H664 0.929 . S
C694 N690 1.418 . S
C694 C693 1.251 . S
C695 H662 0.930 . S
C695 C697 1.406 . S
C695 C700 1.261 . S
C696 H663 0.930 . S
C696 N698 1.325 . S
C696 C699 1.357 . S
C697 H665 0.928 . S
C697 C695 1.406 . S
C697 N698 1.261 . S
N698 Co649 2.214 . S
N698 C696 1.325 . S
N698 C697 1.261 . S
C699 H669 0.931 . S
C699 C696 1.357 . S
C699 C700 1.312 . S
C700 H671 0.930 . S
C700 C695 1.261 . S
C700 C699 1.312 . S
C701 O673 1.214 . S
C701 O681 1.234 . S
C702 H674 0.929 . S
C702 C705 1.391 . S
C702 C707 1.391 . S
C703 H675 0.929 . S
C703 C704 1.390 . S
C703 N706 1.391 . S
C704 H676 0.930 . S
C704 C703 1.390 . S
C704 C705 1.392 . S
C705 H677 0.929 . S
C705 C702 1.391 . S
C705 C704 1.392 . S
N706 Co650 2.257 . S
N706 C703 1.391 . S
N706 C707 1.388 . S
C707 H678 0.930 . S
C707 C702 1.391 . S
C707 N706 1.388 . S
Co708 O710 2.143 . S
Co708 O716 2.074 . S
Co708 O719 2.093 . S
Co708 O732 2.097 . S
Co708 N749 2.151 . S
Co708 N757 2.214 . S
Co709 O710 2.160 . S
Co709 O715 2.058 . S
Co709 O725 2.057 . S
Co709 O740 2.037 . S
Co709 N744 2.145 . S
Co709 N765 2.257 1_655 S
O710 Co708 2.143 . S
O710 Co709 2.160 . S
C711 O712 1.278 1_655 S
C711 O719 1.224 . S
O712 C711 1.278 1_455 S
C713 O714 1.245 . S
C713 O725 1.232 . S
O714 C713 1.245 . S
O715 Co709 2.058 . S
O715 C741 1.269 . S
O716 Co708 2.074 . S
O716 C741 1.257 . S
H717 C742 0.930 . S
H718 C748 0.930 . S
O719 Co708 2.093 . S
O719 C711 1.224 . S
H720 C752 0.929 . S
H721 C754 0.930 . S
H722 C755 0.930 . S
H723 C753 0.929 . S
H724 C756 0.928 . S
O725 Co709 2.057 . S
O725 C713 1.232 . S
H726 C745 0.929 . S
H727 C746 0.929 . S
H728 C758 0.931 . S
H729 C750 0.929 1_565 S
H730 C759 0.930 . S
H731 C751 0.931 1_565 S
O732 Co708 2.097 . S
O732 C760 1.214 . S
H733 C761 0.929 . S
H734 C762 0.929 . S
H735 C763 0.930 . S
H736 C764 0.929 . S
H737 C766 0.930 . S
H738 C743 0.930 . S
H739 C747 0.930 . S
O740 Co709 2.037 . S
O740 C760 1.234 . S
C741 O715 1.269 . S
C741 O716 1.257 . S
C742 H717 0.930 . S
C742 C745 1.388 . S
C742 C747 1.418 . S
C743 H738 0.930 . S
C743 C746 1.404 . S
C743 C747 1.353 . S
N744 Co709 2.145 . S
N744 C745 1.397 . S
N744 C746 1.334 . S
C745 H726 0.929 . S
C745 C742 1.388 . S
C745 N744 1.397 . S
C746 H727 0.929 . S
C746 C743 1.404 . S
C746 N744 1.334 . S
C747 H739 0.930 . S
C747 C742 1.418 . S
C747 C743 1.353 . S
C748 H718 0.930 . S
C748 N749 1.330 . S
C748 C750 1.446 . S
N749 Co708 2.151 . S
N749 C748 1.330 . S
N749 C753 1.418 . S
C750 H729 0.929 1_545 S
C750 C748 1.446 . S
C750 C751 1.332 . S
C751 H731 0.931 1_545 S
C751 C750 1.332 . S
C751 C752 1.267 . S
C752 H720 0.929 . S
C752 C751 1.267 . S
C752 C753 1.251 . S
C753 H723 0.929 . S
C753 N749 1.418 . S
C753 C752 1.251 . S
C754 H721 0.930 . S
C754 C756 1.406 . S
C754 C759 1.261 . S
C755 H722 0.930 . S
C755 N757 1.325 . S
C755 C758 1.357 . S
C756 H724 0.928 . S
C756 C754 1.406 . S
C756 N757 1.261 . S
N757 Co708 2.214 . S
N757 C755 1.325 . S
N757 C756 1.261 . S
C758 H728 0.931 . S
C758 C755 1.357 . S
C758 C759 1.312 . S
C759 H730 0.930 . S
C759 C754 1.261 . S
C759 C758 1.312 . S
C760 O732 1.214 . S
C760 O740 1.234 . S
C761 H733 0.929 . S
C761 C764 1.391 . S
C761 C766 1.391 . S
C762 H734 0.929 . S
C762 C763 1.390 . S
C762 N765 1.391 . S
C763 H735 0.930 . S
C763 C762 1.390 . S
C763 C764 1.392 . S
C764 H736 0.929 . S
C764 C761 1.391 . S
C764 C763 1.392 . S
N765 Co709 2.257 1_455 S
N765 C762 1.391 . S
N765 C766 1.388 . S
C766 H737 0.930 . S
C766 C761 1.391 . S
C766 N765 1.388 . S
Co767 O769 2.143 . S
Co767 O775 2.074 . S
Co767 O778 2.093 . S
Co767 O791 2.097 . S
Co767 N808 2.151 . S
Co767 N816 2.214 . S
Co768 O769 2.160 . S
Co768 O774 2.058 . S
Co768 O784 2.057 . S
Co768 O799 2.037 . S
Co768 N803 2.145 . S
Co768 N824 2.257 1_565 S
O769 Co767 2.143 . S
O769 Co768 2.160 . S
C770 O771 1.278 1_565 S
C770 O778 1.224 . S
O771 C770 1.278 1_545 S
C772 O773 1.245 . S
C772 O784 1.232 . S
O773 C772 1.245 . S
O774 Co768 2.058 . S
O774 C800 1.269 . S
O775 Co767 2.074 . S
O775 C800 1.257 . S
H776 C801 0.930 . S
H777 C807 0.930 . S
O778 Co767 2.093 . S
O778 C770 1.224 . S
H779 C811 0.929 . S
H780 C813 0.930 . S
H781 C814 0.930 . S
H782 C812 0.929 . S
H783 C815 0.928 . S
O784 Co768 2.057 . S
O784 C772 1.232 . S
H785 C804 0.929 . S
H786 C805 0.929 . S
H787 C817 0.931 . S
H788 C809 0.929 . S
H789 C818 0.930 . S
H790 C810 0.931 . S
O791 Co767 2.097 . S
O791 C819 1.214 . S
H792 C820 0.929 . S
H793 C821 0.929 . S
H794 C822 0.930 . S
H795 C823 0.929 . S
H796 C825 0.930 . S
H797 C802 0.930 . S
H798 C806 0.930 . S
O799 Co768 2.037 . S
O799 C819 1.234 . S
C800 O774 1.269 . S
C800 O775 1.257 . S
C801 H776 0.930 . S
C801 C804 1.388 . S
C801 C806 1.418 . S
C802 H797 0.930 . S
C802 C805 1.404 . S
C802 C806 1.353 . S
N803 Co768 2.145 . S
N803 C804 1.397 . S
N803 C805 1.334 . S
C804 H785 0.929 . S
C804 C801 1.388 . S
C804 N803 1.397 . S
C805 H786 0.929 . S
C805 C802 1.404 . S
C805 N803 1.334 . S
C806 H798 0.930 . S
C806 C801 1.418 . S
C806 C802 1.353 . S
C807 H777 0.930 . S
C807 N808 1.330 . S
C807 C809 1.446 . S
N808 Co767 2.151 . S
N808 C807 1.330 . S
N808 C812 1.418 . S
C809 H788 0.929 . S
C809 C807 1.446 . S
C809 C810 1.332 . S
C810 H790 0.931 . S
C810 C809 1.332 . S
C810 C811 1.267 . S
C811 H779 0.929 . S
C811 C810 1.267 . S
C811 C812 1.251 . S
C812 H782 0.929 . S
C812 N808 1.418 . S
C812 C811 1.251 . S
C813 H780 0.930 . S
C813 C815 1.406 . S
C813 C818 1.261 . S
C814 H781 0.930 . S
C814 N816 1.325 . S
C814 C817 1.357 . S
C815 H783 0.928 . S
C815 C813 1.406 . S
C815 N816 1.261 . S
N816 Co767 2.214 . S
N816 C814 1.325 . S
N816 C815 1.261 . S
C817 H787 0.931 . S
C817 C814 1.357 . S
C817 C818 1.312 . S
C818 H789 0.930 . S
C818 C813 1.261 . S
C818 C817 1.312 . S
C819 O791 1.214 . S
C819 O799 1.234 . S
C820 H792 0.929 . S
C820 C823 1.391 . S
C820 C825 1.391 . S
C821 H793 0.929 . S
C821 C822 1.390 . S
C821 N824 1.391 . S
C822 H794 0.930 . S
C822 C821 1.390 . S
C822 C823 1.392 . S
C823 H795 0.929 . S
C823 C820 1.391 . S
C823 C822 1.392 . S
N824 Co768 2.257 1_545 S
N824 C821 1.391 . S
N824 C825 1.388 . S
C825 H796 0.930 . S
C825 C820 1.391 . S
C825 N824 1.388 . S
Co826 O828 2.143 . S
Co826 O834 2.074 . S
Co826 O837 2.093 . S
Co826 O850 2.097 . S
Co826 N867 2.151 . S
Co826 N875 2.214 . S
Co827 O828 2.160 . S
Co827 O833 2.058 . S
Co827 O843 2.057 . S
Co827 O858 2.037 . S
Co827 N862 2.145 . S
Co827 N883 2.257 . S
O828 Co826 2.143 . S
O828 Co827 2.160 . S
C829 O830 1.278 . S
C829 O837 1.224 . S
O830 C829 1.278 . S
C831 O832 1.245 . S
C831 O843 1.232 . S
O832 C831 1.245 . S
O833 Co827 2.058 . S
O833 C859 1.269 . S
O834 Co826 2.074 . S
O834 C859 1.257 . S
H835 C860 0.930 . S
H836 C866 0.930 . S
O837 Co826 2.093 . S
O837 C829 1.224 . S
H838 C870 0.929 . S
H839 C872 0.930 . S
H840 C873 0.930 . S
H841 C871 0.929 . S
H842 C874 0.928 . S
O843 Co827 2.057 . S
O843 C831 1.232 . S
H844 C863 0.929 . S
H845 C864 0.929 . S
H846 C876 0.931 . S
H847 C868 0.929 . S
H848 C877 0.930 . S
H849 C869 0.931 . S
O850 Co826 2.097 . S
O850 C878 1.214 . S
H851 C879 0.929 . S
H852 C880 0.929 . S
H853 C881 0.930 . S
H854 C882 0.929 . S
H855 C884 0.930 . S
H856 C861 0.930 . S
H857 C865 0.930 . S
O858 Co827 2.037 . S
O858 C878 1.234 . S
C859 O833 1.269 . S
C859 O834 1.257 . S
C860 H835 0.930 . S
C860 C863 1.388 . S
C860 C865 1.418 . S
C861 H856 0.930 . S
C861 C864 1.404 . S
C861 C865 1.353 . S
N862 Co827 2.145 . S
N862 C863 1.397 . S
N862 C864 1.334 . S
C863 H844 0.929 . S
C863 C860 1.388 . S
C863 N862 1.397 . S
C864 H845 0.929 . S
C864 C861 1.404 . S
C864 N862 1.334 . S
C865 H857 0.930 . S
C865 C860 1.418 . S
C865 C861 1.353 . S
C866 H836 0.930 . S
C866 N867 1.330 . S
C866 C868 1.446 . S
N867 Co826 2.151 . S
N867 C866 1.330 . S
N867 C871 1.418 . S
C868 H847 0.929 . S
C868 C866 1.446 . S
C868 C869 1.332 . S
C869 H849 0.931 . S
C869 C868 1.332 . S
C869 C870 1.267 . S
C870 H838 0.929 . S
C870 C869 1.267 . S
C870 C871 1.251 . S
C871 H841 0.929 . S
C871 N867 1.418 . S
C871 C870 1.251 . S
C872 H839 0.930 . S
C872 C874 1.406 . S
C872 C877 1.261 . S
C873 H840 0.930 . S
C873 N875 1.325 . S
C873 C876 1.357 . S
C874 H842 0.928 . S
C874 C872 1.406 . S
C874 N875 1.261 . S
N875 Co826 2.214 . S
N875 C873 1.325 . S
N875 C874 1.261 . S
C876 H846 0.931 . S
C876 C873 1.357 . S
C876 C877 1.312 . S
C877 H848 0.930 . S
C877 C872 1.261 . S
C877 C876 1.312 . S
C878 O850 1.214 . S
C878 O858 1.234 . S
C879 H851 0.929 . S
C879 C882 1.391 . S
C879 C884 1.391 . S
C880 H852 0.929 . S
C880 C881 1.390 . S
C880 N883 1.391 . S
C881 H853 0.930 . S
C881 C880 1.390 . S
C881 C882 1.392 . S
C882 H854 0.929 . S
C882 C879 1.391 . S
C882 C881 1.392 . S
N883 Co827 2.257 . S
N883 C880 1.391 . S
N883 C884 1.388 . S
C884 H855 0.930 . S
C884 C879 1.391 . S
C884 N883 1.388 . S
Co885 O887 2.143 . S
Co885 O893 2.074 . S
Co885 O896 2.093 . S
Co885 O909 2.097 . S
Co885 N926 2.151 . S
Co885 N934 2.214 . S
Co886 O887 2.160 . S
Co886 O892 2.058 . S
Co886 O902 2.057 . S
Co886 O917 2.037 . S
Co886 N921 2.145 . S
Co886 N942 2.257 . S
O887 Co885 2.143 . S
O887 Co886 2.160 . S
C888 O889 1.278 . S
C888 O896 1.224 . S
O889 C888 1.278 . S
C890 O891 1.245 . S
C890 O902 1.232 . S
O891 C890 1.245 . S
O892 Co886 2.058 . S
O892 C918 1.269 . S
O893 Co885 2.074 . S
O893 C918 1.257 . S
H894 C919 0.930 . S
H895 C925 0.930 . S
O896 Co885 2.093 . S
O896 C888 1.224 . S
H897 C929 0.929 . S
H898 C931 0.930 . S
H899 C932 0.930 . S
H900 C930 0.929 . S
H901 C933 0.928 . S
O902 Co886 2.057 . S
O902 C890 1.232 . S
H903 C922 0.929 . S
H904 C923 0.929 . S
H905 C935 0.931 . S
H906 C927 0.929 1_655 S
H907 C936 0.930 . S
H908 C928 0.931 1_655 S
O909 Co885 2.097 . S
O909 C937 1.214 . S
H910 C938 0.929 . S
H911 C939 0.929 . S
H912 C940 0.930 . S
H913 C941 0.929 . S
H914 C943 0.930 . S
H915 C920 0.930 . S
H916 C924 0.930 . S
O917 Co886 2.037 . S
O917 C937 1.234 . S
C918 O892 1.269 . S
C918 O893 1.257 . S
C919 H894 0.930 . S
C919 C922 1.388 . S
C919 C924 1.418 . S
C920 H915 0.930 . S
C920 C923 1.404 . S
C920 C924 1.353 . S
N921 Co886 2.145 . S
N921 C922 1.397 . S
N921 C923 1.334 . S
C922 H903 0.929 . S
C922 C919 1.388 . S
C922 N921 1.397 . S
C923 H904 0.929 . S
C923 C920 1.404 . S
C923 N921 1.334 . S
C924 H916 0.930 . S
C924 C919 1.418 . S
C924 C920 1.353 . S
C925 H895 0.930 . S
C925 N926 1.330 . S
C925 C927 1.446 . S
N926 Co885 2.151 . S
N926 C925 1.330 . S
N926 C930 1.418 . S
C927 H906 0.929 1_455 S
C927 C925 1.446 . S
C927 C928 1.332 . S
C928 H908 0.931 1_455 S
C928 C927 1.332 . S
C928 C929 1.267 . S
C929 H897 0.929 . S
C929 C928 1.267 . S
C929 C930 1.251 . S
C930 H900 0.929 . S
C930 N926 1.418 . S
C930 C929 1.251 . S
C931 H898 0.930 . S
C931 C933 1.406 . S
C931 C936 1.261 . S
C932 H899 0.930 . S
C932 N934 1.325 . S
C932 C935 1.357 . S
C933 H901 0.928 . S
C933 C931 1.406 . S
C933 N934 1.261 . S
N934 Co885 2.214 . S
N934 C932 1.325 . S
N934 C933 1.261 . S
C935 H905 0.931 . S
C935 C932 1.357 . S
C935 C936 1.312 . S
C936 H907 0.930 . S
C936 C931 1.261 . S
C936 C935 1.312 . S
C937 O909 1.214 . S
C937 O917 1.234 . S
C938 H910 0.929 . S
C938 C941 1.391 . S
C938 C943 1.391 . S
C939 H911 0.929 . S
C939 C940 1.390 . S
C939 N942 1.391 . S
C940 H912 0.930 . S
C940 C939 1.390 . S
C940 C941 1.392 . S
C941 H913 0.929 . S
C941 C938 1.391 . S
C941 C940 1.392 . S
N942 Co886 2.257 . S
N942 C939 1.391 . S
N942 C943 1.388 . S
C943 H914 0.930 . S
C943 C938 1.391 . S
C943 N942 1.388 . S
H944 C956 0.930 . S
H945 C958 0.930 . S
H946 C959 0.930 . S
H947 C963 0.959 . S
H948 C963 0.959 . S
H949 C963 0.961 . S
H950 C964 0.960 . S
H951 C964 0.961 . S
H952 C964 0.959 . S
H953 C967 0.929 . S
H954 C968 0.931 . S
H955 C970 0.930 . S
C956 H944 0.930 . S
C956 C957 1.399 . S
C956 C961 1.399 . S
C957 C956 1.399 . S
C957 C958 1.376 . S
C958 H945 0.930 . S
C958 C957 1.376 . S
C958 C959 1.388 . S
C959 H946 0.930 . S
C959 C958 1.388 . S
C959 C960 1.390 . S
C960 C959 1.390 . S
C960 C961 1.394 . S
C960 C966 1.465 . S
C961 C956 1.399 . S
C961 C960 1.394 . S
C961 C962 1.516 . S
C962 C961 1.516 . S
C962 C963 1.502 . S
C962 C964 1.561 . S
C962 C965 1.526 . S
C963 H947 0.959 . S
C963 H948 0.959 . S
C963 H949 0.961 . S
C963 C962 1.502 . S
C964 H950 0.960 . S
C964 H951 0.961 . S
C964 H952 0.959 . S
C964 C962 1.561 . S
C965 C962 1.526 . S
C965 C966 1.396 . S
C965 C970 1.390 . S
C966 C960 1.465 . S
C966 C965 1.396 . S
C966 C967 1.399 . S
C967 H953 0.929 . S
C967 C966 1.399 . S
C967 C968 1.385 . S
C968 H954 0.931 . S
C968 C967 1.385 . S
C968 C969 1.389 . S
C969 C968 1.389 . S
C969 C970 1.387 . S
C970 H955 0.930 . S
C970 C965 1.390 . S
C970 C969 1.387 . S
H971 C983 0.930 . S
H972 C985 0.930 . S
H973 C986 0.930 . S
H974 C990 0.959 . S
H975 C990 0.959 . S
H976 C990 0.961 . S
H977 C991 0.960 . S
H978 C991 0.961 . S
H979 C991 0.959 . S
H980 C994 0.929 . S
H981 C995 0.931 . S
H982 C997 0.930 . S
C983 H971 0.930 . S
C983 C984 1.399 . S
C983 C988 1.399 . S
C984 C983 1.399 . S
C984 C985 1.376 . S
C985 H972 0.930 . S
C985 C984 1.376 . S
C985 C986 1.388 . S
C986 H973 0.930 . S
C986 C985 1.388 . S
C986 C987 1.390 . S
C987 C986 1.390 . S
C987 C988 1.394 . S
C987 C993 1.465 . S
C988 C983 1.399 . S
C988 C987 1.394 . S
C988 C989 1.516 . S
C989 C988 1.516 . S
C989 C990 1.502 . S
C989 C991 1.561 . S
C989 C992 1.526 . S
C990 H974 0.959 . S
C990 H975 0.959 . S
C990 H976 0.961 . S
C990 C989 1.502 . S
C991 H977 0.960 . S
C991 H978 0.961 . S
C991 H979 0.959 . S
C991 C989 1.561 . S
C992 C989 1.526 . S
C992 C993 1.396 . S
C992 C997 1.390 . S
C993 C987 1.465 . S
C993 C992 1.396 . S
C993 C994 1.399 . S
C994 H980 0.929 . S
C994 C993 1.399 . S
C994 C995 1.385 . S
C995 H981 0.931 . S
C995 C994 1.385 . S
C995 C996 1.389 . S
C996 C995 1.389 . S
C996 C997 1.387 . S
C997 H982 0.930 . S
C997 C992 1.390 . S
C997 C996 1.387 . S
H998 C1010 0.930 . S
H999 C1012 0.930 . S
H1000 C1013 0.930 . S
H1001 C1017 0.959 . S
H1002 C1017 0.959 . S
H1003 C1017 0.961 . S
H1004 C1018 0.960 . S
H1005 C1018 0.961 . S
H1006 C1018 0.959 . S
H1007 C1021 0.929 . S
H1008 C1022 0.931 . S
H1009 C1024 0.930 . S
C1010 H998 0.930 . S
C1010 C1011 1.399 . S
C1010 C1015 1.399 . S
C1011 C1010 1.399 . S
C1011 C1012 1.376 . S
C1012 H999 0.930 . S
C1012 C1011 1.376 . S
C1012 C1013 1.388 . S
C1013 H1000 0.930 . S
C1013 C1012 1.388 . S
C1013 C1014 1.390 . S
C1014 C1013 1.390 . S
C1014 C1015 1.394 . S
C1014 C1020 1.465 . S
C1015 C1010 1.399 . S
C1015 C1014 1.394 . S
C1015 C1016 1.516 . S
C1016 C1015 1.516 . S
C1016 C1017 1.502 . S
C1016 C1018 1.561 . S
C1016 C1019 1.526 . S
C1017 H1001 0.959 . S
C1017 H1002 0.959 . S
C1017 H1003 0.961 . S
C1017 C1016 1.502 . S
C1018 H1004 0.960 . S
C1018 H1005 0.961 . S
C1018 H1006 0.959 . S
C1018 C1016 1.561 . S
C1019 C1016 1.526 . S
C1019 C1020 1.396 . S
C1019 C1024 1.390 . S
C1020 C1014 1.465 . S
C1020 C1019 1.396 . S
C1020 C1021 1.399 . S
C1021 H1007 0.929 . S
C1021 C1020 1.399 . S
C1021 C1022 1.385 . S
C1022 H1008 0.931 . S
C1022 C1021 1.385 . S
C1022 C1023 1.389 . S
C1023 C1022 1.389 . S
C1023 C1024 1.387 . S
C1024 H1009 0.930 . S
C1024 C1019 1.390 . S
C1024 C1023 1.387 . S
H1025 C1037 0.930 . S
H1026 C1039 0.930 . S
H1027 C1040 0.930 . S
H1028 C1044 0.959 . S
H1029 C1044 0.959 . S
H1030 C1044 0.961 . S
H1031 C1045 0.960 . S
H1032 C1045 0.961 . S
H1033 C1045 0.959 . S
H1034 C1048 0.929 . S
H1035 C1049 0.931 . S
H1036 C1051 0.930 . S
C1037 H1025 0.930 . S
C1037 C1038 1.399 . S
C1037 C1042 1.399 . S
C1038 C1037 1.399 . S
C1038 C1039 1.376 . S
C1039 H1026 0.930 . S
C1039 C1038 1.376 . S
C1039 C1040 1.388 . S
C1040 H1027 0.930 . S
C1040 C1039 1.388 . S
C1040 C1041 1.390 . S
C1041 C1040 1.390 . S
C1041 C1042 1.394 . S
C1041 C1047 1.465 . S
C1042 C1037 1.399 . S
C1042 C1041 1.394 . S
C1042 C1043 1.516 . S
C1043 C1042 1.516 . S
C1043 C1044 1.502 . S
C1043 C1045 1.561 . S
C1043 C1046 1.526 . S
C1044 H1028 0.959 . S
C1044 H1029 0.959 . S
C1044 H1030 0.961 . S
C1044 C1043 1.502 . S
C1045 H1031 0.960 . S
C1045 H1032 0.961 . S
C1045 H1033 0.959 . S
C1045 C1043 1.561 . S
C1046 C1043 1.526 . S
C1046 C1047 1.396 . S
C1046 C1051 1.390 . S
C1047 C1041 1.465 . S
C1047 C1046 1.396 . S
C1047 C1048 1.399 . S
C1048 H1034 0.929 . S
C1048 C1047 1.399 . S
C1048 C1049 1.385 . S
C1049 H1035 0.931 . S
C1049 C1048 1.385 . S
C1049 C1050 1.389 . S
C1050 C1049 1.389 . S
C1050 C1051 1.387 . S
C1051 H1036 0.930 . S
C1051 C1046 1.390 . S
C1051 C1050 1.387 . S
H1052 C1064 0.930 . S
H1053 C1066 0.930 . S
H1054 C1067 0.930 . S
H1055 C1071 0.959 . S
H1056 C1071 0.959 . S
H1057 C1071 0.961 . S
H1058 C1072 0.960 . S
H1059 C1072 0.961 . S
H1060 C1072 0.959 . S
H1061 C1075 0.929 . S
H1062 C1076 0.931 . S
H1063 C1078 0.930 . S
C1064 H1052 0.930 . S
C1064 C1065 1.399 . S
C1064 C1069 1.399 . S
C1065 C1064 1.399 . S
C1065 C1066 1.376 . S
C1066 H1053 0.930 . S
C1066 C1065 1.376 . S
C1066 C1067 1.388 . S
C1067 H1054 0.930 . S
C1067 C1066 1.388 . S
C1067 C1068 1.390 . S
C1068 C1067 1.390 . S
C1068 C1069 1.394 . S
C1068 C1074 1.465 . S
C1069 C1064 1.399 . S
C1069 C1068 1.394 . S
C1069 C1070 1.516 . S
C1070 C1069 1.516 . S
C1070 C1071 1.502 . S
C1070 C1072 1.561 . S
C1070 C1073 1.526 . S
C1071 H1055 0.959 . S
C1071 H1056 0.959 . S
C1071 H1057 0.961 . S
C1071 C1070 1.502 . S
C1072 H1058 0.960 . S
C1072 H1059 0.961 . S
C1072 H1060 0.959 . S
C1072 C1070 1.561 . S
C1073 C1070 1.526 . S
C1073 C1074 1.396 . S
C1073 C1078 1.390 . S
C1074 C1068 1.465 . S
C1074 C1073 1.396 . S
C1074 C1075 1.399 . S
C1075 H1061 0.929 . S
C1075 C1074 1.399 . S
C1075 C1076 1.385 . S
C1076 H1062 0.931 . S
C1076 C1075 1.385 . S
C1076 C1077 1.389 . S
C1077 C1076 1.389 . S
C1077 C1078 1.387 . S
C1078 H1063 0.930 . S
C1078 C1073 1.390 . S
C1078 C1077 1.387 . S
H1079 C1091 0.930 . S
H1080 C1093 0.930 . S
H1081 C1094 0.930 . S
H1082 C1098 0.959 . S
H1083 C1098 0.959 . S
H1084 C1098 0.961 . S
H1085 C1099 0.960 . S
H1086 C1099 0.961 . S
H1087 C1099 0.959 . S
H1088 C1102 0.929 . S
H1089 C1103 0.931 . S
H1090 C1105 0.930 . S
C1091 H1079 0.930 . S
C1091 C1092 1.399 . S
C1091 C1096 1.399 . S
C1092 C1091 1.399 . S
C1092 C1093 1.376 . S
C1093 H1080 0.930 . S
C1093 C1092 1.376 . S
C1093 C1094 1.388 . S
C1094 H1081 0.930 . S
C1094 C1093 1.388 . S
C1094 C1095 1.390 . S
C1095 C1094 1.390 . S
C1095 C1096 1.394 . S
C1095 C1101 1.465 . S
C1096 C1091 1.399 . S
C1096 C1095 1.394 . S
C1096 C1097 1.516 . S
C1097 C1096 1.516 . S
C1097 C1098 1.502 . S
C1097 C1099 1.561 . S
C1097 C1100 1.526 . S
C1098 H1082 0.959 . S
C1098 H1083 0.959 . S
C1098 H1084 0.961 . S
C1098 C1097 1.502 . S
C1099 H1085 0.960 . S
C1099 H1086 0.961 . S
C1099 H1087 0.959 . S
C1099 C1097 1.561 . S
C1100 C1097 1.526 . S
C1100 C1101 1.396 . S
C1100 C1105 1.390 . S
C1101 C1095 1.465 . S
C1101 C1100 1.396 . S
C1101 C1102 1.399 . S
C1102 H1088 0.929 . S
C1102 C1101 1.399 . S
C1102 C1103 1.385 . S
C1103 H1089 0.931 . S
C1103 C1102 1.385 . S
C1103 C1104 1.389 . S
C1104 C1103 1.389 . S
C1104 C1105 1.387 . S
C1105 H1090 0.930 . S
C1105 C1100 1.390 . S
C1105 C1104 1.387 . S
H1106 C1118 0.930 . S
H1107 C1120 0.930 . S
H1108 C1121 0.930 . S
H1109 C1125 0.959 . S
H1110 C1125 0.959 . S
H1111 C1125 0.961 . S
H1112 C1126 0.960 . S
H1113 C1126 0.961 . S
H1114 C1126 0.959 . S
H1115 C1129 0.929 . S
H1116 C1130 0.931 . S
H1117 C1132 0.930 . S
C1118 H1106 0.930 . S
C1118 C1119 1.399 . S
C1118 C1123 1.399 . S
C1119 C1118 1.399 . S
C1119 C1120 1.376 . S
C1120 H1107 0.930 . S
C1120 C1119 1.376 . S
C1120 C1121 1.388 . S
C1121 H1108 0.930 . S
C1121 C1120 1.388 . S
C1121 C1122 1.390 . S
C1122 C1121 1.390 . S
C1122 C1123 1.394 . S
C1122 C1128 1.465 . S
C1123 C1118 1.399 . S
C1123 C1122 1.394 . S
C1123 C1124 1.516 . S
C1124 C1123 1.516 . S
C1124 C1125 1.502 . S
C1124 C1126 1.561 . S
C1124 C1127 1.526 . S
C1125 H1109 0.959 . S
C1125 H1110 0.959 . S
C1125 H1111 0.961 . S
C1125 C1124 1.502 . S
C1126 H1112 0.960 . S
C1126 H1113 0.961 . S
C1126 H1114 0.959 . S
C1126 C1124 1.561 . S
C1127 C1124 1.526 . S
C1127 C1128 1.396 . S
C1127 C1132 1.390 . S
C1128 C1122 1.465 . S
C1128 C1127 1.396 . S
C1128 C1129 1.399 . S
C1129 H1115 0.929 . S
C1129 C1128 1.399 . S
C1129 C1130 1.385 . S
C1130 H1116 0.931 . S
C1130 C1129 1.385 . S
C1130 C1131 1.389 . S
C1131 C1130 1.389 . S
C1131 C1132 1.387 . S
C1132 H1117 0.930 . S
C1132 C1127 1.390 . S
C1132 C1131 1.387 . S
H1133 C1145 0.930 . S
H1134 C1147 0.930 . S
H1135 C1148 0.930 . S
H1136 C1152 0.959 . S
H1137 C1152 0.959 . S
H1138 C1152 0.961 . S
H1139 C1153 0.960 . S
H1140 C1153 0.961 . S
H1141 C1153 0.959 . S
H1142 C1156 0.929 . S
H1143 C1157 0.931 . S
H1144 C1159 0.930 . S
C1145 H1133 0.930 . S
C1145 C1146 1.399 . S
C1145 C1150 1.399 . S
C1146 C1145 1.399 . S
C1146 C1147 1.376 . S
C1147 H1134 0.930 . S
C1147 C1146 1.376 . S
C1147 C1148 1.388 . S
C1148 H1135 0.930 . S
C1148 C1147 1.388 . S
C1148 C1149 1.390 . S
C1149 C1148 1.390 . S
C1149 C1150 1.394 . S
C1149 C1155 1.465 . S
C1150 C1145 1.399 . S
C1150 C1149 1.394 . S
C1150 C1151 1.516 . S
C1151 C1150 1.516 . S
C1151 C1152 1.502 . S
C1151 C1153 1.561 . S
C1151 C1154 1.526 . S
C1152 H1136 0.959 . S
C1152 H1137 0.959 . S
C1152 H1138 0.961 . S
C1152 C1151 1.502 . S
C1153 H1139 0.960 . S
C1153 H1140 0.961 . S
C1153 H1141 0.959 . S
C1153 C1151 1.561 . S
C1154 C1151 1.526 . S
C1154 C1155 1.396 . S
C1154 C1159 1.390 . S
C1155 C1149 1.465 . S
C1155 C1154 1.396 . S
C1155 C1156 1.399 . S
C1156 H1142 0.929 . S
C1156 C1155 1.399 . S
C1156 C1157 1.385 . S
C1157 H1143 0.931 . S
C1157 C1156 1.385 . S
C1157 C1158 1.389 . S
C1158 C1157 1.389 . S
C1158 C1159 1.387 . S
C1159 H1144 0.930 . S
C1159 C1154 1.390 . S
C1159 C1158 1.387 . S
H1160 C1172 0.930 . S
H1161 C1174 0.930 . S
H1162 C1175 0.930 . S
H1163 C1179 0.959 1_455 S
H1164 C1179 0.959 . S
H1165 C1179 0.961 . S
H1166 C1180 0.960 . S
H1167 C1180 0.961 . S
H1168 C1180 0.959 . S
H1169 C1183 0.929 . S
H1170 C1184 0.931 1_455 S
H1171 C1186 0.930 . S
C1172 H1160 0.930 . S
C1172 C1173 1.399 . S
C1172 C1177 1.399 . S
C1173 C1172 1.399 . S
C1173 C1174 1.376 . S
C1174 H1161 0.930 . S
C1174 C1173 1.376 . S
C1174 C1175 1.388 . S
C1175 H1162 0.930 . S
C1175 C1174 1.388 . S
C1175 C1176 1.390 . S
C1176 C1175 1.390 . S
C1176 C1177 1.394 . S
C1176 C1182 1.465 . S
C1177 C1172 1.399 . S
C1177 C1176 1.394 . S
C1177 C1178 1.516 . S
C1178 C1177 1.516 . S
C1178 C1179 1.502 . S
C1178 C1180 1.561 . S
C1178 C1181 1.526 . S
C1179 H1163 0.959 1_655 S
C1179 H1164 0.959 . S
C1179 H1165 0.961 . S
C1179 C1178 1.502 . S
C1180 H1166 0.960 . S
C1180 H1167 0.961 . S
C1180 H1168 0.959 . S
C1180 C1178 1.561 . S
C1181 C1178 1.526 . S
C1181 C1182 1.396 . S
C1181 C1186 1.390 . S
C1182 C1176 1.465 . S
C1182 C1181 1.396 . S
C1182 C1183 1.399 . S
C1183 H1169 0.929 . S
C1183 C1182 1.399 . S
C1183 C1184 1.385 . S
C1184 H1170 0.931 1_655 S
C1184 C1183 1.385 . S
C1184 C1185 1.389 1_655 S
C1185 C1184 1.389 1_455 S
C1185 C1186 1.387 1_455 S
C1186 H1171 0.930 . S
C1186 C1181 1.390 . S
C1186 C1185 1.387 1_655 S
H1187 C1199 0.930 . S
H1188 C1201 0.930 . S
H1189 C1202 0.930 . S
H1190 C1206 0.959 . S
H1191 C1206 0.959 . S
H1192 C1206 0.961 . S
H1193 C1207 0.960 . S
H1194 C1207 0.961 . S
H1195 C1207 0.959 . S
H1196 C1210 0.929 . S
H1197 C1211 0.931 . S
H1198 C1213 0.930 1_455 S
C1199 H1187 0.930 . S
C1199 C1200 1.394 1_545 S
C1199 C1204 1.399 1_545 S
C1200 C1199 1.394 1_565 S
C1200 C1201 1.388 . S
C1201 H1188 0.930 . S
C1201 C1200 1.388 . S
C1201 C1202 1.388 . S
C1202 H1189 0.930 . S
C1202 C1201 1.388 . S
C1202 C1203 1.390 . S
C1203 C1202 1.390 . S
C1203 C1204 1.394 . S
C1203 C1209 1.465 . S
C1204 C1199 1.399 1_565 S
C1204 C1203 1.394 . S
C1204 C1205 1.516 1_565 S
C1205 C1204 1.516 1_545 S
C1205 C1206 1.502 1_655 S
C1205 C1207 1.561 . S
C1205 C1208 1.526 1_545 S
C1206 H1190 0.959 . S
C1206 H1191 0.959 . S
C1206 H1192 0.961 . S
C1206 C1205 1.502 1_455 S
C1207 H1193 0.960 . S
C1207 H1194 0.961 . S
C1207 H1195 0.959 . S
C1207 C1205 1.561 . S
C1208 C1205 1.526 1_565 S
C1208 C1209 1.396 . S
C1208 C1213 1.390 . S
C1209 C1203 1.465 . S
C1209 C1208 1.396 . S
C1209 C1210 1.399 . S
C1210 H1196 0.929 . S
C1210 C1209 1.399 . S
C1210 C1211 1.385 . S
C1211 H1197 0.931 . S
C1211 C1210 1.385 . S
C1211 C1212 1.389 1_655 S
C1212 C1211 1.389 1_455 S
C1212 C1213 1.387 1_455 S
C1213 H1198 0.930 1_655 S
C1213 C1208 1.390 . S
C1213 C1212 1.387 1_655 S
H1214 C1226 0.930 . S
H1215 C1228 0.930 . S
H1216 C1229 0.930 . S
H1217 C1233 0.959 . S
H1218 C1233 0.959 . S
H1219 C1233 0.961 . S
H1220 C1234 0.960 . S
H1221 C1234 0.961 . S
H1222 C1234 0.959 . S
H1223 C1237 0.929 . S
H1224 C1238 0.931 . S
H1225 C1240 0.930 . S
C1226 H1214 0.930 . S
C1226 C1227 1.399 1_565 S
C1226 C1231 1.399 . S
C1227 C1226 1.399 1_545 S
C1227 C1228 1.376 . S
C1228 H1215 0.930 . S
C1228 C1227 1.376 . S
C1228 C1229 1.388 . S
C1229 H1216 0.930 . S
C1229 C1228 1.388 . S
C1229 C1230 1.390 1_545 S
C1230 C1229 1.390 1_565 S
C1230 C1231 1.394 . S
C1230 C1236 1.465 . S
C1231 C1226 1.399 . S
C1231 C1230 1.394 . S
C1231 C1232 1.516 . S
C1232 C1231 1.516 . S
C1232 C1233 1.502 . S
C1232 C1234 1.561 . S
C1232 C1235 1.526 . S
C1233 H1217 0.959 . S
C1233 H1218 0.959 . S
C1233 H1219 0.961 . S
C1233 C1232 1.502 . S
C1234 H1220 0.960 . S
C1234 H1221 0.961 . S
C1234 H1222 0.959 . S
C1234 C1232 1.561 . S
C1235 C1232 1.526 . S
C1235 C1236 1.396 . S
C1235 C1240 1.390 . S
C1236 C1230 1.465 . S
C1236 C1235 1.396 . S
C1236 C1237 1.399 . S
C1237 H1223 0.929 . S
C1237 C1236 1.399 . S
C1237 C1238 1.385 . S
C1238 H1224 0.931 . S
C1238 C1237 1.385 . S
C1238 C1239 1.389 . S
C1239 C1238 1.389 . S
C1239 C1240 1.387 . S
C1240 H1225 0.930 . S
C1240 C1235 1.390 . S
C1240 C1239 1.387 . S
H1241 C1253 0.930 . S
H1242 C1255 0.930 . S
H1243 C1256 0.930 . S
H1244 C1260 0.959 . S
H1245 C1260 0.959 . S
H1246 C1260 0.961 . S
H1247 C1261 0.960 . S
H1248 C1261 0.961 . S
H1249 C1261 0.959 . S
H1250 C1264 0.929 . S
H1251 C1265 0.931 . S
H1252 C1267 0.930 . S
C1253 H1241 0.930 . S
C1253 C1254 1.399 . S
C1253 C1258 1.399 . S
C1254 C1253 1.399 . S
C1254 C1255 1.376 . S
C1255 H1242 0.930 . S
C1255 C1254 1.376 . S
C1255 C1256 1.388 . S
C1256 H1243 0.930 . S
C1256 C1255 1.388 . S
C1256 C1257 1.390 . S
C1257 C1256 1.390 . S
C1257 C1258 1.394 . S
C1257 C1263 1.465 . S
C1258 C1253 1.399 . S
C1258 C1257 1.394 . S
C1258 C1259 1.516 . S
C1259 C1258 1.516 . S
C1259 C1260 1.502 . S
C1259 C1261 1.561 . S
C1259 C1262 1.526 . S
C1260 H1244 0.959 . S
C1260 H1245 0.959 . S
C1260 H1246 0.961 . S
C1260 C1259 1.502 . S
C1261 H1247 0.960 . S
C1261 H1248 0.961 . S
C1261 H1249 0.959 . S
C1261 C1259 1.561 . S
C1262 C1259 1.526 . S
C1262 C1263 1.396 . S
C1262 C1267 1.390 . S
C1263 C1257 1.465 . S
C1263 C1262 1.396 . S
C1263 C1264 1.399 . S
C1264 H1250 0.929 . S
C1264 C1263 1.399 . S
C1264 C1265 1.385 . S
C1265 H1251 0.931 . S
C1265 C1264 1.385 . S
C1265 C1266 1.389 . S
C1266 C1265 1.389 . S
C1266 C1267 1.387 . S
C1267 H1252 0.930 . S
C1267 C1262 1.390 . S
C1267 C1266 1.387 . S
H1268 C1280 0.930 . S
H1269 C1282 0.930 . S
H1270 C1283 0.930 . S
H1271 C1287 0.959 . S
H1272 C1287 0.959 . S
H1273 C1287 0.961 . S
H1274 C1288 0.960 . S
H1275 C1288 0.961 . S
H1276 C1288 0.959 1_455 S
H1277 C1291 0.929 . S
H1278 C1292 0.931 . S
H1279 C1294 0.930 . S
C1280 H1268 0.930 . S
C1280 C1281 1.399 . S
C1280 C1285 1.399 . S
C1281 C1280 1.399 . S
C1281 C1282 1.376 . S
C1282 H1269 0.930 . S
C1282 C1281 1.376 . S
C1282 C1283 1.388 . S
C1283 H1270 0.930 . S
C1283 C1282 1.388 . S
C1283 C1284 1.390 . S
C1284 C1283 1.390 . S
C1284 C1285 1.394 . S
C1284 C1290 1.465 . S
C1285 C1280 1.399 . S
C1285 C1284 1.394 . S
C1285 C1286 1.516 1_455 S
C1286 C1285 1.516 1_655 S
C1286 C1287 1.502 . S
C1286 C1288 1.561 . S
C1286 C1289 1.526 1_655 S
C1287 H1271 0.959 . S
C1287 H1272 0.959 . S
C1287 H1273 0.961 . S
C1287 C1286 1.502 . S
C1288 H1274 0.960 . S
C1288 H1275 0.961 . S
C1288 H1276 0.959 1_655 S
C1288 C1286 1.561 . S
C1289 C1286 1.526 1_455 S
C1289 C1290 1.396 . S
C1289 C1294 1.390 1_455 S
C1290 C1284 1.465 . S
C1290 C1289 1.396 . S
C1290 C1291 1.399 . S
C1291 H1277 0.929 . S
C1291 C1290 1.399 . S
C1291 C1292 1.385 . S
C1292 H1278 0.931 . S
C1292 C1291 1.385 . S
C1292 C1293 1.412 . S
C1293 C1292 1.412 . S
C1293 C1294 1.377 1_455 S
C1294 H1279 0.930 . S
C1294 C1289 1.390 1_655 S
C1294 C1293 1.377 1_655 S
H1295 C1307 0.930 . S
H1296 C1309 0.930 . S
H1297 C1310 0.928 1_655 S
H1298 C1314 0.959 . S
H1299 C1314 0.959 . S
H1300 C1314 0.961 1_565 S
H1301 C1315 0.960 . S
H1302 C1315 0.961 . S
H1303 C1315 0.959 . S
H1304 C1318 0.929 . S
H1305 C1319 0.931 . S
H1306 C1321 0.930 . S
C1307 H1295 0.930 . S
C1307 C1308 1.399 . S
C1307 C1312 1.399 1_565 S
C1308 C1307 1.399 . S
C1308 C1309 1.376 1_565 S
C1309 H1296 0.930 . S
C1309 C1308 1.376 1_545 S
C1309 C1310 1.388 . S
C1310 H1297 0.928 1_455 S
C1310 C1309 1.388 . S
C1310 C1311 1.390 . S
C1311 C1310 1.390 . S
C1311 C1312 1.394 . S
C1311 C1317 1.465 . S
C1312 C1307 1.399 1_545 S
C1312 C1311 1.394 . S
C1312 C1313 1.516 . S
C1313 C1312 1.516 . S
C1313 C1314 1.502 . S
C1313 C1315 1.561 1_545 S
C1313 C1316 1.526 . S
C1314 H1298 0.959 . S
C1314 H1299 0.959 . S
C1314 H1300 0.961 1_545 S
C1314 C1313 1.502 . S
C1315 H1301 0.960 . S
C1315 H1302 0.961 . S
C1315 H1303 0.959 . S
C1315 C1313 1.561 1_565 S
C1316 C1313 1.526 . S
C1316 C1317 1.396 . S
C1316 C1321 1.390 . S
C1317 C1311 1.465 . S
C1317 C1316 1.396 . S
C1317 C1318 1.399 1_455 S
C1318 H1304 0.929 . S
C1318 C1317 1.399 1_655 S
C1318 C1319 1.385 . S
C1319 H1305 0.931 . S
C1319 C1318 1.385 . S
C1319 C1320 1.389 . S
C1320 C1319 1.389 . S
C1320 C1321 1.387 1_655 S
C1321 H1306 0.930 . S
C1321 C1316 1.390 . S
C1321 C1320 1.387 1_455 S
H1322 C1334 0.930 . S
H1323 C1336 0.930 . S
H1324 C1337 0.930 1_565 S
H1325 C1341 0.959 . S
H1326 C1341 0.959 . S
H1327 C1341 0.961 . S
H1328 C1342 0.960 . S
H1329 C1342 0.961 . S
H1330 C1342 0.959 . S
H1331 C1345 0.929 . S
H1332 C1346 0.931 . S
H1333 C1348 0.930 . S
C1334 H1322 0.930 . S
C1334 C1335 1.399 . S
C1334 C1339 1.399 . S
C1335 C1334 1.399 . S
C1335 C1336 1.376 . S
C1336 H1323 0.930 . S
C1336 C1335 1.376 . S
C1336 C1337 1.388 . S
C1337 H1324 0.930 1_545 S
C1337 C1336 1.388 . S
C1337 C1338 1.390 . S
C1338 C1337 1.390 . S
C1338 C1339 1.394 . S
C1338 C1344 1.465 . S
C1339 C1334 1.399 . S
C1339 C1338 1.394 . S
C1339 C1340 1.516 . S
C1340 C1339 1.516 . S
C1340 C1341 1.502 . S
C1340 C1342 1.561 . S
C1340 C1343 1.526 . S
C1341 H1325 0.959 . S
C1341 H1326 0.959 . S
C1341 H1327 0.961 . S
C1341 C1340 1.502 . S
C1342 H1328 0.960 . S
C1342 H1329 0.961 . S
C1342 H1330 0.959 . S
C1342 C1340 1.561 . S
C1343 C1340 1.526 . S
C1343 C1344 1.396 . S
C1343 C1348 1.390 . S
C1344 C1338 1.465 . S
C1344 C1343 1.396 . S
C1344 C1345 1.399 1_545 S
C1345 H1331 0.929 . S
C1345 C1344 1.399 1_565 S
C1345 C1346 1.385 . S
C1346 H1332 0.931 . S
C1346 C1345 1.385 . S
C1346 C1347 1.389 . S
C1347 C1346 1.389 . S
C1347 C1348 1.387 1_565 S
C1348 H1333 0.930 . S
C1348 C1343 1.390 . S
C1348 C1347 1.387 1_545 S
H1349 C1361 0.930 . S
H1350 C1363 0.930 . S
H1351 C1364 0.930 . S
H1352 C1368 0.959 . S
H1353 C1368 0.959 . S
H1354 C1368 0.961 . S
H1355 C1369 0.960 . S
H1356 C1369 0.961 . S
H1357 C1369 0.959 . S
H1358 C1372 0.929 . S
H1359 C1373 0.931 . S
H1360 C1375 0.930 . S
C1361 H1349 0.930 . S
C1361 C1362 1.399 . S
C1361 C1366 1.399 . S
C1362 C1361 1.399 . S
C1362 C1363 1.376 . S
C1363 H1350 0.930 . S
C1363 C1362 1.376 . S
C1363 C1364 1.388 . S
C1364 H1351 0.930 . S
C1364 C1363 1.388 . S
C1364 C1365 1.390 . S
C1365 C1364 1.390 . S
C1365 C1366 1.394 . S
C1365 C1371 1.465 . S
C1366 C1361 1.399 . S
C1366 C1365 1.394 . S
C1366 C1367 1.516 . S
C1367 C1366 1.516 . S
C1367 C1368 1.502 . S
C1367 C1369 1.561 . S
C1367 C1370 1.526 . S
C1368 H1352 0.959 . S
C1368 H1353 0.959 . S
C1368 H1354 0.961 . S
C1368 C1367 1.502 . S
C1369 H1355 0.960 . S
C1369 H1356 0.961 . S
C1369 H1357 0.959 . S
C1369 C1367 1.561 . S
C1370 C1367 1.526 . S
C1370 C1371 1.396 . S
C1370 C1375 1.390 . S
C1371 C1365 1.465 . S
C1371 C1370 1.396 . S
C1371 C1372 1.399 . S
C1372 H1358 0.929 . S
C1372 C1371 1.399 . S
C1372 C1373 1.385 . S
C1373 H1359 0.931 . S
C1373 C1372 1.385 . S
C1373 C1374 1.389 . S
C1374 C1373 1.389 . S
C1374 C1375 1.387 . S
C1375 H1360 0.930 . S
C1375 C1370 1.390 . S
C1375 C1374 1.387 . S
H1376 C1388 0.930 . S
H1377 C1390 0.930 . S
H1378 C1391 0.930 . S
H1379 C1395 0.959 . S
H1380 C1395 0.959 . S
H1381 C1395 0.961 . S
H1382 C1396 0.960 . S
H1383 C1396 0.961 . S
H1384 C1396 0.959 . S
H1385 C1399 0.929 . S
H1386 C1400 0.931 . S
H1387 C1402 0.930 . S
C1388 H1376 0.930 . S
C1388 C1389 1.399 . S
C1388 C1393 1.399 . S
C1389 C1388 1.399 . S
C1389 C1390 1.376 . S
C1390 H1377 0.930 . S
C1390 C1389 1.376 . S
C1390 C1391 1.388 . S
C1391 H1378 0.930 . S
C1391 C1390 1.388 . S
C1391 C1392 1.390 . S
C1392 C1391 1.390 . S
C1392 C1393 1.394 . S
C1392 C1398 1.465 . S
C1393 C1388 1.399 . S
C1393 C1392 1.394 . S
C1393 C1394 1.516 . S
C1394 C1393 1.516 . S
C1394 C1395 1.502 1_455 S
C1394 C1396 1.561 . S
C1394 C1397 1.526 . S
C1395 H1379 0.959 . S
C1395 H1380 0.959 . S
C1395 H1381 0.961 . S
C1395 C1394 1.502 1_655 S
C1396 H1382 0.960 . S
C1396 H1383 0.961 . S
C1396 H1384 0.959 . S
C1396 C1394 1.561 . S
C1397 C1394 1.526 . S
C1397 C1398 1.396 . S
C1397 C1402 1.390 . S
C1398 C1392 1.465 . S
C1398 C1397 1.396 . S
C1398 C1399 1.399 . S
C1399 H1385 0.929 . S
C1399 C1398 1.399 . S
C1399 C1400 1.385 . S
C1400 H1386 0.931 . S
C1400 C1399 1.385 . S
C1400 C1401 1.389 . S
C1401 C1400 1.389 . S
C1401 C1402 1.387 . S
C1402 H1387 0.930 . S
C1402 C1397 1.390 . S
C1402 C1401 1.387 . S
H1403 C1415 0.930 . S
H1404 C1417 0.930 1_565 S
H1405 C1418 0.930 1_565 S
H1406 C1422 0.959 . S
H1407 C1422 0.959 . S
H1408 C1422 0.961 . S
H1409 C1423 0.960 . S
H1410 C1423 0.961 . S
H1411 C1423 0.959 . S
H1412 C1426 0.929 1_565 S
H1413 C1427 0.931 1_565 S
H1414 C1429 0.930 . S
C1415 H1403 0.930 . S
C1415 C1416 1.399 . S
C1415 C1420 1.399 . S
C1416 C1415 1.399 . S
C1416 C1417 1.376 . S
C1417 H1404 0.930 1_545 S
C1417 C1416 1.376 . S
C1417 C1418 1.388 . S
C1418 H1405 0.930 1_545 S
C1418 C1417 1.388 . S
C1418 C1419 1.390 . S
C1419 C1418 1.390 . S
C1419 C1420 1.394 . S
C1419 C1425 1.465 . S
C1420 C1415 1.399 . S
C1420 C1419 1.394 . S
C1420 C1421 1.516 . S
C1421 C1420 1.516 . S
C1421 C1422 1.502 . S
C1421 C1423 1.561 . S
C1421 C1424 1.526 . S
C1422 H1406 0.959 . S
C1422 H1407 0.959 . S
C1422 H1408 0.961 . S
C1422 C1421 1.502 . S
C1423 H1409 0.960 . S
C1423 H1410 0.961 . S
C1423 H1411 0.959 . S
C1423 C1421 1.561 . S
C1424 C1421 1.526 . S
C1424 C1425 1.396 . S
C1424 C1429 1.390 . S
C1425 C1419 1.465 . S
C1425 C1424 1.396 . S
C1425 C1426 1.399 . S
C1426 H1412 0.929 1_545 S
C1426 C1425 1.399 . S
C1426 C1427 1.385 . S
C1427 H1413 0.931 1_545 S
C1427 C1426 1.385 . S
C1427 C1428 1.389 . S
C1428 C1427 1.389 . S
C1428 C1429 1.387 . S
C1429 H1414 0.930 . S
C1429 C1424 1.390 . S
C1429 C1428 1.387 . S
H1430 C1442 0.930 . S
H1431 C1444 0.930 . S
H1432 C1445 0.930 . S
H1433 C1449 0.959 . S
H1434 C1449 0.959 . S
H1435 C1449 0.961 . S
H1436 C1450 0.960 . S
H1437 C1450 0.961 . S
H1438 C1450 0.959 . S
H1439 C1453 0.929 . S
H1440 C1454 0.931 . S
H1441 C1456 0.930 . S
C1442 H1430 0.930 . S
C1442 C1443 1.399 . S
C1442 C1447 1.399 . S
C1443 C1442 1.399 . S
C1443 C1444 1.376 . S
C1444 H1431 0.930 . S
C1444 C1443 1.376 . S
C1444 C1445 1.388 . S
C1445 H1432 0.930 . S
C1445 C1444 1.388 . S
C1445 C1446 1.390 . S
C1446 C1445 1.390 . S
C1446 C1447 1.394 . S
C1446 C1452 1.465 . S
C1447 C1442 1.399 . S
C1447 C1446 1.394 . S
C1447 C1448 1.516 . S
C1448 C1447 1.516 . S
C1448 C1449 1.502 . S
C1448 C1450 1.561 . S
C1448 C1451 1.526 . S
C1449 H1433 0.959 . S
C1449 H1434 0.959 . S
C1449 H1435 0.961 . S
C1449 C1448 1.502 . S
C1450 H1436 0.960 . S
C1450 H1437 0.961 . S
C1450 H1438 0.959 . S
C1450 C1448 1.561 . S
C1451 C1448 1.526 . S
C1451 C1452 1.396 . S
C1451 C1456 1.390 . S
C1452 C1446 1.465 . S
C1452 C1451 1.396 . S
C1452 C1453 1.399 . S
C1453 H1439 0.929 . S
C1453 C1452 1.399 . S
C1453 C1454 1.385 . S
C1454 H1440 0.931 . S
C1454 C1453 1.385 . S
C1454 C1455 1.389 . S
C1455 C1454 1.389 . S
C1455 C1456 1.387 . S
C1456 H1441 0.930 . S
C1456 C1451 1.390 . S
C1456 C1455 1.387 . S
H1457 C1469 0.930 . S
H1458 C1471 0.930 . S
H1459 C1472 0.930 . S
H1460 C1476 0.959 . S
H1461 C1476 0.959 . S
H1462 C1476 0.961 . S
H1463 C1477 0.960 . S
H1464 C1477 0.961 . S
H1465 C1477 0.959 . S
H1466 C1480 0.929 . S
H1467 C1481 0.931 . S
H1468 C1483 0.930 . S
C1469 H1457 0.930 . S
C1469 C1470 1.399 . S
C1469 C1474 1.399 . S
C1470 C1469 1.399 . S
C1470 C1471 1.376 . S
C1471 H1458 0.930 . S
C1471 C1470 1.376 . S
C1471 C1472 1.388 . S
C1472 H1459 0.930 . S
C1472 C1471 1.388 . S
C1472 C1473 1.390 . S
C1473 C1472 1.390 . S
C1473 C1474 1.394 . S
C1473 C1479 1.465 . S
C1474 C1469 1.399 . S
C1474 C1473 1.394 . S
C1474 C1475 1.516 . S
C1475 C1474 1.516 . S
C1475 C1476 1.502 . S
C1475 C1477 1.561 . S
C1475 C1478 1.526 . S
C1476 H1460 0.959 . S
C1476 H1461 0.959 . S
C1476 H1462 0.961 . S
C1476 C1475 1.502 . S
C1477 H1463 0.960 . S
C1477 H1464 0.961 . S
C1477 H1465 0.959 . S
C1477 C1475 1.561 . S
C1478 C1475 1.526 . S
C1478 C1479 1.396 . S
C1478 C1483 1.390 . S
C1479 C1473 1.465 . S
C1479 C1478 1.396 . S
C1479 C1480 1.399 . S
C1480 H1466 0.929 . S
C1480 C1479 1.399 . S
C1480 C1481 1.385 . S
C1481 H1467 0.931 . S
C1481 C1480 1.385 . S
C1481 C1482 1.389 . S
C1482 C1481 1.389 . S
C1482 C1483 1.387 . S
C1483 H1468 0.930 . S
C1483 C1478 1.390 . S
C1483 C1482 1.387 . S
H1484 C1496 0.930 . S
H1485 C1498 0.930 . S
H1486 C1499 0.930 . S
H1487 C1503 0.959 . S
H1488 C1503 0.959 . S
H1489 C1503 0.961 . S
H1490 C1504 0.960 . S
H1491 C1504 0.961 . S
H1492 C1504 0.959 . S
H1493 C1507 0.929 . S
H1494 C1508 0.931 . S
H1495 C1510 0.930 . S
C1496 H1484 0.930 . S
C1496 C1497 1.399 . S
C1496 C1501 1.399 . S
C1497 C1496 1.399 . S
C1497 C1498 1.376 . S
C1498 H1485 0.930 . S
C1498 C1497 1.376 . S
C1498 C1499 1.388 . S
C1499 H1486 0.930 . S
C1499 C1498 1.388 . S
C1499 C1500 1.390 . S
C1500 C1499 1.390 . S
C1500 C1501 1.394 . S
C1500 C1506 1.465 . S
C1501 C1496 1.399 . S
C1501 C1500 1.394 . S
C1501 C1502 1.516 . S
C1502 C1501 1.516 . S
C1502 C1503 1.502 . S
C1502 C1504 1.561 . S
C1502 C1505 1.526 . S
C1503 H1487 0.959 . S
C1503 H1488 0.959 . S
C1503 H1489 0.961 . S
C1503 C1502 1.502 . S
C1504 H1490 0.960 . S
C1504 H1491 0.961 . S
C1504 H1492 0.959 . S
C1504 C1502 1.561 . S
C1505 C1502 1.526 . S
C1505 C1506 1.396 . S
C1505 C1510 1.390 . S
C1506 C1500 1.465 . S
C1506 C1505 1.396 . S
C1506 C1507 1.399 . S
C1507 H1493 0.929 . S
C1507 C1506 1.399 . S
C1507 C1508 1.385 . S
C1508 H1494 0.931 . S
C1508 C1507 1.385 . S
C1508 C1509 1.389 . S
C1509 C1508 1.389 . S
C1509 C1510 1.387 . S
C1510 H1495 0.930 . S
C1510 C1505 1.390 . S
C1510 C1509 1.387 . S
H1511 C1523 0.930 1_545 S
H1512 C1525 0.930 . S
H1513 C1526 0.930 . S
H1514 C1530 0.959 . S
H1515 C1530 0.959 . S
H1516 C1530 0.961 . S
H1517 C1531 0.960 . S
H1518 C1531 0.961 . S
H1519 C1531 0.959 . S
H1520 C1534 0.929 . S
H1521 C1535 0.931 . S
H1522 C1537 0.930 1_545 S
C1523 H1511 0.930 1_565 S
C1523 C1524 1.399 . S
C1523 C1528 1.399 . S
C1524 C1523 1.399 . S
C1524 C1525 1.376 . S
C1525 H1512 0.930 . S
C1525 C1524 1.376 . S
C1525 C1526 1.388 . S
C1526 H1513 0.930 . S
C1526 C1525 1.388 . S
C1526 C1527 1.390 . S
C1527 C1526 1.390 . S
C1527 C1528 1.394 . S
C1527 C1533 1.465 . S
C1528 C1523 1.399 . S
C1528 C1527 1.394 . S
C1528 C1529 1.536 . S
C1529 C1528 1.536 . S
C1529 C1530 1.487 1_565 S
C1529 C1531 1.541 1_565 S
C1529 C1532 1.545 . S
C1530 H1514 0.959 . S
C1530 H1515 0.959 . S
C1530 H1516 0.961 . S
C1530 C1529 1.487 1_545 S
C1531 H1517 0.960 . S
C1531 H1518 0.961 . S
C1531 H1519 0.959 . S
C1531 C1529 1.541 1_545 S
C1532 C1529 1.545 . S
C1532 C1533 1.396 . S
C1532 C1537 1.390 . S
C1533 C1527 1.465 . S
C1533 C1532 1.396 . S
C1533 C1534 1.399 . S
C1534 H1520 0.929 . S
C1534 C1533 1.399 . S
C1534 C1535 1.385 . S
C1535 H1521 0.931 . S
C1535 C1534 1.385 . S
C1535 C1536 1.389 . S
C1536 C1535 1.389 . S
C1536 C1537 1.387 . S
C1537 H1522 0.930 1_565 S
C1537 C1532 1.390 . S
C1537 C1536 1.387 . S
H1538 C1550 0.930 . S
H1539 C1552 0.930 . S
H1540 C1553 0.930 . S
H1541 C1557 0.959 . S
H1542 C1557 0.959 . S
H1543 C1557 0.961 . S
H1544 C1558 0.960 . S
H1545 C1558 0.961 . S
H1546 C1558 0.959 . S
H1547 C1561 0.929 . S
H1548 C1562 0.931 . S
H1549 C1564 0.930 . S
C1550 H1538 0.930 . S
C1550 C1551 1.399 . S
C1550 C1555 1.399 . S
C1551 C1550 1.399 . S
C1551 C1552 1.376 . S
C1552 H1539 0.930 . S
C1552 C1551 1.376 . S
C1552 C1553 1.388 . S
C1553 H1540 0.930 . S
C1553 C1552 1.388 . S
C1553 C1554 1.390 . S
C1554 C1553 1.390 . S
C1554 C1555 1.394 . S
C1554 C1560 1.465 . S
C1555 C1550 1.399 . S
C1555 C1554 1.394 . S
C1555 C1556 1.516 . S
C1556 C1555 1.516 . S
C1556 C1557 1.502 . S
C1556 C1558 1.561 . S
C1556 C1559 1.526 . S
C1557 H1541 0.959 . S
C1557 H1542 0.959 . S
C1557 H1543 0.961 . S
C1557 C1556 1.502 . S
C1558 H1544 0.960 . S
C1558 H1545 0.961 . S
C1558 H1546 0.959 . S
C1558 C1556 1.561 . S
C1559 C1556 1.526 . S
C1559 C1560 1.396 . S
C1559 C1564 1.390 . S
C1560 C1554 1.465 . S
C1560 C1559 1.396 . S
C1560 C1561 1.399 . S
C1561 H1547 0.929 . S
C1561 C1560 1.399 . S
C1561 C1562 1.385 . S
C1562 H1548 0.931 . S
C1562 C1561 1.385 . S
C1562 C1563 1.389 . S
C1563 C1562 1.389 . S
C1563 C1564 1.387 . S
C1564 H1549 0.930 . S
C1564 C1559 1.390 . S
C1564 C1563 1.387 . S
H1565 C1577 0.930 . S
H1566 C1579 0.930 . S
H1567 C1580 0.930 . S
H1568 C1584 0.959 . S
H1569 C1584 0.959 . S
H1570 C1584 0.961 . S
H1571 C1585 0.960 . S
H1572 C1585 0.961 . S
H1573 C1585 0.959 . S
H1574 C1588 0.929 . S
H1575 C1589 0.931 . S
H1576 C1591 0.930 . S
C1577 H1565 0.930 . S
C1577 C1578 1.399 . S
C1577 C1582 1.399 . S
C1578 C1577 1.399 . S
C1578 C1579 1.376 . S
C1579 H1566 0.930 . S
C1579 C1578 1.376 . S
C1579 C1580 1.388 . S
C1580 H1567 0.930 . S
C1580 C1579 1.388 . S
C1580 C1581 1.390 . S
C1581 C1580 1.390 . S
C1581 C1582 1.394 . S
C1581 C1587 1.465 . S
C1582 C1577 1.399 . S
C1582 C1581 1.394 . S
C1582 C1583 1.516 . S
C1583 C1582 1.516 . S
C1583 C1584 1.502 . S
C1583 C1585 1.561 . S
C1583 C1586 1.526 . S
C1584 H1568 0.959 . S
C1584 H1569 0.959 . S
C1584 H1570 0.961 . S
C1584 C1583 1.502 . S
C1585 H1571 0.960 . S
C1585 H1572 0.961 . S
C1585 H1573 0.959 . S
C1585 C1583 1.561 . S
C1586 C1583 1.526 . S
C1586 C1587 1.396 . S
C1586 C1591 1.390 . S
C1587 C1581 1.465 . S
C1587 C1586 1.396 . S
C1587 C1588 1.399 . S
C1588 H1574 0.929 . S
C1588 C1587 1.399 . S
C1588 C1589 1.385 . S
C1589 H1575 0.931 . S
C1589 C1588 1.385 . S
C1589 C1590 1.389 . S
C1590 C1589 1.389 . S
C1590 C1591 1.387 . S
C1591 H1576 0.930 . S
C1591 C1586 1.390 . S
C1591 C1590 1.387 . S
H1592 C1604 0.930 . S
H1593 C1606 0.930 . S
H1594 C1607 0.930 1_556 S
H1595 C1611 0.959 . S
H1596 C1611 0.959 . S
H1597 C1611 0.961 . S
H1598 C1612 0.960 1_554 S
H1599 C1612 0.961 . S
H1600 C1612 0.959 . S
H1601 C1615 0.929 . S
H1602 C1616 0.931 . S
H1603 C1618 0.930 . S
C1604 H1592 0.930 . S
C1604 C1605 1.399 1_655 S
C1604 C1609 1.399 . S
C1605 C1604 1.399 1_455 S
C1605 C1606 1.376 . S
C1606 H1593 0.930 . S
C1606 C1605 1.376 . S
C1606 C1607 1.388 . S
C1607 H1594 0.930 1_554 S
C1607 C1606 1.388 . S
C1607 C1608 1.390 . S
C1608 C1607 1.390 . S
C1608 C1609 1.394 1_455 S
C1608 C1614 1.465 1_554 S
C1609 C1604 1.399 . S
C1609 C1608 1.394 1_655 S
C1609 C1610 1.516 . S
C1610 C1609 1.516 . S
C1610 C1611 1.502 . S
C1610 C1612 1.561 1_554 S
C1610 C1613 1.526 1_554 S
C1611 H1595 0.959 . S
C1611 H1596 0.959 . S
C1611 H1597 0.961 . S
C1611 C1610 1.502 . S
C1612 H1598 0.960 1_556 S
C1612 H1599 0.961 . S
C1612 H1600 0.959 . S
C1612 C1610 1.561 1_556 S
C1613 C1610 1.526 1_556 S
C1613 C1614 1.396 1_655 S
C1613 C1618 1.390 . S
C1614 C1608 1.465 1_556 S
C1614 C1613 1.396 1_455 S
C1614 C1615 1.399 . S
C1615 H1601 0.929 . S
C1615 C1614 1.399 . S
C1615 C1616 1.385 . S
C1616 H1602 0.931 . S
C1616 C1615 1.385 . S
C1616 C1617 1.389 1_455 S
C1617 C1616 1.389 1_655 S
C1617 C1618 1.387 . S
C1618 H1603 0.930 . S
C1618 C1613 1.390 . S
C1618 C1617 1.387 . S
H1619 C1631 0.930 . S
H1620 C1633 0.930 . S
H1621 C1634 0.930 . S
H1622 C1638 0.959 . S
H1623 C1638 0.959 1_554 S
H1624 C1638 0.961 . S
H1625 C1639 0.960 . S
H1626 C1639 0.961 1_655 S
H1627 C1639 0.959 . S
H1628 C1642 0.929 . S
H1629 C1643 0.931 . S
H1630 C1645 0.930 . S
C1631 H1619 0.930 . S
C1631 C1632 1.399 . S
C1631 C1636 1.399 . S
C1632 C1631 1.399 . S
C1632 C1633 1.376 1_565 S
C1633 H1620 0.930 . S
C1633 C1632 1.376 1_545 S
C1633 C1634 1.388 . S
C1634 H1621 0.930 . S
C1634 C1633 1.388 . S
C1634 C1635 1.390 . S
C1635 C1634 1.390 . S
C1635 C1636 1.394 1_545 S
C1635 C1641 1.465 1_456 S
C1636 C1631 1.399 . S
C1636 C1635 1.394 1_565 S
C1636 C1637 1.516 1_456 S
C1637 C1636 1.516 1_654 S
C1637 C1638 1.502 1_554 S
C1637 C1639 1.561 1_655 S
C1637 C1640 1.526 . S
C1638 H1622 0.959 . S
C1638 H1623 0.959 1_556 S
C1638 H1624 0.961 . S
C1638 C1637 1.502 1_556 S
C1639 H1625 0.960 . S
C1639 H1626 0.961 1_455 S
C1639 H1627 0.959 . S
C1639 C1637 1.561 1_455 S
C1640 C1637 1.526 . S
C1640 C1641 1.396 1_565 S
C1640 C1645 1.390 . S
C1641 C1635 1.465 1_654 S
C1641 C1640 1.396 1_545 S
C1641 C1642 1.399 . S
C1642 H1628 0.929 . S
C1642 C1641 1.399 . S
C1642 C1643 1.385 . S
C1643 H1629 0.931 . S
C1643 C1642 1.385 . S
C1643 C1644 1.389 . S
C1644 C1643 1.389 . S
C1644 C1645 1.387 1_545 S
C1645 H1630 0.930 . S
C1645 C1640 1.390 . S
C1645 C1644 1.387 1_565 S
H1646 C1658 0.930 . S
H1647 C1660 0.930 . S
H1648 C1661 0.930 1_545 S
H1649 C1665 0.959 . S
H1650 C1665 0.959 . S
H1651 C1665 0.961 . S
H1652 C1666 0.960 . S
H1653 C1666 0.961 . S
H1654 C1666 0.959 . S
H1655 C1669 0.929 . S
H1656 C1670 0.931 . S
H1657 C1672 0.930 . S
C1658 H1646 0.930 . S
C1658 C1659 1.399 . S
C1658 C1663 1.399 . S
C1659 C1658 1.399 . S
C1659 C1660 1.376 . S
C1660 H1647 0.930 . S
C1660 C1659 1.376 . S
C1660 C1661 1.388 . S
C1661 H1648 0.930 1_565 S
C1661 C1660 1.388 . S
C1661 C1662 1.390 . S
C1662 C1661 1.390 . S
C1662 C1663 1.394 . S
C1662 C1668 1.465 1_565 S
C1663 C1658 1.399 . S
C1663 C1662 1.394 . S
C1663 C1664 1.516 1_554 S
C1664 C1663 1.516 1_556 S
C1664 C1665 1.502 . S
C1664 C1666 1.561 . S
C1664 C1667 1.526 1_565 S
C1665 H1649 0.959 . S
C1665 H1650 0.959 . S
C1665 H1651 0.961 . S
C1665 C1664 1.502 . S
C1666 H1652 0.960 . S
C1666 H1653 0.961 . S
C1666 H1654 0.959 . S
C1666 C1664 1.561 . S
C1667 C1664 1.526 1_545 S
C1667 C1668 1.396 1_556 S
C1667 C1672 1.390 . S
C1668 C1662 1.465 1_545 S
C1668 C1667 1.396 1_554 S
C1668 C1669 1.399 . S
C1669 H1655 0.929 . S
C1669 C1668 1.399 . S
C1669 C1670 1.385 1_554 S
C1670 H1656 0.931 . S
C1670 C1669 1.385 1_556 S
C1670 C1671 1.389 . S
C1671 C1670 1.389 . S
C1671 C1672 1.387 . S
C1672 H1657 0.930 . S
C1672 C1667 1.390 . S
C1672 C1671 1.387 . S
H1673 C1685 0.930 . S
H1674 C1687 0.930 . S
H1675 C1688 0.930 1_554 S
H1676 C1692 0.959 . S
H1677 C1692 0.959 . S
H1678 C1692 0.961 . S
H1679 C1693 0.960 1_556 S
H1680 C1693 0.961 . S
H1681 C1693 0.959 . S
H1682 C1696 0.929 . S
H1683 C1697 0.931 . S
H1684 C1699 0.930 . S
C1685 H1673 0.930 . S
C1685 C1686 1.399 . S
C1685 C1690 1.399 . S
C1686 C1685 1.399 . S
C1686 C1687 1.376 . S
C1687 H1674 0.930 . S
C1687 C1686 1.376 . S
C1687 C1688 1.388 . S
C1688 H1675 0.930 1_556 S
C1688 C1687 1.388 . S
C1688 C1689 1.390 . S
C1689 C1688 1.390 . S
C1689 C1690 1.394 . S
C1689 C1695 1.465 1_556 S
C1690 C1685 1.399 . S
C1690 C1689 1.394 . S
C1690 C1691 1.516 . S
C1691 C1690 1.516 . S
C1691 C1692 1.502 . S
C1691 C1693 1.561 1_556 S
C1691 C1694 1.526 1_556 S
C1692 H1676 0.959 . S
C1692 H1677 0.959 . S
C1692 H1678 0.961 . S
C1692 C1691 1.502 . S
C1693 H1679 0.960 1_554 S
C1693 H1680 0.961 . S
C1693 H1681 0.959 . S
C1693 C1691 1.561 1_554 S
C1694 C1691 1.526 1_554 S
C1694 C1695 1.396 . S
C1694 C1699 1.390 . S
C1695 C1689 1.465 1_554 S
C1695 C1694 1.396 . S
C1695 C1696 1.399 . S
C1696 H1682 0.929 . S
C1696 C1695 1.399 . S
C1696 C1697 1.385 . S
C1697 H1683 0.931 . S
C1697 C1696 1.385 . S
C1697 C1698 1.389 . S
C1698 C1697 1.389 . S
C1698 C1699 1.387 . S
C1699 H1684 0.930 . S
C1699 C1694 1.390 . S
C1699 C1698 1.387 . S
H1700 C1712 0.926 1_655 S
H1701 C1714 0.930 . S
H1702 C1715 0.930 1_545 S
H1703 C1719 0.959 . S
H1704 C1719 0.959 . S
H1705 C1719 0.961 . S
H1706 C1720 0.960 . S
H1707 C1720 0.961 . S
H1708 C1720 0.959 . S
H1709 C1723 0.929 . S
H1710 C1724 0.932 . S
H1711 C1726 0.930 . S
C1712 H1700 0.926 1_455 S
C1712 C1713 1.399 . S
C1712 C1717 1.399 . S
C1713 C1712 1.399 . S
C1713 C1714 1.376 . S
C1714 H1701 0.930 . S
C1714 C1713 1.376 . S
C1714 C1715 1.388 . S
C1715 H1702 0.930 1_565 S
C1715 C1714 1.388 . S
C1715 C1716 1.390 . S
C1716 C1715 1.390 . S
C1716 C1717 1.394 . S
C1716 C1722 1.465 1_565 S
C1717 C1712 1.399 . S
C1717 C1716 1.394 . S
C1717 C1718 1.516 1_455 S
C1718 C1717 1.516 1_655 S
C1718 C1719 1.502 . S
C1718 C1720 1.561 1_655 S
C1718 C1721 1.526 1_565 S
C1719 H1703 0.959 . S
C1719 H1704 0.959 . S
C1719 H1705 0.961 . S
C1719 C1718 1.502 . S
C1720 H1706 0.960 . S
C1720 H1707 0.961 . S
C1720 H1708 0.959 . S
C1720 C1718 1.561 1_455 S
C1721 C1718 1.526 1_545 S
C1721 C1722 1.396 1_655 S
C1721 C1726 1.390 . S
C1722 C1716 1.465 1_545 S
C1722 C1721 1.396 1_455 S
C1722 C1723 1.399 . S
C1723 H1709 0.929 . S
C1723 C1722 1.399 . S
C1723 C1724 1.385 1_455 S
C1724 H1710 0.932 . S
C1724 C1723 1.385 1_655 S
C1724 C1725 1.389 . S
C1725 C1724 1.389 . S
C1725 C1726 1.387 . S
C1726 H1711 0.930 . S
C1726 C1721 1.390 . S
C1726 C1725 1.387 . S
H1727 C1739 0.930 . S
H1728 C1741 0.930 . S
H1729 C1742 0.930 . S
H1730 C1746 0.959 1_545 S
H1731 C1746 0.959 . S
H1732 C1746 0.961 . S
H1733 C1747 0.960 . S
H1734 C1747 0.961 . S
H1735 C1747 0.959 . S
H1736 C1750 0.929 . S
H1737 C1751 0.931 . S
H1738 C1753 0.930 . S
C1739 H1727 0.930 . S
C1739 C1740 1.399 . S
C1739 C1744 1.399 1_545 S
C1740 C1739 1.399 . S
C1740 C1741 1.376 . S
C1741 H1728 0.930 . S
C1741 C1740 1.376 . S
C1741 C1742 1.388 . S
C1742 H1729 0.930 . S
C1742 C1741 1.388 . S
C1742 C1743 1.390 . S
C1743 C1742 1.390 . S
C1743 C1744 1.394 1_545 S
C1743 C1749 1.465 1_545 S
C1744 C1739 1.399 1_565 S
C1744 C1743 1.394 1_565 S
C1744 C1745 1.516 . S
C1745 C1744 1.516 . S
C1745 C1746 1.502 . S
C1745 C1747 1.561 . S
C1745 C1748 1.526 . S
C1746 H1730 0.959 1_565 S
C1746 H1731 0.959 . S
C1746 H1732 0.961 . S
C1746 C1745 1.502 . S
C1747 H1733 0.960 . S
C1747 H1734 0.961 . S
C1747 H1735 0.959 . S
C1747 C1745 1.561 . S
C1748 C1745 1.526 . S
C1748 C1749 1.396 . S
C1748 C1753 1.390 . S
C1749 C1743 1.465 1_565 S
C1749 C1748 1.396 . S
C1749 C1750 1.399 1_565 S
C1750 H1736 0.929 . S
C1750 C1749 1.399 1_545 S
C1750 C1751 1.385 1_545 S
C1751 H1737 0.931 . S
C1751 C1750 1.385 1_565 S
C1751 C1752 1.389 . S
C1752 C1751 1.389 . S
C1752 C1753 1.387 . S
C1753 H1738 0.930 . S
C1753 C1748 1.390 . S
C1753 C1752 1.387 . S
H1754 C1766 0.930 . S
H1755 C1768 0.930 . S
H1756 C1769 0.930 . S
H1757 C1773 0.959 . S
H1758 C1773 0.959 . S
H1759 C1773 0.961 . S
H1760 C1774 0.960 . S
H1761 C1774 0.961 . S
H1762 C1774 0.959 . S
H1763 C1777 0.929 . S
H1764 C1778 0.931 . S
H1765 C1780 0.930 . S
C1766 H1754 0.930 . S
C1766 C1767 1.399 . S
C1766 C1771 1.399 . S
C1767 C1766 1.399 . S
C1767 C1768 1.376 . S
C1768 H1755 0.930 . S
C1768 C1767 1.376 . S
C1768 C1769 1.388 . S
C1769 H1756 0.930 . S
C1769 C1768 1.388 . S
C1769 C1770 1.390 . S
C1770 C1769 1.390 . S
C1770 C1771 1.394 . S
C1770 C1776 1.465 . S
C1771 C1766 1.399 . S
C1771 C1770 1.394 . S
C1771 C1772 1.516 . S
C1772 C1771 1.516 . S
C1772 C1773 1.502 . S
C1772 C1774 1.561 . S
C1772 C1775 1.526 . S
C1773 H1757 0.959 . S
C1773 H1758 0.959 . S
C1773 H1759 0.961 . S
C1773 C1772 1.502 . S
C1774 H1760 0.960 . S
C1774 H1761 0.961 . S
C1774 H1762 0.959 . S
C1774 C1772 1.561 . S
C1775 C1772 1.526 . S
C1775 C1776 1.396 . S
C1775 C1780 1.390 . S
C1776 C1770 1.465 . S
C1776 C1775 1.396 . S
C1776 C1777 1.399 . S
C1777 H1763 0.929 . S
C1777 C1776 1.399 . S
C1777 C1778 1.385 . S
C1778 H1764 0.931 . S
C1778 C1777 1.385 . S
C1778 C1779 1.389 . S
C1779 C1778 1.389 . S
C1779 C1780 1.387 . S
C1780 H1765 0.930 . S
C1780 C1775 1.390 . S
C1780 C1779 1.387 . S
H1781 C1793 0.930 . S
H1782 C1795 0.930 . S
H1783 C1796 0.930 . S
H1784 C1800 0.959 . S
H1785 C1800 0.959 . S
H1786 C1800 0.961 . S
H1787 C1801 0.960 . S
H1788 C1801 0.961 1_455 S
H1789 C1801 0.959 . S
H1790 C1804 0.929 . S
H1791 C1805 0.931 . S
H1792 C1807 0.930 . S
C1793 H1781 0.930 . S
C1793 C1794 1.399 . S
C1793 C1798 1.399 . S
C1794 C1793 1.399 . S
C1794 C1795 1.376 . S
C1795 H1782 0.930 . S
C1795 C1794 1.376 . S
C1795 C1796 1.388 . S
C1796 H1783 0.930 . S
C1796 C1795 1.388 . S
C1796 C1797 1.390 . S
C1797 C1796 1.390 . S
C1797 C1798 1.394 . S
C1797 C1803 1.465 1_655 S
C1798 C1793 1.399 . S
C1798 C1797 1.394 . S
C1798 C1799 1.516 1_655 S
C1799 C1798 1.516 1_455 S
C1799 C1800 1.502 . S
C1799 C1801 1.561 1_455 S
C1799 C1802 1.526 . S
C1800 H1784 0.959 . S
C1800 H1785 0.959 . S
C1800 H1786 0.961 . S
C1800 C1799 1.502 . S
C1801 H1787 0.960 . S
C1801 H1788 0.961 1_655 S
C1801 H1789 0.959 . S
C1801 C1799 1.561 1_655 S
C1802 C1799 1.526 . S
C1802 C1803 1.396 . S
C1802 C1807 1.390 . S
C1803 C1797 1.465 1_455 S
C1803 C1802 1.396 . S
C1803 C1804 1.399 . S
C1804 H1790 0.929 . S
C1804 C1803 1.399 . S
C1804 C1805 1.385 . S
C1805 H1791 0.931 . S
C1805 C1804 1.385 . S
C1805 C1806 1.389 . S
C1806 C1805 1.389 . S
C1806 C1807 1.387 . S
C1807 H1792 0.930 . S
C1807 C1802 1.390 . S
C1807 C1806 1.387 . S
C957 C33 1.687 . S
C969 C151 1.672 . S
C984 C92 1.644 . S
C996 C210 1.662 . S
C1011 C269 1.644 . S
C1023 C387 1.663 . S
C1038 C446 1.644 . S
C1050 C328 1.662 . S
C1065 C505 1.675 . S
C1077 C623 1.678 . S
C1092 C682 1.662 . S
C1104 C564 1.686 . S
C1119 C859 1.666 . S
C1131 C741 1.648 . S
C1146 C918 1.661 . S
C1158 C800 1.687 . S
C1173 C416 0.872 . S
C1185 C3 0.805 . S
C1200 C62 0.844 1_565 S
C1212 C239 0.815 . S
C1227 C298 0.931 . S
C1239 C121 0.888 . S
C1254 C180 0.914 . S
C1266 C357 0.911 . S
C1281 C888 0.808 . S
C1293 C475 0.888 1_455 S
C1308 C534 0.939 . S
C1320 C711 0.816 . S
C1335 C593 0.898 . S
C1347 C770 0.890 . S
C1362 C829 0.800 . S
C1374 C652 0.928 . S
C1389 C52 1.068 . S
C1401 C288 0.942 . S
C1416 C111 1.082 . S
C1428 C347 0.986 . S
C1443 C406 0.977 . S
C1455 C170 1.085 . S
C1470 C229 1.082 . S
C1482 C465 0.985 . S
C1497 C760 1.079 . S
C1509 C524 0.951 . S
C1524 C819 1.062 . S
C1536 C583 0.981 . S
C1551 C642 0.958 . S
C1563 C878 1.079 . S
C1578 C701 1.084 . S
C1590 C937 0.954 . S
C1605 C5 1.867 . S
C1617 C477 1.847 . S
C1632 C536 1.867 . S
C1644 C64 1.846 . S
C1659 C123 1.824 . S
C1671 C595 1.882 . S
C1686 C654 1.881 . S
C1698 C182 1.828 . S
C1713 C241 1.827 . S
C1725 C713 1.881 . S
C1740 C300 1.883 . S
C1752 C772 1.825 . S
C1767 C831 1.865 . S
C1779 C359 1.832 . S
C1794 C418 1.877 . S
C1806 C890 1.834 . S
