# Generated by pormake.
# Topology uoa, (4)-cn, num edge types: 1
# Building blocks:
#     Node 0, Type 0, BuildingBlock: NAWXER_clean_sbu_0, # of connection points: 4
#     Node 1, Type 0, BuildingBlock: NAWXER_clean_sbu_0, # of connection points: 4
#     Node 2, Type 0, BuildingBlock: NAWXER_clean_sbu_0, # of connection points: 4
#     Node 3, Type 0, BuildingBlock: NAWXER_clean_sbu_0, # of connection points: 4
#     Node 4, Type 0, BuildingBlock: NAWXER_clean_sbu_0, # of connection points: 4
#     Node 5, Type 0, BuildingBlock: NAWXER_clean_sbu_0, # of connection points: 4
#     Node 6, Type 0, BuildingBlock: NAWXER_clean_sbu_0, # of connection points: 4
#     Node 7, Type 0, BuildingBlock: NAWXER_clean_sbu_0, # of connection points: 4
#     Node 8, Type 0, BuildingBlock: NAWXER_clean_sbu_0, # of connection points: 4
#     Node 9, Type 0, BuildingBlock: NAWXER_clean_sbu_0, # of connection points: 4
#     Node 10, Type 0, BuildingBlock: NAWXER_clean_sbu_0, # of connection points: 4
#     Node 11, Type 0, BuildingBlock: NAWXER_clean_sbu_0, # of connection points: 4
#     Node 12, Type 0, BuildingBlock: NAWXER_clean_sbu_0, # of connection points: 4
#     Node 13, Type 0, BuildingBlock: NAWXER_clean_sbu_0, # of connection points: 4
#     Node 14, Type 0, BuildingBlock: NAWXER_clean_sbu_0, # of connection points: 4
#     Node 15, Type 0, BuildingBlock: NAWXER_clean_sbu_0, # of connection points: 4
#     Node 16, Type 0, BuildingBlock: NAWXER_clean_sbu_0, # of connection points: 4
#     Node 17, Type 0, BuildingBlock: NAWXER_clean_sbu_0, # of connection points: 4
#     Node 18, Type 0, BuildingBlock: NAWXER_clean_sbu_0, # of connection points: 4
#     Node 19, Type 0, BuildingBlock: NAWXER_clean_sbu_0, # of connection points: 4
#     Node 20, Type 0, BuildingBlock: NAWXER_clean_sbu_0, # of connection points: 4
#     Node 21, Type 0, BuildingBlock: NAWXER_clean_sbu_0, # of connection points: 4
#     Node 22, Type 0, BuildingBlock: NAWXER_clean_sbu_0, # of connection points: 4
#     Node 23, Type 0, BuildingBlock: NAWXER_clean_sbu_0, # of connection points: 4
#     Node 24, Type 0, BuildingBlock: NAWXER_clean_sbu_0, # of connection points: 4
#     Node 25, Type 0, BuildingBlock: NAWXER_clean_sbu_0, # of connection points: 4
#     Node 26, Type 0, BuildingBlock: NAWXER_clean_sbu_0, # of connection points: 4
#     Node 27, Type 0, BuildingBlock: NAWXER_clean_sbu_0, # of connection points: 4
#     Node 28, Type 0, BuildingBlock: NAWXER_clean_sbu_0, # of connection points: 4
#     Node 29, Type 0, BuildingBlock: NAWXER_clean_sbu_0, # of connection points: 4
#     Node 30, Type 0, BuildingBlock: NAWXER_clean_sbu_0, # of connection points: 4
#     Node 31, Type 0, BuildingBlock: NAWXER_clean_sbu_0, # of connection points: 4
#     Edge 32, Type (0, 0), BuildingBlock: ZUJKAS_clean_linker_0, # of connection points: 2
#     Edge 33, Type (0, 0), BuildingBlock: ZUJKAS_clean_linker_0, # of connection points: 2
#     Edge 34, Type (0, 0), BuildingBlock: ZUJKAS_clean_linker_0, # of connection points: 2
#     Edge 35, Type (0, 0), BuildingBlock: ZUJKAS_clean_linker_0, # of connection points: 2
#     Edge 36, Type (0, 0), BuildingBlock: ZUJKAS_clean_linker_0, # of connection points: 2
#     Edge 37, Type (0, 0), BuildingBlock: ZUJKAS_clean_linker_0, # of connection points: 2
#     Edge 38, Type (0, 0), BuildingBlock: ZUJKAS_clean_linker_0, # of connection points: 2
#     Edge 39, Type (0, 0), BuildingBlock: ZUJKAS_clean_linker_0, # of connection points: 2
#     Edge 40, Type (0, 0), BuildingBlock: ZUJKAS_clean_linker_0, # of connection points: 2
#     Edge 41, Type (0, 0), BuildingBlock: ZUJKAS_clean_linker_0, # of connection points: 2
#     Edge 42, Type (0, 0), BuildingBlock: ZUJKAS_clean_linker_0, # of connection points: 2
#     Edge 43, Type (0, 0), BuildingBlock: ZUJKAS_clean_linker_0, # of connection points: 2
#     Edge 44, Type (0, 0), BuildingBlock: ZUJKAS_clean_linker_0, # of connection points: 2
#     Edge 45, Type (0, 0), BuildingBlock: ZUJKAS_clean_linker_0, # of connection points: 2
#     Edge 46, Type (0, 0), BuildingBlock: ZUJKAS_clean_linker_0, # of connection points: 2
#     Edge 47, Type (0, 0), BuildingBlock: ZUJKAS_clean_linker_0, # of connection points: 2
#     Edge 48, Type (0, 0), BuildingBlock: ZUJKAS_clean_linker_0, # of connection points: 2
#     Edge 49, Type (0, 0), BuildingBlock: ZUJKAS_clean_linker_0, # of connection points: 2
#     Edge 50, Type (0, 0), BuildingBlock: ZUJKAS_clean_linker_0, # of connection points: 2
#     Edge 51, Type (0, 0), BuildingBlock: ZUJKAS_clean_linker_0, # of connection points: 2
#     Edge 52, Type (0, 0), BuildingBlock: ZUJKAS_clean_linker_0, # of connection points: 2
#     Edge 53, Type (0, 0), BuildingBlock: ZUJKAS_clean_linker_0, # of connection points: 2
#     Edge 54, Type (0, 0), BuildingBlock: ZUJKAS_clean_linker_0, # of connection points: 2
#     Edge 55, Type (0, 0), BuildingBlock: ZUJKAS_clean_linker_0, # of connection points: 2
#     Edge 56, Type (0, 0), BuildingBlock: ZUJKAS_clean_linker_0, # of connection points: 2
#     Edge 57, Type (0, 0), BuildingBlock: ZUJKAS_clean_linker_0, # of connection points: 2
#     Edge 58, Type (0, 0), BuildingBlock: ZUJKAS_clean_linker_0, # of connection points: 2
#     Edge 59, Type (0, 0), BuildingBlock: ZUJKAS_clean_linker_0, # of connection points: 2
#     Edge 60, Type (0, 0), BuildingBlock: ZUJKAS_clean_linker_0, # of connection points: 2
#     Edge 61, Type (0, 0), BuildingBlock: ZUJKAS_clean_linker_0, # of connection points: 2
#     Edge 62, Type (0, 0), BuildingBlock: ZUJKAS_clean_linker_0, # of connection points: 2
#     Edge 63, Type (0, 0), BuildingBlock: ZUJKAS_clean_linker_0, # of connection points: 2
#     Edge 64, Type (0, 0), BuildingBlock: ZUJKAS_clean_linker_0, # of connection points: 2
#     Edge 65, Type (0, 0), BuildingBlock: ZUJKAS_clean_linker_0, # of connection points: 2
#     Edge 66, Type (0, 0), BuildingBlock: ZUJKAS_clean_linker_0, # of connection points: 2
#     Edge 67, Type (0, 0), BuildingBlock: ZUJKAS_clean_linker_0, # of connection points: 2
#     Edge 68, Type (0, 0), BuildingBlock: ZUJKAS_clean_linker_0, # of connection points: 2
#     Edge 69, Type (0, 0), BuildingBlock: ZUJKAS_clean_linker_0, # of connection points: 2
#     Edge 70, Type (0, 0), BuildingBlock: ZUJKAS_clean_linker_0, # of connection points: 2
#     Edge 71, Type (0, 0), BuildingBlock: ZUJKAS_clean_linker_0, # of connection points: 2
#     Edge 72, Type (0, 0), BuildingBlock: ZUJKAS_clean_linker_0, # of connection points: 2
#     Edge 73, Type (0, 0), BuildingBlock: ZUJKAS_clean_linker_0, # of connection points: 2
#     Edge 74, Type (0, 0), BuildingBlock: ZUJKAS_clean_linker_0, # of connection points: 2
#     Edge 75, Type (0, 0), BuildingBlock: ZUJKAS_clean_linker_0, # of connection points: 2
#     Edge 76, Type (0, 0), BuildingBlock: ZUJKAS_clean_linker_0, # of connection points: 2
#     Edge 77, Type (0, 0), BuildingBlock: ZUJKAS_clean_linker_0, # of connection points: 2
#     Edge 78, Type (0, 0), BuildingBlock: ZUJKAS_clean_linker_0, # of connection points: 2
#     Edge 79, Type (0, 0), BuildingBlock: ZUJKAS_clean_linker_0, # of connection points: 2
#     Edge 80, Type (0, 0), BuildingBlock: ZUJKAS_clean_linker_0, # of connection points: 2
#     Edge 81, Type (0, 0), BuildingBlock: ZUJKAS_clean_linker_0, # of connection points: 2
#     Edge 82, Type (0, 0), BuildingBlock: ZUJKAS_clean_linker_0, # of connection points: 2
#     Edge 83, Type (0, 0), BuildingBlock: ZUJKAS_clean_linker_0, # of connection points: 2
#     Edge 84, Type (0, 0), BuildingBlock: ZUJKAS_clean_linker_0, # of connection points: 2
#     Edge 85, Type (0, 0), BuildingBlock: ZUJKAS_clean_linker_0, # of connection points: 2
#     Edge 86, Type (0, 0), BuildingBlock: ZUJKAS_clean_linker_0, # of connection points: 2
#     Edge 87, Type (0, 0), BuildingBlock: ZUJKAS_clean_linker_0, # of connection points: 2
#     Edge 88, Type (0, 0), BuildingBlock: ZUJKAS_clean_linker_0, # of connection points: 2
#     Edge 89, Type (0, 0), BuildingBlock: ZUJKAS_clean_linker_0, # of connection points: 2
#     Edge 90, Type (0, 0), BuildingBlock: ZUJKAS_clean_linker_0, # of connection points: 2
#     Edge 91, Type (0, 0), BuildingBlock: ZUJKAS_clean_linker_0, # of connection points: 2
#     Edge 92, Type (0, 0), BuildingBlock: ZUJKAS_clean_linker_0, # of connection points: 2
#     Edge 93, Type (0, 0), BuildingBlock: ZUJKAS_clean_linker_0, # of connection points: 2
#     Edge 94, Type (0, 0), BuildingBlock: ZUJKAS_clean_linker_0, # of connection points: 2
#     Edge 95, Type (0, 0), BuildingBlock: ZUJKAS_clean_linker_0, # of connection points: 2
# Relax obj value: 0.037
# Max RMSD: 0.224
# Mean RMSD: 0.224
data_MOF--net-uoa--node1-NAWXER_clean_sbu_0--edge1-ZUJKAS_clean_linker_0
_symmetry_space_group_name_H-M    P1
_symmetry_Int_Tables_number       1
_symmetry_cell_setting            triclinic
loop_
_symmetry_equiv_pos_as_xyz
'x, y, z'
_cell_length_a     97.880269
_cell_length_b     97.885516
_cell_length_c     38.117698
_cell_angle_alpha  89.999821
_cell_angle_beta   90.001112
_cell_angle_gamma 89.992615
loop_
_atom_site_label
_atom_site_type_symbol
_atom_site_fract_x
_atom_site_fract_y
_atom_site_fract_z
_atom_type_partial_charge
C0 C 0.01103 0.10133 0.99349 0.0
C1 C 0.00517 0.09821 0.12019 0.0
O2 O 0.02099 0.09503 0.00823 0.0
Zn3 Zn 0.02704 0.08979 0.06098 0.0
O4 O 0.00153 0.10629 0.01226 0.0
Zn5 Zn 0.00829 0.09997 0.0569 0.0
O6 O 0.02574 0.11306 0.06603 0.0
O7 O 0.04371 0.09951 0.06758 0.0
O8 O 0.99715 0.10339 0.09764 0.0
O9 O 0.01646 0.09285 0.10998 0.0
O10 O 0.02861 0.07046 0.05828 0.0
O11 O 0.00748 0.07784 0.05121 0.0
C12 C 0.03868 0.11142 0.06955 0.0
C13 C 0.01611 0.06795 0.0523 0.0
C14 C 0.18083 0.77009 0.30027 0.0
C15 C 0.13567 0.78902 0.31857 0.0
O16 O 0.17169 0.76067 0.30042 0.0
Zn17 Zn 0.14969 0.75961 0.30716 0.0
O18 O 0.17732 0.7824 0.30539 0.0
Zn19 Zn 0.15814 0.77925 0.30937 0.0
O20 O 0.15627 0.76897 0.35938 0.0
O21 O 0.14755 0.74863 0.34862 0.0
O22 O 0.14705 0.79509 0.31519 0.0
O23 O 0.13517 0.77594 0.31623 0.0
O24 O 0.14378 0.7518 0.26333 0.0
O25 O 0.15284 0.77228 0.25743 0.0
C26 C 0.15202 0.75734 0.37048 0.0
C27 C 0.14747 0.76159 0.24365 0.0
C28 C 0.49189 0.90115 0.62182 0.0
C29 C 0.48684 0.89784 0.49492 0.0
O30 O 0.48072 0.90661 0.61111 0.0
Zn31 Zn 0.47051 0.9097 0.56158 0.0
O32 O 0.50002 0.89588 0.59965 0.0
Zn33 Zn 0.48921 0.89941 0.55843 0.0
O34 O 0.49028 0.92148 0.55271 0.0
O35 O 0.46917 0.92907 0.55841 0.0
O36 O 0.49633 0.89314 0.51417 0.0
O37 O 0.47674 0.90408 0.50922 0.0
O38 O 0.45371 0.9002 0.56774 0.0
O39 O 0.47155 0.88646 0.56678 0.0
C40 C 0.48174 0.93146 0.55318 0.0
C41 C 0.4586 0.88824 0.56986 0.0
C42 C 0.31738 0.23032 0.80077 0.0
C43 C 0.36113 0.20873 0.82135 0.0
O44 O 0.32707 0.23918 0.80051 0.0
Zn45 Zn 0.3491 0.23888 0.80752 0.0
O46 O 0.32014 0.21787 0.8066 0.0
Zn47 Zn 0.33942 0.21986 0.81077 0.0
O48 O 0.34181 0.23043 0.86011 0.0
O49 O 0.35186 0.25006 0.84855 0.0
O50 O 0.34937 0.20343 0.81831 0.0
O51 O 0.36254 0.2217 0.81777 0.0
O52 O 0.35555 0.2459 0.76327 0.0
O53 O 0.34533 0.22592 0.75851 0.0
C54 C 0.34678 0.24183 0.87075 0.0
C55 C 0.35136 0.23614 0.74415 0.0
C56 C 0.03884 0.88587 0.43583 0.0
C57 C 0.0196 0.93103 0.4524 0.0
O58 O 0.02576 0.88534 0.43776 0.0
Zn59 Zn 0.00934 0.89981 0.44603 0.0
O60 O 0.04487 0.89726 0.43925 0.0
Zn61 Zn 0.02896 0.90834 0.44436 0.0
O62 O 0.02173 0.90319 0.49612 0.0
O63 O 0.00132 0.89402 0.48964 0.0
O64 O 0.03198 0.92756 0.44802 0.0
O65 O 0.01024 0.92183 0.45211 0.0
O66 O 0.99858 0.89748 0.40434 0.0
O67 O 0.01893 0.90628 0.39407 0.0
C68 C 0.01099 0.89781 0.5096 0.0
C69 C 0.00737 0.90194 0.38269 0.0
C70 C 0.35177 0.76219 0.75745 0.0
C71 C 0.34703 0.75512 0.63153 0.0
O72 O 0.34497 0.77184 0.74283 0.0
Zn73 Zn 0.33881 0.77726 0.69026 0.0
O74 O 0.35674 0.7527 0.73865 0.0
Zn75 Zn 0.34962 0.75889 0.69431 0.0
O76 O 0.36201 0.7766 0.68288 0.0
O77 O 0.34793 0.79415 0.68143 0.0
O78 O 0.35302 0.74758 0.65386 0.0
O79 O 0.34131 0.76624 0.64163 0.0
O80 O 0.31953 0.77835 0.69473 0.0
O81 O 0.32755 0.75744 0.70182 0.0
C82 C 0.35994 0.78944 0.67857 0.0
C83 C 0.31742 0.76582 0.70127 0.0
C84 C 0.48802 0.101 0.00845 0.0
C85 C 0.49254 0.09744 0.88158 0.0
O86 O 0.47771 0.095 0.99448 0.0
Zn87 Zn 0.47115 0.08948 0.94235 0.0
O88 O 0.49755 0.10542 0.98894 0.0
Zn89 Zn 0.49013 0.09929 0.94494 0.0
O90 O 0.47279 0.11268 0.93672 0.0
O91 O 0.45459 0.09941 0.93647 0.0
O92 O 0.5009 0.10248 0.90352 0.0
O93 O 0.48126 0.0923 0.89258 0.0
O94 O 0.46936 0.07014 0.94565 0.0
O95 O 0.49066 0.07722 0.95069 0.0
C96 C 0.45979 0.11124 0.93396 0.0
C97 C 0.4819 0.06745 0.95049 0.0
C98 C 0.15198 0.24222 0.1306 0.0
C99 C 0.14755 0.23612 0.25713 0.0
O100 O 0.15704 0.23082 0.14099 0.0
Zn101 Zn 0.15951 0.22011 0.19011 0.0
O102 O 0.14683 0.25034 0.15297 0.0
Zn103 Zn 0.14973 0.23907 0.19378 0.0
O104 O 0.17178 0.23947 0.20045 0.0
O105 O 0.1788 0.2182 0.19406 0.0
O106 O 0.14331 0.24593 0.23823 0.0
O107 O 0.15362 0.22599 0.24253 0.0
O108 O 0.14965 0.20366 0.18231 0.0
O109 O 0.13638 0.22186 0.18337 0.0
C110 C 0.18151 0.23066 0.19994 0.0
C111 C 0.13785 0.2089 0.17953 0.0
C112 C 0.98666 0.89813 0.00964 0.0
C113 C 0.99039 0.90175 0.88265 0.0
O114 O 0.99617 0.89392 0.98975 0.0
Zn115 Zn 0.98834 0.89988 0.94611 0.0
O116 O 0.97612 0.90388 0.99606 0.0
Zn117 Zn 0.96912 0.9092 0.94411 0.0
O118 O 0.95278 0.89887 0.93904 0.0
O119 O 0.97129 0.88604 0.93862 0.0
O120 O 0.97902 0.9066 0.89395 0.0
O121 O 0.99898 0.89698 0.90438 0.0
O122 O 0.98832 0.92195 0.9521 0.0
O123 O 0.96682 0.92848 0.94745 0.0
C124 C 0.95825 0.88717 0.93643 0.0
C125 C 0.97929 0.93149 0.95214 0.0
C126 C 0.85116 0.23705 0.75849 0.0
C127 C 0.84684 0.24106 0.63173 0.0
O128 O 0.8554 0.24656 0.73861 0.0
Zn129 Zn 0.84897 0.23896 0.69509 0.0
O130 O 0.84507 0.2267 0.745 0.0
Zn131 Zn 0.83912 0.21999 0.69336 0.0
O132 O 0.84895 0.20336 0.68753 0.0
O133 O 0.86227 0.22153 0.68688 0.0
O134 O 0.84173 0.22985 0.64322 0.0
O135 O 0.85196 0.24953 0.65327 0.0
O136 O 0.82696 0.23959 0.70176 0.0
O137 O 0.81979 0.21829 0.69759 0.0
C138 C 0.86077 0.20853 0.68449 0.0
C139 C 0.81717 0.23085 0.70223 0.0
C140 C 0.50795 0.09654 0.38166 0.0
C141 C 0.51231 0.10098 0.50837 0.0
O142 O 0.49934 0.10123 0.40349 0.0
Zn143 Zn 0.51024 0.09877 0.44492 0.0
O144 O 0.51945 0.09196 0.39279 0.0
Zn145 Zn 0.52966 0.08978 0.44279 0.0
O146 O 0.53223 0.07051 0.44681 0.0
O147 O 0.51066 0.07677 0.45143 0.0
O148 O 0.52285 0.09532 0.49463 0.0
O149 O 0.50259 0.10487 0.4887 0.0
O150 O 0.52696 0.1128 0.4358 0.0
O151 O 0.5458 0.10044 0.43688 0.0
C152 C 0.5198 0.06735 0.45165 0.0
C153 C 0.54002 0.11196 0.43342 0.0
C154 C 0.63606 0.78847 0.18304 0.0
C155 C 0.68024 0.7675 0.20181 0.0
O156 O 0.64775 0.79395 0.18572 0.0
Zn157 Zn 0.65806 0.77762 0.19258 0.0
O158 O 0.6349 0.77548 0.18637 0.0
Zn159 Zn 0.64851 0.75855 0.19622 0.0
O160 O 0.64215 0.75158 0.24055 0.0
O161 O 0.65279 0.77136 0.24516 0.0
O162 O 0.67067 0.7585 0.20251 0.0
O163 O 0.67728 0.77991 0.19594 0.0
O164 O 0.65576 0.76686 0.14342 0.0
O165 O 0.64548 0.74735 0.15548 0.0
C166 C 0.6467 0.7612 0.25958 0.0
C167 C 0.65068 0.75545 0.13315 0.0
C168 C 0.95926 0.11051 0.57176 0.0
C169 C 0.98238 0.06763 0.54982 0.0
O170 O 0.95439 0.09856 0.56912 0.0
Zn171 Zn 0.97113 0.08922 0.56028 0.0
O172 O 0.97213 0.1124 0.56737 0.0
Zn173 Zn 0.98971 0.0997 0.5563 0.0
O174 O 0.99616 0.10645 0.51183 0.0
O175 O 0.97656 0.09548 0.50787 0.0
O176 O 0.99087 0.07765 0.54943 0.0
O177 O 0.96984 0.06992 0.55574 0.0
O178 O 0.98212 0.09166 0.60897 0.0
O179 O 0.00097 0.10308 0.59684 0.0
C180 C 0.98642 0.10193 0.49312 0.0
C181 C 0.9933 0.09725 0.61914 0.0
C182 C 0.65174 0.24062 0.36555 0.0
C183 C 0.64732 0.23749 0.23873 0.0
O184 O 0.64699 0.24942 0.34432 0.0
Zn185 Zn 0.64951 0.23895 0.30224 0.0
O186 O 0.65639 0.22926 0.35368 0.0
Zn187 Zn 0.65861 0.21955 0.3031 0.0
O188 O 0.6779 0.21716 0.29887 0.0
O189 O 0.6715 0.23873 0.29567 0.0
O190 O 0.65304 0.22686 0.25179 0.0
O191 O 0.64333 0.24698 0.25901 0.0
O192 O 0.63558 0.22209 0.31042 0.0
O193 O 0.648 0.20331 0.30804 0.0
C194 C 0.68098 0.22965 0.29483 0.0
C195 C 0.63646 0.20902 0.312 0.0
C196 C 0.50653 0.90205 0.12166 0.0
C197 C 0.51115 0.89732 0.99496 0.0
O198 O 0.49797 0.89732 0.09978 0.0
Zn199 Zn 0.50894 0.8997 0.05836 0.0
O200 O 0.51806 0.90659 0.11062 0.0
Zn201 Zn 0.52835 0.90865 0.06072 0.0
O202 O 0.53099 0.92789 0.05643 0.0
O203 O 0.5094 0.92169 0.05152 0.0
O204 O 0.52168 0.90295 0.00884 0.0
O205 O 0.50134 0.89355 0.01449 0.0
O206 O 0.52566 0.88563 0.06763 0.0
O207 O 0.54446 0.89804 0.06701 0.0
C208 C 0.51858 0.93108 0.05132 0.0
C209 C 0.53871 0.8865 0.07023 0.0
C210 C 0.84709 0.7554 0.8678 0.0
C211 C 0.85191 0.76191 0.7418 0.0
O212 O 0.85277 0.74758 0.84557 0.0
Zn213 Zn 0.84976 0.75893 0.80502 0.0
O214 O 0.84181 0.76672 0.85759 0.0
Zn215 Zn 0.83972 0.77772 0.80876 0.0
O216 O 0.82051 0.77964 0.80461 0.0
O217 O 0.82761 0.75838 0.798 0.0
O218 O 0.8455 0.77188 0.75622 0.0
O219 O 0.85655 0.75232 0.76077 0.0
O220 O 0.86289 0.77612 0.81616 0.0
O221 O 0.84955 0.79423 0.81716 0.0
C222 C 0.81784 0.76718 0.79855 0.0
C223 C 0.86136 0.78904 0.82019 0.0
C224 C 0.51122 0.60043 0.49613 0.0
C225 C 0.50657 0.59662 0.62305 0.0
O226 O 0.52159 0.59456 0.51017 0.0
Zn227 Zn 0.52812 0.58901 0.56236 0.0
O228 O 0.50157 0.60466 0.51558 0.0
Zn229 Zn 0.50903 0.59855 0.55961 0.0
O230 O 0.52622 0.61218 0.56787 0.0
O231 O 0.54456 0.59909 0.56827 0.0
O232 O 0.49817 0.60153 0.60102 0.0
O233 O 0.51794 0.59166 0.61213 0.0
O234 O 0.53023 0.56972 0.55886 0.0
O235 O 0.50883 0.57648 0.55342 0.0
C236 C 0.53924 0.61087 0.57063 0.0
C237 C 0.51776 0.56685 0.55365 0.0
C238 C 0.63525 0.28852 0.81076 0.0
C239 C 0.68026 0.26893 0.79545 0.0
O240 O 0.63465 0.27543 0.81039 0.0
Zn241 Zn 0.649 0.25889 0.80239 0.0
O242 O 0.64659 0.29451 0.80612 0.0
Zn243 Zn 0.65762 0.27849 0.80273 0.0
O244 O 0.65247 0.27083 0.75165 0.0
O245 O 0.64311 0.25057 0.75911 0.0
O246 O 0.67686 0.28136 0.79894 0.0
O247 O 0.67101 0.25962 0.79636 0.0
O248 O 0.64667 0.24848 0.84452 0.0
O249 O 0.65542 0.26895 0.85371 0.0
C250 C 0.647 0.26005 0.7387 0.0
C251 C 0.65107 0.25748 0.86569 0.0
C252 C 0.98788 0.39718 0.99112 0.0
C253 C 0.99193 0.40158 0.11793 0.0
O254 O 0.97738 0.40296 0.00467 0.0
Zn255 Zn 0.9704 0.40842 0.05625 0.0
O256 O 0.99744 0.39308 0.01102 0.0
Zn257 Zn 0.98975 0.39932 0.05476 0.0
O258 O 0.97294 0.38542 0.06447 0.0
O259 O 0.95415 0.39785 0.06114 0.0
O260 O 0.00057 0.39686 0.09621 0.0
O261 O 0.98045 0.4062 0.10666 0.0
O262 O 0.96792 0.42768 0.05228 0.0
O263 O 0.98949 0.42135 0.04829 0.0
C264 C 0.95988 0.38638 0.06581 0.0
C265 C 0.98038 0.4308 0.04784 0.0
C266 C 0.84773 0.74252 0.36856 0.0
C267 C 0.85032 0.73658 0.24192 0.0
O268 O 0.84202 0.73138 0.3586 0.0
Zn269 Zn 0.83881 0.72073 0.30969 0.0
O270 O 0.85315 0.75034 0.34591 0.0
Zn271 Zn 0.84922 0.7393 0.30534 0.0
O272 O 0.82702 0.74041 0.30025 0.0
O273 O 0.8195 0.71933 0.30743 0.0
O274 O 0.85548 0.74599 0.26065 0.0
O275 O 0.84392 0.72671 0.25674 0.0
O276 O 0.84833 0.70393 0.3162 0.0
O277 O 0.86211 0.7217 0.31412 0.0
C278 C 0.81706 0.73185 0.30156 0.0
C279 C 0.86032 0.7088 0.31779 0.0
C280 C 0.5109 0.39614 0.01254 0.0
C281 C 0.50616 0.4012 0.88593 0.0
O282 O 0.52135 0.40191 0.99871 0.0
Zn283 Zn 0.52803 0.40764 0.94712 0.0
O284 O 0.50115 0.39227 0.99297 0.0
Zn285 Zn 0.50862 0.39864 0.94901 0.0
O286 O 0.5253 0.3847 0.93826 0.0
O287 O 0.54418 0.397 0.94122 0.0
O288 O 0.49759 0.39643 0.90774 0.0
O289 O 0.51771 0.40569 0.89703 0.0
O290 O 0.53062 0.42688 0.9516 0.0
O291 O 0.50903 0.42063 0.95594 0.0
C292 C 0.53836 0.38558 0.93642 0.0
C293 C 0.51819 0.43004 0.95637 0.0
C294 C 0.84736 0.25659 0.13151 0.0
C295 C 0.85146 0.26011 0.25838 0.0
O296 O 0.84267 0.268 0.14301 0.0
Zn297 Zn 0.84029 0.27783 0.19358 0.0
O298 O 0.85208 0.24789 0.15304 0.0
Zn299 Zn 0.84946 0.25848 0.19475 0.0
O300 O 0.82743 0.25863 0.2009 0.0
O301 O 0.82098 0.28018 0.19745 0.0
O302 O 0.85558 0.2506 0.23835 0.0
O303 O 0.8457 0.27066 0.245 0.0
O304 O 0.85085 0.29413 0.18942 0.0
O305 O 0.86333 0.27537 0.18611 0.0
C306 C 0.81793 0.26768 0.2015 0.0
C307 C 0.86236 0.28843 0.18514 0.0
C308 C 0.95816 0.61037 0.43067 0.0
C309 C 0.98059 0.56692 0.4494 0.0
O310 O 0.97111 0.61199 0.43421 0.0
Zn311 Zn 0.98853 0.59884 0.4439 0.0
O312 O 0.95308 0.5985 0.43329 0.0
Zn313 Zn 0.9697 0.58881 0.44038 0.0
O314 O 0.9757 0.59452 0.49284 0.0
O315 O 0.99546 0.60517 0.4883 0.0
O316 O 0.96807 0.56948 0.44385 0.0
O317 O 0.98926 0.57677 0.44996 0.0
O318 O -0.00036 0.60207 0.40303 0.0
O319 O 0.98023 0.59163 0.39109 0.0
C320 C 0.98581 0.60068 0.50734 0.0
C321 C 0.99153 0.59689 0.38066 0.0
C322 C 0.65101 0.74218 0.63312 0.0
C323 C 0.64747 0.73608 0.75951 0.0
O324 O 0.65642 0.7309 0.64318 0.0
Zn325 Zn 0.65911 0.7201 0.69213 0.0
O326 O 0.64563 0.75009 0.65562 0.0
Zn327 Zn 0.64908 0.73889 0.69615 0.0
O328 O 0.67127 0.73951 0.70185 0.0
O329 O 0.67837 0.71826 0.69505 0.0
O330 O 0.64266 0.74561 0.74062 0.0
O331 O 0.65378 0.72609 0.74492 0.0
O332 O 0.64924 0.70354 0.68477 0.0
O333 O 0.63588 0.72163 0.68623 0.0
C334 C 0.68105 0.73074 0.70081 0.0
C335 C 0.6374 0.7087 0.68239 0.0
C336 C 0.4871 0.39681 0.51257 0.0
C337 C 0.49214 0.40052 0.38574 0.0
O338 O 0.4968 0.39254 0.49335 0.0
Zn339 Zn 0.4895 0.3986 0.4491 0.0
O340 O 0.47678 0.40265 0.49826 0.0
Zn341 Zn 0.47039 0.40812 0.44595 0.0
O342 O 0.45401 0.39795 0.43954 0.0
O343 O 0.4724 0.38495 0.4403 0.0
O344 O 0.48075 0.4055 0.39646 0.0
O345 O 0.50048 0.39559 0.40789 0.0
O346 O 0.48964 0.42067 0.45506 0.0
O347 O 0.46825 0.42741 0.44931 0.0
C348 C 0.4594 0.38621 0.43714 0.0
C349 C 0.48071 0.4303 0.45464 0.0
C350 C 0.31721 0.73375 0.19873 0.0
C351 C 0.35963 0.70947 0.17929 0.0
O352 O 0.31921 0.72118 0.19239 0.0
Zn353 Zn 0.33855 0.72196 0.18935 0.0
O354 O 0.32745 0.74197 0.19992 0.0
Zn355 Zn 0.34956 0.74019 0.19398 0.0
O356 O 0.35355 0.75138 0.15365 0.0
O357 O 0.34179 0.73282 0.14077 0.0
O358 O 0.36183 0.72229 0.18357 0.0
O359 O 0.34753 0.70493 0.18146 0.0
O360 O 0.34416 0.72742 0.24228 0.0
O361 O 0.35628 0.74636 0.23877 0.0
C362 C 0.34776 0.74385 0.13096 0.0
C363 C 0.35094 0.73699 0.2573 0.0
C364 C 0.03775 0.61181 0.9302 0.0
C365 C 0.0164 0.56795 0.95117 0.0
O366 O 0.04313 0.60008 0.93335 0.0
Zn367 Zn 0.02677 0.59004 0.94107 0.0
O368 O 0.02477 0.61314 0.93381 0.0
Zn369 Zn 0.00768 0.59962 0.94423 0.0
O370 O 0.00064 0.60607 0.98847 0.0
O371 O 0.0207 0.596 0.99321 0.0
O372 O 0.0075 0.5776 0.95129 0.0
O373 O 0.02885 0.57076 0.94547 0.0
O374 O 0.01618 0.59229 0.89175 0.0
O375 O 0.99648 0.60227 0.90316 0.0
C376 C 0.01045 0.60198 0.00756 0.0
C377 C 0.00475 0.59718 0.88104 0.0
C378 C 0.13689 0.28808 0.68075 0.0
C379 C 0.18085 0.26662 0.69924 0.0
O380 O 0.14868 0.2934 0.68287 0.0
Zn381 Zn 0.15873 0.27701 0.68996 0.0
O382 O 0.13555 0.27511 0.68439 0.0
Zn383 Zn 0.14911 0.25797 0.69378 0.0
O384 O 0.143 0.25096 0.73837 0.0
O385 O 0.15316 0.27098 0.74249 0.0
O386 O 0.17119 0.25775 0.69992 0.0
O387 O 0.17804 0.27907 0.69342 0.0
O388 O 0.15613 0.26639 0.64082 0.0
O389 O 0.14611 0.24678 0.65286 0.0
C390 C 0.14726 0.26077 0.75721 0.0
C391 C 0.15111 0.25497 0.63045 0.0
C392 C 0.4909 0.59654 0.12315 0.0
C393 C 0.48605 0.60024 0.99631 0.0
O394 O 0.4991 0.60175 0.10108 0.0
Zn395 Zn 0.48827 0.59847 0.05981 0.0
O396 O 0.47967 0.59124 0.11232 0.0
Zn397 Zn 0.46947 0.58839 0.06258 0.0
O398 O 0.46792 0.56904 0.05909 0.0
O399 O 0.48912 0.57641 0.05379 0.0
O400 O 0.47585 0.59407 0.01032 0.0
O401 O 0.49554 0.60478 0.01581 0.0
O402 O 0.47073 0.6116 0.06834 0.0
O403 O 0.45276 0.59803 0.06877 0.0
C404 C 0.48048 0.56652 0.05402 0.0
C405 C 0.45777 0.60994 0.07126 0.0
C406 C 0.15151 0.74089 0.87077 0.0
C407 C 0.14813 0.73662 0.74375 0.0
O408 O 0.14687 0.74942 0.84871 0.0
Zn409 Zn 0.14971 0.73853 0.80736 0.0
O410 O 0.15621 0.7294 0.85989 0.0
Zn411 Zn 0.15868 0.71918 0.81001 0.0
O412 O 0.17792 0.71648 0.80713 0.0
O413 O 0.17183 0.73809 0.80205 0.0
O414 O 0.15365 0.72604 0.7577 0.0
O415 O 0.14403 0.74628 0.76333 0.0
O416 O 0.13554 0.72178 0.81524 0.0
O417 O 0.14805 0.70306 0.81555 0.0
C418 C 0.18119 0.72888 0.80242 0.0
C419 C 0.13644 0.70874 0.8179 0.0
C420 C 0.03975 0.38648 0.56644 0.0
C421 C 0.01863 0.4306 0.54773 0.0
O422 O 0.04522 0.39815 0.56306 0.0
Zn423 Zn 0.02889 0.40839 0.55658 0.0
O424 O 0.02673 0.38529 0.56363 0.0
Zn425 Zn 0.00969 0.39899 0.55442 0.0
O426 O 0.00217 0.39273 0.51061 0.0
O427 O 0.02224 0.40268 0.50471 0.0
O428 O 0.00965 0.42103 0.54791 0.0
O429 O 0.03111 0.42766 0.55256 0.0
O430 O 0.01872 0.40607 0.60647 0.0
O431 O 0.99884 0.3963 0.59596 0.0
C432 C 0.0118 0.39682 0.49094 0.0
C433 C 0.00734 0.40124 0.6177 0.0
C434 C 0.35135 0.26128 0.24431 0.0
C435 C 0.3473 0.25562 0.371 0.0
O436 O 0.35564 0.25155 0.2634 0.0
Zn437 Zn 0.34944 0.25862 0.30779 0.0
O438 O 0.34543 0.27153 0.25878 0.0
Zn439 Zn 0.33986 0.27767 0.31124 0.0
O440 O 0.34994 0.29404 0.31848 0.0
O441 O 0.36301 0.27569 0.31776 0.0
O442 O 0.34233 0.26706 0.36054 0.0
O443 O 0.35232 0.24741 0.34867 0.0
O444 O 0.32736 0.25845 0.30157 0.0
O445 O 0.32058 0.27981 0.3077 0.0
C446 C 0.36168 0.28867 0.32132 0.0
C447 C 0.31772 0.26736 0.3021 0.0
H448 H 0.0096 0.11541 0.65395 0.0
H449 H 0.01354 0.11679 0.71723 0.0
H450 H 0.98901 0.08064 0.73257 0.0
H451 H 0.9845 0.07964 0.66959 0.0
H452 H 0.98192 0.09902 0.77761 0.0
H453 H 0.03838 0.09587 0.77957 0.0
H454 H 0.03241 0.10989 0.7535 0.0
H455 H 0.02856 0.09262 0.74043 0.0
C456 C 0.0052 0.10766 0.67082 0.0
C457 C 0.99677 0.09739 0.65686 0.0
C458 C 0.00753 0.10842 0.70699 0.0
C459 C 0.00178 0.09869 0.72974 0.0
C460 C 0.99358 0.08827 0.71562 0.0
H461 H 0.02416 0.08505 0.94641 0.0
H462 H 0.02176 0.08497 0.88268 0.0
C463 C 0.99103 0.08768 0.67961 0.0
C464 C 0.00363 0.09972 0.76838 0.0
H465 H 0.0276 0.10233 0.83312 0.0
C466 C 0.99193 0.09966 0.78973 0.0
C467 C 0.01668 0.10043 0.78431 0.0
C468 C 0.02971 0.09956 0.76328 0.0
C469 C 0.99288 0.10023 0.82643 0.0
C470 C 0.0059 0.10147 0.84231 0.0
C471 C 0.01761 0.10155 0.82097 0.0
C472 C 0.00766 0.10201 0.88103 0.0
C473 C 0.97993 0.099 0.8477 0.0
C474 C 0.00075 0.11179 0.90142 0.0
C475 C 0.0019 0.11167 0.93801 0.0
C476 C 0.01028 0.10202 0.95479 0.0
C477 C 0.01764 0.09263 0.93425 0.0
C478 C 0.01628 0.09258 0.89778 0.0
H479 H 0.97162 0.09404 0.83243 0.0
H480 H 0.98164 0.09298 0.872 0.0
H481 H 0.97635 0.10935 0.85518 0.0
H482 H 0.99439 0.11945 0.88908 0.0
H483 H 0.99624 0.11914 0.95314 0.0
H484 H 0.14047 0.76325 0.9035 0.0
H485 H 0.13937 0.76779 0.96663 0.0
H486 H 0.16036 0.72991 0.98725 0.0
H487 H 0.16159 0.72529 0.92433 0.0
H488 H 0.12708 0.75103 0.01959 0.0
H489 H 0.18259 0.75886 0.04208 0.0
H490 H 0.17499 0.75951 0.99894 0.0
H491 H 0.17834 0.74333 0.01947 0.0
C492 C 0.14494 0.75592 0.92144 0.0
C493 C 0.15117 0.74393 0.90884 0.0
C494 C 0.14426 0.75852 0.95748 0.0
C495 C 0.14991 0.74925 0.98152 0.0
C496 C 0.15613 0.73729 0.96908 0.0
H497 H 0.13698 0.74037 0.20519 0.0
H498 H 0.13678 0.73796 0.14128 0.0
C499 C 0.15677 0.73465 0.93309 0.0
C500 C 0.14906 0.75192 0.0197 0.0
H501 H 0.16858 0.757 0.09273 0.0
C502 C 0.13614 0.7524 0.03561 0.0
C503 C 0.16089 0.75384 0.04038 0.0
C504 C 0.175 0.75399 0.0244 0.0
C505 C 0.13475 0.75446 0.07191 0.0
C506 C 0.14661 0.75594 0.09275 0.0
C507 C 0.15951 0.75575 0.07669 0.0
C508 C 0.14591 0.75771 0.1313 0.0
C509 C 0.12062 0.75516 0.08762 0.0
C510 C 0.15119 0.76957 0.14686 0.0
C511 C 0.15135 0.77097 0.18333 0.0
C512 C 0.14633 0.76047 0.20499 0.0
C513 C 0.14087 0.74867 0.18929 0.0
C514 C 0.14069 0.7473 0.15276 0.0
H515 H 0.11271 0.75719 0.06737 0.0
H516 H 0.1182 0.74523 0.10026 0.0
H517 H 0.12004 0.76325 0.10799 0.0
H518 H 0.15532 0.7777 0.13074 0.0
H519 H 0.15566 0.78019 0.19451 0.0
H520 H 0.48368 0.89218 0.15464 0.0
H521 H 0.47923 0.89126 0.21782 0.0
H522 H 0.51817 0.91027 0.238 0.0
H523 H 0.52268 0.91136 0.17504 0.0
H524 H 0.49497 0.87802 0.26991 0.0
H525 H 0.49114 0.93379 0.29435 0.0
H526 H 0.49011 0.92651 0.2509 0.0
H527 H 0.50643 0.92868 0.27183 0.0
C528 C 0.49126 0.89627 0.17249 0.0
C529 C 0.50352 0.90191 0.15975 0.0
C530 C 0.4887 0.8957 0.20857 0.0
C531 C 0.4983 0.90084 0.23252 0.0
C532 C 0.51053 0.90647 0.21992 0.0
H533 H 0.50698 0.88588 0.45545 0.0
H534 H 0.50913 0.8859 0.39148 0.0
C535 C 0.5131 0.90703 0.1839 0.0
C536 C 0.49571 0.9 0.27075 0.0
H537 H 0.49241 0.91945 0.34459 0.0
C538 C 0.49433 0.88707 0.28626 0.0
C539 C 0.49476 0.91183 0.2919 0.0
C540 C 0.49556 0.926 0.27643 0.0
C541 C 0.49231 0.88564 0.32256 0.0
C542 C 0.49181 0.89746 0.34384 0.0
C543 C 0.4929 0.9104 0.32821 0.0
C544 C 0.49015 0.89669 0.38243 0.0
C545 C 0.4906 0.87152 0.33779 0.0
C546 C 0.47883 0.90283 0.39853 0.0
C547 C 0.47759 0.90288 0.43503 0.0
C548 C 0.48772 0.89686 0.4562 0.0
C549 C 0.49897 0.89055 0.43994 0.0
C550 C 0.50019 0.89049 0.40337 0.0
H551 H 0.48783 0.86392 0.31734 0.0
H552 H 0.50038 0.86825 0.3499 0.0
H553 H 0.48261 0.87145 0.35847 0.0
H554 H 0.471 0.90772 0.38281 0.0
H555 H 0.4688 0.90786 0.44665 0.0
H556 H 0.3588 0.23336 0.40321 0.0
H557 H 0.35994 0.22859 0.46626 0.0
H558 H 0.33793 0.26582 0.48765 0.0
H559 H 0.33665 0.27064 0.42488 0.0
H560 H 0.37179 0.2452 0.51944 0.0
H561 H 0.31648 0.23649 0.54232 0.0
H562 H 0.324 0.2362 0.49906 0.0
H563 H 0.32032 0.25221 0.52014 0.0
C564 C 0.3541 0.24048 0.4213 0.0
C565 C 0.34758 0.25235 0.40896 0.0
C566 C 0.3548 0.23775 0.4573 0.0
C567 C 0.34889 0.24677 0.48155 0.0
C568 C 0.34236 0.25861 0.46933 0.0
H569 H 0.36229 0.25677 0.7044 0.0
H570 H 0.36253 0.25857 0.64038 0.0
C571 C 0.34169 0.26137 0.43342 0.0
C572 C 0.34982 0.24404 0.51971 0.0
H573 H 0.33044 0.23899 0.593 0.0
C574 C 0.36277 0.24375 0.53554 0.0
C575 C 0.33804 0.24202 0.54053 0.0
C576 C 0.32392 0.24161 0.52468 0.0
C577 C 0.36422 0.24183 0.57188 0.0
C578 C 0.3524 0.24032 0.59288 0.0
C579 C 0.33949 0.24027 0.57688 0.0
C580 C 0.35314 0.23886 0.63156 0.0
C581 C 0.37838 0.24134 0.58745 0.0
C582 C 0.34768 0.22723 0.64785 0.0
C583 C 0.34747 0.22619 0.68441 0.0
C584 C 0.35263 0.23682 0.70544 0.0
C585 C 0.3583 0.24837 0.68901 0.0
C586 C 0.35851 0.24939 0.6524 0.0
H587 H 0.38624 0.23902 0.56725 0.0
H588 H 0.38085 0.25143 0.59909 0.0
H589 H 0.37903 0.23353 0.60852 0.0
H590 H 0.34344 0.21901 0.63225 0.0
H591 H 0.34301 0.21715 0.69615 0.0
H592 H 0.97421 0.91129 0.82963 0.0
H593 H 0.97831 0.90977 0.76653 0.0
H594 H 0.01686 0.88982 0.78588 0.0
H595 H 0.01281 0.89117 0.84917 0.0
H596 H 0.00022 0.92043 0.72737 0.0
H597 H 0.99717 0.86388 0.71703 0.0
H598 H 0.99108 0.87314 0.75489 0.0
H599 H 0.00905 0.87016 0.74916 0.0
C600 C 0.98357 0.90658 0.82054 0.0
C601 C 0.99316 0.9013 0.84447 0.0
C602 C 0.98589 0.90572 0.78446 0.0
C603 C 0.99779 0.89951 0.77158 0.0
C604 C 0.00749 0.89443 0.79532 0.0
H605 H 0.02925 0.90624 0.5593 0.0
H606 H 0.0263 0.9062 0.62295 0.0
C607 C 0.0052 0.89529 0.83147 0.0
C608 C 7e-05 0.89856 0.73326 0.0
H609 H 0.00378 0.8759 0.66576 0.0
C610 C 0.00101 0.9107 0.71387 0.0
C611 C 0.00092 0.88584 0.71576 0.0
C612 C -0.00061 0.87249 0.73514 0.0
C613 C 0.00293 0.91048 0.67741 0.0
C614 C 0.0041 0.89777 0.66001 0.0
C615 C 0.003 0.88562 0.67931 0.0
C616 C 0.00624 0.89695 0.62165 0.0
C617 C 0.00346 0.92384 0.65768 0.0
C618 C 0.99611 0.89135 0.59996 0.0
C619 C 0.99776 0.89131 0.56351 0.0
C620 C 0.00963 0.89681 0.5482 0.0
C621 C 0.01996 0.90198 0.57018 0.0
C622 C 0.01827 0.90204 0.60657 0.0
H623 H -0.00065 0.93244 0.67353 0.0
H624 H 0.01423 0.92622 0.65095 0.0
H625 H 0.99756 0.92316 0.63284 0.0
H626 H 0.98678 0.88732 0.61119 0.0
H627 H 0.98964 0.88722 0.54736 0.0
H628 H 0.33595 0.77526 0.80569 0.0
H629 H 0.33693 0.77325 0.86941 0.0
H630 H 0.37176 0.74644 0.86052 0.0
H631 H 0.37039 0.7479 0.79649 0.0
H632 H 0.35464 0.73621 0.90451 0.0
H633 H 0.36102 0.79048 0.94017 0.0
H634 H 0.34601 0.78819 0.91395 0.0
H635 H 0.36259 0.78457 0.89555 0.0
C636 C 0.34393 0.76907 0.81731 0.0
C637 C 0.35313 0.76177 0.79608 0.0
C638 C 0.34455 0.76802 0.85382 0.0
C639 C 0.35461 0.75994 0.86996 0.0
C640 C 0.36394 0.7528 0.84875 0.0
H641 H 0.36613 0.76052 0.09787 0.0
H642 H 0.3685 0.76435 0.03467 0.0
C643 C 0.36317 0.75365 0.81217 0.0
C644 C 0.35475 0.75817 0.90872 0.0
H645 H 0.3532 0.77559 0.98628 0.0
C646 C 0.35449 0.74484 0.92235 0.0
C647 C 0.35481 0.76939 0.93221 0.0
C648 C 0.35628 0.78394 0.91969 0.0
C649 C 0.35388 0.74242 0.9586 0.0
C650 C 0.35293 0.75365 0.98193 0.0
C651 C 0.35365 0.76698 0.96842 0.0
C652 C 0.35118 0.75175 0.02037 0.0
C653 C 0.35448 0.72784 0.97139 0.0
C654 C 0.34044 0.74373 0.0335 0.0
C655 C 0.33921 0.74135 0.06949 0.0
C656 C 0.34848 0.74725 0.0932 0.0
C657 C 0.35883 0.75584 0.08023 0.0
C658 C 0.3602 0.75801 0.04412 0.0
H659 H 0.35974 0.72112 0.95216 0.0
H660 H 0.35988 0.72706 0.99692 0.0
H661 H 0.34393 0.7239 0.97472 0.0
H662 H 0.33305 0.73919 0.01587 0.0
H663 H 0.33102 0.73483 0.07874 0.0
H664 H 0.50882 0.11211 0.04725 0.0
H665 H 0.51134 0.11183 0.11115 0.0
H666 H 0.47229 0.09183 0.12103 0.0
H667 H 0.46969 0.09195 0.05728 0.0
H668 H 0.49418 0.12252 0.16537 0.0
H669 H 0.49927 0.06603 0.17192 0.0
H670 H 0.50091 0.07545 0.13142 0.0
H671 H 0.4843 0.07208 0.14949 0.0
C672 C 0.50072 0.10773 0.063 0.0
C673 C 0.4891 0.10195 0.04713 0.0
C674 C 0.50218 0.10759 0.0995 0.0
C675 C 0.4921 0.10161 0.12069 0.0
C676 C 0.48029 0.09627 0.10505 0.0
H677 H 0.48529 0.10674 0.34847 0.0
H678 H 0.48112 0.10808 0.28523 0.0
C679 C 0.47881 0.09641 0.06861 0.0
C680 C 0.49409 0.10067 0.15911 0.0
H681 H 0.49806 0.07783 0.22603 0.0
C682 C 0.49502 0.11277 0.1787 0.0
C683 C 0.49534 0.08792 0.17625 0.0
C684 C 0.49503 0.07461 0.15624 0.0
C685 C 0.49704 0.11244 0.21517 0.0
C686 C 0.49799 0.09968 0.2324 0.0
C687 C 0.49719 0.08759 0.21274 0.0
C688 C 0.50029 0.09863 0.2707 0.0
C689 C 0.49842 0.12575 0.23485 0.0
C690 C 0.51226 0.09253 0.28344 0.0
C691 C 0.51465 0.09168 0.3195 0.0
C692 C 0.50505 0.09685 0.34354 0.0
C693 C 0.49291 0.10271 0.33068 0.0
C694 C 0.49055 0.10356 0.29456 0.0
H695 H 0.50055 0.13444 0.21694 0.0
H696 H 0.48874 0.12792 0.24891 0.0
H697 H 0.50674 0.12512 0.2546 0.0
H698 H 0.51987 0.0886 0.26542 0.0
H699 H 0.52409 0.08709 0.32847 0.0
H700 H 0.13956 0.2327 0.59831 0.0
H701 H 0.13847 0.22787 0.53527 0.0
H702 H 0.16053 0.26507 0.51379 0.0
H703 H 0.16176 0.26994 0.57652 0.0
H704 H 0.12671 0.24439 0.48179 0.0
H705 H 0.18206 0.2357 0.45952 0.0
H706 H 0.17447 0.23547 0.50271 0.0
H707 H 0.17821 0.25146 0.48157 0.0
C708 C 0.14428 0.2398 0.58019 0.0
C709 C 0.15081 0.25167 0.5925 0.0
C710 C 0.14361 0.23704 0.5442 0.0
C711 C 0.14956 0.24603 0.51993 0.0
C712 C 0.15607 0.25787 0.53212 0.0
H713 H 0.13647 0.25654 0.29734 0.0
H714 H 0.1361 0.25808 0.3614 0.0
C715 C 0.15672 0.26066 0.56802 0.0
C716 C 0.14868 0.24327 0.48177 0.0
H717 H 0.1682 0.23838 0.40865 0.0
C718 C 0.13576 0.24297 0.46579 0.0
C719 C 0.1605 0.24128 0.46106 0.0
C720 C 0.1746 0.24086 0.47707 0.0
C721 C 0.13438 0.24111 0.4294 0.0
C722 C 0.14624 0.23968 0.40852 0.0
C723 C 0.15913 0.2396 0.42467 0.0
C724 C 0.14558 0.23837 0.36979 0.0
C725 C 0.12024 0.24062 0.41368 0.0
C726 C 0.15113 0.22684 0.35323 0.0
C727 C 0.15143 0.22596 0.31665 0.0
C728 C 0.14625 0.23665 0.29585 0.0
C729 C 0.14048 0.2481 0.31254 0.0
C730 C 0.1402 0.24897 0.34917 0.0
H731 H 0.11238 0.23818 0.43374 0.0
H732 H 0.11775 0.25076 0.40231 0.0
H733 H 0.11967 0.2329 0.39238 0.0
H734 H 0.15539 0.21858 0.36865 0.0
H735 H 0.15596 0.217 0.3047 0.0
H736 H 0.9847 0.89201 0.34908 0.0
H737 H 0.98065 0.89081 0.28578 0.0
H738 H 0.01966 0.90987 0.26667 0.0
H739 H 0.02377 0.91123 0.32981 0.0
H740 H 0.99784 0.92099 0.22727 0.0
H741 H 7e-05 0.86439 0.21726 0.0
H742 H 0.98833 0.8709 0.24945 0.0
H743 H 0.00635 0.8736 0.25501 0.0
C744 C 0.99241 0.89598 0.33143 0.0
C745 C 0.00459 0.90167 0.34451 0.0
C746 C 0.99011 0.8952 0.29528 0.0
C747 C -5e-05 0.90006 0.27161 0.0
C748 C 0.01198 0.90599 0.28455 0.0
H749 H 0.00775 0.88711 0.04754 0.0
H750 H 0.01065 0.88734 0.11135 0.0
C751 C 0.0143 0.90675 0.32065 0.0
C752 C 0.99768 0.89913 0.23328 0.0
H753 H 0.99363 0.87647 0.16594 0.0
C754 C 0.99691 0.91127 0.21383 0.0
C755 C 0.99665 0.88641 0.21585 0.0
C756 C 0.998 0.87306 0.23532 0.0
C757 C 0.99497 0.91104 0.17737 0.0
C758 C 0.99361 0.89833 0.16005 0.0
C759 C 0.99455 0.88618 0.17942 0.0
C760 C 0.99144 0.8975 0.12169 0.0
C761 C 0.99464 0.92439 0.15757 0.0
C762 C 0.97953 0.90283 0.10655 0.0
C763 C 0.97782 0.90271 0.07017 0.0
C764 C 0.988 0.89721 0.04826 0.0
C765 C -0.00027 0.89146 0.06364 0.0
C766 C 0.00141 0.89157 0.10007 0.0
H767 H 0.99895 0.93292 0.1733 0.0
H768 H 0.00046 0.92359 0.13263 0.0
H769 H 0.9839 0.92697 0.15103 0.0
H770 H 0.97161 0.90724 0.12287 0.0
H771 H 0.96863 0.90716 0.05923 0.0
H772 H 0.83698 0.27243 0.07879 0.0
H773 H 0.83823 0.26827 0.01563 0.0
H774 H 0.85979 0.23057 0.03444 0.0
H775 H 0.85865 0.23464 0.09774 0.0
H776 H 0.87181 0.24814 0.98226 0.0
H777 H 0.81645 0.23903 0.95989 0.0
H778 H 0.82045 0.25445 0.98334 0.0
H779 H 0.82416 0.23817 0.00288 0.0
C780 C 0.84192 0.26321 0.06956 0.0
C781 C 0.84767 0.25384 0.09333 0.0
C782 C 0.84259 0.26084 0.03346 0.0
C783 C 0.84899 0.24906 0.02048 0.0
C784 C 0.85477 0.2397 0.04404 0.0
H785 H 0.84333 0.21839 0.80778 0.0
H786 H 0.84383 0.22092 0.8715 0.0
C787 C 0.85407 0.24203 0.08017 0.0
C788 C 0.84986 0.24664 0.98224 0.0
H789 H 0.8304 0.24119 0.90933 0.0
C790 C 0.86278 0.24656 0.96626 0.0
C791 C 0.83806 0.24447 0.96163 0.0
C792 C 0.82399 0.2439 0.97775 0.0
C793 C 0.86419 0.2446 0.92995 0.0
C794 C 0.85235 0.24281 0.90919 0.0
C795 C 0.83945 0.24265 0.92532 0.0
C796 C 0.85304 0.241 0.87067 0.0
C797 C 0.87832 0.24429 0.91417 0.0
C798 C 0.85813 0.25144 0.8491 0.0
C799 C 0.8579 0.25003 0.8126 0.0
C800 C 0.85247 0.23818 0.79706 0.0
C801 C 0.84759 0.22765 0.81884 0.0
C802 C 0.84784 0.22907 0.85528 0.0
H803 H 0.88628 0.24236 0.93435 0.0
H804 H 0.87909 0.2363 0.8936 0.0
H805 H 0.8805 0.25432 0.90181 0.0
H806 H 0.86196 0.26083 0.86046 0.0
H807 H 0.86166 0.25836 0.79659 0.0
H808 H 0.51466 0.10881 0.84844 0.0
H809 H 0.51886 0.11017 0.78519 0.0
H810 H 0.4812 0.08868 0.76539 0.0
H811 H 0.47695 0.08714 0.82839 0.0
H812 H 0.50363 0.0788 0.72685 0.0
H813 H 0.4983 0.13517 0.71557 0.0
H814 H 0.51032 0.12939 0.74797 0.0
H815 H 0.49247 0.12575 0.75346 0.0
C816 C 0.50728 0.10435 0.83063 0.0
C817 C 0.49545 0.0979 0.84348 0.0
C818 C 0.50966 0.10522 0.79451 0.0
C819 C 0.50023 0.0997 0.77066 0.0
C820 C 0.48856 0.09306 0.7834 0.0
H821 H 0.491 0.11129 0.54682 0.0
H822 H 0.48857 0.11135 0.61076 0.0
C823 C 0.48616 0.0922 0.81943 0.0
C824 C 0.50257 0.10066 0.73237 0.0
H825 H 0.50521 0.12326 0.66444 0.0
C826 C 0.50401 0.08851 0.71318 0.0
C827 C 0.50287 0.11335 0.71464 0.0
C828 C 0.5008 0.12667 0.73382 0.0
C829 C 0.50584 0.08871 0.67669 0.0
C830 C 0.50642 0.10141 0.65905 0.0
C831 C 0.50487 0.11356 0.67816 0.0
C832 C 0.50833 0.10221 0.62059 0.0
C833 C 0.50683 0.07532 0.65721 0.0
C834 C 0.52039 0.09738 0.60509 0.0
C835 C 0.52181 0.09732 0.56863 0.0
C836 C 0.51121 0.10215 0.547 0.0
C837 C 0.49934 0.10745 0.56271 0.0
C838 C 0.49793 0.10751 0.59922 0.0
H839 H 0.50306 0.06663 0.67325 0.0
H840 H 0.50091 0.0757 0.63239 0.0
H841 H 0.51768 0.07331 0.6505 0.0
H842 H 0.52862 0.09348 0.6212 0.0
H843 H 0.53113 0.09325 0.55743 0.0
H844 H 0.63296 0.75902 0.59961 0.0
H845 H 0.63076 0.76276 0.53636 0.0
H846 H 0.66591 0.73707 0.51833 0.0
H847 H 0.66771 0.73276 0.58129 0.0
H848 H 0.64603 0.77375 0.48843 0.0
H849 H 0.63946 0.71934 0.45389 0.0
H850 H 0.63931 0.72521 0.4987 0.0
H851 H 0.65527 0.72203 0.4765 0.0
C852 C 0.64023 0.7542 0.58212 0.0
C853 C 0.65042 0.74549 0.59532 0.0
C854 C 0.63895 0.75632 0.54598 0.0
C855 C 0.64794 0.7499 0.52242 0.0
C856 C 0.65853 0.74173 0.53579 0.0
H857 H 0.66272 0.77407 0.30766 0.0
H858 H 0.66209 0.77172 0.37135 0.0
C859 C 0.65964 0.73938 0.57182 0.0
C860 C 0.6463 0.75181 0.48395 0.0
H861 H 0.64465 0.73446 0.40639 0.0
C862 C 0.6456 0.76515 0.47052 0.0
C863 C 0.64537 0.74061 0.46053 0.0
C864 C 0.64473 0.72601 0.47319 0.0
C865 C 0.64442 0.76761 0.43434 0.0
C866 C 0.64449 0.75641 0.41077 0.0
C867 C 0.64478 0.74307 0.4243 0.0
C868 C 0.64455 0.75823 0.37202 0.0
C869 C 0.64287 0.78217 0.42197 0.0
C870 C 0.63521 0.75106 0.35088 0.0
C871 C 0.63581 0.75208 0.31431 0.0
C872 C 0.64565 0.76044 0.2982 0.0
C873 C 0.65488 0.76772 0.31935 0.0
C874 C 0.65446 0.76647 0.35584 0.0
H875 H 0.63812 0.78866 0.44254 0.0
H876 H 0.65311 0.78647 0.41623 0.0
H877 H 0.63653 0.78281 0.39788 0.0
H878 H 0.62751 0.74458 0.36269 0.0
H879 H 0.62857 0.74635 0.29866 0.0
H880 H 0.00648 0.11346 0.45259 0.0
H881 H 0.0078 0.1139 0.38853 0.0
H882 H 0.96858 0.094 0.38199 0.0
H883 H 0.96723 0.09334 0.44596 0.0
H884 H 0.98832 0.08147 0.34183 0.0
H885 H 0.98757 0.13723 0.31627 0.0
H886 H 0.00032 0.13208 0.34747 0.0
H887 H 0.98252 0.12996 0.35784 0.0
C888 C 0.99804 0.10934 0.43755 0.0
C889 C 0.98675 0.10335 0.45443 0.0
C890 C 0.99878 0.10967 0.40091 0.0
C891 C 0.98821 0.10412 0.3805 0.0
C892 C 0.97682 0.09838 0.39726 0.0
H893 H 0.98289 0.10995 0.15182 0.0
H894 H 0.97791 0.11114 0.21476 0.0
C895 C 0.97607 0.09803 0.43385 0.0
C896 C 0.98945 0.10344 0.34177 0.0
H897 H 0.99408 0.12291 0.26838 0.0
C898 C 0.98947 0.09053 0.32573 0.0
C899 C 0.9908 0.11529 0.32079 0.0
C900 C 0.99018 0.12944 0.33638 0.0
C901 C 0.99118 0.08912 0.28937 0.0
C902 C 0.99313 0.10093 0.26859 0.0
C903 C 0.99271 0.11386 0.28445 0.0
C904 C 0.99599 0.10002 0.2305 0.0
C905 C 0.99085 0.075 0.2735 0.0
C906 C 0.00786 0.09346 0.21859 0.0
C907 C 0.01073 0.09275 0.18276 0.0
C908 C 0.00182 0.09865 0.15808 0.0
C909 C 0.98994 0.10525 0.17011 0.0
C910 C 0.98709 0.10597 0.20604 0.0
H911 H 0.98562 0.06757 0.29098 0.0
H912 H 0.98559 0.07507 0.24769 0.0
H913 H 0.00148 0.07139 0.2694 0.0
H914 H 0.015 0.08902 0.23708 0.0
H915 H 0.02001 0.08766 0.17446 0.0
H916 H 0.65592 0.21954 0.18855 0.0
H917 H 0.65584 0.22276 0.12502 0.0
H918 H 0.63638 0.26196 0.13787 0.0
H919 H 0.63633 0.25883 0.20164 0.0
H920 H 0.62526 0.24489 0.08271 0.0
H921 H 0.6817 0.25044 0.07552 0.0
H922 H 0.67577 0.2354 0.09784 0.0
H923 H 0.67233 0.25195 0.11615 0.0
C924 C 0.65152 0.22882 0.17794 0.0
C925 C 0.64622 0.23898 0.20021 0.0
C926 C 0.65155 0.23066 0.14163 0.0
C927 C 0.6463 0.24268 0.12691 0.0
C928 C 0.64054 0.25264 0.14885 0.0
H929 H 0.66006 0.2744 0.91783 0.0
H930 H 0.65856 0.27078 0.98116 0.0
C931 C 0.64053 0.25083 0.18525 0.0
C932 C 0.64712 0.24498 0.08864 0.0
H933 H 0.6698 0.24923 0.02149 0.0
C934 C 0.63497 0.24586 0.06926 0.0
C935 C 0.65983 0.24641 0.07138 0.0
C936 C 0.67317 0.24613 0.09124 0.0
C937 C 0.63521 0.2479 0.03281 0.0
C938 C 0.64794 0.24894 0.01542 0.0
C939 C 0.66007 0.24829 0.03492 0.0
C940 C 0.64889 0.25097 0.97705 0.0
C941 C 0.62186 0.24911 0.01326 0.0
C942 C 0.64415 0.24092 0.95382 0.0
C943 C 0.64503 0.24293 0.91759 0.0
C944 C 0.65069 0.25503 0.90399 0.0
C945 C 0.65562 0.26498 0.92741 0.0
C946 C 0.65477 0.26294 0.9636 0.0
H947 H 0.61318 0.25124 0.03123 0.0
H948 H 0.62239 0.25737 0.99331 0.0
H949 H 0.61974 0.23937 0.99944 0.0
H950 H 0.63981 0.2315 0.96374 0.0
H951 H 0.64117 0.23505 0.90029 0.0
H952 H 0.47733 0.91269 0.67529 0.0
H953 H 0.48191 0.91126 0.73816 0.0
H954 H 0.51781 0.887 0.7177 0.0
H955 H 0.51329 0.88831 0.65455 0.0
H956 H 0.50006 0.87641 0.77119 0.0
H957 H 0.51283 0.93107 0.79212 0.0
H958 H 0.49697 0.92817 0.76958 0.0
H959 H 0.51277 0.92325 0.7492 0.0
C960 C 0.48625 0.90711 0.68406 0.0
C961 C 0.49498 0.90066 0.65985 0.0
C962 C 0.48887 0.90635 0.72002 0.0
C963 C 0.50027 0.89915 0.7325 0.0
C964 C 0.50898 0.89265 0.70851 0.0
H965 H 0.53052 0.90406 0.94637 0.0
H966 H 0.52847 0.90339 0.88255 0.0
C967 C 0.50641 0.89345 0.67247 0.0
C968 C 0.5029 0.89822 0.77068 0.0
H969 H 0.50946 0.91757 0.84319 0.0
C970 C 0.5022 0.88538 0.78697 0.0
C971 C 0.50582 0.90993 0.79103 0.0
C972 C 0.50727 0.92388 0.77463 0.0
C973 C 0.50403 0.88398 0.82335 0.0
C974 C 0.50647 0.89577 0.84388 0.0
C975 C 0.50749 0.90856 0.82742 0.0
C976 C 0.50797 0.89515 0.88254 0.0
C977 C 0.50345 0.86991 0.83943 0.0
C978 C 0.49713 0.89067 0.90374 0.0
C979 C 0.49827 0.89101 0.94031 0.0
C980 C 0.51024 0.89593 0.95633 0.0
C981 C 0.52115 0.9002 0.93495 0.0
C982 C 0.52001 0.89984 0.89844 0.0
H983 H 0.50514 0.8618 0.81951 0.0
H984 H 0.51121 0.86879 0.8605 0.0
H985 H 0.49321 0.8683 0.8512 0.0
H986 H 0.48765 0.88725 0.89201 0.0
H987 H 0.48965 0.88771 0.95599 0.0
H988 H 0.87036 0.74731 0.70309 0.0
H989 H 0.87166 0.74556 0.6391 0.0
H990 H 0.83696 0.77252 0.62967 0.0
H991 H 0.83608 0.77484 0.69334 0.0
H992 H 0.85462 0.73525 0.59541 0.0
H993 H 0.86097 0.78938 0.55839 0.0
H994 H 0.86253 0.78365 0.60318 0.0
H995 H 0.84595 0.78721 0.58462 0.0
C996 C 0.86315 0.75302 0.68729 0.0
C997 C 0.85319 0.76129 0.70319 0.0
C998 C 0.86389 0.75201 0.65073 0.0
C999 C 0.85457 0.75911 0.62938 0.0
C1000 C 0.84457 0.76731 0.64535 0.0
H1001 H 0.83123 0.73317 0.42089 0.0
H1002 H 0.83323 0.73759 0.48375 0.0
C1003 C 0.84401 0.76855 0.68183 0.0
C1004 C 0.8547 0.7572 0.59066 0.0
H1005 H 0.85311 0.77433 0.5127 0.0
C1006 C 0.85446 0.74382 0.57736 0.0
C1007 C 0.85474 0.76833 0.5669 0.0
C1008 C 0.85622 0.78293 0.57904 0.0
C1009 C 0.85388 0.74126 0.54117 0.0
C1010 C 0.85291 0.7524 0.51756 0.0
C1011 C 0.85358 0.76578 0.53076 0.0
C1012 C 0.85121 0.75037 0.47915 0.0
C1013 C 0.85455 0.72663 0.52875 0.0
C1014 C 0.86015 0.75672 0.45535 0.0
C1015 C 0.85877 0.75452 0.41925 0.0
C1016 C 0.84851 0.74582 0.40635 0.0
C1017 C 0.83935 0.73978 0.43011 0.0
C1018 C 0.84057 0.7422 0.46609 0.0
H1019 H 0.85986 0.72002 0.54814 0.0
H1020 H 0.84402 0.72262 0.52558 0.0
H1021 H 0.85994 0.72578 0.50322 0.0
H1022 H 0.86837 0.76316 0.46473 0.0
H1023 H 0.86599 0.7593 0.40156 0.0
H1024 H 0.51306 0.60805 0.15572 0.0
H1025 H 0.51773 0.60911 0.21879 0.0
H1026 H 0.48038 0.58722 0.23963 0.0
H1027 H 0.47567 0.586 0.17679 0.0
H1028 H 0.50129 0.62092 0.27193 0.0
H1029 H 0.50946 0.56548 0.29416 0.0
H1030 H 0.50974 0.57306 0.25098 0.0
H1031 H 0.49373 0.56952 0.27221 0.0
C1032 C 0.50588 0.60338 0.17369 0.0
C1033 C 0.49402 0.59688 0.16117 0.0
C1034 C 0.50855 0.60402 0.20971 0.0
C1035 C 0.49948 0.5981 0.2338 0.0
C1036 C 0.48763 0.59164 0.22143 0.0
H1037 H 0.49036 0.61134 0.45713 0.0
H1038 H 0.48818 0.61155 0.39318 0.0
C1039 C 0.48494 0.59101 0.18548 0.0
C1040 C 0.5022 0.59894 0.27197 0.0
H1041 H 0.50723 0.57939 0.34498 0.0
C1042 C 0.50267 0.61186 0.28792 0.0
C1043 C 0.50415 0.5871 0.29264 0.0
C1044 C 0.50438 0.573 0.27665 0.0
C1045 C 0.50471 0.61324 0.32423 0.0
C1046 C 0.50615 0.60137 0.34507 0.0
C1047 C 0.50601 0.58847 0.32897 0.0
C1048 C 0.5078 0.60204 0.38368 0.0
C1049 C 0.50542 0.62737 0.33992 0.0
C1050 C 0.51949 0.59652 0.39954 0.0
C1051 C 0.52074 0.59633 0.43605 0.0
C1052 C 0.51027 0.60157 0.45744 0.0
C1053 C 0.49864 0.60728 0.44144 0.0
C1054 C 0.49741 0.60747 0.40488 0.0
H1055 H 0.50768 0.63523 0.31972 0.0
H1056 H 0.49541 0.6299 0.35198 0.0
H1057 H 0.51335 0.6279 0.3607 0.0
H1058 H 0.52761 0.59224 0.38364 0.0
H1059 H 0.52983 0.59184 0.44747 0.0
H1060 H 0.66166 0.22419 0.41755 0.0
H1061 H 0.66002 0.22769 0.48088 0.0
H1062 H 0.63941 0.26605 0.46375 0.0
H1063 H 0.6409 0.26261 0.40025 0.0
H1064 H 0.67019 0.24964 0.52146 0.0
H1065 H 0.61373 0.24491 0.53093 0.0
H1066 H 0.62324 0.2393 0.49297 0.0
H1067 H 0.61974 0.25714 0.49933 0.0
C1068 C 0.65679 0.23339 0.42719 0.0
C1069 C 0.65136 0.2431 0.40383 0.0
C1070 C 0.65587 0.23536 0.46339 0.0
C1071 C 0.64941 0.24701 0.47691 0.0
C1072 C 0.64421 0.25686 0.45376 0.0
H1073 H 0.65488 0.27832 0.68857 0.0
H1074 H 0.655 0.27511 0.62507 0.0
C1075 C 0.64515 0.25492 0.41751 0.0
C1076 C 0.64834 0.24891 0.51531 0.0
H1077 H 0.62546 0.25165 0.58259 0.0
C1078 C 0.66042 0.25007 0.53486 0.0
C1079 C 0.63558 0.24928 0.53267 0.0
C1080 C 0.62231 0.24748 0.51303 0.0
C1081 C 0.66008 0.25182 0.57136 0.0
C1082 C 0.64731 0.25257 0.5886 0.0
C1083 C 0.63522 0.25118 0.56916 0.0
C1084 C 0.64636 0.25479 0.62688 0.0
C1085 C 0.67338 0.25266 0.59127 0.0
C1086 C 0.64103 0.24459 0.64879 0.0
C1087 C 0.6409 0.24639 0.68519 0.0
C1088 C 0.64604 0.25847 0.70018 0.0
C1089 C 0.65092 0.26886 0.67795 0.0
C1090 C 0.65106 0.26703 0.64164 0.0
H1091 H 0.6821 0.24873 0.57556 0.0
H1092 H 0.67551 0.26349 0.59792 0.0
H1093 H 0.67279 0.24679 0.61615 0.0
H1094 H 0.63729 0.23509 0.63776 0.0
H1095 H 0.63704 0.23821 0.70156 0.0
H1096 H 0.02327 0.41133 0.67049 0.0
H1097 H 0.01928 0.4098 0.7336 0.0
H1098 H 0.98115 0.38901 0.71475 0.0
H1099 H 0.98509 0.39037 0.6514 0.0
H1100 H 0.99729 0.41995 0.77318 0.0
H1101 H 0.00161 0.36346 0.78318 0.0
H1102 H 0.00739 0.37288 0.74524 0.0
H1103 H 0.98951 0.36953 0.75132 0.0
C1104 C 0.01401 0.40644 0.67968 0.0
C1105 C 0.00452 0.40092 0.65586 0.0
C1106 C 0.01176 0.40558 0.71578 0.0
C1107 C 3e-05 0.39911 0.72881 0.0
C1108 C 0.99039 0.39382 0.70519 0.0
H1109 H 0.96936 0.40537 0.94184 0.0
H1110 H 0.97208 0.40534 0.87816 0.0
C1111 C 0.99262 0.39469 0.66901 0.0
C1112 C 0.99788 0.39809 0.76717 0.0
H1113 H 0.99499 0.37532 0.83468 0.0
C1114 C 0.99677 0.4102 0.78665 0.0
C1115 C 0.9974 0.38535 0.78465 0.0
C1116 C -0.00085 0.37204 0.76516 0.0
C1117 C 0.99504 0.40991 0.82317 0.0
C1118 C 0.99422 0.39717 0.84055 0.0
C1119 C 0.99549 0.38505 0.82116 0.0
C1120 C 0.99223 0.39628 0.87897 0.0
C1121 C 0.99435 0.42325 0.84296 0.0
C1122 C 0.00248 0.39075 0.90042 0.0
C1123 C 0.00096 0.39069 0.93691 0.0
C1124 C 0.98911 0.39611 0.9525 0.0
C1125 C 0.97866 0.40119 0.93075 0.0
C1126 C 0.9802 0.40125 0.89434 0.0
H1127 H 0.99832 0.43191 0.82711 0.0
H1128 H 0.98355 0.42548 0.84973 0.0
H1129 H 0.00027 0.42265 0.86776 0.0
H1130 H 0.01181 0.3868 0.88897 0.0
H1131 H 0.00918 0.38667 0.95289 0.0
H1132 H 0.86837 0.75104 0.20157 0.0
H1133 H 0.86862 0.75302 0.13756 0.0
H1134 H 0.83356 0.72641 0.13113 0.0
H1135 H 0.83369 0.72387 0.19485 0.0
H1136 H 0.85069 0.72036 0.08117 0.0
H1137 H 0.84359 0.77649 0.08167 0.0
H1138 H 0.85883 0.77141 0.10424 0.0
H1139 H 0.84237 0.76638 0.12105 0.0
C1140 C 0.86076 0.74557 0.18645 0.0
C1141 C 0.85096 0.73737 0.20322 0.0
C1142 C 0.86084 0.7468 0.14988 0.0
C1143 C 0.85088 0.74016 0.1295 0.0
C1144 C 0.8413 0.7317 0.14623 0.0
H1145 H 0.82957 0.76457 0.91803 0.0
H1146 H 0.83021 0.75984 0.98094 0.0
C1147 C 0.84139 0.73025 0.18269 0.0
C1148 C 0.85033 0.74204 0.09082 0.0
H1149 H 0.84852 0.76629 0.02663 0.0
C1150 C 0.85016 0.7304 0.06924 0.0
C1151 C 0.84938 0.75514 0.07522 0.0
C1152 C 0.8484 0.76805 0.09676 0.0
C1153 C 0.84912 0.73149 0.03258 0.0
C1154 C 0.84875 0.7446 0.01692 0.0
C1155 C 0.8489 0.75623 0.03854 0.0
C1156 C 0.84792 0.74661 0.9783 0.0
C1157 C 0.84799 0.71854 0.01126 0.0
C1158 C 0.85759 0.74068 0.95568 0.0
C1159 C 0.85704 0.74313 0.91955 0.0
C1160 C 0.84704 0.75187 0.9055 0.0
C1161 C 0.8374 0.75781 0.92812 0.0
C1162 C 0.83778 0.75513 0.9641 0.0
H1163 H 0.84401 0.70994 0.02728 0.0
H1164 H 0.84117 0.71995 0.98826 0.0
H1165 H 0.85828 0.7156 0.00168 0.0
H1166 H 0.86576 0.73441 0.96601 0.0
H1167 H 0.86472 0.73857 0.90279 0.0
H1168 H 0.53012 0.40337 0.06099 0.0
H1169 H 0.52808 0.40284 0.12479 0.0
H1170 H 0.48764 0.38575 0.11569 0.0
H1171 H 0.48961 0.38611 0.05166 0.0
H1172 H 0.50849 0.41679 0.1636 0.0
H1173 H 0.50602 0.36099 0.18891 0.0
H1174 H 0.51201 0.36801 0.14787 0.0
H1175 H 0.49401 0.36704 0.15683 0.0
C1176 C 0.52083 0.39934 0.07248 0.0
C1177 C 0.51001 0.39478 0.05118 0.0
C1178 C 0.5197 0.39906 0.10898 0.0
C1179 C 0.50777 0.39415 0.12496 0.0
C1180 C 0.49703 0.38936 0.10388 0.0
H1181 H 0.47705 0.41139 0.33233 0.0
H1182 H 0.48151 0.40992 0.26941 0.0
C1183 C 0.49815 0.38963 0.06728 0.0
C1184 C 0.50627 0.3949 0.16359 0.0
H1185 H 0.50078 0.37563 0.23695 0.0
C1186 C 0.50688 0.40778 0.17967 0.0
C1187 C 0.50431 0.38312 0.18449 0.0
C1188 C 0.50417 0.36898 0.16877 0.0
C1189 C 0.50528 0.40925 0.21604 0.0
C1190 C 0.50285 0.39753 0.23679 0.0
C1191 C 0.50255 0.38461 0.22087 0.0
C1192 C 0.50033 0.39854 0.27499 0.0
C1193 C 0.50628 0.42332 0.23202 0.0
C1194 C 0.50937 0.39248 0.29895 0.0
C1195 C 0.50686 0.39331 0.33503 0.0
C1196 C 0.49519 0.4001 0.3477 0.0
C1197 C 0.48617 0.40614 0.32351 0.0
C1198 C 0.48871 0.40535 0.28753 0.0
H1199 H 0.51149 0.43063 0.21419 0.0
H1200 H 0.49584 0.42725 0.23723 0.0
H1201 H 0.51189 0.423 0.25732 0.0
H1202 H 0.51837 0.38714 0.28972 0.0
H1203 H 0.51398 0.38849 0.35292 0.0
H1204 H 0.86156 0.23856 0.29638 0.0
H1205 H 0.86136 0.23584 0.36028 0.0
H1206 H 0.84359 0.27591 0.37143 0.0
H1207 H 0.84362 0.2787 0.30779 0.0
H1208 H 0.87315 0.25231 0.41469 0.0
H1209 H 0.8165 0.25018 0.42217 0.0
H1210 H 0.82572 0.24812 0.3815 0.0
H1211 H 0.82321 0.26486 0.39972 0.0
C1212 C 0.85769 0.24683 0.31243 0.0
C1213 C 0.8525 0.2588 0.29696 0.0
C1214 C 0.8576 0.24526 0.3489 0.0
C1215 C 0.85225 0.25558 0.37043 0.0
C1216 C 0.84753 0.26772 0.35518 0.0
H1217 H 0.85825 0.26293 0.59764 0.0
H1218 H 0.85974 0.26664 0.53423 0.0
C1219 C 0.84762 0.26931 0.31879 0.0
C1220 C 0.85131 0.25356 0.40881 0.0
H1221 H 0.82846 0.25104 0.47615 0.0
C1222 C 0.8634 0.25202 0.42819 0.0
C1223 C 0.83855 0.25303 0.42616 0.0
C1224 C 0.82523 0.25401 0.40636 0.0
C1225 C 0.86306 0.25014 0.4647 0.0
C1226 C 0.8503 0.24997 0.48216 0.0
C1227 C 0.83822 0.25133 0.46268 0.0
C1228 C 0.84923 0.24794 0.52053 0.0
C1229 C 0.87631 0.2481 0.48422 0.0
C1230 C 0.8425 0.2364 0.53376 0.0
C1231 C 0.84156 0.23428 0.5699 0.0
C1232 C 0.84728 0.24373 0.59353 0.0
C1233 C 0.85378 0.25544 0.58017 0.0
C1234 C 0.85472 0.25753 0.54396 0.0
H1235 H 0.88483 0.2454 0.46623 0.0
H1236 H 0.87907 0.25772 0.49792 0.0
H1237 H 0.87528 0.23993 0.50425 0.0
H1238 H 0.83812 0.22892 0.51607 0.0
H1239 H 0.83646 0.22516 0.57927 0.0
H1240 H 0.02038 0.58718 0.82756 0.0
H1241 H 0.01591 0.58855 0.76466 0.0
H1242 H 0.97765 0.60889 0.78511 0.0
H1243 H 0.9821 0.60771 0.8483 0.0
H1244 H 0.9941 0.5781 0.7259 0.0
H1245 H 0.99702 0.63467 0.71574 0.0
H1246 H 0.00309 0.62542 0.75364 0.0
H1247 H 0.98512 0.62833 0.74773 0.0
C1248 C 0.01099 0.59194 0.81878 0.0
C1249 C 0.00162 0.5974 0.84301 0.0
C1250 C 0.00846 0.5927 0.78279 0.0
C1251 C 0.99656 0.599 0.77022 0.0
C1252 C 0.98703 0.60422 0.79426 0.0
H1253 H 0.96708 0.59168 0.55528 0.0
H1254 H 0.96909 0.59177 0.61918 0.0
C1255 C 0.98955 0.60345 0.83036 0.0
C1256 C 0.99417 0.59997 0.7319 0.0
H1257 H 0.99076 0.62264 0.66431 0.0
C1258 C 0.99332 0.58783 0.71242 0.0
C1259 C 0.99335 0.61269 0.71438 0.0
C1260 C 0.9948 0.62604 0.7338 0.0
C1261 C 0.99163 0.58806 0.67587 0.0
C1262 C 0.99055 0.60077 0.65843 0.0
C1263 C 0.99146 0.61292 0.67785 0.0
C1264 C 0.98887 0.60162 0.61985 0.0
C1265 C 0.99135 0.5747 0.65612 0.0
C1266 C -0.00089 0.60758 0.59912 0.0
C1267 C 0.99798 0.60761 0.56254 0.0
C1268 C 0.98653 0.60173 0.54607 0.0
C1269 C 0.97607 0.59622 0.56706 0.0
C1270 C 0.97722 0.59619 0.6036 0.0
H1271 H 0.99546 0.56614 0.67211 0.0
H1272 H 0.98064 0.5722 0.64906 0.0
H1273 H 0.99736 0.57543 0.63149 0.0
H1274 H 0.00815 0.61188 0.61122 0.0
H1275 H 0.0062 0.61198 0.54719 0.0
H1276 H 0.66722 0.76542 0.08163 0.0
H1277 H 0.66578 0.76101 0.01864 0.0
H1278 H 0.6314 0.73425 0.03598 0.0
H1279 H 0.63326 0.7381 0.09925 0.0
H1280 H 0.6472 0.72368 0.98855 0.0
H1281 H 0.63905 0.77783 0.95336 0.0
H1282 H 0.65486 0.77563 0.97635 0.0
H1283 H 0.63893 0.77202 0.99822 0.0
C1284 C 0.65939 0.75855 0.072 0.0
C1285 C 0.6503 0.75217 0.09531 0.0
C1286 C 0.6585 0.75614 0.03595 0.0
C1287 C 0.64822 0.74763 0.02237 0.0
C1288 C 0.63935 0.74095 0.04575 0.0
H1289 H 0.62894 0.75037 0.79868 0.0
H1290 H 0.62789 0.75213 0.86268 0.0
C1291 C 0.64043 0.74314 0.08191 0.0
C1292 C 0.64679 0.74562 0.98388 0.0
H1293 H 0.64476 0.7628 0.90613 0.0
C1294 C 0.64653 0.73224 0.97055 0.0
C1295 C 0.64558 0.75675 0.96033 0.0
C1296 C 0.64446 0.77134 0.97284 0.0
C1297 C 0.6455 0.7297 0.93438 0.0
C1298 C 0.64525 0.74086 0.91071 0.0
C1299 C 0.64513 0.75422 0.92412 0.0
C1300 C 0.64533 0.73899 0.87197 0.0
C1301 C 0.64441 0.71508 0.92214 0.0
C1302 C 0.65546 0.73102 0.85575 0.0
C1303 C 0.65588 0.72976 0.81925 0.0
C1304 C 0.64643 0.73678 0.79815 0.0
C1305 C 0.63636 0.74485 0.8143 0.0
C1306 C 0.63577 0.74587 0.85086 0.0
H1307 H 0.63988 0.70846 0.94277 0.0
H1308 H 0.63809 0.7142 0.89806 0.0
H1309 H 0.65479 0.7111 0.9164 0.0
H1310 H 0.66325 0.726 0.87123 0.0
H1311 H 0.66389 0.72363 0.80752 0.0
H1312 H 0.522 0.41121 0.83276 0.0
H1313 H 0.51756 0.41009 0.76975 0.0
H1314 H 0.47928 0.38972 0.78954 0.0
H1315 H 0.48365 0.39071 0.85275 0.0
H1316 H 0.49588 0.37705 0.73747 0.0
H1317 H 0.48942 0.43262 0.71343 0.0
H1318 H 0.50481 0.42814 0.73644 0.0
H1319 H 0.4885 0.42521 0.75675 0.0
C1320 C 0.51258 0.40658 0.8238 0.0
C1321 C 0.50315 0.40109 0.84784 0.0
C1322 C 0.51004 0.406 0.78776 0.0
C1323 C 0.49803 0.39996 0.77505 0.0
C1324 C 0.48859 0.39447 0.79889 0.0
H1325 H 0.4685 0.40581 0.56074 0.0
H1326 H 0.4706 0.40566 0.62459 0.0
C1327 C 0.49109 0.39508 0.83498 0.0
C1328 C 0.49552 0.39904 0.73681 0.0
H1329 H 0.49133 0.41841 0.66314 0.0
C1330 C 0.49481 0.38608 0.72119 0.0
C1331 C 0.494 0.41084 0.71577 0.0
C1332 C 0.49409 0.425 0.73141 0.0
C1333 C 0.49291 0.3846 0.68486 0.0
C1334 C 0.49184 0.39641 0.66368 0.0
C1335 C 0.49226 0.40937 0.67943 0.0
C1336 C 0.49028 0.39561 0.62508 0.0
C1337 C 0.49194 0.37043 0.66949 0.0
C1338 C 0.50064 0.38996 0.60418 0.0
C1339 C 0.49948 0.39001 0.5676 0.0
C1340 C 0.48796 0.39579 0.55129 0.0
C1341 C 0.47751 0.40125 0.5724 0.0
C1342 C 0.47869 0.40121 0.60892 0.0
H1343 H 0.48952 0.36267 0.68985 0.0
H1344 H 0.484 0.36999 0.64872 0.0
H1345 H 0.50189 0.36768 0.65747 0.0
H1346 H 0.50978 0.3858 0.61613 0.0
H1347 H 0.50774 0.38578 0.55213 0.0
H1348 H 0.33444 0.72403 0.30427 0.0
H1349 H 0.33441 0.72635 0.36804 0.0
H1350 H 0.36946 0.75298 0.36192 0.0
H1351 H 0.36914 0.75121 0.29786 0.0
H1352 H 0.35168 0.72022 0.418 0.0
H1353 H 0.34424 0.77633 0.41789 0.0
H1354 H 0.34304 0.76624 0.37847 0.0
H1355 H 0.35948 0.77129 0.39526 0.0
C1356 C 0.34218 0.73036 0.3165 0.0
C1357 C 0.35172 0.73755 0.29603 0.0
C1358 C 0.34215 0.73167 0.35299 0.0
C1359 C 0.35174 0.74008 0.36982 0.0
C1360 C 0.36168 0.74678 0.34952 0.0
H1361 H 0.36504 0.73855 0.59692 0.0
H1362 H 0.36635 0.73441 0.53372 0.0
C1363 C 0.36156 0.74568 0.31292 0.0
C1364 C 0.35116 0.74191 0.40852 0.0
H1365 H 0.34898 0.76606 0.47288 0.0
C1366 C 0.35105 0.73025 0.43001 0.0
C1367 C 0.35008 0.75498 0.42422 0.0
C1368 C 0.34907 0.76791 0.40276 0.0
C1369 C 0.34992 0.73128 0.46667 0.0
C1370 C 0.34938 0.74437 0.48242 0.0
C1371 C 0.34949 0.75602 0.4609 0.0
C1372 C 0.34836 0.74632 0.52104 0.0
C1373 C 0.34888 0.7183 0.4879 0.0
C1374 C 0.33803 0.75466 0.53502 0.0
C1375 C 0.33747 0.75732 0.57099 0.0
C1376 C 0.34715 0.75155 0.59384 0.0
C1377 C 0.35733 0.74298 0.58 0.0
C1378 C 0.35804 0.74054 0.54387 0.0
H1379 H 0.3451 0.70965 0.47173 0.0
H1380 H 0.35917 0.71551 0.4978 0.0
H1381 H 0.34194 0.7196 0.51069 0.0
H1382 H 0.33044 0.75925 0.518 0.0
H1383 H 0.32949 0.76395 0.5809 0.0
H1384 H 0.9896 0.6124 0.04748 0.0
H1385 H 0.98787 0.61259 0.11152 0.0
H1386 H 0.02798 0.59461 0.11927 0.0
H1387 H 0.02975 0.59422 0.05536 0.0
H1388 H 0.00848 0.58099 0.15843 0.0
H1389 H 0.00672 0.63671 0.18484 0.0
H1390 H 0.99443 0.631 0.15306 0.0
H1391 H 0.01236 0.62975 0.14341 0.0
C1392 C 0.99813 0.60865 0.06279 0.0
C1393 C 0.00981 0.60329 0.04626 0.0
C1394 C 0.99715 0.60883 0.09941 0.0
C1395 C 0.00786 0.60374 0.12015 0.0
C1396 C 0.01962 0.59862 0.10374 0.0
H1397 H 0.01343 0.6091 0.34852 0.0
H1398 H 0.0181 0.61052 0.28546 0.0
C1399 C 0.02061 0.59843 0.06719 0.0
C1400 C 0.00646 0.6029 0.15882 0.0
H1401 H 0.00103 0.62199 0.23251 0.0
C1402 C 0.00694 0.58996 0.17466 0.0
C1403 C 0.00459 0.61463 0.17996 0.0
C1404 C 0.00462 0.62883 0.16456 0.0
C1405 C 0.00528 0.5884 0.211 0.0
C1406 C 0.00289 0.60008 0.23197 0.0
C1407 C 0.00275 0.61305 0.21629 0.0
C1408 C 0.00023 0.59898 0.27012 0.0
C1409 C 0.00615 0.57428 0.22669 0.0
C1410 C 0.9886 0.59208 0.2823 0.0
C1411 C 0.9859 0.59125 0.31821 0.0
C1412 C 0.99476 0.59734 0.3427 0.0
C1413 C 0.00643 0.60424 0.33039 0.0
C1414 C 0.0091 0.6051 0.29439 0.0
H1415 H 0.01148 0.56703 0.20891 0.0
H1416 H 0.01159 0.57448 0.25225 0.0
H1417 H 0.99567 0.57034 0.23129 0.0
H1418 H 0.98151 0.58749 0.26396 0.0
H1419 H 0.97678 0.58592 0.32673 0.0
H1420 H 0.13658 0.24022 0.7977 0.0
H1421 H 0.13651 0.23867 0.86178 0.0
H1422 H 0.15547 0.27834 0.86852 0.0
H1423 H 0.15573 0.27994 0.80457 0.0
H1424 H 0.1686 0.25864 0.90827 0.0
H1425 H 0.11285 0.25845 0.93457 0.0
H1426 H 0.11823 0.24591 0.90306 0.0
H1427 H 0.11997 0.26378 0.89305 0.0
C1428 C 0.14058 0.24869 0.8128 0.0
C1429 C 0.14616 0.2602 0.79597 0.0
C1430 C 0.14047 0.24782 0.84944 0.0
C1431 C 0.14584 0.25846 0.86991 0.0
C1432 C 0.15122 0.27004 0.85321 0.0
H1433 H 0.14029 0.2644 0.09838 0.0
H1434 H 0.13912 0.26915 0.03532 0.0
C1435 C 0.15134 0.27093 0.81663 0.0
C1436 C 0.14664 0.25718 0.90863 0.0
H1437 H 0.12739 0.25247 0.98237 0.0
C1438 C 0.15958 0.25738 0.92451 0.0
C1439 C 0.13486 0.2557 0.92978 0.0
C1440 C 0.12067 0.25607 0.91436 0.0
C1441 C 0.16109 0.25578 0.96089 0.0
C1442 C 0.14935 0.25375 0.98187 0.0
C1443 C 0.13638 0.25392 0.96615 0.0
C1444 C 0.15036 0.25108 0.02006 0.0
C1445 C 0.17523 0.25633 0.97658 0.0
C1446 C 0.15701 0.23932 0.03229 0.0
C1447 C 0.15771 0.23658 0.06821 0.0
C1448 C 0.15171 0.24553 0.09265 0.0
C1449 C 0.14507 0.25734 0.0803 0.0
C1450 C 0.14435 0.26005 0.04429 0.0
H1451 H 0.18259 0.26152 0.95882 0.0
H1452 H 0.17515 0.26175 0.00217 0.0
H1453 H 0.17894 0.24576 0.9811 0.0
H1454 H 0.16151 0.23214 0.014 0.0
H1455 H 0.16284 0.22735 0.07675 0.0
H1456 H 0.48402 0.60727 0.65585 0.0
H1457 H 0.47961 0.60853 0.71901 0.0
H1458 H 0.51794 0.58833 0.73952 0.0
H1459 H 0.52238 0.58689 0.67657 0.0
H1460 H 0.49599 0.57776 0.77803 0.0
H1461 H 0.4989 0.6343 0.78869 0.0
H1462 H 0.48709 0.62803 0.75637 0.0
H1463 H 0.50508 0.62509 0.75085 0.0
C1464 C 0.4915 0.60308 0.67379 0.0
C1465 C 0.50358 0.59702 0.66114 0.0
C1466 C 0.48901 0.60389 0.70987 0.0
C1467 C 0.49855 0.59871 0.73392 0.0
C1468 C 0.51048 0.59245 0.72138 0.0
H1469 H 0.50673 0.61158 0.95755 0.0
H1470 H 0.50921 0.61148 0.89365 0.0
C1471 C 0.51299 0.59164 0.68537 0.0
C1472 C 0.49609 0.59963 0.77221 0.0
H1473 H 0.49226 0.62223 0.8398 0.0
C1474 C 0.49515 0.58747 0.79156 0.0
C1475 C 0.49518 0.61233 0.78978 0.0
C1476 C 0.49673 0.6257 0.7705 0.0
C1477 C 0.49322 0.58766 0.82803 0.0
C1478 C 0.49202 0.60036 0.84551 0.0
C1479 C 0.49306 0.61252 0.82623 0.0
C1480 C 0.49003 0.60116 0.88399 0.0
C1481 C 0.49281 0.57428 0.84767 0.0
C1482 C 0.47827 0.5957 0.89962 0.0
C1483 C 0.47681 0.59573 0.93608 0.0
C1484 C 0.48709 0.60128 0.95762 0.0
C1485 C 0.49865 0.60718 0.94177 0.0
C1486 C 0.50008 0.60715 0.90526 0.0
H1487 H 0.49707 0.56575 0.83184 0.0
H1488 H 0.49862 0.57499 0.87263 0.0
H1489 H 0.48205 0.57175 0.85412 0.0
H1490 H 0.47028 0.59126 0.8836 0.0
H1491 H 0.46774 0.59117 0.94739 0.0
H1492 H 0.14192 0.73464 0.40368 0.0
H1493 H 0.14078 0.73037 0.46691 0.0
H1494 H 0.16037 0.76905 0.48674 0.0
H1495 H 0.16165 0.7734 0.42368 0.0
H1496 H 0.17123 0.74684 0.52567 0.0
H1497 H 0.11467 0.75005 0.53599 0.0
H1498 H 0.12101 0.73835 0.50348 0.0
H1499 H 0.12397 0.75635 0.4984 0.0
C1500 C 0.14602 0.74223 0.42147 0.0
C1501 C 0.15183 0.75439 0.40861 0.0
C1502 C 0.14528 0.7398 0.45759 0.0
C1503 C 0.15031 0.74949 0.48146 0.0
C1504 C 0.15637 0.76148 0.46872 0.0
H1505 H 0.1375 0.75773 0.70522 0.0
H1506 H 0.13781 0.7604 0.64137 0.0
C1507 C 0.15708 0.76394 0.43266 0.0
C1508 C 0.14937 0.74712 0.51976 0.0
H1509 H 0.12668 0.7435 0.58724 0.0
C1510 C 0.1615 0.74608 0.53916 0.0
C1511 C 0.13665 0.74631 0.53727 0.0
C1512 C 0.12331 0.74793 0.51787 0.0
C1513 C 0.16127 0.74414 0.57564 0.0
C1514 C 0.14855 0.74305 0.59305 0.0
C1515 C 0.13641 0.74422 0.57372 0.0
C1516 C 0.14769 0.74102 0.63149 0.0
C1517 C 0.17463 0.74355 0.59536 0.0
C1518 C 0.15285 0.72908 0.64696 0.0
C1519 C 0.15269 0.72751 0.6834 0.0
C1520 C 0.14731 0.73784 0.70506 0.0
C1521 C 0.14175 0.7496 0.68935 0.0
C1522 C 0.14191 0.75115 0.65287 0.0
H1523 H 0.18324 0.74764 0.57953 0.0
H1524 H 0.17398 0.74941 0.62024 0.0
H1525 H 0.17698 0.73276 0.60197 0.0
H1526 H 0.15715 0.72104 0.63085 0.0
H1527 H 0.15699 0.7183 0.69459 0.0
H1528 H 0.97616 0.41179 0.17103 0.0
H1529 H 0.98047 0.41045 0.23411 0.0
H1530 H 0.01833 0.38927 0.21447 0.0
H1531 H 0.0141 0.39049 0.15125 0.0
H1532 H 0.00108 0.37694 0.26655 0.0
H1533 H 0.00945 0.43231 0.29025 0.0
H1534 H 0.99401 0.42822 0.26695 0.0
H1535 H 0.01029 0.42479 0.24703 0.0
C1536 C 0.98545 0.40692 0.18006 0.0
C1537 C 0.99481 0.40129 0.15606 0.0
C1538 C 0.98791 0.40621 0.21612 0.0
C1539 C -0.00022 0.39988 0.22887 0.0
C1540 C 0.00913 0.39423 0.20508 0.0
H1541 H 0.03044 0.40499 0.44191 0.0
H1542 H 0.02796 0.40475 0.37816 0.0
C1543 C 0.00671 0.39498 0.16898 0.0
C1544 C 0.00226 0.3989 0.26709 0.0
H1545 H 0.00747 0.41815 0.3405 0.0
C1546 C 0.00254 0.38593 0.28276 0.0
C1547 C 0.00427 0.41065 0.288 0.0
C1548 C 0.00462 0.42479 0.27226 0.0
C1549 C 0.00454 0.38441 0.31904 0.0
C1550 C 0.00616 0.39619 0.3401 0.0
C1551 C 0.00613 0.40914 0.32429 0.0
C1552 C 0.00795 0.39537 0.37863 0.0
C1553 C 0.00505 0.37022 0.33446 0.0
C1554 C 0.99754 0.3901 0.40002 0.0
C1555 C 0.99893 0.3902 0.43655 0.0
C1556 C 0.01073 0.39565 0.4523 0.0
C1557 C 0.02123 0.4007 0.43069 0.0
C1558 C 0.01983 0.4006 0.39423 0.0
H1559 H 0.00706 0.36236 0.31408 0.0
H1560 H 0.01308 0.36949 0.35496 0.0
H1561 H 0.99507 0.36786 0.34685 0.0
H1562 H 0.98819 0.38623 0.38852 0.0
H1563 H 0.99062 0.38629 0.45242 0.0
H1564 H 0.34267 0.2801 0.19622 0.0
H1565 H 0.34257 0.27795 0.13235 0.0
H1566 H 0.3619 0.2385 0.14057 0.0
H1567 H 0.36217 0.24059 0.20457 0.0
H1568 H 0.37288 0.25553 0.08707 0.0
H1569 H 0.31628 0.25204 0.08012 0.0
H1570 H 0.3227 0.26678 0.10284 0.0
H1571 H 0.32561 0.25004 0.12065 0.0
C1572 C 0.347 0.271 0.1845 0.0
C1573 C 0.35234 0.26047 0.20556 0.0
C1574 C 0.34686 0.26977 0.14798 0.0
C1575 C 0.35201 0.25797 0.1318 0.0
C1576 C 0.3578 0.24766 0.1526 0.0
H1577 H 0.3366 0.2264 0.92442 0.0
H1578 H 0.33815 0.2309 0.98731 0.0
C1579 C 0.35795 0.24887 0.18917 0.0
C1580 C 0.35104 0.25623 0.09326 0.0
H1581 H 0.32815 0.25303 0.02613 0.0
C1582 C 0.36312 0.25501 0.07368 0.0
C1583 C 0.33827 0.25538 0.076 0.0
C1584 C 0.32496 0.256 0.09592 0.0
C1585 C 0.36277 0.25305 0.03717 0.0
C1586 C 0.34999 0.25247 0.01983 0.0
C1587 C 0.33792 0.25362 0.03947 0.0
C1588 C 0.3489 0.25007 0.98153 0.0
C1589 C 0.37604 0.25128 0.01757 0.0
C1590 C 0.35423 0.25949 0.95738 0.0
C1591 C 0.35336 0.25696 0.9213 0.0
C1592 C 0.34709 0.24498 0.90878 0.0
C1593 C 0.34152 0.23572 0.93311 0.0
C1594 C 0.34239 0.23827 0.9691 0.0
H1595 H 0.38467 0.24893 0.03554 0.0
H1596 H 0.37521 0.24297 0.99787 0.0
H1597 H 0.3785 0.26089 0.00346 0.0
H1598 H 0.35908 0.26879 0.96643 0.0
H1599 H 0.35772 0.26433 0.90329 0.0
H1600 H 0.03188 0.04494 0.05165 0.0
H1601 H 0.02508 0.0219 0.03436 0.0
H1602 H 0.98374 0.03578 0.01831 0.0
H1603 H 0.99046 0.05896 0.03513 0.0
H1604 H 0.00521 0.00447 0.06271 0.0
H1605 H 0.99375 0.01794 0.92414 0.0
H1606 H 0.00314 0.02914 0.953 0.0
H1607 H 0.98486 0.02797 0.95633 0.0
C1608 C 0.02131 0.04311 0.04459 0.0
C1609 C 0.01172 0.05381 0.04452 0.0
C1610 C 0.01746 0.02993 0.03472 0.0
C1611 C 0.00398 0.02722 0.02448 0.0
C1612 C 0.99427 0.03775 0.02544 0.0
H1613 H 0.96278 0.95399 0.95355 0.0
H1614 H 0.96895 0.97723 0.97088 0.0
C1615 C 0.99811 0.05096 0.03529 0.0
C1616 C 0.00017 0.01334 0.01267 0.0
H1617 H 0.98865 0.99533 0.94192 0.0
C1618 C 0.00161 0.00245 0.0363 0.0
C1619 C 0.99551 0.01078 0.97816 0.0
C1620 C 0.99432 0.02204 0.95128 0.0
C1621 C 0.99834 0.98904 0.02646 0.0
C1622 C 0.99372 0.98647 0.99193 0.0
C1623 C 0.99222 0.99737 0.96835 0.0
C1624 C 0.99025 0.97254 0.97993 0.0
C1625 C -0.0004 0.97776 0.05327 0.0
C1626 C 0.00028 0.96232 0.97847 0.0
C1627 C 0.99681 0.94903 0.96855 0.0
C1628 C 0.98324 0.94576 0.95981 0.0
C1629 C 0.97331 0.95615 0.96024 0.0
C1630 C 0.9768 0.96943 0.97013 0.0
H1631 H 0.00013 0.98184 0.08044 0.0
H1632 H 0.99083 0.97059 0.05146 0.0
H1633 H 0.0091 0.97189 0.04819 0.0
H1634 H 0.01078 0.96461 0.98532 0.0
H1635 H 0.00471 0.94128 0.96835 0.0
H1636 H 0.20272 0.78745 0.29896 0.0
H1637 H 0.22614 0.78221 0.28103 0.0
H1638 H 0.21498 0.74005 0.26517 0.0
H1639 H 0.19151 0.74517 0.28282 0.0
H1640 H 0.24501 0.76266 0.30913 0.0
H1641 H 0.23161 0.75214 0.17012 0.0
H1642 H 0.22024 0.76098 0.19971 0.0
H1643 H 0.22181 0.74271 0.20177 0.0
C1644 C 0.20525 0.77704 0.29182 0.0
C1645 C 0.19522 0.76674 0.29209 0.0
C1646 C 0.21863 0.77408 0.28159 0.0
C1647 C 0.22219 0.76081 0.27123 0.0
C1648 C 0.21234 0.75042 0.27247 0.0
H1649 H 0.29365 0.71886 0.19886 0.0
H1650 H 0.27086 0.7264 0.21602 0.0
C1651 C 0.19896 0.75335 0.28277 0.0
C1652 C 0.2362 0.75784 0.25891 0.0
H1653 H 0.25424 0.74677 0.18779 0.0
C1654 C 0.24708 0.75927 0.28255 0.0
C1655 C 0.2388 0.75349 0.22418 0.0
C1656 C 0.22753 0.75234 0.19732 0.0
C1657 C 0.26051 0.75601 0.27269 0.0
C1658 C 0.26309 0.75147 0.23808 0.0
C1659 C 0.25221 0.75026 0.21429 0.0
C1660 C 0.27689 0.74726 0.22649 0.0
C1661 C 0.27174 0.75701 0.29971 0.0
C1662 C 0.28777 0.75659 0.22598 0.0
C1663 C 0.30086 0.75231 0.21621 0.0
C1664 C 0.30324 0.73864 0.20662 0.0
C1665 C 0.2922 0.72945 0.20619 0.0
C1666 C 0.27916 0.73373 0.21598 0.0
H1667 H 0.26761 0.75768 0.32681 0.0
H1668 H 0.27867 0.74805 0.29809 0.0
H1669 H 0.27787 0.76633 0.29467 0.0
H1670 H 0.28615 0.76716 0.23333 0.0
H1671 H 0.30914 0.75966 0.21666 0.0
H1672 H 0.53659 0.04503 0.45426 0.0
H1673 H 0.53044 0.02165 0.47032 0.0
H1674 H 0.48845 0.03395 0.48347 0.0
H1675 H 0.49443 0.05732 0.46702 0.0
H1676 H 0.51891 0.01314 0.53369 0.0
H1677 H 0.48542 6e-05 0.42112 0.0
H1678 H 0.49689 0.0145 0.4205 0.0
H1679 H 0.48079 0.01562 0.44304 0.0
C1680 C 0.52601 0.04275 0.46019 0.0
C1681 C 0.51598 0.05304 0.45926 0.0
C1682 C 0.52253 0.02938 0.46942 0.0
C1683 C 0.50898 0.02605 0.47768 0.0
C1684 C 0.49893 0.03626 0.47652 0.0
H1685 H 0.46625 0.95465 0.55151 0.0
H1686 H 0.47348 0.97761 0.53471 0.0
C1687 C 0.50238 0.04963 0.46725 0.0
C1688 C 0.50546 0.01204 0.48907 0.0
H1689 H 0.48524 0.9847 0.46946 0.0
C1690 C 0.51163 0.00687 0.51955 0.0
C1691 C 0.49595 0.00392 0.47052 0.0
C1692 C 0.48946 0.00873 0.43679 0.0
C1693 C 0.50828 0.99387 0.53249 0.0
C1694 C 0.49866 0.98582 0.51415 0.0
C1695 C 0.49258 0.99095 0.48351 0.0
C1696 C 0.49462 0.97207 0.52637 0.0
C1697 C 0.51478 0.989 0.56613 0.0
C1698 C 0.50416 0.96138 0.52739 0.0
C1699 C 0.50007 0.94822 0.53705 0.0
C1700 C 0.48636 0.94554 0.54563 0.0
C1701 C 0.47689 0.95635 0.54509 0.0
C1702 C 0.48099 0.96948 0.53544 0.0
H1703 H 0.51944 0.99755 0.58113 0.0
H1704 H 0.50716 0.9838 0.58308 0.0
H1705 H 0.52297 0.98155 0.55985 0.0
H1706 H 0.51469 0.96314 0.51993 0.0
H1707 H 0.5076 0.94011 0.53703 0.0
H1708 H 0.29468 0.2141 0.79902 0.0
H1709 H 0.27157 0.22052 0.78128 0.0
H1710 H 0.28476 0.26214 0.76613 0.0
H1711 H 0.30799 0.2558 0.78346 0.0
H1712 H 0.25378 0.24023 0.80996 0.0
H1713 H 0.26721 0.2519 0.67149 0.0
H1714 H 0.27847 0.24256 0.70035 0.0
H1715 H 0.27717 0.26082 0.70377 0.0
C1716 C 0.29268 0.22464 0.79203 0.0
C1717 C 0.3032 0.23443 0.79243 0.0
C1718 C 0.27947 0.22828 0.78191 0.0
C1719 C 0.27654 0.24173 0.77185 0.0
C1720 C 0.2869 0.25163 0.77315 0.0
H1721 H 0.20352 0.28291 0.70045 0.0
H1722 H 0.22668 0.27656 0.71787 0.0
C1723 C 0.30014 0.24801 0.78329 0.0
C1724 C 0.26263 0.24536 0.75996 0.0
H1725 H 0.24457 0.2569 0.6893 0.0
C1726 C 0.25174 0.24384 0.78357 0.0
C1727 C 0.26004 0.25004 0.72549 0.0
C1728 C 0.2713 0.25133 0.69864 0.0
C1729 C 0.23831 0.2471 0.77378 0.0
C1730 C 0.23573 0.25176 0.73929 0.0
C1731 C 0.24662 0.2533 0.7157 0.0
C1732 C 0.2218 0.25534 0.7274 0.0
C1733 C 0.22706 0.24581 0.80064 0.0
C1734 C 0.21148 0.24541 0.72621 0.0
C1735 C 0.19821 0.24899 0.71627 0.0
C1736 C 0.19507 0.26256 0.70719 0.0
C1737 C 0.20557 0.27238 0.70739 0.0
C1738 C 0.21882 0.26878 0.71733 0.0
H1739 H 0.23115 0.24529 0.82779 0.0
H1740 H 0.21987 0.25456 0.79887 0.0
H1741 H 0.22121 0.2363 0.7956 0.0
H1742 H 0.21366 0.23491 0.73322 0.0
H1743 H 0.19038 0.24117 0.71623 0.0
H1744 H 0.99443 0.94166 0.46737 0.0
H1745 H 0.98893 0.96525 0.48315 0.0
H1746 H 0.03124 0.97651 0.47061 0.0
H1747 H 0.03685 0.953 0.45451 0.0
H1748 H 0.00038 0.97982 0.54065 0.0
H1749 H 0.01045 0.00566 0.41336 0.0
H1750 H 0.008 0.98742 0.41688 0.0
H1751 H 0.02402 0.99495 0.42924 0.0
C1752 C 0.00255 0.94918 0.46756 0.0
C1753 C 0.01608 0.94545 0.45963 0.0
C1754 C -0.00061 0.96263 0.47665 0.0
C1755 C 0.00966 0.97262 0.47771 0.0
C1756 C 0.02313 0.96899 0.46937 0.0
H1757 H 0.00824 0.05903 0.53322 0.0
H1758 H 0.01548 0.03585 0.5177 0.0
C1759 C 0.02632 0.95554 0.46033 0.0
C1760 C 0.00637 0.98666 0.48921 0.0
H1761 H 0.0057 0.01988 0.46208 0.0
C1762 C 0.00151 0.98859 0.52348 0.0
C1763 C 0.00797 0.99805 0.46679 0.0
C1764 C 0.01279 0.99647 0.42941 0.0
C1765 C 0.99825 0.00165 0.53605 0.0
C1766 C -0.00035 0.01302 0.51346 0.0
C1767 C 0.00467 0.01112 0.47932 0.0
C1768 C 0.99543 0.02691 0.52428 0.0
C1769 C 0.9935 0.00317 0.57351 0.0
C1770 C 0.98176 0.02954 0.53295 0.0
C1771 C 0.9776 0.04272 0.54188 0.0
C1772 C 0.98702 0.05357 0.54206 0.0
C1773 C 0.00074 0.0509 0.53347 0.0
C1774 C 0.00489 0.03768 0.52453 0.0
H1775 H 0.9967 0.99435 0.58991 0.0
H1776 H 0.99755 0.0127 0.58544 0.0
H1777 H 0.98217 0.00367 0.574 0.0
H1778 H 0.97424 0.02143 0.5322 0.0
H1779 H 0.96694 0.04442 0.54815 0.0
H1780 H 0.20339 0.71195 0.80228 0.0
H1781 H 0.22696 0.71775 0.7873 0.0
H1782 H 0.21516 0.75972 0.77102 0.0
H1783 H 0.19158 0.75408 0.78641 0.0
H1784 H 0.23604 0.72848 0.72387 0.0
H1785 H 0.24867 0.76309 0.83449 0.0
H1786 H 0.23408 0.7518 0.83523 0.0
H1787 H 0.23332 0.76767 0.81153 0.0
C1788 C 0.20582 0.72245 0.7959 0.0
C1789 C 0.19561 0.73257 0.79562 0.0
C1790 C 0.21929 0.72573 0.7873 0.0
C1791 C 0.22282 0.73918 0.77844 0.0
C1792 C 0.21269 0.74933 0.77845 0.0
H1793 H 0.29405 0.78101 0.70224 0.0
H1794 H 0.27125 0.77375 0.72016 0.0
C1795 C 0.19921 0.74607 0.78711 0.0
C1796 C 0.23694 0.74244 0.76749 0.0
H1797 H 0.26429 0.76273 0.78663 0.0
C1798 C 0.24228 0.73588 0.73773 0.0
C1799 C 0.24502 0.75209 0.78567 0.0
C1800 C 0.24005 0.75899 0.8187 0.0
C1801 C 0.25537 0.73901 0.72506 0.0
C1802 C 0.26335 0.74881 0.74294 0.0
C1803 C 0.25809 0.75524 0.77295 0.0
C1804 C 0.27709 0.75283 0.73053 0.0
C1805 C 0.2604 0.73211 0.6921 0.0
C1806 C 0.2879 0.74342 0.73032 0.0
C1807 C 0.30099 0.74752 0.72001 0.0
C1808 C 0.30346 0.76113 0.70994 0.0
C1809 C 0.29252 0.77045 0.7098 0.0
C1810 C 0.27948 0.76634 0.7201 0.0
H1811 H 0.25196 0.72712 0.67741 0.0
H1812 H 0.26552 0.73957 0.67455 0.0
H1813 H 0.26797 0.72414 0.69921 0.0
H1814 H 0.28629 0.73298 0.7388 0.0
H1815 H 0.30921 0.74011 0.72059 0.0
H1816 H 0.53551 0.95325 0.04829 0.0
H1817 H 0.5296 0.97657 0.03119 0.0
H1818 H 0.48746 0.96467 0.01891 0.0
H1819 H 0.49327 0.94124 0.03564 0.0
H1820 H 0.49842 0.97918 0.9613 0.0
H1821 H 0.50873 0.00568 0.08745 0.0
H1822 H 0.52249 0.99519 0.07172 0.0
H1823 H 0.50663 0.98739 0.08447 0.0
C1824 C 0.52495 0.9556 0.04231 0.0
C1825 C 0.51485 0.94539 0.04338 0.0
C1826 C 0.52159 0.96895 0.03269 0.0
C1827 C 0.50808 0.97235 0.02419 0.0
C1828 C 0.49794 0.96223 0.02554 0.0
H1829 H 0.46591 0.04459 0.95232 0.0
H1830 H 0.47273 0.02144 0.9684 0.0
C1831 C 0.50128 0.94887 0.03518 0.0
C1832 C 0.50462 0.98631 0.01231 0.0
H1833 H 0.50425 0.01969 0.03806 0.0
C1834 C 0.49964 0.98804 0.97809 0.0
C1835 C 0.50633 0.99783 0.03426 0.0
C1836 C 0.51122 0.99648 0.07163 0.0
C1837 C 0.49641 0.00105 0.96505 0.0
C1838 C 0.49801 0.01256 0.98708 0.0
C1839 C 0.50309 0.01083 0.02123 0.0
C1840 C 0.49408 0.02645 0.97563 0.0
C1841 C 0.49154 0.00238 0.92765 0.0
C1842 C 0.5038 0.03697 0.97478 0.0
C1843 C 0.49993 0.05026 0.96574 0.0
C1844 C 0.48623 0.05325 0.95767 0.0
C1845 C 0.47656 0.04263 0.95821 0.0
C1846 C 0.48044 0.02937 0.96723 0.0
H1847 H 0.49444 0.99335 0.91163 0.0
H1848 H 0.48023 0.00318 0.92743 0.0
H1849 H 0.49578 0.0117 0.9151 0.0
H1850 H 0.51437 0.03491 0.98137 0.0
H1851 H 0.50763 0.05821 0.96569 0.0
H1852 H 0.19081 0.25611 0.21772 0.0
H1853 H 0.21412 0.26254 0.23421 0.0
H1854 H 0.22745 0.22105 0.21761 0.0
H1855 H 0.20429 0.21455 0.20074 0.0
H1856 H 0.22935 0.25144 0.29012 0.0
H1857 H 0.25552 0.24355 0.16249 0.0
H1858 H 0.23718 0.24494 0.16624 0.0
H1859 H 0.24562 0.22918 0.17705 0.0
C1860 C 0.19873 0.24839 0.21717 0.0
C1861 C 0.1957 0.23483 0.20782 0.0
C1862 C 0.21202 0.25208 0.22667 0.0
C1863 C 0.22251 0.2423 0.22672 0.0
C1864 C 0.21955 0.2288 0.2171 0.0
H1865 H 0.30815 0.24198 0.28465 0.0
H1866 H 0.28478 0.23576 0.26828 0.0
C1867 C 0.20628 0.2251 0.20763 0.0
C1868 C 0.23641 0.24604 0.23845 0.0
H1869 H 0.26972 0.24708 0.21222 0.0
C1870 C 0.23818 0.25058 0.27307 0.0
C1871 C 0.24788 0.24482 0.21613 0.0
C1872 C 0.24649 0.24048 0.17831 0.0
C1873 C 0.25119 0.25372 0.28621 0.0
C1874 C 0.26266 0.25247 0.2639 0.0
C1875 C 0.26089 0.24795 0.22927 0.0
C1876 C 0.27659 0.25608 0.27571 0.0
C1877 C 0.25259 0.25807 0.32402 0.0
C1878 C 0.27968 0.26956 0.28529 0.0
C1879 C 0.29298 0.27314 0.29468 0.0
C1880 C 0.30347 0.26332 0.29446 0.0
C1881 C 0.3003 0.24978 0.28521 0.0
C1882 C 0.28698 0.24621 0.27578 0.0
H1883 H 0.24352 0.2551 0.3398 0.0
H1884 H 0.26185 0.25351 0.33614 0.0
H1885 H 0.25358 0.26935 0.32522 0.0
H1886 H 0.27185 0.27738 0.28476 0.0
H1887 H 0.29508 0.28368 0.30151 0.0
H1888 H 0.80799 0.25677 0.71564 0.0
H1889 H 0.78485 0.26366 0.73251 0.0
H1890 H 0.7713 0.2219 0.7233 0.0
H1891 H 0.79435 0.21488 0.70671 0.0
H1892 H 0.75963 0.26003 0.69568 0.0
H1893 H 0.76012 0.23306 0.82388 0.0
H1894 H 0.7755 0.23649 0.79923 0.0
H1895 H 0.76452 0.22258 0.78687 0.0
C1896 C 0.80008 0.24905 0.71706 0.0
C1897 C 0.80303 0.23525 0.71006 0.0
C1898 C 0.78688 0.25301 0.72672 0.0
C1899 C 0.77647 0.24324 0.72973 0.0
C1900 C 0.77928 0.22954 0.72179 0.0
H1901 H 0.69084 0.24349 0.78347 0.0
H1902 H 0.71438 0.23768 0.76802 0.0
C1903 C 0.79245 0.22557 0.71211 0.0
C1904 C 0.76263 0.24734 0.74113 0.0
H1905 H 0.73887 0.24228 0.80539 0.0
C1906 C 0.7551 0.25624 0.71976 0.0
C1907 C 0.7568 0.24234 0.77256 0.0
C1908 C 0.76467 0.23318 0.79718 0.0
C1909 C 0.7417 0.26002 0.72857 0.0
C1910 C 0.73584 0.25494 0.75988 0.0
C1911 C 0.74342 0.24613 0.78139 0.0
C1912 C 0.72175 0.2585 0.77051 0.0
C1913 C 0.73381 0.26911 0.70382 0.0
C1914 C 0.7182 0.27208 0.7778 0.0
C1915 C 0.70477 0.27545 0.78662 0.0
C1916 C 0.69466 0.26526 0.7885 0.0
C1917 C 0.69836 0.25159 0.78218 0.0
C1918 C 0.7118 0.24825 0.77333 0.0
H1919 H 0.73851 0.26942 0.6773 0.0
H1920 H 0.72307 0.26559 0.70125 0.0
H1921 H 0.73368 0.27968 0.71435 0.0
H1922 H 0.72581 0.2801 0.77646 0.0
H1923 H 0.70228 0.28606 0.79154 0.0
H1924 H 0.69004 0.74236 0.2209 0.0
H1925 H 0.71343 0.73658 0.23812 0.0
H1926 H 0.72601 0.77811 0.21868 0.0
H1927 H 0.70274 0.78398 0.20109 0.0
H1928 H 0.74399 0.75811 0.19155 0.0
H1929 H 0.73109 0.74866 0.33142 0.0
H1930 H 0.72107 0.73914 0.30039 0.0
H1931 H 0.71967 0.75744 0.30181 0.0
C1932 C 0.6978 0.75025 0.22007 0.0
C1933 C 0.69451 0.76365 0.20983 0.0
C1934 C 0.71112 0.74694 0.23014 0.0
C1935 C 0.72135 0.75699 0.23024 0.0
C1936 C 0.71821 0.77025 0.21899 0.0
H1937 H 0.80814 0.75741 0.28301 0.0
H1938 H 0.78489 0.7641 0.26658 0.0
C1939 C 0.70491 0.77357 0.20897 0.0
C1940 C 0.73534 0.75373 0.24222 0.0
H1941 H 0.75367 0.74337 0.3136 0.0
C1942 C 0.74615 0.75494 0.21825 0.0
C1943 C 0.73806 0.74965 0.27712 0.0
C1944 C 0.7269 0.74875 0.30433 0.0
C1945 C 0.75962 0.75186 0.22804 0.0
C1946 C 0.76233 0.74771 0.2629 0.0
C1947 C 0.75153 0.74658 0.28693 0.0
C1948 C 0.77625 0.74399 0.27461 0.0
C1949 C 0.77077 0.7527 0.20078 0.0
C1950 C 0.77894 0.73062 0.28574 0.0
C1951 C 0.79214 0.72679 0.29537 0.0
C1952 C 0.80291 0.7363 0.29416 0.0
C1953 C 0.80009 0.74983 0.28408 0.0
C1954 C 0.78684 0.75365 0.27445 0.0
H1955 H 0.76656 0.75298 0.17371 0.0
H1956 H 0.77676 0.76219 0.20497 0.0
H1957 H 0.77785 0.74388 0.203 0.0
H1958 H 0.77086 0.72305 0.28624 0.0
H1959 H 0.79394 0.7163 0.30312 0.0
H1960 H 0.69091 0.25531 0.28219 0.0
H1961 H 0.71424 0.26163 0.26591 0.0
H1962 H 0.72667 0.21949 0.27439 0.0
H1963 H 0.70337 0.21303 0.29032 0.0
H1964 H 0.73905 0.25754 0.30274 0.0
H1965 H 0.73866 0.23043 0.17468 0.0
H1966 H 0.72324 0.23401 0.19903 0.0
H1967 H 0.7341 0.22005 0.21173 0.0
C1968 C 0.6986 0.24738 0.28072 0.0
C1969 C 0.69525 0.23365 0.28733 0.0
C1970 C 0.71192 0.25102 0.2714 0.0
C1971 C 0.72208 0.24099 0.26836 0.0
C1972 C 0.71888 0.22734 0.2759 0.0
H1973 H 0.80801 0.24202 0.2141 0.0
H1974 H 0.78465 0.23569 0.23015 0.0
C1975 C 0.70558 0.22368 0.28522 0.0
C1976 C 0.73605 0.24482 0.25733 0.0
H1977 H 0.75983 0.23977 0.19308 0.0
C1978 C 0.74359 0.25371 0.27871 0.0
C1979 C 0.7419 0.23978 0.22596 0.0
C1980 C 0.73404 0.23063 0.20131 0.0
C1981 C 0.75697 0.25753 0.26986 0.0
C1982 C 0.76282 0.25249 0.2385 0.0
C1983 C 0.75528 0.24359 0.21711 0.0
C1984 C 0.77679 0.25631 0.2275 0.0
C1985 C 0.76483 0.26669 0.2945 0.0
C1986 C 0.77998 0.26996 0.21989 0.0
C1987 C 0.7933 0.27362 0.21071 0.0
C1988 C 0.80364 0.26367 0.20879 0.0
C1989 C 0.8003 0.24994 0.21542 0.0
C1990 C 0.78697 0.24629 0.22461 0.0
H1991 H 0.7602 0.26691 0.32111 0.0
H1992 H 0.77562 0.2633 0.29682 0.0
H1993 H 0.76479 0.27726 0.28403 0.0
H1994 H 0.77219 0.2778 0.22129 0.0
H1995 H 0.79551 0.28427 0.20557 0.0
H1996 H 0.69043 0.75608 0.71967 0.0
H1997 H 0.7139 0.76242 0.73505 0.0
H1998 H 0.72718 0.72118 0.71455 0.0
H1999 H 0.7039 0.71478 0.6988 0.0
H2000 H 0.72966 0.75064 0.78923 0.0
H2001 H 0.75472 0.74439 0.65955 0.0
H2002 H 0.73642 0.74572 0.66446 0.0
H2003 H 0.74495 0.72984 0.67348 0.0
C2004 C 0.69838 0.7484 0.71801 0.0
C2005 C 0.6953 0.73493 0.70794 0.0
C2006 C 0.71176 0.75204 0.72688 0.0
C2007 C 0.72227 0.7423 0.72552 0.0
C2008 C 0.71926 0.72891 0.71512 0.0
H2009 H 0.80853 0.74187 0.77919 0.0
H2010 H 0.78512 0.73555 0.7632 0.0
C2011 C 0.70592 0.72526 0.70631 0.0
C2012 C 0.73627 0.74592 0.73673 0.0
H2013 H 0.76936 0.74732 0.70872 0.0
C2014 C 0.73834 0.75001 0.77161 0.0
C2015 C 0.74755 0.74498 0.71368 0.0
C2016 C 0.74583 0.74111 0.67561 0.0
C2017 C 0.75146 0.75298 0.78426 0.0
C2018 C 0.76274 0.75204 0.76121 0.0
C2019 C 0.76068 0.74795 0.72634 0.0
C2020 C 0.77673 0.75568 0.77245 0.0
C2021 C 0.75318 0.75684 0.82233 0.0
C2022 C 0.77972 0.76908 0.78284 0.0
C2023 C 0.79303 0.77272 0.79199 0.0
C2024 C 0.80364 0.76302 0.79074 0.0
C2025 C 0.80059 0.74956 0.78057 0.0
C2026 C 0.78724 0.74593 0.77135 0.0
H2027 H 0.74429 0.75358 0.83839 0.0
H2028 H 0.76259 0.75222 0.83349 0.0
H2029 H 0.75408 0.76811 0.82447 0.0
H2030 H 0.7718 0.77681 0.78321 0.0
H2031 H 0.79503 0.78319 0.79955 0.0
H2032 H 0.53411 0.54425 0.55218 0.0
H2033 H 0.52777 0.52103 0.53528 0.0
H2034 H 0.48608 0.53396 0.52 0.0
H2035 H 0.49228 0.55724 0.53722 0.0
H2036 H 0.48909 0.50899 0.55735 0.0
H2037 H 0.51917 0.50936 0.43376 0.0
H2038 H 0.52869 0.51382 0.47238 0.0
H2039 H 0.51511 0.52476 0.45764 0.0
C2040 C 0.52357 0.54217 0.54538 0.0
C2041 C 0.51371 0.55262 0.54582 0.0
C2042 C 0.52 0.52891 0.53553 0.0
C2043 C 0.50653 0.52588 0.52576 0.0
C2044 C 0.49656 0.53616 0.52721 0.0
H2045 H 0.46435 0.4529 0.45588 0.0
H2046 H 0.47068 0.47614 0.47262 0.0
C2047 C 0.50012 0.54944 0.53708 0.0
C2048 C 0.50286 0.51196 0.51401 0.0
H2049 H 0.50935 0.4882 0.45059 0.0
C2050 C 0.49345 0.50445 0.53394 0.0
C2051 C 0.50862 0.50611 0.48347 0.0
C2052 C 0.51837 0.51395 0.46034 0.0
C2053 C 0.48982 0.49109 0.52447 0.0
C2054 C 0.49558 0.48523 0.49393 0.0
C2055 C 0.50498 0.49275 0.474 0.0
C2056 C 0.49192 0.47131 0.48222 0.0
C2057 C 0.48007 0.48325 0.5476 0.0
C2058 C 0.50189 0.46104 0.48087 0.0
C2059 C 0.49834 0.44774 0.4711 0.0
C2060 C 0.48475 0.44454 0.46235 0.0
C2061 C 0.47488 0.455 0.46268 0.0
C2062 C 0.47845 0.46827 0.47244 0.0
H2063 H 0.47925 0.48785 0.57417 0.0
H2064 H 0.46975 0.48335 0.53554 0.0
H2065 H 0.48334 0.47244 0.55035 0.0
H2066 H 0.51237 0.46325 0.48809 0.0
H2067 H 0.50618 0.43994 0.47104 0.0
H2068 H 0.96364 0.45313 0.04473 0.0
H2069 H 0.96982 0.47645 0.02825 0.0
H2070 H 0.01196 0.46427 0.01766 0.0
H2071 H 0.00588 0.44086 0.03376 0.0
H2072 H 0.98878 0.49465 0.05944 0.0
H2073 H 0.00277 0.48175 0.92207 0.0
H2074 H 0.99317 0.47028 0.9498 0.0
H2075 H 0.01135 0.47183 0.95504 0.0
C2076 C 0.97424 0.4554 0.03903 0.0
C2077 C 0.98426 0.4451 0.04032 0.0
C2078 C 0.97774 0.46873 0.02963 0.0
C2079 C 0.99129 0.472 0.02118 0.0
C2080 C 0.00139 0.46187 0.02343 0.0
H2081 H 0.03277 0.54537 0.95426 0.0
H2082 H 0.02631 0.52221 0.97132 0.0
C2083 C 0.99791 0.44852 0.03285 0.0
C2084 C 0.99481 0.48601 0.00987 0.0
H2085 H 0.00727 0.50438 0.94082 0.0
C2086 C 0.99278 0.49681 0.03348 0.0
C2087 C -1e-05 0.48874 0.97596 0.0
C2088 C 0.00185 0.47757 0.94908 0.0
C2089 C 0.99606 0.5103 0.0243 0.0
C2090 C 0.00127 0.51303 0.9904 0.0
C2091 C 0.00327 0.50223 0.96677 0.0
C2092 C 0.00495 0.52702 0.97915 0.0
C2093 C 0.99424 0.52146 0.05122 0.0
C2094 C 0.99501 0.53731 0.9772 0.0
C2095 C 0.99866 0.55059 0.96748 0.0
C2096 C 0.01231 0.55375 0.95935 0.0
C2097 C 0.02217 0.5433 0.96044 0.0
C2098 C 0.01851 0.53005 0.97018 0.0
H2099 H 0.99335 0.51727 0.07822 0.0
H2100 H 0.00293 0.52874 0.05049 0.0
H2101 H 0.98475 0.52722 0.04534 0.0
H2102 H 0.98444 0.53509 0.98333 0.0
H2103 H 0.99081 0.55838 0.96673 0.0
H2104 H 0.49277 0.44014 0.97113 0.0
H2105 H 0.48676 0.46358 0.98699 0.0
H2106 H 0.52884 0.47575 0.97478 0.0
H2107 H 0.535 0.45231 0.95931 0.0
H2108 H 0.517 0.48451 0.03763 0.0
H2109 H 0.48414 0.49724 0.92353 0.0
H2110 H 0.47939 0.48177 0.94574 0.0
H2111 H 0.4956 0.48278 0.92368 0.0
C2112 C 0.50073 0.44782 0.97148 0.0
C2113 C 0.51436 0.44436 0.96389 0.0
C2114 C 0.49727 0.46122 0.9804 0.0
C2115 C 0.50733 0.47141 0.98162 0.0
C2116 C 0.52092 0.46803 0.97383 0.0
H2117 H 0.50631 0.55759 0.03855 0.0
H2118 H 0.51325 0.53444 0.02209 0.0
C2119 C 0.5244 0.45463 0.96493 0.0
C2120 C 0.5038 0.48548 0.9925 0.0
H2121 H 0.48388 0.51286 0.97127 0.0
C2122 C 0.50983 0.49076 0.02303 0.0
C2123 C 0.49443 0.49356 0.97337 0.0
C2124 C 0.4881 0.48862 0.93958 0.0
C2125 C 0.5065 0.50384 0.03542 0.0
C2126 C 0.49705 0.51187 0.01645 0.0
C2127 C 0.49109 0.50663 0.98579 0.0
C2128 C 0.49307 0.52573 0.02805 0.0
C2129 C 0.51286 0.50883 0.06913 0.0
C2130 C 0.47941 0.52848 0.03657 0.0
C2131 C 0.4754 0.54168 0.04586 0.0
C2132 C 0.48497 0.55239 0.04657 0.0
C2133 C 0.4987 0.54955 0.03844 0.0
C2134 C 0.5027 0.53633 0.02915 0.0
H2135 H 0.51734 0.50032 0.08462 0.0
H2136 H 0.52115 0.51617 0.0629 0.0
H2137 H 0.50519 0.5142 0.0856 0.0
H2138 H 0.47183 0.52042 0.03576 0.0
H2139 H 0.46474 0.5435 0.05192 0.0
H2140 H 0.03505 0.45316 0.54573 0.0
H2141 H 0.02861 0.47649 0.53006 0.0
H2142 H 0.98682 0.46364 0.51612 0.0
H2143 H 0.99311 0.44029 0.53219 0.0
H2144 H 0.01704 0.48494 0.46656 0.0
H2145 H 0.98329 0.49737 0.57922 0.0
H2146 H 0.99497 0.48309 0.5797 0.0
H2147 H 0.97895 0.48181 0.55686 0.0
C2148 C 0.02445 0.45531 0.5397 0.0
C2149 C 0.01458 0.44487 0.5403 0.0
C2150 C 0.02081 0.46864 0.53069 0.0
C2151 C 0.00722 0.4718 0.52231 0.0
C2152 C 0.99731 0.46145 0.52315 0.0
H2153 H 0.96477 0.54394 0.45079 0.0
H2154 H 0.97171 0.52082 0.46698 0.0
C2155 C 0.00094 0.44811 0.5322 0.0
C2156 C 0.00356 0.4858 0.51117 0.0
H2157 H 0.98335 0.51306 0.53169 0.0
C2158 C 0.00974 0.49114 0.48088 0.0
C2159 C 0.99402 0.49381 0.52992 0.0
C2160 C 0.9875 0.48881 0.56342 0.0
C2161 C 0.00641 0.5042 0.46841 0.0
C2162 C 0.99682 0.51218 0.48707 0.0
C2163 C 0.99068 0.50687 0.51743 0.0
C2164 C 0.99292 0.52606 0.47551 0.0
C2165 C 0.01295 0.50925 0.43498 0.0
C2166 C 0.00258 0.53664 0.47489 0.0
C2167 C 0.99866 0.54989 0.46558 0.0
C2168 C 0.98499 0.55277 0.45695 0.0
C2169 C 0.97539 0.54208 0.45723 0.0
C2170 C 0.97932 0.52886 0.46654 0.0
H2171 H 0.01748 0.50075 0.41953 0.0
H2172 H 0.00538 0.51467 0.41833 0.0
H2173 H 0.02123 0.51654 0.44158 0.0
H2174 H 0.01309 0.53472 0.48231 0.0
H2175 H 0.00629 0.5579 0.46581 0.0
H2176 H 0.06635 0.1113 0.07793 0.0
H2177 H 0.08099 0.13038 0.09464 0.0
H2178 H 0.04609 0.15728 0.09567 0.0
H2179 H 0.03125 0.13816 0.0793 0.0
H2180 H 0.08517 0.15565 0.06015 0.0
H2181 H 0.06323 0.16221 0.19397 0.0
H2182 H 0.06021 0.14711 0.16794 0.0
H2183 H 0.05141 0.16271 0.15787 0.0
C2184 C 0.06175 0.12127 0.08158 0.0
C2185 C 0.04761 0.12319 0.07749 0.0
C2186 C 0.07015 0.13216 0.0911 0.0
C2187 C 0.06458 0.14516 0.09683 0.0
C2188 C 0.05053 0.14725 0.09193 0.0
H2189 H 0.11117 0.21664 0.16989 0.0
H2190 H 0.09227 0.20237 0.14881 0.0
C2191 C 0.04209 0.13633 0.08238 0.0
C2192 C 0.07363 0.15641 0.10819 0.0
H2193 H 0.0817 0.1764 0.17864 0.0
C2194 C 0.08434 0.1603 0.08591 0.0
C2195 C 0.07244 0.16246 0.14177 0.0
C2196 C 0.06127 0.15839 0.16698 0.0
C2197 C 0.09416 0.16982 0.0967 0.0
C2198 C 0.09332 0.17542 0.13079 0.0
C2199 C 0.08228 0.17201 0.15255 0.0
C2200 C 0.10441 0.18397 0.14513 0.0
C2201 C 0.10552 0.17363 0.0718 0.0
C2202 C 0.11732 0.17819 0.15086 0.0
C2203 C 0.12807 0.18624 0.16299 0.0
C2204 C 0.1261 0.20023 0.16965 0.0
C2205 C 0.11302 0.2059 0.16492 0.0
C2206 C 0.10222 0.19779 0.15287 0.0
H2207 H 0.10281 0.17129 0.04415 0.0
H2208 H 0.10802 0.18467 0.07393 0.0
H2209 H 0.11483 0.16772 0.0786 0.0
H2210 H 0.1191 0.16747 0.14555 0.0
H2211 H 0.13799 0.18152 0.16649 0.0
H2212 H 0.11146 0.77947 0.34472 0.0
H2213 H 0.09176 0.79304 0.36396 0.0
H2214 H 0.11225 0.8299 0.33138 0.0
H2215 H 0.13198 0.81651 0.31242 0.0
H2216 H 0.09449 0.81574 0.41632 0.0
H2217 H 0.07231 0.83162 0.2885 0.0
H2218 H 0.0829 0.8166 0.29335 0.0
H2219 H 0.09057 0.83325 0.29198 0.0
C2220 C 0.11168 0.79045 0.34119 0.0
C2221 C 0.12327 0.79694 0.32711 0.0
C2222 C 0.10045 0.79816 0.35225 0.0
C2223 C 0.10056 0.81241 0.34877 0.0
C2224 C 0.11194 0.81888 0.33386 0.0
H2225 H 0.06637 0.88231 0.44189 0.0
H2226 H 0.07981 0.86254 0.42333 0.0
C2227 C 0.12322 0.81122 0.3232 0.0
C2228 C 0.08929 0.82076 0.36296 0.0
H2229 H 0.06531 0.84425 0.33902 0.0
C2230 C 0.08793 0.8218 0.39949 0.0
C2231 C 0.08074 0.82856 0.34084 0.0
C2232 C 0.08157 0.82741 0.30145 0.0
C2233 C 0.07869 0.83106 0.41452 0.0
C2234 C 0.0707 0.83943 0.39238 0.0
C2235 C 0.07152 0.83784 0.35587 0.0
C2236 C 0.06234 0.85072 0.40643 0.0
C2237 C 0.07778 0.83212 0.45392 0.0
C2238 C 0.04808 0.85054 0.4031 0.0
C2239 C 0.04034 0.86179 0.4139 0.0
C2240 C 0.04681 0.87346 0.42761 0.0
C2241 C 0.06109 0.87348 0.43141 0.0
C2242 C 0.06878 0.86218 0.42098 0.0
H2243 H 0.08206 0.82293 0.46704 0.0
H2244 H 0.08368 0.84116 0.46282 0.0
H2245 H 0.06701 0.8335 0.46241 0.0
H2246 H 0.04297 0.84179 0.39166 0.0
H2247 H 0.02936 0.86151 0.41046 0.0
H2248 H 0.35864 0.8167 0.664 0.0
H2249 H 0.37704 0.83146 0.64327 0.0
H2250 H 0.40531 0.79775 0.64882 0.0
H2251 H 0.38694 0.78282 0.66976 0.0
H2252 H 0.41487 0.82352 0.67808 0.0
H2253 H 0.39405 0.8288 0.54336 0.0
H2254 H 0.38189 0.83223 0.57755 0.0
H2255 H 0.38883 0.81533 0.57287 0.0
C2256 C 0.36877 0.8124 0.66099 0.0
C2257 C 0.3713 0.79856 0.66834 0.0
C2258 C 0.37925 0.82084 0.64895 0.0
C2259 C 0.39243 0.81561 0.64397 0.0
C2260 C 0.39515 0.80192 0.65227 0.0
H2261 H 0.46568 0.86142 0.57999 0.0
H2262 H 0.45055 0.8425 0.59615 0.0
C2263 C 0.38464 0.79343 0.66424 0.0
C2264 C 0.40333 0.82454 0.63012 0.0
H2265 H 0.41152 0.84451 0.55988 0.0
C2266 C 0.41429 0.82799 0.65208 0.0
C2267 C 0.4025 0.83025 0.59613 0.0
C2268 C 0.39126 0.82639 0.57093 0.0
C2269 C 0.42411 0.8376 0.64157 0.0
C2270 C 0.423 0.84369 0.60802 0.0
C2271 C 0.4123 0.83984 0.58561 0.0
C2272 C 0.4322 0.85482 0.59668 0.0
C2273 C 0.43521 0.84164 0.667 0.0
C2274 C 0.4268 0.86787 0.59061 0.0
C2275 C 0.43536 0.87865 0.5812 0.0
C2276 C 0.4495 0.87656 0.57755 0.0
C2277 C 0.45485 0.86337 0.58273 0.0
C2278 C 0.44624 0.85257 0.59217 0.0
H2279 H 0.4331 0.83794 0.69401 0.0
H2280 H 0.44506 0.83718 0.65827 0.0
H2281 H 0.43641 0.85292 0.66774 0.0
H2282 H 0.41597 0.86978 0.59383 0.0
H2283 H 0.43089 0.88866 0.57731 0.0
H2284 H 0.43208 0.11148 0.92662 0.0
H2285 H 0.41762 0.13062 0.90944 0.0
H2286 H 0.45285 0.15705 0.90633 0.0
H2287 H 0.46752 0.13784 0.92312 0.0
H2288 H 0.4137 0.15607 0.94241 0.0
H2289 H 0.43563 0.16159 0.80828 0.0
H2290 H 0.43861 0.14667 0.83502 0.0
H2291 H 0.44748 0.16231 0.84426 0.0
C2292 C 0.43679 0.12136 0.92243 0.0
C2293 C 0.45097 0.12311 0.92602 0.0
C2294 C 0.4285 0.13229 0.91264 0.0
C2295 C 0.43421 0.14518 0.90615 0.0
C2296 C 0.4483 0.14711 0.91063 0.0
H2297 H 0.38777 0.21656 0.83134 0.0
H2298 H 0.40668 0.20236 0.85277 0.0
C2299 C 0.45664 0.13614 0.92044 0.0
C2300 C 0.42526 0.15644 0.89435 0.0
H2301 H 0.41728 0.17603 0.82307 0.0
C2302 C 0.41456 0.16055 0.91647 0.0
C2303 C 0.42647 0.16227 0.86052 0.0
C2304 C 0.43759 0.15797 0.83543 0.0
C2305 C 0.40479 0.17004 0.90526 0.0
C2306 C 0.40566 0.17542 0.87094 0.0
C2307 C 0.41668 0.17182 0.84934 0.0
C2308 C 0.3946 0.18392 0.85624 0.0
C2309 C 0.39342 0.17406 0.92993 0.0
C2310 C 0.38173 0.17809 0.85029 0.0
C2311 C 0.37098 0.18609 0.83795 0.0
C2312 C 0.3729 0.2001 0.83133 0.0
C2313 C 0.38595 0.20582 0.83628 0.0
C2314 C 0.39675 0.19775 0.84852 0.0
H2315 H 0.39605 0.17177 0.95768 0.0
H2316 H 0.39105 0.18511 0.92752 0.0
H2317 H 0.38407 0.16823 0.92311 0.0
H2318 H 0.37997 0.16737 0.85564 0.0
H2319 H 0.36109 0.18134 0.8343 0.0
H2320 H 0.86109 0.81634 0.83442 0.0
H2321 H 0.87992 0.83034 0.85608 0.0
H2322 H 0.90684 0.79551 0.85179 0.0
H2323 H 0.88801 0.78133 0.83001 0.0
H2324 H 0.89573 0.82334 0.92072 0.0
H2325 H 0.92715 0.82791 0.79923 0.0
H2326 H 0.90912 0.824 0.79766 0.0
H2327 H 0.92104 0.81127 0.81196 0.0
C2328 C 0.87103 0.81165 0.8377 0.0
C2329 C 0.87305 0.79771 0.83052 0.0
C2330 C 0.88176 0.81966 0.85015 0.0
C2331 C 0.89472 0.81393 0.85538 0.0
C2332 C 0.8969 0.80011 0.84759 0.0
H2333 H 0.96658 0.86098 0.92248 0.0
H2334 H 0.95217 0.84147 0.90644 0.0
C2335 C 0.88614 0.79204 0.83522 0.0
C2336 C 0.9057 0.82243 0.87043 0.0
H2337 H 0.93452 0.84011 0.84887 0.0
C2338 C 0.9043 0.8269 0.90519 0.0
C2339 C 0.91691 0.82689 0.85013 0.0
C2340 C 0.91872 0.82236 0.81259 0.0
C2341 C 0.91363 0.83612 0.91992 0.0
C2342 C 0.92442 0.8412 0.89901 0.0
C2343 C 0.92619 0.83622 0.86476 0.0
C2344 C 0.93316 0.8526 0.91099 0.0
C2345 C 0.91173 0.84049 0.95756 0.0
C2346 C 0.92721 0.86528 0.91872 0.0
C2347 C 0.93537 0.8764 0.92785 0.0
C2348 C 0.94966 0.87508 0.92918 0.0
C2349 C 0.9556 0.86231 0.92183 0.0
C2350 C 0.9474 0.85117 0.91261 0.0
H2351 H 0.90609 0.83264 0.97284 0.0
H2352 H 0.9217 0.84243 0.97052 0.0
H2353 H 0.90565 0.85006 0.95827 0.0
H2354 H 0.91626 0.86668 0.91686 0.0
H2355 H 0.93046 0.8861 0.9332 0.0
H2356 H 0.96618 0.13748 0.5799 0.0
H2357 H 0.95152 0.15602 0.60127 0.0
H2358 H 0.9176 0.12807 0.60834 0.0
H2359 H 0.93206 0.10952 0.5871 0.0
H2360 H 0.92512 0.16558 0.57291 0.0
H2361 H 0.92174 0.14521 0.70852 0.0
H2362 H 0.93496 0.14012 0.67813 0.0
H2363 H 0.91812 0.13292 0.67475 0.0
C2364 C 0.95557 0.1353 0.5858 0.0
C2365 C 0.9503 0.122 0.58201 0.0
C2366 C 0.94725 0.14589 0.59801 0.0
C2367 C 0.93359 0.14331 0.60687 0.0
C2368 C 0.9282 0.13017 0.60215 0.0
H2369 H 0.86095 0.18078 0.67815 0.0
H2370 H 0.88 0.16621 0.66077 0.0
C2371 C 0.93647 0.11961 0.58984 0.0
C2372 C 0.92484 0.15425 0.62125 0.0
H2373 H 0.90568 0.1625 0.69291 0.0
C2374 C 0.921 0.16508 0.5993 0.0
C2375 C 0.9196 0.15351 0.65573 0.0
C2376 C 0.92389 0.14238 0.68083 0.0
C2377 C 0.91139 0.17482 0.61035 0.0
C2378 C 0.90573 0.17376 0.6444 0.0
C2379 C 0.91003 0.16324 0.6668 0.0
C2380 C 0.89453 0.18277 0.65629 0.0
C2381 C 0.90687 0.18575 0.58495 0.0
C2382 C 0.89649 0.19689 0.66019 0.0
C2383 C 0.88559 0.20528 0.67011 0.0
C2384 C 0.87259 0.19966 0.67641 0.0
C2385 C 0.87081 0.18545 0.6734 0.0
C2386 C 0.88168 0.1771 0.6635 0.0
H2387 H 0.91033 0.18361 0.55774 0.0
H2388 H 0.89557 0.18673 0.58499 0.0
H2389 H 0.91123 0.19572 0.59314 0.0
H2390 H 0.90641 0.20141 0.65533 0.0
H2391 H 0.88731 0.21618 0.67233 0.0
H2392 H 0.63361 0.18138 0.30637 0.0
H2393 H 0.6143 0.16747 0.32588 0.0
H2394 H 0.59277 0.20383 0.35781 0.0
H2395 H 0.61201 0.2179 0.33807 0.0
H2396 H 0.59634 0.1814 0.41071 0.0
H2397 H 0.57428 0.16456 0.28347 0.0
H2398 H 0.59258 0.16346 0.287 0.0
H2399 H 0.58444 0.17989 0.28786 0.0
C2400 C 0.6247 0.18645 0.3171 0.0
C2401 C 0.62433 0.20073 0.3207 0.0
C2402 C 0.61367 0.17849 0.3281 0.0
C2403 C 0.60213 0.18467 0.34301 0.0
C2404 C 0.60159 0.19893 0.34612 0.0
H2405 H 0.53095 0.13643 0.40784 0.0
H2406 H 0.54488 0.15576 0.38801 0.0
C2407 C 0.61256 0.20692 0.33477 0.0
C2408 C 0.59112 0.17609 0.35754 0.0
H2409 H 0.56723 0.15237 0.33451 0.0
C2410 C 0.58982 0.17519 0.39412 0.0
C2411 C 0.58263 0.16811 0.33572 0.0
C2412 C 0.58342 0.16908 0.29629 0.0
C2413 C 0.58063 0.16597 0.4095 0.0
C2414 C 0.57263 0.1575 0.38767 0.0
C2415 C 0.57345 0.15888 0.3511 0.0
C2416 C 0.56412 0.14643 0.40218 0.0
C2417 C 0.57974 0.1651 0.44893 0.0
C2418 C 0.5704 0.13488 0.41675 0.0
C2419 C 0.56252 0.1238 0.42778 0.0
C2420 C 0.54822 0.12414 0.42457 0.0
C2421 C 0.54194 0.13591 0.41083 0.0
C2422 C 0.54985 0.14693 0.39942 0.0
H2423 H 0.58427 0.17422 0.46181 0.0
H2424 H 0.56895 0.16403 0.45749 0.0
H2425 H 0.5854 0.15593 0.45803 0.0
H2426 H 0.58143 0.13428 0.41869 0.0
H2427 H 0.56766 0.11489 0.43827 0.0
H2428 H 0.52968 0.8615 0.0927 0.0
H2429 H 0.54369 0.84208 0.11179 0.0
H2430 H 0.58024 0.86457 0.08648 0.0
H2431 H 0.56643 0.88402 0.06759 0.0
H2432 H 0.57729 0.8342 0.06275 0.0
H2433 H 0.56928 0.8458 0.20458 0.0
H2434 H 0.55481 0.84573 0.1753 0.0
H2435 H 0.56751 0.85881 0.17128 0.0
C2436 C 0.5407 0.86225 0.09084 0.0
C2437 C 0.54696 0.87432 0.07882 0.0
C2438 C 0.54865 0.85118 0.10181 0.0
C2439 C 0.56294 0.852 0.10064 0.0
C2440 C 0.5692 0.86381 0.08755 0.0
H2441 H 0.6343 0.81628 0.18289 0.0
H2442 H 0.61497 0.83028 0.16405 0.0
C2443 C 0.56129 0.8749 0.07686 0.0
C2444 C 0.57152 0.84086 0.11445 0.0
H2445 H 0.585 0.82846 0.19062 0.0
C2446 C 0.57883 0.83274 0.09068 0.0
C2447 C 0.5735 0.83915 0.15089 0.0
C2448 C 0.56593 0.84782 0.17721 0.0
C2449 C 0.58841 0.82313 0.10252 0.0
C2450 C 0.5907 0.82172 0.13894 0.0
C2451 C 0.58311 0.82958 0.16273 0.0
C2452 C 0.60185 0.81309 0.15251 0.0
C2453 C 0.5965 0.81497 0.07614 0.0
C2454 C 0.60069 0.79883 0.15276 0.0
C2455 C 0.61169 0.79078 0.1637 0.0
C2456 C 0.62403 0.79691 0.17428 0.0
C2457 C 0.62498 0.81124 0.17476 0.0
C2458 C 0.61395 0.81926 0.16409 0.0
H2459 H 0.59416 0.81798 0.04868 0.0
H2460 H 0.60761 0.81634 0.08086 0.0
H2461 H 0.59415 0.80395 0.07932 0.0
H2462 H 0.59136 0.79394 0.14398 0.0
H2463 H 0.61065 0.77976 0.163 0.0
H2464 H 0.53123 0.63719 0.58436 0.0
H2465 H 0.5459 0.65655 0.60013 0.0
H2466 H 0.58147 0.63083 0.59038 0.0
H2467 H 0.56703 0.61156 0.57435 0.0
H2468 H 0.56376 0.65787 0.65776 0.0
H2469 H 0.59186 0.66454 0.53293 0.0
H2470 H 0.5761 0.655 0.53583 0.0
H2471 H 0.59205 0.64717 0.54796 0.0
C2472 C 0.54219 0.63571 0.58514 0.0
C2473 C 0.54797 0.62284 0.57802 0.0
C2474 C 0.55053 0.64677 0.5942 0.0
C2475 C 0.56476 0.64515 0.59589 0.0
C2476 C 0.57054 0.63236 0.58848 0.0
H2477 H 0.63754 0.68134 0.66885 0.0
H2478 H 0.61853 0.66729 0.64843 0.0
C2479 C 0.56224 0.62133 0.57953 0.0
C2480 C 0.57366 0.6565 0.60741 0.0
H2481 H 0.60243 0.674 0.5845 0.0
C2482 C 0.57207 0.66162 0.64157 0.0
C2483 C 0.58442 0.66138 0.58611 0.0
C2484 C 0.58614 0.65684 0.54854 0.0
C2485 C 0.5815 0.67092 0.65573 0.0
C2486 C 0.59267 0.67519 0.63502 0.0
C2487 C 0.59389 0.67057 0.60035 0.0
C2488 C 0.60376 0.68371 0.64949 0.0
C2489 C 0.57988 0.6756 0.6932 0.0
C2490 C 0.60164 0.69756 0.65711 0.0
C2491 C 0.6125 0.70565 0.66878 0.0
C2492 C 0.62562 0.69999 0.67294 0.0
C2493 C 0.62757 0.68602 0.66598 0.0
C2494 C 0.61675 0.67798 0.65423 0.0
H2495 H 0.57153 0.6701 0.70699 0.0
H2496 H 0.58956 0.67404 0.70786 0.0
H2497 H 0.57754 0.68669 0.69359 0.0
H2498 H 0.59169 0.70215 0.65327 0.0
H2499 H 0.61067 0.71639 0.67383 0.0
H2500 H 0.56346 0.37841 0.96052 0.0
H2501 H 0.5781 0.36003 0.93859 0.0
H2502 H 0.54673 0.34839 0.86477 0.0
H2503 H 0.53171 0.36614 0.88853 0.0
H2504 H 0.55883 0.32668 0.88608 0.0
H2505 H 0.59905 0.36378 0.85081 0.0
H2506 H 0.59585 0.3642 0.89704 0.0
H2507 H 0.58257 0.3691 0.86671 0.0
C2508 C 0.55967 0.37177 0.93995 0.0
C2509 C 0.54656 0.37369 0.92595 0.0
C2510 C 0.56807 0.36139 0.92717 0.0
C2511 C 0.56373 0.35315 0.8991 0.0
C2512 C 0.55037 0.35469 0.88619 0.0
H2513 H 0.62675 0.31175 0.7787 0.0
H2514 H 0.60765 0.32641 0.79597 0.0
C2515 C 0.54179 0.3648 0.89977 0.0
C2516 C 0.57326 0.34326 0.88255 0.0
H2517 H 0.60553 0.3403 0.84994 0.0
C2518 C 0.56901 0.32968 0.87782 0.0
C2519 C 0.58639 0.34723 0.87076 0.0
C2520 C 0.59116 0.36191 0.87121 0.0
C2521 C 0.57765 0.31989 0.86249 0.0
C2522 C 0.59115 0.32365 0.8532 0.0
C2523 C 0.59526 0.33731 0.8573 0.0
C2524 C 0.60137 0.31371 0.83973 0.0
C2525 C 0.57203 0.30578 0.85577 0.0
C2526 C 0.60405 0.3015 0.85791 0.0
C2527 C 0.61463 0.29288 0.84715 0.0
C2528 C 0.62304 0.29661 0.81895 0.0
C2529 C 0.62035 0.3087 0.80054 0.0
C2530 C 0.60947 0.31707 0.8105 0.0
H2531 H 0.5608 0.30608 0.85163 0.0
H2532 H 0.57684 0.30097 0.83245 0.0
H2533 H 0.57398 0.29925 0.87903 0.0
H2534 H 0.59834 0.29886 0.88126 0.0
H2535 H 0.61671 0.28368 0.86204 0.0
H2536 H 0.88136 0.28377 0.13481 0.0
H2537 H 0.8996 0.29921 0.11612 0.0
H2538 H 0.88898 0.32703 0.1998 0.0
H2539 H 0.87001 0.3121 0.21646 0.0
H2540 H 0.89161 0.34072 0.14561 0.0
H2541 H 0.93668 0.30693 0.14859 0.0
H2542 H 0.9239 0.29988 0.12032 0.0
H2543 H 0.92047 0.30175 0.1666 0.0
C2544 C 0.88311 0.29311 0.14944 0.0
C2545 C 0.87438 0.29681 0.17702 0.0
C2546 C 0.89361 0.30187 0.13899 0.0
C2547 C 0.89591 0.31421 0.15692 0.0
C2548 C 0.88745 0.3176 0.18547 0.0
H2549 H 0.96585 0.36694 0.11426 0.0
H2550 H 0.95054 0.34916 0.13654 0.0
C2551 C 0.87665 0.30907 0.19508 0.0
C2552 C 0.90619 0.32421 0.14401 0.0
H2553 H 0.93893 0.32747 0.11419 0.0
C2554 C 0.90201 0.33781 0.13926 0.0
C2555 C 0.91985 0.32056 0.13605 0.0
C2556 C 0.92551 0.30651 0.14356 0.0
C2557 C 0.91098 0.34779 0.12655 0.0
C2558 C 0.92432 0.34393 0.11614 0.0
C2559 C 0.92862 0.33039 0.12142 0.0
C2560 C 0.93404 0.35389 0.1006 0.0
C2561 C 0.90609 0.36243 0.1255 0.0
C2562 C 0.93009 0.36214 0.07216 0.0
C2563 C 0.93865 0.37255 0.06025 0.0
C2564 C 0.95154 0.37448 0.07548 0.0
C2565 C 0.95594 0.3656 0.10208 0.0
C2566 C 0.9472 0.35546 0.1148 0.0
H2567 H 0.89787 0.36425 0.14506 0.0
H2568 H 0.91453 0.36971 0.13082 0.0
H2569 H 0.90177 0.36465 0.09919 0.0
H2570 H 0.92024 0.36076 0.05975 0.0
H2571 H 0.93514 0.37919 0.03935 0.0
H2572 H 0.96568 0.63702 0.41966 0.0
H2573 H 0.95114 0.65575 0.39896 0.0
H2574 H 0.91628 0.62883 0.39917 0.0
H2575 H 0.93064 0.61008 0.41968 0.0
H2576 H 0.92164 0.64385 0.33404 0.0
H2577 H 0.92022 0.67687 0.45313 0.0
H2578 H 0.93662 0.67089 0.43822 0.0
H2579 H 0.92445 0.65892 0.45533 0.0
C2580 C 0.95488 0.63513 0.41572 0.0
C2581 C 0.94931 0.62205 0.42127 0.0
C2582 C 0.94661 0.64585 0.40397 0.0
C2583 C 0.93267 0.64363 0.39771 0.0
C2584 C 0.92704 0.63069 0.4039 0.0
H2585 H 0.85997 0.68109 0.32523 0.0
H2586 H 0.8789 0.66622 0.34162 0.0
C2587 C 0.93526 0.62001 0.41569 0.0
C2588 C 0.92394 0.65453 0.38306 0.0
H2589 H 0.90755 0.68417 0.40411 0.0
C2590 C 0.91864 0.65273 0.3492 0.0
C2591 C 0.92021 0.66614 0.40285 0.0
C2592 C 0.92557 0.66838 0.4395 0.0
C2593 C 0.90936 0.66209 0.33488 0.0
C2594 C 0.90509 0.67337 0.3553 0.0
C2595 C 0.91084 0.67548 0.38861 0.0
C2596 C 0.89389 0.68244 0.34371 0.0
C2597 C 0.90411 0.65976 0.29814 0.0
C2598 C 0.89602 0.69653 0.33997 0.0
C2599 C 0.88518 0.70511 0.33072 0.0
C2600 C 0.87201 0.69972 0.3254 0.0
C2601 C 0.86998 0.68557 0.32896 0.0
C2602 C 0.88081 0.67703 0.33814 0.0
H2603 H 0.91134 0.65347 0.28249 0.0
H2604 H 0.89425 0.65419 0.29945 0.0
H2605 H 0.90238 0.66959 0.28428 0.0
H2606 H 0.90605 0.70089 0.34443 0.0
H2607 H 0.88707 0.71597 0.32834 0.0
H2608 H 0.38826 0.28066 0.33144 0.0
H2609 H 0.40722 0.29472 0.35321 0.0
H2610 H 0.38074 0.3299 0.35576 0.0
H2611 H 0.36182 0.31607 0.33405 0.0
H2612 H 0.41793 0.32145 0.32384 0.0
H2613 H 0.39652 0.32468 0.45848 0.0
H2614 H 0.39174 0.31143 0.42781 0.0
H2615 H 0.38457 0.32826 0.42385 0.0
C2616 C 0.38652 0.29142 0.33633 0.0
C2617 C 0.37351 0.29723 0.33124 0.0
C2618 C 0.39734 0.29941 0.34877 0.0
C2619 C 0.39526 0.31325 0.35651 0.0
C2620 C 0.38245 0.31917 0.35034 0.0
H2621 H 0.43172 0.38555 0.42948 0.0
H2622 H 0.41761 0.36624 0.41166 0.0
C2623 C 0.37167 0.31125 0.33781 0.0
C2624 C 0.40629 0.32163 0.37169 0.0
H2625 H 0.4141 0.34056 0.44405 0.0
C2626 C 0.41729 0.32547 0.35031 0.0
C2627 C 0.40535 0.32676 0.40625 0.0
C2628 C 0.39398 0.3225 0.43063 0.0
C2629 C 0.42699 0.33502 0.36197 0.0
C2630 C 0.42569 0.34062 0.39603 0.0
C2631 C 0.41503 0.33626 0.41793 0.0
C2632 C 0.43444 0.35197 0.40825 0.0
C2633 C 0.43809 0.3396 0.33714 0.0
C2634 C 0.44855 0.35024 0.41287 0.0
C2635 C 0.45669 0.3613 0.42306 0.0
C2636 C 0.4508 0.37422 0.42886 0.0
C2637 C 0.4366 0.37576 0.42513 0.0
C2638 C 0.42851 0.36474 0.41497 0.0
H2639 H 0.43624 0.33604 0.30987 0.0
H2640 H 0.43891 0.35092 0.33702 0.0
H2641 H 0.44803 0.3354 0.34602 0.0
H2642 H 0.45327 0.34039 0.40838 0.0
H2643 H 0.46759 0.35977 0.42584 0.0
H2644 H 0.38674 0.71577 0.17145 0.0
H2645 H 0.40505 0.70063 0.15107 0.0
H2646 H 0.37646 0.66721 0.14496 0.0
H2647 H 0.35813 0.68218 0.16513 0.0
H2648 H 0.41428 0.67469 0.18035 0.0
H2649 H 0.39371 0.66987 0.04524 0.0
H2650 H 0.38858 0.68335 0.07482 0.0
H2651 H 0.38145 0.66651 0.07925 0.0
C2652 C 0.38437 0.70517 0.16596 0.0
C2653 C 0.37096 0.7002 0.16969 0.0
C2654 C 0.39483 0.69656 0.15431 0.0
C2655 C 0.39201 0.68291 0.14597 0.0
C2656 C 0.37875 0.67781 0.15068 0.0
H2657 H 0.43004 0.60972 0.07835 0.0
H2658 H 0.41523 0.62865 0.09517 0.0
C2659 C 0.36831 0.68637 0.1624 0.0
C2660 C 0.40284 0.67388 0.1322 0.0
H2661 H 0.41104 0.65402 0.06175 0.0
C2662 C 0.41373 0.67029 0.15427 0.0
C2663 C 0.40205 0.66825 0.09811 0.0
C2664 C 0.39089 0.67227 0.0728 0.0
C2665 C 0.4235 0.66062 0.14374 0.0
C2666 C 0.42242 0.65463 0.11007 0.0
C2667 C 0.41181 0.65862 0.08757 0.0
C2668 C 0.43157 0.64347 0.09864 0.0
C2669 C 0.43452 0.65643 0.16926 0.0
C2670 C 0.44564 0.64561 0.09439 0.0
C2671 C 0.45418 0.63478 0.08479 0.0
C2672 C 0.44874 0.62166 0.07917 0.0
C2673 C 0.43458 0.61967 0.08258 0.0
C2674 C 0.42609 0.63048 0.09216 0.0
H2675 H 0.43236 0.66006 0.19632 0.0
H2676 H 0.43563 0.64514 0.1698 0.0
H2677 H 0.44442 0.66085 0.16078 0.0
H2678 H 0.45002 0.65564 0.09869 0.0
H2679 H 0.46504 0.63665 0.08224 0.0
H2680 H 0.02979 0.63844 0.92069 0.0
H2681 H 0.04384 0.65742 0.89904 0.0
H2682 H 0.07889 0.6308 0.89472 0.0
H2683 H 0.06507 0.61186 0.91633 0.0
H2684 H 0.07071 0.66779 0.92843 0.0
H2685 H 0.07351 0.64733 0.79278 0.0
H2686 H 0.06028 0.64245 0.82339 0.0
H2687 H 0.07705 0.63509 0.82676 0.0
C2688 C 0.04052 0.63666 0.9154 0.0
C2689 C 0.0463 0.62362 0.92004 0.0
C2690 C 0.0485 0.6475 0.90302 0.0
C2691 C 0.0623 0.6454 0.89486 0.0
C2692 C 0.06818 0.63253 0.90046 0.0
H2693 H 0.13507 0.68103 0.824 0.0
H2694 H 0.11538 0.66726 0.84074 0.0
C2695 C 0.06027 0.62174 0.91295 0.0
C2696 C 0.07071 0.65649 0.88005 0.0
H2697 H 0.08969 0.66458 0.80797 0.0
C2698 C 0.07469 0.66729 0.90191 0.0
C2699 C 0.07578 0.65575 0.84541 0.0
C2700 C 0.07137 0.6446 0.82053 0.0
C2701 C 0.08436 0.67695 0.89067 0.0
C2702 C 0.08994 0.67581 0.85654 0.0
C2703 C 0.0854 0.66539 0.83414 0.0
C2704 C 0.10151 0.68439 0.84485 0.0
C2705 C 0.08911 0.6878 0.91601 0.0
C2706 C 0.10014 0.69858 0.84097 0.0
C2707 C 0.11142 0.70653 0.83141 0.0
C2708 C 0.12421 0.70038 0.8255 0.0
C2709 C 0.12539 0.68611 0.82846 0.0
C2710 C 0.11415 0.67821 0.83799 0.0
H2711 H 0.08547 0.68585 0.94316 0.0
H2712 H 0.10044 0.6884 0.91629 0.0
H2713 H 0.08513 0.69788 0.9075 0.0
H2714 H 0.09039 0.7035 0.84558 0.0
H2715 H 0.11017 0.71749 0.82922 0.0
H2716 H 0.03151 0.36001 0.57718 0.0
H2717 H 0.04548 0.34095 0.59872 0.0
H2718 H 0.08096 0.36703 0.59965 0.0
H2719 H 0.06722 0.38606 0.57816 0.0
H2720 H 0.07196 0.32988 0.56855 0.0
H2721 H 0.07605 0.35151 0.70282 0.0
H2722 H 0.06269 0.35635 0.67253 0.0
H2723 H 0.07956 0.36335 0.66791 0.0
C2724 C 0.04232 0.36165 0.58166 0.0
C2725 C 0.04824 0.37458 0.57617 0.0
C2726 C 0.05025 0.35076 0.59397 0.0
C2727 C 0.06415 0.35271 0.60119 0.0
C2728 C 0.07018 0.36543 0.59463 0.0
H2729 H 0.13643 0.31573 0.67234 0.0
H2730 H 0.11715 0.32994 0.65482 0.0
C2731 C 0.06231 0.37627 0.58222 0.0
C2732 C 0.07249 0.34161 0.61624 0.0
H2733 H 0.09167 0.33372 0.68812 0.0
C2734 C 0.07611 0.33053 0.59488 0.0
C2735 C 0.07778 0.34255 0.65063 0.0
C2736 C 0.07375 0.35401 0.67501 0.0
C2737 C 0.08561 0.32075 0.60637 0.0
C2738 C 0.09139 0.32205 0.64023 0.0
C2739 C 0.08724 0.33279 0.66214 0.0
C2740 C 0.10273 0.31323 0.65217 0.0
C2741 C 0.08995 0.30955 0.58155 0.0
C2742 C 0.10091 0.29914 0.65709 0.0
C2743 C 0.11195 0.29094 0.6671 0.0
C2744 C 0.12495 0.29674 0.67244 0.0
C2745 C 0.12658 0.31092 0.66835 0.0
C2746 C 0.11558 0.31907 0.65837 0.0
H2747 H 0.08626 0.31136 0.55438 0.0
H2748 H 0.10126 0.30863 0.58102 0.0
H2749 H 0.08572 0.29966 0.59074 0.0
H2750 H 0.091 0.29449 0.65299 0.0
H2751 H 0.11035 0.28006 0.67016 0.0
loop_
_geom_bond_atom_site_label_1
_geom_bond_atom_site_label_2
_geom_bond_distance
_geom_bond_site_symmetry_2
_ccdc_geom_bond_type
C0 O2 1.247 1_556 S
C0 O4 1.316 1_556 S
C1 O8 1.247 1_455 S
C1 O9 1.258 . S
O2 C0 1.247 1_554 S
O2 Zn3 2.028 . S
Zn3 O2 2.028 . S
Zn3 O7 2.035 . S
Zn3 O9 2.035 . S
Zn3 O10 2.028 . S
O4 C0 1.316 1_554 S
O4 Zn5 2.022 1_455 S
Zn5 O4 2.022 1_655 S
Zn5 O6 2.028 1_655 S
Zn5 O8 2.028 . S
Zn5 O11 2.035 . S
O6 Zn5 2.028 1_455 S
O6 C12 1.247 . S
O7 Zn3 2.035 . S
O7 C12 1.258 . S
O8 C1 1.247 1_655 S
O8 Zn5 2.028 . S
O9 C1 1.258 . S
O9 Zn3 2.035 . S
O10 Zn3 2.028 . S
O10 C13 1.180 1_455 S
O11 Zn5 2.035 . S
O11 C13 1.301 . S
C12 O6 1.247 . S
C12 O7 1.258 . S
C13 O10 1.180 1_655 S
C13 O11 1.301 . S
C14 O16 1.247 . S
C14 O18 1.258 . S
C15 O22 1.247 . S
C15 O23 1.258 . S
O16 C14 1.247 . S
O16 Zn17 2.028 . S
Zn17 O16 2.028 . S
Zn17 O21 2.035 . S
Zn17 O23 2.035 . S
Zn17 O24 2.028 . S
O18 C14 1.258 . S
O18 Zn19 2.035 . S
Zn19 O18 2.035 . S
Zn19 O20 2.028 . S
Zn19 O22 2.028 . S
Zn19 O25 2.035 . S
O20 Zn19 2.028 . S
O20 C26 1.247 . S
O21 Zn17 2.035 . S
O21 C26 1.258 . S
O22 C15 1.247 . S
O22 Zn19 2.028 . S
O23 C15 1.258 . S
O23 Zn17 2.035 . S
O24 Zn17 2.028 . S
O24 C27 1.247 . S
O25 Zn19 2.035 . S
O25 C27 1.258 . S
C26 O20 1.247 . S
C26 O21 1.258 . S
C27 O24 1.247 . S
C27 O25 1.258 . S
C28 O30 1.247 . S
C28 O32 1.258 . S
C29 O36 1.247 . S
C29 O37 1.258 . S
O30 C28 1.247 . S
O30 Zn31 2.028 . S
Zn31 O30 2.028 . S
Zn31 O35 2.035 . S
Zn31 O37 2.035 . S
Zn31 O38 2.028 . S
O32 C28 1.258 . S
O32 Zn33 2.035 . S
Zn33 O32 2.035 . S
Zn33 O34 2.028 . S
Zn33 O36 2.028 . S
Zn33 O39 2.035 . S
O34 Zn33 2.028 . S
O34 C40 1.247 . S
O35 Zn31 2.035 . S
O35 C40 1.258 . S
O36 C29 1.247 . S
O36 Zn33 2.028 . S
O37 C29 1.258 . S
O37 Zn31 2.035 . S
O38 Zn31 2.028 . S
O38 C41 1.247 . S
O39 Zn33 2.035 . S
O39 C41 1.258 . S
C40 O34 1.247 . S
C40 O35 1.258 . S
C41 O38 1.247 . S
C41 O39 1.258 . S
C42 O44 1.247 . S
C42 O46 1.258 . S
C43 O50 1.247 . S
C43 O51 1.258 . S
O44 C42 1.247 . S
O44 Zn45 2.028 . S
Zn45 O44 2.028 . S
Zn45 O49 2.035 . S
Zn45 O51 2.035 . S
Zn45 O52 2.028 . S
O46 C42 1.258 . S
O46 Zn47 2.035 . S
Zn47 O46 2.035 . S
Zn47 O48 2.028 . S
Zn47 O50 2.028 . S
Zn47 O53 2.035 . S
O48 Zn47 2.028 . S
O48 C54 1.247 . S
O49 Zn45 2.035 . S
O49 C54 1.258 . S
O50 C43 1.247 . S
O50 Zn47 2.028 . S
O51 C43 1.258 . S
O51 Zn45 2.035 . S
O52 Zn45 2.028 . S
O52 C55 1.247 . S
O53 Zn47 2.035 . S
O53 C55 1.258 . S
C54 O48 1.247 . S
C54 O49 1.258 . S
C55 O52 1.247 . S
C55 O53 1.258 . S
C56 O58 1.247 . S
C56 O60 1.258 . S
C57 O64 1.180 1_655 S
C57 O65 1.301 . S
O58 C56 1.247 . S
O58 Zn59 2.028 1_455 S
Zn59 O58 2.028 1_655 S
Zn59 O63 2.022 1_655 S
Zn59 O65 2.035 . S
Zn59 O66 2.028 . S
O60 C56 1.258 . S
O60 Zn61 2.035 . S
Zn61 O60 2.035 . S
Zn61 O62 2.028 . S
Zn61 O64 2.028 . S
Zn61 O67 2.035 . S
O62 Zn61 2.028 . S
O62 C68 1.247 . S
O63 Zn59 2.022 1_455 S
O63 C68 1.316 . S
O64 C57 1.180 1_455 S
O64 Zn61 2.028 . S
O65 C57 1.301 . S
O65 Zn59 2.035 . S
O66 Zn59 2.028 . S
O66 C69 1.247 1_655 S
O67 Zn61 2.035 . S
O67 C69 1.258 . S
C68 O62 1.247 . S
C68 O63 1.316 . S
C69 O66 1.247 1_455 S
C69 O67 1.258 . S
C70 O72 1.247 . S
C70 O74 1.258 . S
C71 O78 1.247 . S
C71 O79 1.258 . S
O72 C70 1.247 . S
O72 Zn73 2.028 . S
Zn73 O72 2.028 . S
Zn73 O77 2.035 . S
Zn73 O79 2.035 . S
Zn73 O80 2.028 . S
O74 C70 1.258 . S
O74 Zn75 2.035 . S
Zn75 O74 2.035 . S
Zn75 O76 2.028 . S
Zn75 O78 2.028 . S
Zn75 O81 2.035 . S
O76 Zn75 2.028 . S
O76 C82 1.247 . S
O77 Zn73 2.035 . S
O77 C82 1.258 . S
O78 C71 1.247 . S
O78 Zn75 2.028 . S
O79 C71 1.258 . S
O79 Zn73 2.035 . S
O80 Zn73 2.028 . S
O80 C83 1.247 . S
O81 Zn75 2.035 . S
O81 C83 1.258 . S
C82 O76 1.247 . S
C82 O77 1.258 . S
C83 O80 1.247 . S
C83 O81 1.258 . S
C84 O86 1.247 1_554 S
C84 O88 1.258 1_554 S
C85 O92 1.247 . S
C85 O93 1.258 . S
O86 C84 1.247 1_556 S
O86 Zn87 2.028 . S
Zn87 O86 2.028 . S
Zn87 O91 2.035 . S
Zn87 O93 2.035 . S
Zn87 O94 2.028 . S
O88 C84 1.258 1_556 S
O88 Zn89 2.035 . S
Zn89 O88 2.035 . S
Zn89 O90 2.028 . S
Zn89 O92 2.028 . S
Zn89 O95 2.035 . S
O90 Zn89 2.028 . S
O90 C96 1.247 . S
O91 Zn87 2.035 . S
O91 C96 1.258 . S
O92 C85 1.247 . S
O92 Zn89 2.028 . S
O93 C85 1.258 . S
O93 Zn87 2.035 . S
O94 Zn87 2.028 . S
O94 C97 1.247 . S
O95 Zn89 2.035 . S
O95 C97 1.258 . S
C96 O90 1.247 . S
C96 O91 1.258 . S
C97 O94 1.247 . S
C97 O95 1.258 . S
C98 O100 1.247 . S
C98 O102 1.258 . S
C99 O106 1.247 . S
C99 O107 1.258 . S
O100 C98 1.247 . S
O100 Zn101 2.028 . S
Zn101 O100 2.028 . S
Zn101 O105 2.035 . S
Zn101 O107 2.035 . S
Zn101 O108 2.028 . S
O102 C98 1.258 . S
O102 Zn103 2.035 . S
Zn103 O102 2.035 . S
Zn103 O104 2.028 . S
Zn103 O106 2.028 . S
Zn103 O109 2.035 . S
O104 Zn103 2.028 . S
O104 C110 1.247 . S
O105 Zn101 2.035 . S
O105 C110 1.258 . S
O106 C99 1.247 . S
O106 Zn103 2.028 . S
O107 C99 1.258 . S
O107 Zn101 2.035 . S
O108 Zn101 2.028 . S
O108 C111 1.247 . S
O109 Zn103 2.035 . S
O109 C111 1.258 . S
C110 O104 1.247 . S
C110 O105 1.258 . S
C111 O108 1.247 . S
C111 O109 1.258 . S
C112 O114 1.309 1_554 S
C112 O116 1.258 1_554 S
C113 O120 1.247 . S
C113 O121 1.258 1_655 S
O114 C112 1.309 1_556 S
O114 Zn115 2.013 1_655 S
Zn115 O114 2.013 1_455 S
Zn115 O119 2.035 1_455 S
Zn115 O121 2.035 . S
Zn115 O122 2.028 . S
O116 C112 1.258 1_556 S
O116 Zn117 2.035 . S
Zn117 O116 2.035 . S
Zn117 O118 2.028 . S
Zn117 O120 2.028 . S
Zn117 O123 2.035 . S
O118 Zn117 2.028 . S
O118 C124 1.247 . S
O119 Zn115 2.035 1_655 S
O119 C124 1.258 . S
O120 C113 1.247 . S
O120 Zn117 2.028 . S
O121 C113 1.258 1_455 S
O121 Zn115 2.035 . S
O122 Zn115 2.028 . S
O122 C125 1.295 . S
O123 Zn117 2.035 . S
O123 C125 1.182 1_655 S
C124 O118 1.247 . S
C124 O119 1.258 . S
C125 O122 1.295 . S
C125 O123 1.182 1_455 S
C126 O128 1.247 . S
C126 O130 1.258 . S
C127 O134 1.247 . S
C127 O135 1.258 . S
O128 C126 1.247 . S
O128 Zn129 2.028 . S
Zn129 O128 2.028 . S
Zn129 O133 2.035 . S
Zn129 O135 2.035 . S
Zn129 O136 2.028 . S
O130 C126 1.258 . S
O130 Zn131 2.035 . S
Zn131 O130 2.035 . S
Zn131 O132 2.028 . S
Zn131 O134 2.028 . S
Zn131 O137 2.035 . S
O132 Zn131 2.028 . S
O132 C138 1.247 . S
O133 Zn129 2.035 . S
O133 C138 1.258 . S
O134 C127 1.247 . S
O134 Zn131 2.028 . S
O135 C127 1.258 . S
O135 Zn129 2.035 . S
O136 Zn129 2.028 . S
O136 C139 1.247 . S
O137 Zn131 2.035 . S
O137 C139 1.258 . S
C138 O132 1.247 . S
C138 O133 1.258 . S
C139 O136 1.247 . S
C139 O137 1.258 . S
C140 O142 1.247 . S
C140 O144 1.258 . S
C141 O148 1.247 . S
C141 O149 1.258 . S
O142 C140 1.247 . S
O142 Zn143 2.028 . S
Zn143 O142 2.028 . S
Zn143 O147 2.035 . S
Zn143 O149 2.035 . S
Zn143 O150 2.028 . S
O144 C140 1.258 . S
O144 Zn145 2.035 . S
Zn145 O144 2.035 . S
Zn145 O146 2.028 . S
Zn145 O148 2.028 . S
Zn145 O151 2.035 . S
O146 Zn145 2.028 . S
O146 C152 1.247 . S
O147 Zn143 2.035 . S
O147 C152 1.258 . S
O148 C141 1.247 . S
O148 Zn145 2.028 . S
O149 C141 1.258 . S
O149 Zn143 2.035 . S
O150 Zn143 2.028 . S
O150 C153 1.247 . S
O151 Zn145 2.035 . S
O151 C153 1.258 . S
C152 O146 1.247 . S
C152 O147 1.258 . S
C153 O150 1.247 . S
C153 O151 1.258 . S
C154 O156 1.247 . S
C154 O158 1.258 . S
C155 O162 1.247 . S
C155 O163 1.258 . S
O156 C154 1.247 . S
O156 Zn157 2.028 . S
Zn157 O156 2.028 . S
Zn157 O161 2.035 . S
Zn157 O163 2.035 . S
Zn157 O164 2.028 . S
O158 C154 1.258 . S
O158 Zn159 2.035 . S
Zn159 O158 2.035 . S
Zn159 O160 2.028 . S
Zn159 O162 2.028 . S
Zn159 O165 2.035 . S
O160 Zn159 2.028 . S
O160 C166 1.247 . S
O161 Zn157 2.035 . S
O161 C166 1.258 . S
O162 C155 1.247 . S
O162 Zn159 2.028 . S
O163 C155 1.258 . S
O163 Zn157 2.035 . S
O164 Zn157 2.028 . S
O164 C167 1.247 . S
O165 Zn159 2.035 . S
O165 C167 1.258 . S
C166 O160 1.247 . S
C166 O161 1.258 . S
C167 O164 1.247 . S
C167 O165 1.258 . S
C168 O170 1.247 . S
C168 O172 1.258 . S
C169 O176 1.295 . S
C169 O177 1.182 1_455 S
O170 C168 1.247 . S
O170 Zn171 2.028 . S
Zn171 O170 2.028 . S
Zn171 O175 2.035 . S
Zn171 O177 2.035 . S
Zn171 O178 2.028 . S
O172 C168 1.258 . S
O172 Zn173 2.035 1_655 S
Zn173 O172 2.035 1_455 S
Zn173 O174 2.013 1_455 S
Zn173 O176 2.028 . S
Zn173 O179 2.035 . S
O174 Zn173 2.013 1_655 S
O174 C180 1.309 . S
O175 Zn171 2.035 . S
O175 C180 1.258 . S
O176 C169 1.295 . S
O176 Zn173 2.028 . S
O177 C169 1.182 1_655 S
O177 Zn171 2.035 . S
O178 Zn171 2.028 . S
O178 C181 1.247 . S
O179 Zn173 2.035 . S
O179 C181 1.258 1_455 S
C180 O174 1.309 . S
C180 O175 1.258 . S
C181 O178 1.247 . S
C181 O179 1.258 1_655 S
C182 O184 1.247 . S
C182 O186 1.258 . S
C183 O190 1.247 . S
C183 O191 1.258 . S
O184 C182 1.247 . S
O184 Zn185 2.028 . S
Zn185 O184 2.028 . S
Zn185 O189 2.035 . S
Zn185 O191 2.035 . S
Zn185 O192 2.028 . S
O186 C182 1.258 . S
O186 Zn187 2.035 . S
Zn187 O186 2.035 . S
Zn187 O188 2.028 . S
Zn187 O190 2.028 . S
Zn187 O193 2.035 . S
O188 Zn187 2.028 . S
O188 C194 1.247 . S
O189 Zn185 2.035 . S
O189 C194 1.258 . S
O190 C183 1.247 . S
O190 Zn187 2.028 . S
O191 C183 1.258 . S
O191 Zn185 2.035 . S
O192 Zn185 2.028 . S
O192 C195 1.247 . S
O193 Zn187 2.035 . S
O193 C195 1.258 . S
C194 O188 1.247 . S
C194 O189 1.258 . S
C195 O192 1.247 . S
C195 O193 1.258 . S
C196 O198 1.247 . S
C196 O200 1.258 . S
C197 O204 1.247 1_556 S
C197 O205 1.258 1_556 S
O198 C196 1.247 . S
O198 Zn199 2.028 . S
Zn199 O198 2.028 . S
Zn199 O203 2.035 . S
Zn199 O205 2.035 . S
Zn199 O206 2.028 . S
O200 C196 1.258 . S
O200 Zn201 2.035 . S
Zn201 O200 2.035 . S
Zn201 O202 2.028 . S
Zn201 O204 2.028 . S
Zn201 O207 2.035 . S
O202 Zn201 2.028 . S
O202 C208 1.247 . S
O203 Zn199 2.035 . S
O203 C208 1.258 . S
O204 C197 1.247 1_554 S
O204 Zn201 2.028 . S
O205 C197 1.258 1_554 S
O205 Zn199 2.035 . S
O206 Zn199 2.028 . S
O206 C209 1.247 . S
O207 Zn201 2.035 . S
O207 C209 1.258 . S
C208 O202 1.247 . S
C208 O203 1.258 . S
C209 O206 1.247 . S
C209 O207 1.258 . S
C210 O212 1.247 . S
C210 O214 1.258 . S
C211 O218 1.247 . S
C211 O219 1.258 . S
O212 C210 1.247 . S
O212 Zn213 2.028 . S
Zn213 O212 2.028 . S
Zn213 O217 2.035 . S
Zn213 O219 2.035 . S
Zn213 O220 2.028 . S
O214 C210 1.258 . S
O214 Zn215 2.035 . S
Zn215 O214 2.035 . S
Zn215 O216 2.028 . S
Zn215 O218 2.028 . S
Zn215 O221 2.035 . S
O216 Zn215 2.028 . S
O216 C222 1.247 . S
O217 Zn213 2.035 . S
O217 C222 1.258 . S
O218 C211 1.247 . S
O218 Zn215 2.028 . S
O219 C211 1.258 . S
O219 Zn213 2.035 . S
O220 Zn213 2.028 . S
O220 C223 1.247 . S
O221 Zn215 2.035 . S
O221 C223 1.258 . S
C222 O216 1.247 . S
C222 O217 1.258 . S
C223 O220 1.247 . S
C223 O221 1.258 . S
C224 O226 1.247 . S
C224 O228 1.258 . S
C225 O232 1.247 . S
C225 O233 1.258 . S
O226 C224 1.247 . S
O226 Zn227 2.028 . S
Zn227 O226 2.028 . S
Zn227 O231 2.035 . S
Zn227 O233 2.035 . S
Zn227 O234 2.028 . S
O228 C224 1.258 . S
O228 Zn229 2.035 . S
Zn229 O228 2.035 . S
Zn229 O230 2.028 . S
Zn229 O232 2.028 . S
Zn229 O235 2.035 . S
O230 Zn229 2.028 . S
O230 C236 1.247 . S
O231 Zn227 2.035 . S
O231 C236 1.258 . S
O232 C225 1.247 . S
O232 Zn229 2.028 . S
O233 C225 1.258 . S
O233 Zn227 2.035 . S
O234 Zn227 2.028 . S
O234 C237 1.247 . S
O235 Zn229 2.035 . S
O235 C237 1.258 . S
C236 O230 1.247 . S
C236 O231 1.258 . S
C237 O234 1.247 . S
C237 O235 1.258 . S
C238 O240 1.247 . S
C238 O242 1.258 . S
C239 O246 1.247 . S
C239 O247 1.258 . S
O240 C238 1.247 . S
O240 Zn241 2.028 . S
Zn241 O240 2.028 . S
Zn241 O245 2.035 . S
Zn241 O247 2.035 . S
Zn241 O248 2.028 . S
O242 C238 1.258 . S
O242 Zn243 2.035 . S
Zn243 O242 2.035 . S
Zn243 O244 2.028 . S
Zn243 O246 2.028 . S
Zn243 O249 2.035 . S
O244 Zn243 2.028 . S
O244 C250 1.247 . S
O245 Zn241 2.035 . S
O245 C250 1.258 . S
O246 C239 1.247 . S
O246 Zn243 2.028 . S
O247 C239 1.258 . S
O247 Zn241 2.035 . S
O248 Zn241 2.028 . S
O248 C251 1.247 . S
O249 Zn243 2.035 . S
O249 C251 1.258 . S
C250 O244 1.247 . S
C250 O245 1.258 . S
C251 O248 1.247 . S
C251 O249 1.258 . S
C252 O254 1.247 1_556 S
C252 O256 1.316 1_556 S
C253 O260 1.247 1_655 S
C253 O261 1.258 . S
O254 C252 1.247 1_554 S
O254 Zn255 2.028 . S
Zn255 O254 2.028 . S
Zn255 O259 2.035 . S
Zn255 O261 2.035 . S
Zn255 O262 2.028 . S
O256 C252 1.316 1_554 S
O256 Zn257 2.022 1_655 S
Zn257 O256 2.022 1_455 S
Zn257 O258 2.028 1_455 S
Zn257 O260 2.028 . S
Zn257 O263 2.035 . S
O258 Zn257 2.028 1_655 S
O258 C264 1.247 . S
O259 Zn255 2.035 . S
O259 C264 1.258 . S
O260 C253 1.247 1_455 S
O260 Zn257 2.028 . S
O261 C253 1.258 . S
O261 Zn255 2.035 . S
O262 Zn255 2.028 . S
O262 C265 1.180 1_655 S
O263 Zn257 2.035 . S
O263 C265 1.301 . S
C264 O258 1.247 . S
C264 O259 1.258 . S
C265 O262 1.180 1_455 S
C265 O263 1.301 . S
C266 O268 1.247 . S
C266 O270 1.258 . S
C267 O274 1.247 . S
C267 O275 1.258 . S
O268 C266 1.247 . S
O268 Zn269 2.028 . S
Zn269 O268 2.028 . S
Zn269 O273 2.035 . S
Zn269 O275 2.035 . S
Zn269 O276 2.028 . S
O270 C266 1.258 . S
O270 Zn271 2.035 . S
Zn271 O270 2.035 . S
Zn271 O272 2.028 . S
Zn271 O274 2.028 . S
Zn271 O277 2.035 . S
O272 Zn271 2.028 . S
O272 C278 1.247 . S
O273 Zn269 2.035 . S
O273 C278 1.258 . S
O274 C267 1.247 . S
O274 Zn271 2.028 . S
O275 C267 1.258 . S
O275 Zn269 2.035 . S
O276 Zn269 2.028 . S
O276 C279 1.247 . S
O277 Zn271 2.035 . S
O277 C279 1.258 . S
C278 O272 1.247 . S
C278 O273 1.258 . S
C279 O276 1.247 . S
C279 O277 1.258 . S
C280 O282 1.247 1_554 S
C280 O284 1.258 1_554 S
C281 O288 1.247 . S
C281 O289 1.258 . S
O282 C280 1.247 1_556 S
O282 Zn283 2.028 . S
Zn283 O282 2.028 . S
Zn283 O287 2.035 . S
Zn283 O289 2.035 . S
Zn283 O290 2.028 . S
O284 C280 1.258 1_556 S
O284 Zn285 2.035 . S
Zn285 O284 2.035 . S
Zn285 O286 2.028 . S
Zn285 O288 2.028 . S
Zn285 O291 2.035 . S
O286 Zn285 2.028 . S
O286 C292 1.247 . S
O287 Zn283 2.035 . S
O287 C292 1.258 . S
O288 C281 1.247 . S
O288 Zn285 2.028 . S
O289 C281 1.258 . S
O289 Zn283 2.035 . S
O290 Zn283 2.028 . S
O290 C293 1.247 . S
O291 Zn285 2.035 . S
O291 C293 1.258 . S
C292 O286 1.247 . S
C292 O287 1.258 . S
C293 O290 1.247 . S
C293 O291 1.258 . S
C294 O296 1.247 . S
C294 O298 1.258 . S
C295 O302 1.247 . S
C295 O303 1.258 . S
O296 C294 1.247 . S
O296 Zn297 2.028 . S
Zn297 O296 2.028 . S
Zn297 O301 2.035 . S
Zn297 O303 2.035 . S
Zn297 O304 2.028 . S
O298 C294 1.258 . S
O298 Zn299 2.035 . S
Zn299 O298 2.035 . S
Zn299 O300 2.028 . S
Zn299 O302 2.028 . S
Zn299 O305 2.035 . S
O300 Zn299 2.028 . S
O300 C306 1.247 . S
O301 Zn297 2.035 . S
O301 C306 1.258 . S
O302 C295 1.247 . S
O302 Zn299 2.028 . S
O303 C295 1.258 . S
O303 Zn297 2.035 . S
O304 Zn297 2.028 . S
O304 C307 1.247 . S
O305 Zn299 2.035 . S
O305 C307 1.258 . S
C306 O300 1.247 . S
C306 O301 1.258 . S
C307 O304 1.247 . S
C307 O305 1.258 . S
C308 O310 1.247 . S
C308 O312 1.258 . S
C309 O316 1.180 1_455 S
C309 O317 1.301 . S
O310 C308 1.247 . S
O310 Zn311 2.028 1_655 S
Zn311 O310 2.028 1_455 S
Zn311 O315 2.022 1_455 S
Zn311 O317 2.035 . S
Zn311 O318 2.028 . S
O312 C308 1.258 . S
O312 Zn313 2.035 . S
Zn313 O312 2.035 . S
Zn313 O314 2.028 . S
Zn313 O316 2.028 . S
Zn313 O319 2.035 . S
O314 Zn313 2.028 . S
O314 C320 1.247 . S
O315 Zn311 2.022 1_655 S
O315 C320 1.316 . S
O316 C309 1.180 1_655 S
O316 Zn313 2.028 . S
O317 C309 1.301 . S
O317 Zn311 2.035 . S
O318 Zn311 2.028 . S
O318 C321 1.247 1_455 S
O319 Zn313 2.035 . S
O319 C321 1.258 . S
C320 O314 1.247 . S
C320 O315 1.316 . S
C321 O318 1.247 1_655 S
C321 O319 1.258 . S
C322 O324 1.247 . S
C322 O326 1.258 . S
C323 O330 1.247 . S
C323 O331 1.258 . S
O324 C322 1.247 . S
O324 Zn325 2.028 . S
Zn325 O324 2.028 . S
Zn325 O329 2.035 . S
Zn325 O331 2.035 . S
Zn325 O332 2.028 . S
O326 C322 1.258 . S
O326 Zn327 2.035 . S
Zn327 O326 2.035 . S
Zn327 O328 2.028 . S
Zn327 O330 2.028 . S
Zn327 O333 2.035 . S
O328 Zn327 2.028 . S
O328 C334 1.247 . S
O329 Zn325 2.035 . S
O329 C334 1.258 . S
O330 C323 1.247 . S
O330 Zn327 2.028 . S
O331 C323 1.258 . S
O331 Zn325 2.035 . S
O332 Zn325 2.028 . S
O332 C335 1.247 . S
O333 Zn327 2.035 . S
O333 C335 1.258 . S
C334 O328 1.247 . S
C334 O329 1.258 . S
C335 O332 1.247 . S
C335 O333 1.258 . S
C336 O338 1.247 . S
C336 O340 1.258 . S
C337 O344 1.247 . S
C337 O345 1.258 . S
O338 C336 1.247 . S
O338 Zn339 2.028 . S
Zn339 O338 2.028 . S
Zn339 O343 2.035 . S
Zn339 O345 2.035 . S
Zn339 O346 2.028 . S
O340 C336 1.258 . S
O340 Zn341 2.035 . S
Zn341 O340 2.035 . S
Zn341 O342 2.028 . S
Zn341 O344 2.028 . S
Zn341 O347 2.035 . S
O342 Zn341 2.028 . S
O342 C348 1.247 . S
O343 Zn339 2.035 . S
O343 C348 1.258 . S
O344 C337 1.247 . S
O344 Zn341 2.028 . S
O345 C337 1.258 . S
O345 Zn339 2.035 . S
O346 Zn339 2.028 . S
O346 C349 1.247 . S
O347 Zn341 2.035 . S
O347 C349 1.258 . S
C348 O342 1.247 . S
C348 O343 1.258 . S
C349 O346 1.247 . S
C349 O347 1.258 . S
C350 O352 1.247 . S
C350 O354 1.258 . S
C351 O358 1.247 . S
C351 O359 1.258 . S
O352 C350 1.247 . S
O352 Zn353 2.028 . S
Zn353 O352 2.028 . S
Zn353 O357 2.035 . S
Zn353 O359 2.035 . S
Zn353 O360 2.028 . S
O354 C350 1.258 . S
O354 Zn355 2.035 . S
Zn355 O354 2.035 . S
Zn355 O356 2.028 . S
Zn355 O358 2.028 . S
Zn355 O361 2.035 . S
O356 Zn355 2.028 . S
O356 C362 1.247 . S
O357 Zn353 2.035 . S
O357 C362 1.258 . S
O358 C351 1.247 . S
O358 Zn355 2.028 . S
O359 C351 1.258 . S
O359 Zn353 2.035 . S
O360 Zn353 2.028 . S
O360 C363 1.247 . S
O361 Zn355 2.035 . S
O361 C363 1.258 . S
C362 O356 1.247 . S
C362 O357 1.258 . S
C363 O360 1.247 . S
C363 O361 1.258 . S
C364 O366 1.247 . S
C364 O368 1.258 . S
C365 O372 1.295 . S
C365 O373 1.182 1_655 S
O366 C364 1.247 . S
O366 Zn367 2.028 . S
Zn367 O366 2.028 . S
Zn367 O371 2.035 . S
Zn367 O373 2.035 . S
Zn367 O374 2.028 . S
O368 C364 1.258 . S
O368 Zn369 2.035 1_455 S
Zn369 O368 2.035 1_655 S
Zn369 O370 2.013 1_655 S
Zn369 O372 2.028 . S
Zn369 O375 2.035 . S
O370 Zn369 2.013 1_455 S
O370 C376 1.309 1_556 S
O371 Zn367 2.035 . S
O371 C376 1.258 1_556 S
O372 C365 1.295 . S
O372 Zn369 2.028 . S
O373 C365 1.182 1_455 S
O373 Zn367 2.035 . S
O374 Zn367 2.028 . S
O374 C377 1.247 . S
O375 Zn369 2.035 . S
O375 C377 1.258 1_655 S
C376 O370 1.309 1_554 S
C376 O371 1.258 1_554 S
C377 O374 1.247 . S
C377 O375 1.258 1_455 S
C378 O380 1.247 . S
C378 O382 1.258 . S
C379 O386 1.247 . S
C379 O387 1.258 . S
O380 C378 1.247 . S
O380 Zn381 2.028 . S
Zn381 O380 2.028 . S
Zn381 O385 2.035 . S
Zn381 O387 2.035 . S
Zn381 O388 2.028 . S
O382 C378 1.258 . S
O382 Zn383 2.035 . S
Zn383 O382 2.035 . S
Zn383 O384 2.028 . S
Zn383 O386 2.028 . S
Zn383 O389 2.035 . S
O384 Zn383 2.028 . S
O384 C390 1.247 . S
O385 Zn381 2.035 . S
O385 C390 1.258 . S
O386 C379 1.247 . S
O386 Zn383 2.028 . S
O387 C379 1.258 . S
O387 Zn381 2.035 . S
O388 Zn381 2.028 . S
O388 C391 1.247 . S
O389 Zn383 2.035 . S
O389 C391 1.258 . S
C390 O384 1.247 . S
C390 O385 1.258 . S
C391 O388 1.247 . S
C391 O389 1.258 . S
C392 O394 1.247 . S
C392 O396 1.258 . S
C393 O400 1.247 1_556 S
C393 O401 1.258 1_556 S
O394 C392 1.247 . S
O394 Zn395 2.028 . S
Zn395 O394 2.028 . S
Zn395 O399 2.035 . S
Zn395 O401 2.035 . S
Zn395 O402 2.028 . S
O396 C392 1.258 . S
O396 Zn397 2.035 . S
Zn397 O396 2.035 . S
Zn397 O398 2.028 . S
Zn397 O400 2.028 . S
Zn397 O403 2.035 . S
O398 Zn397 2.028 . S
O398 C404 1.247 . S
O399 Zn395 2.035 . S
O399 C404 1.258 . S
O400 C393 1.247 1_554 S
O400 Zn397 2.028 . S
O401 C393 1.258 1_554 S
O401 Zn395 2.035 . S
O402 Zn395 2.028 . S
O402 C405 1.247 . S
O403 Zn397 2.035 . S
O403 C405 1.258 . S
C404 O398 1.247 . S
C404 O399 1.258 . S
C405 O402 1.247 . S
C405 O403 1.258 . S
C406 O408 1.247 . S
C406 O410 1.258 . S
C407 O414 1.247 . S
C407 O415 1.258 . S
O408 C406 1.247 . S
O408 Zn409 2.028 . S
Zn409 O408 2.028 . S
Zn409 O413 2.035 . S
Zn409 O415 2.035 . S
Zn409 O416 2.028 . S
O410 C406 1.258 . S
O410 Zn411 2.035 . S
Zn411 O410 2.035 . S
Zn411 O412 2.028 . S
Zn411 O414 2.028 . S
Zn411 O417 2.035 . S
O412 Zn411 2.028 . S
O412 C418 1.247 . S
O413 Zn409 2.035 . S
O413 C418 1.258 . S
O414 C407 1.247 . S
O414 Zn411 2.028 . S
O415 C407 1.258 . S
O415 Zn409 2.035 . S
O416 Zn409 2.028 . S
O416 C419 1.247 . S
O417 Zn411 2.035 . S
O417 C419 1.258 . S
C418 O412 1.247 . S
C418 O413 1.258 . S
C419 O416 1.247 . S
C419 O417 1.258 . S
C420 O422 1.247 . S
C420 O424 1.258 . S
C421 O428 1.295 . S
C421 O429 1.182 1_655 S
O422 C420 1.247 . S
O422 Zn423 2.028 . S
Zn423 O422 2.028 . S
Zn423 O427 2.035 . S
Zn423 O429 2.035 . S
Zn423 O430 2.028 . S
O424 C420 1.258 . S
O424 Zn425 2.035 1_455 S
Zn425 O424 2.035 1_655 S
Zn425 O426 2.013 1_655 S
Zn425 O428 2.028 . S
Zn425 O431 2.035 . S
O426 Zn425 2.013 1_455 S
O426 C432 1.309 . S
O427 Zn423 2.035 . S
O427 C432 1.258 . S
O428 C421 1.295 . S
O428 Zn425 2.028 . S
O429 C421 1.182 1_455 S
O429 Zn423 2.035 . S
O430 Zn423 2.028 . S
O430 C433 1.247 . S
O431 Zn425 2.035 . S
O431 C433 1.258 1_655 S
C432 O426 1.309 . S
C432 O427 1.258 . S
C433 O430 1.247 . S
C433 O431 1.258 1_455 S
C434 O436 1.247 . S
C434 O438 1.258 . S
C435 O442 1.247 . S
C435 O443 1.258 . S
O436 C434 1.247 . S
O436 Zn437 2.028 . S
Zn437 O436 2.028 . S
Zn437 O441 2.035 . S
Zn437 O443 2.035 . S
Zn437 O444 2.028 . S
O438 C434 1.258 . S
O438 Zn439 2.035 . S
Zn439 O438 2.035 . S
Zn439 O440 2.028 . S
Zn439 O442 2.028 . S
Zn439 O445 2.035 . S
O440 Zn439 2.028 . S
O440 C446 1.247 . S
O441 Zn437 2.035 . S
O441 C446 1.258 . S
O442 C435 1.247 . S
O442 Zn439 2.028 . S
O443 C435 1.258 . S
O443 Zn437 2.035 . S
O444 Zn437 2.028 . S
O444 C447 1.247 . S
O445 Zn439 2.035 . S
O445 C447 1.258 . S
C446 O440 1.247 . S
C446 O441 1.258 . S
C447 O444 1.247 . S
C447 O445 1.258 . S
H448 C456 0.929 . S
H449 C458 0.930 . S
H450 C460 0.930 1_455 S
H451 C463 0.929 . S
H452 C466 0.930 . S
H453 C468 0.960 . S
H454 C468 0.960 . S
H455 C468 0.960 . S
C456 H448 0.929 . S
C456 C457 1.377 . S
C456 C458 1.384 . S
C457 C456 1.377 . S
C457 C463 1.390 . S
C458 H449 0.930 . S
C458 C456 1.384 . S
C458 C459 1.372 . S
C459 C458 1.372 . S
C459 C460 1.400 . S
C459 C464 1.490 . S
C460 H450 0.930 1_655 S
C460 C459 1.400 . S
C460 C463 1.386 . S
H461 C477 0.930 . S
H462 C478 0.931 . S
C463 H451 0.929 . S
C463 C457 1.390 . S
C463 C460 1.386 . S
C464 C459 1.490 . S
C464 C466 1.395 . S
C464 C467 1.403 1_655 S
H465 C471 0.930 . S
C466 H452 0.930 . S
C466 C464 1.395 . S
C466 C469 1.403 . S
C467 C464 1.403 1_455 S
C467 C468 1.524 . S
C467 C471 1.400 . S
C468 H453 0.960 . S
C468 H454 0.960 . S
C468 H455 0.960 . S
C468 C467 1.524 . S
C469 C466 1.403 . S
C469 C470 1.349 1_655 S
C469 C473 1.495 . S
C470 C469 1.349 1_455 S
C470 C471 1.424 . S
C470 C472 1.486 . S
C471 H465 0.930 . S
C471 C467 1.400 . S
C471 C470 1.424 . S
C472 C470 1.486 . S
C472 C474 1.381 . S
C472 C478 1.383 . S
C473 C469 1.495 . S
C473 H479 0.959 . S
C473 H480 0.961 . S
C473 H481 0.960 . S
C474 C472 1.381 . S
C474 C475 1.394 . S
C474 H482 0.932 . S
C475 C474 1.394 . S
C475 C476 1.383 . S
C475 H483 0.929 . S
C476 C475 1.383 . S
C476 C477 1.377 . S
C477 H461 0.930 . S
C477 C476 1.377 . S
C477 C478 1.379 . S
C478 H462 0.931 . S
C478 C472 1.383 . S
C478 C477 1.379 . S
H479 C473 0.959 . S
H480 C473 0.961 . S
H481 C473 0.960 . S
H482 C474 0.932 . S
H483 C475 0.929 . S
H484 C492 0.929 . S
H485 C494 0.930 . S
H486 C496 0.930 . S
H487 C499 0.929 . S
H488 C502 0.930 . S
H489 C504 0.960 . S
H490 C504 0.960 . S
H491 C504 0.960 . S
C492 H484 0.929 . S
C492 C493 1.377 . S
C492 C494 1.384 . S
C493 C492 1.377 . S
C493 C499 1.390 . S
C494 H485 0.930 . S
C494 C492 1.384 . S
C494 C495 1.372 . S
C495 C494 1.372 . S
C495 C496 1.400 . S
C495 C500 1.490 1_556 S
C496 H486 0.930 . S
C496 C495 1.400 . S
C496 C499 1.386 . S
H497 C513 0.930 . S
H498 C514 0.931 . S
C499 H487 0.929 . S
C499 C493 1.390 . S
C499 C496 1.386 . S
C500 C495 1.490 1_554 S
C500 C502 1.395 . S
C500 C503 1.403 . S
H501 C507 0.930 . S
C502 H488 0.930 . S
C502 C500 1.395 . S
C502 C505 1.403 . S
C503 C500 1.403 . S
C503 C504 1.524 . S
C503 C507 1.400 . S
C504 H489 0.960 . S
C504 H490 0.960 . S
C504 H491 0.960 . S
C504 C503 1.524 . S
C505 C502 1.403 . S
C505 C506 1.392 . S
C505 C509 1.495 . S
C506 C505 1.392 . S
C506 C507 1.385 . S
C506 C508 1.478 . S
C507 H501 0.930 . S
C507 C503 1.400 . S
C507 C506 1.385 . S
C508 C506 1.478 . S
C508 C510 1.381 . S
C508 C514 1.383 . S
C509 C505 1.495 . S
C509 H515 0.959 . S
C509 H516 0.961 . S
C509 H517 0.960 . S
C510 C508 1.381 . S
C510 C511 1.394 . S
C510 H518 0.930 . S
C511 C510 1.394 . S
C511 C512 1.383 . S
C511 H519 0.929 . S
C512 C511 1.383 . S
C512 C513 1.377 . S
C513 H497 0.930 . S
C513 C512 1.377 . S
C513 C514 1.379 . S
C514 H498 0.931 . S
C514 C508 1.383 . S
C514 C513 1.379 . S
H515 C509 0.959 . S
H516 C509 0.961 . S
H517 C509 0.960 . S
H518 C510 0.930 . S
H519 C511 0.929 . S
H520 C528 0.929 . S
H521 C530 0.930 . S
H522 C532 0.930 . S
H523 C535 0.929 . S
H524 C538 0.930 . S
H525 C540 0.960 . S
H526 C540 0.960 . S
H527 C540 0.960 . S
C528 H520 0.929 . S
C528 C529 1.377 . S
C528 C530 1.384 . S
C529 C528 1.377 . S
C529 C535 1.390 . S
C530 H521 0.930 . S
C530 C528 1.384 . S
C530 C531 1.372 . S
C531 C530 1.372 . S
C531 C532 1.400 . S
C531 C536 1.490 . S
C532 H522 0.930 . S
C532 C531 1.400 . S
C532 C535 1.386 . S
H533 C549 0.930 . S
H534 C550 0.931 . S
C535 H523 0.929 . S
C535 C529 1.390 . S
C535 C532 1.386 . S
C536 C531 1.490 . S
C536 C538 1.395 . S
C536 C539 1.403 . S
H537 C543 0.930 . S
C538 H524 0.930 . S
C538 C536 1.395 . S
C538 C541 1.403 . S
C539 C536 1.403 . S
C539 C540 1.524 . S
C539 C543 1.400 . S
C540 H525 0.960 . S
C540 H526 0.960 . S
C540 H527 0.960 . S
C540 C539 1.524 . S
C541 C538 1.403 . S
C541 C542 1.392 . S
C541 C545 1.495 . S
C542 C541 1.392 . S
C542 C543 1.385 . S
C542 C544 1.478 . S
C543 H537 0.930 . S
C543 C539 1.400 . S
C543 C542 1.385 . S
C544 C542 1.478 . S
C544 C546 1.381 . S
C544 C550 1.383 . S
C545 C541 1.495 . S
C545 H551 0.959 . S
C545 H552 0.961 . S
C545 H553 0.960 . S
C546 C544 1.381 . S
C546 C547 1.394 . S
C546 H554 0.930 . S
C547 C546 1.394 . S
C547 C548 1.383 . S
C547 H555 0.929 . S
C548 C547 1.383 . S
C548 C549 1.377 . S
C549 H533 0.930 . S
C549 C548 1.377 . S
C549 C550 1.379 . S
C550 H534 0.931 . S
C550 C544 1.383 . S
C550 C549 1.379 . S
H551 C545 0.959 . S
H552 C545 0.961 . S
H553 C545 0.960 . S
H554 C546 0.930 . S
H555 C547 0.929 . S
H556 C564 0.929 . S
H557 C566 0.930 . S
H558 C568 0.930 . S
H559 C571 0.929 . S
H560 C574 0.930 . S
H561 C576 0.960 . S
H562 C576 0.960 . S
H563 C576 0.960 . S
C564 H556 0.929 . S
C564 C565 1.377 . S
C564 C566 1.384 . S
C565 C564 1.377 . S
C565 C571 1.390 . S
C566 H557 0.930 . S
C566 C564 1.384 . S
C566 C567 1.372 . S
C567 C566 1.372 . S
C567 C568 1.400 . S
C567 C572 1.490 . S
C568 H558 0.930 . S
C568 C567 1.400 . S
C568 C571 1.386 . S
H569 C585 0.930 . S
H570 C586 0.931 . S
C571 H559 0.929 . S
C571 C565 1.390 . S
C571 C568 1.386 . S
C572 C567 1.490 . S
C572 C574 1.395 . S
C572 C575 1.403 . S
H573 C579 0.930 . S
C574 H560 0.930 . S
C574 C572 1.395 . S
C574 C577 1.403 . S
C575 C572 1.403 . S
C575 C576 1.524 . S
C575 C579 1.400 . S
C576 H561 0.960 . S
C576 H562 0.960 . S
C576 H563 0.960 . S
C576 C575 1.524 . S
C577 C574 1.403 . S
C577 C578 1.392 . S
C577 C581 1.495 . S
C578 C577 1.392 . S
C578 C579 1.385 . S
C578 C580 1.478 . S
C579 H573 0.930 . S
C579 C575 1.400 . S
C579 C578 1.385 . S
C580 C578 1.478 . S
C580 C582 1.381 . S
C580 C586 1.383 . S
C581 C577 1.495 . S
C581 H587 0.959 . S
C581 H588 0.961 . S
C581 H589 0.960 . S
C582 C580 1.381 . S
C582 C583 1.394 . S
C582 H590 0.930 . S
C583 C582 1.394 . S
C583 C584 1.383 . S
C583 H591 0.929 . S
C584 C583 1.383 . S
C584 C585 1.377 . S
C585 H569 0.930 . S
C585 C584 1.377 . S
C585 C586 1.379 . S
C586 H570 0.931 . S
C586 C580 1.383 . S
C586 C585 1.379 . S
H587 C581 0.959 . S
H588 C581 0.961 . S
H589 C581 0.960 . S
H590 C582 0.930 . S
H591 C583 0.929 . S
H592 C600 0.929 . S
H593 C602 0.930 . S
H594 C604 0.930 . S
H595 C607 0.929 . S
H596 C610 0.930 . S
H597 C612 0.960 . S
H598 C612 0.960 . S
H599 C612 0.960 . S
C600 H592 0.929 . S
C600 C601 1.377 . S
C600 C602 1.384 . S
C601 C600 1.377 . S
C601 C607 1.390 1_655 S
C602 H593 0.930 . S
C602 C600 1.384 . S
C602 C603 1.372 . S
C603 C602 1.372 . S
C603 C604 1.400 1_655 S
C603 C608 1.490 . S
C604 H594 0.930 . S
C604 C603 1.400 1_455 S
C604 C607 1.386 . S
H605 C621 0.930 . S
H606 C622 0.931 . S
C607 H595 0.929 . S
C607 C601 1.390 1_455 S
C607 C604 1.386 . S
C608 C603 1.490 . S
C608 C610 1.395 . S
C608 C611 1.403 1_655 S
H609 C615 0.930 . S
C610 H596 0.930 . S
C610 C608 1.395 . S
C610 C613 1.403 . S
C611 C608 1.403 1_455 S
C611 C612 1.524 . S
C611 C615 1.400 . S
C612 H597 0.960 . S
C612 H598 0.960 . S
C612 H599 0.960 . S
C612 C611 1.524 . S
C613 C610 1.403 . S
C613 C614 1.362 1_655 S
C613 C617 1.495 . S
C614 C613 1.362 1_455 S
C614 C615 1.411 . S
C614 C616 1.484 . S
C615 H609 0.930 . S
C615 C611 1.400 . S
C615 C614 1.411 . S
C616 C614 1.484 . S
C616 C618 1.381 1_455 S
C616 C622 1.383 . S
C617 C613 1.495 . S
C617 H623 0.959 . S
C617 H624 0.961 . S
C617 H625 0.960 . S
C618 C616 1.381 1_655 S
C618 C619 1.408 . S
C618 H626 0.930 . S
C619 C618 1.408 . S
C619 C620 1.345 1_655 S
C619 H627 0.957 . S
C620 C619 1.345 1_455 S
C620 C621 1.377 . S
C621 H605 0.930 . S
C621 C620 1.377 . S
C621 C622 1.379 . S
C622 H606 0.931 . S
C622 C616 1.383 . S
C622 C621 1.379 . S
H623 C617 0.959 . S
H624 C617 0.961 . S
H625 C617 0.960 . S
H626 C618 0.930 . S
H627 C619 0.957 . S
H628 C636 0.929 . S
H629 C638 0.930 . S
H630 C640 0.930 . S
H631 C643 0.929 . S
H632 C646 0.930 . S
H633 C648 0.960 . S
H634 C648 0.960 . S
H635 C648 0.960 . S
C636 H628 0.929 . S
C636 C637 1.377 . S
C636 C638 1.384 . S
C637 C636 1.377 . S
C637 C643 1.390 . S
C638 H629 0.930 . S
C638 C636 1.384 . S
C638 C639 1.372 . S
C639 C638 1.372 . S
C639 C640 1.400 . S
C639 C644 1.490 . S
C640 H630 0.930 . S
C640 C639 1.400 . S
C640 C643 1.386 . S
H641 C657 0.930 . S
H642 C658 0.931 . S
C643 H631 0.929 . S
C643 C637 1.390 . S
C643 C640 1.386 . S
C644 C639 1.490 . S
C644 C646 1.395 . S
C644 C647 1.403 . S
H645 C651 0.930 . S
C646 H632 0.930 . S
C646 C644 1.395 . S
C646 C649 1.403 . S
C647 C644 1.403 . S
C647 C648 1.524 . S
C647 C651 1.400 . S
C648 H633 0.960 . S
C648 H634 0.960 . S
C648 H635 0.960 . S
C648 C647 1.524 . S
C649 C646 1.403 . S
C649 C650 1.392 . S
C649 C653 1.495 . S
C650 C649 1.392 . S
C650 C651 1.385 . S
C650 C652 1.478 1_556 S
C651 H645 0.930 . S
C651 C647 1.400 . S
C651 C650 1.385 . S
C652 C650 1.478 1_554 S
C652 C654 1.381 . S
C652 C658 1.383 . S
C653 C649 1.495 . S
C653 H659 0.959 . S
C653 H660 0.961 . S
C653 H661 0.960 . S
C654 C652 1.381 . S
C654 C655 1.394 . S
C654 H662 0.930 . S
C655 C654 1.394 . S
C655 C656 1.383 . S
C655 H663 0.929 . S
C656 C655 1.383 . S
C656 C657 1.377 . S
C657 H641 0.930 . S
C657 C656 1.377 . S
C657 C658 1.379 . S
C658 H642 0.931 . S
C658 C652 1.383 . S
C658 C657 1.379 . S
H659 C653 0.959 . S
H660 C653 0.961 . S
H661 C653 0.960 . S
H662 C654 0.930 . S
H663 C655 0.929 . S
H664 C672 0.929 . S
H665 C674 0.930 . S
H666 C676 0.930 . S
H667 C679 0.929 . S
H668 C682 0.930 . S
H669 C684 0.960 . S
H670 C684 0.960 . S
H671 C684 0.960 . S
C672 H664 0.929 . S
C672 C673 1.377 . S
C672 C674 1.384 . S
C673 C672 1.377 . S
C673 C679 1.390 . S
C674 H665 0.930 . S
C674 C672 1.384 . S
C674 C675 1.372 . S
C675 C674 1.372 . S
C675 C676 1.400 . S
C675 C680 1.490 . S
C676 H666 0.930 . S
C676 C675 1.400 . S
C676 C679 1.386 . S
H677 C693 0.930 . S
H678 C694 0.931 . S
C679 H667 0.929 . S
C679 C673 1.390 . S
C679 C676 1.386 . S
C680 C675 1.490 . S
C680 C682 1.395 . S
C680 C683 1.403 . S
H681 C687 0.930 . S
C682 H668 0.930 . S
C682 C680 1.395 . S
C682 C685 1.403 . S
C683 C680 1.403 . S
C683 C684 1.524 . S
C683 C687 1.400 . S
C684 H669 0.960 . S
C684 H670 0.960 . S
C684 H671 0.960 . S
C684 C683 1.524 . S
C685 C682 1.403 . S
C685 C686 1.392 . S
C685 C689 1.495 . S
C686 C685 1.392 . S
C686 C687 1.385 . S
C686 C688 1.478 . S
C687 H681 0.930 . S
C687 C683 1.400 . S
C687 C686 1.385 . S
C688 C686 1.478 . S
C688 C690 1.381 . S
C688 C694 1.383 . S
C689 C685 1.495 . S
C689 H695 0.959 . S
C689 H696 0.961 . S
C689 H697 0.960 . S
C690 C688 1.381 . S
C690 C691 1.394 . S
C690 H698 0.930 . S
C691 C690 1.394 . S
C691 C692 1.383 . S
C691 H699 0.929 . S
C692 C691 1.383 . S
C692 C693 1.377 . S
C693 H677 0.930 . S
C693 C692 1.377 . S
C693 C694 1.379 . S
C694 H678 0.931 . S
C694 C688 1.383 . S
C694 C693 1.379 . S
H695 C689 0.959 . S
H696 C689 0.961 . S
H697 C689 0.960 . S
H698 C690 0.930 . S
H699 C691 0.929 . S
H700 C708 0.929 . S
H701 C710 0.930 . S
H702 C712 0.930 . S
H703 C715 0.929 . S
H704 C718 0.930 . S
H705 C720 0.960 . S
H706 C720 0.960 . S
H707 C720 0.960 . S
C708 H700 0.929 . S
C708 C709 1.377 . S
C708 C710 1.384 . S
C709 C708 1.377 . S
C709 C715 1.390 . S
C710 H701 0.930 . S
C710 C708 1.384 . S
C710 C711 1.372 . S
C711 C710 1.372 . S
C711 C712 1.400 . S
C711 C716 1.490 . S
C712 H702 0.930 . S
C712 C711 1.400 . S
C712 C715 1.386 . S
H713 C729 0.930 . S
H714 C730 0.931 . S
C715 H703 0.929 . S
C715 C709 1.390 . S
C715 C712 1.386 . S
C716 C711 1.490 . S
C716 C718 1.395 . S
C716 C719 1.403 . S
H717 C723 0.930 . S
C718 H704 0.930 . S
C718 C716 1.395 . S
C718 C721 1.403 . S
C719 C716 1.403 . S
C719 C720 1.524 . S
C719 C723 1.400 . S
C720 H705 0.960 . S
C720 H706 0.960 . S
C720 H707 0.960 . S
C720 C719 1.524 . S
C721 C718 1.403 . S
C721 C722 1.392 . S
C721 C725 1.495 . S
C722 C721 1.392 . S
C722 C723 1.385 . S
C722 C724 1.478 . S
C723 H717 0.930 . S
C723 C719 1.400 . S
C723 C722 1.385 . S
C724 C722 1.478 . S
C724 C726 1.381 . S
C724 C730 1.383 . S
C725 C721 1.495 . S
C725 H731 0.959 . S
C725 H732 0.961 . S
C725 H733 0.960 . S
C726 C724 1.381 . S
C726 C727 1.394 . S
C726 H734 0.930 . S
C727 C726 1.394 . S
C727 C728 1.383 . S
C727 H735 0.929 . S
C728 C727 1.383 . S
C728 C729 1.377 . S
C729 H713 0.930 . S
C729 C728 1.377 . S
C729 C730 1.379 . S
C730 H714 0.931 . S
C730 C724 1.383 . S
C730 C729 1.379 . S
H731 C725 0.959 . S
H732 C725 0.961 . S
H733 C725 0.960 . S
H734 C726 0.930 . S
H735 C727 0.929 . S
H736 C744 0.929 . S
H737 C746 0.930 . S
H738 C748 0.930 . S
H739 C751 0.929 . S
H740 C754 0.930 . S
H741 C756 0.960 . S
H742 C756 0.960 1_655 S
H743 C756 0.960 . S
C744 H736 0.929 . S
C744 C745 1.377 1_655 S
C744 C746 1.384 . S
C745 C744 1.377 1_455 S
C745 C751 1.390 . S
C746 H737 0.930 . S
C746 C744 1.384 . S
C746 C747 1.372 1_655 S
C747 C746 1.372 1_455 S
C747 C748 1.400 . S
C747 C752 1.498 . S
C748 H738 0.930 . S
C748 C747 1.400 . S
C748 C751 1.386 . S
H749 C765 0.930 . S
H750 C766 0.931 . S
C751 H739 0.929 . S
C751 C745 1.390 . S
C751 C748 1.386 . S
C752 C747 1.498 . S
C752 C754 1.388 1_455 S
C752 C755 1.403 . S
H753 C759 0.930 . S
C754 H740 0.930 . S
C754 C752 1.388 1_655 S
C754 C757 1.403 . S
C755 C752 1.403 . S
C755 C756 1.527 . S
C755 C759 1.396 1_455 S
C756 H741 0.960 . S
C756 H742 0.960 1_455 S
C756 H743 0.960 . S
C756 C755 1.527 . S
C757 C754 1.403 . S
C757 C758 1.392 . S
C757 C761 1.495 . S
C758 C757 1.392 . S
C758 C759 1.385 . S
C758 C760 1.478 . S
C759 H753 0.930 . S
C759 C755 1.396 1_655 S
C759 C758 1.385 . S
C760 C758 1.478 . S
C760 C762 1.381 . S
C760 C766 1.383 1_655 S
C761 C757 1.495 . S
C761 H767 0.959 . S
C761 H768 0.961 1_655 S
C761 H769 0.960 . S
C762 C760 1.381 . S
C762 C763 1.394 . S
C762 H770 0.930 . S
C763 C762 1.394 . S
C763 C764 1.383 . S
C763 H771 0.929 . S
C764 C763 1.383 . S
C764 C765 1.377 1_655 S
C765 H749 0.930 . S
C765 C764 1.377 1_455 S
C765 C766 1.379 . S
C766 H750 0.931 . S
C766 C760 1.383 1_455 S
C766 C765 1.379 . S
H767 C761 0.959 . S
H768 C761 0.961 1_455 S
H769 C761 0.960 . S
H770 C762 0.930 . S
H771 C763 0.929 . S
H772 C780 0.929 . S
H773 C782 0.930 . S
H774 C784 0.930 . S
H775 C787 0.929 . S
H776 C790 0.930 . S
H777 C792 0.960 . S
H778 C792 0.960 . S
H779 C792 0.960 . S
C780 H772 0.929 . S
C780 C781 1.377 . S
C780 C782 1.384 . S
C781 C780 1.377 . S
C781 C787 1.390 . S
C782 H773 0.930 . S
C782 C780 1.384 . S
C782 C783 1.372 . S
C783 C782 1.372 . S
C783 C784 1.400 . S
C783 C788 1.490 1_554 S
C784 H774 0.930 . S
C784 C783 1.400 . S
C784 C787 1.386 . S
H785 C801 0.930 . S
H786 C802 0.931 . S
C787 H775 0.929 . S
C787 C781 1.390 . S
C787 C784 1.386 . S
C788 C783 1.490 1_556 S
C788 C790 1.395 . S
C788 C791 1.403 . S
H789 C795 0.930 . S
C790 H776 0.930 . S
C790 C788 1.395 . S
C790 C793 1.403 . S
C791 C788 1.403 . S
C791 C792 1.524 . S
C791 C795 1.400 . S
C792 H777 0.960 . S
C792 H778 0.960 . S
C792 H779 0.960 . S
C792 C791 1.524 . S
C793 C790 1.403 . S
C793 C794 1.392 . S
C793 C797 1.495 . S
C794 C793 1.392 . S
C794 C795 1.385 . S
C794 C796 1.478 . S
C795 H789 0.930 . S
C795 C791 1.400 . S
C795 C794 1.385 . S
C796 C794 1.478 . S
C796 C798 1.381 . S
C796 C802 1.383 . S
C797 C793 1.495 . S
C797 H803 0.959 . S
C797 H804 0.961 . S
C797 H805 0.960 . S
C798 C796 1.381 . S
C798 C799 1.394 . S
C798 H806 0.930 . S
C799 C798 1.394 . S
C799 C800 1.383 . S
C799 H807 0.929 . S
C800 C799 1.383 . S
C800 C801 1.377 . S
C801 H785 0.930 . S
C801 C800 1.377 . S
C801 C802 1.379 . S
C802 H786 0.931 . S
C802 C796 1.383 . S
C802 C801 1.379 . S
H803 C797 0.959 . S
H804 C797 0.961 . S
H805 C797 0.960 . S
H806 C798 0.930 . S
H807 C799 0.929 . S
H808 C816 0.929 . S
H809 C818 0.930 . S
H810 C820 0.930 . S
H811 C823 0.929 . S
H812 C826 0.930 . S
H813 C828 0.960 . S
H814 C828 0.960 . S
H815 C828 0.960 . S
C816 H808 0.929 . S
C816 C817 1.377 . S
C816 C818 1.384 . S
C817 C816 1.377 . S
C817 C823 1.390 . S
C818 H809 0.930 . S
C818 C816 1.384 . S
C818 C819 1.372 . S
C819 C818 1.372 . S
C819 C820 1.400 . S
C819 C824 1.490 . S
C820 H810 0.930 . S
C820 C819 1.400 . S
C820 C823 1.386 . S
H821 C837 0.930 . S
H822 C838 0.931 . S
C823 H811 0.929 . S
C823 C817 1.390 . S
C823 C820 1.386 . S
C824 C819 1.490 . S
C824 C826 1.395 . S
C824 C827 1.403 . S
H825 C831 0.930 . S
C826 H812 0.930 . S
C826 C824 1.395 . S
C826 C829 1.403 . S
C827 C824 1.403 . S
C827 C828 1.524 . S
C827 C831 1.400 . S
C828 H813 0.960 . S
C828 H814 0.960 . S
C828 H815 0.960 . S
C828 C827 1.524 . S
C829 C826 1.403 . S
C829 C830 1.392 . S
C829 C833 1.495 . S
C830 C829 1.392 . S
C830 C831 1.385 . S
C830 C832 1.478 . S
C831 H825 0.930 . S
C831 C827 1.400 . S
C831 C830 1.385 . S
C832 C830 1.478 . S
C832 C834 1.381 . S
C832 C838 1.383 . S
C833 C829 1.495 . S
C833 H839 0.959 . S
C833 H840 0.961 . S
C833 H841 0.960 . S
C834 C832 1.381 . S
C834 C835 1.394 . S
C834 H842 0.930 . S
C835 C834 1.394 . S
C835 C836 1.383 . S
C835 H843 0.929 . S
C836 C835 1.383 . S
C836 C837 1.377 . S
C837 H821 0.930 . S
C837 C836 1.377 . S
C837 C838 1.379 . S
C838 H822 0.931 . S
C838 C832 1.383 . S
C838 C837 1.379 . S
H839 C833 0.959 . S
H840 C833 0.961 . S
H841 C833 0.960 . S
H842 C834 0.930 . S
H843 C835 0.929 . S
H844 C852 0.929 . S
H845 C854 0.930 . S
H846 C856 0.930 . S
H847 C859 0.929 . S
H848 C862 0.930 . S
H849 C864 0.960 . S
H850 C864 0.960 . S
H851 C864 0.960 . S
C852 H844 0.929 . S
C852 C853 1.377 . S
C852 C854 1.384 . S
C853 C852 1.377 . S
C853 C859 1.390 . S
C854 H845 0.930 . S
C854 C852 1.384 . S
C854 C855 1.372 . S
C855 C854 1.372 . S
C855 C856 1.400 . S
C855 C860 1.490 . S
C856 H846 0.930 . S
C856 C855 1.400 . S
C856 C859 1.386 . S
H857 C873 0.930 . S
H858 C874 0.931 . S
C859 H847 0.929 . S
C859 C853 1.390 . S
C859 C856 1.386 . S
C860 C855 1.490 . S
C860 C862 1.395 . S
C860 C863 1.403 . S
H861 C867 0.930 . S
C862 H848 0.930 . S
C862 C860 1.395 . S
C862 C865 1.403 . S
C863 C860 1.403 . S
C863 C864 1.524 . S
C863 C867 1.400 . S
C864 H849 0.960 . S
C864 H850 0.960 . S
C864 H851 0.960 . S
C864 C863 1.524 . S
C865 C862 1.403 . S
C865 C866 1.392 . S
C865 C869 1.495 . S
C866 C865 1.392 . S
C866 C867 1.385 . S
C866 C868 1.478 . S
C867 H861 0.930 . S
C867 C863 1.400 . S
C867 C866 1.385 . S
C868 C866 1.478 . S
C868 C870 1.381 . S
C868 C874 1.383 . S
C869 C865 1.495 . S
C869 H875 0.959 . S
C869 H876 0.961 . S
C869 H877 0.960 . S
C870 C868 1.381 . S
C870 C871 1.394 . S
C870 H878 0.930 . S
C871 C870 1.394 . S
C871 C872 1.383 . S
C871 H879 0.929 . S
C872 C871 1.383 . S
C872 C873 1.377 . S
C873 H857 0.930 . S
C873 C872 1.377 . S
C873 C874 1.379 . S
C874 H858 0.931 . S
C874 C868 1.383 . S
C874 C873 1.379 . S
H875 C869 0.959 . S
H876 C869 0.961 . S
H877 C869 0.960 . S
H878 C870 0.930 . S
H879 C871 0.929 . S
H880 C888 0.929 . S
H881 C890 0.930 . S
H882 C892 0.930 . S
H883 C895 0.929 . S
H884 C898 0.930 . S
H885 C900 0.960 . S
H886 C900 0.960 . S
H887 C900 0.960 . S
C888 H880 0.929 . S
C888 C889 1.377 1_455 S
C888 C890 1.384 . S
C889 C888 1.377 1_655 S
C889 C895 1.390 . S
C890 H881 0.930 . S
C890 C888 1.384 . S
C890 C891 1.372 1_455 S
C891 C890 1.372 1_655 S
C891 C892 1.400 . S
C891 C896 1.490 . S
C892 H882 0.930 . S
C892 C891 1.400 . S
C892 C895 1.386 . S
H893 C909 0.930 . S
H894 C910 0.931 . S
C895 H883 0.929 . S
C895 C889 1.390 . S
C895 C892 1.386 . S
C896 C891 1.490 . S
C896 C898 1.395 1_655 S
C896 C899 1.403 . S
H897 C903 0.930 . S
C898 H884 0.930 . S
C898 C896 1.395 1_455 S
C898 C901 1.403 . S
C899 C896 1.403 . S
C899 C900 1.524 . S
C899 C903 1.400 . S
C900 H885 0.960 . S
C900 H886 0.960 . S
C900 H887 0.960 . S
C900 C899 1.524 . S
C901 C898 1.403 . S
C901 C902 1.392 . S
C901 C905 1.495 . S
C902 C901 1.392 . S
C902 C903 1.385 1_455 S
C902 C904 1.478 . S
C903 H897 0.930 . S
C903 C899 1.400 . S
C903 C902 1.385 1_655 S
C904 C902 1.478 . S
C904 C906 1.381 . S
C904 C910 1.383 1_455 S
C905 C901 1.495 . S
C905 H911 0.959 . S
C905 H912 0.961 . S
C905 H913 0.960 . S
C906 C904 1.381 . S
C906 C907 1.394 . S
C906 H914 0.930 . S
C907 C906 1.394 . S
C907 C908 1.383 . S
C907 H915 0.929 . S
C908 C907 1.383 . S
C908 C909 1.377 1_455 S
C909 H893 0.930 . S
C909 C908 1.377 1_655 S
C909 C910 1.379 . S
C910 H894 0.931 . S
C910 C904 1.383 1_655 S
C910 C909 1.379 . S
H911 C905 0.959 . S
H912 C905 0.961 . S
H913 C905 0.960 . S
H914 C906 0.930 . S
H915 C907 0.929 . S
H916 C924 0.929 . S
H917 C926 0.930 . S
H918 C928 0.930 . S
H919 C931 0.929 . S
H920 C934 0.930 . S
H921 C936 0.960 . S
H922 C936 0.960 . S
H923 C936 0.960 . S
C924 H916 0.929 . S
C924 C925 1.377 . S
C924 C926 1.384 . S
C925 C924 1.377 . S
C925 C931 1.390 . S
C926 H917 0.930 . S
C926 C924 1.384 . S
C926 C927 1.372 . S
C927 C926 1.372 . S
C927 C928 1.400 . S
C927 C932 1.490 . S
C928 H918 0.930 . S
C928 C927 1.400 . S
C928 C931 1.386 . S
H929 C945 0.930 . S
H930 C946 0.931 . S
C931 H919 0.929 . S
C931 C925 1.390 . S
C931 C928 1.386 . S
C932 C927 1.490 . S
C932 C934 1.395 . S
C932 C935 1.403 . S
H933 C939 0.930 . S
C934 H920 0.930 . S
C934 C932 1.395 . S
C934 C937 1.403 . S
C935 C932 1.403 . S
C935 C936 1.524 . S
C935 C939 1.400 . S
C936 H921 0.960 . S
C936 H922 0.960 . S
C936 H923 0.960 . S
C936 C935 1.524 . S
C937 C934 1.403 . S
C937 C938 1.392 . S
C937 C941 1.495 . S
C938 C937 1.392 . S
C938 C939 1.385 . S
C938 C940 1.478 1_554 S
C939 H933 0.930 . S
C939 C935 1.400 . S
C939 C938 1.385 . S
C940 C938 1.478 1_556 S
C940 C942 1.381 . S
C940 C946 1.383 . S
C941 C937 1.495 . S
C941 H947 0.959 . S
C941 H948 0.961 . S
C941 H949 0.960 . S
C942 C940 1.381 . S
C942 C943 1.394 . S
C942 H950 0.930 . S
C943 C942 1.394 . S
C943 C944 1.383 . S
C943 H951 0.929 . S
C944 C943 1.383 . S
C944 C945 1.377 . S
C945 H929 0.930 . S
C945 C944 1.377 . S
C945 C946 1.379 . S
C946 H930 0.931 . S
C946 C940 1.383 . S
C946 C945 1.379 . S
H947 C941 0.959 . S
H948 C941 0.961 . S
H949 C941 0.960 . S
H950 C942 0.930 . S
H951 C943 0.929 . S
H952 C960 0.929 . S
H953 C962 0.930 . S
H954 C964 0.930 . S
H955 C967 0.929 . S
H956 C970 0.930 . S
H957 C972 0.960 . S
H958 C972 0.960 . S
H959 C972 0.960 . S
C960 H952 0.929 . S
C960 C961 1.377 . S
C960 C962 1.384 . S
C961 C960 1.377 . S
C961 C967 1.390 . S
C962 H953 0.930 . S
C962 C960 1.384 . S
C962 C963 1.372 . S
C963 C962 1.372 . S
C963 C964 1.400 . S
C963 C968 1.490 . S
C964 H954 0.930 . S
C964 C963 1.400 . S
C964 C967 1.386 . S
H965 C981 0.930 . S
H966 C982 0.931 . S
C967 H955 0.929 . S
C967 C961 1.390 . S
C967 C964 1.386 . S
C968 C963 1.490 . S
C968 C970 1.395 . S
C968 C971 1.403 . S
H969 C975 0.930 . S
C970 H956 0.930 . S
C970 C968 1.395 . S
C970 C973 1.403 . S
C971 C968 1.403 . S
C971 C972 1.524 . S
C971 C975 1.400 . S
C972 H957 0.960 . S
C972 H958 0.960 . S
C972 H959 0.960 . S
C972 C971 1.524 . S
C973 C970 1.403 . S
C973 C974 1.392 . S
C973 C977 1.495 . S
C974 C973 1.392 . S
C974 C975 1.385 . S
C974 C976 1.478 . S
C975 H969 0.930 . S
C975 C971 1.400 . S
C975 C974 1.385 . S
C976 C974 1.478 . S
C976 C978 1.381 . S
C976 C982 1.383 . S
C977 C973 1.495 . S
C977 H983 0.959 . S
C977 H984 0.961 . S
C977 H985 0.960 . S
C978 C976 1.381 . S
C978 C979 1.394 . S
C978 H986 0.930 . S
C979 C978 1.394 . S
C979 C980 1.383 . S
C979 H987 0.929 . S
C980 C979 1.383 . S
C980 C981 1.377 . S
C981 H965 0.930 . S
C981 C980 1.377 . S
C981 C982 1.379 . S
C982 H966 0.931 . S
C982 C976 1.383 . S
C982 C981 1.379 . S
H983 C977 0.959 . S
H984 C977 0.961 . S
H985 C977 0.960 . S
H986 C978 0.930 . S
H987 C979 0.929 . S
H988 C996 0.929 . S
H989 C998 0.930 . S
H990 C1000 0.930 . S
H991 C1003 0.929 . S
H992 C1006 0.930 . S
H993 C1008 0.960 . S
H994 C1008 0.960 . S
H995 C1008 0.960 . S
C996 H988 0.929 . S
C996 C997 1.377 . S
C996 C998 1.384 . S
C997 C996 1.377 . S
C997 C1003 1.390 . S
C998 H989 0.930 . S
C998 C996 1.384 . S
C998 C999 1.372 . S
C999 C998 1.372 . S
C999 C1000 1.400 . S
C999 C1004 1.490 . S
C1000 H990 0.930 . S
C1000 C999 1.400 . S
C1000 C1003 1.386 . S
H1001 C1017 0.930 . S
H1002 C1018 0.931 . S
C1003 H991 0.929 . S
C1003 C997 1.390 . S
C1003 C1000 1.386 . S
C1004 C999 1.490 . S
C1004 C1006 1.395 . S
C1004 C1007 1.403 . S
H1005 C1011 0.930 . S
C1006 H992 0.930 . S
C1006 C1004 1.395 . S
C1006 C1009 1.403 . S
C1007 C1004 1.403 . S
C1007 C1008 1.524 . S
C1007 C1011 1.400 . S
C1008 H993 0.960 . S
C1008 H994 0.960 . S
C1008 H995 0.960 . S
C1008 C1007 1.524 . S
C1009 C1006 1.403 . S
C1009 C1010 1.392 . S
C1009 C1013 1.495 . S
C1010 C1009 1.392 . S
C1010 C1011 1.385 . S
C1010 C1012 1.478 . S
C1011 H1005 0.930 . S
C1011 C1007 1.400 . S
C1011 C1010 1.385 . S
C1012 C1010 1.478 . S
C1012 C1014 1.381 . S
C1012 C1018 1.383 . S
C1013 C1009 1.495 . S
C1013 H1019 0.959 . S
C1013 H1020 0.961 . S
C1013 H1021 0.960 . S
C1014 C1012 1.381 . S
C1014 C1015 1.394 . S
C1014 H1022 0.930 . S
C1015 C1014 1.394 . S
C1015 C1016 1.383 . S
C1015 H1023 0.929 . S
C1016 C1015 1.383 . S
C1016 C1017 1.377 . S
C1017 H1001 0.930 . S
C1017 C1016 1.377 . S
C1017 C1018 1.379 . S
C1018 H1002 0.931 . S
C1018 C1012 1.383 . S
C1018 C1017 1.379 . S
H1019 C1013 0.959 . S
H1020 C1013 0.961 . S
H1021 C1013 0.960 . S
H1022 C1014 0.930 . S
H1023 C1015 0.929 . S
H1024 C1032 0.929 . S
H1025 C1034 0.930 . S
H1026 C1036 0.930 . S
H1027 C1039 0.929 . S
H1028 C1042 0.930 . S
H1029 C1044 0.960 . S
H1030 C1044 0.960 . S
H1031 C1044 0.960 . S
C1032 H1024 0.929 . S
C1032 C1033 1.377 . S
C1032 C1034 1.384 . S
C1033 C1032 1.377 . S
C1033 C1039 1.390 . S
C1034 H1025 0.930 . S
C1034 C1032 1.384 . S
C1034 C1035 1.372 . S
C1035 C1034 1.372 . S
C1035 C1036 1.400 . S
C1035 C1040 1.490 . S
C1036 H1026 0.930 . S
C1036 C1035 1.400 . S
C1036 C1039 1.386 . S
H1037 C1053 0.930 . S
H1038 C1054 0.931 . S
C1039 H1027 0.929 . S
C1039 C1033 1.390 . S
C1039 C1036 1.386 . S
C1040 C1035 1.490 . S
C1040 C1042 1.395 . S
C1040 C1043 1.403 . S
H1041 C1047 0.930 . S
C1042 H1028 0.930 . S
C1042 C1040 1.395 . S
C1042 C1045 1.403 . S
C1043 C1040 1.403 . S
C1043 C1044 1.524 . S
C1043 C1047 1.400 . S
C1044 H1029 0.960 . S
C1044 H1030 0.960 . S
C1044 H1031 0.960 . S
C1044 C1043 1.524 . S
C1045 C1042 1.403 . S
C1045 C1046 1.392 . S
C1045 C1049 1.495 . S
C1046 C1045 1.392 . S
C1046 C1047 1.385 . S
C1046 C1048 1.478 . S
C1047 H1041 0.930 . S
C1047 C1043 1.400 . S
C1047 C1046 1.385 . S
C1048 C1046 1.478 . S
C1048 C1050 1.381 . S
C1048 C1054 1.383 . S
C1049 C1045 1.495 . S
C1049 H1055 0.959 . S
C1049 H1056 0.961 . S
C1049 H1057 0.960 . S
C1050 C1048 1.381 . S
C1050 C1051 1.394 . S
C1050 H1058 0.930 . S
C1051 C1050 1.394 . S
C1051 C1052 1.383 . S
C1051 H1059 0.929 . S
C1052 C1051 1.383 . S
C1052 C1053 1.377 . S
C1053 H1037 0.930 . S
C1053 C1052 1.377 . S
C1053 C1054 1.379 . S
C1054 H1038 0.931 . S
C1054 C1048 1.383 . S
C1054 C1053 1.379 . S
H1055 C1049 0.959 . S
H1056 C1049 0.961 . S
H1057 C1049 0.960 . S
H1058 C1050 0.930 . S
H1059 C1051 0.929 . S
H1060 C1068 0.929 . S
H1061 C1070 0.930 . S
H1062 C1072 0.930 . S
H1063 C1075 0.929 . S
H1064 C1078 0.930 . S
H1065 C1080 0.960 . S
H1066 C1080 0.960 . S
H1067 C1080 0.960 . S
C1068 H1060 0.929 . S
C1068 C1069 1.377 . S
C1068 C1070 1.384 . S
C1069 C1068 1.377 . S
C1069 C1075 1.390 . S
C1070 H1061 0.930 . S
C1070 C1068 1.384 . S
C1070 C1071 1.372 . S
C1071 C1070 1.372 . S
C1071 C1072 1.400 . S
C1071 C1076 1.490 . S
C1072 H1062 0.930 . S
C1072 C1071 1.400 . S
C1072 C1075 1.386 . S
H1073 C1089 0.930 . S
H1074 C1090 0.931 . S
C1075 H1063 0.929 . S
C1075 C1069 1.390 . S
C1075 C1072 1.386 . S
C1076 C1071 1.490 . S
C1076 C1078 1.395 . S
C1076 C1079 1.403 . S
H1077 C1083 0.930 . S
C1078 H1064 0.930 . S
C1078 C1076 1.395 . S
C1078 C1081 1.403 . S
C1079 C1076 1.403 . S
C1079 C1080 1.524 . S
C1079 C1083 1.400 . S
C1080 H1065 0.960 . S
C1080 H1066 0.960 . S
C1080 H1067 0.960 . S
C1080 C1079 1.524 . S
C1081 C1078 1.403 . S
C1081 C1082 1.392 . S
C1081 C1085 1.495 . S
C1082 C1081 1.392 . S
C1082 C1083 1.385 . S
C1082 C1084 1.478 . S
C1083 H1077 0.930 . S
C1083 C1079 1.400 . S
C1083 C1082 1.385 . S
C1084 C1082 1.478 . S
C1084 C1086 1.381 . S
C1084 C1090 1.383 . S
C1085 C1081 1.495 . S
C1085 H1091 0.959 . S
C1085 H1092 0.961 . S
C1085 H1093 0.960 . S
C1086 C1084 1.381 . S
C1086 C1087 1.394 . S
C1086 H1094 0.930 . S
C1087 C1086 1.394 . S
C1087 C1088 1.383 . S
C1087 H1095 0.929 . S
C1088 C1087 1.383 . S
C1088 C1089 1.377 . S
C1089 H1073 0.930 . S
C1089 C1088 1.377 . S
C1089 C1090 1.379 . S
C1090 H1074 0.931 . S
C1090 C1084 1.383 . S
C1090 C1089 1.379 . S
H1091 C1085 0.959 . S
H1092 C1085 0.961 . S
H1093 C1085 0.960 . S
H1094 C1086 0.930 . S
H1095 C1087 0.929 . S
H1096 C1104 0.929 . S
H1097 C1106 0.930 . S
H1098 C1108 0.930 . S
H1099 C1111 0.929 . S
H1100 C1114 0.930 . S
H1101 C1116 0.960 . S
H1102 C1116 0.960 . S
H1103 C1116 0.960 1_655 S
C1104 H1096 0.929 . S
C1104 C1105 1.377 . S
C1104 C1106 1.384 . S
C1105 C1104 1.377 . S
C1105 C1111 1.390 1_455 S
C1106 H1097 0.930 . S
C1106 C1104 1.384 . S
C1106 C1107 1.372 . S
C1107 C1106 1.372 . S
C1107 C1108 1.400 1_455 S
C1107 C1112 1.490 . S
C1108 H1098 0.930 . S
C1108 C1107 1.400 1_655 S
C1108 C1111 1.386 . S
H1109 C1125 0.930 . S
H1110 C1126 0.931 . S
C1111 H1099 0.929 . S
C1111 C1105 1.390 1_655 S
C1111 C1108 1.386 . S
C1112 C1107 1.490 . S
C1112 C1114 1.395 . S
C1112 C1115 1.412 . S
H1113 C1119 0.930 . S
C1114 H1100 0.930 . S
C1114 C1112 1.395 . S
C1114 C1117 1.403 1_455 S
C1115 C1112 1.412 . S
C1115 C1116 1.535 . S
C1115 C1119 1.387 1_455 S
C1116 H1101 0.960 . S
C1116 H1102 0.960 . S
C1116 H1103 0.960 1_455 S
C1116 C1115 1.535 . S
C1117 C1114 1.403 1_655 S
C1117 C1118 1.392 . S
C1117 C1121 1.495 . S
C1118 C1117 1.392 . S
C1118 C1119 1.385 . S
C1118 C1120 1.478 . S
C1119 H1113 0.930 . S
C1119 C1115 1.387 1_655 S
C1119 C1118 1.385 . S
C1120 C1118 1.478 . S
C1120 C1122 1.381 1_655 S
C1120 C1126 1.383 . S
C1121 C1117 1.495 . S
C1121 H1127 0.959 . S
C1121 H1128 0.961 . S
C1121 H1129 0.960 1_655 S
C1122 C1120 1.381 1_455 S
C1122 C1123 1.394 . S
C1122 H1130 0.930 . S
C1123 C1122 1.394 . S
C1123 C1124 1.383 1_455 S
C1123 H1131 0.929 . S
C1124 C1123 1.383 1_655 S
C1124 C1125 1.377 . S
C1125 H1109 0.930 . S
C1125 C1124 1.377 . S
C1125 C1126 1.379 . S
C1126 H1110 0.931 . S
C1126 C1120 1.383 . S
C1126 C1125 1.379 . S
H1127 C1121 0.959 . S
H1128 C1121 0.961 . S
H1129 C1121 0.960 1_455 S
H1130 C1122 0.930 . S
H1131 C1123 0.929 . S
H1132 C1140 0.929 . S
H1133 C1142 0.930 . S
H1134 C1144 0.930 . S
H1135 C1147 0.929 . S
H1136 C1150 0.930 . S
H1137 C1152 0.960 . S
H1138 C1152 0.960 . S
H1139 C1152 0.960 . S
C1140 H1132 0.929 . S
C1140 C1141 1.377 . S
C1140 C1142 1.384 . S
C1141 C1140 1.377 . S
C1141 C1147 1.390 . S
C1142 H1133 0.930 . S
C1142 C1140 1.384 . S
C1142 C1143 1.372 . S
C1143 C1142 1.372 . S
C1143 C1144 1.400 . S
C1143 C1148 1.490 . S
C1144 H1134 0.930 . S
C1144 C1143 1.400 . S
C1144 C1147 1.386 . S
H1145 C1161 0.930 . S
H1146 C1162 0.931 . S
C1147 H1135 0.929 . S
C1147 C1141 1.390 . S
C1147 C1144 1.386 . S
C1148 C1143 1.490 . S
C1148 C1150 1.395 . S
C1148 C1151 1.403 . S
H1149 C1155 0.930 . S
C1150 H1136 0.930 . S
C1150 C1148 1.395 . S
C1150 C1153 1.403 . S
C1151 C1148 1.403 . S
C1151 C1152 1.524 . S
C1151 C1155 1.400 . S
C1152 H1137 0.960 . S
C1152 H1138 0.960 . S
C1152 H1139 0.960 . S
C1152 C1151 1.524 . S
C1153 C1150 1.403 . S
C1153 C1154 1.392 . S
C1153 C1157 1.495 . S
C1154 C1153 1.392 . S
C1154 C1155 1.385 . S
C1154 C1156 1.478 1_554 S
C1155 H1149 0.930 . S
C1155 C1151 1.400 . S
C1155 C1154 1.385 . S
C1156 C1154 1.478 1_556 S
C1156 C1158 1.381 . S
C1156 C1162 1.383 . S
C1157 C1153 1.495 . S
C1157 H1163 0.959 . S
C1157 H1164 0.961 . S
C1157 H1165 0.960 . S
C1158 C1156 1.381 . S
C1158 C1159 1.394 . S
C1158 H1166 0.930 . S
C1159 C1158 1.394 . S
C1159 C1160 1.383 . S
C1159 H1167 0.929 . S
C1160 C1159 1.383 . S
C1160 C1161 1.377 . S
C1161 H1145 0.930 . S
C1161 C1160 1.377 . S
C1161 C1162 1.379 . S
C1162 H1146 0.931 . S
C1162 C1156 1.383 . S
C1162 C1161 1.379 . S
H1163 C1157 0.959 . S
H1164 C1157 0.961 . S
H1165 C1157 0.960 . S
H1166 C1158 0.930 . S
H1167 C1159 0.929 . S
H1168 C1176 0.929 . S
H1169 C1178 0.930 . S
H1170 C1180 0.930 . S
H1171 C1183 0.929 . S
H1172 C1186 0.930 . S
H1173 C1188 0.960 . S
H1174 C1188 0.960 . S
H1175 C1188 0.960 . S
C1176 H1168 0.929 . S
C1176 C1177 1.377 . S
C1176 C1178 1.384 . S
C1177 C1176 1.377 . S
C1177 C1183 1.390 . S
C1178 H1169 0.930 . S
C1178 C1176 1.384 . S
C1178 C1179 1.372 . S
C1179 C1178 1.372 . S
C1179 C1180 1.400 . S
C1179 C1184 1.490 . S
C1180 H1170 0.930 . S
C1180 C1179 1.400 . S
C1180 C1183 1.386 . S
H1181 C1197 0.930 . S
H1182 C1198 0.931 . S
C1183 H1171 0.929 . S
C1183 C1177 1.390 . S
C1183 C1180 1.386 . S
C1184 C1179 1.490 . S
C1184 C1186 1.395 . S
C1184 C1187 1.403 . S
H1185 C1191 0.930 . S
C1186 H1172 0.930 . S
C1186 C1184 1.395 . S
C1186 C1189 1.403 . S
C1187 C1184 1.403 . S
C1187 C1188 1.524 . S
C1187 C1191 1.400 . S
C1188 H1173 0.960 . S
C1188 H1174 0.960 . S
C1188 H1175 0.960 . S
C1188 C1187 1.524 . S
C1189 C1186 1.403 . S
C1189 C1190 1.392 . S
C1189 C1193 1.495 . S
C1190 C1189 1.392 . S
C1190 C1191 1.385 . S
C1190 C1192 1.478 . S
C1191 H1185 0.930 . S
C1191 C1187 1.400 . S
C1191 C1190 1.385 . S
C1192 C1190 1.478 . S
C1192 C1194 1.381 . S
C1192 C1198 1.383 . S
C1193 C1189 1.495 . S
C1193 H1199 0.959 . S
C1193 H1200 0.961 . S
C1193 H1201 0.960 . S
C1194 C1192 1.381 . S
C1194 C1195 1.394 . S
C1194 H1202 0.930 . S
C1195 C1194 1.394 . S
C1195 C1196 1.383 . S
C1195 H1203 0.929 . S
C1196 C1195 1.383 . S
C1196 C1197 1.377 . S
C1197 H1181 0.930 . S
C1197 C1196 1.377 . S
C1197 C1198 1.379 . S
C1198 H1182 0.931 . S
C1198 C1192 1.383 . S
C1198 C1197 1.379 . S
H1199 C1193 0.959 . S
H1200 C1193 0.961 . S
H1201 C1193 0.960 . S
H1202 C1194 0.930 . S
H1203 C1195 0.929 . S
H1204 C1212 0.929 . S
H1205 C1214 0.930 . S
H1206 C1216 0.930 . S
H1207 C1219 0.929 . S
H1208 C1222 0.930 . S
H1209 C1224 0.960 . S
H1210 C1224 0.960 . S
H1211 C1224 0.960 . S
C1212 H1204 0.929 . S
C1212 C1213 1.377 . S
C1212 C1214 1.384 . S
C1213 C1212 1.377 . S
C1213 C1219 1.390 . S
C1214 H1205 0.930 . S
C1214 C1212 1.384 . S
C1214 C1215 1.372 . S
C1215 C1214 1.372 . S
C1215 C1216 1.400 . S
C1215 C1220 1.490 . S
C1216 H1206 0.930 . S
C1216 C1215 1.400 . S
C1216 C1219 1.386 . S
H1217 C1233 0.930 . S
H1218 C1234 0.931 . S
C1219 H1207 0.929 . S
C1219 C1213 1.390 . S
C1219 C1216 1.386 . S
C1220 C1215 1.490 . S
C1220 C1222 1.395 . S
C1220 C1223 1.403 . S
H1221 C1227 0.930 . S
C1222 H1208 0.930 . S
C1222 C1220 1.395 . S
C1222 C1225 1.403 . S
C1223 C1220 1.403 . S
C1223 C1224 1.524 . S
C1223 C1227 1.400 . S
C1224 H1209 0.960 . S
C1224 H1210 0.960 . S
C1224 H1211 0.960 . S
C1224 C1223 1.524 . S
C1225 C1222 1.403 . S
C1225 C1226 1.392 . S
C1225 C1229 1.495 . S
C1226 C1225 1.392 . S
C1226 C1227 1.385 . S
C1226 C1228 1.478 . S
C1227 H1221 0.930 . S
C1227 C1223 1.400 . S
C1227 C1226 1.385 . S
C1228 C1226 1.478 . S
C1228 C1230 1.381 . S
C1228 C1234 1.383 . S
C1229 C1225 1.495 . S
C1229 H1235 0.959 . S
C1229 H1236 0.961 . S
C1229 H1237 0.960 . S
C1230 C1228 1.381 . S
C1230 C1231 1.394 . S
C1230 H1238 0.930 . S
C1231 C1230 1.394 . S
C1231 C1232 1.383 . S
C1231 H1239 0.929 . S
C1232 C1231 1.383 . S
C1232 C1233 1.377 . S
C1233 H1217 0.930 . S
C1233 C1232 1.377 . S
C1233 C1234 1.379 . S
C1234 H1218 0.931 . S
C1234 C1228 1.383 . S
C1234 C1233 1.379 . S
H1235 C1229 0.959 . S
H1236 C1229 0.961 . S
H1237 C1229 0.960 . S
H1238 C1230 0.930 . S
H1239 C1231 0.929 . S
H1240 C1248 0.929 . S
H1241 C1250 0.930 . S
H1242 C1252 0.930 . S
H1243 C1255 0.929 . S
H1244 C1258 0.930 . S
H1245 C1260 0.960 . S
H1246 C1260 0.960 . S
H1247 C1260 0.960 . S
C1248 H1240 0.929 . S
C1248 C1249 1.377 . S
C1248 C1250 1.384 . S
C1249 C1248 1.377 . S
C1249 C1255 1.390 1_455 S
C1250 H1241 0.930 . S
C1250 C1248 1.384 . S
C1250 C1251 1.372 . S
C1251 C1250 1.372 . S
C1251 C1252 1.400 1_455 S
C1251 C1256 1.490 . S
C1252 H1242 0.930 . S
C1252 C1251 1.400 1_655 S
C1252 C1255 1.386 . S
H1253 C1269 0.930 . S
H1254 C1270 0.931 . S
C1255 H1243 0.929 . S
C1255 C1249 1.390 1_655 S
C1255 C1252 1.386 . S
C1256 C1251 1.490 . S
C1256 C1258 1.395 . S
C1256 C1259 1.403 1_455 S
H1257 C1263 0.930 . S
C1258 H1244 0.930 . S
C1258 C1256 1.395 . S
C1258 C1261 1.403 . S
C1259 C1256 1.403 1_655 S
C1259 C1260 1.524 . S
C1259 C1263 1.400 . S
C1260 H1245 0.960 . S
C1260 H1246 0.960 . S
C1260 H1247 0.960 . S
C1260 C1259 1.524 . S
C1261 C1258 1.403 . S
C1261 C1262 1.350 1_455 S
C1261 C1265 1.495 . S
C1262 C1261 1.350 1_655 S
C1262 C1263 1.421 . S
C1262 C1264 1.488 . S
C1263 H1257 0.930 . S
C1263 C1259 1.400 . S
C1263 C1262 1.421 . S
C1264 C1262 1.488 . S
C1264 C1266 1.381 1_655 S
C1264 C1270 1.383 . S
C1265 C1261 1.495 . S
C1265 H1271 0.959 . S
C1265 H1272 0.961 . S
C1265 H1273 0.960 . S
C1266 C1264 1.381 1_455 S
C1266 C1267 1.394 . S
C1266 H1274 0.930 . S
C1267 C1266 1.394 . S
C1267 C1268 1.383 1_455 S
C1267 H1275 0.929 . S
C1268 C1267 1.383 1_655 S
C1268 C1269 1.377 . S
C1269 H1253 0.930 . S
C1269 C1268 1.377 . S
C1269 C1270 1.379 . S
C1270 H1254 0.931 . S
C1270 C1264 1.383 . S
C1270 C1269 1.379 . S
H1271 C1265 0.959 . S
H1272 C1265 0.961 . S
H1273 C1265 0.960 . S
H1274 C1266 0.930 . S
H1275 C1267 0.929 . S
H1276 C1284 0.929 . S
H1277 C1286 0.930 . S
H1278 C1288 0.930 . S
H1279 C1291 0.929 . S
H1280 C1294 0.930 . S
H1281 C1296 0.960 . S
H1282 C1296 0.960 . S
H1283 C1296 0.960 . S
C1284 H1276 0.929 . S
C1284 C1285 1.377 . S
C1284 C1286 1.384 . S
C1285 C1284 1.377 . S
C1285 C1291 1.390 . S
C1286 H1277 0.930 . S
C1286 C1284 1.384 . S
C1286 C1287 1.372 . S
C1287 C1286 1.372 . S
C1287 C1288 1.400 . S
C1287 C1292 1.490 1_554 S
C1288 H1278 0.930 . S
C1288 C1287 1.400 . S
C1288 C1291 1.386 . S
H1289 C1305 0.930 . S
H1290 C1306 0.931 . S
C1291 H1279 0.929 . S
C1291 C1285 1.390 . S
C1291 C1288 1.386 . S
C1292 C1287 1.490 1_556 S
C1292 C1294 1.395 . S
C1292 C1295 1.403 . S
H1293 C1299 0.930 . S
C1294 H1280 0.930 . S
C1294 C1292 1.395 . S
C1294 C1297 1.403 . S
C1295 C1292 1.403 . S
C1295 C1296 1.524 . S
C1295 C1299 1.400 . S
C1296 H1281 0.960 . S
C1296 H1282 0.960 . S
C1296 H1283 0.960 . S
C1296 C1295 1.524 . S
C1297 C1294 1.403 . S
C1297 C1298 1.392 . S
C1297 C1301 1.495 . S
C1298 C1297 1.392 . S
C1298 C1299 1.385 . S
C1298 C1300 1.478 . S
C1299 H1293 0.930 . S
C1299 C1295 1.400 . S
C1299 C1298 1.385 . S
C1300 C1298 1.478 . S
C1300 C1302 1.381 . S
C1300 C1306 1.383 . S
C1301 C1297 1.495 . S
C1301 H1307 0.959 . S
C1301 H1308 0.961 . S
C1301 H1309 0.960 . S
C1302 C1300 1.381 . S
C1302 C1303 1.394 . S
C1302 H1310 0.930 . S
C1303 C1302 1.394 . S
C1303 C1304 1.383 . S
C1303 H1311 0.929 . S
C1304 C1303 1.383 . S
C1304 C1305 1.377 . S
C1305 H1289 0.930 . S
C1305 C1304 1.377 . S
C1305 C1306 1.379 . S
C1306 H1290 0.931 . S
C1306 C1300 1.383 . S
C1306 C1305 1.379 . S
H1307 C1301 0.959 . S
H1308 C1301 0.961 . S
H1309 C1301 0.960 . S
H1310 C1302 0.930 . S
H1311 C1303 0.929 . S
H1312 C1320 0.929 . S
H1313 C1322 0.930 . S
H1314 C1324 0.930 . S
H1315 C1327 0.929 . S
H1316 C1330 0.930 . S
H1317 C1332 0.960 . S
H1318 C1332 0.960 . S
H1319 C1332 0.960 . S
C1320 H1312 0.929 . S
C1320 C1321 1.377 . S
C1320 C1322 1.384 . S
C1321 C1320 1.377 . S
C1321 C1327 1.390 . S
C1322 H1313 0.930 . S
C1322 C1320 1.384 . S
C1322 C1323 1.372 . S
C1323 C1322 1.372 . S
C1323 C1324 1.400 . S
C1323 C1328 1.490 . S
C1324 H1314 0.930 . S
C1324 C1323 1.400 . S
C1324 C1327 1.386 . S
H1325 C1341 0.930 . S
H1326 C1342 0.931 . S
C1327 H1315 0.929 . S
C1327 C1321 1.390 . S
C1327 C1324 1.386 . S
C1328 C1323 1.490 . S
C1328 C1330 1.395 . S
C1328 C1331 1.403 . S
H1329 C1335 0.930 . S
C1330 H1316 0.930 . S
C1330 C1328 1.395 . S
C1330 C1333 1.403 . S
C1331 C1328 1.403 . S
C1331 C1332 1.524 . S
C1331 C1335 1.400 . S
C1332 H1317 0.960 . S
C1332 H1318 0.960 . S
C1332 H1319 0.960 . S
C1332 C1331 1.524 . S
C1333 C1330 1.403 . S
C1333 C1334 1.392 . S
C1333 C1337 1.495 . S
C1334 C1333 1.392 . S
C1334 C1335 1.385 . S
C1334 C1336 1.478 . S
C1335 H1329 0.930 . S
C1335 C1331 1.400 . S
C1335 C1334 1.385 . S
C1336 C1334 1.478 . S
C1336 C1338 1.381 . S
C1336 C1342 1.383 . S
C1337 C1333 1.495 . S
C1337 H1343 0.959 . S
C1337 H1344 0.961 . S
C1337 H1345 0.960 . S
C1338 C1336 1.381 . S
C1338 C1339 1.394 . S
C1338 H1346 0.930 . S
C1339 C1338 1.394 . S
C1339 C1340 1.383 . S
C1339 H1347 0.929 . S
C1340 C1339 1.383 . S
C1340 C1341 1.377 . S
C1341 H1325 0.930 . S
C1341 C1340 1.377 . S
C1341 C1342 1.379 . S
C1342 H1326 0.931 . S
C1342 C1336 1.383 . S
C1342 C1341 1.379 . S
H1343 C1337 0.959 . S
H1344 C1337 0.961 . S
H1345 C1337 0.960 . S
H1346 C1338 0.930 . S
H1347 C1339 0.929 . S
H1348 C1356 0.929 . S
H1349 C1358 0.930 . S
H1350 C1360 0.930 . S
H1351 C1363 0.929 . S
H1352 C1366 0.930 . S
H1353 C1368 0.960 . S
H1354 C1368 0.960 . S
H1355 C1368 0.960 . S
C1356 H1348 0.929 . S
C1356 C1357 1.377 . S
C1356 C1358 1.384 . S
C1357 C1356 1.377 . S
C1357 C1363 1.390 . S
C1358 H1349 0.930 . S
C1358 C1356 1.384 . S
C1358 C1359 1.372 . S
C1359 C1358 1.372 . S
C1359 C1360 1.400 . S
C1359 C1364 1.490 . S
C1360 H1350 0.930 . S
C1360 C1359 1.400 . S
C1360 C1363 1.386 . S
H1361 C1377 0.930 . S
H1362 C1378 0.931 . S
C1363 H1351 0.929 . S
C1363 C1357 1.390 . S
C1363 C1360 1.386 . S
C1364 C1359 1.490 . S
C1364 C1366 1.395 . S
C1364 C1367 1.403 . S
H1365 C1371 0.930 . S
C1366 H1352 0.930 . S
C1366 C1364 1.395 . S
C1366 C1369 1.403 . S
C1367 C1364 1.403 . S
C1367 C1368 1.524 . S
C1367 C1371 1.400 . S
C1368 H1353 0.960 . S
C1368 H1354 0.960 . S
C1368 H1355 0.960 . S
C1368 C1367 1.524 . S
C1369 C1366 1.403 . S
C1369 C1370 1.392 . S
C1369 C1373 1.495 . S
C1370 C1369 1.392 . S
C1370 C1371 1.385 . S
C1370 C1372 1.478 . S
C1371 H1365 0.930 . S
C1371 C1367 1.400 . S
C1371 C1370 1.385 . S
C1372 C1370 1.478 . S
C1372 C1374 1.381 . S
C1372 C1378 1.383 . S
C1373 C1369 1.495 . S
C1373 H1379 0.959 . S
C1373 H1380 0.961 . S
C1373 H1381 0.960 . S
C1374 C1372 1.381 . S
C1374 C1375 1.394 . S
C1374 H1382 0.930 . S
C1375 C1374 1.394 . S
C1375 C1376 1.383 . S
C1375 H1383 0.929 . S
C1376 C1375 1.383 . S
C1376 C1377 1.377 . S
C1377 H1361 0.930 . S
C1377 C1376 1.377 . S
C1377 C1378 1.379 . S
C1378 H1362 0.931 . S
C1378 C1372 1.383 . S
C1378 C1377 1.379 . S
H1379 C1373 0.959 . S
H1380 C1373 0.961 . S
H1381 C1373 0.960 . S
H1382 C1374 0.930 . S
H1383 C1375 0.929 . S
H1384 C1392 0.929 . S
H1385 C1394 0.915 1_655 S
H1386 C1396 0.930 . S
H1387 C1399 0.929 . S
H1388 C1402 0.930 . S
H1389 C1404 0.960 . S
H1390 C1404 0.960 . S
H1391 C1404 0.960 . S
C1392 H1384 0.929 . S
C1392 C1393 1.377 . S
C1392 C1394 1.384 . S
C1393 C1392 1.377 . S
C1393 C1399 1.390 . S
C1394 H1385 0.915 1_455 S
C1394 C1392 1.384 . S
C1394 C1395 1.372 . S
C1395 C1394 1.372 . S
C1395 C1396 1.400 . S
C1395 C1400 1.490 . S
C1396 H1386 0.930 . S
C1396 C1395 1.400 . S
C1396 C1399 1.386 . S
H1397 C1413 0.930 1_455 S
H1398 C1414 0.931 . S
C1399 H1387 0.929 . S
C1399 C1393 1.390 . S
C1399 C1396 1.386 . S
C1400 C1395 1.490 . S
C1400 C1402 1.395 . S
C1400 C1403 1.403 1_455 S
H1401 C1407 0.930 . S
C1402 H1388 0.930 . S
C1402 C1400 1.395 . S
C1402 C1405 1.403 . S
C1403 C1400 1.403 1_655 S
C1403 C1404 1.524 . S
C1403 C1407 1.400 . S
C1404 H1389 0.960 . S
C1404 H1390 0.960 . S
C1404 H1391 0.960 . S
C1404 C1403 1.524 . S
C1405 C1402 1.403 . S
C1405 C1406 1.395 . S
C1405 C1409 1.495 . S
C1406 C1405 1.395 . S
C1406 C1407 1.383 1_455 S
C1406 C1408 1.477 1_455 S
C1407 H1401 0.930 . S
C1407 C1403 1.400 . S
C1407 C1406 1.383 1_655 S
C1408 C1406 1.477 1_655 S
C1408 C1410 1.381 . S
C1408 C1414 1.383 1_655 S
C1409 C1405 1.495 . S
C1409 H1415 0.959 . S
C1409 H1416 0.961 . S
C1409 H1417 0.960 . S
C1410 C1408 1.381 . S
C1410 C1411 1.394 . S
C1410 H1418 0.930 . S
C1411 C1410 1.394 . S
C1411 C1412 1.383 . S
C1411 H1419 0.929 . S
C1412 C1411 1.383 . S
C1412 C1413 1.377 . S
C1413 H1397 0.930 1_655 S
C1413 C1412 1.377 . S
C1413 C1414 1.379 1_655 S
C1414 H1398 0.931 . S
C1414 C1408 1.383 1_455 S
C1414 C1413 1.379 1_455 S
H1415 C1409 0.959 . S
H1416 C1409 0.961 . S
H1417 C1409 0.960 . S
H1418 C1410 0.930 . S
H1419 C1411 0.929 . S
H1420 C1428 0.929 . S
H1421 C1430 0.930 . S
H1422 C1432 0.930 . S
H1423 C1435 0.929 . S
H1424 C1438 0.930 . S
H1425 C1440 0.960 . S
H1426 C1440 0.960 . S
H1427 C1440 0.960 . S
C1428 H1420 0.929 . S
C1428 C1429 1.377 . S
C1428 C1430 1.384 . S
C1429 C1428 1.377 . S
C1429 C1435 1.390 . S
C1430 H1421 0.930 . S
C1430 C1428 1.384 . S
C1430 C1431 1.372 . S
C1431 C1430 1.372 . S
C1431 C1432 1.400 . S
C1431 C1436 1.490 . S
C1432 H1422 0.930 . S
C1432 C1431 1.400 . S
C1432 C1435 1.386 . S
H1433 C1449 0.930 . S
H1434 C1450 0.931 . S
C1435 H1423 0.929 . S
C1435 C1429 1.390 . S
C1435 C1432 1.386 . S
C1436 C1431 1.490 . S
C1436 C1438 1.395 . S
C1436 C1439 1.403 . S
H1437 C1443 0.930 . S
C1438 H1424 0.930 . S
C1438 C1436 1.395 . S
C1438 C1441 1.403 . S
C1439 C1436 1.403 . S
C1439 C1440 1.524 . S
C1439 C1443 1.400 . S
C1440 H1425 0.960 . S
C1440 H1426 0.960 . S
C1440 H1427 0.960 . S
C1440 C1439 1.524 . S
C1441 C1438 1.403 . S
C1441 C1442 1.392 . S
C1441 C1445 1.495 . S
C1442 C1441 1.392 . S
C1442 C1443 1.385 . S
C1442 C1444 1.478 1_556 S
C1443 H1437 0.930 . S
C1443 C1439 1.400 . S
C1443 C1442 1.385 . S
C1444 C1442 1.478 1_554 S
C1444 C1446 1.381 . S
C1444 C1450 1.383 . S
C1445 C1441 1.495 . S
C1445 H1451 0.959 . S
C1445 H1452 0.961 . S
C1445 H1453 0.960 . S
C1446 C1444 1.381 . S
C1446 C1447 1.394 . S
C1446 H1454 0.930 . S
C1447 C1446 1.394 . S
C1447 C1448 1.383 . S
C1447 H1455 0.929 . S
C1448 C1447 1.383 . S
C1448 C1449 1.377 . S
C1449 H1433 0.930 . S
C1449 C1448 1.377 . S
C1449 C1450 1.379 . S
C1450 H1434 0.931 . S
C1450 C1444 1.383 . S
C1450 C1449 1.379 . S
H1451 C1445 0.959 . S
H1452 C1445 0.961 . S
H1453 C1445 0.960 . S
H1454 C1446 0.930 . S
H1455 C1447 0.929 . S
H1456 C1464 0.929 . S
H1457 C1466 0.930 . S
H1458 C1468 0.930 . S
H1459 C1471 0.929 . S
H1460 C1474 0.930 . S
H1461 C1476 0.960 . S
H1462 C1476 0.960 . S
H1463 C1476 0.960 . S
C1464 H1456 0.929 . S
C1464 C1465 1.377 . S
C1464 C1466 1.384 . S
C1465 C1464 1.377 . S
C1465 C1471 1.390 . S
C1466 H1457 0.930 . S
C1466 C1464 1.384 . S
C1466 C1467 1.372 . S
C1467 C1466 1.372 . S
C1467 C1468 1.400 . S
C1467 C1472 1.490 . S
C1468 H1458 0.930 . S
C1468 C1467 1.400 . S
C1468 C1471 1.386 . S
H1469 C1485 0.930 . S
H1470 C1486 0.931 . S
C1471 H1459 0.929 . S
C1471 C1465 1.390 . S
C1471 C1468 1.386 . S
C1472 C1467 1.490 . S
C1472 C1474 1.395 . S
C1472 C1475 1.403 . S
H1473 C1479 0.930 . S
C1474 H1460 0.930 . S
C1474 C1472 1.395 . S
C1474 C1477 1.403 . S
C1475 C1472 1.403 . S
C1475 C1476 1.524 . S
C1475 C1479 1.400 . S
C1476 H1461 0.960 . S
C1476 H1462 0.960 . S
C1476 H1463 0.960 . S
C1476 C1475 1.524 . S
C1477 C1474 1.403 . S
C1477 C1478 1.392 . S
C1477 C1481 1.495 . S
C1478 C1477 1.392 . S
C1478 C1479 1.385 . S
C1478 C1480 1.478 . S
C1479 H1473 0.930 . S
C1479 C1475 1.400 . S
C1479 C1478 1.385 . S
C1480 C1478 1.478 . S
C1480 C1482 1.381 . S
C1480 C1486 1.383 . S
C1481 C1477 1.495 . S
C1481 H1487 0.959 . S
C1481 H1488 0.961 . S
C1481 H1489 0.960 . S
C1482 C1480 1.381 . S
C1482 C1483 1.394 . S
C1482 H1490 0.930 . S
C1483 C1482 1.394 . S
C1483 C1484 1.383 . S
C1483 H1491 0.929 . S
C1484 C1483 1.383 . S
C1484 C1485 1.377 . S
C1485 H1469 0.930 . S
C1485 C1484 1.377 . S
C1485 C1486 1.379 . S
C1486 H1470 0.931 . S
C1486 C1480 1.383 . S
C1486 C1485 1.379 . S
H1487 C1481 0.959 . S
H1488 C1481 0.961 . S
H1489 C1481 0.960 . S
H1490 C1482 0.930 . S
H1491 C1483 0.929 . S
H1492 C1500 0.929 . S
H1493 C1502 0.930 . S
H1494 C1504 0.930 . S
H1495 C1507 0.929 . S
H1496 C1510 0.930 . S
H1497 C1512 0.960 . S
H1498 C1512 0.960 . S
H1499 C1512 0.960 . S
C1500 H1492 0.929 . S
C1500 C1501 1.377 . S
C1500 C1502 1.384 . S
C1501 C1500 1.377 . S
C1501 C1507 1.390 . S
C1502 H1493 0.930 . S
C1502 C1500 1.384 . S
C1502 C1503 1.372 . S
C1503 C1502 1.372 . S
C1503 C1504 1.400 . S
C1503 C1508 1.490 . S
C1504 H1494 0.930 . S
C1504 C1503 1.400 . S
C1504 C1507 1.386 . S
H1505 C1521 0.930 . S
H1506 C1522 0.931 . S
C1507 H1495 0.929 . S
C1507 C1501 1.390 . S
C1507 C1504 1.386 . S
C1508 C1503 1.490 . S
C1508 C1510 1.395 . S
C1508 C1511 1.403 . S
H1509 C1515 0.930 . S
C1510 H1496 0.930 . S
C1510 C1508 1.395 . S
C1510 C1513 1.403 . S
C1511 C1508 1.403 . S
C1511 C1512 1.524 . S
C1511 C1515 1.400 . S
C1512 H1497 0.960 . S
C1512 H1498 0.960 . S
C1512 H1499 0.960 . S
C1512 C1511 1.524 . S
C1513 C1510 1.403 . S
C1513 C1514 1.392 . S
C1513 C1517 1.495 . S
C1514 C1513 1.392 . S
C1514 C1515 1.385 . S
C1514 C1516 1.478 . S
C1515 H1509 0.930 . S
C1515 C1511 1.400 . S
C1515 C1514 1.385 . S
C1516 C1514 1.478 . S
C1516 C1518 1.381 . S
C1516 C1522 1.383 . S
C1517 C1513 1.495 . S
C1517 H1523 0.959 . S
C1517 H1524 0.961 . S
C1517 H1525 0.960 . S
C1518 C1516 1.381 . S
C1518 C1519 1.394 . S
C1518 H1526 0.930 . S
C1519 C1518 1.394 . S
C1519 C1520 1.383 . S
C1519 H1527 0.929 . S
C1520 C1519 1.383 . S
C1520 C1521 1.377 . S
C1521 H1505 0.930 . S
C1521 C1520 1.377 . S
C1521 C1522 1.379 . S
C1522 H1506 0.931 . S
C1522 C1516 1.383 . S
C1522 C1521 1.379 . S
H1523 C1517 0.959 . S
H1524 C1517 0.961 . S
H1525 C1517 0.960 . S
H1526 C1518 0.930 . S
H1527 C1519 0.929 . S
H1528 C1536 0.929 . S
H1529 C1538 0.930 . S
H1530 C1540 0.930 . S
H1531 C1543 0.929 . S
H1532 C1546 0.930 . S
H1533 C1548 0.960 . S
H1534 C1548 0.960 . S
H1535 C1548 0.960 . S
C1536 H1528 0.929 . S
C1536 C1537 1.377 . S
C1536 C1538 1.384 . S
C1537 C1536 1.377 . S
C1537 C1543 1.390 1_655 S
C1538 H1529 0.930 . S
C1538 C1536 1.384 . S
C1538 C1539 1.372 . S
C1539 C1538 1.372 . S
C1539 C1540 1.400 1_655 S
C1539 C1544 1.490 . S
C1540 H1530 0.930 . S
C1540 C1539 1.400 1_455 S
C1540 C1543 1.386 . S
H1541 C1557 0.930 . S
H1542 C1558 0.931 . S
C1543 H1531 0.929 . S
C1543 C1537 1.390 1_455 S
C1543 C1540 1.386 . S
C1544 C1539 1.490 . S
C1544 C1546 1.395 . S
C1544 C1547 1.403 1_655 S
H1545 C1551 0.930 . S
C1546 H1532 0.930 . S
C1546 C1544 1.395 . S
C1546 C1549 1.403 . S
C1547 C1544 1.403 1_455 S
C1547 C1548 1.524 . S
C1547 C1551 1.400 . S
C1548 H1533 0.960 . S
C1548 H1534 0.960 . S
C1548 H1535 0.960 . S
C1548 C1547 1.524 . S
C1549 C1546 1.403 . S
C1549 C1550 1.362 1_655 S
C1549 C1553 1.495 . S
C1550 C1549 1.362 1_455 S
C1550 C1551 1.412 . S
C1550 C1552 1.484 . S
C1551 H1545 0.930 . S
C1551 C1547 1.400 . S
C1551 C1550 1.412 . S
C1552 C1550 1.484 . S
C1552 C1554 1.381 1_455 S
C1552 C1558 1.383 . S
C1553 C1549 1.495 . S
C1553 H1559 0.959 . S
C1553 H1560 0.961 . S
C1553 H1561 0.960 . S
C1554 C1552 1.381 1_655 S
C1554 C1555 1.410 . S
C1554 H1562 0.930 . S
C1555 C1554 1.410 . S
C1555 C1556 1.339 1_655 S
C1555 H1563 0.962 . S
C1556 C1555 1.339 1_455 S
C1556 C1557 1.377 . S
C1557 H1541 0.930 . S
C1557 C1556 1.377 . S
C1557 C1558 1.379 . S
C1558 H1542 0.931 . S
C1558 C1552 1.383 . S
C1558 C1557 1.379 . S
H1559 C1553 0.959 . S
H1560 C1553 0.961 . S
H1561 C1553 0.960 . S
H1562 C1554 0.930 . S
H1563 C1555 0.962 . S
H1564 C1572 0.929 . S
H1565 C1574 0.930 . S
H1566 C1576 0.930 . S
H1567 C1579 0.929 . S
H1568 C1582 0.930 . S
H1569 C1584 0.960 . S
H1570 C1584 0.960 . S
H1571 C1584 0.960 . S
C1572 H1564 0.929 . S
C1572 C1573 1.377 . S
C1572 C1574 1.384 . S
C1573 C1572 1.377 . S
C1573 C1579 1.390 . S
C1574 H1565 0.930 . S
C1574 C1572 1.384 . S
C1574 C1575 1.372 . S
C1575 C1574 1.372 . S
C1575 C1576 1.400 . S
C1575 C1580 1.490 . S
C1576 H1566 0.930 . S
C1576 C1575 1.400 . S
C1576 C1579 1.386 . S
H1577 C1593 0.930 . S
H1578 C1594 0.931 . S
C1579 H1567 0.929 . S
C1579 C1573 1.390 . S
C1579 C1576 1.386 . S
C1580 C1575 1.490 . S
C1580 C1582 1.395 . S
C1580 C1583 1.403 . S
H1581 C1587 0.930 . S
C1582 H1568 0.930 . S
C1582 C1580 1.395 . S
C1582 C1585 1.403 . S
C1583 C1580 1.403 . S
C1583 C1584 1.524 . S
C1583 C1587 1.400 . S
C1584 H1569 0.960 . S
C1584 H1570 0.960 . S
C1584 H1571 0.960 . S
C1584 C1583 1.524 . S
C1585 C1582 1.403 . S
C1585 C1586 1.392 . S
C1585 C1589 1.495 . S
C1586 C1585 1.392 . S
C1586 C1587 1.385 . S
C1586 C1588 1.478 1_554 S
C1587 H1581 0.930 . S
C1587 C1583 1.400 . S
C1587 C1586 1.385 . S
C1588 C1586 1.478 1_556 S
C1588 C1590 1.381 . S
C1588 C1594 1.383 . S
C1589 C1585 1.495 . S
C1589 H1595 0.959 . S
C1589 H1596 0.961 . S
C1589 H1597 0.960 . S
C1590 C1588 1.381 . S
C1590 C1591 1.394 . S
C1590 H1598 0.930 . S
C1591 C1590 1.394 . S
C1591 C1592 1.383 . S
C1591 H1599 0.929 . S
C1592 C1591 1.383 . S
C1592 C1593 1.377 . S
C1593 H1577 0.930 . S
C1593 C1592 1.377 . S
C1593 C1594 1.379 . S
C1594 H1578 0.931 . S
C1594 C1588 1.383 . S
C1594 C1593 1.379 . S
H1595 C1589 0.959 . S
H1596 C1589 0.961 . S
H1597 C1589 0.960 . S
H1598 C1590 0.930 . S
H1599 C1591 0.929 . S
H1600 C1608 0.929 . S
H1601 C1610 0.930 . S
H1602 C1612 0.930 . S
H1603 C1615 0.929 . S
H1604 C1618 0.930 . S
H1605 C1620 0.960 . S
H1606 C1620 0.960 . S
H1607 C1620 0.960 . S
C1608 H1600 0.929 . S
C1608 C1609 1.377 1_455 S
C1608 C1610 1.384 . S
C1609 C1608 1.377 1_655 S
C1609 C1615 1.390 . S
C1610 H1601 0.930 . S
C1610 C1608 1.384 . S
C1610 C1611 1.308 1_455 S
C1611 C1610 1.308 1_655 S
C1611 C1612 1.472 . S
C1611 C1616 1.485 1_655 S
C1612 H1602 0.930 . S
C1612 C1611 1.472 . S
C1612 C1615 1.386 . S
H1613 C1629 0.930 . S
H1614 C1630 0.931 1_554 S
C1615 H1603 0.929 . S
C1615 C1609 1.390 . S
C1615 C1612 1.386 . S
C1616 C1611 1.485 1_455 S
C1616 C1618 1.405 . S
C1616 C1619 1.394 1_454 S
H1617 C1623 0.930 . S
C1618 H1604 0.930 . S
C1618 C1616 1.405 . S
C1618 C1621 1.403 1_545 S
C1619 C1616 1.394 1_656 S
C1619 C1620 1.524 . S
C1619 C1623 1.400 1_545 S
C1620 H1605 0.960 . S
C1620 H1606 0.960 . S
C1620 H1607 0.960 . S
C1620 C1619 1.524 . S
C1621 C1618 1.403 1_565 S
C1621 C1622 1.392 1_554 S
C1621 C1625 1.495 . S
C1622 C1621 1.392 1_556 S
C1622 C1623 1.385 1_455 S
C1622 C1624 1.478 . S
C1623 H1617 0.930 . S
C1623 C1619 1.400 1_565 S
C1623 C1622 1.385 1_655 S
C1624 C1622 1.478 . S
C1624 C1626 1.381 . S
C1624 C1630 1.383 1_455 S
C1625 C1621 1.495 . S
C1625 H1631 0.959 . S
C1625 H1632 0.961 . S
C1625 H1633 0.960 . S
C1626 C1624 1.381 . S
C1626 C1627 1.394 . S
C1626 H1634 0.930 . S
C1627 C1626 1.394 . S
C1627 C1628 1.383 . S
C1627 H1635 0.929 . S
C1628 C1627 1.383 . S
C1628 C1629 1.377 1_455 S
C1629 H1613 0.930 . S
C1629 C1628 1.377 1_655 S
C1629 C1630 1.379 . S
C1630 H1614 0.931 1_556 S
C1630 C1624 1.383 1_655 S
C1630 C1629 1.379 . S
H1631 C1625 0.959 . S
H1632 C1625 0.961 . S
H1633 C1625 0.960 . S
H1634 C1626 0.930 . S
H1635 C1627 0.929 . S
H1636 C1644 0.929 . S
H1637 C1646 0.930 . S
H1638 C1648 0.930 . S
H1639 C1651 0.929 . S
H1640 C1654 0.930 . S
H1641 C1656 0.960 . S
H1642 C1656 0.960 . S
H1643 C1656 0.960 . S
C1644 H1636 0.929 . S
C1644 C1645 1.377 . S
C1644 C1646 1.384 . S
C1645 C1644 1.377 . S
C1645 C1651 1.390 . S
C1646 H1637 0.930 . S
C1646 C1644 1.384 . S
C1646 C1647 1.372 . S
C1647 C1646 1.372 . S
C1647 C1648 1.400 . S
C1647 C1652 1.490 . S
C1648 H1638 0.930 . S
C1648 C1647 1.400 . S
C1648 C1651 1.386 . S
H1649 C1665 0.930 . S
H1650 C1666 0.931 . S
C1651 H1639 0.929 . S
C1651 C1645 1.390 . S
C1651 C1648 1.386 . S
C1652 C1647 1.490 . S
C1652 C1654 1.395 . S
C1652 C1655 1.403 . S
H1653 C1659 0.930 . S
C1654 H1640 0.930 . S
C1654 C1652 1.395 . S
C1654 C1657 1.403 . S
C1655 C1652 1.403 . S
C1655 C1656 1.524 . S
C1655 C1659 1.400 . S
C1656 H1641 0.960 . S
C1656 H1642 0.960 . S
C1656 H1643 0.960 . S
C1656 C1655 1.524 . S
C1657 C1654 1.403 . S
C1657 C1658 1.392 . S
C1657 C1661 1.495 . S
C1658 C1657 1.392 . S
C1658 C1659 1.385 . S
C1658 C1660 1.478 . S
C1659 H1653 0.930 . S
C1659 C1655 1.400 . S
C1659 C1658 1.385 . S
C1660 C1658 1.478 . S
C1660 C1662 1.381 . S
C1660 C1666 1.383 . S
C1661 C1657 1.495 . S
C1661 H1667 0.959 . S
C1661 H1668 0.961 . S
C1661 H1669 0.960 . S
C1662 C1660 1.381 . S
C1662 C1663 1.394 . S
C1662 H1670 0.930 . S
C1663 C1662 1.394 . S
C1663 C1664 1.383 . S
C1663 H1671 0.929 . S
C1664 C1663 1.383 . S
C1664 C1665 1.377 . S
C1665 H1649 0.930 . S
C1665 C1664 1.377 . S
C1665 C1666 1.379 . S
C1666 H1650 0.931 . S
C1666 C1660 1.383 . S
C1666 C1665 1.379 . S
H1667 C1661 0.959 . S
H1668 C1661 0.961 . S
H1669 C1661 0.960 . S
H1670 C1662 0.930 . S
H1671 C1663 0.929 . S
H1672 C1680 0.929 . S
H1673 C1682 0.930 . S
H1674 C1684 0.930 . S
H1675 C1687 0.929 . S
H1676 C1690 0.930 . S
H1677 C1692 0.960 1_565 S
H1678 C1692 0.960 . S
H1679 C1692 0.960 . S
C1680 H1672 0.929 . S
C1680 C1681 1.377 . S
C1680 C1682 1.384 . S
C1681 C1680 1.377 . S
C1681 C1687 1.390 . S
C1682 H1673 0.930 . S
C1682 C1680 1.384 . S
C1682 C1683 1.372 . S
C1683 C1682 1.372 . S
C1683 C1684 1.400 . S
C1683 C1688 1.490 . S
C1684 H1674 0.930 . S
C1684 C1683 1.400 . S
C1684 C1687 1.386 . S
H1685 C1701 0.930 . S
H1686 C1702 0.931 . S
C1687 H1675 0.929 . S
C1687 C1681 1.390 . S
C1687 C1684 1.386 . S
C1688 C1683 1.490 . S
C1688 C1690 1.395 . S
C1688 C1691 1.403 . S
H1689 C1695 0.930 . S
C1690 H1676 0.930 . S
C1690 C1688 1.395 . S
C1690 C1693 1.403 1_545 S
C1691 C1688 1.403 . S
C1691 C1692 1.524 . S
C1691 C1695 1.400 1_545 S
C1692 H1677 0.960 1_545 S
C1692 H1678 0.960 . S
C1692 H1679 0.960 . S
C1692 C1691 1.524 . S
C1693 C1690 1.403 1_565 S
C1693 C1694 1.392 . S
C1693 C1697 1.495 . S
C1694 C1693 1.392 . S
C1694 C1695 1.385 . S
C1694 C1696 1.478 . S
C1695 H1689 0.930 . S
C1695 C1691 1.400 1_565 S
C1695 C1694 1.385 . S
C1696 C1694 1.478 . S
C1696 C1698 1.381 . S
C1696 C1702 1.383 . S
C1697 C1693 1.495 . S
C1697 H1703 0.959 1_565 S
C1697 H1704 0.961 . S
C1697 H1705 0.960 . S
C1698 C1696 1.381 . S
C1698 C1699 1.394 . S
C1698 H1706 0.930 . S
C1699 C1698 1.394 . S
C1699 C1700 1.383 . S
C1699 H1707 0.929 . S
C1700 C1699 1.383 . S
C1700 C1701 1.377 . S
C1701 H1685 0.930 . S
C1701 C1700 1.377 . S
C1701 C1702 1.379 . S
C1702 H1686 0.931 . S
C1702 C1696 1.383 . S
C1702 C1701 1.379 . S
H1703 C1697 0.959 1_545 S
H1704 C1697 0.961 . S
H1705 C1697 0.960 . S
H1706 C1698 0.930 . S
H1707 C1699 0.929 . S
H1708 C1716 0.929 . S
H1709 C1718 0.930 . S
H1710 C1720 0.930 . S
H1711 C1723 0.929 . S
H1712 C1726 0.930 . S
H1713 C1728 0.960 . S
H1714 C1728 0.960 . S
H1715 C1728 0.960 . S
C1716 H1708 0.929 . S
C1716 C1717 1.377 . S
C1716 C1718 1.384 . S
C1717 C1716 1.377 . S
C1717 C1723 1.390 . S
C1718 H1709 0.930 . S
C1718 C1716 1.384 . S
C1718 C1719 1.372 . S
C1719 C1718 1.372 . S
C1719 C1720 1.400 . S
C1719 C1724 1.490 . S
C1720 H1710 0.930 . S
C1720 C1719 1.400 . S
C1720 C1723 1.386 . S
H1721 C1737 0.930 . S
H1722 C1738 0.931 . S
C1723 H1711 0.929 . S
C1723 C1717 1.390 . S
C1723 C1720 1.386 . S
C1724 C1719 1.490 . S
C1724 C1726 1.395 . S
C1724 C1727 1.403 . S
H1725 C1731 0.930 . S
C1726 H1712 0.930 . S
C1726 C1724 1.395 . S
C1726 C1729 1.403 . S
C1727 C1724 1.403 . S
C1727 C1728 1.524 . S
C1727 C1731 1.400 . S
C1728 H1713 0.960 . S
C1728 H1714 0.960 . S
C1728 H1715 0.960 . S
C1728 C1727 1.524 . S
C1729 C1726 1.403 . S
C1729 C1730 1.392 . S
C1729 C1733 1.495 . S
C1730 C1729 1.392 . S
C1730 C1731 1.385 . S
C1730 C1732 1.478 . S
C1731 H1725 0.930 . S
C1731 C1727 1.400 . S
C1731 C1730 1.385 . S
C1732 C1730 1.478 . S
C1732 C1734 1.381 . S
C1732 C1738 1.383 . S
C1733 C1729 1.495 . S
C1733 H1739 0.959 . S
C1733 H1740 0.961 . S
C1733 H1741 0.960 . S
C1734 C1732 1.381 . S
C1734 C1735 1.394 . S
C1734 H1742 0.930 . S
C1735 C1734 1.394 . S
C1735 C1736 1.383 . S
C1735 H1743 0.929 . S
C1736 C1735 1.383 . S
C1736 C1737 1.377 . S
C1737 H1721 0.930 . S
C1737 C1736 1.377 . S
C1737 C1738 1.379 . S
C1738 H1722 0.931 . S
C1738 C1732 1.383 . S
C1738 C1737 1.379 . S
H1739 C1733 0.959 . S
H1740 C1733 0.961 . S
H1741 C1733 0.960 . S
H1742 C1734 0.930 . S
H1743 C1735 0.929 . S
H1744 C1752 0.929 . S
H1745 C1754 0.930 . S
H1746 C1756 0.930 . S
H1747 C1759 0.929 . S
H1748 C1762 0.930 . S
H1749 C1764 1.017 . S
H1750 C1764 0.960 . S
H1751 C1764 0.960 . S
C1752 H1744 0.929 . S
C1752 C1753 1.377 . S
C1752 C1754 1.384 . S
C1753 C1752 1.377 . S
C1753 C1759 1.390 1_655 S
C1754 H1745 0.930 . S
C1754 C1752 1.384 . S
C1754 C1755 1.372 . S
C1755 C1754 1.372 . S
C1755 C1756 1.400 1_655 S
C1755 C1760 1.490 . S
C1756 H1746 0.930 . S
C1756 C1755 1.400 1_455 S
C1756 C1759 1.386 . S
H1757 C1773 0.930 . S
H1758 C1774 0.931 . S
C1759 H1747 0.929 . S
C1759 C1753 1.390 1_455 S
C1759 C1756 1.386 . S
C1760 C1755 1.490 . S
C1760 C1762 1.395 . S
C1760 C1763 1.403 1_655 S
H1761 C1767 0.930 . S
C1762 H1748 0.930 . S
C1762 C1760 1.395 . S
C1762 C1765 1.403 1_565 S
C1763 C1760 1.403 1_455 S
C1763 C1764 1.524 . S
C1763 C1767 1.400 1_565 S
C1764 H1749 1.017 . S
C1764 H1750 0.960 . S
C1764 H1751 0.960 . S
C1764 C1763 1.524 . S
C1765 C1762 1.403 1_545 S
C1765 C1766 1.392 . S
C1765 C1769 1.495 . S
C1766 C1765 1.392 . S
C1766 C1767 1.385 1_655 S
C1766 C1768 1.481 . S
C1767 H1761 0.930 . S
C1767 C1763 1.400 1_545 S
C1767 C1766 1.385 1_455 S
C1768 C1766 1.481 . S
C1768 C1770 1.409 . S
C1768 C1774 1.351 1_655 S
C1769 C1765 1.495 . S
C1769 H1775 0.959 . S
C1769 H1776 0.961 . S
C1769 H1777 0.960 . S
C1770 C1768 1.409 . S
C1770 C1771 1.394 . S
C1770 H1778 0.930 . S
C1771 C1770 1.394 . S
C1771 C1772 1.383 1_655 S
C1771 H1779 0.929 . S
C1772 C1771 1.383 1_455 S
C1772 C1773 1.377 . S
C1773 H1757 0.930 . S
C1773 C1772 1.377 . S
C1773 C1774 1.379 . S
C1774 H1758 0.931 . S
C1774 C1768 1.351 1_455 S
C1774 C1773 1.379 . S
H1775 C1769 0.959 . S
H1776 C1769 0.961 . S
H1777 C1769 0.960 . S
H1778 C1770 0.930 . S
H1779 C1771 0.929 . S
H1780 C1788 0.929 . S
H1781 C1790 0.930 . S
H1782 C1792 0.930 . S
H1783 C1795 0.929 . S
H1784 C1798 0.930 . S
H1785 C1800 0.960 . S
H1786 C1800 0.960 . S
H1787 C1800 0.960 . S
C1788 H1780 0.929 . S
C1788 C1789 1.377 . S
C1788 C1790 1.384 . S
C1789 C1788 1.377 . S
C1789 C1795 1.390 . S
C1790 H1781 0.930 . S
C1790 C1788 1.384 . S
C1790 C1791 1.372 . S
C1791 C1790 1.372 . S
C1791 C1792 1.400 . S
C1791 C1796 1.490 . S
C1792 H1782 0.930 . S
C1792 C1791 1.400 . S
C1792 C1795 1.386 . S
H1793 C1809 0.930 . S
H1794 C1810 0.931 . S
C1795 H1783 0.929 . S
C1795 C1789 1.390 . S
C1795 C1792 1.386 . S
C1796 C1791 1.490 . S
C1796 C1798 1.395 . S
C1796 C1799 1.403 . S
H1797 C1803 0.930 . S
C1798 H1784 0.930 . S
C1798 C1796 1.395 . S
C1798 C1801 1.403 . S
C1799 C1796 1.403 . S
C1799 C1800 1.524 . S
C1799 C1803 1.400 . S
C1800 H1785 0.960 . S
C1800 H1786 0.960 . S
C1800 H1787 0.960 . S
C1800 C1799 1.524 . S
C1801 C1798 1.403 . S
C1801 C1802 1.392 . S
C1801 C1805 1.495 . S
C1802 C1801 1.392 . S
C1802 C1803 1.385 . S
C1802 C1804 1.478 . S
C1803 H1797 0.930 . S
C1803 C1799 1.400 . S
C1803 C1802 1.385 . S
C1804 C1802 1.478 . S
C1804 C1806 1.381 . S
C1804 C1810 1.383 . S
C1805 C1801 1.495 . S
C1805 H1811 0.959 . S
C1805 H1812 0.961 . S
C1805 H1813 0.960 . S
C1806 C1804 1.381 . S
C1806 C1807 1.394 . S
C1806 H1814 0.930 . S
C1807 C1806 1.394 . S
C1807 C1808 1.383 . S
C1807 H1815 0.929 . S
C1808 C1807 1.383 . S
C1808 C1809 1.377 . S
C1809 H1793 0.930 . S
C1809 C1808 1.377 . S
C1809 C1810 1.379 . S
C1810 H1794 0.931 . S
C1810 C1804 1.383 . S
C1810 C1809 1.379 . S
H1811 C1805 0.959 . S
H1812 C1805 0.961 . S
H1813 C1805 0.960 . S
H1814 C1806 0.930 . S
H1815 C1807 0.929 . S
H1816 C1824 0.929 1_556 S
H1817 C1826 0.933 . S
H1818 C1828 0.930 . S
H1819 C1831 0.929 . S
H1820 C1834 0.930 . S
H1821 C1836 0.960 1_545 S
H1822 C1836 0.960 . S
H1823 C1836 0.960 . S
C1824 H1816 0.929 1_554 S
C1824 C1825 1.377 . S
C1824 C1826 1.383 1_554 S
C1825 C1824 1.377 . S
C1825 C1831 1.390 . S
C1826 H1817 0.933 . S
C1826 C1824 1.383 1_556 S
C1826 C1827 1.370 1_556 S
C1827 C1826 1.370 1_554 S
C1827 C1828 1.400 . S
C1827 C1832 1.490 . S
C1828 H1818 0.930 . S
C1828 C1827 1.400 . S
C1828 C1831 1.386 . S
H1829 C1845 0.930 . S
H1830 C1846 0.931 1_554 S
C1831 H1819 0.929 . S
C1831 C1825 1.390 . S
C1831 C1828 1.386 . S
C1832 C1827 1.490 . S
C1832 C1834 1.395 1_554 S
C1832 C1835 1.403 . S
H1833 C1839 0.930 . S
C1834 H1820 0.930 . S
C1834 C1832 1.395 1_556 S
C1834 C1837 1.403 1_565 S
C1835 C1832 1.403 . S
C1835 C1836 1.524 . S
C1835 C1839 1.400 1_565 S
C1836 H1821 0.960 1_565 S
C1836 H1822 0.960 . S
C1836 H1823 0.960 . S
C1836 C1835 1.524 . S
C1837 C1834 1.403 1_545 S
C1837 C1838 1.392 . S
C1837 C1841 1.495 . S
C1838 C1837 1.392 . S
C1838 C1839 1.385 1_556 S
C1838 C1840 1.478 . S
C1839 H1833 0.930 . S
C1839 C1835 1.400 1_545 S
C1839 C1838 1.385 1_554 S
C1840 C1838 1.478 . S
C1840 C1842 1.381 . S
C1840 C1846 1.383 . S
C1841 C1837 1.495 . S
C1841 H1847 0.959 1_545 S
C1841 H1848 0.961 . S
C1841 H1849 0.960 . S
C1842 C1840 1.381 . S
C1842 C1843 1.394 . S
C1842 H1850 0.930 . S
C1843 C1842 1.394 . S
C1843 C1844 1.383 . S
C1843 H1851 0.929 . S
C1844 C1843 1.383 . S
C1844 C1845 1.377 . S
C1845 H1829 0.930 . S
C1845 C1844 1.377 . S
C1845 C1846 1.379 . S
C1846 H1830 0.931 1_556 S
C1846 C1840 1.383 . S
C1846 C1845 1.379 . S
H1847 C1841 0.959 1_565 S
H1848 C1841 0.961 . S
H1849 C1841 0.960 . S
H1850 C1842 0.930 . S
H1851 C1843 0.929 . S
H1852 C1860 0.929 . S
H1853 C1862 0.930 . S
H1854 C1864 0.930 . S
H1855 C1867 0.929 . S
H1856 C1870 0.930 . S
H1857 C1872 0.960 . S
H1858 C1872 0.960 . S
H1859 C1872 0.960 . S
C1860 H1852 0.929 . S
C1860 C1861 1.377 . S
C1860 C1862 1.384 . S
C1861 C1860 1.377 . S
C1861 C1867 1.390 . S
C1862 H1853 0.930 . S
C1862 C1860 1.384 . S
C1862 C1863 1.372 . S
C1863 C1862 1.372 . S
C1863 C1864 1.400 . S
C1863 C1868 1.490 . S
C1864 H1854 0.930 . S
C1864 C1863 1.400 . S
C1864 C1867 1.386 . S
H1865 C1881 0.930 . S
H1866 C1882 0.931 . S
C1867 H1855 0.929 . S
C1867 C1861 1.390 . S
C1867 C1864 1.386 . S
C1868 C1863 1.490 . S
C1868 C1870 1.395 . S
C1868 C1871 1.403 . S
H1869 C1875 0.930 . S
C1870 H1856 0.930 . S
C1870 C1868 1.395 . S
C1870 C1873 1.403 . S
C1871 C1868 1.403 . S
C1871 C1872 1.524 . S
C1871 C1875 1.400 . S
C1872 H1857 0.960 . S
C1872 H1858 0.960 . S
C1872 H1859 0.960 . S
C1872 C1871 1.524 . S
C1873 C1870 1.403 . S
C1873 C1874 1.392 . S
C1873 C1877 1.495 . S
C1874 C1873 1.392 . S
C1874 C1875 1.385 . S
C1874 C1876 1.478 . S
C1875 H1869 0.930 . S
C1875 C1871 1.400 . S
C1875 C1874 1.385 . S
C1876 C1874 1.478 . S
C1876 C1878 1.381 . S
C1876 C1882 1.383 . S
C1877 C1873 1.495 . S
C1877 H1883 0.959 . S
C1877 H1884 0.961 . S
C1877 H1885 0.960 . S
C1878 C1876 1.381 . S
C1878 C1879 1.394 . S
C1878 H1886 0.930 . S
C1879 C1878 1.394 . S
C1879 C1880 1.383 . S
C1879 H1887 0.929 . S
C1880 C1879 1.383 . S
C1880 C1881 1.377 . S
C1881 H1865 0.930 . S
C1881 C1880 1.377 . S
C1881 C1882 1.379 . S
C1882 H1866 0.931 . S
C1882 C1876 1.383 . S
C1882 C1881 1.379 . S
H1883 C1877 0.959 . S
H1884 C1877 0.961 . S
H1885 C1877 0.960 . S
H1886 C1878 0.930 . S
H1887 C1879 0.929 . S
H1888 C1896 0.929 . S
H1889 C1898 0.930 . S
H1890 C1900 0.930 . S
H1891 C1903 0.929 . S
H1892 C1906 0.930 . S
H1893 C1908 0.960 . S
H1894 C1908 0.960 . S
H1895 C1908 0.960 . S
C1896 H1888 0.929 . S
C1896 C1897 1.377 . S
C1896 C1898 1.384 . S
C1897 C1896 1.377 . S
C1897 C1903 1.390 . S
C1898 H1889 0.930 . S
C1898 C1896 1.384 . S
C1898 C1899 1.372 . S
C1899 C1898 1.372 . S
C1899 C1900 1.400 . S
C1899 C1904 1.490 . S
C1900 H1890 0.930 . S
C1900 C1899 1.400 . S
C1900 C1903 1.386 . S
H1901 C1917 0.930 . S
H1902 C1918 0.931 . S
C1903 H1891 0.929 . S
C1903 C1897 1.390 . S
C1903 C1900 1.386 . S
C1904 C1899 1.490 . S
C1904 C1906 1.395 . S
C1904 C1907 1.403 . S
H1905 C1911 0.930 . S
C1906 H1892 0.930 . S
C1906 C1904 1.395 . S
C1906 C1909 1.403 . S
C1907 C1904 1.403 . S
C1907 C1908 1.524 . S
C1907 C1911 1.400 . S
C1908 H1893 0.960 . S
C1908 H1894 0.960 . S
C1908 H1895 0.960 . S
C1908 C1907 1.524 . S
C1909 C1906 1.403 . S
C1909 C1910 1.392 . S
C1909 C1913 1.495 . S
C1910 C1909 1.392 . S
C1910 C1911 1.385 . S
C1910 C1912 1.478 . S
C1911 H1905 0.930 . S
C1911 C1907 1.400 . S
C1911 C1910 1.385 . S
C1912 C1910 1.478 . S
C1912 C1914 1.381 . S
C1912 C1918 1.383 . S
C1913 C1909 1.495 . S
C1913 H1919 0.959 . S
C1913 H1920 0.961 . S
C1913 H1921 0.960 . S
C1914 C1912 1.381 . S
C1914 C1915 1.394 . S
C1914 H1922 0.930 . S
C1915 C1914 1.394 . S
C1915 C1916 1.383 . S
C1915 H1923 0.929 . S
C1916 C1915 1.383 . S
C1916 C1917 1.377 . S
C1917 H1901 0.930 . S
C1917 C1916 1.377 . S
C1917 C1918 1.379 . S
C1918 H1902 0.931 . S
C1918 C1912 1.383 . S
C1918 C1917 1.379 . S
H1919 C1913 0.959 . S
H1920 C1913 0.961 . S
H1921 C1913 0.960 . S
H1922 C1914 0.930 . S
H1923 C1915 0.929 . S
H1924 C1932 0.929 . S
H1925 C1934 0.930 . S
H1926 C1936 0.930 . S
H1927 C1939 0.929 . S
H1928 C1942 0.930 . S
H1929 C1944 0.960 . S
H1930 C1944 0.960 . S
H1931 C1944 0.960 . S
C1932 H1924 0.929 . S
C1932 C1933 1.377 . S
C1932 C1934 1.384 . S
C1933 C1932 1.377 . S
C1933 C1939 1.390 . S
C1934 H1925 0.930 . S
C1934 C1932 1.384 . S
C1934 C1935 1.372 . S
C1935 C1934 1.372 . S
C1935 C1936 1.400 . S
C1935 C1940 1.490 . S
C1936 H1926 0.930 . S
C1936 C1935 1.400 . S
C1936 C1939 1.386 . S
H1937 C1953 0.930 . S
H1938 C1954 0.931 . S
C1939 H1927 0.929 . S
C1939 C1933 1.390 . S
C1939 C1936 1.386 . S
C1940 C1935 1.490 . S
C1940 C1942 1.395 . S
C1940 C1943 1.403 . S
H1941 C1947 0.930 . S
C1942 H1928 0.930 . S
C1942 C1940 1.395 . S
C1942 C1945 1.403 . S
C1943 C1940 1.403 . S
C1943 C1944 1.524 . S
C1943 C1947 1.400 . S
C1944 H1929 0.960 . S
C1944 H1930 0.960 . S
C1944 H1931 0.960 . S
C1944 C1943 1.524 . S
C1945 C1942 1.403 . S
C1945 C1946 1.392 . S
C1945 C1949 1.495 . S
C1946 C1945 1.392 . S
C1946 C1947 1.385 . S
C1946 C1948 1.478 . S
C1947 H1941 0.930 . S
C1947 C1943 1.400 . S
C1947 C1946 1.385 . S
C1948 C1946 1.478 . S
C1948 C1950 1.381 . S
C1948 C1954 1.383 . S
C1949 C1945 1.495 . S
C1949 H1955 0.959 . S
C1949 H1956 0.961 . S
C1949 H1957 0.960 . S
C1950 C1948 1.381 . S
C1950 C1951 1.394 . S
C1950 H1958 0.930 . S
C1951 C1950 1.394 . S
C1951 C1952 1.383 . S
C1951 H1959 0.929 . S
C1952 C1951 1.383 . S
C1952 C1953 1.377 . S
C1953 H1937 0.930 . S
C1953 C1952 1.377 . S
C1953 C1954 1.379 . S
C1954 H1938 0.931 . S
C1954 C1948 1.383 . S
C1954 C1953 1.379 . S
H1955 C1949 0.959 . S
H1956 C1949 0.961 . S
H1957 C1949 0.960 . S
H1958 C1950 0.930 . S
H1959 C1951 0.929 . S
H1960 C1968 0.929 . S
H1961 C1970 0.930 . S
H1962 C1972 0.930 . S
H1963 C1975 0.929 . S
H1964 C1978 0.930 . S
H1965 C1980 0.960 . S
H1966 C1980 0.960 . S
H1967 C1980 0.960 . S
C1968 H1960 0.929 . S
C1968 C1969 1.377 . S
C1968 C1970 1.384 . S
C1969 C1968 1.377 . S
C1969 C1975 1.390 . S
C1970 H1961 0.930 . S
C1970 C1968 1.384 . S
C1970 C1971 1.372 . S
C1971 C1970 1.372 . S
C1971 C1972 1.400 . S
C1971 C1976 1.490 . S
C1972 H1962 0.930 . S
C1972 C1971 1.400 . S
C1972 C1975 1.386 . S
H1973 C1989 0.930 . S
H1974 C1990 0.931 . S
C1975 H1963 0.929 . S
C1975 C1969 1.390 . S
C1975 C1972 1.386 . S
C1976 C1971 1.490 . S
C1976 C1978 1.395 . S
C1976 C1979 1.403 . S
H1977 C1983 0.930 . S
C1978 H1964 0.930 . S
C1978 C1976 1.395 . S
C1978 C1981 1.403 . S
C1979 C1976 1.403 . S
C1979 C1980 1.524 . S
C1979 C1983 1.400 . S
C1980 H1965 0.960 . S
C1980 H1966 0.960 . S
C1980 H1967 0.960 . S
C1980 C1979 1.524 . S
C1981 C1978 1.403 . S
C1981 C1982 1.392 . S
C1981 C1985 1.495 . S
C1982 C1981 1.392 . S
C1982 C1983 1.385 . S
C1982 C1984 1.478 . S
C1983 H1977 0.930 . S
C1983 C1979 1.400 . S
C1983 C1982 1.385 . S
C1984 C1982 1.478 . S
C1984 C1986 1.381 . S
C1984 C1990 1.383 . S
C1985 C1981 1.495 . S
C1985 H1991 0.959 . S
C1985 H1992 0.961 . S
C1985 H1993 0.960 . S
C1986 C1984 1.381 . S
C1986 C1987 1.394 . S
C1986 H1994 0.930 . S
C1987 C1986 1.394 . S
C1987 C1988 1.383 . S
C1987 H1995 0.929 . S
C1988 C1987 1.383 . S
C1988 C1989 1.377 . S
C1989 H1973 0.930 . S
C1989 C1988 1.377 . S
C1989 C1990 1.379 . S
C1990 H1974 0.931 . S
C1990 C1984 1.383 . S
C1990 C1989 1.379 . S
H1991 C1985 0.959 . S
H1992 C1985 0.961 . S
H1993 C1985 0.960 . S
H1994 C1986 0.930 . S
H1995 C1987 0.929 . S
H1996 C2004 0.929 . S
H1997 C2006 0.930 . S
H1998 C2008 0.930 . S
H1999 C2011 0.929 . S
H2000 C2014 0.930 . S
H2001 C2016 0.960 . S
H2002 C2016 0.960 . S
H2003 C2016 0.960 . S
C2004 H1996 0.929 . S
C2004 C2005 1.377 . S
C2004 C2006 1.384 . S
C2005 C2004 1.377 . S
C2005 C2011 1.390 . S
C2006 H1997 0.930 . S
C2006 C2004 1.384 . S
C2006 C2007 1.372 . S
C2007 C2006 1.372 . S
C2007 C2008 1.400 . S
C2007 C2012 1.490 . S
C2008 H1998 0.930 . S
C2008 C2007 1.400 . S
C2008 C2011 1.386 . S
H2009 C2025 0.930 . S
H2010 C2026 0.931 . S
C2011 H1999 0.929 . S
C2011 C2005 1.390 . S
C2011 C2008 1.386 . S
C2012 C2007 1.490 . S
C2012 C2014 1.395 . S
C2012 C2015 1.403 . S
H2013 C2019 0.930 . S
C2014 H2000 0.930 . S
C2014 C2012 1.395 . S
C2014 C2017 1.403 . S
C2015 C2012 1.403 . S
C2015 C2016 1.524 . S
C2015 C2019 1.400 . S
C2016 H2001 0.960 . S
C2016 H2002 0.960 . S
C2016 H2003 0.960 . S
C2016 C2015 1.524 . S
C2017 C2014 1.403 . S
C2017 C2018 1.392 . S
C2017 C2021 1.495 . S
C2018 C2017 1.392 . S
C2018 C2019 1.385 . S
C2018 C2020 1.478 . S
C2019 H2013 0.930 . S
C2019 C2015 1.400 . S
C2019 C2018 1.385 . S
C2020 C2018 1.478 . S
C2020 C2022 1.381 . S
C2020 C2026 1.383 . S
C2021 C2017 1.495 . S
C2021 H2027 0.959 . S
C2021 H2028 0.961 . S
C2021 H2029 0.960 . S
C2022 C2020 1.381 . S
C2022 C2023 1.394 . S
C2022 H2030 0.930 . S
C2023 C2022 1.394 . S
C2023 C2024 1.383 . S
C2023 H2031 0.929 . S
C2024 C2023 1.383 . S
C2024 C2025 1.377 . S
C2025 H2009 0.930 . S
C2025 C2024 1.377 . S
C2025 C2026 1.379 . S
C2026 H2010 0.931 . S
C2026 C2020 1.383 . S
C2026 C2025 1.379 . S
H2027 C2021 0.959 . S
H2028 C2021 0.961 . S
H2029 C2021 0.960 . S
H2030 C2022 0.930 . S
H2031 C2023 0.929 . S
H2032 C2040 0.929 . S
H2033 C2042 0.930 . S
H2034 C2044 0.930 . S
H2035 C2047 0.929 . S
H2036 C2050 0.930 . S
H2037 C2052 0.960 . S
H2038 C2052 0.960 . S
H2039 C2052 0.960 . S
C2040 H2032 0.929 . S
C2040 C2041 1.377 . S
C2040 C2042 1.384 . S
C2041 C2040 1.377 . S
C2041 C2047 1.390 . S
C2042 H2033 0.930 . S
C2042 C2040 1.384 . S
C2042 C2043 1.372 . S
C2043 C2042 1.372 . S
C2043 C2044 1.400 . S
C2043 C2048 1.490 . S
C2044 H2034 0.930 . S
C2044 C2043 1.400 . S
C2044 C2047 1.386 . S
H2045 C2061 0.930 . S
H2046 C2062 0.931 . S
C2047 H2035 0.929 . S
C2047 C2041 1.390 . S
C2047 C2044 1.386 . S
C2048 C2043 1.490 . S
C2048 C2050 1.395 . S
C2048 C2051 1.403 . S
H2049 C2055 0.930 . S
C2050 H2036 0.930 . S
C2050 C2048 1.395 . S
C2050 C2053 1.403 . S
C2051 C2048 1.403 . S
C2051 C2052 1.524 . S
C2051 C2055 1.400 . S
C2052 H2037 0.960 . S
C2052 H2038 0.960 . S
C2052 H2039 0.960 . S
C2052 C2051 1.524 . S
C2053 C2050 1.403 . S
C2053 C2054 1.392 . S
C2053 C2057 1.495 . S
C2054 C2053 1.392 . S
C2054 C2055 1.385 . S
C2054 C2056 1.478 . S
C2055 H2049 0.930 . S
C2055 C2051 1.400 . S
C2055 C2054 1.385 . S
C2056 C2054 1.478 . S
C2056 C2058 1.381 . S
C2056 C2062 1.383 . S
C2057 C2053 1.495 . S
C2057 H2063 0.959 . S
C2057 H2064 0.961 . S
C2057 H2065 0.960 . S
C2058 C2056 1.381 . S
C2058 C2059 1.394 . S
C2058 H2066 0.930 . S
C2059 C2058 1.394 . S
C2059 C2060 1.383 . S
C2059 H2067 0.929 . S
C2060 C2059 1.383 . S
C2060 C2061 1.377 . S
C2061 H2045 0.930 . S
C2061 C2060 1.377 . S
C2061 C2062 1.379 . S
C2062 H2046 0.931 . S
C2062 C2056 1.383 . S
C2062 C2061 1.379 . S
H2063 C2057 0.959 . S
H2064 C2057 0.961 . S
H2065 C2057 0.960 . S
H2066 C2058 0.930 . S
H2067 C2059 0.929 . S
H2068 C2076 0.920 1_556 S
H2069 C2078 0.930 1_556 S
H2070 C2080 0.930 . S
H2071 C2083 0.929 . S
H2072 C2086 0.930 . S
H2073 C2088 0.960 . S
H2074 C2088 0.960 . S
H2075 C2088 0.960 1_554 S
C2076 H2068 0.920 1_554 S
C2076 C2077 1.377 1_655 S
C2076 C2078 1.384 . S
C2077 C2076 1.377 1_455 S
C2077 C2083 1.390 . S
C2078 H2069 0.930 1_554 S
C2078 C2076 1.384 . S
C2078 C2079 1.372 1_655 S
C2079 C2078 1.372 1_455 S
C2079 C2080 1.400 . S
C2079 C2084 1.490 1_455 S
C2080 H2070 0.930 . S
C2080 C2079 1.400 . S
C2080 C2083 1.386 . S
H2081 C2097 0.930 1_554 S
H2082 C2098 0.931 . S
C2083 H2071 0.929 . S
C2083 C2077 1.390 . S
C2083 C2080 1.386 . S
C2084 C2079 1.490 1_655 S
C2084 C2086 1.397 . S
C2084 C2087 1.401 1_654 S
H2085 C2091 0.930 . S
C2086 H2072 0.930 . S
C2086 C2084 1.397 . S
C2086 C2089 1.403 . S
C2087 C2084 1.401 1_456 S
C2087 C2088 1.524 . S
C2087 C2091 1.400 . S
C2088 H2073 0.960 . S
C2088 H2074 0.960 . S
C2088 H2075 0.960 1_556 S
C2088 C2087 1.524 . S
C2089 C2086 1.403 . S
C2089 C2090 1.392 1_554 S
C2089 C2093 1.495 . S
C2090 C2089 1.392 1_556 S
C2090 C2091 1.385 1_655 S
C2090 C2092 1.478 . S
C2091 H2085 0.930 . S
C2091 C2087 1.400 . S
C2091 C2090 1.385 1_455 S
C2092 C2090 1.478 . S
C2092 C2094 1.381 . S
C2092 C2098 1.383 1_656 S
C2093 C2089 1.495 . S
C2093 H2099 0.959 . S
C2093 H2100 0.961 . S
C2093 H2101 0.960 1_554 S
C2094 C2092 1.381 . S
C2094 C2095 1.394 . S
C2094 H2102 0.930 . S
C2095 C2094 1.394 . S
C2095 C2096 1.383 . S
C2095 H2103 0.929 . S
C2096 C2095 1.383 . S
C2096 C2097 1.377 1_655 S
C2097 H2081 0.930 1_556 S
C2097 C2096 1.377 1_455 S
C2097 C2098 1.379 1_556 S
C2098 H2082 0.931 . S
C2098 C2092 1.383 1_454 S
C2098 C2097 1.379 1_554 S
H2099 C2093 0.959 . S
H2100 C2093 0.961 . S
H2101 C2093 0.960 1_556 S
H2102 C2094 0.930 . S
H2103 C2095 0.929 . S
H2104 C2112 0.929 1_554 S
H2105 C2114 0.930 . S
H2106 C2116 0.930 . S
H2107 C2119 0.929 . S
H2108 C2122 0.930 . S
H2109 C2124 0.960 . S
H2110 C2124 0.960 . S
H2111 C2124 0.960 . S
C2112 H2104 0.929 1_556 S
C2112 C2113 1.377 . S
C2112 C2114 1.384 1_556 S
C2113 C2112 1.377 . S
C2113 C2119 1.390 . S
C2114 H2105 0.930 . S
C2114 C2112 1.384 1_554 S
C2114 C2115 1.372 1_554 S
C2115 C2114 1.372 1_556 S
C2115 C2116 1.400 . S
C2115 C2120 1.490 . S
C2116 H2106 0.930 . S
C2116 C2115 1.400 . S
C2116 C2119 1.386 . S
H2117 C2133 0.930 1_556 S
H2118 C2134 0.929 1_556 S
C2119 H2107 0.929 . S
C2119 C2113 1.390 . S
C2119 C2116 1.386 . S
C2120 C2115 1.490 . S
C2120 C2122 1.395 1_556 S
C2120 C2123 1.403 . S
H2121 C2127 0.930 . S
C2122 H2108 0.930 . S
C2122 C2120 1.395 1_554 S
C2122 C2125 1.403 . S
C2123 C2120 1.403 . S
C2123 C2124 1.524 . S
C2123 C2127 1.400 . S
C2124 H2109 0.960 . S
C2124 H2110 0.960 . S
C2124 H2111 0.960 . S
C2124 C2123 1.524 . S
C2125 C2122 1.403 . S
C2125 C2126 1.392 . S
C2125 C2129 1.495 . S
C2126 C2125 1.392 . S
C2126 C2127 1.385 1_554 S
C2126 C2128 1.478 . S
C2127 H2121 0.930 . S
C2127 C2123 1.400 . S
C2127 C2126 1.385 1_556 S
C2128 C2126 1.478 . S
C2128 C2130 1.381 . S
C2128 C2134 1.384 . S
C2129 C2125 1.495 . S
C2129 H2135 0.959 . S
C2129 H2136 0.961 . S
C2129 H2137 0.960 . S
C2130 C2128 1.381 . S
C2130 C2131 1.394 . S
C2130 H2138 0.930 . S
C2131 C2130 1.394 . S
C2131 C2132 1.383 . S
C2131 H2139 0.929 . S
C2132 C2131 1.383 . S
C2132 C2133 1.377 . S
C2133 H2117 0.930 1_554 S
C2133 C2132 1.377 . S
C2133 C2134 1.380 . S
C2134 H2118 0.929 1_554 S
C2134 C2128 1.384 . S
C2134 C2133 1.380 . S
H2135 C2129 0.959 . S
H2136 C2129 0.961 . S
H2137 C2129 0.960 . S
H2138 C2130 0.930 . S
H2139 C2131 0.929 . S
H2140 C2148 0.929 . S
H2141 C2150 0.930 . S
H2142 C2152 0.930 . S
H2143 C2155 0.929 . S
H2144 C2158 0.930 . S
H2145 C2160 0.960 . S
H2146 C2160 0.960 . S
H2147 C2160 0.960 . S
C2148 H2140 0.929 . S
C2148 C2149 1.377 1_455 S
C2148 C2150 1.384 . S
C2149 C2148 1.377 1_655 S
C2149 C2155 1.390 . S
C2150 H2141 0.930 . S
C2150 C2148 1.384 . S
C2150 C2151 1.372 1_455 S
C2151 C2150 1.372 1_655 S
C2151 C2152 1.400 . S
C2151 C2156 1.490 . S
C2152 H2142 0.930 . S
C2152 C2151 1.400 . S
C2152 C2155 1.386 . S
H2153 C2169 0.914 1_655 S
H2154 C2170 0.914 1_655 S
C2155 H2143 0.929 . S
C2155 C2149 1.390 . S
C2155 C2152 1.386 . S
C2156 C2151 1.490 . S
C2156 C2158 1.392 1_655 S
C2156 C2159 1.405 . S
H2157 C2163 0.930 . S
C2158 H2144 0.930 . S
C2158 C2156 1.392 1_455 S
C2158 C2161 1.403 . S
C2159 C2156 1.405 . S
C2159 C2160 1.524 . S
C2159 C2163 1.400 . S
C2160 H2145 0.960 . S
C2160 H2146 0.960 . S
C2160 H2147 0.960 . S
C2160 C2159 1.524 . S
C2161 C2158 1.403 . S
C2161 C2162 1.392 . S
C2161 C2165 1.495 . S
C2162 C2161 1.392 . S
C2162 C2163 1.385 1_455 S
C2162 C2164 1.478 . S
C2163 H2157 0.930 . S
C2163 C2159 1.400 . S
C2163 C2162 1.385 1_655 S
C2164 C2162 1.478 . S
C2164 C2166 1.381 . S
C2164 C2170 1.405 . S
C2165 C2161 1.495 . S
C2165 H2171 0.959 . S
C2165 H2172 0.961 . S
C2165 H2173 0.960 . S
C2166 C2164 1.381 . S
C2166 C2167 1.394 . S
C2166 H2174 0.930 . S
C2167 C2166 1.394 . S
C2167 C2168 1.383 . S
C2167 H2175 0.929 . S
C2168 C2167 1.383 . S
C2168 C2169 1.396 . S
C2169 H2153 0.914 1_455 S
C2169 C2168 1.396 . S
C2169 C2170 1.379 . S
C2170 H2154 0.914 1_455 S
C2170 C2164 1.405 . S
C2170 C2169 1.379 . S
H2171 C2165 0.959 . S
H2172 C2165 0.961 . S
H2173 C2165 0.960 . S
H2174 C2166 0.930 . S
H2175 C2167 0.929 . S
H2176 C2184 0.929 . S
H2177 C2186 0.930 . S
H2178 C2188 0.930 . S
H2179 C2191 0.929 . S
H2180 C2194 0.930 . S
H2181 C2196 0.960 . S
H2182 C2196 0.960 . S
H2183 C2196 0.960 . S
C2184 H2176 0.929 . S
C2184 C2185 1.377 . S
C2184 C2186 1.384 . S
C2185 C2184 1.377 . S
C2185 C2191 1.390 . S
C2186 H2177 0.930 . S
C2186 C2184 1.384 . S
C2186 C2187 1.372 . S
C2187 C2186 1.372 . S
C2187 C2188 1.400 . S
C2187 C2192 1.490 . S
C2188 H2178 0.930 . S
C2188 C2187 1.400 . S
C2188 C2191 1.386 . S
H2189 C2205 0.930 . S
H2190 C2206 0.931 . S
C2191 H2179 0.929 . S
C2191 C2185 1.390 . S
C2191 C2188 1.386 . S
C2192 C2187 1.490 . S
C2192 C2194 1.395 . S
C2192 C2195 1.403 . S
H2193 C2199 0.930 . S
C2194 H2180 0.930 . S
C2194 C2192 1.395 . S
C2194 C2197 1.403 . S
C2195 C2192 1.403 . S
C2195 C2196 1.524 . S
C2195 C2199 1.400 . S
C2196 H2181 0.960 . S
C2196 H2182 0.960 . S
C2196 H2183 0.960 . S
C2196 C2195 1.524 . S
C2197 C2194 1.403 . S
C2197 C2198 1.392 . S
C2197 C2201 1.495 . S
C2198 C2197 1.392 . S
C2198 C2199 1.385 . S
C2198 C2200 1.478 . S
C2199 H2193 0.930 . S
C2199 C2195 1.400 . S
C2199 C2198 1.385 . S
C2200 C2198 1.478 . S
C2200 C2202 1.381 . S
C2200 C2206 1.383 . S
C2201 C2197 1.495 . S
C2201 H2207 0.959 . S
C2201 H2208 0.961 . S
C2201 H2209 0.960 . S
C2202 C2200 1.381 . S
C2202 C2203 1.394 . S
C2202 H2210 0.930 . S
C2203 C2202 1.394 . S
C2203 C2204 1.383 . S
C2203 H2211 0.929 . S
C2204 C2203 1.383 . S
C2204 C2205 1.377 . S
C2205 H2189 0.930 . S
C2205 C2204 1.377 . S
C2205 C2206 1.379 . S
C2206 H2190 0.931 . S
C2206 C2200 1.383 . S
C2206 C2205 1.379 . S
H2207 C2201 0.959 . S
H2208 C2201 0.961 . S
H2209 C2201 0.960 . S
H2210 C2202 0.930 . S
H2211 C2203 0.929 . S
H2212 C2220 0.929 . S
H2213 C2222 0.930 . S
H2214 C2224 0.930 . S
H2215 C2227 0.929 . S
H2216 C2230 0.930 . S
H2217 C2232 0.960 . S
H2218 C2232 0.960 . S
H2219 C2232 0.960 . S
C2220 H2212 0.929 . S
C2220 C2221 1.377 . S
C2220 C2222 1.384 . S
C2221 C2220 1.377 . S
C2221 C2227 1.390 . S
C2222 H2213 0.930 . S
C2222 C2220 1.384 . S
C2222 C2223 1.372 . S
C2223 C2222 1.372 . S
C2223 C2224 1.400 . S
C2223 C2228 1.490 . S
C2224 H2214 0.930 . S
C2224 C2223 1.400 . S
C2224 C2227 1.386 . S
H2225 C2241 0.930 . S
H2226 C2242 0.931 . S
C2227 H2215 0.929 . S
C2227 C2221 1.390 . S
C2227 C2224 1.386 . S
C2228 C2223 1.490 . S
C2228 C2230 1.395 . S
C2228 C2231 1.403 . S
H2229 C2235 0.930 . S
C2230 H2216 0.930 . S
C2230 C2228 1.395 . S
C2230 C2233 1.403 . S
C2231 C2228 1.403 . S
C2231 C2232 1.524 . S
C2231 C2235 1.400 . S
C2232 H2217 0.960 . S
C2232 H2218 0.960 . S
C2232 H2219 0.960 . S
C2232 C2231 1.524 . S
C2233 C2230 1.403 . S
C2233 C2234 1.392 . S
C2233 C2237 1.495 . S
C2234 C2233 1.392 . S
C2234 C2235 1.385 . S
C2234 C2236 1.478 . S
C2235 H2229 0.930 . S
C2235 C2231 1.400 . S
C2235 C2234 1.385 . S
C2236 C2234 1.478 . S
C2236 C2238 1.381 . S
C2236 C2242 1.383 . S
C2237 C2233 1.495 . S
C2237 H2243 0.959 . S
C2237 H2244 0.961 . S
C2237 H2245 0.960 . S
C2238 C2236 1.381 . S
C2238 C2239 1.394 . S
C2238 H2246 0.930 . S
C2239 C2238 1.394 . S
C2239 C2240 1.383 . S
C2239 H2247 0.929 . S
C2240 C2239 1.383 . S
C2240 C2241 1.377 . S
C2241 H2225 0.930 . S
C2241 C2240 1.377 . S
C2241 C2242 1.379 . S
C2242 H2226 0.931 . S
C2242 C2236 1.383 . S
C2242 C2241 1.379 . S
H2243 C2237 0.959 . S
H2244 C2237 0.961 . S
H2245 C2237 0.960 . S
H2246 C2238 0.930 . S
H2247 C2239 0.929 . S
H2248 C2256 0.929 . S
H2249 C2258 0.930 . S
H2250 C2260 0.930 . S
H2251 C2263 0.929 . S
H2252 C2266 0.930 . S
H2253 C2268 0.960 . S
H2254 C2268 0.960 . S
H2255 C2268 0.960 . S
C2256 H2248 0.929 . S
C2256 C2257 1.377 . S
C2256 C2258 1.384 . S
C2257 C2256 1.377 . S
C2257 C2263 1.390 . S
C2258 H2249 0.930 . S
C2258 C2256 1.384 . S
C2258 C2259 1.372 . S
C2259 C2258 1.372 . S
C2259 C2260 1.400 . S
C2259 C2264 1.490 . S
C2260 H2250 0.930 . S
C2260 C2259 1.400 . S
C2260 C2263 1.386 . S
H2261 C2277 0.930 . S
H2262 C2278 0.931 . S
C2263 H2251 0.929 . S
C2263 C2257 1.390 . S
C2263 C2260 1.386 . S
C2264 C2259 1.490 . S
C2264 C2266 1.395 . S
C2264 C2267 1.403 . S
H2265 C2271 0.930 . S
C2266 H2252 0.930 . S
C2266 C2264 1.395 . S
C2266 C2269 1.403 . S
C2267 C2264 1.403 . S
C2267 C2268 1.524 . S
C2267 C2271 1.400 . S
C2268 H2253 0.960 . S
C2268 H2254 0.960 . S
C2268 H2255 0.960 . S
C2268 C2267 1.524 . S
C2269 C2266 1.403 . S
C2269 C2270 1.392 . S
C2269 C2273 1.495 . S
C2270 C2269 1.392 . S
C2270 C2271 1.385 . S
C2270 C2272 1.478 . S
C2271 H2265 0.930 . S
C2271 C2267 1.400 . S
C2271 C2270 1.385 . S
C2272 C2270 1.478 . S
C2272 C2274 1.381 . S
C2272 C2278 1.383 . S
C2273 C2269 1.495 . S
C2273 H2279 0.959 . S
C2273 H2280 0.961 . S
C2273 H2281 0.960 . S
C2274 C2272 1.381 . S
C2274 C2275 1.394 . S
C2274 H2282 0.930 . S
C2275 C2274 1.394 . S
C2275 C2276 1.383 . S
C2275 H2283 0.929 . S
C2276 C2275 1.383 . S
C2276 C2277 1.377 . S
C2277 H2261 0.930 . S
C2277 C2276 1.377 . S
C2277 C2278 1.379 . S
C2278 H2262 0.931 . S
C2278 C2272 1.383 . S
C2278 C2277 1.379 . S
H2279 C2273 0.959 . S
H2280 C2273 0.961 . S
H2281 C2273 0.960 . S
H2282 C2274 0.930 . S
H2283 C2275 0.929 . S
H2284 C2292 0.929 . S
H2285 C2294 0.930 . S
H2286 C2296 0.930 . S
H2287 C2299 0.929 . S
H2288 C2302 0.930 . S
H2289 C2304 0.960 . S
H2290 C2304 0.960 . S
H2291 C2304 0.960 . S
C2292 H2284 0.929 . S
C2292 C2293 1.377 . S
C2292 C2294 1.384 . S
C2293 C2292 1.377 . S
C2293 C2299 1.390 . S
C2294 H2285 0.930 . S
C2294 C2292 1.384 . S
C2294 C2295 1.372 . S
C2295 C2294 1.372 . S
C2295 C2296 1.400 . S
C2295 C2300 1.490 . S
C2296 H2286 0.930 . S
C2296 C2295 1.400 . S
C2296 C2299 1.386 . S
H2297 C2313 0.930 . S
H2298 C2314 0.931 . S
C2299 H2287 0.929 . S
C2299 C2293 1.390 . S
C2299 C2296 1.386 . S
C2300 C2295 1.490 . S
C2300 C2302 1.395 . S
C2300 C2303 1.403 . S
H2301 C2307 0.930 . S
C2302 H2288 0.930 . S
C2302 C2300 1.395 . S
C2302 C2305 1.403 . S
C2303 C2300 1.403 . S
C2303 C2304 1.524 . S
C2303 C2307 1.400 . S
C2304 H2289 0.960 . S
C2304 H2290 0.960 . S
C2304 H2291 0.960 . S
C2304 C2303 1.524 . S
C2305 C2302 1.403 . S
C2305 C2306 1.392 . S
C2305 C2309 1.495 . S
C2306 C2305 1.392 . S
C2306 C2307 1.385 . S
C2306 C2308 1.478 . S
C2307 H2301 0.930 . S
C2307 C2303 1.400 . S
C2307 C2306 1.385 . S
C2308 C2306 1.478 . S
C2308 C2310 1.381 . S
C2308 C2314 1.383 . S
C2309 C2305 1.495 . S
C2309 H2315 0.959 . S
C2309 H2316 0.961 . S
C2309 H2317 0.960 . S
C2310 C2308 1.381 . S
C2310 C2311 1.394 . S
C2310 H2318 0.930 . S
C2311 C2310 1.394 . S
C2311 C2312 1.383 . S
C2311 H2319 0.929 . S
C2312 C2311 1.383 . S
C2312 C2313 1.377 . S
C2313 H2297 0.930 . S
C2313 C2312 1.377 . S
C2313 C2314 1.379 . S
C2314 H2298 0.931 . S
C2314 C2308 1.383 . S
C2314 C2313 1.379 . S
H2315 C2309 0.959 . S
H2316 C2309 0.961 . S
H2317 C2309 0.960 . S
H2318 C2310 0.930 . S
H2319 C2311 0.929 . S
H2320 C2328 0.929 . S
H2321 C2330 0.930 . S
H2322 C2332 0.930 . S
H2323 C2335 0.929 . S
H2324 C2338 0.930 . S
H2325 C2340 0.960 . S
H2326 C2340 0.960 . S
H2327 C2340 0.960 . S
C2328 H2320 0.929 . S
C2328 C2329 1.377 . S
C2328 C2330 1.384 . S
C2329 C2328 1.377 . S
C2329 C2335 1.390 . S
C2330 H2321 0.930 . S
C2330 C2328 1.384 . S
C2330 C2331 1.372 . S
C2331 C2330 1.372 . S
C2331 C2332 1.400 . S
C2331 C2336 1.490 . S
C2332 H2322 0.930 . S
C2332 C2331 1.400 . S
C2332 C2335 1.386 . S
H2333 C2349 0.930 . S
H2334 C2350 0.931 . S
C2335 H2323 0.929 . S
C2335 C2329 1.390 . S
C2335 C2332 1.386 . S
C2336 C2331 1.490 . S
C2336 C2338 1.395 . S
C2336 C2339 1.403 . S
H2337 C2343 0.930 . S
C2338 H2324 0.930 . S
C2338 C2336 1.395 . S
C2338 C2341 1.403 . S
C2339 C2336 1.403 . S
C2339 C2340 1.524 . S
C2339 C2343 1.400 . S
C2340 H2325 0.960 . S
C2340 H2326 0.960 . S
C2340 H2327 0.960 . S
C2340 C2339 1.524 . S
C2341 C2338 1.403 . S
C2341 C2342 1.392 . S
C2341 C2345 1.495 . S
C2342 C2341 1.392 . S
C2342 C2343 1.385 . S
C2342 C2344 1.478 . S
C2343 H2337 0.930 . S
C2343 C2339 1.400 . S
C2343 C2342 1.385 . S
C2344 C2342 1.478 . S
C2344 C2346 1.381 . S
C2344 C2350 1.383 . S
C2345 C2341 1.495 . S
C2345 H2351 0.959 . S
C2345 H2352 0.961 . S
C2345 H2353 0.960 . S
C2346 C2344 1.381 . S
C2346 C2347 1.394 . S
C2346 H2354 0.930 . S
C2347 C2346 1.394 . S
C2347 C2348 1.383 . S
C2347 H2355 0.929 . S
C2348 C2347 1.383 . S
C2348 C2349 1.377 . S
C2349 H2333 0.930 . S
C2349 C2348 1.377 . S
C2349 C2350 1.379 . S
C2350 H2334 0.931 . S
C2350 C2344 1.383 . S
C2350 C2349 1.379 . S
H2351 C2345 0.959 . S
H2352 C2345 0.961 . S
H2353 C2345 0.960 . S
H2354 C2346 0.930 . S
H2355 C2347 0.929 . S
H2356 C2364 0.929 . S
H2357 C2366 0.930 . S
H2358 C2368 0.930 . S
H2359 C2371 0.929 . S
H2360 C2374 0.930 . S
H2361 C2376 0.960 . S
H2362 C2376 0.960 . S
H2363 C2376 0.960 . S
C2364 H2356 0.929 . S
C2364 C2365 1.377 . S
C2364 C2366 1.384 . S
C2365 C2364 1.377 . S
C2365 C2371 1.390 . S
C2366 H2357 0.930 . S
C2366 C2364 1.384 . S
C2366 C2367 1.372 . S
C2367 C2366 1.372 . S
C2367 C2368 1.400 . S
C2367 C2372 1.490 . S
C2368 H2358 0.930 . S
C2368 C2367 1.400 . S
C2368 C2371 1.386 . S
H2369 C2385 0.930 . S
H2370 C2386 0.931 . S
C2371 H2359 0.929 . S
C2371 C2365 1.390 . S
C2371 C2368 1.386 . S
C2372 C2367 1.490 . S
C2372 C2374 1.395 . S
C2372 C2375 1.403 . S
H2373 C2379 0.930 . S
C2374 H2360 0.930 . S
C2374 C2372 1.395 . S
C2374 C2377 1.403 . S
C2375 C2372 1.403 . S
C2375 C2376 1.524 . S
C2375 C2379 1.400 . S
C2376 H2361 0.960 . S
C2376 H2362 0.960 . S
C2376 H2363 0.960 . S
C2376 C2375 1.524 . S
C2377 C2374 1.403 . S
C2377 C2378 1.392 . S
C2377 C2381 1.495 . S
C2378 C2377 1.392 . S
C2378 C2379 1.385 . S
C2378 C2380 1.478 . S
C2379 H2373 0.930 . S
C2379 C2375 1.400 . S
C2379 C2378 1.385 . S
C2380 C2378 1.478 . S
C2380 C2382 1.381 . S
C2380 C2386 1.383 . S
C2381 C2377 1.495 . S
C2381 H2387 0.959 . S
C2381 H2388 0.961 . S
C2381 H2389 0.960 . S
C2382 C2380 1.381 . S
C2382 C2383 1.394 . S
C2382 H2390 0.930 . S
C2383 C2382 1.394 . S
C2383 C2384 1.383 . S
C2383 H2391 0.929 . S
C2384 C2383 1.383 . S
C2384 C2385 1.377 . S
C2385 H2369 0.930 . S
C2385 C2384 1.377 . S
C2385 C2386 1.379 . S
C2386 H2370 0.931 . S
C2386 C2380 1.383 . S
C2386 C2385 1.379 . S
H2387 C2381 0.959 . S
H2388 C2381 0.961 . S
H2389 C2381 0.960 . S
H2390 C2382 0.930 . S
H2391 C2383 0.929 . S
H2392 C2400 0.929 . S
H2393 C2402 0.930 . S
H2394 C2404 0.930 . S
H2395 C2407 0.929 . S
H2396 C2410 0.930 . S
H2397 C2412 0.960 . S
H2398 C2412 0.960 . S
H2399 C2412 0.960 . S
C2400 H2392 0.929 . S
C2400 C2401 1.377 . S
C2400 C2402 1.384 . S
C2401 C2400 1.377 . S
C2401 C2407 1.390 . S
C2402 H2393 0.930 . S
C2402 C2400 1.384 . S
C2402 C2403 1.372 . S
C2403 C2402 1.372 . S
C2403 C2404 1.400 . S
C2403 C2408 1.490 . S
C2404 H2394 0.930 . S
C2404 C2403 1.400 . S
C2404 C2407 1.386 . S
H2405 C2421 0.930 . S
H2406 C2422 0.931 . S
C2407 H2395 0.929 . S
C2407 C2401 1.390 . S
C2407 C2404 1.386 . S
C2408 C2403 1.490 . S
C2408 C2410 1.395 . S
C2408 C2411 1.403 . S
H2409 C2415 0.930 . S
C2410 H2396 0.930 . S
C2410 C2408 1.395 . S
C2410 C2413 1.403 . S
C2411 C2408 1.403 . S
C2411 C2412 1.524 . S
C2411 C2415 1.400 . S
C2412 H2397 0.960 . S
C2412 H2398 0.960 . S
C2412 H2399 0.960 . S
C2412 C2411 1.524 . S
C2413 C2410 1.403 . S
C2413 C2414 1.392 . S
C2413 C2417 1.495 . S
C2414 C2413 1.392 . S
C2414 C2415 1.385 . S
C2414 C2416 1.478 . S
C2415 H2409 0.930 . S
C2415 C2411 1.400 . S
C2415 C2414 1.385 . S
C2416 C2414 1.478 . S
C2416 C2418 1.381 . S
C2416 C2422 1.383 . S
C2417 C2413 1.495 . S
C2417 H2423 0.959 . S
C2417 H2424 0.961 . S
C2417 H2425 0.960 . S
C2418 C2416 1.381 . S
C2418 C2419 1.394 . S
C2418 H2426 0.930 . S
C2419 C2418 1.394 . S
C2419 C2420 1.383 . S
C2419 H2427 0.929 . S
C2420 C2419 1.383 . S
C2420 C2421 1.377 . S
C2421 H2405 0.930 . S
C2421 C2420 1.377 . S
C2421 C2422 1.379 . S
C2422 H2406 0.931 . S
C2422 C2416 1.383 . S
C2422 C2421 1.379 . S
H2423 C2417 0.959 . S
H2424 C2417 0.961 . S
H2425 C2417 0.960 . S
H2426 C2418 0.930 . S
H2427 C2419 0.929 . S
H2428 C2436 0.929 . S
H2429 C2438 0.930 . S
H2430 C2440 0.930 . S
H2431 C2443 0.929 . S
H2432 C2446 0.930 . S
H2433 C2448 0.960 . S
H2434 C2448 0.960 . S
H2435 C2448 0.960 . S
C2436 H2428 0.929 . S
C2436 C2437 1.377 . S
C2436 C2438 1.384 . S
C2437 C2436 1.377 . S
C2437 C2443 1.390 . S
C2438 H2429 0.930 . S
C2438 C2436 1.384 . S
C2438 C2439 1.372 . S
C2439 C2438 1.372 . S
C2439 C2440 1.400 . S
C2439 C2444 1.490 . S
C2440 H2430 0.930 . S
C2440 C2439 1.400 . S
C2440 C2443 1.386 . S
H2441 C2457 0.930 . S
H2442 C2458 0.931 . S
C2443 H2431 0.929 . S
C2443 C2437 1.390 . S
C2443 C2440 1.386 . S
C2444 C2439 1.490 . S
C2444 C2446 1.395 . S
C2444 C2447 1.403 . S
H2445 C2451 0.930 . S
C2446 H2432 0.930 . S
C2446 C2444 1.395 . S
C2446 C2449 1.403 . S
C2447 C2444 1.403 . S
C2447 C2448 1.524 . S
C2447 C2451 1.400 . S
C2448 H2433 0.960 . S
C2448 H2434 0.960 . S
C2448 H2435 0.960 . S
C2448 C2447 1.524 . S
C2449 C2446 1.403 . S
C2449 C2450 1.392 . S
C2449 C2453 1.495 . S
C2450 C2449 1.392 . S
C2450 C2451 1.385 . S
C2450 C2452 1.478 . S
C2451 H2445 0.930 . S
C2451 C2447 1.400 . S
C2451 C2450 1.385 . S
C2452 C2450 1.478 . S
C2452 C2454 1.381 . S
C2452 C2458 1.383 . S
C2453 C2449 1.495 . S
C2453 H2459 0.959 . S
C2453 H2460 0.961 . S
C2453 H2461 0.960 . S
C2454 C2452 1.381 . S
C2454 C2455 1.394 . S
C2454 H2462 0.930 . S
C2455 C2454 1.394 . S
C2455 C2456 1.383 . S
C2455 H2463 0.929 . S
C2456 C2455 1.383 . S
C2456 C2457 1.377 . S
C2457 H2441 0.930 . S
C2457 C2456 1.377 . S
C2457 C2458 1.379 . S
C2458 H2442 0.931 . S
C2458 C2452 1.383 . S
C2458 C2457 1.379 . S
H2459 C2453 0.959 . S
H2460 C2453 0.961 . S
H2461 C2453 0.960 . S
H2462 C2454 0.930 . S
H2463 C2455 0.929 . S
H2464 C2472 0.929 . S
H2465 C2474 0.930 . S
H2466 C2476 0.930 . S
H2467 C2479 0.929 . S
H2468 C2482 0.930 . S
H2469 C2484 0.960 . S
H2470 C2484 0.960 . S
H2471 C2484 0.960 . S
C2472 H2464 0.929 . S
C2472 C2473 1.377 . S
C2472 C2474 1.384 . S
C2473 C2472 1.377 . S
C2473 C2479 1.390 . S
C2474 H2465 0.930 . S
C2474 C2472 1.384 . S
C2474 C2475 1.372 . S
C2475 C2474 1.372 . S
C2475 C2476 1.400 . S
C2475 C2480 1.490 . S
C2476 H2466 0.930 . S
C2476 C2475 1.400 . S
C2476 C2479 1.386 . S
H2477 C2493 0.930 . S
H2478 C2494 0.931 . S
C2479 H2467 0.929 . S
C2479 C2473 1.390 . S
C2479 C2476 1.386 . S
C2480 C2475 1.490 . S
C2480 C2482 1.395 . S
C2480 C2483 1.403 . S
H2481 C2487 0.930 . S
C2482 H2468 0.930 . S
C2482 C2480 1.395 . S
C2482 C2485 1.403 . S
C2483 C2480 1.403 . S
C2483 C2484 1.524 . S
C2483 C2487 1.400 . S
C2484 H2469 0.960 . S
C2484 H2470 0.960 . S
C2484 H2471 0.960 . S
C2484 C2483 1.524 . S
C2485 C2482 1.403 . S
C2485 C2486 1.392 . S
C2485 C2489 1.495 . S
C2486 C2485 1.392 . S
C2486 C2487 1.385 . S
C2486 C2488 1.478 . S
C2487 H2481 0.930 . S
C2487 C2483 1.400 . S
C2487 C2486 1.385 . S
C2488 C2486 1.478 . S
C2488 C2490 1.381 . S
C2488 C2494 1.383 . S
C2489 C2485 1.495 . S
C2489 H2495 0.959 . S
C2489 H2496 0.961 . S
C2489 H2497 0.960 . S
C2490 C2488 1.381 . S
C2490 C2491 1.394 . S
C2490 H2498 0.930 . S
C2491 C2490 1.394 . S
C2491 C2492 1.383 . S
C2491 H2499 0.929 . S
C2492 C2491 1.383 . S
C2492 C2493 1.377 . S
C2493 H2477 0.930 . S
C2493 C2492 1.377 . S
C2493 C2494 1.379 . S
C2494 H2478 0.931 . S
C2494 C2488 1.383 . S
C2494 C2493 1.379 . S
H2495 C2489 0.959 . S
H2496 C2489 0.961 . S
H2497 C2489 0.960 . S
H2498 C2490 0.930 . S
H2499 C2491 0.929 . S
H2500 C2508 0.929 . S
H2501 C2510 0.930 . S
H2502 C2512 0.930 . S
H2503 C2515 0.929 . S
H2504 C2518 0.930 . S
H2505 C2520 0.960 . S
H2506 C2520 0.960 . S
H2507 C2520 0.960 . S
C2508 H2500 0.929 . S
C2508 C2509 1.377 . S
C2508 C2510 1.384 . S
C2509 C2508 1.377 . S
C2509 C2515 1.390 . S
C2510 H2501 0.930 . S
C2510 C2508 1.384 . S
C2510 C2511 1.372 . S
C2511 C2510 1.372 . S
C2511 C2512 1.400 . S
C2511 C2516 1.490 . S
C2512 H2502 0.930 . S
C2512 C2511 1.400 . S
C2512 C2515 1.386 . S
H2513 C2529 0.930 . S
H2514 C2530 0.931 . S
C2515 H2503 0.929 . S
C2515 C2509 1.390 . S
C2515 C2512 1.386 . S
C2516 C2511 1.490 . S
C2516 C2518 1.395 . S
C2516 C2519 1.403 . S
H2517 C2523 0.930 . S
C2518 H2504 0.930 . S
C2518 C2516 1.395 . S
C2518 C2521 1.403 . S
C2519 C2516 1.403 . S
C2519 C2520 1.524 . S
C2519 C2523 1.400 . S
C2520 H2505 0.960 . S
C2520 H2506 0.960 . S
C2520 H2507 0.960 . S
C2520 C2519 1.524 . S
C2521 C2518 1.403 . S
C2521 C2522 1.392 . S
C2521 C2525 1.495 . S
C2522 C2521 1.392 . S
C2522 C2523 1.385 . S
C2522 C2524 1.478 . S
C2523 H2517 0.930 . S
C2523 C2519 1.400 . S
C2523 C2522 1.385 . S
C2524 C2522 1.478 . S
C2524 C2526 1.381 . S
C2524 C2530 1.383 . S
C2525 C2521 1.495 . S
C2525 H2531 0.959 . S
C2525 H2532 0.961 . S
C2525 H2533 0.960 . S
C2526 C2524 1.381 . S
C2526 C2527 1.394 . S
C2526 H2534 0.930 . S
C2527 C2526 1.394 . S
C2527 C2528 1.383 . S
C2527 H2535 0.929 . S
C2528 C2527 1.383 . S
C2528 C2529 1.377 . S
C2529 H2513 0.930 . S
C2529 C2528 1.377 . S
C2529 C2530 1.379 . S
C2530 H2514 0.931 . S
C2530 C2524 1.383 . S
C2530 C2529 1.379 . S
H2531 C2525 0.959 . S
H2532 C2525 0.961 . S
H2533 C2525 0.960 . S
H2534 C2526 0.930 . S
H2535 C2527 0.929 . S
H2536 C2544 0.929 . S
H2537 C2546 0.930 . S
H2538 C2548 0.930 . S
H2539 C2551 0.929 . S
H2540 C2554 0.930 . S
H2541 C2556 0.960 . S
H2542 C2556 0.960 . S
H2543 C2556 0.960 . S
C2544 H2536 0.929 . S
C2544 C2545 1.377 . S
C2544 C2546 1.384 . S
C2545 C2544 1.377 . S
C2545 C2551 1.390 . S
C2546 H2537 0.930 . S
C2546 C2544 1.384 . S
C2546 C2547 1.372 . S
C2547 C2546 1.372 . S
C2547 C2548 1.400 . S
C2547 C2552 1.490 . S
C2548 H2538 0.930 . S
C2548 C2547 1.400 . S
C2548 C2551 1.386 . S
H2549 C2565 0.930 . S
H2550 C2566 0.931 . S
C2551 H2539 0.929 . S
C2551 C2545 1.390 . S
C2551 C2548 1.386 . S
C2552 C2547 1.490 . S
C2552 C2554 1.395 . S
C2552 C2555 1.403 . S
H2553 C2559 0.930 . S
C2554 H2540 0.930 . S
C2554 C2552 1.395 . S
C2554 C2557 1.403 . S
C2555 C2552 1.403 . S
C2555 C2556 1.524 . S
C2555 C2559 1.400 . S
C2556 H2541 0.960 . S
C2556 H2542 0.960 . S
C2556 H2543 0.960 . S
C2556 C2555 1.524 . S
C2557 C2554 1.403 . S
C2557 C2558 1.392 . S
C2557 C2561 1.495 . S
C2558 C2557 1.392 . S
C2558 C2559 1.385 . S
C2558 C2560 1.478 . S
C2559 H2553 0.930 . S
C2559 C2555 1.400 . S
C2559 C2558 1.385 . S
C2560 C2558 1.478 . S
C2560 C2562 1.381 . S
C2560 C2566 1.383 . S
C2561 C2557 1.495 . S
C2561 H2567 0.959 . S
C2561 H2568 0.961 . S
C2561 H2569 0.960 . S
C2562 C2560 1.381 . S
C2562 C2563 1.394 . S
C2562 H2570 0.930 . S
C2563 C2562 1.394 . S
C2563 C2564 1.383 . S
C2563 H2571 0.929 . S
C2564 C2563 1.383 . S
C2564 C2565 1.377 . S
C2565 H2549 0.930 . S
C2565 C2564 1.377 . S
C2565 C2566 1.379 . S
C2566 H2550 0.931 . S
C2566 C2560 1.383 . S
C2566 C2565 1.379 . S
H2567 C2561 0.959 . S
H2568 C2561 0.961 . S
H2569 C2561 0.960 . S
H2570 C2562 0.930 . S
H2571 C2563 0.929 . S
H2572 C2580 0.929 . S
H2573 C2582 0.930 . S
H2574 C2584 0.930 . S
H2575 C2587 0.929 . S
H2576 C2590 0.930 . S
H2577 C2592 0.960 . S
H2578 C2592 0.960 . S
H2579 C2592 0.960 . S
C2580 H2572 0.929 . S
C2580 C2581 1.377 . S
C2580 C2582 1.384 . S
C2581 C2580 1.377 . S
C2581 C2587 1.390 . S
C2582 H2573 0.930 . S
C2582 C2580 1.384 . S
C2582 C2583 1.372 . S
C2583 C2582 1.372 . S
C2583 C2584 1.400 . S
C2583 C2588 1.490 . S
C2584 H2574 0.930 . S
C2584 C2583 1.400 . S
C2584 C2587 1.386 . S
H2585 C2601 0.930 . S
H2586 C2602 0.931 . S
C2587 H2575 0.929 . S
C2587 C2581 1.390 . S
C2587 C2584 1.386 . S
C2588 C2583 1.490 . S
C2588 C2590 1.395 . S
C2588 C2591 1.403 . S
H2589 C2595 0.930 . S
C2590 H2576 0.930 . S
C2590 C2588 1.395 . S
C2590 C2593 1.403 . S
C2591 C2588 1.403 . S
C2591 C2592 1.524 . S
C2591 C2595 1.400 . S
C2592 H2577 0.960 . S
C2592 H2578 0.960 . S
C2592 H2579 0.960 . S
C2592 C2591 1.524 . S
C2593 C2590 1.403 . S
C2593 C2594 1.392 . S
C2593 C2597 1.495 . S
C2594 C2593 1.392 . S
C2594 C2595 1.385 . S
C2594 C2596 1.478 . S
C2595 H2589 0.930 . S
C2595 C2591 1.400 . S
C2595 C2594 1.385 . S
C2596 C2594 1.478 . S
C2596 C2598 1.381 . S
C2596 C2602 1.383 . S
C2597 C2593 1.495 . S
C2597 H2603 0.959 . S
C2597 H2604 0.961 . S
C2597 H2605 0.960 . S
C2598 C2596 1.381 . S
C2598 C2599 1.394 . S
C2598 H2606 0.930 . S
C2599 C2598 1.394 . S
C2599 C2600 1.383 . S
C2599 H2607 0.929 . S
C2600 C2599 1.383 . S
C2600 C2601 1.377 . S
C2601 H2585 0.930 . S
C2601 C2600 1.377 . S
C2601 C2602 1.379 . S
C2602 H2586 0.931 . S
C2602 C2596 1.383 . S
C2602 C2601 1.379 . S
H2603 C2597 0.959 . S
H2604 C2597 0.961 . S
H2605 C2597 0.960 . S
H2606 C2598 0.930 . S
H2607 C2599 0.929 . S
H2608 C2616 0.929 . S
H2609 C2618 0.930 . S
H2610 C2620 0.930 . S
H2611 C2623 0.929 . S
H2612 C2626 0.930 . S
H2613 C2628 0.960 . S
H2614 C2628 0.960 . S
H2615 C2628 0.960 . S
C2616 H2608 0.929 . S
C2616 C2617 1.377 . S
C2616 C2618 1.384 . S
C2617 C2616 1.377 . S
C2617 C2623 1.390 . S
C2618 H2609 0.930 . S
C2618 C2616 1.384 . S
C2618 C2619 1.372 . S
C2619 C2618 1.372 . S
C2619 C2620 1.400 . S
C2619 C2624 1.490 . S
C2620 H2610 0.930 . S
C2620 C2619 1.400 . S
C2620 C2623 1.386 . S
H2621 C2637 0.930 . S
H2622 C2638 0.931 . S
C2623 H2611 0.929 . S
C2623 C2617 1.390 . S
C2623 C2620 1.386 . S
C2624 C2619 1.490 . S
C2624 C2626 1.395 . S
C2624 C2627 1.403 . S
H2625 C2631 0.930 . S
C2626 H2612 0.930 . S
C2626 C2624 1.395 . S
C2626 C2629 1.403 . S
C2627 C2624 1.403 . S
C2627 C2628 1.524 . S
C2627 C2631 1.400 . S
C2628 H2613 0.960 . S
C2628 H2614 0.960 . S
C2628 H2615 0.960 . S
C2628 C2627 1.524 . S
C2629 C2626 1.403 . S
C2629 C2630 1.392 . S
C2629 C2633 1.495 . S
C2630 C2629 1.392 . S
C2630 C2631 1.385 . S
C2630 C2632 1.478 . S
C2631 H2625 0.930 . S
C2631 C2627 1.400 . S
C2631 C2630 1.385 . S
C2632 C2630 1.478 . S
C2632 C2634 1.381 . S
C2632 C2638 1.383 . S
C2633 C2629 1.495 . S
C2633 H2639 0.959 . S
C2633 H2640 0.961 . S
C2633 H2641 0.960 . S
C2634 C2632 1.381 . S
C2634 C2635 1.394 . S
C2634 H2642 0.930 . S
C2635 C2634 1.394 . S
C2635 C2636 1.383 . S
C2635 H2643 0.929 . S
C2636 C2635 1.383 . S
C2636 C2637 1.377 . S
C2637 H2621 0.930 . S
C2637 C2636 1.377 . S
C2637 C2638 1.379 . S
C2638 H2622 0.931 . S
C2638 C2632 1.383 . S
C2638 C2637 1.379 . S
H2639 C2633 0.959 . S
H2640 C2633 0.961 . S
H2641 C2633 0.960 . S
H2642 C2634 0.930 . S
H2643 C2635 0.929 . S
H2644 C2652 0.929 . S
H2645 C2654 0.930 . S
H2646 C2656 0.930 . S
H2647 C2659 0.929 . S
H2648 C2662 0.930 . S
H2649 C2664 0.960 . S
H2650 C2664 0.960 . S
H2651 C2664 0.960 . S
C2652 H2644 0.929 . S
C2652 C2653 1.377 . S
C2652 C2654 1.384 . S
C2653 C2652 1.377 . S
C2653 C2659 1.390 . S
C2654 H2645 0.930 . S
C2654 C2652 1.384 . S
C2654 C2655 1.372 . S
C2655 C2654 1.372 . S
C2655 C2656 1.400 . S
C2655 C2660 1.490 . S
C2656 H2646 0.930 . S
C2656 C2655 1.400 . S
C2656 C2659 1.386 . S
H2657 C2673 0.930 . S
H2658 C2674 0.931 . S
C2659 H2647 0.929 . S
C2659 C2653 1.390 . S
C2659 C2656 1.386 . S
C2660 C2655 1.490 . S
C2660 C2662 1.395 . S
C2660 C2663 1.403 . S
H2661 C2667 0.930 . S
C2662 H2648 0.930 . S
C2662 C2660 1.395 . S
C2662 C2665 1.403 . S
C2663 C2660 1.403 . S
C2663 C2664 1.524 . S
C2663 C2667 1.400 . S
C2664 H2649 0.960 . S
C2664 H2650 0.960 . S
C2664 H2651 0.960 . S
C2664 C2663 1.524 . S
C2665 C2662 1.403 . S
C2665 C2666 1.392 . S
C2665 C2669 1.495 . S
C2666 C2665 1.392 . S
C2666 C2667 1.385 . S
C2666 C2668 1.478 . S
C2667 H2661 0.930 . S
C2667 C2663 1.400 . S
C2667 C2666 1.385 . S
C2668 C2666 1.478 . S
C2668 C2670 1.381 . S
C2668 C2674 1.383 . S
C2669 C2665 1.495 . S
C2669 H2675 0.959 . S
C2669 H2676 0.961 . S
C2669 H2677 0.960 . S
C2670 C2668 1.381 . S
C2670 C2671 1.394 . S
C2670 H2678 0.930 . S
C2671 C2670 1.394 . S
C2671 C2672 1.383 . S
C2671 H2679 0.929 . S
C2672 C2671 1.383 . S
C2672 C2673 1.377 . S
C2673 H2657 0.930 . S
C2673 C2672 1.377 . S
C2673 C2674 1.379 . S
C2674 H2658 0.931 . S
C2674 C2668 1.383 . S
C2674 C2673 1.379 . S
H2675 C2669 0.959 . S
H2676 C2669 0.961 . S
H2677 C2669 0.960 . S
H2678 C2670 0.930 . S
H2679 C2671 0.929 . S
H2680 C2688 0.929 . S
H2681 C2690 0.930 . S
H2682 C2692 0.930 . S
H2683 C2695 0.929 . S
H2684 C2698 0.930 . S
H2685 C2700 0.960 . S
H2686 C2700 0.960 . S
H2687 C2700 0.960 . S
C2688 H2680 0.929 . S
C2688 C2689 1.377 . S
C2688 C2690 1.384 . S
C2689 C2688 1.377 . S
C2689 C2695 1.390 . S
C2690 H2681 0.930 . S
C2690 C2688 1.384 . S
C2690 C2691 1.372 . S
C2691 C2690 1.372 . S
C2691 C2692 1.400 . S
C2691 C2696 1.490 . S
C2692 H2682 0.930 . S
C2692 C2691 1.400 . S
C2692 C2695 1.386 . S
H2693 C2709 0.930 . S
H2694 C2710 0.931 . S
C2695 H2683 0.929 . S
C2695 C2689 1.390 . S
C2695 C2692 1.386 . S
C2696 C2691 1.490 . S
C2696 C2698 1.395 . S
C2696 C2699 1.403 . S
H2697 C2703 0.930 . S
C2698 H2684 0.930 . S
C2698 C2696 1.395 . S
C2698 C2701 1.403 . S
C2699 C2696 1.403 . S
C2699 C2700 1.524 . S
C2699 C2703 1.400 . S
C2700 H2685 0.960 . S
C2700 H2686 0.960 . S
C2700 H2687 0.960 . S
C2700 C2699 1.524 . S
C2701 C2698 1.403 . S
C2701 C2702 1.392 . S
C2701 C2705 1.495 . S
C2702 C2701 1.392 . S
C2702 C2703 1.385 . S
C2702 C2704 1.478 . S
C2703 H2697 0.930 . S
C2703 C2699 1.400 . S
C2703 C2702 1.385 . S
C2704 C2702 1.478 . S
C2704 C2706 1.381 . S
C2704 C2710 1.383 . S
C2705 C2701 1.495 . S
C2705 H2711 0.959 . S
C2705 H2712 0.961 . S
C2705 H2713 0.960 . S
C2706 C2704 1.381 . S
C2706 C2707 1.394 . S
C2706 H2714 0.930 . S
C2707 C2706 1.394 . S
C2707 C2708 1.383 . S
C2707 H2715 0.929 . S
C2708 C2707 1.383 . S
C2708 C2709 1.377 . S
C2709 H2693 0.930 . S
C2709 C2708 1.377 . S
C2709 C2710 1.379 . S
C2710 H2694 0.931 . S
C2710 C2704 1.383 . S
C2710 C2709 1.379 . S
H2711 C2705 0.959 . S
H2712 C2705 0.961 . S
H2713 C2705 0.960 . S
H2714 C2706 0.930 . S
H2715 C2707 0.929 . S
H2716 C2724 0.929 . S
H2717 C2726 0.930 . S
H2718 C2728 0.930 . S
H2719 C2731 0.929 . S
H2720 C2734 0.930 . S
H2721 C2736 0.960 . S
H2722 C2736 0.960 . S
H2723 C2736 0.960 . S
C2724 H2716 0.929 . S
C2724 C2725 1.377 . S
C2724 C2726 1.384 . S
C2725 C2724 1.377 . S
C2725 C2731 1.390 . S
C2726 H2717 0.930 . S
C2726 C2724 1.384 . S
C2726 C2727 1.372 . S
C2727 C2726 1.372 . S
C2727 C2728 1.400 . S
C2727 C2732 1.490 . S
C2728 H2718 0.930 . S
C2728 C2727 1.400 . S
C2728 C2731 1.386 . S
H2729 C2745 0.930 . S
H2730 C2746 0.931 . S
C2731 H2719 0.929 . S
C2731 C2725 1.390 . S
C2731 C2728 1.386 . S
C2732 C2727 1.490 . S
C2732 C2734 1.395 . S
C2732 C2735 1.403 . S
H2733 C2739 0.930 . S
C2734 H2720 0.930 . S
C2734 C2732 1.395 . S
C2734 C2737 1.403 . S
C2735 C2732 1.403 . S
C2735 C2736 1.524 . S
C2735 C2739 1.400 . S
C2736 H2721 0.960 . S
C2736 H2722 0.960 . S
C2736 H2723 0.960 . S
C2736 C2735 1.524 . S
C2737 C2734 1.403 . S
C2737 C2738 1.392 . S
C2737 C2741 1.495 . S
C2738 C2737 1.392 . S
C2738 C2739 1.385 . S
C2738 C2740 1.478 . S
C2739 H2733 0.930 . S
C2739 C2735 1.400 . S
C2739 C2738 1.385 . S
C2740 C2738 1.478 . S
C2740 C2742 1.381 . S
C2740 C2746 1.383 . S
C2741 C2737 1.495 . S
C2741 H2747 0.959 . S
C2741 H2748 0.961 . S
C2741 H2749 0.960 . S
C2742 C2740 1.381 . S
C2742 C2743 1.394 . S
C2742 H2750 0.930 . S
C2743 C2742 1.394 . S
C2743 C2744 1.383 . S
C2743 H2751 0.929 . S
C2744 C2743 1.383 . S
C2744 C2745 1.377 . S
C2745 H2729 0.930 . S
C2745 C2744 1.377 . S
C2745 C2746 1.379 . S
C2746 H2730 0.931 . S
C2746 C2740 1.383 . S
C2746 C2745 1.379 . S
H2747 C2741 0.959 . S
H2748 C2741 0.961 . S
H2749 C2741 0.960 . S
H2750 C2742 0.930 . S
H2751 C2743 0.929 . S
C457 C181 1.393 . S
C476 C0 1.385 . S
C493 C406 1.392 . S
C512 C27 1.394 . S
C529 C196 1.394 . S
C548 C29 1.400 . S
C565 C435 1.393 . S
C584 C55 1.386 . S
C601 C113 1.394 . S
C620 C68 1.386 . S
C637 C70 1.397 . S
C656 C362 1.400 . S
C673 C84 1.394 . S
C692 C140 1.387 . S
C709 C391 1.393 . S
C728 C99 1.388 . S
C745 C69 1.392 . S
C764 C112 1.392 . S
C781 C294 1.394 . S
C800 C126 1.384 . S
C817 C85 1.393 . S
C836 C141 1.396 . S
C853 C322 1.395 . S
C872 C166 1.400 . S
C889 C180 1.394 . S
C908 C1 1.397 . S
C925 C183 1.396 . S
C944 C251 1.386 . S
C961 C28 1.394 . S
C980 C197 1.385 . S
C997 C211 1.397 . S
C1016 C266 1.399 . S
C1033 C392 1.393 . S
C1052 C224 1.399 . S
C1069 C182 1.396 . S
C1088 C250 1.395 . S
C1105 C433 1.396 . S
C1124 C252 1.393 . S
C1141 C267 1.394 . S
C1160 C210 1.381 . S
C1177 C280 1.396 . S
C1196 C337 1.384 . S
C1213 C295 1.395 . S
C1232 C127 1.398 . S
C1249 C377 1.395 . S
C1268 C320 1.387 . S
C1285 C167 1.395 . S
C1304 C323 1.400 . S
C1321 C281 1.395 . S
C1340 C336 1.392 . S
C1357 C363 1.394 . S
C1376 C71 1.382 . S
C1393 C376 1.394 . S
C1412 C321 1.384 . S
C1429 C390 1.394 . S
C1448 C98 1.389 . S
C1465 C225 1.393 . S
C1484 C393 1.396 . S
C1501 C26 1.394 . S
C1520 C407 1.397 . S
C1537 C253 1.394 . S
C1556 C432 1.385 . S
C1573 C434 1.396 . S
C1592 C54 1.390 . S
C1609 C13 1.999 . S
C1628 C125 2.015 . S
C1645 C14 1.994 . S
C1664 C350 2.003 . S
C1681 C152 1.989 . S
C1700 C40 2.000 . S
C1717 C42 1.992 . S
C1736 C379 1.998 . S
C1753 C57 2.001 . S
C1772 C169 1.984 . S
C1789 C418 1.987 . S
C1808 C83 1.983 . S
C1825 C208 1.987 . S
C1844 C97 1.977 . S
C1861 C110 1.992 . S
C1880 C447 1.973 . S
C1897 C139 1.997 . S
C1916 C239 1.989 . S
C1933 C155 1.997 . S
C1952 C278 2.005 . S
C1969 C194 1.988 . S
C1988 C306 1.973 . S
C2005 C334 1.993 . S
C2024 C222 1.970 . S
C2041 C237 1.987 . S
C2060 C349 1.979 . S
C2077 C265 2.001 . S
C2096 C365 2.020 . S
C2113 C293 1.994 . S
C2132 C404 1.998 . S
C2149 C421 2.006 . S
C2168 C309 2.017 . S
C2185 C12 1.948 . S
C2204 C111 1.936 . S
C2221 C15 1.950 . S
C2240 C56 1.936 . S
C2257 C82 1.946 . S
C2276 C41 1.954 . S
C2293 C96 1.949 . S
C2312 C43 1.933 . S
C2329 C223 1.947 . S
C2348 C124 1.939 . S
C2365 C168 1.949 . S
C2384 C138 1.951 . S
C2401 C195 1.946 . S
C2420 C153 1.947 . S
C2437 C209 1.951 . S
C2456 C154 1.940 . S
C2473 C236 1.951 . S
C2492 C335 1.939 . S
C2509 C292 1.947 . S
C2528 C238 1.957 . S
C2545 C307 1.949 . S
C2564 C264 1.933 . S
C2581 C308 1.952 . S
C2600 C279 1.934 . S
C2617 C446 1.946 . S
C2636 C348 1.956 . S
C2653 C351 1.949 . S
C2672 C405 1.957 . S
C2689 C364 1.946 . S
C2708 C419 1.957 . S
C2725 C420 1.948 . S
C2744 C378 1.954 . S
