# Generated by pormake.
# Topology smd, (6)-cn, num edge types: 1
# Building blocks:
#     Node 0, Type 0, BuildingBlock: CUKXOW_clean_sbu_0, # of connection points: 6
#     Node 1, Type 0, BuildingBlock: CUKXOW_clean_sbu_0, # of connection points: 6
#     Node 2, Type 0, BuildingBlock: CUKXOW_clean_sbu_0, # of connection points: 6
#     Node 3, Type 0, BuildingBlock: CUKXOW_clean_sbu_0, # of connection points: 6
#     Node 4, Type 0, BuildingBlock: CUKXOW_clean_sbu_0, # of connection points: 6
#     Node 5, Type 0, BuildingBlock: CUKXOW_clean_sbu_0, # of connection points: 6
#     Node 6, Type 0, BuildingBlock: CUKXOW_clean_sbu_0, # of connection points: 6
#     Node 7, Type 0, BuildingBlock: CUKXOW_clean_sbu_0, # of connection points: 6
#     Node 8, Type 0, BuildingBlock: CUKXOW_clean_sbu_0, # of connection points: 6
#     Node 9, Type 0, BuildingBlock: CUKXOW_clean_sbu_0, # of connection points: 6
#     Node 10, Type 0, BuildingBlock: CUKXOW_clean_sbu_0, # of connection points: 6
#     Node 11, Type 0, BuildingBlock: CUKXOW_clean_sbu_0, # of connection points: 6
#     Node 12, Type 0, BuildingBlock: CUKXOW_clean_sbu_0, # of connection points: 6
#     Node 13, Type 0, BuildingBlock: CUKXOW_clean_sbu_0, # of connection points: 6
#     Node 14, Type 0, BuildingBlock: CUKXOW_clean_sbu_0, # of connection points: 6
#     Node 15, Type 0, BuildingBlock: CUKXOW_clean_sbu_0, # of connection points: 6
#     Node 16, Type 0, BuildingBlock: CUKXOW_clean_sbu_0, # of connection points: 6
#     Node 17, Type 0, BuildingBlock: CUKXOW_clean_sbu_0, # of connection points: 6
#     Edge 18, Type (0, 0), BuildingBlock: OJICUG_clean_linker_0, # of connection points: 2
#     Edge 19, Type (0, 0), BuildingBlock: OJICUG_clean_linker_0, # of connection points: 2
#     Edge 20, Type (0, 0), BuildingBlock: OJICUG_clean_linker_0, # of connection points: 2
#     Edge 21, Type (0, 0), BuildingBlock: OJICUG_clean_linker_0, # of connection points: 2
#     Edge 22, Type (0, 0), BuildingBlock: OJICUG_clean_linker_0, # of connection points: 2
#     Edge 23, Type (0, 0), BuildingBlock: OJICUG_clean_linker_0, # of connection points: 2
#     Edge 24, Type (0, 0), BuildingBlock: OJICUG_clean_linker_0, # of connection points: 2
#     Edge 25, Type (0, 0), BuildingBlock: OJICUG_clean_linker_0, # of connection points: 2
#     Edge 26, Type (0, 0), BuildingBlock: OJICUG_clean_linker_0, # of connection points: 2
#     Edge 27, Type (0, 0), BuildingBlock: OJICUG_clean_linker_0, # of connection points: 2
#     Edge 28, Type (0, 0), BuildingBlock: OJICUG_clean_linker_0, # of connection points: 2
#     Edge 29, Type (0, 0), BuildingBlock: OJICUG_clean_linker_0, # of connection points: 2
#     Edge 30, Type (0, 0), BuildingBlock: OJICUG_clean_linker_0, # of connection points: 2
#     Edge 31, Type (0, 0), BuildingBlock: OJICUG_clean_linker_0, # of connection points: 2
#     Edge 32, Type (0, 0), BuildingBlock: OJICUG_clean_linker_0, # of connection points: 2
#     Edge 33, Type (0, 0), BuildingBlock: OJICUG_clean_linker_0, # of connection points: 2
#     Edge 34, Type (0, 0), BuildingBlock: OJICUG_clean_linker_0, # of connection points: 2
#     Edge 35, Type (0, 0), BuildingBlock: OJICUG_clean_linker_0, # of connection points: 2
#     Edge 36, Type (0, 0), BuildingBlock: OJICUG_clean_linker_0, # of connection points: 2
#     Edge 37, Type (0, 0), BuildingBlock: OJICUG_clean_linker_0, # of connection points: 2
#     Edge 38, Type (0, 0), BuildingBlock: OJICUG_clean_linker_0, # of connection points: 2
#     Edge 39, Type (0, 0), BuildingBlock: OJICUG_clean_linker_0, # of connection points: 2
#     Edge 40, Type (0, 0), BuildingBlock: OJICUG_clean_linker_0, # of connection points: 2
#     Edge 41, Type (0, 0), BuildingBlock: OJICUG_clean_linker_0, # of connection points: 2
#     Edge 42, Type (0, 0), BuildingBlock: OJICUG_clean_linker_0, # of connection points: 2
#     Edge 43, Type (0, 0), BuildingBlock: OJICUG_clean_linker_0, # of connection points: 2
#     Edge 44, Type (0, 0), BuildingBlock: OJICUG_clean_linker_0, # of connection points: 2
#     Edge 45, Type (0, 0), BuildingBlock: OJICUG_clean_linker_0, # of connection points: 2
#     Edge 46, Type (0, 0), BuildingBlock: OJICUG_clean_linker_0, # of connection points: 2
#     Edge 47, Type (0, 0), BuildingBlock: OJICUG_clean_linker_0, # of connection points: 2
#     Edge 48, Type (0, 0), BuildingBlock: OJICUG_clean_linker_0, # of connection points: 2
#     Edge 49, Type (0, 0), BuildingBlock: OJICUG_clean_linker_0, # of connection points: 2
#     Edge 50, Type (0, 0), BuildingBlock: OJICUG_clean_linker_0, # of connection points: 2
#     Edge 51, Type (0, 0), BuildingBlock: OJICUG_clean_linker_0, # of connection points: 2
#     Edge 52, Type (0, 0), BuildingBlock: OJICUG_clean_linker_0, # of connection points: 2
#     Edge 53, Type (0, 0), BuildingBlock: OJICUG_clean_linker_0, # of connection points: 2
#     Edge 54, Type (0, 0), BuildingBlock: OJICUG_clean_linker_0, # of connection points: 2
#     Edge 55, Type (0, 0), BuildingBlock: OJICUG_clean_linker_0, # of connection points: 2
#     Edge 56, Type (0, 0), BuildingBlock: OJICUG_clean_linker_0, # of connection points: 2
#     Edge 57, Type (0, 0), BuildingBlock: OJICUG_clean_linker_0, # of connection points: 2
#     Edge 58, Type (0, 0), BuildingBlock: OJICUG_clean_linker_0, # of connection points: 2
#     Edge 59, Type (0, 0), BuildingBlock: OJICUG_clean_linker_0, # of connection points: 2
#     Edge 60, Type (0, 0), BuildingBlock: OJICUG_clean_linker_0, # of connection points: 2
#     Edge 61, Type (0, 0), BuildingBlock: OJICUG_clean_linker_0, # of connection points: 2
#     Edge 62, Type (0, 0), BuildingBlock: OJICUG_clean_linker_0, # of connection points: 2
#     Edge 63, Type (0, 0), BuildingBlock: OJICUG_clean_linker_0, # of connection points: 2
#     Edge 64, Type (0, 0), BuildingBlock: OJICUG_clean_linker_0, # of connection points: 2
#     Edge 65, Type (0, 0), BuildingBlock: OJICUG_clean_linker_0, # of connection points: 2
#     Edge 66, Type (0, 0), BuildingBlock: OJICUG_clean_linker_0, # of connection points: 2
#     Edge 67, Type (0, 0), BuildingBlock: OJICUG_clean_linker_0, # of connection points: 2
#     Edge 68, Type (0, 0), BuildingBlock: OJICUG_clean_linker_0, # of connection points: 2
#     Edge 69, Type (0, 0), BuildingBlock: OJICUG_clean_linker_0, # of connection points: 2
#     Edge 70, Type (0, 0), BuildingBlock: OJICUG_clean_linker_0, # of connection points: 2
#     Edge 71, Type (0, 0), BuildingBlock: OJICUG_clean_linker_0, # of connection points: 2
# Relax obj value: 0.288
# Max RMSD: 0.299
# Mean RMSD: 0.278
data_MOF--net-smd--node1-CUKXOW_clean_sbu_0--edge1-OJICUG_clean_linker_0
_symmetry_space_group_name_H-M    P1
_symmetry_Int_Tables_number       1
_symmetry_cell_setting            triclinic
loop_
_symmetry_equiv_pos_as_xyz
'x, y, z'
_cell_length_a     55.684618
_cell_length_b     59.737984
_cell_length_c     10.382236
_cell_angle_alpha  92.936172
_cell_angle_beta   93.090524
_cell_angle_gamma 120.10399
loop_
_atom_site_label
_atom_site_type_symbol
_atom_site_fract_x
_atom_site_fract_y
_atom_site_fract_z
_atom_type_partial_charge
Tb0 Tb 0.007 0.21364 0.61042 0.0
C1 C 0.07035 0.2235 0.61711 0.0
Tb2 Tb 0.05854 0.26932 0.61134 0.0
O3 O 0.99336 0.21647 0.41201 0.0
O4 O 0.03538 0.23604 0.47586 0.0
O5 O 0.04384 0.2078 0.64375 0.0
C6 C 0.09137 0.31215 0.50171 0.0
O7 O 0.07956 0.24755 0.58625 0.0
C8 C 0.04628 0.25739 0.85244 0.0
C9 C 0.99852 0.26317 0.63223 0.0
O10 O 0.09918 0.30439 0.60233 0.0
O11 O 0.06526 0.29612 0.46551 0.0
O12 O 0.06744 0.27914 0.82445 0.0
O13 O 0.03429 0.2444 0.74569 0.0
O14 O 0.02451 0.27731 0.60177 0.0
O15 O 0.98736 0.23788 0.65057 0.0
C16 C 0.96842 0.16419 0.64452 0.0
O17 O 0.97529 0.18454 0.72357 0.0
O18 O 0.98348 0.17177 0.54743 0.0
C19 C 0.01822 0.23261 0.38141 0.0
Tb20 Tb 0.82274 0.81729 0.57994 0.0
C21 C 0.86741 0.79954 0.61554 0.0
Tb22 Tb 0.80305 0.75699 0.58464 0.0
O23 O 0.83821 0.82437 0.78486 0.0
O24 O 0.80588 0.78782 0.7136 0.0
O25 O 0.86231 0.81727 0.56628 0.0
C26 C 0.78192 0.70713 0.64493 0.0
O27 O 0.84731 0.77701 0.65083 0.0
C28 C 0.8093 0.77205 0.34404 0.0
C29 C 0.75826 0.77305 0.52122 0.0
O30 O 0.80245 0.71944 0.5741 0.0
O31 O 0.77419 0.72331 0.68509 0.0
O32 O 0.80039 0.74841 0.37237 0.0
O33 O 0.81384 0.78519 0.45066 0.0
O34 O 0.76342 0.75519 0.56331 0.0
O35 O 0.77824 0.79722 0.50586 0.0
C36 C 0.82577 0.86387 0.55648 0.0
O37 O 0.81099 0.84635 0.63243 0.0
O38 O 0.83943 0.85518 0.49162 0.0
C39 C 0.82237 0.80071 0.81307 0.0
Tb40 Tb 0.22877 0.03145 0.59038 0.0
C41 C 0.18367 0.97005 0.54877 0.0
Tb42 Tb 0.24858 0.98913 0.55245 0.0
O43 O 0.2215 0.03354 0.37983 0.0
O44 O 0.23638 0.01093 0.44278 0.0
O45 O 0.18902 0.99373 0.59629 0.0
C46 C 0.26898 0.96184 0.43961 0.0
O47 O 0.20338 0.96566 0.50707 0.0
C48 C 0.24481 0.99995 0.80062 0.0
C49 C 0.2944 0.04871 0.61996 0.0
O50 O 0.25048 0.95334 0.52348 0.0
O51 O 0.27549 0.98538 0.41871 0.0
O52 O 0.25132 0.98286 0.75981 0.0
O53 O 0.24167 0.00989 0.70111 0.0
O54 O 0.28858 0.02503 0.57715 0.0
O55 O 0.27481 0.05488 0.64174 0.0
C56 C 0.2208 0.07166 0.64632 0.0
O57 O 0.23416 0.0692 0.55364 0.0
O58 O 0.21155 0.05108 0.71109 0.0
C59 C 0.23015 0.01812 0.34075 0.0
Tb60 Tb 0.99533 0.76171 0.63643 0.0
C61 C 0.05993 0.78355 0.61503 0.0
Tb62 Tb 0.03863 0.82442 0.63307 0.0
O63 O 0.98868 0.75343 0.42234 0.0
O64 O 0.01344 0.79049 0.50517 0.0
O65 O 0.03547 0.7642 0.64137 0.0
C66 C 0.07805 0.87243 0.57291 0.0
O67 O 0.06518 0.80758 0.60055 0.0
C68 C 0.03043 0.80841 0.873 0.0
C69 C 0.9731 0.80136 0.64078 0.0
O70 O 0.07455 0.85017 0.52785 0.0
O71 O 0.05826 0.86754 0.64801 0.0
O72 O 0.04688 0.83218 0.84743 0.0
O73 O 0.02078 0.79557 0.76406 0.0
O74 O 0.99672 0.81996 0.59774 0.0
O75 O 0.97015 0.77922 0.68087 0.0
C76 C 0.96974 0.71231 0.70695 0.0
O77 O 0.95868 0.72169 0.62803 0.0
O78 O 0.9945 0.73117 0.74969 0.0
C79 C 0.00457 0.77734 0.39652 0.0
Tb80 Tb 0.23437 0.26853 0.62313 0.0
C81 C 0.28882 0.26356 0.65194 0.0
Tb82 Tb 0.22684 0.21533 0.63305 0.0
O83 O 0.22031 0.26801 0.81632 0.0
O84 O 0.24099 0.24793 0.77081 0.0
O85 O 0.2774 0.27759 0.62072 0.0
C86 C 0.2155 0.16624 0.66364 0.0
O87 O 0.27311 0.2385 0.67199 0.0
C88 C 0.23369 0.23292 0.40077 0.0
C89 C 0.17341 0.22387 0.62028 0.0
O90 O 0.21002 0.17462 0.55987 0.0
O91 O 0.2269 0.18556 0.75337 0.0
O92 O 0.24309 0.21846 0.44266 0.0
O93 O 0.21998 0.23578 0.48666 0.0
O94 O 0.18379 0.20891 0.65739 0.0
O95 O 0.18965 0.24745 0.58472 0.0
C96 C 0.25021 0.31463 0.53266 0.0
O97 O 0.24822 0.31013 0.65395 0.0
O98 O 0.24264 0.29312 0.46357 0.0
C99 C 0.22806 0.25212 0.85693 0.0
Tb100 Tb 0.80394 0.049 0.62549 0.0
C101 C 0.75806 0.993 0.5142 0.0
Tb102 Tb 0.82082 0.00559 0.5908 0.0
O103 O 0.80312 0.05649 0.41919 0.0
O104 O 0.81477 0.03098 0.4783 0.0
O105 O 0.76347 0.01536 0.57396 0.0
C106 C 0.82323 0.96128 0.55454 0.0
O107 O 0.77721 0.98601 0.50124 0.0
C108 C 0.8207 0.02207 0.83322 0.0
C109 C 0.86709 0.06507 0.64731 0.0
O110 O 0.80686 0.96509 0.62535 0.0
O111 O 0.83842 0.98276 0.50011 0.0
O112 O 0.83634 0.01319 0.79525 0.0
O113 O 0.80431 0.0197 0.73693 0.0
O114 O 0.86093 0.04232 0.58457 0.0
O115 O 0.84783 0.06923 0.69508 0.0
C116 C 0.78557 0.0809 0.70856 0.0
O117 O 0.8059 0.08695 0.63606 0.0
O118 O 0.77642 0.05724 0.73799 0.0
C119 C 0.81112 0.04057 0.37889 0.0
Tb120 Tb 0.69515 0.53469 0.66789 0.0
C121 C 0.63088 0.49181 0.68113 0.0
Tb122 Tb 0.65115 0.55154 0.69081 0.0
O123 O 0.69058 0.52205 0.86367 0.0
O124 O 0.68247 0.55121 0.81846 0.0
O125 O 0.65522 0.49649 0.63885 0.0
C126 C 0.62105 0.57066 0.78336 0.0
O127 O 0.62612 0.5107 0.71824 0.0
C128 C 0.65715 0.54311 0.44197 0.0
C129 C 0.71312 0.59507 0.68196 0.0
O130 O 0.63776 0.57988 0.69319 0.0
O131 O 0.62049 0.54989 0.81925 0.0
O132 O 0.64003 0.55027 0.48041 0.0
O133 O 0.66855 0.5405 0.54331 0.0
O134 O 0.68935 0.58856 0.73152 0.0
O135 O 0.71837 0.57689 0.63404 0.0
C136 C 0.73852 0.5293 0.61246 0.0
O137 O 0.73958 0.54784 0.68727 0.0
O138 O 0.71277 0.51341 0.56714 0.0
C139 C 0.6807 0.53638 0.90508 0.0
Tb140 Tb 0.47749 0.16102 0.69269 0.0
C141 C 0.52921 0.15085 0.71369 0.0
Tb142 Tb 0.4679 0.10363 0.70799 0.0
O143 O 0.47794 0.16931 0.90509 0.0
O144 O 0.47178 0.13468 0.82956 0.0
O145 O 0.51971 0.16615 0.67208 0.0
C146 C 0.46169 0.06182 0.8144 0.0
O147 O 0.51263 0.12701 0.7461 0.0
C148 C 0.47113 0.11716 0.46476 0.0
C149 C 0.41569 0.11208 0.6959 0.0
O150 O 0.48308 0.08506 0.83901 0.0
O151 O 0.44416 0.06207 0.72731 0.0
O152 O 0.46713 0.09477 0.49634 0.0
O153 O 0.47331 0.12986 0.56969 0.0
O154 O 0.42681 0.09808 0.73457 0.0
O155 O 0.43119 0.13632 0.66156 0.0
C156 C 0.48583 0.20683 0.6241 0.0
O157 O 0.4648 0.18423 0.58006 0.0
O158 O 0.50223 0.2034 0.70382 0.0
C159 C 0.47383 0.14692 0.93558 0.0
Tb160 Tb 0.89983 0.34443 0.72423 0.0
C161 C 0.91941 0.40523 0.76255 0.0
Tb162 Tb 0.96434 0.38776 0.7879 0.0
O163 O 0.89144 0.33628 0.92922 0.0
O164 O 0.9292 0.36401 0.88376 0.0
O165 O 0.9009 0.38202 0.69983 0.0
C166 C 0.01201 0.41742 0.934 0.0
O167 O 0.94322 0.40954 0.82323 0.0
C168 C 0.94916 0.37853 0.53399 0.0
C169 C 0.9477 0.32845 0.71959 0.0
O170 O 1.00191 0.42553 0.8437 0.0
O171 O 0.9956 0.39266 0.93949 0.0
O172 O 0.97434 0.39519 0.58491 0.0
O173 O 0.93482 0.36877 0.62732 0.0
O174 O 0.96706 0.35258 0.76499 0.0
O175 O 0.92075 0.32115 0.69253 0.0
C176 C 0.84717 0.3095 0.63394 0.0
O177 O 0.86916 0.30841 0.60734 0.0
O178 O 0.85519 0.33094 0.70551 0.0
C179 C 0.91606 0.35391 0.9791 0.0
Tb180 Tb 0.65677 0.11688 0.74925 0.0
C181 C 0.71846 0.12989 0.75349 0.0
Tb182 Tb 0.69943 0.17256 0.73803 0.0
O183 O 0.65976 0.10697 0.54547 0.0
O184 O 0.66744 0.14386 0.60376 0.0
O185 O 0.69353 0.11393 0.78956 0.0
C186 C 0.74112 0.21743 0.66768 0.0
O187 O 0.72494 0.15336 0.71892 0.0
C188 C 0.68747 0.15886 0.97655 0.0
C189 C 0.63587 0.15717 0.73594 0.0
O190 O 0.72594 0.21514 0.7622 0.0
O191 O 0.73261 0.19445 0.61201 0.0
O192 O 0.69597 0.18205 0.94201 0.0
O193 O 0.68913 0.14569 0.88201 0.0
O194 O 0.66074 0.1744 0.69929 0.0
O195 O 0.63059 0.13411 0.76942 0.0
C196 C 0.62178 0.073 0.84959 0.0
O197 O 0.62976 0.09629 0.89871 0.0
O198 O 0.63223 0.07445 0.73931 0.0
C199 C 0.66881 0.13025 0.51028 0.0
Tb200 Tb 0.9572 0.56366 0.79755 0.0
C201 C 0.9348 0.60293 0.7582 0.0
Tb202 Tb 0.89139 0.54054 0.73653 0.0
O203 O 0.96742 0.56575 0.59253 0.0
O204 O 0.92732 0.55193 0.63848 0.0
O205 O 0.95604 0.59948 0.79073 0.0
C206 C 0.84146 0.5292 0.62506 0.0
O207 O 0.90868 0.58315 0.72938 0.0
C208 C 0.90723 0.54747 0.99117 0.0
C209 C 0.91623 0.50243 0.76265 0.0
O210 O 0.865 0.55037 0.61793 0.0
O211 O 0.84617 0.51366 0.69147 0.0
O212 O 0.88178 0.53884 0.94301 0.0
O213 O 0.92115 0.55196 0.89458 0.0
O214 O 0.896 0.50556 0.70454 0.0
O215 O 0.93982 0.52238 0.82138 0.0
C216 C 0.0046 0.58824 0.95046 0.0
O217 O 0.99882 0.57006 0.85849 0.0
O218 O 0.98388 0.5923 0.95465 0.0
C219 C 0.94178 0.55656 0.54331 0.0
Tb220 Tb 0.46454 0.38451 0.75609 0.0
C221 C 0.41118 0.32695 0.71195 0.0
Tb222 Tb 0.47399 0.34004 0.70861 0.0
O223 O 0.47453 0.39745 0.56164 0.0
O224 O 0.45768 0.3583 0.59116 0.0
O225 O 0.42136 0.35211 0.74479 0.0
C226 C 0.48575 0.30306 0.63502 0.0
O227 O 0.42786 0.31769 0.68462 0.0
C228 C 0.46941 0.35084 0.95472 0.0
C229 C 0.52545 0.39817 0.72626 0.0
O230 O 0.46708 0.30688 0.57668 0.0
O231 O 0.4982 0.3205 0.73244 0.0
O232 O 0.46119 0.32775 0.90178 0.0
O233 O 0.4815 0.36674 0.87199 0.0
O234 O 0.51478 0.37408 0.66965 0.0
O235 O 0.50965 0.40495 0.78894 0.0
C236 C 0.45226 0.41558 0.89686 0.0
O237 O 0.46236 0.4203 0.78476 0.0
O238 O 0.44838 0.39327 0.92592 0.0
C239 C 0.46866 0.37479 0.50912 0.0
Tb240 Tb 0.35961 0.87956 0.29648 0.0
C241 C 0.42336 0.89878 0.29137 0.0
Tb242 Tb 0.40424 0.94024 0.29076 0.0
O243 O 0.35131 0.8708 0.08136 0.0
O244 O 0.37894 0.90692 0.16403 0.0
O245 O 0.39979 0.88158 0.33824 0.0
C246 C 0.42654 0.9819 0.1604 0.0
O247 O 0.42745 0.92093 0.24819 0.0
C248 C 0.39609 0.92623 0.53217 0.0
C249 C 0.34035 0.92184 0.31276 0.0
O250 O 0.44081 0.97637 0.24377 0.0
O251 O 0.40032 0.96461 0.15546 0.0
O252 O 0.41341 0.94991 0.50441 0.0
O253 O 0.38552 0.91282 0.42475 0.0
O254 O 0.36582 0.94093 0.29743 0.0
O255 O 0.33357 0.89719 0.31985 0.0
C256 C 0.3218 0.83405 0.37041 0.0
O257 O 0.32374 0.85621 0.40157 0.0
O258 O 0.3417 0.83753 0.29913 0.0
C259 C 0.36913 0.89421 0.05517 0.0
Tb260 Tb 0.18548 0.5126 0.20543 0.0
C261 C 0.23218 0.49747 0.22311 0.0
Tb262 Tb 0.16925 0.45676 0.20975 0.0
O263 O 0.17021 0.51249 0.39661 0.0
O264 O 0.18676 0.48917 0.35029 0.0
O265 O 0.22552 0.51454 0.1824 0.0
C266 C 0.15082 0.40894 0.28019 0.0
O267 O 0.21337 0.47419 0.25267 0.0
C268 C 0.1795 0.47432 0.97826 0.0
C269 C 0.12222 0.47116 0.18738 0.0
O270 O 0.16867 0.43025 0.34825 0.0
O271 O 0.14335 0.41446 0.17136 0.0
O272 O 0.18357 0.45602 1.01708 0.0
O273 O 0.16801 0.48015 0.0648 0.0
O274 O 0.1298 0.45516 0.23368 0.0
O275 O 0.14079 0.49452 0.15633 0.0
C276 C 0.20318 0.56152 0.15379 0.0
O277 O 0.18679 0.54098 0.07663 0.0
O278 O 0.2097 0.55447 0.25981 0.0
C279 C 0.17497 0.49471 0.43638 0.0
Tb280 Tb 0.58182 0.72004 0.28324 0.0
C281 C 0.5326 0.66265 0.21946 0.0
Tb282 Tb 0.5928 0.67255 0.23804 0.0
O283 O 0.58381 0.72938 0.07712 0.0
O284 O 0.58873 0.69983 0.13287 0.0
O285 O 0.54129 0.6847 0.29333 0.0
C286 C 0.60153 0.63843 0.10961 0.0
O287 O 0.54991 0.65693 0.1643 0.0
C288 C 0.58711 0.68165 0.48652 0.0
C289 C 0.6432 0.72864 0.33215 0.0
O290 O 0.58248 0.63252 0.18965 0.0
O291 O 0.6161 0.66344 0.10566 0.0
O292 O 0.59206 0.66357 0.44384 0.0
O293 O 0.5851 0.6923 0.38807 0.0
O294 O 0.63491 0.70486 0.27932 0.0
O295 O 0.62639 0.73825 0.34904 0.0
C296 C 0.56918 0.75489 0.3748 0.0
O297 O 0.59256 0.75555 0.40318 0.0
O298 O 0.55292 0.73445 0.29639 0.0
C299 C 0.5875 0.71064 1.03401 0.0
Tb300 Tb 0.3553 0.45876 0.25328 0.0
C301 C 0.41486 0.47279 0.20314 0.0
Tb302 Tb 0.39651 0.51469 0.24716 0.0
O303 O 0.35876 0.44946 0.05101 0.0
O304 O 0.36455 0.48595 0.11024 0.0
O305 O 0.39299 0.45671 0.26233 0.0
C306 C 0.43608 0.56375 0.22594 0.0
O307 O 0.41953 0.49615 0.17797 0.0
C308 C 0.38359 0.49926 0.48158 0.0
C309 C 0.33515 0.50002 0.25581 0.0
O310 O 0.43258 0.55139 0.32825 0.0
O311 O 0.41796 0.54819 0.13249 0.0
O312 O 0.38808 0.52129 0.44492 0.0
O313 O 0.38741 0.48712 0.38876 0.0
O314 O 0.35935 0.51765 0.21881 0.0
O315 O 0.33006 0.47672 0.28395 0.0
C316 C 0.3174 0.41383 0.33766 0.0
O317 O 0.33389 0.4351 0.40947 0.0
O318 O 0.32229 0.41773 0.21768 0.0
C319 C 0.36623 0.47248 1.01621 0.0
Tb320 Tb 0.59024 0.9497 0.29595 0.0
C321 C 0.64199 0.9407 0.3319 0.0
Tb322 Tb 0.57926 0.89563 0.31394 0.0
O323 O 0.57937 0.95301 0.49454 0.0
O324 O 0.59536 0.92916 0.44691 0.0
O325 O 0.6329 0.95689 0.30568 0.0
C326 C 0.56619 0.84844 0.37885 0.0
O327 O 0.62471 0.91589 0.34788 0.0
C328 C 0.58547 0.91133 0.07643 0.0
C329 C 0.5289 0.9055 0.29749 0.0
O330 O 0.55569 0.85326 0.27679 0.0
O331 O 0.58394 0.87018 0.4444 0.0
O332 O 0.59273 0.89525 0.11797 0.0
O333 O 0.57345 0.91607 0.16447 0.0
O334 O 0.53844 0.89127 0.34936 0.0
O335 O 0.54569 0.92752 0.24873 0.0
C336 C 0.60264 0.99178 0.17359 0.0
O337 O 0.59131 0.98688 0.28284 0.0
O338 O 0.60808 0.97382 0.13857 0.0
C339 C 0.5844 0.93533 0.5352 0.0
Tb340 Tb 0.15104 0.71919 0.3223 0.0
C341 C 0.11083 0.65924 0.22749 0.0
Tb342 Tb 0.1758 0.68108 0.28449 0.0
O343 O 0.14907 0.72648 0.11506 0.0
O344 O 0.16531 0.70444 0.17662 0.0
O345 O 0.1133 0.68141 0.2768 0.0
C346 C 0.19571 0.65217 0.18821 0.0
O347 O 0.13215 0.65534 0.21655 0.0
C348 C 0.16634 0.68741 0.53108 0.0
C349 C 0.21574 0.74094 0.34758 0.0
O350 O 0.1716 0.64941 0.15289 0.0
O351 O 0.20869 0.67131 0.27787 0.0
O352 O 0.17542 0.67229 0.49083 0.0
O353 O 0.1623 0.69651 0.43092 0.0
O354 O 0.21187 0.71962 0.28082 0.0
O355 O 0.19497 0.74327 0.39123 0.0
C356 C 0.12853 0.74408 0.43866 0.0
O357 O 0.14866 0.75444 0.36361 0.0
O358 O 0.12113 0.71988 0.44673 0.0
C359 C 0.15975 0.71255 0.07579 0.0
C360 C 0.11372 0.36244 0.26186 0.0
C361 C 0.1379 0.38314 0.32853 0.0
H362 H 0.07992 0.32355 0.26592 0.0
C363 C 0.14812 0.37964 0.44796 0.0
H364 H 0.10546 0.3647 0.16966 0.0
C365 C 0.13365 0.35603 0.50262 0.0
C366 C 0.10863 0.33586 0.43914 0.0
H367 H 0.1668 0.39541 0.50095 0.0
H368 H 0.14138 0.35395 0.5966 0.0
C369 C 0.09908 0.339 0.3172 0.0
C370 C 0.72022 0.77836 0.40646 0.0
C371 C 0.72853 0.76446 0.48526 0.0
H372 H 0.68604 0.77797 0.29553 0.0
C373 C 0.70794 0.74054 0.52348 0.0
H374 H 0.73557 0.79688 0.37579 0.0
C375 C 0.68017 0.7299 0.47743 0.0
C376 C 0.67201 0.74293 0.39316 0.0
H377 H 0.7133 0.72942 0.58602 0.0
H378 H 0.66503 0.71094 0.50492 0.0
C379 C 0.69199 0.76764 0.36081 0.0
C380 C 0.27907 0.92524 0.43442 0.0
C381 C 0.28392 0.94897 0.39143 0.0
H382 H 0.29309 0.89767 0.44185 0.0
C383 C 0.3053 0.96192 0.3108 0.0
H384 H 0.26267 0.91487 0.4967 0.0
C385 C 0.32269 0.95227 0.28037 0.0
C386 C 0.31898 0.92932 0.32904 0.0
H387 H 0.3094 0.98015 0.27545 0.0
H388 H 0.33964 0.9633 0.22181 0.0
C389 C 0.29642 0.91539 0.40286 0.0
C390 C 0.33887 0.0925 0.60703 0.0
C391 C 0.32471 0.06786 0.6552 0.0
H392 H 0.3788 0.12603 0.5806 0.0
C393 C 0.34057 0.05959 0.72585 0.0
H394 H 0.32728 0.09935 0.55086 0.0
C395 C 0.36964 0.07469 0.74361 0.0
C396 C 0.38431 0.09867 0.68963 0.0
H397 H 0.33044 0.04082 0.76475 0.0
H398 H 0.38066 0.06692 0.79681 0.0
C399 C 0.36842 0.10774 0.62369 0.0
C400 C 0.94263 0.2827 0.69568 0.0
C401 C 0.95838 0.31 0.69136 0.0
H402 H 0.94249 0.24622 0.68296 0.0
C403 C 0.98627 0.32068 0.66347 0.0
H404 H 0.92108 0.27363 0.71701 0.0
C405 C 0.99826 0.30524 0.64302 0.0
C406 C 0.98321 0.27808 0.65032 0.0
H407 H 0.99924 0.3414 0.65722 0.0
H408 H 0.01991 0.31513 0.62289 0.0
C409 C 0.95497 0.26695 0.67651 0.0
C410 C 0.74469 0.66851 0.7415 0.0
C411 C 0.76686 0.67862 0.6627 0.0
H412 H 0.71115 0.635 0.81056 0.0
C413 C 0.77273 0.661 0.59563 0.0
H414 H 0.73951 0.68135 0.79481 0.0
C415 C 0.75617 0.63387 0.60423 0.0
C416 C 0.73329 0.62376 0.67993 0.0
H417 H 0.78962 0.6681 0.53357 0.0
H418 H 0.76073 0.62084 0.54858 0.0
C419 C 0.72829 0.64168 0.75009 0.0
C420 C 0.93288 0.66401 0.66856 0.0
C421 C 0.95864 0.68421 0.72878 0.0
H422 H 0.90481 0.6226 0.63097 0.0
C423 C 0.9752 0.67724 0.8041 0.0
H424 H 0.91959 0.66859 0.60932 0.0
C425 C 0.96693 0.65107 0.81548 0.0
C426 C 0.94161 0.6307 0.75275 0.0
H427 H 0.99512 0.6921 0.85203 0.0
H428 H 0.98079 0.64685 0.87269 0.0
C429 C 0.92439 0.63759 0.68101 0.0
C430 C 0.33678 0.26667 0.6601 0.0
C431 C 0.32018 0.2782 0.67356 0.0
H432 H 0.37849 0.27278 0.65954 0.0
C433 C 0.33399 0.30532 0.70353 0.0
H434 H 0.32699 0.24589 0.63686 0.0
C435 C 0.36307 0.32052 0.71709 0.0
C436 C 0.37992 0.30943 0.70045 0.0
H437 H 0.32226 0.31513 0.71652 0.0
H438 H 0.37229 0.34127 0.73937 0.0
C439 C 0.36634 0.28215 0.67256 0.0
C440 C 0.73302 0.09844 0.82124 0.0
C441 C 0.73874 0.12037 0.75476 0.0
H442 H 0.74333 0.06923 0.85987 0.0
C443 C 0.7621 0.1309 0.68258 0.0
H444 H 0.71545 0.08983 0.87913 0.0
C445 C 0.77832 0.11888 0.67195 0.0
C446 C 0.77152 0.09618 0.73357 0.0
H447 H 0.76712 0.14766 0.62989 0.0
H448 H 0.79546 0.12674 0.61138 0.0
C449 C 0.7491 0.08656 0.81071 0.0
C450 C 0.68378 0.93831 0.42166 0.0
C451 C 0.67255 0.95188 0.3588 0.0
H452 H 0.72023 0.94065 0.51996 0.0
C453 C 0.69074 0.97761 0.33268 0.0
H454 H 0.67034 0.91843 0.44299 0.0
C455 C 0.71889 0.99011 0.37678 0.0
C456 C 0.72977 0.97724 0.4472 0.0
H457 H 0.68306 0.9886 0.28292 0.0
H458 H 0.73206 0.01036 0.36026 0.0
C459 C 0.71229 0.95092 0.46538 0.0
C460 C 0.1025 0.79076 0.50843 0.0
C461 C 0.08135 0.77658 0.58886 0.0
H462 H 0.13426 0.79148 0.39678 0.0
C463 C 0.07836 0.75336 0.63057 0.0
H464 H 0.10525 0.80867 0.47431 0.0
C465 C 0.09468 0.74355 0.58573 0.0
C466 C 0.11447 0.75675 0.49858 0.0
H467 H 0.06252 0.74209 0.69381 0.0
H468 H 0.09107 0.72508 0.61581 0.0
C469 C 0.11898 0.78088 0.46352 0.0
C470 C 0.29468 0.38721 0.51954 0.0
C471 C 0.29776 0.38888 0.38627 0.0
H472 H 0.2767 0.36222 0.67076 0.0
C473 C 0.28296 0.3663 0.30092 0.0
H474 H 0.30582 0.40439 0.58734 0.0
C475 C 0.26634 0.34225 0.3486 0.0
C476 C 0.26416 0.34041 0.48235 0.0
H477 H 0.28492 0.36709 0.19777 0.0
H478 H 0.25596 0.32499 0.28103 0.0
C479 C 0.27795 0.36314 0.56723 0.0
C480 C 0.04603 0.42214 0.1131 0.0
C481 C 0.03859 0.43324 1.01414 0.0
H482 H 0.07824 0.42589 0.24922 0.0
C483 C 0.05741 0.45877 0.98802 0.0
H484 H 0.03167 0.40261 0.13658 0.0
C485 C 0.08417 0.47225 0.05305 0.0
C486 C 0.09242 0.46031 0.1449 0.0
H487 H 0.05197 0.46782 0.91291 0.0
H488 H 0.09889 0.49129 1.0251 0.0
C489 C 0.07267 0.43556 0.17813 0.0
C490 C 0.59807 0.57725 0.96979 0.0
C491 C 0.61159 0.58588 0.85702 0.0
H492 H 0.58407 0.58748 0.13993 0.0
C493 C 0.61995 0.61111 0.82451 0.0
H494 H 0.59164 0.55789 0.99694 0.0
C495 C 0.61646 0.62804 0.90731 0.0
C496 C 0.60401 0.61985 1.02254 0.0
H497 H 0.63044 0.61823 0.73806 0.0
H498 H 0.6238 0.64766 0.88169 0.0
C499 C 0.59401 0.59415 0.05177 0.0
C500 C 0.473 0.04305 1.00238 0.0
C501 C 0.45509 0.0402 0.89385 0.0
H502 H 0.47801 0.02646 0.17392 0.0
C503 C 0.42902 0.01754 0.87027 0.0
H504 H 0.49321 0.06051 1.02259 0.0
C505 C 0.42027 0.99864 0.95716 0.0
C506 C 0.43755 1.00182 0.0685 0.0
H507 H 0.41486 0.01486 0.78736 0.0
H508 H 0.39967 0.98162 0.93775 0.0
C509 C 0.46432 0.02378 0.08909 0.0
C510 C 0.61292 0.02859 0.87837 0.0
C511 C 0.61209 0.05051 0.92672 0.0
H512 H 0.61121 0.99323 0.9202 0.0
C513 C 0.60658 0.05245 0.05628 0.0
H514 H 0.61734 0.02668 0.77935 0.0
C515 C 0.60296 0.03315 0.1374 0.0
C516 C 0.60529 0.01196 0.09026 0.0
H517 H 0.60616 0.06935 0.09625 0.0
H518 H 0.59925 0.03521 0.23749 0.0
C519 C 0.60976 0.00961 0.9596 0.0
C520 C 0.05922 0.64007 0.19397 0.0
C521 C 0.08296 0.63854 0.1703 0.0
H522 H 0.01583 0.62505 0.14368 0.0
C523 C 0.08012 0.6185 0.0816 0.0
H524 H 0.06058 0.65508 0.26227 0.0
C525 C 0.05434 0.6013 1.01275 0.0
C526 C 0.03107 0.60382 1.03215 0.0
H527 H 0.09802 0.6168 0.06084 0.0
H528 H 0.05288 0.5867 0.94127 0.0
C529 C 0.03356 0.62285 0.12586 0.0
C530 C 0.44135 0.47041 1.02035 0.0
C531 C 0.43008 0.46171 0.1383 0.0
H532 H 0.45691 0.46235 0.84952 0.0
C533 C 0.42866 0.43914 0.18027 0.0
H534 H 0.44232 0.48753 0.98438 0.0
C535 C 0.43675 0.42474 0.10285 0.0
C536 C 0.44631 0.43249 0.98139 0.0
H537 H 0.42006 0.43191 0.27042 0.0
H538 H 0.43461 0.407 0.13645 0.0
C539 C 0.44935 0.45586 0.94227 0.0
C540 C 0.10515 0.21806 0.49934 0.0
C541 C 0.09123 0.21467 0.61219 0.0
H542 H 0.14139 0.22284 0.41337 0.0
C543 C 0.10251 0.20958 0.72438 0.0
H544 H 0.09744 0.22251 0.41197 0.0
C545 C 0.12811 0.20973 0.72515 0.0
C546 C 0.14291 0.21506 0.61386 0.0
H547 H 0.09285 0.20767 0.81407 0.0
H548 H 0.1374 0.2079 0.81538 0.0
C549 C 0.13046 0.21827 0.50018 0.0
C550 C 0.84277 0.93258 0.47355 0.0
C551 C 0.82442 0.93655 0.54743 0.0
H552 H 0.85777 0.90666 0.41685 0.0
C553 C 0.80681 0.91636 0.6206 0.0
H554 H 0.8567 0.94764 0.41608 0.0
C555 C 0.80752 0.89321 0.62161 0.0
C556 C 0.8258 0.88906 0.54904 0.0
H557 H 0.79239 0.91847 0.6789 0.0
H558 H 0.79358 0.87844 0.68042 0.0
C559 C 0.84339 0.90907 0.47406 0.0
C560 C 0.12341 0.89988 0.47714 0.0
C561 C 0.10318 0.89848 0.55692 0.0
H562 H 0.16366 0.92295 0.41037 0.0
C563 C 0.10861 0.92169 0.62717 0.0
H564 H 0.12014 0.88259 0.42142 0.0
C565 C 0.13403 0.94533 0.62095 0.0
C566 C 0.15476 0.94638 0.54473 0.0
H567 H 0.09361 0.92142 0.69016 0.0
H568 H 0.13784 0.9625 0.67968 0.0
C569 C 0.1486 0.92326 0.47116 0.0
C570 C 0.20739 0.12481 0.55089 0.0
C571 C 0.21341 0.14036 0.66772 0.0
H572 H 0.20513 0.09122 0.45406 0.0
C573 C 0.21922 0.1316 0.78253 0.0
H574 H 0.20286 0.13086 0.46059 0.0
C575 C 0.2198 0.10817 0.77903 0.0
C576 C 0.21519 0.09351 0.66028 0.0
H577 H 0.22401 0.14316 0.87411 0.0
H578 H 0.22531 0.1023 0.8676 0.0
C579 C 0.20864 0.10199 0.54708 0.0
C580 C 0.91375 0.09268 0.5597 0.0
C581 C 0.89585 0.08811 0.6581 0.0
H582 H 0.95075 0.12048 0.47769 0.0
C583 C 0.90379 0.10795 0.75867 0.0
H584 H 0.90815 0.07798 0.48018 0.0
C585 C 0.92803 0.13219 0.75724 0.0
C586 C 0.94498 0.13735 0.65482 0.0
H587 H 0.89058 0.10512 0.83641 0.0
H588 H 0.93284 0.14724 0.83376 0.0
C589 C 0.93803 0.11711 0.55785 0.0
C590 C 0.92716 0.78943 0.72339 0.0
C591 C 0.94803 0.80446 0.64362 0.0
H592 H 0.88631 0.77669 0.77925 0.0
C593 C 0.94338 0.82046 0.56279 0.0
H594 H 0.92999 0.77721 0.78882 0.0
C595 C 0.91775 0.82014 0.55701 0.0
C596 C 0.89637 0.80385 0.63216 0.0
H597 H 0.95899 0.83233 0.50007 0.0
H598 H 0.91424 0.8317 0.48974 0.0
C599 C 0.90191 0.78916 0.71792 0.0
C600 C 0.78881 0.50405 0.6097 0.0
C601 C 0.81397 0.52704 0.59601 0.0
H602 H 0.74451 0.48646 0.62126 0.0
C603 C 0.81313 0.54954 0.57071 0.0
H604 H 0.78888 0.48647 0.62986 0.0
C605 C 0.78813 0.54968 0.56951 0.0
C606 C 0.76322 0.52713 0.58905 0.0
H607 H 0.83212 0.56758 0.56001 0.0
H608 H 0.78844 0.56775 0.55789 0.0
C609 C 0.76348 0.50401 0.60446 0.0
C610 C 0.46792 0.25782 0.53383 0.0
C611 C 0.48836 0.27974 0.61289 0.0
H612 H 0.45104 0.21728 0.47511 0.0
C613 C 0.50963 0.27814 0.68306 0.0
H614 H 0.45123 0.2585 0.47896 0.0
C615 C 0.50963 0.25472 0.68003 0.0
C616 C 0.48822 0.23232 0.60776 0.0
H617 H 0.52566 0.29473 0.74459 0.0
H618 H 0.52571 0.25387 0.73938 0.0
C619 C 0.46778 0.23424 0.53174 0.0
C620 C 0.78601 0.24082 0.56398 0.0
C621 C 0.76639 0.24167 0.64085 0.0
H622 H 0.82717 0.26181 0.50084 0.0
C623 C 0.77229 0.26569 0.70107 0.0
H624 H 0.78199 0.22255 0.51636 0.0
C625 C 0.79788 0.28818 0.69031 0.0
C626 C 0.81828 0.28706 0.62071 0.0
H627 H 0.75751 0.26694 0.76039 0.0
H628 H 0.80225 0.30618 0.74258 0.0
C629 C 0.81183 0.26329 0.55476 0.0
C630 C 0.93073 0.47267 0.85815 0.0
C631 C 0.91353 0.47591 0.76557 0.0
H632 H 0.9455 0.44863 0.93121 0.0
C633 C 0.89591 0.45432 0.67583 0.0
H634 H 0.94434 0.48837 0.93068 0.0
C635 C 0.89661 0.4308 0.67598 0.0
C636 C 0.91491 0.42827 0.7661 0.0
H637 H 0.88232 0.45588 0.60281 0.0
H638 H 0.88359 0.41501 0.60294 0.0
C639 C 0.93138 0.44954 0.85851 0.0
C640 C 0.57016 0.42143 0.61052 0.0
C641 C 0.55533 0.41896 0.72025 0.0
H642 H 0.60613 0.44643 0.5107 0.0
C643 C 0.56805 0.43897 0.82153 0.0
H644 H 0.56092 0.40653 0.53008 0.0
C645 C 0.59362 0.46142 0.81075 0.0
C646 C 0.60765 0.46494 0.6982 0.0
H647 H 0.55757 0.43781 0.90805 0.0
H648 H 0.60185 0.47678 0.88909 0.0
C649 C 0.59611 0.44427 0.59946 0.0
C650 C 0.6036 0.17167 0.63473 0.0
C651 C 0.61228 0.16235 0.73906 0.0
H652 H 0.57018 0.17566 0.54393 0.0
C653 C 0.59532 0.15364 0.84172 0.0
H654 H 0.61606 0.17822 0.55338 0.0
C655 C 0.56954 0.15236 0.8368 0.0
C656 C 0.5596 0.15961 0.72868 0.0
H657 H 0.60136 0.14644 0.92374 0.0
H658 H 0.55653 0.14415 0.91515 0.0
C659 C 0.57736 0.17025 0.62943 0.0
C660 C 0.48828 0.90359 0.17859 0.0
C661 C 0.49898 0.89713 0.28679 0.0
H662 H 0.45561 0.90856 0.09512 0.0
C663 C 0.4822 0.8867 0.389 0.0
H664 H 0.5006 0.91132 0.09757 0.0
C665 C 0.45605 0.88505 0.3874 0.0
C666 C 0.44672 0.89387 0.28366 0.0
H667 H 0.4901 0.8817 0.47371 0.0
H668 H 0.44422 0.87879 0.4709 0.0
C669 C 0.46251 0.902 0.17711 0.0
C670 C 0.18797 0.61291 0.05617 0.0
C671 C 0.20343 0.63253 0.15656 0.0
H672 H 0.17642 0.57486 0.97437 0.0
C673 C 0.22295 0.6307 0.23989 0.0
H674 H 0.17293 0.61405 0.99023 0.0
C675 C 0.22465 0.60815 0.23208 0.0
C676 C 0.20718 0.58745 0.13958 0.0
H677 H 0.23517 0.64567 0.31781 0.0
H678 H 0.23819 0.60621 0.30389 0.0
C679 C 0.19 0.59054 0.04703 0.0
C680 C 0.49207 0.6327 0.33239 0.0
C681 C 0.50375 0.64116 0.21578 0.0
H682 H 0.46154 0.60091 0.42673 0.0
C683 C 0.49081 0.62521 0.0998 0.0
H684 H 0.50205 0.64446 0.42315 0.0
C685 C 0.46749 0.60044 0.10147 0.0
C686 C 0.45742 0.59111 0.21966 0.0
H687 H 0.49979 0.6313 1.009 0.0
H688 H 0.45858 0.58802 1.01179 0.0
C689 C 0.46923 0.60768 0.33449 0.0
C690 C 0.5431 0.77759 0.32678 0.0
C691 C 0.56464 0.77684 0.39968 0.0
H692 H 0.52681 0.80129 0.26287 0.0
C693 C 0.58401 0.79873 0.48153 0.0
H694 H 0.52786 0.76091 0.26314 0.0
C695 C 0.58313 0.8217 0.48276 0.0
C696 C 0.56315 0.8231 0.40054 0.0
H697 H 0.60073 0.79853 0.53897 0.0
H698 H 0.59923 0.83879 0.54116 0.0
C699 C 0.54251 0.80066 0.32635 0.0
C700 C 0.29245 0.7862 0.31659 0.0
C701 C 0.2969 0.80899 0.38516 0.0
H702 H 0.26309 0.7466 0.25059 0.0
C703 C 0.27553 0.80847 0.45291 0.0
H704 H 0.30866 0.78619 0.26344 0.0
C705 C 0.24943 0.78599 0.4449 0.0
C706 C 0.24426 0.7636 0.36905 0.0
H707 H 0.27853 0.82582 0.50696 0.0
H708 H 0.23306 0.78652 0.49439 0.0
C709 C 0.2663 0.76363 0.30868 0.0
C710 C 0.29359 0.49406 0.35549 0.0
C711 C 0.3122 0.50525 0.26138 0.0
H712 H 0.25383 0.48363 0.41808 0.0
C713 C 0.30647 0.51813 0.16542 0.0
H714 H 0.29786 0.48445 0.43171 0.0
C715 C 0.28093 0.51755 0.15694 0.0
C716 C 0.26131 0.50414 0.2447 0.0
H717 H 0.3207 0.52689 0.09196 0.0
H718 H 0.27576 0.52582 0.07712 0.0
C719 C 0.26844 0.49359 0.3475 0.0
C720 C 0.00466 0.22733 0.14023 0.0
C721 C 0.02538 0.23885 0.24565 0.0
H722 H 0.99495 0.22356 0.93355 0.0
C723 C 0.053 0.25572 0.21898 0.0
H724 H 0.98318 0.21406 0.15668 0.0
C725 C 0.05957 0.26159 0.09152 0.0
C726 C 0.03891 0.25002 0.98628 0.0
H727 H 0.06962 0.26448 0.29666 0.0
H728 H 0.081 0.27508 0.07514 0.0
C729 C 0.01139 0.2326 1.01206 0.0
C730 C 0.82817 0.80615 0.18345 0.0
C731 C 0.81184 0.78013 0.20967 0.0
H732 H 0.84473 0.8329 0.03767 0.0
C733 C 0.79878 0.76095 0.10433 0.0
H734 H 0.83865 0.82133 0.2622 0.0
C735 C 0.80192 0.76752 0.97597 0.0
C736 C 0.81867 0.79341 0.94917 0.0
H737 H 0.78606 0.74067 0.12111 0.0
H738 H 0.7915 0.75228 0.89792 0.0
C739 C 0.83175 0.81267 0.05464 0.0
C740 C 0.23948 0.99346 0.16309 0.0
C741 C 0.23323 0.0126 0.20258 0.0
H742 H 0.24802 0.97459 1.0056 0.0
C743 C 0.2302 0.02735 0.10762 0.0
H744 H 0.24135 0.98142 0.23252 0.0
C745 C 0.23378 0.02336 0.97705 0.0
C746 C 0.24038 0.00444 0.93789 0.0
H747 H 0.22535 0.0423 0.13457 0.0
H748 H 0.23163 0.03523 0.90722 0.0
C749 C 0.24308 0.98948 1.03251 0.0
C750 C 0.00443 0.77432 1.02776 0.0
C751 C 0.02373 0.80002 1.00628 0.0
H752 H 0.98349 0.74717 0.16718 0.0
C753 C 0.03655 0.81848 0.11504 0.0
H754 H 0.99385 0.75972 0.94691 0.0
C755 C 0.03032 0.81145 0.24162 0.0
C756 C 0.01128 0.78569 0.26322 0.0
H757 H 0.0514 0.83856 0.10233 0.0
H758 H 0.04039 0.82617 0.32228 0.0
C759 C 0.99841 0.76723 0.15446 0.0
C760 C 0.21681 0.2493 0.21681 0.0
C761 C 0.23233 0.23813 0.26198 0.0
H762 H 0.20329 0.26241 0.0542 0.0
C763 C 0.24599 0.23112 0.17185 0.0
H764 H 0.2057 0.25459 0.28283 0.0
C765 C 0.2443 0.23525 0.04033 0.0
C766 C 0.22902 0.24667 0.99543 0.0
H767 H 0.25802 0.22235 0.20296 0.0
H768 H 0.25518 0.22972 0.97401 0.0
C769 C 0.21529 0.25362 0.08542 0.0
C770 C 0.79922 0.0411 0.14381 0.0
C771 C 0.81255 0.0342 0.24014 0.0
H772 H 0.79088 0.04237 0.94078 0.0
C773 C 0.82806 0.02286 0.20144 0.0
H774 H 0.78704 0.04987 0.17056 0.0
C775 C 0.83075 0.01915 0.06925 0.0
C776 C 0.81751 0.02619 0.97277 0.0
H777 H 0.83867 0.0175 0.27318 0.0
H778 H 0.84323 0.01069 0.04259 0.0
C779 C 0.80143 0.03689 1.01184 0.0
C780 C 0.68165 0.52581 0.13626 0.0
C781 C 0.675 0.53868 0.04273 0.0
H782 H 0.68185 0.51751 0.33567 0.0
C783 C 0.66297 0.55334 0.08287 0.0
H784 H 0.69107 0.51442 0.10905 0.0
C785 C 0.65702 0.55448 0.2122 0.0
C786 C 0.66375 0.54168 0.30555 0.0
H787 H 0.65801 0.5638 1.01442 0.0
H788 H 0.64739 0.56569 0.23955 0.0
C789 C 0.67643 0.52757 0.26635 0.0
C790 C 0.47829 0.15016 0.30513 0.0
C791 C 0.47178 0.12492 0.3297 0.0
H792 H 0.48411 0.17675 0.16206 0.0
C793 C 0.46579 0.10676 0.22289 0.0
H794 H 0.4831 0.16463 0.38469 0.0
C795 C 0.46624 0.11364 0.09496 0.0
C796 C 0.47298 0.13894 0.07036 0.0
H797 H 0.46054 0.08706 0.2381 0.0
H798 H 0.46105 0.0991 1.01556 0.0
C799 C 0.4789 0.15707 0.17724 0.0
C800 C 0.90706 0.3448 0.2105 0.0
C801 C 0.92512 0.36027 0.12068 0.0
H802 H 0.9002 0.33844 0.41079 0.0
C803 C 0.95075 0.38199 0.16864 0.0
H804 H 0.88698 0.32804 0.17702 0.0
C805 C 0.95842 0.38774 0.30271 0.0
C806 C 0.94039 0.37222 0.39236 0.0
H807 H 0.96467 0.3948 0.10303 0.0
H808 H 0.97844 0.40457 0.33631 0.0
C809 C 0.91454 0.35075 0.34463 0.0
C810 C 0.67693 0.12667 0.14622 0.0
C811 C 0.68263 0.15131 0.11285 0.0
H812 H 0.66805 0.10072 0.29623 0.0
C813 C 0.68387 0.169 0.21208 0.0
H814 H 0.67598 0.11258 0.07313 0.0
C815 C 0.67956 0.16229 0.3405 0.0
C816 C 0.67373 0.13762 0.37378 0.0
H817 H 0.68824 0.18816 0.19051 0.0
H818 H 0.68072 0.17646 0.4138 0.0
C819 C 0.67247 0.1199 0.2746 0.0
C820 C 0.94341 0.55552 0.17525 0.0
C821 C 0.91644 0.54987 0.13212 0.0
H822 H 0.97253 0.56228 0.3379 0.0
C823 C 0.89751 0.54564 0.22587 0.0
H824 H 0.95818 0.55789 0.10634 0.0
C825 C 0.90543 0.54738 0.3588 0.0
C826 C 0.9326 0.55366 0.40209 0.0
H827 H 0.87642 0.54093 0.19642 0.0
H828 H 0.89032 0.544 0.42762 0.0
C829 C 0.95147 0.55767 0.30837 0.0
C830 C 0.45691 0.33726 0.1794 0.0
C831 C 0.46937 0.35727 0.0965 0.0
H832 H 0.447 0.32691 0.37305 0.0
C833 C 0.48184 0.38312 0.15134 0.0
H834 H 0.44716 0.31712 0.14106 0.0
C835 C 0.48156 0.38872 0.28472 0.0
C836 C 0.46908 0.36867 0.36747 0.0
H837 H 0.49186 0.39906 0.09124 0.0
H838 H 0.49126 0.40884 0.32323 0.0
C839 C 0.45685 0.34286 0.31282 0.0
C840 C 0.4055 0.93466 0.77625 0.0
C841 C 0.38959 0.91777 0.66593 0.0
H842 H 0.41255 0.94018 0.98412 0.0
C843 C 0.36733 0.89312 0.6858 0.0
H844 H 0.42305 0.95371 0.7652 0.0
C845 C 0.36074 0.8858 0.81173 0.0
C846 C 0.37642 0.90277 0.92212 0.0
H847 H 0.35483 0.87953 0.60405 0.0
H848 H 0.34324 0.8667 0.82258 0.0
C849 C 0.39924 0.92712 0.90237 0.0
C850 C 0.16661 0.49442 0.79888 0.0
C851 C 0.17883 0.48001 0.84015 0.0
H852 H 0.15554 0.51009 0.63951 0.0
C853 C 0.18949 0.47025 0.747 0.0
H854 H 0.15798 0.50206 0.8677 0.0
C855 C 0.18802 0.47478 0.61607 0.0
C856 C 0.17571 0.48911 0.57465 0.0
H857 H 0.19902 0.45906 0.77532 0.0
H858 H 0.19678 0.46726 0.54748 0.0
C859 C 0.16506 0.4989 0.66784 0.0
C860 C 0.58732 0.68013 0.85404 0.0
C861 C 0.58775 0.70314 0.8943 0.0
H862 H 0.58697 0.65549 0.69484 0.0
C863 C 0.58728 0.71883 0.7982 0.0
H864 H 0.58672 0.66717 0.92414 0.0
C865 C 0.58669 0.71185 0.66589 0.0
C866 C 0.58675 0.68905 0.62602 0.0
H867 H 0.5873 0.73659 0.82531 0.0
H868 H 0.58641 0.7244 0.59502 0.0
C869 C 0.5871 0.67331 0.72196 0.0
C870 C 0.37311 0.50267 0.84142 0.0
C871 C 0.37114 0.47966 0.88014 0.0
H872 H 0.37822 0.5266 0.6859 0.0
C873 C 0.37351 0.46309 0.78638 0.0
H874 H 0.37139 0.51587 0.9107 0.0
C875 C 0.37762 0.46929 0.6573 0.0
C876 C 0.37922 0.49214 0.61814 0.0
H877 H 0.37228 0.44526 0.81292 0.0
H878 H 0.37958 0.4562 0.58834 0.0
C879 C 0.37698 0.50876 0.7122 0.0
C880 C 0.57272 0.93185 0.89635 0.0
C881 C 0.58528 0.91774 0.93826 0.0
H882 H 0.56267 0.94851 0.73787 0.0
C883 C 0.59737 0.90934 0.84571 0.0
H884 H 0.56303 0.93851 0.96418 0.0
C885 C 0.59694 0.91488 0.71551 0.0
C886 C 0.58447 0.92906 0.6736 0.0
H887 H 0.60722 0.89843 0.87393 0.0
H888 H 0.60665 0.90823 0.6478 0.0
C889 C 0.57243 0.93752 0.76615 0.0
C890 C 0.15739 0.7127 0.70726 0.0
C891 C 0.16417 0.69377 0.66996 0.0
H892 H 0.15049 0.73321 0.86345 0.0
C893 C 0.17013 0.68134 0.76833 0.0
H894 H 0.15352 0.72321 0.63532 0.0
C895 C 0.16914 0.68754 0.89996 0.0
C896 C 0.16185 0.70612 0.93699 0.0
H897 H 0.17577 0.66685 0.74361 0.0
H898 H 0.17397 0.67771 0.97246 0.0
C899 C 0.15598 0.71861 0.83869 0.0
loop_
_geom_bond_atom_site_label_1
_geom_bond_atom_site_label_2
_geom_bond_distance
_geom_bond_site_symmetry_2
_ccdc_geom_bond_type
Tb0 O3 2.452 1_655 S
Tb0 O4 2.592 1_655 S
Tb0 O5 2.362 1_655 S
Tb0 O13 2.341 1_655 S
Tb0 O15 2.363 . S
Tb0 O17 2.434 . S
Tb0 O18 2.510 . S
C1 O5 1.251 . S
C1 O7 1.263 . S
Tb2 O4 2.343 . S
Tb2 O7 2.353 . S
Tb2 O10 2.427 . S
Tb2 O11 2.513 . S
Tb2 O12 2.453 . S
Tb2 O13 2.596 . S
Tb2 O14 2.374 . S
O3 Tb0 2.452 1_455 S
O3 C19 1.245 . S
O4 Tb0 2.592 1_455 S
O4 Tb2 2.343 . S
O4 C19 1.259 . S
O5 Tb0 2.362 1_455 S
O5 C1 1.251 . S
C6 O10 1.275 . S
C6 O11 1.246 . S
O7 C1 1.263 . S
O7 Tb2 2.353 . S
C8 O12 1.245 . S
C8 O13 1.259 . S
C9 O14 1.250 1_655 S
C9 O15 1.263 . S
O10 Tb2 2.427 . S
O10 C6 1.275 . S
O11 Tb2 2.513 . S
O11 C6 1.246 . S
O12 Tb2 2.453 . S
O12 C8 1.245 . S
O13 Tb0 2.341 1_455 S
O13 Tb2 2.596 . S
O13 C8 1.259 . S
O14 Tb2 2.374 . S
O14 C9 1.250 1_455 S
O15 Tb0 2.363 . S
O15 C9 1.263 . S
C16 O17 1.275 . S
C16 O18 1.246 . S
O17 Tb0 2.434 . S
O17 C16 1.275 . S
O18 Tb0 2.510 . S
O18 C16 1.246 . S
C19 O3 1.245 . S
C19 O4 1.259 . S
Tb20 O23 2.453 . S
Tb20 O24 2.596 . S
Tb20 O25 2.374 . S
Tb20 O33 2.343 . S
Tb20 O35 2.353 . S
Tb20 O37 2.427 . S
Tb20 O38 2.513 . S
C21 O25 1.251 . S
C21 O27 1.263 . S
Tb22 O24 2.343 . S
Tb22 O27 2.353 . S
Tb22 O30 2.427 . S
Tb22 O31 2.513 . S
Tb22 O32 2.453 . S
Tb22 O33 2.596 . S
Tb22 O34 2.374 . S
O23 Tb20 2.453 . S
O23 C39 1.245 . S
O24 Tb20 2.596 . S
O24 Tb22 2.343 . S
O24 C39 1.259 . S
O25 Tb20 2.374 . S
O25 C21 1.251 . S
C26 O30 1.275 . S
C26 O31 1.246 . S
O27 C21 1.263 . S
O27 Tb22 2.353 . S
C28 O32 1.245 . S
C28 O33 1.259 . S
C29 O34 1.250 . S
C29 O35 1.263 . S
O30 Tb22 2.427 . S
O30 C26 1.275 . S
O31 Tb22 2.513 . S
O31 C26 1.246 . S
O32 Tb22 2.453 . S
O32 C28 1.245 . S
O33 Tb20 2.343 . S
O33 Tb22 2.596 . S
O33 C28 1.259 . S
O34 Tb22 2.374 . S
O34 C29 1.250 . S
O35 Tb20 2.353 . S
O35 C29 1.263 . S
C36 O37 1.275 . S
C36 O38 1.246 . S
O37 Tb20 2.427 . S
O37 C36 1.275 . S
O38 Tb20 2.513 . S
O38 C36 1.246 . S
C39 O23 1.245 . S
C39 O24 1.259 . S
Tb40 O43 2.453 . S
Tb40 O44 2.596 . S
Tb40 O45 2.374 1_545 S
Tb40 O53 2.343 . S
Tb40 O55 2.353 . S
Tb40 O57 2.427 . S
Tb40 O58 2.513 . S
C41 O45 1.251 . S
C41 O47 1.263 . S
Tb42 O44 2.343 1_565 S
Tb42 O47 2.353 . S
Tb42 O50 2.427 . S
Tb42 O51 2.513 . S
Tb42 O52 2.453 . S
Tb42 O53 2.596 1_565 S
Tb42 O54 2.374 1_565 S
O43 Tb40 2.453 . S
O43 C59 1.245 . S
O44 Tb40 2.596 . S
O44 Tb42 2.343 1_545 S
O44 C59 1.259 . S
O45 Tb40 2.374 1_565 S
O45 C41 1.251 . S
C46 O50 1.275 . S
C46 O51 1.246 . S
O47 C41 1.263 . S
O47 Tb42 2.353 . S
C48 O52 1.245 1_545 S
C48 O53 1.259 . S
C49 O54 1.250 . S
C49 O55 1.263 . S
O50 Tb42 2.427 . S
O50 C46 1.275 . S
O51 Tb42 2.513 . S
O51 C46 1.246 . S
O52 Tb42 2.453 . S
O52 C48 1.245 1_565 S
O53 Tb40 2.343 . S
O53 Tb42 2.596 1_545 S
O53 C48 1.259 . S
O54 Tb42 2.374 1_545 S
O54 C49 1.250 . S
O55 Tb40 2.353 . S
O55 C49 1.263 . S
C56 O57 1.275 . S
C56 O58 1.246 . S
O57 Tb40 2.427 . S
O57 C56 1.275 . S
O58 Tb40 2.513 . S
O58 C56 1.246 . S
C59 O43 1.245 . S
C59 O44 1.259 . S
Tb60 O63 2.454 . S
Tb60 O64 2.596 1_655 S
Tb60 O65 2.374 1_655 S
Tb60 O73 2.343 1_655 S
Tb60 O75 2.353 . S
Tb60 O77 2.427 . S
Tb60 O78 2.513 . S
C61 O65 1.251 . S
C61 O67 1.263 . S
Tb62 O64 2.343 . S
Tb62 O67 2.353 . S
Tb62 O70 2.427 . S
Tb62 O71 2.513 . S
Tb62 O72 2.453 . S
Tb62 O73 2.596 . S
Tb62 O74 2.374 . S
O63 Tb60 2.454 . S
O63 C79 1.240 1_655 S
O64 Tb60 2.596 1_455 S
O64 Tb62 2.343 . S
O64 C79 1.259 . S
O65 Tb60 2.374 1_455 S
O65 C61 1.251 . S
C66 O70 1.275 . S
C66 O71 1.246 . S
O67 C61 1.263 . S
O67 Tb62 2.353 . S
C68 O72 1.245 . S
C68 O73 1.259 . S
C69 O74 1.250 1_655 S
C69 O75 1.263 . S
O70 Tb62 2.427 . S
O70 C66 1.275 . S
O71 Tb62 2.513 . S
O71 C66 1.246 . S
O72 Tb62 2.453 . S
O72 C68 1.245 . S
O73 Tb60 2.343 1_455 S
O73 Tb62 2.596 . S
O73 C68 1.259 . S
O74 Tb62 2.374 . S
O74 C69 1.250 1_455 S
O75 Tb60 2.353 . S
O75 C69 1.263 . S
C76 O77 1.275 . S
C76 O78 1.246 . S
O77 Tb60 2.427 . S
O77 C76 1.275 . S
O78 Tb60 2.513 . S
O78 C76 1.246 . S
C79 O63 1.240 1_455 S
C79 O64 1.259 . S
Tb80 O83 2.453 . S
Tb80 O84 2.596 . S
Tb80 O85 2.374 . S
Tb80 O93 2.343 . S
Tb80 O95 2.353 . S
Tb80 O97 2.427 . S
Tb80 O98 2.513 . S
C81 O85 1.251 . S
C81 O87 1.263 . S
Tb82 O84 2.343 . S
Tb82 O87 2.353 . S
Tb82 O90 2.427 . S
Tb82 O91 2.513 . S
Tb82 O92 2.453 . S
Tb82 O93 2.596 . S
Tb82 O94 2.374 . S
O83 Tb80 2.453 . S
O83 C99 1.245 . S
O84 Tb80 2.596 . S
O84 Tb82 2.343 . S
O84 C99 1.259 . S
O85 Tb80 2.374 . S
O85 C81 1.251 . S
C86 O90 1.275 . S
C86 O91 1.246 . S
O87 C81 1.263 . S
O87 Tb82 2.353 . S
C88 O92 1.245 . S
C88 O93 1.259 . S
C89 O94 1.250 . S
C89 O95 1.263 . S
O90 Tb82 2.427 . S
O90 C86 1.275 . S
O91 Tb82 2.513 . S
O91 C86 1.246 . S
O92 Tb82 2.453 . S
O92 C88 1.245 . S
O93 Tb80 2.343 . S
O93 Tb82 2.596 . S
O93 C88 1.259 . S
O94 Tb82 2.374 . S
O94 C89 1.250 . S
O95 Tb80 2.353 . S
O95 C89 1.263 . S
C96 O97 1.275 . S
C96 O98 1.246 . S
O97 Tb80 2.427 . S
O97 C96 1.275 . S
O98 Tb80 2.513 . S
O98 C96 1.246 . S
C99 O83 1.245 . S
C99 O84 1.259 . S
Tb100 O103 2.453 . S
Tb100 O104 2.596 . S
Tb100 O105 2.374 . S
Tb100 O113 2.343 . S
Tb100 O115 2.353 . S
Tb100 O117 2.427 . S
Tb100 O118 2.513 . S
C101 O105 1.251 1_565 S
C101 O107 1.263 . S
Tb102 O104 2.343 1_565 S
Tb102 O107 2.353 . S
Tb102 O110 2.427 . S
Tb102 O111 2.513 . S
Tb102 O112 2.453 1_565 S
Tb102 O113 2.596 1_565 S
Tb102 O114 2.374 1_565 S
O103 Tb100 2.453 . S
O103 C119 1.245 . S
O104 Tb100 2.596 . S
O104 Tb102 2.343 1_545 S
O104 C119 1.259 . S
O105 Tb100 2.374 . S
O105 C101 1.251 1_545 S
C106 O110 1.275 . S
C106 O111 1.246 . S
O107 C101 1.263 . S
O107 Tb102 2.353 . S
C108 O112 1.245 . S
C108 O113 1.259 . S
C109 O114 1.250 . S
C109 O115 1.263 . S
O110 Tb102 2.427 . S
O110 C106 1.275 . S
O111 Tb102 2.513 . S
O111 C106 1.246 . S
O112 Tb102 2.453 1_545 S
O112 C108 1.245 . S
O113 Tb100 2.343 . S
O113 Tb102 2.596 1_545 S
O113 C108 1.259 . S
O114 Tb102 2.374 1_545 S
O114 C109 1.250 . S
O115 Tb100 2.353 . S
O115 C109 1.263 . S
C116 O117 1.275 . S
C116 O118 1.246 . S
O117 Tb100 2.427 . S
O117 C116 1.275 . S
O118 Tb100 2.513 . S
O118 C116 1.246 . S
C119 O103 1.245 . S
C119 O104 1.259 . S
Tb120 O123 2.453 . S
Tb120 O124 2.596 . S
Tb120 O125 2.374 . S
Tb120 O133 2.343 . S
Tb120 O135 2.353 . S
Tb120 O137 2.427 . S
Tb120 O138 2.513 . S
C121 O125 1.251 . S
C121 O127 1.263 . S
Tb122 O124 2.343 . S
Tb122 O127 2.353 . S
Tb122 O130 2.427 . S
Tb122 O131 2.513 . S
Tb122 O132 2.453 . S
Tb122 O133 2.596 . S
Tb122 O134 2.374 . S
O123 Tb120 2.453 . S
O123 C139 1.245 . S
O124 Tb120 2.596 . S
O124 Tb122 2.343 . S
O124 C139 1.259 . S
O125 Tb120 2.374 . S
O125 C121 1.251 . S
C126 O130 1.275 . S
C126 O131 1.246 . S
O127 C121 1.263 . S
O127 Tb122 2.353 . S
C128 O132 1.245 . S
C128 O133 1.259 . S
C129 O134 1.250 . S
C129 O135 1.263 . S
O130 Tb122 2.427 . S
O130 C126 1.275 . S
O131 Tb122 2.513 . S
O131 C126 1.246 . S
O132 Tb122 2.453 . S
O132 C128 1.245 . S
O133 Tb120 2.343 . S
O133 Tb122 2.596 . S
O133 C128 1.259 . S
O134 Tb122 2.374 . S
O134 C129 1.250 . S
O135 Tb120 2.353 . S
O135 C129 1.263 . S
C136 O137 1.275 . S
C136 O138 1.246 . S
O137 Tb120 2.427 . S
O137 C136 1.275 . S
O138 Tb120 2.513 . S
O138 C136 1.246 . S
C139 O123 1.245 . S
C139 O124 1.259 . S
Tb140 O143 2.453 . S
Tb140 O144 2.596 . S
Tb140 O145 2.374 . S
Tb140 O153 2.343 . S
Tb140 O155 2.353 . S
Tb140 O157 2.427 . S
Tb140 O158 2.513 . S
C141 O145 1.251 . S
C141 O147 1.263 . S
Tb142 O144 2.343 . S
Tb142 O147 2.353 . S
Tb142 O150 2.427 . S
Tb142 O151 2.513 . S
Tb142 O152 2.453 . S
Tb142 O153 2.596 . S
Tb142 O154 2.374 . S
O143 Tb140 2.453 . S
O143 C159 1.245 . S
O144 Tb140 2.596 . S
O144 Tb142 2.343 . S
O144 C159 1.259 . S
O145 Tb140 2.374 . S
O145 C141 1.251 . S
C146 O150 1.275 . S
C146 O151 1.246 . S
O147 C141 1.263 . S
O147 Tb142 2.353 . S
C148 O152 1.245 . S
C148 O153 1.259 . S
C149 O154 1.250 . S
C149 O155 1.263 . S
O150 Tb142 2.427 . S
O150 C146 1.275 . S
O151 Tb142 2.513 . S
O151 C146 1.246 . S
O152 Tb142 2.453 . S
O152 C148 1.245 . S
O153 Tb140 2.343 . S
O153 Tb142 2.596 . S
O153 C148 1.259 . S
O154 Tb142 2.374 . S
O154 C149 1.250 . S
O155 Tb140 2.353 . S
O155 C149 1.263 . S
C156 O157 1.275 . S
C156 O158 1.246 . S
O157 Tb140 2.427 . S
O157 C156 1.275 . S
O158 Tb140 2.513 . S
O158 C156 1.246 . S
C159 O143 1.245 . S
C159 O144 1.259 . S
Tb160 O163 2.462 . S
Tb160 O164 2.596 . S
Tb160 O165 2.374 . S
Tb160 O173 2.343 . S
Tb160 O175 2.353 . S
Tb160 O177 2.427 . S
Tb160 O178 2.513 . S
C161 O165 1.251 . S
C161 O167 1.263 . S
Tb162 O164 2.343 . S
Tb162 O167 2.353 . S
Tb162 O170 2.427 . S
Tb162 O171 2.513 1_655 S
Tb162 O172 2.453 . S
Tb162 O173 2.596 . S
Tb162 O174 2.374 . S
O163 Tb160 2.462 . S
O163 C179 1.247 . S
O164 Tb160 2.596 . S
O164 Tb162 2.343 . S
O164 C179 1.259 . S
O165 Tb160 2.374 . S
O165 C161 1.251 . S
C166 O170 1.275 1_455 S
C166 O171 1.246 . S
O167 C161 1.263 . S
O167 Tb162 2.353 . S
C168 O172 1.245 . S
C168 O173 1.259 . S
C169 O174 1.250 . S
C169 O175 1.263 . S
O170 Tb162 2.427 . S
O170 C166 1.275 1_655 S
O171 Tb162 2.513 1_455 S
O171 C166 1.246 . S
O172 Tb162 2.453 . S
O172 C168 1.245 . S
O173 Tb160 2.343 . S
O173 Tb162 2.596 . S
O173 C168 1.259 . S
O174 Tb162 2.374 . S
O174 C169 1.250 . S
O175 Tb160 2.353 . S
O175 C169 1.263 . S
C176 O177 1.275 . S
C176 O178 1.246 . S
O177 Tb160 2.427 . S
O177 C176 1.275 . S
O178 Tb160 2.513 . S
O178 C176 1.246 . S
C179 O163 1.247 . S
C179 O164 1.259 . S
Tb180 O183 2.453 . S
Tb180 O184 2.596 . S
Tb180 O185 2.374 . S
Tb180 O193 2.343 . S
Tb180 O195 2.353 . S
Tb180 O197 2.427 . S
Tb180 O198 2.513 . S
C181 O185 1.251 . S
C181 O187 1.263 . S
Tb182 O184 2.343 . S
Tb182 O187 2.353 . S
Tb182 O190 2.427 . S
Tb182 O191 2.513 . S
Tb182 O192 2.453 1_556 S
Tb182 O193 2.596 . S
Tb182 O194 2.374 . S
O183 Tb180 2.453 . S
O183 C199 1.245 . S
O184 Tb180 2.596 . S
O184 Tb182 2.343 . S
O184 C199 1.259 . S
O185 Tb180 2.374 . S
O185 C181 1.251 . S
C186 O190 1.275 . S
C186 O191 1.246 . S
O187 C181 1.263 . S
O187 Tb182 2.353 . S
C188 O192 1.245 . S
C188 O193 1.259 1_554 S
C189 O194 1.250 . S
C189 O195 1.263 . S
O190 Tb182 2.427 . S
O190 C186 1.275 . S
O191 Tb182 2.513 . S
O191 C186 1.246 . S
O192 Tb182 2.453 1_554 S
O192 C188 1.245 . S
O193 Tb180 2.343 . S
O193 Tb182 2.596 . S
O193 C188 1.259 1_556 S
O194 Tb182 2.374 . S
O194 C189 1.250 . S
O195 Tb180 2.353 . S
O195 C189 1.263 . S
C196 O197 1.275 . S
C196 O198 1.246 . S
O197 Tb180 2.427 . S
O197 C196 1.275 . S
O198 Tb180 2.513 . S
O198 C196 1.246 . S
C199 O183 1.245 . S
C199 O184 1.259 . S
Tb200 O203 2.453 . S
Tb200 O204 2.596 . S
Tb200 O205 2.374 . S
Tb200 O213 2.343 . S
Tb200 O215 2.353 . S
Tb200 O217 2.427 . S
Tb200 O218 2.513 . S
C201 O205 1.251 . S
C201 O207 1.263 . S
Tb202 O204 2.343 . S
Tb202 O207 2.353 . S
Tb202 O210 2.427 . S
Tb202 O211 2.513 . S
Tb202 O212 2.453 1_556 S
Tb202 O213 2.596 . S
Tb202 O214 2.374 . S
O203 Tb200 2.453 . S
O203 C219 1.245 . S
O204 Tb200 2.596 . S
O204 Tb202 2.343 . S
O204 C219 1.259 . S
O205 Tb200 2.374 . S
O205 C201 1.251 . S
C206 O210 1.275 . S
C206 O211 1.246 . S
O207 C201 1.263 . S
O207 Tb202 2.353 . S
C208 O212 1.245 . S
C208 O213 1.259 1_554 S
C209 O214 1.250 . S
C209 O215 1.263 . S
O210 Tb202 2.427 . S
O210 C206 1.275 . S
O211 Tb202 2.513 . S
O211 C206 1.246 . S
O212 Tb202 2.453 1_554 S
O212 C208 1.245 . S
O213 Tb200 2.343 . S
O213 Tb202 2.596 . S
O213 C208 1.259 1_556 S
O214 Tb202 2.374 . S
O214 C209 1.250 . S
O215 Tb200 2.353 . S
O215 C209 1.263 . S
C216 O217 1.275 1_455 S
C216 O218 1.246 1_455 S
O217 Tb200 2.427 . S
O217 C216 1.275 1_655 S
O218 Tb200 2.513 . S
O218 C216 1.246 1_655 S
C219 O203 1.245 . S
C219 O204 1.259 . S
Tb220 O223 2.453 . S
Tb220 O224 2.596 . S
Tb220 O225 2.374 . S
Tb220 O233 2.343 . S
Tb220 O235 2.353 . S
Tb220 O237 2.427 . S
Tb220 O238 2.513 . S
C221 O225 1.251 . S
C221 O227 1.263 . S
Tb222 O224 2.343 . S
Tb222 O227 2.353 . S
Tb222 O230 2.427 . S
Tb222 O231 2.513 . S
Tb222 O232 2.453 1_556 S
Tb222 O233 2.596 . S
Tb222 O234 2.374 . S
O223 Tb220 2.453 . S
O223 C239 1.245 . S
O224 Tb220 2.596 . S
O224 Tb222 2.343 . S
O224 C239 1.259 . S
O225 Tb220 2.374 . S
O225 C221 1.251 . S
C226 O230 1.275 . S
C226 O231 1.246 . S
O227 C221 1.263 . S
O227 Tb222 2.353 . S
C228 O232 1.245 . S
C228 O233 1.259 1_554 S
C229 O234 1.250 . S
C229 O235 1.263 . S
O230 Tb222 2.427 . S
O230 C226 1.275 . S
O231 Tb222 2.513 . S
O231 C226 1.246 . S
O232 Tb222 2.453 1_554 S
O232 C228 1.245 . S
O233 Tb220 2.343 . S
O233 Tb222 2.596 . S
O233 C228 1.259 1_556 S
O234 Tb222 2.374 . S
O234 C229 1.250 . S
O235 Tb220 2.353 . S
O235 C229 1.263 . S
C236 O237 1.275 . S
C236 O238 1.246 . S
O237 Tb220 2.427 . S
O237 C236 1.275 . S
O238 Tb220 2.513 . S
O238 C236 1.246 . S
C239 O223 1.245 . S
C239 O224 1.259 . S
Tb240 O243 2.453 1_554 S
Tb240 O244 2.596 . S
Tb240 O245 2.374 . S
Tb240 O253 2.343 . S
Tb240 O255 2.353 . S
Tb240 O257 2.427 . S
Tb240 O258 2.513 . S
C241 O245 1.251 . S
C241 O247 1.263 . S
Tb242 O244 2.343 . S
Tb242 O247 2.353 . S
Tb242 O250 2.427 . S
Tb242 O251 2.513 . S
Tb242 O252 2.453 . S
Tb242 O253 2.596 . S
Tb242 O254 2.374 . S
O243 Tb240 2.453 1_556 S
O243 C259 1.245 . S
O244 Tb240 2.596 . S
O244 Tb242 2.343 . S
O244 C259 1.259 1_554 S
O245 Tb240 2.374 . S
O245 C241 1.251 . S
C246 O250 1.275 . S
C246 O251 1.246 . S
O247 C241 1.263 . S
O247 Tb242 2.353 . S
C248 O252 1.245 . S
C248 O253 1.259 . S
C249 O254 1.250 . S
C249 O255 1.263 . S
O250 Tb242 2.427 . S
O250 C246 1.275 . S
O251 Tb242 2.513 . S
O251 C246 1.246 . S
O252 Tb242 2.453 . S
O252 C248 1.245 . S
O253 Tb240 2.343 . S
O253 Tb242 2.596 . S
O253 C248 1.259 . S
O254 Tb242 2.374 . S
O254 C249 1.250 . S
O255 Tb240 2.353 . S
O255 C249 1.263 . S
C256 O257 1.275 . S
C256 O258 1.246 . S
O257 Tb240 2.427 . S
O257 C256 1.275 . S
O258 Tb240 2.513 . S
O258 C256 1.246 . S
C259 O243 1.245 . S
C259 O244 1.259 1_556 S
Tb260 O263 2.453 . S
Tb260 O264 2.596 . S
Tb260 O265 2.374 . S
Tb260 O273 2.343 . S
Tb260 O275 2.353 . S
Tb260 O277 2.427 . S
Tb260 O278 2.513 . S
C261 O265 1.251 . S
C261 O267 1.263 . S
Tb262 O264 2.343 . S
Tb262 O267 2.353 . S
Tb262 O270 2.427 . S
Tb262 O271 2.513 . S
Tb262 O272 2.453 1_554 S
Tb262 O273 2.596 . S
Tb262 O274 2.374 . S
O263 Tb260 2.453 . S
O263 C279 1.245 . S
O264 Tb260 2.596 . S
O264 Tb262 2.343 . S
O264 C279 1.259 . S
O265 Tb260 2.374 . S
O265 C261 1.251 . S
C266 O270 1.275 . S
C266 O271 1.246 . S
O267 C261 1.263 . S
O267 Tb262 2.353 . S
C268 O272 1.245 . S
C268 O273 1.259 1_556 S
C269 O274 1.250 . S
C269 O275 1.263 . S
O270 Tb262 2.427 . S
O270 C266 1.275 . S
O271 Tb262 2.513 . S
O271 C266 1.246 . S
O272 Tb262 2.453 1_556 S
O272 C268 1.245 . S
O273 Tb260 2.343 . S
O273 Tb262 2.596 . S
O273 C268 1.259 1_554 S
O274 Tb262 2.374 . S
O274 C269 1.250 . S
O275 Tb260 2.353 . S
O275 C269 1.263 . S
C276 O277 1.275 . S
C276 O278 1.246 . S
O277 Tb260 2.427 . S
O277 C276 1.275 . S
O278 Tb260 2.513 . S
O278 C276 1.246 . S
C279 O263 1.245 . S
C279 O264 1.259 . S
Tb280 O283 2.453 1_554 S
Tb280 O284 2.596 . S
Tb280 O285 2.374 . S
Tb280 O293 2.343 . S
Tb280 O295 2.353 . S
Tb280 O297 2.427 . S
Tb280 O298 2.513 . S
C281 O285 1.251 . S
C281 O287 1.263 . S
Tb282 O284 2.343 . S
Tb282 O287 2.353 . S
Tb282 O290 2.427 . S
Tb282 O291 2.513 . S
Tb282 O292 2.453 . S
Tb282 O293 2.596 . S
Tb282 O294 2.374 . S
O283 Tb280 2.453 1_556 S
O283 C299 1.245 . S
O284 Tb280 2.596 . S
O284 Tb282 2.343 . S
O284 C299 1.259 1_554 S
O285 Tb280 2.374 . S
O285 C281 1.251 . S
C286 O290 1.275 . S
C286 O291 1.246 . S
O287 C281 1.263 . S
O287 Tb282 2.353 . S
C288 O292 1.245 . S
C288 O293 1.259 . S
C289 O294 1.250 . S
C289 O295 1.263 . S
O290 Tb282 2.427 . S
O290 C286 1.275 . S
O291 Tb282 2.513 . S
O291 C286 1.246 . S
O292 Tb282 2.453 . S
O292 C288 1.245 . S
O293 Tb280 2.343 . S
O293 Tb282 2.596 . S
O293 C288 1.259 . S
O294 Tb282 2.374 . S
O294 C289 1.250 . S
O295 Tb280 2.353 . S
O295 C289 1.263 . S
C296 O297 1.275 . S
C296 O298 1.246 . S
O297 Tb280 2.427 . S
O297 C296 1.275 . S
O298 Tb280 2.513 . S
O298 C296 1.246 . S
C299 O283 1.245 . S
C299 O284 1.259 1_556 S
Tb300 O303 2.453 1_554 S
Tb300 O304 2.596 . S
Tb300 O305 2.374 . S
Tb300 O313 2.343 . S
Tb300 O315 2.353 . S
Tb300 O317 2.427 . S
Tb300 O318 2.513 . S
C301 O305 1.251 . S
C301 O307 1.263 . S
Tb302 O304 2.343 . S
Tb302 O307 2.353 . S
Tb302 O310 2.427 . S
Tb302 O311 2.513 . S
Tb302 O312 2.453 . S
Tb302 O313 2.596 . S
Tb302 O314 2.374 . S
O303 Tb300 2.453 1_556 S
O303 C319 1.245 . S
O304 Tb300 2.596 . S
O304 Tb302 2.343 . S
O304 C319 1.259 1_554 S
O305 Tb300 2.374 . S
O305 C301 1.251 . S
C306 O310 1.275 . S
C306 O311 1.246 . S
O307 C301 1.263 . S
O307 Tb302 2.353 . S
C308 O312 1.245 . S
C308 O313 1.259 . S
C309 O314 1.250 . S
C309 O315 1.263 . S
O310 Tb302 2.427 . S
O310 C306 1.275 . S
O311 Tb302 2.513 . S
O311 C306 1.246 . S
O312 Tb302 2.453 . S
O312 C308 1.245 . S
O313 Tb300 2.343 . S
O313 Tb302 2.596 . S
O313 C308 1.259 . S
O314 Tb302 2.374 . S
O314 C309 1.250 . S
O315 Tb300 2.353 . S
O315 C309 1.263 . S
C316 O317 1.275 . S
C316 O318 1.246 . S
O317 Tb300 2.427 . S
O317 C316 1.275 . S
O318 Tb300 2.513 . S
O318 C316 1.246 . S
C319 O303 1.245 . S
C319 O304 1.259 1_556 S
Tb320 O323 2.453 . S
Tb320 O324 2.596 . S
Tb320 O325 2.374 . S
Tb320 O333 2.343 . S
Tb320 O335 2.353 . S
Tb320 O337 2.427 . S
Tb320 O338 2.513 . S
C321 O325 1.251 . S
C321 O327 1.263 . S
Tb322 O324 2.343 . S
Tb322 O327 2.353 . S
Tb322 O330 2.427 . S
Tb322 O331 2.513 . S
Tb322 O332 2.453 . S
Tb322 O333 2.596 . S
Tb322 O334 2.374 . S
O323 Tb320 2.453 . S
O323 C339 1.245 . S
O324 Tb320 2.596 . S
O324 Tb322 2.343 . S
O324 C339 1.259 . S
O325 Tb320 2.374 . S
O325 C321 1.251 . S
C326 O330 1.275 . S
C326 O331 1.246 . S
O327 C321 1.263 . S
O327 Tb322 2.353 . S
C328 O332 1.245 . S
C328 O333 1.259 . S
C329 O334 1.250 . S
C329 O335 1.263 . S
O330 Tb322 2.427 . S
O330 C326 1.275 . S
O331 Tb322 2.513 . S
O331 C326 1.246 . S
O332 Tb322 2.453 . S
O332 C328 1.245 . S
O333 Tb320 2.343 . S
O333 Tb322 2.596 . S
O333 C328 1.259 . S
O334 Tb322 2.374 . S
O334 C329 1.250 . S
O335 Tb320 2.353 . S
O335 C329 1.263 . S
C336 O337 1.275 . S
C336 O338 1.246 . S
O337 Tb320 2.427 . S
O337 C336 1.275 . S
O338 Tb320 2.513 . S
O338 C336 1.246 . S
C339 O323 1.245 . S
C339 O324 1.259 . S
Tb340 O343 2.453 1_554 S
Tb340 O344 2.596 . S
Tb340 O345 2.374 . S
Tb340 O353 2.343 . S
Tb340 O355 2.353 . S
Tb340 O357 2.427 . S
Tb340 O358 2.513 . S
C341 O345 1.251 . S
C341 O347 1.263 . S
Tb342 O344 2.343 . S
Tb342 O347 2.353 . S
Tb342 O350 2.427 . S
Tb342 O351 2.513 . S
Tb342 O352 2.453 . S
Tb342 O353 2.596 . S
Tb342 O354 2.374 . S
O343 Tb340 2.453 1_556 S
O343 C359 1.245 . S
O344 Tb340 2.596 . S
O344 Tb342 2.343 . S
O344 C359 1.259 1_554 S
O345 Tb340 2.374 . S
O345 C341 1.251 . S
C346 O350 1.275 . S
C346 O351 1.246 . S
O347 C341 1.263 . S
O347 Tb342 2.353 . S
C348 O352 1.245 . S
C348 O353 1.259 . S
C349 O354 1.250 . S
C349 O355 1.263 . S
O350 Tb342 2.427 . S
O350 C346 1.275 . S
O351 Tb342 2.513 . S
O351 C346 1.246 . S
O352 Tb342 2.453 . S
O352 C348 1.245 . S
O353 Tb340 2.343 . S
O353 Tb342 2.596 . S
O353 C348 1.259 . S
O354 Tb342 2.374 . S
O354 C349 1.250 . S
O355 Tb340 2.353 . S
O355 C349 1.263 . S
C356 O357 1.275 . S
C356 O358 1.246 . S
O357 Tb340 2.427 . S
O357 C356 1.275 . S
O358 Tb340 2.513 . S
O358 C356 1.246 . S
C359 O343 1.245 . S
C359 O344 1.259 1_556 S
C360 C361 1.387 . S
C360 H364 0.950 . S
C360 C369 1.390 . S
C361 C360 1.387 . S
C361 C363 1.387 . S
H362 C369 0.950 . S
C363 C361 1.387 . S
C363 C365 1.390 . S
C363 H367 0.950 . S
H364 C360 0.950 . S
C365 C363 1.390 . S
C365 C366 1.387 . S
C365 H368 0.950 . S
C366 C365 1.387 . S
C366 C369 1.387 . S
H367 C363 0.950 . S
H368 C365 0.950 . S
C369 C360 1.390 . S
C369 H362 0.950 . S
C369 C366 1.387 . S
C370 C371 1.387 . S
C370 H374 0.950 . S
C370 C379 1.390 . S
C371 C370 1.387 . S
C371 C373 1.387 . S
H372 C379 0.950 . S
C373 C371 1.387 . S
C373 C375 1.390 . S
C373 H377 0.950 . S
H374 C370 0.950 . S
C375 C373 1.390 . S
C375 C376 1.387 . S
C375 H378 0.950 . S
C376 C375 1.387 . S
C376 C379 1.387 . S
H377 C373 0.950 . S
H378 C375 0.950 . S
C379 C370 1.390 . S
C379 H372 0.950 . S
C379 C376 1.387 . S
C380 C381 1.387 . S
C380 H384 0.950 . S
C380 C389 1.390 . S
C381 C380 1.387 . S
C381 C383 1.387 . S
H382 C389 0.950 . S
C383 C381 1.387 . S
C383 C385 1.390 . S
C383 H387 0.950 . S
H384 C380 0.950 . S
C385 C383 1.390 . S
C385 C386 1.387 . S
C385 H388 0.950 . S
C386 C385 1.387 . S
C386 C389 1.387 . S
H387 C383 0.950 . S
H388 C385 0.950 . S
C389 C380 1.390 . S
C389 H382 0.950 . S
C389 C386 1.387 . S
C390 C391 1.387 . S
C390 H394 0.950 . S
C390 C399 1.390 . S
C391 C390 1.387 . S
C391 C393 1.387 . S
H392 C399 0.950 . S
C393 C391 1.387 . S
C393 C395 1.390 . S
C393 H397 0.950 . S
H394 C390 0.950 . S
C395 C393 1.390 . S
C395 C396 1.387 . S
C395 H398 0.950 . S
C396 C395 1.387 . S
C396 C399 1.387 . S
H397 C393 0.950 . S
H398 C395 0.950 . S
C399 C390 1.390 . S
C399 H392 0.950 . S
C399 C396 1.387 . S
C400 C401 1.387 . S
C400 H404 0.950 . S
C400 C409 1.390 . S
C401 C400 1.387 . S
C401 C403 1.387 . S
H402 C409 0.950 . S
C403 C401 1.387 . S
C403 C405 1.390 . S
C403 H407 0.950 . S
H404 C400 0.950 . S
C405 C403 1.390 . S
C405 C406 1.387 . S
C405 H408 0.950 . S
C406 C405 1.387 . S
C406 C409 1.387 . S
H407 C403 0.950 . S
H408 C405 0.950 . S
C409 C400 1.390 . S
C409 H402 0.950 . S
C409 C406 1.387 . S
C410 C411 1.387 . S
C410 H414 0.950 . S
C410 C419 1.390 . S
C411 C410 1.387 . S
C411 C413 1.387 . S
H412 C419 0.950 . S
C413 C411 1.387 . S
C413 C415 1.390 . S
C413 H417 0.950 . S
H414 C410 0.950 . S
C415 C413 1.390 . S
C415 C416 1.387 . S
C415 H418 0.950 . S
C416 C415 1.387 . S
C416 C419 1.387 . S
H417 C413 0.950 . S
H418 C415 0.950 . S
C419 C410 1.390 . S
C419 H412 0.950 . S
C419 C416 1.387 . S
C420 C421 1.387 . S
C420 H424 0.950 . S
C420 C429 1.390 . S
C421 C420 1.387 . S
C421 C423 1.387 . S
H422 C429 0.950 . S
C423 C421 1.387 . S
C423 C425 1.390 . S
C423 H427 0.950 . S
H424 C420 0.950 . S
C425 C423 1.390 . S
C425 C426 1.387 . S
C425 H428 0.950 . S
C426 C425 1.387 . S
C426 C429 1.387 . S
H427 C423 0.950 . S
H428 C425 0.950 . S
C429 C420 1.390 . S
C429 H422 0.950 . S
C429 C426 1.387 . S
C430 C431 1.387 . S
C430 H434 0.950 . S
C430 C439 1.390 . S
C431 C430 1.387 . S
C431 C433 1.387 . S
H432 C439 0.950 . S
C433 C431 1.387 . S
C433 C435 1.390 . S
C433 H437 0.950 . S
H434 C430 0.950 . S
C435 C433 1.390 . S
C435 C436 1.387 . S
C435 H438 0.950 . S
C436 C435 1.387 . S
C436 C439 1.387 . S
H437 C433 0.950 . S
H438 C435 0.950 . S
C439 C430 1.390 . S
C439 H432 0.950 . S
C439 C436 1.387 . S
C440 C441 1.387 . S
C440 H444 0.950 . S
C440 C449 1.390 . S
C441 C440 1.387 . S
C441 C443 1.387 . S
H442 C449 0.950 . S
C443 C441 1.387 . S
C443 C445 1.390 . S
C443 H447 0.950 . S
H444 C440 0.950 . S
C445 C443 1.390 . S
C445 C446 1.387 . S
C445 H448 0.950 . S
C446 C445 1.387 . S
C446 C449 1.387 . S
H447 C443 0.950 . S
H448 C445 0.950 . S
C449 C440 1.390 . S
C449 H442 0.950 . S
C449 C446 1.387 . S
C450 C451 1.387 . S
C450 H454 0.950 . S
C450 C459 1.390 . S
C451 C450 1.387 . S
C451 C453 1.387 . S
H452 C459 0.950 . S
C453 C451 1.387 . S
C453 C455 1.390 . S
C453 H457 0.950 . S
H454 C450 0.950 . S
C455 C453 1.390 . S
C455 C456 1.387 . S
C455 H458 0.950 . S
C456 C455 1.387 . S
C456 C459 1.387 . S
H457 C453 0.950 . S
H458 C455 0.950 . S
C459 C450 1.390 . S
C459 H452 0.950 . S
C459 C456 1.387 . S
C460 C461 1.387 . S
C460 H464 0.950 . S
C460 C469 1.390 . S
C461 C460 1.387 . S
C461 C463 1.387 . S
H462 C469 0.950 . S
C463 C461 1.387 . S
C463 C465 1.390 . S
C463 H467 0.950 . S
H464 C460 0.950 . S
C465 C463 1.390 . S
C465 C466 1.387 . S
C465 H468 0.950 . S
C466 C465 1.387 . S
C466 C469 1.387 . S
H467 C463 0.950 . S
H468 C465 0.950 . S
C469 C460 1.390 . S
C469 H462 0.950 . S
C469 C466 1.387 . S
C470 C471 1.387 . S
C470 H474 0.950 . S
C470 C479 1.390 . S
C471 C470 1.387 . S
C471 C473 1.387 . S
H472 C479 0.950 . S
C473 C471 1.387 . S
C473 C475 1.390 . S
C473 H477 0.950 . S
H474 C470 0.950 . S
C475 C473 1.390 . S
C475 C476 1.387 . S
C475 H478 0.950 . S
C476 C475 1.387 . S
C476 C479 1.387 . S
H477 C473 0.950 . S
H478 C475 0.950 . S
C479 C470 1.390 . S
C479 H472 0.950 . S
C479 C476 1.387 . S
C480 C481 1.387 1_554 S
C480 H484 0.950 . S
C480 C489 1.390 . S
C481 C480 1.387 1_556 S
C481 C483 1.387 . S
H482 C489 0.950 . S
C483 C481 1.387 . S
C483 C485 1.390 . S
C483 H487 0.950 . S
H484 C480 0.950 . S
C485 C483 1.390 . S
C485 C486 1.387 1_556 S
C485 H488 0.950 . S
C486 C485 1.387 1_554 S
C486 C489 1.387 . S
H487 C483 0.950 . S
H488 C485 0.950 . S
C489 C480 1.390 . S
C489 H482 0.950 . S
C489 C486 1.387 . S
C490 C491 1.387 1_554 S
C490 H494 0.950 . S
C490 C499 1.390 . S
C491 C490 1.387 1_556 S
C491 C493 1.387 . S
H492 C499 0.950 . S
C493 C491 1.387 . S
C493 C495 1.390 . S
C493 H497 0.950 . S
H494 C490 0.950 . S
C495 C493 1.390 . S
C495 C496 1.387 1_556 S
C495 H498 0.950 . S
C496 C495 1.387 1_554 S
C496 C499 1.387 . S
H497 C493 0.950 . S
H498 C495 0.950 . S
C499 C490 1.390 . S
C499 H492 0.950 . S
C499 C496 1.387 . S
C500 C501 1.387 . S
C500 H504 0.950 1_556 S
C500 C509 1.390 1_556 S
C501 C500 1.387 . S
C501 C503 1.387 . S
H502 C509 0.950 . S
C503 C501 1.387 . S
C503 C505 1.390 1_545 S
C503 H507 0.950 . S
H504 C500 0.950 1_554 S
C505 C503 1.390 1_565 S
C505 C506 1.387 1_556 S
C505 H508 0.950 . S
C506 C505 1.387 1_554 S
C506 C509 1.387 1_565 S
H507 C503 0.950 . S
H508 C505 0.950 . S
C509 C500 1.390 1_554 S
C509 H502 0.950 . S
C509 C506 1.387 1_545 S
C510 C511 1.387 1_554 S
C510 H514 0.950 . S
C510 C519 1.390 . S
C511 C510 1.387 1_556 S
C511 C513 1.387 . S
H512 C519 0.950 . S
C513 C511 1.387 . S
C513 C515 1.390 . S
C513 H517 0.950 . S
H514 C510 0.950 . S
C515 C513 1.390 . S
C515 C516 1.387 1_556 S
C515 H518 0.950 1_545 S
C516 C515 1.387 1_554 S
C516 C519 1.387 . S
H517 C513 0.950 . S
H518 C515 0.950 1_565 S
C519 C510 1.390 . S
C519 H512 0.950 . S
C519 C516 1.387 . S
C520 C521 1.387 . S
C520 H524 0.950 . S
C520 C529 1.390 . S
C521 C520 1.387 . S
C521 C523 1.387 1_554 S
H522 C529 0.950 . S
C523 C521 1.387 1_556 S
C523 C525 1.390 . S
C523 H527 0.950 . S
H524 C520 0.950 . S
C525 C523 1.390 . S
C525 C526 1.387 1_556 S
C525 H528 0.950 . S
C526 C525 1.387 1_554 S
C526 C529 1.387 . S
H527 C523 0.950 . S
H528 C525 0.950 . S
C529 C520 1.390 . S
C529 H522 0.950 . S
C529 C526 1.387 . S
C530 C531 1.387 1_556 S
C530 H534 0.950 . S
C530 C539 1.390 . S
C531 C530 1.387 1_554 S
C531 C533 1.387 . S
H532 C539 0.950 . S
C533 C531 1.387 . S
C533 C535 1.390 . S
C533 H537 0.950 . S
H534 C530 0.950 . S
C535 C533 1.390 . S
C535 C536 1.387 1_554 S
C535 H538 0.950 . S
C536 C535 1.387 1_556 S
C536 C539 1.387 . S
H537 C533 0.950 . S
H538 C535 0.950 . S
C539 C530 1.390 . S
C539 H532 0.950 . S
C539 C536 1.387 . S
C540 C541 1.387 . S
C540 H544 0.950 . S
C540 C549 1.390 . S
C541 C540 1.387 . S
C541 C543 1.387 . S
H542 C549 0.950 . S
C543 C541 1.387 . S
C543 C545 1.390 . S
C543 H547 0.950 . S
H544 C540 0.950 . S
C545 C543 1.390 . S
C545 C546 1.387 . S
C545 H548 0.950 . S
C546 C545 1.387 . S
C546 C549 1.387 . S
H547 C543 0.950 . S
H548 C545 0.950 . S
C549 C540 1.390 . S
C549 H542 0.950 . S
C549 C546 1.387 . S
C550 C551 1.387 . S
C550 H554 0.950 . S
C550 C559 1.390 . S
C551 C550 1.387 . S
C551 C553 1.387 . S
H552 C559 0.950 . S
C553 C551 1.387 . S
C553 C555 1.390 . S
C553 H557 0.950 . S
H554 C550 0.950 . S
C555 C553 1.390 . S
C555 C556 1.387 . S
C555 H558 0.950 . S
C556 C555 1.387 . S
C556 C559 1.387 . S
H557 C553 0.950 . S
H558 C555 0.950 . S
C559 C550 1.390 . S
C559 H552 0.950 . S
C559 C556 1.387 . S
C560 C561 1.387 . S
C560 H564 0.950 . S
C560 C569 1.390 . S
C561 C560 1.387 . S
C561 C563 1.387 . S
H562 C569 0.950 . S
C563 C561 1.387 . S
C563 C565 1.390 . S
C563 H567 0.950 . S
H564 C560 0.950 . S
C565 C563 1.390 . S
C565 C566 1.387 . S
C565 H568 0.950 . S
C566 C565 1.387 . S
C566 C569 1.387 . S
H567 C563 0.950 . S
H568 C565 0.950 . S
C569 C560 1.390 . S
C569 H562 0.950 . S
C569 C566 1.387 . S
C570 C571 1.387 . S
C570 H574 0.950 . S
C570 C579 1.390 . S
C571 C570 1.387 . S
C571 C573 1.387 . S
H572 C579 0.950 . S
C573 C571 1.387 . S
C573 C575 1.390 . S
C573 H577 0.950 . S
H574 C570 0.950 . S
C575 C573 1.390 . S
C575 C576 1.387 . S
C575 H578 0.950 . S
C576 C575 1.387 . S
C576 C579 1.387 . S
H577 C573 0.950 . S
H578 C575 0.950 . S
C579 C570 1.390 . S
C579 H572 0.950 . S
C579 C576 1.387 . S
C580 C581 1.387 . S
C580 H584 0.950 . S
C580 C589 1.390 . S
C581 C580 1.387 . S
C581 C583 1.387 . S
H582 C589 0.950 . S
C583 C581 1.387 . S
C583 C585 1.390 . S
C583 H587 0.950 . S
H584 C580 0.950 . S
C585 C583 1.390 . S
C585 C586 1.387 . S
C585 H588 0.950 . S
C586 C585 1.387 . S
C586 C589 1.387 . S
H587 C583 0.950 . S
H588 C585 0.950 . S
C589 C580 1.390 . S
C589 H582 0.950 . S
C589 C586 1.387 . S
C590 C591 1.387 . S
C590 H594 0.950 . S
C590 C599 1.390 . S
C591 C590 1.387 . S
C591 C593 1.387 . S
H592 C599 0.950 . S
C593 C591 1.387 . S
C593 C595 1.390 . S
C593 H597 0.950 . S
H594 C590 0.950 . S
C595 C593 1.390 . S
C595 C596 1.387 . S
C595 H598 0.950 . S
C596 C595 1.387 . S
C596 C599 1.387 . S
H597 C593 0.950 . S
H598 C595 0.950 . S
C599 C590 1.390 . S
C599 H592 0.950 . S
C599 C596 1.387 . S
C600 C601 1.387 . S
C600 H604 0.950 . S
C600 C609 1.390 . S
C601 C600 1.387 . S
C601 C603 1.387 . S
H602 C609 0.950 . S
C603 C601 1.387 . S
C603 C605 1.390 . S
C603 H607 0.950 . S
H604 C600 0.950 . S
C605 C603 1.390 . S
C605 C606 1.387 . S
C605 H608 0.950 . S
C606 C605 1.387 . S
C606 C609 1.387 . S
H607 C603 0.950 . S
H608 C605 0.950 . S
C609 C600 1.390 . S
C609 H602 0.950 . S
C609 C606 1.387 . S
C610 C611 1.387 . S
C610 H614 0.950 . S
C610 C619 1.390 . S
C611 C610 1.387 . S
C611 C613 1.387 . S
H612 C619 0.950 . S
C613 C611 1.387 . S
C613 C615 1.390 . S
C613 H617 0.950 . S
H614 C610 0.950 . S
C615 C613 1.390 . S
C615 C616 1.387 . S
C615 H618 0.950 . S
C616 C615 1.387 . S
C616 C619 1.387 . S
H617 C613 0.950 . S
H618 C615 0.950 . S
C619 C610 1.390 . S
C619 H612 0.950 . S
C619 C616 1.387 . S
C620 C621 1.387 . S
C620 H624 0.950 . S
C620 C629 1.390 . S
C621 C620 1.387 . S
C621 C623 1.387 . S
H622 C629 0.950 . S
C623 C621 1.387 . S
C623 C625 1.390 . S
C623 H627 0.950 . S
H624 C620 0.950 . S
C625 C623 1.390 . S
C625 C626 1.387 . S
C625 H628 0.950 . S
C626 C625 1.387 . S
C626 C629 1.387 . S
H627 C623 0.950 . S
H628 C625 0.950 . S
C629 C620 1.390 . S
C629 H622 0.950 . S
C629 C626 1.387 . S
C630 C631 1.387 . S
C630 H634 0.950 1_556 S
C630 C639 1.390 . S
C631 C630 1.387 . S
C631 C633 1.387 . S
H632 C639 0.950 1_554 S
C633 C631 1.387 . S
C633 C635 1.390 . S
C633 H637 0.950 . S
H634 C630 0.950 1_554 S
C635 C633 1.390 . S
C635 C636 1.387 . S
C635 H638 0.950 . S
C636 C635 1.387 . S
C636 C639 1.387 . S
H637 C633 0.950 . S
H638 C635 0.950 . S
C639 C630 1.390 . S
C639 H632 0.950 1_556 S
C639 C636 1.387 . S
C640 C641 1.387 . S
C640 H644 0.950 . S
C640 C649 1.390 . S
C641 C640 1.387 . S
C641 C643 1.387 . S
H642 C649 0.950 . S
C643 C641 1.387 . S
C643 C645 1.390 . S
C643 H647 0.950 1_556 S
H644 C640 0.950 . S
C645 C643 1.390 . S
C645 C646 1.387 . S
C645 H648 0.950 . S
C646 C645 1.387 . S
C646 C649 1.387 . S
H647 C643 0.950 1_554 S
H648 C645 0.950 . S
C649 C640 1.390 . S
C649 H642 0.950 . S
C649 C646 1.387 . S
C650 C651 1.387 . S
C650 H654 0.950 . S
C650 C659 1.390 . S
C651 C650 1.387 . S
C651 C653 1.387 . S
H652 C659 0.950 . S
C653 C651 1.387 . S
C653 C655 1.390 . S
C653 H657 0.950 . S
H654 C650 0.950 . S
C655 C653 1.390 . S
C655 C656 1.387 . S
C655 H658 0.950 . S
C656 C655 1.387 . S
C656 C659 1.387 . S
H657 C653 0.950 . S
H658 C655 0.950 . S
C659 C650 1.390 . S
C659 H652 0.950 . S
C659 C656 1.387 . S
C660 C661 1.387 . S
C660 H664 0.950 . S
C660 C669 1.390 . S
C661 C660 1.387 . S
C661 C663 1.387 . S
H662 C669 0.950 . S
C663 C661 1.387 . S
C663 C665 1.390 . S
C663 H667 0.950 . S
H664 C660 0.950 . S
C665 C663 1.390 . S
C665 C666 1.387 . S
C665 H668 0.950 . S
C666 C665 1.387 . S
C666 C669 1.387 . S
H667 C663 0.950 . S
H668 C665 0.950 . S
C669 C660 1.390 . S
C669 H662 0.950 . S
C669 C666 1.387 . S
C670 C671 1.387 1_556 S
C670 H674 0.950 . S
C670 C679 1.390 . S
C671 C670 1.387 1_554 S
C671 C673 1.387 . S
H672 C679 0.950 . S
C673 C671 1.387 . S
C673 C675 1.390 . S
C673 H677 0.950 . S
H674 C670 0.950 . S
C675 C673 1.390 . S
C675 C676 1.387 . S
C675 H678 0.950 . S
C676 C675 1.387 . S
C676 C679 1.387 1_554 S
H677 C673 0.950 . S
H678 C675 0.950 . S
C679 C670 1.390 . S
C679 H672 0.950 . S
C679 C676 1.387 1_556 S
C680 C681 1.387 . S
C680 H684 0.950 . S
C680 C689 1.390 . S
C681 C680 1.387 . S
C681 C683 1.387 . S
H682 C689 0.950 . S
C683 C681 1.387 . S
C683 C685 1.390 1_554 S
C683 H687 0.950 1_554 S
H684 C680 0.950 . S
C685 C683 1.390 1_556 S
C685 C686 1.387 1_556 S
C685 H688 0.950 . S
C686 C685 1.387 1_554 S
C686 C689 1.387 . S
H687 C683 0.950 1_556 S
H688 C685 0.950 . S
C689 C680 1.390 . S
C689 H682 0.950 . S
C689 C686 1.387 . S
C690 C691 1.387 . S
C690 H694 0.950 . S
C690 C699 1.390 . S
C691 C690 1.387 . S
C691 C693 1.387 . S
H692 C699 0.950 . S
C693 C691 1.387 . S
C693 C695 1.390 . S
C693 H697 0.950 . S
H694 C690 0.950 . S
C695 C693 1.390 . S
C695 C696 1.387 . S
C695 H698 0.950 . S
C696 C695 1.387 . S
C696 C699 1.387 . S
H697 C693 0.950 . S
H698 C695 0.950 . S
C699 C690 1.390 . S
C699 H692 0.950 . S
C699 C696 1.387 . S
C700 C701 1.387 . S
C700 H704 0.950 . S
C700 C709 1.390 . S
C701 C700 1.387 . S
C701 C703 1.387 . S
H702 C709 0.950 . S
C703 C701 1.387 . S
C703 C705 1.390 . S
C703 H707 0.950 . S
H704 C700 0.950 . S
C705 C703 1.390 . S
C705 C706 1.387 . S
C705 H708 0.950 . S
C706 C705 1.387 . S
C706 C709 1.387 . S
H707 C703 0.950 . S
H708 C705 0.950 . S
C709 C700 1.390 . S
C709 H702 0.950 . S
C709 C706 1.387 . S
C710 C711 1.387 . S
C710 H714 0.950 . S
C710 C719 1.390 . S
C711 C710 1.387 . S
C711 C713 1.387 . S
H712 C719 0.950 . S
C713 C711 1.387 . S
C713 C715 1.390 . S
C713 H717 0.950 . S
H714 C710 0.950 . S
C715 C713 1.390 . S
C715 C716 1.387 . S
C715 H718 0.950 . S
C716 C715 1.387 . S
C716 C719 1.387 . S
H717 C713 0.950 . S
H718 C715 0.950 . S
C719 C710 1.390 . S
C719 H712 0.950 . S
C719 C716 1.387 . S
C720 C721 1.387 . S
C720 H724 0.950 . S
C720 C729 1.390 1_554 S
C721 C720 1.387 . S
C721 C723 1.387 . S
H722 C729 0.950 . S
C723 C721 1.387 . S
C723 C725 1.390 1_554 S
C723 H727 0.950 . S
H724 C720 0.950 . S
C725 C723 1.390 1_556 S
C725 C726 1.387 . S
C725 H728 0.950 . S
C726 C725 1.387 . S
C726 C729 1.387 . S
H727 C723 0.950 . S
H728 C725 0.950 . S
C729 C720 1.390 1_556 S
C729 H722 0.950 . S
C729 C726 1.387 . S
C730 C731 1.387 . S
C730 H734 0.950 . S
C730 C739 1.390 1_554 S
C731 C730 1.387 . S
C731 C733 1.387 . S
H732 C739 0.950 . S
C733 C731 1.387 . S
C733 C735 1.390 1_554 S
C733 H737 0.950 . S
H734 C730 0.950 . S
C735 C733 1.390 1_556 S
C735 C736 1.387 . S
C735 H738 0.950 . S
C736 C735 1.387 . S
C736 C739 1.387 . S
H737 C733 0.950 . S
H738 C735 0.950 . S
C739 C730 1.390 1_556 S
C739 H732 0.950 . S
C739 C736 1.387 . S
C740 C741 1.387 1_565 S
C740 H744 0.950 . S
C740 C749 1.390 1_554 S
C741 C740 1.387 1_545 S
C741 C743 1.387 . S
H742 C749 0.950 . S
C743 C741 1.387 . S
C743 C745 1.390 1_554 S
C743 H747 0.950 . S
H744 C740 0.950 . S
C745 C743 1.390 1_556 S
C745 C746 1.387 . S
C745 H748 0.950 . S
C746 C745 1.387 . S
C746 C749 1.387 1_545 S
H747 C743 0.950 . S
H748 C745 0.950 . S
C749 C740 1.390 1_556 S
C749 H742 0.950 . S
C749 C746 1.387 1_565 S
C750 C751 1.381 1_654 S
C750 H754 0.947 1_554 S
C750 C759 1.399 . S
C751 C750 1.381 1_456 S
C751 C753 1.387 . S
H752 C759 0.950 . S
C753 C751 1.387 . S
C753 C755 1.390 1_556 S
C753 H757 0.950 . S
H754 C750 0.947 1_556 S
C755 C753 1.390 1_554 S
C755 C756 1.387 . S
C755 H758 0.950 . S
C756 C755 1.387 . S
C756 C759 1.387 1_455 S
H757 C753 0.950 . S
H758 C755 0.950 . S
C759 C750 1.399 . S
C759 H752 0.950 . S
C759 C756 1.387 1_655 S
C760 C761 1.387 . S
C760 H764 0.950 . S
C760 C769 1.390 . S
C761 C760 1.387 . S
C761 C763 1.387 . S
H762 C769 0.950 1_556 S
C763 C761 1.387 . S
C763 C765 1.390 . S
C763 H767 0.950 . S
H764 C760 0.950 . S
C765 C763 1.390 . S
C765 C766 1.387 1_554 S
C765 H768 0.950 . S
C766 C765 1.387 1_556 S
C766 C769 1.387 1_556 S
H767 C763 0.950 . S
H768 C765 0.950 . S
C769 C760 1.390 . S
C769 H762 0.950 1_554 S
C769 C766 1.387 1_554 S
C770 C771 1.387 . S
C770 H774 0.950 1_545 S
C770 C779 1.390 1_554 S
C771 C770 1.387 . S
C771 C773 1.387 . S
H772 C779 0.950 . S
C773 C771 1.387 . S
C773 C775 1.390 1_554 S
C773 H777 0.950 . S
H774 C770 0.950 1_565 S
C775 C773 1.390 1_556 S
C775 C776 1.387 . S
C775 H778 0.950 . S
C776 C775 1.387 . S
C776 C779 1.387 . S
H777 C773 0.950 . S
H778 C775 0.950 . S
C779 C770 1.390 1_556 S
C779 H772 0.950 . S
C779 C776 1.387 . S
C780 C781 1.387 . S
C780 H784 0.950 . S
C780 C789 1.390 . S
C781 C780 1.387 . S
C781 C783 1.387 . S
H782 C789 0.950 . S
C783 C781 1.387 . S
C783 C785 1.390 . S
C783 H787 0.950 . S
H784 C780 0.950 . S
C785 C783 1.390 . S
C785 C786 1.387 . S
C785 H788 0.950 . S
C786 C785 1.387 . S
C786 C789 1.387 . S
H787 C783 0.950 . S
H788 C785 0.950 . S
C789 C780 1.390 . S
C789 H782 0.950 . S
C789 C786 1.387 . S
C790 C791 1.387 . S
C790 H794 0.950 . S
C790 C799 1.390 . S
C791 C790 1.387 . S
C791 C793 1.387 . S
H792 C799 0.950 . S
C793 C791 1.387 . S
C793 C795 1.390 . S
C793 H797 0.950 . S
H794 C790 0.950 . S
C795 C793 1.390 . S
C795 C796 1.387 . S
C795 H798 0.950 . S
C796 C795 1.387 . S
C796 C799 1.387 . S
H797 C793 0.950 . S
H798 C795 0.950 . S
C799 C790 1.390 . S
C799 H792 0.950 . S
C799 C796 1.387 . S
C800 C801 1.387 . S
C800 H804 0.950 . S
C800 C809 1.390 . S
C801 C800 1.387 . S
C801 C803 1.387 . S
H802 C809 0.950 . S
C803 C801 1.387 . S
C803 C805 1.390 . S
C803 H807 0.950 . S
H804 C800 0.950 . S
C805 C803 1.390 . S
C805 C806 1.387 . S
C805 H808 0.950 . S
C806 C805 1.387 . S
C806 C809 1.387 . S
H807 C803 0.950 . S
H808 C805 0.950 . S
C809 C800 1.390 . S
C809 H802 0.950 . S
C809 C806 1.387 . S
C810 C811 1.387 . S
C810 H814 0.950 . S
C810 C819 1.390 . S
C811 C810 1.387 . S
C811 C813 1.387 . S
H812 C819 0.950 . S
C813 C811 1.387 . S
C813 C815 1.390 . S
C813 H817 0.950 . S
H814 C810 0.950 . S
C815 C813 1.390 . S
C815 C816 1.387 . S
C815 H818 0.950 . S
C816 C815 1.387 . S
C816 C819 1.387 . S
H817 C813 0.950 . S
H818 C815 0.950 . S
C819 C810 1.390 . S
C819 H812 0.950 . S
C819 C816 1.387 . S
C820 C821 1.387 . S
C820 H824 0.950 . S
C820 C829 1.390 . S
C821 C820 1.387 . S
C821 C823 1.387 . S
H822 C829 0.950 . S
C823 C821 1.387 . S
C823 C825 1.390 . S
C823 H827 0.950 . S
H824 C820 0.950 . S
C825 C823 1.390 . S
C825 C826 1.387 . S
C825 H828 0.950 . S
C826 C825 1.387 . S
C826 C829 1.387 . S
H827 C823 0.950 . S
H828 C825 0.950 . S
C829 C820 1.390 . S
C829 H822 0.950 . S
C829 C826 1.387 . S
C830 C831 1.387 . S
C830 H834 0.950 . S
C830 C839 1.390 . S
C831 C830 1.387 . S
C831 C833 1.387 . S
H832 C839 0.950 . S
C833 C831 1.387 . S
C833 C835 1.390 . S
C833 H837 0.950 . S
H834 C830 0.950 . S
C835 C833 1.390 . S
C835 C836 1.387 . S
C835 H838 0.950 . S
C836 C835 1.387 . S
C836 C839 1.387 . S
H837 C833 0.950 . S
H838 C835 0.950 . S
C839 C830 1.390 . S
C839 H832 0.950 . S
C839 C836 1.387 . S
C840 C841 1.387 . S
C840 H844 0.950 . S
C840 C849 1.390 . S
C841 C840 1.387 . S
C841 C843 1.387 . S
H842 C849 0.950 . S
C843 C841 1.387 . S
C843 C845 1.390 . S
C843 H847 0.950 . S
H844 C840 0.950 . S
C845 C843 1.390 . S
C845 C846 1.387 . S
C845 H848 0.950 . S
C846 C845 1.387 . S
C846 C849 1.387 . S
H847 C843 0.950 . S
H848 C845 0.950 . S
C849 C840 1.390 . S
C849 H842 0.950 . S
C849 C846 1.387 . S
C850 C851 1.387 . S
C850 H854 0.950 . S
C850 C859 1.390 . S
C851 C850 1.387 . S
C851 C853 1.387 . S
H852 C859 0.950 . S
C853 C851 1.387 . S
C853 C855 1.390 . S
C853 H857 0.950 . S
H854 C850 0.950 . S
C855 C853 1.390 . S
C855 C856 1.387 . S
C855 H858 0.950 . S
C856 C855 1.387 . S
C856 C859 1.387 . S
H857 C853 0.950 . S
H858 C855 0.950 . S
C859 C850 1.390 . S
C859 H852 0.950 . S
C859 C856 1.387 . S
C860 C861 1.387 . S
C860 H864 0.950 . S
C860 C869 1.390 . S
C861 C860 1.387 . S
C861 C863 1.387 . S
H862 C869 0.950 . S
C863 C861 1.387 . S
C863 C865 1.390 . S
C863 H867 0.950 . S
H864 C860 0.950 . S
C865 C863 1.390 . S
C865 C866 1.387 . S
C865 H868 0.950 . S
C866 C865 1.387 . S
C866 C869 1.387 . S
H867 C863 0.950 . S
H868 C865 0.950 . S
C869 C860 1.390 . S
C869 H862 0.950 . S
C869 C866 1.387 . S
C870 C871 1.387 . S
C870 H874 0.950 . S
C870 C879 1.390 . S
C871 C870 1.387 . S
C871 C873 1.387 . S
H872 C879 0.950 . S
C873 C871 1.387 . S
C873 C875 1.390 . S
C873 H877 0.950 . S
H874 C870 0.950 . S
C875 C873 1.390 . S
C875 C876 1.387 . S
C875 H878 0.950 . S
C876 C875 1.387 . S
C876 C879 1.387 . S
H877 C873 0.950 . S
H878 C875 0.950 . S
C879 C870 1.390 . S
C879 H872 0.950 . S
C879 C876 1.387 . S
C880 C881 1.387 . S
C880 H884 0.950 . S
C880 C889 1.390 . S
C881 C880 1.387 . S
C881 C883 1.387 . S
H882 C889 0.950 . S
C883 C881 1.387 . S
C883 C885 1.390 . S
C883 H887 0.950 . S
H884 C880 0.950 . S
C885 C883 1.390 . S
C885 C886 1.387 . S
C885 H888 0.950 . S
C886 C885 1.387 . S
C886 C889 1.387 . S
H887 C883 0.950 . S
H888 C885 0.950 . S
C889 C880 1.390 . S
C889 H882 0.950 . S
C889 C886 1.387 . S
C890 C891 1.387 . S
C890 H894 0.950 . S
C890 C899 1.390 . S
C891 C890 1.387 . S
C891 C893 1.387 . S
H892 C899 0.950 . S
C893 C891 1.387 . S
C893 C895 1.390 . S
C893 H897 0.950 . S
H894 C890 0.950 . S
C895 C893 1.390 . S
C895 C896 1.387 . S
C895 H898 0.950 . S
C896 C895 1.387 . S
C896 C899 1.387 . S
H897 C893 0.950 . S
H898 C895 0.950 . S
C899 C890 1.390 . S
C899 H892 0.950 . S
C899 C896 1.387 . S
C361 C266 1.454 . S
C366 C6 1.468 . S
C371 C29 1.604 . S
C376 C289 1.585 . S
C381 C46 1.500 . S
C386 C249 1.548 . S
C391 C49 1.652 . S
C396 C149 1.640 . S
C401 C169 1.950 . S
C406 C9 1.913 . S
C411 C26 1.718 . S
C416 C129 1.779 . S
C421 C76 1.758 . S
C426 C201 1.858 . S
C431 C81 1.667 . S
C436 C221 1.692 . S
C441 C181 1.559 . S
C446 C116 1.496 . S
C451 C321 1.601 . S
C456 C101 1.591 . S
C461 C61 1.543 . S
C466 C356 1.490 . S
C471 C316 1.457 . S
C476 C96 1.454 . S
C481 C166 1.322 . S
C486 C269 1.368 . S
C491 C126 1.242 . S
C496 C286 1.270 . S
C501 C146 1.443 . S
C506 C246 1.430 . S
C511 C196 1.452 . S
C516 C336 1.474 1_545 S
C521 C341 1.445 . S
C526 C216 1.368 1_554 S
C531 C301 1.589 . S
C536 C236 1.564 . S
C541 C1 1.691 . S
C546 C89 1.700 . S
C551 C106 2.039 . S
C556 C36 2.032 . S
C561 C66 1.814 . S
C566 C41 1.919 . S
C571 C86 1.881 . S
C576 C56 1.939 . S
C581 C109 1.956 . S
C586 C16 1.784 . S
C591 C69 1.863 . S
C596 C21 1.902 . S
C601 C206 1.748 . S
C606 C136 1.714 . S
C611 C226 1.887 . S
C616 C156 1.864 . S
C621 C186 1.858 . S
C626 C176 1.754 . S
C631 C209 1.823 . S
C636 C161 1.832 . S
C641 C229 1.673 . S
C646 C121 1.741 . S
C651 C189 1.533 . S
C656 C141 1.548 . S
C661 C329 1.488 . S
C666 C241 1.447 . S
C671 C346 1.697 . S
C676 C276 1.631 . S
C681 C281 1.651 . S
C686 C306 1.468 . S
C691 C296 1.781 . S
C696 C326 1.776 . S
C701 C256 1.470 . S
C706 C349 1.574 . S
C711 C309 1.238 . S
C716 C261 1.251 . S
C721 C19 1.660 . S
C726 C8 1.660 . S
C731 C28 1.680 . S
C736 C39 1.680 . S
C741 C59 1.698 . S
C746 C48 1.698 . S
C751 C68 1.663 . S
C756 C79 1.663 . S
C761 C88 1.674 . S
C766 C99 1.674 . S
C771 C119 1.703 . S
C776 C108 1.703 . S
C781 C139 1.667 1_554 S
C786 C128 1.667 . S
C791 C148 1.668 . S
C796 C159 1.668 1_554 S
C801 C179 1.702 1_554 S
C806 C168 1.702 . S
C811 C188 1.652 . S
C816 C199 1.652 . S
C821 C208 1.678 . S
C826 C219 1.678 . S
C831 C228 1.694 . S
C836 C239 1.694 . S
C841 C248 1.648 . S
C846 C259 1.648 . S
C851 C268 1.666 . S
C856 C279 1.666 . S
C861 C299 1.672 . S
C866 C288 1.672 . S
C871 C319 1.659 . S
C876 C308 1.659 . S
C881 C328 1.661 1_556 S
C886 C339 1.661 . S
C891 C348 1.681 . S
C896 C359 1.681 . S
