# Generated by pormake.
# Topology sxb, (6)-cn, num edge types: 1
# Building blocks:
#     Node 0, Type 0, BuildingBlock: BETDAH_clean_sbu_0, # of connection points: 6
#     Node 1, Type 0, BuildingBlock: BETDAH_clean_sbu_0, # of connection points: 6
#     Node 2, Type 0, BuildingBlock: BETDAH_clean_sbu_0, # of connection points: 6
#     Node 3, Type 0, BuildingBlock: BETDAH_clean_sbu_0, # of connection points: 6
#     Edge 4, Type (0, 0), BuildingBlock: AJUNOK_clean_linker_0, # of connection points: 2
#     Edge 5, Type (0, 0), BuildingBlock: AJUNOK_clean_linker_0, # of connection points: 2
#     Edge 6, Type (0, 0), BuildingBlock: AJUNOK_clean_linker_0, # of connection points: 2
#     Edge 7, Type (0, 0), BuildingBlock: AJUNOK_clean_linker_0, # of connection points: 2
#     Edge 8, Type (0, 0), BuildingBlock: AJUNOK_clean_linker_0, # of connection points: 2
#     Edge 9, Type (0, 0), BuildingBlock: AJUNOK_clean_linker_0, # of connection points: 2
#     Edge 10, Type (0, 0), BuildingBlock: AJUNOK_clean_linker_0, # of connection points: 2
#     Edge 11, Type (0, 0), BuildingBlock: AJUNOK_clean_linker_0, # of connection points: 2
#     Edge 12, Type (0, 0), BuildingBlock: AJUNOK_clean_linker_0, # of connection points: 2
#     Edge 13, Type (0, 0), BuildingBlock: AJUNOK_clean_linker_0, # of connection points: 2
#     Edge 14, Type (0, 0), BuildingBlock: AJUNOK_clean_linker_0, # of connection points: 2
#     Edge 15, Type (0, 0), BuildingBlock: AJUNOK_clean_linker_0, # of connection points: 2
# Relax obj value: 0.662
# Max RMSD: 0.150
# Mean RMSD: 0.099
data_MOF--net-sxb--node1-BETDAH_clean_sbu_0--edge1-AJUNOK_clean_linker_0
_symmetry_space_group_name_H-M    P1
_symmetry_Int_Tables_number       1
_symmetry_cell_setting            triclinic
loop_
_symmetry_equiv_pos_as_xyz
'x, y, z'
_cell_length_a     12.355514
_cell_length_b     26.754756
_cell_length_c     22.188265
_cell_angle_alpha  93.245821
_cell_angle_beta   92.720464
_cell_angle_gamma 60.656684
loop_
_atom_site_label
_atom_site_type_symbol
_atom_site_fract_x
_atom_site_fract_y
_atom_site_fract_z
_atom_type_partial_charge
Ho0 Ho 0.9619 0.14552 0.94843 0.0
Ho1 Ho 0.18505 0.14313 0.95495 0.0
C2 C 0.96338 0.26547 0.94704 0.0
C3 C 0.73382 0.17942 0.97304 0.0
C4 C 0.6652 0.2165 0.02488 0.0
C5 C 0.72949 0.22805 0.07258 0.0
C6 C 0.67314 0.25049 0.12811 0.0
C7 C 0.55309 0.25928 0.1377 0.0
C8 C 0.48248 0.25749 0.08596 0.0
C9 C 0.53877 0.23565 0.03026 0.0
C10 C 1.05016 1.12808 0.83474 0.0
C11 C 0.19116 1.02047 0.94398 0.0
C12 C 0.41476 1.11514 0.9704 0.0
C13 C 0.47516 1.0982 0.03031 0.0
C14 C 0.57662 1.10554 0.04745 0.0
C15 C 0.60028 1.11292 0.10865 0.0
C16 C 0.51947 1.11498 0.15309 0.0
C17 C 0.4316 1.09779 0.13611 0.0
C18 C 0.41131 1.0884 0.07503 0.0
C19 C 0.08584 0.15846 0.06687 0.0
O20 O 0.9159 0.23759 0.97279 0.0
O21 O 1.07479 0.23447 0.92399 0.0
O22 O 0.76533 0.20365 0.9333 0.0
O23 O 0.82532 1.12925 -0.01292 0.0
O24 O 0.99106 1.10446 0.85607 0.0
O25 O 1.05861 0.16205 0.87461 0.0
O26 O 0.24574 1.04971 0.92927 0.0
O27 O 1.07386 1.04936 0.96011 0.0
O28 O 0.32682 0.16854 0.96865 0.0
O29 O 0.37981 1.08049 0.94405 0.0
O30 O 0.13226 0.18786 0.04698 0.0
O31 O 0.09161 1.12303 0.0258 0.0
H32 H 0.82623 0.21573 0.06845 0.0
H33 H 0.72863 0.25504 0.16491 0.0
H34 H 0.38779 0.26607 0.08922 0.0
H35 H 0.48632 0.22897 -0.00679 0.0
H36 H 0.62917 1.11141 0.01364 0.0
H37 H 0.67066 1.12511 0.11989 0.0
H38 H 0.36934 1.09813 0.16911 0.0
H39 H 0.33617 1.07983 0.06254 0.0
Ho40 Ho 0.11419 1.11612 0.44665 0.0
Ho41 Ho 1.0526 0.17009 0.45507 0.0
C42 C 0.84322 1.12753 0.46787 0.0
C43 C 0.18323 1.00895 0.46098 0.0
C44 C 0.12279 0.97568 0.44233 0.0
C45 C 0.13538 0.93283 0.47991 0.0
C46 C 1.04537 0.91585 0.47785 0.0
C47 C 0.94164 0.94239 0.43883 0.0
C48 C 0.93625 0.98081 0.39682 0.0
C49 C 1.02696 0.99733 0.39846 0.0
C50 C 0.10578 1.12828 0.32563 0.0
C51 C 0.32148 0.15966 0.43254 0.0
C52 C 0.98549 0.27717 0.44361 0.0
C53 C 1.03928 0.31111 0.47063 0.0
C54 C 1.0601 0.34595 0.43357 0.0
C55 C 0.13983 0.3666 0.4532 0.0
C56 C 0.19915 0.35272 0.51024 0.0
C57 C 0.17085 0.3214 0.54905 0.0
C58 C 0.09192 0.30027 0.52917 0.0
C59 C 1.05372 0.15832 0.576 0.0
O60 O 0.89823 0.14911 0.43589 0.0
O61 O 0.89238 0.15034 0.43368 0.0
O62 O 0.22438 1.02634 0.41869 0.0
O63 O 0.11908 1.04999 0.49971 0.0
O64 O 0.20853 1.1049 0.35701 0.0
O65 O 1.01571 0.14871 0.36049 0.0
O66 O 0.26949 1.1362 0.46391 0.0
O67 O 0.27618 1.13478 0.4661 0.0
O68 O 0.93274 0.25968 0.47993 0.0
O69 O 1.05849 0.23652 0.40655 0.0
O70 O 0.95374 0.18069 0.54277 0.0
O71 O 0.14586 1.1389 0.54242 0.0
H72 H 0.20852 0.91623 0.51428 0.0
H73 H 1.05248 0.88484 0.50938 0.0
H74 H 0.85712 1.00145 0.36614 0.0
H75 H 1.01527 1.03115 0.3697 0.0
H76 H 1.02159 0.35384 0.38796 0.0
H77 H 0.16101 0.3904 0.42229 0.0
H78 H 0.21391 0.31117 0.5936 0.0
H79 H 0.07812 0.27272 0.55818 0.0
Ho80 Ho 0.45695 0.64684 0.93872 0.0
Ho81 Ho 0.68987 0.64043 0.94684 0.0
C82 C 0.4702 0.7649 0.94262 0.0
C83 C 0.23085 0.67917 0.96659 0.0
C84 C 0.18173 0.6945 0.02796 0.0
C85 C 0.25543 0.69983 0.07531 0.0
C86 C 0.23079 0.69636 0.13529 0.0
C87 C 0.13166 0.68751 0.14862 0.0
C88 C 1.04625 0.69218 0.10131 0.0
C89 C 1.07211 0.69504 0.04138 0.0
C90 C 0.55323 0.63189 0.82671 0.0
C91 C 0.68337 0.52055 0.94101 0.0
C92 C 0.92383 0.6051 0.95382 0.0
C93 C 1.00064 0.56998 0.00396 0.0
C94 C 0.11883 0.56286 0.01662 0.0
C95 C 0.17199 0.54752 0.07432 0.0
C96 C 0.10574 0.54048 0.12072 0.0
C97 C 0.99794 0.53745 0.10391 0.0
C98 C 0.94507 0.55277 0.04617 0.0
C99 C 0.59063 0.65264 0.05767 0.0
O100 O 0.41592 0.73819 0.96491 0.0
O101 O 0.58261 0.73316 0.92062 0.0
O102 O 0.26473 0.71354 0.94522 0.0
O103 O 0.31421 0.62542 0.95772 0.0
O104 O 0.48453 0.61106 0.8429 0.0
O105 O 0.5581 0.66445 0.86892 0.0
O106 O 0.74285 0.54711 0.92495 0.0
O107 O 0.56662 0.55193 0.95739 0.0
O108 O 0.84138 0.65725 0.97048 0.0
O109 O 0.87627 0.58086 0.91701 0.0
O110 O 0.64554 0.67981 0.04145 0.0
O111 O 0.5914 0.62002 0.01452 0.0
H112 H 0.33782 0.7019 0.06551 0.0
H113 H 0.2968 0.69415 0.17039 0.0
H114 H 0.96763 0.68614 0.10898 0.0
H115 H 1.01257 0.69236 0.00544 0.0
H116 H 0.16443 0.57463 0.98418 0.0
H117 H 0.25731 0.5488 0.08391 0.0
H118 H 0.94699 0.52965 0.13709 0.0
H119 H 0.85476 0.55645 0.03657 0.0
Ho120 Ho 0.62032 0.60424 0.43395 0.0
Ho121 Ho 0.54793 0.65824 0.44509 0.0
C122 C 0.31838 0.63712 0.42172 0.0
C123 C 0.74171 0.49278 0.43878 0.0
C124 C 0.719 0.45592 0.47601 0.0
C125 C 0.65272 0.47915 0.52938 0.0
C126 C 0.59234 0.45328 0.55431 0.0
C127 C 0.59653 0.40442 0.52557 0.0
C128 C 0.6729 0.37799 0.47578 0.0
C129 C 0.73317 0.40404 0.45075 0.0
C130 C 0.58417 0.62277 0.31361 0.0
C131 C 0.84951 0.62509 0.46962 0.0
C132 C 0.43046 0.7677 0.42647 0.0
C133 C 0.44841 0.81558 0.4472 0.0
C134 C 0.40796 0.86192 0.40962 0.0
C135 C 0.45817 0.89844 0.41706 0.0
C136 C 0.54977 0.88852 0.4619 0.0
C137 C 0.58024 0.84555 0.50342 0.0
C138 C 0.52975 0.80911 0.49603 0.0
C139 C 0.56929 0.65186 0.56746 0.0
O140 O 0.42124 0.61878 0.45744 0.0
O141 O 0.41985 0.61966 0.45576 0.0
O142 O 0.65224 0.52064 0.40069 0.0
O143 O 0.77751 0.52607 0.46682 0.0
O144 O 0.6907 0.60425 0.34077 0.0
O145 O 0.50208 0.63615 0.35216 0.0
O146 O 0.75084 0.64392 0.43197 0.0
O147 O 0.75075 0.6435 0.43266 0.0
O148 O 0.39865 0.74415 0.46649 0.0
O149 O 0.51947 0.72979 0.39321 0.0
O150 O 0.46908 0.68544 0.5384 0.0
O151 O 0.65412 0.62185 0.53072 0.0
H152 H 0.6358 0.52055 0.54786 0.0
H153 H 0.5313 0.4749 0.59186 0.0
H154 H 0.67426 0.34112 0.45211 0.0
H155 H 0.77999 0.38691 0.40833 0.0
H156 H 0.34586 0.86692 0.37144 0.0
H157 H 0.43393 0.93112 0.38442 0.0
H158 H 0.65278 0.83601 0.53749 0.0
H159 H 0.56342 0.77269 0.5247 0.0
C160 C 0.27398 0.86175 0.95533 0.0
C161 C 0.40216 0.83 0.9426 0.0
C162 C 0.20683 0.92254 0.95527 0.0
C163 C 0.26395 0.95522 0.94263 0.0
H164 H 0.22407 0.83945 0.96521 0.0
H165 H 0.10896 0.94403 0.96535 0.0
S166 S 0.59933 0.89388 0.9094 0.0
N167 N 0.58383 0.83696 0.91876 0.0
N168 N 0.45997 0.94989 0.91888 0.0
C169 C 0.39262 0.92396 0.93042 0.0
C170 C 0.46075 0.86203 0.93031 0.0
C171 C 0.87486 0.42304 0.9216 0.0
C172 C 0.7516 0.4555 0.94224 0.0
C173 C 0.94235 0.36231 0.92314 0.0
C174 C 0.89079 0.33054 0.94579 0.0
H175 H 0.92042 0.4447 0.90394 0.0
H176 H 1.03616 0.34016 0.90655 0.0
S177 S 0.57184 0.39396 0.00633 0.0
N178 N 0.58182 0.4501 -0.01342 0.0
N179 N 0.70663 0.33743 -0.01029 0.0
C180 C 0.76757 0.36253 0.96678 0.0
C181 C 0.69884 0.42429 0.96496 0.0
C182 C 0.27675 0.42239 0.51563 0.0
C183 C 0.29781 0.36709 0.52614 0.0
C184 C 0.37418 0.43459 0.51936 0.0
C185 C 0.49529 0.39226 0.53458 0.0
H186 H 0.18552 0.4557 0.50159 0.0
H187 H 0.35621 0.47645 0.50646 0.0
S188 S 0.59802 0.24222 0.57099 0.0
N189 N 0.44788 0.2701 0.55526 0.0
N190 N 0.63119 0.29426 0.56341 0.0
C191 C 0.51711 0.33761 0.54801 0.0
C192 C 0.41789 0.32483 0.54392 0.0
C193 C 0.78444 0.91828 0.39429 0.0
C194 C 0.83443 0.93374 0.4452 0.0
C195 C 0.68609 0.9074 0.39978 0.0
C196 C 0.63371 0.91232 0.45629 0.0
H197 H 0.82472 0.91241 0.35036 0.0
H198 H 0.65554 0.89203 0.3599 0.0
S199 S 0.7195 0.96047 0.60159 0.0
N200 N 0.81746 0.95935 0.55273 0.0
N201 N 0.6298 0.93985 0.56279 0.0
C202 C 0.67802 0.93121 0.50693 0.0
C203 C 0.77926 0.94165 0.50146 0.0
C204 C 0.38984 0.20702 0.20495 0.0
C205 C 0.49928 0.15325 0.20762 0.0
C206 C 0.3993 0.25732 0.20377 0.0
C207 C 0.51851 0.25158 0.19947 0.0
H208 H 0.30265 0.20947 0.1904 0.0
H209 H 0.31821 0.29612 0.18921 0.0
S210 S 0.79441 1.13531 0.27437 0.0
N211 N 0.70252 1.10768 0.25709 0.0
N212 N 0.71956 0.20236 0.25263 0.0
C213 C 0.61201 0.20519 0.23136 0.0
C214 C 0.60273 0.15445 0.23448 0.0
C215 C 0.55084 1.10683 0.47648 0.0
C216 C 0.45445 0.15139 0.44311 0.0
C217 C 0.67355 1.10006 0.48289 0.0
C218 C 0.70974 1.13659 0.45614 0.0
H219 H 0.53207 1.07648 0.49768 0.0
H220 H 0.7418 1.06537 0.50952 0.0
S221 S 0.48947 0.26476 0.37082 0.0
N222 N 0.40425 0.23542 0.38683 0.0
N223 N 0.62993 0.22295 0.39909 0.0
C224 C 0.61338 0.18195 0.42372 0.0
C225 C 0.48847 0.189 0.4173 0.0
C226 C 0.24271 0.55087 0.19938 0.0
C227 C 0.1259 0.55538 0.18504 0.0
C228 C 0.25017 0.60168 0.20728 0.0
C229 C 0.14036 0.65514 0.203 0.0
H230 H 0.32669 0.5115 0.18797 0.0
H231 H 0.33961 0.59861 0.20166 0.0
S232 S 0.82932 0.67854 0.23615 0.0
N233 N 0.91095 0.60931 0.21795 0.0
N234 N 0.9259 0.7045 0.23403 0.0
C235 C 1.03224 0.65561 0.22014 0.0
C236 C 1.02441 0.60435 0.21099 0.0
C237 C 0.10078 0.65111 0.39402 0.0
C238 C 0.20169 0.63251 0.4367 0.0
C239 C 0.98829 0.64965 0.40389 0.0
C240 C 0.96797 0.62936 0.45755 0.0
H241 H 0.10867 0.66735 0.35179 0.0
H242 H 0.9168 0.66448 0.36881 0.0
S243 S 0.19637 0.57771 0.58641 0.0
N244 N 0.2676 0.59464 0.53677 0.0
N245 N 1.06136 0.59117 0.55482 0.0
C246 C 1.06767 0.61096 0.50082 0.0
C247 C 0.18209 0.61265 0.49082 0.0
C248 C 0.09658 0.1834 0.2369 0.0
C249 C 0.09557 1.1358 0.25977 0.0
C250 C 0.08852 0.19134 0.17446 0.0
C251 C 0.07966 0.15185 0.13255 0.0
H252 H 0.10488 0.21445 0.26749 0.0
H253 H 0.09141 0.22829 0.15885 0.0
S254 S 1.0661 1.0217 0.17037 0.0
N255 N 0.08139 1.04947 0.23654 0.0
N256 N 1.06338 1.06487 0.1192 0.0
C257 C 1.07463 1.10494 0.15519 0.0
C258 C 0.08397 1.09665 0.21883 0.0
C259 C 0.13215 0.1526 0.7451 0.0
C260 C 1.05519 1.1334 0.76837 0.0
C261 C 0.13466 0.15917 0.68252 0.0
C262 C 1.05736 0.14849 0.64137 0.0
H263 H 0.19095 0.1625 0.77545 0.0
H264 H 0.19483 0.17413 0.66643 0.0
S265 S 0.8417 1.09597 0.6778 0.0
N266 N 0.9034 1.10167 0.74372 0.0
N267 N 0.90488 1.11648 0.62761 0.0
C268 C 0.98076 1.12914 0.66385 0.0
C269 C 0.98054 1.12092 0.72692 0.0
C270 C 0.54719 0.68436 0.22659 0.0
C271 C 0.56382 0.6327 0.24829 0.0
C272 C 0.55259 0.69086 0.16456 0.0
C273 C 0.57286 0.64625 0.12199 0.0
H274 H 0.53591 0.719 0.25802 0.0
H275 H 0.54377 0.73068 0.14996 0.0
S276 S 0.61367 0.50372 0.15603 0.0
N277 N 0.59779 0.53682 0.22289 0.0
N278 N 0.60198 0.54974 0.10609 0.0
C279 C 0.58333 0.59537 0.14306 0.0
C280 C 0.58072 0.58836 0.20636 0.0
C281 C 0.49196 0.69387 0.6708 0.0
C282 C 0.57843 0.64778 0.63449 0.0
C283 C 0.48825 0.68938 0.73352 0.0
C284 C 0.56877 0.63811 0.76214 0.0
H285 H 0.425 0.73353 0.6504 0.0
H286 H 0.41876 0.72556 0.75942 0.0
S287 S 0.81458 0.50533 0.68883 0.0
N288 N 0.75133 0.55017 0.63319 0.0
N289 N 0.73885 0.54076 0.75016 0.0
C290 C 0.65688 0.59207 0.72686 0.0
C291 C 0.66334 0.59718 0.6633 0.0
loop_
_geom_bond_atom_site_label_1
_geom_bond_atom_site_label_2
_geom_bond_distance
_geom_bond_site_symmetry_2
_ccdc_geom_bond_type
Ho0 C3 2.811 1_565 S
Ho0 O20 2.322 1_565 S
Ho0 O22 2.378 . S
Ho0 O23 2.524 1_566 S
Ho0 O24 2.381 . S
Ho0 O25 2.669 1_655 S
Ho0 O27 2.346 1_655 S
Ho0 O31 2.305 1_566 S
Ho1 C12 2.811 1_545 S
Ho1 O21 2.346 1_455 S
Ho1 O25 2.305 1_544 S
Ho1 O26 2.322 1_545 S
Ho1 O28 2.378 . S
Ho1 O29 2.524 1_544 S
Ho1 O30 2.381 . S
Ho1 O31 2.669 1_455 S
C2 O20 1.259 . S
C2 O21 1.268 1_556 S
C3 Ho0 2.811 1_545 S
C3 C4 1.488 . S
C3 O22 1.215 1_545 S
C3 O23 1.289 1_556 S
C4 C3 1.488 . S
C4 C5 1.348 1_556 S
C4 C9 1.413 . S
C5 C4 1.348 1_554 S
C5 C6 1.442 . S
C5 H32 0.930 . S
C6 C5 1.442 . S
C6 C7 1.381 1_554 S
C6 H33 0.931 . S
C7 C6 1.381 1_556 S
C7 C8 1.321 . S
C8 C7 1.321 . S
C8 C9 1.403 . S
C8 H34 0.934 . S
C9 C4 1.413 . S
C9 C8 1.403 . S
C9 H35 0.930 . S
C10 O24 1.275 . S
C10 O25 1.256 1_655 S
C11 O26 1.259 . S
C11 O27 1.268 1_554 S
C12 Ho1 2.811 1_565 S
C12 C13 1.488 . S
C12 O28 1.215 1_565 S
C12 O29 1.289 1_554 S
C13 C12 1.488 . S
C13 C14 1.348 1_554 S
C13 C18 1.413 . S
C14 C13 1.348 1_556 S
C14 C15 1.442 . S
C14 H36 0.930 . S
C15 C14 1.442 . S
C15 C16 1.381 1_556 S
C15 H37 0.931 . S
C16 C15 1.381 1_554 S
C16 C17 1.321 . S
C17 C16 1.321 . S
C17 C18 1.403 . S
C17 H38 0.934 . S
C18 C13 1.413 . S
C18 C17 1.403 . S
C18 H39 0.930 . S
C19 O30 1.275 . S
C19 O31 1.256 1_455 S
O20 Ho0 2.322 1_545 S
O20 C2 1.259 . S
O21 Ho1 2.346 1_655 S
O21 C2 1.268 1_554 S
O22 Ho0 2.378 . S
O22 C3 1.215 1_565 S
O23 Ho0 2.524 1_544 S
O23 C3 1.289 1_554 S
O24 Ho0 2.381 . S
O24 C10 1.275 . S
O25 Ho0 2.669 1_455 S
O25 Ho1 2.305 1_566 S
O25 C10 1.256 1_455 S
O26 Ho1 2.322 1_565 S
O26 C11 1.259 . S
O27 Ho0 2.346 1_455 S
O27 C11 1.268 1_556 S
O28 Ho1 2.378 . S
O28 C12 1.215 1_545 S
O29 Ho1 2.524 1_566 S
O29 C12 1.289 1_556 S
O30 Ho1 2.381 . S
O30 C19 1.275 . S
O31 Ho0 2.305 1_544 S
O31 Ho1 2.669 1_655 S
O31 C19 1.256 1_655 S
H32 C5 0.930 . S
H33 C6 0.931 . S
H34 C8 0.934 . S
H35 C9 0.930 . S
H36 C14 0.930 . S
H37 C15 0.931 . S
H38 C17 0.934 . S
H39 C18 0.930 . S
Ho40 C43 2.811 1_455 S
Ho40 O60 2.322 1_455 S
Ho40 O62 2.378 1_455 S
Ho40 O63 2.524 1_455 S
Ho40 O64 2.381 . S
Ho40 O65 2.669 1_565 S
Ho40 O67 2.346 . S
Ho40 O71 2.305 1_455 S
Ho41 C52 2.811 1_655 S
Ho41 O61 2.346 . S
Ho41 O65 2.305 1_655 S
Ho41 O66 2.322 1_655 S
Ho41 O68 2.378 1_655 S
Ho41 O69 2.524 1_655 S
Ho41 O70 2.381 . S
Ho41 O71 2.669 1_545 S
C42 O60 1.259 1_545 S
C42 O61 1.268 . S
C43 Ho40 2.811 1_655 S
C43 C44 1.488 . S
C43 O62 1.215 . S
C43 O63 1.289 . S
C44 C43 1.488 . S
C44 C45 1.348 . S
C44 C49 1.413 . S
C45 C44 1.348 . S
C45 C46 1.442 . S
C45 H72 0.930 . S
C46 C45 1.442 . S
C46 C47 1.381 . S
C46 H73 0.931 . S
C47 C46 1.381 . S
C47 C48 1.321 . S
C48 C47 1.321 . S
C48 C49 1.403 . S
C48 H74 0.934 . S
C49 C44 1.413 . S
C49 C48 1.403 . S
C49 H75 0.930 . S
C50 O64 1.275 . S
C50 O65 1.256 1_565 S
C51 O66 1.259 1_565 S
C51 O67 1.268 . S
C52 Ho41 2.811 1_455 S
C52 C53 1.488 . S
C52 O68 1.215 . S
C52 O69 1.289 . S
C53 C52 1.488 . S
C53 C54 1.348 . S
C53 C58 1.413 . S
C54 C53 1.348 . S
C54 C55 1.442 . S
C54 H76 0.930 . S
C55 C54 1.442 . S
C55 C56 1.381 . S
C55 H77 0.931 . S
C56 C55 1.381 . S
C56 C57 1.321 . S
C57 C56 1.321 . S
C57 C58 1.403 . S
C57 H78 0.934 . S
C58 C53 1.413 . S
C58 C57 1.403 . S
C58 H79 0.930 . S
C59 O70 1.275 . S
C59 O71 1.256 1_545 S
O60 Ho40 2.322 1_655 S
O60 C42 1.259 1_565 S
O61 Ho41 2.346 . S
O61 C42 1.268 . S
O62 Ho40 2.378 1_655 S
O62 C43 1.215 . S
O63 Ho40 2.524 1_655 S
O63 C43 1.289 . S
O64 Ho40 2.381 . S
O64 C50 1.275 . S
O65 Ho40 2.669 1_545 S
O65 Ho41 2.305 1_455 S
O65 C50 1.256 1_545 S
O66 Ho41 2.322 1_455 S
O66 C51 1.259 1_545 S
O67 Ho40 2.346 . S
O67 C51 1.268 . S
O68 Ho41 2.378 1_455 S
O68 C52 1.215 . S
O69 Ho41 2.524 1_455 S
O69 C52 1.289 . S
O70 Ho41 2.381 . S
O70 C59 1.275 . S
O71 Ho40 2.305 1_655 S
O71 Ho41 2.669 1_565 S
O71 C59 1.256 1_565 S
H72 C45 0.930 . S
H73 C46 0.931 . S
H74 C48 0.934 . S
H75 C49 0.930 . S
H76 C54 0.930 . S
H77 C55 0.931 . S
H78 C57 0.934 . S
H79 C58 0.930 . S
Ho80 C83 2.811 . S
Ho80 O100 2.322 . S
Ho80 O102 2.378 . S
Ho80 O103 2.524 1_556 S
Ho80 O104 2.381 . S
Ho80 O105 2.669 . S
Ho80 O107 2.346 . S
Ho80 O111 2.305 1_556 S
Ho81 C92 2.811 . S
Ho81 O101 2.346 . S
Ho81 O105 2.305 1_554 S
Ho81 O106 2.322 . S
Ho81 O108 2.378 . S
Ho81 O109 2.524 1_554 S
Ho81 O110 2.381 . S
Ho81 O111 2.669 . S
C82 O100 1.259 . S
C82 O101 1.268 1_556 S
C83 Ho80 2.811 . S
C83 C84 1.488 . S
C83 O102 1.215 . S
C83 O103 1.289 1_556 S
C84 C83 1.488 . S
C84 C85 1.348 1_556 S
C84 C89 1.413 . S
C85 C84 1.348 1_554 S
C85 C86 1.442 . S
C85 H112 0.930 . S
C86 C85 1.442 . S
C86 C87 1.381 1_554 S
C86 H113 0.931 . S
C87 C86 1.381 1_556 S
C87 C88 1.321 . S
C88 C87 1.321 . S
C88 C89 1.403 . S
C88 H114 0.934 . S
C89 C84 1.413 . S
C89 C88 1.403 . S
C89 H115 0.930 . S
C90 O104 1.275 . S
C90 O105 1.256 . S
C91 O106 1.259 . S
C91 O107 1.268 1_554 S
C92 Ho81 2.811 . S
C92 C93 1.488 . S
C92 O108 1.215 . S
C92 O109 1.289 1_554 S
C93 C92 1.488 . S
C93 C94 1.348 1_554 S
C93 C98 1.413 . S
C94 C93 1.348 1_556 S
C94 C95 1.442 . S
C94 H116 0.930 . S
C95 C94 1.442 . S
C95 C96 1.381 1_556 S
C95 H117 0.931 . S
C96 C95 1.381 1_554 S
C96 C97 1.321 . S
C97 C96 1.321 . S
C97 C98 1.403 . S
C97 H118 0.934 . S
C98 C93 1.413 . S
C98 C97 1.403 . S
C98 H119 0.930 . S
C99 O110 1.275 . S
C99 O111 1.256 . S
O100 Ho80 2.322 . S
O100 C82 1.259 . S
O101 Ho81 2.346 . S
O101 C82 1.268 1_554 S
O102 Ho80 2.378 . S
O102 C83 1.215 . S
O103 Ho80 2.524 1_554 S
O103 C83 1.289 1_554 S
O104 Ho80 2.381 . S
O104 C90 1.275 . S
O105 Ho80 2.669 . S
O105 Ho81 2.305 1_556 S
O105 C90 1.256 . S
O106 Ho81 2.322 . S
O106 C91 1.259 . S
O107 Ho80 2.346 . S
O107 C91 1.268 1_556 S
O108 Ho81 2.378 . S
O108 C92 1.215 . S
O109 Ho81 2.524 1_556 S
O109 C92 1.289 1_556 S
O110 Ho81 2.381 . S
O110 C99 1.275 . S
O111 Ho80 2.305 1_554 S
O111 Ho81 2.669 . S
O111 C99 1.256 . S
H112 C85 0.930 . S
H113 C86 0.931 . S
H114 C88 0.934 . S
H115 C89 0.930 . S
H116 C94 0.930 . S
H117 C95 0.931 . S
H118 C97 0.934 . S
H119 C98 0.930 . S
Ho120 C123 2.811 . S
Ho120 O140 2.322 . S
Ho120 O142 2.378 . S
Ho120 O143 2.524 . S
Ho120 O144 2.381 . S
Ho120 O145 2.669 . S
Ho120 O147 2.346 . S
Ho120 O151 2.305 . S
Ho121 C132 2.811 . S
Ho121 O141 2.346 . S
Ho121 O145 2.305 . S
Ho121 O146 2.322 . S
Ho121 O148 2.378 . S
Ho121 O149 2.524 . S
Ho121 O150 2.381 . S
Ho121 O151 2.669 . S
C122 O140 1.259 . S
C122 O141 1.268 . S
C123 Ho120 2.811 . S
C123 C124 1.488 . S
C123 O142 1.215 . S
C123 O143 1.289 . S
C124 C123 1.488 . S
C124 C125 1.348 . S
C124 C129 1.413 . S
C125 C124 1.348 . S
C125 C126 1.442 . S
C125 H152 0.930 . S
C126 C125 1.442 . S
C126 C127 1.381 . S
C126 H153 0.931 . S
C127 C126 1.381 . S
C127 C128 1.321 . S
C128 C127 1.321 . S
C128 C129 1.403 . S
C128 H154 0.934 . S
C129 C124 1.413 . S
C129 C128 1.403 . S
C129 H155 0.930 . S
C130 O144 1.275 . S
C130 O145 1.256 . S
C131 O146 1.259 . S
C131 O147 1.268 . S
C132 Ho121 2.811 . S
C132 C133 1.488 . S
C132 O148 1.215 . S
C132 O149 1.289 . S
C133 C132 1.488 . S
C133 C134 1.348 . S
C133 C138 1.413 . S
C134 C133 1.348 . S
C134 C135 1.442 . S
C134 H156 0.930 . S
C135 C134 1.442 . S
C135 C136 1.381 . S
C135 H157 0.931 . S
C136 C135 1.381 . S
C136 C137 1.321 . S
C137 C136 1.321 . S
C137 C138 1.403 . S
C137 H158 0.934 . S
C138 C133 1.413 . S
C138 C137 1.403 . S
C138 H159 0.930 . S
C139 O150 1.275 . S
C139 O151 1.256 . S
O140 Ho120 2.322 . S
O140 C122 1.259 . S
O141 Ho121 2.346 . S
O141 C122 1.268 . S
O142 Ho120 2.378 . S
O142 C123 1.215 . S
O143 Ho120 2.524 . S
O143 C123 1.289 . S
O144 Ho120 2.381 . S
O144 C130 1.275 . S
O145 Ho120 2.669 . S
O145 Ho121 2.305 . S
O145 C130 1.256 . S
O146 Ho121 2.322 . S
O146 C131 1.259 . S
O147 Ho120 2.346 . S
O147 C131 1.268 . S
O148 Ho121 2.378 . S
O148 C132 1.215 . S
O149 Ho121 2.524 . S
O149 C132 1.289 . S
O150 Ho121 2.381 . S
O150 C139 1.275 . S
O151 Ho120 2.305 . S
O151 Ho121 2.669 . S
O151 C139 1.256 . S
H152 C125 0.930 . S
H153 C126 0.931 . S
H154 C128 0.934 . S
H155 C129 0.930 . S
H156 C134 0.930 . S
H157 C135 0.931 . S
H158 C137 0.934 . S
H159 C138 0.930 . S
C160 C161 1.369 . S
C160 C162 1.419 . S
C160 H164 0.930 . S
C161 C160 1.369 . S
C161 C170 1.429 1_554 S
C162 C160 1.419 . S
C162 C163 1.363 1_554 S
C162 H165 0.929 . S
C163 C162 1.363 1_556 S
C163 C169 1.428 . S
H164 C160 0.930 . S
H165 C162 0.929 . S
S166 N167 1.613 . S
S166 N168 1.610 . S
N167 S166 1.613 . S
N167 C170 1.350 . S
N168 S166 1.610 . S
N168 C169 1.351 . S
C169 C163 1.428 . S
C169 N168 1.351 . S
C169 C170 1.434 . S
C170 C161 1.429 1_556 S
C170 N167 1.350 . S
C170 C169 1.434 . S
C171 C172 1.372 . S
C171 C173 1.419 . S
C171 H175 0.930 . S
C172 C171 1.372 . S
C172 C181 1.426 1_556 S
C173 C171 1.419 . S
C173 C174 1.363 1_556 S
C173 H176 0.929 . S
C174 C173 1.363 1_554 S
C174 C180 1.428 . S
H175 C171 0.930 . S
H176 C173 0.929 . S
S177 N178 1.613 . S
S177 N179 1.610 . S
N178 S177 1.613 . S
N178 C181 1.350 . S
N179 S177 1.610 . S
N179 C180 1.351 . S
C180 C174 1.428 . S
C180 N179 1.351 . S
C180 C181 1.434 . S
C181 C172 1.426 1_554 S
C181 N178 1.350 . S
C181 C180 1.434 . S
C182 C183 1.369 . S
C182 C184 1.419 . S
C182 H186 0.930 . S
C183 C182 1.369 . S
C183 C192 1.429 . S
C184 C182 1.419 . S
C184 C185 1.363 . S
C184 H187 0.929 . S
C185 C184 1.363 . S
C185 C191 1.428 . S
H186 C182 0.930 . S
H187 C184 0.929 . S
S188 N189 1.613 . S
S188 N190 1.610 . S
N189 S188 1.613 . S
N189 C192 1.350 . S
N190 S188 1.610 . S
N190 C191 1.351 . S
C191 C185 1.428 . S
C191 N190 1.351 . S
C191 C192 1.434 . S
C192 C183 1.429 . S
C192 N189 1.350 . S
C192 C191 1.434 . S
C193 C194 1.369 . S
C193 C195 1.419 . S
C193 H197 0.930 . S
C194 C193 1.369 . S
C194 C203 1.429 . S
C195 C193 1.419 . S
C195 C196 1.363 . S
C195 H198 0.929 . S
C196 C195 1.363 . S
C196 C202 1.428 . S
H197 C193 0.930 . S
H198 C195 0.929 . S
S199 N200 1.613 . S
S199 N201 1.610 . S
N200 S199 1.613 . S
N200 C203 1.350 . S
N201 S199 1.610 . S
N201 C202 1.351 . S
C202 C196 1.428 . S
C202 N201 1.351 . S
C202 C203 1.434 . S
C203 C194 1.429 . S
C203 N200 1.350 . S
C203 C202 1.434 . S
C204 C205 1.369 1_556 S
C204 C206 1.419 1_565 S
C204 H208 0.930 . S
C205 C204 1.369 1_554 S
C205 C214 1.429 . S
C206 C204 1.419 1_545 S
C206 C207 1.363 . S
C206 H209 0.929 . S
C207 C206 1.363 . S
C207 C213 1.428 1_556 S
H208 C204 0.930 . S
H209 C206 0.929 . S
S210 N211 1.613 1_545 S
S210 N212 1.610 . S
N211 S210 1.613 1_565 S
N211 C214 1.350 . S
N212 S210 1.610 . S
N212 C213 1.351 . S
C213 C207 1.428 1_554 S
C213 N212 1.351 . S
C213 C214 1.434 1_545 S
C214 C205 1.429 . S
C214 N211 1.350 . S
C214 C213 1.434 1_565 S
C215 C216 1.369 . S
C215 C217 1.419 . S
C215 H219 0.930 . S
C216 C215 1.369 . S
C216 C225 1.429 1_565 S
C217 C215 1.419 . S
C217 C218 1.363 1_565 S
C217 H220 0.929 . S
C218 C217 1.363 1_545 S
C218 C224 1.428 . S
H219 C215 0.930 . S
H220 C217 0.929 . S
S221 N222 1.613 . S
S221 N223 1.610 . S
N222 S221 1.613 . S
N222 C225 1.350 . S
N223 S221 1.610 . S
N223 C224 1.351 . S
C224 C218 1.428 . S
C224 N223 1.351 . S
C224 C225 1.434 . S
C225 C216 1.429 1_545 S
C225 N222 1.350 . S
C225 C224 1.434 . S
C226 C227 1.369 1_656 S
C226 C228 1.419 . S
C226 H230 0.930 . S
C227 C226 1.369 1_454 S
C227 C236 1.429 . S
C228 C226 1.419 . S
C228 C229 1.363 . S
C228 H231 0.929 . S
C229 C228 1.363 . S
C229 C235 1.428 1_656 S
H230 C226 0.930 . S
H231 C228 0.929 . S
S232 N233 1.613 . S
S232 N234 1.610 . S
N233 S232 1.613 . S
N233 C236 1.350 . S
N234 S232 1.610 . S
N234 C235 1.351 . S
C235 C229 1.428 1_454 S
C235 N234 1.351 . S
C235 C236 1.434 . S
C236 C227 1.429 . S
C236 N233 1.350 . S
C236 C235 1.434 . S
C237 C238 1.369 . S
C237 C239 1.419 1_455 S
C237 H241 0.930 . S
C238 C237 1.369 . S
C238 C247 1.429 . S
C239 C237 1.419 1_655 S
C239 C240 1.363 . S
C239 H242 0.929 . S
C240 C239 1.363 . S
C240 C246 1.428 . S
H241 C237 0.930 . S
H242 C239 0.929 . S
S243 N244 1.613 . S
S243 N245 1.610 1_455 S
N244 S243 1.613 . S
N244 C247 1.350 . S
N245 S243 1.610 1_655 S
N245 C246 1.351 . S
C246 C240 1.428 . S
C246 N245 1.351 . S
C246 C247 1.434 1_655 S
C247 C238 1.429 . S
C247 N244 1.350 . S
C247 C246 1.434 1_455 S
C248 C249 1.369 1_455 S
C248 C250 1.419 . S
C248 H252 0.930 . S
C249 C248 1.369 1_655 S
C249 C258 1.429 1_545 S
C250 C248 1.419 . S
C250 C251 1.363 1_455 S
C250 H253 0.929 . S
C251 C250 1.363 1_655 S
C251 C257 1.428 1_545 S
H252 C248 0.930 . S
H253 C250 0.929 . S
S254 N255 1.613 . S
S254 N256 1.610 . S
N255 S254 1.613 . S
N255 C258 1.350 . S
N256 S254 1.610 . S
N256 C257 1.351 . S
C257 C251 1.428 1_565 S
C257 N256 1.351 . S
C257 C258 1.434 . S
C258 C249 1.429 1_565 S
C258 N255 1.350 . S
C258 C257 1.434 . S
C259 C260 1.369 1_545 S
C259 C261 1.419 . S
C259 H263 0.930 . S
C260 C259 1.369 1_565 S
C260 C269 1.429 1_455 S
C261 C259 1.419 . S
C261 C262 1.363 1_545 S
C261 H264 0.929 . S
C262 C261 1.363 1_565 S
C262 C268 1.428 1_455 S
H263 C259 0.930 . S
H264 C261 0.929 . S
S265 N266 1.613 . S
S265 N267 1.610 . S
N266 S265 1.613 . S
N266 C269 1.350 . S
N267 S265 1.610 . S
N267 C268 1.351 . S
C268 C262 1.428 1_655 S
C268 N267 1.351 . S
C268 C269 1.434 . S
C269 C260 1.429 1_655 S
C269 N266 1.350 . S
C269 C268 1.434 . S
C270 C271 1.369 . S
C270 C272 1.419 . S
C270 H274 0.930 . S
C271 C270 1.369 . S
C271 C280 1.429 . S
C272 C270 1.419 . S
C272 C273 1.363 . S
C272 H275 0.929 . S
C273 C272 1.363 . S
C273 C279 1.428 . S
H274 C270 0.930 . S
H275 C272 0.929 . S
S276 N277 1.613 . S
S276 N278 1.610 . S
N277 S276 1.613 . S
N277 C280 1.350 . S
N278 S276 1.610 . S
N278 C279 1.351 . S
C279 C273 1.428 . S
C279 N278 1.351 . S
C279 C280 1.434 . S
C280 C271 1.429 . S
C280 N277 1.350 . S
C280 C279 1.434 . S
C281 C282 1.369 . S
C281 C283 1.419 . S
C281 H285 0.930 . S
C282 C281 1.369 . S
C282 C291 1.429 . S
C283 C281 1.419 . S
C283 C284 1.363 . S
C283 H286 0.929 . S
C284 C283 1.363 . S
C284 C290 1.428 . S
H285 C281 0.930 . S
H286 C283 0.929 . S
S287 N288 1.613 . S
S287 N289 1.610 . S
N288 S287 1.613 . S
N288 C291 1.350 . S
N289 S287 1.610 . S
N289 C290 1.351 . S
C290 C284 1.428 . S
C290 N289 1.351 . S
C290 C291 1.434 . S
C291 C282 1.429 . S
C291 N288 1.350 . S
C291 C290 1.434 . S
C161 C82 3.701 1_554 S
C163 C11 3.703 1_556 S
C172 C91 3.701 1_556 S
C174 C2 3.703 1_554 S
C183 C56 0.452 . S
C185 C127 0.444 . S
C194 C47 0.446 . S
C196 C136 0.448 . S
C205 C16 0.707 . S
C207 C7 0.705 . S
C216 C51 4.888 . S
C218 C42 4.887 . S
C227 C96 0.716 1_455 S
C229 C87 0.698 1_655 S
C238 C122 4.888 . S
C240 C131 4.888 . S
C249 C50 1.457 1_645 S
C251 C19 1.465 1_655 S
C260 C10 1.462 1_455 S
C262 C59 1.465 1_465 S
C271 C130 1.457 . S
C273 C99 1.464 . S
C282 C139 1.465 . S
C284 C90 1.464 . S
