# Generated by pormake.
# Topology yfm, (5)-cn, num edge types: 1
# Building blocks:
#     Node 0, Type 0, BuildingBlock: BEQFEK_clean_sbu_0, # of connection points: 5
#     Node 1, Type 0, BuildingBlock: BEQFEK_clean_sbu_0, # of connection points: 5
#     Node 2, Type 0, BuildingBlock: BEQFEK_clean_sbu_0, # of connection points: 5
#     Node 3, Type 0, BuildingBlock: BEQFEK_clean_sbu_0, # of connection points: 5
#     Node 4, Type 0, BuildingBlock: BEQFEK_clean_sbu_0, # of connection points: 5
#     Node 5, Type 0, BuildingBlock: BEQFEK_clean_sbu_0, # of connection points: 5
#     Node 6, Type 0, BuildingBlock: BEQFEK_clean_sbu_0, # of connection points: 5
#     Node 7, Type 0, BuildingBlock: BEQFEK_clean_sbu_0, # of connection points: 5
#     Node 8, Type 0, BuildingBlock: BEQFEK_clean_sbu_0, # of connection points: 5
#     Node 9, Type 0, BuildingBlock: BEQFEK_clean_sbu_0, # of connection points: 5
#     Node 10, Type 0, BuildingBlock: BEQFEK_clean_sbu_0, # of connection points: 5
#     Node 11, Type 0, BuildingBlock: BEQFEK_clean_sbu_0, # of connection points: 5
#     Node 12, Type 0, BuildingBlock: BEQFEK_clean_sbu_0, # of connection points: 5
#     Node 13, Type 0, BuildingBlock: BEQFEK_clean_sbu_0, # of connection points: 5
#     Node 14, Type 0, BuildingBlock: BEQFEK_clean_sbu_0, # of connection points: 5
#     Node 15, Type 0, BuildingBlock: BEQFEK_clean_sbu_0, # of connection points: 5
#     Node 16, Type 0, BuildingBlock: BEQFEK_clean_sbu_0, # of connection points: 5
#     Node 17, Type 0, BuildingBlock: BEQFEK_clean_sbu_0, # of connection points: 5
#     Node 18, Type 0, BuildingBlock: BEQFEK_clean_sbu_0, # of connection points: 5
#     Node 19, Type 0, BuildingBlock: BEQFEK_clean_sbu_0, # of connection points: 5
#     Node 20, Type 0, BuildingBlock: BEQFEK_clean_sbu_0, # of connection points: 5
#     Node 21, Type 0, BuildingBlock: BEQFEK_clean_sbu_0, # of connection points: 5
#     Node 22, Type 0, BuildingBlock: BEQFEK_clean_sbu_0, # of connection points: 5
#     Node 23, Type 0, BuildingBlock: BEQFEK_clean_sbu_0, # of connection points: 5
#     Node 24, Type 0, BuildingBlock: BEQFEK_clean_sbu_0, # of connection points: 5
#     Node 25, Type 0, BuildingBlock: BEQFEK_clean_sbu_0, # of connection points: 5
#     Node 26, Type 0, BuildingBlock: BEQFEK_clean_sbu_0, # of connection points: 5
#     Node 27, Type 0, BuildingBlock: BEQFEK_clean_sbu_0, # of connection points: 5
#     Node 28, Type 0, BuildingBlock: BEQFEK_clean_sbu_0, # of connection points: 5
#     Node 29, Type 0, BuildingBlock: BEQFEK_clean_sbu_0, # of connection points: 5
#     Node 30, Type 0, BuildingBlock: BEQFEK_clean_sbu_0, # of connection points: 5
#     Node 31, Type 0, BuildingBlock: BEQFEK_clean_sbu_0, # of connection points: 5
#     Edge 32, Type (0, 0), BuildingBlock: UVAHIK_clean_linker_0, # of connection points: 2
#     Edge 33, Type (0, 0), BuildingBlock: UVAHIK_clean_linker_0, # of connection points: 2
#     Edge 34, Type (0, 0), BuildingBlock: UVAHIK_clean_linker_0, # of connection points: 2
#     Edge 35, Type (0, 0), BuildingBlock: UVAHIK_clean_linker_0, # of connection points: 2
#     Edge 36, Type (0, 0), BuildingBlock: UVAHIK_clean_linker_0, # of connection points: 2
#     Edge 37, Type (0, 0), BuildingBlock: UVAHIK_clean_linker_0, # of connection points: 2
#     Edge 38, Type (0, 0), BuildingBlock: UVAHIK_clean_linker_0, # of connection points: 2
#     Edge 39, Type (0, 0), BuildingBlock: UVAHIK_clean_linker_0, # of connection points: 2
#     Edge 40, Type (0, 0), BuildingBlock: UVAHIK_clean_linker_0, # of connection points: 2
#     Edge 41, Type (0, 0), BuildingBlock: UVAHIK_clean_linker_0, # of connection points: 2
#     Edge 42, Type (0, 0), BuildingBlock: UVAHIK_clean_linker_0, # of connection points: 2
#     Edge 43, Type (0, 0), BuildingBlock: UVAHIK_clean_linker_0, # of connection points: 2
#     Edge 44, Type (0, 0), BuildingBlock: UVAHIK_clean_linker_0, # of connection points: 2
#     Edge 45, Type (0, 0), BuildingBlock: UVAHIK_clean_linker_0, # of connection points: 2
#     Edge 46, Type (0, 0), BuildingBlock: UVAHIK_clean_linker_0, # of connection points: 2
#     Edge 47, Type (0, 0), BuildingBlock: UVAHIK_clean_linker_0, # of connection points: 2
#     Edge 48, Type (0, 0), BuildingBlock: UVAHIK_clean_linker_0, # of connection points: 2
#     Edge 49, Type (0, 0), BuildingBlock: UVAHIK_clean_linker_0, # of connection points: 2
#     Edge 50, Type (0, 0), BuildingBlock: UVAHIK_clean_linker_0, # of connection points: 2
#     Edge 51, Type (0, 0), BuildingBlock: UVAHIK_clean_linker_0, # of connection points: 2
#     Edge 52, Type (0, 0), BuildingBlock: UVAHIK_clean_linker_0, # of connection points: 2
#     Edge 53, Type (0, 0), BuildingBlock: UVAHIK_clean_linker_0, # of connection points: 2
#     Edge 54, Type (0, 0), BuildingBlock: UVAHIK_clean_linker_0, # of connection points: 2
#     Edge 55, Type (0, 0), BuildingBlock: UVAHIK_clean_linker_0, # of connection points: 2
#     Edge 56, Type (0, 0), BuildingBlock: UVAHIK_clean_linker_0, # of connection points: 2
#     Edge 57, Type (0, 0), BuildingBlock: UVAHIK_clean_linker_0, # of connection points: 2
#     Edge 58, Type (0, 0), BuildingBlock: UVAHIK_clean_linker_0, # of connection points: 2
#     Edge 59, Type (0, 0), BuildingBlock: UVAHIK_clean_linker_0, # of connection points: 2
#     Edge 60, Type (0, 0), BuildingBlock: UVAHIK_clean_linker_0, # of connection points: 2
#     Edge 61, Type (0, 0), BuildingBlock: UVAHIK_clean_linker_0, # of connection points: 2
#     Edge 62, Type (0, 0), BuildingBlock: UVAHIK_clean_linker_0, # of connection points: 2
#     Edge 63, Type (0, 0), BuildingBlock: UVAHIK_clean_linker_0, # of connection points: 2
#     Edge 64, Type (0, 0), BuildingBlock: UVAHIK_clean_linker_0, # of connection points: 2
#     Edge 65, Type (0, 0), BuildingBlock: UVAHIK_clean_linker_0, # of connection points: 2
#     Edge 66, Type (0, 0), BuildingBlock: UVAHIK_clean_linker_0, # of connection points: 2
#     Edge 67, Type (0, 0), BuildingBlock: UVAHIK_clean_linker_0, # of connection points: 2
#     Edge 68, Type (0, 0), BuildingBlock: UVAHIK_clean_linker_0, # of connection points: 2
#     Edge 69, Type (0, 0), BuildingBlock: UVAHIK_clean_linker_0, # of connection points: 2
#     Edge 70, Type (0, 0), BuildingBlock: UVAHIK_clean_linker_0, # of connection points: 2
#     Edge 71, Type (0, 0), BuildingBlock: UVAHIK_clean_linker_0, # of connection points: 2
#     Edge 72, Type (0, 0), BuildingBlock: UVAHIK_clean_linker_0, # of connection points: 2
#     Edge 73, Type (0, 0), BuildingBlock: UVAHIK_clean_linker_0, # of connection points: 2
#     Edge 74, Type (0, 0), BuildingBlock: UVAHIK_clean_linker_0, # of connection points: 2
#     Edge 75, Type (0, 0), BuildingBlock: UVAHIK_clean_linker_0, # of connection points: 2
#     Edge 76, Type (0, 0), BuildingBlock: UVAHIK_clean_linker_0, # of connection points: 2
#     Edge 77, Type (0, 0), BuildingBlock: UVAHIK_clean_linker_0, # of connection points: 2
#     Edge 78, Type (0, 0), BuildingBlock: UVAHIK_clean_linker_0, # of connection points: 2
#     Edge 79, Type (0, 0), BuildingBlock: UVAHIK_clean_linker_0, # of connection points: 2
#     Edge 80, Type (0, 0), BuildingBlock: UVAHIK_clean_linker_0, # of connection points: 2
#     Edge 81, Type (0, 0), BuildingBlock: UVAHIK_clean_linker_0, # of connection points: 2
#     Edge 82, Type (0, 0), BuildingBlock: UVAHIK_clean_linker_0, # of connection points: 2
#     Edge 83, Type (0, 0), BuildingBlock: UVAHIK_clean_linker_0, # of connection points: 2
#     Edge 84, Type (0, 0), BuildingBlock: UVAHIK_clean_linker_0, # of connection points: 2
#     Edge 85, Type (0, 0), BuildingBlock: UVAHIK_clean_linker_0, # of connection points: 2
#     Edge 86, Type (0, 0), BuildingBlock: UVAHIK_clean_linker_0, # of connection points: 2
#     Edge 87, Type (0, 0), BuildingBlock: UVAHIK_clean_linker_0, # of connection points: 2
#     Edge 88, Type (0, 0), BuildingBlock: UVAHIK_clean_linker_0, # of connection points: 2
#     Edge 89, Type (0, 0), BuildingBlock: UVAHIK_clean_linker_0, # of connection points: 2
#     Edge 90, Type (0, 0), BuildingBlock: UVAHIK_clean_linker_0, # of connection points: 2
#     Edge 91, Type (0, 0), BuildingBlock: UVAHIK_clean_linker_0, # of connection points: 2
#     Edge 92, Type (0, 0), BuildingBlock: UVAHIK_clean_linker_0, # of connection points: 2
#     Edge 93, Type (0, 0), BuildingBlock: UVAHIK_clean_linker_0, # of connection points: 2
#     Edge 94, Type (0, 0), BuildingBlock: UVAHIK_clean_linker_0, # of connection points: 2
#     Edge 95, Type (0, 0), BuildingBlock: UVAHIK_clean_linker_0, # of connection points: 2
#     Edge 96, Type (0, 0), BuildingBlock: UVAHIK_clean_linker_0, # of connection points: 2
#     Edge 97, Type (0, 0), BuildingBlock: UVAHIK_clean_linker_0, # of connection points: 2
#     Edge 98, Type (0, 0), BuildingBlock: UVAHIK_clean_linker_0, # of connection points: 2
#     Edge 99, Type (0, 0), BuildingBlock: UVAHIK_clean_linker_0, # of connection points: 2
#     Edge 100, Type (0, 0), BuildingBlock: UVAHIK_clean_linker_0, # of connection points: 2
#     Edge 101, Type (0, 0), BuildingBlock: UVAHIK_clean_linker_0, # of connection points: 2
#     Edge 102, Type (0, 0), BuildingBlock: UVAHIK_clean_linker_0, # of connection points: 2
#     Edge 103, Type (0, 0), BuildingBlock: UVAHIK_clean_linker_0, # of connection points: 2
#     Edge 104, Type (0, 0), BuildingBlock: UVAHIK_clean_linker_0, # of connection points: 2
#     Edge 105, Type (0, 0), BuildingBlock: UVAHIK_clean_linker_0, # of connection points: 2
#     Edge 106, Type (0, 0), BuildingBlock: UVAHIK_clean_linker_0, # of connection points: 2
#     Edge 107, Type (0, 0), BuildingBlock: UVAHIK_clean_linker_0, # of connection points: 2
#     Edge 108, Type (0, 0), BuildingBlock: UVAHIK_clean_linker_0, # of connection points: 2
#     Edge 109, Type (0, 0), BuildingBlock: UVAHIK_clean_linker_0, # of connection points: 2
#     Edge 110, Type (0, 0), BuildingBlock: UVAHIK_clean_linker_0, # of connection points: 2
#     Edge 111, Type (0, 0), BuildingBlock: UVAHIK_clean_linker_0, # of connection points: 2
# Relax obj value: 0.522
# Max RMSD: 0.225
# Mean RMSD: 0.225
data_MOF--net-yfm--node1-BEQFEK_clean_sbu_0--edge1-UVAHIK_clean_linker_0
_symmetry_space_group_name_H-M    P1
_symmetry_Int_Tables_number       1
_symmetry_cell_setting            triclinic
loop_
_symmetry_equiv_pos_as_xyz
'x, y, z'
_cell_length_a     80.988592
_cell_length_b     80.990045
_cell_length_c     62.532438
_cell_angle_alpha  89.99361
_cell_angle_beta   90.002417
_cell_angle_gamma 90.00064
loop_
_atom_site_label
_atom_site_type_symbol
_atom_site_fract_x
_atom_site_fract_y
_atom_site_fract_z
_atom_type_partial_charge
Co0 Co 0.22209 0.13151 0.10797 0.0
Co1 Co 0.22298 0.11431 0.06259 0.0
C2 C 0.25267 0.11547 0.09092 0.0
O3 O 0.24491 0.12335 0.10529 0.0
O4 O 0.24563 0.11111 0.07368 0.0
C5 C 0.23498 0.1518 0.14087 0.0
O6 O 0.24748 0.1524 0.1275 0.0
C7 C 0.23694 0.10916 0.02019 0.0
C8 C 0.21833 0.09383 0.00378 0.0
C9 C 0.23392 0.10072 1.00118 0.0
N10 N 0.22397 0.10711 0.03335 0.0
N11 N 0.21282 0.098 0.02341 0.0
C12 C 0.25154 0.11968 0.02574 0.0
H13 H 0.24801 0.1292 0.03765 0.0
H14 H 0.25659 0.12577 0.01125 0.0
H15 H 0.26128 0.11183 0.03298 0.0
C16 C 0.21217 0.16008 0.08179 0.0
N17 N 0.21616 0.14403 0.08374 0.0
N18 N 0.21654 0.13711 0.06466 0.0
C19 C 0.21287 0.14874 0.04991 0.0
C20 C 0.20998 0.16364 0.06028 0.0
C21 C 0.21212 0.17196 0.10013 0.0
H22 H 0.20455 0.16687 0.11336 0.0
H23 H 0.22493 0.17346 0.10608 0.0
H24 H 0.20733 0.18427 0.09555 0.0
O25 O 0.20709 0.11241 0.11116 0.0
O26 O 0.2081 0.09942 0.07975 0.0
H27 H 0.20608 0.13383 0.02298 0.0
H28 H 0.20563 0.15585 0.01796 0.0
C29 C 0.21229 0.14575 0.02632 0.0
H30 H 0.22506 0.14511 0.01999 0.0
H31 H 0.20162 0.09435 0.03017 0.0
O32 O 0.22183 0.14438 0.13518 0.0
C33 C 0.2029 0.1005 0.099 0.0
Co34 Co 0.11744 0.97403 0.35826 0.0
Co35 Co 0.135 0.97306 0.31296 0.0
C36 C 0.1352 0.00325 0.341 0.0
O37 O 0.1264 0.99641 0.35525 0.0
O38 O 0.13965 0.99548 0.3243 0.0
C39 C 0.09755 0.98758 0.39126 0.0
O40 O 0.09753 0.00029 0.3782 0.0
C41 C 0.14231 0.98628 0.27016 0.0
C42 C 0.15107 0.9644 0.25242 0.0
C43 C 0.14798 0.98116 0.25022 0.0
N44 N 0.14184 0.97313 0.28335 0.0
N45 N 0.14709 0.96008 0.27261 0.0
C46 C 0.13893 0.00358 0.27747 0.0
H47 H 0.14885 0.0074 0.28862 0.0
H48 H 0.12702 0.00396 0.28626 0.0
H49 H 0.13872 0.01265 0.26429 0.0
C50 C 0.08842 0.96628 0.33193 0.0
N51 N 0.10475 0.96862 0.33407 0.0
N52 N 0.11178 0.96828 0.31506 0.0
C53 C 0.09994 0.96575 0.30018 0.0
C54 C 0.08476 0.96448 0.31043 0.0
C55 C 0.07644 0.96637 0.35015 0.0
H56 H 0.08161 0.95934 0.36381 0.0
H57 H 0.07436 0.97929 0.35538 0.0
H58 H 0.06442 0.96087 0.34544 0.0
O59 O 0.13591 0.95842 0.36164 0.0
O60 O 0.14874 0.95708 0.33021 0.0
H61 H 0.11246 0.95697 0.27233 0.0
H62 H 0.09143 0.9635 0.26746 0.0
C63 C 0.10288 0.96617 0.27657 0.0
H64 H 0.10749 0.97856 0.27199 0.0
H65 H 0.14804 0.94825 0.2791 0.0
O66 O 0.10454 0.97426 0.38539 0.0
C67 C 0.14743 0.95279 0.34982 0.0
Co68 Co 0.27697 0.86823 0.60862 0.0
Co69 Co 0.2763 0.8852 0.56316 0.0
C70 C 0.24645 0.88415 0.59113 0.0
O71 O 0.25417 0.87633 0.60559 0.0
O72 O 0.25357 0.88846 0.57392 0.0
C73 C 0.26367 0.84711 0.63999 0.0
O74 O 0.25218 0.84577 0.62526 0.0
C75 C 0.26256 0.89001 0.52063 0.0
C76 C 0.28115 0.90531 0.50414 0.0
C77 C 0.26561 0.89835 0.50156 0.0
N78 N 0.27549 0.8922 0.53383 0.0
N79 N 0.28663 0.90127 0.52384 0.0
C80 C 0.24798 0.87948 0.52619 0.0
H81 H 0.25155 0.86994 0.53807 0.0
H82 H 0.24291 0.8734 0.5117 0.0
H83 H 0.23825 0.8873 0.53347 0.0
C84 C 0.28799 0.83981 0.58294 0.0
N85 N 0.28322 0.85565 0.58461 0.0
N86 N 0.28281 0.86243 0.56545 0.0
C87 C 0.28712 0.85087 0.5509 0.0
C88 C 0.29057 0.83621 0.56154 0.0
C89 C 0.28905 0.82815 0.60146 0.0
H90 H 0.29558 0.8342 0.61494 0.0
H91 H 0.27638 0.82505 0.60685 0.0
H92 H 0.29548 0.81653 0.5972 0.0
O93 O 0.29196 0.88728 0.61197 0.0
O94 O 0.29111 0.90014 0.58044 0.0
H95 H 0.29448 0.86559 0.52408 0.0
H96 H 0.29462 0.84354 0.51911 0.0
C97 C 0.28804 0.85377 0.52731 0.0
H98 H 0.27536 0.85465 0.52074 0.0
H99 H 0.2978 0.90502 0.53061 0.0
O100 O 0.27665 0.85536 0.63576 0.0
C101 C 0.29622 0.89913 0.59974 0.0
Co102 Co 0.38368 0.02695 0.85914 0.0
Co103 Co 0.36604 0.02587 0.81394 0.0
C104 C 0.367 0.99643 0.84297 0.0
O105 O 0.3752 0.00435 0.85688 0.0
O106 O 0.3625 0.00325 0.82558 0.0
C107 C 0.40432 0.01433 0.89184 0.0
O108 O 0.40472 0.00165 0.87874 0.0
C109 C 0.3593 0.01261 0.77099 0.0
C110 C 0.34829 0.0339 0.75414 0.0
C111 C 0.35265 0.01747 0.75143 0.0
N112 N 0.35901 0.0256 0.78444 0.0
N113 N 0.35249 0.03831 0.77422 0.0
C114 C 0.36417 0.99559 0.77791 0.0
H115 H 0.35436 0.99066 0.78847 0.0
H116 H 0.3758 0.99617 0.78725 0.0
H117 H 0.3656 0.98686 0.76448 0.0
C118 C 0.41182 0.03718 0.83265 0.0
N119 N 0.39596 0.03262 0.83475 0.0
N120 N 0.38897 0.0319 0.81574 0.0
C121 C 0.40044 0.03573 0.80084 0.0
C122 C 0.41522 0.0393 0.81113 0.0
C123 C 0.42365 0.03855 0.85097 0.0
H124 H 0.42593 0.02606 0.85761 0.0
H125 H 0.43563 0.04397 0.84604 0.0
H126 H 0.41808 0.04621 0.86379 0.0
O127 O 0.36482 0.04197 0.86237 0.0
O128 O 0.35164 0.04144 0.83114 0.0
H129 H 0.40841 0.04005 0.76828 0.0
H130 H 0.39377 0.02341 0.77192 0.0
C131 C 0.39733 0.03597 0.77728 0.0
H132 H 0.38691 0.04442 0.77375 0.0
H133 H 0.35068 0.04993 0.78105 0.0
O134 O 0.39683 0.0274 0.88605 0.0
C135 C 0.35292 0.04654 0.85044 0.0
Co136 Co 0.21817 0.87093 0.89501 0.0
Co137 Co 0.22276 0.88642 0.94118 0.0
C138 C 0.2504 0.8856 0.91019 0.0
O139 O 0.24101 0.87935 0.89609 0.0
O140 O 0.24517 0.88864 0.92895 0.0
C141 C 0.22994 0.85061 0.86187 0.0
O142 O 0.24235 0.84949 0.87532 0.0
C143 C 0.23683 0.89652 0.98298 0.0
C144 C 0.21489 0.89666 0.00389 0.0
C145 C 0.23187 0.89876 0.00409 0.0
N146 N 0.2235 0.89274 0.97104 0.0
N147 N 0.21039 0.89312 0.98363 0.0
C148 C 0.25369 0.89934 0.97388 0.0
H149 H 0.2527 0.90691 0.95919 0.0
H150 H 0.2593 0.88727 0.96967 0.0
H151 H 0.26186 0.90598 0.9852 0.0
C152 C 0.20969 0.84159 0.92062 0.0
N153 N 0.21352 0.85771 0.91913 0.0
N154 N 0.21595 0.86378 0.93843 0.0
C155 C 0.21433 0.85141 0.95278 0.0
C156 C 0.21014 0.83701 0.94197 0.0
C157 C 0.20749 0.83046 0.90172 0.0
H158 H 0.20035 0.8369 0.88911 0.0
H159 H 0.2198 0.82725 0.89518 0.0
H160 H 0.20108 0.81885 0.90608 0.0
O161 O 0.20323 0.88995 0.8938 0.0
O162 O 0.20772 0.90218 0.92518 0.0
H163 H 0.20731 0.86013 0.98363 0.0
H164 H 0.2184 0.84095 0.98427 0.0
C165 C 0.21758 0.85313 0.97623 0.0
H166 H 0.2292 0.86009 0.97881 0.0
H167 H 0.19839 0.89062 0.97848 0.0
O168 O 0.21709 0.85855 0.8675 0.0
C169 C 0.20082 0.90182 0.90678 0.0
Co170 Co 0.38079 0.97149 0.14637 0.0
Co171 Co 0.36401 0.97255 0.19225 0.0
C172 C 0.36423 0.00192 0.16326 0.0
O173 O 0.37209 0.9941 0.14892 0.0
O174 O 0.36022 0.99506 0.1808 0.0
C175 C 0.40158 0.98471 0.11448 0.0
O176 O 0.40254 0.9966 0.12873 0.0
C177 C 0.35397 0.98535 0.23464 0.0
C178 C 0.35304 0.96277 0.25436 0.0
C179 C 0.35139 0.97978 0.25542 0.0
N180 N 0.35743 0.9723 0.22203 0.0
N181 N 0.35665 0.95882 0.23392 0.0
C182 C 0.35175 0.00256 0.22642 0.0
H183 H 0.34314 0.00227 0.21268 0.0
H184 H 0.36381 0.00745 0.22086 0.0
H185 H 0.34642 0.01096 0.23857 0.0
C186 C 0.41001 0.96352 0.1723 0.0
N187 N 0.3937 0.96626 0.17049 0.0
N188 N 0.38707 0.96709 0.18972 0.0
C189 C 0.39921 0.96521 0.20439 0.0
C190 C 0.41409 0.96287 0.19377 0.0
C191 C 0.42166 0.96229 0.1538 0.0
H192 H 0.4157 0.9556 0.14039 0.0
H193 H 0.42494 0.97489 0.14832 0.0
H194 H 0.43317 0.95578 0.15846 0.0
O195 O 0.36208 0.95611 0.14359 0.0
O196 O 0.3495 0.95711 0.17525 0.0
H197 H 0.3902 0.95685 0.23456 0.0
H198 H 0.40901 0.96865 0.23631 0.0
C199 C 0.39698 0.96758 0.22793 0.0
H200 H 0.38959 0.97887 0.23094 0.0
H201 H 0.35891 0.94694 0.22818 0.0
O202 O 0.39355 0.97168 0.11913 0.0
C203 C 0.3504 0.95179 0.15603 0.0
Co204 Co 0.2799 0.12995 0.39572 0.0
Co205 Co 0.27771 0.11348 0.44175 0.0
C206 C 0.24865 0.11469 0.41249 0.0
O207 O 0.25699 0.12206 0.3982 0.0
O208 O 0.2551 0.11057 0.43024 0.0
C209 C 0.26728 0.15086 0.36361 0.0
O210 O 0.25556 0.15239 0.37801 0.0
C211 C 0.26451 0.10394 0.4842 0.0
C212 C 0.28709 0.10163 0.50372 0.0
C213 C 0.27002 0.10082 0.50489 0.0
N214 N 0.27766 0.10692 0.47156 0.0
N215 N 0.29113 0.10531 0.48333 0.0
C216 C 0.24722 0.10241 0.47596 0.0
H217 H 0.24722 0.09383 0.46219 0.0
H218 H 0.24281 0.11466 0.47043 0.0
H219 H 0.23861 0.09735 0.48804 0.0
C220 C 0.28967 0.1588 0.42148 0.0
N221 N 0.28562 0.14274 0.4198 0.0
N222 N 0.28416 0.13628 0.43906 0.0
C223 C 0.28676 0.14832 0.45364 0.0
C224 C 0.29047 0.16292 0.44298 0.0
C225 C 0.29096 0.17027 0.40278 0.0
H226 H 0.29746 0.16405 0.38942 0.0
H227 H 0.27835 0.17359 0.39735 0.0
H228 H 0.29758 0.18181 0.40691 0.0
O229 O 0.29458 0.11067 0.3932 0.0
O230 O 0.29262 0.0983 0.42493 0.0
H231 H 0.29539 0.13808 0.48299 0.0
H232 H 0.28582 0.15795 0.48599 0.0
C233 C 0.28517 0.14604 0.47729 0.0
H234 H 0.27331 0.13981 0.481 0.0
H235 H 0.30309 0.10697 0.47752 0.0
O236 O 0.28011 0.14252 0.36829 0.0
C237 C 0.29823 0.09888 0.40583 0.0
Co238 Co 0.12038 0.02885 0.64634 0.0
Co239 Co 0.13675 0.02724 0.6924 0.0
C240 C 0.13563 0.99782 0.66369 0.0
O241 O 0.12815 0.00589 0.64923 0.0
O242 O 0.1398 0.00456 0.68124 0.0
C243 C 0.09926 0.0164 0.61424 0.0
O244 O 0.09773 0.00456 0.62846 0.0
C245 C 0.14537 0.01451 0.7354 0.0
C246 C 0.1494 0.03741 0.75382 0.0
C247 C 0.1491 0.02036 0.75576 0.0
N248 N 0.14319 0.0275 0.72221 0.0
N249 N 0.14575 0.04114 0.73334 0.0
C250 C 0.14543 0.99694 0.72794 0.0
H251 H 0.15433 0.99572 0.7146 0.0
H252 H 0.13298 0.99361 0.72193 0.0
H253 H 0.14927 0.98818 0.74058 0.0
C254 C 0.09171 0.03957 0.67172 0.0
N255 N 0.10762 0.03498 0.67022 0.0
N256 N 0.114 0.03372 0.68955 0.0
C257 C 0.10202 0.03697 0.704 0.0
C258 C 0.0876 0.04095 0.69314 0.0
C259 C 0.08036 0.04128 0.65296 0.0
H260 H 0.07681 0.02881 0.64728 0.0
H261 H 0.06895 0.04812 0.65716 0.0
H262 H 0.08679 0.04776 0.63974 0.0
O263 O 0.13969 0.04345 0.64359 0.0
O264 O 0.15197 0.04204 0.67543 0.0
H265 H 0.09222 0.037 0.73622 0.0
H266 H 0.11003 0.02388 0.73187 0.0
C267 C 0.10418 0.03584 0.7277 0.0
H268 H 0.11246 0.04591 0.73309 0.0
H269 H 0.14485 0.05302 0.72699 0.0
O270 O 0.10776 0.0291 0.619 0.0
C271 C 0.15142 0.04736 0.65618 0.0
Co272 Co 0.7796 0.8706 0.89273 0.0
Co273 Co 0.77572 0.88682 0.93858 0.0
C274 C 0.74753 0.88521 0.90818 0.0
O275 O 0.75662 0.87861 0.89404 0.0
O276 O 0.75317 0.88879 0.92657 0.0
C277 C 0.7679 0.84865 0.86158 0.0
O278 O 0.75634 0.84704 0.87619 0.0
C279 C 0.76158 0.89514 0.98086 0.0
C280 C 0.78374 0.89993 1.00044 0.0
C281 C 0.76668 0.89902 1.0015 0.0
N282 N 0.77501 0.89343 0.96833 0.0
N283 N 0.78821 0.89646 0.98014 0.0
C284 C 0.74425 0.89459 0.97258 0.0
H285 H 0.74308 0.90348 0.95919 0.0
H286 H 0.74154 0.88203 0.96643 0.0
H287 H 0.73501 0.89807 0.98481 0.0
C288 C 0.79003 0.84217 0.91892 0.0
N289 N 0.78503 0.85794 0.91707 0.0
N290 N 0.78293 0.86431 0.93627 0.0
C291 C 0.78599 0.85246 0.95096 0.0
C292 C 0.79075 0.83813 0.94043 0.0
C293 C 0.79286 0.83086 0.90034 0.0
H294 H 0.79914 0.83763 0.88725 0.0
H295 H 0.78076 0.82641 0.89437 0.0
H296 H 0.80037 0.81998 0.90489 0.0
O297 O 0.7942 0.88986 0.89061 0.0
O298 O 0.79052 0.90245 0.92195 0.0
H299 H 0.79355 0.86331 0.98046 0.0
H300 H 0.78526 0.84278 0.98325 0.0
C301 C 0.78397 0.85466 0.97457 0.0
H302 H 0.77169 0.8601 0.97799 0.0
H303 H 0.8003 0.89596 0.97441 0.0
O304 O 0.78038 0.85766 0.8657 0.0
C305 C 0.79695 0.90187 0.90326 0.0
Co306 Co 0.8831 0.0286 0.64378 0.0
Co307 Co 0.86587 0.02688 0.68931 0.0
C308 C 0.86646 0.99789 0.65982 0.0
O309 O 0.87401 0.00617 0.64564 0.0
O310 O 0.86272 0.00422 0.67778 0.0
C311 C 0.90373 0.01555 0.61156 0.0
O312 O 0.90406 0.00314 0.62509 0.0
C313 C 0.85535 0.01403 0.73158 0.0
C314 C 0.85316 0.03675 0.75085 0.0
C315 C 0.85198 0.0197 0.75212 0.0
N316 N 0.85879 0.02706 0.71892 0.0
N317 N 0.85726 0.04061 0.73054 0.0
C318 C 0.85382 0.99669 0.72352 0.0
H319 H 0.84563 0.99659 0.70933 0.0
H320 H 0.86618 0.99211 0.71867 0.0
H321 H 0.84836 0.98826 0.73554 0.0
C322 C 0.91159 0.03805 0.67015 0.0
N323 N 0.89561 0.03383 0.66821 0.0
N324 N 0.88887 0.03271 0.68734 0.0
C325 C 0.90067 0.0357 0.70213 0.0
C326 C 0.91535 0.03937 0.69167 0.0
C327 C 0.92322 0.03971 0.65167 0.0
H328 H 0.92591 0.02726 0.64516 0.0
H329 H 0.93503 0.04557 0.65643 0.0
H330 H 0.91733 0.04711 0.63883 0.0
O331 O 0.86464 0.04398 0.64084 0.0
O332 O 0.85142 0.04248 0.67199 0.0
H333 H 0.91 0.03498 0.73455 0.0
H334 H 0.89125 0.02332 0.72983 0.0
C335 C 0.89809 0.03476 0.72577 0.0
H336 H 0.89061 0.0455 0.73096 0.0
H337 H 0.85927 0.05251 0.72469 0.0
O338 O 0.89624 0.02875 0.61688 0.0
C339 C 0.8527 0.04813 0.65294 0.0
Co340 Co 0.72098 0.13299 0.39527 0.0
Co341 Co 0.72319 0.11591 0.44061 0.0
C342 C 0.75201 0.11668 0.41106 0.0
O343 O 0.7436 0.12427 0.39704 0.0
O344 O 0.74572 0.11274 0.42897 0.0
C345 C 0.73375 0.15357 0.36282 0.0
O346 O 0.74609 0.15422 0.37644 0.0
C347 C 0.73732 0.11073 0.48298 0.0
C348 C 0.71869 0.09541 0.49939 0.0
C349 C 0.73426 0.10231 0.50202 0.0
N350 N 0.72436 0.10864 0.4698 0.0
N351 N 0.71321 0.09954 0.47974 0.0
C352 C 0.75189 0.12127 0.47742 0.0
H353 H 0.74839 0.13064 0.4653 0.0
H354 H 0.7568 0.12754 0.49186 0.0
H355 H 0.76172 0.1134 0.47043 0.0
C356 C 0.71115 0.1614 0.42166 0.0
N357 N 0.71573 0.14552 0.41969 0.0
N358 N 0.71666 0.13869 0.43878 0.0
C359 C 0.71286 0.15024 0.45359 0.0
C360 C 0.70922 0.16494 0.44318 0.0
C361 C 0.7096 0.1731 0.40324 0.0
H362 H 0.70219 0.16729 0.39037 0.0
H363 H 0.72208 0.1757 0.39676 0.0
H364 H 0.70382 0.18494 0.40803 0.0
O365 O 0.70564 0.11426 0.3926 0.0
O366 O 0.70796 0.10104 0.42375 0.0
H367 H 0.70628 0.13545 0.48069 0.0
H368 H 0.70618 0.15749 0.48569 0.0
C369 C 0.71258 0.1473 0.47719 0.0
H370 H 0.72543 0.14648 0.48319 0.0
H371 H 0.70201 0.09589 0.47297 0.0
O372 O 0.72062 0.146 0.3682 0.0
C373 C 0.70198 0.10225 0.40488 0.0
Co374 Co 0.61774 0.97033 0.14469 0.0
Co375 Co 0.63503 0.97282 0.18996 0.0
C376 C 0.63498 0.00115 0.15954 0.0
O377 O 0.62709 0.99271 0.14583 0.0
O378 O 0.63891 0.99506 0.17758 0.0
C379 C 0.59718 0.98329 0.11244 0.0
O380 O 0.5969 0.99568 0.12599 0.0
C381 C 0.64293 0.98734 0.23169 0.0
C382 C 0.65212 0.96615 0.25042 0.0
C383 C 0.64932 0.98301 0.25149 0.0
N384 N 0.64216 0.97377 0.21933 0.0
N385 N 0.64763 0.96111 0.23067 0.0
C386 C 0.63665 0.00396 0.22511 0.0
H387 H 0.62613 0.00262 0.21389 0.0
H388 H 0.63265 0.01123 0.23924 0.0
H389 H 0.6467 0.01078 0.21694 0.0
C390 C 0.58877 0.96349 0.17167 0.0
N391 N 0.60505 0.96615 0.16932 0.0
N392 N 0.61202 0.96719 0.18832 0.0
C393 C 0.6002 0.96528 0.20339 0.0
C394 C 0.5851 0.96295 0.19328 0.0
C395 C 0.5768 0.96217 0.15353 0.0
H396 H 0.58235 0.95496 0.14029 0.0
H397 H 0.5739 0.97473 0.14754 0.0
H398 H 0.56515 0.95617 0.15871 0.0
O399 O 0.63606 0.95447 0.14236 0.0
O400 O 0.64938 0.95694 0.17339 0.0
H401 H 0.61284 0.95858 0.23212 0.0
H402 H 0.59163 0.96486 0.23621 0.0
C403 C 0.60304 0.96725 0.22689 0.0
H404 H 0.60734 0.97999 0.23019 0.0
H405 H 0.6484 0.94904 0.2249 0.0
O406 O 0.60462 0.97005 0.11773 0.0
C407 C 0.64802 0.95073 0.15467 0.0
Co408 Co 0.78095 0.13049 0.10926 0.0
Co409 Co 0.77743 0.11421 0.06335 0.0
C410 C 0.74916 0.11538 0.0935 0.0
O411 O 0.75817 0.12197 0.10775 0.0
O412 O 0.75485 0.11205 0.07506 0.0
C413 C 0.76852 0.15177 0.14084 0.0
O414 O 0.75693 0.15322 0.12625 0.0
C415 C 0.76386 0.10384 0.02142 0.0
C416 C 0.78615 0.10255 1.0012 0.0
C417 C 0.76911 0.101 1.00057 0.0
N418 N 0.77709 0.10742 0.03364 0.0
N419 N 0.7904 0.10638 0.02146 0.0
C420 C 0.74676 0.10173 0.03008 0.0
H421 H 0.74166 0.114 0.03438 0.0
H422 H 0.73843 0.09554 0.01854 0.0
H423 H 0.74724 0.09398 0.04468 0.0
C424 C 0.79088 0.15911 0.0832 0.0
N425 N 0.78617 0.14325 0.08497 0.0
N426 N 0.78425 0.13687 0.06573 0.0
C427 C 0.78709 0.14882 0.0511 0.0
C428 C 0.79158 0.1632 0.06172 0.0
C429 C 0.79342 0.17042 0.10185 0.0
H430 H 0.79995 0.16377 0.11485 0.0
H431 H 0.78121 0.17443 0.10796 0.0
H432 H 0.80055 0.18156 0.09734 0.0
O433 O 0.79601 0.11164 0.11136 0.0
O434 O 0.79232 0.0988 0.08017 0.0
H435 H 0.79562 0.13946 0.02122 0.0
H436 H 0.78485 0.15878 0.01909 0.0
C437 C 0.78508 0.14672 0.02748 0.0
H438 H 0.77352 0.13988 0.02405 0.0
H439 H 0.80238 0.10858 0.0269 0.0
O440 O 0.78132 0.14329 0.13648 0.0
C441 C 0.79887 0.09963 0.09875 0.0
Co442 Co 0.61777 0.02965 0.85966 0.0
Co443 Co 0.63484 0.02715 0.8144 0.0
C444 C 0.63271 0.99809 0.84353 0.0
O445 O 0.62534 0.00663 0.85761 0.0
O446 O 0.63709 0.00445 0.82585 0.0
C447 C 0.59591 0.01753 0.89087 0.0
O448 O 0.59428 0.00599 0.87626 0.0
C449 C 0.6401 0.01273 0.77231 0.0
C450 C 0.65607 0.03084 0.75599 0.0
C451 C 0.64895 0.01536 0.75352 0.0
N452 N 0.64218 0.02581 0.78527 0.0
N453 N 0.65162 0.03668 0.77535 0.0
C454 C 0.62927 0.99836 0.77783 0.0
H455 H 0.61948 0.00223 0.78919 0.0
H456 H 0.62353 0.99309 0.76323 0.0
H457 H 0.63678 0.98868 0.78575 0.0
C458 C 0.58982 0.04088 0.83315 0.0
N459 N 0.60552 0.03574 0.83523 0.0
N460 N 0.61236 0.03453 0.81616 0.0
C461 C 0.60098 0.03866 0.80128 0.0
C462 C 0.58638 0.04285 0.81159 0.0
C463 C 0.57807 0.0427 0.85148 0.0
H464 H 0.58429 0.04906 0.86495 0.0
H465 H 0.57427 0.03025 0.85699 0.0
H466 H 0.56683 0.04966 0.84692 0.0
O467 O 0.63728 0.044 0.86276 0.0
O468 O 0.65018 0.04173 0.83141 0.0
H469 H 0.59394 0.04515 0.76902 0.0
H470 H 0.60449 0.02567 0.77192 0.0
C471 C 0.60396 0.0386 0.77768 0.0
H472 H 0.61596 0.04458 0.77411 0.0
H473 H 0.65541 0.04787 0.78202 0.0
O474 O 0.60469 0.03015 0.88662 0.0
C475 C 0.64937 0.0474 0.85048 0.0
Co476 Co 0.72252 0.8651 0.60853 0.0
Co477 Co 0.72387 0.88354 0.56393 0.0
C478 C 0.75305 0.88236 0.59326 0.0
O479 O 0.745 0.87393 0.60681 0.0
O480 O 0.74644 0.88702 0.57581 0.0
C481 C 0.73539 0.84389 0.64023 0.0
O482 O 0.74783 0.84366 0.62674 0.0
C483 C 0.73713 0.89037 0.5211 0.0
C484 C 0.71588 0.90137 0.50416 0.0
C485 C 0.73224 0.8968 0.50144 0.0
N486 N 0.7242 0.89093 0.53461 0.0
N487 N 0.71152 0.8975 0.52437 0.0
C488 C 0.75411 0.88529 0.52795 0.0
H489 H 0.759 0.89479 0.53898 0.0
H490 H 0.75345 0.87343 0.5368 0.0
H491 H 0.76292 0.88421 0.51454 0.0
C492 C 0.71272 0.83736 0.58117 0.0
N493 N 0.71713 0.85322 0.58378 0.0
N494 N 0.71795 0.86054 0.56499 0.0
C495 C 0.71436 0.84929 0.54972 0.0
C496 C 0.71083 0.83432 0.55954 0.0
C497 C 0.71123 0.8252 0.5991 0.0
H498 H 0.7038 0.83066 0.61222 0.0
H499 H 0.72372 0.82248 0.60545 0.0
H500 H 0.70547 0.81347 0.5938 0.0
O501 O 0.70731 0.88369 0.61211 0.0
O502 O 0.70818 0.89763 0.58143 0.0
H503 H 0.70605 0.86323 0.52276 0.0
H504 H 0.71032 0.84177 0.51693 0.0
C505 C 0.71439 0.85271 0.52623 0.0
H506 H 0.72704 0.8562 0.52116 0.0
H507 H 0.69992 0.89941 0.5312 0.0
O508 O 0.72223 0.85148 0.63502 0.0
C509 C 0.70285 0.89586 0.60056 0.0
Co510 Co 0.88076 0.96783 0.35906 0.0
Co511 Co 0.86401 0.97051 0.3135 0.0
C512 C 0.86341 0.99863 0.34401 0.0
O513 O 0.87083 0.99002 0.35799 0.0
O514 O 0.86017 0.99283 0.32559 0.0
C515 C 0.90165 0.98126 0.39031 0.0
O516 O 0.90221 0.993 0.37583 0.0
C517 C 0.85591 0.98449 0.27146 0.0
C518 C 0.84742 0.96289 0.25298 0.0
C519 C 0.84974 0.97981 0.25168 0.0
N520 N 0.85699 0.97106 0.28405 0.0
N521 N 0.85194 0.95816 0.27285 0.0
C522 C 0.8616 0.00135 0.27785 0.0
H523 H 0.8721 0.00046 0.28917 0.0
H524 H 0.86544 0.00864 0.26367 0.0
H525 H 0.85125 0.00787 0.28581 0.0
C526 C 0.91007 0.9612 0.33236 0.0
N527 N 0.89377 0.96386 0.33454 0.0
N528 N 0.88696 0.96495 0.31545 0.0
C529 C 0.89889 0.96314 0.30051 0.0
C530 C 0.9139 0.96076 0.31079 0.0
C531 C 0.92195 0.9597 0.35058 0.0
H532 H 0.91616 0.95282 0.36395 0.0
H533 H 0.9253 0.97222 0.35628 0.0
H534 H 0.93341 0.95326 0.34552 0.0
O535 O 0.86276 0.95161 0.36121 0.0
O536 O 0.84958 0.95474 0.33017 0.0
H537 H 0.88672 0.95636 0.27149 0.0
H538 H 0.90779 0.96322 0.26784 0.0
C539 C 0.89623 0.96524 0.277 0.0
H540 H 0.89162 0.97789 0.2738 0.0
H541 H 0.85149 0.94613 0.2788 0.0
O542 O 0.89379 0.96805 0.38605 0.0
C543 C 0.85082 0.9482 0.34872 0.0
Co544 Co 0.72005 0.63103 0.60846 0.0
Co545 Co 0.72339 0.61417 0.5629 0.0
C546 C 0.7517 0.61547 0.593 0.0
O547 O 0.74276 0.62233 0.60711 0.0
O548 O 0.74596 0.61194 0.57465 0.0
C549 C 0.73265 0.6527 0.63939 0.0
O550 O 0.74413 0.65396 0.62463 0.0
C551 C 0.73696 0.60367 0.52104 0.0
C552 C 0.71468 0.60232 0.5008 0.0
C553 C 0.73172 0.60087 0.50016 0.0
N554 N 0.72371 0.60714 0.53328 0.0
N555 N 0.7104 0.60605 0.52109 0.0
C556 C 0.75407 0.60167 0.52968 0.0
H557 H 0.75365 0.59392 0.54428 0.0
H558 H 0.7591 0.61397 0.53396 0.0
H559 H 0.76243 0.59552 0.51813 0.0
C560 C 0.71017 0.65937 0.58189 0.0
N561 N 0.71487 0.64353 0.58395 0.0
N562 N 0.71674 0.63692 0.56483 0.0
C563 C 0.7139 0.64872 0.54998 0.0
C564 C 0.70944 0.66321 0.56034 0.0
C565 C 0.70758 0.67088 0.60032 0.0
H566 H 0.70111 0.66436 0.61346 0.0
H567 H 0.71978 0.67505 0.60632 0.0
H568 H 0.70037 0.68192 0.59559 0.0
O569 O 0.70487 0.61233 0.61098 0.0
O570 O 0.70835 0.59907 0.58004 0.0
H571 H 0.70526 0.6391 0.52029 0.0
H572 H 0.71614 0.65835 0.51782 0.0
C573 C 0.71586 0.64637 0.5264 0.0
H574 H 0.72738 0.63945 0.52305 0.0
H575 H 0.69841 0.60822 0.52652 0.0
O576 O 0.71982 0.64418 0.63537 0.0
C577 C 0.70186 0.60019 0.59865 0.0
Co578 Co 0.62135 0.46542 0.86063 0.0
Co579 Co 0.63679 0.47027 0.81462 0.0
C580 C 0.63747 0.49719 0.84654 0.0
O581 O 0.63098 0.48778 0.86043 0.0
O582 O 0.64005 0.49235 0.82751 0.0
C583 C 0.6011 0.47747 0.89354 0.0
O584 O 0.60047 0.48995 0.88013 0.0
C585 C 0.64447 0.48558 0.77312 0.0
C586 C 0.65175 0.46431 0.75317 0.0
C587 C 0.65 0.48133 0.75284 0.0
N588 N 0.64321 0.47178 0.78501 0.0
N589 N 0.64757 0.45909 0.77294 0.0
C590 C 0.63938 0.50237 0.78066 0.0
H591 H 0.62846 0.50138 0.79129 0.0
H592 H 0.63632 0.51058 0.76702 0.0
H593 H 0.64966 0.50796 0.7899 0.0
C594 C 0.5915 0.45923 0.83477 0.0
N595 N 0.60783 0.46198 0.8364 0.0
N596 N 0.61407 0.46402 0.81713 0.0
C597 C 0.60175 0.46281 0.80264 0.0
C598 C 0.58705 0.45979 0.8134 0.0
C599 C 0.58018 0.45681 0.85342 0.0
H600 H 0.5864 0.44935 0.86593 0.0
H601 H 0.57696 0.46902 0.86027 0.0
H602 H 0.56861 0.45054 0.84844 0.0
O603 O 0.63975 0.44965 0.86131 0.0
O604 O 0.65212 0.45455 0.83012 0.0
H605 H 0.61278 0.45756 0.77236 0.0
H606 H 0.59185 0.46522 0.77058 0.0
C607 C 0.60373 0.46633 0.77929 0.0
H608 H 0.60865 0.47899 0.77717 0.0
H609 H 0.64772 0.44687 0.77822 0.0
O610 O 0.60881 0.46446 0.88802 0.0
C611 C 0.65159 0.44727 0.84827 0.0
Co612 Co 0.77687 0.36649 0.10773 0.0
Co613 Co 0.77754 0.3844 0.06256 0.0
C614 C 0.74736 0.38398 0.09046 0.0
O615 O 0.75444 0.37527 0.10461 0.0
O616 O 0.75494 0.38853 0.07365 0.0
C617 C 0.76319 0.34604 0.13993 0.0
O618 O 0.75081 0.34586 0.12637 0.0
C619 C 0.76504 0.39261 0.01948 0.0
C620 C 0.78778 0.39904 1.00186 0.0
C621 C 0.77085 0.39728 0.99941 0.0
N622 N 0.77797 0.39136 0.03297 0.0
N623 N 0.79151 0.3953 0.02232 0.0
C624 C 0.74744 0.39087 0.02648 0.0
H625 H 0.74554 0.37845 0.03357 0.0
H626 H 0.73848 0.39295 0.01342 0.0
H627 H 0.74487 0.40021 0.03896 0.0
C628 C 0.78703 0.33823 0.08152 0.0
N629 N 0.78291 0.35422 0.08353 0.0
N630 N 0.78284 0.36128 0.06454 0.0
C631 C 0.78658 0.34972 0.04973 0.0
C632 C 0.78948 0.33483 0.06007 0.0
C633 C 0.7877 0.32629 0.09978 0.0
H634 H 0.77499 0.32409 0.10572 0.0
H635 H 0.79318 0.3143 0.09498 0.0
H636 H 0.79501 0.3317 0.11304 0.0
O637 O 0.79209 0.38513 0.11152 0.0
O638 O 0.79307 0.39837 0.08033 0.0
H639 H 0.79704 0.36187 0.02264 0.0
H640 H 0.78972 0.34123 0.01716 0.0
C641 C 0.78718 0.35276 0.02617 0.0
H642 H 0.77524 0.35803 0.0208 0.0
H643 H 0.80332 0.39533 0.02899 0.0
O644 O 0.77652 0.3533 0.13465 0.0
C645 C 0.79743 0.3969 0.09991 0.0
Co646 Co 0.8813 0.52906 0.35906 0.0
Co647 Co 0.86523 0.52817 0.31308 0.0
C648 C 0.86478 0.49873 0.34188 0.0
O649 O 0.87207 0.50668 0.35659 0.0
O650 O 0.86159 0.50545 0.32398 0.0
C651 C 0.90165 0.51532 0.39089 0.0
O652 O 0.90254 0.50363 0.37637 0.0
C653 C 0.86043 0.51432 0.27062 0.0
C654 C 0.84493 0.53277 0.25418 0.0
C655 C 0.85183 0.51719 0.25171 0.0
N656 N 0.85843 0.52736 0.28368 0.0
N657 N 0.84928 0.53845 0.27367 0.0
C658 C 0.87092 0.49972 0.27617 0.0
H659 H 0.88039 0.50316 0.28819 0.0
H660 H 0.877 0.49469 0.26165 0.0
H661 H 0.86307 0.48996 0.28327 0.0
C662 C 0.91087 0.53728 0.33361 0.0
N663 N 0.89459 0.53426 0.33513 0.0
N664 N 0.88805 0.53424 0.31582 0.0
C665 C 0.90012 0.53736 0.30142 0.0
C666 C 0.91498 0.53919 0.31226 0.0
C667 C 0.92245 0.53785 0.35225 0.0
H668 H 0.91654 0.54434 0.36585 0.0
H669 H 0.92542 0.52506 0.35728 0.0
H670 H 0.93412 0.54424 0.34798 0.0
O671 O 0.86273 0.54468 0.36163 0.0
O672 O 0.85029 0.54329 0.32989 0.0
H673 H 0.8859 0.54338 0.27354 0.0
H674 H 0.90802 0.54392 0.26955 0.0
C675 C 0.89777 0.53737 0.2777 0.0
H676 H 0.89751 0.52447 0.27182 0.0
H677 H 0.84556 0.54964 0.28039 0.0
O678 O 0.89384 0.52853 0.38646 0.0
C679 C 0.85105 0.54878 0.34905 0.0
Co680 Co 0.71855 0.36868 0.39356 0.0
Co681 Co 0.72309 0.38549 0.43898 0.0
C682 C 0.75078 0.38389 0.40787 0.0
O683 O 0.74143 0.37682 0.39439 0.0
O684 O 0.74548 0.38787 0.42632 0.0
C685 C 0.73017 0.34693 0.36204 0.0
O686 O 0.74191 0.34536 0.3764 0.0
C687 C 0.73744 0.39362 0.48121 0.0
C688 C 0.71545 0.39987 0.50043 0.0
C689 C 0.73245 0.39821 0.50166 0.0
N690 N 0.724 0.3923 0.46863 0.0
N691 N 0.7109 0.39614 0.48024 0.0
C692 C 0.75472 0.39218 0.47297 0.0
H693 H 0.75643 0.40145 0.46015 0.0
H694 H 0.75661 0.37972 0.46599 0.0
H695 H 0.76417 0.39461 0.48534 0.0
C696 C 0.70878 0.34047 0.42037 0.0
N697 N 0.71367 0.35624 0.41815 0.0
N698 N 0.71604 0.36283 0.43717 0.0
C699 C 0.71321 0.35112 0.45214 0.0
C700 C 0.70837 0.33666 0.44196 0.0
C701 C 0.7058 0.32899 0.40201 0.0
H702 H 0.69917 0.33557 0.38905 0.0
H703 H 0.71786 0.32473 0.39568 0.0
H704 H 0.69857 0.318 0.4069 0.0
O705 O 0.70374 0.38778 0.39158 0.0
O706 O 0.70792 0.40085 0.42249 0.0
H707 H 0.7062 0.36271 0.4814 0.0
H708 H 0.71376 0.34192 0.48466 0.0
C709 C 0.71541 0.35361 0.47566 0.0
H710 H 0.72791 0.35866 0.47883 0.0
H711 H 0.69882 0.39612 0.47441 0.0
O712 O 0.71758 0.35567 0.36656 0.0
C713 C 0.70114 0.39993 0.40405 0.0
Co714 Co 0.88177 0.47005 0.64536 0.0
Co715 Co 0.86429 0.4728 0.69044 0.0
C716 C 0.86533 0.50127 0.6603 0.0
O717 O 0.8731 0.4927 0.64661 0.0
O718 O 0.86111 0.49519 0.67823 0.0
C719 C 0.90252 0.48243 0.61283 0.0
O720 O 0.90296 0.49501 0.62609 0.0
C721 C 0.85722 0.48742 0.73227 0.0
C722 C 0.84604 0.46691 0.75043 0.0
C723 C 0.85022 0.48347 0.75186 0.0
N724 N 0.85702 0.47394 0.71971 0.0
N725 N 0.85036 0.46168 0.7307 0.0
C726 C 0.86491 0.50351 0.72601 0.0
H727 H 0.8753 0.50139 0.71478 0.0
H728 H 0.86946 0.51026 0.74029 0.0
H729 H 0.85551 0.51125 0.7179 0.0
C730 C 0.91017 0.46123 0.67244 0.0
N731 N 0.89416 0.46518 0.67004 0.0
N732 N 0.88714 0.46646 0.68897 0.0
C733 C 0.89867 0.46353 0.70411 0.0
C734 C 0.91362 0.46006 0.69412 0.0
C735 C 0.92214 0.46025 0.65422 0.0
H736 H 0.9169 0.45241 0.64135 0.0
H737 H 0.92405 0.47281 0.64763 0.0
H738 H 0.93429 0.45527 0.65914 0.0
O739 O 0.86301 0.45474 0.64272 0.0
O740 O 0.84958 0.45735 0.67366 0.0
H741 H 0.88463 0.45649 0.73159 0.0
H742 H 0.9063 0.45981 0.73695 0.0
C743 C 0.8955 0.46423 0.72765 0.0
H744 H 0.89267 0.47713 0.73231 0.0
H745 H 0.84865 0.44978 0.72469 0.0
O746 O 0.89496 0.46935 0.61847 0.0
C747 C 0.8509 0.45122 0.65489 0.0
Co748 Co 0.78034 0.63328 0.89332 0.0
Co749 Co 0.77601 0.6172 0.93896 0.0
C750 C 0.74869 0.61706 0.90758 0.0
O751 O 0.75797 0.62374 0.8937 0.0
O752 O 0.75375 0.61423 0.92645 0.0
C753 C 0.76807 0.65371 0.86072 0.0
O754 O 0.75571 0.65439 0.87431 0.0
C755 C 0.76084 0.61228 0.98086 0.0
C756 C 0.77951 0.59787 0.99853 0.0
C757 C 0.7637 0.60435 1.00029 0.0
N758 N 0.77417 0.61033 0.96827 0.0
N759 N 0.78533 0.60176 0.97896 0.0
C760 C 0.74611 0.6223 0.97448 0.0
H761 H 0.74964 0.63169 0.96239 0.0
H762 H 0.7406 0.62852 0.98859 0.0
H763 H 0.73673 0.61405 0.9672 0.0
C764 C 0.78911 0.66219 0.91952 0.0
N765 N 0.78447 0.64631 0.91771 0.0
N766 N 0.78273 0.63985 0.93692 0.0
C767 C 0.786 0.65164 0.95161 0.0
C768 C 0.79019 0.66612 0.94103 0.0
C769 C 0.79157 0.67352 0.90087 0.0
H770 H 0.79916 0.66727 0.88852 0.0
H771 H 0.77938 0.67642 0.89373 0.0
H772 H 0.79758 0.68526 0.90561 0.0
O773 O 0.79607 0.6149 0.89206 0.0
O774 O 0.79158 0.60193 0.92299 0.0
H775 H 0.7917 0.63748 0.97958 0.0
H776 H 0.79108 0.65958 0.98396 0.0
C777 C 0.7853 0.64911 0.97528 0.0
H778 H 0.77222 0.64806 0.98035 0.0
H779 H 0.7968 0.59834 0.97278 0.0
O780 O 0.78115 0.64606 0.86612 0.0
C781 C 0.79871 0.6029 0.90477 0.0
Co782 Co 0.6161 0.5277 0.14487 0.0
Co783 Co 0.63437 0.52885 0.18957 0.0
C784 C 0.6349 0.49881 0.16152 0.0
O785 O 0.62576 0.50564 0.14763 0.0
O786 O 0.63945 0.50651 0.17822 0.0
C787 C 0.59525 0.51294 0.11425 0.0
O788 O 0.59492 0.50143 0.12905 0.0
C789 C 0.6429 0.51524 0.23142 0.0
C790 C 0.65227 0.53667 0.24949 0.0
C791 C 0.64957 0.51981 0.25097 0.0
N792 N 0.64189 0.52866 0.21881 0.0
N793 N 0.64747 0.54148 0.22975 0.0
C794 C 0.63658 0.49852 0.22529 0.0
H795 H 0.62577 0.49974 0.2145 0.0
H796 H 0.63295 0.49132 0.23965 0.0
H797 H 0.64644 0.49169 0.21673 0.0
C798 C 0.58737 0.53497 0.17205 0.0
N799 N 0.60369 0.5328 0.16942 0.0
N800 N 0.61102 0.53312 0.18824 0.0
C801 C 0.59941 0.53543 0.20348 0.0
C802 C 0.58405 0.53656 0.19366 0.0
C803 C 0.57506 0.53504 0.15419 0.0
H804 H 0.58026 0.54152 0.1401 0.0
H805 H 0.57222 0.52213 0.1496 0.0
H806 H 0.56342 0.54119 0.15912 0.0
O807 O 0.63407 0.54378 0.14081 0.0
O808 O 0.64743 0.54513 0.17188 0.0
H809 H 0.61253 0.5442 0.23088 0.0
H810 H 0.59151 0.53791 0.23641 0.0
C811 C 0.60276 0.53508 0.22699 0.0
H812 H 0.60733 0.52267 0.23154 0.0
H813 H 0.64811 0.55347 0.22371 0.0
O814 O 0.60276 0.52642 0.11817 0.0
C815 C 0.64569 0.54953 0.15235 0.0
Co816 Co 0.27931 0.36773 0.39405 0.0
Co817 Co 0.27659 0.38436 0.43969 0.0
C818 C 0.24806 0.38377 0.4097 0.0
O819 O 0.2566 0.37622 0.39579 0.0
O820 O 0.25419 0.38776 0.42768 0.0
C821 C 0.26659 0.34667 0.36242 0.0
O822 O 0.25495 0.34538 0.37696 0.0
C823 C 0.26205 0.39125 0.48165 0.0
C824 C 0.28285 0.40147 0.50019 0.0
C825 C 0.26616 0.39783 0.5014 0.0
N826 N 0.27558 0.39115 0.46916 0.0
N827 N 0.28801 0.39723 0.4804 0.0
C828 C 0.24568 0.38432 0.47515 0.0
H829 H 0.24742 0.37386 0.46391 0.0
H830 H 0.23861 0.38005 0.48932 0.0
H831 H 0.23844 0.39408 0.467 0.0
C832 C 0.28862 0.33895 0.42036 0.0
N833 N 0.28446 0.35495 0.41837 0.0
N834 N 0.28296 0.3616 0.4375 0.0
C835 C 0.28583 0.34982 0.45233 0.0
C836 C 0.28958 0.33511 0.44195 0.0
C837 C 0.29006 0.3273 0.40186 0.0
H838 H 0.29671 0.33339 0.38852 0.0
H839 H 0.2775 0.324 0.39624 0.0
H840 H 0.29657 0.31576 0.40624 0.0
O841 O 0.29439 0.38673 0.39173 0.0
O842 O 0.29198 0.39931 0.42327 0.0
H843 H 0.29275 0.36302 0.48053 0.0
H844 H 0.28857 0.34138 0.48501 0.0
C845 C 0.28472 0.35252 0.47594 0.0
H846 H 0.27183 0.35572 0.48025 0.0
H847 H 0.29998 0.39864 0.47449 0.0
O848 O 0.27952 0.35493 0.36684 0.0
C849 C 0.29794 0.39856 0.40435 0.0
Co850 Co 0.37947 0.52949 0.1459 0.0
Co851 Co 0.3634 0.5266 0.192 0.0
C852 C 0.36386 0.4981 0.16196 0.0
O853 O 0.37058 0.5069 0.14758 0.0
O854 O 0.36067 0.50398 0.18036 0.0
C855 C 0.39967 0.51676 0.11312 0.0
O856 O 0.40035 0.5044 0.1267 0.0
C857 C 0.35303 0.51334 0.23405 0.0
C858 C 0.35321 0.53553 0.25452 0.0
C859 C 0.3509 0.51858 0.25505 0.0
N860 N 0.35692 0.52647 0.22182 0.0
N861 N 0.35675 0.53974 0.23415 0.0
C862 C 0.35013 0.49637 0.22539 0.0
H863 H 0.34233 0.49718 0.21087 0.0
H864 H 0.36216 0.49075 0.22099 0.0
H865 H 0.34368 0.48831 0.23702 0.0
C866 C 0.4089 0.53716 0.17165 0.0
N867 N 0.39261 0.53421 0.17004 0.0
N868 N 0.38622 0.53283 0.18935 0.0
C869 C 0.39848 0.53456 0.20385 0.0
C870 C 0.4132 0.53743 0.19307 0.0
C871 C 0.42033 0.53884 0.15298 0.0
H872 H 0.41424 0.54595 0.14004 0.0
H873 H 0.4234 0.52637 0.14681 0.0
H874 H 0.43196 0.54512 0.15769 0.0
O875 O 0.36079 0.54484 0.14396 0.0
O876 O 0.3482 0.54176 0.17537 0.0
H877 H 0.39028 0.54215 0.23474 0.0
H878 H 0.40876 0.52981 0.23523 0.0
C879 C 0.39661 0.53146 0.22731 0.0
H880 H 0.38898 0.52027 0.22996 0.0
H881 H 0.35944 0.55163 0.22876 0.0
O882 O 0.39207 0.52987 0.11854 0.0
C883 C 0.34892 0.54806 0.15664 0.0
Co884 Co 0.21943 0.62992 0.8961 0.0
Co885 Co 0.22277 0.61406 0.94225 0.0
C886 C 0.25098 0.61431 0.91205 0.0
O887 O 0.24204 0.62093 0.89775 0.0
O888 O 0.2453 0.61124 0.93058 0.0
C889 C 0.23223 0.65045 0.86391 0.0
O890 O 0.24403 0.65168 0.87824 0.0
C891 C 0.23603 0.60402 0.98451 0.0
C892 C 0.21363 0.60336 0.00458 0.0
C893 C 0.23063 0.60152 0.00538 0.0
N894 N 0.22291 0.60766 0.97211 0.0
N895 N 0.20954 0.60701 0.9842 0.0
C896 C 0.25314 0.60157 0.97604 0.0
H897 H 0.25262 0.59359 0.96166 0.0
H898 H 0.25839 0.6137 0.97141 0.0
H899 H 0.26134 0.59548 0.98782 0.0
C900 C 0.21092 0.65925 0.92166 0.0
N901 N 0.21466 0.64312 0.92014 0.0
N902 N 0.21659 0.6369 0.93946 0.0
C903 C 0.21475 0.64919 0.95388 0.0
C904 C 0.21092 0.66369 0.94306 0.0
C905 C 0.20903 0.6705 0.90282 0.0
H906 H 0.20232 0.66406 0.88982 0.0
H907 H 0.22146 0.67397 0.89687 0.0
H908 H 0.20233 0.68197 0.90707 0.0
O909 O 0.20393 0.61141 0.89439 0.0
O910 O 0.20752 0.59878 0.92574 0.0
H911 H 0.20692 0.6402 0.98427 0.0
H912 H 0.21795 0.65941 0.98564 0.0
C913 C 0.21736 0.64729 0.97743 0.0
H914 H 0.22892 0.64033 0.98044 0.0
H915 H 0.19762 0.60937 0.97863 0.0
O916 O 0.21924 0.64238 0.86864 0.0
C917 C 0.2009 0.59957 0.90719 0.0
Co918 Co 0.11711 0.47127 0.64591 0.0
Co919 Co 0.13443 0.47193 0.6913 0.0
C920 C 0.13451 0.50132 0.66243 0.0
O921 O 0.12621 0.49374 0.6483 0.0
O922 O 0.13868 0.4943 0.67978 0.0
C923 C 0.09714 0.48479 0.61317 0.0
O924 O 0.09691 0.49723 0.62665 0.0
C925 C 0.14176 0.48585 0.73339 0.0
C926 C 0.1519 0.46477 0.75148 0.0
C927 C 0.14843 0.48149 0.75303 0.0
N928 N 0.14146 0.47244 0.7207 0.0
N929 N 0.1475 0.45984 0.73164 0.0
C930 C 0.13484 0.5023 0.72716 0.0
H931 H 0.12421 0.50064 0.71617 0.0
H932 H 0.1308 0.50935 0.74145 0.0
H933 H 0.1445 0.50951 0.71873 0.0
C934 C 0.08829 0.46252 0.6723 0.0
N935 N 0.10442 0.46608 0.67022 0.0
N936 N 0.11138 0.46653 0.68926 0.0
C937 C 0.09969 0.46346 0.70415 0.0
C938 C 0.08471 0.46074 0.69388 0.0
C939 C 0.0764 0.46236 0.65396 0.0
H940 H 0.08136 0.45448 0.64094 0.0
H941 H 0.07512 0.47508 0.64764 0.0
H942 H 0.06401 0.45786 0.65867 0.0
O943 O 0.13555 0.45551 0.64293 0.0
O944 O 0.14862 0.45628 0.67431 0.0
H945 H 0.11327 0.45486 0.73127 0.0
H946 H 0.09175 0.45903 0.73672 0.0
C947 C 0.10279 0.46323 0.72772 0.0
H948 H 0.10623 0.47582 0.7331 0.0
H949 H 0.14875 0.44792 0.72553 0.0
O950 O 0.10418 0.47141 0.61875 0.0
C951 C 0.14729 0.45095 0.65514 0.0
Co952 Co 0.27769 0.63139 0.60835 0.0
Co953 Co 0.27731 0.61491 0.56238 0.0
C954 C 0.24751 0.61506 0.59068 0.0
O955 O 0.25501 0.62304 0.60519 0.0
O956 O 0.25474 0.61096 0.57344 0.0
C957 C 0.26456 0.65138 0.64135 0.0
O958 O 0.25214 0.65208 0.62786 0.0
C959 C 0.2643 0.60882 0.51915 0.0
C960 C 0.28596 0.59905 0.50183 0.0
C961 C 0.26941 0.60295 0.49929 0.0
N962 N 0.27728 0.60858 0.53262 0.0
N963 N 0.2902 0.60275 0.52214 0.0
C964 C 0.2471 0.61297 0.52616 0.0
H965 H 0.24262 0.60309 0.53697 0.0
H966 H 0.24721 0.62473 0.53527 0.0
H967 H 0.23825 0.61386 0.51276 0.0
C968 C 0.28806 0.66028 0.58321 0.0
N969 N 0.28368 0.64431 0.58459 0.0
N970 N 0.28321 0.63779 0.56529 0.0
C971 C 0.28698 0.64968 0.55093 0.0
C972 C 0.29028 0.66425 0.56185 0.0
C973 C 0.28898 0.67169 0.602 0.0
H974 H 0.27633 0.67379 0.60824 0.0
H975 H 0.29445 0.6838 0.59774 0.0
H976 H 0.29637 0.66588 0.6149 0.0
O977 O 0.29274 0.6124 0.61118 0.0
O978 O 0.29253 0.60009 0.57931 0.0
H979 H 0.29599 0.637 0.52334 0.0
H980 H 0.29124 0.65853 0.51872 0.0
C981 C 0.28733 0.64716 0.52725 0.0
H982 H 0.27485 0.6435 0.52168 0.0
H983 H 0.30187 0.60114 0.5289 0.0
O984 O 0.27771 0.64393 0.63576 0.0
C985 C 0.29738 0.60082 0.59876 0.0
Co986 Co 0.12037 0.53123 0.35871 0.0
Co987 Co 0.13636 0.52774 0.31257 0.0
C988 C 0.13609 0.49971 0.34327 0.0
O989 O 0.12942 0.50868 0.35749 0.0
O990 O 0.13918 0.50533 0.32472 0.0
C991 C 0.0997 0.51858 0.39082 0.0
O992 O 0.09849 0.50679 0.37646 0.0
C993 C 0.14522 0.51362 0.27041 0.0
C994 C 0.14878 0.53577 0.25039 0.0
C995 C 0.14881 0.51867 0.24967 0.0
N996 N 0.1428 0.52707 0.28271 0.0
N997 N 0.14508 0.54028 0.27062 0.0
C998 C 0.14554 0.49636 0.27896 0.0
H999 H 0.15452 0.49574 0.29231 0.0
H1000 H 0.13314 0.4931 0.28521 0.0
H1001 H 0.14942 0.48719 0.26684 0.0
C1002 C 0.09094 0.53875 0.33278 0.0
N1003 N 0.10719 0.53562 0.33449 0.0
N1004 N 0.11359 0.53408 0.31521 0.0
C1005 C 0.1014 0.53592 0.30064 0.0
C1006 C 0.08668 0.53897 0.31135 0.0
C1007 C 0.07948 0.5408 0.35137 0.0
H1008 H 0.08576 0.54759 0.36444 0.0
H1009 H 0.07583 0.52844 0.35736 0.0
H1010 H 0.06815 0.54757 0.34658 0.0
O1011 O 0.13892 0.54679 0.36021 0.0
O1012 O 0.15162 0.54308 0.32892 0.0
H1013 H 0.11124 0.54286 0.27029 0.0
H1014 H 0.09134 0.53291 0.26877 0.0
C1015 C 0.10341 0.53297 0.27717 0.0
H1016 H 0.10971 0.52099 0.27455 0.0
H1017 H 0.14394 0.55239 0.27613 0.0
O1018 O 0.10782 0.53155 0.38614 0.0
C1019 C 0.1508 0.54976 0.34743 0.0
Co1020 Co 0.22037 0.36765 0.10799 0.0
Co1021 Co 0.224 0.38482 0.06262 0.0
C1022 C 0.25223 0.38313 0.09297 0.0
O1023 O 0.24314 0.37596 0.10666 0.0
O1024 O 0.2466 0.38719 0.07471 0.0
C1025 C 0.2326 0.3468 0.14045 0.0
O1026 O 0.24499 0.346 0.12693 0.0
C1027 C 0.23755 0.39532 0.02068 0.0
C1028 C 0.21513 0.39759 1.00086 0.0
C1029 C 0.2322 0.39868 0.99999 0.0
N1030 N 0.22433 0.39194 0.03302 0.0
N1031 N 0.21095 0.39354 0.02107 0.0
C1032 C 0.25472 0.39699 0.02925 0.0
H1033 H 0.25935 0.38468 0.03425 0.0
H1034 H 0.26331 0.40256 0.01751 0.0
H1035 H 0.25441 0.40515 0.04346 0.0
C1036 C 0.21129 0.33925 0.08123 0.0
N1037 N 0.21539 0.35525 0.0834 0.0
N1038 N 0.21728 0.36198 0.06437 0.0
C1039 C 0.21486 0.35017 0.04942 0.0
C1040 C 0.21084 0.33543 0.05962 0.0
C1041 C 0.20964 0.32757 0.09968 0.0
H1042 H 0.20223 0.33341 0.11253 0.0
H1043 H 0.22209 0.32486 0.10615 0.0
H1044 H 0.20382 0.31574 0.09498 0.0
O1045 O 0.20541 0.38661 0.11046 0.0
O1046 O 0.20894 0.39994 0.07962 0.0
H1047 H 0.20655 0.36075 0.02012 0.0
H1048 H 0.21637 0.34103 0.01687 0.0
C1049 C 0.21678 0.35281 0.02588 0.0
H1050 H 0.22861 0.35923 0.02262 0.0
H1051 H 0.19896 0.39161 0.02664 0.0
O1052 O 0.21962 0.35461 0.13502 0.0
C1053 C 0.20248 0.39883 0.09824 0.0
Co1054 Co 0.38126 0.47033 0.85928 0.0
Co1055 Co 0.36516 0.47403 0.81331 0.0
C1056 C 0.36599 0.50217 0.84371 0.0
O1057 O 0.3728 0.49306 0.85766 0.0
O1058 O 0.36242 0.49659 0.82526 0.0
C1059 C 0.40214 0.48289 0.89119 0.0
O1060 O 0.40364 0.49451 0.87666 0.0
C1061 C 0.35375 0.48744 0.77178 0.0
C1062 C 0.35596 0.46593 0.75034 0.0
C1063 C 0.35221 0.48263 0.75053 0.0
N1064 N 0.35868 0.47436 0.78348 0.0
N1065 N 0.3597 0.46148 0.77057 0.0
C1066 C 0.34923 0.5038 0.78121 0.0
H1067 H 0.36065 0.5106 0.78551 0.0
H1068 H 0.34176 0.51135 0.77002 0.0
H1069 H 0.34185 0.5018 0.79591 0.0
C1070 C 0.41053 0.46243 0.83356 0.0
N1071 N 0.39428 0.46559 0.83513 0.0
N1072 N 0.38804 0.46769 0.81585 0.0
C1073 C 0.40042 0.46638 0.80142 0.0
C1074 C 0.41502 0.46294 0.81222 0.0
C1075 C 0.42176 0.45978 0.85224 0.0
H1076 H 0.41519 0.45301 0.86508 0.0
H1077 H 0.42579 0.47193 0.85855 0.0
H1078 H 0.43291 0.45272 0.8474 0.0
O1079 O 0.36239 0.45525 0.86116 0.0
O1080 O 0.34983 0.45882 0.8298 0.0
H1081 H 0.39349 0.45979 0.76964 0.0
H1082 H 0.41103 0.47337 0.77097 0.0
C1083 C 0.39884 0.47053 0.7782 0.0
H1084 H 0.39051 0.48127 0.7761 0.0
H1085 H 0.36337 0.44971 0.77546 0.0
O1086 O 0.39381 0.47002 0.88667 0.0
C1087 C 0.35048 0.45232 0.84844 0.0
C1088 C 0.16567 0.98918 0.21897 0.0
C1089 C 0.15106 0.99125 0.23081 0.0
C1090 C 0.16924 0.99961 0.20169 0.0
C1091 C 0.16296 0.04155 0.185 0.0
H1092 H 0.17576 0.02782 0.12799 0.0
C1093 C 0.18034 0.09056 0.12285 0.0
C1094 C 0.19318 0.08695 0.10856 0.0
C1095 C 0.17304 0.07805 0.13501 0.0
C1096 C 0.17244 0.03192 0.14388 0.0
H1097 H 0.12782 0.00448 0.23216 0.0
H1098 H 0.13448 0.02332 0.2028 0.0
H1099 H 0.16772 0.00709 0.15447 0.0
H1100 H 0.20821 0.0674 0.09527 0.0
H1101 H 0.19619 0.04564 0.11724 0.0
H1102 H 0.16856 0.06613 0.17537 0.0
C1103 C 0.14328 0.01381 0.20714 0.0
C1104 C 0.16774 0.02 0.15898 0.0
C1105 C 0.13958 0.00319 0.2241 0.0
C1106 C 0.19816 0.07047 0.106 0.0
C1107 C 0.1912 0.05798 0.11864 0.0
C1108 C 0.16802 0.05341 0.17015 0.0
C1109 C 0.15827 0.01233 0.19603 0.0
C1110 C 0.16292 0.02474 0.17965 0.0
C1111 C 0.17883 0.06165 0.1338 0.0
C1112 C 0.17281 0.04884 0.14929 0.0
H1113 H 0.17461 0.97988 0.22356 0.0
H1114 H 0.18087 0.99819 0.19334 0.0
H1115 H 0.15953 0.04551 0.20094 0.0
H1116 H 0.17622 0.10318 0.12503 0.0
H1117 H 0.16315 0.08141 0.14579 0.0
C1118 C 0.17618 0.94084 0.35165 0.0
C1119 C 0.16014 0.94221 0.36009 0.0
C1120 C 0.18873 0.93306 0.36346 0.0
C1121 C 0.19596 0.90612 0.41115 0.0
H1122 H 0.23703 0.93039 0.4163 0.0
C1123 C 0.23731 0.90176 0.48544 0.0
C1124 C 0.25452 0.90079 0.48283 0.0
C1125 C 0.22697 0.90451 0.46791 0.0
C1126 C 0.22575 0.92331 0.41479 0.0
H1127 H 0.14451 0.93562 0.38695 0.0
H1128 H 0.16614 0.92225 0.40732 0.0
H1129 H 0.21674 0.93867 0.38944 0.0
H1130 H 0.27437 0.90264 0.45971 0.0
H1131 H 0.25624 0.90775 0.42901 0.0
H1132 H 0.20466 0.89122 0.4371 0.0
C1133 C 0.16916 0.92705 0.39164 0.0
C1134 C 0.21412 0.92801 0.39934 0.0
C1135 C 0.15673 0.93485 0.37997 0.0
C1136 C 0.26115 0.90312 0.46224 0.0
C1137 C 0.25079 0.90607 0.44467 0.0
C1138 C 0.20751 0.9015 0.42664 0.0
C1139 C 0.18542 0.92636 0.38381 0.0
C1140 C 0.19887 0.91976 0.39773 0.0
C1141 C 0.23356 0.90671 0.44732 0.0
C1142 C 0.22235 0.91031 0.42903 0.0
H1143 H 0.17923 0.94641 0.33641 0.0
H1144 H 0.20108 0.93259 0.35685 0.0
H1145 H 0.18451 0.89925 0.41007 0.0
H1146 H 0.23172 0.90097 0.50108 0.0
H1147 H 0.21379 0.90542 0.47061 0.0
C1148 C 0.3008 0.92908 0.60732 0.0
C1149 C 0.30602 0.91263 0.60925 0.0
C1150 C 0.30791 0.94145 0.62002 0.0
C1151 C 0.33243 0.94555 0.67062 0.0
H1152 H 0.3313 0.99211 0.65628 0.0
C1153 C 0.36109 0.99606 0.72438 0.0
C1154 C 0.34932 0.00732 0.73212 0.0
C1155 C 0.35725 0.98548 0.70739 0.0
C1156 C 0.33171 0.97912 0.66041 0.0
H1157 H 0.32352 0.89634 0.62463 0.0
H1158 H 0.33687 0.91793 0.64541 0.0
H1159 H 0.32304 0.97167 0.62957 0.0
H1160 H 0.32497 0.01757 0.72667 0.0
H1161 H 0.31847 0.99943 0.6964 0.0
H1162 H 0.34159 0.95313 0.70125 0.0
C1163 C 0.32668 0.92135 0.63512 0.0
C1164 C 0.32686 0.96736 0.64519 0.0
C1165 C 0.31923 0.90894 0.62294 0.0
C1166 C 0.33417 0.00879 0.7213 0.0
C1167 C 0.33046 0.99846 0.70399 0.0
C1168 C 0.33765 0.95726 0.68557 0.0
C1169 C 0.3207 0.9377 0.63458 0.0
C1170 C 0.32696 0.95036 0.65013 0.0
C1171 C 0.3418 0.98641 0.69727 0.0
C1172 C 0.33716 0.97415 0.68072 0.0
H1173 H 0.29046 0.93219 0.59708 0.0
H1174 H 0.30274 0.95375 0.61914 0.0
H1175 H 0.3323 0.93274 0.67551 0.0
H1176 H 0.37324 0.99532 0.73152 0.0
H1177 H 0.36632 0.9765 0.70222 0.0
C1178 C 0.34308 0.06505 0.87969 0.0
C1179 C 0.33982 0.05687 0.86031 0.0
C1180 C 0.33043 0.0727 0.89112 0.0
C1181 C 0.28557 0.07021 0.89954 0.0
H1182 H 0.29404 0.10826 0.93556 0.0
C1183 C 0.23826 0.09544 0.96195 0.0
C1184 C 0.24497 0.09818 0.98242 0.0
C1185 C 0.24857 0.09238 0.94437 0.0
C1186 C 0.29147 0.09763 0.92558 0.0
H1187 H 0.32072 0.05105 0.83723 0.0
H1188 H 0.29848 0.06463 0.85724 0.0
H1189 H 0.31421 0.10028 0.90854 0.0
H1190 H 0.26789 0.09859 1.00044 0.0
H1191 H 0.2857 0.09402 0.9699 0.0
H1192 H 0.26288 0.06751 0.91693 0.0
C1193 C 0.3109 0.06491 0.86366 0.0
C1194 C 0.30304 0.09303 0.9101 0.0
C1195 C 0.32366 0.05727 0.85209 0.0
C1196 C 0.26221 0.0975 0.98489 0.0
C1197 C 0.27249 0.09467 0.96732 0.0
C1198 C 0.2739 0.07492 0.91494 0.0
C1199 C 0.31409 0.07244 0.88355 0.0
C1200 C 0.30051 0.07894 0.89734 0.0
C1201 C 0.26582 0.09206 0.94686 0.0
C1202 C 0.27698 0.08839 0.92856 0.0
H1203 H 0.35538 0.06506 0.88649 0.0
H1204 H 0.33341 0.07814 0.90647 0.0
H1205 H 0.28324 0.05922 0.89016 0.0
H1206 H 0.22502 0.09567 0.95952 0.0
H1207 H 0.24307 0.09035 0.9288 0.0
C1208 C 0.17901 0.91399 0.88338 0.0
C1209 C 0.19138 0.91624 0.89887 0.0
C1210 C 0.17229 0.92752 0.87257 0.0
C1211 C 0.18487 0.96734 0.85267 0.0
H1212 H 0.13868 0.97281 0.83807 0.0
C1213 C 0.16456 0.01575 0.79001 0.0
C1214 C 0.15215 0.01083 0.77567 0.0
C1215 C 0.168 0.00633 0.80827 0.0
C1216 C 0.15165 0.9714 0.84177 0.0
H1217 H 0.20591 0.93448 0.91585 0.0
H1218 H 0.19436 0.95819 0.89654 0.0
H1219 H 0.1467 0.95234 0.86475 0.0
H1220 H 0.13248 0.99318 0.77042 0.0
H1221 H 0.13906 0.9762 0.80128 0.0
H1222 H 0.19006 0.98555 0.8289 0.0
C1223 C 0.18979 0.94593 0.89297 0.0
C1224 C 0.15621 0.95974 0.85722 0.0
C1225 C 0.19629 0.93239 0.90413 0.0
C1226 C 0.14264 0.99686 0.78062 0.0
C1227 C 0.1462 0.98732 0.79868 0.0
C1228 C 0.18036 0.97881 0.83697 0.0
C1229 C 0.17801 0.94357 0.87672 0.0
C1230 C 0.17289 0.9574 0.86258 0.0
C1231 C 0.1591 0.99176 0.81264 0.0
C1232 C 0.1637 0.98079 0.83097 0.0
H1233 H 0.17502 0.90169 0.87897 0.0
H1234 H 0.16331 0.9253 0.86005 0.0
H1235 H 0.19784 0.96565 0.85625 0.0
H1236 H 0.17186 0.02669 0.78685 0.0
H1237 H 0.17774 0.01044 0.81887 0.0
C1238 C 0.25781 0.89455 0.02544 0.0
C1239 C 0.24222 0.90195 0.02327 0.0
C1240 C 0.26778 0.89799 0.04313 0.0
C1241 C 0.27343 0.92901 0.08636 0.0
H1242 H 0.3053 0.89693 0.10675 0.0
C1243 C 0.32036 0.9444 0.15331 0.0
C1244 C 0.33678 0.94186 0.1468 0.0
C1245 C 0.30728 0.93753 0.14162 0.0
C1246 C 0.29641 0.90598 0.10129 0.0
H1247 H 0.22429 0.91772 0.03884 0.0
H1248 H 0.24145 0.92336 0.07015 0.0
H1249 H 0.28491 0.88879 0.08005 0.0
H1250 H 0.35241 0.92926 0.12389 0.0
H1251 H 0.32968 0.91691 0.10394 0.0
H1252 H 0.28503 0.94617 0.1077 0.0
C1253 C 0.24632 0.91543 0.05772 0.0
C1254 C 0.28478 0.90138 0.08585 0.0
C1255 C 0.23641 0.91211 0.03985 0.0
C1256 C 0.33989 0.93144 0.12929 0.0
C1257 C 0.32686 0.92433 0.11789 0.0
C1258 C 0.28491 0.93353 0.10203 0.0
C1259 C 0.26227 0.9086 0.05947 0.0
C1260 C 0.2734 0.91295 0.07772 0.0
C1261 C 0.31041 0.92771 0.12351 0.0
C1262 C 0.29678 0.92218 0.10928 0.0
H1263 H 0.26238 0.88607 0.01345 0.0
H1264 H 0.27998 0.89255 0.04369 0.0
H1265 H 0.26506 0.93836 0.0804 0.0
H1266 H 0.31758 0.95248 0.16663 0.0
H1267 H 0.29471 0.94025 0.14636 0.0
C1268 C 0.31889 0.08752 0.38008 0.0
C1269 C 0.30778 0.08485 0.39701 0.0
C1270 C 0.32585 0.07421 0.3691 0.0
C1271 C 0.31555 0.03285 0.35235 0.0
H1272 H 0.36125 0.03058 0.33417 0.0
C1273 C 0.33709 0.98411 0.29061 0.0
C1274 C 0.34826 0.98965 0.27501 0.0
C1275 C 0.33361 0.99382 0.30862 0.0
C1276 C 0.3484 0.03108 0.33889 0.0
H1277 H 0.2957 0.06612 0.41617 0.0
H1278 H 0.30763 0.04274 0.39655 0.0
H1279 H 0.35286 0.05125 0.36038 0.0
H1280 H 0.36579 0.00893 0.26713 0.0
H1281 H 0.35913 0.02625 0.29759 0.0
H1282 H 0.31077 0.01343 0.33005 0.0
C1283 C 0.31104 0.05519 0.392 0.0
C1284 C 0.34365 0.04286 0.35406 0.0
C1285 C 0.30433 0.06855 0.40332 0.0
C1286 C 0.35657 0.00465 0.27838 0.0
C1287 C 0.35299 0.01443 0.29619 0.0
C1288 C 0.32024 0.02123 0.33692 0.0
C1289 C 0.32162 0.05791 0.37451 0.0
C1290 C 0.32712 0.04406 0.36067 0.0
C1291 C 0.34129 0.00929 0.31147 0.0
C1292 C 0.33667 0.0204 0.32962 0.0
H1293 H 0.32177 0.09995 0.37485 0.0
H1294 H 0.33387 0.07669 0.35561 0.0
H1295 H 0.30268 0.03362 0.35696 0.0
H1296 H 0.33075 0.97243 0.28864 0.0
H1297 H 0.32483 0.98922 0.32023 0.0
C1298 C 0.16256 0.06799 0.63026 0.0
C1299 C 0.16537 0.05692 0.64719 0.0
C1300 C 0.17579 0.07496 0.6191 0.0
C1301 C 0.21692 0.06466 0.6017 0.0
H1302 H 0.21939 0.11046 0.584 0.0
C1303 C 0.26549 0.08613 0.53976 0.0
C1304 C 0.26012 0.09763 0.52446 0.0
C1305 C 0.25579 0.0826 0.55775 0.0
C1306 C 0.21882 0.09758 0.58856 0.0
H1307 H 0.18425 0.04489 0.66616 0.0
H1308 H 0.20747 0.05682 0.6462 0.0
H1309 H 0.19883 0.10203 0.61033 0.0
H1310 H 0.24119 0.11568 0.51719 0.0
H1311 H 0.22383 0.10888 0.54755 0.0
H1312 H 0.23612 0.05987 0.57911 0.0
C1313 C 0.19499 0.06021 0.64181 0.0
C1314 C 0.20711 0.09281 0.60382 0.0
C1315 C 0.18172 0.0535 0.65332 0.0
C1316 C 0.24531 0.10619 0.52815 0.0
C1317 C 0.23552 0.10253 0.54592 0.0
C1318 C 0.22845 0.06936 0.58617 0.0
C1319 C 0.19212 0.07076 0.62433 0.0
C1320 C 0.20587 0.07626 0.6103 0.0
C1321 C 0.24048 0.09052 0.56089 0.0
C1322 C 0.22937 0.08584 0.57904 0.0
H1323 H 0.1501 0.07084 0.62516 0.0
H1324 H 0.1732 0.08296 0.60562 0.0
H1325 H 0.2161 0.05177 0.6062 0.0
H1326 H 0.27704 0.07959 0.53758 0.0
H1327 H 0.26029 0.07359 0.56914 0.0
C1328 C 0.83658 0.01548 0.78655 0.0
C1329 C 0.84837 0.00996 0.7717 0.0
C1330 C 0.83273 0.00597 0.80461 0.0
C1331 C 0.84744 0.96971 0.83685 0.0
H1332 H 0.80128 0.96633 0.85265 0.0
C1333 C 0.81846 0.91343 0.87891 0.0
C1334 C 0.80646 0.91606 0.89479 0.0
C1335 C 0.8254 0.92673 0.86787 0.0
C1336 C 0.81426 0.96735 0.84869 0.0
H1337 H 0.86649 0.99093 0.76524 0.0
H1338 H 0.85923 0.97393 0.79582 0.0
H1339 H 0.80967 0.98612 0.8254 0.0
H1340 H 0.79278 0.93474 0.91213 0.0
H1341 H 0.80473 0.95809 0.89244 0.0
H1342 H 0.85177 0.95021 0.85939 0.0
C1343 C 0.85289 0.98559 0.79375 0.0
C1344 C 0.81912 0.97873 0.83305 0.0
C1345 C 0.85683 0.99518 0.77588 0.0
C1346 C 0.8021 0.93235 0.9001 0.0
C1347 C 0.80882 0.94568 0.88872 0.0
C1348 C 0.84254 0.95817 0.85226 0.0
C1349 C 0.84064 0.99072 0.80828 0.0
C1350 C 0.83574 0.97985 0.82657 0.0
C1351 C 0.82029 0.94296 0.87218 0.0
C1352 C 0.82585 0.95666 0.85808 0.0
H1353 H 0.83009 0.02701 0.78397 0.0
H1354 H 0.8235 0.01055 0.81563 0.0
H1355 H 0.86041 0.97045 0.83275 0.0
H1356 H 0.82204 0.90101 0.87445 0.0
H1357 H 0.8341 0.92421 0.85513 0.0
C1358 C 0.73833 0.0969 0.54126 0.0
C1359 C 0.7452 0.09988 0.52093 0.0
C1360 C 0.7485 0.09386 0.55898 0.0
C1361 C 0.791 0.09967 0.57877 0.0
H1362 H 0.78325 0.06046 0.61289 0.0
C1363 C 0.84282 0.06741 0.62459 0.0
C1364 C 0.83953 0.05859 0.64348 0.0
C1365 C 0.83013 0.0751 0.61327 0.0
C1366 C 0.78543 0.07167 0.6039 0.0
H1367 H 0.7683 0.10081 0.50333 0.0
H1368 H 0.78586 0.09633 0.53415 0.0
H1369 H 0.76302 0.06875 0.58596 0.0
H1370 H 0.82032 0.05169 0.66589 0.0
H1371 H 0.79801 0.06537 0.64614 0.0
H1372 H 0.81345 0.10256 0.59637 0.0
C1373 C 0.77261 0.09673 0.53648 0.0
C1374 C 0.77384 0.07638 0.58839 0.0
C1375 C 0.76247 0.09952 0.51877 0.0
C1376 C 0.82328 0.05842 0.65142 0.0
C1377 C 0.81048 0.06611 0.63998 0.0
C1378 C 0.80248 0.09508 0.59437 0.0
C1379 C 0.76577 0.09384 0.55678 0.0
C1380 C 0.77677 0.09014 0.57522 0.0
C1381 C 0.81372 0.07424 0.62049 0.0
C1382 C 0.80013 0.0807 0.60666 0.0
H1383 H 0.72507 0.0969 0.54347 0.0
H1384 H 0.74287 0.09161 0.57442 0.0
H1385 H 0.79344 0.11051 0.56911 0.0
H1386 H 0.85519 0.06787 0.61802 0.0
H1387 H 0.83316 0.08101 0.59824 0.0
C1388 C 0.67885 0.09236 0.382 0.0
C1389 C 0.69207 0.08869 0.39568 0.0
C1390 C 0.67164 0.08001 0.36952 0.0
C1391 C 0.67209 0.03434 0.35789 0.0
H1392 H 0.66049 0.04991 0.30125 0.0
C1393 C 0.64902 0.99015 0.29057 0.0
C1394 C 0.65347 0.99413 0.26949 0.0
C1395 C 0.65249 0.0011 0.30737 0.0
C1396 C 0.66385 0.04524 0.31688 0.0
H1397 H 0.70771 0.06916 0.4078 0.0
H1398 H 0.69572 0.04766 0.38529 0.0
H1399 H 0.6683 0.06956 0.32838 0.0
H1400 H 0.66604 0.01201 0.24959 0.0
H1401 H 0.67261 0.03077 0.27867 0.0
H1402 H 0.66864 0.00986 0.3457 0.0
C1403 C 0.69046 0.05993 0.38459 0.0
C1404 C 0.66802 0.05663 0.33273 0.0
C1405 C 0.69738 0.07226 0.39754 0.0
C1406 C 0.66202 0.00888 0.26561 0.0
C1407 C 0.66572 0.01967 0.28234 0.0
C1408 C 0.66816 0.02288 0.34185 0.0
C1409 C 0.67786 0.06376 0.36981 0.0
C1410 C 0.67231 0.05141 0.35348 0.0
C1411 C 0.66076 0.01612 0.30344 0.0
C1412 C 0.66418 0.02817 0.32102 0.0
H1413 H 0.67448 0.10494 0.38039 0.0
H1414 H 0.66157 0.0834 0.35902 0.0
H1415 H 0.67509 0.02978 0.37368 0.0
H1416 H 0.64247 0.97878 0.29396 0.0
H1417 H 0.64837 0.99794 0.32332 0.0
C1418 C 0.75987 0.91431 0.0353 0.0
C1419 C 0.75637 0.90148 0.02086 0.0
C1420 C 0.7494 0.91734 0.05273 0.0
C1421 C 0.70621 0.91286 0.06753 0.0
H1422 H 0.72032 0.92198 0.12558 0.0
C1423 C 0.65778 0.92799 0.131 0.0
C1424 C 0.6615 0.94064 0.14554 0.0
C1425 C 0.67022 0.92078 0.11866 0.0
C1426 C 0.71615 0.91964 0.10942 0.0
H1427 H 0.7403 0.88062 0.01472 0.0
H1428 H 0.72172 0.88625 0.04459 0.0
H1429 H 0.74079 0.91455 0.09842 0.0
H1430 H 0.68122 0.95519 0.15934 0.0
H1431 H 0.70291 0.94316 0.1372 0.0
H1432 H 0.68182 0.91867 0.07779 0.0
C1433 C 0.73231 0.89421 0.04219 0.0
C1434 C 0.7279 0.91532 0.0939 0.0
C1435 C 0.74286 0.89108 0.02498 0.0
C1436 C 0.67805 0.94531 0.1484 0.0
C1437 C 0.69049 0.93838 0.13564 0.0
C1438 C 0.69454 0.91742 0.08286 0.0
C1439 C 0.73526 0.90757 0.056 0.0
C1440 C 0.72302 0.91185 0.07281 0.0
C1441 C 0.68665 0.92641 0.12004 0.0
C1442 C 0.69927 0.92084 0.10408 0.0
H1443 H 0.77037 0.92235 0.0327 0.0
H1444 H 0.75198 0.92771 0.06314 0.0
H1445 H 0.7021 0.91055 0.05131 0.0
H1446 H 0.64512 0.92409 0.12859 0.0
H1447 H 0.66679 0.91119 0.10745 0.0
C1448 C 0.82221 0.08881 0.12048 0.0
C1449 C 0.80855 0.08567 0.10732 0.0
C1450 C 0.82919 0.07619 0.13273 0.0
C1451 C 0.82735 0.03069 0.14468 0.0
H1452 H 0.83932 0.0461 0.20127 0.0
C1453 C 0.85008 0.98658 0.21247 0.0
C1454 C 0.84544 0.99066 0.23345 0.0
C1455 C 0.84665 0.99741 0.19551 0.0
C1456 C 0.83587 0.0415 0.18564 0.0
H1457 H 0.79193 0.06675 0.09576 0.0
H1458 H 0.8036 0.04477 0.11783 0.0
H1459 H 0.83205 0.06589 0.174 0.0
H1460 H 0.83246 0.00852 0.25296 0.0
H1461 H 0.8261 0.0271 0.2236 0.0
H1462 H 0.8303 0.00615 0.157 0.0
C1463 C 0.80933 0.05684 0.11832 0.0
C1464 C 0.832 0.05294 0.16973 0.0
C1465 C 0.8026 0.06944 0.10562 0.0
C1466 C 0.83666 0.00533 0.23705 0.0
C1467 C 0.83306 0.016 0.22017 0.0
C1468 C 0.83105 0.01917 0.16076 0.0
C1469 C 0.82233 0.06021 0.13269 0.0
C1470 C 0.82758 0.04776 0.14902 0.0
C1471 C 0.83828 0.01239 0.1992 0.0
C1472 C 0.83515 0.02444 0.18156 0.0
H1473 H 0.82708 0.10122 0.12197 0.0
H1474 H 0.83956 0.07919 0.14294 0.0
H1475 H 0.82419 0.02617 0.12891 0.0
H1476 H 0.85678 0.97527 0.2093 0.0
H1477 H 0.85093 0.99421 0.17964 0.0
C1478 C 0.67971 0.05341 0.85336 0.0
C1479 C 0.66338 0.05679 0.85963 0.0
C1480 C 0.69303 0.06009 0.8648 0.0
C1481 C 0.7051 0.09264 0.90299 0.0
H1482 H 0.73503 0.05997 0.92645 0.0
C1483 C 0.74378 0.10571 0.97825 0.0
C1484 C 0.75896 0.09766 0.98126 0.0
C1485 C 0.73383 0.10201 0.96064 0.0
C1486 C 0.72708 0.06938 0.91974 0.0
H1487 H 0.64821 0.07062 0.88186 0.0
H1488 H 0.67138 0.08264 0.90133 0.0
H1489 H 0.71479 0.05179 0.89964 0.0
H1490 H 0.77628 0.08046 0.96718 0.0
H1491 H 0.75918 0.07433 0.93595 0.0
H1492 H 0.71729 0.11027 0.92293 0.0
C1493 C 0.67392 0.0747 0.88778 0.0
C1494 C 0.71543 0.06464 0.90437 0.0
C1495 C 0.66065 0.06778 0.87667 0.0
C1496 C 0.76447 0.0866 0.96551 0.0
C1497 C 0.75459 0.08301 0.9477 0.0
C1498 C 0.7169 0.09744 0.9181 0.0
C1499 C 0.69023 0.07057 0.88237 0.0
C1500 C 0.70406 0.07614 0.89623 0.0
C1501 C 0.73898 0.09046 0.94519 0.0
C1502 C 0.72777 0.08579 0.92716 0.0
H1503 H 0.6822 0.04489 0.84041 0.0
H1504 H 0.70549 0.05676 0.86024 0.0
H1505 H 0.69659 0.10179 0.89681 0.0
H1506 H 0.73949 0.11485 0.9896 0.0
H1507 H 0.7219 0.10798 0.95949 0.0
C1508 C 0.6554 0.00988 0.71482 0.0
C1509 C 0.6521 0.0038 0.73547 0.0
C1510 C 0.65951 0.99908 0.69809 0.0
C1511 C 0.67607 0.95683 0.68964 0.0
H1512 H 0.66109 0.96239 0.63115 0.0
C1513 C 0.68401 0.90493 0.62976 0.0
C1514 C 0.69272 0.90884 0.61097 0.0
C1515 C 0.67744 0.91735 0.64262 0.0
C1516 C 0.66541 0.96078 0.64741 0.0
H1517 H 0.65133 0.9815 0.75469 0.0
H1518 H 0.6574 0.96283 0.72569 0.0
H1519 H 0.65294 0.98255 0.65856 0.0
H1520 H 0.70016 0.92886 0.59008 0.0
H1521 H 0.68847 0.95075 0.61273 0.0
H1522 H 0.68825 0.935 0.67874 0.0
C1523 C 0.65696 0.97594 0.72229 0.0
C1524 C 0.66081 0.97232 0.6631 0.0
C1525 C 0.65303 0.9867 0.73895 0.0
C1526 C 0.6935 0.92545 0.60444 0.0
C1527 C 0.68685 0.93797 0.61741 0.0
C1528 C 0.68048 0.9453 0.67412 0.0
C1529 C 0.66053 0.98196 0.70169 0.0
C1530 C 0.66589 0.97033 0.68451 0.0
C1531 C 0.67937 0.93402 0.63706 0.0
C1532 C 0.67503 0.94698 0.65292 0.0
H1533 H 0.65498 0.02302 0.71164 0.0
H1534 H 0.66235 0.0042 0.68252 0.0
H1535 H 0.6807 0.95513 0.70574 0.0
H1536 H 0.68295 0.89225 0.63513 0.0
H1537 H 0.67143 0.91392 0.65745 0.0
C1538 C 0.74102 0.91413 0.47024 0.0
C1539 C 0.74224 0.8993 0.48181 0.0
C1540 C 0.75126 0.91704 0.45258 0.0
C1541 C 0.7921 0.90791 0.43393 0.0
H1542 H 0.77769 0.92244 0.3779 0.0
C1543 C 0.84051 0.92474 0.37082 0.0
C1544 C 0.83713 0.93824 0.35749 0.0
C1545 C 0.82793 0.91741 0.38285 0.0
C1546 C 0.782 0.91861 0.3935 0.0
H1547 H 0.75363 0.87508 0.48229 0.0
H1548 H 0.77226 0.88058 0.45229 0.0
H1549 H 0.75722 0.91526 0.40509 0.0
H1550 H 0.8179 0.95437 0.34564 0.0
H1551 H 0.7961 0.9423 0.36738 0.0
H1552 H 0.81671 0.91221 0.42337 0.0
C1553 C 0.76357 0.89004 0.45714 0.0
C1554 C 0.77022 0.91439 0.40901 0.0
C1555 C 0.75311 0.88701 0.47449 0.0
C1556 C 0.82079 0.9438 0.35559 0.0
C1557 C 0.80826 0.93681 0.36812 0.0
C1558 C 0.80385 0.91249 0.41869 0.0
C1559 C 0.76294 0.90519 0.44626 0.0
C1560 C 0.7752 0.90903 0.42936 0.0
C1561 C 0.81174 0.92383 0.38248 0.0
C1562 C 0.79903 0.91796 0.3982 0.0
H1563 H 0.73253 0.92371 0.47529 0.0
H1564 H 0.75053 0.92882 0.44442 0.0
H1565 H 0.79625 0.90402 0.44962 0.0
H1566 H 0.85303 0.92018 0.37248 0.0
H1567 H 0.8311 0.90706 0.39299 0.0
C1568 C 0.64924 0.48859 0.71382 0.0
C1569 C 0.65407 0.49247 0.73479 0.0
C1570 C 0.65277 0.49942 0.69692 0.0
C1571 C 0.66463 0.54325 0.68692 0.0
H1572 H 0.6756 0.52743 0.63017 0.0
C1573 C 0.69775 0.5701 0.60605 0.0
C1574 C 0.69207 0.58644 0.60759 0.0
C1575 C 0.69097 0.55773 0.61907 0.0
C1576 C 0.67265 0.53208 0.64595 0.0
H1577 H 0.6674 0.51004 0.75434 0.0
H1578 H 0.6739 0.52868 0.72507 0.0
H1579 H 0.66918 0.50768 0.65844 0.0
H1580 H 0.67393 0.6024 0.62234 0.0
H1581 H 0.66137 0.58077 0.64391 0.0
H1582 H 0.66896 0.56751 0.67505 0.0
C1583 C 0.66674 0.51771 0.7216 0.0
C1584 C 0.66876 0.52073 0.66214 0.0
C1585 C 0.66305 0.50701 0.73845 0.0
C1586 C 0.6786 0.5899 0.62096 0.0
C1587 C 0.67157 0.57751 0.63356 0.0
C1588 C 0.66868 0.55454 0.67089 0.0
C1589 C 0.66144 0.51424 0.70063 0.0
C1590 C 0.66488 0.52617 0.68293 0.0
C1591 C 0.67818 0.56143 0.63362 0.0
C1592 C 0.67284 0.54917 0.65016 0.0
H1593 H 0.6424 0.47738 0.71057 0.0
H1594 H 0.64839 0.49634 0.68105 0.0
H1595 H 0.66138 0.548 0.70255 0.0
H1596 H 0.70827 0.56716 0.59605 0.0
H1597 H 0.69649 0.54557 0.61866 0.0
C1598 C 0.66386 0.42532 0.87146 0.0
C1599 C 0.66602 0.43778 0.85606 0.0
C1600 C 0.67742 0.41876 0.88238 0.0
C1601 C 0.71635 0.43224 0.90342 0.0
H1602 H 0.7243 0.38607 0.91601 0.0
C1603 C 0.76532 0.41345 0.96596 0.0
C1604 C 0.76138 0.40013 0.97941 0.0
C1605 C 0.75582 0.41675 0.94773 0.0
C1606 C 0.72217 0.39904 0.91293 0.0
H1607 H 0.68417 0.45262 0.83935 0.0
H1608 H 0.70791 0.4414 0.8589 0.0
H1609 H 0.70353 0.39367 0.88949 0.0
H1610 H 0.74558 0.37872 0.98289 0.0
H1611 H 0.72827 0.38508 0.95229 0.0
H1612 H 0.734 0.43784 0.92769 0.0
C1613 C 0.69569 0.43661 0.86227 0.0
C1614 C 0.71036 0.40336 0.89754 0.0
C1615 C 0.68214 0.44291 0.85097 0.0
C1616 C 0.74839 0.38959 0.97349 0.0
C1617 C 0.7387 0.39304 0.95553 0.0
C1618 C 0.72791 0.42797 0.91911 0.0
C1619 C 0.6934 0.42478 0.87845 0.0
C1620 C 0.70721 0.42 0.89282 0.0
C1621 C 0.74207 0.40685 0.94253 0.0
C1622 C 0.73084 0.4113 0.92437 0.0
H1623 H 0.65158 0.42117 0.87576 0.0
H1624 H 0.67529 0.40972 0.89485 0.0
H1625 H 0.71399 0.44519 0.90032 0.0
H1626 H 0.77553 0.42156 0.96983 0.0
H1627 H 0.75921 0.42719 0.93786 0.0
C1628 C 0.84586 0.51159 0.21288 0.0
C1629 C 0.84849 0.50562 0.23373 0.0
C1630 C 0.84161 0.50078 0.19621 0.0
C1631 C 0.82319 0.45932 0.18811 0.0
H1632 H 0.84045 0.4626 0.13039 0.0
C1633 C 0.81512 0.40614 0.13021 0.0
C1634 C 0.80749 0.40982 0.11059 0.0
C1635 C 0.82163 0.41866 0.14295 0.0
C1636 C 0.83547 0.46164 0.14642 0.0
H1637 H 0.84788 0.48354 0.25339 0.0
H1638 H 0.84152 0.46482 0.22458 0.0
H1639 H 0.84863 0.48306 0.15743 0.0
H1640 H 0.8019 0.42947 0.08819 0.0
H1641 H 0.81348 0.45154 0.11064 0.0
H1642 H 0.81031 0.43784 0.1774 0.0
C1643 C 0.84264 0.47785 0.22094 0.0
C1644 C 0.8401 0.47336 0.16188 0.0
C1645 C 0.84674 0.48862 0.23751 0.0
C1646 C 0.80771 0.42624 0.10321 0.0
C1647 C 0.8143 0.43887 0.11606 0.0
C1648 C 0.81873 0.44763 0.17282 0.0
C1649 C 0.83975 0.48376 0.20013 0.0
C1650 C 0.83423 0.47214 0.18305 0.0
C1651 C 0.82071 0.43522 0.13644 0.0
C1652 C 0.82501 0.44846 0.15192 0.0
H1653 H 0.84693 0.52467 0.20949 0.0
H1654 H 0.83933 0.5058 0.18044 0.0
H1655 H 0.81798 0.45825 0.204 0.0
H1656 H 0.8154 0.3936 0.13626 0.0
H1657 H 0.82683 0.41544 0.15836 0.0
C1658 C 0.75705 0.60597 0.47794 0.0
C1659 C 0.7419 0.59782 0.48079 0.0
C1660 C 0.76699 0.60256 0.46023 0.0
C1661 C 0.77372 0.57059 0.41839 0.0
H1662 H 0.8043 0.60333 0.39645 0.0
C1663 C 0.82088 0.55554 0.35156 0.0
C1664 C 0.83723 0.55853 0.35805 0.0
C1665 C 0.80763 0.56225 0.36309 0.0
C1666 C 0.79576 0.59409 0.40234 0.0
H1667 H 0.72463 0.58076 0.46631 0.0
H1668 H 0.7417 0.57517 0.4349 0.0
H1669 H 0.78363 0.61138 0.42284 0.0
H1670 H 0.85254 0.57175 0.38075 0.0
H1671 H 0.82947 0.58385 0.40037 0.0
H1672 H 0.78593 0.55336 0.39772 0.0
C1673 C 0.74629 0.58368 0.44686 0.0
C1674 C 0.78398 0.59864 0.41762 0.0
C1675 C 0.73642 0.58696 0.46478 0.0
C1676 C 0.84008 0.56923 0.37536 0.0
C1677 C 0.82687 0.57619 0.38657 0.0
C1678 C 0.78533 0.56612 0.40285 0.0
C1679 C 0.76187 0.59122 0.4445 0.0
C1680 C 0.77308 0.58686 0.42633 0.0
C1681 C 0.81051 0.57236 0.38099 0.0
C1682 C 0.79673 0.57772 0.39505 0.0
H1683 H 0.7613 0.61498 0.48947 0.0
H1684 H 0.77889 0.60859 0.45921 0.0
H1685 H 0.76576 0.56107 0.42482 0.0
H1686 H 0.8183 0.54723 0.3384 0.0
H1687 H 0.79513 0.55916 0.35839 0.0
C1688 C 0.64996 0.51316 0.29023 0.0
C1689 C 0.654 0.50889 0.2691 0.0
C1690 C 0.65354 0.50233 0.30713 0.0
C1691 C 0.6638 0.45803 0.31701 0.0
H1692 H 0.67663 0.47349 0.37325 0.0
C1693 C 0.67778 0.41088 0.3824 0.0
C1694 C 0.69156 0.41395 0.39539 0.0
C1695 C 0.67087 0.42349 0.37005 0.0
C1696 C 0.67316 0.46893 0.35761 0.0
H1697 H 0.66603 0.49063 0.24923 0.0
H1698 H 0.67269 0.47203 0.27846 0.0
H1699 H 0.67035 0.49344 0.34516 0.0
H1700 H 0.70848 0.43275 0.40649 0.0
H1701 H 0.69693 0.4547 0.38427 0.0
H1702 H 0.66749 0.43365 0.32877 0.0
C1703 C 0.66607 0.4833 0.2821 0.0
C1704 C 0.66935 0.48041 0.34153 0.0
C1705 C 0.66231 0.49399 0.26528 0.0
C1706 C 0.69771 0.43012 0.39679 0.0
C1707 C 0.69106 0.44269 0.38399 0.0
C1708 C 0.66779 0.44662 0.33292 0.0
C1709 C 0.66147 0.48712 0.30325 0.0
C1710 C 0.66481 0.47511 0.3209 0.0
C1711 C 0.67791 0.43939 0.36982 0.0
C1712 C 0.67262 0.45184 0.35346 0.0
H1713 H 0.64363 0.52465 0.29359 0.0
H1714 H 0.64973 0.50571 0.32314 0.0
H1715 H 0.66 0.45338 0.30154 0.0
H1716 H 0.67274 0.39852 0.38113 0.0
H1717 H 0.66039 0.42053 0.36002 0.0
C1718 C 0.82085 0.44638 0.64797 0.0
C1719 C 0.83733 0.44132 0.64563 0.0
C1720 C 0.80843 0.43945 0.63516 0.0
C1721 C 0.8045 0.4172 0.58314 0.0
H1722 H 0.75804 0.41585 0.59799 0.0
C1723 C 0.75589 0.39029 0.52587 0.0
C1724 C 0.74278 0.401 0.52095 0.0
C1725 C 0.76642 0.39366 0.54304 0.0
C1726 C 0.77099 0.41619 0.59366 0.0
H1727 H 0.85359 0.42417 0.62952 0.0
H1728 H 0.83194 0.41127 0.60835 0.0
H1729 H 0.77839 0.42356 0.62514 0.0
H1730 H 0.72944 0.42273 0.53136 0.0
H1731 H 0.74773 0.4285 0.56174 0.0
H1732 H 0.79708 0.40958 0.55181 0.0
C1733 C 0.82855 0.42115 0.61915 0.0
C1734 C 0.78268 0.42068 0.60918 0.0
C1735 C 0.84098 0.42836 0.63152 0.0
C1736 C 0.73963 0.41443 0.53457 0.0
C1737 C 0.75005 0.4177 0.55197 0.0
C1738 C 0.79288 0.41246 0.56783 0.0
C1739 C 0.81221 0.42709 0.62003 0.0
C1740 C 0.79963 0.42136 0.6041 0.0
C1741 C 0.7638 0.40758 0.55603 0.0
C1742 C 0.776 0.412 0.57284 0.0
H1743 H 0.81774 0.4565 0.65855 0.0
H1744 H 0.79609 0.44449 0.63632 0.0
H1745 H 0.81728 0.41803 0.57823 0.0
H1746 H 0.75812 0.37937 0.51631 0.0
H1747 H 0.77671 0.38545 0.54608 0.0
C1748 C 0.84994 0.48996 0.79113 0.0
C1749 C 0.84664 0.49471 0.76996 0.0
C1750 C 0.84677 0.50083 0.80811 0.0
C1751 C 0.83839 0.54551 0.81882 0.0
H1752 H 0.8233 0.52955 0.87386 0.0
C1753 C 0.80233 0.57282 0.89734 0.0
C1754 C 0.80859 0.58897 0.89653 0.0
C1755 C 0.80929 0.56035 0.88467 0.0
C1756 C 0.82739 0.53427 0.85856 0.0
H1757 H 0.83641 0.51401 0.75002 0.0
H1758 H 0.83041 0.53269 0.77936 0.0
H1759 H 0.82972 0.5099 0.84557 0.0
H1760 H 0.82786 0.60446 0.88349 0.0
H1761 H 0.84081 0.58258 0.86272 0.0
H1762 H 0.83505 0.5698 0.83102 0.0
C1763 C 0.83619 0.52098 0.78302 0.0
C1764 C 0.83132 0.52294 0.84236 0.0
C1765 C 0.83958 0.51024 0.76612 0.0
C1766 C 0.82277 0.59211 0.88431 0.0
C1767 C 0.83 0.57958 0.87213 0.0
C1768 C 0.83424 0.55679 0.83481 0.0
C1769 C 0.83994 0.51657 0.80427 0.0
C1770 C 0.83665 0.52842 0.82213 0.0
C1771 C 0.82288 0.56371 0.87124 0.0
C1772 C 0.82854 0.5514 0.85491 0.0
H1773 H 0.8553 0.47799 0.7945 0.0
H1774 H 0.84995 0.49699 0.82417 0.0
H1775 H 0.84282 0.55029 0.8037 0.0
H1776 H 0.79125 0.57014 0.90642 0.0
H1777 H 0.80331 0.5484 0.88443 0.0
C1778 C 0.67416 0.56212 0.15015 0.0
C1779 C 0.65813 0.56027 0.1418 0.0
C1780 C 0.68651 0.57 0.13813 0.0
C1781 C 0.69314 0.59625 0.08961 0.0
H1782 H 0.73487 0.57299 0.08562 0.0
C1783 C 0.73522 0.60065 0.01584 0.0
C1784 C 0.75237 0.60201 0.0188 0.0
C1785 C 0.72471 0.59791 0.03321 0.0
C1786 C 0.7234 0.5798 0.08678 0.0
H1787 H 0.64232 0.56616 0.11484 0.0
H1788 H 0.66363 0.57968 0.09407 0.0
H1789 H 0.71464 0.56466 0.11249 0.0
H1790 H 0.77194 0.60096 0.04241 0.0
H1791 H 0.75354 0.59589 0.07281 0.0
H1792 H 0.70163 0.61092 0.06331 0.0
C1793 C 0.66678 0.57518 0.10986 0.0
C1794 C 0.7118 0.57506 0.10225 0.0
C1795 C 0.65453 0.56729 0.12176 0.0
C1796 C 0.75877 0.60015 0.03959 0.0
C1797 C 0.74825 0.59722 0.05699 0.0
C1798 C 0.70467 0.6009 0.07409 0.0
C1799 C 0.68303 0.57632 0.11762 0.0
C1800 C 0.69634 0.58295 0.10349 0.0
C1801 C 0.73108 0.59613 0.05399 0.0
C1802 C 0.71976 0.59247 0.07214 0.0
H1803 H 0.67736 0.55683 0.16551 0.0
H1804 H 0.69885 0.57084 0.1447 0.0
H1805 H 0.68153 0.60286 0.09039 0.0
H1806 H 0.72983 0.60111 1.00006 0.0
H1807 H 0.71159 0.59666 0.03025 0.0
C1808 C 0.35553 0.49299 0.27686 0.0
C1809 C 0.34783 0.50841 0.27441 0.0
C1810 C 0.35209 0.48304 0.29456 0.0
C1811 C 0.32044 0.47673 0.33673 0.0
H1812 H 0.35279 0.44547 0.35801 0.0
C1813 C 0.30459 0.4288 0.40231 0.0
C1814 C 0.30769 0.41251 0.39565 0.0
C1815 C 0.31142 0.44216 0.39111 0.0
C1816 C 0.34365 0.45419 0.3523 0.0
H1817 H 0.33151 0.52609 0.28946 0.0
H1818 H 0.3258 0.50893 0.32081 0.0
H1819 H 0.36105 0.46624 0.33186 0.0
H1820 H 0.32123 0.39742 0.37302 0.0
H1821 H 0.33347 0.42065 0.35394 0.0
H1822 H 0.30307 0.46455 0.35723 0.0
C1823 C 0.33402 0.5042 0.3086 0.0
C1824 C 0.34833 0.46603 0.33718 0.0
C1825 C 0.33737 0.51411 0.29073 0.0
C1826 C 0.3186 0.40983 0.37852 0.0
C1827 C 0.32566 0.42314 0.36762 0.0
C1828 C 0.31583 0.46502 0.35208 0.0
C1829 C 0.34114 0.4884 0.3106 0.0
C1830 C 0.33668 0.47718 0.3287 0.0
C1831 C 0.32174 0.43945 0.37337 0.0
C1832 C 0.32728 0.45336 0.35961 0.0
H1833 H 0.36421 0.48853 0.26503 0.0
H1834 H 0.35776 0.47095 0.29531 0.0
H1835 H 0.31104 0.48491 0.33047 0.0
H1836 H 0.29614 0.43125 0.41535 0.0
H1837 H 0.30827 0.45461 0.39595 0.0
C1838 C 0.33771 0.56926 0.13155 0.0
C1839 C 0.33494 0.55785 0.1481 0.0
C1840 C 0.32447 0.57629 0.12048 0.0
C1841 C 0.28312 0.56582 0.10312 0.0
H1842 H 0.28156 0.61129 0.08386 0.0
C1843 C 0.23483 0.58747 0.04077 0.0
C1844 C 0.24061 0.59826 0.02487 0.0
C1845 C 0.2445 0.58399 0.05882 0.0
C1846 C 0.28187 0.5985 0.0889 0.0
H1847 H 0.31608 0.54538 0.16663 0.0
H1848 H 0.29284 0.5575 0.14694 0.0
H1849 H 0.30188 0.60302 0.11059 0.0
H1850 H 0.26037 0.61509 0.01644 0.0
H1851 H 0.27757 0.60844 0.04705 0.0
H1852 H 0.26378 0.561 0.0807 0.0
C1853 C 0.30531 0.56105 0.14268 0.0
C1854 C 0.29345 0.59382 0.10436 0.0
C1855 C 0.3186 0.55423 0.15406 0.0
C1856 C 0.25587 0.60615 0.02792 0.0
C1857 C 0.26559 0.6026 0.0458 0.0
C1858 C 0.27167 0.57045 0.08746 0.0
C1859 C 0.30814 0.57186 0.12545 0.0
C1860 C 0.29441 0.57736 0.11135 0.0
C1861 C 0.26015 0.59132 0.06143 0.0
C1862 C 0.27111 0.58679 0.07977 0.0
H1863 H 0.35016 0.57228 0.12658 0.0
H1864 H 0.32707 0.58448 0.1072 0.0
H1865 H 0.2837 0.553 0.10799 0.0
H1866 H 0.22295 0.58145 0.03905 0.0
H1867 H 0.2397 0.57553 0.07069 0.0
C1868 C 0.17689 0.58896 0.88652 0.0
C1869 C 0.19099 0.5857 0.89883 0.0
C1870 C 0.16964 0.57652 0.87421 0.0
C1871 C 0.1719 0.53127 0.86039 0.0
H1872 H 0.15722 0.54768 0.80537 0.0
C1873 C 0.14873 0.48773 0.79238 0.0
C1874 C 0.15235 0.49246 0.77129 0.0
C1875 C 0.15212 0.49842 0.80949 0.0
C1876 C 0.16143 0.5428 0.82054 0.0
H1877 H 0.20818 0.56675 0.90876 0.0
H1878 H 0.19607 0.54513 0.88656 0.0
H1879 H 0.16503 0.567 0.83292 0.0
H1880 H 0.16343 0.51148 0.75165 0.0
H1881 H 0.16976 0.52985 0.78123 0.0
H1882 H 0.16925 0.50698 0.84724 0.0
C1883 C 0.19017 0.55712 0.88682 0.0
C1884 C 0.16561 0.55397 0.83665 0.0
C1885 C 0.19716 0.56952 0.89961 0.0
C1886 C 0.15999 0.50775 0.76768 0.0
C1887 C 0.16358 0.5183 0.7847 0.0
C1888 C 0.16792 0.52005 0.84408 0.0
C1889 C 0.17668 0.56062 0.87329 0.0
C1890 C 0.17104 0.54843 0.85681 0.0
C1891 C 0.15947 0.51395 0.80585 0.0
C1892 C 0.16285 0.52568 0.82381 0.0
H1893 H 0.17188 0.60135 0.88571 0.0
H1894 H 0.15891 0.57962 0.86471 0.0
H1895 H 0.1758 0.52646 0.87573 0.0
H1896 H 0.14293 0.47593 0.79557 0.0
H1897 H 0.14868 0.49463 0.82548 0.0
C1898 C 0.15647 0.42798 0.63148 0.0
C1899 C 0.16052 0.4408 0.6456 0.0
C1900 C 0.16865 0.42057 0.61888 0.0
C1901 C 0.21444 0.41995 0.60764 0.0
H1902 H 0.19888 0.40891 0.55084 0.0
C1903 C 0.25883 0.39725 0.54041 0.0
C1904 C 0.25489 0.40172 0.51933 0.0
C1905 C 0.24777 0.40058 0.55714 0.0
C1906 C 0.20356 0.41213 0.56651 0.0
H1907 H 0.1805 0.45556 0.6583 0.0
H1908 H 0.20167 0.44333 0.63558 0.0
H1909 H 0.17928 0.41694 0.57789 0.0
H1910 H 0.23694 0.41408 0.49932 0.0
H1911 H 0.21806 0.4205 0.52829 0.0
H1912 H 0.23891 0.41624 0.59557 0.0
C1913 C 0.18926 0.43846 0.63462 0.0
C1914 C 0.19218 0.41641 0.58233 0.0
C1915 C 0.17711 0.44554 0.6477 0.0
C1916 C 0.24005 0.41009 0.51535 0.0
C1917 C 0.22918 0.41368 0.53203 0.0
C1918 C 0.2259 0.41595 0.59163 0.0
C1919 C 0.18511 0.42623 0.61948 0.0
C1920 C 0.1974 0.42051 0.60315 0.0
C1921 C 0.2327 0.40876 0.55316 0.0
C1922 C 0.22062 0.41218 0.57073 0.0
H1923 H 0.14376 0.42406 0.62966 0.0
H1924 H 0.16497 0.41079 0.6081 0.0
H1925 H 0.21902 0.42274 0.62349 0.0
H1926 H 0.27026 0.39083 0.54385 0.0
H1927 H 0.25092 0.39646 0.57309 0.0
C1928 C 0.33922 0.48679 0.71443 0.0
C1929 C 0.34859 0.49303 0.73152 0.0
C1930 C 0.33563 0.49673 0.69665 0.0
C1931 C 0.34825 0.53603 0.6696 0.0
H1932 H 0.30391 0.53467 0.6463 0.0
C1933 C 0.31741 0.59045 0.62596 0.0
C1934 C 0.30729 0.58727 0.60816 0.0
C1935 C 0.3246 0.5775 0.6374 0.0
C1936 C 0.31643 0.53501 0.65237 0.0
H1937 H 0.36274 0.51412 0.74248 0.0
H1938 H 0.35588 0.53163 0.71228 0.0
H1939 H 0.31206 0.51472 0.67355 0.0
H1940 H 0.29726 0.568 0.58794 0.0
H1941 H 0.30967 0.54522 0.60826 0.0
H1942 H 0.35228 0.55687 0.64911 0.0
C1943 C 0.35125 0.51909 0.7124 0.0
C1944 C 0.32114 0.52355 0.66801 0.0
C1945 C 0.3549 0.50915 0.73003 0.0
C1946 C 0.30511 0.57084 0.60148 0.0
C1947 C 0.31208 0.55781 0.61321 0.0
C1948 C 0.34348 0.54758 0.65416 0.0
C1949 C 0.34146 0.5131 0.69549 0.0
C1950 C 0.337 0.52413 0.6772 0.0
C1951 C 0.32163 0.56102 0.63154 0.0
C1952 C 0.32742 0.54741 0.64567 0.0
H1953 H 0.33444 0.47431 0.71495 0.0
H1954 H 0.32832 0.49155 0.6838 0.0
H1955 H 0.3607 0.53663 0.67585 0.0
H1956 H 0.31931 0.60298 0.63151 0.0
H1957 H 0.33178 0.58038 0.65152 0.0
C1958 C 0.24806 0.61208 0.47258 0.0
C1959 C 0.25943 0.60018 0.4797 0.0
C1960 C 0.23766 0.60876 0.45525 0.0
C1961 C 0.23167 0.58356 0.40726 0.0
H1962 H 0.1851 0.58664 0.42082 0.0
C1963 C 0.18092 0.55354 0.35446 0.0
C1964 C 0.16473 0.55961 0.35577 0.0
C1965 C 0.19352 0.56058 0.36686 0.0
C1966 C 0.198 0.58608 0.41636 0.0
H1967 H 0.27001 0.57618 0.47291 0.0
H1968 H 0.25207 0.57054 0.44216 0.0
H1969 H 0.20542 0.59518 0.44704 0.0
H1970 H 0.1492 0.57854 0.36955 0.0
H1971 H 0.17126 0.59165 0.38979 0.0
H1972 H 0.22434 0.57476 0.37641 0.0
C1973 C 0.25093 0.58225 0.4504 0.0
C1974 C 0.20967 0.59088 0.43158 0.0
C1975 C 0.26115 0.58546 0.468 0.0
C1976 C 0.1616 0.5736 0.36833 0.0
C1977 C 0.17425 0.58093 0.38022 0.0
C1978 C 0.21997 0.57906 0.39178 0.0
C1979 C 0.23879 0.59369 0.44422 0.0
C1980 C 0.22661 0.5895 0.42732 0.0
C1981 C 0.19024 0.57407 0.38049 0.0
C1982 C 0.20291 0.58006 0.39618 0.0
H1983 H 0.24709 0.62391 0.48054 0.0
H1984 H 0.22863 0.61793 0.45054 0.0
H1985 H 0.24469 0.58246 0.40353 0.0
H1986 H 0.18359 0.54259 0.34513 0.0
H1987 H 0.20555 0.55477 0.36663 0.0
C1988 C 0.14196 0.49434 0.22653 0.0
C1989 C 0.15182 0.50827 0.23052 0.0
C1990 C 0.14559 0.48373 0.20955 0.0
C1991 C 0.16765 0.47953 0.15827 0.0
H1992 H 0.17072 0.43348 0.17465 0.0
C1993 C 0.19799 0.42906 0.10465 0.0
C1994 C 0.19277 0.41264 0.10726 0.0
C1995 C 0.19121 0.44167 0.11729 0.0
C1996 C 0.16958 0.4462 0.16952 0.0
H1997 H 0.17227 0.52286 0.21871 0.0
H1998 H 0.17857 0.50433 0.18872 0.0
H1999 H 0.16219 0.45383 0.20083 0.0
H2000 H 0.17545 0.39673 0.12368 0.0
H2001 H 0.16291 0.4187 0.14465 0.0
H2002 H 0.17491 0.47184 0.12682 0.0
C2003 C 0.1682 0.50149 0.19901 0.0
C2004 C 0.16477 0.4579 0.18467 0.0
C2005 C 0.16464 0.51205 0.21619 0.0
C2006 C 0.17979 0.40927 0.12147 0.0
C2007 C 0.17277 0.42188 0.13371 0.0
C2008 C 0.17227 0.46773 0.14294 0.0
C2009 C 0.15897 0.48698 0.19587 0.0
C2010 C 0.16377 0.4747 0.17928 0.0
C2011 C 0.17888 0.43814 0.13255 0.0
C2012 C 0.17332 0.45087 0.14836 0.0
H2013 H 0.13153 0.49151 0.23674 0.0
H2014 H 0.138 0.47286 0.20724 0.0
H2015 H 0.16691 0.49239 0.15363 0.0
H2016 H 0.20812 0.43196 0.09398 0.0
H2017 H 0.19632 0.45397 0.11592 0.0
C2018 C 0.25713 0.39383 0.97693 0.0
C2019 C 0.24221 0.40219 0.9806 0.0
C2020 C 0.26686 0.39756 0.9591 0.0
C2021 C 0.27371 0.43064 0.91878 0.0
H2022 H 0.3025 0.39767 0.89362 0.0
C2023 C 0.32005 0.44687 0.85148 0.0
C2024 C 0.33636 0.44267 0.85688 0.0
C2025 C 0.30675 0.4402 0.86298 0.0
C2026 C 0.29447 0.40699 0.90042 0.0
H2027 H 0.22512 0.4201 0.96752 0.0
H2028 H 0.24183 0.42633 0.93598 0.0
H2029 H 0.28228 0.38943 0.92049 0.0
H2030 H 0.3515 0.42737 0.87748 0.0
H2031 H 0.32836 0.4154 0.89703 0.0
H2032 H 0.28602 0.44817 0.89864 0.0
C2033 C 0.2464 0.41734 0.94735 0.0
C2034 C 0.28295 0.40231 0.91597 0.0
C2035 C 0.23674 0.41369 0.96534 0.0
C2036 C 0.33906 0.43083 0.87294 0.0
C2037 C 0.32579 0.42395 0.88411 0.0
C2038 C 0.28509 0.43526 0.90302 0.0
C2039 C 0.26174 0.4095 0.94413 0.0
C2040 C 0.27269 0.41414 0.92581 0.0
C2041 C 0.30953 0.42895 0.87975 0.0
C2042 C 0.29587 0.42356 0.89404 0.0
H2043 H 0.26135 0.38437 0.98787 0.0
H2044 H 0.27859 0.3913 0.95739 0.0
H2045 H 0.26624 0.44017 0.92609 0.0
H2046 H 0.3176 0.45607 0.83931 0.0
H2047 H 0.29433 0.4442 0.85919 0.0
C2048 C 0.24846 0.16173 0.33525 0.0
C2049 C 0.26433 0.15653 0.34142 0.0
C2050 C 0.24484 0.16484 0.31379 0.0
C2051 C 0.26242 0.17358 0.2609 0.0
H2052 H 0.22533 0.14814 0.23962 0.0
C2053 C 0.25318 0.16019 0.17121 0.0
C2054 C 0.23722 0.1573 0.16326 0.0
C2055 C 0.25574 0.16311 0.19297 0.0
C2056 C 0.23548 0.15568 0.24524 0.0
H2057 H 0.28911 0.15148 0.33004 0.0
H2058 H 0.28282 0.1572 0.29246 0.0
H2059 H 0.23146 0.14819 0.27765 0.0
H2060 H 0.21128 0.15629 0.17165 0.0
H2061 H 0.21563 0.16209 0.20952 0.0
H2062 H 0.26641 0.18122 0.22857 0.0
C2063 C 0.27318 0.15874 0.30431 0.0
C2064 C 0.23904 0.15561 0.26709 0.0
C2065 C 0.27676 0.15542 0.32579 0.0
C2066 C 0.22375 0.15832 0.17734 0.0
C2067 C 0.22628 0.1615 0.1991 0.0
C2068 C 0.2587 0.17388 0.23904 0.0
C2069 C 0.25707 0.16304 0.29805 0.0
C2070 C 0.25269 0.16433 0.27509 0.0
C2071 C 0.24237 0.16348 0.20732 0.0
C2072 C 0.24535 0.16468 0.23084 0.0
H2073 H 0.23858 0.16275 0.34685 0.0
H2074 H 0.23237 0.16828 0.30941 0.0
H2075 H 0.27292 0.18054 0.26671 0.0
H2076 H 0.26386 0.15942 0.16082 0.0
H2077 H 0.26832 0.16432 0.1986 0.0
C2078 C 0.09014 0.97594 0.42719 0.0
C2079 C 0.09183 0.98963 0.41358 0.0
C2080 C 0.0868 0.97817 0.44896 0.0
C2081 C 0.07528 0.01016 0.48981 0.0
H2082 H 0.10009 0.9815 0.52766 0.0
C2083 C 0.09441 0.02644 0.57676 0.0
C2084 C 0.09328 0.01382 0.59212 0.0
C2085 C 0.09078 0.02322 0.55527 0.0
C2086 C 0.0929 0.98947 0.51733 0.0
H2087 H 0.0907 0.01636 0.41196 0.0
H2088 H 0.08552 0.02027 0.4498 0.0
H2089 H 0.09999 0.97603 0.48948 0.0
H2090 H 0.08665 0.98813 0.59713 0.0
H2091 H 0.08055 0.98252 0.55966 0.0
H2092 H 0.069 0.02409 0.51787 0.0
C2093 C 0.08633 0.00777 0.44377 0.0
C2094 C 0.09275 0.98629 0.49539 0.0
C2095 C 0.08942 0.00553 0.42199 0.0
C2096 C 0.08771 0.99813 0.58571 0.0
C2097 C 0.08428 0.99487 0.56424 0.0
C2098 C 0.07564 0.01347 0.51178 0.0
C2099 C 0.08534 0.99415 0.45767 0.0
C2100 C 0.0841 0.9967 0.48125 0.0
C2101 C 0.08612 0.00728 0.54874 0.0
C2102 C 0.08459 0.00324 0.5257 0.0
H2103 H 0.09177 0.96352 0.42114 0.0
H2104 H 0.08572 0.96734 0.45902 0.0
H2105 H 0.06822 0.01828 0.47954 0.0
H2106 H 0.09861 0.03867 0.58119 0.0
H2107 H 0.09238 0.03299 0.54363 0.0
C2108 C 0.27251 0.84229 0.67798 0.0
C2109 C 0.26025 0.84154 0.6621 0.0
C2110 C 0.26854 0.83925 0.69941 0.0
C2111 C 0.23421 0.84433 0.73575 0.0
H2112 H 0.26001 0.81811 0.77539 0.0
C2113 C 0.21847 0.8442 0.82548 0.0
C2114 C 0.23195 0.84478 0.8396 0.0
C2115 C 0.22089 0.84048 0.80385 0.0
C2116 C 0.25274 0.82562 0.7646 0.0
H2117 H 0.23438 0.83621 0.65614 0.0
H2118 H 0.22747 0.8312 0.69352 0.0
H2119 H 0.26682 0.81778 0.73733 0.0
H2120 H 0.25844 0.84139 0.84223 0.0
H2121 H 0.26274 0.83559 0.80465 0.0
H2122 H 0.22071 0.85298 0.76281 0.0
C2123 C 0.24012 0.83413 0.68937 0.0
C2124 C 0.25662 0.82534 0.74279 0.0
C2125 C 0.24413 0.83693 0.66795 0.0
C2126 C 0.24777 0.84098 0.83181 0.0
C2127 C 0.25022 0.83753 0.81017 0.0
C2128 C 0.2305 0.84484 0.75755 0.0
C2129 C 0.2522 0.83562 0.70534 0.0
C2130 C 0.24748 0.83482 0.72821 0.0
C2131 C 0.23687 0.83753 0.79578 0.0
C2132 C 0.23984 0.83566 0.77235 0.0
H2133 H 0.28505 0.84577 0.67397 0.0
H2134 H 0.27807 0.84055 0.71145 0.0
H2135 H 0.22709 0.85193 0.72487 0.0
H2136 H 0.20611 0.84694 0.83106 0.0
H2137 H 0.21024 0.84023 0.79339 0.0
C2138 C 0.41127 0.02608 0.92785 0.0
C2139 C 0.41006 0.0124 0.91416 0.0
C2140 C 0.41455 0.02388 0.94964 0.0
C2141 C 0.42663 0.99208 0.9905 0.0
H2142 H 0.40061 0.01986 0.02808 0.0
C2143 C 0.40707 0.97493 0.07703 0.0
C2144 C 0.40769 0.98753 0.09247 0.0
C2145 C 0.41083 0.97832 0.05562 0.0
C2146 C 0.40814 0.01214 0.01783 0.0
H2147 H 0.41202 0.98571 0.91241 0.0
H2148 H 0.41708 0.98183 0.95028 0.0
H2149 H 0.40095 0.02549 0.98995 0.0
H2150 H 0.41354 0.01338 0.09771 0.0
H2151 H 0.41986 0.01928 0.06038 0.0
H2152 H 0.43301 0.97822 0.01858 0.0
C2153 C 0.41594 0.99432 0.9443 0.0
C2154 C 0.40842 0.01541 0.99591 0.0
C2155 C 0.41293 0.99654 0.9225 0.0
C2156 C 0.41287 0.00339 0.08623 0.0
C2157 C 0.41643 0.00681 0.06484 0.0
C2158 C 0.42613 0.98866 0.01244 0.0
C2159 C 0.41642 0.00792 0.95829 0.0
C2160 C 0.41751 0.00532 0.98187 0.0
C2161 C 0.4151 0.99441 0.04925 0.0
C2162 C 0.41675 0.99858 0.02626 0.0
H2163 H 0.40929 0.03847 0.92185 0.0
H2164 H 0.41523 0.03469 0.95978 0.0
H2165 H 0.43402 0.98421 0.9803 0.0
H2166 H 0.40317 0.96257 0.08133 0.0
H2167 H 0.40962 0.96855 0.0439 0.0
C2168 C 0.72432 0.83637 0.67641 0.0
C2169 C 0.73777 0.838 0.6624 0.0
C2170 C 0.72692 0.83309 0.69812 0.0
C2171 C 0.75974 0.82212 0.73823 0.0
H2172 H 0.73162 0.84727 0.77638 0.0
C2173 C 0.7774 0.84337 0.82395 0.0
C2174 C 0.76512 0.84213 0.83977 0.0
C2175 C 0.77387 0.83922 0.80271 0.0
C2176 C 0.73944 0.83999 0.76596 0.0
H2177 H 0.76446 0.83675 0.65998 0.0
H2178 H 0.76904 0.83172 0.69771 0.0
H2179 H 0.72539 0.84655 0.73842 0.0
H2180 H 0.73978 0.83474 0.84586 0.0
H2181 H 0.73363 0.82778 0.80879 0.0
H2182 H 0.77432 0.81646 0.76596 0.0
C2183 C 0.75643 0.83251 0.69206 0.0
C2184 C 0.73583 0.83947 0.74415 0.0
C2185 C 0.75381 0.83551 0.67033 0.0
C2186 C 0.74951 0.83591 0.83408 0.0
C2187 C 0.74594 0.83197 0.81285 0.0
C2188 C 0.76351 0.82288 0.76005 0.0
C2189 C 0.74305 0.83166 0.70637 0.0
C2190 C 0.74603 0.8307 0.72989 0.0
C2191 C 0.75796 0.83394 0.79689 0.0
C2192 C 0.75347 0.83196 0.77406 0.0
H2193 H 0.7118 0.83806 0.67071 0.0
H2194 H 0.71627 0.83209 0.7085 0.0
H2195 H 0.76772 0.81498 0.72787 0.0
H2196 H 0.78955 0.84807 0.82784 0.0
H2197 H 0.78333 0.84092 0.79067 0.0
C2198 C 0.91315 0.00045 0.41781 0.0
C2199 C 0.9079 0.98449 0.41216 0.0
C2200 C 0.91674 0.00433 0.43906 0.0
C2201 C 0.92629 0.98738 0.49217 0.0
H2202 H 0.90093 0.02463 0.51309 0.0
C2203 C 0.91259 0.99717 0.58163 0.0
C2204 C 0.90961 0.01318 0.58938 0.0
C2205 C 0.91575 0.99449 0.55996 0.0
C2206 C 0.90845 0.01445 0.50756 0.0
H2207 H 0.90335 0.95978 0.42419 0.0
H2208 H 0.90986 0.96655 0.46139 0.0
H2209 H 0.90076 0.01815 0.47518 0.0
H2210 H 0.9088 0.03908 0.58075 0.0
H2211 H 0.91501 0.03452 0.54304 0.0
H2212 H 0.93406 0.98366 0.52452 0.0
C2213 C 0.91108 0.97606 0.44931 0.0
C2214 C 0.90827 0.01069 0.48578 0.0
C2215 C 0.9073 0.97221 0.42804 0.0
C2216 C 0.91087 0.02658 0.57521 0.0
C2217 C 0.91429 0.02393 0.55355 0.0
C2218 C 0.9267 0.99129 0.51397 0.0
C2219 C 0.91537 0.99228 0.45509 0.0
C2220 C 0.91694 0.99696 0.47792 0.0
C2221 C 0.91627 0.0078 0.5455 0.0
C2222 C 0.9175 0.00469 0.52203 0.0
H2223 H 0.91382 0.0102 0.40599 0.0
H2224 H 0.92018 0.01688 0.44306 0.0
H2225 H 0.93321 0.97681 0.48647 0.0
H2226 H 0.91166 0.98656 0.5921 0.0
H2227 H 0.91697 0.98188 0.55445 0.0
C2228 C 0.7523 0.16197 0.33283 0.0
C2229 C 0.73624 0.15909 0.34048 0.0
C2230 C 0.75511 0.16485 0.31112 0.0
C2231 C 0.73544 0.15731 0.25848 0.0
H2232 H 0.77323 0.18195 0.23764 0.0
C2233 C 0.7495 0.16303 0.16873 0.0
C2234 C 0.76539 0.15763 0.16291 0.0
C2235 C 0.74567 0.16626 0.19009 0.0
C2236 C 0.76263 0.17505 0.24327 0.0
H2237 H 0.71041 0.15806 0.33159 0.0
H2238 H 0.7152 0.16381 0.29379 0.0
H2239 H 0.76626 0.18279 0.27563 0.0
H2240 H 0.78999 0.1524 0.17482 0.0
H2241 H 0.78331 0.15836 0.21222 0.0
H2242 H 0.73178 0.14973 0.22603 0.0
C2243 C 0.72573 0.16324 0.30442 0.0
C2244 C 0.75865 0.17544 0.26505 0.0
C2245 C 0.72294 0.16008 0.32613 0.0
C2246 C 0.77763 0.15648 0.17879 0.0
C2247 C 0.77383 0.15994 0.20017 0.0
C2248 C 0.73926 0.15715 0.23671 0.0
C2249 C 0.74191 0.16518 0.2965 0.0
C2250 C 0.74517 0.16631 0.27304 0.0
C2251 C 0.75769 0.16441 0.20607 0.0
C2252 C 0.75304 0.1658 0.22894 0.0
H2253 H 0.76285 0.16121 0.34344 0.0
H2254 H 0.76776 0.16604 0.30574 0.0
H2255 H 0.7252 0.14982 0.26393 0.0
H2256 H 0.73977 0.16409 0.15692 0.0
H2257 H 0.73317 0.16984 0.19419 0.0
C2258 C 0.58439 0.99866 0.91875 0.0
C2259 C 0.58999 0.01448 0.91293 0.0
C2260 C 0.58123 0.99484 0.94013 0.0
C2261 C 0.57332 0.01183 0.99357 0.0
H2262 H 0.59857 0.97419 0.01356 0.0
C2263 C 0.58835 0.00177 0.08261 0.0
C2264 C 0.59123 0.98572 0.09029 0.0
C2265 C 0.58497 0.00449 0.061 0.0
C2266 C 0.59108 0.98449 0.00831 0.0
H2267 H 0.5956 0.03899 0.92483 0.0
H2268 H 0.58979 0.03234 0.96227 0.0
H2269 H 0.598 0.98069 0.97565 0.0
H2270 H 0.59173 0.95983 0.08162 0.0
H2271 H 0.58513 0.96447 0.04403 0.0
H2272 H 0.56627 0.01562 0.02616 0.0
C2273 C 0.58798 0.0229 0.95021 0.0
C2274 C 0.59085 0.98826 0.98652 0.0
C2275 C 0.59136 0.02669 0.92881 0.0
C2276 C 0.58973 0.97235 0.07613 0.0
C2277 C 0.58608 0.97506 0.05453 0.0
C2278 C 0.57332 0.0079 0.01537 0.0
C2279 C 0.58337 0.00681 0.95612 0.0
C2280 C 0.58222 0.00212 0.97899 0.0
C2281 C 0.58412 0.99121 0.04654 0.0
C2282 C 0.58248 0.99436 0.02311 0.0
H2283 H 0.58316 0.98896 0.90693 0.0
H2284 H 0.57754 0.98238 0.94425 0.0
H2285 H 0.56645 0.0225 0.98812 0.0
H2286 H 0.58949 0.01237 0.09307 0.0
H2287 H 0.58381 0.01712 0.05554 0.0
C2288 C 0.75193 0.66409 0.66688 0.0
C2289 C 0.73596 0.65876 0.66132 0.0
C2290 C 0.75594 0.66742 0.68816 0.0
C2291 C 0.73947 0.67648 0.74152 0.0
H2292 H 0.77658 0.65059 0.76182 0.0
C2293 C 0.74969 0.66266 0.83084 0.0
C2294 C 0.76569 0.65943 0.83845 0.0
C2295 C 0.74693 0.66578 0.80918 0.0
C2296 C 0.76644 0.65826 0.75647 0.0
H2297 H 0.71141 0.6538 0.67356 0.0
H2298 H 0.7184 0.65993 0.71082 0.0
H2299 H 0.76985 0.65072 0.72397 0.0
H2300 H 0.7915 0.65803 0.82955 0.0
H2301 H 0.78682 0.66419 0.79184 0.0
H2302 H 0.73608 0.68417 0.77394 0.0
C2303 C 0.7278 0.66138 0.69864 0.0
C2304 C 0.76254 0.65824 0.73472 0.0
C2305 C 0.72382 0.65782 0.67734 0.0
C2306 C 0.77901 0.66032 0.82413 0.0
C2307 C 0.77628 0.66371 0.80246 0.0
C2308 C 0.74354 0.67674 0.76327 0.0
C2309 C 0.74402 0.66574 0.7043 0.0
C2310 C 0.74886 0.6671 0.72709 0.0
C2311 C 0.76014 0.66601 0.79457 0.0
C2312 C 0.75689 0.66735 0.77113 0.0
H2313 H 0.76158 0.66499 0.65495 0.0
H2314 H 0.76849 0.6709 0.69209 0.0
H2315 H 0.72895 0.68354 0.73599 0.0
H2316 H 0.73912 0.662 0.84143 0.0
H2317 H 0.7343 0.66722 0.80382 0.0
C2318 C 0.59074 0.4953 0.92321 0.0
C2319 C 0.59483 0.47949 0.91561 0.0
C2320 C 0.58681 0.49776 0.94471 0.0
C2321 C 0.59348 0.47834 0.99757 0.0
H2322 H 0.56568 0.5144 0.01685 0.0
C2323 C 0.58535 0.4928 0.08683 0.0
C2324 C 0.58951 0.50911 0.09233 0.0
C2325 C 0.58252 0.48847 0.06553 0.0
C2326 C 0.57344 0.50426 0.01166 0.0
H2327 H 0.59697 0.45369 0.92431 0.0
H2328 H 0.5895 0.45785 0.96174 0.0
H2329 H 0.56655 0.50735 0.97888 0.0
H2330 H 0.59284 0.53391 0.07994 0.0
H2331 H 0.58764 0.52634 0.04268 0.0
H2332 H 0.6003 0.47528 0.03039 0.0
C2333 C 0.58987 0.46847 0.95124 0.0
C2334 C 0.57403 0.50025 0.98991 0.0
C2335 C 0.59404 0.46604 0.92974 0.0
C2336 C 0.58973 0.52122 0.07622 0.0
C2337 C 0.58669 0.51691 0.05491 0.0
C2338 C 0.59268 0.48219 0.01931 0.0
C2339 C 0.58663 0.48444 0.95914 0.0
C2340 C 0.58435 0.48746 0.9825 0.0
C2341 C 0.58356 0.5004 0.0493 0.0
C2342 C 0.58292 0.49539 0.02652 0.0
H2343 H 0.59127 0.50596 0.91277 0.0
H2344 H 0.58466 0.51027 0.95012 0.0
H2345 H 0.60182 0.46864 0.99256 0.0
H2346 H 0.58503 0.48316 0.09884 0.0
H2347 H 0.57996 0.47568 0.06166 0.0
C2348 C 0.7206 0.3424 0.32425 0.0
C2349 C 0.73294 0.34093 0.33995 0.0
C2350 C 0.72413 0.33889 0.30281 0.0
C2351 C 0.75852 0.34099 0.26593 0.0
H2352 H 0.73042 0.31665 0.22691 0.0
C2353 C 0.77403 0.33862 0.17629 0.0
C2354 C 0.76066 0.34028 0.16216 0.0
C2355 C 0.77131 0.33524 0.19796 0.0
C2356 C 0.73834 0.32362 0.23753 0.0
H2357 H 0.75842 0.33378 0.34558 0.0
H2358 H 0.76456 0.32792 0.3082 0.0
H2359 H 0.72379 0.31727 0.26503 0.0
H2360 H 0.73398 0.33908 0.1595 0.0
H2361 H 0.7292 0.33387 0.19715 0.0
H2362 H 0.77258 0.34818 0.23865 0.0
C2363 C 0.75219 0.33181 0.31249 0.0
C2364 C 0.73456 0.32389 0.25937 0.0
C2365 C 0.74862 0.33511 0.33391 0.0
C2366 C 0.74458 0.33781 0.16994 0.0
C2367 C 0.74183 0.33471 0.19162 0.0
C2368 C 0.76216 0.34095 0.24411 0.0
C2369 C 0.7401 0.33403 0.29667 0.0
C2370 C 0.74455 0.33269 0.27374 0.0
C2371 C 0.75513 0.33373 0.20605 0.0
C2372 C 0.75203 0.33242 0.22953 0.0
H2373 H 0.70838 0.34681 0.3284 0.0
H2374 H 0.7146 0.34077 0.2909 0.0
H2375 H 0.76631 0.34807 0.27662 0.0
H2376 H 0.78658 0.3403 0.17072 0.0
H2377 H 0.7819 0.33417 0.20843 0.0
C2378 C 0.90933 0.471 0.57657 0.0
C2379 C 0.90835 0.48452 0.59057 0.0
C2380 C 0.91275 0.47343 0.55486 0.0
C2381 C 0.92575 0.50557 0.51491 0.0
H2382 H 0.8994 0.47892 0.47636 0.0
C2383 C 0.90698 0.52444 0.42868 0.0
C2384 C 0.90755 0.51208 0.41291 0.0
C2385 C 0.91052 0.52065 0.45003 0.0
C2386 C 0.90701 0.48632 0.48689 0.0
H2387 H 0.91085 0.51113 0.59294 0.0
H2388 H 0.91616 0.51543 0.55523 0.0
H2389 H 0.8994 0.47268 0.51434 0.0
H2390 H 0.91309 0.48624 0.40705 0.0
H2391 H 0.91901 0.47965 0.44429 0.0
H2392 H 0.93256 0.51975 0.48726 0.0
C2393 C 0.91474 0.50288 0.5609 0.0
C2394 C 0.90711 0.4827 0.50871 0.0
C2395 C 0.91157 0.50042 0.58261 0.0
C2396 C 0.91246 0.49605 0.41878 0.0
C2397 C 0.9158 0.49224 0.44012 0.0
C2398 C 0.92544 0.50935 0.49307 0.0
C2399 C 0.91501 0.48947 0.54661 0.0
C2400 C 0.91631 0.49239 0.5231 0.0
C2401 C 0.91451 0.5044 0.45602 0.0
C2402 C 0.91594 0.49984 0.4789 0.0
H2403 H 0.90706 0.45858 0.58228 0.0
H2404 H 0.91326 0.46275 0.54448 0.0
H2405 H 0.93324 0.51313 0.52538 0.0
H2406 H 0.90328 0.53691 0.42465 0.0
H2407 H 0.90936 0.53024 0.462 0.0
C2408 C 0.22148 0.3402 0.17695 0.0
C2409 C 0.23487 0.34107 0.16273 0.0
C2410 C 0.2241 0.3368 0.19863 0.0
C2411 C 0.25658 0.32363 0.23807 0.0
H2412 H 0.23011 0.34964 0.27721 0.0
C2413 C 0.2757 0.34186 0.32451 0.0
C2414 C 0.26341 0.3409 0.34033 0.0
C2415 C 0.27189 0.33852 0.3031 0.0
C2416 C 0.23747 0.34213 0.2665 0.0
H2417 H 0.26145 0.33847 0.15996 0.0
H2418 H 0.26607 0.33322 0.19762 0.0
H2419 H 0.22365 0.34992 0.23928 0.0
H2420 H 0.23767 0.33489 0.34621 0.0
H2421 H 0.23105 0.32935 0.30889 0.0
H2422 H 0.27094 0.31666 0.26549 0.0
C2423 C 0.25348 0.33469 0.19215 0.0
C2424 C 0.23372 0.34219 0.24471 0.0
C2425 C 0.25083 0.33782 0.17047 0.0
C2426 C 0.24744 0.3358 0.33444 0.0
C2427 C 0.2436 0.33268 0.31305 0.0
C2428 C 0.2605 0.3238 0.25987 0.0
C2429 C 0.2402 0.33448 0.20665 0.0
C2430 C 0.24332 0.33309 0.23011 0.0
C2431 C 0.25568 0.33436 0.29712 0.0
C2432 C 0.25105 0.33317 0.27425 0.0
H2433 H 0.20901 0.34251 0.17142 0.0
H2434 H 0.2135 0.33634 0.20917 0.0
H2435 H 0.26408 0.3162 0.22745 0.0
H2436 H 0.28813 0.34571 0.32854 0.0
H2437 H 0.28142 0.33997 0.29109 0.0
C2438 C 0.41288 0.50196 0.91934 0.0
C2439 C 0.40774 0.48602 0.91336 0.0
C2440 C 0.41579 0.50578 0.94077 0.0
C2441 C 0.4239 0.4888 0.99415 0.0
H2442 H 0.39772 0.52578 0.01417 0.0
C2443 C 0.40868 0.49846 0.08321 0.0
C2444 C 0.4055 0.51444 0.0909 0.0
C2445 C 0.41205 0.4958 0.06159 0.0
C2446 C 0.40546 0.51567 0.0089 0.0
H2447 H 0.40266 0.46133 0.92506 0.0
H2448 H 0.40804 0.46799 0.9626 0.0
H2449 H 0.39849 0.51936 0.97624 0.0
H2450 H 0.40441 0.54031 0.08224 0.0
H2451 H 0.41098 0.53581 0.04461 0.0
H2452 H 0.431 0.48513 0.02674 0.0
C2453 C 0.40968 0.47752 0.95062 0.0
C2454 C 0.40581 0.51195 0.98711 0.0
C2455 C 0.40655 0.47373 0.92916 0.0
C2456 C 0.40665 0.52783 0.07673 0.0
C2457 C 0.41029 0.52521 0.05511 0.0
C2458 C 0.42378 0.49269 0.01595 0.0
C2459 C 0.41386 0.4937 0.95667 0.0
C2460 C 0.4148 0.49832 0.97957 0.0
C2461 C 0.41258 0.5091 0.04712 0.0
C2462 C 0.41428 0.50599 0.0237 0.0
H2463 H 0.41396 0.51172 0.90759 0.0
H2464 H 0.41915 0.51831 0.94501 0.0
H2465 H 0.43105 0.47832 0.98868 0.0
H2466 H 0.40782 0.48784 0.09368 0.0
H2467 H 0.41348 0.4832 0.05612 0.0
C2468 C 0.27572 0.658 0.67779 0.0
C2469 C 0.26226 0.65689 0.66371 0.0
C2470 C 0.27316 0.66123 0.69953 0.0
C2471 C 0.24074 0.6736 0.73941 0.0
H2472 H 0.26798 0.64791 0.77804 0.0
C2473 C 0.22271 0.65519 0.82616 0.0
C2474 C 0.23517 0.65619 0.84176 0.0
C2475 C 0.22628 0.65856 0.80469 0.0
C2476 C 0.2604 0.65533 0.76748 0.0
H2477 H 0.23562 0.65891 0.66122 0.0
H2478 H 0.23111 0.66389 0.69898 0.0
H2479 H 0.27409 0.64783 0.74001 0.0
H2480 H 0.26094 0.6623 0.84719 0.0
H2481 H 0.26714 0.66793 0.80976 0.0
H2482 H 0.22655 0.6803 0.76708 0.0
C2483 C 0.2437 0.66272 0.69336 0.0
C2484 C 0.26395 0.65538 0.74563 0.0
C2485 C 0.24628 0.65975 0.67162 0.0
C2486 C 0.25106 0.66136 0.83559 0.0
C2487 C 0.25465 0.66452 0.81415 0.0
C2488 C 0.23704 0.67333 0.76127 0.0
C2489 C 0.25707 0.66316 0.70772 0.0
C2490 C 0.25408 0.66438 0.73122 0.0
C2491 C 0.2424 0.6628 0.79843 0.0
C2492 C 0.24677 0.66409 0.77547 0.0
H2493 H 0.2882 0.65601 0.67212 0.0
H2494 H 0.28381 0.66188 0.70996 0.0
H2495 H 0.23303 0.68092 0.72892 0.0
H2496 H 0.21035 0.65129 0.8304 0.0
H2497 H 0.21662 0.65708 0.79285 0.0
C2498 C 0.08847 0.49976 0.41894 0.0
C2499 C 0.09388 0.5156 0.41294 0.0
C2500 C 0.08519 0.49609 0.44034 0.0
C2501 C 0.07643 0.51354 0.49332 0.0
H2502 H 0.10107 0.47585 0.51441 0.0
C2503 C 0.08921 0.5034 0.58302 0.0
C2504 C 0.09173 0.48731 0.59079 0.0
C2505 C 0.08643 0.50618 0.56128 0.0
C2506 C 0.09375 0.48618 0.50883 0.0
H2507 H 0.09912 0.54028 0.42455 0.0
H2508 H 0.09312 0.53388 0.46202 0.0
H2509 H 0.10135 0.48224 0.47646 0.0
H2510 H 0.09222 0.46143 0.58208 0.0
H2511 H 0.08668 0.46618 0.54422 0.0
H2512 H 0.06869 0.51745 0.52564 0.0
C2513 C 0.09154 0.52431 0.45009 0.0
C2514 C 0.09401 0.48989 0.48703 0.0
C2515 C 0.09502 0.52795 0.42867 0.0
C2516 C 0.09048 0.47398 0.57654 0.0
C2517 C 0.08744 0.47675 0.55479 0.0
C2518 C 0.07594 0.50968 0.51514 0.0
C2519 C 0.08704 0.50822 0.45619 0.0
C2520 C 0.08557 0.50374 0.4791 0.0
C2521 C 0.08585 0.49293 0.54675 0.0
C2522 C 0.08485 0.49611 0.52327 0.0
H2523 H 0.0874 0.48995 0.40725 0.0
H2524 H 0.08157 0.48363 0.44458 0.0
H2525 H 0.06968 0.5242 0.48757 0.0
H2526 H 0.09017 0.51397 0.59355 0.0
H2527 H 0.08552 0.51883 0.55579 0.0
C2528 C 0.3663 0.02821 0.1425 0.0
C2529 C 0.35859 0.01886 0.15858 0.0
C2530 C 0.35963 0.04332 0.13605 0.0
C2531 C 0.33549 0.06591 0.11379 0.0
H2532 H 0.30764 0.09225 0.15083 0.0
C2533 C 0.27645 0.09657 0.08418 0.0
C2534 C 0.26972 0.11001 0.09532 0.0
C2535 C 0.29135 0.08957 0.09076 0.0
C2536 C 0.31563 0.08537 0.14018 0.0
H2537 H 0.33824 0.01826 0.18106 0.0
H2538 H 0.32632 0.04419 0.16949 0.0
H2539 H 0.32712 0.07302 0.16643 0.0
H2540 H 0.27407 0.12773 0.12071 0.0
H2541 H 0.30039 0.11593 0.13169 0.0
H2542 H 0.32409 0.07837 0.08753 0.0
C2543 C 0.33777 0.04023 0.16218 0.0
C2544 C 0.32664 0.0741 0.14918 0.0
C2545 C 0.34457 0.02525 0.1688 0.0
C2546 C 0.27883 0.11717 0.11205 0.0
C2547 C 0.29388 0.11035 0.11841 0.0
C2548 C 0.32467 0.07739 0.10479 0.0
C2549 C 0.34497 0.04925 0.14534 0.0
C2550 C 0.33612 0.06367 0.13609 0.0
C2551 C 0.29999 0.09604 0.10841 0.0
C2552 C 0.31403 0.0867 0.11784 0.0
H2553 H 0.37725 0.02366 0.13449 0.0
H2554 H 0.36568 0.05009 0.12335 0.0
H2555 H 0.34256 0.05811 0.10312 0.0
H2556 H 0.26973 0.09079 0.07119 0.0
H2557 H 0.29549 0.07846 0.08278 0.0
C2558 C 0.15567 0.02577 0.33469 0.0
C2559 C 0.14124 0.02018 0.34477 0.0
C2560 C 0.16274 0.0408 0.34062 0.0
C2561 C 0.16465 0.06785 0.38768 0.0
H2562 H 0.19446 0.09213 0.35082 0.0
C2563 C 0.22305 0.11699 0.39034 0.0
C2564 C 0.23159 0.10962 0.40743 0.0
C2565 C 0.20796 0.11057 0.38345 0.0
C2566 C 0.18593 0.08582 0.36136 0.0
H2567 H 0.1221 0.0265 0.3676 0.0
H2568 H 0.13416 0.05298 0.37747 0.0
H2569 H 0.17467 0.07316 0.33516 0.0
H2570 H 0.2306 0.09029 0.43135 0.0
H2571 H 0.20467 0.07883 0.41912 0.0
H2572 H 0.17589 0.08052 0.41388 0.0
C2573 C 0.14033 0.04555 0.36551 0.0
C2574 C 0.17473 0.07472 0.35236 0.0
C2575 C 0.13339 0.0304 0.3598 0.0
C2576 C 0.22429 0.09634 0.41828 0.0
C2577 C 0.20931 0.08981 0.41127 0.0
C2578 C 0.17567 0.07912 0.39665 0.0
C2579 C 0.15541 0.05065 0.35656 0.0
C2580 C 0.16452 0.06502 0.36548 0.0
C2581 C 0.2012 0.09653 0.39336 0.0
C2582 C 0.187 0.08764 0.38369 0.0
H2583 H 0.16204 0.01813 0.32311 0.0
H2584 H 0.17448 0.04415 0.33357 0.0
H2585 H 0.15702 0.0606 0.39837 0.0
H2586 H 0.22829 0.12739 0.38181 0.0
H2587 H 0.20189 0.11625 0.36989 0.0
C2588 C 0.22276 0.90316 0.58437 0.0
C2589 C 0.22938 0.8896 0.59539 0.0
C2590 C 0.20785 0.91015 0.5909 0.0
C2591 C 0.18319 0.91391 0.64014 0.0
H2592 H 0.15679 0.94183 0.60325 0.0
C2593 C 0.13318 0.97166 0.64268 0.0
C2594 C 0.14086 0.98073 0.65905 0.0
C2595 C 0.13965 0.95649 0.63614 0.0
C2596 C 0.1637 0.93384 0.61386 0.0
H2597 H 0.22483 0.87167 0.62048 0.0
H2598 H 0.19846 0.88345 0.63133 0.0
H2599 H 0.17524 0.92162 0.58752 0.0
H2600 H 0.16088 0.9807 0.68203 0.0
H2601 H 0.17248 0.95469 0.67029 0.0
H2602 H 0.17153 0.926 0.66647 0.0
C2603 C 0.20508 0.88913 0.61821 0.0
C2604 C 0.17452 0.9224 0.60479 0.0
C2605 C 0.22015 0.88232 0.61192 0.0
C2606 C 0.15459 0.97395 0.66952 0.0
C2607 C 0.1612 0.95892 0.66279 0.0
C2608 C 0.17216 0.92513 0.64921 0.0
C2609 C 0.19907 0.90355 0.60837 0.0
C2610 C 0.18499 0.91286 0.61779 0.0
C2611 C 0.15409 0.95021 0.64561 0.0
C2612 C 0.16288 0.93581 0.6362 0.0
H2613 H 0.22958 0.90903 0.57155 0.0
H2614 H 0.20379 0.92135 0.58305 0.0
H2615 H 0.19103 0.90685 0.65076 0.0
H2616 H 0.12244 0.97652 0.63448 0.0
H2617 H 0.13364 0.94997 0.62318 0.0
C2618 C 0.36639 0.97205 0.86748 0.0
C2619 C 0.36145 0.9795 0.84818 0.0
C2620 C 0.35918 0.95732 0.87426 0.0
C2621 C 0.33251 0.92239 0.8585 0.0
H2622 H 0.31207 0.92963 0.91377 0.0
C2623 C 0.2713 0.89259 0.88235 0.0
C2624 C 0.26729 0.89055 0.90404 0.0
C2625 C 0.28646 0.89933 0.8764 0.0
C2626 C 0.31799 0.92705 0.89861 0.0
H2627 H 0.34593 0.97661 0.82015 0.0
H2628 H 0.3334 0.95084 0.83196 0.0
H2629 H 0.33286 0.94874 0.90103 0.0
H2630 H 0.2766 0.89252 0.93643 0.0
H2631 H 0.30332 0.90381 0.92606 0.0
H2632 H 0.31737 0.90085 0.85589 0.0
C2633 C 0.3429 0.95642 0.84179 0.0
C2634 C 0.3299 0.93808 0.89127 0.0
C2635 C 0.35004 0.97124 0.83506 0.0
C2636 C 0.2792 0.89428 0.91961 0.0
C2637 C 0.2945 0.90078 0.91365 0.0
C2638 C 0.32074 0.91117 0.86598 0.0
C2639 C 0.34697 0.94967 0.8618 0.0
C2640 C 0.33685 0.93618 0.87086 0.0
C2641 C 0.29809 0.90394 0.892 0.0
C2642 C 0.31287 0.91373 0.8858 0.0
H2643 H 0.3753 0.97797 0.87789 0.0
H2644 H 0.36263 0.95227 0.88966 0.0
H2645 H 0.33784 0.92059 0.84278 0.0
H2646 H 0.2624 0.8898 0.86993 0.0
H2647 H 0.28861 0.90175 0.85961 0.0
C2648 C 0.63319 0.97408 0.86866 0.0
C2649 C 0.63757 0.98097 0.8488 0.0
C2650 C 0.64004 0.95914 0.87533 0.0
C2651 C 0.6651 0.92308 0.85865 0.0
H2652 H 0.6869 0.93 0.91312 0.0
C2653 C 0.72624 0.89218 0.8808 0.0
C2654 C 0.73053 0.8901 0.9024 0.0
C2655 C 0.71107 0.8991 0.87521 0.0
C2656 C 0.6806 0.92752 0.89819 0.0
H2657 H 0.65147 0.97684 0.81961 0.0
H2658 H 0.66352 0.95081 0.83136 0.0
H2659 H 0.6664 0.94961 0.90097 0.0
H2660 H 0.72165 0.89204 0.93498 0.0
H2661 H 0.69496 0.90374 0.92526 0.0
H2662 H 0.67969 0.90117 0.85564 0.0
C2663 C 0.65474 0.95695 0.84173 0.0
C2664 C 0.66884 0.93884 0.89118 0.0
C2665 C 0.64792 0.97194 0.83505 0.0
C2666 C 0.71885 0.89389 0.91824 0.0
C2667 C 0.70356 0.9006 0.91264 0.0
C2668 C 0.67677 0.91161 0.86578 0.0
C2669 C 0.65136 0.95075 0.86226 0.0
C2670 C 0.66137 0.93704 0.87105 0.0
C2671 C 0.69974 0.90388 0.89109 0.0
C2672 C 0.6851 0.91402 0.8853 0.0
H2673 H 0.62505 0.98059 0.87953 0.0
H2674 H 0.63705 0.95451 0.89112 0.0
H2675 H 0.65937 0.92132 0.84316 0.0
H2676 H 0.73496 0.88933 0.86819 0.0
H2677 H 0.70871 0.90159 0.85848 0.0
C2678 C 0.85928 0.97638 0.6329 0.0
C2679 C 0.86078 0.98107 0.65443 0.0
C2680 C 0.85193 0.96141 0.62742 0.0
C2681 C 0.82191 0.93199 0.64967 0.0
H2682 H 0.8294 0.90995 0.59545 0.0
C2683 C 0.77673 0.88346 0.61886 0.0
C2684 C 0.76986 0.88797 0.59902 0.0
C2685 C 0.79134 0.89072 0.626 0.0
C2686 C 0.82729 0.91591 0.61072 0.0
H2687 H 0.85714 0.9731 0.68717 0.0
H2688 H 0.84475 0.94667 0.67768 0.0
H2689 H 0.84954 0.93002 0.60855 0.0
H2690 H 0.77367 0.90273 0.57049 0.0
H2691 H 0.79929 0.91527 0.58293 0.0
H2692 H 0.79957 0.91805 0.65166 0.0
C2693 C 0.84868 0.95484 0.66496 0.0
C2694 C 0.83874 0.92746 0.61819 0.0
C2695 C 0.85581 0.96998 0.67044 0.0
C2696 C 0.77858 0.89898 0.58582 0.0
C2697 C 0.7933 0.90612 0.5929 0.0
C2698 C 0.81065 0.92027 0.64237 0.0
C2699 C 0.84613 0.95062 0.64337 0.0
C2700 C 0.83587 0.9361 0.63739 0.0
C2701 C 0.79948 0.90247 0.61336 0.0
C2702 C 0.81295 0.91253 0.62252 0.0
H2703 H 0.86301 0.98464 0.62015 0.0
H2704 H 0.85 0.95878 0.61063 0.0
H2705 H 0.81907 0.93852 0.66432 0.0
H2706 H 0.77045 0.87488 0.62938 0.0
H2707 H 0.79594 0.88762 0.64177 0.0
C2708 C 0.85295 0.02676 0.3342 0.0
C2709 C 0.85755 0.01528 0.34993 0.0
C2710 C 0.84593 0.04186 0.34 0.0
C2711 C 0.83628 0.06888 0.38704 0.0
H2712 H 0.79759 0.0796 0.3533 0.0
C2713 C 0.77762 0.10047 0.41921 0.0
C2714 C 0.76879 0.11097 0.40544 0.0
C2715 C 0.79213 0.09283 0.41224 0.0
C2716 C 0.80854 0.07703 0.36267 0.0
H2717 H 0.85917 0.01096 0.38412 0.0
H2718 H 0.84638 0.03687 0.3942 0.0
H2719 H 0.81642 0.05847 0.34081 0.0
H2720 H 0.76911 0.1229 0.3743 0.0
H2721 H 0.79433 0.10949 0.36223 0.0
H2722 H 0.82759 0.08685 0.40959 0.0
C2723 C 0.8485 0.0345 0.37738 0.0
C2724 C 0.81941 0.06492 0.35547 0.0
C2725 C 0.85572 0.01953 0.37159 0.0
C2726 C 0.77545 0.11468 0.38522 0.0
C2727 C 0.7899 0.10701 0.37826 0.0
C2728 C 0.82527 0.08091 0.39437 0.0
C2729 C 0.84314 0.0457 0.36166 0.0
C2730 C 0.83319 0.06037 0.36781 0.0
C2731 C 0.79802 0.09554 0.3914 0.0
C2732 C 0.8111 0.08482 0.38246 0.0
H2733 H 0.85454 0.02399 0.31741 0.0
H2734 H 0.84231 0.05035 0.32747 0.0
H2735 H 0.84695 0.06592 0.39674 0.0
H2736 H 0.77289 0.09745 0.43493 0.0
H2737 H 0.7981 0.08398 0.42267 0.0
C2738 C 0.6362 0.02463 0.13363 0.0
C2739 C 0.64055 0.01792 0.15361 0.0
C2740 C 0.64316 0.03943 0.12667 0.0
C2741 C 0.66758 0.07586 0.14295 0.0
H2742 H 0.68975 0.0691 0.0887 0.0
C2743 C 0.72788 0.10824 0.1208 0.0
C2744 C 0.73225 0.1102 0.09921 0.0
C2745 C 0.71287 0.10099 0.12636 0.0
C2746 C 0.68333 0.07153 0.10356 0.0
H2747 H 0.65477 0.02211 0.18251 0.0
H2748 H 0.66693 0.04797 0.17031 0.0
H2749 H 0.66972 0.04904 0.101 0.0
H2750 H 0.72362 0.10766 0.06657 0.0
H2751 H 0.69717 0.09542 0.07625 0.0
H2752 H 0.68151 0.09821 0.14573 0.0
C2753 C 0.65807 0.04177 0.16011 0.0
C2754 C 0.67186 0.05995 0.11065 0.0
C2755 C 0.65117 0.0269 0.16705 0.0
C2756 C 0.72076 0.10595 0.08332 0.0
C2757 C 0.70562 0.09892 0.0889 0.0
C2758 C 0.67894 0.0876 0.13572 0.0
C2759 C 0.65453 0.04788 0.13958 0.0
C2760 C 0.66429 0.06171 0.13071 0.0
C2761 C 0.70177 0.09575 0.11046 0.0
C2762 C 0.68739 0.08526 0.11629 0.0
H2763 H 0.6279 0.01814 0.12296 0.0
H2764 H 0.64011 0.04397 0.11085 0.0
H2765 H 0.66175 0.07759 0.15838 0.0
H2766 H 0.73645 0.11144 0.13345 0.0
H2767 H 0.71049 0.09861 0.14312 0.0
C2768 C 0.77292 0.60843 0.62043 0.0
C2769 C 0.76857 0.61022 0.5988 0.0
C2770 C 0.7879 0.60117 0.62612 0.0
C2771 C 0.81743 0.57146 0.60379 0.0
H2772 H 0.83901 0.57799 0.65852 0.0
C2773 C 0.86448 0.52475 0.63436 0.0
C2774 C 0.86007 0.51816 0.65438 0.0
C2775 C 0.85761 0.53957 0.62729 0.0
C2776 C 0.83318 0.57613 0.64312 0.0
H2777 H 0.7772 0.60733 0.56622 0.0
H2778 H 0.80359 0.59508 0.57611 0.0
H2779 H 0.81922 0.59848 0.64559 0.0
H2780 H 0.84594 0.5226 0.68329 0.0
H2781 H 0.83393 0.54847 0.67088 0.0
H2782 H 0.83107 0.54897 0.60154 0.0
C2783 C 0.79516 0.59872 0.58869 0.0
C2784 C 0.82181 0.5878 0.63573 0.0
C2785 C 0.78004 0.60576 0.583 0.0
C2786 C 0.84956 0.5273 0.66778 0.0
C2787 C 0.84275 0.54218 0.66072 0.0
C2788 C 0.82892 0.55995 0.61104 0.0
C2789 C 0.79899 0.59575 0.61031 0.0
C2790 C 0.81335 0.58529 0.61632 0.0
C2791 C 0.84628 0.54814 0.64012 0.0
C2792 C 0.8365 0.56189 0.63107 0.0
H2793 H 0.76437 0.61179 0.63302 0.0
H2794 H 0.79027 0.59895 0.64291 0.0
H2795 H 0.81102 0.5689 0.58897 0.0
H2796 H 0.87271 0.51815 0.62371 0.0
H2797 H 0.86067 0.544 0.61142 0.0
C2798 C 0.73049 0.60467 0.88007 0.0
C2799 C 0.73243 0.6109 0.90082 0.0
C2800 C 0.71589 0.59689 0.87408 0.0
C2801 C 0.67948 0.57625 0.8988 0.0
H2802 H 0.6709 0.56728 0.83901 0.0
C2803 C 0.65018 0.51556 0.87359 0.0
C2804 C 0.64321 0.5136 0.85326 0.0
C2805 C 0.65693 0.53065 0.87969 0.0
C2806 C 0.67267 0.56981 0.85584 0.0
H2807 H 0.72027 0.61511 0.93114 0.0
H2808 H 0.69418 0.6026 0.9203 0.0
H2809 H 0.68909 0.58957 0.84861 0.0
H2810 H 0.6368 0.52598 0.82375 0.0
H2811 H 0.64749 0.5528 0.83486 0.0
H2812 H 0.66207 0.55737 0.90606 0.0
C2813 C 0.70422 0.60286 0.90888 0.0
C2814 C 0.68354 0.58247 0.86139 0.0
C2815 C 0.71911 0.61017 0.91511 0.0
C2816 C 0.64234 0.5272 0.83944 0.0
C2817 C 0.6486 0.54253 0.84583 0.0
C2818 C 0.66808 0.56406 0.89327 0.0
C2819 C 0.70256 0.59558 0.88848 0.0
C2820 C 0.68795 0.58516 0.88289 0.0
C2821 C 0.6564 0.54439 0.86587 0.0
C2822 C 0.66531 0.55992 0.87169 0.0
H2823 H 0.74064 0.60498 0.86877 0.0
H2824 H 0.71552 0.59119 0.85845 0.0
H2825 H 0.68228 0.57785 0.91558 0.0
H2826 H 0.6511 0.50518 0.88447 0.0
H2827 H 0.66317 0.53118 0.89496 0.0
C2828 C 0.65536 0.4762 0.16763 0.0
C2829 C 0.64113 0.48202 0.15728 0.0
C2830 C 0.66261 0.46136 0.16128 0.0
C2831 C 0.67442 0.42743 0.14867 0.0
H2832 H 0.6772 0.42314 0.087 0.0
C2833 C 0.7209 0.38296 0.11099 0.0
C2834 C 0.73054 0.39015 0.09478 0.0
C2835 C 0.70616 0.39034 0.11747 0.0
C2836 C 0.67651 0.42412 0.10425 0.0
H2837 H 0.62249 0.47621 0.13351 0.0
H2838 H 0.63489 0.4501 0.12286 0.0
H2839 H 0.65857 0.44334 0.1025 0.0
H2840 H 0.73185 0.41021 0.07188 0.0
H2841 H 0.70642 0.42327 0.08341 0.0
H2842 H 0.69335 0.40915 0.15035 0.0
C2843 C 0.64077 0.45723 0.13538 0.0
C2844 C 0.66564 0.43556 0.11319 0.0
C2845 C 0.63364 0.47216 0.14154 0.0
C2846 C 0.72465 0.4043 0.0843 0.0
C2847 C 0.70999 0.41176 0.0909 0.0
C2848 C 0.68542 0.4161 0.13972 0.0
C2849 C 0.65566 0.45193 0.14464 0.0
C2850 C 0.66489 0.43775 0.13549 0.0
C2851 C 0.70084 0.40515 0.108 0.0
C2852 C 0.687 0.41474 0.11738 0.0
H2853 H 0.66142 0.48353 0.17982 0.0
H2854 H 0.67418 0.45779 0.16863 0.0
H2855 H 0.6739 0.42857 0.16591 0.0
H2856 H 0.72503 0.37192 0.1192 0.0
H2857 H 0.69923 0.38476 0.1304 0.0
C2858 C 0.85845 0.47592 0.3675 0.0
C2859 C 0.85884 0.48182 0.34637 0.0
C2860 C 0.85086 0.46091 0.37229 0.0
C2861 C 0.81839 0.43409 0.35036 0.0
H2862 H 0.82823 0.40809 0.40087 0.0
C2863 C 0.77275 0.38575 0.3799 0.0
C2864 C 0.76756 0.38883 0.401 0.0
C2865 C 0.7873 0.39274 0.37211 0.0
C2866 C 0.82544 0.41517 0.38662 0.0
H2867 H 0.85274 0.47594 0.31349 0.0
H2868 H 0.84012 0.44944 0.32168 0.0
H2869 H 0.84827 0.42841 0.38812 0.0
H2870 H 0.77443 0.40041 0.43098 0.0
H2871 H 0.79977 0.41266 0.41735 0.0
H2872 H 0.79547 0.42112 0.3491 0.0
C2873 C 0.84514 0.45669 0.33469 0.0
C2874 C 0.83684 0.42686 0.37936 0.0
C2875 C 0.85248 0.47186 0.32995 0.0
C2876 C 0.77793 0.39793 0.41462 0.0
C2877 C 0.79255 0.40485 0.40685 0.0
C2878 C 0.80714 0.42228 0.35743 0.0
C2879 C 0.8437 0.4513 0.35601 0.0
C2880 C 0.83319 0.43686 0.36155 0.0
C2881 C 0.79702 0.40283 0.3853 0.0
C2882 C 0.81032 0.41307 0.37599 0.0
H2883 H 0.86327 0.48327 0.38056 0.0
H2884 H 0.84984 0.45734 0.38892 0.0
H2885 H 0.81494 0.44171 0.33685 0.0
H2886 H 0.7652 0.37859 0.369 0.0
H2887 H 0.79059 0.39083 0.3555 0.0
C2888 C 0.22441 0.38475 0.38403 0.0
C2889 C 0.23118 0.38913 0.40396 0.0
C2890 C 0.20968 0.39183 0.37702 0.0
C2891 C 0.17378 0.41726 0.39301 0.0
H2892 H 0.18137 0.43905 0.33868 0.0
C2893 C 0.14348 0.47858 0.37065 0.0
C2894 C 0.14138 0.48284 0.34905 0.0
C2895 C 0.15041 0.46343 0.37626 0.0
C2896 C 0.17871 0.43276 0.35356 0.0
H2897 H 0.2271 0.40345 0.43281 0.0
H2898 H 0.20139 0.41582 0.42054 0.0
H2899 H 0.20071 0.41837 0.3511 0.0
H2900 H 0.14341 0.47396 0.31647 0.0
H2901 H 0.15518 0.44732 0.32623 0.0
H2902 H 0.15196 0.43201 0.39571 0.0
C2903 C 0.20747 0.40685 0.41039 0.0
C2904 C 0.18987 0.42089 0.36072 0.0
C2905 C 0.22226 0.39982 0.41738 0.0
C2906 C 0.14527 0.47119 0.33321 0.0
C2907 C 0.15201 0.45592 0.33884 0.0
C2908 C 0.16247 0.42902 0.38573 0.0
C2909 C 0.20137 0.40337 0.38985 0.0
C2910 C 0.18782 0.41344 0.38082 0.0
C2911 C 0.15519 0.45209 0.3604 0.0
C2912 C 0.16515 0.43736 0.36627 0.0
H2913 H 0.23084 0.37638 0.37338 0.0
H2914 H 0.20513 0.38881 0.36121 0.0
H2915 H 0.17183 0.41154 0.40846 0.0
H2916 H 0.14055 0.48727 0.38326 0.0
H2917 H 0.15285 0.46106 0.393 0.0
C2918 C 0.27898 0.39784 0.08599 0.0
C2919 C 0.26913 0.38801 0.09939 0.0
C2920 C 0.29369 0.40468 0.09361 0.0
C2921 C 0.30942 0.4199 0.14385 0.0
H2922 H 0.34898 0.42935 0.11118 0.0
C2923 C 0.35383 0.46995 0.17247 0.0
C2924 C 0.3586 0.48115 0.15649 0.0
C2925 C 0.34706 0.45466 0.16698 0.0
C2926 C 0.338 0.42682 0.12051 0.0
H2927 H 0.26783 0.37631 0.13065 0.0
H2928 H 0.2934 0.38831 0.14386 0.0
H2929 H 0.32924 0.40894 0.0979 0.0
H2930 H 0.36098 0.4847 0.12221 0.0
H2931 H 0.34865 0.45847 0.11266 0.0
H2932 H 0.31738 0.43843 0.16569 0.0
C2933 C 0.28962 0.39093 0.12759 0.0
C2934 C 0.32676 0.4151 0.11294 0.0
C2935 C 0.27496 0.38407 0.11997 0.0
C2936 C 0.35735 0.47638 0.13495 0.0
C2937 C 0.3504 0.46122 0.12946 0.0
C2938 C 0.32053 0.43171 0.15129 0.0
C2939 C 0.29879 0.40179 0.11477 0.0
C2940 C 0.31215 0.41187 0.12426 0.0
C2941 C 0.34473 0.45036 0.14539 0.0
C2942 C 0.33471 0.4357 0.1394 0.0
H2943 H 0.27498 0.40097 0.07 0.0
H2944 H 0.30047 0.41308 0.0834 0.0
H2945 H 0.29815 0.41786 0.15279 0.0
H2946 H 0.35496 0.47311 0.18921 0.0
H2947 H 0.34318 0.44644 0.17968 0.0
C2948 C 0.35107 0.52875 0.83641 0.0
C2949 C 0.36098 0.51906 0.84994 0.0
C2950 C 0.34417 0.54348 0.84383 0.0
C2951 C 0.32904 0.55969 0.89391 0.0
H2952 H 0.31931 0.59884 0.86056 0.0
C2953 C 0.27923 0.60444 0.92231 0.0
C2954 C 0.26788 0.60901 0.9064 0.0
C2955 C 0.29447 0.5976 0.91672 0.0
C2956 C 0.32192 0.58799 0.87008 0.0
H2957 H 0.3727 0.51808 0.88119 0.0
H2958 H 0.3606 0.54372 0.89404 0.0
H2959 H 0.3397 0.579 0.84748 0.0
H2960 H 0.26401 0.61096 0.87215 0.0
H2961 H 0.29015 0.5985 0.86244 0.0
H2962 H 0.31062 0.56788 0.91578 0.0
C2963 C 0.35797 0.53977 0.87784 0.0
C2964 C 0.33362 0.57669 0.86261 0.0
C2965 C 0.36488 0.52508 0.87043 0.0
C2966 C 0.27245 0.60749 0.88482 0.0
C2967 C 0.28756 0.60047 0.87923 0.0
C2968 C 0.31725 0.57086 0.90125 0.0
C2969 C 0.34706 0.54879 0.8649 0.0
C2970 C 0.33695 0.56221 0.8742 0.0
C2971 C 0.29857 0.595 0.89512 0.0
C2972 C 0.31317 0.5849 0.88913 0.0
H2973 H 0.34794 0.52459 0.82049 0.0
H2974 H 0.33572 0.55014 0.83353 0.0
H2975 H 0.33116 0.54853 0.90306 0.0
H2976 H 0.27623 0.60579 0.93907 0.0
H2977 H 0.30281 0.59388 0.92937 0.0
C2978 C 0.22439 0.59531 0.58414 0.0
C2979 C 0.23059 0.60917 0.59495 0.0
C2980 C 0.20961 0.58803 0.59063 0.0
C2981 C 0.18458 0.58406 0.63945 0.0
H2982 H 0.15834 0.55633 0.60213 0.0
C2983 C 0.13331 0.52741 0.64113 0.0
C2984 C 0.14047 0.51815 0.65772 0.0
C2985 C 0.14035 0.54233 0.63467 0.0
C2986 C 0.16521 0.56426 0.61286 0.0
H2987 H 0.22548 0.62718 0.61975 0.0
H2988 H 0.19937 0.61481 0.63061 0.0
H2989 H 0.17708 0.5764 0.5867 0.0
H2990 H 0.16005 0.51768 0.68136 0.0
H2991 H 0.1727 0.54328 0.66963 0.0
H2992 H 0.1726 0.57203 0.6656 0.0
C2993 C 0.2062 0.6092 0.61762 0.0
C2994 C 0.17619 0.57562 0.60395 0.0
C2995 C 0.22111 0.61634 0.61132 0.0
C2996 C 0.15424 0.52455 0.66852 0.0
C2997 C 0.16143 0.53933 0.66186 0.0
C2998 C 0.17341 0.57288 0.64835 0.0
C2999 C 0.20057 0.59459 0.60789 0.0
C3000 C 0.18654 0.58514 0.61713 0.0
C3001 C 0.15485 0.54818 0.64444 0.0
C3002 C 0.16411 0.56233 0.63518 0.0
H3003 H 0.23144 0.58947 0.57151 0.0
H3004 H 0.20585 0.57667 0.5829 0.0
H3005 H 0.19235 0.5911 0.65017 0.0
H3006 H 0.12252 0.5229 0.63271 0.0
H3007 H 0.13471 0.54901 0.62156 0.0
C3008 C 0.22028 0.18695 0.03786 0.0
C3009 C 0.20784 0.18019 0.05076 0.0
C3010 C 0.2197 0.2036 0.03196 0.0
C3011 C 0.19292 0.24091 0.03048 0.0
H3012 H 0.23345 0.26398 0.04442 0.0
C3013 C 0.19472 0.30951 0.05438 0.0
C3014 C 0.20898 0.31878 0.05026 0.0
C3015 C 0.19398 0.29283 0.0487 0.0
C3016 C 0.22212 0.2578 0.03993 0.0
H3017 H 0.18451 0.18492 0.06639 0.0
H3018 H 0.18339 0.21404 0.05613 0.0
H3019 H 0.23306 0.23402 0.04426 0.0
H3020 H 0.23329 0.31836 0.03597 0.0
H3021 H 0.23189 0.28933 0.02534 0.0
H3022 H 0.18187 0.26475 0.02667 0.0
C3023 C 0.1936 0.20657 0.05049 0.0
C3024 C 0.2219 0.24055 0.03987 0.0
C3025 C 0.19425 0.18996 0.05647 0.0
C3026 C 0.22213 0.31143 0.03922 0.0
C3027 C 0.22137 0.29477 0.03339 0.0
C3028 C 0.19316 0.25819 0.0304 0.0
C3029 C 0.20658 0.21372 0.03875 0.0
C3030 C 0.20721 0.23191 0.03566 0.0
C3031 C 0.20749 0.28512 0.03866 0.0
C3032 C 0.20767 0.26686 0.03566 0.0
H3033 H 0.23089 0.17958 0.03331 0.0
H3034 H 0.22978 0.2087 0.02269 0.0
H3035 H 0.18146 0.23459 0.02691 0.0
H3036 H 0.18442 0.31498 0.06287 0.0
H3037 H 0.18315 0.28582 0.05325 0.0
C3038 C 0.94093 0.97476 0.30669 0.0
C3039 C 0.93063 0.96145 0.30157 0.0
C3040 C 0.95738 0.97484 0.30013 0.0
C3041 C 0.99106 0.94661 0.28887 0.0
H3042 H 0.01378 0.98695 0.27306 0.0
C3043 C 0.06232 0.95088 0.28923 0.0
C3044 C 0.06811 0.96448 0.3009 0.0
C3045 C 0.04575 0.95014 0.28284 0.0
C3046 C 0.00762 0.97556 0.27738 0.0
H3047 H 0.92902 0.93797 0.28524 0.0
H3048 H 0.95812 0.93794 0.27384 0.0
H3049 H 0.98366 0.9863 0.27344 0.0
H3050 H 0.06166 0.98826 0.31423 0.0
H3051 H 0.03285 0.98707 0.30319 0.0
H3052 H 0.01501 0.93611 0.2939 0.0
C3053 C 0.95342 0.94836 0.28284 0.0
C3054 C 0.99038 0.97518 0.27757 0.0
C3055 C 0.93683 0.94839 0.28923 0.0
C3056 C 0.0574 0.97766 0.30521 0.0
C3057 C 0.04095 0.977 0.29874 0.0
C3058 C 0.00833 0.94699 0.28874 0.0
C3059 C 0.96392 0.96151 0.28849 0.0
C3060 C 0.98192 0.96089 0.28409 0.0
C3061 C 0.03481 0.96309 0.28787 0.0
C3062 C 0.01679 0.96167 0.28377 0.0
H3063 H 0.93635 0.98492 0.31627 0.0
H3064 H 0.96518 0.98503 0.30504 0.0
H3065 H 0.9849 0.93544 0.29411 0.0
H3066 H 0.07043 0.94057 0.28584 0.0
H3067 H 0.0414 0.93931 0.27439 0.0
C3068 C 0.28174 0.68964 0.54216 0.0
C3069 C 0.29394 0.68077 0.55315 0.0
C3070 C 0.28407 0.70639 0.53754 0.0
C3071 C 0.30685 0.74173 0.55952 0.0
H3072 H 0.28867 0.7653 0.51095 0.0
C3073 C 0.30933 0.8121 0.55749 0.0
C3074 C 0.29435 0.81983 0.5525 0.0
C3075 C 0.31169 0.79541 0.55278 0.0
C3076 C 0.29379 0.75888 0.52462 0.0
H3077 H 0.31848 0.68179 0.56664 0.0
H3078 H 0.32284 0.71092 0.5581 0.0
H3079 H 0.28852 0.73507 0.51121 0.0
H3080 H 0.27045 0.81678 0.53763 0.0
H3081 H 0.27436 0.78745 0.52963 0.0
H3082 H 0.31165 0.76532 0.57331 0.0
C3083 C 0.31131 0.70517 0.55347 0.0
C3084 C 0.2937 0.74157 0.52477 0.0
C3085 C 0.30891 0.68849 0.5582 0.0
C3086 C 0.28214 0.81099 0.54148 0.0
C3087 C 0.28443 0.79423 0.53689 0.0
C3088 C 0.30694 0.75894 0.55936 0.0
C3089 C 0.29868 0.71449 0.5438 0.0
C3090 C 0.30006 0.7328 0.54236 0.0
C3091 C 0.29901 0.7861 0.54321 0.0
C3092 C 0.30025 0.76777 0.54205 0.0
H3093 H 0.27005 0.68387 0.53827 0.0
H3094 H 0.27404 0.71319 0.53022 0.0
H3095 H 0.31149 0.73544 0.57357 0.0
H3096 H 0.3189 0.81878 0.56596 0.0
H3097 H 0.3232 0.78963 0.55744 0.0
C3098 C 0.4406 0.03113 0.79123 0.0
C3099 C 0.43142 0.04333 0.80176 0.0
C3100 C 0.45724 0.03387 0.78631 0.0
C3101 C 0.49185 0.05821 0.80724 0.0
H3102 H 0.51604 0.03905 0.75985 0.0
C3103 C 0.56219 0.06135 0.80626 0.0
C3104 C 0.57006 0.04628 0.80216 0.0
C3105 C 0.54555 0.06348 0.8011 0.0
C3106 C 0.50945 0.04447 0.77318 0.0
H3107 H 0.4317 0.06825 0.81409 0.0
H3108 H 0.46061 0.07333 0.80496 0.0
H3109 H 0.48583 0.03836 0.75981 0.0
H3110 H 0.56731 0.02197 0.78834 0.0
H3111 H 0.53807 0.02548 0.77957 0.0
H3112 H 0.51526 0.06381 0.82105 0.0
C3113 C 0.45521 0.0615 0.80092 0.0
C3114 C 0.49215 0.04407 0.77316 0.0
C3115 C 0.43866 0.05869 0.80597 0.0
C3116 C 0.56142 0.03373 0.79152 0.0
C3117 C 0.54471 0.03579 0.78648 0.0
C3118 C 0.50906 0.05861 0.80726 0.0
C3119 C 0.46489 0.0489 0.79181 0.0
C3120 C 0.48315 0.05075 0.79036 0.0
C3121 C 0.53643 0.05048 0.79193 0.0
C3122 C 0.51811 0.05154 0.7904 0.0
H3123 H 0.4352 0.01914 0.78802 0.0
H3124 H 0.46433 0.02385 0.77945 0.0
H3125 H 0.4854 0.06313 0.82101 0.0
H3126 H 0.56872 0.0712 0.81438 0.0
H3127 H 0.53965 0.07508 0.80509 0.0
C3128 C 0.22375 0.81266 0.95889 0.0
C3129 C 0.20952 0.81998 0.95032 0.0
C3130 C 0.22386 0.79585 0.96399 0.0
C3131 C 0.19691 0.75901 0.97143 0.0
H3132 H 0.23494 0.73532 0.94961 0.0
C3133 C 0.19568 0.69006 0.94869 0.0
C3134 C 0.21004 0.68066 0.95155 0.0
C3135 C 0.19562 0.70689 0.95361 0.0
C3136 C 0.22437 0.74172 0.95621 0.0
H3137 H 0.18412 0.81592 0.94111 0.0
H3138 H 0.18427 0.78648 0.94975 0.0
H3139 H 0.23484 0.76532 0.94918 0.0
H3140 H 0.23536 0.68103 0.96254 0.0
H3141 H 0.23527 0.71048 0.9715 0.0
H3142 H 0.18624 0.7353 0.97778 0.0
C3143 C 0.1953 0.79366 0.95285 0.0
C3144 C 0.22431 0.75896 0.95597 0.0
C3145 C 0.1952 0.81047 0.94777 0.0
C3146 C 0.22412 0.68809 0.96035 0.0
C3147 C 0.22409 0.70494 0.96526 0.0
C3148 C 0.19696 0.74174 0.97166 0.0
C3149 C 0.20975 0.78606 0.96055 0.0
C3150 C 0.21046 0.76782 0.96319 0.0
C3151 C 0.20996 0.71462 0.96143 0.0
C3152 C 0.21057 0.73289 0.96367 0.0
H3153 H 0.23496 0.8198 0.96083 0.0
H3154 H 0.23513 0.79044 0.97014 0.0
H3155 H 0.18615 0.76547 0.9774 0.0
H3156 H 0.18472 0.68451 0.94184 0.0
H3157 H 0.1846 0.71399 0.95024 0.0
C3158 C 0.56248 0.95057 0.21539 0.0
C3159 C 0.56843 0.96354 0.20269 0.0
C3160 C 0.5459 0.95034 0.22183 0.0
C3161 C 0.50828 0.97657 0.22573 0.0
H3162 H 0.48466 0.93638 0.21161 0.0
C3163 C 0.44154 0.97627 0.19681 0.0
C3164 C 0.43094 0.96338 0.2027 0.0
C3165 C 0.45801 0.97616 0.20327 0.0
C3166 C 0.49107 0.94758 0.21612 0.0
H3167 H 0.56227 0.98671 0.18747 0.0
H3168 H 0.53346 0.98643 0.19864 0.0
H3169 H 0.51479 0.93642 0.21165 0.0
H3170 H 0.42881 0.94056 0.22043 0.0
H3171 H 0.45794 0.9402 0.23167 0.0
H3172 H 0.48456 0.98794 0.22914 0.0
C3173 C 0.54144 0.97648 0.20385 0.0
C3174 C 0.50835 0.94761 0.21616 0.0
C3175 C 0.55789 0.97661 0.19731 0.0
C3176 C 0.43686 0.95062 0.21577 0.0
C3177 C 0.45347 0.9504 0.22208 0.0
C3178 C 0.49104 0.97655 0.22566 0.0
C3179 C 0.53514 0.96319 0.21582 0.0
C3180 C 0.51712 0.96228 0.22015 0.0
C3181 C 0.46426 0.96309 0.21564 0.0
C3182 C 0.48226 0.96222 0.22005 0.0
H3183 H 0.57046 0.94035 0.2196 0.0
H3184 H 0.54141 0.93998 0.23111 0.0
H3185 H 0.51469 0.98798 0.22928 0.0
H3186 H 0.43716 0.98624 0.18675 0.0
H3187 H 0.46603 0.98599 0.19777 0.0
C3188 C 0.27858 0.18694 0.46265 0.0
C3189 C 0.29195 0.17973 0.45189 0.0
C3190 C 0.27899 0.20365 0.46823 0.0
C3191 C 0.30643 0.24058 0.47189 0.0
H3192 H 0.26667 0.26412 0.45572 0.0
C3193 C 0.30549 0.30902 0.44689 0.0
C3194 C 0.2914 0.31847 0.45128 0.0
C3195 C 0.3061 0.29236 0.45267 0.0
C3196 C 0.27777 0.25777 0.46078 0.0
H3197 H 0.3165 0.18386 0.43944 0.0
H3198 H 0.3172 0.21314 0.44876 0.0
H3199 H 0.26674 0.23416 0.45566 0.0
H3200 H 0.26732 0.31847 0.46625 0.0
H3201 H 0.2684 0.28934 0.47671 0.0
H3202 H 0.31761 0.26434 0.47618 0.0
C3203 C 0.30647 0.20595 0.45322 0.0
C3204 C 0.27782 0.24053 0.46075 0.0
C3205 C 0.30606 0.18923 0.44773 0.0
C3206 C 0.27832 0.31135 0.46271 0.0
C3207 C 0.2789 0.29468 0.46851 0.0
C3208 C 0.3064 0.25786 0.47189 0.0
C3209 C 0.29275 0.21347 0.46302 0.0
C3210 C 0.29224 0.23171 0.46586 0.0
C3211 C 0.29259 0.28487 0.46297 0.0
C3212 C 0.29216 0.26665 0.46588 0.0
H3213 H 0.26754 0.17981 0.46593 0.0
H3214 H 0.26832 0.20899 0.47604 0.0
H3215 H 0.31768 0.23416 0.47622 0.0
H3216 H 0.31574 0.31435 0.43815 0.0
H3217 H 0.31677 0.28517 0.44799 0.0
C3218 C 0.06312 0.05902 0.6985 0.0
C3219 C 0.07093 0.04381 0.70184 0.0
C3220 C 0.04636 0.0609 0.70317 0.0
C3221 C 0.00993 0.04089 0.72899 0.0
H3222 H 0.9863 0.06201 0.68253 0.0
C3223 C 0.94085 0.0296 0.71006 0.0
C3224 C 0.93182 0.04252 0.70082 0.0
C3225 C 0.95759 0.03174 0.71491 0.0
C3226 C 0.99265 0.05638 0.69591 0.0
H3227 H 0.06789 0.01887 0.7135 0.0
H3228 H 0.03846 0.02198 0.72143 0.0
H3229 H 0.0162 0.06229 0.68271 0.0
H3230 H 0.93255 0.06799 0.69055 0.0
H3231 H 0.96167 0.07196 0.69951 0.0
H3232 H 0.98618 0.03452 0.74174 0.0
C3233 C 0.04523 0.03258 0.71556 0.0
C3234 C 0.00986 0.05654 0.69602 0.0
C3235 C 0.06205 0.03075 0.711 0.0
C3236 C 0.93937 0.05789 0.6977 0.0
C3237 C 0.95604 0.06008 0.70265 0.0
C3238 C 0.99263 0.04072 0.72887 0.0
C3239 C 0.03707 0.04752 0.71105 0.0
C3240 C 0.01875 0.04863 0.71239 0.0
C3241 C 0.96551 0.04685 0.7106 0.0
C3242 C 0.98379 0.04829 0.71217 0.0
H3243 H 0.06982 0.06923 0.69144 0.0
H3244 H 0.04054 0.07267 0.69989 0.0
H3245 H 0.0164 0.03481 0.74194 0.0
H3246 H 0.93522 0.0176 0.71238 0.0
H3247 H 0.96451 0.02125 0.72083 0.0
C3248 C 0.78064 0.81257 0.95836 0.0
C3249 C 0.79371 0.82156 0.9494 0.0
C3250 C 0.78264 0.79583 0.96328 0.0
C3251 C 0.80717 0.76065 0.94475 0.0
H3252 H 0.78526 0.73712 0.99069 0.0
C3253 C 0.80875 0.6902 0.94672 0.0
C3254 C 0.79343 0.6826 0.95009 0.0
C3255 C 0.81094 0.70688 0.95163 0.0
C3256 C 0.79143 0.74352 0.97775 0.0
H3257 H 0.81932 0.82074 0.93979 0.0
H3258 H 0.82303 0.79156 0.94873 0.0
H3259 H 0.78522 0.76733 0.99044 0.0
H3260 H 0.76868 0.68588 0.96227 0.0
H3261 H 0.77228 0.71519 0.97053 0.0
H3262 H 0.81287 0.73705 0.93155 0.0
C3263 C 0.81114 0.79725 0.95162 0.0
C3264 C 0.79141 0.76082 0.97762 0.0
C3265 C 0.80909 0.81394 0.94664 0.0
C3266 C 0.78062 0.69157 0.95967 0.0
C3267 C 0.78274 0.70832 0.96443 0.0
C3268 C 0.80716 0.74343 0.94485 0.0
C3269 C 0.79778 0.78785 0.9593 0.0
C3270 C 0.79911 0.76957 0.96094 0.0
C3271 C 0.79776 0.71631 0.95977 0.0
C3272 C 0.79911 0.73462 0.96118 0.0
H3273 H 0.76863 0.81825 0.96045 0.0
H3274 H 0.77206 0.78895 0.969 0.0
H3275 H 0.81291 0.76695 0.93139 0.0
H3276 H 0.8188 0.6834 0.9394 0.0
H3277 H 0.82277 0.71253 0.94828 0.0
C3278 C 0.69052 0.1889 0.4488 0.0
C3279 C 0.7058 0.1813 0.45246 0.0
C3280 C 0.68826 0.20556 0.45376 0.0
C3281 C 0.70761 0.24224 0.48015 0.0
H3282 H 0.6863 0.26562 0.43361 0.0
C3283 C 0.71848 0.31125 0.46031 0.0
C3284 C 0.7054 0.3202 0.45128 0.0
C3285 C 0.71647 0.29455 0.46541 0.0
C3286 C 0.69199 0.25933 0.44701 0.0
H3287 H 0.73042 0.18458 0.46509 0.0
H3288 H 0.7267 0.21386 0.4734 0.0
H3289 H 0.68635 0.23573 0.43381 0.0
H3290 H 0.67975 0.31934 0.44181 0.0
H3291 H 0.67604 0.29023 0.45105 0.0
H3292 H 0.7138 0.26608 0.4928 0.0
C3293 C 0.71631 0.207 0.46709 0.0
C3294 C 0.692 0.24212 0.44715 0.0
C3295 C 0.71849 0.19026 0.46232 0.0
C3296 C 0.69 0.31258 0.44871 0.0
C3297 C 0.68795 0.29593 0.45385 0.0
C3298 C 0.70764 0.25954 0.47997 0.0
C3299 C 0.70134 0.215 0.46217 0.0
C3300 C 0.69999 0.23331 0.46355 0.0
C3301 C 0.70132 0.28655 0.46154 0.0
C3302 C 0.7 0.26828 0.46323 0.0
H3303 H 0.68059 0.18213 0.44121 0.0
H3304 H 0.67646 0.21121 0.4502 0.0
H3305 H 0.71372 0.23586 0.49314 0.0
H3306 H 0.7305 0.31693 0.46227 0.0
H3307 H 0.72706 0.28768 0.47114 0.0
C3308 C 0.78135 0.18869 0.04375 0.0
C3309 C 0.79444 0.17979 0.05279 0.0
C3310 C 0.78332 0.20539 0.03865 0.0
C3311 C 0.80769 0.24077 0.05674 0.0
H3312 H 0.78578 0.26381 0.01039 0.0
C3313 C 0.80845 0.31117 0.05428 0.0
C3314 C 0.79304 0.31852 0.05079 0.0
C3315 C 0.81091 0.29453 0.04939 0.0
C3316 C 0.79195 0.25755 0.02343 0.0
H3317 H 0.82005 0.18073 0.06246 0.0
H3318 H 0.82368 0.20986 0.05322 0.0
H3319 H 0.78594 0.2336 0.011 0.0
H3320 H 0.76833 0.31484 0.03865 0.0
H3321 H 0.77241 0.28559 0.03042 0.0
H3322 H 0.81317 0.26449 0.0697 0.0
C3323 C 0.81181 0.20412 0.05037 0.0
C3324 C 0.79205 0.24025 0.02377 0.0
C3325 C 0.8098 0.18746 0.05553 0.0
C3326 C 0.78037 0.30935 0.04124 0.0
C3327 C 0.78276 0.29264 0.0365 0.0
C3328 C 0.80756 0.25798 0.05643 0.0
C3329 C 0.79844 0.21342 0.04253 0.0
C3330 C 0.79973 0.23168 0.04062 0.0
C3331 C 0.79789 0.28489 0.04122 0.0
C3332 C 0.79949 0.26661 0.03996 0.0
H3333 H 0.76936 0.18297 0.0417 0.0
H3334 H 0.77273 0.21221 0.03284 0.0
H3335 H 0.81342 0.2346 0.07021 0.0
H3336 H 0.81835 0.31812 0.06171 0.0
H3337 H 0.82282 0.28906 0.05282 0.0
C3338 C 0.72014 0.8091 0.54031 0.0
C3339 C 0.70734 0.8182 0.54968 0.0
C3340 C 0.71779 0.79245 0.53521 0.0
C3341 C 0.69267 0.75773 0.55416 0.0
H3342 H 0.71513 0.73351 0.50928 0.0
C3343 C 0.69105 0.68723 0.55349 0.0
C3344 C 0.7065 0.67969 0.55111 0.0
C3345 C 0.68894 0.70384 0.54815 0.0
C3346 C 0.70878 0.74011 0.52189 0.0
H3347 H 0.68183 0.81777 0.55979 0.0
H3348 H 0.67743 0.78882 0.55025 0.0
H3349 H 0.71518 0.76372 0.50874 0.0
H3350 H 0.73167 0.68304 0.54046 0.0
H3351 H 0.72814 0.71221 0.53131 0.0
H3352 H 0.68672 0.73432 0.56775 0.0
C3353 C 0.68941 0.7943 0.54726 0.0
C3354 C 0.70881 0.75741 0.52159 0.0
C3355 C 0.69183 0.81088 0.55252 0.0
C3356 C 0.71961 0.68867 0.54223 0.0
C3357 C 0.71754 0.70532 0.53696 0.0
C3358 C 0.69262 0.74052 0.55444 0.0
C3359 C 0.70255 0.78469 0.53936 0.0
C3360 C 0.70098 0.76642 0.53794 0.0
C3361 C 0.70231 0.71324 0.5405 0.0
C3362 C 0.7009 0.73148 0.53853 0.0
H3363 H 0.73224 0.81457 0.53821 0.0
H3364 H 0.72822 0.78542 0.52933 0.0
H3365 H 0.68683 0.7642 0.56729 0.0
H3366 H 0.68079 0.68044 0.56031 0.0
H3367 H 0.67698 0.70948 0.55073 0.0
C3368 C 0.55969 0.47356 0.81259 0.0
C3369 C 0.57005 0.46098 0.80506 0.0
C3370 C 0.54315 0.47411 0.80647 0.0
C3371 C 0.50943 0.44715 0.79024 0.0
H3372 H 0.48663 0.48882 0.78242 0.0
C3373 C 0.43795 0.45179 0.78949 0.0
C3374 C 0.43207 0.46365 0.80394 0.0
C3375 C 0.45468 0.45162 0.78369 0.0
C3376 C 0.49282 0.47707 0.78446 0.0
H3377 H 0.57162 0.43936 0.78487 0.0
H3378 H 0.54239 0.44019 0.77414 0.0
H3379 H 0.51674 0.4882 0.78273 0.0
H3380 H 0.43852 0.48506 0.82286 0.0
H3381 H 0.46757 0.48488 0.81277 0.0
H3382 H 0.48546 0.43613 0.79289 0.0
C3383 C 0.5471 0.44963 0.78478 0.0
C3384 C 0.51005 0.47672 0.78465 0.0
C3385 C 0.56377 0.44918 0.7908 0.0
C3386 C 0.44286 0.47576 0.81175 0.0
C3387 C 0.45945 0.47571 0.80582 0.0
C3388 C 0.49215 0.4475 0.79003 0.0
C3389 C 0.53657 0.46202 0.79277 0.0
C3390 C 0.51855 0.46185 0.78835 0.0
C3391 C 0.46563 0.46348 0.79202 0.0
C3392 C 0.48368 0.46257 0.78795 0.0
H3393 H 0.56433 0.48279 0.8236 0.0
H3394 H 0.53536 0.48366 0.81319 0.0
H3395 H 0.51561 0.43551 0.79325 0.0
H3396 H 0.42976 0.44235 0.78332 0.0
H3397 H 0.45909 0.44209 0.77296 0.0
C3398 C 0.06376 0.55169 0.29013 0.0
C3399 C 0.06975 0.53868 0.30272 0.0
C3400 C 0.04706 0.55215 0.28424 0.0
C3401 C 0.00934 0.5264 0.28041 0.0
H3402 H 0.9859 0.56626 0.29644 0.0
C3403 C 0.94226 0.52573 0.30798 0.0
C3404 C 0.93185 0.53907 0.30338 0.0
C3405 C 0.95879 0.52605 0.30179 0.0
C3406 C 0.99224 0.55516 0.29138 0.0
H3407 H 0.06354 0.51569 0.31836 0.0
H3408 H 0.03452 0.51631 0.30794 0.0
H3409 H 0.01603 0.56612 0.29622 0.0
H3410 H 0.93017 0.56304 0.2883 0.0
H3411 H 0.95933 0.56369 0.27729 0.0
H3412 H 0.98561 0.51523 0.27633 0.0
C3413 C 0.04256 0.52615 0.30251 0.0
C3414 C 0.00952 0.55508 0.29127 0.0
C3415 C 0.05911 0.52581 0.30859 0.0
C3416 C 0.93804 0.55259 0.29187 0.0
C3417 C 0.95469 0.55298 0.28574 0.0
C3418 C 0.9921 0.52649 0.28043 0.0
C3419 C 0.03626 0.53946 0.29061 0.0
C3420 C 0.01823 0.54051 0.28656 0.0
C3421 C 0.9653 0.53979 0.2909 0.0
C3422 C 0.98335 0.54068 0.28672 0.0
H3423 H 0.07183 0.56175 0.28554 0.0
H3424 H 0.04254 0.56254 0.27502 0.0
H3425 H 0.01573 0.51507 0.27635 0.0
H3426 H 0.9377 0.51521 0.3169 0.0
H3427 H 0.96663 0.51581 0.30637 0.0
C3428 C 0.0614 0.47084 0.7165 0.0
C3429 C 0.0682 0.45851 0.70345 0.0
C3430 C 0.04483 0.46999 0.72272 0.0
C3431 C 0.00789 0.44252 0.7242 0.0
H3432 H 0.98409 0.48301 0.71226 0.0
C3433 C 0.9397 0.44411 0.69891 0.0
C3434 C 0.93008 0.45796 0.70394 0.0
C3435 C 0.95626 0.44338 0.70507 0.0
C3436 C 0.99049 0.47167 0.71619 0.0
H3437 H 0.06361 0.43515 0.6878 0.0
H3438 H 0.03464 0.43365 0.69845 0.0
H3439 H 0.01406 0.48312 0.71213 0.0
H3440 H 0.92966 0.48138 0.72055 0.0
H3441 H 0.95859 0.48004 0.73178 0.0
H3442 H 0.98423 0.43097 0.7275 0.0
C3443 C 0.042 0.44393 0.70405 0.0
C3444 C 0.00774 0.47174 0.7161 0.0
C3445 C 0.05854 0.44482 0.69782 0.0
C3446 C 0.9369 0.47058 0.71648 0.0
C3447 C 0.95348 0.46986 0.72271 0.0
C3448 C 0.99061 0.44246 0.72434 0.0
C3449 C 0.03481 0.45675 0.71604 0.0
C3450 C 0.01664 0.45708 0.71953 0.0
C3451 C 0.9635 0.45649 0.71648 0.0
C3452 C 0.9817 0.45695 0.71976 0.0
H3453 H 0.06868 0.48151 0.72101 0.0
H3454 H 0.03971 0.47995 0.73219 0.0
H3455 H 0.0144 0.43107 0.72723 0.0
H3456 H 0.9346 0.43419 0.68933 0.0
H3457 H 0.96359 0.43296 0.69982 0.0
C3458 C 0.44081 0.52428 0.19566 0.0
C3459 C 0.43012 0.53703 0.20176 0.0
C3460 C 0.45725 0.52438 0.20226 0.0
C3461 C 0.49024 0.55268 0.21556 0.0
H3462 H 0.51341 0.51239 0.23052 0.0
C3463 C 0.56152 0.54953 0.21538 0.0
C3464 C 0.56753 0.53611 0.20356 0.0
C3465 C 0.54494 0.54991 0.22184 0.0
C3466 C 0.50713 0.52377 0.22643 0.0
H3467 H 0.42781 0.55965 0.21988 0.0
H3468 H 0.45692 0.56007 0.23124 0.0
H3469 H 0.48329 0.51258 0.22949 0.0
H3470 H 0.56152 0.51228 0.19005 0.0
H3471 H 0.53273 0.51287 0.20112 0.0
H3472 H 0.51407 0.56362 0.21126 0.0
C3473 C 0.45252 0.54995 0.22145 0.0
C3474 C 0.48989 0.52388 0.22588 0.0
C3475 C 0.43594 0.54971 0.21505 0.0
C3476 C 0.55708 0.52274 0.1992 0.0
C3477 C 0.54063 0.52306 0.2057 0.0
C3478 C 0.50752 0.55255 0.21598 0.0
C3479 C 0.46337 0.53735 0.21493 0.0
C3480 C 0.4813 0.53816 0.21969 0.0
C3481 C 0.53423 0.5368 0.21667 0.0
C3482 C 0.51616 0.53791 0.22062 0.0
H3483 H 0.43651 0.51438 0.18542 0.0
H3484 H 0.46535 0.51463 0.19673 0.0
H3485 H 0.48395 0.56384 0.2106 0.0
H3486 H 0.56942 0.56 0.2188 0.0
H3487 H 0.54041 0.56062 0.23038 0.0
loop_
_geom_bond_atom_site_label_1
_geom_bond_atom_site_label_2
_geom_bond_distance
_geom_bond_site_symmetry_2
_ccdc_geom_bond_type
Co0 O3 1.970 . S
Co0 N17 1.989 . S
Co0 O25 1.967 . S
Co0 O32 1.920 . S
Co1 O4 1.966 . S
Co1 N10 2.022 . S
Co1 N18 1.993 . S
Co1 O26 1.941 . S
C2 O3 1.258 . S
C2 O4 1.263 . S
O3 Co0 1.970 . S
O3 C2 1.258 . S
O4 Co1 1.966 . S
O4 C2 1.263 . S
C5 O6 1.235 . S
C5 O32 1.289 . S
O6 C5 1.235 . S
C7 C9 1.400 1_554 S
C7 N10 1.351 . S
C7 C12 1.501 . S
C8 C9 1.387 . S
C8 N11 1.341 1_556 S
C9 C7 1.400 1_556 S
C9 C8 1.387 . S
N10 Co1 2.022 . S
N10 C7 1.351 . S
N10 N11 1.365 . S
N11 C8 1.341 1_554 S
N11 N10 1.365 . S
N11 H31 0.862 . S
C12 C7 1.501 . S
C12 H13 0.961 . S
C12 H14 0.961 . S
C12 H15 0.960 . S
H13 C12 0.961 . S
H14 C12 0.961 . S
H15 C12 0.960 . S
C16 N17 1.342 . S
C16 C20 1.401 . S
C16 C21 1.499 . S
N17 Co0 1.989 . S
N17 C16 1.342 . S
N17 N18 1.388 . S
N18 Co1 1.993 . S
N18 N17 1.388 . S
N18 C19 1.346 . S
C19 N18 1.346 . S
C19 C20 1.396 . S
C19 C29 1.510 . S
C20 C16 1.401 . S
C20 C19 1.396 . S
C21 C16 1.499 . S
C21 H22 0.959 . S
C21 H23 0.960 . S
C21 H24 0.961 . S
H22 C21 0.959 . S
H23 C21 0.960 . S
H24 C21 0.961 . S
O25 Co0 1.967 . S
O25 C33 1.258 . S
O26 Co1 1.941 . S
O26 C33 1.266 . S
H27 C29 0.959 . S
H28 C29 0.961 . S
C29 C19 1.510 . S
C29 H27 0.959 . S
C29 H28 0.961 . S
C29 H30 0.960 . S
H30 C29 0.960 . S
H31 N11 0.862 . S
O32 Co0 1.920 . S
O32 C5 1.289 . S
C33 O25 1.258 . S
C33 O26 1.266 . S
Co34 O37 1.970 . S
Co34 N51 1.989 . S
Co34 O59 1.967 . S
Co34 O66 1.920 . S
Co35 O38 1.966 . S
Co35 N44 2.022 . S
Co35 N52 1.993 . S
Co35 O60 1.941 . S
C36 O37 1.261 . S
C36 O38 1.275 . S
O37 Co34 1.970 . S
O37 C36 1.261 . S
O38 Co35 1.966 . S
O38 C36 1.275 . S
C39 O40 1.182 1_565 S
C39 O66 1.289 . S
O40 C39 1.182 1_545 S
C41 C43 1.400 . S
C41 N44 1.351 . S
C41 C46 1.501 1_565 S
C42 C43 1.387 . S
C42 N45 1.341 . S
C43 C41 1.400 . S
C43 C42 1.387 . S
N44 Co35 2.022 . S
N44 C41 1.351 . S
N44 N45 1.365 . S
N45 C42 1.341 . S
N45 N44 1.365 . S
N45 H65 0.862 . S
C46 C41 1.501 1_545 S
C46 H47 0.961 . S
C46 H48 0.961 . S
C46 H49 0.960 . S
H47 C46 0.961 . S
H48 C46 0.961 . S
H49 C46 0.960 . S
C50 N51 1.342 . S
C50 C54 1.401 . S
C50 C55 1.499 . S
N51 Co34 1.989 . S
N51 C50 1.342 . S
N51 N52 1.388 . S
N52 Co35 1.993 . S
N52 N51 1.388 . S
N52 C53 1.346 . S
C53 N52 1.346 . S
C53 C54 1.396 . S
C53 C63 1.510 . S
C54 C50 1.401 . S
C54 C53 1.396 . S
C55 C50 1.499 . S
C55 H56 0.959 . S
C55 H57 0.960 . S
C55 H58 0.961 . S
H56 C55 0.959 . S
H57 C55 0.960 . S
H58 C55 0.961 . S
O59 Co34 1.967 . S
O59 C67 1.258 . S
O60 Co35 1.941 . S
O60 C67 1.266 . S
H61 C63 0.959 . S
H62 C63 0.961 . S
C63 C53 1.510 . S
C63 H61 0.959 . S
C63 H62 0.961 . S
C63 H64 0.960 . S
H64 C63 0.960 . S
H65 N45 0.862 . S
O66 Co34 1.920 . S
O66 C39 1.289 . S
C67 O59 1.258 . S
C67 O60 1.266 . S
Co68 O71 1.970 . S
Co68 N85 1.989 . S
Co68 O93 1.967 . S
Co68 O100 1.920 . S
Co69 O72 1.966 . S
Co69 N78 2.022 . S
Co69 N86 1.993 . S
Co69 O94 1.941 . S
C70 O71 1.258 . S
C70 O72 1.263 . S
O71 Co68 1.970 . S
O71 C70 1.258 . S
O72 Co69 1.966 . S
O72 C70 1.263 . S
C73 O74 1.235 . S
C73 O100 1.289 . S
O74 C73 1.235 . S
C75 C77 1.400 . S
C75 N78 1.351 . S
C75 C80 1.501 . S
C76 C77 1.387 . S
C76 N79 1.341 . S
C77 C75 1.400 . S
C77 C76 1.387 . S
N78 Co69 2.022 . S
N78 C75 1.351 . S
N78 N79 1.365 . S
N79 C76 1.341 . S
N79 N78 1.365 . S
N79 H99 0.862 . S
C80 C75 1.501 . S
C80 H81 0.961 . S
C80 H82 0.961 . S
C80 H83 0.960 . S
H81 C80 0.961 . S
H82 C80 0.961 . S
H83 C80 0.960 . S
C84 N85 1.342 . S
C84 C88 1.401 . S
C84 C89 1.499 . S
N85 Co68 1.989 . S
N85 C84 1.342 . S
N85 N86 1.388 . S
N86 Co69 1.993 . S
N86 N85 1.388 . S
N86 C87 1.346 . S
C87 N86 1.346 . S
C87 C88 1.396 . S
C87 C97 1.510 . S
C88 C84 1.401 . S
C88 C87 1.396 . S
C89 C84 1.499 . S
C89 H90 0.959 . S
C89 H91 0.960 . S
C89 H92 0.961 . S
H90 C89 0.959 . S
H91 C89 0.960 . S
H92 C89 0.961 . S
O93 Co68 1.967 . S
O93 C101 1.258 . S
O94 Co69 1.941 . S
O94 C101 1.266 . S
H95 C97 0.959 . S
H96 C97 0.961 . S
C97 C87 1.510 . S
C97 H95 0.959 . S
C97 H96 0.961 . S
C97 H98 0.960 . S
H98 C97 0.960 . S
H99 N79 0.862 . S
O100 Co68 1.920 . S
O100 C73 1.289 . S
C101 O93 1.258 . S
C101 O94 1.266 . S
Co102 O105 1.970 . S
Co102 N119 1.989 . S
Co102 O127 1.967 . S
Co102 O134 1.920 . S
Co103 O106 1.966 . S
Co103 N112 2.022 . S
Co103 N120 1.993 . S
Co103 O128 1.941 . S
C104 O105 1.261 . S
C104 O106 1.274 . S
O105 Co102 1.970 . S
O105 C104 1.261 . S
O106 Co103 1.966 . S
O106 C104 1.274 . S
C107 O108 1.181 1_545 S
C107 O134 1.289 . S
O108 C107 1.181 1_565 S
C109 C111 1.400 . S
C109 N112 1.351 . S
C109 C114 1.501 1_545 S
C110 C111 1.387 . S
C110 N113 1.341 . S
C111 C109 1.400 . S
C111 C110 1.387 . S
N112 Co103 2.022 . S
N112 C109 1.351 . S
N112 N113 1.365 . S
N113 C110 1.341 . S
N113 N112 1.365 . S
N113 H133 0.862 . S
C114 C109 1.501 1_565 S
C114 H115 0.961 . S
C114 H116 0.961 . S
C114 H117 0.960 . S
H115 C114 0.961 . S
H116 C114 0.961 . S
H117 C114 0.960 . S
C118 N119 1.342 . S
C118 C122 1.401 . S
C118 C123 1.499 . S
N119 Co102 1.989 . S
N119 C118 1.342 . S
N119 N120 1.388 . S
N120 Co103 1.993 . S
N120 N119 1.388 . S
N120 C121 1.346 . S
C121 N120 1.346 . S
C121 C122 1.396 . S
C121 C131 1.510 . S
C122 C118 1.401 . S
C122 C121 1.396 . S
C123 C118 1.499 . S
C123 H124 0.959 . S
C123 H125 0.960 . S
C123 H126 0.961 . S
H124 C123 0.959 . S
H125 C123 0.960 . S
H126 C123 0.961 . S
O127 Co102 1.967 . S
O127 C135 1.258 . S
O128 Co103 1.941 . S
O128 C135 1.266 . S
H129 C131 0.959 . S
H130 C131 0.961 . S
C131 C121 1.510 . S
C131 H129 0.959 . S
C131 H130 0.961 . S
C131 H132 0.960 . S
H132 C131 0.960 . S
H133 N113 0.862 . S
O134 Co102 1.920 . S
O134 C107 1.289 . S
C135 O127 1.258 . S
C135 O128 1.266 . S
Co136 O139 1.970 . S
Co136 N153 1.989 . S
Co136 O161 1.967 . S
Co136 O168 1.920 . S
Co137 O140 1.966 . S
Co137 N146 2.022 . S
Co137 N154 1.993 . S
Co137 O162 1.941 . S
C138 O139 1.258 . S
C138 O140 1.263 . S
O139 Co136 1.970 . S
O139 C138 1.258 . S
O140 Co137 1.966 . S
O140 C138 1.263 . S
C141 O142 1.235 . S
C141 O168 1.289 . S
O142 C141 1.235 . S
C143 C145 1.400 1_556 S
C143 N146 1.351 . S
C143 C148 1.501 . S
C144 C145 1.387 . S
C144 N147 1.341 1_554 S
C145 C143 1.400 1_554 S
C145 C144 1.387 . S
N146 Co137 2.022 . S
N146 C143 1.351 . S
N146 N147 1.365 . S
N147 C144 1.341 1_556 S
N147 N146 1.365 . S
N147 H167 0.862 . S
C148 C143 1.501 . S
C148 H149 0.961 . S
C148 H150 0.961 . S
C148 H151 0.960 . S
H149 C148 0.961 . S
H150 C148 0.961 . S
H151 C148 0.960 . S
C152 N153 1.342 . S
C152 C156 1.401 . S
C152 C157 1.499 . S
N153 Co136 1.989 . S
N153 C152 1.342 . S
N153 N154 1.388 . S
N154 Co137 1.993 . S
N154 N153 1.388 . S
N154 C155 1.346 . S
C155 N154 1.346 . S
C155 C156 1.396 . S
C155 C165 1.510 . S
C156 C152 1.401 . S
C156 C155 1.396 . S
C157 C152 1.499 . S
C157 H158 0.959 . S
C157 H159 0.960 . S
C157 H160 0.961 . S
H158 C157 0.959 . S
H159 C157 0.960 . S
H160 C157 0.961 . S
O161 Co136 1.967 . S
O161 C169 1.258 . S
O162 Co137 1.941 . S
O162 C169 1.266 . S
H163 C165 0.959 . S
H164 C165 0.961 . S
C165 C155 1.510 . S
C165 H163 0.959 . S
C165 H164 0.961 . S
C165 H166 0.960 . S
H166 C165 0.960 . S
H167 N147 0.862 . S
O168 Co136 1.920 . S
O168 C141 1.289 . S
C169 O161 1.258 . S
C169 O162 1.266 . S
Co170 O173 1.970 . S
Co170 N187 1.989 . S
Co170 O195 1.967 . S
Co170 O202 1.920 . S
Co171 O174 1.966 . S
Co171 N180 2.022 . S
Co171 N188 1.993 . S
Co171 O196 1.941 . S
C172 O173 1.261 . S
C172 O174 1.274 . S
O173 Co170 1.970 . S
O173 C172 1.261 . S
O174 Co171 1.966 . S
O174 C172 1.274 . S
C175 O176 1.181 1_565 S
C175 O202 1.289 . S
O176 C175 1.181 1_545 S
C177 C179 1.400 . S
C177 N180 1.351 . S
C177 C182 1.501 1_565 S
C178 C179 1.387 . S
C178 N181 1.341 . S
C179 C177 1.400 . S
C179 C178 1.387 . S
N180 Co171 2.022 . S
N180 C177 1.351 . S
N180 N181 1.365 . S
N181 C178 1.341 . S
N181 N180 1.365 . S
N181 H201 0.862 . S
C182 C177 1.501 1_545 S
C182 H183 0.961 . S
C182 H184 0.961 . S
C182 H185 0.960 . S
H183 C182 0.961 . S
H184 C182 0.961 . S
H185 C182 0.960 . S
C186 N187 1.342 . S
C186 C190 1.401 . S
C186 C191 1.499 . S
N187 Co170 1.989 . S
N187 C186 1.342 . S
N187 N188 1.388 . S
N188 Co171 1.993 . S
N188 N187 1.388 . S
N188 C189 1.346 . S
C189 N188 1.346 . S
C189 C190 1.396 . S
C189 C199 1.510 . S
C190 C186 1.401 . S
C190 C189 1.396 . S
C191 C186 1.499 . S
C191 H192 0.959 . S
C191 H193 0.960 . S
C191 H194 0.961 . S
H192 C191 0.959 . S
H193 C191 0.960 . S
H194 C191 0.961 . S
O195 Co170 1.967 . S
O195 C203 1.258 . S
O196 Co171 1.941 . S
O196 C203 1.266 . S
H197 C199 0.959 . S
H198 C199 0.961 . S
C199 C189 1.510 . S
C199 H197 0.959 . S
C199 H198 0.961 . S
C199 H200 0.960 . S
H200 C199 0.960 . S
H201 N181 0.862 . S
O202 Co170 1.920 . S
O202 C175 1.289 . S
C203 O195 1.258 . S
C203 O196 1.266 . S
Co204 O207 1.970 . S
Co204 N221 1.989 . S
Co204 O229 1.967 . S
Co204 O236 1.920 . S
Co205 O208 1.966 . S
Co205 N214 2.022 . S
Co205 N222 1.993 . S
Co205 O230 1.941 . S
C206 O207 1.258 . S
C206 O208 1.263 . S
O207 Co204 1.970 . S
O207 C206 1.258 . S
O208 Co205 1.966 . S
O208 C206 1.263 . S
C209 O210 1.235 . S
C209 O236 1.289 . S
O210 C209 1.235 . S
C211 C213 1.400 . S
C211 N214 1.351 . S
C211 C216 1.501 . S
C212 C213 1.387 . S
C212 N215 1.341 . S
C213 C211 1.400 . S
C213 C212 1.387 . S
N214 Co205 2.022 . S
N214 C211 1.351 . S
N214 N215 1.365 . S
N215 C212 1.341 . S
N215 N214 1.365 . S
N215 H235 0.862 . S
C216 C211 1.501 . S
C216 H217 0.961 . S
C216 H218 0.961 . S
C216 H219 0.960 . S
H217 C216 0.961 . S
H218 C216 0.961 . S
H219 C216 0.960 . S
C220 N221 1.342 . S
C220 C224 1.401 . S
C220 C225 1.499 . S
N221 Co204 1.989 . S
N221 C220 1.342 . S
N221 N222 1.388 . S
N222 Co205 1.993 . S
N222 N221 1.388 . S
N222 C223 1.346 . S
C223 N222 1.346 . S
C223 C224 1.396 . S
C223 C233 1.510 . S
C224 C220 1.401 . S
C224 C223 1.396 . S
C225 C220 1.499 . S
C225 H226 0.959 . S
C225 H227 0.960 . S
C225 H228 0.961 . S
H226 C225 0.959 . S
H227 C225 0.960 . S
H228 C225 0.961 . S
O229 Co204 1.967 . S
O229 C237 1.258 . S
O230 Co205 1.941 . S
O230 C237 1.266 . S
H231 C233 0.959 . S
H232 C233 0.961 . S
C233 C223 1.510 . S
C233 H231 0.959 . S
C233 H232 0.961 . S
C233 H234 0.960 . S
H234 C233 0.960 . S
H235 N215 0.862 . S
O236 Co204 1.920 . S
O236 C209 1.289 . S
C237 O229 1.258 . S
C237 O230 1.266 . S
Co238 O241 1.970 . S
Co238 N255 1.989 . S
Co238 O263 1.967 . S
Co238 O270 1.920 . S
Co239 O242 1.966 . S
Co239 N248 2.022 . S
Co239 N256 1.993 . S
Co239 O264 1.941 . S
C240 O241 1.261 . S
C240 O242 1.275 . S
O241 Co238 1.970 . S
O241 C240 1.261 . S
O242 Co239 1.966 . S
O242 C240 1.275 . S
C243 O244 1.182 1_545 S
C243 O270 1.289 . S
O244 C243 1.182 1_565 S
C245 C247 1.400 . S
C245 N248 1.351 . S
C245 C250 1.501 1_545 S
C246 C247 1.387 . S
C246 N249 1.341 . S
C247 C245 1.400 . S
C247 C246 1.387 . S
N248 Co239 2.022 . S
N248 C245 1.351 . S
N248 N249 1.365 . S
N249 C246 1.341 . S
N249 N248 1.365 . S
N249 H269 0.862 . S
C250 C245 1.501 1_565 S
C250 H251 0.961 . S
C250 H252 0.961 . S
C250 H253 0.960 . S
H251 C250 0.961 . S
H252 C250 0.961 . S
H253 C250 0.960 . S
C254 N255 1.342 . S
C254 C258 1.401 . S
C254 C259 1.499 . S
N255 Co238 1.989 . S
N255 C254 1.342 . S
N255 N256 1.388 . S
N256 Co239 1.993 . S
N256 N255 1.388 . S
N256 C257 1.346 . S
C257 N256 1.346 . S
C257 C258 1.396 . S
C257 C267 1.510 . S
C258 C254 1.401 . S
C258 C257 1.396 . S
C259 C254 1.499 . S
C259 H260 0.959 . S
C259 H261 0.960 . S
C259 H262 0.961 . S
H260 C259 0.959 . S
H261 C259 0.960 . S
H262 C259 0.961 . S
O263 Co238 1.967 . S
O263 C271 1.258 . S
O264 Co239 1.941 . S
O264 C271 1.266 . S
H265 C267 0.959 . S
H266 C267 0.961 . S
C267 C257 1.510 . S
C267 H265 0.959 . S
C267 H266 0.961 . S
C267 H268 0.960 . S
H268 C267 0.960 . S
H269 N249 0.862 . S
O270 Co238 1.920 . S
O270 C243 1.289 . S
C271 O263 1.258 . S
C271 O264 1.266 . S
Co272 O275 1.970 . S
Co272 N289 1.989 . S
Co272 O297 1.967 . S
Co272 O304 1.920 . S
Co273 O276 1.966 . S
Co273 N282 2.022 . S
Co273 N290 1.993 . S
Co273 O298 1.941 . S
C274 O275 1.258 . S
C274 O276 1.263 . S
O275 Co272 1.970 . S
O275 C274 1.258 . S
O276 Co273 1.966 . S
O276 C274 1.263 . S
C277 O278 1.235 . S
C277 O304 1.289 . S
O278 C277 1.235 . S
C279 C281 1.400 1_556 S
C279 N282 1.351 . S
C279 C284 1.501 . S
C280 C281 1.387 . S
C280 N283 1.341 1_554 S
C281 C279 1.400 1_554 S
C281 C280 1.387 . S
N282 Co273 2.022 . S
N282 C279 1.351 . S
N282 N283 1.365 . S
N283 C280 1.341 1_556 S
N283 N282 1.365 . S
N283 H303 0.862 . S
C284 C279 1.501 . S
C284 H285 0.961 . S
C284 H286 0.961 . S
C284 H287 0.960 . S
H285 C284 0.961 . S
H286 C284 0.961 . S
H287 C284 0.960 . S
C288 N289 1.342 . S
C288 C292 1.401 . S
C288 C293 1.499 . S
N289 Co272 1.989 . S
N289 C288 1.342 . S
N289 N290 1.388 . S
N290 Co273 1.993 . S
N290 N289 1.388 . S
N290 C291 1.346 . S
C291 N290 1.346 . S
C291 C292 1.396 . S
C291 C301 1.510 . S
C292 C288 1.401 . S
C292 C291 1.396 . S
C293 C288 1.499 . S
C293 H294 0.959 . S
C293 H295 0.960 . S
C293 H296 0.961 . S
H294 C293 0.959 . S
H295 C293 0.960 . S
H296 C293 0.961 . S
O297 Co272 1.967 . S
O297 C305 1.258 . S
O298 Co273 1.941 . S
O298 C305 1.266 . S
H299 C301 0.959 . S
H300 C301 0.961 . S
C301 C291 1.510 . S
C301 H299 0.959 . S
C301 H300 0.961 . S
C301 H302 0.960 . S
H302 C301 0.960 . S
H303 N283 0.862 . S
O304 Co272 1.920 . S
O304 C277 1.289 . S
C305 O297 1.258 . S
C305 O298 1.266 . S
Co306 O309 1.970 . S
Co306 N323 1.989 . S
Co306 O331 1.967 . S
Co306 O338 1.920 . S
Co307 O310 1.966 . S
Co307 N316 2.022 . S
Co307 N324 1.993 . S
Co307 O332 1.941 . S
C308 O309 1.261 . S
C308 O310 1.275 . S
O309 Co306 1.970 . S
O309 C308 1.261 . S
O310 Co307 1.966 . S
O310 C308 1.275 . S
C311 O312 1.182 1_545 S
C311 O338 1.289 . S
O312 C311 1.182 1_565 S
C313 C315 1.400 . S
C313 N316 1.351 . S
C313 C318 1.501 1_545 S
C314 C315 1.387 . S
C314 N317 1.341 . S
C315 C313 1.400 . S
C315 C314 1.387 . S
N316 Co307 2.022 . S
N316 C313 1.351 . S
N316 N317 1.365 . S
N317 C314 1.341 . S
N317 N316 1.365 . S
N317 H337 0.862 . S
C318 C313 1.501 1_565 S
C318 H319 0.961 . S
C318 H320 0.961 . S
C318 H321 0.960 . S
H319 C318 0.961 . S
H320 C318 0.961 . S
H321 C318 0.960 . S
C322 N323 1.342 . S
C322 C326 1.401 . S
C322 C327 1.499 . S
N323 Co306 1.989 . S
N323 C322 1.342 . S
N323 N324 1.388 . S
N324 Co307 1.993 . S
N324 N323 1.388 . S
N324 C325 1.346 . S
C325 N324 1.346 . S
C325 C326 1.396 . S
C325 C335 1.510 . S
C326 C322 1.401 . S
C326 C325 1.396 . S
C327 C322 1.499 . S
C327 H328 0.959 . S
C327 H329 0.960 . S
C327 H330 0.961 . S
H328 C327 0.959 . S
H329 C327 0.960 . S
H330 C327 0.961 . S
O331 Co306 1.967 . S
O331 C339 1.258 . S
O332 Co307 1.941 . S
O332 C339 1.266 . S
H333 C335 0.959 . S
H334 C335 0.961 . S
C335 C325 1.510 . S
C335 H333 0.959 . S
C335 H334 0.961 . S
C335 H336 0.960 . S
H336 C335 0.960 . S
H337 N317 0.862 . S
O338 Co306 1.920 . S
O338 C311 1.289 . S
C339 O331 1.258 . S
C339 O332 1.266 . S
Co340 O343 1.970 . S
Co340 N357 1.989 . S
Co340 O365 1.967 . S
Co340 O372 1.920 . S
Co341 O344 1.966 . S
Co341 N350 2.022 . S
Co341 N358 1.993 . S
Co341 O366 1.941 . S
C342 O343 1.258 . S
C342 O344 1.263 . S
O343 Co340 1.970 . S
O343 C342 1.258 . S
O344 Co341 1.966 . S
O344 C342 1.263 . S
C345 O346 1.235 . S
C345 O372 1.289 . S
O346 C345 1.235 . S
C347 C349 1.400 . S
C347 N350 1.351 . S
C347 C352 1.501 . S
C348 C349 1.387 . S
C348 N351 1.341 . S
C349 C347 1.400 . S
C349 C348 1.387 . S
N350 Co341 2.022 . S
N350 C347 1.351 . S
N350 N351 1.365 . S
N351 C348 1.341 . S
N351 N350 1.365 . S
N351 H371 0.862 . S
C352 C347 1.501 . S
C352 H353 0.961 . S
C352 H354 0.961 . S
C352 H355 0.960 . S
H353 C352 0.961 . S
H354 C352 0.961 . S
H355 C352 0.960 . S
C356 N357 1.342 . S
C356 C360 1.401 . S
C356 C361 1.499 . S
N357 Co340 1.989 . S
N357 C356 1.342 . S
N357 N358 1.388 . S
N358 Co341 1.993 . S
N358 N357 1.388 . S
N358 C359 1.346 . S
C359 N358 1.346 . S
C359 C360 1.396 . S
C359 C369 1.510 . S
C360 C356 1.401 . S
C360 C359 1.396 . S
C361 C356 1.499 . S
C361 H362 0.959 . S
C361 H363 0.960 . S
C361 H364 0.961 . S
H362 C361 0.959 . S
H363 C361 0.960 . S
H364 C361 0.961 . S
O365 Co340 1.967 . S
O365 C373 1.258 . S
O366 Co341 1.941 . S
O366 C373 1.266 . S
H367 C369 0.959 . S
H368 C369 0.961 . S
C369 C359 1.510 . S
C369 H367 0.959 . S
C369 H368 0.961 . S
C369 H370 0.960 . S
H370 C369 0.960 . S
H371 N351 0.862 . S
O372 Co340 1.920 . S
O372 C345 1.289 . S
C373 O365 1.258 . S
C373 O366 1.266 . S
Co374 O377 1.970 . S
Co374 N391 1.989 . S
Co374 O399 1.967 . S
Co374 O406 1.920 . S
Co375 O378 1.966 . S
Co375 N384 2.022 . S
Co375 N392 1.993 . S
Co375 O400 1.941 . S
C376 O377 1.261 . S
C376 O378 1.274 . S
O377 Co374 1.970 . S
O377 C376 1.261 . S
O378 Co375 1.966 . S
O378 C376 1.274 . S
C379 O380 1.181 1_565 S
C379 O406 1.289 . S
O380 C379 1.181 1_545 S
C381 C383 1.400 . S
C381 N384 1.351 . S
C381 C386 1.501 1_565 S
C382 C383 1.387 . S
C382 N385 1.341 . S
C383 C381 1.400 . S
C383 C382 1.387 . S
N384 Co375 2.022 . S
N384 C381 1.351 . S
N384 N385 1.365 . S
N385 C382 1.341 . S
N385 N384 1.365 . S
N385 H405 0.862 . S
C386 C381 1.501 1_545 S
C386 H387 0.961 . S
C386 H388 0.961 . S
C386 H389 0.960 . S
H387 C386 0.961 . S
H388 C386 0.961 . S
H389 C386 0.960 . S
C390 N391 1.342 . S
C390 C394 1.401 . S
C390 C395 1.499 . S
N391 Co374 1.989 . S
N391 C390 1.342 . S
N391 N392 1.388 . S
N392 Co375 1.993 . S
N392 N391 1.388 . S
N392 C393 1.346 . S
C393 N392 1.346 . S
C393 C394 1.396 . S
C393 C403 1.510 . S
C394 C390 1.401 . S
C394 C393 1.396 . S
C395 C390 1.499 . S
C395 H396 0.959 . S
C395 H397 0.960 . S
C395 H398 0.961 . S
H396 C395 0.959 . S
H397 C395 0.960 . S
H398 C395 0.961 . S
O399 Co374 1.967 . S
O399 C407 1.258 . S
O400 Co375 1.941 . S
O400 C407 1.266 . S
H401 C403 0.959 . S
H402 C403 0.961 . S
C403 C393 1.510 . S
C403 H401 0.959 . S
C403 H402 0.961 . S
C403 H404 0.960 . S
H404 C403 0.960 . S
H405 N385 0.862 . S
O406 Co374 1.920 . S
O406 C379 1.289 . S
C407 O399 1.258 . S
C407 O400 1.266 . S
Co408 O411 1.970 . S
Co408 N425 1.989 . S
Co408 O433 1.967 . S
Co408 O440 1.920 . S
Co409 O412 1.966 . S
Co409 N418 2.022 . S
Co409 N426 1.993 . S
Co409 O434 1.941 . S
C410 O411 1.258 . S
C410 O412 1.263 . S
O411 Co408 1.970 . S
O411 C410 1.258 . S
O412 Co409 1.966 . S
O412 C410 1.263 . S
C413 O414 1.235 . S
C413 O440 1.289 . S
O414 C413 1.235 . S
C415 C417 1.400 1_554 S
C415 N418 1.351 . S
C415 C420 1.501 . S
C416 C417 1.387 . S
C416 N419 1.341 1_556 S
C417 C415 1.400 1_556 S
C417 C416 1.387 . S
N418 Co409 2.022 . S
N418 C415 1.351 . S
N418 N419 1.365 . S
N419 C416 1.341 1_554 S
N419 N418 1.365 . S
N419 H439 0.862 . S
C420 C415 1.501 . S
C420 H421 0.961 . S
C420 H422 0.961 . S
C420 H423 0.960 . S
H421 C420 0.961 . S
H422 C420 0.961 . S
H423 C420 0.960 . S
C424 N425 1.342 . S
C424 C428 1.401 . S
C424 C429 1.499 . S
N425 Co408 1.989 . S
N425 C424 1.342 . S
N425 N426 1.388 . S
N426 Co409 1.993 . S
N426 N425 1.388 . S
N426 C427 1.346 . S
C427 N426 1.346 . S
C427 C428 1.396 . S
C427 C437 1.510 . S
C428 C424 1.401 . S
C428 C427 1.396 . S
C429 C424 1.499 . S
C429 H430 0.959 . S
C429 H431 0.960 . S
C429 H432 0.961 . S
H430 C429 0.959 . S
H431 C429 0.960 . S
H432 C429 0.961 . S
O433 Co408 1.967 . S
O433 C441 1.258 . S
O434 Co409 1.941 . S
O434 C441 1.266 . S
H435 C437 0.959 . S
H436 C437 0.961 . S
C437 C427 1.510 . S
C437 H435 0.959 . S
C437 H436 0.961 . S
C437 H438 0.960 . S
H438 C437 0.960 . S
H439 N419 0.862 . S
O440 Co408 1.920 . S
O440 C413 1.289 . S
C441 O433 1.258 . S
C441 O434 1.266 . S
Co442 O445 1.970 . S
Co442 N459 1.989 . S
Co442 O467 1.967 . S
Co442 O474 1.920 . S
Co443 O446 1.966 . S
Co443 N452 2.022 . S
Co443 N460 1.993 . S
Co443 O468 1.941 . S
C444 O445 1.261 . S
C444 O446 1.274 . S
O445 Co442 1.970 . S
O445 C444 1.261 . S
O446 Co443 1.966 . S
O446 C444 1.274 . S
C447 O448 1.181 1_545 S
C447 O474 1.289 . S
O448 C447 1.181 1_565 S
C449 C451 1.400 . S
C449 N452 1.351 . S
C449 C454 1.501 1_545 S
C450 C451 1.387 . S
C450 N453 1.341 . S
C451 C449 1.400 . S
C451 C450 1.387 . S
N452 Co443 2.022 . S
N452 C449 1.351 . S
N452 N453 1.365 . S
N453 C450 1.341 . S
N453 N452 1.365 . S
N453 H473 0.862 . S
C454 C449 1.501 1_565 S
C454 H455 0.961 . S
C454 H456 0.961 . S
C454 H457 0.960 . S
H455 C454 0.961 . S
H456 C454 0.961 . S
H457 C454 0.960 . S
C458 N459 1.342 . S
C458 C462 1.401 . S
C458 C463 1.499 . S
N459 Co442 1.989 . S
N459 C458 1.342 . S
N459 N460 1.388 . S
N460 Co443 1.993 . S
N460 N459 1.388 . S
N460 C461 1.346 . S
C461 N460 1.346 . S
C461 C462 1.396 . S
C461 C471 1.510 . S
C462 C458 1.401 . S
C462 C461 1.396 . S
C463 C458 1.499 . S
C463 H464 0.959 . S
C463 H465 0.960 . S
C463 H466 0.961 . S
H464 C463 0.959 . S
H465 C463 0.960 . S
H466 C463 0.961 . S
O467 Co442 1.967 . S
O467 C475 1.258 . S
O468 Co443 1.941 . S
O468 C475 1.266 . S
H469 C471 0.959 . S
H470 C471 0.961 . S
C471 C461 1.510 . S
C471 H469 0.959 . S
C471 H470 0.961 . S
C471 H472 0.960 . S
H472 C471 0.960 . S
H473 N453 0.862 . S
O474 Co442 1.920 . S
O474 C447 1.289 . S
C475 O467 1.258 . S
C475 O468 1.266 . S
Co476 O479 1.970 . S
Co476 N493 1.989 . S
Co476 O501 1.967 . S
Co476 O508 1.920 . S
Co477 O480 1.966 . S
Co477 N486 2.022 . S
Co477 N494 1.993 . S
Co477 O502 1.941 . S
C478 O479 1.258 . S
C478 O480 1.263 . S
O479 Co476 1.970 . S
O479 C478 1.258 . S
O480 Co477 1.966 . S
O480 C478 1.263 . S
C481 O482 1.235 . S
C481 O508 1.289 . S
O482 C481 1.235 . S
C483 C485 1.400 . S
C483 N486 1.351 . S
C483 C488 1.501 . S
C484 C485 1.387 . S
C484 N487 1.341 . S
C485 C483 1.400 . S
C485 C484 1.387 . S
N486 Co477 2.022 . S
N486 C483 1.351 . S
N486 N487 1.365 . S
N487 C484 1.341 . S
N487 N486 1.365 . S
N487 H507 0.862 . S
C488 C483 1.501 . S
C488 H489 0.961 . S
C488 H490 0.961 . S
C488 H491 0.960 . S
H489 C488 0.961 . S
H490 C488 0.961 . S
H491 C488 0.960 . S
C492 N493 1.342 . S
C492 C496 1.401 . S
C492 C497 1.499 . S
N493 Co476 1.989 . S
N493 C492 1.342 . S
N493 N494 1.388 . S
N494 Co477 1.993 . S
N494 N493 1.388 . S
N494 C495 1.346 . S
C495 N494 1.346 . S
C495 C496 1.396 . S
C495 C505 1.510 . S
C496 C492 1.401 . S
C496 C495 1.396 . S
C497 C492 1.499 . S
C497 H498 0.959 . S
C497 H499 0.960 . S
C497 H500 0.961 . S
H498 C497 0.959 . S
H499 C497 0.960 . S
H500 C497 0.961 . S
O501 Co476 1.967 . S
O501 C509 1.258 . S
O502 Co477 1.941 . S
O502 C509 1.266 . S
H503 C505 0.959 . S
H504 C505 0.961 . S
C505 C495 1.510 . S
C505 H503 0.959 . S
C505 H504 0.961 . S
C505 H506 0.960 . S
H506 C505 0.960 . S
H507 N487 0.862 . S
O508 Co476 1.920 . S
O508 C481 1.289 . S
C509 O501 1.258 . S
C509 O502 1.266 . S
Co510 O513 1.970 . S
Co510 N527 1.989 . S
Co510 O535 1.967 . S
Co510 O542 1.920 . S
Co511 O514 1.966 . S
Co511 N520 2.022 . S
Co511 N528 1.993 . S
Co511 O536 1.941 . S
C512 O513 1.261 . S
C512 O514 1.275 . S
O513 Co510 1.970 . S
O513 C512 1.261 . S
O514 Co511 1.966 . S
O514 C512 1.275 . S
C515 O516 1.182 1_565 S
C515 O542 1.289 . S
O516 C515 1.182 1_545 S
C517 C519 1.400 . S
C517 N520 1.351 . S
C517 C522 1.501 1_565 S
C518 C519 1.387 . S
C518 N521 1.341 . S
C519 C517 1.400 . S
C519 C518 1.387 . S
N520 Co511 2.022 . S
N520 C517 1.351 . S
N520 N521 1.365 . S
N521 C518 1.341 . S
N521 N520 1.365 . S
N521 H541 0.862 . S
C522 C517 1.501 1_545 S
C522 H523 0.961 . S
C522 H524 0.961 . S
C522 H525 0.960 . S
H523 C522 0.961 . S
H524 C522 0.961 . S
H525 C522 0.960 . S
C526 N527 1.342 . S
C526 C530 1.401 . S
C526 C531 1.499 . S
N527 Co510 1.989 . S
N527 C526 1.342 . S
N527 N528 1.388 . S
N528 Co511 1.993 . S
N528 N527 1.388 . S
N528 C529 1.346 . S
C529 N528 1.346 . S
C529 C530 1.396 . S
C529 C539 1.510 . S
C530 C526 1.401 . S
C530 C529 1.396 . S
C531 C526 1.499 . S
C531 H532 0.959 . S
C531 H533 0.960 . S
C531 H534 0.961 . S
H532 C531 0.959 . S
H533 C531 0.960 . S
H534 C531 0.961 . S
O535 Co510 1.967 . S
O535 C543 1.258 . S
O536 Co511 1.941 . S
O536 C543 1.266 . S
H537 C539 0.959 . S
H538 C539 0.961 . S
C539 C529 1.510 . S
C539 H537 0.959 . S
C539 H538 0.961 . S
C539 H540 0.960 . S
H540 C539 0.960 . S
H541 N521 0.862 . S
O542 Co510 1.920 . S
O542 C515 1.289 . S
C543 O535 1.258 . S
C543 O536 1.266 . S
Co544 O547 1.970 . S
Co544 N561 1.989 . S
Co544 O569 1.967 . S
Co544 O576 1.920 . S
Co545 O548 1.966 . S
Co545 N554 2.022 . S
Co545 N562 1.993 . S
Co545 O570 1.941 . S
C546 O547 1.258 . S
C546 O548 1.263 . S
O547 Co544 1.970 . S
O547 C546 1.258 . S
O548 Co545 1.966 . S
O548 C546 1.263 . S
C549 O550 1.235 . S
C549 O576 1.289 . S
O550 C549 1.235 . S
C551 C553 1.400 . S
C551 N554 1.351 . S
C551 C556 1.501 . S
C552 C553 1.387 . S
C552 N555 1.341 . S
C553 C551 1.400 . S
C553 C552 1.387 . S
N554 Co545 2.022 . S
N554 C551 1.351 . S
N554 N555 1.365 . S
N555 C552 1.341 . S
N555 N554 1.365 . S
N555 H575 0.862 . S
C556 C551 1.501 . S
C556 H557 0.961 . S
C556 H558 0.961 . S
C556 H559 0.960 . S
H557 C556 0.961 . S
H558 C556 0.961 . S
H559 C556 0.960 . S
C560 N561 1.342 . S
C560 C564 1.401 . S
C560 C565 1.499 . S
N561 Co544 1.989 . S
N561 C560 1.342 . S
N561 N562 1.388 . S
N562 Co545 1.993 . S
N562 N561 1.388 . S
N562 C563 1.346 . S
C563 N562 1.346 . S
C563 C564 1.396 . S
C563 C573 1.510 . S
C564 C560 1.401 . S
C564 C563 1.396 . S
C565 C560 1.499 . S
C565 H566 0.959 . S
C565 H567 0.960 . S
C565 H568 0.961 . S
H566 C565 0.959 . S
H567 C565 0.960 . S
H568 C565 0.961 . S
O569 Co544 1.967 . S
O569 C577 1.258 . S
O570 Co545 1.941 . S
O570 C577 1.266 . S
H571 C573 0.959 . S
H572 C573 0.961 . S
C573 C563 1.510 . S
C573 H571 0.959 . S
C573 H572 0.961 . S
C573 H574 0.960 . S
H574 C573 0.960 . S
H575 N555 0.862 . S
O576 Co544 1.920 . S
O576 C549 1.289 . S
C577 O569 1.258 . S
C577 O570 1.266 . S
Co578 O581 1.970 . S
Co578 N595 1.989 . S
Co578 O603 1.967 . S
Co578 O610 1.920 . S
Co579 O582 1.966 . S
Co579 N588 2.022 . S
Co579 N596 1.993 . S
Co579 O604 1.941 . S
C580 O581 1.258 . S
C580 O582 1.263 . S
O581 Co578 1.970 . S
O581 C580 1.258 . S
O582 Co579 1.966 . S
O582 C580 1.263 . S
C583 O584 1.235 . S
C583 O610 1.289 . S
O584 C583 1.235 . S
C585 C587 1.400 . S
C585 N588 1.351 . S
C585 C590 1.501 . S
C586 C587 1.387 . S
C586 N589 1.341 . S
C587 C585 1.400 . S
C587 C586 1.387 . S
N588 Co579 2.022 . S
N588 C585 1.351 . S
N588 N589 1.365 . S
N589 C586 1.341 . S
N589 N588 1.365 . S
N589 H609 0.862 . S
C590 C585 1.501 . S
C590 H591 0.961 . S
C590 H592 0.961 . S
C590 H593 0.960 . S
H591 C590 0.961 . S
H592 C590 0.961 . S
H593 C590 0.960 . S
C594 N595 1.342 . S
C594 C598 1.401 . S
C594 C599 1.499 . S
N595 Co578 1.989 . S
N595 C594 1.342 . S
N595 N596 1.388 . S
N596 Co579 1.993 . S
N596 N595 1.388 . S
N596 C597 1.346 . S
C597 N596 1.346 . S
C597 C598 1.396 . S
C597 C607 1.510 . S
C598 C594 1.401 . S
C598 C597 1.396 . S
C599 C594 1.499 . S
C599 H600 0.959 . S
C599 H601 0.960 . S
C599 H602 0.961 . S
H600 C599 0.959 . S
H601 C599 0.960 . S
H602 C599 0.961 . S
O603 Co578 1.967 . S
O603 C611 1.258 . S
O604 Co579 1.941 . S
O604 C611 1.266 . S
H605 C607 0.959 . S
H606 C607 0.961 . S
C607 C597 1.510 . S
C607 H605 0.959 . S
C607 H606 0.961 . S
C607 H608 0.960 . S
H608 C607 0.960 . S
H609 N589 0.862 . S
O610 Co578 1.920 . S
O610 C583 1.289 . S
C611 O603 1.258 . S
C611 O604 1.266 . S
Co612 O615 1.970 . S
Co612 N629 1.989 . S
Co612 O637 1.967 . S
Co612 O644 1.920 . S
Co613 O616 1.966 . S
Co613 N622 2.022 . S
Co613 N630 1.993 . S
Co613 O638 1.941 . S
C614 O615 1.258 . S
C614 O616 1.263 . S
O615 Co612 1.970 . S
O615 C614 1.258 . S
O616 Co613 1.966 . S
O616 C614 1.263 . S
C617 O618 1.235 . S
C617 O644 1.289 . S
O618 C617 1.235 . S
C619 C621 1.400 1_554 S
C619 N622 1.351 . S
C619 C624 1.501 . S
C620 C621 1.387 . S
C620 N623 1.341 1_556 S
C621 C619 1.400 1_556 S
C621 C620 1.387 . S
N622 Co613 2.022 . S
N622 C619 1.351 . S
N622 N623 1.365 . S
N623 C620 1.341 1_554 S
N623 N622 1.365 . S
N623 H643 0.862 . S
C624 C619 1.501 . S
C624 H625 0.961 . S
C624 H626 0.961 . S
C624 H627 0.960 . S
H625 C624 0.961 . S
H626 C624 0.961 . S
H627 C624 0.960 . S
C628 N629 1.342 . S
C628 C632 1.401 . S
C628 C633 1.499 . S
N629 Co612 1.989 . S
N629 C628 1.342 . S
N629 N630 1.388 . S
N630 Co613 1.993 . S
N630 N629 1.388 . S
N630 C631 1.346 . S
C631 N630 1.346 . S
C631 C632 1.396 . S
C631 C641 1.510 . S
C632 C628 1.401 . S
C632 C631 1.396 . S
C633 C628 1.499 . S
C633 H634 0.959 . S
C633 H635 0.960 . S
C633 H636 0.961 . S
H634 C633 0.959 . S
H635 C633 0.960 . S
H636 C633 0.961 . S
O637 Co612 1.967 . S
O637 C645 1.258 . S
O638 Co613 1.941 . S
O638 C645 1.266 . S
H639 C641 0.959 . S
H640 C641 0.961 . S
C641 C631 1.510 . S
C641 H639 0.959 . S
C641 H640 0.961 . S
C641 H642 0.960 . S
H642 C641 0.960 . S
H643 N623 0.862 . S
O644 Co612 1.920 . S
O644 C617 1.289 . S
C645 O637 1.258 . S
C645 O638 1.266 . S
Co646 O649 1.970 . S
Co646 N663 1.989 . S
Co646 O671 1.967 . S
Co646 O678 1.920 . S
Co647 O650 1.966 . S
Co647 N656 2.022 . S
Co647 N664 1.993 . S
Co647 O672 1.941 . S
C648 O649 1.258 . S
C648 O650 1.263 . S
O649 Co646 1.970 . S
O649 C648 1.258 . S
O650 Co647 1.966 . S
O650 C648 1.263 . S
C651 O652 1.235 . S
C651 O678 1.289 . S
O652 C651 1.235 . S
C653 C655 1.400 . S
C653 N656 1.351 . S
C653 C658 1.501 . S
C654 C655 1.387 . S
C654 N657 1.341 . S
C655 C653 1.400 . S
C655 C654 1.387 . S
N656 Co647 2.022 . S
N656 C653 1.351 . S
N656 N657 1.365 . S
N657 C654 1.341 . S
N657 N656 1.365 . S
N657 H677 0.862 . S
C658 C653 1.501 . S
C658 H659 0.961 . S
C658 H660 0.961 . S
C658 H661 0.960 . S
H659 C658 0.961 . S
H660 C658 0.961 . S
H661 C658 0.960 . S
C662 N663 1.342 . S
C662 C666 1.401 . S
C662 C667 1.499 . S
N663 Co646 1.989 . S
N663 C662 1.342 . S
N663 N664 1.388 . S
N664 Co647 1.993 . S
N664 N663 1.388 . S
N664 C665 1.346 . S
C665 N664 1.346 . S
C665 C666 1.396 . S
C665 C675 1.510 . S
C666 C662 1.401 . S
C666 C665 1.396 . S
C667 C662 1.499 . S
C667 H668 0.959 . S
C667 H669 0.960 . S
C667 H670 0.961 . S
H668 C667 0.959 . S
H669 C667 0.960 . S
H670 C667 0.961 . S
O671 Co646 1.967 . S
O671 C679 1.258 . S
O672 Co647 1.941 . S
O672 C679 1.266 . S
H673 C675 0.959 . S
H674 C675 0.961 . S
C675 C665 1.510 . S
C675 H673 0.959 . S
C675 H674 0.961 . S
C675 H676 0.960 . S
H676 C675 0.960 . S
H677 N657 0.862 . S
O678 Co646 1.920 . S
O678 C651 1.289 . S
C679 O671 1.258 . S
C679 O672 1.266 . S
Co680 O683 1.970 . S
Co680 N697 1.989 . S
Co680 O705 1.967 . S
Co680 O712 1.920 . S
Co681 O684 1.966 . S
Co681 N690 2.022 . S
Co681 N698 1.993 . S
Co681 O706 1.941 . S
C682 O683 1.258 . S
C682 O684 1.263 . S
O683 Co680 1.970 . S
O683 C682 1.258 . S
O684 Co681 1.966 . S
O684 C682 1.263 . S
C685 O686 1.235 . S
C685 O712 1.289 . S
O686 C685 1.235 . S
C687 C689 1.400 . S
C687 N690 1.351 . S
C687 C692 1.501 . S
C688 C689 1.387 . S
C688 N691 1.341 . S
C689 C687 1.400 . S
C689 C688 1.387 . S
N690 Co681 2.022 . S
N690 C687 1.351 . S
N690 N691 1.365 . S
N691 C688 1.341 . S
N691 N690 1.365 . S
N691 H711 0.862 . S
C692 C687 1.501 . S
C692 H693 0.961 . S
C692 H694 0.961 . S
C692 H695 0.960 . S
H693 C692 0.961 . S
H694 C692 0.961 . S
H695 C692 0.960 . S
C696 N697 1.342 . S
C696 C700 1.401 . S
C696 C701 1.499 . S
N697 Co680 1.989 . S
N697 C696 1.342 . S
N697 N698 1.388 . S
N698 Co681 1.993 . S
N698 N697 1.388 . S
N698 C699 1.346 . S
C699 N698 1.346 . S
C699 C700 1.396 . S
C699 C709 1.510 . S
C700 C696 1.401 . S
C700 C699 1.396 . S
C701 C696 1.499 . S
C701 H702 0.959 . S
C701 H703 0.960 . S
C701 H704 0.961 . S
H702 C701 0.959 . S
H703 C701 0.960 . S
H704 C701 0.961 . S
O705 Co680 1.967 . S
O705 C713 1.258 . S
O706 Co681 1.941 . S
O706 C713 1.266 . S
H707 C709 0.959 . S
H708 C709 0.961 . S
C709 C699 1.510 . S
C709 H707 0.959 . S
C709 H708 0.961 . S
C709 H710 0.960 . S
H710 C709 0.960 . S
H711 N691 0.862 . S
O712 Co680 1.920 . S
O712 C685 1.289 . S
C713 O705 1.258 . S
C713 O706 1.266 . S
Co714 O717 1.970 . S
Co714 N731 1.989 . S
Co714 O739 1.967 . S
Co714 O746 1.920 . S
Co715 O718 1.966 . S
Co715 N724 2.022 . S
Co715 N732 1.993 . S
Co715 O740 1.941 . S
C716 O717 1.258 . S
C716 O718 1.263 . S
O717 Co714 1.970 . S
O717 C716 1.258 . S
O718 Co715 1.966 . S
O718 C716 1.263 . S
C719 O720 1.235 . S
C719 O746 1.289 . S
O720 C719 1.235 . S
C721 C723 1.400 . S
C721 N724 1.351 . S
C721 C726 1.501 . S
C722 C723 1.387 . S
C722 N725 1.341 . S
C723 C721 1.400 . S
C723 C722 1.387 . S
N724 Co715 2.022 . S
N724 C721 1.351 . S
N724 N725 1.365 . S
N725 C722 1.341 . S
N725 N724 1.365 . S
N725 H745 0.862 . S
C726 C721 1.501 . S
C726 H727 0.961 . S
C726 H728 0.961 . S
C726 H729 0.960 . S
H727 C726 0.961 . S
H728 C726 0.961 . S
H729 C726 0.960 . S
C730 N731 1.342 . S
C730 C734 1.401 . S
C730 C735 1.499 . S
N731 Co714 1.989 . S
N731 C730 1.342 . S
N731 N732 1.388 . S
N732 Co715 1.993 . S
N732 N731 1.388 . S
N732 C733 1.346 . S
C733 N732 1.346 . S
C733 C734 1.396 . S
C733 C743 1.510 . S
C734 C730 1.401 . S
C734 C733 1.396 . S
C735 C730 1.499 . S
C735 H736 0.959 . S
C735 H737 0.960 . S
C735 H738 0.961 . S
H736 C735 0.959 . S
H737 C735 0.960 . S
H738 C735 0.961 . S
O739 Co714 1.967 . S
O739 C747 1.258 . S
O740 Co715 1.941 . S
O740 C747 1.266 . S
H741 C743 0.959 . S
H742 C743 0.961 . S
C743 C733 1.510 . S
C743 H741 0.959 . S
C743 H742 0.961 . S
C743 H744 0.960 . S
H744 C743 0.960 . S
H745 N725 0.862 . S
O746 Co714 1.920 . S
O746 C719 1.289 . S
C747 O739 1.258 . S
C747 O740 1.266 . S
Co748 O751 1.970 . S
Co748 N765 1.989 . S
Co748 O773 1.967 . S
Co748 O780 1.920 . S
Co749 O752 1.966 . S
Co749 N758 2.022 . S
Co749 N766 1.993 . S
Co749 O774 1.941 . S
C750 O751 1.258 . S
C750 O752 1.263 . S
O751 Co748 1.970 . S
O751 C750 1.258 . S
O752 Co749 1.966 . S
O752 C750 1.263 . S
C753 O754 1.235 . S
C753 O780 1.289 . S
O754 C753 1.235 . S
C755 C757 1.400 1_556 S
C755 N758 1.351 . S
C755 C760 1.501 . S
C756 C757 1.387 . S
C756 N759 1.341 1_554 S
C757 C755 1.400 1_554 S
C757 C756 1.387 . S
N758 Co749 2.022 . S
N758 C755 1.351 . S
N758 N759 1.365 . S
N759 C756 1.341 1_556 S
N759 N758 1.365 . S
N759 H779 0.862 . S
C760 C755 1.501 . S
C760 H761 0.961 . S
C760 H762 0.961 . S
C760 H763 0.960 . S
H761 C760 0.961 . S
H762 C760 0.961 . S
H763 C760 0.960 . S
C764 N765 1.342 . S
C764 C768 1.401 . S
C764 C769 1.499 . S
N765 Co748 1.989 . S
N765 C764 1.342 . S
N765 N766 1.388 . S
N766 Co749 1.993 . S
N766 N765 1.388 . S
N766 C767 1.346 . S
C767 N766 1.346 . S
C767 C768 1.396 . S
C767 C777 1.510 . S
C768 C764 1.401 . S
C768 C767 1.396 . S
C769 C764 1.499 . S
C769 H770 0.959 . S
C769 H771 0.960 . S
C769 H772 0.961 . S
H770 C769 0.959 . S
H771 C769 0.960 . S
H772 C769 0.961 . S
O773 Co748 1.967 . S
O773 C781 1.258 . S
O774 Co749 1.941 . S
O774 C781 1.266 . S
H775 C777 0.959 . S
H776 C777 0.961 . S
C777 C767 1.510 . S
C777 H775 0.959 . S
C777 H776 0.961 . S
C777 H778 0.960 . S
H778 C777 0.960 . S
H779 N759 0.862 . S
O780 Co748 1.920 . S
O780 C753 1.289 . S
C781 O773 1.258 . S
C781 O774 1.266 . S
Co782 O785 1.970 . S
Co782 N799 1.989 . S
Co782 O807 1.967 . S
Co782 O814 1.920 . S
Co783 O786 1.966 . S
Co783 N792 2.022 . S
Co783 N800 1.993 . S
Co783 O808 1.941 . S
C784 O785 1.258 . S
C784 O786 1.263 . S
O785 Co782 1.970 . S
O785 C784 1.258 . S
O786 Co783 1.966 . S
O786 C784 1.263 . S
C787 O788 1.235 . S
C787 O814 1.289 . S
O788 C787 1.235 . S
C789 C791 1.400 . S
C789 N792 1.351 . S
C789 C794 1.501 . S
C790 C791 1.387 . S
C790 N793 1.341 . S
C791 C789 1.400 . S
C791 C790 1.387 . S
N792 Co783 2.022 . S
N792 C789 1.351 . S
N792 N793 1.365 . S
N793 C790 1.341 . S
N793 N792 1.365 . S
N793 H813 0.862 . S
C794 C789 1.501 . S
C794 H795 0.961 . S
C794 H796 0.961 . S
C794 H797 0.960 . S
H795 C794 0.961 . S
H796 C794 0.961 . S
H797 C794 0.960 . S
C798 N799 1.342 . S
C798 C802 1.401 . S
C798 C803 1.499 . S
N799 Co782 1.989 . S
N799 C798 1.342 . S
N799 N800 1.388 . S
N800 Co783 1.993 . S
N800 N799 1.388 . S
N800 C801 1.346 . S
C801 N800 1.346 . S
C801 C802 1.396 . S
C801 C811 1.510 . S
C802 C798 1.401 . S
C802 C801 1.396 . S
C803 C798 1.499 . S
C803 H804 0.959 . S
C803 H805 0.960 . S
C803 H806 0.961 . S
H804 C803 0.959 . S
H805 C803 0.960 . S
H806 C803 0.961 . S
O807 Co782 1.967 . S
O807 C815 1.258 . S
O808 Co783 1.941 . S
O808 C815 1.266 . S
H809 C811 0.959 . S
H810 C811 0.961 . S
C811 C801 1.510 . S
C811 H809 0.959 . S
C811 H810 0.961 . S
C811 H812 0.960 . S
H812 C811 0.960 . S
H813 N793 0.862 . S
O814 Co782 1.920 . S
O814 C787 1.289 . S
C815 O807 1.258 . S
C815 O808 1.266 . S
Co816 O819 1.970 . S
Co816 N833 1.989 . S
Co816 O841 1.967 . S
Co816 O848 1.920 . S
Co817 O820 1.966 . S
Co817 N826 2.022 . S
Co817 N834 1.993 . S
Co817 O842 1.941 . S
C818 O819 1.258 . S
C818 O820 1.263 . S
O819 Co816 1.970 . S
O819 C818 1.258 . S
O820 Co817 1.966 . S
O820 C818 1.263 . S
C821 O822 1.235 . S
C821 O848 1.289 . S
O822 C821 1.235 . S
C823 C825 1.400 . S
C823 N826 1.351 . S
C823 C828 1.501 . S
C824 C825 1.387 . S
C824 N827 1.341 . S
C825 C823 1.400 . S
C825 C824 1.387 . S
N826 Co817 2.022 . S
N826 C823 1.351 . S
N826 N827 1.365 . S
N827 C824 1.341 . S
N827 N826 1.365 . S
N827 H847 0.862 . S
C828 C823 1.501 . S
C828 H829 0.961 . S
C828 H830 0.961 . S
C828 H831 0.960 . S
H829 C828 0.961 . S
H830 C828 0.961 . S
H831 C828 0.960 . S
C832 N833 1.342 . S
C832 C836 1.401 . S
C832 C837 1.499 . S
N833 Co816 1.989 . S
N833 C832 1.342 . S
N833 N834 1.388 . S
N834 Co817 1.993 . S
N834 N833 1.388 . S
N834 C835 1.346 . S
C835 N834 1.346 . S
C835 C836 1.396 . S
C835 C845 1.510 . S
C836 C832 1.401 . S
C836 C835 1.396 . S
C837 C832 1.499 . S
C837 H838 0.959 . S
C837 H839 0.960 . S
C837 H840 0.961 . S
H838 C837 0.959 . S
H839 C837 0.960 . S
H840 C837 0.961 . S
O841 Co816 1.967 . S
O841 C849 1.258 . S
O842 Co817 1.941 . S
O842 C849 1.266 . S
H843 C845 0.959 . S
H844 C845 0.961 . S
C845 C835 1.510 . S
C845 H843 0.959 . S
C845 H844 0.961 . S
C845 H846 0.960 . S
H846 C845 0.960 . S
H847 N827 0.862 . S
O848 Co816 1.920 . S
O848 C821 1.289 . S
C849 O841 1.258 . S
C849 O842 1.266 . S
Co850 O853 1.970 . S
Co850 N867 1.989 . S
Co850 O875 1.967 . S
Co850 O882 1.920 . S
Co851 O854 1.966 . S
Co851 N860 2.022 . S
Co851 N868 1.993 . S
Co851 O876 1.941 . S
C852 O853 1.258 . S
C852 O854 1.263 . S
O853 Co850 1.970 . S
O853 C852 1.258 . S
O854 Co851 1.966 . S
O854 C852 1.263 . S
C855 O856 1.235 . S
C855 O882 1.289 . S
O856 C855 1.235 . S
C857 C859 1.400 . S
C857 N860 1.351 . S
C857 C862 1.501 . S
C858 C859 1.387 . S
C858 N861 1.341 . S
C859 C857 1.400 . S
C859 C858 1.387 . S
N860 Co851 2.022 . S
N860 C857 1.351 . S
N860 N861 1.365 . S
N861 C858 1.341 . S
N861 N860 1.365 . S
N861 H881 0.862 . S
C862 C857 1.501 . S
C862 H863 0.961 . S
C862 H864 0.961 . S
C862 H865 0.960 . S
H863 C862 0.961 . S
H864 C862 0.961 . S
H865 C862 0.960 . S
C866 N867 1.342 . S
C866 C870 1.401 . S
C866 C871 1.499 . S
N867 Co850 1.989 . S
N867 C866 1.342 . S
N867 N868 1.388 . S
N868 Co851 1.993 . S
N868 N867 1.388 . S
N868 C869 1.346 . S
C869 N868 1.346 . S
C869 C870 1.396 . S
C869 C879 1.510 . S
C870 C866 1.401 . S
C870 C869 1.396 . S
C871 C866 1.499 . S
C871 H872 0.959 . S
C871 H873 0.960 . S
C871 H874 0.961 . S
H872 C871 0.959 . S
H873 C871 0.960 . S
H874 C871 0.961 . S
O875 Co850 1.967 . S
O875 C883 1.258 . S
O876 Co851 1.941 . S
O876 C883 1.266 . S
H877 C879 0.959 . S
H878 C879 0.961 . S
C879 C869 1.510 . S
C879 H877 0.959 . S
C879 H878 0.961 . S
C879 H880 0.960 . S
H880 C879 0.960 . S
H881 N861 0.862 . S
O882 Co850 1.920 . S
O882 C855 1.289 . S
C883 O875 1.258 . S
C883 O876 1.266 . S
Co884 O887 1.970 . S
Co884 N901 1.989 . S
Co884 O909 1.967 . S
Co884 O916 1.920 . S
Co885 O888 1.966 . S
Co885 N894 2.022 . S
Co885 N902 1.993 . S
Co885 O910 1.941 . S
C886 O887 1.258 . S
C886 O888 1.263 . S
O887 Co884 1.970 . S
O887 C886 1.258 . S
O888 Co885 1.966 . S
O888 C886 1.263 . S
C889 O890 1.235 . S
C889 O916 1.289 . S
O890 C889 1.235 . S
C891 C893 1.400 1_556 S
C891 N894 1.351 . S
C891 C896 1.501 . S
C892 C893 1.387 . S
C892 N895 1.341 1_554 S
C893 C891 1.400 1_554 S
C893 C892 1.387 . S
N894 Co885 2.022 . S
N894 C891 1.351 . S
N894 N895 1.365 . S
N895 C892 1.341 1_556 S
N895 N894 1.365 . S
N895 H915 0.862 . S
C896 C891 1.501 . S
C896 H897 0.961 . S
C896 H898 0.961 . S
C896 H899 0.960 . S
H897 C896 0.961 . S
H898 C896 0.961 . S
H899 C896 0.960 . S
C900 N901 1.342 . S
C900 C904 1.401 . S
C900 C905 1.499 . S
N901 Co884 1.989 . S
N901 C900 1.342 . S
N901 N902 1.388 . S
N902 Co885 1.993 . S
N902 N901 1.388 . S
N902 C903 1.346 . S
C903 N902 1.346 . S
C903 C904 1.396 . S
C903 C913 1.510 . S
C904 C900 1.401 . S
C904 C903 1.396 . S
C905 C900 1.499 . S
C905 H906 0.959 . S
C905 H907 0.960 . S
C905 H908 0.961 . S
H906 C905 0.959 . S
H907 C905 0.960 . S
H908 C905 0.961 . S
O909 Co884 1.967 . S
O909 C917 1.258 . S
O910 Co885 1.941 . S
O910 C917 1.266 . S
H911 C913 0.959 . S
H912 C913 0.961 . S
C913 C903 1.510 . S
C913 H911 0.959 . S
C913 H912 0.961 . S
C913 H914 0.960 . S
H914 C913 0.960 . S
H915 N895 0.862 . S
O916 Co884 1.920 . S
O916 C889 1.289 . S
C917 O909 1.258 . S
C917 O910 1.266 . S
Co918 O921 1.970 . S
Co918 N935 1.989 . S
Co918 O943 1.967 . S
Co918 O950 1.920 . S
Co919 O922 1.966 . S
Co919 N928 2.022 . S
Co919 N936 1.993 . S
Co919 O944 1.941 . S
C920 O921 1.258 . S
C920 O922 1.263 . S
O921 Co918 1.970 . S
O921 C920 1.258 . S
O922 Co919 1.966 . S
O922 C920 1.263 . S
C923 O924 1.235 . S
C923 O950 1.289 . S
O924 C923 1.235 . S
C925 C927 1.400 . S
C925 N928 1.351 . S
C925 C930 1.501 . S
C926 C927 1.387 . S
C926 N929 1.341 . S
C927 C925 1.400 . S
C927 C926 1.387 . S
N928 Co919 2.022 . S
N928 C925 1.351 . S
N928 N929 1.365 . S
N929 C926 1.341 . S
N929 N928 1.365 . S
N929 H949 0.862 . S
C930 C925 1.501 . S
C930 H931 0.961 . S
C930 H932 0.961 . S
C930 H933 0.960 . S
H931 C930 0.961 . S
H932 C930 0.961 . S
H933 C930 0.960 . S
C934 N935 1.342 . S
C934 C938 1.401 . S
C934 C939 1.499 . S
N935 Co918 1.989 . S
N935 C934 1.342 . S
N935 N936 1.388 . S
N936 Co919 1.993 . S
N936 N935 1.388 . S
N936 C937 1.346 . S
C937 N936 1.346 . S
C937 C938 1.396 . S
C937 C947 1.510 . S
C938 C934 1.401 . S
C938 C937 1.396 . S
C939 C934 1.499 . S
C939 H940 0.959 . S
C939 H941 0.960 . S
C939 H942 0.961 . S
H940 C939 0.959 . S
H941 C939 0.960 . S
H942 C939 0.961 . S
O943 Co918 1.967 . S
O943 C951 1.258 . S
O944 Co919 1.941 . S
O944 C951 1.266 . S
H945 C947 0.959 . S
H946 C947 0.961 . S
C947 C937 1.510 . S
C947 H945 0.959 . S
C947 H946 0.961 . S
C947 H948 0.960 . S
H948 C947 0.960 . S
H949 N929 0.862 . S
O950 Co918 1.920 . S
O950 C923 1.289 . S
C951 O943 1.258 . S
C951 O944 1.266 . S
Co952 O955 1.970 . S
Co952 N969 1.989 . S
Co952 O977 1.967 . S
Co952 O984 1.920 . S
Co953 O956 1.966 . S
Co953 N962 2.022 . S
Co953 N970 1.993 . S
Co953 O978 1.941 . S
C954 O955 1.258 . S
C954 O956 1.263 . S
O955 Co952 1.970 . S
O955 C954 1.258 . S
O956 Co953 1.966 . S
O956 C954 1.263 . S
C957 O958 1.235 . S
C957 O984 1.289 . S
O958 C957 1.235 . S
C959 C961 1.400 . S
C959 N962 1.351 . S
C959 C964 1.501 . S
C960 C961 1.387 . S
C960 N963 1.341 . S
C961 C959 1.400 . S
C961 C960 1.387 . S
N962 Co953 2.022 . S
N962 C959 1.351 . S
N962 N963 1.365 . S
N963 C960 1.341 . S
N963 N962 1.365 . S
N963 H983 0.862 . S
C964 C959 1.501 . S
C964 H965 0.961 . S
C964 H966 0.961 . S
C964 H967 0.960 . S
H965 C964 0.961 . S
H966 C964 0.961 . S
H967 C964 0.960 . S
C968 N969 1.342 . S
C968 C972 1.401 . S
C968 C973 1.499 . S
N969 Co952 1.989 . S
N969 C968 1.342 . S
N969 N970 1.388 . S
N970 Co953 1.993 . S
N970 N969 1.388 . S
N970 C971 1.346 . S
C971 N970 1.346 . S
C971 C972 1.396 . S
C971 C981 1.510 . S
C972 C968 1.401 . S
C972 C971 1.396 . S
C973 C968 1.499 . S
C973 H974 0.959 . S
C973 H975 0.960 . S
C973 H976 0.961 . S
H974 C973 0.959 . S
H975 C973 0.960 . S
H976 C973 0.961 . S
O977 Co952 1.967 . S
O977 C985 1.258 . S
O978 Co953 1.941 . S
O978 C985 1.266 . S
H979 C981 0.959 . S
H980 C981 0.961 . S
C981 C971 1.510 . S
C981 H979 0.959 . S
C981 H980 0.961 . S
C981 H982 0.960 . S
H982 C981 0.960 . S
H983 N963 0.862 . S
O984 Co952 1.920 . S
O984 C957 1.289 . S
C985 O977 1.258 . S
C985 O978 1.266 . S
Co986 O989 1.970 . S
Co986 N1003 1.989 . S
Co986 O1011 1.967 . S
Co986 O1018 1.920 . S
Co987 O990 1.966 . S
Co987 N996 2.022 . S
Co987 N1004 1.993 . S
Co987 O1012 1.941 . S
C988 O989 1.258 . S
C988 O990 1.263 . S
O989 Co986 1.970 . S
O989 C988 1.258 . S
O990 Co987 1.966 . S
O990 C988 1.263 . S
C991 O992 1.235 . S
C991 O1018 1.289 . S
O992 C991 1.235 . S
C993 C995 1.400 . S
C993 N996 1.351 . S
C993 C998 1.501 . S
C994 C995 1.387 . S
C994 N997 1.341 . S
C995 C993 1.400 . S
C995 C994 1.387 . S
N996 Co987 2.022 . S
N996 C993 1.351 . S
N996 N997 1.365 . S
N997 C994 1.341 . S
N997 N996 1.365 . S
N997 H1017 0.862 . S
C998 C993 1.501 . S
C998 H999 0.961 . S
C998 H1000 0.961 . S
C998 H1001 0.960 . S
H999 C998 0.961 . S
H1000 C998 0.961 . S
H1001 C998 0.960 . S
C1002 N1003 1.342 . S
C1002 C1006 1.401 . S
C1002 C1007 1.499 . S
N1003 Co986 1.989 . S
N1003 C1002 1.342 . S
N1003 N1004 1.388 . S
N1004 Co987 1.993 . S
N1004 N1003 1.388 . S
N1004 C1005 1.346 . S
C1005 N1004 1.346 . S
C1005 C1006 1.396 . S
C1005 C1015 1.510 . S
C1006 C1002 1.401 . S
C1006 C1005 1.396 . S
C1007 C1002 1.499 . S
C1007 H1008 0.959 . S
C1007 H1009 0.960 . S
C1007 H1010 0.961 . S
H1008 C1007 0.959 . S
H1009 C1007 0.960 . S
H1010 C1007 0.961 . S
O1011 Co986 1.967 . S
O1011 C1019 1.258 . S
O1012 Co987 1.941 . S
O1012 C1019 1.266 . S
H1013 C1015 0.959 . S
H1014 C1015 0.961 . S
C1015 C1005 1.510 . S
C1015 H1013 0.959 . S
C1015 H1014 0.961 . S
C1015 H1016 0.960 . S
H1016 C1015 0.960 . S
H1017 N997 0.862 . S
O1018 Co986 1.920 . S
O1018 C991 1.289 . S
C1019 O1011 1.258 . S
C1019 O1012 1.266 . S
Co1020 O1023 1.970 . S
Co1020 N1037 1.989 . S
Co1020 O1045 1.967 . S
Co1020 O1052 1.920 . S
Co1021 O1024 1.966 . S
Co1021 N1030 2.022 . S
Co1021 N1038 1.993 . S
Co1021 O1046 1.941 . S
C1022 O1023 1.258 . S
C1022 O1024 1.263 . S
O1023 Co1020 1.970 . S
O1023 C1022 1.258 . S
O1024 Co1021 1.966 . S
O1024 C1022 1.263 . S
C1025 O1026 1.235 . S
C1025 O1052 1.289 . S
O1026 C1025 1.235 . S
C1027 C1029 1.400 1_554 S
C1027 N1030 1.351 . S
C1027 C1032 1.501 . S
C1028 C1029 1.387 . S
C1028 N1031 1.341 1_556 S
C1029 C1027 1.400 1_556 S
C1029 C1028 1.387 . S
N1030 Co1021 2.022 . S
N1030 C1027 1.351 . S
N1030 N1031 1.365 . S
N1031 C1028 1.341 1_554 S
N1031 N1030 1.365 . S
N1031 H1051 0.862 . S
C1032 C1027 1.501 . S
C1032 H1033 0.961 . S
C1032 H1034 0.961 . S
C1032 H1035 0.960 . S
H1033 C1032 0.961 . S
H1034 C1032 0.961 . S
H1035 C1032 0.960 . S
C1036 N1037 1.342 . S
C1036 C1040 1.401 . S
C1036 C1041 1.499 . S
N1037 Co1020 1.989 . S
N1037 C1036 1.342 . S
N1037 N1038 1.388 . S
N1038 Co1021 1.993 . S
N1038 N1037 1.388 . S
N1038 C1039 1.346 . S
C1039 N1038 1.346 . S
C1039 C1040 1.396 . S
C1039 C1049 1.510 . S
C1040 C1036 1.401 . S
C1040 C1039 1.396 . S
C1041 C1036 1.499 . S
C1041 H1042 0.959 . S
C1041 H1043 0.960 . S
C1041 H1044 0.961 . S
H1042 C1041 0.959 . S
H1043 C1041 0.960 . S
H1044 C1041 0.961 . S
O1045 Co1020 1.967 . S
O1045 C1053 1.258 . S
O1046 Co1021 1.941 . S
O1046 C1053 1.266 . S
H1047 C1049 0.959 . S
H1048 C1049 0.961 . S
C1049 C1039 1.510 . S
C1049 H1047 0.959 . S
C1049 H1048 0.961 . S
C1049 H1050 0.960 . S
H1050 C1049 0.960 . S
H1051 N1031 0.862 . S
O1052 Co1020 1.920 . S
O1052 C1025 1.289 . S
C1053 O1045 1.258 . S
C1053 O1046 1.266 . S
Co1054 O1057 1.970 . S
Co1054 N1071 1.989 . S
Co1054 O1079 1.967 . S
Co1054 O1086 1.920 . S
Co1055 O1058 1.966 . S
Co1055 N1064 2.022 . S
Co1055 N1072 1.993 . S
Co1055 O1080 1.941 . S
C1056 O1057 1.258 . S
C1056 O1058 1.263 . S
O1057 Co1054 1.970 . S
O1057 C1056 1.258 . S
O1058 Co1055 1.966 . S
O1058 C1056 1.263 . S
C1059 O1060 1.235 . S
C1059 O1086 1.289 . S
O1060 C1059 1.235 . S
C1061 C1063 1.400 . S
C1061 N1064 1.351 . S
C1061 C1066 1.501 . S
C1062 C1063 1.387 . S
C1062 N1065 1.341 . S
C1063 C1061 1.400 . S
C1063 C1062 1.387 . S
N1064 Co1055 2.022 . S
N1064 C1061 1.351 . S
N1064 N1065 1.365 . S
N1065 C1062 1.341 . S
N1065 N1064 1.365 . S
N1065 H1085 0.862 . S
C1066 C1061 1.501 . S
C1066 H1067 0.961 . S
C1066 H1068 0.961 . S
C1066 H1069 0.960 . S
H1067 C1066 0.961 . S
H1068 C1066 0.961 . S
H1069 C1066 0.960 . S
C1070 N1071 1.342 . S
C1070 C1074 1.401 . S
C1070 C1075 1.499 . S
N1071 Co1054 1.989 . S
N1071 C1070 1.342 . S
N1071 N1072 1.388 . S
N1072 Co1055 1.993 . S
N1072 N1071 1.388 . S
N1072 C1073 1.346 . S
C1073 N1072 1.346 . S
C1073 C1074 1.396 . S
C1073 C1083 1.510 . S
C1074 C1070 1.401 . S
C1074 C1073 1.396 . S
C1075 C1070 1.499 . S
C1075 H1076 0.959 . S
C1075 H1077 0.960 . S
C1075 H1078 0.961 . S
H1076 C1075 0.959 . S
H1077 C1075 0.960 . S
H1078 C1075 0.961 . S
O1079 Co1054 1.967 . S
O1079 C1087 1.258 . S
O1080 Co1055 1.941 . S
O1080 C1087 1.266 . S
H1081 C1083 0.959 . S
H1082 C1083 0.961 . S
C1083 C1073 1.510 . S
C1083 H1081 0.959 . S
C1083 H1082 0.961 . S
C1083 H1084 0.960 . S
H1084 C1083 0.960 . S
H1085 N1065 0.862 . S
O1086 Co1054 1.920 . S
O1086 C1059 1.289 . S
C1087 O1079 1.258 . S
C1087 O1080 1.266 . S
C1088 C1089 1.349 . S
C1088 C1090 1.336 . S
C1088 H1113 0.950 . S
C1089 C1088 1.349 . S
C1089 C1105 1.349 1_565 S
C1090 C1088 1.336 . S
C1090 C1109 1.415 1_565 S
C1090 H1114 0.954 . S
C1091 C1108 1.574 . S
C1091 C1110 1.368 . S
C1091 H1115 0.949 . S
H1092 C1096 0.949 . S
C1093 C1094 1.349 . S
C1093 C1095 1.327 . S
C1093 H1116 0.950 . S
C1094 C1093 1.349 . S
C1094 C1106 1.349 . S
C1095 C1093 1.327 . S
C1095 C1111 1.429 . S
C1095 H1117 0.950 . S
C1096 H1092 0.949 . S
C1096 C1104 1.574 . S
C1096 C1112 1.368 . S
H1097 C1105 0.950 . S
H1098 C1103 0.950 . S
H1099 C1104 0.949 . S
H1100 C1106 0.950 . S
H1101 C1107 0.950 . S
H1102 C1108 0.949 . S
C1103 H1098 0.950 . S
C1103 C1105 1.327 . S
C1103 C1109 1.429 . S
C1104 C1096 1.574 . S
C1104 H1099 0.949 . S
C1104 C1110 1.368 . S
C1105 C1089 1.349 1_545 S
C1105 H1097 0.950 . S
C1105 C1103 1.327 . S
C1106 C1094 1.349 . S
C1106 H1100 0.950 . S
C1106 C1107 1.327 . S
C1107 H1101 0.950 . S
C1107 C1106 1.327 . S
C1107 C1111 1.429 . S
C1108 C1091 1.574 . S
C1108 H1102 0.949 . S
C1108 C1112 1.368 . S
C1109 C1090 1.415 1_545 S
C1109 C1103 1.429 . S
C1109 C1110 1.523 . S
C1110 C1091 1.368 . S
C1110 C1104 1.368 . S
C1110 C1109 1.523 . S
C1111 C1095 1.429 . S
C1111 C1107 1.429 . S
C1111 C1112 1.523 . S
C1112 C1096 1.368 . S
C1112 C1108 1.368 . S
C1112 C1111 1.523 . S
H1113 C1088 0.950 . S
H1114 C1090 0.954 . S
H1115 C1091 0.949 . S
H1116 C1093 0.950 . S
H1117 C1095 0.950 . S
C1118 C1119 1.349 . S
C1118 C1120 1.327 . S
C1118 H1143 0.950 . S
C1119 C1118 1.349 . S
C1119 C1135 1.349 . S
C1120 C1118 1.327 . S
C1120 C1139 1.429 . S
C1120 H1144 0.950 . S
C1121 C1138 1.574 . S
C1121 C1140 1.368 . S
C1121 H1145 0.949 . S
H1122 C1126 0.949 . S
C1123 C1124 1.349 . S
C1123 C1125 1.327 . S
C1123 H1146 0.950 . S
C1124 C1123 1.349 . S
C1124 C1136 1.349 . S
C1125 C1123 1.327 . S
C1125 C1141 1.429 . S
C1125 H1147 0.950 . S
C1126 H1122 0.949 . S
C1126 C1134 1.574 . S
C1126 C1142 1.368 . S
H1127 C1135 0.950 . S
H1128 C1133 0.950 . S
H1129 C1134 0.949 . S
H1130 C1136 0.950 . S
H1131 C1137 0.950 . S
H1132 C1138 0.949 . S
C1133 H1128 0.950 . S
C1133 C1135 1.327 . S
C1133 C1139 1.429 . S
C1134 C1126 1.574 . S
C1134 H1129 0.949 . S
C1134 C1140 1.368 . S
C1135 C1119 1.349 . S
C1135 H1127 0.950 . S
C1135 C1133 1.327 . S
C1136 C1124 1.349 . S
C1136 H1130 0.950 . S
C1136 C1137 1.327 . S
C1137 H1131 0.950 . S
C1137 C1136 1.327 . S
C1137 C1141 1.429 . S
C1138 C1121 1.574 . S
C1138 H1132 0.949 . S
C1138 C1142 1.368 . S
C1139 C1120 1.429 . S
C1139 C1133 1.429 . S
C1139 C1140 1.523 . S
C1140 C1121 1.368 . S
C1140 C1134 1.368 . S
C1140 C1139 1.523 . S
C1141 C1125 1.429 . S
C1141 C1137 1.429 . S
C1141 C1142 1.523 . S
C1142 C1126 1.368 . S
C1142 C1138 1.368 . S
C1142 C1141 1.523 . S
H1143 C1118 0.950 . S
H1144 C1120 0.950 . S
H1145 C1121 0.949 . S
H1146 C1123 0.950 . S
H1147 C1125 0.950 . S
C1148 C1149 1.349 . S
C1148 C1150 1.327 . S
C1148 H1173 0.950 . S
C1149 C1148 1.349 . S
C1149 C1165 1.349 . S
C1150 C1148 1.327 . S
C1150 C1169 1.429 . S
C1150 H1174 0.950 . S
C1151 C1168 1.574 . S
C1151 C1170 1.368 . S
C1151 H1175 0.949 . S
H1152 C1156 0.949 . S
C1153 C1154 1.349 1_565 S
C1153 C1155 1.327 . S
C1153 H1176 0.950 . S
C1154 C1153 1.349 1_545 S
C1154 C1166 1.349 . S
C1155 C1153 1.327 . S
C1155 C1171 1.429 . S
C1155 H1177 0.950 . S
C1156 H1152 0.949 . S
C1156 C1164 1.574 . S
C1156 C1172 1.368 . S
H1157 C1165 0.950 . S
H1158 C1163 0.950 . S
H1159 C1164 0.949 . S
H1160 C1166 0.950 . S
H1161 C1167 0.957 . S
H1162 C1168 0.949 . S
C1163 H1158 0.950 . S
C1163 C1165 1.327 . S
C1163 C1169 1.429 . S
C1164 C1156 1.574 . S
C1164 H1159 0.949 . S
C1164 C1170 1.368 . S
C1165 C1149 1.349 . S
C1165 H1157 0.950 . S
C1165 C1163 1.327 . S
C1166 C1154 1.349 . S
C1166 H1160 0.950 . S
C1166 C1167 1.342 . S
C1167 H1161 0.957 . S
C1167 C1166 1.342 . S
C1167 C1171 1.407 1_545 S
C1168 C1151 1.574 . S
C1168 H1162 0.949 . S
C1168 C1172 1.368 . S
C1169 C1150 1.429 . S
C1169 C1163 1.429 . S
C1169 C1170 1.523 . S
C1170 C1151 1.368 . S
C1170 C1164 1.368 . S
C1170 C1169 1.523 . S
C1171 C1155 1.429 . S
C1171 C1167 1.407 1_565 S
C1171 C1172 1.523 . S
C1172 C1156 1.368 . S
C1172 C1168 1.368 . S
C1172 C1171 1.523 . S
H1173 C1148 0.950 . S
H1174 C1150 0.950 . S
H1175 C1151 0.949 . S
H1176 C1153 0.950 . S
H1177 C1155 0.950 . S
C1178 C1179 1.349 . S
C1178 C1180 1.327 . S
C1178 H1203 0.950 . S
C1179 C1178 1.349 . S
C1179 C1195 1.349 . S
C1180 C1178 1.327 . S
C1180 C1199 1.429 . S
C1180 H1204 0.950 . S
C1181 C1198 1.574 . S
C1181 C1200 1.368 . S
C1181 H1205 0.949 . S
H1182 C1186 0.949 . S
C1183 C1184 1.349 . S
C1183 C1185 1.327 . S
C1183 H1206 0.950 . S
C1184 C1183 1.349 . S
C1184 C1196 1.349 . S
C1185 C1183 1.327 . S
C1185 C1201 1.429 . S
C1185 H1207 0.950 . S
C1186 H1182 0.949 . S
C1186 C1194 1.574 . S
C1186 C1202 1.368 . S
H1187 C1195 0.950 . S
H1188 C1193 0.950 . S
H1189 C1194 0.949 . S
H1190 C1196 0.950 . S
H1191 C1197 0.950 . S
H1192 C1198 0.949 . S
C1193 H1188 0.950 . S
C1193 C1195 1.327 . S
C1193 C1199 1.429 . S
C1194 C1186 1.574 . S
C1194 H1189 0.949 . S
C1194 C1200 1.368 . S
C1195 C1179 1.349 . S
C1195 H1187 0.950 . S
C1195 C1193 1.327 . S
C1196 C1184 1.349 . S
C1196 H1190 0.950 . S
C1196 C1197 1.327 . S
C1197 H1191 0.950 . S
C1197 C1196 1.327 . S
C1197 C1201 1.429 . S
C1198 C1181 1.574 . S
C1198 H1192 0.949 . S
C1198 C1202 1.368 . S
C1199 C1180 1.429 . S
C1199 C1193 1.429 . S
C1199 C1200 1.523 . S
C1200 C1181 1.368 . S
C1200 C1194 1.368 . S
C1200 C1199 1.523 . S
C1201 C1185 1.429 . S
C1201 C1197 1.429 . S
C1201 C1202 1.523 . S
C1202 C1186 1.368 . S
C1202 C1198 1.368 . S
C1202 C1201 1.523 . S
H1203 C1178 0.950 . S
H1204 C1180 0.950 . S
H1205 C1181 0.949 . S
H1206 C1183 0.950 . S
H1207 C1185 0.950 . S
C1208 C1209 1.349 . S
C1208 C1210 1.327 . S
C1208 H1233 0.950 . S
C1209 C1208 1.349 . S
C1209 C1225 1.349 . S
C1210 C1208 1.327 . S
C1210 C1229 1.429 . S
C1210 H1234 0.950 . S
C1211 C1228 1.574 . S
C1211 C1230 1.368 . S
C1211 H1235 0.949 . S
H1212 C1216 0.949 . S
C1213 C1214 1.349 . S
C1213 C1215 1.306 1_545 S
C1213 H1236 0.950 . S
C1214 C1213 1.349 . S
C1214 C1226 1.349 1_545 S
C1215 C1213 1.306 1_565 S
C1215 C1231 1.459 . S
C1215 H1237 0.941 1_565 S
C1216 H1212 0.949 . S
C1216 C1224 1.574 . S
C1216 C1232 1.368 . S
H1217 C1225 0.950 . S
H1218 C1223 0.950 . S
H1219 C1224 0.949 . S
H1220 C1226 0.950 . S
H1221 C1227 0.950 . S
H1222 C1228 0.949 . S
C1223 H1218 0.950 . S
C1223 C1225 1.327 . S
C1223 C1229 1.429 . S
C1224 C1216 1.574 . S
C1224 H1219 0.949 . S
C1224 C1230 1.368 . S
C1225 C1209 1.349 . S
C1225 H1217 0.950 . S
C1225 C1223 1.327 . S
C1226 C1214 1.349 1_565 S
C1226 H1220 0.950 . S
C1226 C1227 1.327 . S
C1227 H1221 0.950 . S
C1227 C1226 1.327 . S
C1227 C1231 1.429 . S
C1228 C1211 1.574 . S
C1228 H1222 0.949 . S
C1228 C1232 1.368 . S
C1229 C1210 1.429 . S
C1229 C1223 1.429 . S
C1229 C1230 1.523 . S
C1230 C1211 1.368 . S
C1230 C1224 1.368 . S
C1230 C1229 1.523 . S
C1231 C1215 1.459 . S
C1231 C1227 1.429 . S
C1231 C1232 1.523 . S
C1232 C1216 1.368 . S
C1232 C1228 1.368 . S
C1232 C1231 1.523 . S
H1233 C1208 0.950 . S
H1234 C1210 0.950 . S
H1235 C1211 0.949 . S
H1236 C1213 0.950 . S
H1237 C1215 0.941 1_545 S
C1238 C1239 1.349 . S
C1238 C1240 1.327 . S
C1238 H1263 0.950 . S
C1239 C1238 1.349 . S
C1239 C1255 1.349 . S
C1240 C1238 1.327 . S
C1240 C1259 1.429 . S
C1240 H1264 0.950 . S
C1241 C1258 1.574 . S
C1241 C1260 1.368 . S
C1241 H1265 0.949 . S
H1242 C1246 0.949 . S
C1243 C1244 1.349 . S
C1243 C1245 1.327 . S
C1243 H1266 0.950 . S
C1244 C1243 1.349 . S
C1244 C1256 1.349 . S
C1245 C1243 1.327 . S
C1245 C1261 1.429 . S
C1245 H1267 0.950 . S
C1246 H1242 0.949 . S
C1246 C1254 1.574 . S
C1246 C1262 1.368 . S
H1247 C1255 0.950 . S
H1248 C1253 0.950 . S
H1249 C1254 0.949 . S
H1250 C1256 0.950 . S
H1251 C1257 0.950 . S
H1252 C1258 0.949 . S
C1253 H1248 0.950 . S
C1253 C1255 1.327 . S
C1253 C1259 1.429 . S
C1254 C1246 1.574 . S
C1254 H1249 0.949 . S
C1254 C1260 1.368 . S
C1255 C1239 1.349 . S
C1255 H1247 0.950 . S
C1255 C1253 1.327 . S
C1256 C1244 1.349 . S
C1256 H1250 0.950 . S
C1256 C1257 1.327 . S
C1257 H1251 0.950 . S
C1257 C1256 1.327 . S
C1257 C1261 1.429 . S
C1258 C1241 1.574 . S
C1258 H1252 0.949 . S
C1258 C1262 1.368 . S
C1259 C1240 1.429 . S
C1259 C1253 1.429 . S
C1259 C1260 1.523 . S
C1260 C1241 1.368 . S
C1260 C1254 1.368 . S
C1260 C1259 1.523 . S
C1261 C1245 1.429 . S
C1261 C1257 1.429 . S
C1261 C1262 1.523 . S
C1262 C1246 1.368 . S
C1262 C1258 1.368 . S
C1262 C1261 1.523 . S
H1263 C1238 0.950 . S
H1264 C1240 0.950 . S
H1265 C1241 0.949 . S
H1266 C1243 0.950 . S
H1267 C1245 0.950 . S
C1268 C1269 1.349 . S
C1268 C1270 1.327 . S
C1268 H1293 0.950 . S
C1269 C1268 1.349 . S
C1269 C1285 1.349 . S
C1270 C1268 1.327 . S
C1270 C1289 1.429 . S
C1270 H1294 0.950 . S
C1271 C1288 1.574 . S
C1271 C1290 1.368 . S
C1271 H1295 0.949 . S
H1272 C1276 0.949 . S
C1273 C1274 1.349 . S
C1273 C1275 1.327 1_565 S
C1273 H1296 0.950 . S
C1274 C1273 1.349 . S
C1274 C1286 1.349 1_565 S
C1275 C1273 1.327 1_545 S
C1275 C1291 1.429 . S
C1275 H1297 0.950 . S
C1276 H1272 0.949 . S
C1276 C1284 1.574 . S
C1276 C1292 1.368 . S
H1277 C1285 0.950 . S
H1278 C1283 0.950 . S
H1279 C1284 0.949 . S
H1280 C1286 0.950 . S
H1281 C1287 0.950 . S
H1282 C1288 0.949 . S
C1283 H1278 0.950 . S
C1283 C1285 1.327 . S
C1283 C1289 1.429 . S
C1284 C1276 1.574 . S
C1284 H1279 0.949 . S
C1284 C1290 1.368 . S
C1285 C1269 1.349 . S
C1285 H1277 0.950 . S
C1285 C1283 1.327 . S
C1286 C1274 1.349 1_545 S
C1286 H1280 0.950 . S
C1286 C1287 1.327 . S
C1287 H1281 0.950 . S
C1287 C1286 1.327 . S
C1287 C1291 1.429 . S
C1288 C1271 1.574 . S
C1288 H1282 0.949 . S
C1288 C1292 1.368 . S
C1289 C1270 1.429 . S
C1289 C1283 1.429 . S
C1289 C1290 1.523 . S
C1290 C1271 1.368 . S
C1290 C1284 1.368 . S
C1290 C1289 1.523 . S
C1291 C1275 1.429 . S
C1291 C1287 1.429 . S
C1291 C1292 1.523 . S
C1292 C1276 1.368 . S
C1292 C1288 1.368 . S
C1292 C1291 1.523 . S
H1293 C1268 0.950 . S
H1294 C1270 0.950 . S
H1295 C1271 0.949 . S
H1296 C1273 0.950 . S
H1297 C1275 0.950 . S
C1298 C1299 1.349 . S
C1298 C1300 1.327 . S
C1298 H1323 0.950 . S
C1299 C1298 1.349 . S
C1299 C1315 1.349 . S
C1300 C1298 1.327 . S
C1300 C1319 1.429 . S
C1300 H1324 0.950 . S
C1301 C1318 1.574 . S
C1301 C1320 1.368 . S
C1301 H1325 0.949 . S
H1302 C1306 0.949 . S
C1303 C1304 1.349 . S
C1303 C1305 1.327 . S
C1303 H1326 0.950 . S
C1304 C1303 1.349 . S
C1304 C1316 1.349 . S
C1305 C1303 1.327 . S
C1305 C1321 1.429 . S
C1305 H1327 0.950 . S
C1306 H1302 0.949 . S
C1306 C1314 1.574 . S
C1306 C1322 1.368 . S
H1307 C1315 0.950 . S
H1308 C1313 0.950 . S
H1309 C1314 0.949 . S
H1310 C1316 0.950 . S
H1311 C1317 0.950 . S
H1312 C1318 0.949 . S
C1313 H1308 0.950 . S
C1313 C1315 1.327 . S
C1313 C1319 1.429 . S
C1314 C1306 1.574 . S
C1314 H1309 0.949 . S
C1314 C1320 1.368 . S
C1315 C1299 1.349 . S
C1315 H1307 0.950 . S
C1315 C1313 1.327 . S
C1316 C1304 1.349 . S
C1316 H1310 0.950 . S
C1316 C1317 1.327 . S
C1317 H1311 0.950 . S
C1317 C1316 1.327 . S
C1317 C1321 1.429 . S
C1318 C1301 1.574 . S
C1318 H1312 0.949 . S
C1318 C1322 1.368 . S
C1319 C1300 1.429 . S
C1319 C1313 1.429 . S
C1319 C1320 1.523 . S
C1320 C1301 1.368 . S
C1320 C1314 1.368 . S
C1320 C1319 1.523 . S
C1321 C1305 1.429 . S
C1321 C1317 1.429 . S
C1321 C1322 1.523 . S
C1322 C1306 1.368 . S
C1322 C1318 1.368 . S
C1322 C1321 1.523 . S
H1323 C1298 0.950 . S
H1324 C1300 0.950 . S
H1325 C1301 0.949 . S
H1326 C1303 0.950 . S
H1327 C1305 0.950 . S
C1328 C1329 1.349 . S
C1328 C1330 1.285 1_545 S
C1328 H1353 0.950 . S
C1329 C1328 1.349 . S
C1329 C1345 1.349 1_545 S
C1330 C1328 1.285 1_565 S
C1330 C1349 1.489 . S
C1330 H1354 0.935 1_565 S
C1331 C1348 1.574 . S
C1331 C1350 1.368 . S
C1331 H1355 0.949 . S
H1332 C1336 0.949 . S
C1333 C1334 1.349 . S
C1333 C1335 1.327 . S
C1333 H1356 0.950 . S
C1334 C1333 1.349 . S
C1334 C1346 1.349 . S
C1335 C1333 1.327 . S
C1335 C1351 1.429 . S
C1335 H1357 0.950 . S
C1336 H1332 0.949 . S
C1336 C1344 1.574 . S
C1336 C1352 1.368 . S
H1337 C1345 0.950 . S
H1338 C1343 0.950 . S
H1339 C1344 0.949 . S
H1340 C1346 0.950 . S
H1341 C1347 0.950 . S
H1342 C1348 0.949 . S
C1343 H1338 0.950 . S
C1343 C1345 1.327 . S
C1343 C1349 1.429 . S
C1344 C1336 1.574 . S
C1344 H1339 0.949 . S
C1344 C1350 1.368 . S
C1345 C1329 1.349 1_565 S
C1345 H1337 0.950 . S
C1345 C1343 1.327 . S
C1346 C1334 1.349 . S
C1346 H1340 0.950 . S
C1346 C1347 1.327 . S
C1347 H1341 0.950 . S
C1347 C1346 1.327 . S
C1347 C1351 1.429 . S
C1348 C1331 1.574 . S
C1348 H1342 0.949 . S
C1348 C1352 1.368 . S
C1349 C1330 1.489 . S
C1349 C1343 1.429 . S
C1349 C1350 1.523 . S
C1350 C1331 1.368 . S
C1350 C1344 1.368 . S
C1350 C1349 1.523 . S
C1351 C1335 1.429 . S
C1351 C1347 1.429 . S
C1351 C1352 1.523 . S
C1352 C1336 1.368 . S
C1352 C1348 1.368 . S
C1352 C1351 1.523 . S
H1353 C1328 0.950 . S
H1354 C1330 0.935 1_545 S
H1355 C1331 0.949 . S
H1356 C1333 0.950 . S
H1357 C1335 0.950 . S
C1358 C1359 1.349 . S
C1358 C1360 1.327 . S
C1358 H1383 0.950 . S
C1359 C1358 1.349 . S
C1359 C1375 1.349 . S
C1360 C1358 1.327 . S
C1360 C1379 1.429 . S
C1360 H1384 0.950 . S
C1361 C1378 1.574 . S
C1361 C1380 1.368 . S
C1361 H1385 0.949 . S
H1362 C1366 0.949 . S
C1363 C1364 1.349 . S
C1363 C1365 1.327 . S
C1363 H1386 0.950 . S
C1364 C1363 1.349 . S
C1364 C1376 1.349 . S
C1365 C1363 1.327 . S
C1365 C1381 1.429 . S
C1365 H1387 0.950 . S
C1366 H1362 0.949 . S
C1366 C1374 1.574 . S
C1366 C1382 1.368 . S
H1367 C1375 0.950 . S
H1368 C1373 0.950 . S
H1369 C1374 0.949 . S
H1370 C1376 0.950 . S
H1371 C1377 0.950 . S
H1372 C1378 0.949 . S
C1373 H1368 0.950 . S
C1373 C1375 1.327 . S
C1373 C1379 1.429 . S
C1374 C1366 1.574 . S
C1374 H1369 0.949 . S
C1374 C1380 1.368 . S
C1375 C1359 1.349 . S
C1375 H1367 0.950 . S
C1375 C1373 1.327 . S
C1376 C1364 1.349 . S
C1376 H1370 0.950 . S
C1376 C1377 1.327 . S
C1377 H1371 0.950 . S
C1377 C1376 1.327 . S
C1377 C1381 1.429 . S
C1378 C1361 1.574 . S
C1378 H1372 0.949 . S
C1378 C1382 1.368 . S
C1379 C1360 1.429 . S
C1379 C1373 1.429 . S
C1379 C1380 1.523 . S
C1380 C1361 1.368 . S
C1380 C1374 1.368 . S
C1380 C1379 1.523 . S
C1381 C1365 1.429 . S
C1381 C1377 1.429 . S
C1381 C1382 1.523 . S
C1382 C1366 1.368 . S
C1382 C1378 1.368 . S
C1382 C1381 1.523 . S
H1383 C1358 0.950 . S
H1384 C1360 0.950 . S
H1385 C1361 0.949 . S
H1386 C1363 0.950 . S
H1387 C1365 0.950 . S
C1388 C1389 1.349 . S
C1388 C1390 1.327 . S
C1388 H1413 0.950 . S
C1389 C1388 1.349 . S
C1389 C1405 1.349 . S
C1390 C1388 1.327 . S
C1390 C1409 1.429 . S
C1390 H1414 0.950 . S
C1391 C1408 1.574 . S
C1391 C1410 1.368 . S
C1391 H1415 0.949 . S
H1392 C1396 0.949 . S
C1393 C1394 1.349 . S
C1393 C1395 1.327 1_565 S
C1393 H1416 0.950 . S
C1394 C1393 1.349 . S
C1394 C1406 1.349 1_565 S
C1395 C1393 1.327 1_545 S
C1395 C1411 1.429 . S
C1395 H1417 0.949 . S
C1396 H1392 0.949 . S
C1396 C1404 1.574 . S
C1396 C1412 1.368 . S
H1397 C1405 0.950 . S
H1398 C1403 0.950 . S
H1399 C1404 0.949 . S
H1400 C1406 0.950 . S
H1401 C1407 0.950 . S
H1402 C1408 0.949 . S
C1403 H1398 0.950 . S
C1403 C1405 1.327 . S
C1403 C1409 1.429 . S
C1404 C1396 1.574 . S
C1404 H1399 0.949 . S
C1404 C1410 1.368 . S
C1405 C1389 1.349 . S
C1405 H1397 0.950 . S
C1405 C1403 1.327 . S
C1406 C1394 1.349 1_545 S
C1406 H1400 0.950 . S
C1406 C1407 1.327 . S
C1407 H1401 0.950 . S
C1407 C1406 1.327 . S
C1407 C1411 1.429 . S
C1408 C1391 1.574 . S
C1408 H1402 0.949 . S
C1408 C1412 1.368 . S
C1409 C1390 1.429 . S
C1409 C1403 1.429 . S
C1409 C1410 1.523 . S
C1410 C1391 1.368 . S
C1410 C1404 1.368 . S
C1410 C1409 1.523 . S
C1411 C1395 1.429 . S
C1411 C1407 1.429 . S
C1411 C1412 1.523 . S
C1412 C1396 1.368 . S
C1412 C1408 1.368 . S
C1412 C1411 1.523 . S
H1413 C1388 0.950 . S
H1414 C1390 0.950 . S
H1415 C1391 0.949 . S
H1416 C1393 0.950 . S
H1417 C1395 0.949 . S
C1418 C1419 1.349 . S
C1418 C1420 1.327 . S
C1418 H1443 0.950 . S
C1419 C1418 1.349 . S
C1419 C1435 1.349 . S
C1420 C1418 1.327 . S
C1420 C1439 1.429 . S
C1420 H1444 0.950 . S
C1421 C1438 1.574 . S
C1421 C1440 1.368 . S
C1421 H1445 0.949 . S
H1422 C1426 0.949 . S
C1423 C1424 1.349 . S
C1423 C1425 1.327 . S
C1423 H1446 0.950 . S
C1424 C1423 1.349 . S
C1424 C1436 1.349 . S
C1425 C1423 1.327 . S
C1425 C1441 1.429 . S
C1425 H1447 0.950 . S
C1426 H1422 0.949 . S
C1426 C1434 1.574 . S
C1426 C1442 1.368 . S
H1427 C1435 0.950 . S
H1428 C1433 0.950 . S
H1429 C1434 0.949 . S
H1430 C1436 0.950 . S
H1431 C1437 0.950 . S
H1432 C1438 0.949 . S
C1433 H1428 0.950 . S
C1433 C1435 1.327 . S
C1433 C1439 1.429 . S
C1434 C1426 1.574 . S
C1434 H1429 0.949 . S
C1434 C1440 1.368 . S
C1435 C1419 1.349 . S
C1435 H1427 0.950 . S
C1435 C1433 1.327 . S
C1436 C1424 1.349 . S
C1436 H1430 0.950 . S
C1436 C1437 1.327 . S
C1437 H1431 0.950 . S
C1437 C1436 1.327 . S
C1437 C1441 1.429 . S
C1438 C1421 1.574 . S
C1438 H1432 0.949 . S
C1438 C1442 1.368 . S
C1439 C1420 1.429 . S
C1439 C1433 1.429 . S
C1439 C1440 1.523 . S
C1440 C1421 1.368 . S
C1440 C1434 1.368 . S
C1440 C1439 1.523 . S
C1441 C1425 1.429 . S
C1441 C1437 1.429 . S
C1441 C1442 1.523 . S
C1442 C1426 1.368 . S
C1442 C1438 1.368 . S
C1442 C1441 1.523 . S
H1443 C1418 0.950 . S
H1444 C1420 0.950 . S
H1445 C1421 0.949 . S
H1446 C1423 0.950 . S
H1447 C1425 0.950 . S
C1448 C1449 1.349 . S
C1448 C1450 1.327 . S
C1448 H1473 0.950 . S
C1449 C1448 1.349 . S
C1449 C1465 1.349 . S
C1450 C1448 1.327 . S
C1450 C1469 1.429 . S
C1450 H1474 0.950 . S
C1451 C1468 1.574 . S
C1451 C1470 1.368 . S
C1451 H1475 0.949 . S
H1452 C1456 0.949 . S
C1453 C1454 1.349 . S
C1453 C1455 1.327 1_565 S
C1453 H1476 0.950 . S
C1454 C1453 1.349 . S
C1454 C1466 1.349 1_565 S
C1455 C1453 1.327 1_545 S
C1455 C1471 1.429 . S
C1455 H1477 0.950 . S
C1456 H1452 0.949 . S
C1456 C1464 1.574 . S
C1456 C1472 1.368 . S
H1457 C1465 0.950 . S
H1458 C1463 0.950 . S
H1459 C1464 0.949 . S
H1460 C1466 0.950 . S
H1461 C1467 0.950 . S
H1462 C1468 0.949 . S
C1463 H1458 0.950 . S
C1463 C1465 1.327 . S
C1463 C1469 1.429 . S
C1464 C1456 1.574 . S
C1464 H1459 0.949 . S
C1464 C1470 1.368 . S
C1465 C1449 1.349 . S
C1465 H1457 0.950 . S
C1465 C1463 1.327 . S
C1466 C1454 1.349 1_545 S
C1466 H1460 0.950 . S
C1466 C1467 1.327 . S
C1467 H1461 0.950 . S
C1467 C1466 1.327 . S
C1467 C1471 1.429 . S
C1468 C1451 1.574 . S
C1468 H1462 0.949 . S
C1468 C1472 1.368 . S
C1469 C1450 1.429 . S
C1469 C1463 1.429 . S
C1469 C1470 1.523 . S
C1470 C1451 1.368 . S
C1470 C1464 1.368 . S
C1470 C1469 1.523 . S
C1471 C1455 1.429 . S
C1471 C1467 1.429 . S
C1471 C1472 1.523 . S
C1472 C1456 1.368 . S
C1472 C1468 1.368 . S
C1472 C1471 1.523 . S
H1473 C1448 0.950 . S
H1474 C1450 0.950 . S
H1475 C1451 0.949 . S
H1476 C1453 0.950 . S
H1477 C1455 0.950 . S
C1478 C1479 1.349 . S
C1478 C1480 1.327 . S
C1478 H1503 0.950 . S
C1479 C1478 1.349 . S
C1479 C1495 1.349 . S
C1480 C1478 1.327 . S
C1480 C1499 1.429 . S
C1480 H1504 0.950 . S
C1481 C1498 1.574 . S
C1481 C1500 1.368 . S
C1481 H1505 0.949 . S
H1482 C1486 0.949 . S
C1483 C1484 1.349 . S
C1483 C1485 1.327 . S
C1483 H1506 0.950 . S
C1484 C1483 1.349 . S
C1484 C1496 1.349 . S
C1485 C1483 1.327 . S
C1485 C1501 1.429 . S
C1485 H1507 0.950 . S
C1486 H1482 0.949 . S
C1486 C1494 1.574 . S
C1486 C1502 1.368 . S
H1487 C1495 0.950 . S
H1488 C1493 0.950 . S
H1489 C1494 0.949 . S
H1490 C1496 0.950 . S
H1491 C1497 0.950 . S
H1492 C1498 0.949 . S
C1493 H1488 0.950 . S
C1493 C1495 1.327 . S
C1493 C1499 1.429 . S
C1494 C1486 1.574 . S
C1494 H1489 0.949 . S
C1494 C1500 1.368 . S
C1495 C1479 1.349 . S
C1495 H1487 0.950 . S
C1495 C1493 1.327 . S
C1496 C1484 1.349 . S
C1496 H1490 0.950 . S
C1496 C1497 1.327 . S
C1497 H1491 0.950 . S
C1497 C1496 1.327 . S
C1497 C1501 1.429 . S
C1498 C1481 1.574 . S
C1498 H1492 0.949 . S
C1498 C1502 1.368 . S
C1499 C1480 1.429 . S
C1499 C1493 1.429 . S
C1499 C1500 1.523 . S
C1500 C1481 1.368 . S
C1500 C1494 1.368 . S
C1500 C1499 1.523 . S
C1501 C1485 1.429 . S
C1501 C1497 1.429 . S
C1501 C1502 1.523 . S
C1502 C1486 1.368 . S
C1502 C1498 1.368 . S
C1502 C1501 1.523 . S
H1503 C1478 0.950 . S
H1504 C1480 0.950 . S
H1505 C1481 0.949 . S
H1506 C1483 0.950 . S
H1507 C1485 0.950 . S
C1508 C1509 1.349 . S
C1508 C1510 1.327 1_545 S
C1508 H1533 0.950 . S
C1509 C1508 1.349 . S
C1509 C1525 1.349 1_545 S
C1510 C1508 1.327 1_565 S
C1510 C1529 1.429 . S
C1510 H1534 0.950 1_565 S
C1511 C1528 1.574 . S
C1511 C1530 1.368 . S
C1511 H1535 0.949 . S
H1512 C1516 0.949 . S
C1513 C1514 1.349 . S
C1513 C1515 1.327 . S
C1513 H1536 0.950 . S
C1514 C1513 1.349 . S
C1514 C1526 1.349 . S
C1515 C1513 1.327 . S
C1515 C1531 1.429 . S
C1515 H1537 0.950 . S
C1516 H1512 0.949 . S
C1516 C1524 1.574 . S
C1516 C1532 1.368 . S
H1517 C1525 0.950 . S
H1518 C1523 0.950 . S
H1519 C1524 0.949 . S
H1520 C1526 0.950 . S
H1521 C1527 0.950 . S
H1522 C1528 0.949 . S
C1523 H1518 0.950 . S
C1523 C1525 1.327 . S
C1523 C1529 1.429 . S
C1524 C1516 1.574 . S
C1524 H1519 0.949 . S
C1524 C1530 1.368 . S
C1525 C1509 1.349 1_565 S
C1525 H1517 0.950 . S
C1525 C1523 1.327 . S
C1526 C1514 1.349 . S
C1526 H1520 0.950 . S
C1526 C1527 1.327 . S
C1527 H1521 0.950 . S
C1527 C1526 1.327 . S
C1527 C1531 1.429 . S
C1528 C1511 1.574 . S
C1528 H1522 0.949 . S
C1528 C1532 1.368 . S
C1529 C1510 1.429 . S
C1529 C1523 1.429 . S
C1529 C1530 1.523 . S
C1530 C1511 1.368 . S
C1530 C1524 1.368 . S
C1530 C1529 1.523 . S
C1531 C1515 1.429 . S
C1531 C1527 1.429 . S
C1531 C1532 1.523 . S
C1532 C1516 1.368 . S
C1532 C1528 1.368 . S
C1532 C1531 1.523 . S
H1533 C1508 0.950 . S
H1534 C1510 0.950 1_545 S
H1535 C1511 0.949 . S
H1536 C1513 0.950 . S
H1537 C1515 0.950 . S
C1538 C1539 1.349 . S
C1538 C1540 1.327 . S
C1538 H1563 0.950 . S
C1539 C1538 1.349 . S
C1539 C1555 1.349 . S
C1540 C1538 1.327 . S
C1540 C1559 1.429 . S
C1540 H1564 0.950 . S
C1541 C1558 1.574 . S
C1541 C1560 1.368 . S
C1541 H1565 0.949 . S
H1542 C1546 0.949 . S
C1543 C1544 1.349 . S
C1543 C1545 1.327 . S
C1543 H1566 0.950 . S
C1544 C1543 1.349 . S
C1544 C1556 1.349 . S
C1545 C1543 1.327 . S
C1545 C1561 1.429 . S
C1545 H1567 0.950 . S
C1546 H1542 0.949 . S
C1546 C1554 1.574 . S
C1546 C1562 1.368 . S
H1547 C1555 0.950 . S
H1548 C1553 0.950 . S
H1549 C1554 0.949 . S
H1550 C1556 0.950 . S
H1551 C1557 0.950 . S
H1552 C1558 0.949 . S
C1553 H1548 0.950 . S
C1553 C1555 1.327 . S
C1553 C1559 1.429 . S
C1554 C1546 1.574 . S
C1554 H1549 0.949 . S
C1554 C1560 1.368 . S
C1555 C1539 1.349 . S
C1555 H1547 0.950 . S
C1555 C1553 1.327 . S
C1556 C1544 1.349 . S
C1556 H1550 0.950 . S
C1556 C1557 1.327 . S
C1557 H1551 0.950 . S
C1557 C1556 1.327 . S
C1557 C1561 1.429 . S
C1558 C1541 1.574 . S
C1558 H1552 0.949 . S
C1558 C1562 1.368 . S
C1559 C1540 1.429 . S
C1559 C1553 1.429 . S
C1559 C1560 1.523 . S
C1560 C1541 1.368 . S
C1560 C1554 1.368 . S
C1560 C1559 1.523 . S
C1561 C1545 1.429 . S
C1561 C1557 1.429 . S
C1561 C1562 1.523 . S
C1562 C1546 1.368 . S
C1562 C1558 1.368 . S
C1562 C1561 1.523 . S
H1563 C1538 0.950 . S
H1564 C1540 0.950 . S
H1565 C1541 0.949 . S
H1566 C1543 0.950 . S
H1567 C1545 0.950 . S
C1568 C1569 1.349 . S
C1568 C1570 1.327 . S
C1568 H1593 0.950 . S
C1569 C1568 1.349 . S
C1569 C1585 1.349 . S
C1570 C1568 1.327 . S
C1570 C1589 1.429 . S
C1570 H1594 0.950 . S
C1571 C1588 1.574 . S
C1571 C1590 1.368 . S
C1571 H1595 0.949 . S
H1572 C1576 0.949 . S
C1573 C1574 1.349 . S
C1573 C1575 1.327 . S
C1573 H1596 0.950 . S
C1574 C1573 1.349 . S
C1574 C1586 1.349 . S
C1575 C1573 1.327 . S
C1575 C1591 1.429 . S
C1575 H1597 0.950 . S
C1576 H1572 0.949 . S
C1576 C1584 1.574 . S
C1576 C1592 1.368 . S
H1577 C1585 0.950 . S
H1578 C1583 0.950 . S
H1579 C1584 0.949 . S
H1580 C1586 0.950 . S
H1581 C1587 0.950 . S
H1582 C1588 0.949 . S
C1583 H1578 0.950 . S
C1583 C1585 1.327 . S
C1583 C1589 1.429 . S
C1584 C1576 1.574 . S
C1584 H1579 0.949 . S
C1584 C1590 1.368 . S
C1585 C1569 1.349 . S
C1585 H1577 0.950 . S
C1585 C1583 1.327 . S
C1586 C1574 1.349 . S
C1586 H1580 0.950 . S
C1586 C1587 1.327 . S
C1587 H1581 0.950 . S
C1587 C1586 1.327 . S
C1587 C1591 1.429 . S
C1588 C1571 1.574 . S
C1588 H1582 0.949 . S
C1588 C1592 1.368 . S
C1589 C1570 1.429 . S
C1589 C1583 1.429 . S
C1589 C1590 1.523 . S
C1590 C1571 1.368 . S
C1590 C1584 1.368 . S
C1590 C1589 1.523 . S
C1591 C1575 1.429 . S
C1591 C1587 1.429 . S
C1591 C1592 1.523 . S
C1592 C1576 1.368 . S
C1592 C1588 1.368 . S
C1592 C1591 1.523 . S
H1593 C1568 0.950 . S
H1594 C1570 0.950 . S
H1595 C1571 0.949 . S
H1596 C1573 0.950 . S
H1597 C1575 0.950 . S
C1598 C1599 1.349 . S
C1598 C1600 1.327 . S
C1598 H1623 0.950 . S
C1599 C1598 1.349 . S
C1599 C1615 1.349 . S
C1600 C1598 1.327 . S
C1600 C1619 1.429 . S
C1600 H1624 0.950 . S
C1601 C1618 1.574 . S
C1601 C1620 1.368 . S
C1601 H1625 0.949 . S
H1602 C1606 0.949 . S
C1603 C1604 1.349 . S
C1603 C1605 1.327 . S
C1603 H1626 0.950 . S
C1604 C1603 1.349 . S
C1604 C1616 1.349 . S
C1605 C1603 1.327 . S
C1605 C1621 1.429 . S
C1605 H1627 0.950 . S
C1606 H1602 0.949 . S
C1606 C1614 1.574 . S
C1606 C1622 1.368 . S
H1607 C1615 0.950 . S
H1608 C1613 0.950 . S
H1609 C1614 0.949 . S
H1610 C1616 0.950 . S
H1611 C1617 0.950 . S
H1612 C1618 0.949 . S
C1613 H1608 0.950 . S
C1613 C1615 1.327 . S
C1613 C1619 1.429 . S
C1614 C1606 1.574 . S
C1614 H1609 0.949 . S
C1614 C1620 1.368 . S
C1615 C1599 1.349 . S
C1615 H1607 0.950 . S
C1615 C1613 1.327 . S
C1616 C1604 1.349 . S
C1616 H1610 0.950 . S
C1616 C1617 1.327 . S
C1617 H1611 0.950 . S
C1617 C1616 1.327 . S
C1617 C1621 1.429 . S
C1618 C1601 1.574 . S
C1618 H1612 0.949 . S
C1618 C1622 1.368 . S
C1619 C1600 1.429 . S
C1619 C1613 1.429 . S
C1619 C1620 1.523 . S
C1620 C1601 1.368 . S
C1620 C1614 1.368 . S
C1620 C1619 1.523 . S
C1621 C1605 1.429 . S
C1621 C1617 1.429 . S
C1621 C1622 1.523 . S
C1622 C1606 1.368 . S
C1622 C1618 1.368 . S
C1622 C1621 1.523 . S
H1623 C1598 0.950 . S
H1624 C1600 0.950 . S
H1625 C1601 0.949 . S
H1626 C1603 0.950 . S
H1627 C1605 0.950 . S
C1628 C1629 1.349 . S
C1628 C1630 1.327 . S
C1628 H1653 0.950 . S
C1629 C1628 1.349 . S
C1629 C1645 1.349 . S
C1630 C1628 1.327 . S
C1630 C1649 1.429 . S
C1630 H1654 0.950 . S
C1631 C1648 1.574 . S
C1631 C1650 1.368 . S
C1631 H1655 0.949 . S
H1632 C1636 0.949 . S
C1633 C1634 1.349 . S
C1633 C1635 1.327 . S
C1633 H1656 0.950 . S
C1634 C1633 1.349 . S
C1634 C1646 1.349 . S
C1635 C1633 1.327 . S
C1635 C1651 1.429 . S
C1635 H1657 0.950 . S
C1636 H1632 0.949 . S
C1636 C1644 1.574 . S
C1636 C1652 1.368 . S
H1637 C1645 0.950 . S
H1638 C1643 0.950 . S
H1639 C1644 0.949 . S
H1640 C1646 0.950 . S
H1641 C1647 0.950 . S
H1642 C1648 0.949 . S
C1643 H1638 0.950 . S
C1643 C1645 1.327 . S
C1643 C1649 1.429 . S
C1644 C1636 1.574 . S
C1644 H1639 0.949 . S
C1644 C1650 1.368 . S
C1645 C1629 1.349 . S
C1645 H1637 0.950 . S
C1645 C1643 1.327 . S
C1646 C1634 1.349 . S
C1646 H1640 0.950 . S
C1646 C1647 1.327 . S
C1647 H1641 0.950 . S
C1647 C1646 1.327 . S
C1647 C1651 1.429 . S
C1648 C1631 1.574 . S
C1648 H1642 0.949 . S
C1648 C1652 1.368 . S
C1649 C1630 1.429 . S
C1649 C1643 1.429 . S
C1649 C1650 1.523 . S
C1650 C1631 1.368 . S
C1650 C1644 1.368 . S
C1650 C1649 1.523 . S
C1651 C1635 1.429 . S
C1651 C1647 1.429 . S
C1651 C1652 1.523 . S
C1652 C1636 1.368 . S
C1652 C1648 1.368 . S
C1652 C1651 1.523 . S
H1653 C1628 0.950 . S
H1654 C1630 0.950 . S
H1655 C1631 0.949 . S
H1656 C1633 0.950 . S
H1657 C1635 0.950 . S
C1658 C1659 1.349 . S
C1658 C1660 1.327 . S
C1658 H1683 0.950 . S
C1659 C1658 1.349 . S
C1659 C1675 1.349 . S
C1660 C1658 1.327 . S
C1660 C1679 1.429 . S
C1660 H1684 0.950 . S
C1661 C1678 1.574 . S
C1661 C1680 1.368 . S
C1661 H1685 0.949 . S
H1662 C1666 0.949 . S
C1663 C1664 1.349 . S
C1663 C1665 1.327 . S
C1663 H1686 0.950 . S
C1664 C1663 1.349 . S
C1664 C1676 1.349 . S
C1665 C1663 1.327 . S
C1665 C1681 1.429 . S
C1665 H1687 0.950 . S
C1666 H1662 0.949 . S
C1666 C1674 1.574 . S
C1666 C1682 1.368 . S
H1667 C1675 0.950 . S
H1668 C1673 0.950 . S
H1669 C1674 0.949 . S
H1670 C1676 0.950 . S
H1671 C1677 0.950 . S
H1672 C1678 0.949 . S
C1673 H1668 0.950 . S
C1673 C1675 1.327 . S
C1673 C1679 1.429 . S
C1674 C1666 1.574 . S
C1674 H1669 0.949 . S
C1674 C1680 1.368 . S
C1675 C1659 1.349 . S
C1675 H1667 0.950 . S
C1675 C1673 1.327 . S
C1676 C1664 1.349 . S
C1676 H1670 0.950 . S
C1676 C1677 1.327 . S
C1677 H1671 0.950 . S
C1677 C1676 1.327 . S
C1677 C1681 1.429 . S
C1678 C1661 1.574 . S
C1678 H1672 0.949 . S
C1678 C1682 1.368 . S
C1679 C1660 1.429 . S
C1679 C1673 1.429 . S
C1679 C1680 1.523 . S
C1680 C1661 1.368 . S
C1680 C1674 1.368 . S
C1680 C1679 1.523 . S
C1681 C1665 1.429 . S
C1681 C1677 1.429 . S
C1681 C1682 1.523 . S
C1682 C1666 1.368 . S
C1682 C1678 1.368 . S
C1682 C1681 1.523 . S
H1683 C1658 0.950 . S
H1684 C1660 0.950 . S
H1685 C1661 0.949 . S
H1686 C1663 0.950 . S
H1687 C1665 0.950 . S
C1688 C1689 1.349 . S
C1688 C1690 1.327 . S
C1688 H1713 0.950 . S
C1689 C1688 1.349 . S
C1689 C1705 1.349 . S
C1690 C1688 1.327 . S
C1690 C1709 1.429 . S
C1690 H1714 0.950 . S
C1691 C1708 1.574 . S
C1691 C1710 1.368 . S
C1691 H1715 0.949 . S
H1692 C1696 0.949 . S
C1693 C1694 1.349 . S
C1693 C1695 1.327 . S
C1693 H1716 0.950 . S
C1694 C1693 1.349 . S
C1694 C1706 1.349 . S
C1695 C1693 1.327 . S
C1695 C1711 1.429 . S
C1695 H1717 0.950 . S
C1696 H1692 0.949 . S
C1696 C1704 1.574 . S
C1696 C1712 1.368 . S
H1697 C1705 0.950 . S
H1698 C1703 0.950 . S
H1699 C1704 0.949 . S
H1700 C1706 0.950 . S
H1701 C1707 0.950 . S
H1702 C1708 0.949 . S
C1703 H1698 0.950 . S
C1703 C1705 1.327 . S
C1703 C1709 1.429 . S
C1704 C1696 1.574 . S
C1704 H1699 0.949 . S
C1704 C1710 1.368 . S
C1705 C1689 1.349 . S
C1705 H1697 0.950 . S
C1705 C1703 1.327 . S
C1706 C1694 1.349 . S
C1706 H1700 0.950 . S
C1706 C1707 1.327 . S
C1707 H1701 0.950 . S
C1707 C1706 1.327 . S
C1707 C1711 1.429 . S
C1708 C1691 1.574 . S
C1708 H1702 0.949 . S
C1708 C1712 1.368 . S
C1709 C1690 1.429 . S
C1709 C1703 1.429 . S
C1709 C1710 1.523 . S
C1710 C1691 1.368 . S
C1710 C1704 1.368 . S
C1710 C1709 1.523 . S
C1711 C1695 1.429 . S
C1711 C1707 1.429 . S
C1711 C1712 1.523 . S
C1712 C1696 1.368 . S
C1712 C1708 1.368 . S
C1712 C1711 1.523 . S
H1713 C1688 0.950 . S
H1714 C1690 0.950 . S
H1715 C1691 0.949 . S
H1716 C1693 0.950 . S
H1717 C1695 0.950 . S
C1718 C1719 1.349 . S
C1718 C1720 1.327 . S
C1718 H1743 0.950 . S
C1719 C1718 1.349 . S
C1719 C1735 1.349 . S
C1720 C1718 1.327 . S
C1720 C1739 1.429 . S
C1720 H1744 0.950 . S
C1721 C1738 1.574 . S
C1721 C1740 1.368 . S
C1721 H1745 0.949 . S
H1722 C1726 0.949 . S
C1723 C1724 1.349 . S
C1723 C1725 1.327 . S
C1723 H1746 0.950 . S
C1724 C1723 1.349 . S
C1724 C1736 1.349 . S
C1725 C1723 1.327 . S
C1725 C1741 1.429 . S
C1725 H1747 0.950 . S
C1726 H1722 0.949 . S
C1726 C1734 1.574 . S
C1726 C1742 1.368 . S
H1727 C1735 0.950 . S
H1728 C1733 0.950 . S
H1729 C1734 0.949 . S
H1730 C1736 0.950 . S
H1731 C1737 0.950 . S
H1732 C1738 0.949 . S
C1733 H1728 0.950 . S
C1733 C1735 1.327 . S
C1733 C1739 1.429 . S
C1734 C1726 1.574 . S
C1734 H1729 0.949 . S
C1734 C1740 1.368 . S
C1735 C1719 1.349 . S
C1735 H1727 0.950 . S
C1735 C1733 1.327 . S
C1736 C1724 1.349 . S
C1736 H1730 0.950 . S
C1736 C1737 1.327 . S
C1737 H1731 0.950 . S
C1737 C1736 1.327 . S
C1737 C1741 1.429 . S
C1738 C1721 1.574 . S
C1738 H1732 0.949 . S
C1738 C1742 1.368 . S
C1739 C1720 1.429 . S
C1739 C1733 1.429 . S
C1739 C1740 1.523 . S
C1740 C1721 1.368 . S
C1740 C1734 1.368 . S
C1740 C1739 1.523 . S
C1741 C1725 1.429 . S
C1741 C1737 1.429 . S
C1741 C1742 1.523 . S
C1742 C1726 1.368 . S
C1742 C1738 1.368 . S
C1742 C1741 1.523 . S
H1743 C1718 0.950 . S
H1744 C1720 0.950 . S
H1745 C1721 0.949 . S
H1746 C1723 0.950 . S
H1747 C1725 0.950 . S
C1748 C1749 1.349 . S
C1748 C1750 1.327 . S
C1748 H1773 0.950 . S
C1749 C1748 1.349 . S
C1749 C1765 1.349 . S
C1750 C1748 1.327 . S
C1750 C1769 1.429 . S
C1750 H1774 0.950 . S
C1751 C1768 1.574 . S
C1751 C1770 1.368 . S
C1751 H1775 0.949 . S
H1752 C1756 0.949 . S
C1753 C1754 1.349 . S
C1753 C1755 1.327 . S
C1753 H1776 0.950 . S
C1754 C1753 1.349 . S
C1754 C1766 1.349 . S
C1755 C1753 1.327 . S
C1755 C1771 1.429 . S
C1755 H1777 0.950 . S
C1756 H1752 0.949 . S
C1756 C1764 1.574 . S
C1756 C1772 1.368 . S
H1757 C1765 0.950 . S
H1758 C1763 0.950 . S
H1759 C1764 0.949 . S
H1760 C1766 0.950 . S
H1761 C1767 0.950 . S
H1762 C1768 0.949 . S
C1763 H1758 0.950 . S
C1763 C1765 1.327 . S
C1763 C1769 1.429 . S
C1764 C1756 1.574 . S
C1764 H1759 0.949 . S
C1764 C1770 1.368 . S
C1765 C1749 1.349 . S
C1765 H1757 0.950 . S
C1765 C1763 1.327 . S
C1766 C1754 1.349 . S
C1766 H1760 0.950 . S
C1766 C1767 1.327 . S
C1767 H1761 0.950 . S
C1767 C1766 1.327 . S
C1767 C1771 1.429 . S
C1768 C1751 1.574 . S
C1768 H1762 0.949 . S
C1768 C1772 1.368 . S
C1769 C1750 1.429 . S
C1769 C1763 1.429 . S
C1769 C1770 1.523 . S
C1770 C1751 1.368 . S
C1770 C1764 1.368 . S
C1770 C1769 1.523 . S
C1771 C1755 1.429 . S
C1771 C1767 1.429 . S
C1771 C1772 1.523 . S
C1772 C1756 1.368 . S
C1772 C1768 1.368 . S
C1772 C1771 1.523 . S
H1773 C1748 0.950 . S
H1774 C1750 0.950 . S
H1775 C1751 0.949 . S
H1776 C1753 0.950 . S
H1777 C1755 0.950 . S
C1778 C1779 1.349 . S
C1778 C1780 1.327 . S
C1778 H1803 0.950 . S
C1779 C1778 1.349 . S
C1779 C1795 1.349 . S
C1780 C1778 1.327 . S
C1780 C1799 1.429 . S
C1780 H1804 0.950 . S
C1781 C1798 1.574 . S
C1781 C1800 1.368 . S
C1781 H1805 0.949 . S
H1782 C1786 0.949 . S
C1783 C1784 1.349 . S
C1783 C1785 1.327 . S
C1783 H1806 0.950 . S
C1784 C1783 1.349 . S
C1784 C1796 1.349 . S
C1785 C1783 1.327 . S
C1785 C1801 1.429 . S
C1785 H1807 0.950 . S
C1786 H1782 0.949 . S
C1786 C1794 1.574 . S
C1786 C1802 1.368 . S
H1787 C1795 0.950 . S
H1788 C1793 0.950 . S
H1789 C1794 0.949 . S
H1790 C1796 0.950 . S
H1791 C1797 0.950 . S
H1792 C1798 0.949 . S
C1793 H1788 0.950 . S
C1793 C1795 1.327 . S
C1793 C1799 1.429 . S
C1794 C1786 1.574 . S
C1794 H1789 0.949 . S
C1794 C1800 1.368 . S
C1795 C1779 1.349 . S
C1795 H1787 0.950 . S
C1795 C1793 1.327 . S
C1796 C1784 1.349 . S
C1796 H1790 0.950 . S
C1796 C1797 1.327 . S
C1797 H1791 0.950 . S
C1797 C1796 1.327 . S
C1797 C1801 1.429 . S
C1798 C1781 1.574 . S
C1798 H1792 0.949 . S
C1798 C1802 1.368 . S
C1799 C1780 1.429 . S
C1799 C1793 1.429 . S
C1799 C1800 1.523 . S
C1800 C1781 1.368 . S
C1800 C1794 1.368 . S
C1800 C1799 1.523 . S
C1801 C1785 1.429 . S
C1801 C1797 1.429 . S
C1801 C1802 1.523 . S
C1802 C1786 1.368 . S
C1802 C1798 1.368 . S
C1802 C1801 1.523 . S
H1803 C1778 0.950 . S
H1804 C1780 0.950 . S
H1805 C1781 0.949 . S
H1806 C1783 0.950 . S
H1807 C1785 0.950 . S
C1808 C1809 1.349 . S
C1808 C1810 1.327 . S
C1808 H1833 0.950 . S
C1809 C1808 1.349 . S
C1809 C1825 1.349 . S
C1810 C1808 1.327 . S
C1810 C1829 1.429 . S
C1810 H1834 0.950 . S
C1811 C1828 1.574 . S
C1811 C1830 1.368 . S
C1811 H1835 0.949 . S
H1812 C1816 0.949 . S
C1813 C1814 1.349 . S
C1813 C1815 1.327 . S
C1813 H1836 0.950 . S
C1814 C1813 1.349 . S
C1814 C1826 1.349 . S
C1815 C1813 1.327 . S
C1815 C1831 1.429 . S
C1815 H1837 0.950 . S
C1816 H1812 0.949 . S
C1816 C1824 1.574 . S
C1816 C1832 1.368 . S
H1817 C1825 0.950 . S
H1818 C1823 0.950 . S
H1819 C1824 0.949 . S
H1820 C1826 0.950 . S
H1821 C1827 0.950 . S
H1822 C1828 0.949 . S
C1823 H1818 0.950 . S
C1823 C1825 1.327 . S
C1823 C1829 1.429 . S
C1824 C1816 1.574 . S
C1824 H1819 0.949 . S
C1824 C1830 1.368 . S
C1825 C1809 1.349 . S
C1825 H1817 0.950 . S
C1825 C1823 1.327 . S
C1826 C1814 1.349 . S
C1826 H1820 0.950 . S
C1826 C1827 1.327 . S
C1827 H1821 0.950 . S
C1827 C1826 1.327 . S
C1827 C1831 1.429 . S
C1828 C1811 1.574 . S
C1828 H1822 0.949 . S
C1828 C1832 1.368 . S
C1829 C1810 1.429 . S
C1829 C1823 1.429 . S
C1829 C1830 1.523 . S
C1830 C1811 1.368 . S
C1830 C1824 1.368 . S
C1830 C1829 1.523 . S
C1831 C1815 1.429 . S
C1831 C1827 1.429 . S
C1831 C1832 1.523 . S
C1832 C1816 1.368 . S
C1832 C1828 1.368 . S
C1832 C1831 1.523 . S
H1833 C1808 0.950 . S
H1834 C1810 0.950 . S
H1835 C1811 0.949 . S
H1836 C1813 0.950 . S
H1837 C1815 0.950 . S
C1838 C1839 1.349 . S
C1838 C1840 1.327 . S
C1838 H1863 0.950 . S
C1839 C1838 1.349 . S
C1839 C1855 1.349 . S
C1840 C1838 1.327 . S
C1840 C1859 1.429 . S
C1840 H1864 0.950 . S
C1841 C1858 1.574 . S
C1841 C1860 1.368 . S
C1841 H1865 0.949 . S
H1842 C1846 0.949 . S
C1843 C1844 1.349 . S
C1843 C1845 1.327 . S
C1843 H1866 0.950 . S
C1844 C1843 1.349 . S
C1844 C1856 1.349 . S
C1845 C1843 1.327 . S
C1845 C1861 1.429 . S
C1845 H1867 0.950 . S
C1846 H1842 0.949 . S
C1846 C1854 1.574 . S
C1846 C1862 1.368 . S
H1847 C1855 0.950 . S
H1848 C1853 0.950 . S
H1849 C1854 0.949 . S
H1850 C1856 0.950 . S
H1851 C1857 0.950 . S
H1852 C1858 0.949 . S
C1853 H1848 0.950 . S
C1853 C1855 1.327 . S
C1853 C1859 1.429 . S
C1854 C1846 1.574 . S
C1854 H1849 0.949 . S
C1854 C1860 1.368 . S
C1855 C1839 1.349 . S
C1855 H1847 0.950 . S
C1855 C1853 1.327 . S
C1856 C1844 1.349 . S
C1856 H1850 0.950 . S
C1856 C1857 1.327 . S
C1857 H1851 0.950 . S
C1857 C1856 1.327 . S
C1857 C1861 1.429 . S
C1858 C1841 1.574 . S
C1858 H1852 0.949 . S
C1858 C1862 1.368 . S
C1859 C1840 1.429 . S
C1859 C1853 1.429 . S
C1859 C1860 1.523 . S
C1860 C1841 1.368 . S
C1860 C1854 1.368 . S
C1860 C1859 1.523 . S
C1861 C1845 1.429 . S
C1861 C1857 1.429 . S
C1861 C1862 1.523 . S
C1862 C1846 1.368 . S
C1862 C1858 1.368 . S
C1862 C1861 1.523 . S
H1863 C1838 0.950 . S
H1864 C1840 0.950 . S
H1865 C1841 0.949 . S
H1866 C1843 0.950 . S
H1867 C1845 0.950 . S
C1868 C1869 1.349 . S
C1868 C1870 1.327 . S
C1868 H1893 0.950 . S
C1869 C1868 1.349 . S
C1869 C1885 1.349 . S
C1870 C1868 1.327 . S
C1870 C1889 1.429 . S
C1870 H1894 0.950 . S
C1871 C1888 1.574 . S
C1871 C1890 1.368 . S
C1871 H1895 0.949 . S
H1872 C1876 0.949 . S
C1873 C1874 1.349 . S
C1873 C1875 1.327 . S
C1873 H1896 0.950 . S
C1874 C1873 1.349 . S
C1874 C1886 1.349 . S
C1875 C1873 1.327 . S
C1875 C1891 1.429 . S
C1875 H1897 0.950 . S
C1876 H1872 0.949 . S
C1876 C1884 1.574 . S
C1876 C1892 1.368 . S
H1877 C1885 0.950 . S
H1878 C1883 0.950 . S
H1879 C1884 0.949 . S
H1880 C1886 0.950 . S
H1881 C1887 0.950 . S
H1882 C1888 0.949 . S
C1883 H1878 0.950 . S
C1883 C1885 1.327 . S
C1883 C1889 1.429 . S
C1884 C1876 1.574 . S
C1884 H1879 0.949 . S
C1884 C1890 1.368 . S
C1885 C1869 1.349 . S
C1885 H1877 0.950 . S
C1885 C1883 1.327 . S
C1886 C1874 1.349 . S
C1886 H1880 0.950 . S
C1886 C1887 1.327 . S
C1887 H1881 0.950 . S
C1887 C1886 1.327 . S
C1887 C1891 1.429 . S
C1888 C1871 1.574 . S
C1888 H1882 0.949 . S
C1888 C1892 1.368 . S
C1889 C1870 1.429 . S
C1889 C1883 1.429 . S
C1889 C1890 1.523 . S
C1890 C1871 1.368 . S
C1890 C1884 1.368 . S
C1890 C1889 1.523 . S
C1891 C1875 1.429 . S
C1891 C1887 1.429 . S
C1891 C1892 1.523 . S
C1892 C1876 1.368 . S
C1892 C1888 1.368 . S
C1892 C1891 1.523 . S
H1893 C1868 0.950 . S
H1894 C1870 0.950 . S
H1895 C1871 0.949 . S
H1896 C1873 0.950 . S
H1897 C1875 0.950 . S
C1898 C1899 1.349 . S
C1898 C1900 1.327 . S
C1898 H1923 0.950 . S
C1899 C1898 1.349 . S
C1899 C1915 1.349 . S
C1900 C1898 1.327 . S
C1900 C1919 1.429 . S
C1900 H1924 0.950 . S
C1901 C1918 1.574 . S
C1901 C1920 1.368 . S
C1901 H1925 0.949 . S
H1902 C1906 0.949 . S
C1903 C1904 1.349 . S
C1903 C1905 1.327 . S
C1903 H1926 0.950 . S
C1904 C1903 1.349 . S
C1904 C1916 1.349 . S
C1905 C1903 1.327 . S
C1905 C1921 1.429 . S
C1905 H1927 0.950 . S
C1906 H1902 0.949 . S
C1906 C1914 1.574 . S
C1906 C1922 1.368 . S
H1907 C1915 0.950 . S
H1908 C1913 0.950 . S
H1909 C1914 0.949 . S
H1910 C1916 0.950 . S
H1911 C1917 0.950 . S
H1912 C1918 0.949 . S
C1913 H1908 0.950 . S
C1913 C1915 1.327 . S
C1913 C1919 1.429 . S
C1914 C1906 1.574 . S
C1914 H1909 0.949 . S
C1914 C1920 1.368 . S
C1915 C1899 1.349 . S
C1915 H1907 0.950 . S
C1915 C1913 1.327 . S
C1916 C1904 1.349 . S
C1916 H1910 0.950 . S
C1916 C1917 1.327 . S
C1917 H1911 0.950 . S
C1917 C1916 1.327 . S
C1917 C1921 1.429 . S
C1918 C1901 1.574 . S
C1918 H1912 0.949 . S
C1918 C1922 1.368 . S
C1919 C1900 1.429 . S
C1919 C1913 1.429 . S
C1919 C1920 1.523 . S
C1920 C1901 1.368 . S
C1920 C1914 1.368 . S
C1920 C1919 1.523 . S
C1921 C1905 1.429 . S
C1921 C1917 1.429 . S
C1921 C1922 1.523 . S
C1922 C1906 1.368 . S
C1922 C1918 1.368 . S
C1922 C1921 1.523 . S
H1923 C1898 0.950 . S
H1924 C1900 0.950 . S
H1925 C1901 0.949 . S
H1926 C1903 0.950 . S
H1927 C1905 0.950 . S
C1928 C1929 1.349 . S
C1928 C1930 1.327 . S
C1928 H1953 0.950 . S
C1929 C1928 1.349 . S
C1929 C1945 1.349 . S
C1930 C1928 1.327 . S
C1930 C1949 1.429 . S
C1930 H1954 0.950 . S
C1931 C1948 1.574 . S
C1931 C1950 1.368 . S
C1931 H1955 0.949 . S
H1932 C1936 0.949 . S
C1933 C1934 1.349 . S
C1933 C1935 1.327 . S
C1933 H1956 0.950 . S
C1934 C1933 1.349 . S
C1934 C1946 1.349 . S
C1935 C1933 1.327 . S
C1935 C1951 1.429 . S
C1935 H1957 0.950 . S
C1936 H1932 0.949 . S
C1936 C1944 1.574 . S
C1936 C1952 1.368 . S
H1937 C1945 0.950 . S
H1938 C1943 0.950 . S
H1939 C1944 0.949 . S
H1940 C1946 0.950 . S
H1941 C1947 0.950 . S
H1942 C1948 0.949 . S
C1943 H1938 0.950 . S
C1943 C1945 1.327 . S
C1943 C1949 1.429 . S
C1944 C1936 1.574 . S
C1944 H1939 0.949 . S
C1944 C1950 1.368 . S
C1945 C1929 1.349 . S
C1945 H1937 0.950 . S
C1945 C1943 1.327 . S
C1946 C1934 1.349 . S
C1946 H1940 0.950 . S
C1946 C1947 1.327 . S
C1947 H1941 0.950 . S
C1947 C1946 1.327 . S
C1947 C1951 1.429 . S
C1948 C1931 1.574 . S
C1948 H1942 0.949 . S
C1948 C1952 1.368 . S
C1949 C1930 1.429 . S
C1949 C1943 1.429 . S
C1949 C1950 1.523 . S
C1950 C1931 1.368 . S
C1950 C1944 1.368 . S
C1950 C1949 1.523 . S
C1951 C1935 1.429 . S
C1951 C1947 1.429 . S
C1951 C1952 1.523 . S
C1952 C1936 1.368 . S
C1952 C1948 1.368 . S
C1952 C1951 1.523 . S
H1953 C1928 0.950 . S
H1954 C1930 0.950 . S
H1955 C1931 0.949 . S
H1956 C1933 0.950 . S
H1957 C1935 0.950 . S
C1958 C1959 1.349 . S
C1958 C1960 1.327 . S
C1958 H1983 0.950 . S
C1959 C1958 1.349 . S
C1959 C1975 1.349 . S
C1960 C1958 1.327 . S
C1960 C1979 1.429 . S
C1960 H1984 0.950 . S
C1961 C1978 1.574 . S
C1961 C1980 1.368 . S
C1961 H1985 0.949 . S
H1962 C1966 0.949 . S
C1963 C1964 1.349 . S
C1963 C1965 1.327 . S
C1963 H1986 0.950 . S
C1964 C1963 1.349 . S
C1964 C1976 1.349 . S
C1965 C1963 1.327 . S
C1965 C1981 1.429 . S
C1965 H1987 0.950 . S
C1966 H1962 0.949 . S
C1966 C1974 1.574 . S
C1966 C1982 1.368 . S
H1967 C1975 0.950 . S
H1968 C1973 0.950 . S
H1969 C1974 0.949 . S
H1970 C1976 0.950 . S
H1971 C1977 0.950 . S
H1972 C1978 0.949 . S
C1973 H1968 0.950 . S
C1973 C1975 1.327 . S
C1973 C1979 1.429 . S
C1974 C1966 1.574 . S
C1974 H1969 0.949 . S
C1974 C1980 1.368 . S
C1975 C1959 1.349 . S
C1975 H1967 0.950 . S
C1975 C1973 1.327 . S
C1976 C1964 1.349 . S
C1976 H1970 0.950 . S
C1976 C1977 1.327 . S
C1977 H1971 0.950 . S
C1977 C1976 1.327 . S
C1977 C1981 1.429 . S
C1978 C1961 1.574 . S
C1978 H1972 0.949 . S
C1978 C1982 1.368 . S
C1979 C1960 1.429 . S
C1979 C1973 1.429 . S
C1979 C1980 1.523 . S
C1980 C1961 1.368 . S
C1980 C1974 1.368 . S
C1980 C1979 1.523 . S
C1981 C1965 1.429 . S
C1981 C1977 1.429 . S
C1981 C1982 1.523 . S
C1982 C1966 1.368 . S
C1982 C1978 1.368 . S
C1982 C1981 1.523 . S
H1983 C1958 0.950 . S
H1984 C1960 0.950 . S
H1985 C1961 0.949 . S
H1986 C1963 0.950 . S
H1987 C1965 0.950 . S
C1988 C1989 1.349 . S
C1988 C1990 1.327 . S
C1988 H2013 0.950 . S
C1989 C1988 1.349 . S
C1989 C2005 1.349 . S
C1990 C1988 1.327 . S
C1990 C2009 1.429 . S
C1990 H2014 0.950 . S
C1991 C2008 1.574 . S
C1991 C2010 1.368 . S
C1991 H2015 0.949 . S
H1992 C1996 0.949 . S
C1993 C1994 1.349 . S
C1993 C1995 1.327 . S
C1993 H2016 0.950 . S
C1994 C1993 1.349 . S
C1994 C2006 1.349 . S
C1995 C1993 1.327 . S
C1995 C2011 1.429 . S
C1995 H2017 0.950 . S
C1996 H1992 0.949 . S
C1996 C2004 1.574 . S
C1996 C2012 1.368 . S
H1997 C2005 0.950 . S
H1998 C2003 0.950 . S
H1999 C2004 0.949 . S
H2000 C2006 0.950 . S
H2001 C2007 0.950 . S
H2002 C2008 0.949 . S
C2003 H1998 0.950 . S
C2003 C2005 1.327 . S
C2003 C2009 1.429 . S
C2004 C1996 1.574 . S
C2004 H1999 0.949 . S
C2004 C2010 1.368 . S
C2005 C1989 1.349 . S
C2005 H1997 0.950 . S
C2005 C2003 1.327 . S
C2006 C1994 1.349 . S
C2006 H2000 0.950 . S
C2006 C2007 1.327 . S
C2007 H2001 0.950 . S
C2007 C2006 1.327 . S
C2007 C2011 1.429 . S
C2008 C1991 1.574 . S
C2008 H2002 0.949 . S
C2008 C2012 1.368 . S
C2009 C1990 1.429 . S
C2009 C2003 1.429 . S
C2009 C2010 1.523 . S
C2010 C1991 1.368 . S
C2010 C2004 1.368 . S
C2010 C2009 1.523 . S
C2011 C1995 1.429 . S
C2011 C2007 1.429 . S
C2011 C2012 1.523 . S
C2012 C1996 1.368 . S
C2012 C2008 1.368 . S
C2012 C2011 1.523 . S
H2013 C1988 0.950 . S
H2014 C1990 0.950 . S
H2015 C1991 0.949 . S
H2016 C1993 0.950 . S
H2017 C1995 0.950 . S
C2018 C2019 1.349 . S
C2018 C2020 1.327 . S
C2018 H2043 0.950 . S
C2019 C2018 1.349 . S
C2019 C2035 1.349 . S
C2020 C2018 1.327 . S
C2020 C2039 1.429 . S
C2020 H2044 0.950 . S
C2021 C2038 1.574 . S
C2021 C2040 1.368 . S
C2021 H2045 0.949 . S
H2022 C2026 0.949 . S
C2023 C2024 1.349 . S
C2023 C2025 1.327 . S
C2023 H2046 0.950 . S
C2024 C2023 1.349 . S
C2024 C2036 1.349 . S
C2025 C2023 1.327 . S
C2025 C2041 1.429 . S
C2025 H2047 0.950 . S
C2026 H2022 0.949 . S
C2026 C2034 1.574 . S
C2026 C2042 1.368 . S
H2027 C2035 0.950 . S
H2028 C2033 0.950 . S
H2029 C2034 0.949 . S
H2030 C2036 0.950 . S
H2031 C2037 0.950 . S
H2032 C2038 0.949 . S
C2033 H2028 0.950 . S
C2033 C2035 1.327 . S
C2033 C2039 1.429 . S
C2034 C2026 1.574 . S
C2034 H2029 0.949 . S
C2034 C2040 1.368 . S
C2035 C2019 1.349 . S
C2035 H2027 0.950 . S
C2035 C2033 1.327 . S
C2036 C2024 1.349 . S
C2036 H2030 0.950 . S
C2036 C2037 1.327 . S
C2037 H2031 0.950 . S
C2037 C2036 1.327 . S
C2037 C2041 1.429 . S
C2038 C2021 1.574 . S
C2038 H2032 0.949 . S
C2038 C2042 1.368 . S
C2039 C2020 1.429 . S
C2039 C2033 1.429 . S
C2039 C2040 1.523 . S
C2040 C2021 1.368 . S
C2040 C2034 1.368 . S
C2040 C2039 1.523 . S
C2041 C2025 1.429 . S
C2041 C2037 1.429 . S
C2041 C2042 1.523 . S
C2042 C2026 1.368 . S
C2042 C2038 1.368 . S
C2042 C2041 1.523 . S
H2043 C2018 0.950 . S
H2044 C2020 0.950 . S
H2045 C2021 0.949 . S
H2046 C2023 0.950 . S
H2047 C2025 0.950 . S
C2048 C2049 1.349 . S
C2048 C2050 1.327 . S
C2048 H2073 0.950 . S
C2049 C2048 1.349 . S
C2049 C2065 1.349 . S
C2050 C2048 1.327 . S
C2050 C2069 1.429 . S
C2050 H2074 0.950 . S
C2051 C2068 1.574 . S
C2051 C2070 1.368 . S
C2051 H2075 0.949 . S
H2052 C2056 0.949 . S
C2053 C2054 1.349 . S
C2053 C2055 1.327 . S
C2053 H2076 0.950 . S
C2054 C2053 1.349 . S
C2054 C2066 1.349 . S
C2055 C2053 1.327 . S
C2055 C2071 1.429 . S
C2055 H2077 0.950 . S
C2056 H2052 0.949 . S
C2056 C2064 1.574 . S
C2056 C2072 1.368 . S
H2057 C2065 0.950 . S
H2058 C2063 0.950 . S
H2059 C2064 0.949 . S
H2060 C2066 0.950 . S
H2061 C2067 0.950 . S
H2062 C2068 0.949 . S
C2063 H2058 0.950 . S
C2063 C2065 1.327 . S
C2063 C2069 1.429 . S
C2064 C2056 1.574 . S
C2064 H2059 0.949 . S
C2064 C2070 1.368 . S
C2065 C2049 1.349 . S
C2065 H2057 0.950 . S
C2065 C2063 1.327 . S
C2066 C2054 1.349 . S
C2066 H2060 0.950 . S
C2066 C2067 1.327 . S
C2067 H2061 0.950 . S
C2067 C2066 1.327 . S
C2067 C2071 1.429 . S
C2068 C2051 1.574 . S
C2068 H2062 0.949 . S
C2068 C2072 1.368 . S
C2069 C2050 1.429 . S
C2069 C2063 1.429 . S
C2069 C2070 1.523 . S
C2070 C2051 1.368 . S
C2070 C2064 1.368 . S
C2070 C2069 1.523 . S
C2071 C2055 1.429 . S
C2071 C2067 1.429 . S
C2071 C2072 1.523 . S
C2072 C2056 1.368 . S
C2072 C2068 1.368 . S
C2072 C2071 1.523 . S
H2073 C2048 0.950 . S
H2074 C2050 0.950 . S
H2075 C2051 0.949 . S
H2076 C2053 0.950 . S
H2077 C2055 0.950 . S
C2078 C2079 1.349 . S
C2078 C2080 1.327 . S
C2078 H2103 0.950 . S
C2079 C2078 1.349 . S
C2079 C2095 1.327 1_565 S
C2080 C2078 1.327 . S
C2080 C2099 1.429 . S
C2080 H2104 0.950 . S
C2081 C2098 1.574 . S
C2081 C2100 1.368 1_545 S
C2081 H2105 0.949 . S
H2082 C2086 0.949 . S
C2083 C2084 1.349 . S
C2083 C2085 1.327 . S
C2083 H2106 0.950 . S
C2084 C2083 1.349 . S
C2084 C2096 1.327 1_545 S
C2085 C2083 1.327 . S
C2085 C2101 1.429 . S
C2085 H2107 0.950 . S
C2086 H2082 0.949 . S
C2086 C2094 1.574 . S
C2086 C2102 1.368 1_565 S
H2087 C2095 0.966 . S
H2088 C2093 0.950 . S
H2089 C2094 0.949 . S
H2090 C2096 0.966 . S
H2091 C2097 0.950 . S
H2092 C2098 0.949 . S
C2093 H2088 0.950 . S
C2093 C2095 1.333 . S
C2093 C2099 1.429 1_545 S
C2094 C2086 1.574 . S
C2094 H2089 0.949 . S
C2094 C2100 1.368 . S
C2095 C2079 1.327 1_545 S
C2095 H2087 0.966 . S
C2095 C2093 1.333 . S
C2096 C2084 1.327 1_565 S
C2096 H2090 0.966 . S
C2096 C2097 1.333 . S
C2097 H2091 0.950 . S
C2097 C2096 1.333 . S
C2097 C2101 1.429 1_565 S
C2098 C2081 1.574 . S
C2098 H2092 0.949 . S
C2098 C2102 1.368 . S
C2099 C2080 1.429 . S
C2099 C2093 1.429 1_565 S
C2099 C2100 1.523 . S
C2100 C2081 1.368 1_565 S
C2100 C2094 1.368 . S
C2100 C2099 1.523 . S
C2101 C2085 1.429 . S
C2101 C2097 1.429 1_545 S
C2101 C2102 1.523 . S
C2102 C2086 1.368 1_545 S
C2102 C2098 1.368 . S
C2102 C2101 1.523 . S
H2103 C2078 0.950 . S
H2104 C2080 0.950 . S
H2105 C2081 0.949 . S
H2106 C2083 0.950 . S
H2107 C2085 0.950 . S
C2108 C2109 1.349 . S
C2108 C2110 1.327 . S
C2108 H2133 0.950 . S
C2109 C2108 1.349 . S
C2109 C2125 1.349 . S
C2110 C2108 1.327 . S
C2110 C2129 1.429 . S
C2110 H2134 0.950 . S
C2111 C2128 1.574 . S
C2111 C2130 1.368 . S
C2111 H2135 0.949 . S
H2112 C2116 0.949 . S
C2113 C2114 1.349 . S
C2113 C2115 1.327 . S
C2113 H2136 0.950 . S
C2114 C2113 1.349 . S
C2114 C2126 1.349 . S
C2115 C2113 1.327 . S
C2115 C2131 1.429 . S
C2115 H2137 0.950 . S
C2116 H2112 0.949 . S
C2116 C2124 1.574 . S
C2116 C2132 1.368 . S
H2117 C2125 0.950 . S
H2118 C2123 0.950 . S
H2119 C2124 0.949 . S
H2120 C2126 0.950 . S
H2121 C2127 0.950 . S
H2122 C2128 0.949 . S
C2123 H2118 0.950 . S
C2123 C2125 1.327 . S
C2123 C2129 1.429 . S
C2124 C2116 1.574 . S
C2124 H2119 0.949 . S
C2124 C2130 1.368 . S
C2125 C2109 1.349 . S
C2125 H2117 0.950 . S
C2125 C2123 1.327 . S
C2126 C2114 1.349 . S
C2126 H2120 0.950 . S
C2126 C2127 1.327 . S
C2127 H2121 0.950 . S
C2127 C2126 1.327 . S
C2127 C2131 1.429 . S
C2128 C2111 1.574 . S
C2128 H2122 0.949 . S
C2128 C2132 1.368 . S
C2129 C2110 1.429 . S
C2129 C2123 1.429 . S
C2129 C2130 1.523 . S
C2130 C2111 1.368 . S
C2130 C2124 1.368 . S
C2130 C2129 1.523 . S
C2131 C2115 1.429 . S
C2131 C2127 1.429 . S
C2131 C2132 1.523 . S
C2132 C2116 1.368 . S
C2132 C2128 1.368 . S
C2132 C2131 1.523 . S
H2133 C2108 0.950 . S
H2134 C2110 0.950 . S
H2135 C2111 0.949 . S
H2136 C2113 0.950 . S
H2137 C2115 0.950 . S
C2138 C2139 1.349 . S
C2138 C2140 1.327 . S
C2138 H2163 0.950 . S
C2139 C2138 1.349 . S
C2139 C2155 1.345 1_545 S
C2140 C2138 1.327 . S
C2140 C2159 1.429 . S
C2140 H2164 0.950 . S
C2141 C2158 1.574 1_556 S
C2141 C2160 1.368 1_565 S
C2141 H2165 0.949 . S
H2142 C2146 0.949 . S
C2143 C2144 1.349 . S
C2143 C2145 1.327 . S
C2143 H2166 0.950 . S
C2144 C2143 1.349 . S
C2144 C2156 1.345 1_565 S
C2145 C2143 1.327 . S
C2145 C2161 1.429 . S
C2145 H2167 0.950 . S
C2146 H2142 0.949 . S
C2146 C2154 1.574 1_554 S
C2146 C2162 1.368 1_545 S
H2147 C2155 0.952 . S
H2148 C2153 0.950 . S
H2149 C2154 0.949 . S
H2150 C2156 0.952 . S
H2151 C2157 0.950 . S
H2152 C2158 0.949 . S
C2153 H2148 0.950 . S
C2153 C2155 1.328 . S
C2153 C2159 1.429 1_565 S
C2154 C2146 1.574 1_556 S
C2154 H2149 0.949 . S
C2154 C2160 1.368 . S
C2155 C2139 1.345 1_565 S
C2155 H2147 0.952 . S
C2155 C2153 1.328 . S
C2156 C2144 1.345 1_545 S
C2156 H2150 0.952 . S
C2156 C2157 1.328 . S
C2157 H2151 0.950 . S
C2157 C2156 1.328 . S
C2157 C2161 1.429 1_545 S
C2158 C2141 1.574 1_554 S
C2158 H2152 0.949 . S
C2158 C2162 1.368 . S
C2159 C2140 1.429 . S
C2159 C2153 1.429 1_545 S
C2159 C2160 1.523 . S
C2160 C2141 1.368 1_545 S
C2160 C2154 1.368 . S
C2160 C2159 1.523 . S
C2161 C2145 1.429 . S
C2161 C2157 1.429 1_565 S
C2161 C2162 1.523 . S
C2162 C2146 1.368 1_565 S
C2162 C2158 1.368 . S
C2162 C2161 1.523 . S
H2163 C2138 0.950 . S
H2164 C2140 0.950 . S
H2165 C2141 0.949 . S
H2166 C2143 0.950 . S
H2167 C2145 0.950 . S
C2168 C2169 1.349 . S
C2168 C2170 1.327 . S
C2168 H2193 0.950 . S
C2169 C2168 1.349 . S
C2169 C2185 1.349 . S
C2170 C2168 1.327 . S
C2170 C2189 1.429 . S
C2170 H2194 0.950 . S
C2171 C2188 1.574 . S
C2171 C2190 1.368 . S
C2171 H2195 0.949 . S
H2172 C2176 0.949 . S
C2173 C2174 1.349 . S
C2173 C2175 1.327 . S
C2173 H2196 0.950 . S
C2174 C2173 1.349 . S
C2174 C2186 1.349 . S
C2175 C2173 1.327 . S
C2175 C2191 1.429 . S
C2175 H2197 0.950 . S
C2176 H2172 0.949 . S
C2176 C2184 1.574 . S
C2176 C2192 1.368 . S
H2177 C2185 0.950 . S
H2178 C2183 0.950 . S
H2179 C2184 0.949 . S
H2180 C2186 0.950 . S
H2181 C2187 0.950 . S
H2182 C2188 0.949 . S
C2183 H2178 0.950 . S
C2183 C2185 1.327 . S
C2183 C2189 1.429 . S
C2184 C2176 1.574 . S
C2184 H2179 0.949 . S
C2184 C2190 1.368 . S
C2185 C2169 1.349 . S
C2185 H2177 0.950 . S
C2185 C2183 1.327 . S
C2186 C2174 1.349 . S
C2186 H2180 0.950 . S
C2186 C2187 1.327 . S
C2187 H2181 0.950 . S
C2187 C2186 1.327 . S
C2187 C2191 1.429 . S
C2188 C2171 1.574 . S
C2188 H2182 0.949 . S
C2188 C2192 1.368 . S
C2189 C2170 1.429 . S
C2189 C2183 1.429 . S
C2189 C2190 1.523 . S
C2190 C2171 1.368 . S
C2190 C2184 1.368 . S
C2190 C2189 1.523 . S
C2191 C2175 1.429 . S
C2191 C2187 1.429 . S
C2191 C2192 1.523 . S
C2192 C2176 1.368 . S
C2192 C2188 1.368 . S
C2192 C2191 1.523 . S
H2193 C2168 0.950 . S
H2194 C2170 0.950 . S
H2195 C2171 0.949 . S
H2196 C2173 0.950 . S
H2197 C2175 0.950 . S
C2198 C2199 1.342 1_545 S
C2198 C2200 1.329 . S
C2198 H2223 0.955 . S
C2199 C2198 1.342 1_565 S
C2199 C2215 1.349 . S
C2200 C2198 1.329 . S
C2200 C2219 1.429 1_545 S
C2200 H2224 0.950 . S
C2201 C2218 1.574 . S
C2201 C2220 1.368 . S
C2201 H2225 0.949 . S
H2202 C2206 0.949 . S
C2203 C2204 1.342 1_565 S
C2203 C2205 1.329 . S
C2203 H2226 0.955 . S
C2204 C2203 1.342 1_545 S
C2204 C2216 1.349 . S
C2205 C2203 1.329 . S
C2205 C2221 1.429 1_565 S
C2205 H2227 0.950 . S
C2206 H2202 0.949 . S
C2206 C2214 1.574 . S
C2206 C2222 1.368 . S
H2207 C2215 0.950 . S
H2208 C2213 0.950 . S
H2209 C2214 0.949 . S
H2210 C2216 0.950 . S
H2211 C2217 0.950 . S
H2212 C2218 0.949 . S
C2213 H2208 0.950 . S
C2213 C2215 1.327 . S
C2213 C2219 1.429 . S
C2214 C2206 1.574 . S
C2214 H2209 0.949 . S
C2214 C2220 1.368 1_545 S
C2215 C2199 1.349 . S
C2215 H2207 0.950 . S
C2215 C2213 1.327 . S
C2216 C2204 1.349 . S
C2216 H2210 0.950 . S
C2216 C2217 1.327 . S
C2217 H2211 0.950 . S
C2217 C2216 1.327 . S
C2217 C2221 1.429 . S
C2218 C2201 1.574 . S
C2218 H2212 0.949 . S
C2218 C2222 1.368 1_565 S
C2219 C2200 1.429 1_565 S
C2219 C2213 1.429 . S
C2219 C2220 1.523 . S
C2220 C2201 1.368 . S
C2220 C2214 1.368 1_565 S
C2220 C2219 1.523 . S
C2221 C2205 1.429 1_545 S
C2221 C2217 1.429 . S
C2221 C2222 1.523 . S
C2222 C2206 1.368 . S
C2222 C2218 1.368 1_545 S
C2222 C2221 1.523 . S
H2223 C2198 0.955 . S
H2224 C2200 0.950 . S
H2225 C2201 0.949 . S
H2226 C2203 0.955 . S
H2227 C2205 0.950 . S
C2228 C2229 1.349 . S
C2228 C2230 1.327 . S
C2228 H2253 0.950 . S
C2229 C2228 1.349 . S
C2229 C2245 1.349 . S
C2230 C2228 1.327 . S
C2230 C2249 1.429 . S
C2230 H2254 0.950 . S
C2231 C2248 1.574 . S
C2231 C2250 1.368 . S
C2231 H2255 0.949 . S
H2232 C2236 0.949 . S
C2233 C2234 1.349 . S
C2233 C2235 1.327 . S
C2233 H2256 0.950 . S
C2234 C2233 1.349 . S
C2234 C2246 1.349 . S
C2235 C2233 1.327 . S
C2235 C2251 1.429 . S
C2235 H2257 0.950 . S
C2236 H2232 0.949 . S
C2236 C2244 1.574 . S
C2236 C2252 1.368 . S
H2237 C2245 0.950 . S
H2238 C2243 0.950 . S
H2239 C2244 0.949 . S
H2240 C2246 0.950 . S
H2241 C2247 0.950 . S
H2242 C2248 0.949 . S
C2243 H2238 0.950 . S
C2243 C2245 1.327 . S
C2243 C2249 1.429 . S
C2244 C2236 1.574 . S
C2244 H2239 0.949 . S
C2244 C2250 1.368 . S
C2245 C2229 1.349 . S
C2245 H2237 0.950 . S
C2245 C2243 1.327 . S
C2246 C2234 1.349 . S
C2246 H2240 0.950 . S
C2246 C2247 1.327 . S
C2247 H2241 0.950 . S
C2247 C2246 1.327 . S
C2247 C2251 1.429 . S
C2248 C2231 1.574 . S
C2248 H2242 0.949 . S
C2248 C2252 1.368 . S
C2249 C2230 1.429 . S
C2249 C2243 1.429 . S
C2249 C2250 1.523 . S
C2250 C2231 1.368 . S
C2250 C2244 1.368 . S
C2250 C2249 1.523 . S
C2251 C2235 1.429 . S
C2251 C2247 1.429 . S
C2251 C2252 1.523 . S
C2252 C2236 1.368 . S
C2252 C2248 1.368 . S
C2252 C2251 1.523 . S
H2253 C2228 0.950 . S
H2254 C2230 0.950 . S
H2255 C2231 0.949 . S
H2256 C2233 0.950 . S
H2257 C2235 0.950 . S
C2258 C2259 1.296 1_565 S
C2258 C2260 1.342 . S
C2258 H2283 0.992 . S
C2259 C2258 1.296 1_545 S
C2259 C2275 1.349 . S
C2260 C2258 1.342 . S
C2260 C2279 1.429 1_565 S
C2260 H2284 0.950 . S
C2261 C2278 1.574 1_556 S
C2261 C2280 1.368 . S
C2261 H2285 0.949 . S
H2262 C2266 0.949 . S
C2263 C2264 1.296 1_545 S
C2263 C2265 1.342 . S
C2263 H2286 0.992 . S
C2264 C2263 1.296 1_565 S
C2264 C2276 1.349 . S
C2265 C2263 1.342 . S
C2265 C2281 1.429 1_545 S
C2265 H2287 0.950 . S
C2266 H2262 0.949 . S
C2266 C2274 1.574 1_554 S
C2266 C2282 1.368 . S
H2267 C2275 0.950 . S
H2268 C2273 0.950 . S
H2269 C2274 0.949 . S
H2270 C2276 0.950 . S
H2271 C2277 0.950 . S
H2272 C2278 0.949 . S
C2273 H2268 0.950 . S
C2273 C2275 1.327 . S
C2273 C2279 1.429 . S
C2274 C2266 1.574 1_556 S
C2274 H2269 0.949 . S
C2274 C2280 1.368 1_565 S
C2275 C2259 1.349 . S
C2275 H2267 0.950 . S
C2275 C2273 1.327 . S
C2276 C2264 1.349 . S
C2276 H2270 0.950 . S
C2276 C2277 1.327 . S
C2277 H2271 0.950 . S
C2277 C2276 1.327 . S
C2277 C2281 1.429 . S
C2278 C2261 1.574 1_554 S
C2278 H2272 0.949 . S
C2278 C2282 1.368 1_545 S
C2279 C2260 1.429 1_545 S
C2279 C2273 1.429 . S
C2279 C2280 1.523 . S
C2280 C2261 1.368 . S
C2280 C2274 1.368 1_545 S
C2280 C2279 1.523 . S
C2281 C2265 1.429 1_565 S
C2281 C2277 1.429 . S
C2281 C2282 1.523 . S
C2282 C2266 1.368 . S
C2282 C2278 1.368 1_565 S
C2282 C2281 1.523 . S
H2283 C2258 0.992 . S
H2284 C2260 0.950 . S
H2285 C2261 0.949 . S
H2286 C2263 0.992 . S
H2287 C2265 0.950 . S
C2288 C2289 1.349 . S
C2288 C2290 1.327 . S
C2288 H2313 0.950 . S
C2289 C2288 1.349 . S
C2289 C2305 1.349 . S
C2290 C2288 1.327 . S
C2290 C2309 1.429 . S
C2290 H2314 0.950 . S
C2291 C2308 1.574 . S
C2291 C2310 1.368 . S
C2291 H2315 0.949 . S
H2292 C2296 0.949 . S
C2293 C2294 1.349 . S
C2293 C2295 1.327 . S
C2293 H2316 0.950 . S
C2294 C2293 1.349 . S
C2294 C2306 1.349 . S
C2295 C2293 1.327 . S
C2295 C2311 1.429 . S
C2295 H2317 0.950 . S
C2296 H2292 0.949 . S
C2296 C2304 1.574 . S
C2296 C2312 1.368 . S
H2297 C2305 0.950 . S
H2298 C2303 0.950 . S
H2299 C2304 0.949 . S
H2300 C2306 0.950 . S
H2301 C2307 0.950 . S
H2302 C2308 0.949 . S
C2303 H2298 0.950 . S
C2303 C2305 1.327 . S
C2303 C2309 1.429 . S
C2304 C2296 1.574 . S
C2304 H2299 0.949 . S
C2304 C2310 1.368 . S
C2305 C2289 1.349 . S
C2305 H2297 0.950 . S
C2305 C2303 1.327 . S
C2306 C2294 1.349 . S
C2306 H2300 0.950 . S
C2306 C2307 1.327 . S
C2307 H2301 0.950 . S
C2307 C2306 1.327 . S
C2307 C2311 1.429 . S
C2308 C2291 1.574 . S
C2308 H2302 0.949 . S
C2308 C2312 1.368 . S
C2309 C2290 1.429 . S
C2309 C2303 1.429 . S
C2309 C2310 1.523 . S
C2310 C2291 1.368 . S
C2310 C2304 1.368 . S
C2310 C2309 1.523 . S
C2311 C2295 1.429 . S
C2311 C2307 1.429 . S
C2311 C2312 1.523 . S
C2312 C2296 1.368 . S
C2312 C2308 1.368 . S
C2312 C2311 1.523 . S
H2313 C2288 0.950 . S
H2314 C2290 0.950 . S
H2315 C2291 0.949 . S
H2316 C2293 0.950 . S
H2317 C2295 0.950 . S
C2318 C2319 1.349 . S
C2318 C2320 1.327 . S
C2318 H2343 0.950 . S
C2319 C2318 1.349 . S
C2319 C2335 1.349 . S
C2320 C2318 1.327 . S
C2320 C2339 1.429 . S
C2320 H2344 0.950 . S
C2321 C2338 1.574 1_556 S
C2321 C2340 1.368 . S
C2321 H2345 0.949 . S
H2322 C2326 0.949 . S
C2323 C2324 1.349 . S
C2323 C2325 1.327 . S
C2323 H2346 0.950 . S
C2324 C2323 1.349 . S
C2324 C2336 1.349 . S
C2325 C2323 1.327 . S
C2325 C2341 1.429 . S
C2325 H2347 0.950 . S
C2326 H2322 0.949 . S
C2326 C2334 1.574 1_554 S
C2326 C2342 1.368 . S
H2327 C2335 0.950 . S
H2328 C2333 0.950 . S
H2329 C2334 0.949 . S
H2330 C2336 0.950 . S
H2331 C2337 0.950 . S
H2332 C2338 0.949 . S
C2333 H2328 0.950 . S
C2333 C2335 1.327 . S
C2333 C2339 1.429 . S
C2334 C2326 1.574 1_556 S
C2334 H2329 0.949 . S
C2334 C2340 1.368 . S
C2335 C2319 1.349 . S
C2335 H2327 0.950 . S
C2335 C2333 1.327 . S
C2336 C2324 1.349 . S
C2336 H2330 0.950 . S
C2336 C2337 1.327 . S
C2337 H2331 0.950 . S
C2337 C2336 1.327 . S
C2337 C2341 1.429 . S
C2338 C2321 1.574 1_554 S
C2338 H2332 0.949 . S
C2338 C2342 1.368 . S
C2339 C2320 1.429 . S
C2339 C2333 1.429 . S
C2339 C2340 1.523 . S
C2340 C2321 1.368 . S
C2340 C2334 1.368 . S
C2340 C2339 1.523 . S
C2341 C2325 1.429 . S
C2341 C2337 1.429 . S
C2341 C2342 1.523 . S
C2342 C2326 1.368 . S
C2342 C2338 1.368 . S
C2342 C2341 1.523 . S
H2343 C2318 0.950 . S
H2344 C2320 0.950 . S
H2345 C2321 0.949 . S
H2346 C2323 0.950 . S
H2347 C2325 0.950 . S
C2348 C2349 1.349 . S
C2348 C2350 1.327 . S
C2348 H2373 0.950 . S
C2349 C2348 1.349 . S
C2349 C2365 1.349 . S
C2350 C2348 1.327 . S
C2350 C2369 1.429 . S
C2350 H2374 0.950 . S
C2351 C2368 1.574 . S
C2351 C2370 1.368 . S
C2351 H2375 0.949 . S
H2352 C2356 0.949 . S
C2353 C2354 1.349 . S
C2353 C2355 1.327 . S
C2353 H2376 0.950 . S
C2354 C2353 1.349 . S
C2354 C2366 1.349 . S
C2355 C2353 1.327 . S
C2355 C2371 1.429 . S
C2355 H2377 0.950 . S
C2356 H2352 0.949 . S
C2356 C2364 1.574 . S
C2356 C2372 1.368 . S
H2357 C2365 0.950 . S
H2358 C2363 0.950 . S
H2359 C2364 0.949 . S
H2360 C2366 0.950 . S
H2361 C2367 0.950 . S
H2362 C2368 0.949 . S
C2363 H2358 0.950 . S
C2363 C2365 1.327 . S
C2363 C2369 1.429 . S
C2364 C2356 1.574 . S
C2364 H2359 0.949 . S
C2364 C2370 1.368 . S
C2365 C2349 1.349 . S
C2365 H2357 0.950 . S
C2365 C2363 1.327 . S
C2366 C2354 1.349 . S
C2366 H2360 0.950 . S
C2366 C2367 1.327 . S
C2367 H2361 0.950 . S
C2367 C2366 1.327 . S
C2367 C2371 1.429 . S
C2368 C2351 1.574 . S
C2368 H2362 0.949 . S
C2368 C2372 1.368 . S
C2369 C2350 1.429 . S
C2369 C2363 1.429 . S
C2369 C2370 1.523 . S
C2370 C2351 1.368 . S
C2370 C2364 1.368 . S
C2370 C2369 1.523 . S
C2371 C2355 1.429 . S
C2371 C2367 1.429 . S
C2371 C2372 1.523 . S
C2372 C2356 1.368 . S
C2372 C2368 1.368 . S
C2372 C2371 1.523 . S
H2373 C2348 0.950 . S
H2374 C2350 0.950 . S
H2375 C2351 0.949 . S
H2376 C2353 0.950 . S
H2377 C2355 0.950 . S
C2378 C2379 1.349 . S
C2378 C2380 1.327 . S
C2378 H2403 0.950 . S
C2379 C2378 1.349 . S
C2379 C2395 1.349 . S
C2380 C2378 1.327 . S
C2380 C2399 1.429 . S
C2380 H2404 0.950 . S
C2381 C2398 1.574 . S
C2381 C2400 1.368 . S
C2381 H2405 0.949 . S
H2382 C2386 0.949 . S
C2383 C2384 1.349 . S
C2383 C2385 1.327 . S
C2383 H2406 0.950 . S
C2384 C2383 1.349 . S
C2384 C2396 1.349 . S
C2385 C2383 1.327 . S
C2385 C2401 1.429 . S
C2385 H2407 0.950 . S
C2386 H2382 0.949 . S
C2386 C2394 1.574 . S
C2386 C2402 1.368 . S
H2387 C2395 0.950 . S
H2388 C2393 0.950 . S
H2389 C2394 0.949 . S
H2390 C2396 0.950 . S
H2391 C2397 0.950 . S
H2392 C2398 0.949 . S
C2393 H2388 0.950 . S
C2393 C2395 1.327 . S
C2393 C2399 1.429 . S
C2394 C2386 1.574 . S
C2394 H2389 0.949 . S
C2394 C2400 1.368 . S
C2395 C2379 1.349 . S
C2395 H2387 0.950 . S
C2395 C2393 1.327 . S
C2396 C2384 1.349 . S
C2396 H2390 0.950 . S
C2396 C2397 1.327 . S
C2397 H2391 0.950 . S
C2397 C2396 1.327 . S
C2397 C2401 1.429 . S
C2398 C2381 1.574 . S
C2398 H2392 0.949 . S
C2398 C2402 1.368 . S
C2399 C2380 1.429 . S
C2399 C2393 1.429 . S
C2399 C2400 1.523 . S
C2400 C2381 1.368 . S
C2400 C2394 1.368 . S
C2400 C2399 1.523 . S
C2401 C2385 1.429 . S
C2401 C2397 1.429 . S
C2401 C2402 1.523 . S
C2402 C2386 1.368 . S
C2402 C2398 1.368 . S
C2402 C2401 1.523 . S
H2403 C2378 0.950 . S
H2404 C2380 0.950 . S
H2405 C2381 0.949 . S
H2406 C2383 0.950 . S
H2407 C2385 0.950 . S
C2408 C2409 1.349 . S
C2408 C2410 1.327 . S
C2408 H2433 0.950 . S
C2409 C2408 1.349 . S
C2409 C2425 1.349 . S
C2410 C2408 1.327 . S
C2410 C2429 1.429 . S
C2410 H2434 0.950 . S
C2411 C2428 1.574 . S
C2411 C2430 1.368 . S
C2411 H2435 0.949 . S
H2412 C2416 0.949 . S
C2413 C2414 1.349 . S
C2413 C2415 1.327 . S
C2413 H2436 0.950 . S
C2414 C2413 1.349 . S
C2414 C2426 1.349 . S
C2415 C2413 1.327 . S
C2415 C2431 1.429 . S
C2415 H2437 0.950 . S
C2416 H2412 0.949 . S
C2416 C2424 1.574 . S
C2416 C2432 1.368 . S
H2417 C2425 0.950 . S
H2418 C2423 0.950 . S
H2419 C2424 0.949 . S
H2420 C2426 0.950 . S
H2421 C2427 0.950 . S
H2422 C2428 0.949 . S
C2423 H2418 0.950 . S
C2423 C2425 1.327 . S
C2423 C2429 1.429 . S
C2424 C2416 1.574 . S
C2424 H2419 0.949 . S
C2424 C2430 1.368 . S
C2425 C2409 1.349 . S
C2425 H2417 0.950 . S
C2425 C2423 1.327 . S
C2426 C2414 1.349 . S
C2426 H2420 0.950 . S
C2426 C2427 1.327 . S
C2427 H2421 0.950 . S
C2427 C2426 1.327 . S
C2427 C2431 1.429 . S
C2428 C2411 1.574 . S
C2428 H2422 0.949 . S
C2428 C2432 1.368 . S
C2429 C2410 1.429 . S
C2429 C2423 1.429 . S
C2429 C2430 1.523 . S
C2430 C2411 1.368 . S
C2430 C2424 1.368 . S
C2430 C2429 1.523 . S
C2431 C2415 1.429 . S
C2431 C2427 1.429 . S
C2431 C2432 1.523 . S
C2432 C2416 1.368 . S
C2432 C2428 1.368 . S
C2432 C2431 1.523 . S
H2433 C2408 0.950 . S
H2434 C2410 0.950 . S
H2435 C2411 0.949 . S
H2436 C2413 0.950 . S
H2437 C2415 0.950 . S
C2438 C2439 1.349 . S
C2438 C2440 1.327 . S
C2438 H2463 0.950 . S
C2439 C2438 1.349 . S
C2439 C2455 1.349 . S
C2440 C2438 1.327 . S
C2440 C2459 1.429 . S
C2440 H2464 0.950 . S
C2441 C2458 1.574 1_556 S
C2441 C2460 1.368 . S
C2441 H2465 0.949 . S
H2442 C2446 0.949 . S
C2443 C2444 1.349 . S
C2443 C2445 1.327 . S
C2443 H2466 0.950 . S
C2444 C2443 1.349 . S
C2444 C2456 1.349 . S
C2445 C2443 1.327 . S
C2445 C2461 1.429 . S
C2445 H2467 0.950 . S
C2446 H2442 0.949 . S
C2446 C2454 1.574 1_554 S
C2446 C2462 1.368 . S
H2447 C2455 0.950 . S
H2448 C2453 0.950 . S
H2449 C2454 0.949 . S
H2450 C2456 0.950 . S
H2451 C2457 0.950 . S
H2452 C2458 0.949 . S
C2453 H2448 0.950 . S
C2453 C2455 1.327 . S
C2453 C2459 1.429 . S
C2454 C2446 1.574 1_556 S
C2454 H2449 0.949 . S
C2454 C2460 1.368 . S
C2455 C2439 1.349 . S
C2455 H2447 0.950 . S
C2455 C2453 1.327 . S
C2456 C2444 1.349 . S
C2456 H2450 0.950 . S
C2456 C2457 1.327 . S
C2457 H2451 0.950 . S
C2457 C2456 1.327 . S
C2457 C2461 1.429 . S
C2458 C2441 1.574 1_554 S
C2458 H2452 0.949 . S
C2458 C2462 1.368 . S
C2459 C2440 1.429 . S
C2459 C2453 1.429 . S
C2459 C2460 1.523 . S
C2460 C2441 1.368 . S
C2460 C2454 1.368 . S
C2460 C2459 1.523 . S
C2461 C2445 1.429 . S
C2461 C2457 1.429 . S
C2461 C2462 1.523 . S
C2462 C2446 1.368 . S
C2462 C2458 1.368 . S
C2462 C2461 1.523 . S
H2463 C2438 0.950 . S
H2464 C2440 0.950 . S
H2465 C2441 0.949 . S
H2466 C2443 0.950 . S
H2467 C2445 0.950 . S
C2468 C2469 1.349 . S
C2468 C2470 1.327 . S
C2468 H2493 0.950 . S
C2469 C2468 1.349 . S
C2469 C2485 1.349 . S
C2470 C2468 1.327 . S
C2470 C2489 1.429 . S
C2470 H2494 0.950 . S
C2471 C2488 1.574 . S
C2471 C2490 1.368 . S
C2471 H2495 0.949 . S
H2472 C2476 0.949 . S
C2473 C2474 1.349 . S
C2473 C2475 1.327 . S
C2473 H2496 0.950 . S
C2474 C2473 1.349 . S
C2474 C2486 1.349 . S
C2475 C2473 1.327 . S
C2475 C2491 1.429 . S
C2475 H2497 0.950 . S
C2476 H2472 0.949 . S
C2476 C2484 1.574 . S
C2476 C2492 1.368 . S
H2477 C2485 0.950 . S
H2478 C2483 0.950 . S
H2479 C2484 0.949 . S
H2480 C2486 0.950 . S
H2481 C2487 0.950 . S
H2482 C2488 0.949 . S
C2483 H2478 0.950 . S
C2483 C2485 1.327 . S
C2483 C2489 1.429 . S
C2484 C2476 1.574 . S
C2484 H2479 0.949 . S
C2484 C2490 1.368 . S
C2485 C2469 1.349 . S
C2485 H2477 0.950 . S
C2485 C2483 1.327 . S
C2486 C2474 1.349 . S
C2486 H2480 0.950 . S
C2486 C2487 1.327 . S
C2487 H2481 0.950 . S
C2487 C2486 1.327 . S
C2487 C2491 1.429 . S
C2488 C2471 1.574 . S
C2488 H2482 0.949 . S
C2488 C2492 1.368 . S
C2489 C2470 1.429 . S
C2489 C2483 1.429 . S
C2489 C2490 1.523 . S
C2490 C2471 1.368 . S
C2490 C2484 1.368 . S
C2490 C2489 1.523 . S
C2491 C2475 1.429 . S
C2491 C2487 1.429 . S
C2491 C2492 1.523 . S
C2492 C2476 1.368 . S
C2492 C2488 1.368 . S
C2492 C2491 1.523 . S
H2493 C2468 0.950 . S
H2494 C2470 0.950 . S
H2495 C2471 0.949 . S
H2496 C2473 0.950 . S
H2497 C2475 0.950 . S
C2498 C2499 1.349 . S
C2498 C2500 1.327 . S
C2498 H2523 0.950 . S
C2499 C2498 1.349 . S
C2499 C2515 1.349 . S
C2500 C2498 1.327 . S
C2500 C2519 1.429 . S
C2500 H2524 0.950 . S
C2501 C2518 1.574 . S
C2501 C2520 1.368 . S
C2501 H2525 0.949 . S
H2502 C2506 0.949 . S
C2503 C2504 1.349 . S
C2503 C2505 1.327 . S
C2503 H2526 0.950 . S
C2504 C2503 1.349 . S
C2504 C2516 1.349 . S
C2505 C2503 1.327 . S
C2505 C2521 1.429 . S
C2505 H2527 0.950 . S
C2506 H2502 0.949 . S
C2506 C2514 1.574 . S
C2506 C2522 1.368 . S
H2507 C2515 0.950 . S
H2508 C2513 0.950 . S
H2509 C2514 0.949 . S
H2510 C2516 0.950 . S
H2511 C2517 0.950 . S
H2512 C2518 0.949 . S
C2513 H2508 0.950 . S
C2513 C2515 1.327 . S
C2513 C2519 1.429 . S
C2514 C2506 1.574 . S
C2514 H2509 0.949 . S
C2514 C2520 1.368 . S
C2515 C2499 1.349 . S
C2515 H2507 0.950 . S
C2515 C2513 1.327 . S
C2516 C2504 1.349 . S
C2516 H2510 0.950 . S
C2516 C2517 1.327 . S
C2517 H2511 0.950 . S
C2517 C2516 1.327 . S
C2517 C2521 1.429 . S
C2518 C2501 1.574 . S
C2518 H2512 0.949 . S
C2518 C2522 1.368 . S
C2519 C2500 1.429 . S
C2519 C2513 1.429 . S
C2519 C2520 1.523 . S
C2520 C2501 1.368 . S
C2520 C2514 1.368 . S
C2520 C2519 1.523 . S
C2521 C2505 1.429 . S
C2521 C2517 1.429 . S
C2521 C2522 1.523 . S
C2522 C2506 1.368 . S
C2522 C2518 1.368 . S
C2522 C2521 1.523 . S
H2523 C2498 0.950 . S
H2524 C2500 0.950 . S
H2525 C2501 0.949 . S
H2526 C2503 0.950 . S
H2527 C2505 0.950 . S
C2528 C2529 1.349 . S
C2528 C2530 1.327 . S
C2528 H2553 0.950 . S
C2529 C2528 1.349 . S
C2529 C2545 1.349 1_545 S
C2530 C2528 1.327 . S
C2530 C2549 1.429 . S
C2530 H2554 0.950 . S
C2531 C2548 1.574 . S
C2531 C2550 1.368 . S
C2531 H2555 0.949 . S
H2532 C2536 0.949 . S
C2533 C2534 1.349 . S
C2533 C2535 1.327 . S
C2533 H2556 0.950 . S
C2534 C2533 1.349 . S
C2534 C2546 1.349 . S
C2535 C2533 1.327 . S
C2535 C2551 1.429 . S
C2535 H2557 0.950 . S
C2536 H2532 0.949 . S
C2536 C2544 1.574 . S
C2536 C2552 1.368 . S
H2537 C2545 0.950 . S
H2538 C2543 0.950 . S
H2539 C2544 0.949 . S
H2540 C2546 0.950 . S
H2541 C2547 0.950 . S
H2542 C2548 0.949 . S
C2543 H2538 0.950 . S
C2543 C2545 1.327 1_545 S
C2543 C2549 1.429 . S
C2544 C2536 1.574 . S
C2544 H2539 0.949 . S
C2544 C2550 1.368 . S
C2545 C2529 1.349 1_565 S
C2545 H2537 0.950 . S
C2545 C2543 1.327 1_565 S
C2546 C2534 1.349 . S
C2546 H2540 0.950 . S
C2546 C2547 1.327 . S
C2547 H2541 0.950 . S
C2547 C2546 1.327 . S
C2547 C2551 1.429 . S
C2548 C2531 1.574 . S
C2548 H2542 0.949 . S
C2548 C2552 1.368 . S
C2549 C2530 1.429 . S
C2549 C2543 1.429 . S
C2549 C2550 1.523 . S
C2550 C2531 1.368 . S
C2550 C2544 1.368 . S
C2550 C2549 1.523 . S
C2551 C2535 1.429 . S
C2551 C2547 1.429 . S
C2551 C2552 1.523 . S
C2552 C2536 1.368 . S
C2552 C2548 1.368 . S
C2552 C2551 1.523 . S
H2553 C2528 0.950 . S
H2554 C2530 0.950 . S
H2555 C2531 0.949 . S
H2556 C2533 0.950 . S
H2557 C2535 0.950 . S
C2558 C2559 1.349 . S
C2558 C2560 1.327 . S
C2558 H2583 0.950 1_545 S
C2559 C2558 1.349 . S
C2559 C2575 1.349 . S
C2560 C2558 1.327 . S
C2560 C2579 1.429 . S
C2560 H2584 0.950 . S
C2561 C2578 1.574 . S
C2561 C2580 1.368 . S
C2561 H2585 0.949 . S
H2562 C2566 0.949 . S
C2563 C2564 1.349 . S
C2563 C2565 1.327 . S
C2563 H2586 0.950 . S
C2564 C2563 1.349 . S
C2564 C2576 1.349 . S
C2565 C2563 1.327 . S
C2565 C2581 1.429 . S
C2565 H2587 0.950 . S
C2566 H2562 0.949 . S
C2566 C2574 1.574 . S
C2566 C2582 1.368 . S
H2567 C2575 0.950 . S
H2568 C2573 0.950 . S
H2569 C2574 0.949 . S
H2570 C2576 0.950 . S
H2571 C2577 0.950 . S
H2572 C2578 0.949 . S
C2573 H2568 0.950 . S
C2573 C2575 1.327 . S
C2573 C2579 1.429 . S
C2574 C2566 1.574 . S
C2574 H2569 0.949 . S
C2574 C2580 1.368 . S
C2575 C2559 1.349 . S
C2575 H2567 0.950 . S
C2575 C2573 1.327 . S
C2576 C2564 1.349 . S
C2576 H2570 0.950 . S
C2576 C2577 1.327 . S
C2577 H2571 0.950 . S
C2577 C2576 1.327 . S
C2577 C2581 1.429 . S
C2578 C2561 1.574 . S
C2578 H2572 0.949 . S
C2578 C2582 1.368 . S
C2579 C2560 1.429 . S
C2579 C2573 1.429 . S
C2579 C2580 1.523 . S
C2580 C2561 1.368 . S
C2580 C2574 1.368 . S
C2580 C2579 1.523 . S
C2581 C2565 1.429 . S
C2581 C2577 1.429 . S
C2581 C2582 1.523 . S
C2582 C2566 1.368 . S
C2582 C2578 1.368 . S
C2582 C2581 1.523 . S
H2583 C2558 0.950 1_565 S
H2584 C2560 0.950 . S
H2585 C2561 0.949 . S
H2586 C2563 0.950 . S
H2587 C2565 0.950 . S
C2588 C2589 1.349 . S
C2588 C2590 1.327 . S
C2588 H2613 0.950 . S
C2589 C2588 1.349 . S
C2589 C2605 1.349 . S
C2590 C2588 1.327 . S
C2590 C2609 1.429 . S
C2590 H2614 0.950 . S
C2591 C2608 1.574 . S
C2591 C2610 1.368 . S
C2591 H2615 0.949 . S
H2592 C2596 0.949 . S
C2593 C2594 1.349 . S
C2593 C2595 1.327 . S
C2593 H2616 0.950 . S
C2594 C2593 1.349 . S
C2594 C2606 1.349 1_565 S
C2595 C2593 1.327 . S
C2595 C2611 1.429 . S
C2595 H2617 0.950 . S
C2596 H2592 0.949 . S
C2596 C2604 1.574 . S
C2596 C2612 1.368 . S
H2597 C2605 0.950 . S
H2598 C2603 0.950 . S
H2599 C2604 0.949 . S
H2600 C2606 0.950 . S
H2601 C2607 0.950 . S
H2602 C2608 0.949 . S
C2603 H2598 0.950 . S
C2603 C2605 1.327 . S
C2603 C2609 1.429 . S
C2604 C2596 1.574 . S
C2604 H2599 0.949 . S
C2604 C2610 1.368 . S
C2605 C2589 1.349 . S
C2605 H2597 0.950 . S
C2605 C2603 1.327 . S
C2606 C2594 1.349 1_545 S
C2606 H2600 0.950 . S
C2606 C2607 1.327 1_545 S
C2607 H2601 0.950 . S
C2607 C2606 1.327 1_565 S
C2607 C2611 1.429 . S
C2608 C2591 1.574 . S
C2608 H2602 0.949 . S
C2608 C2612 1.368 . S
C2609 C2590 1.429 . S
C2609 C2603 1.429 . S
C2609 C2610 1.523 . S
C2610 C2591 1.368 . S
C2610 C2604 1.368 . S
C2610 C2609 1.523 . S
C2611 C2595 1.429 . S
C2611 C2607 1.429 . S
C2611 C2612 1.523 . S
C2612 C2596 1.368 . S
C2612 C2608 1.368 . S
C2612 C2611 1.523 . S
H2613 C2588 0.950 . S
H2614 C2590 0.950 . S
H2615 C2591 0.949 . S
H2616 C2593 0.950 . S
H2617 C2595 0.950 . S
C2618 C2619 1.349 . S
C2618 C2620 1.327 . S
C2618 H2643 0.950 . S
C2619 C2618 1.349 . S
C2619 C2635 1.349 . S
C2620 C2618 1.327 . S
C2620 C2639 1.429 . S
C2620 H2644 0.950 . S
C2621 C2638 1.574 . S
C2621 C2640 1.368 . S
C2621 H2645 0.949 . S
H2622 C2626 0.949 . S
C2623 C2624 1.349 . S
C2623 C2625 1.327 . S
C2623 H2646 0.950 . S
C2624 C2623 1.349 . S
C2624 C2636 1.349 . S
C2625 C2623 1.327 . S
C2625 C2641 1.429 . S
C2625 H2647 0.950 . S
C2626 H2622 0.949 . S
C2626 C2634 1.574 . S
C2626 C2642 1.368 . S
H2627 C2635 0.950 . S
H2628 C2633 0.950 . S
H2629 C2634 0.949 . S
H2630 C2636 0.950 . S
H2631 C2637 0.950 . S
H2632 C2638 0.949 . S
C2633 H2628 0.950 . S
C2633 C2635 1.327 . S
C2633 C2639 1.429 . S
C2634 C2626 1.574 . S
C2634 H2629 0.949 . S
C2634 C2640 1.368 . S
C2635 C2619 1.349 . S
C2635 H2627 0.950 . S
C2635 C2633 1.327 . S
C2636 C2624 1.349 . S
C2636 H2630 0.950 . S
C2636 C2637 1.327 . S
C2637 H2631 0.950 . S
C2637 C2636 1.327 . S
C2637 C2641 1.429 . S
C2638 C2621 1.574 . S
C2638 H2632 0.949 . S
C2638 C2642 1.368 . S
C2639 C2620 1.429 . S
C2639 C2633 1.429 . S
C2639 C2640 1.523 . S
C2640 C2621 1.368 . S
C2640 C2634 1.368 . S
C2640 C2639 1.523 . S
C2641 C2625 1.429 . S
C2641 C2637 1.429 . S
C2641 C2642 1.523 . S
C2642 C2626 1.368 . S
C2642 C2638 1.368 . S
C2642 C2641 1.523 . S
H2643 C2618 0.950 . S
H2644 C2620 0.950 . S
H2645 C2621 0.949 . S
H2646 C2623 0.950 . S
H2647 C2625 0.950 . S
C2648 C2649 1.349 . S
C2648 C2650 1.327 . S
C2648 H2673 0.950 . S
C2649 C2648 1.349 . S
C2649 C2665 1.349 . S
C2650 C2648 1.327 . S
C2650 C2669 1.429 . S
C2650 H2674 0.950 . S
C2651 C2668 1.574 . S
C2651 C2670 1.368 . S
C2651 H2675 0.949 . S
H2652 C2656 0.949 . S
C2653 C2654 1.349 . S
C2653 C2655 1.327 . S
C2653 H2676 0.950 . S
C2654 C2653 1.349 . S
C2654 C2666 1.349 . S
C2655 C2653 1.327 . S
C2655 C2671 1.429 . S
C2655 H2677 0.950 . S
C2656 H2652 0.949 . S
C2656 C2664 1.574 . S
C2656 C2672 1.368 . S
H2657 C2665 0.950 . S
H2658 C2663 0.950 . S
H2659 C2664 0.949 . S
H2660 C2666 0.950 . S
H2661 C2667 0.950 . S
H2662 C2668 0.949 . S
C2663 H2658 0.950 . S
C2663 C2665 1.327 . S
C2663 C2669 1.429 . S
C2664 C2656 1.574 . S
C2664 H2659 0.949 . S
C2664 C2670 1.368 . S
C2665 C2649 1.349 . S
C2665 H2657 0.950 . S
C2665 C2663 1.327 . S
C2666 C2654 1.349 . S
C2666 H2660 0.950 . S
C2666 C2667 1.327 . S
C2667 H2661 0.950 . S
C2667 C2666 1.327 . S
C2667 C2671 1.429 . S
C2668 C2651 1.574 . S
C2668 H2662 0.949 . S
C2668 C2672 1.368 . S
C2669 C2650 1.429 . S
C2669 C2663 1.429 . S
C2669 C2670 1.523 . S
C2670 C2651 1.368 . S
C2670 C2664 1.368 . S
C2670 C2669 1.523 . S
C2671 C2655 1.429 . S
C2671 C2667 1.429 . S
C2671 C2672 1.523 . S
C2672 C2656 1.368 . S
C2672 C2668 1.368 . S
C2672 C2671 1.523 . S
H2673 C2648 0.950 . S
H2674 C2650 0.950 . S
H2675 C2651 0.949 . S
H2676 C2653 0.950 . S
H2677 C2655 0.950 . S
C2678 C2679 1.360 . S
C2678 C2680 1.368 . S
C2678 H2703 0.900 1_565 S
C2679 C2678 1.360 . S
C2679 C2695 1.349 . S
C2680 C2678 1.368 . S
C2680 C2699 1.429 . S
C2680 H2704 0.950 . S
C2681 C2698 1.574 . S
C2681 C2700 1.368 . S
C2681 H2705 0.949 . S
H2682 C2686 0.949 . S
C2683 C2684 1.349 . S
C2683 C2685 1.327 . S
C2683 H2706 0.950 . S
C2684 C2683 1.349 . S
C2684 C2696 1.349 . S
C2685 C2683 1.327 . S
C2685 C2701 1.429 . S
C2685 H2707 0.950 . S
C2686 H2682 0.949 . S
C2686 C2694 1.574 . S
C2686 C2702 1.368 . S
H2687 C2695 0.950 . S
H2688 C2693 0.950 . S
H2689 C2694 0.949 . S
H2690 C2696 0.950 . S
H2691 C2697 0.950 . S
H2692 C2698 0.949 . S
C2693 H2688 0.950 . S
C2693 C2695 1.327 . S
C2693 C2699 1.429 . S
C2694 C2686 1.574 . S
C2694 H2689 0.949 . S
C2694 C2700 1.368 . S
C2695 C2679 1.349 . S
C2695 H2687 0.950 . S
C2695 C2693 1.327 . S
C2696 C2684 1.349 . S
C2696 H2690 0.950 . S
C2696 C2697 1.327 . S
C2697 H2691 0.950 . S
C2697 C2696 1.327 . S
C2697 C2701 1.429 . S
C2698 C2681 1.574 . S
C2698 H2692 0.949 . S
C2698 C2702 1.368 . S
C2699 C2680 1.429 . S
C2699 C2693 1.429 . S
C2699 C2700 1.523 . S
C2700 C2681 1.368 . S
C2700 C2694 1.368 . S
C2700 C2699 1.523 . S
C2701 C2685 1.429 . S
C2701 C2697 1.429 . S
C2701 C2702 1.523 . S
C2702 C2686 1.368 . S
C2702 C2698 1.368 . S
C2702 C2701 1.523 . S
H2703 C2678 0.900 1_545 S
H2704 C2680 0.950 . S
H2705 C2681 0.949 . S
H2706 C2683 0.950 . S
H2707 C2685 0.950 . S
C2708 C2709 1.349 . S
C2708 C2710 1.327 . S
C2708 H2733 0.950 . S
C2709 C2708 1.349 . S
C2709 C2725 1.349 . S
C2710 C2708 1.327 . S
C2710 C2729 1.429 . S
C2710 H2734 0.950 . S
C2711 C2728 1.574 . S
C2711 C2730 1.368 . S
C2711 H2735 0.949 . S
H2712 C2716 0.949 . S
C2713 C2714 1.349 . S
C2713 C2715 1.327 . S
C2713 H2736 0.950 . S
C2714 C2713 1.349 . S
C2714 C2726 1.349 . S
C2715 C2713 1.327 . S
C2715 C2731 1.429 . S
C2715 H2737 0.950 . S
C2716 H2712 0.949 . S
C2716 C2724 1.574 . S
C2716 C2732 1.368 . S
H2717 C2725 0.950 1_565 S
H2718 C2723 0.950 . S
H2719 C2724 0.949 . S
H2720 C2726 0.950 . S
H2721 C2727 0.950 . S
H2722 C2728 0.949 . S
C2723 H2718 0.950 . S
C2723 C2725 1.327 . S
C2723 C2729 1.429 . S
C2724 C2716 1.574 . S
C2724 H2719 0.949 . S
C2724 C2730 1.368 . S
C2725 C2709 1.349 . S
C2725 H2717 0.950 1_545 S
C2725 C2723 1.327 . S
C2726 C2714 1.349 . S
C2726 H2720 0.950 . S
C2726 C2727 1.327 . S
C2727 H2721 0.950 . S
C2727 C2726 1.327 . S
C2727 C2731 1.429 . S
C2728 C2711 1.574 . S
C2728 H2722 0.949 . S
C2728 C2732 1.368 . S
C2729 C2710 1.429 . S
C2729 C2723 1.429 . S
C2729 C2730 1.523 . S
C2730 C2711 1.368 . S
C2730 C2724 1.368 . S
C2730 C2729 1.523 . S
C2731 C2715 1.429 . S
C2731 C2727 1.429 . S
C2731 C2732 1.523 . S
C2732 C2716 1.368 . S
C2732 C2728 1.368 . S
C2732 C2731 1.523 . S
H2733 C2708 0.950 . S
H2734 C2710 0.950 . S
H2735 C2711 0.949 . S
H2736 C2713 0.950 . S
H2737 C2715 0.950 . S
C2738 C2739 1.349 . S
C2738 C2740 1.327 . S
C2738 H2763 0.944 1_545 S
C2739 C2738 1.349 . S
C2739 C2755 1.349 . S
C2740 C2738 1.327 . S
C2740 C2759 1.429 . S
C2740 H2764 0.950 . S
C2741 C2758 1.574 . S
C2741 C2760 1.368 . S
C2741 H2765 0.949 . S
H2742 C2746 0.949 . S
C2743 C2744 1.349 . S
C2743 C2745 1.327 . S
C2743 H2766 0.950 . S
C2744 C2743 1.349 . S
C2744 C2756 1.349 . S
C2745 C2743 1.327 . S
C2745 C2761 1.429 . S
C2745 H2767 0.950 . S
C2746 H2742 0.949 . S
C2746 C2754 1.574 . S
C2746 C2762 1.368 . S
H2747 C2755 0.950 . S
H2748 C2753 0.950 . S
H2749 C2754 0.949 . S
H2750 C2756 0.950 . S
H2751 C2757 0.950 . S
H2752 C2758 0.949 . S
C2753 H2748 0.950 . S
C2753 C2755 1.327 . S
C2753 C2759 1.429 . S
C2754 C2746 1.574 . S
C2754 H2749 0.949 . S
C2754 C2760 1.368 . S
C2755 C2739 1.349 . S
C2755 H2747 0.950 . S
C2755 C2753 1.327 . S
C2756 C2744 1.349 . S
C2756 H2750 0.950 . S
C2756 C2757 1.327 . S
C2757 H2751 0.950 . S
C2757 C2756 1.327 . S
C2757 C2761 1.429 . S
C2758 C2741 1.574 . S
C2758 H2752 0.949 . S
C2758 C2762 1.368 . S
C2759 C2740 1.429 . S
C2759 C2753 1.429 . S
C2759 C2760 1.523 . S
C2760 C2741 1.368 . S
C2760 C2754 1.368 . S
C2760 C2759 1.523 . S
C2761 C2745 1.429 . S
C2761 C2757 1.429 . S
C2761 C2762 1.523 . S
C2762 C2746 1.368 . S
C2762 C2758 1.368 . S
C2762 C2761 1.523 . S
H2763 C2738 0.944 1_565 S
H2764 C2740 0.950 . S
H2765 C2741 0.949 . S
H2766 C2743 0.950 . S
H2767 C2745 0.950 . S
C2768 C2769 1.349 . S
C2768 C2770 1.327 . S
C2768 H2793 0.950 . S
C2769 C2768 1.349 . S
C2769 C2785 1.349 . S
C2770 C2768 1.327 . S
C2770 C2789 1.429 . S
C2770 H2794 0.950 . S
C2771 C2788 1.574 . S
C2771 C2790 1.368 . S
C2771 H2795 0.949 . S
H2772 C2776 0.949 . S
C2773 C2774 1.349 . S
C2773 C2775 1.327 . S
C2773 H2796 0.950 . S
C2774 C2773 1.349 . S
C2774 C2786 1.349 . S
C2775 C2773 1.327 . S
C2775 C2791 1.429 . S
C2775 H2797 0.950 . S
C2776 H2772 0.949 . S
C2776 C2784 1.574 . S
C2776 C2792 1.368 . S
H2777 C2785 0.950 . S
H2778 C2783 0.950 . S
H2779 C2784 0.949 . S
H2780 C2786 0.950 . S
H2781 C2787 0.950 . S
H2782 C2788 0.949 . S
C2783 H2778 0.950 . S
C2783 C2785 1.327 . S
C2783 C2789 1.429 . S
C2784 C2776 1.574 . S
C2784 H2779 0.949 . S
C2784 C2790 1.368 . S
C2785 C2769 1.349 . S
C2785 H2777 0.950 . S
C2785 C2783 1.327 . S
C2786 C2774 1.349 . S
C2786 H2780 0.950 . S
C2786 C2787 1.327 . S
C2787 H2781 0.950 . S
C2787 C2786 1.327 . S
C2787 C2791 1.429 . S
C2788 C2771 1.574 . S
C2788 H2782 0.949 . S
C2788 C2792 1.368 . S
C2789 C2770 1.429 . S
C2789 C2783 1.429 . S
C2789 C2790 1.523 . S
C2790 C2771 1.368 . S
C2790 C2784 1.368 . S
C2790 C2789 1.523 . S
C2791 C2775 1.429 . S
C2791 C2787 1.429 . S
C2791 C2792 1.523 . S
C2792 C2776 1.368 . S
C2792 C2788 1.368 . S
C2792 C2791 1.523 . S
H2793 C2768 0.950 . S
H2794 C2770 0.950 . S
H2795 C2771 0.949 . S
H2796 C2773 0.950 . S
H2797 C2775 0.950 . S
C2798 C2799 1.349 . S
C2798 C2800 1.327 . S
C2798 H2823 0.950 . S
C2799 C2798 1.349 . S
C2799 C2815 1.349 . S
C2800 C2798 1.327 . S
C2800 C2819 1.429 . S
C2800 H2824 0.950 . S
C2801 C2818 1.574 . S
C2801 C2820 1.368 . S
C2801 H2825 0.949 . S
H2802 C2806 0.949 . S
C2803 C2804 1.349 . S
C2803 C2805 1.327 . S
C2803 H2826 0.950 . S
C2804 C2803 1.349 . S
C2804 C2816 1.349 . S
C2805 C2803 1.327 . S
C2805 C2821 1.429 . S
C2805 H2827 0.950 . S
C2806 H2802 0.949 . S
C2806 C2814 1.574 . S
C2806 C2822 1.368 . S
H2807 C2815 0.950 . S
H2808 C2813 0.950 . S
H2809 C2814 0.949 . S
H2810 C2816 0.950 . S
H2811 C2817 0.950 . S
H2812 C2818 0.949 . S
C2813 H2808 0.950 . S
C2813 C2815 1.327 . S
C2813 C2819 1.429 . S
C2814 C2806 1.574 . S
C2814 H2809 0.949 . S
C2814 C2820 1.368 . S
C2815 C2799 1.349 . S
C2815 H2807 0.950 . S
C2815 C2813 1.327 . S
C2816 C2804 1.349 . S
C2816 H2810 0.950 . S
C2816 C2817 1.327 . S
C2817 H2811 0.950 . S
C2817 C2816 1.327 . S
C2817 C2821 1.429 . S
C2818 C2801 1.574 . S
C2818 H2812 0.949 . S
C2818 C2822 1.368 . S
C2819 C2800 1.429 . S
C2819 C2813 1.429 . S
C2819 C2820 1.523 . S
C2820 C2801 1.368 . S
C2820 C2814 1.368 . S
C2820 C2819 1.523 . S
C2821 C2805 1.429 . S
C2821 C2817 1.429 . S
C2821 C2822 1.523 . S
C2822 C2806 1.368 . S
C2822 C2818 1.368 . S
C2822 C2821 1.523 . S
H2823 C2798 0.950 . S
H2824 C2800 0.950 . S
H2825 C2801 0.949 . S
H2826 C2803 0.950 . S
H2827 C2805 0.950 . S
C2828 C2829 1.349 . S
C2828 C2830 1.327 . S
C2828 H2853 0.950 . S
C2829 C2828 1.349 . S
C2829 C2845 1.349 . S
C2830 C2828 1.327 . S
C2830 C2849 1.429 . S
C2830 H2854 0.950 . S
C2831 C2848 1.574 . S
C2831 C2850 1.368 . S
C2831 H2855 0.949 . S
H2832 C2836 0.949 . S
C2833 C2834 1.349 . S
C2833 C2835 1.327 . S
C2833 H2856 0.950 . S
C2834 C2833 1.349 . S
C2834 C2846 1.349 . S
C2835 C2833 1.327 . S
C2835 C2851 1.429 . S
C2835 H2857 0.950 . S
C2836 H2832 0.949 . S
C2836 C2844 1.574 . S
C2836 C2852 1.368 . S
H2837 C2845 0.950 . S
H2838 C2843 0.950 . S
H2839 C2844 0.949 . S
H2840 C2846 0.950 . S
H2841 C2847 0.950 . S
H2842 C2848 0.949 . S
C2843 H2838 0.950 . S
C2843 C2845 1.327 . S
C2843 C2849 1.429 . S
C2844 C2836 1.574 . S
C2844 H2839 0.949 . S
C2844 C2850 1.368 . S
C2845 C2829 1.349 . S
C2845 H2837 0.950 . S
C2845 C2843 1.327 . S
C2846 C2834 1.349 . S
C2846 H2840 0.950 . S
C2846 C2847 1.327 . S
C2847 H2841 0.950 . S
C2847 C2846 1.327 . S
C2847 C2851 1.429 . S
C2848 C2831 1.574 . S
C2848 H2842 0.949 . S
C2848 C2852 1.368 . S
C2849 C2830 1.429 . S
C2849 C2843 1.429 . S
C2849 C2850 1.523 . S
C2850 C2831 1.368 . S
C2850 C2844 1.368 . S
C2850 C2849 1.523 . S
C2851 C2835 1.429 . S
C2851 C2847 1.429 . S
C2851 C2852 1.523 . S
C2852 C2836 1.368 . S
C2852 C2848 1.368 . S
C2852 C2851 1.523 . S
H2853 C2828 0.950 . S
H2854 C2830 0.950 . S
H2855 C2831 0.949 . S
H2856 C2833 0.950 . S
H2857 C2835 0.950 . S
C2858 C2859 1.349 . S
C2858 C2860 1.327 . S
C2858 H2883 0.950 . S
C2859 C2858 1.349 . S
C2859 C2875 1.349 . S
C2860 C2858 1.327 . S
C2860 C2879 1.429 . S
C2860 H2884 0.950 . S
C2861 C2878 1.574 . S
C2861 C2880 1.368 . S
C2861 H2885 0.949 . S
H2862 C2866 0.949 . S
C2863 C2864 1.349 . S
C2863 C2865 1.327 . S
C2863 H2886 0.950 . S
C2864 C2863 1.349 . S
C2864 C2876 1.349 . S
C2865 C2863 1.327 . S
C2865 C2881 1.429 . S
C2865 H2887 0.950 . S
C2866 H2862 0.949 . S
C2866 C2874 1.574 . S
C2866 C2882 1.368 . S
H2867 C2875 0.950 . S
H2868 C2873 0.950 . S
H2869 C2874 0.949 . S
H2870 C2876 0.950 . S
H2871 C2877 0.950 . S
H2872 C2878 0.949 . S
C2873 H2868 0.950 . S
C2873 C2875 1.327 . S
C2873 C2879 1.429 . S
C2874 C2866 1.574 . S
C2874 H2869 0.949 . S
C2874 C2880 1.368 . S
C2875 C2859 1.349 . S
C2875 H2867 0.950 . S
C2875 C2873 1.327 . S
C2876 C2864 1.349 . S
C2876 H2870 0.950 . S
C2876 C2877 1.327 . S
C2877 H2871 0.950 . S
C2877 C2876 1.327 . S
C2877 C2881 1.429 . S
C2878 C2861 1.574 . S
C2878 H2872 0.949 . S
C2878 C2882 1.368 . S
C2879 C2860 1.429 . S
C2879 C2873 1.429 . S
C2879 C2880 1.523 . S
C2880 C2861 1.368 . S
C2880 C2874 1.368 . S
C2880 C2879 1.523 . S
C2881 C2865 1.429 . S
C2881 C2877 1.429 . S
C2881 C2882 1.523 . S
C2882 C2866 1.368 . S
C2882 C2878 1.368 . S
C2882 C2881 1.523 . S
H2883 C2858 0.950 . S
H2884 C2860 0.950 . S
H2885 C2861 0.949 . S
H2886 C2863 0.950 . S
H2887 C2865 0.950 . S
C2888 C2889 1.349 . S
C2888 C2890 1.327 . S
C2888 H2913 0.950 . S
C2889 C2888 1.349 . S
C2889 C2905 1.349 . S
C2890 C2888 1.327 . S
C2890 C2909 1.429 . S
C2890 H2914 0.950 . S
C2891 C2908 1.574 . S
C2891 C2910 1.368 . S
C2891 H2915 0.949 . S
H2892 C2896 0.949 . S
C2893 C2894 1.349 . S
C2893 C2895 1.327 . S
C2893 H2916 0.950 . S
C2894 C2893 1.349 . S
C2894 C2906 1.349 . S
C2895 C2893 1.327 . S
C2895 C2911 1.429 . S
C2895 H2917 0.950 . S
C2896 H2892 0.949 . S
C2896 C2904 1.574 . S
C2896 C2912 1.368 . S
H2897 C2905 0.950 . S
H2898 C2903 0.950 . S
H2899 C2904 0.949 . S
H2900 C2906 0.950 . S
H2901 C2907 0.950 . S
H2902 C2908 0.949 . S
C2903 H2898 0.950 . S
C2903 C2905 1.327 . S
C2903 C2909 1.429 . S
C2904 C2896 1.574 . S
C2904 H2899 0.949 . S
C2904 C2910 1.368 . S
C2905 C2889 1.349 . S
C2905 H2897 0.950 . S
C2905 C2903 1.327 . S
C2906 C2894 1.349 . S
C2906 H2900 0.950 . S
C2906 C2907 1.327 . S
C2907 H2901 0.950 . S
C2907 C2906 1.327 . S
C2907 C2911 1.429 . S
C2908 C2891 1.574 . S
C2908 H2902 0.949 . S
C2908 C2912 1.368 . S
C2909 C2890 1.429 . S
C2909 C2903 1.429 . S
C2909 C2910 1.523 . S
C2910 C2891 1.368 . S
C2910 C2904 1.368 . S
C2910 C2909 1.523 . S
C2911 C2895 1.429 . S
C2911 C2907 1.429 . S
C2911 C2912 1.523 . S
C2912 C2896 1.368 . S
C2912 C2908 1.368 . S
C2912 C2911 1.523 . S
H2913 C2888 0.950 . S
H2914 C2890 0.950 . S
H2915 C2891 0.949 . S
H2916 C2893 0.950 . S
H2917 C2895 0.950 . S
C2918 C2919 1.349 . S
C2918 C2920 1.327 . S
C2918 H2943 0.950 . S
C2919 C2918 1.349 . S
C2919 C2935 1.349 . S
C2920 C2918 1.327 . S
C2920 C2939 1.429 . S
C2920 H2944 0.950 . S
C2921 C2938 1.574 . S
C2921 C2940 1.368 . S
C2921 H2945 0.949 . S
H2922 C2926 0.949 . S
C2923 C2924 1.349 . S
C2923 C2925 1.327 . S
C2923 H2946 0.950 . S
C2924 C2923 1.349 . S
C2924 C2936 1.349 . S
C2925 C2923 1.327 . S
C2925 C2941 1.429 . S
C2925 H2947 0.950 . S
C2926 H2922 0.949 . S
C2926 C2934 1.574 . S
C2926 C2942 1.368 . S
H2927 C2935 0.950 . S
H2928 C2933 0.950 . S
H2929 C2934 0.949 . S
H2930 C2936 0.950 . S
H2931 C2937 0.950 . S
H2932 C2938 0.949 . S
C2933 H2928 0.950 . S
C2933 C2935 1.327 . S
C2933 C2939 1.429 . S
C2934 C2926 1.574 . S
C2934 H2929 0.949 . S
C2934 C2940 1.368 . S
C2935 C2919 1.349 . S
C2935 H2927 0.950 . S
C2935 C2933 1.327 . S
C2936 C2924 1.349 . S
C2936 H2930 0.950 . S
C2936 C2937 1.327 . S
C2937 H2931 0.950 . S
C2937 C2936 1.327 . S
C2937 C2941 1.429 . S
C2938 C2921 1.574 . S
C2938 H2932 0.949 . S
C2938 C2942 1.368 . S
C2939 C2920 1.429 . S
C2939 C2933 1.429 . S
C2939 C2940 1.523 . S
C2940 C2921 1.368 . S
C2940 C2934 1.368 . S
C2940 C2939 1.523 . S
C2941 C2925 1.429 . S
C2941 C2937 1.429 . S
C2941 C2942 1.523 . S
C2942 C2926 1.368 . S
C2942 C2938 1.368 . S
C2942 C2941 1.523 . S
H2943 C2918 0.950 . S
H2944 C2920 0.950 . S
H2945 C2921 0.949 . S
H2946 C2923 0.950 . S
H2947 C2925 0.950 . S
C2948 C2949 1.349 . S
C2948 C2950 1.327 . S
C2948 H2973 0.950 . S
C2949 C2948 1.349 . S
C2949 C2965 1.349 . S
C2950 C2948 1.327 . S
C2950 C2969 1.429 . S
C2950 H2974 0.950 . S
C2951 C2968 1.574 . S
C2951 C2970 1.368 . S
C2951 H2975 0.949 . S
H2952 C2956 0.949 . S
C2953 C2954 1.349 . S
C2953 C2955 1.327 . S
C2953 H2976 0.950 . S
C2954 C2953 1.349 . S
C2954 C2966 1.349 . S
C2955 C2953 1.327 . S
C2955 C2971 1.429 . S
C2955 H2977 0.950 . S
C2956 H2952 0.949 . S
C2956 C2964 1.574 . S
C2956 C2972 1.368 . S
H2957 C2965 0.950 . S
H2958 C2963 0.950 . S
H2959 C2964 0.949 . S
H2960 C2966 0.950 . S
H2961 C2967 0.950 . S
H2962 C2968 0.949 . S
C2963 H2958 0.950 . S
C2963 C2965 1.327 . S
C2963 C2969 1.429 . S
C2964 C2956 1.574 . S
C2964 H2959 0.949 . S
C2964 C2970 1.368 . S
C2965 C2949 1.349 . S
C2965 H2957 0.950 . S
C2965 C2963 1.327 . S
C2966 C2954 1.349 . S
C2966 H2960 0.950 . S
C2966 C2967 1.327 . S
C2967 H2961 0.950 . S
C2967 C2966 1.327 . S
C2967 C2971 1.429 . S
C2968 C2951 1.574 . S
C2968 H2962 0.949 . S
C2968 C2972 1.368 . S
C2969 C2950 1.429 . S
C2969 C2963 1.429 . S
C2969 C2970 1.523 . S
C2970 C2951 1.368 . S
C2970 C2964 1.368 . S
C2970 C2969 1.523 . S
C2971 C2955 1.429 . S
C2971 C2967 1.429 . S
C2971 C2972 1.523 . S
C2972 C2956 1.368 . S
C2972 C2968 1.368 . S
C2972 C2971 1.523 . S
H2973 C2948 0.950 . S
H2974 C2950 0.950 . S
H2975 C2951 0.949 . S
H2976 C2953 0.950 . S
H2977 C2955 0.950 . S
C2978 C2979 1.349 . S
C2978 C2980 1.327 . S
C2978 H3003 0.950 . S
C2979 C2978 1.349 . S
C2979 C2995 1.349 . S
C2980 C2978 1.327 . S
C2980 C2999 1.429 . S
C2980 H3004 0.950 . S
C2981 C2998 1.574 . S
C2981 C3000 1.368 . S
C2981 H3005 0.949 . S
H2982 C2986 0.949 . S
C2983 C2984 1.349 . S
C2983 C2985 1.327 . S
C2983 H3006 0.950 . S
C2984 C2983 1.349 . S
C2984 C2996 1.349 . S
C2985 C2983 1.327 . S
C2985 C3001 1.429 . S
C2985 H3007 0.950 . S
C2986 H2982 0.949 . S
C2986 C2994 1.574 . S
C2986 C3002 1.368 . S
H2987 C2995 0.950 . S
H2988 C2993 0.950 . S
H2989 C2994 0.949 . S
H2990 C2996 0.950 . S
H2991 C2997 0.950 . S
H2992 C2998 0.949 . S
C2993 H2988 0.950 . S
C2993 C2995 1.327 . S
C2993 C2999 1.429 . S
C2994 C2986 1.574 . S
C2994 H2989 0.949 . S
C2994 C3000 1.368 . S
C2995 C2979 1.349 . S
C2995 H2987 0.950 . S
C2995 C2993 1.327 . S
C2996 C2984 1.349 . S
C2996 H2990 0.950 . S
C2996 C2997 1.327 . S
C2997 H2991 0.950 . S
C2997 C2996 1.327 . S
C2997 C3001 1.429 . S
C2998 C2981 1.574 . S
C2998 H2992 0.949 . S
C2998 C3002 1.368 . S
C2999 C2980 1.429 . S
C2999 C2993 1.429 . S
C2999 C3000 1.523 . S
C3000 C2981 1.368 . S
C3000 C2994 1.368 . S
C3000 C2999 1.523 . S
C3001 C2985 1.429 . S
C3001 C2997 1.429 . S
C3001 C3002 1.523 . S
C3002 C2986 1.368 . S
C3002 C2998 1.368 . S
C3002 C3001 1.523 . S
H3003 C2978 0.950 . S
H3004 C2980 0.950 . S
H3005 C2981 0.949 . S
H3006 C2983 0.950 . S
H3007 C2985 0.950 . S
C3008 C3009 1.349 . S
C3008 C3010 1.327 . S
C3008 H3033 0.950 . S
C3009 C3008 1.349 . S
C3009 C3025 1.349 . S
C3010 C3008 1.327 . S
C3010 C3029 1.429 . S
C3010 H3034 0.950 . S
C3011 C3028 1.574 . S
C3011 C3030 1.368 . S
C3011 H3035 0.949 . S
H3012 C3016 0.949 . S
C3013 C3014 1.349 . S
C3013 C3015 1.327 . S
C3013 H3036 0.950 . S
C3014 C3013 1.349 . S
C3014 C3026 1.349 . S
C3015 C3013 1.327 . S
C3015 C3031 1.429 . S
C3015 H3037 0.950 . S
C3016 H3012 0.949 . S
C3016 C3024 1.574 . S
C3016 C3032 1.368 . S
H3017 C3025 0.950 . S
H3018 C3023 0.950 . S
H3019 C3024 0.949 . S
H3020 C3026 0.950 . S
H3021 C3027 0.950 . S
H3022 C3028 0.949 . S
C3023 H3018 0.950 . S
C3023 C3025 1.327 . S
C3023 C3029 1.429 . S
C3024 C3016 1.574 . S
C3024 H3019 0.949 . S
C3024 C3030 1.368 . S
C3025 C3009 1.349 . S
C3025 H3017 0.950 . S
C3025 C3023 1.327 . S
C3026 C3014 1.349 . S
C3026 H3020 0.950 . S
C3026 C3027 1.327 . S
C3027 H3021 0.950 . S
C3027 C3026 1.327 . S
C3027 C3031 1.429 . S
C3028 C3011 1.574 . S
C3028 H3022 0.949 . S
C3028 C3032 1.368 . S
C3029 C3010 1.429 . S
C3029 C3023 1.429 . S
C3029 C3030 1.523 . S
C3030 C3011 1.368 . S
C3030 C3024 1.368 . S
C3030 C3029 1.523 . S
C3031 C3015 1.429 . S
C3031 C3027 1.429 . S
C3031 C3032 1.523 . S
C3032 C3016 1.368 . S
C3032 C3028 1.368 . S
C3032 C3031 1.523 . S
H3033 C3008 0.950 . S
H3034 C3010 0.950 . S
H3035 C3011 0.949 . S
H3036 C3013 0.950 . S
H3037 C3015 0.950 . S
C3038 C3039 1.349 . S
C3038 C3040 1.327 . S
C3038 H3063 0.950 . S
C3039 C3038 1.349 . S
C3039 C3055 1.349 . S
C3040 C3038 1.327 . S
C3040 C3059 1.429 . S
C3040 H3064 0.950 . S
C3041 C3058 1.574 1_655 S
C3041 C3060 1.368 . S
C3041 H3065 0.949 . S
H3042 C3046 0.949 . S
C3043 C3044 1.349 . S
C3043 C3045 1.327 . S
C3043 H3066 0.950 . S
C3044 C3043 1.349 . S
C3044 C3056 1.349 . S
C3045 C3043 1.327 . S
C3045 C3061 1.429 . S
C3045 H3067 0.950 . S
C3046 H3042 0.949 . S
C3046 C3054 1.574 1_455 S
C3046 C3062 1.368 . S
H3047 C3055 0.950 . S
H3048 C3053 0.950 . S
H3049 C3054 0.949 . S
H3050 C3056 0.950 . S
H3051 C3057 0.950 . S
H3052 C3058 0.949 . S
C3053 H3048 0.950 . S
C3053 C3055 1.327 . S
C3053 C3059 1.429 . S
C3054 C3046 1.574 1_655 S
C3054 H3049 0.949 . S
C3054 C3060 1.368 . S
C3055 C3039 1.349 . S
C3055 H3047 0.950 . S
C3055 C3053 1.327 . S
C3056 C3044 1.349 . S
C3056 H3050 0.950 . S
C3056 C3057 1.327 . S
C3057 H3051 0.950 . S
C3057 C3056 1.327 . S
C3057 C3061 1.429 . S
C3058 C3041 1.574 1_455 S
C3058 H3052 0.949 . S
C3058 C3062 1.368 . S
C3059 C3040 1.429 . S
C3059 C3053 1.429 . S
C3059 C3060 1.523 . S
C3060 C3041 1.368 . S
C3060 C3054 1.368 . S
C3060 C3059 1.523 . S
C3061 C3045 1.429 . S
C3061 C3057 1.429 . S
C3061 C3062 1.523 . S
C3062 C3046 1.368 . S
C3062 C3058 1.368 . S
C3062 C3061 1.523 . S
H3063 C3038 0.950 . S
H3064 C3040 0.950 . S
H3065 C3041 0.949 . S
H3066 C3043 0.950 . S
H3067 C3045 0.950 . S
C3068 C3069 1.349 . S
C3068 C3070 1.327 . S
C3068 H3093 0.950 . S
C3069 C3068 1.349 . S
C3069 C3085 1.349 . S
C3070 C3068 1.327 . S
C3070 C3089 1.429 . S
C3070 H3094 0.950 . S
C3071 C3088 1.574 . S
C3071 C3090 1.368 . S
C3071 H3095 0.949 . S
H3072 C3076 0.949 . S
C3073 C3074 1.349 . S
C3073 C3075 1.327 . S
C3073 H3096 0.950 . S
C3074 C3073 1.349 . S
C3074 C3086 1.349 . S
C3075 C3073 1.327 . S
C3075 C3091 1.429 . S
C3075 H3097 0.950 . S
C3076 H3072 0.949 . S
C3076 C3084 1.574 . S
C3076 C3092 1.368 . S
H3077 C3085 0.950 . S
H3078 C3083 0.950 . S
H3079 C3084 0.949 . S
H3080 C3086 0.950 . S
H3081 C3087 0.950 . S
H3082 C3088 0.949 . S
C3083 H3078 0.950 . S
C3083 C3085 1.327 . S
C3083 C3089 1.429 . S
C3084 C3076 1.574 . S
C3084 H3079 0.949 . S
C3084 C3090 1.368 . S
C3085 C3069 1.349 . S
C3085 H3077 0.950 . S
C3085 C3083 1.327 . S
C3086 C3074 1.349 . S
C3086 H3080 0.950 . S
C3086 C3087 1.327 . S
C3087 H3081 0.950 . S
C3087 C3086 1.327 . S
C3087 C3091 1.429 . S
C3088 C3071 1.574 . S
C3088 H3082 0.949 . S
C3088 C3092 1.368 . S
C3089 C3070 1.429 . S
C3089 C3083 1.429 . S
C3089 C3090 1.523 . S
C3090 C3071 1.368 . S
C3090 C3084 1.368 . S
C3090 C3089 1.523 . S
C3091 C3075 1.429 . S
C3091 C3087 1.429 . S
C3091 C3092 1.523 . S
C3092 C3076 1.368 . S
C3092 C3088 1.368 . S
C3092 C3091 1.523 . S
H3093 C3068 0.950 . S
H3094 C3070 0.950 . S
H3095 C3071 0.949 . S
H3096 C3073 0.950 . S
H3097 C3075 0.950 . S
C3098 C3099 1.349 . S
C3098 C3100 1.327 . S
C3098 H3123 0.950 . S
C3099 C3098 1.349 . S
C3099 C3115 1.349 . S
C3100 C3098 1.327 . S
C3100 C3119 1.429 . S
C3100 H3124 0.950 . S
C3101 C3118 1.574 . S
C3101 C3120 1.368 . S
C3101 H3125 0.949 . S
H3102 C3106 0.949 . S
C3103 C3104 1.349 . S
C3103 C3105 1.327 . S
C3103 H3126 0.950 . S
C3104 C3103 1.349 . S
C3104 C3116 1.349 . S
C3105 C3103 1.327 . S
C3105 C3121 1.429 . S
C3105 H3127 0.950 . S
C3106 H3102 0.949 . S
C3106 C3114 1.574 . S
C3106 C3122 1.368 . S
H3107 C3115 0.950 . S
H3108 C3113 0.950 . S
H3109 C3114 0.949 . S
H3110 C3116 0.950 . S
H3111 C3117 0.950 . S
H3112 C3118 0.949 . S
C3113 H3108 0.950 . S
C3113 C3115 1.327 . S
C3113 C3119 1.429 . S
C3114 C3106 1.574 . S
C3114 H3109 0.949 . S
C3114 C3120 1.368 . S
C3115 C3099 1.349 . S
C3115 H3107 0.950 . S
C3115 C3113 1.327 . S
C3116 C3104 1.349 . S
C3116 H3110 0.950 . S
C3116 C3117 1.327 . S
C3117 H3111 0.950 . S
C3117 C3116 1.327 . S
C3117 C3121 1.429 . S
C3118 C3101 1.574 . S
C3118 H3112 0.949 . S
C3118 C3122 1.368 . S
C3119 C3100 1.429 . S
C3119 C3113 1.429 . S
C3119 C3120 1.523 . S
C3120 C3101 1.368 . S
C3120 C3114 1.368 . S
C3120 C3119 1.523 . S
C3121 C3105 1.429 . S
C3121 C3117 1.429 . S
C3121 C3122 1.523 . S
C3122 C3106 1.368 . S
C3122 C3118 1.368 . S
C3122 C3121 1.523 . S
H3123 C3098 0.950 . S
H3124 C3100 0.950 . S
H3125 C3101 0.949 . S
H3126 C3103 0.950 . S
H3127 C3105 0.950 . S
C3128 C3129 1.349 . S
C3128 C3130 1.327 . S
C3128 H3153 0.950 . S
C3129 C3128 1.349 . S
C3129 C3145 1.349 . S
C3130 C3128 1.327 . S
C3130 C3149 1.429 . S
C3130 H3154 0.950 . S
C3131 C3148 1.574 . S
C3131 C3150 1.368 . S
C3131 H3155 0.949 . S
H3132 C3136 0.949 . S
C3133 C3134 1.349 . S
C3133 C3135 1.327 . S
C3133 H3156 0.950 . S
C3134 C3133 1.349 . S
C3134 C3146 1.349 . S
C3135 C3133 1.327 . S
C3135 C3151 1.429 . S
C3135 H3157 0.950 . S
C3136 H3132 0.949 . S
C3136 C3144 1.574 . S
C3136 C3152 1.368 . S
H3137 C3145 0.950 . S
H3138 C3143 0.950 . S
H3139 C3144 0.949 . S
H3140 C3146 0.950 . S
H3141 C3147 0.950 . S
H3142 C3148 0.949 . S
C3143 H3138 0.950 . S
C3143 C3145 1.327 . S
C3143 C3149 1.429 . S
C3144 C3136 1.574 . S
C3144 H3139 0.949 . S
C3144 C3150 1.368 . S
C3145 C3129 1.349 . S
C3145 H3137 0.950 . S
C3145 C3143 1.327 . S
C3146 C3134 1.349 . S
C3146 H3140 0.950 . S
C3146 C3147 1.327 . S
C3147 H3141 0.950 . S
C3147 C3146 1.327 . S
C3147 C3151 1.429 . S
C3148 C3131 1.574 . S
C3148 H3142 0.949 . S
C3148 C3152 1.368 . S
C3149 C3130 1.429 . S
C3149 C3143 1.429 . S
C3149 C3150 1.523 . S
C3150 C3131 1.368 . S
C3150 C3144 1.368 . S
C3150 C3149 1.523 . S
C3151 C3135 1.429 . S
C3151 C3147 1.429 . S
C3151 C3152 1.523 . S
C3152 C3136 1.368 . S
C3152 C3148 1.368 . S
C3152 C3151 1.523 . S
H3153 C3128 0.950 . S
H3154 C3130 0.950 . S
H3155 C3131 0.949 . S
H3156 C3133 0.950 . S
H3157 C3135 0.950 . S
C3158 C3159 1.349 . S
C3158 C3160 1.327 . S
C3158 H3183 0.950 . S
C3159 C3158 1.349 . S
C3159 C3175 1.349 . S
C3160 C3158 1.327 . S
C3160 C3179 1.429 . S
C3160 H3184 0.950 . S
C3161 C3178 1.574 . S
C3161 C3180 1.368 . S
C3161 H3185 0.949 . S
H3162 C3166 0.949 . S
C3163 C3164 1.349 . S
C3163 C3165 1.327 . S
C3163 H3186 0.950 . S
C3164 C3163 1.349 . S
C3164 C3176 1.349 . S
C3165 C3163 1.327 . S
C3165 C3181 1.429 . S
C3165 H3187 0.950 . S
C3166 H3162 0.949 . S
C3166 C3174 1.574 . S
C3166 C3182 1.368 . S
H3167 C3175 0.950 . S
H3168 C3173 0.950 . S
H3169 C3174 0.949 . S
H3170 C3176 0.950 . S
H3171 C3177 0.950 . S
H3172 C3178 0.949 . S
C3173 H3168 0.950 . S
C3173 C3175 1.327 . S
C3173 C3179 1.429 . S
C3174 C3166 1.574 . S
C3174 H3169 0.949 . S
C3174 C3180 1.368 . S
C3175 C3159 1.349 . S
C3175 H3167 0.950 . S
C3175 C3173 1.327 . S
C3176 C3164 1.349 . S
C3176 H3170 0.950 . S
C3176 C3177 1.327 . S
C3177 H3171 0.950 . S
C3177 C3176 1.327 . S
C3177 C3181 1.429 . S
C3178 C3161 1.574 . S
C3178 H3172 0.949 . S
C3178 C3182 1.368 . S
C3179 C3160 1.429 . S
C3179 C3173 1.429 . S
C3179 C3180 1.523 . S
C3180 C3161 1.368 . S
C3180 C3174 1.368 . S
C3180 C3179 1.523 . S
C3181 C3165 1.429 . S
C3181 C3177 1.429 . S
C3181 C3182 1.523 . S
C3182 C3166 1.368 . S
C3182 C3178 1.368 . S
C3182 C3181 1.523 . S
H3183 C3158 0.950 . S
H3184 C3160 0.950 . S
H3185 C3161 0.949 . S
H3186 C3163 0.950 . S
H3187 C3165 0.950 . S
C3188 C3189 1.349 . S
C3188 C3190 1.327 . S
C3188 H3213 0.950 . S
C3189 C3188 1.349 . S
C3189 C3205 1.349 . S
C3190 C3188 1.327 . S
C3190 C3209 1.429 . S
C3190 H3214 0.950 . S
C3191 C3208 1.574 . S
C3191 C3210 1.368 . S
C3191 H3215 0.949 . S
H3192 C3196 0.949 . S
C3193 C3194 1.349 . S
C3193 C3195 1.327 . S
C3193 H3216 0.950 . S
C3194 C3193 1.349 . S
C3194 C3206 1.349 . S
C3195 C3193 1.327 . S
C3195 C3211 1.429 . S
C3195 H3217 0.950 . S
C3196 H3192 0.949 . S
C3196 C3204 1.574 . S
C3196 C3212 1.368 . S
H3197 C3205 0.950 . S
H3198 C3203 0.950 . S
H3199 C3204 0.949 . S
H3200 C3206 0.950 . S
H3201 C3207 0.950 . S
H3202 C3208 0.949 . S
C3203 H3198 0.950 . S
C3203 C3205 1.327 . S
C3203 C3209 1.429 . S
C3204 C3196 1.574 . S
C3204 H3199 0.949 . S
C3204 C3210 1.368 . S
C3205 C3189 1.349 . S
C3205 H3197 0.950 . S
C3205 C3203 1.327 . S
C3206 C3194 1.349 . S
C3206 H3200 0.950 . S
C3206 C3207 1.327 . S
C3207 H3201 0.950 . S
C3207 C3206 1.327 . S
C3207 C3211 1.429 . S
C3208 C3191 1.574 . S
C3208 H3202 0.949 . S
C3208 C3212 1.368 . S
C3209 C3190 1.429 . S
C3209 C3203 1.429 . S
C3209 C3210 1.523 . S
C3210 C3191 1.368 . S
C3210 C3204 1.368 . S
C3210 C3209 1.523 . S
C3211 C3195 1.429 . S
C3211 C3207 1.429 . S
C3211 C3212 1.523 . S
C3212 C3196 1.368 . S
C3212 C3208 1.368 . S
C3212 C3211 1.523 . S
H3213 C3188 0.950 . S
H3214 C3190 0.950 . S
H3215 C3191 0.949 . S
H3216 C3193 0.950 . S
H3217 C3195 0.950 . S
C3218 C3219 1.349 . S
C3218 C3220 1.327 . S
C3218 H3243 0.950 . S
C3219 C3218 1.349 . S
C3219 C3235 1.349 . S
C3220 C3218 1.327 . S
C3220 C3239 1.429 . S
C3220 H3244 0.950 . S
C3221 C3238 1.574 1_455 S
C3221 C3240 1.368 . S
C3221 H3245 0.949 . S
H3222 C3226 0.949 . S
C3223 C3224 1.349 . S
C3223 C3225 1.327 . S
C3223 H3246 0.950 . S
C3224 C3223 1.349 . S
C3224 C3236 1.349 . S
C3225 C3223 1.327 . S
C3225 C3241 1.429 . S
C3225 H3247 0.950 . S
C3226 H3222 0.949 . S
C3226 C3234 1.574 1_655 S
C3226 C3242 1.368 . S
H3227 C3235 0.950 . S
H3228 C3233 0.950 . S
H3229 C3234 0.949 . S
H3230 C3236 0.950 . S
H3231 C3237 0.950 . S
H3232 C3238 0.949 . S
C3233 H3228 0.950 . S
C3233 C3235 1.327 . S
C3233 C3239 1.429 . S
C3234 C3226 1.574 1_455 S
C3234 H3229 0.949 . S
C3234 C3240 1.368 . S
C3235 C3219 1.349 . S
C3235 H3227 0.950 . S
C3235 C3233 1.327 . S
C3236 C3224 1.349 . S
C3236 H3230 0.950 . S
C3236 C3237 1.327 . S
C3237 H3231 0.950 . S
C3237 C3236 1.327 . S
C3237 C3241 1.429 . S
C3238 C3221 1.574 1_655 S
C3238 H3232 0.949 . S
C3238 C3242 1.368 . S
C3239 C3220 1.429 . S
C3239 C3233 1.429 . S
C3239 C3240 1.523 . S
C3240 C3221 1.368 . S
C3240 C3234 1.368 . S
C3240 C3239 1.523 . S
C3241 C3225 1.429 . S
C3241 C3237 1.429 . S
C3241 C3242 1.523 . S
C3242 C3226 1.368 . S
C3242 C3238 1.368 . S
C3242 C3241 1.523 . S
H3243 C3218 0.950 . S
H3244 C3220 0.950 . S
H3245 C3221 0.949 . S
H3246 C3223 0.950 . S
H3247 C3225 0.950 . S
C3248 C3249 1.349 . S
C3248 C3250 1.327 . S
C3248 H3273 0.950 . S
C3249 C3248 1.349 . S
C3249 C3265 1.349 . S
C3250 C3248 1.327 . S
C3250 C3269 1.429 . S
C3250 H3274 0.950 . S
C3251 C3268 1.574 . S
C3251 C3270 1.368 . S
C3251 H3275 0.949 . S
H3252 C3256 0.949 . S
C3253 C3254 1.349 . S
C3253 C3255 1.327 . S
C3253 H3276 0.950 . S
C3254 C3253 1.349 . S
C3254 C3266 1.349 . S
C3255 C3253 1.327 . S
C3255 C3271 1.429 . S
C3255 H3277 0.950 . S
C3256 H3252 0.949 . S
C3256 C3264 1.574 . S
C3256 C3272 1.368 . S
H3257 C3265 0.950 . S
H3258 C3263 0.950 . S
H3259 C3264 0.949 . S
H3260 C3266 0.950 . S
H3261 C3267 0.950 . S
H3262 C3268 0.949 . S
C3263 H3258 0.950 . S
C3263 C3265 1.327 . S
C3263 C3269 1.429 . S
C3264 C3256 1.574 . S
C3264 H3259 0.949 . S
C3264 C3270 1.368 . S
C3265 C3249 1.349 . S
C3265 H3257 0.950 . S
C3265 C3263 1.327 . S
C3266 C3254 1.349 . S
C3266 H3260 0.950 . S
C3266 C3267 1.327 . S
C3267 H3261 0.950 . S
C3267 C3266 1.327 . S
C3267 C3271 1.429 . S
C3268 C3251 1.574 . S
C3268 H3262 0.949 . S
C3268 C3272 1.368 . S
C3269 C3250 1.429 . S
C3269 C3263 1.429 . S
C3269 C3270 1.523 . S
C3270 C3251 1.368 . S
C3270 C3264 1.368 . S
C3270 C3269 1.523 . S
C3271 C3255 1.429 . S
C3271 C3267 1.429 . S
C3271 C3272 1.523 . S
C3272 C3256 1.368 . S
C3272 C3268 1.368 . S
C3272 C3271 1.523 . S
H3273 C3248 0.950 . S
H3274 C3250 0.950 . S
H3275 C3251 0.949 . S
H3276 C3253 0.950 . S
H3277 C3255 0.950 . S
C3278 C3279 1.349 . S
C3278 C3280 1.327 . S
C3278 H3303 0.950 . S
C3279 C3278 1.349 . S
C3279 C3295 1.349 . S
C3280 C3278 1.327 . S
C3280 C3299 1.429 . S
C3280 H3304 0.950 . S
C3281 C3298 1.574 . S
C3281 C3300 1.368 . S
C3281 H3305 0.949 . S
H3282 C3286 0.949 . S
C3283 C3284 1.349 . S
C3283 C3285 1.327 . S
C3283 H3306 0.950 . S
C3284 C3283 1.349 . S
C3284 C3296 1.349 . S
C3285 C3283 1.327 . S
C3285 C3301 1.429 . S
C3285 H3307 0.950 . S
C3286 H3282 0.949 . S
C3286 C3294 1.574 . S
C3286 C3302 1.368 . S
H3287 C3295 0.950 . S
H3288 C3293 0.950 . S
H3289 C3294 0.949 . S
H3290 C3296 0.950 . S
H3291 C3297 0.950 . S
H3292 C3298 0.949 . S
C3293 H3288 0.950 . S
C3293 C3295 1.327 . S
C3293 C3299 1.429 . S
C3294 C3286 1.574 . S
C3294 H3289 0.949 . S
C3294 C3300 1.368 . S
C3295 C3279 1.349 . S
C3295 H3287 0.950 . S
C3295 C3293 1.327 . S
C3296 C3284 1.349 . S
C3296 H3290 0.950 . S
C3296 C3297 1.327 . S
C3297 H3291 0.950 . S
C3297 C3296 1.327 . S
C3297 C3301 1.429 . S
C3298 C3281 1.574 . S
C3298 H3292 0.949 . S
C3298 C3302 1.368 . S
C3299 C3280 1.429 . S
C3299 C3293 1.429 . S
C3299 C3300 1.523 . S
C3300 C3281 1.368 . S
C3300 C3294 1.368 . S
C3300 C3299 1.523 . S
C3301 C3285 1.429 . S
C3301 C3297 1.429 . S
C3301 C3302 1.523 . S
C3302 C3286 1.368 . S
C3302 C3298 1.368 . S
C3302 C3301 1.523 . S
H3303 C3278 0.950 . S
H3304 C3280 0.950 . S
H3305 C3281 0.949 . S
H3306 C3283 0.950 . S
H3307 C3285 0.950 . S
C3308 C3309 1.349 . S
C3308 C3310 1.327 . S
C3308 H3333 0.950 . S
C3309 C3308 1.349 . S
C3309 C3325 1.349 . S
C3310 C3308 1.327 . S
C3310 C3329 1.429 . S
C3310 H3334 0.950 . S
C3311 C3328 1.574 . S
C3311 C3330 1.368 . S
C3311 H3335 0.949 . S
H3312 C3316 0.949 . S
C3313 C3314 1.349 . S
C3313 C3315 1.327 . S
C3313 H3336 0.950 . S
C3314 C3313 1.349 . S
C3314 C3326 1.349 . S
C3315 C3313 1.327 . S
C3315 C3331 1.429 . S
C3315 H3337 0.950 . S
C3316 H3312 0.949 . S
C3316 C3324 1.574 . S
C3316 C3332 1.368 . S
H3317 C3325 0.950 . S
H3318 C3323 0.950 . S
H3319 C3324 0.949 . S
H3320 C3326 0.950 . S
H3321 C3327 0.950 . S
H3322 C3328 0.949 . S
C3323 H3318 0.950 . S
C3323 C3325 1.327 . S
C3323 C3329 1.429 . S
C3324 C3316 1.574 . S
C3324 H3319 0.949 . S
C3324 C3330 1.368 . S
C3325 C3309 1.349 . S
C3325 H3317 0.950 . S
C3325 C3323 1.327 . S
C3326 C3314 1.349 . S
C3326 H3320 0.950 . S
C3326 C3327 1.327 . S
C3327 H3321 0.950 . S
C3327 C3326 1.327 . S
C3327 C3331 1.429 . S
C3328 C3311 1.574 . S
C3328 H3322 0.949 . S
C3328 C3332 1.368 . S
C3329 C3310 1.429 . S
C3329 C3323 1.429 . S
C3329 C3330 1.523 . S
C3330 C3311 1.368 . S
C3330 C3324 1.368 . S
C3330 C3329 1.523 . S
C3331 C3315 1.429 . S
C3331 C3327 1.429 . S
C3331 C3332 1.523 . S
C3332 C3316 1.368 . S
C3332 C3328 1.368 . S
C3332 C3331 1.523 . S
H3333 C3308 0.950 . S
H3334 C3310 0.950 . S
H3335 C3311 0.949 . S
H3336 C3313 0.950 . S
H3337 C3315 0.950 . S
C3338 C3339 1.349 . S
C3338 C3340 1.327 . S
C3338 H3363 0.950 . S
C3339 C3338 1.349 . S
C3339 C3355 1.349 . S
C3340 C3338 1.327 . S
C3340 C3359 1.429 . S
C3340 H3364 0.950 . S
C3341 C3358 1.574 . S
C3341 C3360 1.368 . S
C3341 H3365 0.949 . S
H3342 C3346 0.949 . S
C3343 C3344 1.349 . S
C3343 C3345 1.327 . S
C3343 H3366 0.950 . S
C3344 C3343 1.349 . S
C3344 C3356 1.349 . S
C3345 C3343 1.327 . S
C3345 C3361 1.429 . S
C3345 H3367 0.950 . S
C3346 H3342 0.949 . S
C3346 C3354 1.574 . S
C3346 C3362 1.368 . S
H3347 C3355 0.950 . S
H3348 C3353 0.950 . S
H3349 C3354 0.949 . S
H3350 C3356 0.950 . S
H3351 C3357 0.950 . S
H3352 C3358 0.949 . S
C3353 H3348 0.950 . S
C3353 C3355 1.327 . S
C3353 C3359 1.429 . S
C3354 C3346 1.574 . S
C3354 H3349 0.949 . S
C3354 C3360 1.368 . S
C3355 C3339 1.349 . S
C3355 H3347 0.950 . S
C3355 C3353 1.327 . S
C3356 C3344 1.349 . S
C3356 H3350 0.950 . S
C3356 C3357 1.327 . S
C3357 H3351 0.950 . S
C3357 C3356 1.327 . S
C3357 C3361 1.429 . S
C3358 C3341 1.574 . S
C3358 H3352 0.949 . S
C3358 C3362 1.368 . S
C3359 C3340 1.429 . S
C3359 C3353 1.429 . S
C3359 C3360 1.523 . S
C3360 C3341 1.368 . S
C3360 C3354 1.368 . S
C3360 C3359 1.523 . S
C3361 C3345 1.429 . S
C3361 C3357 1.429 . S
C3361 C3362 1.523 . S
C3362 C3346 1.368 . S
C3362 C3358 1.368 . S
C3362 C3361 1.523 . S
H3363 C3338 0.950 . S
H3364 C3340 0.950 . S
H3365 C3341 0.949 . S
H3366 C3343 0.950 . S
H3367 C3345 0.950 . S
C3368 C3369 1.349 . S
C3368 C3370 1.327 . S
C3368 H3393 0.950 . S
C3369 C3368 1.349 . S
C3369 C3385 1.349 . S
C3370 C3368 1.327 . S
C3370 C3389 1.429 . S
C3370 H3394 0.950 . S
C3371 C3388 1.574 . S
C3371 C3390 1.368 . S
C3371 H3395 0.949 . S
H3372 C3376 0.949 . S
C3373 C3374 1.349 . S
C3373 C3375 1.327 . S
C3373 H3396 0.950 . S
C3374 C3373 1.349 . S
C3374 C3386 1.349 . S
C3375 C3373 1.327 . S
C3375 C3391 1.429 . S
C3375 H3397 0.950 . S
C3376 H3372 0.949 . S
C3376 C3384 1.574 . S
C3376 C3392 1.368 . S
H3377 C3385 0.950 . S
H3378 C3383 0.950 . S
H3379 C3384 0.949 . S
H3380 C3386 0.950 . S
H3381 C3387 0.950 . S
H3382 C3388 0.949 . S
C3383 H3378 0.950 . S
C3383 C3385 1.327 . S
C3383 C3389 1.429 . S
C3384 C3376 1.574 . S
C3384 H3379 0.949 . S
C3384 C3390 1.368 . S
C3385 C3369 1.349 . S
C3385 H3377 0.950 . S
C3385 C3383 1.327 . S
C3386 C3374 1.349 . S
C3386 H3380 0.950 . S
C3386 C3387 1.327 . S
C3387 H3381 0.950 . S
C3387 C3386 1.327 . S
C3387 C3391 1.429 . S
C3388 C3371 1.574 . S
C3388 H3382 0.949 . S
C3388 C3392 1.368 . S
C3389 C3370 1.429 . S
C3389 C3383 1.429 . S
C3389 C3390 1.523 . S
C3390 C3371 1.368 . S
C3390 C3384 1.368 . S
C3390 C3389 1.523 . S
C3391 C3375 1.429 . S
C3391 C3387 1.429 . S
C3391 C3392 1.523 . S
C3392 C3376 1.368 . S
C3392 C3388 1.368 . S
C3392 C3391 1.523 . S
H3393 C3368 0.950 . S
H3394 C3370 0.950 . S
H3395 C3371 0.949 . S
H3396 C3373 0.950 . S
H3397 C3375 0.950 . S
C3398 C3399 1.349 . S
C3398 C3400 1.327 . S
C3398 H3423 0.950 . S
C3399 C3398 1.349 . S
C3399 C3415 1.349 . S
C3400 C3398 1.327 . S
C3400 C3419 1.429 . S
C3400 H3424 0.950 . S
C3401 C3418 1.574 1_455 S
C3401 C3420 1.368 . S
C3401 H3425 0.949 . S
H3402 C3406 0.949 . S
C3403 C3404 1.349 . S
C3403 C3405 1.327 . S
C3403 H3426 0.950 . S
C3404 C3403 1.349 . S
C3404 C3416 1.349 . S
C3405 C3403 1.327 . S
C3405 C3421 1.429 . S
C3405 H3427 0.950 . S
C3406 H3402 0.949 . S
C3406 C3414 1.574 1_655 S
C3406 C3422 1.368 . S
H3407 C3415 0.950 . S
H3408 C3413 0.950 . S
H3409 C3414 0.949 . S
H3410 C3416 0.950 . S
H3411 C3417 0.950 . S
H3412 C3418 0.949 . S
C3413 H3408 0.950 . S
C3413 C3415 1.327 . S
C3413 C3419 1.429 . S
C3414 C3406 1.574 1_455 S
C3414 H3409 0.949 . S
C3414 C3420 1.368 . S
C3415 C3399 1.349 . S
C3415 H3407 0.950 . S
C3415 C3413 1.327 . S
C3416 C3404 1.349 . S
C3416 H3410 0.950 . S
C3416 C3417 1.327 . S
C3417 H3411 0.950 . S
C3417 C3416 1.327 . S
C3417 C3421 1.429 . S
C3418 C3401 1.574 1_655 S
C3418 H3412 0.949 . S
C3418 C3422 1.368 . S
C3419 C3400 1.429 . S
C3419 C3413 1.429 . S
C3419 C3420 1.523 . S
C3420 C3401 1.368 . S
C3420 C3414 1.368 . S
C3420 C3419 1.523 . S
C3421 C3405 1.429 . S
C3421 C3417 1.429 . S
C3421 C3422 1.523 . S
C3422 C3406 1.368 . S
C3422 C3418 1.368 . S
C3422 C3421 1.523 . S
H3423 C3398 0.950 . S
H3424 C3400 0.950 . S
H3425 C3401 0.949 . S
H3426 C3403 0.950 . S
H3427 C3405 0.950 . S
C3428 C3429 1.349 . S
C3428 C3430 1.327 . S
C3428 H3453 0.950 . S
C3429 C3428 1.349 . S
C3429 C3445 1.349 . S
C3430 C3428 1.327 . S
C3430 C3449 1.429 . S
C3430 H3454 0.950 . S
C3431 C3448 1.574 1_455 S
C3431 C3450 1.368 . S
C3431 H3455 0.949 . S
H3432 C3436 0.949 . S
C3433 C3434 1.349 . S
C3433 C3435 1.327 . S
C3433 H3456 0.950 . S
C3434 C3433 1.349 . S
C3434 C3446 1.349 . S
C3435 C3433 1.327 . S
C3435 C3451 1.429 . S
C3435 H3457 0.950 . S
C3436 H3432 0.949 . S
C3436 C3444 1.574 1_655 S
C3436 C3452 1.368 . S
H3437 C3445 0.950 . S
H3438 C3443 0.950 . S
H3439 C3444 0.949 . S
H3440 C3446 0.950 . S
H3441 C3447 0.950 . S
H3442 C3448 0.949 . S
C3443 H3438 0.950 . S
C3443 C3445 1.327 . S
C3443 C3449 1.429 . S
C3444 C3436 1.574 1_455 S
C3444 H3439 0.949 . S
C3444 C3450 1.368 . S
C3445 C3429 1.349 . S
C3445 H3437 0.950 . S
C3445 C3443 1.327 . S
C3446 C3434 1.349 . S
C3446 H3440 0.950 . S
C3446 C3447 1.327 . S
C3447 H3441 0.950 . S
C3447 C3446 1.327 . S
C3447 C3451 1.429 . S
C3448 C3431 1.574 1_655 S
C3448 H3442 0.949 . S
C3448 C3452 1.368 . S
C3449 C3430 1.429 . S
C3449 C3443 1.429 . S
C3449 C3450 1.523 . S
C3450 C3431 1.368 . S
C3450 C3444 1.368 . S
C3450 C3449 1.523 . S
C3451 C3435 1.429 . S
C3451 C3447 1.429 . S
C3451 C3452 1.523 . S
C3452 C3436 1.368 . S
C3452 C3448 1.368 . S
C3452 C3451 1.523 . S
H3453 C3428 0.950 . S
H3454 C3430 0.950 . S
H3455 C3431 0.949 . S
H3456 C3433 0.950 . S
H3457 C3435 0.950 . S
C3458 C3459 1.349 . S
C3458 C3460 1.327 . S
C3458 H3483 0.950 . S
C3459 C3458 1.349 . S
C3459 C3475 1.349 . S
C3460 C3458 1.327 . S
C3460 C3479 1.429 . S
C3460 H3484 0.950 . S
C3461 C3478 1.574 . S
C3461 C3480 1.368 . S
C3461 H3485 0.949 . S
H3462 C3466 0.949 . S
C3463 C3464 1.349 . S
C3463 C3465 1.327 . S
C3463 H3486 0.950 . S
C3464 C3463 1.349 . S
C3464 C3476 1.349 . S
C3465 C3463 1.327 . S
C3465 C3481 1.429 . S
C3465 H3487 0.950 . S
C3466 H3462 0.949 . S
C3466 C3474 1.574 . S
C3466 C3482 1.368 . S
H3467 C3475 0.950 . S
H3468 C3473 0.950 . S
H3469 C3474 0.949 . S
H3470 C3476 0.950 . S
H3471 C3477 0.950 . S
H3472 C3478 0.949 . S
C3473 H3468 0.950 . S
C3473 C3475 1.327 . S
C3473 C3479 1.429 . S
C3474 C3466 1.574 . S
C3474 H3469 0.949 . S
C3474 C3480 1.368 . S
C3475 C3459 1.349 . S
C3475 H3467 0.950 . S
C3475 C3473 1.327 . S
C3476 C3464 1.349 . S
C3476 H3470 0.950 . S
C3476 C3477 1.327 . S
C3477 H3471 0.950 . S
C3477 C3476 1.327 . S
C3477 C3481 1.429 . S
C3478 C3461 1.574 . S
C3478 H3472 0.949 . S
C3478 C3482 1.368 . S
C3479 C3460 1.429 . S
C3479 C3473 1.429 . S
C3479 C3480 1.523 . S
C3480 C3461 1.368 . S
C3480 C3474 1.368 . S
C3480 C3479 1.523 . S
C3481 C3465 1.429 . S
C3481 C3477 1.429 . S
C3481 C3482 1.523 . S
C3482 C3466 1.368 . S
C3482 C3478 1.368 . S
C3482 C3481 1.523 . S
H3483 C3458 0.950 . S
H3484 C3460 0.950 . S
H3485 C3461 0.949 . S
H3486 C3463 0.950 . S
H3487 C3465 0.950 . S
C1089 C43 1.632 . S
C1094 C33 1.570 . S
C1119 C67 1.569 . S
C1124 C77 1.632 . S
C1149 C101 1.569 . S
C1154 C111 1.632 . S
C1179 C135 1.570 . S
C1184 C9 1.632 . S
C1209 C169 1.570 . S
C1214 C247 1.632 . S
C1239 C145 1.632 . S
C1244 C203 1.570 . S
C1269 C237 1.569 . S
C1274 C179 1.632 . S
C1299 C271 1.569 . S
C1304 C213 1.632 . S
C1329 C315 1.632 . S
C1334 C305 1.570 . S
C1359 C349 1.632 . S
C1364 C339 1.569 . S
C1389 C373 1.569 . S
C1394 C383 1.632 . S
C1419 C281 1.632 . S
C1424 C407 1.570 . S
C1449 C441 1.570 . S
C1454 C519 1.632 . S
C1479 C475 1.570 . S
C1484 C417 1.632 . S
C1509 C451 1.632 . S
C1514 C509 1.569 . S
C1539 C485 1.632 . S
C1544 C543 1.569 . S
C1569 C587 1.632 . S
C1574 C577 1.569 . S
C1599 C611 1.569 . S
C1604 C621 1.632 . S
C1629 C655 1.632 . S
C1634 C645 1.570 . S
C1659 C553 1.632 . S
C1664 C679 1.569 . S
C1689 C791 1.632 . S
C1694 C713 1.569 . S
C1719 C747 1.569 . S
C1724 C689 1.632 . S
C1749 C723 1.632 . S
C1754 C781 1.570 . S
C1779 C815 1.569 . S
C1784 C757 1.632 . S
C1809 C859 1.632 . S
C1814 C849 1.569 . S
C1839 C883 1.569 . S
C1844 C893 1.632 . S
C1869 C917 1.570 . S
C1874 C927 1.632 . S
C1899 C951 1.569 . S
C1904 C825 1.632 . S
C1929 C1063 1.632 . S
C1934 C985 1.569 . S
C1959 C961 1.632 . S
C1964 C1019 1.569 . S
C1989 C995 1.632 . S
C1994 C1053 1.570 . S
C2019 C1029 1.632 . S
C2024 C1087 1.569 . S
C2049 C209 0.807 . S
C2054 C5 0.807 . S
C2079 C39 0.807 . S
C2084 C243 0.807 . S
C2109 C73 0.807 . S
C2114 C141 0.807 . S
C2139 C107 0.807 . S
C2144 C175 0.807 . S
C2169 C481 0.807 . S
C2174 C277 0.807 . S
C2199 C515 0.807 . S
C2204 C311 0.807 . S
C2229 C345 0.807 . S
C2234 C413 0.807 . S
C2259 C447 0.807 . S
C2264 C379 0.807 . S
C2289 C549 0.807 . S
C2294 C753 0.807 . S
C2319 C583 0.807 . S
C2324 C787 0.807 . S
C2349 C685 0.807 . S
C2354 C617 0.807 . S
C2379 C719 0.807 . S
C2384 C651 0.807 . S
C2409 C1025 0.807 . S
C2414 C821 0.807 . S
C2439 C1059 0.807 . S
C2444 C855 0.807 . S
C2469 C957 0.807 . S
C2474 C889 0.807 . S
C2499 C991 0.807 . S
C2504 C923 0.807 . S
C2529 C172 0.419 1_545 S
C2534 C2 0.434 . S
C2559 C36 0.419 1_545 S
C2564 C206 0.434 . S
C2589 C70 0.434 . S
C2594 C240 0.419 1_565 S
C2619 C104 0.419 1_565 S
C2624 C138 0.434 . S
C2649 C444 0.419 1_565 S
C2654 C274 0.434 . S
C2679 C308 0.419 1_565 S
C2684 C478 0.434 . S
C2709 C512 0.419 1_545 S
C2714 C342 0.434 . S
C2739 C376 0.419 1_545 S
C2744 C410 0.434 . S
C2769 C546 0.434 . S
C2774 C716 0.434 . S
C2799 C750 0.434 . S
C2804 C580 0.434 . S
C2829 C784 0.434 . S
C2834 C614 0.434 . S
C2859 C648 0.434 . S
C2864 C682 0.434 . S
C2889 C818 0.434 . S
C2894 C988 0.434 . S
C2919 C1022 0.434 . S
C2924 C852 0.434 . S
C2949 C1056 0.434 . S
C2954 C886 0.434 . S
C2979 C954 0.434 . S
C2984 C920 0.434 . S
C3009 C20 1.528 . S
C3014 C1040 1.528 . S
C3039 C530 1.528 . S
C3044 C54 1.528 . S
C3069 C972 1.528 . S
C3074 C88 1.528 . S
C3099 C122 1.528 . S
C3104 C462 1.528 . S
C3129 C156 1.528 . S
C3134 C904 1.528 . S
C3159 C394 1.528 . S
C3164 C190 1.528 . S
C3189 C224 1.528 . S
C3194 C836 1.528 . S
C3219 C258 1.528 . S
C3224 C326 1.528 . S
C3249 C292 1.528 . S
C3254 C768 1.528 . S
C3279 C360 1.528 . S
C3284 C700 1.528 . S
C3309 C428 1.528 . S
C3314 C632 1.528 . S
C3339 C496 1.528 . S
C3344 C564 1.528 . S
C3369 C598 1.528 . S
C3374 C1074 1.528 . S
C3399 C1006 1.528 . S
C3404 C666 1.528 . S
C3429 C938 1.528 . S
C3434 C734 1.528 . S
C3459 C870 1.528 . S
C3464 C802 1.528 . S
