# Generated by pormake.
# Topology ukh, (4)-cn, num edge types: 1
# Building blocks:
#     Node 0, Type 0, BuildingBlock: NAHDIM_clean_sbu_0, # of connection points: 4
#     Node 1, Type 0, BuildingBlock: NAHDIM_clean_sbu_0, # of connection points: 4
#     Node 2, Type 0, BuildingBlock: NAHDIM_clean_sbu_0, # of connection points: 4
#     Node 3, Type 0, BuildingBlock: NAHDIM_clean_sbu_0, # of connection points: 4
#     Node 4, Type 0, BuildingBlock: NAHDIM_clean_sbu_0, # of connection points: 4
#     Node 5, Type 0, BuildingBlock: NAHDIM_clean_sbu_0, # of connection points: 4
#     Node 6, Type 0, BuildingBlock: NAHDIM_clean_sbu_0, # of connection points: 4
#     Node 7, Type 0, BuildingBlock: NAHDIM_clean_sbu_0, # of connection points: 4
#     Node 8, Type 0, BuildingBlock: NAHDIM_clean_sbu_0, # of connection points: 4
#     Node 9, Type 0, BuildingBlock: NAHDIM_clean_sbu_0, # of connection points: 4
#     Node 10, Type 0, BuildingBlock: NAHDIM_clean_sbu_0, # of connection points: 4
#     Node 11, Type 0, BuildingBlock: NAHDIM_clean_sbu_0, # of connection points: 4
#     Edge 12, Type (0, 0), BuildingBlock: ZUJKAS_clean_linker_0, # of connection points: 2
#     Edge 13, Type (0, 0), BuildingBlock: ZUJKAS_clean_linker_0, # of connection points: 2
#     Edge 14, Type (0, 0), BuildingBlock: ZUJKAS_clean_linker_0, # of connection points: 2
#     Edge 15, Type (0, 0), BuildingBlock: ZUJKAS_clean_linker_0, # of connection points: 2
#     Edge 16, Type (0, 0), BuildingBlock: ZUJKAS_clean_linker_0, # of connection points: 2
#     Edge 17, Type (0, 0), BuildingBlock: ZUJKAS_clean_linker_0, # of connection points: 2
#     Edge 18, Type (0, 0), BuildingBlock: ZUJKAS_clean_linker_0, # of connection points: 2
#     Edge 19, Type (0, 0), BuildingBlock: ZUJKAS_clean_linker_0, # of connection points: 2
#     Edge 20, Type (0, 0), BuildingBlock: ZUJKAS_clean_linker_0, # of connection points: 2
#     Edge 21, Type (0, 0), BuildingBlock: ZUJKAS_clean_linker_0, # of connection points: 2
#     Edge 22, Type (0, 0), BuildingBlock: ZUJKAS_clean_linker_0, # of connection points: 2
#     Edge 23, Type (0, 0), BuildingBlock: ZUJKAS_clean_linker_0, # of connection points: 2
#     Edge 24, Type (0, 0), BuildingBlock: ZUJKAS_clean_linker_0, # of connection points: 2
#     Edge 25, Type (0, 0), BuildingBlock: ZUJKAS_clean_linker_0, # of connection points: 2
#     Edge 26, Type (0, 0), BuildingBlock: ZUJKAS_clean_linker_0, # of connection points: 2
#     Edge 27, Type (0, 0), BuildingBlock: ZUJKAS_clean_linker_0, # of connection points: 2
#     Edge 28, Type (0, 0), BuildingBlock: ZUJKAS_clean_linker_0, # of connection points: 2
#     Edge 29, Type (0, 0), BuildingBlock: ZUJKAS_clean_linker_0, # of connection points: 2
#     Edge 30, Type (0, 0), BuildingBlock: ZUJKAS_clean_linker_0, # of connection points: 2
#     Edge 31, Type (0, 0), BuildingBlock: ZUJKAS_clean_linker_0, # of connection points: 2
#     Edge 32, Type (0, 0), BuildingBlock: ZUJKAS_clean_linker_0, # of connection points: 2
#     Edge 33, Type (0, 0), BuildingBlock: ZUJKAS_clean_linker_0, # of connection points: 2
#     Edge 34, Type (0, 0), BuildingBlock: ZUJKAS_clean_linker_0, # of connection points: 2
#     Edge 35, Type (0, 0), BuildingBlock: ZUJKAS_clean_linker_0, # of connection points: 2
# Relax obj value: 0.181
# Max RMSD: 0.212
# Mean RMSD: 0.212
data_MOF--net-ukh--node1-NAHDIM_clean_sbu_0--edge1-ZUJKAS_clean_linker_0
_symmetry_space_group_name_H-M    P1
_symmetry_Int_Tables_number       1
_symmetry_cell_setting            triclinic
loop_
_symmetry_equiv_pos_as_xyz
'x, y, z'
_cell_length_a     41.466771
_cell_length_b     41.478827
_cell_length_c     77.177199
_cell_angle_alpha  90.00393
_cell_angle_beta   90.001713
_cell_angle_gamma 120.10273
loop_
_atom_site_label
_atom_site_type_symbol
_atom_site_fract_x
_atom_site_fract_y
_atom_site_fract_z
_atom_type_partial_charge
C0 C 0.38638 0.30974 0.04676 0.0
O1 O 0.35839 0.30081 0.05739 0.0
O2 O 0.29788 0.22995 0.03283 0.0
Zn3 Zn 0.34441 0.23269 0.04245 0.0
O4 O 0.33897 0.22277 0.06804 0.0
C5 C 0.33672 0.17937 0.0168 0.0
O6 O 0.31961 0.19406 0.00843 0.0
O7 O 0.38741 0.28404 0.03826 0.0
C8 C 0.31788 0.18988 0.0736 0.0
O9 O 0.29951 0.16283 0.06241 0.0
C10 C 0.27204 0.22914 0.042 0.0
O11 O 0.27502 0.23029 0.05896 0.0
O12 O 0.3518 0.19306 0.03132 0.0
C13 C 0.1039 0.39957 0.37856 0.0
O14 O 0.13159 0.40708 0.38916 0.0
O15 O 0.06591 0.28239 0.36414 0.0
Zn16 Zn 0.1056 0.33188 0.37331 0.0
O17 O 0.11267 0.32612 0.39871 0.0
C18 C 0.15303 0.3351 0.34552 0.0
O19 O 0.12092 0.31552 0.33754 0.0
O20 O 0.08905 0.36928 0.37007 0.0
C21 C 0.14501 0.34197 0.40544 0.0
O22 O 0.17411 0.36287 0.39569 0.0
C23 C 0.03216 0.26846 0.36883 0.0
O24 O 0.02331 0.28674 0.37996 0.0
O25 O 0.15349 0.34694 0.36073 0.0
C26 C 0.69711 0.11238 0.71551 0.0
O27 O 0.71133 0.12854 0.73043 0.0
O28 O 0.77898 0.08273 0.69962 0.0
Zn29 Zn 0.77039 0.12206 0.71014 0.0
O30 O 0.77748 0.12244 0.73586 0.0
C31 C 0.81968 0.17747 0.68562 0.0
O32 O 0.80313 0.14987 0.67452 0.0
O33 O 0.71784 0.1086 0.70456 0.0
C34 C 0.80591 0.12203 0.74171 0.0
O35 O 0.82928 0.12033 0.73076 0.0
C36 C 0.759 0.04942 0.7049 0.0
O37 O 0.73419 0.04232 0.7171 0.0
O38 O 0.80867 0.17228 0.70125 0.0
C39 C 0.64447 0.70076 0.0374 0.0
O40 O 0.67991 0.71527 0.04134 0.0
O41 O 0.71477 0.78979 0.02685 0.0
Zn42 Zn 0.66681 0.77681 0.03901 0.0
O43 O 0.67595 0.7867 0.0646 0.0
C44 C 0.64895 0.81738 0.01396 0.0
O45 O 0.66327 0.80394 0.00288 0.0
O46 O 0.63118 0.72228 0.03553 0.0
C47 C 0.68201 0.81753 0.07095 0.0
O48 O 0.68325 0.84321 0.06055 0.0
C49 C 0.74612 0.81806 0.03047 0.0
O50 O 0.74803 0.8413 0.04253 0.0
O51 O 0.64622 0.80802 0.02978 0.0
C52 C 0.9358 0.62871 0.38455 0.0
O53 O 0.95098 0.65836 0.39454 0.0
O54 O 0.92965 0.70756 0.36766 0.0
Zn55 Zn 0.88994 0.65881 0.37772 0.0
O56 O 0.88216 0.66605 0.40278 0.0
C57 C 0.84266 0.65272 0.34937 0.0
O58 O 0.87481 0.6709 0.3413 0.0
O59 O 0.90722 0.62175 0.37567 0.0
C60 C 0.85075 0.64628 0.41006 0.0
O61 O 0.82303 0.62018 0.40107 0.0
C62 C 0.95221 0.73522 0.37683 0.0
O63 O 0.94996 0.73261 0.3938 0.0
O64 O 0.84202 0.64253 0.36494 0.0
C65 C 0.30041 0.89294 0.71435 0.0
O66 O 0.28554 0.87616 0.72907 0.0
O67 O 0.21943 0.92253 0.69688 0.0
Zn68 Zn 0.22719 0.88318 0.70811 0.0
O69 O 0.21913 0.88251 0.73391 0.0
C70 C 0.17917 0.82821 0.68296 0.0
O71 O 0.19427 0.85666 0.67225 0.0
O72 O 0.28017 0.89715 0.70327 0.0
C73 C 0.18755 0.85975 0.74039 0.0
O74 O 0.16011 0.8377 0.73004 0.0
C75 C 0.19612 0.9319 0.70193 0.0
O76 O 0.17459 0.91482 0.71527 0.0
O77 O 0.19055 0.83285 0.69852 0.0
C78 C 0.68819 0.6303 0.62314 0.0
O79 O 0.69551 0.65833 0.61281 0.0
O80 O 0.77069 0.71874 0.63271 0.0
Zn81 Zn 0.7655 0.67114 0.62315 0.0
O82 O 0.76938 0.67307 0.5972 0.0
C83 C 0.8092 0.64367 0.64279 0.0
O84 O 0.77848 0.61934 0.65072 0.0
O85 O 0.71523 0.62857 0.6299 0.0
C86 C 0.80068 0.69457 0.59017 0.0
O87 O 0.8293 0.71618 0.60005 0.0
C88 C 0.76741 0.7424 0.62354 0.0
O89 O 0.76072 0.7363 0.60687 0.0
O90 O 0.8082 0.66587 0.63177 0.0
C91 C 0.08119 0.68456 0.94865 0.0
O92 O 0.10049 0.69949 0.93447 0.0
O93 O 0.05338 0.76905 0.962 0.0
Zn94 Zn 0.09388 0.75892 0.95453 0.0
O95 O 0.10311 0.77007 0.92901 0.0
C96 C 0.13888 0.80368 0.98286 0.0
O97 O 0.10626 0.78966 0.9905 0.0
O98 O 0.07605 0.70499 0.95925 0.0
C99 C 0.13034 0.80066 0.92368 0.0
O100 O 0.15287 0.82526 0.93504 0.0
C101 C 0.05687 0.80123 0.961 0.0
O102 O 0.08779 0.82896 0.95468 0.0
O103 O 0.14067 0.79261 0.96775 0.0
C104 C 0.35982 0.05318 0.29155 0.0
O105 O 0.3243 0.02964 0.28883 0.0
O106 O 0.28476 0.06696 0.29885 0.0
Zn107 Zn 0.33368 0.10412 0.28784 0.0
O108 O 0.32728 0.10705 0.26224 0.0
C109 C 0.34155 0.15701 0.31352 0.0
O110 O 0.32486 0.1267 0.32304 0.0
O111 O 0.37122 0.0879 0.2919 0.0
C112 C 0.31224 0.12505 0.25645 0.0
O113 O 0.30047 0.14111 0.26744 0.0
C114 C 0.25642 0.04335 0.29035 0.0
O115 O 0.25815 0.04287 0.27337 0.0
O116 O 0.3504 0.15458 0.29803 0.0
C117 C 0.29958 0.36548 0.63788 0.0
O118 O 0.28455 0.33521 0.64745 0.0
O119 O 0.21786 0.27925 0.62964 0.0
Zn120 Zn 0.22861 0.32844 0.61971 0.0
O121 O 0.22456 0.32465 0.59383 0.0
C122 C 0.18842 0.35343 0.64247 0.0
O123 O 0.21585 0.36314 0.65354 0.0
O124 O 0.2804 0.36883 0.62591 0.0
C125 C 0.19297 0.30366 0.58692 0.0
O126 O 0.16401 0.28391 0.59696 0.0
C127 C 0.2323 0.26133 0.62309 0.0
O128 O 0.25462 0.27542 0.60968 0.0
O129 O 0.18944 0.33956 0.62795 0.0
C130 C 0.88606 0.28751 0.95195 0.0
O131 O 0.86788 0.27115 0.93769 0.0
O132 O 0.93033 0.21524 0.96659 0.0
Zn133 Zn 0.88841 0.21968 0.95597 0.0
O134 O 0.88845 0.21443 0.93013 0.0
C135 C 0.81427 0.17746 0.97334 0.0
O136 O 0.81855 0.20902 0.97932 0.0
O137 O 0.89591 0.26994 0.96211 0.0
C138 C 0.88231 0.18358 0.92381 0.0
O139 O 0.87789 0.1568 0.93437 0.0
C140 C 0.96023 0.22456 0.95831 0.0
O141 O 0.96363 0.23679 0.94234 0.0
O142 O 0.83977 0.17744 0.96423 0.0
C143 C 0.62471 0.92817 0.28751 0.0
O144 O 0.65893 0.95272 0.28292 0.0
O145 O 0.70385 0.92531 0.29776 0.0
Zn146 Zn 0.6578 0.8836 0.28671 0.0
O147 O 0.66661 0.88167 0.2612 0.0
C148 C 0.65687 0.83407 0.31282 0.0
O149 O 0.67384 0.86512 0.32181 0.0
O150 O 0.61635 0.89457 0.28996 0.0
C151 C 0.67585 0.85896 0.25513 0.0
O152 O 0.68014 0.83665 0.26576 0.0
C153 C 0.73687 0.93296 0.29423 0.0
O154 O 0.7422 0.91262 0.2828 0.0
O155 O 0.64556 0.83482 0.29763 0.0
H156 H 0.66514 0.64799 0.03992 0.0
H157 H 0.62491 0.58034 0.0388 0.0
H158 H 0.52918 0.59341 0.03067 0.0
H159 H 0.56926 0.66116 0.03153 0.0
H160 H 0.56722 0.53837 0.06114 0.0
H161 H 0.51617 0.51777 0.99339 0.0
H162 H 0.55616 0.56048 0.00074 0.0
H163 H 0.50979 0.55167 0.00501 0.0
C164 C 0.63558 0.63652 0.03771 0.0
C165 C 0.62036 0.65994 0.03583 0.0
C166 C 0.61267 0.59786 0.03706 0.0
C167 C 0.57419 0.58193 0.03443 0.0
C168 C 0.55894 0.60519 0.03234 0.0
H169 H 0.39367 0.36975 0.06456 0.0
H170 H 0.44166 0.43498 0.06105 0.0
C171 C 0.58185 0.64389 0.03296 0.0
C172 C 0.54966 0.54101 0.03516 0.0
H173 H 0.48288 0.46632 0.01275 0.0
C174 C 0.54906 0.52254 0.0505 0.0
C175 C 0.52638 0.52041 0.02117 0.0
C176 C 0.52733 0.53851 0.00408 0.0
C177 C 0.52473 0.48418 0.05247 0.0
C178 C 0.50007 0.46397 0.03883 0.0
C179 C 0.50164 0.48208 0.02324 0.0
C180 C 0.47131 0.42436 0.04085 0.0
C181 C 0.52544 0.46561 0.06916 0.0
C182 C 0.47179 0.39694 0.0304 0.0
C183 C 0.44433 0.35952 0.03236 0.0
C184 C 0.41581 0.3491 0.04469 0.0
C185 C 0.41532 0.3768 0.055 0.0
C186 C 0.4428 0.41407 0.05307 0.0
H187 H 0.5521 0.48239 0.07626 0.0
H188 H 0.50244 0.46248 0.07765 0.0
H189 H 0.52139 0.43744 0.06668 0.0
H190 H 0.49353 0.40449 0.02082 0.0
H191 H 0.44536 0.33885 0.02417 0.0
H192 H 0.1256 0.46396 0.39664 0.0
H193 H 0.09667 0.50286 0.39623 0.0
H194 H 0.01836 0.43114 0.35759 0.0
H195 H 0.04672 0.3918 0.35803 0.0
H196 H 0.08589 0.541 0.36832 0.0
H197 H 0.95163 0.43258 0.39672 0.0
H198 H 0.99332 0.42913 0.39721 0.0
H199 H 0.96627 0.41845 0.37768 0.0
C200 C 0.10232 0.45652 0.388 0.0
C201 C 0.08826 0.42462 0.37747 0.0
C202 C 0.08586 0.47878 0.38778 0.0
C203 C 0.05503 0.46943 0.3771 0.0
C204 C 0.04167 0.43833 0.36617 0.0
H205 H 0.91333 0.56697 0.36419 0.0
H206 H 0.94275 0.52867 0.3616 0.0
C207 C 0.05806 0.41603 0.36639 0.0
C208 C 0.03666 0.49209 0.37753 0.0
H209 H 0.95491 0.48864 0.38774 0.0
C210 C 0.05727 0.52963 0.37257 0.0
C211 C -0.00069 0.47702 0.38305 0.0
C212 C 0.97634 0.43717 0.38912 0.0
C213 C 0.04138 0.55255 0.37287 0.0
C214 C 0.00416 0.53758 0.37857 0.0
C215 C 0.98343 0.49994 0.38336 0.0
C216 C 0.9865 0.56078 0.38011 0.0
C217 C 0.06439 0.59243 0.36688 0.0
C218 C 0.00104 0.59103 0.39159 0.0
C219 C 0.98436 0.61292 0.39311 0.0
C220 C 0.95266 0.60477 0.38324 0.0
C221 C 0.93777 0.57402 0.37194 0.0
C222 C 0.95452 0.55213 0.37043 0.0
H223 H 0.08817 0.5966 0.35865 0.0
H224 H 0.04712 0.60116 0.35946 0.0
H225 H 0.07591 0.61088 0.37836 0.0
H226 H 0.02522 0.59761 0.39946 0.0
H227 H 0.99639 0.63626 0.40201 0.0
H228 H 0.34034 0.9343 0.68644 0.0
H229 H 0.40811 0.97057 0.68348 0.0
H230 H 0.42054 0.93051 0.73317 0.0
H231 H 0.35278 0.89389 0.73623 0.0
H232 H 0.4553 0.02713 0.7065 0.0
H233 H 0.49271 0.9164 0.70171 0.0
H234 H 0.44593 0.90756 0.69804 0.0
H235 H 0.46307 0.91106 0.71976 0.0
C236 C 0.35744 0.93268 0.69663 0.0
C237 C 0.34115 0.91125 0.71161 0.0
C238 C 0.39615 0.9535 0.69491 0.0
C239 C 0.41926 0.953 0.70804 0.0
C240 C 0.40315 0.93079 0.72276 0.0
H241 H 0.64409 0.11191 0.73676 0.0
H242 H 0.57644 0.07522 0.73327 0.0
C243 C 0.36442 0.90999 0.72452 0.0
C244 C 0.46011 0.97778 0.70694 0.0
H245 H 0.5425 0.97806 0.70729 0.0
C246 C 0.4744 0.01645 0.70651 0.0
C247 C 0.48486 0.96369 0.70678 0.0
C248 C 0.47094 0.9224 0.70643 0.0
C249 C 0.51294 0.04149 0.70648 0.0
C250 C 0.53768 0.02741 0.70709 0.0
C251 C 0.52339 0.98874 0.70696 0.0
C252 C 0.57849 0.05223 0.70839 0.0
C253 C 0.52687 0.08277 0.7058 0.0
C254 C 0.60199 0.05148 0.69554 0.0
C255 C 0.64065 0.07236 0.6975 0.0
C256 C 0.65648 0.09408 0.71245 0.0
C257 C 0.63282 0.09558 0.72507 0.0
C258 C 0.59414 0.07474 0.72307 0.0
H259 H 0.50523 0.08864 0.70076 0.0
H260 H 0.53443 0.0945 0.71907 0.0
H261 H 0.55208 0.09736 0.69752 0.0
H262 H 0.59038 0.03417 0.68415 0.0
H263 H 0.65806 0.07053 0.68754 0.0
H264 H 0.66208 0.56952 0.64469 0.0
H265 H 0.59675 0.52157 0.64966 0.0
H266 H 0.56106 0.57829 0.61449 0.0
H267 H 0.62573 0.62598 0.6094 0.0
H268 H 0.53475 0.53182 0.66148 0.0
H269 H 0.51296 0.46949 0.59587 0.0
H270 H 0.55874 0.49862 0.60504 0.0
H271 H 0.53346 0.51929 0.59592 0.0
C272 C 0.64028 0.57172 0.63801 0.0
C273 C 0.64908 0.60141 0.62656 0.0
C274 C 0.60307 0.54439 0.6409 0.0
C275 C 0.57428 0.54626 0.63226 0.0
C276 C 0.58299 0.57613 0.62107 0.0
H277 H 0.33852 0.43131 0.62047 0.0
H278 H 0.40564 0.47445 0.62106 0.0
C279 C 0.61999 0.60341 0.61823 0.0
C280 C 0.53492 0.51714 0.63475 0.0
H281 H 0.45843 0.453 0.61249 0.0
C282 C 0.51805 0.51416 0.65088 0.0
C283 C 0.51343 0.49422 0.62086 0.0
C284 C 0.53058 0.49521 0.60348 0.0
C285 C 0.47963 0.48994 0.65325 0.0
C286 C 0.45793 0.468 0.63916 0.0
C287 C 0.47515 0.47013 0.62322 0.0
C288 C 0.41703 0.44357 0.64032 0.0
C289 C 0.46227 0.48909 0.67055 0.0
C290 C 0.40119 0.41217 0.65114 0.0
C291 C 0.36271 0.38741 0.65087 0.0
C292 C 0.33957 0.39356 0.63966 0.0
C293 C 0.35551 0.42567 0.62922 0.0
C294 C 0.39387 0.45036 0.62953 0.0
H295 H 0.48135 0.51292 0.67891 0.0
H296 H 0.43596 0.48961 0.66877 0.0
H297 H 0.45546 0.46292 0.6774 0.0
H298 H 0.41868 0.40616 0.65937 0.0
H299 H 0.35131 0.36287 0.65902 0.0
H300 H 0.92597 0.32994 0.97961 0.0
H301 H 0.95609 0.3976 0.98249 0.0
H302 H 0.90895 0.40365 0.93362 0.0
H303 H 0.8783 0.33598 0.93071 0.0
H304 H 0.00853 0.44667 0.95956 0.0
H305 H 0.88999 0.47246 0.9644 0.0
H306 H 0.88483 0.42705 0.96792 0.0
H307 H 0.88647 0.4438 0.94625 0.0
C308 C 0.92139 0.34556 0.96962 0.0
C309 C 0.89986 0.32758 0.95488 0.0
C310 C 0.93868 0.38422 0.97129 0.0
C311 C 0.93455 0.40558 0.95833 0.0
C312 C 0.91194 0.38762 0.94393 0.0
H313 H 0.08258 0.63215 0.92767 0.0
H314 H 0.04815 0.56453 0.93148 0.0
C315 C 0.89459 0.34893 0.94225 0.0
C316 C 0.95661 0.44675 0.95907 0.0
H317 H 0.9495 0.52515 0.95759 0.0
C318 C 0.99564 0.46386 0.95932 0.0
C319 C 0.9397 0.46905 0.95892 0.0
C320 C 0.89794 0.45219 0.95953 0.0
C321 C 0.01827 0.50275 0.95886 0.0
C322 C 0.00138 0.52499 0.95786 0.0
C323 C 0.96236 0.50795 0.95819 0.0
C324 C 0.02365 0.56597 0.95602 0.0
C325 C 0.06006 0.51966 0.95948 0.0
C326 C 0.02098 0.58911 0.96849 0.0
C327 C 0.04049 0.62774 0.96632 0.0
C328 C 0.06282 0.6439 0.95157 0.0
C329 C 0.0658 0.62062 0.93922 0.0
C330 C 0.04626 0.58198 0.9414 0.0
H331 H 0.06811 0.5 0.96506 0.0
H332 H 0.07135 0.52659 0.94611 0.0
H333 H 0.07326 0.5457 0.96725 0.0
H334 H 0.00355 0.57722 0.97983 0.0
H335 H 0.03753 0.64487 0.97607 0.0
H336 H 0.43599 0.09408 0.29275 0.0
H337 H 0.47948 0.07048 0.29381 0.0
H338 H 0.38702 0.95776 0.29584 0.0
H339 H 0.34336 0.98097 0.29443 0.0
H340 H 0.48886 0.02637 0.31815 0.0
H341 H 0.44642 0.95532 0.25429 0.0
H342 H 0.43304 0.98838 0.26142 0.0
H343 H 0.40874 0.94129 0.26936 0.0
C344 C 0.42491 0.06427 0.29346 0.0
C345 C 0.38626 0.03935 0.29331 0.0
C346 C 0.44978 0.05086 0.29408 0.0
C347 C 0.4364 0.01238 0.29457 0.0
C348 C 0.39786 0.98752 0.29505 0.0
H349 H 0.54994 0.88372 0.29356 0.0
H350 H 0.50347 0.90334 0.2966 0.0
C351 C 0.37298 0.00086 0.29433 0.0
C352 C 0.46281 0.99828 0.29434 0.0
H353 H 0.48896 0.94558 0.27074 0.0
C354 C 0.48893 0.00872 0.30779 0.0
C355 C 0.46276 0.97529 0.28077 0.0
C356 C 0.43648 0.96464 0.26555 0.0
C357 C 0.51497 0.99657 0.30809 0.0
C358 C 0.51496 0.97374 0.29451 0.0
C359 C 0.48862 0.96295 0.28117 0.0
C360 C 0.54315 0.96206 0.29346 0.0
C361 C 0.54216 0.00802 0.32296 0.0
C362 C 0.58063 0.98864 0.29055 0.0
C363 C 0.60714 0.97758 0.28871 0.0
C364 C 0.59657 0.93969 0.28974 0.0
C365 C 0.55895 0.91311 0.29275 0.0
C366 C 0.5324 0.92423 0.29449 0.0
H367 H 0.53299 0.01804 0.33424 0.0
H368 H 0.54577 0.98442 0.32717 0.0
H369 H 0.56972 0.031 0.31867 0.0
H370 H 0.58928 0.01792 0.28943 0.0
H371 H 0.63588 -0.00127 0.28639 0.0
H372 H 0.28723 0.16647 0.23973 0.0
H373 H 0.28497 0.17485 0.20848 0.0
H374 H 0.32759 0.10052 0.19926 0.0
H375 H 0.33054 0.09241 0.23046 0.0
H376 H 0.3652 0.16612 0.18108 0.0
H377 H 0.21245 0.10309 0.17242 0.0
H378 H 0.2318 0.13875 0.18873 0.0
H379 H 0.2328 0.09628 0.19176 0.0
C380 C 0.29582 0.15164 0.23106 0.0
C381 C 0.30908 0.12878 0.23758 0.0
C382 C 0.29429 0.1563 0.2132 0.0
C383 C 0.30562 0.1379 0.20158 0.0
C384 C 0.31856 0.11483 0.20804 0.0
H385 H 0.27781 0.12241 0.08974 0.0
H386 H 0.27462 0.10954 0.12083 0.0
C387 C 0.32022 0.11024 0.22587 0.0
C388 C 0.30595 0.14425 0.1827 0.0
H389 H 0.25062 0.13682 0.1484 0.0
C390 C 0.34013 0.15957 0.17392 0.0
C391 C 0.27313 0.13529 0.17338 0.0
C392 C 0.23539 0.11711 0.182 0.0
C393 C 0.34251 0.16676 0.15608 0.0
C394 C 0.30991 0.15901 0.14687 0.0
C395 C 0.2756 0.14306 0.15557 0.0
C396 C 0.31094 0.16709 0.12816 0.0
C397 C 0.3798 0.18212 0.14721 0.0
C398 C 0.33188 0.20379 0.12207 0.0
C399 C 0.33386 0.21124 0.10434 0.0
C400 C 0.31471 0.1821 0.0924 0.0
C401 C 0.29301 0.14545 0.09859 0.0
C402 C 0.29109 0.13803 0.11634 0.0
H403 H 0.3996 0.17743 0.15501 0.0
H404 H 0.3767 0.1692 0.13426 0.0
H405 H 0.39219 0.2126 0.14539 0.0
H406 H 0.3468 0.22667 0.13104 0.0
H407 H 0.35058 0.23982 0.10001 0.0
H408 H 0.09096 0.30019 0.4292 0.0
H409 H 0.09939 0.29219 0.45998 0.0
H410 H 0.21821 0.36355 0.45443 0.0
H411 H 0.21014 0.37204 0.42372 0.0
H412 H 0.14289 0.26402 0.47526 0.0
H413 H 0.19103 0.41002 0.49504 0.0
H414 H 0.16794 0.39097 0.47465 0.0
H415 H 0.21637 0.40532 0.47728 0.0
C416 C 0.11889 0.3143 0.43453 0.0
C417 C 0.14988 0.33694 0.42404 0.0
C418 C 0.12363 0.30962 0.4521 0.0
C419 C 0.15935 0.32767 0.45948 0.0
C420 C 0.19035 0.34993 0.44902 0.0
H421 H 0.24703 0.34158 0.56265 0.0
H422 H 0.23872 0.3449 0.53147 0.0
C423 C 0.18567 0.35461 0.43146 0.0
C424 C 0.16427 0.32295 0.4781 0.0
H425 H 0.19516 0.37075 0.51612 0.0
C426 C 0.15418 0.28727 0.48424 0.0
C427 C 0.17903 0.3534 0.48971 0.0
C428 C 0.18894 0.39206 0.48392 0.0
C429 C 0.15912 0.28133 0.5017 0.0
C430 C 0.17396 0.31183 0.51331 0.0
C431 C 0.18395 0.34747 0.50715 0.0
C432 C 0.17905 0.30748 0.53196 0.0
C433 C 0.14917 0.24269 0.50751 0.0
C434 C 0.14823 0.28522 0.54254 0.0
C435 C 0.15287 0.28318 0.56036 0.0
C436 C 0.1884 0.30364 0.56792 0.0
C437 C 0.21929 0.32547 0.55724 0.0
C438 C 0.21461 0.32744 0.53943 0.0
H439 H 0.14755 0.22488 0.4964 0.0
H440 H 0.16988 0.24377 0.51696 0.0
H441 H 0.1215 0.22928 0.51392 0.0
H442 H 0.12045 0.27017 0.53707 0.0
H443 H 0.12849 0.26624 0.56823 0.0
H444 H 0.76723 0.13325 0.7674 0.0
H445 H 0.78221 0.14246 0.79828 0.0
H446 H 0.87638 0.12711 0.78955 0.0
H447 H 0.86209 0.11859 0.75858 0.0
H448 H 0.78733 0.09645 0.82243 0.0
H449 H 0.92322 0.22702 0.81464 0.0
H450 H 0.88972 0.20709 0.79729 0.0
H451 H 0.91923 0.18823 0.80252 0.0
C452 C 0.79111 0.13178 0.77204 0.0
C453 C 0.81368 0.12551 0.76052 0.0
C454 C 0.7996 0.13703 0.78968 0.0
C455 C 0.83077 0.13612 0.79613 0.0
C456 C 0.85271 0.12877 0.78476 0.0
H457 H 0.87122 0.12181 0.90604 0.0
H458 H 0.85996 0.10974 0.87498 0.0
C459 C 0.84436 0.1237 0.76709 0.0
C460 C 0.84021 0.14293 0.81476 0.0
H461 H 0.90793 0.20139 0.84291 0.0
C462 C 0.8137 0.11936 0.82693 0.0
C463 C 0.87445 0.17315 0.82056 0.0
C464 C 0.90319 0.20057 0.8081 0.0
C465 C 0.82054 0.1251 0.84478 0.0
C466 C 0.85515 0.15478 0.85057 0.0
C467 C 0.8816 0.17844 0.8384 0.0
C468 C 0.86385 0.16264 0.86921 0.0
C469 C 0.79027 0.09998 0.85727 0.0
C470 C 0.87115 0.19693 0.87613 0.0
C471 C 0.87798 0.20408 0.89383 0.0
C472 C 0.87765 0.17703 0.90492 0.0
C473 C 0.87137 0.1431 0.89786 0.0
C474 C 0.8647 0.13605 0.88014 0.0
H475 H 0.76255 0.08495 0.85087 0.0
H476 H 0.7967 0.07888 0.86245 0.0
H477 H 0.78855 0.11613 0.86835 0.0
H478 H 0.87082 0.2179 0.86788 0.0
H479 H 0.8828 0.23053 0.89884 0.0
H480 H 0.68327 0.7715 0.09604 0.0
H481 H 0.68584 0.78064 0.12747 0.0
H482 H 0.69175 0.88649 0.12009 0.0
H483 H 0.68916 0.87772 0.08869 0.0
H484 H 0.74221 0.8444 0.14825 0.0
H485 H 0.59893 0.82341 0.15208 0.0
H486 H 0.61494 0.80818 0.13375 0.0
H487 H 0.62932 0.85658 0.13625 0.0
C488 C 0.68529 0.79681 0.10109 0.0
C489 C 0.68573 0.82377 0.08988 0.0
C490 C 0.68682 0.80198 0.11903 0.0
C491 C 0.68853 0.834 0.12602 0.0
C492 C 0.68997 0.86139 0.11489 0.0
H493 H 0.67447 0.90453 0.22992 0.0
H494 H 0.68037 0.89976 0.19864 0.0
C495 C 0.68859 0.85635 0.09696 0.0
C496 C 0.68795 0.83844 0.14497 0.0
H497 H 0.63448 0.84142 0.1778 0.0
C498 C 0.7187 0.8437 0.15477 0.0
C499 C 0.65719 0.83753 0.15333 0.0
C500 C 0.62303 0.83084 0.14339 0.0
C501 C 0.71977 0.84876 0.17279 0.0
C502 C 0.68889 0.84767 0.18118 0.0
C503 C 0.65814 0.84235 0.17133 0.0
C504 C 0.68756 0.85164 0.20019 0.0
C505 C 0.75426 0.85604 0.18261 0.0
C506 C 0.68955 0.8261 0.21142 0.0
C507 C 0.68639 0.82886 0.2293 0.0
C508 C 0.6807 0.85695 0.23626 0.0
C509 C 0.67881 0.88255 0.22497 0.0
C510 C 0.68218 0.87988 0.2071 0.0
H511 H 0.77888 0.86647 0.17393 0.0
H512 H 0.76075 0.87666 0.19314 0.0
H513 H 0.74952 0.82964 0.18854 0.0
H514 H 0.69279 0.80355 0.20633 0.0
H515 H 0.68772 0.80855 0.23764 0.0
H516 H 0.7481 0.65046 0.56635 0.0
H517 H 0.75731 0.64524 0.53541 0.0
H518 H 0.8727 0.73086 0.54014 0.0
H519 H 0.86397 0.73597 0.57115 0.0
H520 H 0.78261 0.69899 0.5087 0.0
H521 H 0.87776 0.64266 0.51889 0.0
H522 H 0.84946 0.64508 0.53604 0.0
H523 H 0.89171 0.68619 0.52957 0.0
C524 C 0.77542 0.66831 0.56081 0.0
C525 C 0.80542 0.69338 0.57124 0.0
C526 C 0.78059 0.6653 0.54313 0.0
C527 C 0.81582 0.68719 0.53559 0.0
C528 C 0.84548 0.71318 0.54582 0.0
H529 H 0.90274 0.69689 0.43234 0.0
H530 H 0.89377 0.7081 0.46259 0.0
C531 C 0.84038 0.71618 0.56351 0.0
C532 C 0.8216 0.6823 0.51709 0.0
H533 H 0.86925 0.65591 0.48999 0.0
C534 C 0.8015 0.68953 0.50458 0.0
C535 C 0.84623 0.66988 0.51182 0.0
C536 C 0.86732 0.66016 0.52476 0.0
C537 C 0.80574 0.68512 0.48685 0.0
C538 C 0.8303 0.67263 0.4816 0.0
C539 C 0.85052 0.66556 0.4941 0.0
C540 C 0.83523 0.66631 0.46318 0.0
C541 C 0.7844 0.6944 0.47387 0.0
C542 C 0.80533 0.6388 0.45359 0.0
C543 C 0.81034 0.63225 0.43631 0.0
C544 C 0.84541 0.65302 0.42836 0.0
C545 C 0.87535 0.68045 0.43806 0.0
C546 C 0.87031 0.68691 0.45534 0.0
H547 H 0.77417 0.71216 0.47964 0.0
H548 H 0.802 0.709 0.46245 0.0
H549 H 0.75987 0.66821 0.46929 0.0
H550 H 0.77821 0.62211 0.45953 0.0
H551 H 0.78675 0.61085 0.42922 0.0
H552 H 0.18906 0.86033 0.90805 0.0
H553 H 0.19927 0.87342 0.87699 0.0
H554 H 0.09629 0.77235 0.86587 0.0
H555 H 0.08576 0.75892 0.89688 0.0
H556 H 0.20257 0.82433 0.8507 0.0
H557 H 0.08946 0.85673 0.83926 0.0
H558 H 0.10815 0.858 0.86056 0.0
H559 H 0.07609 0.81414 0.85076 0.0
C560 C 0.1685 0.84092 0.89901 0.0
C561 C 0.13654 0.80863 0.90493 0.0
C562 C 0.17441 0.84846 0.88129 0.0
C563 C 0.14831 0.82407 0.86922 0.0
C564 C 0.11646 0.79176 0.87504 0.0
H565 H 0.12582 0.80953 0.75826 0.0
H566 H 0.11782 0.80268 0.78964 0.0
C567 C 0.11061 0.78407 0.89275 0.0
C568 C 0.15486 0.83183 0.85048 0.0
H569 H 0.1201 0.85134 0.81445 0.0
C570 C 0.18476 0.8305 0.84275 0.0
C571 C 0.13144 0.83975 0.84024 0.0
C572 C 0.09962 0.84258 0.84809 0.0
C573 C 0.19129 0.83587 0.82486 0.0
C574 C 0.16776 0.84365 0.81457 0.0
C575 C 0.1381 0.8454 0.82238 0.0
C576 C 0.17268 0.84884 0.79558 0.0
C577 C 0.22253 0.83191 0.81708 0.0
C578 C 0.20595 0.87753 0.78852 0.0
C579 C 0.21074 0.88139 0.77057 0.0
C580 C 0.18212 0.85687 0.75938 0.0
C581 C 0.14845 0.82883 0.76651 0.0
C582 C 0.14379 0.82488 0.78445 0.0
H583 H 0.23153 0.81665 0.82585 0.0
H584 H 0.21403 0.81699 0.80449 0.0
H585 H 0.24691 0.86002 0.81477 0.0
H586 H 0.22826 0.89687 0.7969 0.0
H587 H 0.23689 0.90347 0.76547 0.0
H588 H 0.13834 0.85164 0.00673 0.0
H589 H 0.18891 0.91417 0.0132 0.0
H590 H 0.26377 0.89517 0.98168 0.0
H591 H 0.21242 0.83293 0.97434 0.0
H592 H 0.25571 0.94726 0.02708 0.0
H593 H 0.26902 0.98177 0.95679 0.0
H594 H 0.23255 0.93801 0.96509 0.0
H595 H 0.27917 0.94598 0.96272 0.0
C596 C 0.1657 0.86044 0.00141 0.0
C597 C 0.17128 0.83766 0.98978 0.0
C598 C 0.19467 0.89628 0.00512 0.0
C599 C 0.22991 0.90983 0.99751 0.0
C600 C 0.2365 0.8858 0.98722 0.0
H601 H 0.37482 0.14518 0.02811 0.0
H602 H 0.35932 0.08088 0.02231 0.0
C603 C 0.20725 0.85015 0.98317 0.0
C604 C 0.25802 0.94998 -0.00075 0.0
H605 H 0.30277 0.03077 0.97599 0.0
C606 C 0.26649 0.96556 0.01593 0.0
C607 C 0.27195 0.97378 0.98463 0.0
C608 C 0.26256 0.95921 0.9663 0.0
C609 C 0.28604 0.00429 0.01843 0.0
C610 C 0.29889 0.02811 0.00379 0.0
C611 C 0.29291 0.01244 0.98716 0.0
C612 C 0.31314 0.06873 0.00523 0.0
C613 C 0.29008 0.01913 0.03665 0.0
C614 C 0.29416 0.08407 0.99658 0.0
C615 C 0.30361 0.12095 -0.00052 0.0
C616 C 0.33191 0.14312 0.01128 0.0
C617 C 0.35252 0.12854 0.01911 0.0
C618 C 0.34349 0.09173 0.01594 0.0
H619 H 0.27198 0.997 0.04599 0.0
H620 H 0.31939 0.03087 0.04096 0.0
H621 H 0.28296 0.04159 0.03721 0.0
H622 H 0.27076 0.06696 0.98818 0.0
H623 H 0.28723 0.13132 0.9932 0.0
H624 H 0.15618 0.28823 0.32192 0.0
H625 H 0.20931 0.28043 0.31571 0.0
H626 H 0.27991 0.37715 0.34681 0.0
H627 H 0.22583 0.3836 0.35402 0.0
H628 H 0.27515 0.31633 0.30188 0.0
H629 H 0.29267 0.30175 0.37252 0.0
H630 H 0.25438 0.30592 0.36424 0.0
H631 H 0.30028 0.34629 0.36559 0.0
C632 C 0.18311 0.30826 0.32721 0.0
C633 C 0.18674 0.33607 0.33872 0.0
C634 C 0.21359 0.30382 0.32364 0.0
C635 C 0.24847 0.32751 0.33123 0.0
C636 C 0.25301 0.35767 0.34133 0.0
H637 H 0.38441 0.22792 0.30094 0.0
H638 H 0.37575 0.28128 0.30655 0.0
C639 C 0.2222 0.36155 0.3453 0.0
C640 C 0.27823 0.31771 0.3297 0.0
H641 H 0.32446 0.28417 0.35349 0.0
C642 C 0.28648 0.3098 0.31314 0.0
C643 C 0.29322 0.30951 0.34446 0.0
C644 C 0.28459 0.31602 0.36271 0.0
C645 C 0.30574 0.29031 0.31094 0.0
C646 C 0.31888 0.2802 0.32577 0.0
C647 C 0.31417 0.29177 0.3422 0.0
C648 C 0.33073 0.25188 0.32489 0.0
C649 C 0.30862 0.27786 0.2929 0.0
C650 C 0.31068 0.2188 0.33445 0.0
C651 C 0.31649 0.18889 0.33174 0.0
C652 C 0.34199 0.19121 0.31916 0.0
C653 C 0.36414 0.22524 0.31053 0.0
C654 C 0.35896 0.25559 0.3136 0.0
H655 H 0.29101 0.28227 0.28343 0.0
H656 H 0.33793 0.29408 0.28839 0.0
H657 H 0.30003 0.24784 0.29278 0.0
H658 H 0.28887 0.21522 0.34333 0.0
H659 H 0.29906 0.16311 0.33863 0.0
H660 H 0.85693 0.19373 0.65473 0.0
H661 H 0.92116 0.24285 0.64935 0.0
H662 H 0.9271 0.28685 0.7006 0.0
H663 H 0.86296 0.23772 0.7062 0.0
H664 H 0.96433 0.32594 0.653 0.0
H665 H 0.00311 0.24817 0.69958 0.0
H666 H 0.95709 0.22776 0.69028 0.0
H667 H 0.97102 0.26246 0.70692 0.0
C668 C 0.87153 0.21434 0.66472 0.0
C669 C 0.85508 0.21137 0.68101 0.0
C670 C 0.9082 0.24247 0.6616 0.0
C671 C 0.9289 0.26802 0.67468 0.0
C672 C 0.9116 0.26708 0.69042 0.0
H673 H 0.17167 0.37279 0.67382 0.0
H674 H 0.11108 0.36361 0.68302 0.0
C675 C 0.87495 0.23896 0.69357 0.0
C676 C 0.96963 0.29197 0.67261 0.0
H677 H 0.05125 0.2967 0.68413 0.0
C678 C 0.98352 0.32008 0.65999 0.0
C679 C 0.99451 0.28437 0.68186 0.0
C680 C 0.9809 0.25396 0.69537 0.0
C681 C 0.02166 0.33989 0.6559 0.0
C682 C 0.04617 0.33054 0.66435 0.0
C683 C 0.03249 0.30393 0.67767 0.0
C684 C 0.08458 0.34363 0.65808 0.0
C685 C 0.03514 0.37007 0.64234 0.0
C686 C 0.09003 0.33618 0.64093 0.0
C687 C 0.12449 0.34146 0.63565 0.0
C688 C 0.15417 0.35381 0.64748 0.0
C689 C 0.14934 0.36314 0.66442 0.0
C690 C 0.11475 0.35797 0.66968 0.0
H691 H 0.01793 0.38372 0.64236 0.0
H692 H 0.06476 0.39165 0.64441 0.0
H693 H 0.0324 0.35748 0.62934 0.0
H694 H 0.06702 0.32412 0.63185 0.0
H695 H 0.12723 0.33408 0.62249 0.0
H696 H 0.61977 0.85129 0.03375 0.0
H697 H 0.62249 0.91041 0.02769 0.0
H698 H 0.66895 0.91364 0.97726 0.0
H699 H 0.66553 0.85433 0.98305 0.0
H700 H 0.68774 0.97111 0.0238 0.0
H701 H 0.60474 0.95753 0.96582 0.0
H702 H 0.5977 0.9175 0.97819 0.0
H703 H 0.63322 0.9372 0.96166 0.0
C704 C 0.62947 0.86401 0.02115 0.0
C705 C 0.64292 0.84838 0.00895 0.0
C706 C 0.6309 0.89777 0.0177 0.0
C707 C 0.64565 0.9164 0.00198 0.0
C708 C 0.65658 0.89945 0.98932 0.0
H709 H 0.79284 0.11061 0.95827 0.0
H710 H 0.74172 0.04987 0.96663 0.0
C711 C 0.65497 0.86561 0.99272 0.0
C712 C 0.65638 0.95609 -1e-05 0.0
H713 H 0.66214 0.01841 0.96958 0.0
C714 C 0.68112 0.98151 0.01224 0.0
C715 C 0.64753 0.96966 0.985 0.0
C716 C 0.61899 0.9439 0.97204 0.0
C717 C 0.70037 0.01994 0.00899 0.0
C718 C 0.6943 0.03319 0.99315 0.0
C719 C 0.66691 0.00811 0.98167 0.0
C720 C 0.72115 0.071 0.98684 0.0
C721 C 0.72959 0.04567 0.02176 0.0
C722 C 0.72599 0.10323 0.99519 0.0
C723 C 0.75558 0.13833 0.99047 0.0
C724 C 0.78065 0.14145 0.97741 0.0
C725 C 0.77439 0.10919 0.96855 0.0
C726 C 0.74494 0.07441 0.97321 0.0
H727 H 0.73296 0.03033 0.03276 0.0
H728 H 0.75693 0.06211 0.01517 0.0
H729 H 0.7216 0.06553 0.02707 0.0
H730 H 0.70765 0.10112 0.00566 0.0
H731 H 0.75957 0.16273 0.99743 0.0
H732 H 0.70236 0.83095 0.33725 0.0
H733 H 0.7132 0.77948 0.34278 0.0
H734 H 0.62367 0.70962 0.30789 0.0
H735 H 0.61414 0.76214 0.30148 0.0
H736 H 0.67711 0.71161 0.35477 0.0
H737 H 0.70698 0.70521 0.28487 0.0
H738 H 0.69896 0.74101 0.29335 0.0
H739 H 0.66047 0.69462 0.28995 0.0
C740 C 0.68456 0.80451 0.33094 0.0
C741 C 0.65785 0.80074 0.31871 0.0
C742 C 0.69075 0.77499 0.33412 0.0
C743 C 0.66995 0.74091 0.32538 0.0
C744 C 0.64094 0.73601 0.31432 0.0
H745 H 0.7696 0.60673 0.35835 0.0
H746 H 0.71668 0.6146 0.35047 0.0
C747 C 0.6353 0.76592 0.3108 0.0
C748 C 0.68138 0.71238 0.327 0.0
H749 H 0.72227 0.67189 0.30416 0.0
C750 C 0.68651 0.70237 0.34371 0.0
C751 C 0.69338 0.7002 0.31248 0.0
C752 C 0.68998 0.71093 0.29416 0.0
C753 C 0.70662 0.68393 0.34647 0.0
C754 C 0.72034 0.67345 0.33198 0.0
C755 C 0.71185 0.68008 0.31522 0.0
C756 C 0.74904 0.66228 0.33388 0.0
C757 C 0.71574 0.67903 0.36489 0.0
C758 C 0.78392 0.68421 0.32594 0.0
C759 C 0.81371 0.6789 0.32992 0.0
C760 C 0.80938 0.65201 0.34216 0.0
C761 C 0.77379 0.62807 0.34906 0.0
C762 C 0.74365 0.63278 0.34471 0.0
H763 H 0.70891 0.69502 0.37429 0.0
H764 H 0.6993 0.64917 0.36851 0.0
H765 H 0.7458 0.68824 0.36624 0.0
H766 H 0.78882 0.70702 0.31745 0.0
H767 H 0.84075 0.69773 0.32434 0.0
H768 H 0.13853 0.76601 0.70283 0.0
H769 H 0.07584 0.71442 0.69684 0.0
H770 H 0.0787 0.76094 0.64649 0.0
H771 H 0.14146 0.81218 0.65224 0.0
H772 H 0.01938 0.72769 0.69228 0.0
H773 H 0.02614 0.65098 0.63534 0.0
H774 H 0.06681 0.6812 0.64812 0.0
H775 H 0.05089 0.7002 0.63138 0.0
C776 C 0.12625 0.76471 0.69028 0.0
C777 C 0.14483 0.79345 0.67807 0.0
C778 C 0.09042 0.73514 0.68688 0.0
C779 C 0.07267 0.73362 0.67118 0.0
C780 C 0.09212 0.76101 0.65855 0.0
H781 H 0.87507 0.68599 0.62614 0.0
H782 H 0.9364 0.69731 0.63451 0.0
C783 C 0.12795 0.79054 0.66191 0.0
C784 C 0.03216 0.70753 0.66905 0.0
H785 H 0.96754 0.65064 0.63942 0.0
C786 C 0.0079 0.70992 0.68099 0.0
C787 C 0.01727 0.6843 0.65436 0.0
C788 C 0.04171 0.67872 0.64168 0.0
C789 C 0.96946 0.69244 0.67784 0.0
C790 C 0.95493 0.67154 0.66246 0.0
C791 C 0.97881 0.6668 0.65118 0.0
C792 C 0.91671 0.66 0.65652 0.0
C793 C 0.94522 0.69898 0.69028 0.0
C794 C 0.88507 0.63447 0.6659 0.0
C795 C 0.84967 0.62805 0.6612 0.0
C796 C 0.84558 0.64708 0.64705 0.0
C797 C 0.87721 0.67117 0.63724 0.0
C798 C 0.91234 0.67751 0.64192 0.0
H799 H 0.96178 0.71981 0.70042 0.0
H800 H 0.92844 0.7088 0.6832 0.0
H801 H 0.92564 0.67241 0.69682 0.0
H802 H 0.88788 0.62033 0.6771 0.0
H803 H 0.8258 0.60911 0.66892 0.0
H804 H 0.96656 0.21095 0.99245 0.0
H805 H 0.01935 0.21112 0.00665 0.0
H806 H 0.07655 0.23362 0.95761 0.0
H807 H 0.02431 0.23443 0.94337 0.0
H808 H 0.05092 0.16782 0.00149 0.0
H809 H 0.15387 0.31595 0.98781 0.0
H810 H 0.10443 0.29674 0.98472 0.0
H811 H 0.13161 0.28936 0.96871 0.0
C812 C 0.99038 0.21597 0.98468 0.0
C813 C 0.99141 0.22303 0.9668 0.0
C814 C 0.02051 0.21604 0.99282 0.0
C815 C 0.05216 0.22311 0.98325 0.0
C816 C 0.05281 0.22908 0.96532 0.0
H817 H 0.2595 0.23064 0.00733 0.0
H818 H 0.20525 0.22793 0.9934 0.0
C819 C 0.02283 0.22931 0.95718 0.0
C820 C 0.08436 0.22396 0.99202 0.0
H821 H 0.17772 0.27901 -0.00058 0.0
C822 C 0.07861 0.19218 0.00112 0.0
C823 C 0.12043 0.25586 0.99157 0.0
C824 C 0.12798 0.29154 0.98282 0.0
C825 C 0.10815 0.1912 0.00949 0.0
C826 C 0.14421 0.22292 0.00884 0.0
C827 C 0.14998 0.25471 -0.0002 0.0
C828 C 0.17648 0.2237 0.0174 0.0
C829 C 0.10079 0.15606 0.01869 0.0
C830 C 0.17828 0.22251 0.03552 0.0
C831 C 0.20931 0.2242 0.04355 0.0
C832 C 0.23905 0.22713 0.03357 0.0
C833 C 0.23707 0.22833 0.0154 0.0
C834 C 0.20612 0.2268 0.0074 0.0
H835 H 0.07344 0.13181 0.01501 0.0
H836 H 0.12307 0.14944 0.01578 0.0
H837 H 0.10068 0.16023 0.03289 0.0
H838 H 0.15586 0.22068 0.04345 0.0
H839 H 0.21001 0.2233 0.05756 0.0
H840 H 0.81132 0.9606 0.28824 0.0
H841 H 0.86384 0.01529 0.30166 0.0
H842 H 0.78724 0.0331 0.33233 0.0
H843 H 0.73472 0.97854 0.31915 0.0
H844 H 0.87679 0.08919 0.30092 0.0
H845 H 0.86232 0.03682 0.36826 0.0
H846 H 0.84029 0.00631 0.35 0.0
H847 H 0.8201 0.03188 0.35931 0.0
C848 C 0.80567 0.97597 0.29795 0.0
C849 C 0.76885 0.96517 0.30265 0.0
C850 C 0.83569 0.00719 0.30558 0.0
C851 C 0.82938 0.02786 0.31815 0.0
C852 C 0.7927 0.01708 0.32291 0.0
H853 H 0.95723 0.23175 0.37538 0.0
H854 H 0.9093 0.17293 0.36277 0.0
C855 C 0.76272 0.98599 0.31527 0.0
C856 C 0.86094 0.06183 0.32571 0.0
H857 H 0.90273 0.10202 0.36407 0.0
C858 C 0.88278 0.09193 0.3147 0.0
C859 C 0.86847 0.06524 0.34369 0.0
C860 C 0.8468 0.03325 0.35601 0.0
C861 C 0.91131 0.12589 0.32127 0.0
C862 C 0.91852 0.12948 0.33929 0.0
C863 C 0.89703 0.09917 0.35027 0.0
C864 C 0.94781 0.16474 0.34705 0.0
C865 C 0.93263 0.158 0.30895 0.0
C866 C 0.98536 0.17927 0.34257 0.0
C867 C 0.0128 0.2129 0.3497 0.0
C868 C 0.00318 0.23247 0.36156 0.0
C869 C 0.96557 0.21745 0.36625 0.0
C870 C 0.93815 0.18383 0.35909 0.0
H871 H 0.91786 0.15355 0.2964 0.0
H872 H 0.93731 0.18455 0.3147 0.0
H873 H 0.96025 0.16088 0.30627 0.0
H874 H 0.99346 0.16457 0.33356 0.0
H875 H 0.04154 0.22357 0.34589 0.0
H876 H 0.78027 0.76286 0.65765 0.0
H877 H 0.781 0.81636 0.67136 0.0
H878 H 0.76073 0.85096 0.62183 0.0
H879 H 0.75956 0.79733 0.60798 0.0
H880 H 0.82649 0.89366 0.66452 0.0
H881 H 0.67628 0.84318 0.65305 0.0
H882 H 0.69618 0.81338 0.65093 0.0
H883 H 0.70242 0.84578 0.63401 0.0
C884 C 0.77601 0.78185 0.64965 0.0
C885 C 0.76956 0.77567 0.63173 0.0
C886 C 0.77652 0.81243 0.65751 0.0
C887 C 0.7704 0.83724 0.64764 0.0
C888 C 0.76486 0.83172 0.6297 0.0
H889 H 0.80604 0.05423 0.67886 0.0
H890 H 0.81016 0.00314 0.66525 0.0
C891 C 0.76437 0.80115 0.62182 0.0
C892 C 0.76938 0.86865 0.65618 0.0
H893 H 0.71226 0.90382 0.66476 0.0
C894 C 0.80156 0.89595 0.6646 0.0
C895 C 0.73662 0.87118 0.65642 0.0
C896 C 0.70077 0.84169 0.64826 0.0
C897 C 0.80198 0.92607 0.6731 0.0
C898 C 0.76947 0.92907 0.67298 0.0
C899 C 0.7372 0.90154 0.66471 0.0
C900 C 0.76805 0.96023 0.68156 0.0
C901 C 0.83692 0.95403 0.68242 0.0
C902 C 0.74263 0.95293 0.69505 0.0
C903 C 0.74004 0.98199 0.70278 0.0
C904 C 0.76271 0.01889 0.69708 0.0
C905 C 0.7883 0.02614 0.6836 0.0
C906 C 0.79085 0.99702 0.67587 0.0
H907 H 0.85595 0.94294 0.6849 0.0
H908 H 0.85205 0.97943 0.67432 0.0
H909 H 0.83007 0.96226 0.69498 0.0
H910 H 0.72469 0.92468 0.69957 0.0
H911 H 0.72003 0.97544 0.71312 0.0
H912 H 0.75119 0.7759 0.00461 0.0
H913 H 0.80772 0.78078 0.9923 0.0
H914 H 0.87502 0.87603 0.02471 0.0
H915 H 0.81851 0.87126 0.03726 0.0
H916 H 0.87024 0.84164 0.97516 0.0
H917 H 0.90835 0.79943 0.03684 0.0
H918 H 0.8625 0.79289 0.03303 0.0
H919 H 0.90069 0.83837 0.03807 0.0
C920 C 0.77798 0.79807 0.00907 0.0
C921 C 0.78035 0.823 0.02204 0.0
C922 C 0.81024 0.80086 0.00198 0.0
C923 C 0.84544 0.82846 0.00776 0.0
C924 C 0.84803 0.85422 0.02026 0.0
H925 H 0.05478 0.86625 0.96091 0.0
H926 H 0.00511 0.87615 0.97211 0.0
C927 C 0.81573 0.85152 0.02736 0.0
C928 C 0.8792 0.82903 0.00116 0.0
H929 H 0.94837 0.81174 0.01305 0.0
C930 C 0.88759 0.83546 0.98344 0.0
C931 C 0.90141 0.82054 0.01201 0.0
C932 C 0.8928 0.81212 0.03103 0.0
C933 C 0.91744 0.83314 0.97622 0.0
C934 C 0.93951 0.82446 0.98707 0.0
C935 C 0.93145 0.81859 0.00482 0.0
C936 C 0.96959 0.8189 0.9801 0.0
C937 C 0.92435 0.83864 0.95696 0.0
C938 C 0.9662 0.78358 0.98111 0.0
C939 C 0.99444 0.77784 0.97479 0.0
C940 C 0.02677 0.80742 0.9674 0.0
C941 C 0.03016 0.84286 0.96645 0.0
C942 C 0.00179 0.84856 0.97277 0.0
H943 H 0.90078 0.8384 0.95 0.0
H944 H 0.94983 0.86591 0.95457 0.0
H945 H 0.92897 0.81656 0.95144 0.0
H946 H 0.94156 0.76038 0.98677 0.0
H947 H 0.99095 0.75022 0.97577 0.0
H948 H 0.00811 0.79752 0.3924 0.0
H949 H 0.05767 0.85327 0.37828 0.0
H950 H 0.01235 0.80615 0.32822 0.0
H951 H 0.96258 0.75049 0.34216 0.0
H952 H 0.1101 0.8546 0.35453 0.0
H953 H 0.02689 0.91178 0.32534 0.0
H954 H 0.00921 0.87756 0.3425 0.0
H955 H 0.01001 0.86353 0.32055 0.0
C956 C 0.00847 0.79914 0.37839 0.0
C957 C 0.98139 0.76957 0.3684 0.0
C958 C 0.0368 0.831 0.37036 0.0
C959 C 0.03833 0.83399 0.35224 0.0
C960 C 0.01122 0.80468 0.34223 0.0
H961 H 0.19324 0.98531 0.27643 0.0
H962 H 0.14005 0.93577 0.29201 0.0
C963 C 0.98295 0.77278 0.35024 0.0
C964 C 0.06952 0.86677 0.34373 0.0
H965 H 0.08992 0.93867 0.31601 0.0
C966 C 0.10579 0.87322 0.34624 0.0
C967 C 0.06365 0.89079 0.33286 0.0
C968 C 0.02539 0.88587 0.33023 0.0
C969 C 0.13636 0.90257 0.33779 0.0
C970 C 0.1305 0.9265 0.32683 0.0
C971 C 0.09426 0.92024 0.32444 0.0
C972 C 0.16167 0.95773 0.31749 0.0
C973 C 0.17451 0.90703 0.34026 0.0
C974 C 0.19093 0.98691 0.32667 0.0
C975 C 0.22139 0.01518 0.31783 0.0
C976 C 0.22299 0.01487 0.29963 0.0
C977 C 0.19295 0.98628 0.29045 0.0
C978 C 0.16252 0.95798 0.29932 0.0
H979 H 0.17287 0.88136 0.34558 0.0
H980 H 0.19004 0.91405 0.32782 0.0
H981 H 0.19066 0.93009 0.34951 0.0
H982 H 0.1904 0.9876 0.3407 0.0
H983 H 0.24391 0.03697 0.32529 0.0
H984 H 0.23517 0.97095 0.67343 0.0
H985 H 0.23569 0.0246 0.6601 0.0
H986 H 0.15463 0.0171 0.6973 0.0
H987 H 0.15409 0.96344 0.71088 0.0
H988 H 0.1755 0.03109 0.64574 0.0
H989 H 0.24251 0.12543 0.70199 0.0
H990 H 0.24214 0.08197 0.6995 0.0
H991 H 0.20096 0.08198 0.70666 0.0
C992 C 0.21735 0.98059 0.67878 0.0
C993 C 0.19479 0.96309 0.69332 0.0
C994 C 0.21765 0.01121 0.67111 0.0
C995 C 0.19559 0.02505 0.67787 0.0
C996 C 0.1723 0.00714 0.69208 0.0
H997 H 0.18688 0.22439 0.65051 0.0
H998 H 0.17498 0.16551 0.66335 0.0
C999 C 0.17191 0.9764 0.69977 0.0
C1000 C 0.19761 0.05863 0.67012 0.0
H1001 H 0.22641 0.15004 0.67818 0.0
C1002 C 0.1865 0.0571 0.65282 0.0
C1003 C 0.21194 0.09242 0.67944 0.0
C1004 C 0.22538 0.09587 0.69789 0.0
C1005 C 0.18936 0.08857 0.64456 0.0
C1006 C 0.20441 0.12257 0.65377 0.0
C1007 C 0.2149 0.12391 0.67116 0.0
C1008 C 0.21052 0.15741 0.6455 0.0
C1009 C 0.17592 0.08503 0.62612 0.0
C1010 C 0.2347 0.17249 0.63129 0.0
C1011 C 0.24153 0.2061 0.6239 0.0
C1012 C 0.22454 0.22539 0.63069 0.0
C1013 C 0.20038 0.21021 0.64495 0.0
C1014 C 0.19353 0.17658 0.65231 0.0
H1015 H 0.15578 0.0556 0.6227 0.0
H1016 H 0.16243 0.10203 0.62393 0.0
H1017 H 0.20008 0.09515 0.61721 0.0
H1018 H 0.24876 0.15857 0.62609 0.0
H1019 H 0.26043 0.21711 0.61299 0.0
loop_
_geom_bond_atom_site_label_1
_geom_bond_atom_site_label_2
_geom_bond_distance
_geom_bond_site_symmetry_2
_ccdc_geom_bond_type
C0 O1 1.160 . S
C0 O7 1.185 . S
O1 C0 1.160 . S
O2 Zn3 1.899 . S
O2 C10 1.284 . S
Zn3 O2 1.899 . S
Zn3 O4 2.032 . S
Zn3 O7 2.086 . S
Zn3 O12 1.977 . S
O4 Zn3 2.032 . S
O4 C8 1.278 . S
C5 O6 1.203 . S
C5 O12 1.267 . S
O6 C5 1.203 . S
O7 C0 1.185 . S
O7 Zn3 2.086 . S
C8 O4 1.278 . S
C8 O9 1.211 . S
O9 C8 1.211 . S
C10 O2 1.284 . S
C10 O11 1.273 . S
O11 C10 1.273 . S
O12 Zn3 1.977 . S
O12 C5 1.267 . S
C13 O14 1.160 . S
C13 O20 1.185 . S
O14 C13 1.160 . S
O15 Zn16 1.899 . S
O15 C23 1.284 . S
Zn16 O15 1.899 . S
Zn16 O17 2.032 . S
Zn16 O20 2.086 . S
Zn16 O25 1.977 . S
O17 Zn16 2.032 . S
O17 C21 1.278 . S
C18 O19 1.203 . S
C18 O25 1.267 . S
O19 C18 1.203 . S
O20 C13 1.185 . S
O20 Zn16 2.086 . S
C21 O17 1.278 . S
C21 O22 1.211 . S
O22 C21 1.211 . S
C23 O15 1.284 . S
C23 O24 1.273 . S
O24 C23 1.273 . S
O25 Zn16 1.977 . S
O25 C18 1.267 . S
C26 O27 1.160 . S
C26 O33 1.185 . S
O27 C26 1.160 . S
O28 Zn29 1.899 . S
O28 C36 1.284 . S
Zn29 O28 1.899 . S
Zn29 O30 2.032 . S
Zn29 O33 2.086 . S
Zn29 O38 1.977 . S
O30 Zn29 2.032 . S
O30 C34 1.278 . S
C31 O32 1.203 . S
C31 O38 1.267 . S
O32 C31 1.203 . S
O33 C26 1.185 . S
O33 Zn29 2.086 . S
C34 O30 1.278 . S
C34 O35 1.211 . S
O35 C34 1.211 . S
C36 O28 1.284 . S
C36 O37 1.273 . S
O37 C36 1.273 . S
O38 Zn29 1.977 . S
O38 C31 1.267 . S
C39 O40 1.160 . S
C39 O46 1.185 . S
O40 C39 1.160 . S
O41 Zn42 1.899 . S
O41 C49 1.284 . S
Zn42 O41 1.899 . S
Zn42 O43 2.032 . S
Zn42 O46 2.086 . S
Zn42 O51 1.977 . S
O43 Zn42 2.032 . S
O43 C47 1.278 . S
C44 O45 1.203 . S
C44 O51 1.267 . S
O45 C44 1.203 . S
O46 C39 1.185 . S
O46 Zn42 2.086 . S
C47 O43 1.278 . S
C47 O48 1.211 . S
O48 C47 1.211 . S
C49 O41 1.284 . S
C49 O50 1.273 . S
O50 C49 1.273 . S
O51 Zn42 1.977 . S
O51 C44 1.267 . S
C52 O53 1.160 . S
C52 O59 1.185 . S
O53 C52 1.160 . S
O54 Zn55 1.899 . S
O54 C62 1.284 . S
Zn55 O54 1.899 . S
Zn55 O56 2.032 . S
Zn55 O59 2.086 . S
Zn55 O64 1.977 . S
O56 Zn55 2.032 . S
O56 C60 1.278 . S
C57 O58 1.203 . S
C57 O64 1.267 . S
O58 C57 1.203 . S
O59 C52 1.185 . S
O59 Zn55 2.086 . S
C60 O56 1.278 . S
C60 O61 1.211 . S
O61 C60 1.211 . S
C62 O54 1.284 . S
C62 O63 1.273 . S
O63 C62 1.273 . S
O64 Zn55 1.977 . S
O64 C57 1.267 . S
C65 O66 1.160 . S
C65 O72 1.185 . S
O66 C65 1.160 . S
O67 Zn68 1.899 . S
O67 C75 1.284 . S
Zn68 O67 1.899 . S
Zn68 O69 2.032 . S
Zn68 O72 2.086 . S
Zn68 O77 1.977 . S
O69 Zn68 2.032 . S
O69 C73 1.278 . S
C70 O71 1.203 . S
C70 O77 1.267 . S
O71 C70 1.203 . S
O72 C65 1.185 . S
O72 Zn68 2.086 . S
C73 O69 1.278 . S
C73 O74 1.211 . S
O74 C73 1.211 . S
C75 O67 1.284 . S
C75 O76 1.273 . S
O76 C75 1.273 . S
O77 Zn68 1.977 . S
O77 C70 1.267 . S
C78 O79 1.160 . S
C78 O85 1.185 . S
O79 C78 1.160 . S
O80 Zn81 1.899 . S
O80 C88 1.284 . S
Zn81 O80 1.899 . S
Zn81 O82 2.032 . S
Zn81 O85 2.086 . S
Zn81 O90 1.977 . S
O82 Zn81 2.032 . S
O82 C86 1.278 . S
C83 O84 1.203 . S
C83 O90 1.267 . S
O84 C83 1.203 . S
O85 C78 1.185 . S
O85 Zn81 2.086 . S
C86 O82 1.278 . S
C86 O87 1.211 . S
O87 C86 1.211 . S
C88 O80 1.284 . S
C88 O89 1.273 . S
O89 C88 1.273 . S
O90 Zn81 1.977 . S
O90 C83 1.267 . S
C91 O92 1.160 . S
C91 O98 1.185 . S
O92 C91 1.160 . S
O93 Zn94 1.899 . S
O93 C101 1.284 . S
Zn94 O93 1.899 . S
Zn94 O95 2.032 . S
Zn94 O98 2.086 . S
Zn94 O103 1.977 . S
O95 Zn94 2.032 . S
O95 C99 1.278 . S
C96 O97 1.203 . S
C96 O103 1.267 . S
O97 C96 1.203 . S
O98 C91 1.185 . S
O98 Zn94 2.086 . S
C99 O95 1.278 . S
C99 O100 1.211 . S
O100 C99 1.211 . S
C101 O93 1.284 . S
C101 O102 1.273 . S
O102 C101 1.273 . S
O103 Zn94 1.977 . S
O103 C96 1.267 . S
C104 O105 1.160 . S
C104 O111 1.185 . S
O105 C104 1.160 . S
O106 Zn107 1.899 . S
O106 C114 1.284 . S
Zn107 O106 1.899 . S
Zn107 O108 2.032 . S
Zn107 O111 2.086 . S
Zn107 O116 1.977 . S
O108 Zn107 2.032 . S
O108 C112 1.278 . S
C109 O110 1.203 . S
C109 O116 1.267 . S
O110 C109 1.203 . S
O111 C104 1.185 . S
O111 Zn107 2.086 . S
C112 O108 1.278 . S
C112 O113 1.211 . S
O113 C112 1.211 . S
C114 O106 1.284 . S
C114 O115 1.273 . S
O115 C114 1.273 . S
O116 Zn107 1.977 . S
O116 C109 1.267 . S
C117 O118 1.160 . S
C117 O124 1.185 . S
O118 C117 1.160 . S
O119 Zn120 1.899 . S
O119 C127 1.284 . S
Zn120 O119 1.899 . S
Zn120 O121 2.032 . S
Zn120 O124 2.086 . S
Zn120 O129 1.977 . S
O121 Zn120 2.032 . S
O121 C125 1.278 . S
C122 O123 1.203 . S
C122 O129 1.267 . S
O123 C122 1.203 . S
O124 C117 1.185 . S
O124 Zn120 2.086 . S
C125 O121 1.278 . S
C125 O126 1.211 . S
O126 C125 1.211 . S
C127 O119 1.284 . S
C127 O128 1.273 . S
O128 C127 1.273 . S
O129 Zn120 1.977 . S
O129 C122 1.267 . S
C130 O131 1.160 . S
C130 O137 1.185 . S
O131 C130 1.160 . S
O132 Zn133 1.899 . S
O132 C140 1.284 . S
Zn133 O132 1.899 . S
Zn133 O134 2.032 . S
Zn133 O137 2.086 . S
Zn133 O142 1.977 . S
O134 Zn133 2.032 . S
O134 C138 1.278 . S
C135 O136 1.203 . S
C135 O142 1.267 . S
O136 C135 1.203 . S
O137 C130 1.185 . S
O137 Zn133 2.086 . S
C138 O134 1.278 . S
C138 O139 1.211 . S
O139 C138 1.211 . S
C140 O132 1.284 . S
C140 O141 1.273 . S
O141 C140 1.273 . S
O142 Zn133 1.977 . S
O142 C135 1.267 . S
C143 O144 1.160 . S
C143 O150 1.185 . S
O144 C143 1.160 . S
O145 Zn146 1.899 . S
O145 C153 1.284 . S
Zn146 O145 1.899 . S
Zn146 O147 2.032 . S
Zn146 O150 2.086 . S
Zn146 O155 1.977 . S
O147 Zn146 2.032 . S
O147 C151 1.278 . S
C148 O149 1.203 . S
C148 O155 1.267 . S
O149 C148 1.203 . S
O150 C143 1.185 . S
O150 Zn146 2.086 . S
C151 O147 1.278 . S
C151 O152 1.211 . S
O152 C151 1.211 . S
C153 O145 1.284 . S
C153 O154 1.273 . S
O154 C153 1.273 . S
O155 Zn146 1.977 . S
O155 C148 1.267 . S
H156 C164 0.929 . S
H157 C166 0.930 . S
H158 C168 0.930 . S
H159 C171 0.929 . S
H160 C174 0.930 . S
H161 C176 0.960 . S
H162 C176 0.960 . S
H163 C176 0.960 . S
C164 H156 0.929 . S
C164 C165 1.377 . S
C164 C166 1.384 . S
C165 C164 1.377 . S
C165 C171 1.390 . S
C166 H157 0.930 . S
C166 C164 1.384 . S
C166 C167 1.372 . S
C167 C166 1.372 . S
C167 C168 1.400 . S
C167 C172 1.490 . S
C168 H158 0.930 . S
C168 C167 1.400 . S
C168 C171 1.386 . S
H169 C185 0.930 . S
H170 C186 0.931 . S
C171 H159 0.929 . S
C171 C165 1.390 . S
C171 C168 1.386 . S
C172 C167 1.490 . S
C172 C174 1.395 . S
C172 C175 1.403 . S
H173 C179 0.930 . S
C174 H160 0.930 . S
C174 C172 1.395 . S
C174 C177 1.403 . S
C175 C172 1.403 . S
C175 C176 1.524 . S
C175 C179 1.400 . S
C176 H161 0.960 . S
C176 H162 0.960 . S
C176 H163 0.960 . S
C176 C175 1.524 . S
C177 C174 1.403 . S
C177 C178 1.392 . S
C177 C181 1.495 . S
C178 C177 1.392 . S
C178 C179 1.385 . S
C178 C180 1.478 . S
C179 H173 0.930 . S
C179 C175 1.400 . S
C179 C178 1.385 . S
C180 C178 1.478 . S
C180 C182 1.381 . S
C180 C186 1.383 . S
C181 C177 1.495 . S
C181 H187 0.959 . S
C181 H188 0.961 . S
C181 H189 0.960 . S
C182 C180 1.381 . S
C182 C183 1.394 . S
C182 H190 0.930 . S
C183 C182 1.394 . S
C183 C184 1.383 . S
C183 H191 0.929 . S
C184 C183 1.383 . S
C184 C185 1.377 . S
C185 H169 0.930 . S
C185 C184 1.377 . S
C185 C186 1.379 . S
C186 H170 0.931 . S
C186 C180 1.383 . S
C186 C185 1.379 . S
H187 C181 0.959 . S
H188 C181 0.961 . S
H189 C181 0.960 . S
H190 C182 0.930 . S
H191 C183 0.929 . S
H192 C200 0.929 . S
H193 C202 0.930 . S
H194 C204 0.930 . S
H195 C207 0.929 . S
H196 C210 0.930 . S
H197 C212 0.960 . S
H198 C212 0.960 . S
H199 C212 0.960 . S
C200 H192 0.929 . S
C200 C201 1.377 . S
C200 C202 1.384 . S
C201 C200 1.377 . S
C201 C207 1.390 . S
C202 H193 0.930 . S
C202 C200 1.384 . S
C202 C203 1.372 . S
C203 C202 1.372 . S
C203 C204 1.400 . S
C203 C208 1.490 . S
C204 H194 0.930 . S
C204 C203 1.400 . S
C204 C207 1.386 . S
H205 C221 0.930 . S
H206 C222 0.931 . S
C207 H195 0.929 . S
C207 C201 1.390 . S
C207 C204 1.386 . S
C208 C203 1.490 . S
C208 C210 1.395 . S
C208 C211 1.403 1_455 S
H209 C215 0.930 . S
C210 H196 0.930 . S
C210 C208 1.395 . S
C210 C213 1.403 . S
C211 C208 1.403 1_655 S
C211 C212 1.524 . S
C211 C215 1.400 . S
C212 H197 0.960 . S
C212 H198 0.960 . S
C212 H199 0.960 . S
C212 C211 1.524 . S
C213 C210 1.403 . S
C213 C214 1.392 1_455 S
C213 C217 1.495 . S
C214 C213 1.392 1_655 S
C214 C215 1.385 . S
C214 C216 1.478 . S
C215 H209 0.930 . S
C215 C211 1.400 . S
C215 C214 1.385 . S
C216 C214 1.478 . S
C216 C218 1.381 . S
C216 C222 1.383 . S
C217 C213 1.495 . S
C217 H223 0.959 . S
C217 H224 0.961 . S
C217 H225 0.960 . S
C218 C216 1.381 . S
C218 C219 1.394 . S
C218 H226 0.930 . S
C219 C218 1.394 . S
C219 C220 1.383 . S
C219 H227 0.929 . S
C220 C219 1.383 . S
C220 C221 1.377 . S
C221 H205 0.930 . S
C221 C220 1.377 . S
C221 C222 1.379 . S
C222 H206 0.931 . S
C222 C216 1.383 . S
C222 C221 1.379 . S
H223 C217 0.959 . S
H224 C217 0.961 . S
H225 C217 0.960 . S
H226 C218 0.930 . S
H227 C219 0.929 . S
H228 C236 0.929 . S
H229 C238 0.930 . S
H230 C240 0.930 . S
H231 C243 0.929 . S
H232 C246 0.930 . S
H233 C248 0.960 . S
H234 C248 0.960 . S
H235 C248 0.960 . S
C236 H228 0.929 . S
C236 C237 1.377 . S
C236 C238 1.384 . S
C237 C236 1.377 . S
C237 C243 1.390 . S
C238 H229 0.930 . S
C238 C236 1.384 . S
C238 C239 1.372 . S
C239 C238 1.372 . S
C239 C240 1.400 . S
C239 C244 1.490 . S
C240 H230 0.930 . S
C240 C239 1.400 . S
C240 C243 1.386 . S
H241 C257 0.930 . S
H242 C258 0.931 . S
C243 H231 0.929 . S
C243 C237 1.390 . S
C243 C240 1.386 . S
C244 C239 1.490 . S
C244 C246 1.395 1_565 S
C244 C247 1.403 . S
H245 C251 0.930 . S
C246 H232 0.930 . S
C246 C244 1.395 1_545 S
C246 C249 1.403 . S
C247 C244 1.403 . S
C247 C248 1.524 . S
C247 C251 1.400 . S
C248 H233 0.960 . S
C248 H234 0.960 . S
C248 H235 0.960 . S
C248 C247 1.524 . S
C249 C246 1.403 . S
C249 C250 1.392 . S
C249 C253 1.495 . S
C250 C249 1.392 . S
C250 C251 1.385 1_545 S
C250 C252 1.478 . S
C251 H245 0.930 . S
C251 C247 1.400 . S
C251 C250 1.385 1_565 S
C252 C250 1.478 . S
C252 C254 1.381 . S
C252 C258 1.383 . S
C253 C249 1.495 . S
C253 H259 0.959 . S
C253 H260 0.961 . S
C253 H261 0.960 . S
C254 C252 1.381 . S
C254 C255 1.394 . S
C254 H262 0.930 . S
C255 C254 1.394 . S
C255 C256 1.383 . S
C255 H263 0.929 . S
C256 C255 1.383 . S
C256 C257 1.377 . S
C257 H241 0.930 . S
C257 C256 1.377 . S
C257 C258 1.379 . S
C258 H242 0.931 . S
C258 C252 1.383 . S
C258 C257 1.379 . S
H259 C253 0.959 . S
H260 C253 0.961 . S
H261 C253 0.960 . S
H262 C254 0.930 . S
H263 C255 0.929 . S
H264 C272 0.929 . S
H265 C274 0.930 . S
H266 C276 0.930 . S
H267 C279 0.929 . S
H268 C282 0.930 . S
H269 C284 0.960 . S
H270 C284 0.960 . S
H271 C284 0.960 . S
C272 H264 0.929 . S
C272 C273 1.377 . S
C272 C274 1.384 . S
C273 C272 1.377 . S
C273 C279 1.390 . S
C274 H265 0.930 . S
C274 C272 1.384 . S
C274 C275 1.372 . S
C275 C274 1.372 . S
C275 C276 1.400 . S
C275 C280 1.490 . S
C276 H266 0.930 . S
C276 C275 1.400 . S
C276 C279 1.386 . S
H277 C293 0.930 . S
H278 C294 0.931 . S
C279 H267 0.929 . S
C279 C273 1.390 . S
C279 C276 1.386 . S
C280 C275 1.490 . S
C280 C282 1.395 . S
C280 C283 1.403 . S
H281 C287 0.930 . S
C282 H268 0.930 . S
C282 C280 1.395 . S
C282 C285 1.403 . S
C283 C280 1.403 . S
C283 C284 1.524 . S
C283 C287 1.400 . S
C284 H269 0.960 . S
C284 H270 0.960 . S
C284 H271 0.960 . S
C284 C283 1.524 . S
C285 C282 1.403 . S
C285 C286 1.392 . S
C285 C289 1.495 . S
C286 C285 1.392 . S
C286 C287 1.385 . S
C286 C288 1.478 . S
C287 H281 0.930 . S
C287 C283 1.400 . S
C287 C286 1.385 . S
C288 C286 1.478 . S
C288 C290 1.381 . S
C288 C294 1.383 . S
C289 C285 1.495 . S
C289 H295 0.959 . S
C289 H296 0.961 . S
C289 H297 0.960 . S
C290 C288 1.381 . S
C290 C291 1.394 . S
C290 H298 0.930 . S
C291 C290 1.394 . S
C291 C292 1.383 . S
C291 H299 0.929 . S
C292 C291 1.383 . S
C292 C293 1.377 . S
C293 H277 0.930 . S
C293 C292 1.377 . S
C293 C294 1.379 . S
C294 H278 0.931 . S
C294 C288 1.383 . S
C294 C293 1.379 . S
H295 C289 0.959 . S
H296 C289 0.961 . S
H297 C289 0.960 . S
H298 C290 0.930 . S
H299 C291 0.929 . S
H300 C308 0.929 . S
H301 C310 0.930 . S
H302 C312 0.930 . S
H303 C315 0.929 . S
H304 C318 0.930 . S
H305 C320 0.960 . S
H306 C320 0.960 . S
H307 C320 0.960 . S
C308 H300 0.929 . S
C308 C309 1.377 . S
C308 C310 1.384 . S
C309 C308 1.377 . S
C309 C315 1.390 . S
C310 H301 0.930 . S
C310 C308 1.384 . S
C310 C311 1.372 . S
C311 C310 1.372 . S
C311 C312 1.400 . S
C311 C316 1.490 . S
C312 H302 0.930 . S
C312 C311 1.400 . S
C312 C315 1.386 . S
H313 C329 0.930 . S
H314 C330 0.931 . S
C315 H303 0.929 . S
C315 C309 1.390 . S
C315 C312 1.386 . S
C316 C311 1.490 . S
C316 C318 1.395 1_655 S
C316 C319 1.403 . S
H317 C323 0.930 . S
C318 H304 0.930 . S
C318 C316 1.395 1_455 S
C318 C321 1.403 . S
C319 C316 1.403 . S
C319 C320 1.524 . S
C319 C323 1.400 . S
C320 H305 0.960 . S
C320 H306 0.960 . S
C320 H307 0.960 . S
C320 C319 1.524 . S
C321 C318 1.403 . S
C321 C322 1.392 . S
C321 C325 1.495 . S
C322 C321 1.392 . S
C322 C323 1.385 1_455 S
C322 C324 1.478 . S
C323 H317 0.930 . S
C323 C319 1.400 . S
C323 C322 1.385 1_655 S
C324 C322 1.478 . S
C324 C326 1.381 . S
C324 C330 1.383 . S
C325 C321 1.495 . S
C325 H331 0.959 . S
C325 H332 0.961 . S
C325 H333 0.960 . S
C326 C324 1.381 . S
C326 C327 1.394 . S
C326 H334 0.930 . S
C327 C326 1.394 . S
C327 C328 1.383 . S
C327 H335 0.929 . S
C328 C327 1.383 . S
C328 C329 1.377 . S
C329 H313 0.930 . S
C329 C328 1.377 . S
C329 C330 1.379 . S
C330 H314 0.931 . S
C330 C324 1.383 . S
C330 C329 1.379 . S
H331 C325 0.959 . S
H332 C325 0.961 . S
H333 C325 0.960 . S
H334 C326 0.930 . S
H335 C327 0.929 . S
H336 C344 0.929 . S
H337 C346 0.930 . S
H338 C348 0.930 1_565 S
H339 C351 0.929 . S
H340 C354 0.930 . S
H341 C356 0.960 . S
H342 C356 0.960 1_545 S
H343 C356 0.960 . S
C344 H336 0.929 . S
C344 C345 1.377 . S
C344 C346 1.384 . S
C345 C344 1.377 . S
C345 C351 1.390 . S
C346 H337 0.930 . S
C346 C344 1.384 . S
C346 C347 1.372 . S
C347 C346 1.372 . S
C347 C348 1.400 . S
C347 C352 1.490 . S
C348 H338 0.930 1_545 S
C348 C347 1.400 . S
C348 C351 1.386 . S
H349 C365 0.930 . S
H350 C366 0.931 . S
C351 H339 0.929 . S
C351 C345 1.390 . S
C351 C348 1.386 . S
C352 C347 1.490 . S
C352 C354 1.395 . S
C352 C355 1.403 1_545 S
H353 C359 0.930 . S
C354 H340 0.930 . S
C354 C352 1.395 . S
C354 C357 1.403 . S
C355 C352 1.403 1_565 S
C355 C356 1.524 . S
C355 C359 1.400 . S
C356 H341 0.960 . S
C356 H342 0.960 1_565 S
C356 H343 0.960 . S
C356 C355 1.524 . S
C357 C354 1.403 . S
C357 C358 1.392 1_545 S
C357 C361 1.495 . S
C358 C357 1.392 1_565 S
C358 C359 1.385 . S
C358 C360 1.478 . S
C359 H353 0.930 . S
C359 C355 1.400 . S
C359 C358 1.385 . S
C360 C358 1.478 . S
C360 C362 1.381 . S
C360 C366 1.383 . S
C361 C357 1.495 . S
C361 H367 0.959 . S
C361 H368 0.961 . S
C361 H369 0.960 . S
C362 C360 1.381 . S
C362 C363 1.394 . S
C362 H370 0.930 1_565 S
C363 C362 1.394 . S
C363 C364 1.383 . S
C363 H371 0.929 . S
C364 C363 1.383 . S
C364 C365 1.377 . S
C365 H349 0.930 . S
C365 C364 1.377 . S
C365 C366 1.379 . S
C366 H350 0.931 . S
C366 C360 1.383 . S
C366 C365 1.379 . S
H367 C361 0.959 . S
H368 C361 0.961 . S
H369 C361 0.960 . S
H370 C362 0.930 1_545 S
H371 C363 0.929 . S
H372 C380 0.929 . S
H373 C382 0.930 . S
H374 C384 0.930 . S
H375 C387 0.929 . S
H376 C390 0.930 . S
H377 C392 0.960 . S
H378 C392 0.960 . S
H379 C392 0.960 . S
C380 H372 0.929 . S
C380 C381 1.377 . S
C380 C382 1.384 . S
C381 C380 1.377 . S
C381 C387 1.390 . S
C382 H373 0.930 . S
C382 C380 1.384 . S
C382 C383 1.372 . S
C383 C382 1.372 . S
C383 C384 1.400 . S
C383 C388 1.490 . S
C384 H374 0.930 . S
C384 C383 1.400 . S
C384 C387 1.386 . S
H385 C401 0.930 . S
H386 C402 0.931 . S
C387 H375 0.929 . S
C387 C381 1.390 . S
C387 C384 1.386 . S
C388 C383 1.490 . S
C388 C390 1.395 . S
C388 C391 1.403 . S
H389 C395 0.930 . S
C390 H376 0.930 . S
C390 C388 1.395 . S
C390 C393 1.403 . S
C391 C388 1.403 . S
C391 C392 1.524 . S
C391 C395 1.400 . S
C392 H377 0.960 . S
C392 H378 0.960 . S
C392 H379 0.960 . S
C392 C391 1.524 . S
C393 C390 1.403 . S
C393 C394 1.392 . S
C393 C397 1.495 . S
C394 C393 1.392 . S
C394 C395 1.385 . S
C394 C396 1.478 . S
C395 H389 0.930 . S
C395 C391 1.400 . S
C395 C394 1.385 . S
C396 C394 1.478 . S
C396 C398 1.381 . S
C396 C402 1.383 . S
C397 C393 1.495 . S
C397 H403 0.959 . S
C397 H404 0.961 . S
C397 H405 0.960 . S
C398 C396 1.381 . S
C398 C399 1.394 . S
C398 H406 0.930 . S
C399 C398 1.394 . S
C399 C400 1.383 . S
C399 H407 0.929 . S
C400 C399 1.383 . S
C400 C401 1.377 . S
C401 H385 0.930 . S
C401 C400 1.377 . S
C401 C402 1.379 . S
C402 H386 0.931 . S
C402 C396 1.383 . S
C402 C401 1.379 . S
H403 C397 0.959 . S
H404 C397 0.961 . S
H405 C397 0.960 . S
H406 C398 0.930 . S
H407 C399 0.929 . S
H408 C416 0.929 . S
H409 C418 0.930 . S
H410 C420 0.930 . S
H411 C423 0.929 . S
H412 C426 0.930 . S
H413 C428 0.960 . S
H414 C428 0.960 . S
H415 C428 0.960 . S
C416 H408 0.929 . S
C416 C417 1.377 . S
C416 C418 1.384 . S
C417 C416 1.377 . S
C417 C423 1.390 . S
C418 H409 0.930 . S
C418 C416 1.384 . S
C418 C419 1.372 . S
C419 C418 1.372 . S
C419 C420 1.400 . S
C419 C424 1.490 . S
C420 H410 0.930 . S
C420 C419 1.400 . S
C420 C423 1.386 . S
H421 C437 0.930 . S
H422 C438 0.931 . S
C423 H411 0.929 . S
C423 C417 1.390 . S
C423 C420 1.386 . S
C424 C419 1.490 . S
C424 C426 1.395 . S
C424 C427 1.403 . S
H425 C431 0.930 . S
C426 H412 0.930 . S
C426 C424 1.395 . S
C426 C429 1.403 . S
C427 C424 1.403 . S
C427 C428 1.524 . S
C427 C431 1.400 . S
C428 H413 0.960 . S
C428 H414 0.960 . S
C428 H415 0.960 . S
C428 C427 1.524 . S
C429 C426 1.403 . S
C429 C430 1.392 . S
C429 C433 1.495 . S
C430 C429 1.392 . S
C430 C431 1.385 . S
C430 C432 1.478 . S
C431 H425 0.930 . S
C431 C427 1.400 . S
C431 C430 1.385 . S
C432 C430 1.478 . S
C432 C434 1.381 . S
C432 C438 1.383 . S
C433 C429 1.495 . S
C433 H439 0.959 . S
C433 H440 0.961 . S
C433 H441 0.960 . S
C434 C432 1.381 . S
C434 C435 1.394 . S
C434 H442 0.930 . S
C435 C434 1.394 . S
C435 C436 1.383 . S
C435 H443 0.929 . S
C436 C435 1.383 . S
C436 C437 1.377 . S
C437 H421 0.930 . S
C437 C436 1.377 . S
C437 C438 1.379 . S
C438 H422 0.931 . S
C438 C432 1.383 . S
C438 C437 1.379 . S
H439 C433 0.959 . S
H440 C433 0.961 . S
H441 C433 0.960 . S
H442 C434 0.930 . S
H443 C435 0.929 . S
H444 C452 0.929 . S
H445 C454 0.930 . S
H446 C456 0.930 . S
H447 C459 0.929 . S
H448 C462 0.930 . S
H449 C464 0.960 . S
H450 C464 0.960 . S
H451 C464 0.960 . S
C452 H444 0.929 . S
C452 C453 1.377 . S
C452 C454 1.384 . S
C453 C452 1.377 . S
C453 C459 1.390 . S
C454 H445 0.930 . S
C454 C452 1.384 . S
C454 C455 1.372 . S
C455 C454 1.372 . S
C455 C456 1.400 . S
C455 C460 1.490 . S
C456 H446 0.930 . S
C456 C455 1.400 . S
C456 C459 1.386 . S
H457 C473 0.930 . S
H458 C474 0.931 . S
C459 H447 0.929 . S
C459 C453 1.390 . S
C459 C456 1.386 . S
C460 C455 1.490 . S
C460 C462 1.395 . S
C460 C463 1.403 . S
H461 C467 0.930 . S
C462 H448 0.930 . S
C462 C460 1.395 . S
C462 C465 1.403 . S
C463 C460 1.403 . S
C463 C464 1.524 . S
C463 C467 1.400 . S
C464 H449 0.960 . S
C464 H450 0.960 . S
C464 H451 0.960 . S
C464 C463 1.524 . S
C465 C462 1.403 . S
C465 C466 1.392 . S
C465 C469 1.495 . S
C466 C465 1.392 . S
C466 C467 1.385 . S
C466 C468 1.478 . S
C467 H461 0.930 . S
C467 C463 1.400 . S
C467 C466 1.385 . S
C468 C466 1.478 . S
C468 C470 1.381 . S
C468 C474 1.383 . S
C469 C465 1.495 . S
C469 H475 0.959 . S
C469 H476 0.961 . S
C469 H477 0.960 . S
C470 C468 1.381 . S
C470 C471 1.394 . S
C470 H478 0.930 . S
C471 C470 1.394 . S
C471 C472 1.383 . S
C471 H479 0.929 . S
C472 C471 1.383 . S
C472 C473 1.377 . S
C473 H457 0.930 . S
C473 C472 1.377 . S
C473 C474 1.379 . S
C474 H458 0.931 . S
C474 C468 1.383 . S
C474 C473 1.379 . S
H475 C469 0.959 . S
H476 C469 0.961 . S
H477 C469 0.960 . S
H478 C470 0.930 . S
H479 C471 0.929 . S
H480 C488 0.929 . S
H481 C490 0.930 . S
H482 C492 0.930 . S
H483 C495 0.929 . S
H484 C498 0.930 . S
H485 C500 0.960 . S
H486 C500 0.960 . S
H487 C500 0.960 . S
C488 H480 0.929 . S
C488 C489 1.377 . S
C488 C490 1.384 . S
C489 C488 1.377 . S
C489 C495 1.390 . S
C490 H481 0.930 . S
C490 C488 1.384 . S
C490 C491 1.372 . S
C491 C490 1.372 . S
C491 C492 1.400 . S
C491 C496 1.490 . S
C492 H482 0.930 . S
C492 C491 1.400 . S
C492 C495 1.386 . S
H493 C509 0.930 . S
H494 C510 0.931 . S
C495 H483 0.929 . S
C495 C489 1.390 . S
C495 C492 1.386 . S
C496 C491 1.490 . S
C496 C498 1.395 . S
C496 C499 1.403 . S
H497 C503 0.930 . S
C498 H484 0.930 . S
C498 C496 1.395 . S
C498 C501 1.403 . S
C499 C496 1.403 . S
C499 C500 1.524 . S
C499 C503 1.400 . S
C500 H485 0.960 . S
C500 H486 0.960 . S
C500 H487 0.960 . S
C500 C499 1.524 . S
C501 C498 1.403 . S
C501 C502 1.392 . S
C501 C505 1.495 . S
C502 C501 1.392 . S
C502 C503 1.385 . S
C502 C504 1.478 . S
C503 H497 0.930 . S
C503 C499 1.400 . S
C503 C502 1.385 . S
C504 C502 1.478 . S
C504 C506 1.381 . S
C504 C510 1.383 . S
C505 C501 1.495 . S
C505 H511 0.959 . S
C505 H512 0.961 . S
C505 H513 0.960 . S
C506 C504 1.381 . S
C506 C507 1.394 . S
C506 H514 0.930 . S
C507 C506 1.394 . S
C507 C508 1.383 . S
C507 H515 0.929 . S
C508 C507 1.383 . S
C508 C509 1.377 . S
C509 H493 0.930 . S
C509 C508 1.377 . S
C509 C510 1.379 . S
C510 H494 0.931 . S
C510 C504 1.383 . S
C510 C509 1.379 . S
H511 C505 0.959 . S
H512 C505 0.961 . S
H513 C505 0.960 . S
H514 C506 0.930 . S
H515 C507 0.929 . S
H516 C524 0.929 . S
H517 C526 0.930 . S
H518 C528 0.930 . S
H519 C531 0.929 . S
H520 C534 0.930 . S
H521 C536 0.960 . S
H522 C536 0.960 . S
H523 C536 0.960 . S
C524 H516 0.929 . S
C524 C525 1.377 . S
C524 C526 1.384 . S
C525 C524 1.377 . S
C525 C531 1.390 . S
C526 H517 0.930 . S
C526 C524 1.384 . S
C526 C527 1.372 . S
C527 C526 1.372 . S
C527 C528 1.400 . S
C527 C532 1.490 . S
C528 H518 0.930 . S
C528 C527 1.400 . S
C528 C531 1.386 . S
H529 C545 0.930 . S
H530 C546 0.931 . S
C531 H519 0.929 . S
C531 C525 1.390 . S
C531 C528 1.386 . S
C532 C527 1.490 . S
C532 C534 1.395 . S
C532 C535 1.403 . S
H533 C539 0.930 . S
C534 H520 0.930 . S
C534 C532 1.395 . S
C534 C537 1.403 . S
C535 C532 1.403 . S
C535 C536 1.524 . S
C535 C539 1.400 . S
C536 H521 0.960 . S
C536 H522 0.960 . S
C536 H523 0.960 . S
C536 C535 1.524 . S
C537 C534 1.403 . S
C537 C538 1.392 . S
C537 C541 1.495 . S
C538 C537 1.392 . S
C538 C539 1.385 . S
C538 C540 1.478 . S
C539 H533 0.930 . S
C539 C535 1.400 . S
C539 C538 1.385 . S
C540 C538 1.478 . S
C540 C542 1.381 . S
C540 C546 1.383 . S
C541 C537 1.495 . S
C541 H547 0.959 . S
C541 H548 0.961 . S
C541 H549 0.960 . S
C542 C540 1.381 . S
C542 C543 1.394 . S
C542 H550 0.930 . S
C543 C542 1.394 . S
C543 C544 1.383 . S
C543 H551 0.929 . S
C544 C543 1.383 . S
C544 C545 1.377 . S
C545 H529 0.930 . S
C545 C544 1.377 . S
C545 C546 1.379 . S
C546 H530 0.931 . S
C546 C540 1.383 . S
C546 C545 1.379 . S
H547 C541 0.959 . S
H548 C541 0.961 . S
H549 C541 0.960 . S
H550 C542 0.930 . S
H551 C543 0.929 . S
H552 C560 0.929 . S
H553 C562 0.930 . S
H554 C564 0.930 . S
H555 C567 0.929 . S
H556 C570 0.930 . S
H557 C572 0.960 . S
H558 C572 0.960 . S
H559 C572 0.960 . S
C560 H552 0.929 . S
C560 C561 1.377 . S
C560 C562 1.384 . S
C561 C560 1.377 . S
C561 C567 1.390 . S
C562 H553 0.930 . S
C562 C560 1.384 . S
C562 C563 1.372 . S
C563 C562 1.372 . S
C563 C564 1.400 . S
C563 C568 1.490 . S
C564 H554 0.930 . S
C564 C563 1.400 . S
C564 C567 1.386 . S
H565 C581 0.930 . S
H566 C582 0.931 . S
C567 H555 0.929 . S
C567 C561 1.390 . S
C567 C564 1.386 . S
C568 C563 1.490 . S
C568 C570 1.395 . S
C568 C571 1.403 . S
H569 C575 0.930 . S
C570 H556 0.930 . S
C570 C568 1.395 . S
C570 C573 1.403 . S
C571 C568 1.403 . S
C571 C572 1.524 . S
C571 C575 1.400 . S
C572 H557 0.960 . S
C572 H558 0.960 . S
C572 H559 0.960 . S
C572 C571 1.524 . S
C573 C570 1.403 . S
C573 C574 1.392 . S
C573 C577 1.495 . S
C574 C573 1.392 . S
C574 C575 1.385 . S
C574 C576 1.478 . S
C575 H569 0.930 . S
C575 C571 1.400 . S
C575 C574 1.385 . S
C576 C574 1.478 . S
C576 C578 1.381 . S
C576 C582 1.383 . S
C577 C573 1.495 . S
C577 H583 0.959 . S
C577 H584 0.961 . S
C577 H585 0.960 . S
C578 C576 1.381 . S
C578 C579 1.394 . S
C578 H586 0.930 . S
C579 C578 1.394 . S
C579 C580 1.383 . S
C579 H587 0.929 . S
C580 C579 1.383 . S
C580 C581 1.377 . S
C581 H565 0.930 . S
C581 C580 1.377 . S
C581 C582 1.379 . S
C582 H566 0.931 . S
C582 C576 1.383 . S
C582 C581 1.379 . S
H583 C577 0.959 . S
H584 C577 0.961 . S
H585 C577 0.960 . S
H586 C578 0.930 . S
H587 C579 0.929 . S
H588 C596 0.929 . S
H589 C598 0.930 . S
H590 C600 0.930 . S
H591 C603 0.929 . S
H592 C606 0.930 . S
H593 C608 0.960 1_545 S
H594 C608 0.960 . S
H595 C608 0.960 . S
C596 H588 0.929 . S
C596 C597 1.377 . S
C596 C598 1.384 . S
C597 C596 1.377 . S
C597 C603 1.390 . S
C598 H589 0.930 . S
C598 C596 1.384 . S
C598 C599 1.372 . S
C599 C598 1.372 . S
C599 C600 1.400 . S
C599 C604 1.490 . S
C600 H590 0.930 . S
C600 C599 1.400 . S
C600 C603 1.386 . S
H601 C617 0.930 . S
H602 C618 0.931 . S
C603 H591 0.929 . S
C603 C597 1.390 . S
C603 C600 1.386 . S
C604 C599 1.490 . S
C604 C606 1.395 1_556 S
C604 C607 1.403 . S
H605 C611 0.930 . S
C606 H592 0.930 . S
C606 C604 1.395 1_554 S
C606 C609 1.403 1_565 S
C607 C604 1.403 . S
C607 C608 1.524 . S
C607 C611 1.400 1_565 S
C608 H593 0.960 1_565 S
C608 H594 0.960 . S
C608 H595 0.960 . S
C608 C607 1.524 . S
C609 C606 1.403 1_545 S
C609 C610 1.392 . S
C609 C613 1.495 . S
C610 C609 1.392 . S
C610 C611 1.385 1_554 S
C610 C612 1.478 . S
C611 H605 0.930 . S
C611 C607 1.400 1_545 S
C611 C610 1.385 1_556 S
C612 C610 1.478 . S
C612 C614 1.381 . S
C612 C618 1.383 . S
C613 C609 1.495 . S
C613 H619 0.959 1_545 S
C613 H620 0.961 . S
C613 H621 0.960 . S
C614 C612 1.381 . S
C614 C615 1.394 . S
C614 H622 0.930 . S
C615 C614 1.394 . S
C615 C616 1.383 . S
C615 H623 0.929 . S
C616 C615 1.383 . S
C616 C617 1.377 . S
C617 H601 0.930 . S
C617 C616 1.377 . S
C617 C618 1.379 . S
C618 H602 0.931 . S
C618 C612 1.383 . S
C618 C617 1.379 . S
H619 C613 0.959 1_565 S
H620 C613 0.961 . S
H621 C613 0.960 . S
H622 C614 0.930 . S
H623 C615 0.929 . S
H624 C632 0.929 . S
H625 C634 0.930 . S
H626 C636 0.930 . S
H627 C639 0.929 . S
H628 C642 0.930 . S
H629 C644 0.960 . S
H630 C644 0.960 . S
H631 C644 0.960 . S
C632 H624 0.929 . S
C632 C633 1.377 . S
C632 C634 1.384 . S
C633 C632 1.377 . S
C633 C639 1.390 . S
C634 H625 0.930 . S
C634 C632 1.384 . S
C634 C635 1.372 . S
C635 C634 1.372 . S
C635 C636 1.400 . S
C635 C640 1.490 . S
C636 H626 0.930 . S
C636 C635 1.400 . S
C636 C639 1.386 . S
H637 C653 0.930 . S
H638 C654 0.931 . S
C639 H627 0.929 . S
C639 C633 1.390 . S
C639 C636 1.386 . S
C640 C635 1.490 . S
C640 C642 1.395 . S
C640 C643 1.403 . S
H641 C647 0.930 . S
C642 H628 0.930 . S
C642 C640 1.395 . S
C642 C645 1.403 . S
C643 C640 1.403 . S
C643 C644 1.524 . S
C643 C647 1.400 . S
C644 H629 0.960 . S
C644 H630 0.960 . S
C644 H631 0.960 . S
C644 C643 1.524 . S
C645 C642 1.403 . S
C645 C646 1.392 . S
C645 C649 1.495 . S
C646 C645 1.392 . S
C646 C647 1.385 . S
C646 C648 1.478 . S
C647 H641 0.930 . S
C647 C643 1.400 . S
C647 C646 1.385 . S
C648 C646 1.478 . S
C648 C650 1.381 . S
C648 C654 1.383 . S
C649 C645 1.495 . S
C649 H655 0.959 . S
C649 H656 0.961 . S
C649 H657 0.960 . S
C650 C648 1.381 . S
C650 C651 1.394 . S
C650 H658 0.930 . S
C651 C650 1.394 . S
C651 C652 1.383 . S
C651 H659 0.929 . S
C652 C651 1.383 . S
C652 C653 1.377 . S
C653 H637 0.930 . S
C653 C652 1.377 . S
C653 C654 1.379 . S
C654 H638 0.931 . S
C654 C648 1.383 . S
C654 C653 1.379 . S
H655 C649 0.959 . S
H656 C649 0.961 . S
H657 C649 0.960 . S
H658 C650 0.930 . S
H659 C651 0.929 . S
H660 C668 0.929 . S
H661 C670 0.930 . S
H662 C672 0.930 . S
H663 C675 0.929 . S
H664 C678 0.930 . S
H665 C680 0.960 . S
H666 C680 0.960 . S
H667 C680 0.960 . S
C668 H660 0.929 . S
C668 C669 1.377 . S
C668 C670 1.384 . S
C669 C668 1.377 . S
C669 C675 1.390 . S
C670 H661 0.930 . S
C670 C668 1.384 . S
C670 C671 1.372 . S
C671 C670 1.372 . S
C671 C672 1.400 . S
C671 C676 1.490 . S
C672 H662 0.930 . S
C672 C671 1.400 . S
C672 C675 1.386 . S
H673 C689 0.930 . S
H674 C690 0.931 . S
C675 H663 0.929 . S
C675 C669 1.390 . S
C675 C672 1.386 . S
C676 C671 1.490 . S
C676 C678 1.395 . S
C676 C679 1.403 . S
H677 C683 0.930 . S
C678 H664 0.930 . S
C678 C676 1.395 . S
C678 C681 1.403 1_655 S
C679 C676 1.403 . S
C679 C680 1.524 . S
C679 C683 1.400 1_655 S
C680 H665 0.960 . S
C680 H666 0.960 . S
C680 H667 0.960 . S
C680 C679 1.524 . S
C681 C678 1.403 1_455 S
C681 C682 1.392 . S
C681 C685 1.495 . S
C682 C681 1.392 . S
C682 C683 1.385 . S
C682 C684 1.478 . S
C683 H677 0.930 . S
C683 C679 1.400 1_455 S
C683 C682 1.385 . S
C684 C682 1.478 . S
C684 C686 1.381 . S
C684 C690 1.383 . S
C685 C681 1.495 . S
C685 H691 0.959 . S
C685 H692 0.961 . S
C685 H693 0.960 . S
C686 C684 1.381 . S
C686 C687 1.394 . S
C686 H694 0.930 . S
C687 C686 1.394 . S
C687 C688 1.383 . S
C687 H695 0.929 . S
C688 C687 1.383 . S
C688 C689 1.377 . S
C689 H673 0.930 . S
C689 C688 1.377 . S
C689 C690 1.379 . S
C690 H674 0.931 . S
C690 C684 1.383 . S
C690 C689 1.379 . S
H691 C685 0.959 . S
H692 C685 0.961 . S
H693 C685 0.960 . S
H694 C686 0.930 . S
H695 C687 0.929 . S
H696 C704 0.929 . S
H697 C706 0.930 . S
H698 C708 0.930 1_556 S
H699 C711 0.929 . S
H700 C714 0.930 . S
H701 C716 0.960 . S
H702 C716 0.960 . S
H703 C716 0.960 . S
C704 H696 0.929 . S
C704 C705 1.377 . S
C704 C706 1.384 . S
C705 C704 1.377 . S
C705 C711 1.390 . S
C706 H697 0.930 . S
C706 C704 1.384 . S
C706 C707 1.372 . S
C707 C706 1.372 . S
C707 C708 1.400 . S
C707 C712 1.490 . S
C708 H698 0.930 1_554 S
C708 C707 1.400 . S
C708 C711 1.386 . S
H709 C725 0.930 . S
H710 C726 0.931 . S
C711 H699 0.929 . S
C711 C705 1.390 . S
C711 C708 1.386 . S
C712 C707 1.490 . S
C712 C714 1.395 . S
C712 C715 1.403 1_554 S
H713 C719 0.930 . S
C714 H700 0.930 . S
C714 C712 1.395 . S
C714 C717 1.403 1_565 S
C715 C712 1.403 1_556 S
C715 C716 1.524 . S
C715 C719 1.400 1_565 S
C716 H701 0.960 . S
C716 H702 0.960 . S
C716 H703 0.960 . S
C716 C715 1.524 . S
C717 C714 1.403 1_545 S
C717 C718 1.392 1_554 S
C717 C721 1.495 . S
C718 C717 1.392 1_556 S
C718 C719 1.385 . S
C718 C720 1.478 . S
C719 H713 0.930 . S
C719 C715 1.400 1_545 S
C719 C718 1.385 . S
C720 C718 1.478 . S
C720 C722 1.406 . S
C720 C726 1.383 . S
C721 C717 1.495 . S
C721 H727 0.959 . S
C721 H728 0.961 . S
C721 H729 0.960 . S
C722 C720 1.406 . S
C722 C723 1.417 . S
C722 H730 0.885 1_556 S
C723 C722 1.417 . S
C723 C724 1.383 . S
C723 H731 0.929 . S
C724 C723 1.383 . S
C724 C725 1.377 . S
C725 H709 0.930 . S
C725 C724 1.377 . S
C725 C726 1.379 . S
C726 H710 0.931 . S
C726 C720 1.383 . S
C726 C725 1.379 . S
H727 C721 0.959 . S
H728 C721 0.961 . S
H729 C721 0.960 . S
H730 C722 0.885 1_554 S
H731 C723 0.929 . S
H732 C740 0.929 . S
H733 C742 0.930 . S
H734 C744 0.930 . S
H735 C747 0.929 . S
H736 C750 0.930 . S
H737 C752 0.960 . S
H738 C752 0.960 . S
H739 C752 0.960 . S
C740 H732 0.929 . S
C740 C741 1.377 . S
C740 C742 1.384 . S
C741 C740 1.377 . S
C741 C747 1.390 . S
C742 H733 0.930 . S
C742 C740 1.384 . S
C742 C743 1.372 . S
C743 C742 1.372 . S
C743 C744 1.400 . S
C743 C748 1.490 . S
C744 H734 0.930 . S
C744 C743 1.400 . S
C744 C747 1.386 . S
H745 C761 0.930 . S
H746 C762 0.931 . S
C747 H735 0.929 . S
C747 C741 1.390 . S
C747 C744 1.386 . S
C748 C743 1.490 . S
C748 C750 1.395 . S
C748 C751 1.403 . S
H749 C755 0.930 . S
C750 H736 0.930 . S
C750 C748 1.395 . S
C750 C753 1.403 . S
C751 C748 1.403 . S
C751 C752 1.524 . S
C751 C755 1.400 . S
C752 H737 0.960 . S
C752 H738 0.960 . S
C752 H739 0.960 . S
C752 C751 1.524 . S
C753 C750 1.403 . S
C753 C754 1.392 . S
C753 C757 1.495 . S
C754 C753 1.392 . S
C754 C755 1.385 . S
C754 C756 1.478 . S
C755 H749 0.930 . S
C755 C751 1.400 . S
C755 C754 1.385 . S
C756 C754 1.478 . S
C756 C758 1.381 . S
C756 C762 1.383 . S
C757 C753 1.495 . S
C757 H763 0.959 . S
C757 H764 0.961 . S
C757 H765 0.960 . S
C758 C756 1.381 . S
C758 C759 1.394 . S
C758 H766 0.930 . S
C759 C758 1.394 . S
C759 C760 1.383 . S
C759 H767 0.929 . S
C760 C759 1.383 . S
C760 C761 1.377 . S
C761 H745 0.930 . S
C761 C760 1.377 . S
C761 C762 1.379 . S
C762 H746 0.931 . S
C762 C756 1.383 . S
C762 C761 1.379 . S
H763 C757 0.959 . S
H764 C757 0.961 . S
H765 C757 0.960 . S
H766 C758 0.930 . S
H767 C759 0.929 . S
H768 C776 0.929 . S
H769 C778 0.930 . S
H770 C780 0.930 . S
H771 C783 0.929 . S
H772 C786 0.930 . S
H773 C788 0.960 . S
H774 C788 0.960 . S
H775 C788 0.960 . S
C776 H768 0.929 . S
C776 C777 1.377 . S
C776 C778 1.384 . S
C777 C776 1.377 . S
C777 C783 1.390 . S
C778 H769 0.930 . S
C778 C776 1.384 . S
C778 C779 1.372 . S
C779 C778 1.372 . S
C779 C780 1.400 . S
C779 C784 1.490 . S
C780 H770 0.930 . S
C780 C779 1.400 . S
C780 C783 1.386 . S
H781 C797 0.930 . S
H782 C798 0.931 . S
C783 H771 0.929 . S
C783 C777 1.390 . S
C783 C780 1.386 . S
C784 C779 1.490 . S
C784 C786 1.395 . S
C784 C787 1.403 . S
H785 C791 0.930 . S
C786 H772 0.930 . S
C786 C784 1.395 . S
C786 C789 1.403 1_455 S
C787 C784 1.403 . S
C787 C788 1.524 . S
C787 C791 1.400 1_455 S
C788 H773 0.960 . S
C788 H774 0.960 . S
C788 H775 0.960 . S
C788 C787 1.524 . S
C789 C786 1.403 1_655 S
C789 C790 1.392 . S
C789 C793 1.495 . S
C790 C789 1.392 . S
C790 C791 1.385 . S
C790 C792 1.478 . S
C791 H785 0.930 . S
C791 C787 1.400 1_655 S
C791 C790 1.385 . S
C792 C790 1.478 . S
C792 C794 1.381 . S
C792 C798 1.383 . S
C793 C789 1.495 . S
C793 H799 0.959 . S
C793 H800 0.961 . S
C793 H801 0.960 . S
C794 C792 1.381 . S
C794 C795 1.394 . S
C794 H802 0.930 . S
C795 C794 1.394 . S
C795 C796 1.383 . S
C795 H803 0.929 . S
C796 C795 1.383 . S
C796 C797 1.377 . S
C797 H781 0.930 . S
C797 C796 1.377 . S
C797 C798 1.379 . S
C798 H782 0.931 . S
C798 C792 1.383 . S
C798 C797 1.379 . S
H799 C793 0.959 . S
H800 C793 0.961 . S
H801 C793 0.960 . S
H802 C794 0.930 . S
H803 C795 0.929 . S
H804 C812 0.929 1_655 S
H805 C814 0.877 1_554 S
H806 C816 0.930 . S
H807 C819 0.929 1_655 S
H808 C822 0.930 . S
H809 C824 0.960 . S
H810 C824 0.960 . S
H811 C824 0.960 . S
C812 H804 0.929 1_455 S
C812 C813 1.377 1_455 S
C812 C814 1.384 . S
C813 C812 1.377 1_655 S
C813 C819 1.390 1_655 S
C814 H805 0.877 1_556 S
C814 C812 1.384 . S
C814 C815 1.372 . S
C815 C814 1.372 . S
C815 C816 1.400 . S
C815 C820 1.490 . S
C816 H806 0.930 . S
C816 C815 1.400 . S
C816 C819 1.386 . S
H817 C833 0.930 . S
H818 C834 0.931 . S
C819 H807 0.929 1_455 S
C819 C813 1.390 1_455 S
C819 C816 1.386 . S
C820 C815 1.490 . S
C820 C822 1.395 1_556 S
C820 C823 1.403 . S
H821 C827 0.930 . S
C822 H808 0.930 . S
C822 C820 1.395 1_554 S
C822 C825 1.403 . S
C823 C820 1.403 . S
C823 C824 1.524 . S
C823 C827 1.400 . S
C824 H809 0.960 . S
C824 H810 0.960 . S
C824 H811 0.960 . S
C824 C823 1.524 . S
C825 C822 1.403 . S
C825 C826 1.392 . S
C825 C829 1.495 . S
C826 C825 1.392 . S
C826 C827 1.385 1_554 S
C826 C828 1.478 . S
C827 H821 0.930 . S
C827 C823 1.400 . S
C827 C826 1.385 1_556 S
C828 C826 1.478 . S
C828 C830 1.381 . S
C828 C834 1.383 . S
C829 C825 1.495 . S
C829 H835 0.959 . S
C829 H836 0.961 . S
C829 H837 0.960 . S
C830 C828 1.381 . S
C830 C831 1.394 . S
C830 H838 0.930 . S
C831 C830 1.394 . S
C831 C832 1.383 . S
C831 H839 0.929 . S
C832 C831 1.383 . S
C832 C833 1.377 . S
C833 H817 0.930 . S
C833 C832 1.377 . S
C833 C834 1.379 . S
C834 H818 0.931 . S
C834 C828 1.383 . S
C834 C833 1.379 . S
H835 C829 0.959 . S
H836 C829 0.961 . S
H837 C829 0.960 . S
H838 C830 0.930 . S
H839 C831 0.929 . S
H840 C848 0.937 . S
H841 C850 0.930 . S
H842 C852 0.930 . S
H843 C855 0.929 . S
H844 C858 0.930 . S
H845 C860 0.960 . S
H846 C860 0.960 . S
H847 C860 0.960 . S
C848 H840 0.937 . S
C848 C849 1.375 . S
C848 C850 1.379 1_565 S
C849 C848 1.375 . S
C849 C855 1.390 1_565 S
C850 H841 0.930 . S
C850 C848 1.379 1_545 S
C850 C851 1.372 . S
C851 C850 1.372 . S
C851 C852 1.400 . S
C851 C856 1.490 . S
C852 H842 0.930 . S
C852 C851 1.400 . S
C852 C855 1.386 . S
H853 C869 0.930 . S
H854 C870 0.931 . S
C855 H843 0.929 . S
C855 C849 1.390 1_545 S
C855 C852 1.386 . S
C856 C851 1.490 . S
C856 C858 1.395 . S
C856 C859 1.403 . S
H857 C863 0.930 . S
C858 H844 0.930 . S
C858 C856 1.395 . S
C858 C861 1.403 . S
C859 C856 1.403 . S
C859 C860 1.524 . S
C859 C863 1.400 . S
C860 H845 0.960 . S
C860 H846 0.960 . S
C860 H847 0.960 . S
C860 C859 1.524 . S
C861 C858 1.403 . S
C861 C862 1.392 . S
C861 C865 1.495 . S
C862 C861 1.392 . S
C862 C863 1.385 . S
C862 C864 1.478 . S
C863 H857 0.930 . S
C863 C859 1.400 . S
C863 C862 1.385 . S
C864 C862 1.478 . S
C864 C866 1.381 . S
C864 C870 1.383 . S
C865 C861 1.495 . S
C865 H871 0.959 . S
C865 H872 0.961 . S
C865 H873 0.960 . S
C866 C864 1.381 . S
C866 C867 1.394 1_655 S
C866 H874 0.930 . S
C867 C866 1.394 1_455 S
C867 C868 1.383 . S
C867 H875 0.929 . S
C868 C867 1.383 . S
C868 C869 1.377 1_455 S
C869 H853 0.930 . S
C869 C868 1.377 1_655 S
C869 C870 1.379 . S
C870 H854 0.931 . S
C870 C864 1.383 . S
C870 C869 1.379 . S
H871 C865 0.959 . S
H872 C865 0.961 . S
H873 C865 0.960 . S
H874 C866 0.930 . S
H875 C867 0.929 . S
H876 C884 0.929 . S
H877 C886 0.930 . S
H878 C888 0.930 . S
H879 C891 0.929 . S
H880 C894 0.930 . S
H881 C896 0.960 . S
H882 C896 0.960 . S
H883 C896 0.960 . S
C884 H876 0.929 . S
C884 C885 1.377 . S
C884 C886 1.384 . S
C885 C884 1.377 . S
C885 C891 1.390 . S
C886 H877 0.930 . S
C886 C884 1.384 . S
C886 C887 1.372 . S
C887 C886 1.372 . S
C887 C888 1.400 . S
C887 C892 1.490 . S
C888 H878 0.930 . S
C888 C887 1.400 . S
C888 C891 1.386 . S
H889 C905 0.930 1_545 S
H890 C906 0.931 . S
C891 H879 0.929 . S
C891 C885 1.390 . S
C891 C888 1.386 . S
C892 C887 1.490 . S
C892 C894 1.395 . S
C892 C895 1.403 . S
H893 C899 0.930 . S
C894 H880 0.930 . S
C894 C892 1.395 . S
C894 C897 1.403 . S
C895 C892 1.403 . S
C895 C896 1.524 . S
C895 C899 1.400 . S
C896 H881 0.960 . S
C896 H882 0.960 . S
C896 H883 0.960 . S
C896 C895 1.524 . S
C897 C894 1.403 . S
C897 C898 1.392 . S
C897 C901 1.495 . S
C898 C897 1.392 . S
C898 C899 1.385 . S
C898 C900 1.478 . S
C899 H893 0.930 . S
C899 C895 1.400 . S
C899 C898 1.385 . S
C900 C898 1.478 . S
C900 C902 1.381 . S
C900 C906 1.383 . S
C901 C897 1.495 . S
C901 H907 0.959 . S
C901 H908 0.961 . S
C901 H909 0.960 . S
C902 C900 1.381 . S
C902 C903 1.394 . S
C902 H910 0.930 . S
C903 C902 1.394 . S
C903 C904 1.383 1_565 S
C903 H911 0.929 1_565 S
C904 C903 1.383 1_545 S
C904 C905 1.377 1_545 S
C905 H889 0.930 1_565 S
C905 C904 1.377 1_565 S
C905 C906 1.379 . S
C906 H890 0.931 . S
C906 C900 1.383 . S
C906 C905 1.379 . S
H907 C901 0.959 . S
H908 C901 0.961 . S
H909 C901 0.960 . S
H910 C902 0.930 . S
H911 C903 0.929 1_545 S
H912 C920 0.929 . S
H913 C922 0.930 . S
H914 C924 0.930 . S
H915 C927 0.929 . S
H916 C930 0.930 . S
H917 C932 0.960 . S
H918 C932 0.960 . S
H919 C932 0.960 . S
C920 H912 0.929 . S
C920 C921 1.377 . S
C920 C922 1.384 . S
C921 C920 1.377 . S
C921 C927 1.390 . S
C922 H913 0.930 . S
C922 C920 1.384 . S
C922 C923 1.372 . S
C923 C922 1.372 . S
C923 C924 1.400 . S
C923 C928 1.490 . S
C924 H914 0.930 . S
C924 C923 1.400 . S
C924 C927 1.386 . S
H925 C941 0.930 . S
H926 C942 0.931 . S
C927 H915 0.929 . S
C927 C921 1.390 . S
C927 C924 1.386 . S
C928 C923 1.490 . S
C928 C930 1.395 1_554 S
C928 C931 1.403 . S
H929 C935 0.930 . S
C930 H916 0.930 . S
C930 C928 1.395 1_556 S
C930 C933 1.403 . S
C931 C928 1.403 . S
C931 C932 1.524 . S
C931 C935 1.400 . S
C932 H917 0.960 . S
C932 H918 0.960 . S
C932 H919 0.960 . S
C932 C931 1.524 . S
C933 C930 1.403 . S
C933 C934 1.392 . S
C933 C937 1.495 . S
C934 C933 1.392 . S
C934 C935 1.385 1_556 S
C934 C936 1.478 . S
C935 H929 0.930 . S
C935 C931 1.400 . S
C935 C934 1.385 1_554 S
C936 C934 1.478 . S
C936 C938 1.381 . S
C936 C942 1.383 . S
C937 C933 1.495 . S
C937 H943 0.959 . S
C937 H944 0.961 . S
C937 H945 0.960 . S
C938 C936 1.381 . S
C938 C939 1.394 . S
C938 H946 0.930 . S
C939 C938 1.394 . S
C939 C940 1.383 1_655 S
C939 H947 0.929 . S
C940 C939 1.383 1_455 S
C940 C941 1.377 . S
C941 H925 0.930 . S
C941 C940 1.377 . S
C941 C942 1.379 1_455 S
C942 H926 0.931 . S
C942 C936 1.383 . S
C942 C941 1.379 1_655 S
H943 C937 0.959 . S
H944 C937 0.961 . S
H945 C937 0.960 . S
H946 C938 0.930 . S
H947 C939 0.929 . S
H948 C956 0.929 . S
H949 C958 0.930 . S
H950 C960 0.930 . S
H951 C963 0.929 . S
H952 C966 0.930 . S
H953 C968 0.960 . S
H954 C968 0.960 . S
H955 C968 0.960 . S
C956 H948 0.929 . S
C956 C957 1.377 1_455 S
C956 C958 1.384 . S
C957 C956 1.377 1_655 S
C957 C963 1.390 . S
C958 H949 0.930 . S
C958 C956 1.384 . S
C958 C959 1.372 . S
C959 C958 1.372 . S
C959 C960 1.400 . S
C959 C964 1.490 . S
C960 H950 0.930 . S
C960 C959 1.400 . S
C960 C963 1.386 1_455 S
H961 C977 0.930 . S
H962 C978 0.931 . S
C963 H951 0.929 . S
C963 C957 1.390 . S
C963 C960 1.386 1_655 S
C964 C959 1.490 . S
C964 C966 1.395 . S
C964 C967 1.403 . S
H965 C971 0.930 . S
C966 H952 0.930 . S
C966 C964 1.395 . S
C966 C969 1.403 . S
C967 C964 1.403 . S
C967 C968 1.524 . S
C967 C971 1.400 . S
C968 H953 0.960 . S
C968 H954 0.960 . S
C968 H955 0.960 . S
C968 C967 1.524 . S
C969 C966 1.403 . S
C969 C970 1.392 . S
C969 C973 1.495 . S
C970 C969 1.392 . S
C970 C971 1.385 . S
C970 C972 1.478 . S
C971 H965 0.930 . S
C971 C967 1.400 . S
C971 C970 1.385 . S
C972 C970 1.478 . S
C972 C974 1.381 . S
C972 C978 1.383 . S
C973 C969 1.495 . S
C973 H979 0.959 . S
C973 H980 0.961 . S
C973 H981 0.960 . S
C974 C972 1.381 . S
C974 C975 1.394 . S
C974 H982 0.930 . S
C975 C974 1.394 . S
C975 C976 1.383 1_565 S
C975 H983 0.929 1_565 S
C976 C975 1.383 1_545 S
C976 C977 1.377 1_545 S
C977 H961 0.930 . S
C977 C976 1.377 1_565 S
C977 C978 1.379 . S
C978 H962 0.931 . S
C978 C972 1.383 . S
C978 C977 1.379 . S
H979 C973 0.959 . S
H980 C973 0.961 . S
H981 C973 0.960 . S
H982 C974 0.930 . S
H983 C975 0.929 1_545 S
H984 C992 0.929 . S
H985 C994 0.930 . S
H986 C996 0.930 . S
H987 C999 0.929 1_565 S
H988 C1002 0.930 . S
H989 C1004 0.960 . S
H990 C1004 0.960 . S
H991 C1004 0.960 . S
C992 H984 0.929 . S
C992 C993 1.377 1_545 S
C992 C994 1.384 . S
C993 C992 1.377 1_565 S
C993 C999 1.390 1_565 S
C994 H985 0.930 . S
C994 C992 1.384 . S
C994 C995 1.372 . S
C995 C994 1.372 . S
C995 C996 1.400 . S
C995 C1000 1.490 . S
C996 H986 0.930 . S
C996 C995 1.400 . S
C996 C999 1.386 . S
H997 C1013 0.930 . S
H998 C1014 0.931 . S
C999 H987 0.929 1_545 S
C999 C993 1.390 1_545 S
C999 C996 1.386 . S
C1000 C995 1.490 . S
C1000 C1002 1.395 . S
C1000 C1003 1.403 . S
H1001 C1007 0.930 . S
C1002 H988 0.930 . S
C1002 C1000 1.395 . S
C1002 C1005 1.403 . S
C1003 C1000 1.403 . S
C1003 C1004 1.524 . S
C1003 C1007 1.400 . S
C1004 H989 0.960 . S
C1004 H990 0.960 . S
C1004 H991 0.960 . S
C1004 C1003 1.524 . S
C1005 C1002 1.403 . S
C1005 C1006 1.392 . S
C1005 C1009 1.495 . S
C1006 C1005 1.392 . S
C1006 C1007 1.385 . S
C1006 C1008 1.478 . S
C1007 H1001 0.930 . S
C1007 C1003 1.400 . S
C1007 C1006 1.385 . S
C1008 C1006 1.478 . S
C1008 C1010 1.381 . S
C1008 C1014 1.383 . S
C1009 C1005 1.495 . S
C1009 H1015 0.959 . S
C1009 H1016 0.961 . S
C1009 H1017 0.960 . S
C1010 C1008 1.381 . S
C1010 C1011 1.394 . S
C1010 H1018 0.930 . S
C1011 C1010 1.394 . S
C1011 C1012 1.383 . S
C1011 H1019 0.929 . S
C1012 C1011 1.383 . S
C1012 C1013 1.377 . S
C1013 H997 0.930 . S
C1013 C1012 1.377 . S
C1013 C1014 1.379 . S
C1014 H998 0.931 . S
C1014 C1008 1.383 . S
C1014 C1013 1.379 . S
H1015 C1009 0.959 . S
H1016 C1009 0.961 . S
H1017 C1009 0.960 . S
H1018 C1010 0.930 . S
H1019 C1011 0.929 . S
C165 C39 1.330 . S
C184 C0 1.358 . S
C201 C13 1.330 . S
C220 C52 1.289 . S
C237 C65 1.336 . S
C256 C26 1.371 . S
C273 C78 1.340 . S
C292 C117 1.321 . S
C309 C130 1.338 . S
C328 C91 1.371 . S
C345 C104 1.338 . S
C364 C143 1.309 . S
C381 C112 1.513 . S
C400 C8 1.516 . S
C417 C21 1.523 . S
C436 C125 1.516 . S
C453 C34 1.515 . S
C472 C138 1.496 . S
C489 C47 1.521 . S
C508 C151 1.499 . S
C525 C86 1.520 . S
C544 C60 1.495 . S
C561 C99 1.514 . S
C580 C73 1.522 . S
C597 C96 0.722 . S
C616 C5 0.697 . S
C633 C18 0.722 . S
C652 C109 0.712 . S
C669 C31 0.736 . S
C688 C122 0.804 . S
C705 C44 0.751 . S
C724 C135 0.737 . S
C741 C148 0.722 . S
C760 C57 0.690 . S
C777 C70 0.750 . S
C796 C83 0.725 . S
C813 C140 1.191 . S
C832 C10 1.181 . S
C849 C153 1.189 . S
C868 C23 1.193 . S
C885 C88 1.191 . S
C904 C36 1.182 . S
C921 C49 1.191 . S
C940 C101 1.183 . S
C957 C62 1.189 . S
C976 C114 1.193 . S
C993 C75 1.191 . S
C1012 C127 1.182 . S
