# Generated by pormake.
# Topology wfu, (7)-cn, num edge types: 1
# Building blocks:
#     Node 0, Type 0, BuildingBlock: HICVOG_clean_sbu_0, # of connection points: 7
#     Node 1, Type 0, BuildingBlock: HICVOG_clean_sbu_0, # of connection points: 7
#     Node 2, Type 0, BuildingBlock: HICVOG_clean_sbu_0, # of connection points: 7
#     Node 3, Type 0, BuildingBlock: HICVOG_clean_sbu_0, # of connection points: 7
#     Node 4, Type 0, BuildingBlock: HICVOG_clean_sbu_0, # of connection points: 7
#     Node 5, Type 0, BuildingBlock: HICVOG_clean_sbu_0, # of connection points: 7
#     Node 6, Type 0, BuildingBlock: HICVOG_clean_sbu_0, # of connection points: 7
#     Node 7, Type 0, BuildingBlock: HICVOG_clean_sbu_0, # of connection points: 7
#     Edge 8, Type (0, 0), BuildingBlock: OJICUG_clean_linker_0, # of connection points: 2
#     Edge 9, Type (0, 0), BuildingBlock: OJICUG_clean_linker_0, # of connection points: 2
#     Edge 10, Type (0, 0), BuildingBlock: OJICUG_clean_linker_0, # of connection points: 2
#     Edge 11, Type (0, 0), BuildingBlock: OJICUG_clean_linker_0, # of connection points: 2
#     Edge 12, Type (0, 0), BuildingBlock: OJICUG_clean_linker_0, # of connection points: 2
#     Edge 13, Type (0, 0), BuildingBlock: OJICUG_clean_linker_0, # of connection points: 2
#     Edge 14, Type (0, 0), BuildingBlock: OJICUG_clean_linker_0, # of connection points: 2
#     Edge 15, Type (0, 0), BuildingBlock: OJICUG_clean_linker_0, # of connection points: 2
#     Edge 16, Type (0, 0), BuildingBlock: OJICUG_clean_linker_0, # of connection points: 2
#     Edge 17, Type (0, 0), BuildingBlock: OJICUG_clean_linker_0, # of connection points: 2
#     Edge 18, Type (0, 0), BuildingBlock: OJICUG_clean_linker_0, # of connection points: 2
#     Edge 19, Type (0, 0), BuildingBlock: OJICUG_clean_linker_0, # of connection points: 2
#     Edge 20, Type (0, 0), BuildingBlock: OJICUG_clean_linker_0, # of connection points: 2
#     Edge 21, Type (0, 0), BuildingBlock: OJICUG_clean_linker_0, # of connection points: 2
#     Edge 22, Type (0, 0), BuildingBlock: OJICUG_clean_linker_0, # of connection points: 2
#     Edge 23, Type (0, 0), BuildingBlock: OJICUG_clean_linker_0, # of connection points: 2
#     Edge 24, Type (0, 0), BuildingBlock: OJICUG_clean_linker_0, # of connection points: 2
#     Edge 25, Type (0, 0), BuildingBlock: OJICUG_clean_linker_0, # of connection points: 2
#     Edge 26, Type (0, 0), BuildingBlock: OJICUG_clean_linker_0, # of connection points: 2
#     Edge 27, Type (0, 0), BuildingBlock: OJICUG_clean_linker_0, # of connection points: 2
#     Edge 28, Type (0, 0), BuildingBlock: OJICUG_clean_linker_0, # of connection points: 2
#     Edge 29, Type (0, 0), BuildingBlock: OJICUG_clean_linker_0, # of connection points: 2
#     Edge 30, Type (0, 0), BuildingBlock: OJICUG_clean_linker_0, # of connection points: 2
#     Edge 31, Type (0, 0), BuildingBlock: OJICUG_clean_linker_0, # of connection points: 2
#     Edge 32, Type (0, 0), BuildingBlock: OJICUG_clean_linker_0, # of connection points: 2
#     Edge 33, Type (0, 0), BuildingBlock: OJICUG_clean_linker_0, # of connection points: 2
#     Edge 34, Type (0, 0), BuildingBlock: OJICUG_clean_linker_0, # of connection points: 2
#     Edge 35, Type (0, 0), BuildingBlock: OJICUG_clean_linker_0, # of connection points: 2
# Relax obj value: 0.474
# Max RMSD: 0.289
# Mean RMSD: 0.289
data_MOF--net-wfu--node1-HICVOG_clean_sbu_0--edge1-OJICUG_clean_linker_0
_symmetry_space_group_name_H-M    P1
_symmetry_Int_Tables_number       1
_symmetry_cell_setting            triclinic
loop_
_symmetry_equiv_pos_as_xyz
'x, y, z'
_cell_length_a     23.332811
_cell_length_b     23.35133
_cell_length_c     24.124317
_cell_angle_alpha  89.914904
_cell_angle_beta   90.097343
_cell_angle_gamma 90.346393
loop_
_atom_site_label
_atom_site_type_symbol
_atom_site_fract_x
_atom_site_fract_y
_atom_site_fract_z
_atom_type_partial_charge
Zn0 Zn 0.26628 0.35207 0.09351 0.0
C1 C 0.25174 0.36736 0.25997 0.0
N2 N 0.25477 0.30999 0.25939 0.0
C3 C 0.26148 0.29765 0.20555 0.0
N4 N 0.26324 0.34596 0.17433 0.0
N5 N 0.25663 0.38981 0.2088 0.0
C6 C 0.24802 0.56709 0.25913 0.0
O7 O 0.20054 0.56313 0.23001 0.0
O8 O 0.33695 0.31909 0.05476 0.0
Zn9 Zn 0.28797 0.46484 0.19391 0.0
N10 N 0.19826 0.3146 0.06561 0.0
C11 C 0.10049 0.28554 0.07338 0.0
C12 C 0.15113 0.30584 0.09772 0.0
C13 C 0.19693 0.30361 0.01055 0.0
N14 N 0.09873 0.27591 0.0178 0.0
C15 C 0.14606 0.28413 0.9859 0.0
O16 O 0.26352 0.50273 0.12359 0.0
C17 C 0.25892 0.48605 0.07374 0.0
O18 O 0.26168 0.43313 0.06132 0.0
H19 H 0.15231 0.31591 0.14144 0.0
H20 H 0.23456 0.31272 0.98576 0.0
C21 C 0.39422 0.44789 0.23711 0.0
C22 C 0.45288 0.43723 0.23921 0.0
C23 C 0.45165 0.41832 0.14235 0.0
C24 C 0.39374 0.43257 0.14021 0.0
N25 N 0.36672 0.44747 0.18777 0.0
N26 N 0.48005 0.42206 0.19145 0.0
H27 H 0.37054 0.45895 0.27393 0.0
C28 C 0.38586 0.30217 0.07136 0.0
O29 O 0.39644 0.29933 0.12473 0.0
O30 O 0.28532 0.52763 0.25458 0.0
H31 H 0.37055 0.43111 0.10144 0.0
H32 H 0.06252 0.27878 0.09828 0.0
H33 H 0.47423 0.40596 0.10515 0.0
Zn34 Zn 0.45077 0.74575 0.77666 0.0
C35 C 0.28994 0.79771 0.78356 0.0
N36 N 0.29978 0.80839 0.72981 0.0
C37 C 0.35702 0.80405 0.72587 0.0
N38 N 0.38152 0.79083 0.77464 0.0
N39 N 0.33925 0.78663 0.81115 0.0
C40 C 0.30929 0.66311 0.91491 0.0
O41 O 0.34986 0.65049 0.87938 0.0
O42 O 0.51616 0.76709 0.72278 0.0
Zn43 Zn 0.3486 0.77776 0.89015 0.0
N44 N 0.425 0.67297 0.74846 0.0
C45 C 0.35136 0.61126 0.71467 0.0
C46 C 0.36898 0.65668 0.74824 0.0
C47 C 0.46398 0.64542 0.71715 0.0
N48 N 0.39052 0.58408 0.68265 0.0
C49 C 0.4467 0.60034 0.68237 0.0
O50 O 0.4295 0.76191 0.91812 0.0
C51 C 0.47975 0.74876 0.90236 0.0
O52 O 0.49101 0.74088 0.85135 0.0
H53 H 0.3379 0.68011 0.77189 0.0
H54 H 0.50808 0.65899 0.72014 0.0
C55 C 0.34237 0.8561 0.97666 0.0
C56 C 0.33285 0.90832 0.00342 0.0
C57 C 0.29959 0.94787 0.91891 0.0
C58 C 0.30976 0.89585 0.89232 0.0
N59 N 0.33011 0.85077 0.92209 0.0
N60 N 0.31077 0.95281 0.97399 0.0
H61 H 0.35824 0.81923 -0.00092 0.0
C62 C 0.55673 0.803 0.73038 0.0
O63 O 0.55262 0.84006 0.77106 0.0
O64 O 0.29804 0.71558 0.92383 0.0
H65 H 0.30187 0.89194 0.84843 0.0
H66 H 0.30685 0.59807 0.71364 0.0
H67 H 0.28279 0.98395 0.89601 0.0
Zn68 Zn 0.75753 0.5966 0.2135 0.0
C69 C 0.80298 0.7616 0.19971 0.0
N70 N 0.81693 0.75345 0.25309 0.0
C71 C 0.81245 0.69642 0.25933 0.0
N72 N 0.79628 0.67039 0.21217 0.0
N73 N 0.7891 0.7114 0.17465 0.0
C74 C 0.66247 0.72083 0.06466 0.0
O75 O 0.65309 0.68312 0.10413 0.0
O76 O 0.78661 0.53446 0.26761 0.0
Zn77 Zn 0.78053 0.69863 0.09579 0.0
N78 N 0.68392 0.61404 0.24365 0.0
C79 C 0.61687 0.67934 0.28129 0.0
C80 C 0.6641 0.66846 0.24782 0.0
C81 C 0.65784 0.57001 0.27012 0.0
N82 N 0.59045 0.63507 0.30756 0.0
C83 C 0.60929 0.58009 0.30295 0.0
O84 O 0.77033 0.61607 0.07151 0.0
C85 C 0.75939 0.56565 0.08863 0.0
O86 O 0.75231 0.55499 0.13988 0.0
H87 H 0.68605 0.70342 0.22746 0.0
H88 H 0.67516 0.52782 0.26423 0.0
C89 C 0.85522 0.73866 0.01165 0.0
C90 C 0.90843 0.74987 0.98687 0.0
C91 C 0.95491 0.72933 0.07169 0.0
C92 C 0.90185 0.71755 0.09609 0.0
N93 N 0.85312 0.72222 0.06535 0.0
N94 N 0.95718 0.74439 0.01731 0.0
H95 H 0.81587 0.7402 0.98784 0.0
C96 C 0.81879 0.49334 0.25281 0.0
O97 O 0.84601 0.49754 0.20534 0.0
O98 O 0.71353 0.73904 0.057 0.0
H99 H 0.89976 0.70341 0.13873 0.0
H100 H 0.60104 0.72249 0.28607 0.0
H101 H 0.99404 0.72523 0.09545 0.0
Zn102 Zn 0.60098 0.30516 0.78737 0.0
C103 C 0.75833 0.23873 0.78941 0.0
N104 N 0.74432 0.22035 0.73834 0.0
C105 C 0.68787 0.23135 0.73495 0.0
N106 N 0.66784 0.25598 0.78143 0.0
N107 N 0.71181 0.25949 0.81627 0.0
C108 C 0.71948 0.38136 0.93241 0.0
O109 O 0.67274 0.38701 0.90258 0.0
O110 O 0.53306 0.29457 0.73227 0.0
Zn111 Zn 0.70321 0.2653 0.89655 0.0
N112 N 0.63069 0.38023 0.76971 0.0
C113 C 0.70921 0.43997 0.74381 0.0
C114 C 0.68708 0.39421 0.77452 0.0
C115 C 0.59543 0.411 0.7369 0.0
N116 N 0.67434 0.46862 0.70827 0.0
C117 C 0.61789 0.45443 0.70296 0.0
O118 O 0.62126 0.27077 0.92594 0.0
C119 C 0.57141 0.28649 0.91099 0.0
O120 O 0.56143 0.30209 0.86144 0.0
H121 H 0.71503 0.36878 0.79992 0.0
H122 H 0.55067 0.39942 0.73591 0.0
C123 C 0.74418 0.19047 0.98004 0.0
C124 C 0.75498 0.1372 0.0047 0.0
C125 C 0.7388 0.09158 0.91866 0.0
C126 C 0.72695 0.14462 0.89442 0.0
N127 N 0.72985 0.19304 0.92571 0.0
N128 N 0.75167 0.08885 0.97355 0.0
H129 H 0.74407 0.22936 0.00447 0.0
C130 C 0.49493 0.25566 0.72669 0.0
O131 O 0.50104 0.20706 0.75346 0.0
O132 O 0.74443 0.33293 0.93347 0.0
H133 H 0.71365 0.14673 0.85155 0.0
H134 H 0.75407 0.45148 0.74694 0.0
H135 H 0.73617 0.05274 0.89437 0.0
Zn136 Zn 0.7671 0.20303 0.39548 0.0
C137 C 0.7524 0.19255 0.22895 0.0
N138 N 0.75661 0.24987 0.23029 0.0
C139 C 0.76331 0.26147 0.28433 0.0
N140 N 0.76383 0.21255 0.31496 0.0
N141 N 0.75644 0.16929 0.27979 0.0
C142 C 0.74458 0.99239 0.22634 0.0
O143 O 0.69792 0.99608 0.25647 0.0
O144 O 0.83644 0.23714 0.43584 0.0
Zn145 Zn 0.78677 0.09338 0.29256 0.0
N146 N 0.69818 0.23501 0.42543 0.0
C147 C 0.60616 0.27841 0.42152 0.0
C148 C 0.65575 0.25941 0.39492 0.0
C149 C 0.69201 0.22642 0.48053 0.0
N150 N 0.60033 0.27041 0.47711 0.0
C151 C 0.64178 0.24368 0.50709 0.0
O152 O 0.76315 0.05266 0.3619 0.0
C153 C 0.76121 0.06829 0.41217 0.0
O154 O 0.76493 0.12096 0.42524 0.0
H155 H 0.65991 0.26344 0.35051 0.0
H156 H 0.72642 0.20619 0.50335 0.0
C157 C 0.89344 0.10884 0.24918 0.0
C158 C 0.95231 0.11896 0.24726 0.0
C159 C 0.95111 0.14063 0.34354 0.0
C160 C 0.89299 0.12657 0.34567 0.0
N161 N 0.86584 0.11051 0.29834 0.0
N162 N 0.9796 0.13532 0.29477 0.0
H163 H 0.86977 0.09699 0.2124 0.0
C164 C 0.88539 0.25467 0.41966 0.0
O165 O 0.89598 0.25838 0.36637 0.0
O166 O 0.78246 0.03183 0.23054 0.0
H167 H 0.86979 0.12911 0.38425 0.0
H168 H 0.57236 0.29878 0.39807 0.0
H169 H 0.97378 0.1539 0.38055 0.0
Zn170 Zn 0.10201 0.24683 0.70379 0.0
C171 C 0.26103 0.30804 0.70153 0.0
N172 N 0.25056 0.31412 0.75585 0.0
C173 C 0.19367 0.30567 0.75957 0.0
N174 N 0.16984 0.29467 0.70988 0.0
N175 N 0.21223 0.29576 0.67315 0.0
C176 C 0.21947 0.1746 0.55759 0.0
O177 O 0.17405 0.16758 0.58899 0.0
O178 O 0.03439 0.25947 0.75874 0.0
Zn179 Zn 0.20305 0.29134 0.59303 0.0
N180 N 0.13113 0.17323 0.72534 0.0
C181 C 0.20941 0.11376 0.75066 0.0
C182 C 0.18708 0.15871 0.7193 0.0
C183 C 0.09668 0.14432 0.76067 0.0
N184 N 0.17506 0.08589 0.78744 0.0
C185 C 0.11908 0.10063 0.7941 0.0
O186 O 0.12094 0.28533 0.56513 0.0
C187 C 0.07188 0.26673 0.57985 0.0
O188 O 0.06286 0.2486 0.62887 0.0
H189 H 0.21465 0.18332 0.69245 0.0
H190 H 0.05222 0.1562 0.76256 0.0
C191 C 0.24189 0.36688 0.50883 0.0
C192 C 0.25482 0.42013 0.48485 0.0
C193 C 0.24653 0.46414 0.57263 0.0
C194 C 0.23295 0.4111 0.59633 0.0
N195 N 0.23077 0.36353 0.56383 0.0
N196 N 0.25655 0.46769 0.51723 0.0
H197 H 0.23843 0.32866 0.48363 0.0
C198 C 0.99288 0.29467 0.7559 0.0
O199 O 0.99576 0.33709 0.72019 0.0
O200 O 0.24326 0.22388 0.55545 0.0
H201 H 0.22274 0.40829 0.63994 0.0
H202 H 0.25395 0.10189 0.74664 0.0
H203 H 0.248 0.50236 0.59791 0.0
Zn204 Zn 0.27908 0.85877 0.39052 0.0
C205 C 0.32906 0.86615 0.23299 0.0
N206 N 0.33649 0.80952 0.23986 0.0
C207 C 0.31146 0.79896 0.28895 0.0
N208 N 0.2897 0.8474 0.31132 0.0
N209 N 0.30056 0.88964 0.27587 0.0
C210 C 0.31773 0.06643 0.23583 0.0
O211 O 0.34762 0.06143 0.28178 0.0
O212 O 0.21193 0.81649 0.42792 0.0
Zn213 Zn 0.2585 0.96149 0.27559 0.0
N214 N 0.35171 0.83628 0.42167 0.0
C215 C 0.45376 0.834 0.4169 0.0
C216 C 0.40074 0.84479 0.39218 0.0
C217 C 0.35357 0.81732 0.47461 0.0
N218 N 0.45573 0.81649 0.47057 0.0
C219 C 0.4068 0.80743 0.4999 0.0
O220 O 0.25421 1.00283 0.34915 0.0
C221 C 0.25966 0.99146 0.40039 0.0
O222 O 0.26894 0.94065 0.41698 0.0
H223 H 0.39893 0.86132 0.35036 0.0
H224 H 0.31396 0.81314 0.49763 0.0
C225 C 0.15533 0.98458 0.22445 0.0
C226 C 0.10828 0.9732 0.18973 0.0
C227 C 0.12048 0.87362 0.2065 0.0
C228 C 0.16724 0.8855 0.24063 0.0
N229 N 0.18379 0.94084 0.24849 0.0
N230 N 0.0921 0.91755 0.1821 0.0
H231 H 0.17046 0.02746 0.23263 0.0
C232 C 0.16107 0.83511 0.42116 0.0
O233 O 0.15195 0.87435 0.38312 0.0
O234 O 0.28415 1.02571 0.2221 0.0
H235 H 0.19155 0.8508 0.25823 0.0
H236 H 0.49306 0.84105 0.39409 0.0
H237 H 0.10703 0.82987 0.19913 0.0
Zn238 Zn 0.95132 0.80858 0.70953 0.0
C239 C 0.79033 0.75428 0.70341 0.0
N240 N 0.80076 0.74304 0.75699 0.0
C241 C 0.858 0.74872 0.7608 0.0
N242 N 0.88187 0.76328 0.71212 0.0
N243 N 0.83925 0.76732 0.67595 0.0
C244 C 0.81153 0.89047 0.57046 0.0
O245 O 0.85342 0.90294 0.60489 0.0
O246 O 1.01663 0.78725 0.76325 0.0
Zn247 Zn 0.84777 0.77557 0.59706 0.0
N248 N 0.92646 0.88139 0.73763 0.0
C249 C 0.85289 0.94286 0.77018 0.0
C250 C 0.87071 0.89784 0.73653 0.0
C251 C 0.96505 0.90843 0.77036 0.0
N252 N 0.89159 0.96941 0.80368 0.0
C253 C 0.94751 0.95301 0.80533 0.0
O254 O 0.92874 0.79027 0.56809 0.0
C255 C 0.97918 0.80404 0.58358 0.0
O256 O 0.99078 0.81294 0.63444 0.0
H257 H 0.8399 0.87475 0.7118 0.0
H258 H 1.009 0.89473 0.76846 0.0
C259 C 0.81437 0.70023 0.51282 0.0
C260 C 0.80505 0.64731 0.48706 0.0
C261 C 0.81905 0.60041 0.57291 0.0
C262 C 0.82884 0.65334 0.59838 0.0
N263 N 0.82651 0.70212 0.56752 0.0
N264 N 0.80813 0.59841 0.51756 0.0
H265 H 0.81461 0.73971 0.48919 0.0
C266 C 0.05579 0.75004 0.7571 0.0
O267 O 0.0503 0.71161 0.71772 0.0
O268 O 0.79822 0.83808 0.56292 0.0
H269 H 0.83965 0.65526 0.64193 0.0
H270 H 0.80856 0.95616 0.77016 0.0
H271 H 0.82131 0.56119 0.59673 0.0
C272 C 0.11201 0.31546 0.89296 0.0
C273 C 0.1439 0.27716 0.92552 0.0
H274 H 0.10309 0.35475 0.8127 0.0
C275 C 0.18352 0.24085 0.90019 0.0
H276 H 0.08165 0.3442 0.91213 0.0
C277 C 0.19549 0.24679 0.84405 0.0
C278 C 0.16803 0.28908 0.81257 0.0
H279 H 0.20856 0.21118 0.92475 0.0
H280 H 0.22943 0.2213 0.82619 0.0
C281 C 0.12426 0.32159 0.83643 0.0
C282 C 0.38696 0.88623 0.09007 0.0
C283 C 0.34015 0.91242 0.06377 0.0
H284 H 0.4204 0.85246 0.166 0.0
C285 C 0.29517 0.9337 0.09582 0.0
H286 H 0.4225 0.86993 0.06606 0.0
C287 C 0.29379 0.92296 0.15257 0.0
C288 C 0.33807 0.89272 0.17843 0.0
H289 H 0.25833 0.95346 0.07636 0.0
H290 H 0.25556 0.93363 0.17462 0.0
C291 C 0.38587 0.87646 0.1471 0.0
C292 C 0.86088 0.80131 0.84863 0.0
C293 C 0.88491 0.75945 0.81439 0.0
H294 H 0.85153 0.83223 0.93134 0.0
C295 C 0.92646 0.72227 0.83548 0.0
H296 H 0.82856 0.83023 0.83284 0.0
C297 C 0.93969 0.72345 0.89204 0.0
C298 C 0.91079 0.7614 0.92725 0.0
H299 H 0.94496 0.6895 0.80942 0.0
H300 H 0.96801 0.69122 0.90895 0.0
C301 C 0.87398 0.8025 0.90474 0.0
C302 C 0.80818 0.18029 0.14376 0.0
C303 C 0.76249 0.16186 0.17718 0.0
H304 H 0.84205 0.18537 0.06163 0.0
C305 C 0.72106 0.12441 0.15554 0.0
H306 H 0.84064 0.20915 0.16001 0.0
C307 C 0.72223 0.11034 0.09916 0.0
C308 C 0.76451 0.13427 0.06463 0.0
H309 H 0.68527 0.11035 0.18079 0.0
H310 H 0.68718 0.08564 0.08166 0.0
C311 C 0.80917 0.16662 0.08776 0.0
C312 C 0.62508 0.28305 0.60117 0.0
C313 C 0.63635 0.2358 0.5673 0.0
H314 H 0.63444 0.31873 0.68184 0.0
C315 C 0.65296 0.18375 0.5916 0.0
H316 H 0.61288 0.32374 0.58316 0.0
C317 C 0.66406 0.18082 0.64828 0.0
C318 C 0.65827 0.22967 0.68136 0.0
H319 H 0.6615 0.14658 0.56613 0.0
H320 H 0.68133 0.14164 0.6655 0.0
C321 C 0.63678 0.28011 0.65785 0.0
C322 C 0.30874 0.39313 0.40127 0.0
C323 C 0.26367 0.42388 0.42484 0.0
H324 H 0.34076 0.35273 0.3284 0.0
C325 C 0.221 0.44724 0.39058 0.0
H326 H 0.34188 0.37475 0.42718 0.0
C327 C 0.22011 0.43436 0.33388 0.0
C328 C 0.2621 0.39847 0.31164 0.0
H329 H 0.18562 0.47068 0.40844 0.0
H330 H 0.18405 0.44784 0.30881 0.0
C331 C 0.308 0.3806 0.34498 0.0
C332 C 0.43887 0.83131 0.59531 0.0
C333 C 0.40898 0.79449 0.55929 0.0
H334 H 0.44521 0.86332 0.67861 0.0
C335 C 0.37158 0.75306 0.58097 0.0
H336 H 0.46778 0.86371 0.5791 0.0
C337 C 0.35878 0.75306 0.63711 0.0
C338 C 0.38374 0.79399 0.67221 0.0
H339 H 0.34852 0.72402 0.5538 0.0
H340 H 0.32599 0.72399 0.6523 0.0
C341 C 0.42597 0.83126 0.65189 0.0
C342 C 0.83613 0.61721 0.393 0.0
C343 C 0.79666 0.64574 0.42693 0.0
H344 H 0.87254 0.61161 0.31129 0.0
C345 C 0.75675 0.68302 0.40317 0.0
H346 H 0.86759 0.58868 0.41093 0.0
C347 C 0.76013 0.69645 0.34729 0.0
C348 C 0.80264 0.6719 0.31417 0.0
H349 H 0.72597 0.70532 0.42876 0.0
H350 H 0.7317 0.72877 0.33067 0.0
C351 C 0.83925 0.6305 0.33648 0.0
C352 C 0.46729 0.29917 0.93493 0.0
C353 C 0.52369 0.2874 0.95214 0.0
H354 H 0.37995 0.31222 0.95842 0.0
C355 C 0.53377 0.2775 0.00893 0.0
H356 H 0.4576 0.30667 0.8916 0.0
C357 C 0.48889 0.28072 0.04752 0.0
C358 C 0.43275 0.29366 0.0303 0.0
H359 H 0.57656 0.26823 0.02379 0.0
H360 H 0.49848 0.27412 0.091 0.0
C361 C 0.42252 0.30215 0.97338 0.0
C362 C 0.27944 0.51618 0.97572 0.0
C363 C 0.25984 0.53007 0.02911 0.0
H364 H 0.31046 0.54745 0.89769 0.0
C365 C 0.24904 0.58791 0.04151 0.0
H366 H 0.28833 0.47216 0.96472 0.0
C367 C 0.26119 0.63107 0.0028 0.0
C368 C 0.28524 0.61744 0.95112 0.0
H369 H 0.2337 0.60014 0.08214 0.0
H370 H 0.25503 0.6753 0.01477 0.0
C371 C 0.29241 0.55941 0.93733 0.0
C372 C 0.58449 0.75068 0.92895 0.0
C373 C 0.5266 0.74413 0.94437 0.0
H374 H 0.6726 0.75035 0.95497 0.0
C375 C 0.51395 0.73367 0.00053 0.0
H376 H 0.59583 0.75932 0.88621 0.0
C377 C 0.55803 0.72779 0.03977 0.0
C378 C 0.61588 0.73373 0.02425 0.0
H379 H 0.46994 0.72861 0.01399 0.0
H380 H 0.5468 0.71795 0.0823 0.0
C381 C 0.62852 0.74618 0.9685 0.0
C382 C 0.72614 0.48567 0.95523 0.0
C383 C 0.73669 0.42851 0.97024 0.0
H384 H 0.72602 0.57371 0.98037 0.0
C385 C 0.75726 0.41687 0.02388 0.0
H386 H 0.70993 0.49588 0.91429 0.0
C387 C 0.76483 0.46134 0.06239 0.0
C388 C 0.75347 0.5185 0.04756 0.0
H389 H 0.765 0.37316 0.03687 0.0
H390 H 0.77924 0.45093 0.10389 0.0
C391 C 0.73523 0.53022 0.99313 0.0
C392 C 0.92265 0.25074 0.51747 0.0
C393 C 0.93242 0.26216 0.46094 0.0
H394 H 0.95842 0.24295 0.59888 0.0
C395 C 0.98834 0.27677 0.44409 0.0
H396 H 0.88025 0.23921 0.5321 0.0
C397 C 0.03344 0.27891 0.48262 0.0
C398 C 1.02385 0.26618 0.53895 0.0
H399 H 0.99757 0.28558 0.40092 0.0
H400 H 0.07604 0.28968 0.46801 0.0
C401 C 0.96769 0.25259 0.55587 0.0
C402 C 0.25753 0.13982 0.46615 0.0
C403 C 0.2365 0.12773 0.51952 0.0
H404 H 0.28013 0.10645 0.38622 0.0
C405 C 0.22578 0.07033 0.5341 0.0
H406 H 0.26552 0.18366 0.45344 0.0
C407 C 0.23506 1.02607 0.49603 0.0
C408 C 0.25375 0.03824 0.44186 0.0
H409 H 0.20931 0.05969 0.57483 0.0
H410 H 0.22564 0.98242 0.50846 0.0
C411 C 0.26536 0.09563 0.4275 0.0
C412 C 0.05671 0.82747 0.44626 0.0
C413 C 0.1146 0.821 0.46139 0.0
H414 H 0.96881 0.82641 0.47242 0.0
C415 C 0.12747 0.80713 0.51679 0.0
H416 H 0.04532 0.83846 0.40403 0.0
C417 C 0.08365 0.80183 0.55642 0.0
C418 C 1.02575 0.80894 0.54139 0.0
H419 H 0.17159 0.80256 0.53005 0.0
H420 H 0.09517 0.79222 0.59894 0.0
C421 C 1.01284 0.82075 0.48553 0.0
C422 C 0.78246 0.03738 0.50988 0.0
C423 C 0.76308 1.02362 0.45623 0.0
H424 H 0.813 1.006 0.58802 0.0
C425 C 0.75252 0.96569 0.44338 0.0
H426 H 0.79103 0.08145 0.52132 0.0
C427 C 0.76441 0.92242 0.48199 0.0
C428 C 0.78801 0.93603 0.53403 0.0
H429 H 0.73734 0.95352 0.40257 0.0
H430 H 0.75834 0.87817 0.46977 0.0
C431 C 0.79525 0.99406 0.54812 0.0
C432 C 0.54403 0.43701 0.29193 0.0
C433 C 0.48741 0.45603 0.28727 0.0
H434 H 0.63023 0.46102 0.30802 0.0
C435 C 0.47173 0.5063 0.3156 0.0
H436 H 0.55687 0.39666 0.27378 0.0
C437 C 0.51411 0.54442 0.33288 0.0
C438 C 0.57173 0.53217 0.32161 0.0
H439 H 0.42806 0.52153 0.31598 0.0
H440 H 0.50102 0.58679 0.34579 0.0
C441 C 0.58627 0.47478 0.31056 0.0
C442 C 0.47922 0.50585 0.64839 0.0
C443 C 0.49006 0.56462 0.65434 0.0
H444 H 0.5147 0.42224 0.65378 0.0
C445 C 0.54695 0.58433 0.64894 0.0
H446 H 0.43587 0.48899 0.648 0.0
C447 C 0.5919 0.54631 0.65738 0.0
C448 C 0.57947 0.48837 0.66704 0.0
H449 H 0.55668 0.62957 0.64647 0.0
H450 H 0.63473 0.56341 0.66338 0.0
C451 C 0.52445 0.46759 0.65323 0.0
C452 C 0.97048 0.04586 0.17492 0.0
C453 C 0.98662 0.09783 0.20034 0.0
H454 H 0.99898 0.96357 0.14993 0.0
C455 C 0.04347 0.11661 0.19514 0.0
H456 H 0.92663 0.03063 0.17519 0.0
C457 C 0.08535 0.07785 0.17899 0.0
C458 C 0.07018 1.01995 0.17073 0.0
H459 H 0.05669 0.15795 0.21123 0.0
H460 H 0.12953 0.09161 0.18105 0.0
C461 C 1.01246 1.00672 0.16032 0.0
C462 C 1.02511 0.08523 0.84233 0.0
C463 C 0.08046 0.0656 0.82925 0.0
H464 H 0.93636 0.06289 0.84366 0.0
C465 C 0.09244 1.00737 0.83689 0.0
H466 H 1.01542 0.13049 0.84325 0.0
C467 C 0.04717 0.96857 0.84187 0.0
C468 C 0.99049 0.98803 0.83554 0.0
H469 H 0.13538 0.99091 0.83149 0.0
H470 H 0.05684 0.92337 0.8426 0.0
C471 C 0.97965 0.04638 0.84388 0.0
C472 C 0.35072 0.16784 0.22277 0.0
C473 C 0.31125 0.12418 0.21003 0.0
H474 H 0.36608 0.25802 0.22861 0.0
C475 C 0.26066 0.13911 0.18146 0.0
H476 H 0.39015 0.15808 0.24449 0.0
C477 C 0.24666 0.19697 0.17245 0.0
C478 C 0.28391 0.24069 0.19027 0.0
H479 H 0.22948 0.1065 0.17071 0.0
H480 H 0.20459 0.20741 0.15648 0.0
C481 C 0.33721 0.22526 0.21296 0.0
C482 C 0.19038 0.82847 0.80201 0.0
C483 C 0.23093 0.78431 0.80203 0.0
H484 H 0.10302 0.85204 0.78886 0.0
C485 C 0.21122 0.72743 0.79776 0.0
H486 H 0.20434 0.87279 0.80329 0.0
C487 C 0.15307 0.71548 0.7875 0.0
C488 C 0.11323 0.76016 0.78262 0.0
H489 H 0.24144 0.69252 0.7962 0.0
H490 H 0.14003 0.67166 0.77955 0.0
C491 C 0.13212 0.81648 0.79321 0.0
C492 C 0.83138 0.86286 0.18393 0.0
C493 C 0.78878 0.82014 0.18048 0.0
H494 H 0.85098 0.95121 0.19953 0.0
C495 C 0.73109 0.83709 0.18072 0.0
H496 H 0.87618 0.85095 0.1853 0.0
C497 C 0.71641 0.89449 0.19077 0.0
C498 C 0.75916 0.93637 0.19988 0.0
H499 H 0.69729 0.80507 0.17968 0.0
H500 H 0.6716 0.90516 0.19566 0.0
C501 C 0.81679 0.92042 0.19276 0.0
C502 C 0.91841 0.22211 0.78515 0.0
C503 C 0.9363 0.27971 0.78143 0.0
H504 H 0.84713 0.16372 0.79149 0.0
C505 C 0.89612 0.32255 0.79373 0.0
H506 H 0.94787 0.18791 0.77547 0.0
C507 C 0.83864 0.30835 0.80525 0.0
C508 C 0.8195 0.25113 0.80289 0.0
H509 H 0.90835 0.3673 0.79126 0.0
H510 H 0.80833 0.34271 0.81038 0.0
C511 C 0.86057 0.20809 0.79478 0.0
C512 C 0.83921 0.33487 0.27751 0.0
C513 C 0.786 0.31869 0.30028 0.0
H514 H 0.89164 0.40264 0.24503 0.0
C515 C 0.74879 0.36225 0.31764 0.0
H516 H 0.86811 0.30243 0.26206 0.0
C517 C 0.76266 0.42027 0.30831 0.0
C518 C 0.81294 0.43575 0.27948 0.0
H519 H 0.70669 0.35174 0.33339 0.0
H520 H 0.73141 0.45248 0.31882 0.0
C521 C 0.85243 0.39248 0.26703 0.0
C522 C 0.41967 0.328 0.70069 0.0
C523 C 0.4379 0.27058 0.70219 0.0
H524 H 0.3481 0.38531 0.69747 0.0
C525 C 0.39784 0.22761 0.68826 0.0
H526 H 0.44893 0.36235 0.71154 0.0
C527 C 0.34008 0.24125 0.67824 0.0
C528 C 0.32078 0.29799 0.68312 0.0
H529 H 0.41027 0.18299 0.68878 0.0
H530 H 0.30967 0.2066 0.67266 0.0
C531 C 0.36174 0.3414 0.692 0.0
C532 C 0.23801 0.72258 0.30508 0.0
C533 C 0.29599 0.73923 0.3043 0.0
H534 H 0.17707 0.65477 0.29095 0.0
C535 C 0.3378 0.69639 0.29954 0.0
H536 H 0.20476 0.75464 0.30756 0.0
C537 C 0.32208 0.63899 0.29071 0.0
C538 C 0.26403 0.62328 0.28483 0.0
H539 H 0.38279 0.70805 0.29785 0.0
H540 H 0.35561 0.60805 0.28334 0.0
C541 C 0.22217 0.6653 0.29485 0.0
C542 C 0.63194 0.73584 0.69515 0.0
C543 C 0.61393 0.79236 0.70498 0.0
H544 H 0.70335 0.6792 0.68527 0.0
C545 C 0.65443 0.83683 0.69963 0.0
H546 H 0.60233 0.70047 0.70012 0.0
C547 C 0.71234 0.8246 0.68934 0.0
C548 C 0.73117 0.76761 0.68559 0.0
H549 H 0.64207 0.88078 0.70713 0.0
H550 H 0.74308 0.85945 0.69041 0.0
C551 C 0.68999 0.72356 0.68626 0.0
loop_
_geom_bond_atom_site_label_1
_geom_bond_atom_site_label_2
_geom_bond_distance
_geom_bond_site_symmetry_2
_ccdc_geom_bond_type
Zn0 N4 2.020 . S
Zn0 O8 2.019 . S
Zn0 N10 2.119 . S
Zn0 O18 1.975 . S
C1 N2 1.334 . S
C1 N5 1.336 . S
N2 C1 1.334 . S
N2 C3 1.334 . S
C3 N2 1.334 . S
C3 N4 1.336 . S
N4 Zn0 2.020 . S
N4 C3 1.336 . S
N4 N5 1.354 . S
N5 C1 1.336 . S
N5 N4 1.354 . S
N5 Zn9 2.020 . S
C6 O7 1.244 . S
C6 O30 1.257 . S
O7 C6 1.244 . S
O8 Zn0 2.019 . S
O8 C28 1.257 . S
Zn9 N5 2.020 . S
Zn9 O16 1.975 . S
Zn9 N25 2.119 . S
Zn9 O30 2.019 . S
N10 Zn0 2.119 . S
N10 C12 1.334 . S
N10 C13 1.328 . S
C11 C12 1.391 . S
C11 N14 1.329 . S
C11 H32 0.930 . S
C12 N10 1.334 . S
C12 C11 1.391 . S
C12 H19 0.930 . S
C13 N10 1.328 . S
C13 C15 1.392 1_554 S
C13 H20 0.930 . S
N14 C11 1.329 . S
N14 C15 1.331 1_554 S
C15 C13 1.392 1_556 S
C15 N14 1.331 1_556 S
O16 Zn9 1.975 . S
O16 C17 1.252 . S
C17 O16 1.252 . S
C17 O18 1.252 . S
O18 Zn0 1.975 . S
O18 C17 1.252 . S
H19 C12 0.930 . S
H20 C13 0.930 . S
C21 C22 1.392 . S
C21 N25 1.328 . S
C21 H27 0.930 . S
C22 C21 1.392 . S
C22 N26 1.331 . S
C23 C24 1.391 . S
C23 N26 1.329 . S
C23 H33 0.930 . S
C24 C23 1.391 . S
C24 N25 1.334 . S
C24 H31 0.930 . S
N25 Zn9 2.119 . S
N25 C21 1.328 . S
N25 C24 1.334 . S
N26 C22 1.331 . S
N26 C23 1.329 . S
H27 C21 0.930 . S
C28 O8 1.257 . S
C28 O29 1.244 . S
O29 C28 1.244 . S
O30 C6 1.257 . S
O30 Zn9 2.019 . S
H31 C24 0.930 . S
H32 C11 0.930 . S
H33 C23 0.930 . S
Zn34 N38 2.020 . S
Zn34 O42 2.019 . S
Zn34 N44 2.119 . S
Zn34 O52 1.975 . S
C35 N36 1.334 . S
C35 N39 1.336 . S
N36 C35 1.334 . S
N36 C37 1.334 . S
C37 N36 1.334 . S
C37 N38 1.336 . S
N38 Zn34 2.020 . S
N38 C37 1.336 . S
N38 N39 1.354 . S
N39 C35 1.336 . S
N39 N38 1.354 . S
N39 Zn43 2.020 . S
C40 O41 1.244 . S
C40 O64 1.257 . S
O41 C40 1.244 . S
O42 Zn34 2.019 . S
O42 C62 1.257 . S
Zn43 N39 2.020 . S
Zn43 O50 1.975 . S
Zn43 N59 2.119 . S
Zn43 O64 2.019 . S
N44 Zn34 2.119 . S
N44 C46 1.334 . S
N44 C47 1.328 . S
C45 C46 1.391 . S
C45 N48 1.329 . S
C45 H66 0.930 . S
C46 N44 1.334 . S
C46 C45 1.391 . S
C46 H53 0.930 . S
C47 N44 1.328 . S
C47 C49 1.392 . S
C47 H54 0.930 . S
N48 C45 1.329 . S
N48 C49 1.331 . S
C49 C47 1.392 . S
C49 N48 1.331 . S
O50 Zn43 1.975 . S
O50 C51 1.252 . S
C51 O50 1.252 . S
C51 O52 1.252 . S
O52 Zn34 1.975 . S
O52 C51 1.252 . S
H53 C46 0.930 . S
H54 C47 0.930 . S
C55 C56 1.392 1_556 S
C55 N59 1.328 . S
C55 H61 0.930 . S
C56 C55 1.392 1_554 S
C56 N60 1.331 1_554 S
C57 C58 1.391 . S
C57 N60 1.329 . S
C57 H67 0.930 . S
C58 C57 1.391 . S
C58 N59 1.334 . S
C58 H65 0.930 . S
N59 Zn43 2.119 . S
N59 C55 1.328 . S
N59 C58 1.334 . S
N60 C56 1.331 1_556 S
N60 C57 1.329 . S
H61 C55 0.930 . S
C62 O42 1.257 . S
C62 O63 1.244 . S
O63 C62 1.244 . S
O64 C40 1.257 . S
O64 Zn43 2.019 . S
H65 C58 0.930 . S
H66 C45 0.930 . S
H67 C57 0.930 . S
Zn68 N72 2.020 . S
Zn68 O76 2.019 . S
Zn68 N78 2.119 . S
Zn68 O86 1.975 . S
C69 N70 1.334 . S
C69 N73 1.336 . S
N70 C69 1.334 . S
N70 C71 1.334 . S
C71 N70 1.334 . S
C71 N72 1.336 . S
N72 Zn68 2.020 . S
N72 C71 1.336 . S
N72 N73 1.354 . S
N73 C69 1.336 . S
N73 N72 1.354 . S
N73 Zn77 2.020 . S
C74 O75 1.244 . S
C74 O98 1.257 . S
O75 C74 1.244 . S
O76 Zn68 2.019 . S
O76 C96 1.257 . S
Zn77 N73 2.020 . S
Zn77 O84 1.975 . S
Zn77 N93 2.119 . S
Zn77 O98 2.019 . S
N78 Zn68 2.119 . S
N78 C80 1.334 . S
N78 C81 1.328 . S
C79 C80 1.391 . S
C79 N82 1.329 . S
C79 H100 0.930 . S
C80 N78 1.334 . S
C80 C79 1.391 . S
C80 H87 0.930 . S
C81 N78 1.328 . S
C81 C83 1.392 . S
C81 H88 0.930 . S
N82 C79 1.329 . S
N82 C83 1.331 . S
C83 C81 1.392 . S
C83 N82 1.331 . S
O84 Zn77 1.975 . S
O84 C85 1.252 . S
C85 O84 1.252 . S
C85 O86 1.252 . S
O86 Zn68 1.975 . S
O86 C85 1.252 . S
H87 C80 0.930 . S
H88 C81 0.930 . S
C89 C90 1.392 1_554 S
C89 N93 1.328 . S
C89 H95 0.930 . S
C90 C89 1.392 1_556 S
C90 N94 1.331 1_556 S
C91 C92 1.391 . S
C91 N94 1.329 . S
C91 H101 0.930 . S
C92 C91 1.391 . S
C92 N93 1.334 . S
C92 H99 0.930 . S
N93 Zn77 2.119 . S
N93 C89 1.328 . S
N93 C92 1.334 . S
N94 C90 1.331 1_554 S
N94 C91 1.329 . S
H95 C89 0.930 . S
C96 O76 1.257 . S
C96 O97 1.244 . S
O97 C96 1.244 . S
O98 C74 1.257 . S
O98 Zn77 2.019 . S
H99 C92 0.930 . S
H100 C79 0.930 . S
H101 C91 0.930 . S
Zn102 N106 2.020 . S
Zn102 O110 2.019 . S
Zn102 N112 2.119 . S
Zn102 O120 1.975 . S
C103 N104 1.334 . S
C103 N107 1.336 . S
N104 C103 1.334 . S
N104 C105 1.334 . S
C105 N104 1.334 . S
C105 N106 1.336 . S
N106 Zn102 2.020 . S
N106 C105 1.336 . S
N106 N107 1.354 . S
N107 C103 1.336 . S
N107 N106 1.354 . S
N107 Zn111 2.020 . S
C108 O109 1.244 . S
C108 O132 1.257 . S
O109 C108 1.244 . S
O110 Zn102 2.019 . S
O110 C130 1.257 . S
Zn111 N107 2.020 . S
Zn111 O118 1.975 . S
Zn111 N127 2.119 . S
Zn111 O132 2.019 . S
N112 Zn102 2.119 . S
N112 C114 1.334 . S
N112 C115 1.328 . S
C113 C114 1.391 . S
C113 N116 1.329 . S
C113 H134 0.930 . S
C114 N112 1.334 . S
C114 C113 1.391 . S
C114 H121 0.930 . S
C115 N112 1.328 . S
C115 C117 1.392 . S
C115 H122 0.930 . S
N116 C113 1.329 . S
N116 C117 1.331 . S
C117 C115 1.392 . S
C117 N116 1.331 . S
O118 Zn111 1.975 . S
O118 C119 1.252 . S
C119 O118 1.252 . S
C119 O120 1.252 . S
O120 Zn102 1.975 . S
O120 C119 1.252 . S
H121 C114 0.930 . S
H122 C115 0.930 . S
C123 C124 1.392 1_556 S
C123 N127 1.328 . S
C123 H129 0.930 . S
C124 C123 1.392 1_554 S
C124 N128 1.331 1_554 S
C125 C126 1.391 . S
C125 N128 1.329 . S
C125 H135 0.930 . S
C126 C125 1.391 . S
C126 N127 1.334 . S
C126 H133 0.930 . S
N127 Zn111 2.119 . S
N127 C123 1.328 . S
N127 C126 1.334 . S
N128 C124 1.331 1_556 S
N128 C125 1.329 . S
H129 C123 0.930 . S
C130 O110 1.257 . S
C130 O131 1.244 . S
O131 C130 1.244 . S
O132 C108 1.257 . S
O132 Zn111 2.019 . S
H133 C126 0.930 . S
H134 C113 0.930 . S
H135 C125 0.930 . S
Zn136 N140 2.020 . S
Zn136 O144 2.019 . S
Zn136 N146 2.119 . S
Zn136 O154 1.975 . S
C137 N138 1.334 . S
C137 N141 1.336 . S
N138 C137 1.334 . S
N138 C139 1.334 . S
C139 N138 1.334 . S
C139 N140 1.336 . S
N140 Zn136 2.020 . S
N140 C139 1.336 . S
N140 N141 1.354 . S
N141 C137 1.336 . S
N141 N140 1.354 . S
N141 Zn145 2.020 . S
C142 O143 1.244 . S
C142 O166 1.257 . S
O143 C142 1.244 . S
O144 Zn136 2.019 . S
O144 C164 1.257 . S
Zn145 N141 2.020 . S
Zn145 O152 1.975 . S
Zn145 N161 2.119 . S
Zn145 O166 2.019 1_545 S
N146 Zn136 2.119 . S
N146 C148 1.334 . S
N146 C149 1.328 . S
C147 C148 1.391 . S
C147 N150 1.329 . S
C147 H168 0.930 . S
C148 N146 1.334 . S
C148 C147 1.391 . S
C148 H155 0.930 . S
C149 N146 1.328 . S
C149 C151 1.392 . S
C149 H156 0.930 . S
N150 C147 1.329 . S
N150 C151 1.331 . S
C151 C149 1.392 . S
C151 N150 1.331 . S
O152 Zn145 1.975 . S
O152 C153 1.252 . S
C153 O152 1.252 . S
C153 O154 1.252 . S
O154 Zn136 1.975 . S
O154 C153 1.252 . S
H155 C148 0.930 . S
H156 C149 0.930 . S
C157 C158 1.392 . S
C157 N161 1.328 1_565 S
C157 H163 0.930 . S
C158 C157 1.392 . S
C158 N162 1.331 1_565 S
C159 C160 1.391 . S
C159 N162 1.329 . S
C159 H169 0.930 . S
C160 C159 1.391 . S
C160 N161 1.334 . S
C160 H167 0.930 . S
N161 Zn145 2.119 . S
N161 C157 1.328 1_545 S
N161 C160 1.334 . S
N162 C158 1.331 1_545 S
N162 C159 1.329 . S
H163 C157 0.930 . S
C164 O144 1.257 . S
C164 O165 1.244 . S
O165 C164 1.244 . S
O166 C142 1.257 . S
O166 Zn145 2.019 1_565 S
H167 C160 0.930 . S
H168 C147 0.930 . S
H169 C159 0.930 . S
Zn170 N174 2.020 . S
Zn170 O178 2.019 1_455 S
Zn170 N180 2.119 . S
Zn170 O188 1.975 . S
C171 N172 1.334 . S
C171 N175 1.336 . S
N172 C171 1.334 . S
N172 C173 1.334 . S
C173 N172 1.334 . S
C173 N174 1.336 . S
N174 Zn170 2.020 . S
N174 C173 1.336 . S
N174 N175 1.354 . S
N175 C171 1.336 . S
N175 N174 1.354 . S
N175 Zn179 2.020 . S
C176 O177 1.244 . S
C176 O200 1.257 . S
O177 C176 1.244 . S
O178 Zn170 2.019 1_655 S
O178 C198 1.257 . S
Zn179 N175 2.020 . S
Zn179 O186 1.975 . S
Zn179 N195 2.119 . S
Zn179 O200 2.019 . S
N180 Zn170 2.119 . S
N180 C182 1.334 . S
N180 C183 1.328 1_455 S
C181 C182 1.391 . S
C181 N184 1.329 . S
C181 H202 0.930 . S
C182 N180 1.334 . S
C182 C181 1.391 . S
C182 H189 0.930 . S
C183 N180 1.328 1_655 S
C183 C185 1.392 . S
C183 H190 0.930 . S
N184 C181 1.329 . S
N184 C185 1.331 1_455 S
C185 C183 1.392 . S
C185 N184 1.331 1_655 S
O186 Zn179 1.975 . S
O186 C187 1.252 . S
C187 O186 1.252 . S
C187 O188 1.252 . S
O188 Zn170 1.975 . S
O188 C187 1.252 . S
H189 C182 0.930 . S
H190 C183 0.930 . S
C191 C192 1.392 . S
C191 N195 1.328 . S
C191 H197 0.930 . S
C192 C191 1.392 . S
C192 N196 1.331 . S
C193 C194 1.391 . S
C193 N196 1.329 . S
C193 H203 0.930 . S
C194 C193 1.391 . S
C194 N195 1.334 . S
C194 H201 0.930 . S
N195 Zn179 2.119 . S
N195 C191 1.328 . S
N195 C194 1.334 . S
N196 C192 1.331 . S
N196 C193 1.329 . S
H197 C191 0.930 . S
C198 O178 1.257 . S
C198 O199 1.244 . S
O199 C198 1.244 . S
O200 C176 1.257 . S
O200 Zn179 2.019 . S
H201 C194 0.930 . S
H202 C181 0.930 . S
H203 C193 0.930 . S
Zn204 N208 2.020 . S
Zn204 O212 2.019 . S
Zn204 N214 2.119 . S
Zn204 O222 1.975 . S
C205 N206 1.334 . S
C205 N209 1.336 . S
N206 C205 1.334 . S
N206 C207 1.334 . S
C207 N206 1.334 . S
C207 N208 1.336 . S
N208 Zn204 2.020 . S
N208 C207 1.336 . S
N208 N209 1.354 . S
N209 C205 1.336 . S
N209 N208 1.354 . S
N209 Zn213 2.020 . S
C210 O211 1.244 . S
C210 O234 1.257 . S
O211 C210 1.244 . S
O212 Zn204 2.019 . S
O212 C232 1.257 . S
Zn213 N209 2.020 . S
Zn213 O220 1.975 . S
Zn213 N229 2.119 . S
Zn213 O234 2.019 1_565 S
N214 Zn204 2.119 . S
N214 C216 1.334 . S
N214 C217 1.328 . S
C215 C216 1.391 . S
C215 N218 1.329 . S
C215 H236 0.930 . S
C216 N214 1.334 . S
C216 C215 1.391 . S
C216 H223 0.930 . S
C217 N214 1.328 . S
C217 C219 1.392 . S
C217 H224 0.930 . S
N218 C215 1.329 . S
N218 C219 1.331 . S
C219 C217 1.392 . S
C219 N218 1.331 . S
O220 Zn213 1.975 . S
O220 C221 1.252 . S
C221 O220 1.252 . S
C221 O222 1.252 . S
O222 Zn204 1.975 . S
O222 C221 1.252 . S
H223 C216 0.930 . S
H224 C217 0.930 . S
C225 C226 1.392 . S
C225 N229 1.328 1_545 S
C225 H231 0.930 . S
C226 C225 1.392 . S
C226 N230 1.331 1_545 S
C227 C228 1.391 . S
C227 N230 1.329 . S
C227 H237 0.930 . S
C228 C227 1.391 . S
C228 N229 1.334 . S
C228 H235 0.930 . S
N229 Zn213 2.119 . S
N229 C225 1.328 1_565 S
N229 C228 1.334 . S
N230 C226 1.331 1_565 S
N230 C227 1.329 . S
H231 C225 0.930 . S
C232 O212 1.257 . S
C232 O233 1.244 . S
O233 C232 1.244 . S
O234 C210 1.257 . S
O234 Zn213 2.019 1_545 S
H235 C228 0.930 . S
H236 C215 0.930 . S
H237 C227 0.930 . S
Zn238 N242 2.020 . S
Zn238 O246 2.019 1_655 S
Zn238 N248 2.119 . S
Zn238 O256 1.975 . S
C239 N240 1.334 . S
C239 N243 1.336 . S
N240 C239 1.334 . S
N240 C241 1.334 . S
C241 N240 1.334 . S
C241 N242 1.336 . S
N242 Zn238 2.020 . S
N242 C241 1.336 . S
N242 N243 1.354 . S
N243 C239 1.336 . S
N243 N242 1.354 . S
N243 Zn247 2.020 . S
C244 O245 1.244 . S
C244 O268 1.257 . S
O245 C244 1.244 . S
O246 Zn238 2.019 1_455 S
O246 C266 1.257 . S
Zn247 N243 2.020 . S
Zn247 O254 1.975 . S
Zn247 N263 2.119 . S
Zn247 O268 2.019 . S
N248 Zn238 2.119 . S
N248 C250 1.334 . S
N248 C251 1.328 1_655 S
C249 C250 1.391 . S
C249 N252 1.329 . S
C249 H270 0.930 . S
C250 N248 1.334 . S
C250 C249 1.391 . S
C250 H257 0.930 . S
C251 N248 1.328 1_455 S
C251 C253 1.392 . S
C251 H258 0.930 . S
N252 C249 1.329 . S
N252 C253 1.331 1_655 S
C253 C251 1.392 . S
C253 N252 1.331 1_455 S
O254 Zn247 1.975 . S
O254 C255 1.252 . S
C255 O254 1.252 . S
C255 O256 1.252 . S
O256 Zn238 1.975 . S
O256 C255 1.252 . S
H257 C250 0.930 . S
H258 C251 0.930 . S
C259 C260 1.392 . S
C259 N263 1.328 . S
C259 H265 0.930 . S
C260 C259 1.392 . S
C260 N264 1.331 . S
C261 C262 1.391 . S
C261 N264 1.329 . S
C261 H271 0.930 . S
C262 C261 1.391 . S
C262 N263 1.334 . S
C262 H269 0.930 . S
N263 Zn247 2.119 . S
N263 C259 1.328 . S
N263 C262 1.334 . S
N264 C260 1.331 . S
N264 C261 1.329 . S
H265 C259 0.930 . S
C266 O246 1.257 . S
C266 O267 1.244 . S
O267 C266 1.244 . S
O268 C244 1.257 . S
O268 Zn247 2.019 . S
H269 C262 0.930 . S
H270 C249 0.930 . S
H271 C261 0.930 . S
C272 C273 1.387 . S
C272 H276 0.950 . S
C272 C281 1.390 . S
C273 C272 1.387 . S
C273 C275 1.387 . S
H274 C281 0.950 . S
C275 C273 1.387 . S
C275 C277 1.390 . S
C275 H279 0.950 . S
H276 C272 0.950 . S
C277 C275 1.390 . S
C277 C278 1.387 . S
C277 H280 0.950 . S
C278 C277 1.387 . S
C278 C281 1.387 . S
H279 C275 0.950 . S
H280 C277 0.950 . S
C281 C272 1.390 . S
C281 H274 0.950 . S
C281 C278 1.387 . S
C282 C283 1.387 . S
C282 H286 0.950 . S
C282 C291 1.390 . S
C283 C282 1.387 . S
C283 C285 1.387 . S
H284 C291 0.950 . S
C285 C283 1.387 . S
C285 C287 1.390 . S
C285 H289 0.950 . S
H286 C282 0.950 . S
C287 C285 1.390 . S
C287 C288 1.387 . S
C287 H290 0.950 . S
C288 C287 1.387 . S
C288 C291 1.387 . S
H289 C285 0.950 . S
H290 C287 0.950 . S
C291 C282 1.390 . S
C291 H284 0.950 . S
C291 C288 1.387 . S
C292 C293 1.387 . S
C292 H296 0.950 . S
C292 C301 1.390 . S
C293 C292 1.387 . S
C293 C295 1.387 . S
H294 C301 0.950 . S
C295 C293 1.387 . S
C295 C297 1.390 . S
C295 H299 0.950 . S
H296 C292 0.950 . S
C297 C295 1.390 . S
C297 C298 1.387 . S
C297 H300 0.950 . S
C298 C297 1.387 . S
C298 C301 1.387 . S
H299 C295 0.950 . S
H300 C297 0.950 . S
C301 C292 1.390 . S
C301 H294 0.950 . S
C301 C298 1.387 . S
C302 C303 1.387 . S
C302 H306 0.950 . S
C302 C311 1.390 . S
C303 C302 1.387 . S
C303 C305 1.387 . S
H304 C311 0.950 . S
C305 C303 1.387 . S
C305 C307 1.390 . S
C305 H309 0.950 . S
H306 C302 0.950 . S
C307 C305 1.390 . S
C307 C308 1.387 . S
C307 H310 0.950 . S
C308 C307 1.387 . S
C308 C311 1.387 . S
H309 C305 0.950 . S
H310 C307 0.950 . S
C311 C302 1.390 . S
C311 H304 0.950 . S
C311 C308 1.387 . S
C312 C313 1.387 . S
C312 H316 0.950 . S
C312 C321 1.390 . S
C313 C312 1.387 . S
C313 C315 1.387 . S
H314 C321 0.950 . S
C315 C313 1.387 . S
C315 C317 1.390 . S
C315 H319 0.950 . S
H316 C312 0.950 . S
C317 C315 1.390 . S
C317 C318 1.387 . S
C317 H320 0.950 . S
C318 C317 1.387 . S
C318 C321 1.387 . S
H319 C315 0.950 . S
H320 C317 0.950 . S
C321 C312 1.390 . S
C321 H314 0.950 . S
C321 C318 1.387 . S
C322 C323 1.387 . S
C322 H326 0.950 . S
C322 C331 1.390 . S
C323 C322 1.387 . S
C323 C325 1.387 . S
H324 C331 0.950 . S
C325 C323 1.387 . S
C325 C327 1.390 . S
C325 H329 0.950 . S
H326 C322 0.950 . S
C327 C325 1.390 . S
C327 C328 1.387 . S
C327 H330 0.950 . S
C328 C327 1.387 . S
C328 C331 1.387 . S
H329 C325 0.950 . S
H330 C327 0.950 . S
C331 C322 1.390 . S
C331 H324 0.950 . S
C331 C328 1.387 . S
C332 C333 1.387 . S
C332 H336 0.950 . S
C332 C341 1.390 . S
C333 C332 1.387 . S
C333 C335 1.387 . S
H334 C341 0.950 . S
C335 C333 1.387 . S
C335 C337 1.390 . S
C335 H339 0.950 . S
H336 C332 0.950 . S
C337 C335 1.390 . S
C337 C338 1.387 . S
C337 H340 0.950 . S
C338 C337 1.387 . S
C338 C341 1.387 . S
H339 C335 0.950 . S
H340 C337 0.950 . S
C341 C332 1.390 . S
C341 H334 0.950 . S
C341 C338 1.387 . S
C342 C343 1.387 . S
C342 H346 0.950 . S
C342 C351 1.390 . S
C343 C342 1.387 . S
C343 C345 1.387 . S
H344 C351 0.950 . S
C345 C343 1.387 . S
C345 C347 1.390 . S
C345 H349 0.950 . S
H346 C342 0.950 . S
C347 C345 1.390 . S
C347 C348 1.387 . S
C347 H350 0.950 . S
C348 C347 1.387 . S
C348 C351 1.387 . S
H349 C345 0.950 . S
H350 C347 0.950 . S
C351 C342 1.390 . S
C351 H344 0.950 . S
C351 C348 1.387 . S
C352 C353 1.387 . S
C352 H356 0.950 . S
C352 C361 1.390 . S
C353 C352 1.387 . S
C353 C355 1.387 . S
H354 C361 0.950 . S
C355 C353 1.387 . S
C355 C357 1.390 . S
C355 H359 0.950 . S
H356 C352 0.950 . S
C357 C355 1.390 . S
C357 C358 1.387 1_556 S
C357 H360 0.950 1_556 S
C358 C357 1.387 1_554 S
C358 C361 1.387 1_554 S
H359 C355 0.950 . S
H360 C357 0.950 1_554 S
C361 C352 1.390 . S
C361 H354 0.950 . S
C361 C358 1.387 1_556 S
C362 C363 1.387 . S
C362 H366 0.950 . S
C362 C371 1.390 1_554 S
C363 C362 1.387 . S
C363 C365 1.387 . S
H364 C371 0.950 . S
C365 C363 1.387 . S
C365 C367 1.390 . S
C365 H369 0.950 . S
H366 C362 0.950 . S
C367 C365 1.390 . S
C367 C368 1.387 1_554 S
C367 H370 0.950 . S
C368 C367 1.387 1_556 S
C368 C371 1.387 . S
H369 C365 0.950 . S
H370 C367 0.950 . S
C371 C362 1.390 1_556 S
C371 H364 0.950 . S
C371 C368 1.387 . S
C372 C373 1.387 . S
C372 H376 0.950 . S
C372 C381 1.390 . S
C373 C372 1.387 . S
C373 C375 1.387 . S
H374 C381 0.950 . S
C375 C373 1.387 . S
C375 C377 1.390 . S
C375 H379 0.950 . S
H376 C372 0.950 . S
C377 C375 1.390 . S
C377 C378 1.387 1_556 S
C377 H380 0.950 1_556 S
C378 C377 1.387 1_554 S
C378 C381 1.387 1_554 S
H379 C375 0.950 . S
H380 C377 0.950 1_554 S
C381 C372 1.390 . S
C381 H374 0.950 . S
C381 C378 1.387 1_556 S
C382 C383 1.387 . S
C382 H386 0.950 . S
C382 C391 1.390 . S
C383 C382 1.387 . S
C383 C385 1.387 1_556 S
H384 C391 0.950 . S
C385 C383 1.387 1_554 S
C385 C387 1.390 . S
C385 H389 0.950 . S
H386 C382 0.950 . S
C387 C385 1.390 . S
C387 C388 1.387 . S
C387 H390 0.950 . S
C388 C387 1.387 . S
C388 C391 1.387 1_554 S
H389 C385 0.950 . S
H390 C387 0.950 . S
C391 C382 1.390 . S
C391 H384 0.950 . S
C391 C388 1.387 1_556 S
C392 C393 1.387 . S
C392 H396 0.950 . S
C392 C401 1.390 . S
C393 C392 1.387 . S
C393 C395 1.387 . S
H394 C401 0.950 . S
C395 C393 1.387 . S
C395 C397 1.390 . S
C395 H399 0.950 . S
H396 C392 0.950 . S
C397 C395 1.390 . S
C397 C398 1.387 . S
C397 H400 0.950 . S
C398 C397 1.387 . S
C398 C401 1.387 . S
H399 C395 0.950 . S
H400 C397 0.950 . S
C401 C392 1.390 . S
C401 H394 0.950 . S
C401 C398 1.387 . S
C402 C403 1.387 . S
C402 H406 0.950 . S
C402 C411 1.390 . S
C403 C402 1.387 . S
C403 C405 1.387 . S
H404 C411 0.950 . S
C405 C403 1.387 . S
C405 C407 1.390 . S
C405 H409 0.950 . S
H406 C402 0.950 . S
C407 C405 1.390 . S
C407 C408 1.387 . S
C407 H410 0.950 . S
C408 C407 1.387 . S
C408 C411 1.387 . S
H409 C405 0.950 . S
H410 C407 0.950 . S
C411 C402 1.390 . S
C411 H404 0.950 . S
C411 C408 1.387 . S
C412 C413 1.387 . S
C412 H416 0.950 . S
C412 C421 1.390 . S
C413 C412 1.387 . S
C413 C415 1.387 . S
H414 C421 0.950 . S
C415 C413 1.387 . S
C415 C417 1.390 . S
C415 H419 0.950 . S
H416 C412 0.950 . S
C417 C415 1.390 . S
C417 C418 1.387 . S
C417 H420 0.950 . S
C418 C417 1.387 . S
C418 C421 1.387 . S
H419 C415 0.950 . S
H420 C417 0.950 . S
C421 C412 1.390 . S
C421 H414 0.950 . S
C421 C418 1.387 . S
C422 C423 1.387 . S
C422 H426 0.950 . S
C422 C431 1.390 . S
C423 C422 1.387 . S
C423 C425 1.387 . S
H424 C431 0.950 . S
C425 C423 1.387 . S
C425 C427 1.390 . S
C425 H429 0.950 . S
H426 C422 0.950 . S
C427 C425 1.390 . S
C427 C428 1.387 . S
C427 H430 0.950 . S
C428 C427 1.387 . S
C428 C431 1.387 . S
H429 C425 0.950 . S
H430 C427 0.950 . S
C431 C422 1.390 . S
C431 H424 0.950 . S
C431 C428 1.387 . S
C432 C433 1.387 . S
C432 H436 0.950 . S
C432 C441 1.390 . S
C433 C432 1.387 . S
C433 C435 1.387 . S
H434 C441 0.950 . S
C435 C433 1.387 . S
C435 C437 1.390 . S
C435 H439 0.950 . S
H436 C432 0.950 . S
C437 C435 1.390 . S
C437 C438 1.387 . S
C437 H440 0.950 . S
C438 C437 1.387 . S
C438 C441 1.387 . S
H439 C435 0.950 . S
H440 C437 0.950 . S
C441 C432 1.390 . S
C441 H434 0.950 . S
C441 C438 1.387 . S
C442 C443 1.387 . S
C442 H446 0.950 . S
C442 C451 1.390 . S
C443 C442 1.387 . S
C443 C445 1.387 . S
H444 C451 0.950 . S
C445 C443 1.387 . S
C445 C447 1.390 . S
C445 H449 0.950 . S
H446 C442 0.950 . S
C447 C445 1.390 . S
C447 C448 1.387 . S
C447 H450 0.950 . S
C448 C447 1.387 . S
C448 C451 1.387 . S
H449 C445 0.950 . S
H450 C447 0.950 . S
C451 C442 1.390 . S
C451 H444 0.950 . S
C451 C448 1.387 . S
C452 C453 1.387 . S
C452 H456 0.950 . S
C452 C461 1.390 1_665 S
C453 C452 1.387 . S
C453 C455 1.387 . S
H454 C461 0.950 . S
C455 C453 1.387 . S
C455 C457 1.390 1_665 S
C455 H459 0.950 . S
H456 C452 0.950 . S
C457 C455 1.390 1_445 S
C457 C458 1.387 . S
C457 H460 0.950 . S
C458 C457 1.387 . S
C458 C461 1.387 . S
H459 C455 0.950 . S
H460 C457 0.950 . S
C461 C452 1.390 1_445 S
C461 H454 0.950 . S
C461 C458 1.387 . S
C462 C463 1.387 . S
C462 H466 0.950 . S
C462 C471 1.390 1_645 S
C463 C462 1.387 . S
C463 C465 1.387 . S
H464 C471 0.950 . S
C465 C463 1.387 . S
C465 C467 1.390 1_645 S
C465 H469 0.950 . S
H466 C462 0.950 . S
C467 C465 1.390 1_465 S
C467 C468 1.387 . S
C467 H470 0.950 . S
C468 C467 1.387 . S
C468 C471 1.387 . S
H469 C465 0.950 . S
H470 C467 0.950 . S
C471 C462 1.390 1_465 S
C471 H464 0.950 . S
C471 C468 1.387 . S
C472 C473 1.387 . S
C472 H476 0.950 . S
C472 C481 1.390 . S
C473 C472 1.387 . S
C473 C475 1.387 . S
H474 C481 0.950 . S
C475 C473 1.387 . S
C475 C477 1.390 . S
C475 H479 0.950 . S
H476 C472 0.950 . S
C477 C475 1.390 . S
C477 C478 1.387 . S
C477 H480 0.950 . S
C478 C477 1.387 . S
C478 C481 1.387 . S
H479 C475 0.950 . S
H480 C477 0.950 . S
C481 C472 1.390 . S
C481 H474 0.950 . S
C481 C478 1.387 . S
C482 C483 1.387 . S
C482 H486 0.950 . S
C482 C491 1.390 . S
C483 C482 1.387 . S
C483 C485 1.387 . S
H484 C491 0.950 . S
C485 C483 1.387 . S
C485 C487 1.390 . S
C485 H489 0.950 . S
H486 C482 0.950 . S
C487 C485 1.390 . S
C487 C488 1.387 . S
C487 H490 0.950 . S
C488 C487 1.387 . S
C488 C491 1.387 . S
H489 C485 0.950 . S
H490 C487 0.950 . S
C491 C482 1.390 . S
C491 H484 0.950 . S
C491 C488 1.387 . S
C492 C493 1.387 . S
C492 H496 0.950 . S
C492 C501 1.390 . S
C493 C492 1.387 . S
C493 C495 1.387 . S
H494 C501 0.950 . S
C495 C493 1.387 . S
C495 C497 1.390 . S
C495 H499 0.950 . S
H496 C492 0.950 . S
C497 C495 1.390 . S
C497 C498 1.387 . S
C497 H500 0.950 . S
C498 C497 1.387 . S
C498 C501 1.387 . S
H499 C495 0.950 . S
H500 C497 0.950 . S
C501 C492 1.390 . S
C501 H494 0.950 . S
C501 C498 1.387 . S
C502 C503 1.387 . S
C502 H506 0.950 . S
C502 C511 1.390 . S
C503 C502 1.387 . S
C503 C505 1.387 . S
H504 C511 0.950 . S
C505 C503 1.387 . S
C505 C507 1.390 . S
C505 H509 0.950 . S
H506 C502 0.950 . S
C507 C505 1.390 . S
C507 C508 1.387 . S
C507 H510 0.950 . S
C508 C507 1.387 . S
C508 C511 1.387 . S
H509 C505 0.950 . S
H510 C507 0.950 . S
C511 C502 1.390 . S
C511 H504 0.950 . S
C511 C508 1.387 . S
C512 C513 1.387 . S
C512 H516 0.950 . S
C512 C521 1.390 . S
C513 C512 1.387 . S
C513 C515 1.387 . S
H514 C521 0.950 . S
C515 C513 1.387 . S
C515 C517 1.390 . S
C515 H519 0.950 . S
H516 C512 0.950 . S
C517 C515 1.390 . S
C517 C518 1.387 . S
C517 H520 0.950 . S
C518 C517 1.387 . S
C518 C521 1.387 . S
H519 C515 0.950 . S
H520 C517 0.950 . S
C521 C512 1.390 . S
C521 H514 0.950 . S
C521 C518 1.387 . S
C522 C523 1.387 . S
C522 H526 0.950 . S
C522 C531 1.390 . S
C523 C522 1.387 . S
C523 C525 1.387 . S
H524 C531 0.950 . S
C525 C523 1.387 . S
C525 C527 1.390 . S
C525 H529 0.950 . S
H526 C522 0.950 . S
C527 C525 1.390 . S
C527 C528 1.387 . S
C527 H530 0.950 . S
C528 C527 1.387 . S
C528 C531 1.387 . S
H529 C525 0.950 . S
H530 C527 0.950 . S
C531 C522 1.390 . S
C531 H524 0.950 . S
C531 C528 1.387 . S
C532 C533 1.387 . S
C532 H536 0.950 . S
C532 C541 1.390 . S
C533 C532 1.387 . S
C533 C535 1.387 . S
H534 C541 0.950 . S
C535 C533 1.387 . S
C535 C537 1.390 . S
C535 H539 0.950 . S
H536 C532 0.950 . S
C537 C535 1.390 . S
C537 C538 1.387 . S
C537 H540 0.950 . S
C538 C537 1.387 . S
C538 C541 1.387 . S
H539 C535 0.950 . S
H540 C537 0.950 . S
C541 C532 1.390 . S
C541 H534 0.950 . S
C541 C538 1.387 . S
C542 C543 1.387 . S
C542 H546 0.950 . S
C542 C551 1.390 . S
C543 C542 1.387 . S
C543 C545 1.387 . S
H544 C551 0.950 . S
C545 C543 1.387 . S
C545 C547 1.390 . S
C545 H549 0.950 . S
H546 C542 0.950 . S
C547 C545 1.390 . S
C547 C548 1.387 . S
C547 H550 0.950 . S
C548 C547 1.387 . S
C548 C551 1.387 . S
H549 C545 0.950 . S
H550 C547 0.950 . S
C551 C542 1.390 . S
C551 H544 0.950 . S
C551 C548 1.387 . S
C273 C15 1.612 . S
C278 C173 1.621 . S
C283 C56 1.612 . S
C288 C205 1.622 . S
C293 C241 1.623 . S
C298 C90 1.610 . S
C303 C137 1.622 . S
C308 C124 1.612 . S
C313 C151 1.611 . S
C318 C105 1.622 . S
C323 C192 1.612 . S
C328 C1 1.621 . S
C333 C219 1.612 . S
C338 C37 1.621 . S
C343 C260 1.610 . S
C348 C71 1.623 . S
C353 C119 1.577 . S
C358 C28 1.480 . S
C363 C17 1.576 . S
C368 C40 1.479 . S
C373 C51 1.576 . S
C378 C74 1.478 . S
C383 C108 1.480 . S
C388 C85 1.577 . S
C393 C164 1.480 . S
C398 C187 1.577 1_655 S
C403 C176 1.477 . S
C408 C221 1.575 1_545 S
C413 C232 1.478 . S
C418 C255 1.576 1_455 S
C423 C153 1.577 1_565 S
C428 C244 1.480 . S
C433 C22 0.943 . S
C438 C83 0.943 . S
C443 C49 0.950 . S
C448 C117 0.950 . S
C453 C158 0.950 . S
C458 C226 0.950 . S
C463 C185 0.950 . S
C468 C253 0.950 . S
C473 C210 2.007 . S
C478 C3 2.019 . S
C483 C35 2.021 . S
C488 C266 2.010 . S
C493 C69 2.021 . S
C498 C142 2.010 . S
C503 C198 2.007 . S
C508 C103 2.019 . S
C513 C139 2.020 . S
C518 C96 2.007 . S
C523 C130 2.007 . S
C528 C171 2.020 . S
C533 C207 2.019 . S
C538 C6 2.007 . S
C543 C62 2.010 . S
C548 C239 2.022 . S
