# Generated by pormake.
# Topology whw, (6)-cn, num edge types: 1
# Building blocks:
#     Node 0, Type 0, BuildingBlock: CUKXOW_clean_sbu_0, # of connection points: 6
#     Node 1, Type 0, BuildingBlock: CUKXOW_clean_sbu_0, # of connection points: 6
#     Node 2, Type 0, BuildingBlock: CUKXOW_clean_sbu_0, # of connection points: 6
#     Node 3, Type 0, BuildingBlock: CUKXOW_clean_sbu_0, # of connection points: 6
#     Node 4, Type 0, BuildingBlock: CUKXOW_clean_sbu_0, # of connection points: 6
#     Node 5, Type 0, BuildingBlock: CUKXOW_clean_sbu_0, # of connection points: 6
#     Node 6, Type 0, BuildingBlock: CUKXOW_clean_sbu_0, # of connection points: 6
#     Node 7, Type 0, BuildingBlock: CUKXOW_clean_sbu_0, # of connection points: 6
#     Node 8, Type 0, BuildingBlock: CUKXOW_clean_sbu_0, # of connection points: 6
#     Node 9, Type 0, BuildingBlock: CUKXOW_clean_sbu_0, # of connection points: 6
#     Node 10, Type 0, BuildingBlock: CUKXOW_clean_sbu_0, # of connection points: 6
#     Node 11, Type 0, BuildingBlock: CUKXOW_clean_sbu_0, # of connection points: 6
#     Node 12, Type 0, BuildingBlock: CUKXOW_clean_sbu_0, # of connection points: 6
#     Node 13, Type 0, BuildingBlock: CUKXOW_clean_sbu_0, # of connection points: 6
#     Node 14, Type 0, BuildingBlock: CUKXOW_clean_sbu_0, # of connection points: 6
#     Node 15, Type 0, BuildingBlock: CUKXOW_clean_sbu_0, # of connection points: 6
#     Edge 16, Type (0, 0), BuildingBlock: XIVTED_clean_linker_0, # of connection points: 2
#     Edge 17, Type (0, 0), BuildingBlock: XIVTED_clean_linker_0, # of connection points: 2
#     Edge 18, Type (0, 0), BuildingBlock: XIVTED_clean_linker_0, # of connection points: 2
#     Edge 19, Type (0, 0), BuildingBlock: XIVTED_clean_linker_0, # of connection points: 2
#     Edge 20, Type (0, 0), BuildingBlock: XIVTED_clean_linker_0, # of connection points: 2
#     Edge 21, Type (0, 0), BuildingBlock: XIVTED_clean_linker_0, # of connection points: 2
#     Edge 22, Type (0, 0), BuildingBlock: XIVTED_clean_linker_0, # of connection points: 2
#     Edge 23, Type (0, 0), BuildingBlock: XIVTED_clean_linker_0, # of connection points: 2
#     Edge 24, Type (0, 0), BuildingBlock: XIVTED_clean_linker_0, # of connection points: 2
#     Edge 25, Type (0, 0), BuildingBlock: XIVTED_clean_linker_0, # of connection points: 2
#     Edge 26, Type (0, 0), BuildingBlock: XIVTED_clean_linker_0, # of connection points: 2
#     Edge 27, Type (0, 0), BuildingBlock: XIVTED_clean_linker_0, # of connection points: 2
#     Edge 28, Type (0, 0), BuildingBlock: XIVTED_clean_linker_0, # of connection points: 2
#     Edge 29, Type (0, 0), BuildingBlock: XIVTED_clean_linker_0, # of connection points: 2
#     Edge 30, Type (0, 0), BuildingBlock: XIVTED_clean_linker_0, # of connection points: 2
#     Edge 31, Type (0, 0), BuildingBlock: XIVTED_clean_linker_0, # of connection points: 2
#     Edge 32, Type (0, 0), BuildingBlock: XIVTED_clean_linker_0, # of connection points: 2
#     Edge 33, Type (0, 0), BuildingBlock: XIVTED_clean_linker_0, # of connection points: 2
#     Edge 34, Type (0, 0), BuildingBlock: XIVTED_clean_linker_0, # of connection points: 2
#     Edge 35, Type (0, 0), BuildingBlock: XIVTED_clean_linker_0, # of connection points: 2
#     Edge 36, Type (0, 0), BuildingBlock: XIVTED_clean_linker_0, # of connection points: 2
#     Edge 37, Type (0, 0), BuildingBlock: XIVTED_clean_linker_0, # of connection points: 2
#     Edge 38, Type (0, 0), BuildingBlock: XIVTED_clean_linker_0, # of connection points: 2
#     Edge 39, Type (0, 0), BuildingBlock: XIVTED_clean_linker_0, # of connection points: 2
#     Edge 40, Type (0, 0), BuildingBlock: XIVTED_clean_linker_0, # of connection points: 2
#     Edge 41, Type (0, 0), BuildingBlock: XIVTED_clean_linker_0, # of connection points: 2
#     Edge 42, Type (0, 0), BuildingBlock: XIVTED_clean_linker_0, # of connection points: 2
#     Edge 43, Type (0, 0), BuildingBlock: XIVTED_clean_linker_0, # of connection points: 2
#     Edge 44, Type (0, 0), BuildingBlock: XIVTED_clean_linker_0, # of connection points: 2
#     Edge 45, Type (0, 0), BuildingBlock: XIVTED_clean_linker_0, # of connection points: 2
#     Edge 46, Type (0, 0), BuildingBlock: XIVTED_clean_linker_0, # of connection points: 2
#     Edge 47, Type (0, 0), BuildingBlock: XIVTED_clean_linker_0, # of connection points: 2
#     Edge 48, Type (0, 0), BuildingBlock: XIVTED_clean_linker_0, # of connection points: 2
#     Edge 49, Type (0, 0), BuildingBlock: XIVTED_clean_linker_0, # of connection points: 2
#     Edge 50, Type (0, 0), BuildingBlock: XIVTED_clean_linker_0, # of connection points: 2
#     Edge 51, Type (0, 0), BuildingBlock: XIVTED_clean_linker_0, # of connection points: 2
#     Edge 52, Type (0, 0), BuildingBlock: XIVTED_clean_linker_0, # of connection points: 2
#     Edge 53, Type (0, 0), BuildingBlock: XIVTED_clean_linker_0, # of connection points: 2
#     Edge 54, Type (0, 0), BuildingBlock: XIVTED_clean_linker_0, # of connection points: 2
#     Edge 55, Type (0, 0), BuildingBlock: XIVTED_clean_linker_0, # of connection points: 2
#     Edge 56, Type (0, 0), BuildingBlock: XIVTED_clean_linker_0, # of connection points: 2
#     Edge 57, Type (0, 0), BuildingBlock: XIVTED_clean_linker_0, # of connection points: 2
#     Edge 58, Type (0, 0), BuildingBlock: XIVTED_clean_linker_0, # of connection points: 2
#     Edge 59, Type (0, 0), BuildingBlock: XIVTED_clean_linker_0, # of connection points: 2
#     Edge 60, Type (0, 0), BuildingBlock: XIVTED_clean_linker_0, # of connection points: 2
#     Edge 61, Type (0, 0), BuildingBlock: XIVTED_clean_linker_0, # of connection points: 2
#     Edge 62, Type (0, 0), BuildingBlock: XIVTED_clean_linker_0, # of connection points: 2
#     Edge 63, Type (0, 0), BuildingBlock: XIVTED_clean_linker_0, # of connection points: 2
# Relax obj value: 0.278
# Max RMSD: 0.179
# Mean RMSD: 0.173
data_MOF--net-whw--node1-CUKXOW_clean_sbu_0--edge1-XIVTED_clean_linker_0
_symmetry_space_group_name_H-M    P1
_symmetry_Int_Tables_number       1
_symmetry_cell_setting            triclinic
loop_
_symmetry_equiv_pos_as_xyz
'x, y, z'
_cell_length_a     46.952689
_cell_length_b     47.435429
_cell_length_c     26.854639
_cell_angle_alpha  93.077722
_cell_angle_beta   90.073408
_cell_angle_gamma 90.013183
loop_
_atom_site_label
_atom_site_type_symbol
_atom_site_fract_x
_atom_site_fract_y
_atom_site_fract_z
_atom_type_partial_charge
Tb0 Tb 0.99488 0.09683 0.22418 0.0
C1 C 0.04133 0.08575 0.14775 0.0
Tb2 Tb 0.01508 0.147 0.17781 0.0
O3 O 0.98061 0.07842 0.15026 0.0
O4 O 0.97947 0.12145 0.16616 0.0
O5 O 0.03128 0.07618 0.18964 0.0
C6 C 0.03519 0.18363 0.11459 0.0
O7 O 0.03527 0.11165 0.13435 0.0
C8 C 0.03198 0.14764 0.271 0.0
C9 C 0.96198 0.1526 0.24667 0.0
O10 O 0.05041 0.16764 0.14168 0.0
O11 O 0.0085 0.17938 0.12378 0.0
O12 O 0.02551 0.1695 0.2465 0.0
O13 O 0.03057 0.12543 0.24145 0.0
O14 O 0.97415 0.16243 0.20642 0.0
O15 O 0.97094 0.12933 0.26566 0.0
C16 C 0.96958 0.06485 0.29053 0.0
O17 O 0.95892 0.07223 0.24874 0.0
O18 O 0.99601 0.07309 0.29202 0.0
C19 C 0.97554 0.10275 0.13204 0.0
Tb20 Tb 0.13384 0.70325 0.43139 0.0
C21 C 0.17523 0.74024 0.36842 0.0
Tb22 Tb 0.10823 0.7484 0.37367 0.0
O23 O 0.11239 0.67251 0.37779 0.0
O24 O 0.12797 0.71007 0.35462 0.0
O25 O 0.17354 0.72107 0.40286 0.0
C26 C 0.08168 0.77126 0.29926 0.0
O27 O 0.15231 0.75238 0.35018 0.0
C28 C 0.11177 0.77109 0.46458 0.0
C29 C 0.07013 0.7154 0.44496 0.0
O30 O 0.103 0.78249 0.32386 0.0
O31 O 0.07531 0.74701 0.31634 0.0
O32 O 0.10309 0.78384 0.42599 0.0
O33 O 0.11987 0.746 0.45103 0.0
O34 O 0.0718 0.72438 0.39922 0.0
O35 O 0.0935 0.70884 0.46876 0.0
C36 C 0.15623 0.66845 0.49654 0.0
O37 O 0.13992 0.66119 0.45912 0.0
O38 O 0.16102 0.6954 0.49587 0.0
C39 C 0.11481 0.68826 0.34006 0.0
Tb40 Tb 0.54652 0.86163 0.67855 0.0
C41 C 0.51208 0.9074 0.62547 0.0
Tb42 Tb 0.49718 0.84154 0.61884 0.0
O43 O 0.57013 0.86628 0.60788 0.0
O44 O 0.54116 0.83386 0.61426 0.0
O45 O 0.53348 0.90288 0.65617 0.0
C46 C 0.4748 0.82953 0.52965 0.0
O47 O 0.49509 0.8869 0.60777 0.0
C48 C 0.48074 0.84798 0.71056 0.0
C49 C 0.52365 0.80077 0.69144 0.0
O50 O 0.49675 0.84542 0.53881 0.0
O51 O 0.46488 0.82045 0.57109 0.0
O52 O 0.46625 0.83458 0.67521 0.0
O53 O 0.50073 0.8628 0.69125 0.0
O54 O 0.51042 0.80159 0.64786 0.0
O55 O 0.53781 0.82251 0.71106 0.0
C56 C 0.58498 0.8701 0.7518 0.0
O57 O 0.5878 0.8531 0.71272 0.0
O58 O 0.56088 0.88326 0.74845 0.0
C59 C 0.55775 0.84502 0.58424 0.0
Tb60 Tb 0.4166 0.3005 0.86081 0.0
C61 C 0.44729 0.31846 0.96127 0.0
Tb62 Tb 0.41192 0.26052 0.95282 0.0
O63 O 0.39358 0.33542 0.90008 0.0
O64 O 0.38967 0.29459 0.9222 0.0
O65 O 0.44622 0.32163 0.91239 0.0
C66 C 0.42305 0.2331 0.0365 0.0
O67 O 0.43482 0.29746 0.98374 0.0
C68 C 0.44028 0.24203 0.87431 0.0
C69 C 0.36912 0.25185 0.86299 0.0
O70 O 0.44037 0.23694 0.99998 0.0
O71 O 0.39858 0.24471 1.02597 0.0
O72 O 0.42596 0.22585 0.90249 0.0
O73 O 0.43916 0.26709 0.89204 0.0
O74 O 0.37263 0.24869 0.91204 0.0
O75 O 0.38654 0.2673 0.83609 0.0
C76 C 0.43524 0.31664 0.77064 0.0
O77 O 0.40916 0.31882 0.78729 0.0
O78 O 0.45051 0.30589 0.80523 0.0
C79 C 0.38385 0.31992 0.93525 0.0
Tb80 Tb 0.99033 0.90412 0.82739 0.0
C81 C 0.03983 0.93235 0.89091 0.0
Tb82 Tb 0.02501 0.86608 0.8879 0.0
O83 O 0.95496 0.89791 0.88182 0.0
O84 O 0.9965 0.89846 0.90449 0.0
O85 O 0.02056 0.93629 0.85547 0.0
C86 C 0.03875 0.83672 0.96508 0.0
O87 O 0.04432 0.90713 0.90908 0.0
C88 C 0.04455 0.85678 0.79739 0.0
C89 C 0.97283 0.84349 0.82476 0.0
O90 O 0.05562 0.854 0.94358 0.0
O91 O 0.01422 0.83582 0.94294 0.0
O92 O 0.05446 0.84577 0.83686 0.0
O93 O 0.02453 0.87424 0.80971 0.0
O94 O 0.98651 0.84184 0.86766 0.0
O95 O 0.97771 0.86396 0.79543 0.0
C96 C 0.96159 0.92891 0.75541 0.0
O97 O 0.95151 0.92219 0.79806 0.0
O98 O 0.98893 0.92451 0.75604 0.0
C99 C 0.97168 0.89507 0.91967 0.0
Tb100 Tb 0.40732 0.68921 0.20347 0.0
C101 C 0.43835 0.66875 0.10422 0.0
Tb102 Tb 0.40587 0.72801 0.10805 0.0
O103 O 0.38356 0.65416 0.16726 0.0
O104 O 0.38313 0.69362 0.1379 0.0
O105 O 0.43744 0.66707 0.15361 0.0
C106 C 0.41892 0.75457 1.02336 0.0
O107 O 0.42633 0.68931 0.07987 0.0
C108 C 0.43224 0.74815 0.18877 0.0
C109 C 0.36043 0.73788 0.19329 0.0
O110 O 0.43663 0.74583 0.05636 0.0
O111 O 0.39318 0.74768 0.03752 0.0
O112 O 0.42103 0.76368 0.15586 0.0
O113 O 0.43041 0.72264 0.17352 0.0
O114 O 0.36538 0.74031 0.14447 0.0
O115 O 0.37662 0.72265 0.22258 0.0
C116 C 0.42121 0.67188 0.29571 0.0
O117 O 0.4388 0.68143 0.2631 0.0
O118 O 0.39582 0.67187 0.27596 0.0
C119 C 0.3761 0.66802 0.12853 0.0
Tb120 Tb 0.55219 0.11996 0.38086 0.0
C121 C 0.51117 0.08515 0.44496 0.0
Tb122 Tb 0.51394 0.1535 0.45023 0.0
O123 O 0.58891 0.12894 0.4333 0.0
O124 O 0.54829 0.12663 0.45965 0.0
O125 O 0.53031 0.08396 0.40847 0.0
C126 C 0.48991 0.17988 0.52837 0.0
O127 O 0.50184 0.10962 0.46632 0.0
C128 C 0.50039 0.16059 0.35614 0.0
C129 C 0.56489 0.18085 0.39713 0.0
O130 O 0.47736 0.16076 0.49961 0.0
O131 O 0.51567 0.18384 0.51322 0.0
O132 O 0.4952 0.17829 0.39324 0.0
O133 O 0.50988 0.13793 0.3737 0.0
O134 O 0.55125 0.18079 0.44021 0.0
O135 O 0.55886 0.16212 0.36144 0.0
C136 C 0.57566 0.09886 0.29557 0.0
O137 O 0.58928 0.10621 0.3363 0.0
O138 O 0.54863 0.1011 0.30481 0.0
C139 C 0.57331 0.13223 0.47319 0.0
Tb140 Tb 0.14125 0.28406 0.62227 0.0
C141 C 0.18351 0.24798 0.68605 0.0
Tb142 Tb 0.11621 0.2428 0.68968 0.0
O143 O 0.1209 0.31733 0.67298 0.0
O144 O 0.13723 0.28114 0.7 0.0
O145 O 0.18113 0.26737 0.652 0.0
C146 C 0.09358 0.22692 0.77387 0.0
O147 O 0.16104 0.23562 0.70566 0.0
C148 C 0.11161 0.22281 0.59721 0.0
C149 C 0.07712 0.27658 0.61972 0.0
O150 O 0.11241 0.21234 0.74782 0.0
O151 O 0.08733 0.24973 0.75192 0.0
O152 O 0.09676 0.21447 0.63441 0.0
O153 O 0.1318 0.23893 0.61412 0.0
O154 O 0.0807 0.26925 0.66628 0.0
O155 O 0.09932 0.28119 0.59176 0.0
C156 C 0.16398 0.31363 0.54965 0.0
O157 O 0.15486 0.32399 0.59231 0.0
O158 O 0.16151 0.2864 0.54909 0.0
C159 C 0.12489 0.3036 0.71289 0.0
Tb160 Tb 0.92394 0.16786 0.68343 0.0
C161 C 0.96117 0.15512 0.58878 0.0
Tb162 Tb 0.91585 0.20506 0.58929 0.0
O163 O 0.90953 0.12874 0.64615 0.0
O164 O 0.89885 0.16724 0.61759 0.0
O165 O 0.96068 0.15487 0.63842 0.0
C166 C 0.92723 0.23253 0.50461 0.0
O167 O 0.94286 0.17009 0.56316 0.0
C168 C 0.93768 0.22966 0.67061 0.0
C169 C 0.86839 0.20616 0.6725 0.0
O170 O 0.90245 0.22188 0.51643 0.0
O171 O 0.94487 0.22723 0.54016 0.0
O172 O 0.92199 0.24238 0.63917 0.0
O173 O 0.94182 0.20456 0.65434 0.0
O174 O 0.87367 0.21106 0.62455 0.0
O175 O 0.8866 0.19336 0.70191 0.0
C176 C 0.93634 0.15274 0.77687 0.0
O177 O 0.91925 0.13946 0.74563 0.0
O178 O 0.94643 0.17445 0.75536 0.0
C179 C 0.89847 0.14067 0.60806 0.0
Tb180 Tb 0.6261 0.75663 0.14068 0.0
C181 C 0.67972 0.73795 0.20449 0.0
Tb182 Tb 0.62032 0.70651 0.206 0.0
O183 O 0.59894 0.78219 0.19234 0.0
O184 O 0.62435 0.75096 0.21946 0.0
O185 O 0.67017 0.7546 0.16951 0.0
C186 C 0.60619 0.68067 0.28727 0.0
O187 O 0.66357 0.71866 0.22443 0.0
C188 C 0.62638 0.68614 0.11181 0.0
C189 C 0.57082 0.72072 0.13822 0.0
O190 O 0.63027 0.67734 0.26389 0.0
O191 O 0.59005 0.69774 0.26387 0.0
O192 O 0.6246 0.67088 0.15052 0.0
O193 O 0.62687 0.71174 0.12886 0.0
O194 O 0.57714 0.71701 0.18524 0.0
O195 O 0.5882 0.73539 0.11083 0.0
C196 C 0.63557 0.79283 0.06923 0.0
O197 O 0.61717 0.79606 0.10496 0.0
O198 O 0.64913 0.76927 0.0741 0.0
C199 C 0.60531 0.76889 0.23183 0.0
Tb200 Tb 0.63333 0.22748 0.9169 0.0
C201 C 0.68983 0.24661 0.86673 0.0
Tb202 Tb 0.63049 0.27715 0.8578 0.0
O203 O 0.64134 0.20047 0.84926 0.0
O204 O 0.61488 0.23518 0.84498 0.0
O205 O 0.67888 0.22979 0.89973 0.0
C206 C 0.63223 0.31155 0.78281 0.0
O207 O 0.67461 0.2662 0.8462 0.0
C208 C 0.63264 0.2933 0.95283 0.0
C209 C 0.57794 0.26331 0.91358 0.0
O210 O 0.64329 0.28654 0.78225 0.0
O211 O 0.61953 0.31694 0.82499 0.0
O212 O 0.62375 0.30848 0.91738 0.0
O213 O 0.64508 0.27115 0.9333 0.0
O214 O 0.58612 0.26756 0.86766 0.0
O215 O 0.59404 0.2479 0.94182 0.0
C216 C 0.62829 0.18897 0.98619 0.0
O217 O 0.61162 0.19144 0.94815 0.0
O218 O 0.64806 0.20806 0.985 0.0
C219 C 0.62674 0.21532 0.81923 0.0
Tb220 Tb 0.92131 0.81555 0.36228 0.0
C221 C 0.95756 0.83098 0.45779 0.0
Tb222 Tb 0.91499 0.77848 0.45751 0.0
O223 O 0.90416 0.85416 0.398 0.0
O224 O 0.89673 0.81565 0.4285 0.0
O225 O 0.95674 0.83175 0.40823 0.0
C226 C 0.92583 0.75154 0.54313 0.0
O227 O 0.9408 0.81433 0.48321 0.0
C228 C 0.93781 0.75435 0.3764 0.0
C229 C 0.86894 0.7733 0.37285 0.0
O230 O 0.94382 0.75694 0.5082 0.0
O231 O 0.90111 0.76186 0.53017 0.0
O232 O 0.92321 0.74107 0.40859 0.0
O233 O 0.94053 0.7797 0.39204 0.0
O234 O 0.87321 0.77105 0.4219 0.0
O235 O 0.88788 0.78493 0.34329 0.0
C236 C 0.932 0.83093 0.2681 0.0
O237 O 0.95066 0.82181 0.2993 0.0
O238 O 0.90738 0.83156 0.29027 0.0
C239 C 0.89466 0.84218 0.43728 0.0
Tb240 Tb 0.476 0.60022 0.7414 0.0
C241 C 0.50945 0.56616 0.66225 0.0
Tb242 Tb 0.52312 0.63021 0.69961 0.0
O243 O 0.45484 0.59471 0.66847 0.0
O244 O 0.47907 0.63065 0.68461 0.0
O245 O 0.49313 0.56306 0.70179 0.0
C246 C 0.55876 0.65349 0.63689 0.0
O247 O 0.52135 0.59076 0.65353 0.0
C248 C 0.53566 0.61958 0.79107 0.0
C249 C 0.48611 0.66196 0.77974 0.0
O250 O 0.56323 0.63006 0.65833 0.0
O251 O 0.53445 0.66384 0.65135 0.0
O252 O 0.5466 0.63964 0.76664 0.0
O253 O 0.52116 0.60274 0.76134 0.0
O254 O 0.50249 0.66539 0.74045 0.0
O255 O 0.47592 0.63745 0.79043 0.0
C256 C 0.43324 0.58758 0.80243 0.0
O257 O 0.43186 0.60381 0.76532 0.0
O258 O 0.45866 0.57656 0.80295 0.0
C259 C 0.46532 0.61724 0.65019 0.0
Tb260 Tb 0.0499 0.35218 0.16572 0.0
C261 C 0.01699 0.40062 0.11036 0.0
Tb262 Tb -0.00095 0.33598 0.09843 0.0
O263 O 0.07812 0.33152 0.10924 0.0
O264 O 0.04089 0.35085 0.08782 0.0
O265 O 0.03731 0.39437 0.14289 0.0
C266 C 0.97802 0.31187 1.01439 0.0
O267 O 9e-05 0.38124 0.08809 0.0
C268 C 0.98141 0.33537 0.19317 0.0
C269 C 0.02844 0.29081 0.15863 0.0
O270 O 0.96716 0.3341 0.03797 0.0
O271 O 3e-05 0.30349 0.03849 0.0
O272 O 0.96532 0.33069 0.154 0.0
O273 O 0.00591 0.34201 0.17679 0.0
O274 O 0.02128 0.29695 0.11298 0.0
O275 O 0.03944 0.3106 0.18926 0.0
C276 C 0.0875 0.36756 0.2371 0.0
O277 O 0.09274 0.35181 0.19729 0.0
O278 O 0.06094 0.37533 0.23634 0.0
C279 C 0.06177 0.33645 0.07173 0.0
Tb280 Tb 0.51484 0.36718 0.32763 0.0
C281 C 0.51981 0.4293 0.37735 0.0
Tb282 Tb 0.56475 0.38222 0.39268 0.0
O283 O 0.48482 0.36977 0.39004 0.0
O284 O 0.52658 0.35844 0.403 0.0
O285 O 0.50445 0.41158 0.34829 0.0
C286 C 0.59683 0.39453 0.47271 0.0
O287 O 0.5448 0.42277 0.39543 0.0
C288 C 0.57878 0.37803 0.29709 0.0
C289 C 0.56168 0.32334 0.34929 0.0
O290 O 0.57006 0.40053 0.46834 0.0
O291 O 0.60561 0.38173 0.43167 0.0
O292 O 0.59648 0.3764 0.33402 0.0
O293 O 0.55498 0.38688 0.31535 0.0
O294 O 0.56259 0.33727 0.39291 0.0
O295 O 0.54394 0.33134 0.31439 0.0
C296 C 0.47955 0.35704 0.25069 0.0
O297 O 0.48339 0.34033 0.28698 0.0
O298 O 0.49592 0.37894 0.25745 0.0
C299 C 0.50328 0.36503 0.42455 0.0
Tb300 Tb 0.04888 0.63236 0.88366 0.0
C301 C 0.01683 0.58349 0.93943 0.0
Tb302 Tb -0.00277 0.64766 0.94943 0.0
O303 O 0.0763 0.65395 0.94072 0.0
O304 O 0.03934 0.63392 0.96133 0.0
O305 O 0.0371 0.59006 0.90707 0.0
C306 C 0.97563 0.67242 0.03227 0.0
O307 O -0.00065 0.60257 0.96096 0.0
C308 C 0.98023 0.64752 0.85404 0.0
C309 C 0.0258 0.69288 0.88895 0.0
O310 O 0.96535 0.64958 1.00973 0.0
O311 O -0.00267 0.68105 1.00777 0.0
O312 O 0.96379 0.65202 0.89273 0.0
O313 O 0.00468 0.64135 0.87137 0.0
O314 O 0.01933 0.6867 0.9348 0.0
O315 O 0.03733 0.67333 0.85857 0.0
C316 C 0.087 0.61723 0.81327 0.0
O317 O 0.09169 0.63383 0.85229 0.0
O318 O 0.06076 0.60851 0.81431 0.0
C319 C 0.05979 0.64883 0.97787 0.0
H320 H 0.08908 0.18173 0.07855 0.0
H321 H 0.05158 0.25408 0.8262 0.0
H322 H 0.0055 0.21518 0.05006 0.0
H323 H 0.11485 0.18866 0.83647 0.0
H324 H 0.03906 0.24858 0.91349 0.0
H325 H 0.10415 0.19453 0.99568 0.0
C326 C 0.07411 0.19237 0.05523 0.0
C327 C 0.04595 0.19717 0.07063 0.0
C328 C 0.05547 0.23531 0.89647 0.0
C329 C 0.0629 0.21148 0.97617 0.0
C330 C 0.06258 0.23832 0.84678 0.0
C331 C 0.08406 0.22152 0.82432 0.0
C332 C 0.0702 0.21563 0.92381 0.0
C333 C 0.09794 0.20172 0.8525 0.0
C334 C 0.08263 0.19938 1.00788 0.0
C335 C 0.02736 0.21099 0.03918 0.0
N336 N 0.09083 0.19938 0.90108 0.0
N337 N 0.03612 0.2175 0.99301 0.0
H338 H 0.04088 0.74754 0.23763 0.0
H339 H 0.08642 0.84364 1.0206 0.0
H340 H 0.09683 0.81951 0.25786 0.0
H341 H 0.00416 0.80288 1.01734 0.0
H342 H 0.09385 0.82838 0.10474 0.0
H343 H 0.02836 0.76294 0.15443 0.0
C344 C 0.0501 0.76679 0.2248 0.0
C345 C 0.07011 0.78221 0.25386 0.0
C346 C 0.07417 0.82274 0.08559 0.0
C347 C 0.05656 0.7993 0.15981 0.0
C348 C 0.07008 0.83118 0.03753 0.0
C349 C 0.04468 0.82448 1.01254 0.0
C350 C 0.05278 0.80736 0.10841 0.0
C351 C 0.02407 0.80835 0.03582 0.0
C352 C 0.04304 0.77546 0.17757 0.0
C353 C 0.08152 0.80695 0.23614 0.0
N354 N 0.02856 0.80024 0.08287 0.0
N355 N 0.07485 0.81456 0.18982 0.0
H356 H 0.41711 0.72725 0.27776 0.0
H357 H 0.49463 0.8483 0.44288 0.0
H358 H 0.46168 0.79577 0.21409 0.0
H359 H 0.43587 0.78882 0.50243 0.0
H360 H 0.48443 0.82867 0.35891 0.0
H361 H 0.42664 0.74765 0.36062 0.0
C362 C 0.42977 0.74603 0.28123 0.0
C363 C 0.43962 0.7591 0.23919 0.0
C364 C 0.47353 0.8201 0.39024 0.0
C365 C 0.44934 0.78385 0.33399 0.0
C366 C 0.47925 0.83133 0.43808 0.0
C367 C 0.46596 0.82009 0.4793 0.0
C368 C 0.45459 0.79735 0.38383 0.0
C369 C 0.44642 0.79806 0.4714 0.0
C370 C 0.43464 0.75817 0.32866 0.0
C371 C 0.45417 0.78479 0.24587 0.0
N372 N 0.44144 0.78722 0.42441 0.0
N373 N 0.45875 0.79634 0.29255 0.0
H374 H 0.48353 0.26184 0.81939 0.0
H375 H 0.44062 0.16695 0.5759 0.0
H376 H 0.41228 0.20439 0.81281 0.0
H377 H 0.51422 0.22149 0.58616 0.0
H378 H 0.42645 0.18441 0.65976 0.0
H379 H 0.4926 0.25049 0.73089 0.0
C380 C 0.4698 0.24692 0.79898 0.0
C381 C 0.44707 0.23419 0.82258 0.0
C382 C 0.44553 0.19274 0.64338 0.0
C383 C 0.45727 0.22083 0.72243 0.0
C384 C 0.45348 0.1829 0.59561 0.0
C385 C 0.47867 0.19268 0.5748 0.0
C386 C 0.46302 0.21236 0.66997 0.0
C387 C 0.49473 0.2133 0.60138 0.0
C388 C 0.47492 0.24041 0.74871 0.0
C389 C 0.43011 0.21453 0.7955 0.0
N390 N 0.48675 0.22232 0.64789 0.0
N391 N 0.43553 0.20844 0.7466 0.0
H392 H 0.98353 0.83408 0.21994 0.0
H393 H 0.91935 0.87887 0.95699 0.0
H394 H 0.89371 0.84691 0.19715 0.0
H395 H 0.00741 0.88989 0.99892 0.0
H396 H 0.90929 0.86252 0.04094 0.0
H397 H 0.99262 0.84913 0.13528 0.0
C398 C 0.96569 0.84006 0.19717 0.0
C399 C 0.93781 0.83943 0.21608 0.0
C400 C 0.93082 0.8685 0.03169 0.0
C401 C 0.94806 0.85659 0.11835 0.0
C402 C 0.93655 0.87788 0.98374 0.0
C403 C 0.96431 0.88567 0.97056 0.0
C404 C 0.95306 0.86659 0.06673 0.0
C405 C 0.98573 0.8839 1.00703 0.0
C406 C 0.9709 0.84871 0.14874 0.0
C407 C 0.91556 0.84723 0.1844 0.0
N408 N 0.97973 0.87444 0.05295 0.0
N409 N 0.92113 0.8554 0.13731 0.0
H410 H 0.96184 0.18505 0.85192 0.0
H411 H 0.97235 0.06528 0.04957 0.0
H412 H 0.92569 0.10251 0.82001 0.0
H413 H 0.96358 0.1535 0.09372 0.0
H414 H 0.96307 0.07668 0.96237 0.0
H415 H 0.97137 0.1722 0.93779 0.0
C416 C 0.956 0.16418 0.86291 0.0
C417 C 0.94281 0.14487 0.82873 0.0
C418 C 0.9633 0.0935 0.99127 0.0
C419 C 0.95405 0.12985 0.92697 0.0
C420 C 0.96855 0.08701 0.041 0.0
C421 C 0.96912 0.10852 0.07906 0.0
C422 C 0.95913 0.12177 0.97939 0.0
C423 C 0.96407 0.13633 0.06562 0.0
C424 C 0.96136 0.15689 0.91198 0.0
C425 C 0.93576 0.11809 0.84517 0.0
N426 N 0.95959 0.14216 1.0171 0.0
N427 N 0.94161 0.1113 0.89293 0.0
H428 H 0.66031 0.18489 0.75286 0.0
H429 H 0.5396 0.14179 0.55574 0.0
H430 H 0.57687 0.22223 0.76511 0.0
H431 H 0.62648 0.15055 0.50788 0.0
H432 H 0.55222 0.16458 0.63705 0.0
H433 H 0.64826 0.16587 0.66836 0.0
C434 C 0.63945 0.18921 0.73774 0.0
C435 C 0.61967 0.20538 0.76641 0.0
C436 C 0.56854 0.16163 0.60878 0.0
C437 C 0.60536 0.18276 0.66949 0.0
C438 C 0.56134 0.14869 0.56207 0.0
C439 C 0.58179 0.14472 0.524 0.0
C440 C 0.59682 0.16982 0.61892 0.0
C441 C 0.60987 0.15328 0.53562 0.0
C442 C 0.63262 0.17834 0.68936 0.0
C443 C 0.59292 0.21012 0.74452 0.0
N444 N 0.61657 0.16512 0.58193 0.0
N445 N 0.58645 0.19856 0.69793 0.0
H446 H 0.55086 0.79059 0.54497 0.0
H447 H 0.5836 0.82056 0.26243 0.0
H448 H 0.58018 0.87238 0.505 0.0
H449 H 0.61081 0.74223 0.32125 0.0
H450 H 0.57254 0.83885 0.3475 0.0
H451 H 0.5629 0.7714 0.46045 0.0
C452 C 0.55977 0.80457 0.51844 0.0
C453 C 0.56469 0.83319 0.53252 0.0
C454 C 0.58084 0.81762 0.34181 0.0
C455 C 0.57786 0.81136 0.43484 0.0
C456 C 0.5871 0.80705 0.29313 0.0
C457 C 0.59816 0.77965 0.28418 0.0
C458 C 0.58479 0.80053 0.38239 0.0
C459 C 0.60222 0.76335 0.32597 0.0
C460 C 0.56672 0.79353 0.47022 0.0
C461 C 0.57621 0.8502 0.49618 0.0
N462 N 0.59525 0.77386 0.37298 0.0
N463 N 0.58205 0.83916 0.44911 0.0
H464 H 0.64042 0.65065 0.34795 0.0
H465 H 0.5486 0.70005 0.58585 0.0
H466 H 0.561 0.69632 0.34394 0.0
H467 H 0.60178 0.62586 0.58638 0.0
H468 H 0.56359 0.70726 0.5006 0.0
H469 H 0.63435 0.64695 0.43845 0.0
C470 C 0.62156 0.65946 0.36602 0.0
C471 C 0.60109 0.67369 0.33882 0.0
C472 C 0.57229 0.68962 0.51964 0.0
C473 C 0.59471 0.67055 0.44116 0.0
C474 C 0.56399 0.68569 0.56834 0.0
C475 C 0.57367 0.6621 0.59247 0.0
C476 C 0.59028 0.66977 0.49515 0.0
C477 C 0.59372 0.64418 0.56852 0.0
C478 C 0.61829 0.6576 0.41741 0.0
C479 C 0.5772 0.68507 0.36363 0.0
N480 N 0.60112 0.64812 0.52053 0.0
N481 N 0.5748 0.68347 0.41354 0.0
H482 H 0.60659 0.36275 0.77722 0.0
H483 H 0.64806 0.37041 0.49162 0.0
H484 H 0.66226 0.30416 0.6967 0.0
H485 H 0.57889 0.41691 0.56253 0.0
H486 H 0.66464 0.35733 0.57356 0.0
H487 H 0.60662 0.39264 0.70564 0.0
C488 C 0.61902 0.35638 0.74458 0.0
C489 C 0.63395 0.33079 0.74208 0.0
C490 C 0.64623 0.37097 0.57127 0.0
C491 C 0.63432 0.36474 0.66077 0.0
C492 C 0.6369 0.37858 0.5246 0.0
C493 C 0.61174 0.39413 0.5206 0.0
C494 C 0.63012 0.37892 0.61377 0.0
C495 C 0.59813 0.40442 0.56425 0.0
C496 C 0.61915 0.37345 0.70394 0.0
C497 C 0.65007 0.32355 0.6995 0.0
N498 N 0.60717 0.39613 0.60915 0.0
N499 N 0.64958 0.34031 0.66018 0.0
H500 H 0.93717 0.33015 0.94992 0.0
H501 H 0.98168 0.21637 0.73209 0.0
H502 H -0.00034 0.26487 0.96774 0.0
H503 H 0.90812 0.27023 0.72332 0.0
H504 H 0.99028 0.23573 0.8174 0.0
H505 H 0.927 0.30991 0.86554 0.0
C506 C 0.94854 0.31145 0.93616 0.0
C507 C 0.96934 0.29918 0.96547 0.0
C508 C 0.97216 0.24322 0.79691 0.0
C509 C 0.95825 0.27622 0.8694 0.0
C510 C 0.96725 0.2321 0.74842 0.0
C511 C 0.94386 0.24132 0.72136 0.0
C512 C 0.95373 0.26399 0.81801 0.0
C513 C 0.92628 0.26241 0.74329 0.0
C514 C 0.94285 0.29996 0.88807 0.0
C515 C 0.9836 0.27506 0.94604 0.0
N516 N 0.93151 0.273 0.79041 0.0
N517 N 0.97792 0.26445 0.89917 0.0
H518 H 0.97551 0.77366 0.3086 0.0
H519 H 0.93537 0.65403 0.09737 0.0
H520 H 0.91251 0.70914 0.32853 0.0
H521 H 0.9967 0.72024 0.07761 0.0
H522 H 0.92514 0.67476 0.18126 0.0
H523 H 0.98252 0.75516 0.22253 0.0
C524 C 0.96295 0.75582 0.29454 0.0
C525 C 0.94313 0.74317 0.32513 0.0
C526 C 0.9407 0.68483 0.15837 0.0
C527 C 0.95137 0.72141 0.22757 0.0
C528 C 0.94641 0.67306 0.11054 0.0
C529 C 0.96687 0.68545 0.08078 0.0
C530 C 0.95565 0.70906 0.17625 0.0
C531 C 0.98077 0.71 0.09949 0.0
C532 C 0.96707 0.74509 0.24565 0.0
C533 C 0.92802 0.71949 0.30595 0.0
N534 N 0.97499 0.72092 0.14606 0.0
N535 N 0.93242 0.70937 0.25834 0.0
H536 H 0.45154 0.37438 0.46813 0.0
H537 H 0.48907 0.30926 0.73168 0.0
H538 H 0.53472 0.34178 0.50096 0.0
H539 H 0.40626 0.34089 0.69402 0.0
H540 H 0.5066 0.3212 0.64916 0.0
H541 H 0.43549 0.363 0.55116 0.0
C542 C 0.46655 0.36484 0.49284 0.0
C543 C 0.49459 0.35897 0.47693 0.0
C544 C 0.48462 0.32561 0.65885 0.0
C545 C 0.47604 0.34566 0.57357 0.0
C546 C 0.47454 0.3188 0.70615 0.0
C547 C 0.44606 0.32414 0.72026 0.0
C548 C 0.46619 0.33799 0.62485 0.0
C549 C 0.42834 0.33642 0.68515 0.0
C550 C 0.45728 0.35829 0.54053 0.0
C551 C 0.51292 0.34668 0.51124 0.0
N552 N 0.43865 0.3429 0.63947 0.0
N553 N 0.50334 0.3404 0.55767 0.0
H554 H 0.4279 0.59336 0.58241 0.0
H555 H 0.46963 0.68506 0.35068 0.0
H556 H 0.48816 0.66171 0.59867 0.0
H557 H 0.38941 0.64172 0.36062 0.0
H558 H 0.48065 0.67309 0.43687 0.0
H559 H 0.41744 0.60688 0.49761 0.0
C560 C 0.43901 0.61127 0.56826 0.0
C561 C 0.45899 0.62637 0.59836 0.0
C562 C 0.46064 0.66618 0.42022 0.0
C563 C 0.44729 0.64185 0.49963 0.0
C564 C 0.45437 0.67289 0.37082 0.0
C565 C 0.42853 0.66432 0.34796 0.0
C566 C 0.44121 0.65023 0.44707 0.0
C567 C 0.40957 0.64879 0.37639 0.0
C568 C 0.43295 0.61901 0.5196 0.0
C569 C 0.47268 0.64933 0.57724 0.0
N570 N 0.41636 0.64209 0.42391 0.0
N571 N 0.46676 0.65621 0.52929 0.0
H572 H 0.08007 0.645 0.30191 0.0
H573 H 0.10029 0.68505 1.01723 0.0
H574 H 0.12684 0.71787 0.25842 0.0
H575 H 0.03408 0.62863 0.0612 0.0
H576 H 0.11221 0.69508 0.10529 0.0
H577 H 0.06489 0.63617 0.21443 0.0
C578 C 0.08716 0.65911 0.27404 0.0
C579 C 0.10487 0.68214 0.28764 0.0
C580 C 0.09501 0.68055 0.09585 0.0
C581 C 0.08776 0.67208 0.1873 0.0
C582 C 0.08821 0.67479 0.04545 0.0
C583 C 0.06622 0.65589 0.03164 0.0
C584 C 0.08004 0.66702 0.13319 0.0
C585 C 0.05124 0.64331 0.07006 0.0
C586 C 0.07842 0.65412 0.22413 0.0
C587 C 0.11328 0.69979 0.24982 0.0
N588 N 0.05856 0.64889 0.11893 0.0
N589 N 0.10485 0.69431 0.20168 0.0
H590 H 0.08397 0.34246 0.74756 0.0
H591 H 0.10401 0.30232 0.03336 0.0
H592 H 0.14207 0.27932 0.79672 0.0
H593 H 0.03668 0.3571 0.98798 0.0
H594 H 0.11817 0.29455 0.94613 0.0
H595 H 0.06674 0.3498 0.83429 0.0
C596 C 0.09323 0.33033 0.77653 0.0
C597 C 0.11457 0.31031 0.76478 0.0
C598 C 0.10026 0.30829 0.95498 0.0
C599 C 0.09494 0.31844 0.86392 0.0
C600 C 0.09216 0.31271 1.00496 0.0
C601 C 0.06924 0.33052 1.01817 0.0
C602 C 0.08564 0.32204 0.91743 0.0
C603 C 0.05456 0.34326 0.97953 0.0
C604 C 0.08328 0.33437 0.82597 0.0
C605 C 0.12564 0.29503 0.80388 0.0
N606 N 0.06312 0.33897 0.93103 0.0
N607 N 0.11577 0.2994 0.85127 0.0
H608 H 0.97823 0.26863 0.12494 0.0
H609 H 0.96917 0.17507 0.34141 0.0
H610 H 0.03724 0.26783 0.24843 0.0
H611 H 0.90966 0.17511 0.22069 0.0
H612 H 0.97663 0.22531 0.33483 0.0
H613 H 0.94257 0.24695 0.17522 0.0
C614 C 0.98405 0.2631 0.16223 0.0
C615 C 0.01095 0.26977 0.18239 0.0
C616 C 0.96081 0.21481 0.31101 0.0
C617 C 0.96976 0.24519 0.2407 0.0
C618 C 0.9561 0.18605 0.31537 0.0
C619 C 0.94259 0.17106 0.27572 0.0
C620 C 0.95041 0.22719 0.26816 0.0
C621 C 0.9235 0.18615 0.24749 0.0
C622 C 0.96331 0.25142 0.19147 0.0
C623 C 0.0169 0.26263 0.23126 0.0
N624 N 0.92929 0.2137 0.24141 0.0
N625 N 0.99649 0.25049 0.25868 0.0
H626 H 0.01013 0.84943 0.42496 0.0
H627 H 0.06643 0.72425 0.54726 0.0
H628 H 0.96392 0.84411 0.56084 0.0
H629 H 0.017 0.72957 0.41273 0.0
H630 H 0.04471 0.76857 0.57995 0.0
H631 H 0.04292 0.81375 0.45194 0.0
C632 C 0.00761 0.84187 0.46206 0.0
C633 C 0.98141 0.84429 0.48649 0.0
C634 C 0.03845 0.75957 0.54375 0.0
C635 C 0.01845 0.80548 0.51826 0.0
C636 C 0.05017 0.73401 0.52531 0.0
C637 C 0.04543 0.72492 0.47513 0.0
C638 C 0.02195 0.77493 0.51159 0.0
C639 C 0.02276 0.73706 0.45022 0.0
C640 C 0.02623 0.82113 0.47725 0.0
C641 C 0.98185 0.83813 0.53725 0.0
N642 N 0.01287 0.76248 0.46755 0.0
N643 N -0.00193 0.8159 0.5501 0.0
H644 H 0.43679 0.69128 0.79634 0.0
H645 H 0.55264 0.78643 0.77319 0.0
H646 H 0.52275 0.68387 0.8502 0.0
H647 H 0.4722 0.77498 0.69681 0.0
H648 H 0.53184 0.76728 0.84714 0.0
H649 H 0.43566 0.73993 0.83218 0.0
C650 C 0.45516 0.69975 0.81651 0.0
C651 C 0.48117 0.68539 0.8153 0.0
C652 C 0.51871 0.76903 0.81423 0.0
C653 C 0.4807 0.73991 0.84998 0.0
C654 C 0.53081 0.779 0.77152 0.0
C655 C 0.51442 0.78113 0.72812 0.0
C656 C 0.49032 0.75983 0.81308 0.0
C657 C 0.48598 0.77244 0.7286 0.0
C658 C 0.45434 0.72713 0.83822 0.0
C659 C 0.50338 0.69577 0.84572 0.0
N660 N 0.47492 0.76193 0.77029 0.0
N661 N 0.50213 0.72281 0.86436 0.0
H662 H 0.56392 0.31482 0.88044 0.0
H663 H 0.46386 0.3143 0.05947 0.0
H664 H 0.55802 0.26449 1.00932 0.0
H665 H 0.46947 0.37068 0.93924 0.0
H666 H 0.51059 0.33047 0.08799 0.0
H667 H 0.54516 0.35489 0.9294 0.0
C668 C 0.55793 0.31192 0.91876 0.0
C669 C 0.56134 0.28577 0.94009 0.0
C670 C 0.50125 0.33996 0.05598 0.0
C671 C 0.53946 0.332 0.99688 0.0
C672 C 0.47464 0.33032 0.03926 0.0
C673 C 0.46511 0.33791 0.99215 0.0
C674 C 0.51858 0.35225 1.02042 0.0
C675 C 0.47832 0.36104 0.97145 0.0
C676 C 0.54791 0.33513 0.94724 0.0
C677 C 0.5546 0.28388 0.99069 0.0
N678 N 0.50495 0.36834 0.98719 0.0
N679 N 0.54354 0.3065 1.01706 0.0
H680 H 0.93033 0.81787 0.87439 0.0
H681 H 0.03244 0.71533 0.79829 0.0
H682 H 0.97312 0.8167 0.73259 0.0
H683 H 0.97496 0.71282 0.9234 0.0
H684 H 0.9964 0.74088 0.75325 0.0
H685 H 0.91979 0.76789 0.85997 0.0
C686 C 0.93689 0.80712 0.83965 0.0
C687 C 0.95493 0.82021 0.80672 0.0
C688 C 0.99155 0.73453 0.79043 0.0
C689 C 0.94708 0.76351 0.79454 0.0
C690 C 0.01246 0.72069 0.81659 0.0
C691 C 0.00718 0.71301 0.86532 0.0
C692 C 0.96527 0.74106 0.81347 0.0
C693 C 0.98051 0.71929 0.88661 0.0
C694 C 0.93086 0.77861 0.83106 0.0
C695 C 0.9612 0.8063 0.76082 0.0
N696 N 0.96067 0.73296 0.86061 0.0
N697 N 0.95804 0.77789 0.75638 0.0
H698 H 0.56676 0.66639 0.16364 0.0
H699 H 0.44997 0.66774 1.00347 0.0
H700 H 0.54256 0.72206 0.04897 0.0
H701 H 0.46311 0.61866 0.13199 0.0
H702 H 0.49586 0.65208 0.97165 0.0
H703 H 0.54602 0.62699 0.11523 0.0
C704 C 0.55643 0.6705 0.12869 0.0
C705 C 0.55489 0.69791 0.11157 0.0
C706 C 0.48829 0.64358 1.00584 0.0
C707 C 0.53056 0.65257 0.05617 0.0
C708 C 0.46219 0.65316 1.02469 0.0
C709 C 0.45519 0.64801 0.07429 0.0
C710 C 0.50746 0.6327 0.04009 0.0
C711 C 0.46998 0.62647 0.09682 0.0
C712 C 0.54532 0.64776 0.10035 0.0
C713 C 0.54281 0.70152 0.06471 0.0
N714 N 0.49592 0.6188 0.07843 0.0
N715 N 0.53042 0.67924 0.03921 0.0
H716 H 0.60437 0.17394 0.32328 0.0
H717 H 0.56754 0.28299 0.27225 0.0
H718 H 0.58497 0.22588 0.45582 0.0
H719 H 0.61463 0.32702 0.39027 0.0
H720 H 0.60521 0.24761 0.26632 0.0
H721 H 0.63699 0.20993 0.29678 0.0
C722 C 0.60726 0.19281 0.34732 0.0
C723 C 0.58989 0.19851 0.38942 0.0
C724 C 0.60778 0.26542 0.29291 0.0
C725 C 0.62722 0.23902 0.35926 0.0
C726 C 0.58575 0.28512 0.29697 0.0
C727 C 0.58633 0.30559 0.33623 0.0
C728 C 0.62801 0.2649 0.3319 0.0
C729 C 0.61173 0.30928 0.3637 0.0
C730 C 0.62655 0.21291 0.33263 0.0
C731 C 0.59631 0.22184 0.42109 0.0
N732 N 0.63174 0.28875 0.36142 0.0
N733 N 0.61413 0.24177 0.40467 0.0
H734 H 0.02638 0.26123 0.66034 0.0
H735 H 0.9717 0.14903 0.48537 0.0
H736 H 0.06791 0.26884 0.51846 0.0
H737 H 0.01374 0.13495 0.62239 0.0
H738 H 0.00142 0.1907 0.47456 0.0
H739 H 0.0043 0.21764 0.62773 0.0
C740 C 0.02991 0.25448 0.62164 0.0
C741 C 0.05102 0.267 0.59356 0.0
C742 C 0.00508 0.17786 0.50611 0.0
C743 C 0.0267 0.21749 0.55699 0.0
C744 C 0.9885 0.15377 0.51225 0.0
C745 C 0.9864 0.14415 0.56089 0.0
C746 C 0.0222 0.18739 0.54629 0.0
C747 C 0.01148 0.14631 0.58871 0.0
C748 C 0.0179 0.22928 0.60351 0.0
C749 C 0.0533 0.25838 0.54258 0.0
N750 N 0.02721 0.16996 0.58414 0.0
N751 N 0.0425 0.23297 0.52623 0.0
H752 H 0.06028 0.03168 0.15948 0.0
H753 H 0.08009 0.93292 0.96499 0.0
H754 H 0.04705 0.09237 0.04757 0.0
H755 H 0.02608 0.98857 0.88476 0.0
H756 H 0.08969 0.97139 1.02656 0.0
H757 H 0.0686 -0.00467 0.09338 0.0
C758 C 0.05996 0.03757 0.12107 0.0
C759 C 0.05294 0.06518 0.10929 0.0
C760 C 0.0758 0.97525 0.99548 0.0
C761 C 0.0624 0.02351 0.03288 0.0
C762 C 0.07057 0.95335 0.95976 0.0
C763 C 0.0517 0.95724 0.91997 0.0
C764 C 0.06198 0.00129 0.99165 0.0
C765 C 0.04049 0.9844 0.91499 0.0
C766 C 0.06485 0.01676 0.08313 0.0
C767 C 0.05252 0.07144 0.05864 0.0
N768 N 0.04549 0.00527 0.9508 0.0
N769 N 0.05656 0.05067 1.02239 0.0
H770 H 0.1838 0.76212 0.27765 0.0
H771 H 0.35311 0.75333 0.2911 0.0
H772 H 0.22961 0.7307 0.40267 0.0
H773 H 0.30764 0.74674 0.15123 0.0
H774 H 0.30793 0.75838 0.33525 0.0
H775 H 0.22895 0.76832 0.23448 0.0
C776 C 0.20336 0.75685 0.29643 0.0
C777 C 0.20287 0.74581 0.34406 0.0
C778 C 0.30783 0.75627 0.29489 0.0
C779 C 0.25465 0.75318 0.29458 0.0
C780 C 0.3336 0.7536 0.26951 0.0
C781 C 0.33414 0.74919 0.21731 0.0
C782 C 0.28226 0.75482 0.26802 0.0
C783 C 0.30822 0.7501 0.19141 0.0
C784 C 0.22909 0.76031 0.2715 0.0
C785 C 0.22894 0.73916 0.36605 0.0
N786 N 0.28321 0.75247 0.21713 0.0
N787 N 0.25379 0.74301 0.34116 0.0
H788 H 0.46963 0.07396 0.51456 0.0
H789 H 0.5526 0.94804 0.61788 0.0
H790 H 0.53995 0.0355 0.43253 0.0
H791 H 0.46364 0.93129 0.58819 0.0
H792 H 0.54843 0.99192 0.57436 0.0
H793 H 0.46642 0.03128 0.56322 0.0
C794 C 0.48404 0.05652 0.50622 0.0
C795 C 0.50507 0.05841 0.46928 0.0
C796 C 0.52976 0.97879 0.57829 0.0
C797 C 0.50213 0.01056 0.52569 0.0
C798 C 0.53203 0.95388 0.60329 0.0
C799 C 0.50846 0.93592 0.60646 0.0
C800 C 0.50362 0.98615 0.55734 0.0
C801 C 0.48237 0.9445 0.58627 0.0
C802 C 0.48222 0.03235 0.53403 0.0
C803 C 0.52331 0.03517 0.46035 0.0
N804 N 0.48059 0.9691 0.56242 0.0
N805 N 0.52177 0.01253 0.48895 0.0
H806 H 0.31754 0.23646 0.90295 0.0
H807 H 0.2365 0.26059 0.64966 0.0
H808 H 0.36092 0.24437 0.76275 0.0
H809 H 0.19513 0.22277 0.77314 0.0
H810 H 0.28243 0.25486 0.69119 0.0
H811 H 0.27244 0.23017 0.85712 0.0
C812 C 0.31773 0.23621 0.8626 0.0
C813 C 0.34301 0.24138 0.83681 0.0
C814 C 0.26331 0.2475 0.7089 0.0
C815 C 0.29154 0.23493 0.78435 0.0
C816 C 0.23707 0.25084 0.6852 0.0
C817 C 0.21187 0.24221 0.70784 0.0
C818 C 0.26435 0.23593 0.75604 0.0
C819 C 0.21398 0.22968 0.75408 0.0
C820 C 0.29196 0.23282 0.83646 0.0
C821 C 0.3419 0.24098 0.7844 0.0
N822 N 0.23967 0.22726 0.77692 0.0
N823 N 0.31661 0.23834 0.76007 0.0
H824 H 0.72392 0.19946 0.87018 0.0
H825 H 0.83381 0.25326 0.66573 0.0
H826 H 0.7213 0.28299 0.81397 0.0
H827 H 0.83995 0.17317 0.73378 0.0
H828 H 0.79124 0.26427 0.71702 0.0
H829 H 0.76699 0.1897 0.82077 0.0
C830 C 0.7327 0.21593 0.84837 0.0
C831 C 0.71887 0.242 0.84619 0.0
C832 C 0.8019 0.24423 0.72041 0.0
C833 C 0.76768 0.2308 0.78834 0.0
C834 C 0.82592 0.23787 0.69072 0.0
C835 C 0.84038 0.21236 0.69567 0.0
C836 C 0.7924 0.22481 0.7548 0.0
C837 C 0.82954 0.19323 0.72911 0.0
C838 C 0.75711 0.21027 0.81962 0.0
C839 C 0.73109 0.26246 0.81659 0.0
N840 N 0.80637 0.19986 0.75737 0.0
N841 N 0.75457 0.25635 0.78857 0.0
H842 H 0.82096 0.74948 0.41411 0.0
H843 H 0.72471 0.76991 0.17194 0.0
H844 H 0.85402 0.77827 0.27553 0.0
H845 H 0.70017 0.71611 0.28941 0.0
H846 H 0.77117 0.77699 0.21301 0.0
H847 H 0.775 0.7401 0.37221 0.0
C848 C 0.81872 0.75363 0.37503 0.0
C849 C 0.84151 0.76476 0.34863 0.0
C850 C 0.75556 0.76354 0.22954 0.0
C851 C 0.78899 0.75462 0.30079 0.0
C852 C 0.72905 0.75954 0.2061 0.0
C853 C 0.70847 0.74228 0.22689 0.0
C854 C 0.76133 0.75053 0.27442 0.0
C855 C 0.71533 0.72945 0.27154 0.0
C856 C 0.79249 0.74835 0.35114 0.0
C857 C 0.83722 0.76979 0.29787 0.0
N858 N 0.74102 0.73395 0.29385 0.0
N859 N 0.81154 0.76492 0.27589 0.0
H860 H 0.47389 0.52015 0.64572 0.0
H861 H 0.54047 0.48252 0.37587 0.0
H862 H 0.5447 0.5635 0.58167 0.0
H863 H 0.47405 0.43296 0.43861 0.0
H864 H 0.53574 0.51728 0.44569 0.0
H865 H 0.46985 0.49037 0.56823 0.0
C866 C 0.48891 0.52308 0.61588 0.0
C867 C 0.50979 0.5443 0.62051 0.0
C868 C 0.52159 0.49922 0.44373 0.0
C869 C 0.50463 0.51102 0.53118 0.0
C870 C 0.52383 0.47974 0.40311 0.0
C871 C 0.50738 0.45506 0.40113 0.0
C872 C 0.50308 0.49376 0.4832 0.0
C873 C 0.48675 0.45202 0.43829 0.0
C874 C 0.48631 0.50637 0.57136 0.0
C875 C 0.52829 0.54744 0.58007 0.0
N876 N 0.48561 0.4708 0.47849 0.0
N877 N 0.52519 0.53113 0.53731 0.0
H878 H 0.06116 0.54625 0.94689 0.0
H879 H 0.97063 0.42776 0.07456 0.0
H880 H 0.97162 0.5562 0.97898 0.0
H881 H 0.06082 0.43809 0.10009 0.0
H882 H 0.97025 0.47174 1.0308 0.0
H883 H 0.06117 0.50249 0.9918 0.0
C884 C 0.04139 0.53895 0.96246 0.0
C885 C 0.01631 0.55484 0.95898 0.0
C886 C 0.99007 0.46454 0.04642 0.0
C887 C 0.01627 0.50503 1.01076 0.0
C888 C 0.99028 0.43952 0.07158 0.0
C889 C 0.01575 0.42937 0.09139 0.0
C890 C 0.01564 0.47923 0.03984 0.0
C891 C 0.04064 0.44535 0.08603 0.0
C892 C 0.04151 0.5142 0.98865 0.0
C893 C 0.99142 0.5446 0.98071 0.0
N894 N 0.04005 0.46931 0.0602 0.0
N895 N 0.992 0.52034 1.0055 0.0
H896 H 0.07406 0.18653 0.28294 0.0
H897 H 0.09097 0.17021 0.57686 0.0
H898 H 0.0321 0.12153 0.3616 0.0
H899 H 0.12333 0.24175 0.50233 0.0
H900 H 0.07587 0.14855 0.49689 0.0
H901 H 0.09809 0.20275 0.35987 0.0
C902 C 0.07037 0.17516 0.31627 0.0
C903 C 0.05113 0.15231 0.31534 0.0
C904 C 0.08662 0.16877 0.49761 0.0
C905 C 0.07852 0.17146 0.40486 0.0
C906 C 0.09546 0.18123 0.54345 0.0
C907 C 0.10855 0.208 0.54674 0.0
C908 C 0.09064 0.18305 0.45383 0.0
C909 C 0.11365 0.22103 0.50184 0.0
C910 C 0.08403 0.18467 0.36042 0.0
C911 C 0.04708 0.13881 0.36007 0.0
N912 N 0.10442 0.20858 0.4574 0.0
N913 N 0.06046 0.14871 0.40297 0.0
H914 H 0.1195 0.74878 0.55846 0.0
H915 H 0.0305 0.87406 0.70159 0.0
H916 H 0.09211 0.82365 0.48772 0.0
H917 H 0.0819 0.81446 0.77784 0.0
H918 H 0.04926 0.8536 0.62138 0.0
H919 H 0.10383 0.77081 0.63938 0.0
C920 C 0.11057 0.76985 0.55989 0.0
C921 C 0.10683 0.78411 0.51591 0.0
C922 C 0.05646 0.84519 0.65591 0.0
C923 C 0.08804 0.80918 0.60794 0.0
C924 C 0.04569 0.85689 0.70163 0.0
C925 C 0.05471 0.84627 0.74682 0.0
C926 C 0.07608 0.82252 0.65543 0.0
C927 C 0.07434 0.82366 0.74426 0.0
C928 C 0.10144 0.78242 0.60601 0.0
C929 C 0.09501 0.81149 0.5203 0.0
N930 N 0.08417 0.81259 0.69979 0.0
N931 N 0.08572 0.82286 0.56495 0.0
H932 H 0.38533 0.77454 0.94761 0.0
H933 H 0.51458 0.84551 0.79756 0.0
H934 H 0.47239 0.77286 0.99799 0.0
H935 H 0.42795 0.83871 0.74526 0.0
H936 H 0.49948 0.82497 0.8762 0.0
H937 H 0.40044 0.80206 0.87721 0.0
C938 C 0.40761 0.77994 0.94401 0.0
C939 C 0.42748 0.77115 0.97914 0.0
C940 C 0.4837 0.82847 0.84777 0.0
C941 C 0.44522 0.80335 0.89808 0.0
C942 C 0.49231 0.84063 0.80297 0.0
C943 C 0.47259 0.84406 0.76418 0.0
C944 C 0.45519 0.81952 0.8539 0.0
C945 C 0.44408 0.83656 0.77366 0.0
C946 C 0.41632 0.79582 0.90371 0.0
C947 C 0.45618 0.77902 0.97203 0.0
N948 N 0.43643 0.82455 0.8167 0.0
N949 N 0.46412 0.79455 0.9327 0.0
H950 H 0.51939 0.14458 0.26043 0.0
H951 H 0.39459 0.23099 0.1268 0.0
H952 H 0.45026 0.1867 0.33915 0.0
H953 H 0.47118 0.20254 0.05156 0.0
H954 H 0.41153 0.20931 0.20276 0.0
H955 H 0.49888 0.15942 0.18119 0.0
C956 C 0.49958 0.15627 0.26103 0.0
C957 C 0.48649 0.16419 0.30665 0.0
C958 C 0.42456 0.20763 0.1695 0.0
C959 C 0.46304 0.18173 0.21619 0.0
C960 C 0.41479 0.21997 0.12606 0.0
C961 C 0.43143 0.21868 0.08262 0.0
C962 C 0.45112 0.19364 0.1696 0.0
C963 C 0.45761 0.20419 0.08414 0.0
C964 C 0.48801 0.16506 0.21583 0.0
C965 C 0.46115 0.18003 0.305 0.0
N966 N 0.46659 0.19233 0.12663 0.0
N967 N 0.45039 0.18825 0.26093 0.0
H968 H 0.88554 0.82262 0.53173 0.0
H969 H 0.97657 0.94149 0.66069 0.0
H970 H 0.90481 0.89779 0.45453 0.0
H971 H 0.90912 0.90492 0.74508 0.0
H972 H 0.95361 0.92288 0.58353 0.0
H973 H 0.8964 0.84892 0.61139 0.0
C974 C 0.89141 0.84469 0.53161 0.0
C975 C 0.89471 0.85789 0.48648 0.0
C976 C 0.94357 0.91951 0.61901 0.0
C977 C 0.90761 0.88762 0.57637 0.0
C978 C 0.95653 0.93031 0.66288 0.0
C979 C 0.94462 0.925 0.70922 0.0
C980 C 0.91911 0.90257 0.62175 0.0
C981 C 0.91888 0.90978 0.71006 0.0
C982 C 0.89765 0.85964 0.57685 0.0
C983 C 0.90238 0.88659 0.48835 0.0
N984 N 0.90731 0.8985 0.66702 0.0
N985 N 0.90919 0.90028 0.53233 0.0
H986 H 0.88835 0.16112 0.51465 0.0
H987 H 0.98551 0.0516 0.38444 0.0
H988 H 0.90807 0.08518 0.58941 0.0
H989 H 0.91423 0.08094 0.2998 0.0
H990 H 0.96029 0.06636 0.46155 0.0
H991 H 0.89966 0.1358 0.43437 0.0
C992 C 0.89433 0.13906 0.51406 0.0
C993 C 0.89788 0.1254 0.55866 0.0
C994 C 0.94997 0.06887 0.42596 0.0
C995 C 0.91117 0.09683 0.46826 0.0
C996 C 0.96422 0.06023 0.38215 0.0
C997 C 0.95191 0.06492 0.33582 0.0
C998 C 0.9238 0.08305 0.4231 0.0
C999 C 0.92443 0.07678 0.33482 0.0
C1000 C 0.90081 0.12468 0.46851 0.0
C1001 C 0.90561 0.09672 0.55597 0.0
N1002 N 0.91159 0.0862 0.37784 0.0
N1003 N 0.91272 0.0836 0.51172 0.0
H1004 H 0.5848 0.15144 0.99537 0.0
H1005 H 0.63023 0.1126 0.271 0.0
H1006 H 0.66096 0.18256 0.06944 0.0
H1007 H 0.54806 0.09316 0.20595 0.0
H1008 H 0.64596 0.12981 0.19123 0.0
H1009 H 0.57495 0.12251 0.06619 0.0
C1010 C 0.59962 0.15194 1.02636 0.0
C1011 C 0.62363 0.16954 1.02674 0.0
C1012 C 0.62467 0.12126 0.19408 0.0
C1013 C 0.61251 0.13649 0.108 0.0
C1014 C 0.61577 0.11113 0.23949 0.0
C1015 C 0.58776 0.10148 0.24515 0.0
C1016 C 0.60542 0.12173 0.154 0.0
C1017 C 0.56985 0.10038 0.2032 0.0
C1018 C 0.59397 0.13544 0.06681 0.0
C1019 C 0.64213 0.16936 0.06779 0.0
N1020 N 0.57886 0.11071 0.15961 0.0
N1021 N 0.6361 0.15324 0.10691 0.0
H1022 H 0.57502 0.89701 0.84258 0.0
H1023 H 0.666 0.78344 0.98294 0.0
H1024 H 0.63071 0.83624 0.76764 0.0
H1025 H 0.60701 0.84175 0.05584 0.0
H1026 H 0.66083 0.80866 0.90608 0.0
H1027 H 0.59423 0.88373 0.92273 0.0
C1028 C 0.59182 0.88138 0.84297 0.0
C1029 C 0.6011 0.86749 0.79855 0.0
C1030 C 0.64936 0.81622 0.9391 0.0
C1031 C 0.62276 0.85171 0.89006 0.0
C1032 C 0.65238 0.80188 0.98298 0.0
C1033 C 0.63665 0.81037 1.0255 0.0
C1034 C 0.63039 0.83914 0.93784 0.0
C1035 C 0.61932 0.83437 1.02366 0.0
C1036 C 0.60266 0.87364 0.88875 0.0
C1037 C 0.62285 0.84734 0.80113 0.0
N1038 N 0.61639 0.84771 0.98041 0.0
N1039 N 0.63264 0.83973 0.84616 0.0
H1040 H 0.58721 0.59902 0.8198 0.0
H1041 H 0.60858 0.71434 1.02791 0.0
H1042 H 0.51028 0.6368 0.87883 0.0
H1043 H 0.62375 0.6309 0.0783 0.0
H1044 H 0.5849 0.69277 0.95297 0.0
H1045 H 0.61227 0.61456 0.89729 0.0
C1046 C 0.57518 0.6094 0.84992 0.0
C1047 C 0.5462 0.61585 0.84288 0.0
C1048 C 0.59378 0.67929 0.98033 0.0
C1049 C 0.57561 0.63603 0.93003 0.0
C1050 C 0.60746 0.69158 1.02309 0.0
C1051 C 0.61787 0.67456 0.06042 0.0
C1052 C 0.59129 0.64973 0.9738 0.0
C1053 C 0.61593 0.64502 0.05103 0.0
C1054 C 0.58974 0.61889 0.89364 0.0
C1055 C 0.53237 0.63078 0.88263 0.0
N1056 N 0.60298 0.6336 1.00897 0.0
N1057 N 0.54726 0.64097 0.92365 0.0
H1058 H 0.62319 0.34301 0.27418 0.0
H1059 H 0.64208 0.26608 0.04299 0.0
H1060 H 0.55008 0.37931 0.20457 0.0
H1061 H 0.60814 0.34235 0.98564 0.0
H1062 H 0.62774 0.28388 0.12784 0.0
H1063 H 0.63598 0.31894 0.19504 0.0
C1064 C 0.60956 0.34589 0.24231 0.0
C1065 C 0.58522 0.36334 0.2469 0.0
C1066 C 0.62361 0.29672 0.0965 0.0
C1067 C 0.60049 0.33559 0.15417 0.0
C1068 C 0.63193 0.28652 0.04801 0.0
C1069 C 0.62667 0.30267 1.00656 0.0
C1070 C 0.60946 0.32304 0.10361 0.0
C1071 C 0.61288 0.32895 1.01594 0.0
C1072 C 0.61693 0.3318 0.19688 0.0
C1073 C 0.56888 0.36611 0.20344 0.0
N1074 N 0.60464 0.33805 0.06275 0.0
N1075 N 0.57706 0.35281 0.15893 0.0
H1076 H 0.92906 0.3183 0.22283 0.0
H1077 H 0.97928 0.25457 0.48107 0.0
H1078 H 0.01454 0.32835 0.27943 0.0
H1079 H 0.89333 0.24857 0.42531 0.0
H1080 H 0.99239 0.28222 0.40985 0.0
H1081 H 0.91559 0.29511 0.2983 0.0
C1082 C 0.94505 0.31606 0.25146 0.0
C1083 C 0.97316 0.32538 0.24391 0.0
C1084 C 0.97063 0.27501 0.4131 0.0
C1085 C 0.95762 0.2979 0.33184 0.0
C1086 C 0.96304 0.25904 0.4539 0.0
C1087 C 0.93499 0.24904 0.45977 0.0
C1088 C 0.95013 0.28128 0.37705 0.0
C1089 C 0.91516 0.25567 0.4228 0.0
C1090 C 0.93725 0.30257 0.29479 0.0
C1091 C 0.99265 0.32161 0.28301 0.0
N1092 N 0.92308 0.27121 0.38337 0.0
N1093 N 0.98462 0.308 0.32476 0.0
H1094 H 0.01369 0.65258 0.76781 0.0
H1095 H 0.89142 0.7376 0.62267 0.0
H1096 H 0.92891 0.6676 0.82428 0.0
H1097 H 0.9771 0.72765 0.56749 0.0
H1098 H 0.90442 0.71014 0.69465 0.0
H1099 H 0.00038 0.67667 0.69171 0.0
C1100 C 0.9922 0.66046 0.7641 0.0
C1101 C 0.97255 0.65798 0.80325 0.0
C1102 C 0.92043 0.71386 0.66679 0.0
C1103 C 0.95705 0.68611 0.71571 0.0
C1104 C 0.91295 0.72968 0.62554 0.0
C1105 C 0.93306 0.73513 0.58845 0.0
C1106 C 0.9483 0.70303 0.67147 0.0
C1107 C 0.96073 0.72411 0.59482 0.0
C1108 C 0.98459 0.67443 0.72057 0.0
C1109 C 0.94498 0.6689 0.79564 0.0
N1110 N 0.96744 0.70872 0.63504 0.0
N1111 N 0.93823 0.68246 0.7535 0.0
H1112 H 0.44429 0.31175 0.22896 0.0
H1113 H 0.39489 0.37333 0.97312 0.0
H1114 H 0.46748 0.3936 0.17932 0.0
H1115 H 0.3703 0.29091 1.01756 0.0
H1116 H 0.41187 0.38493 0.0574 0.0
H1117 H 0.41058 0.30617 0.15899 0.0
C1118 C 0.44215 0.32858 0.20349 0.0
C1119 C 0.45882 0.35306 0.20954 0.0
C1120 C 0.40227 0.36445 0.04923 0.0
C1121 C 0.42011 0.34712 0.13026 0.0
C1122 C 0.39218 0.35795 1.00112 0.0
C1123 C 0.38241 0.33062 0.98796 0.0
C1124 C 0.4026 0.34344 0.08422 0.0
C1125 C 0.37885 0.31179 1.02599 0.0
C1126 C 0.4228 0.32549 0.16382 0.0
C1127 C 0.45518 0.37429 0.17576 0.0
N1128 N 0.38982 0.31817 0.07218 0.0
N1129 N 0.43637 0.37077 0.13753 0.0
H1130 H 0.37888 0.61171 0.10704 0.0
H1131 H 0.38815 0.62328 0.81278 0.0
H1132 H 0.36833 0.69066 0.03651 0.0
H1133 H 0.43761 0.56409 0.89348 0.0
H1134 H 0.36675 0.64108 0.89129 0.0
H1135 H 0.38597 0.58778 1.02546 0.0
C1136 C 0.37736 0.62397 0.07426 0.0
C1137 C 0.37345 0.65337 0.07862 0.0
C1138 C 0.38182 0.6238 0.89158 0.0
C1139 C 0.38141 0.62586 0.98504 0.0
C1140 C 0.39387 0.61339 0.84683 0.0
C1141 C 0.41484 0.59223 0.84669 0.0
C1142 C 0.39038 0.61259 0.93639 0.0
C1143 C 0.42152 0.58037 0.89193 0.0
C1144 C 0.38161 0.61024 1.02776 0.0
C1145 C 0.37151 0.66803 0.03476 0.0
N1146 N 0.40947 0.59088 0.93511 0.0
N1147 N 0.37582 0.65413 0.98963 0.0
H1148 H 0.13653 0.61526 0.50863 0.0
H1149 H 0.13928 0.6411 0.80397 0.0
H1150 H 0.18015 0.68443 0.58665 0.0
H1151 H 0.0778 0.58879 0.72321 0.0
H1152 H 0.16579 0.64599 0.72657 0.0
H1153 H 0.12726 0.59447 0.58841 0.0
C1154 C 0.14495 0.62563 0.54245 0.0
C1155 C 0.15868 0.65186 0.54125 0.0
C1156 C 0.14683 0.63296 0.72596 0.0
C1157 C 0.14784 0.62839 0.63248 0.0
C1158 C 0.13173 0.63008 0.77011 0.0
C1159 C 0.10609 0.61487 0.76968 0.0
C1160 C 0.13621 0.6205 0.68112 0.0
C1161 C 0.09734 0.60092 0.72495 0.0
C1162 C 0.13946 0.61384 0.58797 0.0
C1163 C 0.16922 0.66432 0.58606 0.0
N1164 N 0.11217 0.6044 0.68223 0.0
N1165 N 0.16314 0.65271 0.63003 0.0
H1166 H 0.07788 0.39478 0.32823 0.0
H1167 H 0.18362 0.29555 0.45796 0.0
H1168 H 0.14014 0.34454 0.24565 0.0
H1169 H 0.14538 0.36729 0.5374 0.0
H1170 H 0.17239 0.31663 0.37919 0.0
H1171 H 0.10554 0.38906 0.40455 0.0
C1172 C 0.09771 0.38312 0.32601 0.0
C1173 C 0.10656 0.36978 0.28085 0.0
C1174 C 0.16708 0.32816 0.41382 0.0
C1175 C 0.13796 0.36268 0.36778 0.0
C1176 C 0.17362 0.31616 0.45878 0.0
C1177 C 0.16516 0.32959 0.50408 0.0
C1178 C 0.15132 0.35338 0.41428 0.0
C1179 C 0.15216 0.3562 0.50317 0.0
C1180 C 0.1135 0.37984 0.36953 0.0
C1181 C 0.13241 0.35492 0.27989 0.0
N1182 N 0.14496 0.36692 0.4589 0.0
N1183 N 0.1469 0.35128 0.32288 0.0
loop_
_geom_bond_atom_site_label_1
_geom_bond_atom_site_label_2
_geom_bond_distance
_geom_bond_site_symmetry_2
_ccdc_geom_bond_type
Tb0 O3 2.453 1_455 S
Tb0 O4 2.596 . S
Tb0 O5 2.374 . S
Tb0 O13 2.343 . S
Tb0 O15 2.353 . S
Tb0 O17 2.427 1_455 S
Tb0 O18 2.513 . S
C1 O5 1.251 . S
C1 O7 1.263 . S
Tb2 O4 2.343 . S
Tb2 O7 2.353 . S
Tb2 O10 2.427 . S
Tb2 O11 2.513 . S
Tb2 O12 2.453 . S
Tb2 O13 2.596 . S
Tb2 O14 2.374 . S
O3 Tb0 2.453 1_655 S
O3 C19 1.245 1_655 S
O4 Tb0 2.596 . S
O4 Tb2 2.343 . S
O4 C19 1.259 . S
O5 Tb0 2.374 . S
O5 C1 1.251 . S
C6 O10 1.275 . S
C6 O11 1.246 . S
O7 C1 1.263 . S
O7 Tb2 2.353 . S
C8 O12 1.245 . S
C8 O13 1.259 . S
C9 O14 1.250 . S
C9 O15 1.263 . S
O10 Tb2 2.427 . S
O10 C6 1.275 . S
O11 Tb2 2.513 . S
O11 C6 1.246 . S
O12 Tb2 2.453 . S
O12 C8 1.245 . S
O13 Tb0 2.343 . S
O13 Tb2 2.596 . S
O13 C8 1.259 . S
O14 Tb2 2.374 . S
O14 C9 1.250 . S
O15 Tb0 2.353 . S
O15 C9 1.263 . S
C16 O17 1.275 . S
C16 O18 1.246 1_655 S
O17 Tb0 2.427 1_655 S
O17 C16 1.275 . S
O18 Tb0 2.513 . S
O18 C16 1.246 1_455 S
C19 O3 1.245 1_455 S
C19 O4 1.259 . S
Tb20 O23 2.453 . S
Tb20 O24 2.596 . S
Tb20 O25 2.374 . S
Tb20 O33 2.343 . S
Tb20 O35 2.353 . S
Tb20 O37 2.427 . S
Tb20 O38 2.513 . S
C21 O25 1.251 . S
C21 O27 1.263 . S
Tb22 O24 2.343 . S
Tb22 O27 2.353 . S
Tb22 O30 2.427 . S
Tb22 O31 2.513 . S
Tb22 O32 2.453 . S
Tb22 O33 2.596 . S
Tb22 O34 2.374 . S
O23 Tb20 2.453 . S
O23 C39 1.245 . S
O24 Tb20 2.596 . S
O24 Tb22 2.343 . S
O24 C39 1.259 . S
O25 Tb20 2.374 . S
O25 C21 1.251 . S
C26 O30 1.275 . S
C26 O31 1.246 . S
O27 C21 1.263 . S
O27 Tb22 2.353 . S
C28 O32 1.245 . S
C28 O33 1.259 . S
C29 O34 1.250 . S
C29 O35 1.263 . S
O30 Tb22 2.427 . S
O30 C26 1.275 . S
O31 Tb22 2.513 . S
O31 C26 1.246 . S
O32 Tb22 2.453 . S
O32 C28 1.245 . S
O33 Tb20 2.343 . S
O33 Tb22 2.596 . S
O33 C28 1.259 . S
O34 Tb22 2.374 . S
O34 C29 1.250 . S
O35 Tb20 2.353 . S
O35 C29 1.263 . S
C36 O37 1.275 . S
C36 O38 1.246 . S
O37 Tb20 2.427 . S
O37 C36 1.275 . S
O38 Tb20 2.513 . S
O38 C36 1.246 . S
C39 O23 1.245 . S
C39 O24 1.259 . S
Tb40 O43 2.453 . S
Tb40 O44 2.596 . S
Tb40 O45 2.374 . S
Tb40 O53 2.343 . S
Tb40 O55 2.353 . S
Tb40 O57 2.427 . S
Tb40 O58 2.513 . S
C41 O45 1.251 . S
C41 O47 1.263 . S
Tb42 O44 2.343 . S
Tb42 O47 2.353 . S
Tb42 O50 2.427 . S
Tb42 O51 2.513 . S
Tb42 O52 2.453 . S
Tb42 O53 2.596 . S
Tb42 O54 2.374 . S
O43 Tb40 2.453 . S
O43 C59 1.245 . S
O44 Tb40 2.596 . S
O44 Tb42 2.343 . S
O44 C59 1.259 . S
O45 Tb40 2.374 . S
O45 C41 1.251 . S
C46 O50 1.275 . S
C46 O51 1.246 . S
O47 C41 1.263 . S
O47 Tb42 2.353 . S
C48 O52 1.245 . S
C48 O53 1.259 . S
C49 O54 1.250 . S
C49 O55 1.263 . S
O50 Tb42 2.427 . S
O50 C46 1.275 . S
O51 Tb42 2.513 . S
O51 C46 1.246 . S
O52 Tb42 2.453 . S
O52 C48 1.245 . S
O53 Tb40 2.343 . S
O53 Tb42 2.596 . S
O53 C48 1.259 . S
O54 Tb42 2.374 . S
O54 C49 1.250 . S
O55 Tb40 2.353 . S
O55 C49 1.263 . S
C56 O57 1.275 . S
C56 O58 1.246 . S
O57 Tb40 2.427 . S
O57 C56 1.275 . S
O58 Tb40 2.513 . S
O58 C56 1.246 . S
C59 O43 1.245 . S
C59 O44 1.259 . S
Tb60 O63 2.453 . S
Tb60 O64 2.596 . S
Tb60 O65 2.374 . S
Tb60 O73 2.343 . S
Tb60 O75 2.353 . S
Tb60 O77 2.427 . S
Tb60 O78 2.513 . S
C61 O65 1.251 . S
C61 O67 1.263 . S
Tb62 O64 2.343 . S
Tb62 O67 2.353 . S
Tb62 O70 2.427 . S
Tb62 O71 2.513 . S
Tb62 O72 2.453 . S
Tb62 O73 2.596 . S
Tb62 O74 2.374 . S
O63 Tb60 2.453 . S
O63 C79 1.245 . S
O64 Tb60 2.596 . S
O64 Tb62 2.343 . S
O64 C79 1.259 . S
O65 Tb60 2.374 . S
O65 C61 1.251 . S
C66 O70 1.275 . S
C66 O71 1.246 . S
O67 C61 1.263 . S
O67 Tb62 2.353 . S
C68 O72 1.245 . S
C68 O73 1.259 . S
C69 O74 1.250 . S
C69 O75 1.263 . S
O70 Tb62 2.427 . S
O70 C66 1.275 . S
O71 Tb62 2.513 . S
O71 C66 1.246 . S
O72 Tb62 2.453 . S
O72 C68 1.245 . S
O73 Tb60 2.343 . S
O73 Tb62 2.596 . S
O73 C68 1.259 . S
O74 Tb62 2.374 . S
O74 C69 1.250 . S
O75 Tb60 2.353 . S
O75 C69 1.263 . S
C76 O77 1.275 . S
C76 O78 1.246 . S
O77 Tb60 2.427 . S
O77 C76 1.275 . S
O78 Tb60 2.513 . S
O78 C76 1.246 . S
C79 O63 1.245 . S
C79 O64 1.259 . S
Tb80 O83 2.453 1_455 S
Tb80 O84 2.596 . S
Tb80 O85 2.374 . S
Tb80 O93 2.343 . S
Tb80 O95 2.353 . S
Tb80 O97 2.427 1_455 S
Tb80 O98 2.513 . S
C81 O85 1.251 . S
C81 O87 1.263 . S
Tb82 O84 2.343 . S
Tb82 O87 2.353 . S
Tb82 O90 2.427 . S
Tb82 O91 2.513 . S
Tb82 O92 2.453 . S
Tb82 O93 2.596 . S
Tb82 O94 2.374 . S
O83 Tb80 2.453 1_655 S
O83 C99 1.245 1_655 S
O84 Tb80 2.596 . S
O84 Tb82 2.343 . S
O84 C99 1.259 . S
O85 Tb80 2.374 . S
O85 C81 1.251 . S
C86 O90 1.275 . S
C86 O91 1.246 . S
O87 C81 1.263 . S
O87 Tb82 2.353 . S
C88 O92 1.245 . S
C88 O93 1.259 . S
C89 O94 1.250 . S
C89 O95 1.263 . S
O90 Tb82 2.427 . S
O90 C86 1.275 . S
O91 Tb82 2.513 . S
O91 C86 1.246 . S
O92 Tb82 2.453 . S
O92 C88 1.245 . S
O93 Tb80 2.343 . S
O93 Tb82 2.596 . S
O93 C88 1.259 . S
O94 Tb82 2.374 . S
O94 C89 1.250 . S
O95 Tb80 2.353 . S
O95 C89 1.263 . S
C96 O97 1.275 . S
C96 O98 1.246 1_655 S
O97 Tb80 2.427 1_655 S
O97 C96 1.275 . S
O98 Tb80 2.513 . S
O98 C96 1.246 1_455 S
C99 O83 1.245 1_455 S
C99 O84 1.259 . S
Tb100 O103 2.453 . S
Tb100 O104 2.596 . S
Tb100 O105 2.374 . S
Tb100 O113 2.343 . S
Tb100 O115 2.353 . S
Tb100 O117 2.427 . S
Tb100 O118 2.513 . S
C101 O105 1.251 . S
C101 O107 1.263 . S
Tb102 O104 2.343 . S
Tb102 O107 2.353 . S
Tb102 O110 2.427 . S
Tb102 O111 2.513 . S
Tb102 O112 2.453 . S
Tb102 O113 2.596 . S
Tb102 O114 2.374 . S
O103 Tb100 2.453 . S
O103 C119 1.245 . S
O104 Tb100 2.596 . S
O104 Tb102 2.343 . S
O104 C119 1.259 . S
O105 Tb100 2.374 . S
O105 C101 1.251 . S
C106 O110 1.275 . S
C106 O111 1.246 . S
O107 C101 1.263 . S
O107 Tb102 2.353 . S
C108 O112 1.245 . S
C108 O113 1.259 . S
C109 O114 1.250 . S
C109 O115 1.263 . S
O110 Tb102 2.427 . S
O110 C106 1.275 . S
O111 Tb102 2.513 . S
O111 C106 1.246 . S
O112 Tb102 2.453 . S
O112 C108 1.245 . S
O113 Tb100 2.343 . S
O113 Tb102 2.596 . S
O113 C108 1.259 . S
O114 Tb102 2.374 . S
O114 C109 1.250 . S
O115 Tb100 2.353 . S
O115 C109 1.263 . S
C116 O117 1.275 . S
C116 O118 1.246 . S
O117 Tb100 2.427 . S
O117 C116 1.275 . S
O118 Tb100 2.513 . S
O118 C116 1.246 . S
C119 O103 1.245 . S
C119 O104 1.259 . S
Tb120 O123 2.453 . S
Tb120 O124 2.596 . S
Tb120 O125 2.374 . S
Tb120 O133 2.343 . S
Tb120 O135 2.353 . S
Tb120 O137 2.427 . S
Tb120 O138 2.513 . S
C121 O125 1.251 . S
C121 O127 1.263 . S
Tb122 O124 2.343 . S
Tb122 O127 2.353 . S
Tb122 O130 2.427 . S
Tb122 O131 2.513 . S
Tb122 O132 2.453 . S
Tb122 O133 2.596 . S
Tb122 O134 2.374 . S
O123 Tb120 2.453 . S
O123 C139 1.245 . S
O124 Tb120 2.596 . S
O124 Tb122 2.343 . S
O124 C139 1.259 . S
O125 Tb120 2.374 . S
O125 C121 1.251 . S
C126 O130 1.275 . S
C126 O131 1.246 . S
O127 C121 1.263 . S
O127 Tb122 2.353 . S
C128 O132 1.245 . S
C128 O133 1.259 . S
C129 O134 1.250 . S
C129 O135 1.263 . S
O130 Tb122 2.427 . S
O130 C126 1.275 . S
O131 Tb122 2.513 . S
O131 C126 1.246 . S
O132 Tb122 2.453 . S
O132 C128 1.245 . S
O133 Tb120 2.343 . S
O133 Tb122 2.596 . S
O133 C128 1.259 . S
O134 Tb122 2.374 . S
O134 C129 1.250 . S
O135 Tb120 2.353 . S
O135 C129 1.263 . S
C136 O137 1.275 . S
C136 O138 1.246 . S
O137 Tb120 2.427 . S
O137 C136 1.275 . S
O138 Tb120 2.513 . S
O138 C136 1.246 . S
C139 O123 1.245 . S
C139 O124 1.259 . S
Tb140 O143 2.453 . S
Tb140 O144 2.596 . S
Tb140 O145 2.374 . S
Tb140 O153 2.343 . S
Tb140 O155 2.353 . S
Tb140 O157 2.427 . S
Tb140 O158 2.513 . S
C141 O145 1.251 . S
C141 O147 1.263 . S
Tb142 O144 2.343 . S
Tb142 O147 2.353 . S
Tb142 O150 2.427 . S
Tb142 O151 2.513 . S
Tb142 O152 2.453 . S
Tb142 O153 2.596 . S
Tb142 O154 2.374 . S
O143 Tb140 2.453 . S
O143 C159 1.245 . S
O144 Tb140 2.596 . S
O144 Tb142 2.343 . S
O144 C159 1.259 . S
O145 Tb140 2.374 . S
O145 C141 1.251 . S
C146 O150 1.275 . S
C146 O151 1.246 . S
O147 C141 1.263 . S
O147 Tb142 2.353 . S
C148 O152 1.245 . S
C148 O153 1.259 . S
C149 O154 1.250 . S
C149 O155 1.263 . S
O150 Tb142 2.427 . S
O150 C146 1.275 . S
O151 Tb142 2.513 . S
O151 C146 1.246 . S
O152 Tb142 2.453 . S
O152 C148 1.245 . S
O153 Tb140 2.343 . S
O153 Tb142 2.596 . S
O153 C148 1.259 . S
O154 Tb142 2.374 . S
O154 C149 1.250 . S
O155 Tb140 2.353 . S
O155 C149 1.263 . S
C156 O157 1.275 . S
C156 O158 1.246 . S
O157 Tb140 2.427 . S
O157 C156 1.275 . S
O158 Tb140 2.513 . S
O158 C156 1.246 . S
C159 O143 1.245 . S
C159 O144 1.259 . S
Tb160 O163 2.453 . S
Tb160 O164 2.596 . S
Tb160 O165 2.374 . S
Tb160 O173 2.343 . S
Tb160 O175 2.353 . S
Tb160 O177 2.427 . S
Tb160 O178 2.513 . S
C161 O165 1.251 . S
C161 O167 1.263 . S
Tb162 O164 2.343 . S
Tb162 O167 2.353 . S
Tb162 O170 2.427 . S
Tb162 O171 2.513 . S
Tb162 O172 2.453 . S
Tb162 O173 2.596 . S
Tb162 O174 2.374 . S
O163 Tb160 2.453 . S
O163 C179 1.245 . S
O164 Tb160 2.596 . S
O164 Tb162 2.343 . S
O164 C179 1.259 . S
O165 Tb160 2.374 . S
O165 C161 1.251 . S
C166 O170 1.275 . S
C166 O171 1.246 . S
O167 C161 1.263 . S
O167 Tb162 2.353 . S
C168 O172 1.245 . S
C168 O173 1.259 . S
C169 O174 1.250 . S
C169 O175 1.263 . S
O170 Tb162 2.427 . S
O170 C166 1.275 . S
O171 Tb162 2.513 . S
O171 C166 1.246 . S
O172 Tb162 2.453 . S
O172 C168 1.245 . S
O173 Tb160 2.343 . S
O173 Tb162 2.596 . S
O173 C168 1.259 . S
O174 Tb162 2.374 . S
O174 C169 1.250 . S
O175 Tb160 2.353 . S
O175 C169 1.263 . S
C176 O177 1.275 . S
C176 O178 1.246 . S
O177 Tb160 2.427 . S
O177 C176 1.275 . S
O178 Tb160 2.513 . S
O178 C176 1.246 . S
C179 O163 1.245 . S
C179 O164 1.259 . S
Tb180 O183 2.453 . S
Tb180 O184 2.596 . S
Tb180 O185 2.374 . S
Tb180 O193 2.343 . S
Tb180 O195 2.353 . S
Tb180 O197 2.427 . S
Tb180 O198 2.513 . S
C181 O185 1.251 . S
C181 O187 1.263 . S
Tb182 O184 2.343 . S
Tb182 O187 2.353 . S
Tb182 O190 2.427 . S
Tb182 O191 2.513 . S
Tb182 O192 2.453 . S
Tb182 O193 2.596 . S
Tb182 O194 2.374 . S
O183 Tb180 2.453 . S
O183 C199 1.245 . S
O184 Tb180 2.596 . S
O184 Tb182 2.343 . S
O184 C199 1.259 . S
O185 Tb180 2.374 . S
O185 C181 1.251 . S
C186 O190 1.275 . S
C186 O191 1.246 . S
O187 C181 1.263 . S
O187 Tb182 2.353 . S
C188 O192 1.245 . S
C188 O193 1.259 . S
C189 O194 1.250 . S
C189 O195 1.263 . S
O190 Tb182 2.427 . S
O190 C186 1.275 . S
O191 Tb182 2.513 . S
O191 C186 1.246 . S
O192 Tb182 2.453 . S
O192 C188 1.245 . S
O193 Tb180 2.343 . S
O193 Tb182 2.596 . S
O193 C188 1.259 . S
O194 Tb182 2.374 . S
O194 C189 1.250 . S
O195 Tb180 2.353 . S
O195 C189 1.263 . S
C196 O197 1.275 . S
C196 O198 1.246 . S
O197 Tb180 2.427 . S
O197 C196 1.275 . S
O198 Tb180 2.513 . S
O198 C196 1.246 . S
C199 O183 1.245 . S
C199 O184 1.259 . S
Tb200 O203 2.453 . S
Tb200 O204 2.596 . S
Tb200 O205 2.374 . S
Tb200 O213 2.343 . S
Tb200 O215 2.353 . S
Tb200 O217 2.427 . S
Tb200 O218 2.513 . S
C201 O205 1.251 . S
C201 O207 1.263 . S
Tb202 O204 2.343 . S
Tb202 O207 2.353 . S
Tb202 O210 2.427 . S
Tb202 O211 2.513 . S
Tb202 O212 2.453 . S
Tb202 O213 2.596 . S
Tb202 O214 2.374 . S
O203 Tb200 2.453 . S
O203 C219 1.245 . S
O204 Tb200 2.596 . S
O204 Tb202 2.343 . S
O204 C219 1.259 . S
O205 Tb200 2.374 . S
O205 C201 1.251 . S
C206 O210 1.275 . S
C206 O211 1.246 . S
O207 C201 1.263 . S
O207 Tb202 2.353 . S
C208 O212 1.245 . S
C208 O213 1.259 . S
C209 O214 1.250 . S
C209 O215 1.263 . S
O210 Tb202 2.427 . S
O210 C206 1.275 . S
O211 Tb202 2.513 . S
O211 C206 1.246 . S
O212 Tb202 2.453 . S
O212 C208 1.245 . S
O213 Tb200 2.343 . S
O213 Tb202 2.596 . S
O213 C208 1.259 . S
O214 Tb202 2.374 . S
O214 C209 1.250 . S
O215 Tb200 2.353 . S
O215 C209 1.263 . S
C216 O217 1.275 . S
C216 O218 1.246 . S
O217 Tb200 2.427 . S
O217 C216 1.275 . S
O218 Tb200 2.513 . S
O218 C216 1.246 . S
C219 O203 1.245 . S
C219 O204 1.259 . S
Tb220 O223 2.453 . S
Tb220 O224 2.596 . S
Tb220 O225 2.374 . S
Tb220 O233 2.343 . S
Tb220 O235 2.353 . S
Tb220 O237 2.427 . S
Tb220 O238 2.513 . S
C221 O225 1.251 . S
C221 O227 1.263 . S
Tb222 O224 2.343 . S
Tb222 O227 2.353 . S
Tb222 O230 2.427 . S
Tb222 O231 2.513 . S
Tb222 O232 2.453 . S
Tb222 O233 2.596 . S
Tb222 O234 2.374 . S
O223 Tb220 2.453 . S
O223 C239 1.245 . S
O224 Tb220 2.596 . S
O224 Tb222 2.343 . S
O224 C239 1.259 . S
O225 Tb220 2.374 . S
O225 C221 1.251 . S
C226 O230 1.275 . S
C226 O231 1.246 . S
O227 C221 1.263 . S
O227 Tb222 2.353 . S
C228 O232 1.245 . S
C228 O233 1.259 . S
C229 O234 1.250 . S
C229 O235 1.263 . S
O230 Tb222 2.427 . S
O230 C226 1.275 . S
O231 Tb222 2.513 . S
O231 C226 1.246 . S
O232 Tb222 2.453 . S
O232 C228 1.245 . S
O233 Tb220 2.343 . S
O233 Tb222 2.596 . S
O233 C228 1.259 . S
O234 Tb222 2.374 . S
O234 C229 1.250 . S
O235 Tb220 2.353 . S
O235 C229 1.263 . S
C236 O237 1.275 . S
C236 O238 1.246 . S
O237 Tb220 2.427 . S
O237 C236 1.275 . S
O238 Tb220 2.513 . S
O238 C236 1.246 . S
C239 O223 1.245 . S
C239 O224 1.259 . S
Tb240 O243 2.453 . S
Tb240 O244 2.596 . S
Tb240 O245 2.374 . S
Tb240 O253 2.343 . S
Tb240 O255 2.353 . S
Tb240 O257 2.427 . S
Tb240 O258 2.513 . S
C241 O245 1.251 . S
C241 O247 1.263 . S
Tb242 O244 2.343 . S
Tb242 O247 2.353 . S
Tb242 O250 2.427 . S
Tb242 O251 2.513 . S
Tb242 O252 2.453 . S
Tb242 O253 2.596 . S
Tb242 O254 2.374 . S
O243 Tb240 2.453 . S
O243 C259 1.245 . S
O244 Tb240 2.596 . S
O244 Tb242 2.343 . S
O244 C259 1.259 . S
O245 Tb240 2.374 . S
O245 C241 1.251 . S
C246 O250 1.275 . S
C246 O251 1.246 . S
O247 C241 1.263 . S
O247 Tb242 2.353 . S
C248 O252 1.245 . S
C248 O253 1.259 . S
C249 O254 1.250 . S
C249 O255 1.263 . S
O250 Tb242 2.427 . S
O250 C246 1.275 . S
O251 Tb242 2.513 . S
O251 C246 1.246 . S
O252 Tb242 2.453 . S
O252 C248 1.245 . S
O253 Tb240 2.343 . S
O253 Tb242 2.596 . S
O253 C248 1.259 . S
O254 Tb242 2.374 . S
O254 C249 1.250 . S
O255 Tb240 2.353 . S
O255 C249 1.263 . S
C256 O257 1.275 . S
C256 O258 1.246 . S
O257 Tb240 2.427 . S
O257 C256 1.275 . S
O258 Tb240 2.513 . S
O258 C256 1.246 . S
C259 O243 1.245 . S
C259 O244 1.259 . S
Tb260 O263 2.453 . S
Tb260 O264 2.596 . S
Tb260 O265 2.374 . S
Tb260 O273 2.343 1_455 S
Tb260 O275 2.353 . S
Tb260 O277 2.427 . S
Tb260 O278 2.513 . S
C261 O265 1.251 1_655 S
C261 O267 1.263 . S
Tb262 O264 2.343 1_655 S
Tb262 O267 2.353 . S
Tb262 O270 2.427 . S
Tb262 O271 2.513 . S
Tb262 O272 2.453 . S
Tb262 O273 2.596 . S
Tb262 O274 2.374 . S
O263 Tb260 2.453 . S
O263 C279 1.245 . S
O264 Tb260 2.596 . S
O264 Tb262 2.343 1_455 S
O264 C279 1.259 . S
O265 Tb260 2.374 . S
O265 C261 1.251 1_455 S
C266 O270 1.275 1_556 S
C266 O271 1.246 1_556 S
O267 C261 1.263 . S
O267 Tb262 2.353 . S
C268 O272 1.245 . S
C268 O273 1.259 . S
C269 O274 1.250 1_455 S
C269 O275 1.263 . S
O270 Tb262 2.427 . S
O270 C266 1.275 1_554 S
O271 Tb262 2.513 . S
O271 C266 1.246 1_554 S
O272 Tb262 2.453 . S
O272 C268 1.245 . S
O273 Tb260 2.343 1_655 S
O273 Tb262 2.596 . S
O273 C268 1.259 . S
O274 Tb262 2.374 . S
O274 C269 1.250 1_655 S
O275 Tb260 2.353 . S
O275 C269 1.263 . S
C276 O277 1.275 . S
C276 O278 1.246 . S
O277 Tb260 2.427 . S
O277 C276 1.275 . S
O278 Tb260 2.513 . S
O278 C276 1.246 . S
C279 O263 1.245 . S
C279 O264 1.259 . S
Tb280 O283 2.453 . S
Tb280 O284 2.596 . S
Tb280 O285 2.374 . S
Tb280 O293 2.343 . S
Tb280 O295 2.353 . S
Tb280 O297 2.427 . S
Tb280 O298 2.513 . S
C281 O285 1.251 . S
C281 O287 1.263 . S
Tb282 O284 2.343 . S
Tb282 O287 2.353 . S
Tb282 O290 2.427 . S
Tb282 O291 2.513 . S
Tb282 O292 2.453 . S
Tb282 O293 2.596 . S
Tb282 O294 2.374 . S
O283 Tb280 2.453 . S
O283 C299 1.245 . S
O284 Tb280 2.596 . S
O284 Tb282 2.343 . S
O284 C299 1.259 . S
O285 Tb280 2.374 . S
O285 C281 1.251 . S
C286 O290 1.275 . S
C286 O291 1.246 . S
O287 C281 1.263 . S
O287 Tb282 2.353 . S
C288 O292 1.245 . S
C288 O293 1.259 . S
C289 O294 1.250 . S
C289 O295 1.263 . S
O290 Tb282 2.427 . S
O290 C286 1.275 . S
O291 Tb282 2.513 . S
O291 C286 1.246 . S
O292 Tb282 2.453 . S
O292 C288 1.245 . S
O293 Tb280 2.343 . S
O293 Tb282 2.596 . S
O293 C288 1.259 . S
O294 Tb282 2.374 . S
O294 C289 1.250 . S
O295 Tb280 2.353 . S
O295 C289 1.263 . S
C296 O297 1.275 . S
C296 O298 1.246 . S
O297 Tb280 2.427 . S
O297 C296 1.275 . S
O298 Tb280 2.513 . S
O298 C296 1.246 . S
C299 O283 1.245 . S
C299 O284 1.259 . S
Tb300 O303 2.453 . S
Tb300 O304 2.596 . S
Tb300 O305 2.374 . S
Tb300 O313 2.343 1_455 S
Tb300 O315 2.353 . S
Tb300 O317 2.427 . S
Tb300 O318 2.513 . S
C301 O305 1.251 1_655 S
C301 O307 1.263 . S
Tb302 O304 2.343 1_655 S
Tb302 O307 2.353 . S
Tb302 O310 2.427 . S
Tb302 O311 2.513 . S
Tb302 O312 2.453 . S
Tb302 O313 2.596 . S
Tb302 O314 2.374 . S
O303 Tb300 2.453 . S
O303 C319 1.245 . S
O304 Tb300 2.596 . S
O304 Tb302 2.343 1_455 S
O304 C319 1.259 . S
O305 Tb300 2.374 . S
O305 C301 1.251 1_455 S
C306 O310 1.275 1_554 S
C306 O311 1.246 1_554 S
O307 C301 1.263 . S
O307 Tb302 2.353 . S
C308 O312 1.245 . S
C308 O313 1.259 . S
C309 O314 1.250 1_455 S
C309 O315 1.263 . S
O310 Tb302 2.427 . S
O310 C306 1.275 1_556 S
O311 Tb302 2.513 . S
O311 C306 1.246 1_556 S
O312 Tb302 2.453 . S
O312 C308 1.245 . S
O313 Tb300 2.343 1_655 S
O313 Tb302 2.596 . S
O313 C308 1.259 . S
O314 Tb302 2.374 . S
O314 C309 1.250 1_655 S
O315 Tb300 2.353 . S
O315 C309 1.263 . S
C316 O317 1.275 . S
C316 O318 1.246 . S
O317 Tb300 2.427 . S
O317 C316 1.275 . S
O318 Tb300 2.513 . S
O318 C316 1.246 . S
C319 O303 1.245 . S
C319 O304 1.259 . S
H320 C326 0.930 . S
H321 C330 0.930 . S
H322 C335 0.929 1_554 S
H323 C333 0.929 . S
H324 C328 0.929 . S
H325 C334 0.929 . S
C326 H320 0.930 . S
C326 C327 1.367 . S
C326 C334 1.378 . S
C327 C326 1.367 . S
C327 C335 1.433 . S
C328 H324 0.929 . S
C328 C330 1.378 . S
C328 C332 1.350 . S
C329 C332 1.463 . S
C329 C334 1.350 . S
C329 N337 1.427 . S
C330 H321 0.930 . S
C330 C328 1.378 . S
C330 C331 1.367 . S
C331 C330 1.367 . S
C331 C333 1.433 . S
C332 C328 1.350 . S
C332 C329 1.463 . S
C332 N336 1.427 . S
C333 H323 0.929 . S
C333 C331 1.433 . S
C333 N336 1.384 . S
C334 H325 0.929 . S
C334 C326 1.378 . S
C334 C329 1.350 . S
C335 H322 0.929 1_556 S
C335 C327 1.433 . S
C335 N337 1.384 . S
N336 C332 1.427 . S
N336 C333 1.384 . S
N337 C329 1.427 . S
N337 C335 1.384 . S
H338 C344 0.930 . S
H339 C348 0.930 . S
H340 C353 0.929 . S
H341 C351 0.929 1_556 S
H342 C346 0.929 . S
H343 C352 0.929 . S
C344 H338 0.930 . S
C344 C345 1.367 . S
C344 C352 1.378 . S
C345 C344 1.367 . S
C345 C353 1.433 . S
C346 H342 0.929 . S
C346 C348 1.378 . S
C346 C350 1.350 . S
C347 C350 1.463 . S
C347 C352 1.350 . S
C347 N355 1.427 . S
C348 H339 0.930 . S
C348 C346 1.378 . S
C348 C349 1.367 . S
C349 C348 1.367 . S
C349 C351 1.433 . S
C350 C346 1.350 . S
C350 C347 1.463 . S
C350 N354 1.427 . S
C351 H341 0.929 1_554 S
C351 C349 1.433 . S
C351 N354 1.384 . S
C352 H343 0.929 . S
C352 C344 1.378 . S
C352 C347 1.350 . S
C353 H340 0.929 . S
C353 C345 1.433 . S
C353 N355 1.384 . S
N354 C350 1.427 . S
N354 C351 1.384 . S
N355 C347 1.427 . S
N355 C353 1.384 . S
H356 C362 0.930 . S
H357 C366 0.930 . S
H358 C371 0.929 . S
H359 C369 0.929 . S
H360 C364 0.929 . S
H361 C370 0.929 . S
C362 H356 0.930 . S
C362 C363 1.367 . S
C362 C370 1.378 . S
C363 C362 1.367 . S
C363 C371 1.433 . S
C364 H360 0.929 . S
C364 C366 1.378 . S
C364 C368 1.350 . S
C365 C368 1.463 . S
C365 C370 1.350 . S
C365 N373 1.427 . S
C366 H357 0.930 . S
C366 C364 1.378 . S
C366 C367 1.367 . S
C367 C366 1.367 . S
C367 C369 1.433 . S
C368 C364 1.350 . S
C368 C365 1.463 . S
C368 N372 1.427 . S
C369 H359 0.929 . S
C369 C367 1.433 . S
C369 N372 1.384 . S
C370 H361 0.929 . S
C370 C362 1.378 . S
C370 C365 1.350 . S
C371 H358 0.929 . S
C371 C363 1.433 . S
C371 N373 1.384 . S
N372 C368 1.427 . S
N372 C369 1.384 . S
N373 C365 1.427 . S
N373 C371 1.384 . S
H374 C380 0.930 . S
H375 C384 0.930 . S
H376 C389 0.929 . S
H377 C387 0.929 . S
H378 C382 0.929 . S
H379 C388 0.929 . S
C380 H374 0.930 . S
C380 C381 1.367 . S
C380 C388 1.378 . S
C381 C380 1.367 . S
C381 C389 1.433 . S
C382 H378 0.929 . S
C382 C384 1.378 . S
C382 C386 1.350 . S
C383 C386 1.463 . S
C383 C388 1.350 . S
C383 N391 1.427 . S
C384 H375 0.930 . S
C384 C382 1.378 . S
C384 C385 1.367 . S
C385 C384 1.367 . S
C385 C387 1.433 . S
C386 C382 1.350 . S
C386 C383 1.463 . S
C386 N390 1.427 . S
C387 H377 0.929 . S
C387 C385 1.433 . S
C387 N390 1.384 . S
C388 H379 0.929 . S
C388 C380 1.378 . S
C388 C383 1.350 . S
C389 H376 0.929 . S
C389 C381 1.433 . S
C389 N391 1.384 . S
N390 C386 1.427 . S
N390 C387 1.384 . S
N391 C383 1.427 . S
N391 C389 1.384 . S
H392 C398 0.930 . S
H393 C402 0.930 . S
H394 C407 0.929 . S
H395 C405 0.929 . S
H396 C400 0.929 . S
H397 C406 0.929 . S
C398 H392 0.930 . S
C398 C399 1.367 . S
C398 C406 1.378 . S
C399 C398 1.367 . S
C399 C407 1.433 . S
C400 H396 0.929 . S
C400 C402 1.378 1_554 S
C400 C404 1.350 . S
C401 C404 1.463 . S
C401 C406 1.350 . S
C401 N409 1.427 . S
C402 H393 0.930 . S
C402 C400 1.378 1_556 S
C402 C403 1.367 1_655 S
C403 C402 1.367 1_455 S
C403 C405 1.433 1_556 S
C404 C400 1.350 . S
C404 C401 1.463 . S
C404 N408 1.427 . S
C405 H395 0.929 . S
C405 C403 1.433 1_554 S
C405 N408 1.384 1_455 S
C406 H397 0.929 . S
C406 C398 1.378 . S
C406 C401 1.350 . S
C407 H394 0.929 . S
C407 C399 1.433 . S
C407 N409 1.384 . S
N408 C404 1.427 . S
N408 C405 1.384 1_655 S
N409 C401 1.427 . S
N409 C407 1.384 . S
H410 C416 0.930 . S
H411 C420 0.930 1_554 S
H412 C425 0.929 . S
H413 C423 0.929 . S
H414 C418 0.929 . S
H415 C424 0.929 . S
C416 H410 0.930 . S
C416 C417 1.367 . S
C416 C424 1.378 . S
C417 C416 1.367 . S
C417 C425 1.433 . S
C418 H414 0.929 . S
C418 C420 1.378 . S
C418 C422 1.350 . S
C419 C422 1.463 . S
C419 C424 1.350 . S
C419 N427 1.427 . S
C420 H411 0.930 1_556 S
C420 C418 1.378 . S
C420 C421 1.367 1_656 S
C421 C420 1.367 1_454 S
C421 C423 1.433 1_554 S
C422 C418 1.350 . S
C422 C419 1.463 . S
C422 N426 1.427 . S
C423 H413 0.929 . S
C423 C421 1.433 1_556 S
C423 N426 1.384 1_455 S
C424 H415 0.929 . S
C424 C416 1.378 . S
C424 C419 1.350 . S
C425 H412 0.929 . S
C425 C417 1.433 . S
C425 N427 1.384 . S
N426 C422 1.427 . S
N426 C423 1.384 1_655 S
N427 C419 1.427 . S
N427 C425 1.384 . S
H428 C434 0.930 . S
H429 C438 0.930 . S
H430 C443 0.929 . S
H431 C441 0.929 . S
H432 C436 0.929 . S
H433 C442 0.929 . S
C434 H428 0.930 . S
C434 C435 1.367 . S
C434 C442 1.378 . S
C435 C434 1.367 . S
C435 C443 1.433 . S
C436 H432 0.929 . S
C436 C438 1.378 . S
C436 C440 1.350 . S
C437 C440 1.463 . S
C437 C442 1.350 . S
C437 N445 1.427 . S
C438 H429 0.930 . S
C438 C436 1.378 . S
C438 C439 1.367 . S
C439 C438 1.367 . S
C439 C441 1.433 . S
C440 C436 1.350 . S
C440 C437 1.463 . S
C440 N444 1.427 . S
C441 H431 0.929 . S
C441 C439 1.433 . S
C441 N444 1.384 . S
C442 H433 0.929 . S
C442 C434 1.378 . S
C442 C437 1.350 . S
C443 H430 0.929 . S
C443 C435 1.433 . S
C443 N445 1.384 . S
N444 C440 1.427 . S
N444 C441 1.384 . S
N445 C437 1.427 . S
N445 C443 1.384 . S
H446 C452 0.930 . S
H447 C456 0.930 . S
H448 C461 0.929 . S
H449 C459 0.929 . S
H450 C454 0.929 . S
H451 C460 0.929 . S
C452 H446 0.930 . S
C452 C453 1.367 . S
C452 C460 1.378 . S
C453 C452 1.367 . S
C453 C461 1.433 . S
C454 H450 0.929 . S
C454 C456 1.378 . S
C454 C458 1.350 . S
C455 C458 1.463 . S
C455 C460 1.350 . S
C455 N463 1.427 . S
C456 H447 0.930 . S
C456 C454 1.378 . S
C456 C457 1.367 . S
C457 C456 1.367 . S
C457 C459 1.433 . S
C458 C454 1.350 . S
C458 C455 1.463 . S
C458 N462 1.427 . S
C459 H449 0.929 . S
C459 C457 1.433 . S
C459 N462 1.384 . S
C460 H451 0.929 . S
C460 C452 1.378 . S
C460 C455 1.350 . S
C461 H448 0.929 . S
C461 C453 1.433 . S
C461 N463 1.384 . S
N462 C458 1.427 . S
N462 C459 1.384 . S
N463 C455 1.427 . S
N463 C461 1.384 . S
H464 C470 0.930 . S
H465 C474 0.930 . S
H466 C479 0.929 . S
H467 C477 0.929 . S
H468 C472 0.929 . S
H469 C478 0.929 . S
C470 H464 0.930 . S
C470 C471 1.367 . S
C470 C478 1.378 . S
C471 C470 1.367 . S
C471 C479 1.433 . S
C472 H468 0.929 . S
C472 C474 1.378 . S
C472 C476 1.350 . S
C473 C476 1.463 . S
C473 C478 1.350 . S
C473 N481 1.427 . S
C474 H465 0.930 . S
C474 C472 1.378 . S
C474 C475 1.367 . S
C475 C474 1.367 . S
C475 C477 1.433 . S
C476 C472 1.350 . S
C476 C473 1.463 . S
C476 N480 1.427 . S
C477 H467 0.929 . S
C477 C475 1.433 . S
C477 N480 1.384 . S
C478 H469 0.929 . S
C478 C470 1.378 . S
C478 C473 1.350 . S
C479 H466 0.929 . S
C479 C471 1.433 . S
C479 N481 1.384 . S
N480 C476 1.427 . S
N480 C477 1.384 . S
N481 C473 1.427 . S
N481 C479 1.384 . S
H482 C488 0.930 . S
H483 C492 0.930 . S
H484 C497 0.929 . S
H485 C495 0.929 . S
H486 C490 0.929 . S
H487 C496 0.929 . S
C488 H482 0.930 . S
C488 C489 1.367 . S
C488 C496 1.378 . S
C489 C488 1.367 . S
C489 C497 1.433 . S
C490 H486 0.929 . S
C490 C492 1.378 . S
C490 C494 1.350 . S
C491 C494 1.463 . S
C491 C496 1.350 . S
C491 N499 1.427 . S
C492 H483 0.930 . S
C492 C490 1.378 . S
C492 C493 1.367 . S
C493 C492 1.367 . S
C493 C495 1.433 . S
C494 C490 1.350 . S
C494 C491 1.463 . S
C494 N498 1.427 . S
C495 H485 0.929 . S
C495 C493 1.433 . S
C495 N498 1.384 . S
C496 H487 0.929 . S
C496 C488 1.378 . S
C496 C491 1.350 . S
C497 H484 0.929 . S
C497 C489 1.433 . S
C497 N499 1.384 . S
N498 C494 1.427 . S
N498 C495 1.384 . S
N499 C491 1.427 . S
N499 C497 1.384 . S
H500 C506 0.930 . S
H501 C510 0.930 . S
H502 C515 0.929 . S
H503 C513 0.929 . S
H504 C508 0.929 . S
H505 C514 0.929 . S
C506 H500 0.930 . S
C506 C507 1.367 . S
C506 C514 1.378 . S
C507 C506 1.367 . S
C507 C515 1.433 . S
C508 H504 0.929 . S
C508 C510 1.378 . S
C508 C512 1.350 . S
C509 C512 1.463 . S
C509 C514 1.350 . S
C509 N517 1.427 . S
C510 H501 0.930 . S
C510 C508 1.378 . S
C510 C511 1.367 . S
C511 C510 1.367 . S
C511 C513 1.433 . S
C512 C508 1.350 . S
C512 C509 1.463 . S
C512 N516 1.427 . S
C513 H503 0.929 . S
C513 C511 1.433 . S
C513 N516 1.384 . S
C514 H505 0.929 . S
C514 C506 1.378 . S
C514 C509 1.350 . S
C515 H502 0.929 . S
C515 C507 1.433 . S
C515 N517 1.384 . S
N516 C512 1.427 . S
N516 C513 1.384 . S
N517 C509 1.427 . S
N517 C515 1.384 . S
H518 C524 0.930 . S
H519 C528 0.930 . S
H520 C533 0.929 . S
H521 C531 0.929 . S
H522 C526 0.929 . S
H523 C532 0.929 . S
C524 H518 0.930 . S
C524 C525 1.367 . S
C524 C532 1.378 . S
C525 C524 1.367 . S
C525 C533 1.433 . S
C526 H522 0.929 . S
C526 C528 1.378 . S
C526 C530 1.350 . S
C527 C530 1.463 . S
C527 C532 1.350 . S
C527 N535 1.427 . S
C528 H519 0.930 . S
C528 C526 1.378 . S
C528 C529 1.367 . S
C529 C528 1.367 . S
C529 C531 1.433 . S
C530 C526 1.350 . S
C530 C527 1.463 . S
C530 N534 1.427 . S
C531 H521 0.929 . S
C531 C529 1.433 . S
C531 N534 1.384 . S
C532 H523 0.929 . S
C532 C524 1.378 . S
C532 C527 1.350 . S
C533 H520 0.929 . S
C533 C525 1.433 . S
C533 N535 1.384 . S
N534 C530 1.427 . S
N534 C531 1.384 . S
N535 C527 1.427 . S
N535 C533 1.384 . S
H536 C542 0.930 . S
H537 C546 0.930 . S
H538 C551 0.929 . S
H539 C549 0.929 . S
H540 C544 0.929 . S
H541 C550 0.929 . S
C542 H536 0.930 . S
C542 C543 1.367 . S
C542 C550 1.378 . S
C543 C542 1.367 . S
C543 C551 1.433 . S
C544 H540 0.929 . S
C544 C546 1.378 . S
C544 C548 1.350 . S
C545 C548 1.463 . S
C545 C550 1.350 . S
C545 N553 1.427 . S
C546 H537 0.930 . S
C546 C544 1.378 . S
C546 C547 1.367 . S
C547 C546 1.367 . S
C547 C549 1.433 . S
C548 C544 1.350 . S
C548 C545 1.463 . S
C548 N552 1.427 . S
C549 H539 0.929 . S
C549 C547 1.433 . S
C549 N552 1.384 . S
C550 H541 0.929 . S
C550 C542 1.378 . S
C550 C545 1.350 . S
C551 H538 0.929 . S
C551 C543 1.433 . S
C551 N553 1.384 . S
N552 C548 1.427 . S
N552 C549 1.384 . S
N553 C545 1.427 . S
N553 C551 1.384 . S
H554 C560 0.930 . S
H555 C564 0.930 . S
H556 C569 0.929 . S
H557 C567 0.929 . S
H558 C562 0.929 . S
H559 C568 0.929 . S
C560 H554 0.930 . S
C560 C561 1.367 . S
C560 C568 1.378 . S
C561 C560 1.367 . S
C561 C569 1.433 . S
C562 H558 0.929 . S
C562 C564 1.378 . S
C562 C566 1.350 . S
C563 C566 1.463 . S
C563 C568 1.350 . S
C563 N571 1.427 . S
C564 H555 0.930 . S
C564 C562 1.378 . S
C564 C565 1.367 . S
C565 C564 1.367 . S
C565 C567 1.433 . S
C566 C562 1.350 . S
C566 C563 1.463 . S
C566 N570 1.427 . S
C567 H557 0.929 . S
C567 C565 1.433 . S
C567 N570 1.384 . S
C568 H559 0.929 . S
C568 C560 1.378 . S
C568 C563 1.350 . S
C569 H556 0.929 . S
C569 C561 1.433 . S
C569 N571 1.384 . S
N570 C566 1.427 . S
N570 C567 1.384 . S
N571 C563 1.427 . S
N571 C569 1.384 . S
H572 C578 0.930 . S
H573 C582 0.930 . S
H574 C587 0.929 . S
H575 C585 0.929 . S
H576 C580 0.929 . S
H577 C586 0.929 . S
C578 H572 0.930 . S
C578 C579 1.367 . S
C578 C586 1.378 . S
C579 C578 1.367 . S
C579 C587 1.433 . S
C580 H576 0.929 . S
C580 C582 1.378 . S
C580 C584 1.350 . S
C581 C584 1.463 . S
C581 C586 1.350 . S
C581 N589 1.427 . S
C582 H573 0.930 . S
C582 C580 1.378 . S
C582 C583 1.367 . S
C583 C582 1.367 . S
C583 C585 1.433 . S
C584 C580 1.350 . S
C584 C581 1.463 . S
C584 N588 1.427 . S
C585 H575 0.929 . S
C585 C583 1.433 . S
C585 N588 1.384 . S
C586 H577 0.929 . S
C586 C578 1.378 . S
C586 C581 1.350 . S
C587 H574 0.929 . S
C587 C579 1.433 . S
C587 N589 1.384 . S
N588 C584 1.427 . S
N588 C585 1.384 . S
N589 C581 1.427 . S
N589 C587 1.384 . S
H590 C596 0.930 . S
H591 C600 0.930 1_554 S
H592 C605 0.929 . S
H593 C603 0.929 . S
H594 C598 0.929 . S
H595 C604 0.929 . S
C596 H590 0.930 . S
C596 C597 1.367 . S
C596 C604 1.378 . S
C597 C596 1.367 . S
C597 C605 1.433 . S
C598 H594 0.929 . S
C598 C600 1.378 . S
C598 C602 1.350 . S
C599 C602 1.463 . S
C599 C604 1.350 . S
C599 N607 1.427 . S
C600 H591 0.930 1_556 S
C600 C598 1.378 . S
C600 C601 1.367 . S
C601 C600 1.367 . S
C601 C603 1.433 . S
C602 C598 1.350 . S
C602 C599 1.463 . S
C602 N606 1.427 . S
C603 H593 0.929 . S
C603 C601 1.433 . S
C603 N606 1.384 . S
C604 H595 0.929 . S
C604 C596 1.378 . S
C604 C599 1.350 . S
C605 H592 0.929 . S
C605 C597 1.433 . S
C605 N607 1.384 . S
N606 C602 1.427 . S
N606 C603 1.384 . S
N607 C599 1.427 . S
N607 C605 1.384 . S
H608 C614 0.930 . S
H609 C618 0.930 . S
H610 C623 0.929 . S
H611 C621 0.929 . S
H612 C616 0.929 . S
H613 C622 0.929 . S
C614 H608 0.930 . S
C614 C615 1.371 . S
C614 C622 1.378 . S
C615 C614 1.371 . S
C615 C623 1.427 1_655 S
C616 H612 0.929 . S
C616 C618 1.378 . S
C616 C620 1.350 . S
C617 C620 1.463 . S
C617 C622 1.350 1_455 S
C617 N625 1.427 . S
C618 H609 0.930 . S
C618 C616 1.378 . S
C618 C619 1.367 . S
C619 C618 1.367 . S
C619 C621 1.433 . S
C620 C616 1.350 . S
C620 C617 1.463 . S
C620 N624 1.427 . S
C621 H611 0.929 . S
C621 C619 1.433 . S
C621 N624 1.384 . S
C622 H613 0.929 . S
C622 C614 1.378 . S
C622 C617 1.350 1_655 S
C623 H610 0.929 . S
C623 C615 1.427 1_455 S
C623 N625 1.384 . S
N624 C620 1.427 . S
N624 C621 1.384 . S
N625 C617 1.427 . S
N625 C623 1.384 . S
H626 C632 0.930 . S
H627 C636 0.930 . S
H628 C641 0.929 . S
H629 C639 0.929 . S
H630 C634 0.929 . S
H631 C640 0.929 1_455 S
C632 H626 0.930 . S
C632 C633 1.367 . S
C632 C640 1.378 . S
C633 C632 1.367 . S
C633 C641 1.433 . S
C634 H630 0.929 . S
C634 C636 1.378 . S
C634 C638 1.350 . S
C635 C638 1.463 . S
C635 C640 1.350 1_455 S
C635 N643 1.418 1_455 S
C636 H627 0.930 . S
C636 C634 1.378 . S
C636 C637 1.367 . S
C637 C636 1.367 . S
C637 C639 1.433 . S
C638 C634 1.350 . S
C638 C635 1.463 . S
C638 N642 1.427 . S
C639 H629 0.929 . S
C639 C637 1.433 . S
C639 N642 1.384 . S
C640 H631 0.929 1_655 S
C640 C632 1.378 . S
C640 C635 1.350 1_655 S
C641 H628 0.929 . S
C641 C633 1.433 . S
C641 N643 1.407 . S
N642 C638 1.427 . S
N642 C639 1.384 . S
N643 C635 1.418 1_655 S
N643 C641 1.407 . S
H644 C650 0.930 . S
H645 C654 0.930 . S
H646 C659 0.929 . S
H647 C657 0.929 . S
H648 C652 0.929 . S
H649 C658 0.929 . S
C650 H644 0.930 . S
C650 C651 1.367 . S
C650 C658 1.378 . S
C651 C650 1.367 . S
C651 C659 1.433 . S
C652 H648 0.929 . S
C652 C654 1.378 . S
C652 C656 1.350 . S
C653 C656 1.463 . S
C653 C658 1.350 . S
C653 N661 1.427 . S
C654 H645 0.930 . S
C654 C652 1.378 . S
C654 C655 1.367 . S
C655 C654 1.367 . S
C655 C657 1.433 . S
C656 C652 1.350 . S
C656 C653 1.463 . S
C656 N660 1.427 . S
C657 H647 0.929 . S
C657 C655 1.433 . S
C657 N660 1.384 . S
C658 H649 0.929 . S
C658 C650 1.378 . S
C658 C653 1.350 . S
C659 H646 0.929 . S
C659 C651 1.433 . S
C659 N661 1.384 . S
N660 C656 1.427 . S
N660 C657 1.384 . S
N661 C653 1.427 . S
N661 C659 1.384 . S
H662 C668 0.930 . S
H663 C672 0.930 . S
H664 C677 0.929 . S
H665 C675 0.929 . S
H666 C670 0.929 . S
H667 C676 0.929 . S
C668 H662 0.930 . S
C668 C669 1.367 . S
C668 C676 1.378 . S
C669 C668 1.367 . S
C669 C677 1.433 . S
C670 H666 0.929 . S
C670 C672 1.378 . S
C670 C674 1.350 . S
C671 C674 1.463 . S
C671 C676 1.350 . S
C671 N679 1.427 . S
C672 H663 0.930 . S
C672 C670 1.378 . S
C672 C673 1.367 . S
C673 C672 1.367 . S
C673 C675 1.433 . S
C674 C670 1.350 . S
C674 C671 1.463 . S
C674 N678 1.427 . S
C675 H665 0.929 . S
C675 C673 1.433 . S
C675 N678 1.384 . S
C676 H667 0.929 . S
C676 C668 1.378 . S
C676 C671 1.350 . S
C677 H664 0.929 . S
C677 C669 1.433 . S
C677 N679 1.384 . S
N678 C674 1.427 . S
N678 C675 1.384 . S
N679 C671 1.427 . S
N679 C677 1.384 . S
H680 C686 0.930 . S
H681 C690 0.930 . S
H682 C695 0.929 . S
H683 C693 0.929 . S
H684 C688 0.929 . S
H685 C694 0.929 1_655 S
C686 H680 0.930 . S
C686 C687 1.367 . S
C686 C694 1.378 . S
C687 C686 1.367 . S
C687 C695 1.433 . S
C688 H684 0.929 . S
C688 C690 1.378 . S
C688 C692 1.350 . S
C689 C692 1.463 . S
C689 C694 1.350 . S
C689 N697 1.427 . S
C690 H681 0.930 . S
C690 C688 1.378 . S
C690 C691 1.387 . S
C691 C690 1.387 . S
C691 C693 1.420 1_455 S
C692 C688 1.350 . S
C692 C689 1.463 . S
C692 N696 1.427 1_455 S
C693 H683 0.929 . S
C693 C691 1.420 1_655 S
C693 N696 1.384 . S
C694 H685 0.929 1_455 S
C694 C686 1.378 . S
C694 C689 1.350 . S
C695 H682 0.929 . S
C695 C687 1.433 . S
C695 N697 1.384 . S
N696 C692 1.427 1_655 S
N696 C693 1.384 . S
N697 C689 1.427 . S
N697 C695 1.384 . S
H698 C704 0.930 . S
H699 C708 0.930 . S
H700 C713 0.929 . S
H701 C711 0.929 . S
H702 C706 0.929 . S
H703 C712 0.929 . S
C704 H698 0.930 . S
C704 C705 1.367 . S
C704 C712 1.378 . S
C705 C704 1.367 . S
C705 C713 1.433 . S
C706 H702 0.929 . S
C706 C708 1.378 . S
C706 C710 1.350 . S
C707 C710 1.463 . S
C707 C712 1.350 . S
C707 N715 1.427 . S
C708 H699 0.930 . S
C708 C706 1.378 . S
C708 C709 1.367 . S
C709 C708 1.367 . S
C709 C711 1.433 . S
C710 C706 1.350 . S
C710 C707 1.463 . S
C710 N714 1.427 . S
C711 H701 0.929 . S
C711 C709 1.433 . S
C711 N714 1.384 . S
C712 H703 0.929 . S
C712 C704 1.378 . S
C712 C707 1.350 . S
C713 H700 0.929 . S
C713 C705 1.433 . S
C713 N715 1.384 . S
N714 C710 1.427 . S
N714 C711 1.384 . S
N715 C707 1.427 . S
N715 C713 1.384 . S
H716 C722 0.930 . S
H717 C726 0.930 . S
H718 C731 0.929 . S
H719 C729 0.929 . S
H720 C724 0.929 . S
H721 C730 0.929 . S
C722 H716 0.930 . S
C722 C723 1.367 . S
C722 C730 1.378 . S
C723 C722 1.367 . S
C723 C731 1.433 . S
C724 H720 0.929 . S
C724 C726 1.378 . S
C724 C728 1.350 . S
C725 C728 1.463 . S
C725 C730 1.350 . S
C725 N733 1.427 . S
C726 H717 0.930 . S
C726 C724 1.378 . S
C726 C727 1.367 . S
C727 C726 1.367 . S
C727 C729 1.433 . S
C728 C724 1.350 . S
C728 C725 1.463 . S
C728 N732 1.427 . S
C729 H719 0.929 . S
C729 C727 1.433 . S
C729 N732 1.384 . S
C730 H721 0.929 . S
C730 C722 1.378 . S
C730 C725 1.350 . S
C731 H718 0.929 . S
C731 C723 1.433 . S
C731 N733 1.384 . S
N732 C728 1.427 . S
N732 C729 1.384 . S
N733 C725 1.427 . S
N733 C731 1.384 . S
H734 C740 0.930 . S
H735 C744 0.930 . S
H736 C749 0.929 . S
H737 C747 0.929 . S
H738 C742 0.929 1_455 S
H739 C748 0.929 . S
C740 H734 0.930 . S
C740 C741 1.367 . S
C740 C748 1.378 . S
C741 C740 1.367 . S
C741 C749 1.433 . S
C742 H738 0.929 1_655 S
C742 C744 1.378 . S
C742 C746 1.350 1_655 S
C743 C746 1.463 . S
C743 C748 1.350 . S
C743 N751 1.427 . S
C744 H735 0.930 . S
C744 C742 1.378 . S
C744 C745 1.367 . S
C745 C744 1.367 . S
C745 C747 1.433 . S
C746 C742 1.350 1_455 S
C746 C743 1.463 . S
C746 N750 1.427 1_455 S
C747 H737 0.929 . S
C747 C745 1.433 . S
C747 N750 1.384 . S
C748 H739 0.929 . S
C748 C740 1.378 . S
C748 C743 1.350 . S
C749 H736 0.929 . S
C749 C741 1.433 . S
C749 N751 1.384 . S
N750 C746 1.427 1_655 S
N750 C747 1.384 . S
N751 C743 1.427 . S
N751 C749 1.384 . S
H752 C758 0.930 . S
H753 C762 0.930 . S
H754 C767 0.929 . S
H755 C765 0.929 . S
H756 C760 0.929 1_545 S
H757 C766 0.929 1_565 S
C758 H752 0.930 . S
C758 C759 1.367 . S
C758 C766 1.378 . S
C759 C758 1.367 . S
C759 C767 1.433 . S
C760 H756 0.929 1_565 S
C760 C762 1.378 . S
C760 C764 1.350 . S
C761 C764 1.463 1_544 S
C761 C766 1.350 . S
C761 N769 1.427 . S
C762 H753 0.930 . S
C762 C760 1.378 . S
C762 C763 1.367 . S
C763 C762 1.367 . S
C763 C765 1.433 . S
C764 C760 1.350 . S
C764 C761 1.463 1_566 S
C764 N768 1.427 . S
C765 H755 0.929 . S
C765 C763 1.433 . S
C765 N768 1.384 . S
C766 H757 0.929 1_545 S
C766 C758 1.378 . S
C766 C761 1.350 . S
C767 H754 0.929 . S
C767 C759 1.433 . S
C767 N769 1.384 . S
N768 C764 1.427 . S
N768 C765 1.384 . S
N769 C761 1.427 . S
N769 C767 1.384 . S
H770 C776 0.930 . S
H771 C780 0.930 . S
H772 C785 0.929 . S
H773 C783 0.929 . S
H774 C778 0.929 . S
H775 C784 0.929 . S
C776 H770 0.930 . S
C776 C777 1.367 . S
C776 C784 1.378 . S
C777 C776 1.367 . S
C777 C785 1.433 . S
C778 H774 0.929 . S
C778 C780 1.378 . S
C778 C782 1.350 . S
C779 C782 1.463 . S
C779 C784 1.350 . S
C779 N787 1.427 . S
C780 H771 0.930 . S
C780 C778 1.378 . S
C780 C781 1.367 . S
C781 C780 1.367 . S
C781 C783 1.433 . S
C782 C778 1.350 . S
C782 C779 1.463 . S
C782 N786 1.427 . S
C783 H773 0.929 . S
C783 C781 1.433 . S
C783 N786 1.384 . S
C784 H775 0.929 . S
C784 C776 1.378 . S
C784 C779 1.350 . S
C785 H772 0.929 . S
C785 C777 1.433 . S
C785 N787 1.384 . S
N786 C782 1.427 . S
N786 C783 1.384 . S
N787 C779 1.427 . S
N787 C785 1.384 . S
H788 C794 0.930 . S
H789 C798 0.930 . S
H790 C803 0.929 . S
H791 C801 0.929 . S
H792 C796 0.929 . S
H793 C802 0.929 . S
C794 H788 0.930 . S
C794 C795 1.367 . S
C794 C802 1.378 . S
C795 C794 1.367 . S
C795 C803 1.433 . S
C796 H792 0.929 . S
C796 C798 1.378 . S
C796 C800 1.350 . S
C797 C800 1.463 1_545 S
C797 C802 1.350 . S
C797 N805 1.427 . S
C798 H789 0.930 . S
C798 C796 1.378 . S
C798 C799 1.367 . S
C799 C798 1.367 . S
C799 C801 1.433 . S
C800 C796 1.350 . S
C800 C797 1.463 1_565 S
C800 N804 1.427 . S
C801 H791 0.929 . S
C801 C799 1.433 . S
C801 N804 1.384 . S
C802 H793 0.929 . S
C802 C794 1.378 . S
C802 C797 1.350 . S
C803 H790 0.929 . S
C803 C795 1.433 . S
C803 N805 1.384 . S
N804 C800 1.427 . S
N804 C801 1.384 . S
N805 C797 1.427 . S
N805 C803 1.384 . S
H806 C812 0.930 . S
H807 C816 0.930 . S
H808 C821 0.929 . S
H809 C819 0.929 . S
H810 C814 0.929 . S
H811 C820 0.929 . S
C812 H806 0.930 . S
C812 C813 1.367 . S
C812 C820 1.378 . S
C813 C812 1.367 . S
C813 C821 1.433 . S
C814 H810 0.929 . S
C814 C816 1.378 . S
C814 C818 1.350 . S
C815 C818 1.463 . S
C815 C820 1.350 . S
C815 N823 1.427 . S
C816 H807 0.930 . S
C816 C814 1.378 . S
C816 C817 1.367 . S
C817 C816 1.367 . S
C817 C819 1.433 . S
C818 C814 1.350 . S
C818 C815 1.463 . S
C818 N822 1.427 . S
C819 H809 0.929 . S
C819 C817 1.433 . S
C819 N822 1.384 . S
C820 H811 0.929 . S
C820 C812 1.378 . S
C820 C815 1.350 . S
C821 H808 0.929 . S
C821 C813 1.433 . S
C821 N823 1.384 . S
N822 C818 1.427 . S
N822 C819 1.384 . S
N823 C815 1.427 . S
N823 C821 1.384 . S
H824 C830 0.930 . S
H825 C834 0.930 . S
H826 C839 0.929 . S
H827 C837 0.929 . S
H828 C832 0.929 . S
H829 C838 0.929 . S
C830 H824 0.930 . S
C830 C831 1.367 . S
C830 C838 1.378 . S
C831 C830 1.367 . S
C831 C839 1.433 . S
C832 H828 0.929 . S
C832 C834 1.378 . S
C832 C836 1.350 . S
C833 C836 1.463 . S
C833 C838 1.350 . S
C833 N841 1.427 . S
C834 H825 0.930 . S
C834 C832 1.378 . S
C834 C835 1.367 . S
C835 C834 1.367 . S
C835 C837 1.433 . S
C836 C832 1.350 . S
C836 C833 1.463 . S
C836 N840 1.427 . S
C837 H827 0.929 . S
C837 C835 1.433 . S
C837 N840 1.384 . S
C838 H829 0.929 . S
C838 C830 1.378 . S
C838 C833 1.350 . S
C839 H826 0.929 . S
C839 C831 1.433 . S
C839 N841 1.384 . S
N840 C836 1.427 . S
N840 C837 1.384 . S
N841 C833 1.427 . S
N841 C839 1.384 . S
H842 C848 0.930 . S
H843 C852 0.930 . S
H844 C857 0.929 . S
H845 C855 0.929 . S
H846 C850 0.929 . S
H847 C856 0.929 . S
C848 H842 0.930 . S
C848 C849 1.367 . S
C848 C856 1.378 . S
C849 C848 1.367 . S
C849 C857 1.433 . S
C850 H846 0.929 . S
C850 C852 1.378 . S
C850 C854 1.350 . S
C851 C854 1.463 . S
C851 C856 1.350 . S
C851 N859 1.427 . S
C852 H843 0.930 . S
C852 C850 1.378 . S
C852 C853 1.367 . S
C853 C852 1.367 . S
C853 C855 1.433 . S
C854 C850 1.350 . S
C854 C851 1.463 . S
C854 N858 1.427 . S
C855 H845 0.929 . S
C855 C853 1.433 . S
C855 N858 1.384 . S
C856 H847 0.929 . S
C856 C848 1.378 . S
C856 C851 1.350 . S
C857 H844 0.929 . S
C857 C849 1.433 . S
C857 N859 1.384 . S
N858 C854 1.427 . S
N858 C855 1.384 . S
N859 C851 1.427 . S
N859 C857 1.384 . S
H860 C866 0.930 . S
H861 C870 0.930 . S
H862 C875 0.929 . S
H863 C873 0.929 . S
H864 C868 0.929 . S
H865 C874 0.929 . S
C866 H860 0.930 . S
C866 C867 1.367 . S
C866 C874 1.378 . S
C867 C866 1.367 . S
C867 C875 1.433 . S
C868 H864 0.929 . S
C868 C870 1.378 . S
C868 C872 1.350 . S
C869 C872 1.463 . S
C869 C874 1.350 . S
C869 N877 1.427 . S
C870 H861 0.930 . S
C870 C868 1.378 . S
C870 C871 1.367 . S
C871 C870 1.367 . S
C871 C873 1.433 . S
C872 C868 1.350 . S
C872 C869 1.463 . S
C872 N876 1.427 . S
C873 H863 0.929 . S
C873 C871 1.433 . S
C873 N876 1.384 . S
C874 H865 0.929 . S
C874 C866 1.378 . S
C874 C869 1.350 . S
C875 H862 0.929 . S
C875 C867 1.433 . S
C875 N877 1.384 . S
N876 C872 1.427 . S
N876 C873 1.384 . S
N877 C869 1.427 . S
N877 C875 1.384 . S
H878 C884 0.930 . S
H879 C888 0.930 . S
H880 C893 0.929 . S
H881 C891 0.929 . S
H882 C886 0.929 . S
H883 C892 0.929 . S
C884 H878 0.930 . S
C884 C885 1.367 1_455 S
C884 C892 1.378 . S
C885 C884 1.367 1_655 S
C885 C893 1.433 . S
C886 H882 0.929 . S
C886 C888 1.378 . S
C886 C890 1.350 . S
C887 C890 1.463 1_556 S
C887 C892 1.350 1_655 S
C887 N895 1.427 . S
C888 H879 0.930 . S
C888 C886 1.378 . S
C888 C889 1.367 . S
C889 C888 1.367 . S
C889 C891 1.433 1_655 S
C890 C886 1.350 . S
C890 C887 1.463 1_554 S
C890 N894 1.427 1_655 S
C891 H881 0.929 . S
C891 C889 1.433 1_455 S
C891 N894 1.384 . S
C892 H883 0.929 . S
C892 C884 1.378 . S
C892 C887 1.350 1_455 S
C893 H880 0.929 . S
C893 C885 1.433 . S
C893 N895 1.384 . S
N894 C890 1.427 1_455 S
N894 C891 1.384 . S
N895 C887 1.427 . S
N895 C893 1.384 . S
H896 C902 0.930 . S
H897 C906 0.930 . S
H898 C911 0.929 . S
H899 C909 0.929 . S
H900 C904 0.929 . S
H901 C910 0.929 . S
C902 H896 0.930 . S
C902 C903 1.367 . S
C902 C910 1.378 . S
C903 C902 1.367 . S
C903 C911 1.433 . S
C904 H900 0.929 . S
C904 C906 1.378 . S
C904 C908 1.350 . S
C905 C908 1.463 . S
C905 C910 1.350 . S
C905 N913 1.427 . S
C906 H897 0.930 . S
C906 C904 1.378 . S
C906 C907 1.367 . S
C907 C906 1.367 . S
C907 C909 1.433 . S
C908 C904 1.350 . S
C908 C905 1.463 . S
C908 N912 1.427 . S
C909 H899 0.929 . S
C909 C907 1.433 . S
C909 N912 1.384 . S
C910 H901 0.929 . S
C910 C902 1.378 . S
C910 C905 1.350 . S
C911 H898 0.929 . S
C911 C903 1.433 . S
C911 N913 1.384 . S
N912 C908 1.427 . S
N912 C909 1.384 . S
N913 C905 1.427 . S
N913 C911 1.384 . S
H914 C920 0.930 . S
H915 C924 0.930 . S
H916 C929 0.929 . S
H917 C927 0.929 . S
H918 C922 0.929 . S
H919 C928 0.929 . S
C920 H914 0.930 . S
C920 C921 1.367 . S
C920 C928 1.378 . S
C921 C920 1.367 . S
C921 C929 1.433 . S
C922 H918 0.929 . S
C922 C924 1.378 . S
C922 C926 1.350 . S
C923 C926 1.463 . S
C923 C928 1.350 . S
C923 N931 1.427 . S
C924 H915 0.930 . S
C924 C922 1.378 . S
C924 C925 1.367 . S
C925 C924 1.367 . S
C925 C927 1.433 . S
C926 C922 1.350 . S
C926 C923 1.463 . S
C926 N930 1.427 . S
C927 H917 0.929 . S
C927 C925 1.433 . S
C927 N930 1.384 . S
C928 H919 0.929 . S
C928 C920 1.378 . S
C928 C923 1.350 . S
C929 H916 0.929 . S
C929 C921 1.433 . S
C929 N931 1.384 . S
N930 C926 1.427 . S
N930 C927 1.384 . S
N931 C923 1.427 . S
N931 C929 1.384 . S
H932 C938 0.930 . S
H933 C942 0.930 . S
H934 C947 0.929 . S
H935 C945 0.929 . S
H936 C940 0.929 . S
H937 C946 0.929 . S
C938 H932 0.930 . S
C938 C939 1.367 . S
C938 C946 1.378 . S
C939 C938 1.367 . S
C939 C947 1.433 . S
C940 H936 0.929 . S
C940 C942 1.378 . S
C940 C944 1.350 . S
C941 C944 1.463 . S
C941 C946 1.350 . S
C941 N949 1.427 . S
C942 H933 0.930 . S
C942 C940 1.378 . S
C942 C943 1.367 . S
C943 C942 1.367 . S
C943 C945 1.433 . S
C944 C940 1.350 . S
C944 C941 1.463 . S
C944 N948 1.427 . S
C945 H935 0.929 . S
C945 C943 1.433 . S
C945 N948 1.384 . S
C946 H937 0.929 . S
C946 C938 1.378 . S
C946 C941 1.350 . S
C947 H934 0.929 . S
C947 C939 1.433 . S
C947 N949 1.384 . S
N948 C944 1.427 . S
N948 C945 1.384 . S
N949 C941 1.427 . S
N949 C947 1.384 . S
H950 C956 0.930 . S
H951 C960 0.930 . S
H952 C965 0.929 . S
H953 C963 0.929 . S
H954 C958 0.929 . S
H955 C964 0.929 . S
C956 H950 0.930 . S
C956 C957 1.367 . S
C956 C964 1.378 . S
C957 C956 1.367 . S
C957 C965 1.433 . S
C958 H954 0.929 . S
C958 C960 1.378 . S
C958 C962 1.350 . S
C959 C962 1.463 . S
C959 C964 1.350 . S
C959 N967 1.427 . S
C960 H951 0.930 . S
C960 C958 1.378 . S
C960 C961 1.367 . S
C961 C960 1.367 . S
C961 C963 1.433 . S
C962 C958 1.350 . S
C962 C959 1.463 . S
C962 N966 1.427 . S
C963 H953 0.929 . S
C963 C961 1.433 . S
C963 N966 1.384 . S
C964 H955 0.929 . S
C964 C956 1.378 . S
C964 C959 1.350 . S
C965 H952 0.929 . S
C965 C957 1.433 . S
C965 N967 1.384 . S
N966 C962 1.427 . S
N966 C963 1.384 . S
N967 C959 1.427 . S
N967 C965 1.384 . S
H968 C974 0.930 . S
H969 C978 0.930 . S
H970 C983 0.929 . S
H971 C981 0.949 . S
H972 C976 0.929 . S
H973 C982 0.929 . S
C974 H968 0.930 . S
C974 C975 1.367 . S
C974 C982 1.378 . S
C975 C974 1.367 . S
C975 C983 1.433 . S
C976 H972 0.929 . S
C976 C978 1.378 . S
C976 C980 1.350 . S
C977 C980 1.463 . S
C977 C982 1.350 . S
C977 N985 1.427 . S
C978 H969 0.930 . S
C978 C976 1.378 . S
C978 C979 1.367 . S
C979 C978 1.367 . S
C979 C981 1.424 1_655 S
C980 C976 1.350 . S
C980 C977 1.463 . S
C980 N984 1.427 . S
C981 H971 0.949 . S
C981 C979 1.424 1_455 S
C981 N984 1.372 1_455 S
C982 H973 0.929 . S
C982 C974 1.378 . S
C982 C977 1.350 . S
C983 H970 0.929 . S
C983 C975 1.433 . S
C983 N985 1.384 . S
N984 C980 1.427 . S
N984 C981 1.372 1_655 S
N985 C977 1.427 . S
N985 C983 1.384 . S
H986 C992 0.930 . S
H987 C996 0.930 . S
H988 C1001 0.929 . S
H989 C999 0.929 . S
H990 C994 0.929 1_455 S
H991 C1000 0.929 . S
C992 H986 0.930 . S
C992 C993 1.367 . S
C992 C1000 1.378 . S
C993 C992 1.367 . S
C993 C1001 1.433 . S
C994 H990 0.929 1_655 S
C994 C996 1.378 1_655 S
C994 C998 1.350 . S
C995 C998 1.463 . S
C995 C1000 1.350 . S
C995 N1003 1.427 . S
C996 H987 0.930 . S
C996 C994 1.378 1_455 S
C996 C997 1.367 1_455 S
C997 C996 1.367 1_655 S
C997 C999 1.433 . S
C998 C994 1.350 . S
C998 C995 1.463 . S
C998 N1002 1.427 . S
C999 H989 0.929 . S
C999 C997 1.433 . S
C999 N1002 1.384 . S
C1000 H991 0.929 . S
C1000 C992 1.378 . S
C1000 C995 1.350 . S
C1001 H988 0.929 . S
C1001 C993 1.433 . S
C1001 N1003 1.384 . S
N1002 C998 1.427 . S
N1002 C999 1.384 . S
N1003 C995 1.427 . S
N1003 C1001 1.384 . S
H1004 C1010 0.930 . S
H1005 C1014 0.930 . S
H1006 C1019 0.929 . S
H1007 C1017 0.929 . S
H1008 C1012 0.929 . S
H1009 C1018 0.929 . S
C1010 H1004 0.930 . S
C1010 C1011 1.367 . S
C1010 C1018 1.378 . S
C1011 C1010 1.367 . S
C1011 C1019 1.433 . S
C1012 H1008 0.929 . S
C1012 C1014 1.378 . S
C1012 C1016 1.350 . S
C1013 C1016 1.463 . S
C1013 C1018 1.350 . S
C1013 N1021 1.427 . S
C1014 H1005 0.930 . S
C1014 C1012 1.378 . S
C1014 C1015 1.367 . S
C1015 C1014 1.367 . S
C1015 C1017 1.433 . S
C1016 C1012 1.350 . S
C1016 C1013 1.463 . S
C1016 N1020 1.427 . S
C1017 H1007 0.929 . S
C1017 C1015 1.433 . S
C1017 N1020 1.384 . S
C1018 H1009 0.929 . S
C1018 C1010 1.378 . S
C1018 C1013 1.350 . S
C1019 H1006 0.929 . S
C1019 C1011 1.433 . S
C1019 N1021 1.384 . S
N1020 C1016 1.427 . S
N1020 C1017 1.384 . S
N1021 C1013 1.427 . S
N1021 C1019 1.384 . S
H1022 C1028 0.930 . S
H1023 C1032 0.930 . S
H1024 C1037 0.929 . S
H1025 C1035 0.930 . S
H1026 C1030 0.929 . S
H1027 C1036 0.929 . S
C1028 H1022 0.930 . S
C1028 C1029 1.367 . S
C1028 C1036 1.378 . S
C1029 C1028 1.367 . S
C1029 C1037 1.433 . S
C1030 H1026 0.929 . S
C1030 C1032 1.378 . S
C1030 C1034 1.350 . S
C1031 C1034 1.463 . S
C1031 C1036 1.350 . S
C1031 N1039 1.427 . S
C1032 H1023 0.930 . S
C1032 C1030 1.378 . S
C1032 C1033 1.367 . S
C1033 C1032 1.367 . S
C1033 C1035 1.433 . S
C1034 C1030 1.350 . S
C1034 C1031 1.463 . S
C1034 N1038 1.427 . S
C1035 H1025 0.930 . S
C1035 C1033 1.433 . S
C1035 N1038 1.384 . S
C1036 H1027 0.929 . S
C1036 C1028 1.378 . S
C1036 C1031 1.350 . S
C1037 H1024 0.929 . S
C1037 C1029 1.433 . S
C1037 N1039 1.384 . S
N1038 C1034 1.427 . S
N1038 C1035 1.384 . S
N1039 C1031 1.427 . S
N1039 C1037 1.384 . S
H1040 C1046 0.930 . S
H1041 C1050 0.930 . S
H1042 C1055 0.929 . S
H1043 C1053 0.929 . S
H1044 C1048 0.929 . S
H1045 C1054 0.929 . S
C1046 H1040 0.930 . S
C1046 C1047 1.367 . S
C1046 C1054 1.378 . S
C1047 C1046 1.367 . S
C1047 C1055 1.433 . S
C1048 H1044 0.929 . S
C1048 C1050 1.378 . S
C1048 C1052 1.350 . S
C1049 C1052 1.463 . S
C1049 C1054 1.350 . S
C1049 N1057 1.427 . S
C1050 H1041 0.930 . S
C1050 C1048 1.378 . S
C1050 C1051 1.367 . S
C1051 C1050 1.367 . S
C1051 C1053 1.433 . S
C1052 C1048 1.350 . S
C1052 C1049 1.463 . S
C1052 N1056 1.427 . S
C1053 H1043 0.929 . S
C1053 C1051 1.433 . S
C1053 N1056 1.384 . S
C1054 H1045 0.929 . S
C1054 C1046 1.378 . S
C1054 C1049 1.350 . S
C1055 H1042 0.929 . S
C1055 C1047 1.433 . S
C1055 N1057 1.384 . S
N1056 C1052 1.427 . S
N1056 C1053 1.384 . S
N1057 C1049 1.427 . S
N1057 C1055 1.384 . S
H1058 C1064 0.930 . S
H1059 C1068 0.930 . S
H1060 C1073 0.929 . S
H1061 C1071 0.929 . S
H1062 C1066 0.929 . S
H1063 C1072 0.929 . S
C1064 H1058 0.930 . S
C1064 C1065 1.367 . S
C1064 C1072 1.378 . S
C1065 C1064 1.367 . S
C1065 C1073 1.433 . S
C1066 H1062 0.929 . S
C1066 C1068 1.378 . S
C1066 C1070 1.350 . S
C1067 C1070 1.463 . S
C1067 C1072 1.350 . S
C1067 N1075 1.427 . S
C1068 H1059 0.930 . S
C1068 C1066 1.378 . S
C1068 C1069 1.367 . S
C1069 C1068 1.367 . S
C1069 C1071 1.433 . S
C1070 C1066 1.350 . S
C1070 C1067 1.463 . S
C1070 N1074 1.427 . S
C1071 H1061 0.929 . S
C1071 C1069 1.433 . S
C1071 N1074 1.384 . S
C1072 H1063 0.929 . S
C1072 C1064 1.378 . S
C1072 C1067 1.350 . S
C1073 H1060 0.929 . S
C1073 C1065 1.433 . S
C1073 N1075 1.384 . S
N1074 C1070 1.427 . S
N1074 C1071 1.384 . S
N1075 C1067 1.427 . S
N1075 C1073 1.384 . S
H1076 C1082 0.930 . S
H1077 C1086 0.930 . S
H1078 C1091 0.929 . S
H1079 C1089 0.929 . S
H1080 C1084 0.929 . S
H1081 C1090 0.929 . S
C1082 H1076 0.930 . S
C1082 C1083 1.367 . S
C1082 C1090 1.378 . S
C1083 C1082 1.367 . S
C1083 C1091 1.433 . S
C1084 H1080 0.929 . S
C1084 C1086 1.378 . S
C1084 C1088 1.350 . S
C1085 C1088 1.463 . S
C1085 C1090 1.350 . S
C1085 N1093 1.427 . S
C1086 H1077 0.930 . S
C1086 C1084 1.378 . S
C1086 C1087 1.367 . S
C1087 C1086 1.367 . S
C1087 C1089 1.433 . S
C1088 C1084 1.350 . S
C1088 C1085 1.463 . S
C1088 N1092 1.427 . S
C1089 H1079 0.929 . S
C1089 C1087 1.433 . S
C1089 N1092 1.384 . S
C1090 H1081 0.929 . S
C1090 C1082 1.378 . S
C1090 C1085 1.350 . S
C1091 H1078 0.929 . S
C1091 C1083 1.433 . S
C1091 N1093 1.384 . S
N1092 C1088 1.427 . S
N1092 C1089 1.384 . S
N1093 C1085 1.427 . S
N1093 C1091 1.384 . S
H1094 C1100 0.930 . S
H1095 C1104 0.930 . S
H1096 C1109 0.929 . S
H1097 C1107 0.929 . S
H1098 C1102 0.929 . S
H1099 C1108 0.929 . S
C1100 H1094 0.930 . S
C1100 C1101 1.367 . S
C1100 C1108 1.378 . S
C1101 C1100 1.367 . S
C1101 C1109 1.433 . S
C1102 H1098 0.929 . S
C1102 C1104 1.378 . S
C1102 C1106 1.350 . S
C1103 C1106 1.463 . S
C1103 C1108 1.350 . S
C1103 N1111 1.427 . S
C1104 H1095 0.930 . S
C1104 C1102 1.378 . S
C1104 C1105 1.367 . S
C1105 C1104 1.367 . S
C1105 C1107 1.433 . S
C1106 C1102 1.350 . S
C1106 C1103 1.463 . S
C1106 N1110 1.427 . S
C1107 H1097 0.929 . S
C1107 C1105 1.433 . S
C1107 N1110 1.384 . S
C1108 H1099 0.929 . S
C1108 C1100 1.378 . S
C1108 C1103 1.350 . S
C1109 H1096 0.929 . S
C1109 C1101 1.433 . S
C1109 N1111 1.384 . S
N1110 C1106 1.427 . S
N1110 C1107 1.384 . S
N1111 C1103 1.427 . S
N1111 C1109 1.384 . S
H1112 C1118 0.930 . S
H1113 C1122 0.930 . S
H1114 C1127 0.929 . S
H1115 C1125 0.929 . S
H1116 C1120 0.929 . S
H1117 C1126 0.929 . S
C1118 H1112 0.930 . S
C1118 C1119 1.367 . S
C1118 C1126 1.378 . S
C1119 C1118 1.367 . S
C1119 C1127 1.433 . S
C1120 H1116 0.929 . S
C1120 C1122 1.378 1_554 S
C1120 C1124 1.350 . S
C1121 C1124 1.463 . S
C1121 C1126 1.350 . S
C1121 N1129 1.427 . S
C1122 H1113 0.930 . S
C1122 C1120 1.378 1_556 S
C1122 C1123 1.367 . S
C1123 C1122 1.367 . S
C1123 C1125 1.433 1_556 S
C1124 C1120 1.350 . S
C1124 C1121 1.463 . S
C1124 N1128 1.427 . S
C1125 H1115 0.929 . S
C1125 C1123 1.433 1_554 S
C1125 N1128 1.384 . S
C1126 H1117 0.929 . S
C1126 C1118 1.378 . S
C1126 C1121 1.350 . S
C1127 H1114 0.929 . S
C1127 C1119 1.433 . S
C1127 N1129 1.384 . S
N1128 C1124 1.427 . S
N1128 C1125 1.384 . S
N1129 C1121 1.427 . S
N1129 C1127 1.384 . S
H1130 C1136 0.930 . S
H1131 C1140 0.930 . S
H1132 C1145 0.929 1_554 S
H1133 C1143 0.929 . S
H1134 C1138 0.929 . S
H1135 C1144 0.929 . S
C1136 H1130 0.930 . S
C1136 C1137 1.367 1_556 S
C1136 C1144 1.378 . S
C1137 C1136 1.367 1_554 S
C1137 C1145 1.433 1_554 S
C1138 H1134 0.929 . S
C1138 C1140 1.378 . S
C1138 C1142 1.350 . S
C1139 C1142 1.463 . S
C1139 C1144 1.350 . S
C1139 N1147 1.427 . S
C1140 H1131 0.930 . S
C1140 C1138 1.378 . S
C1140 C1141 1.367 . S
C1141 C1140 1.367 . S
C1141 C1143 1.433 . S
C1142 C1138 1.350 . S
C1142 C1139 1.463 . S
C1142 N1146 1.427 . S
C1143 H1133 0.929 . S
C1143 C1141 1.433 . S
C1143 N1146 1.384 . S
C1144 H1135 0.929 . S
C1144 C1136 1.378 . S
C1144 C1139 1.350 . S
C1145 H1132 0.929 1_556 S
C1145 C1137 1.433 1_556 S
C1145 N1147 1.384 . S
N1146 C1142 1.427 . S
N1146 C1143 1.384 . S
N1147 C1139 1.427 . S
N1147 C1145 1.384 . S
H1148 C1154 0.930 . S
H1149 C1158 0.930 . S
H1150 C1163 0.929 . S
H1151 C1161 0.929 . S
H1152 C1156 0.929 . S
H1153 C1162 0.929 . S
C1154 H1148 0.930 . S
C1154 C1155 1.367 . S
C1154 C1162 1.378 . S
C1155 C1154 1.367 . S
C1155 C1163 1.433 . S
C1156 H1152 0.929 . S
C1156 C1158 1.378 . S
C1156 C1160 1.350 . S
C1157 C1160 1.463 . S
C1157 C1162 1.350 . S
C1157 N1165 1.427 . S
C1158 H1149 0.930 . S
C1158 C1156 1.378 . S
C1158 C1159 1.367 . S
C1159 C1158 1.367 . S
C1159 C1161 1.433 . S
C1160 C1156 1.350 . S
C1160 C1157 1.463 . S
C1160 N1164 1.427 . S
C1161 H1151 0.929 . S
C1161 C1159 1.433 . S
C1161 N1164 1.384 . S
C1162 H1153 0.929 . S
C1162 C1154 1.378 . S
C1162 C1157 1.350 . S
C1163 H1150 0.929 . S
C1163 C1155 1.433 . S
C1163 N1165 1.384 . S
N1164 C1160 1.427 . S
N1164 C1161 1.384 . S
N1165 C1157 1.427 . S
N1165 C1163 1.384 . S
H1166 C1172 0.930 . S
H1167 C1176 0.930 . S
H1168 C1181 0.929 . S
H1169 C1179 0.929 . S
H1170 C1174 0.929 . S
H1171 C1180 0.929 . S
C1172 H1166 0.930 . S
C1172 C1173 1.367 . S
C1172 C1180 1.378 . S
C1173 C1172 1.367 . S
C1173 C1181 1.433 . S
C1174 H1170 0.929 . S
C1174 C1176 1.378 . S
C1174 C1178 1.350 . S
C1175 C1178 1.463 . S
C1175 C1180 1.350 . S
C1175 N1183 1.427 . S
C1176 H1167 0.930 . S
C1176 C1174 1.378 . S
C1176 C1177 1.367 . S
C1177 C1176 1.367 . S
C1177 C1179 1.433 . S
C1178 C1174 1.350 . S
C1178 C1175 1.463 . S
C1178 N1182 1.427 . S
C1179 H1169 0.929 . S
C1179 C1177 1.433 . S
C1179 N1182 1.384 . S
C1180 H1171 0.929 . S
C1180 C1172 1.378 . S
C1180 C1175 1.350 . S
C1181 H1168 0.929 . S
C1181 C1173 1.433 . S
C1181 N1183 1.384 . S
N1182 C1178 1.427 . S
N1182 C1179 1.384 . S
N1183 C1175 1.427 . S
N1183 C1181 1.384 . S
C327 C6 0.928 1_556 S
C331 C146 0.928 . S
C345 C26 0.928 . S
C349 C86 0.928 1_554 S
C363 C108 1.274 . S
C367 C46 1.334 . S
C381 C68 1.258 . S
C385 C126 1.326 . S
C399 C236 1.606 . S
C403 C99 1.541 . S
C417 C176 1.607 . S
C421 C19 1.548 . S
C435 C219 1.911 . S
C439 C139 1.916 . S
C453 C59 1.911 . S
C457 C199 1.906 . S
C471 C186 0.917 . S
C475 C246 0.912 . S
C489 C206 0.912 . S
C493 C286 0.913 . S
C507 C266 1.329 . S
C511 C168 1.261 . S
C525 C228 1.268 . S
C529 C306 1.332 . S
C543 C299 1.554 . S
C547 C76 1.611 . S
C561 C259 1.552 . S
C565 C116 1.609 . S
C579 C39 1.901 . S
C583 C319 1.910 1_554 S
C597 C159 1.897 . S
C601 C279 1.905 1_556 S
C615 C269 0.767 1_655 S
C619 C9 1.055 . S
C633 C221 0.922 . S
C637 C29 0.842 . S
C651 C249 1.051 . S
C655 C49 0.759 . S
C669 C209 0.819 . S
C673 C61 0.944 . S
C687 C89 1.031 . S
C691 C309 0.779 . S
C705 C189 0.819 . S
C709 C101 0.939 . S
C723 C129 0.759 . S
C727 C289 1.052 . S
C741 C149 0.819 . S
C745 C161 0.943 . S
C759 C1 1.415 . S
C763 C81 1.415 . S
C777 C21 1.454 . S
C781 C109 1.463 . S
C795 C121 1.492 . S
C799 C41 1.493 . S
C813 C69 1.468 . S
C817 C141 1.462 . S
C831 C201 1.460 . S
C835 C169 1.465 . S
C849 C229 1.468 . S
C853 C181 1.462 . S
C867 C241 1.412 . S
C871 C281 1.412 . S
C885 C301 1.493 . S
C889 C261 1.493 . S
C903 C8 2.121 . S
C907 C148 2.119 . S
C921 C28 2.126 . S
C925 C88 2.127 . S
C939 C106 2.072 1_556 S
C943 C48 2.076 . S
C957 C128 2.072 . S
C961 C66 2.066 1_554 S
C975 C239 1.296 . S
C979 C96 1.292 . S
C993 C179 1.297 . S
C997 C16 1.295 . S
C1011 C216 1.243 1_554 S
C1015 C136 1.239 . S
C1029 C56 1.253 . S
C1033 C196 1.250 1_556 S
C1047 C248 2.124 . S
C1051 C188 2.123 1_556 S
C1065 C288 2.126 . S
C1069 C208 2.126 1_554 S
C1083 C268 2.072 . S
C1087 C166 2.067 . S
C1101 C308 2.074 . S
C1105 C226 2.068 . S
C1119 C296 1.283 . S
C1123 C79 1.286 . S
C1137 C119 1.292 . S
C1141 C256 1.290 . S
C1155 C36 1.241 . S
C1159 C316 1.238 . S
C1173 C276 1.251 . S
C1177 C156 1.252 . S
