# Generated by pormake.
# Topology wiv, (6)-cn, num edge types: 1
# Building blocks:
#     Node 0, Type 0, BuildingBlock: CUKXOW_clean_sbu_0, # of connection points: 6
#     Node 1, Type 0, BuildingBlock: CUKXOW_clean_sbu_0, # of connection points: 6
#     Node 2, Type 0, BuildingBlock: CUKXOW_clean_sbu_0, # of connection points: 6
#     Node 3, Type 0, BuildingBlock: CUKXOW_clean_sbu_0, # of connection points: 6
#     Node 4, Type 0, BuildingBlock: CUKXOW_clean_sbu_0, # of connection points: 6
#     Node 5, Type 0, BuildingBlock: CUKXOW_clean_sbu_0, # of connection points: 6
#     Node 6, Type 0, BuildingBlock: CUKXOW_clean_sbu_0, # of connection points: 6
#     Node 7, Type 0, BuildingBlock: CUKXOW_clean_sbu_0, # of connection points: 6
#     Node 8, Type 0, BuildingBlock: CUKXOW_clean_sbu_0, # of connection points: 6
#     Node 9, Type 0, BuildingBlock: CUKXOW_clean_sbu_0, # of connection points: 6
#     Node 10, Type 0, BuildingBlock: CUKXOW_clean_sbu_0, # of connection points: 6
#     Node 11, Type 0, BuildingBlock: CUKXOW_clean_sbu_0, # of connection points: 6
#     Node 12, Type 0, BuildingBlock: CUKXOW_clean_sbu_0, # of connection points: 6
#     Node 13, Type 0, BuildingBlock: CUKXOW_clean_sbu_0, # of connection points: 6
#     Node 14, Type 0, BuildingBlock: CUKXOW_clean_sbu_0, # of connection points: 6
#     Node 15, Type 0, BuildingBlock: CUKXOW_clean_sbu_0, # of connection points: 6
#     Edge 16, Type (0, 0), BuildingBlock: KIFKEQ_clean_linker_1, # of connection points: 2
#     Edge 17, Type (0, 0), BuildingBlock: KIFKEQ_clean_linker_1, # of connection points: 2
#     Edge 18, Type (0, 0), BuildingBlock: KIFKEQ_clean_linker_1, # of connection points: 2
#     Edge 19, Type (0, 0), BuildingBlock: KIFKEQ_clean_linker_1, # of connection points: 2
#     Edge 20, Type (0, 0), BuildingBlock: KIFKEQ_clean_linker_1, # of connection points: 2
#     Edge 21, Type (0, 0), BuildingBlock: KIFKEQ_clean_linker_1, # of connection points: 2
#     Edge 22, Type (0, 0), BuildingBlock: KIFKEQ_clean_linker_1, # of connection points: 2
#     Edge 23, Type (0, 0), BuildingBlock: KIFKEQ_clean_linker_1, # of connection points: 2
#     Edge 24, Type (0, 0), BuildingBlock: KIFKEQ_clean_linker_1, # of connection points: 2
#     Edge 25, Type (0, 0), BuildingBlock: KIFKEQ_clean_linker_1, # of connection points: 2
#     Edge 26, Type (0, 0), BuildingBlock: KIFKEQ_clean_linker_1, # of connection points: 2
#     Edge 27, Type (0, 0), BuildingBlock: KIFKEQ_clean_linker_1, # of connection points: 2
#     Edge 28, Type (0, 0), BuildingBlock: KIFKEQ_clean_linker_1, # of connection points: 2
#     Edge 29, Type (0, 0), BuildingBlock: KIFKEQ_clean_linker_1, # of connection points: 2
#     Edge 30, Type (0, 0), BuildingBlock: KIFKEQ_clean_linker_1, # of connection points: 2
#     Edge 31, Type (0, 0), BuildingBlock: KIFKEQ_clean_linker_1, # of connection points: 2
#     Edge 32, Type (0, 0), BuildingBlock: KIFKEQ_clean_linker_1, # of connection points: 2
#     Edge 33, Type (0, 0), BuildingBlock: KIFKEQ_clean_linker_1, # of connection points: 2
#     Edge 34, Type (0, 0), BuildingBlock: KIFKEQ_clean_linker_1, # of connection points: 2
#     Edge 35, Type (0, 0), BuildingBlock: KIFKEQ_clean_linker_1, # of connection points: 2
#     Edge 36, Type (0, 0), BuildingBlock: KIFKEQ_clean_linker_1, # of connection points: 2
#     Edge 37, Type (0, 0), BuildingBlock: KIFKEQ_clean_linker_1, # of connection points: 2
#     Edge 38, Type (0, 0), BuildingBlock: KIFKEQ_clean_linker_1, # of connection points: 2
#     Edge 39, Type (0, 0), BuildingBlock: KIFKEQ_clean_linker_1, # of connection points: 2
#     Edge 40, Type (0, 0), BuildingBlock: KIFKEQ_clean_linker_1, # of connection points: 2
#     Edge 41, Type (0, 0), BuildingBlock: KIFKEQ_clean_linker_1, # of connection points: 2
#     Edge 42, Type (0, 0), BuildingBlock: KIFKEQ_clean_linker_1, # of connection points: 2
#     Edge 43, Type (0, 0), BuildingBlock: KIFKEQ_clean_linker_1, # of connection points: 2
#     Edge 44, Type (0, 0), BuildingBlock: KIFKEQ_clean_linker_1, # of connection points: 2
#     Edge 45, Type (0, 0), BuildingBlock: KIFKEQ_clean_linker_1, # of connection points: 2
#     Edge 46, Type (0, 0), BuildingBlock: KIFKEQ_clean_linker_1, # of connection points: 2
#     Edge 47, Type (0, 0), BuildingBlock: KIFKEQ_clean_linker_1, # of connection points: 2
#     Edge 48, Type (0, 0), BuildingBlock: KIFKEQ_clean_linker_1, # of connection points: 2
#     Edge 49, Type (0, 0), BuildingBlock: KIFKEQ_clean_linker_1, # of connection points: 2
#     Edge 50, Type (0, 0), BuildingBlock: KIFKEQ_clean_linker_1, # of connection points: 2
#     Edge 51, Type (0, 0), BuildingBlock: KIFKEQ_clean_linker_1, # of connection points: 2
#     Edge 52, Type (0, 0), BuildingBlock: KIFKEQ_clean_linker_1, # of connection points: 2
#     Edge 53, Type (0, 0), BuildingBlock: KIFKEQ_clean_linker_1, # of connection points: 2
#     Edge 54, Type (0, 0), BuildingBlock: KIFKEQ_clean_linker_1, # of connection points: 2
#     Edge 55, Type (0, 0), BuildingBlock: KIFKEQ_clean_linker_1, # of connection points: 2
#     Edge 56, Type (0, 0), BuildingBlock: KIFKEQ_clean_linker_1, # of connection points: 2
#     Edge 57, Type (0, 0), BuildingBlock: KIFKEQ_clean_linker_1, # of connection points: 2
#     Edge 58, Type (0, 0), BuildingBlock: KIFKEQ_clean_linker_1, # of connection points: 2
#     Edge 59, Type (0, 0), BuildingBlock: KIFKEQ_clean_linker_1, # of connection points: 2
#     Edge 60, Type (0, 0), BuildingBlock: KIFKEQ_clean_linker_1, # of connection points: 2
#     Edge 61, Type (0, 0), BuildingBlock: KIFKEQ_clean_linker_1, # of connection points: 2
#     Edge 62, Type (0, 0), BuildingBlock: KIFKEQ_clean_linker_1, # of connection points: 2
#     Edge 63, Type (0, 0), BuildingBlock: KIFKEQ_clean_linker_1, # of connection points: 2
# Relax obj value: 0.073
# Max RMSD: 0.158
# Mean RMSD: 0.158
data_MOF--net-wiv--node1-CUKXOW_clean_sbu_0--edge1-KIFKEQ_clean_linker_1
_symmetry_space_group_name_H-M    P1
_symmetry_Int_Tables_number       1
_symmetry_cell_setting            triclinic
loop_
_symmetry_equiv_pos_as_xyz
'x, y, z'
_cell_length_a     65.723589
_cell_length_b     65.711265
_cell_length_c     14.503664
_cell_angle_alpha  89.929312
_cell_angle_beta   90.005953
_cell_angle_gamma 89.970513
loop_
_atom_site_label
_atom_site_type_symbol
_atom_site_fract_x
_atom_site_fract_y
_atom_site_fract_z
_atom_type_partial_charge
Tb0 Tb 0.40078 0.12753 0.18793 0.0
C1 C 0.37889 0.1701 0.16332 0.0
Tb2 Tb 0.35247 0.12954 0.14382 0.0
O3 O 0.41046 0.12694 1.04107 0.0
O4 O 0.38074 0.13 0.07684 0.0
O5 O 0.39473 0.16003 0.19832 0.0
C6 C 0.31682 0.13135 0.05764 0.0
O7 O 0.36242 0.1611 0.12824 0.0
C8 C 0.36067 0.12733 0.32349 0.0
C9 C 0.37372 0.08727 0.18081 0.0
O10 O 0.32181 0.14186 0.12995 0.0
O11 O 0.332 0.11984 1.03316 0.0
O12 O 0.34235 0.12772 0.28954 0.0
O13 O 0.37253 0.12791 0.25568 0.0
O14 O 0.35838 0.09696 0.13982 0.0
O15 O 0.38992 0.09669 0.21595 0.0
C16 C 0.43763 0.12428 0.26258 0.0
O17 O 0.42948 0.11147 0.20556 0.0
O18 O 0.42489 0.13902 0.27894 0.0
C19 C 0.39217 0.12856 1.00809 0.0
Tb20 Tb 0.12977 0.64139 0.95237 0.0
C21 C 0.08775 0.6203 0.91096 0.0
Tb22 Tb 0.12796 0.59303 0.90755 0.0
O23 O 0.12793 0.65155 0.80649 0.0
O24 O 0.12881 0.62138 0.84045 0.0
O25 O 0.09714 0.63552 0.95408 0.0
C26 C 0.12451 0.55629 0.83175 0.0
O27 O 0.09741 0.6042 0.87611 0.0
C28 C 0.1287 0.60152 0.08769 0.0
C29 C 0.1704 0.61497 0.93215 0.0
O30 O 0.11147 0.56465 0.88723 0.0
O31 O 0.13959 0.56877 0.81779 0.0
O32 O 0.12744 0.58323 0.05444 0.0
O33 O 0.12973 0.61305 1.01908 0.0
O34 O 0.1604 0.59916 0.89684 0.0
O35 O 0.16134 0.63136 0.96785 0.0
C36 C 0.132 0.67683 1.04042 0.0
O37 O 0.14239 0.6719 0.96761 0.0
O38 O 0.1203 0.66173 0.06406 0.0
C39 C 0.12796 0.63322 0.77254 0.0
Tb40 Tb 0.59353 0.8667 0.18852 0.0
C41 C 0.61586 0.82429 0.16631 0.0
Tb42 Tb 0.64199 0.86506 0.1451 0.0
O43 O 0.58388 0.86663 1.04178 0.0
O44 O 0.61371 0.86446 0.07771 0.0
O45 O 0.59991 0.8343 0.20051 0.0
C46 C 0.67784 0.86363 0.0599 0.0
O47 O 0.63232 0.83335 0.13119 0.0
C48 C 0.63359 0.86729 0.32449 0.0
C49 C 0.62034 0.90721 0.17987 0.0
O50 O 0.67302 0.85349 0.13365 0.0
O51 O 0.66235 0.87449 1.03325 0.0
O52 O 0.65194 0.86697 0.29092 0.0
O53 O 0.62178 0.86665 0.25648 0.0
O54 O 0.63607 0.89766 0.14156 0.0
O55 O 0.604 0.89776 0.21357 0.0
C56 C 0.55661 0.87005 0.26328 0.0
O57 O 0.56477 0.88276 0.20566 0.0
O58 O 0.56939 0.85535 0.2801 0.0
C59 C 0.6022 0.86537 1.00895 0.0
Tb60 Tb 0.86682 0.35424 0.95131 0.0
C61 C 0.90845 0.37717 0.92791 0.0
Tb62 Tb 0.86678 0.4013 0.91062 0.0
O63 O 0.87841 0.34806 0.8126 0.0
O64 O 0.86095 0.37391 0.83692 0.0
O65 O 0.89889 0.36153 0.96663 0.0
C66 C 0.86594 0.43793 0.8315 0.0
O67 O 0.89874 0.39311 0.89216 0.0
C68 C 0.86929 0.3937 0.09066 0.0
C69 C 0.82504 0.37805 0.93546 0.0
O70 O 0.87932 0.42384 0.81438 0.0
O71 O 0.85302 0.43125 0.892 0.0
O72 O 0.8696 0.41184 0.05534 0.0
O73 O 0.86803 0.38168 1.02378 0.0
O74 O 0.83464 0.39374 0.8972 0.0
O75 O 0.83475 0.36203 0.97046 0.0
C76 C 0.86435 0.31706 1.02443 0.0
O77 O 0.85588 0.32272 0.94759 0.0
O78 O 0.87409 0.33233 0.05994 0.0
C79 C 0.87165 0.36493 0.77727 0.0
Tb80 Tb 0.40184 0.36614 0.15873 0.0
C81 C 0.37939 0.32384 0.18164 0.0
Tb82 Tb 0.35342 0.36474 0.202 0.0
O83 O 0.41149 0.3661 0.30548 0.0
O84 O 0.38166 0.36401 0.2695 0.0
O85 O 0.39541 0.33375 0.14743 0.0
C86 C 0.31765 0.36327 0.28727 0.0
O87 O 0.36296 0.333 0.21637 0.0
C88 C 0.3618 0.36689 1.0226 0.0
C89 C 0.37515 0.40677 0.16619 0.0
O90 O 0.32236 0.35335 0.21288 0.0
O91 O 0.33318 0.37397 0.31445 0.0
O92 O 0.34346 0.36667 0.05621 0.0
O93 O 0.37362 0.36619 0.09058 0.0
O94 O 0.3594 0.3973 0.20483 0.0
O95 O 0.39147 0.39723 0.13283 0.0
C96 C 0.43875 0.3693 0.08443 0.0
O97 O 0.43067 0.382 0.14222 0.0
O98 O 0.4259 0.35472 0.0671 0.0
C99 C 0.39315 0.36492 0.33827 0.0
Tb100 Tb 0.36475 0.64118 0.8938 0.0
C101 C 0.40683 0.6196 0.93157 0.0
Tb102 Tb 0.3664 0.59286 0.93772 0.0
O103 O 0.36605 0.65135 1.03945 0.0
O104 O 0.3657 0.62113 1.00574 0.0
O105 O 0.39735 0.63522 0.89187 0.0
C106 C 0.36957 0.55605 1.01321 0.0
O107 O 0.39731 0.60331 0.96532 0.0
C108 C 0.36553 0.6014 0.75786 0.0
C109 C 0.3241 0.61478 0.91007 0.0
O110 O 0.38236 0.5641 0.95565 0.0
O111 O 0.35491 0.56887 1.02961 0.0
O112 O 0.36632 0.58307 0.79114 0.0
O113 O 0.36499 0.613 0.82623 0.0
O114 O 0.33397 0.59904 0.94694 0.0
O115 O 0.33332 0.63107 0.87427 0.0
C116 C 0.36331 0.67672 0.8062 0.0
O117 O 0.35044 0.67063 0.86836 0.0
O118 O 0.37696 0.6627 0.79269 0.0
C119 C 0.36621 0.63301 0.07343 0.0
Tb120 Tb 0.59311 0.6282 0.15635 0.0
C121 C 0.61508 0.67047 0.1841 0.0
Tb122 Tb 0.64142 0.62973 0.2 0.0
O123 O 0.58334 0.62817 0.30302 0.0
O124 O 0.61324 0.62963 0.26768 0.0
O125 O 0.59931 0.66066 0.1473 0.0
C126 C 0.67698 0.63114 0.28718 0.0
O127 O 0.63134 0.66117 0.21971 0.0
C128 C 0.63325 0.6283 1.02041 0.0
C129 C 0.61983 0.58769 0.16262 0.0
O130 O 0.67089 0.64398 0.22485 0.0
O131 O 0.66294 0.61753 0.30112 0.0
O132 O 0.65158 0.62847 0.0543 0.0
O133 O 0.62137 0.62879 0.08815 0.0
O134 O 0.63543 0.59715 0.20233 0.0
O135 O 0.60355 0.59724 0.12885 0.0
C136 C 0.55625 0.6251 0.08149 0.0
O137 O 0.56432 0.61231 0.1391 0.0
O138 O 0.56909 0.63971 0.06463 0.0
C139 C 0.60167 0.62897 0.33615 0.0
Tb140 Tb 0.63015 0.3526 0.90066 0.0
C141 C 0.58827 0.37465 0.93601 0.0
Tb142 Tb 0.62911 0.40102 0.94342 0.0
O143 O 0.62808 0.34266 0.04646 0.0
O144 O 0.62892 0.37282 1.01185 0.0
O145 O 0.59763 0.3588 0.89775 0.0
C146 C 0.62595 0.43803 1.01661 0.0
O147 O 0.59792 0.39093 0.96903 0.0
C148 C 0.63045 0.39236 0.76393 0.0
C149 C 0.67123 0.37814 0.92151 0.0
O150 O 0.61328 0.4299 0.95887 0.0
O151 O 0.6405 0.42517 1.03463 0.0
O152 O 0.62961 0.4107 0.79672 0.0
O153 O 0.63088 0.38081 0.83267 0.0
O154 O 0.66143 0.39424 0.95564 0.0
O155 O 0.66195 0.36184 0.88636 0.0
C156 C 0.63124 0.31688 0.81521 0.0
O157 O 0.64144 0.32151 0.88894 0.0
O158 O 0.62049 0.33246 0.78882 0.0
C159 C 0.62806 0.36102 0.07989 0.0
Tb160 Tb 0.90149 0.62812 0.69331 0.0
C161 C 0.87942 0.66992 0.65626 0.0
Tb162 Tb 0.85333 0.62949 0.64821 0.0
O163 O 0.91162 0.62897 0.547 0.0
O164 O 0.88161 0.62745 0.58102 0.0
O165 O 0.89439 0.66048 0.70113 0.0
C166 C 0.81742 0.63042 0.56332 0.0
O167 O 0.86396 0.66015 0.61679 0.0
C168 C 0.86146 0.6305 0.82836 0.0
C169 C 0.87487 0.58753 0.68966 0.0
O170 O 0.8252 0.6452 0.61101 0.0
O171 O 0.82994 0.61511 0.56273 0.0
O172 O 0.84316 0.631 0.79427 0.0
O173 O 0.87324 0.62948 0.76066 0.0
O174 O 0.85944 0.59697 0.64835 0.0
O175 O 0.89115 0.59715 0.72296 0.0
C176 C 0.93764 0.62609 0.77595 0.0
O177 O 0.92883 0.6113 0.73214 0.0
O178 O 0.92598 0.64208 0.77413 0.0
C179 C 0.89332 0.62845 0.513 0.0
Tb180 Tb 0.62899 0.14236 0.4401 0.0
C181 C 0.58735 0.12002 0.40519 0.0
Tb182 Tb 0.6284 0.09393 0.39734 0.0
O183 O 0.62685 0.15225 0.29421 0.0
O184 O 0.6281 0.12212 0.3289 0.0
O185 O 0.59657 0.13592 0.44351 0.0
C186 C 0.62554 0.05694 0.32366 0.0
O187 O 0.59713 0.10383 0.37186 0.0
C188 C 0.62953 0.10258 0.5768 0.0
C189 C 0.67026 0.11704 0.42132 0.0
O190 O 0.61276 0.06498 0.38117 0.0
O191 O 0.64003 0.06989 0.30615 0.0
O192 O 0.62892 0.08422 0.54397 0.0
O193 O 0.62984 0.11415 0.50812 0.0
O194 O 0.66069 0.1009 0.38645 0.0
O195 O 0.66077 0.13327 0.45606 0.0
C196 C 0.63018 0.1782 0.52452 0.0
O197 O 0.6404 0.17341 0.45108 0.0
O198 O 0.61932 0.16272 0.5512 0.0
C199 C 0.62709 0.1339 0.26082 0.0
Tb200 Tb 0.09356 0.36521 0.69614 0.0
C201 C 0.11736 0.32389 0.67329 0.0
Tb202 Tb 0.14192 0.36481 0.65274 0.0
O203 O 0.08343 0.3654 0.55019 0.0
O204 O 0.11359 0.36562 0.58429 0.0
O205 O 0.1026 0.3336 0.71829 0.0
C206 C 0.17818 0.36362 0.57122 0.0
O207 O 0.13233 0.3335 0.62929 0.0
C208 C 0.13335 0.36467 0.83237 0.0
C209 C 0.11906 0.40677 0.68386 0.0
O210 O 0.17261 0.35234 0.64022 0.0
O211 O 0.16327 0.37551 0.54742 0.0
O212 O 0.15172 0.36522 0.79916 0.0
O213 O 0.12169 0.36431 0.76402 0.0
O214 O 0.1358 0.39734 0.65453 0.0
O215 O 0.10194 0.39729 0.70853 0.0
C216 C 0.0574 0.36605 0.77969 0.0
O217 O 0.07055 0.3808 0.77945 0.0
O218 O 0.06475 0.35075 0.73386 0.0
C219 C 0.10175 0.36554 0.51644 0.0
Tb220 Tb 0.36488 0.85273 0.44046 0.0
C221 C 0.40693 0.87582 0.4103 0.0
Tb222 Tb 0.36546 0.90094 0.39651 0.0
O223 O 0.36422 0.84255 0.2946 0.0
O224 O 0.36464 0.87273 0.32834 0.0
O225 O 0.39741 0.85931 0.44181 0.0
C226 C 0.36503 0.93736 0.31535 0.0
O227 O 0.39749 0.89276 0.38295 0.0
C228 C 0.36584 0.89273 0.57655 0.0
C229 C 0.32417 0.87742 0.41931 0.0
O230 O 0.38005 0.92452 0.31247 0.0
O231 O 0.35022 0.92956 0.36287 0.0
O232 O 0.36604 0.91103 0.54258 0.0
O233 O 0.36566 0.88093 0.50878 0.0
O234 O 0.33399 0.89187 0.37293 0.0
O235 O 0.33373 0.86275 0.46555 0.0
C236 C 0.36393 0.8169 0.52629 0.0
O237 O 0.34931 0.82448 0.47682 0.0
O238 O 0.37909 0.82957 0.52806 0.0
C239 C 0.36427 0.86089 0.26069 0.0
Tb240 Tb 0.90015 0.86594 0.64608 0.0
C241 C 0.87706 0.82368 0.65491 0.0
Tb242 Tb 0.85304 0.86481 0.686 0.0
O243 O 0.90568 0.87809 0.78441 0.0
O244 O 0.88057 0.85972 0.7601 0.0
O245 O 0.89288 0.83398 0.62156 0.0
C246 C 0.81711 0.86377 0.77097 0.0
O247 O 0.86104 0.83265 0.69371 0.0
C248 C 0.86068 0.86702 0.50631 0.0
C249 C 0.87536 0.90698 0.65388 0.0
O250 O 0.82173 0.85398 0.69618 0.0
O251 O 0.83283 0.87411 0.79876 0.0
O252 O 0.84248 0.86683 0.54123 0.0
O253 O 0.87275 0.86626 0.57334 0.0
O254 O 0.85957 0.89743 0.6917 0.0
O255 O 0.89163 0.89736 0.62151 0.0
C256 C 0.93794 0.86448 0.57937 0.0
O257 O 0.92338 0.87589 0.54792 0.0
O258 O 0.93115 0.85367 0.64785 0.0
C259 C 0.88906 0.87081 0.81959 0.0
Tb260 Tb 0.86602 0.14086 0.391 0.0
C261 C 0.90709 0.11765 0.42911 0.0
Tb262 Tb 0.86515 0.09395 0.43229 0.0
O263 O 0.86344 0.15184 0.53501 0.0
O264 O 0.86415 0.12146 0.50459 0.0
O265 O 0.89831 0.1333 0.38661 0.0
C266 C 0.86877 0.05595 0.4946 0.0
O267 O 0.89668 0.10187 0.46175 0.0
C268 C 0.86072 0.10494 0.25808 0.0
C269 C 0.82395 0.11764 0.41784 0.0
O270 O 0.87803 0.06338 0.42302 0.0
O271 O 0.8575 0.06998 0.53168 0.0
O272 O 0.85316 0.08845 0.29348 0.0
O273 O 0.87172 0.11341 0.31798 0.0
O274 O 0.83348 0.10172 0.45414 0.0
O275 O 0.83367 0.13333 0.37984 0.0
C276 C 0.86647 0.17625 0.30104 0.0
O277 O 0.85366 0.16154 0.28627 0.0
O278 O 0.87899 0.17097 0.36606 0.0
C279 C 0.86319 0.1337 0.57088 0.0
Tb280 Tb 0.09424 0.12829 0.6483 0.0
C281 C 0.1172 0.17001 0.66385 0.0
Tb282 Tb 0.14112 0.12828 0.68799 0.0
O283 O 0.08858 0.14046 0.78641 0.0
O284 O 0.11391 0.12227 0.76243 0.0
O285 O 0.10134 0.16031 0.62782 0.0
C286 C 0.1769 0.12829 0.77394 0.0
O287 O 0.13307 0.16042 0.70077 0.0
C288 C 0.13376 0.13075 0.50826 0.0
C289 C 0.11858 0.08662 0.6568 0.0
O290 O 0.16228 0.14121 0.78877 0.0
O291 O 0.17131 0.11537 0.71129 0.0
O292 O 0.15191 0.13083 0.54376 0.0
O293 O 0.12158 0.12964 0.57473 0.0
O294 O 0.13405 0.09602 0.69752 0.0
O295 O 0.10255 0.09653 0.62309 0.0
C296 C 0.05623 0.12386 0.58741 0.0
O297 O 0.06374 0.11542 0.66087 0.0
O298 O 0.07019 0.13477 0.5476 0.0
C299 C 0.10522 0.13324 0.82181 0.0
Tb300 Tb 0.12874 0.85314 0.40107 0.0
C301 C 0.08689 0.87538 0.42752 0.0
Tb302 Tb 0.12828 0.90022 0.44094 0.0
O303 O 0.1175 0.84684 0.54016 0.0
O304 O 0.13459 0.87293 0.51493 0.0
O305 O 0.09652 0.85982 0.38869 0.0
C306 C 0.12843 0.93692 0.51941 0.0
O307 O 0.09645 0.89161 0.46113 0.0
C308 C 0.12551 0.89257 0.26118 0.0
C309 C 0.17033 0.87733 0.41519 0.0
O310 O 0.11525 0.92264 0.53634 0.0
O311 O 0.14158 0.93037 0.45963 0.0
O312 O 0.12507 0.91071 0.29624 0.0
O313 O 0.12697 0.88057 0.3282 0.0
O314 O 0.16063 0.89311 0.45241 0.0
O315 O 0.16072 0.8611 0.38195 0.0
C316 C 0.13142 0.81608 0.32751 0.0
O317 O 0.13928 0.82149 0.40594 0.0
O318 O 0.12218 0.83153 0.29063 0.0
C319 C 0.1241 0.8638 0.57501 0.0
H320 H 0.39654 0.95671 0.2302 0.0
H321 H 0.33489 0.96561 0.32457 0.0
H322 H 0.39855 0.99269 0.1877 0.0
H323 H 0.33694 0.00157 0.28352 0.0
H324 H 0.34207 0.06218 0.13329 0.0
H325 H 0.33979 0.02542 0.15402 0.0
H326 H 0.40003 0.02486 0.27303 0.0
H327 H 0.40251 0.06147 0.25124 0.0
C328 C 0.38337 0.96633 0.24093 0.0
C329 C 0.36559 0.95845 0.28086 0.0
C330 C 0.38455 0.98694 0.21724 0.0
C331 C 0.36795 1e-05 0.23283 0.0
C332 C 0.34992 0.99188 0.2698 0.0
C333 C 0.34877 0.97131 0.29367 0.0
C334 C 0.35489 0.05423 0.16343 0.0
C335 C 0.37244 0.06485 0.19091 0.0
C336 C 0.35353 0.03316 0.17562 0.0
C337 C 0.36972 0.02222 0.21514 0.0
C338 C 0.38739 0.03279 0.24123 0.0
C339 C 0.38873 0.05384 0.22937 0.0
H340 H 0.96176 0.65799 0.82643 0.0
H341 H 0.96082 0.59253 0.80367 0.0
H342 H -0.00204 0.65682 0.86501 0.0
H343 H 0.99665 0.59116 0.846 0.0
H344 H 0.06433 0.59713 0.79689 0.0
H345 H 0.02788 0.59884 0.7736 0.0
H346 H 0.02374 0.64738 0.97365 0.0
H347 H 0.06059 0.64612 0.99479 0.0
C348 C 0.96924 0.64334 0.83161 0.0
C349 C 0.95863 0.62536 0.81136 0.0
C350 C 0.98995 0.64263 0.85402 0.0
C351 C 0.00035 0.6239 0.85741 0.0
C352 C 0.98931 0.60588 0.84167 0.0
C353 C 0.96874 0.60663 0.8182 0.0
C354 C 0.05571 0.60816 0.83628 0.0
C355 C 0.06543 0.62146 0.89791 0.0
C356 C 0.0347 0.60904 0.82337 0.0
C357 C 0.02275 0.6231 0.87245 0.0
C358 C 0.03247 0.63647 0.93408 0.0
C359 C 0.05359 0.6357 0.94646 0.0
H360 H 0.58844 0.93331 0.19722 0.0
H361 H 0.65405 0.93174 0.18193 0.0
H362 H 0.58946 0.96993 0.21922 0.0
H363 H 0.6552 0.9684 0.20834 0.0
H364 H 0.64996 0.03768 0.19753 0.0
H365 H 0.6485 0.00182 0.15151 0.0
H366 H 0.59783 0.9926 0.33722 0.0
H367 H 0.59881 0.02826 0.37923 0.0
C368 C 0.60311 0.9408 0.19907 0.0
C369 C 0.62117 0.92961 0.18875 0.0
C370 C 0.60372 0.96182 0.21213 0.0
C371 C 0.62243 0.97217 0.21697 0.0
C372 C 0.6405 0.96102 0.2041 0.0
C373 C 0.63987 0.93997 0.18952 0.0
C374 C 0.63841 0.02793 0.22738 0.0
C375 C 0.62446 0.0357 0.29156 0.0
C376 C 0.63765 0.00738 0.20169 0.0
C377 C 0.62299 0.99425 0.24035 0.0
C378 C 0.60902 0.00225 0.30423 0.0
C379 C 0.60967 0.02272 0.32896 0.0
H380 H 0.93382 0.34623 0.98129 0.0
H381 H 0.93408 0.40593 0.85547 0.0
H382 H 0.97041 0.34366 0.95762 0.0
H383 H 0.97063 0.40316 0.83079 0.0
H384 H 0.03924 0.39855 0.86234 0.0
H385 H 0.00366 0.40161 0.9099 0.0
H386 H 0.99289 0.33958 0.82428 0.0
H387 H 0.02846 0.33651 0.77807 0.0
C388 C 0.94165 0.35888 0.94913 0.0
C389 C 0.93093 0.37626 0.91987 0.0
C390 C 0.96264 0.35733 0.93515 0.0
C391 C 0.97342 0.37315 0.89193 0.0
C392 C 0.96282 0.39078 0.86517 0.0
C393 C 0.94181 0.39231 0.87887 0.0
C394 C 0.02929 0.38552 0.85485 0.0
C395 C 0.03653 0.36731 0.8164 0.0
C396 C 0.00891 0.38731 0.88147 0.0
C397 C 0.99542 0.37087 0.87047 0.0
C398 C 0.00291 0.35245 0.83464 0.0
C399 C 0.02326 0.3507 0.80778 0.0
H400 H 0.34143 0.43128 0.16262 0.0
H401 H 0.40705 0.4328 0.14764 0.0
H402 H 0.34025 0.46786 0.13394 0.0
H403 H 0.40599 0.46937 0.12334 0.0
H404 H 0.39649 0.52735 0.95956 0.0
H405 H 0.39763 0.49179 1.00396 0.0
H406 H 0.3469 0.50136 0.18894 0.0
H407 H 0.34528 0.53706 0.14053 0.0
C408 C 0.35561 0.43949 0.15465 0.0
C409 C 0.37432 0.42914 0.15619 0.0
C410 C 0.35496 0.4605 0.13876 0.0
C411 C 0.37302 0.47161 0.12531 0.0
C412 C 0.39174 0.46128 0.13089 0.0
C413 C 0.39237 0.44029 0.14528 0.0
C414 C 0.38566 0.52189 1.01017 0.0
C415 C 0.3708 0.53491 0.04667 0.0
C416 C 0.38638 0.50149 1.03627 0.0
C417 C 0.37243 0.49362 0.10061 0.0
C418 C 0.35773 0.50681 0.13842 0.0
C419 C 0.35688 0.52728 0.11135 0.0
H420 H 0.52756 0.59832 0.13658 0.0
H421 H 0.53716 0.64935 0.95413 0.0
H422 H 0.49196 0.59725 0.09327 0.0
H423 H 0.5014 0.6478 0.90675 0.0
H424 H 0.43132 0.65333 0.93388 0.0
H425 H 0.46792 0.65453 0.96197 0.0
H426 H 0.46945 0.58879 0.97481 0.0
H427 H 0.43288 0.58773 0.95118 0.0
C428 C 0.52207 0.60913 0.08587 0.0
C429 C 0.53507 0.62392 0.04864 0.0
C430 C 0.50164 0.60844 0.06039 0.0
C431 C 0.49372 0.62236 0.99591 0.0
C432 C 0.50689 0.63699 0.9574 0.0
C433 C 0.52739 0.63781 0.98386 0.0
C434 C 0.43954 0.63916 0.94229 0.0
C435 C 0.4292 0.62045 0.94158 0.0
C436 C 0.46056 0.63982 0.95783 0.0
C437 C 0.47169 0.62176 0.97171 0.0
C438 C 0.46135 0.60304 0.96696 0.0
C439 C 0.44037 0.60241 0.95296 0.0
H440 H 0.65359 0.56321 0.16218 0.0
H441 H 0.58806 0.5616 0.14105 0.0
H442 H 0.65494 0.5266 0.13471 0.0
H443 H 0.58926 0.52501 0.11802 0.0
H444 H 0.59935 0.46667 0.95899 0.0
H445 H 0.59811 0.50233 1.00094 0.0
H446 H 0.64814 0.49318 0.19037 0.0
H447 H 0.64988 0.45734 0.14436 0.0
C448 C 0.63946 0.55498 0.15303 0.0
C449 C 0.62073 0.56532 0.15259 0.0
C450 C 0.64021 0.53395 0.13785 0.0
C451 C 0.62222 0.52279 0.12316 0.0
C452 C 0.60347 0.53312 0.12656 0.0
C453 C 0.60275 0.55413 0.14022 0.0
C454 C 0.61001 0.47224 1.01003 0.0
C455 C 0.62471 0.45928 0.04851 0.0
C456 C 0.60922 0.49271 1.03472 0.0
C457 C 0.62294 0.50073 0.09965 0.0
C458 C 0.63749 0.48761 0.13935 0.0
C459 C 0.63842 0.46707 0.11367 0.0
H460 H 0.45788 0.34525 0.95668 0.0
H461 H 0.46742 0.39603 0.14004 0.0
H462 H 0.49365 0.34689 0.90953 0.0
H463 H 0.50303 0.39718 0.09692 0.0
H464 H 0.56234 0.40666 0.95603 0.0
H465 H 0.52575 0.40573 0.97923 0.0
H466 H 0.52701 0.34 0.96524 0.0
H467 H 0.5636 0.34107 0.93768 0.0
C468 C 0.46764 0.35675 0.98667 0.0
C469 C 0.45994 0.37054 0.05168 0.0
C470 C 0.48814 0.35762 0.96033 0.0
C471 C 0.50131 0.3722 0.9992 0.0
C472 C 0.49336 0.38604 0.06381 0.0
C473 C 0.47293 0.38529 0.08918 0.0
C474 C 0.55479 0.39201 0.95745 0.0
C475 C 0.56589 0.37394 0.94585 0.0
C476 C 0.53379 0.39145 0.97119 0.0
C477 C 0.52336 0.37277 0.97541 0.0
C478 C 0.53443 0.35469 0.96143 0.0
C479 C 0.55545 0.35528 0.9462 0.0
H480 H 0.89587 0.45619 0.73032 0.0
H481 H 0.83745 0.46725 0.8567 0.0
H482 H 0.89808 0.49219 0.68704 0.0
H483 H 0.83963 0.5031 0.814 0.0
H484 H 0.84232 0.5627 0.6549 0.0
H485 H 0.84 0.52603 0.67797 0.0
H486 H 0.9022 0.52488 0.77373 0.0
H487 H 0.90467 0.56155 0.75017 0.0
C488 C 0.88342 0.46628 0.74779 0.0
C489 C 0.86651 0.45902 0.79691 0.0
C490 C 0.88474 0.48687 0.72365 0.0
C491 C 0.86906 0.50048 0.74744 0.0
C492 C 0.85186 0.49298 0.79391 0.0
C493 C 0.85064 0.47247 0.81867 0.0
C494 C 0.85556 0.55466 0.68041 0.0
C495 C 0.87365 0.56514 0.70112 0.0
C496 C 0.85419 0.53364 0.6939 0.0
C497 C 0.87091 0.52258 0.72772 0.0
C498 C 0.88913 0.53296 0.74663 0.0
C499 C 0.89047 0.55401 0.73381 0.0
H500 H 0.56171 0.08775 0.38758 0.0
H501 H 0.56243 0.15339 0.40256 0.0
H502 H 0.52504 0.08834 0.3662 0.0
H503 H 0.52578 0.15411 0.37667 0.0
H504 H 0.45686 0.14861 0.38867 0.0
H505 H 0.4927 0.14718 0.43457 0.0
H506 H 0.50191 0.0964 0.24959 0.0
H507 H 0.46621 0.09735 0.20783 0.0
C508 C 0.55402 0.10233 0.38576 0.0
C509 C 0.56497 0.12052 0.39596 0.0
C510 C 0.53298 0.1027 0.37307 0.0
C511 C 0.52239 0.12129 0.36849 0.0
C512 C 0.53333 0.1395 0.3809 0.0
C513 C 0.55438 0.1391 0.39514 0.0
C514 C 0.4666 0.13704 0.35901 0.0
C515 C 0.45883 0.12307 0.29501 0.0
C516 C 0.48714 0.13629 0.38461 0.0
C517 C 0.50028 0.12165 0.34592 0.0
C518 C 0.49226 0.1076 0.2825 0.0
C519 C 0.47178 0.10822 0.25792 0.0
H520 H 0.09634 0.52821 0.87946 0.0
H521 H 0.1495 0.5368 0.70925 0.0
H522 H 0.09496 0.49262 0.83533 0.0
H523 H 0.14771 0.50113 0.66119 0.0
H524 H 0.15259 0.43135 0.69354 0.0
H525 H 0.15351 0.46791 0.72003 0.0
H526 H 0.08775 0.46965 0.71632 0.0
H527 H 0.08687 0.43299 0.69385 0.0
C528 C 0.10756 0.52251 0.83123 0.0
C529 C 0.12306 0.5352 0.79791 0.0
C530 C 0.1067 0.5021 0.80527 0.0
C531 C 0.12119 0.4939 0.74435 0.0
C532 C 0.13646 0.50681 0.70924 0.0
C533 C 0.13743 0.52727 0.73611 0.0
C534 C 0.13833 0.43957 0.69775 0.0
C535 C 0.11965 0.42921 0.69254 0.0
C536 C 0.13886 0.4606 0.71239 0.0
C537 C 0.12071 0.47181 0.72107 0.0
C538 C 0.10204 0.46149 0.71221 0.0
C539 C 0.10152 0.44045 0.69884 0.0
H540 H 0.53724 0.84558 0.38886 0.0
H541 H 0.52822 0.89755 0.21131 0.0
H542 H 0.50152 0.8474 0.43658 0.0
H543 H 0.49263 0.89894 0.25522 0.0
H544 H 0.43314 0.90791 0.39621 0.0
H545 H 0.46978 0.90691 0.37371 0.0
H546 H 0.46817 0.84114 0.37957 0.0
H547 H 0.43159 0.84222 0.40607 0.0
C548 C 0.52761 0.85739 0.36029 0.0
C549 C 0.53545 0.87144 0.29661 0.0
C550 C 0.50712 0.85837 0.387 0.0
C551 C 0.49409 0.87334 0.34991 0.0
C552 C 0.50219 0.88747 0.28688 0.0
C553 C 0.52261 0.88659 0.26105 0.0
C554 C 0.44062 0.89323 0.39334 0.0
C555 C 0.4294 0.87515 0.40224 0.0
C556 C 0.46166 0.89264 0.37994 0.0
C557 C 0.47201 0.87393 0.37358 0.0
C558 C 0.46083 0.85584 0.38509 0.0
C559 C 0.43979 0.85645 0.39978 0.0
H560 H 0.8424 0.93238 0.67166 0.0
H561 H 0.90683 0.93232 0.61183 0.0
H562 H 0.84108 0.96887 0.63962 0.0
H563 H 0.90559 0.96867 0.58224 0.0
H564 H 0.89067 0.02563 0.4161 0.0
H565 H 0.89225 0.99005 0.46233 0.0
H566 H 0.85185 0.0026 0.69051 0.0
H567 H 0.84994 0.0383 0.64235 0.0
C568 C 0.85632 0.94018 0.653 0.0
C569 C 0.87466 0.92938 0.64325 0.0
C570 C 0.85558 0.96111 0.63498 0.0
C571 C 0.87319 0.97165 0.60731 0.0
C572 C 0.89165 0.96095 0.60132 0.0
C573 C 0.89237 0.94008 0.61874 0.0
C574 C 0.8822 0.0208 0.47635 0.0
C575 C 0.8702 0.03466 0.52573 0.0
C576 C 0.88319 0.00043 0.50326 0.0
C577 C 0.87226 0.99347 0.58048 0.0
C578 C 0.86031 0.00743 0.63025 0.0
C579 C 0.8593 0.02786 0.6031 0.0
H580 H 0.02578 0.10366 0.67413 0.0
H581 H 0.03863 0.14024 0.43372 0.0
H582 H 0.9901 0.10186 0.62987 0.0
H583 H 0.00289 0.138 0.38741 0.0
H584 H 0.93344 0.14939 0.40118 0.0
H585 H 0.9698 0.15031 0.43407 0.0
H586 H 0.96772 0.08724 0.51824 0.0
H587 H 0.93135 0.08646 0.48795 0.0
C588 C 0.02096 0.11114 0.61118 0.0
C589 C 0.0349 0.1221 0.55733 0.0
C590 C 0.00054 0.11001 0.58541 0.0
C591 C 0.9936 0.11973 0.50485 0.0
C592 C 0.00766 0.13053 0.45041 0.0
C593 C 0.02813 0.13172 0.47651 0.0
C594 C 0.94077 0.13568 0.42613 0.0
C595 C 0.92943 0.1179 0.44262 0.0
C596 C 0.96165 0.13618 0.44456 0.0
C597 C 0.97168 0.11889 0.47942 0.0
C598 C 0.96042 0.10095 0.49321 0.0
C599 C 0.93955 0.10048 0.47536 0.0
H600 H 0.09777 0.95497 0.61694 0.0
H601 H 0.15666 0.96655 0.4961 0.0
H602 H 0.09499 0.99098 0.65945 0.0
H603 H 0.15392 0.00236 0.53817 0.0
H604 H 0.15056 0.06153 0.69741 0.0
H605 H 0.15282 0.02488 0.67535 0.0
H606 H 0.09115 0.024 0.57289 0.0
H607 H 0.08874 0.06076 0.5954 0.0
C608 C 0.11019 0.96517 0.60052 0.0
C609 C 0.12742 0.95804 0.5533 0.0
C610 C 0.10855 0.98577 0.6242 0.0
C611 C 0.12422 -0.0005 0.60197 0.0
C612 C 0.14169 0.99214 0.55712 0.0
C613 C 0.14323 0.97165 0.53274 0.0
C614 C 0.13739 0.05357 0.67079 0.0
C615 C 0.11949 0.06416 0.6477 0.0
C616 C 0.13874 0.03255 0.65783 0.0
C617 C 0.1222 0.02157 0.62208 0.0
C618 C 0.10409 0.03203 0.60133 0.0
C619 C 0.10278 0.05311 0.61365 0.0
H620 H 0.06011 0.90585 0.47111 0.0
H621 H 0.06313 0.84147 0.41156 0.0
H622 H 0.02364 0.90272 0.5007 0.0
H623 H 0.02675 0.83843 0.44157 0.0
H624 H 0.96897 0.83938 0.63007 0.0
H625 H 0.0048 0.84193 0.58548 0.0
H626 H 0.99077 0.894 0.41499 0.0
H627 H 0.95492 0.89134 0.45905 0.0
C628 C 0.053 0.89108 0.46367 0.0
C629 C 0.06455 0.87392 0.43904 0.0
C630 C 0.03211 0.88932 0.48022 0.0
C631 C 0.02241 0.87031 0.47371 0.0
C632 C 0.03388 0.85322 0.44781 0.0
C633 C 0.05469 0.85502 0.43005 0.0
C634 C 0.97355 0.85123 0.58241 0.0
C635 C 0.95925 0.86516 0.54795 0.0
C636 C 0.994 0.85265 0.55669 0.0
C637 C 0.00054 0.8682 0.49696 0.0
C638 C 0.98616 0.88198 0.4617 0.0
C639 C 0.96566 0.88039 0.48649 0.0
H640 H 0.41003 0.19491 0.21997 0.0
H641 H 0.34903 0.19651 0.10823 0.0
H642 H 0.4104 0.23199 0.2254 0.0
H643 H 0.34959 0.23351 0.11272 0.0
H644 H 0.34912 0.29765 0.23399 0.0
H645 H 0.34945 0.26064 0.22926 0.0
H646 H 0.41066 0.26173 0.12111 0.0
H647 H 0.41052 0.2988 0.12681 0.0
C648 C 0.39674 0.20312 0.19613 0.0
C649 C 0.37948 0.19266 0.16384 0.0
C650 C 0.397 0.22439 0.19888 0.0
C651 C 0.38 0.23568 0.16982 0.0
C652 C 0.36283 0.22524 0.13682 0.0
C653 C 0.36258 0.204 0.13371 0.0
C654 C 0.3627 0.29006 0.20944 0.0
C655 C 0.37979 0.30128 0.18071 0.0
C656 C 0.36283 0.26881 0.20619 0.0
C657 C 0.38005 0.25826 0.17444 0.0
C658 C 0.39723 0.26942 0.14668 0.0
C659 C 0.39709 0.29069 0.14956 0.0
H660 H 0.29911 0.58371 0.9657 0.0
H661 H 0.29787 0.64484 0.8549 0.0
H662 H 0.26207 0.58356 0.97177 0.0
H663 H 0.26084 0.6445 0.86006 0.0
H664 H 0.1968 0.64508 0.98438 0.0
H665 H 0.2338 0.64464 0.97774 0.0
H666 H 0.23227 0.58356 0.86833 0.0
H667 H 0.19523 0.58381 0.87589 0.0
C668 C 0.29099 0.59708 0.94211 0.0
C669 C 0.30154 0.6143 0.90996 0.0
C670 C 0.26973 0.59694 0.94523 0.0
C671 C 0.25853 0.61404 0.91672 0.0
C672 C 0.26905 0.63118 0.88371 0.0
C673 C 0.29029 0.6313 0.88017 0.0
C674 C 0.2043 0.63149 0.95921 0.0
C675 C 0.19296 0.61447 0.93067 0.0
C676 C 0.22553 0.63132 0.9548 0.0
C677 C 0.23596 0.6141 0.92213 0.0
C678 C 0.22468 0.597 0.89457 0.0
C679 C 0.20342 0.59719 0.89857 0.0
H680 H 0.58453 0.79948 0.2209 0.0
H681 H 0.64606 0.79783 0.11534 0.0
H682 H 0.58412 0.76243 0.22713 0.0
H683 H 0.64545 0.7608 0.12063 0.0
H684 H 0.64511 0.69648 0.24087 0.0
H685 H 0.64492 0.73351 0.23687 0.0
H686 H 0.58422 0.73279 0.12294 0.0
H687 H 0.58421 0.69571 0.12785 0.0
C688 C 0.59794 0.79127 0.19865 0.0
C689 C 0.61535 0.80171 0.16773 0.0
C690 C 0.59765 0.77 0.20184 0.0
C691 C 0.61477 0.75868 0.17464 0.0
C692 C 0.63211 0.7691 0.14325 0.0
C693 C 0.63239 0.79035 0.13966 0.0
C694 C 0.63166 0.70416 0.2153 0.0
C695 C 0.61467 0.69304 0.1846 0.0
C696 C 0.63163 0.72542 0.21244 0.0
C697 C 0.6146 0.73609 0.17919 0.0
C698 C 0.59751 0.72502 0.14968 0.0
C699 C 0.59756 0.70374 0.15215 0.0
H700 H 0.79922 0.34767 0.99157 0.0
H701 H 0.79966 0.40868 0.87937 0.0
H702 H 0.76211 0.34783 0.98902 0.0
H703 H 0.76265 0.40865 0.87582 0.0
H704 H 0.6965 0.40903 0.97647 0.0
H705 H 0.73354 0.40892 0.98204 0.0
H706 H 0.73426 0.34761 0.87516 0.0
H707 H 0.69722 0.34753 0.87056 0.0
C708 C 0.79145 0.36111 0.96639 0.0
C709 C 0.80247 0.37816 0.93564 0.0
C710 C 0.77017 0.36114 0.96441 0.0
C711 C 0.75944 0.37824 0.93209 0.0
C712 C 0.77045 0.39532 0.90206 0.0
C713 C 0.79171 0.39527 0.90366 0.0
C714 C 0.7045 0.39551 0.95404 0.0
C715 C 0.6938 0.37829 0.92302 0.0
C716 C 0.72577 0.39549 0.95687 0.0
C717 C 0.73684 0.37824 0.92914 0.0
C718 C 0.72616 0.36104 0.89808 0.0
C719 C 0.70491 0.36108 0.89486 0.0
H720 H 0.8499 0.69502 0.58711 0.0
H721 H 0.90943 0.69598 0.71413 0.0
H722 H 0.84966 0.73205 0.58344 0.0
H723 H 0.90901 0.73311 0.71105 0.0
H724 H 0.90878 0.7991 0.60318 0.0
H725 H 0.90969 0.76199 0.60007 0.0
H726 H 0.84755 0.76007 0.69641 0.0
H727 H 0.8465 0.79711 0.69881 0.0
C728 C 0.86298 0.70308 0.61403 0.0
C729 C 0.87968 0.69246 0.65109 0.0
C730 C 0.86276 0.72434 0.6124 0.0
C731 C 0.87927 0.7355 0.64729 0.0
C732 C 0.89613 0.72492 0.68294 0.0
C733 C 0.89631 0.70364 0.6851 0.0
C734 C 0.89527 0.7908 0.62338 0.0
C735 C 0.87756 0.80113 0.6512 0.0
C736 C 0.89585 0.76952 0.62213 0.0
C737 C 0.87869 0.75811 0.64797 0.0
C738 C 0.86095 0.76843 0.6751 0.0
C739 C 0.8604 0.78969 0.67695 0.0
H740 H 0.79854 0.08746 0.47791 0.0
H741 H 0.79823 0.14796 0.36016 0.0
H742 H 0.76153 0.08741 0.47914 0.0
H743 H 0.76111 0.14772 0.36053 0.0
H744 H 0.69573 0.14796 0.47299 0.0
H745 H 0.73276 0.14812 0.47237 0.0
H746 H 0.73306 0.08656 0.36844 0.0
H747 H 0.69599 0.08621 0.36997 0.0
C748 C 0.79062 0.10076 0.45217 0.0
C749 C 0.80141 0.11774 0.41898 0.0
C750 C 0.76937 0.10065 0.45238 0.0
C751 C 0.75841 0.11753 0.41979 0.0
C752 C 0.76916 0.13456 0.38696 0.0
C753 C 0.79043 0.13464 0.38635 0.0
C754 C 0.70363 0.13441 0.45016 0.0
C755 C 0.69282 0.11704 0.42167 0.0
C756 C 0.72488 0.13458 0.44925 0.0
C757 C 0.73582 0.11737 0.42025 0.0
C758 C 0.72505 0.09999 0.39207 0.0
C759 C 0.70378 0.09983 0.39256 0.0
H760 H 0.08738 0.29821 0.73468 0.0
H761 H 0.147 0.29836 0.6086 0.0
H762 H 0.08728 0.26108 0.73203 0.0
H763 H 0.14674 0.26131 0.6054 0.0
H764 H 0.14823 0.19555 0.713 0.0
H765 H 0.14804 0.23261 0.71576 0.0
H766 H 0.08598 0.23282 0.61809 0.0
H767 H 0.08602 0.19569 0.61594 0.0
C768 C 0.10046 0.29037 0.70638 0.0
C769 C 0.1172 0.30132 0.67195 0.0
C770 C 0.10033 0.26908 0.70436 0.0
C771 C 0.117 0.25826 0.66853 0.0
C772 C 0.13375 0.2692 0.63434 0.0
C773 C 0.13383 0.29046 0.63575 0.0
C774 C 0.13452 0.20345 0.69204 0.0
C775 C 0.11714 0.19258 0.66417 0.0
C776 C 0.13446 0.22471 0.69319 0.0
C777 C 0.117 0.23564 0.6671 0.0
C778 C 0.0996 0.22482 0.63946 0.0
C779 C 0.09969 0.20353 0.63768 0.0
H780 H 0.29836 0.84809 0.48509 0.0
H781 H 0.29881 0.90702 0.35209 0.0
H782 H 0.26127 0.84824 0.48327 0.0
H783 H 0.2617 0.90701 0.34976 0.0
H784 H 0.19577 0.90887 0.45906 0.0
H785 H 0.23287 0.90891 0.46009 0.0
H786 H 0.23317 0.84637 0.36915 0.0
H787 H 0.19608 0.84619 0.36872 0.0
C788 C 0.29058 0.86108 0.45547 0.0
C789 C 0.3016 0.87755 0.41875 0.0
C790 C 0.26931 0.86109 0.45392 0.0
C791 C 0.25856 0.87763 0.41625 0.0
C792 C 0.26955 0.89414 0.38003 0.0
C793 C 0.29083 0.89407 0.38095 0.0
C794 C 0.20371 0.89511 0.43921 0.0
C795 C 0.19289 0.87752 0.41394 0.0
C796 C 0.22499 0.89519 0.43933 0.0
C797 C 0.23595 0.87764 0.41484 0.0
C798 C 0.22515 0.86006 0.38937 0.0
C799 C 0.20388 0.86002 0.38859 0.0
H800 H 0.19337 0.15877 0.87651 0.0
H801 H 0.20594 0.09893 0.76832 0.0
H802 H 0.22756 0.16025 0.94163 0.0
H803 H 0.23975 0.09981 0.83715 0.0
H804 H 0.30586 0.1149 0.89259 0.0
H805 H 0.27206 0.11472 0.82277 0.0
H806 H 0.24832 0.14722 0.05876 0.0
H807 H 0.28228 0.14821 0.1255 0.0
C808 C 0.20342 0.14584 0.86778 0.0
C809 C 0.19711 0.12876 0.81746 0.0
C810 C 0.22298 0.1466 0.90543 0.0
C811 C 0.23653 0.13015 0.89468 0.0
C812 C 0.22996 0.11294 0.84529 0.0
C813 C 0.21051 0.11233 0.80654 0.0
C814 C 0.29338 0.12209 0.9289 0.0
C815 C 0.2966 0.13158 1.01416 0.0
C816 C 0.27397 0.12186 0.88943 0.0
C817 C 0.25734 0.13088 0.9352 0.0
C818 C 0.26074 0.14043 1.0206 0.0
C819 C 0.28019 0.1409 0.05926 0.0
H820 H 0.14995 0.71117 0.97608 0.0
H821 H 0.11589 0.6875 0.20704 0.0
H822 H 0.15035 0.74482 0.04762 0.0
H823 H 0.11651 0.72124 0.27943 0.0
H824 H 0.1431 0.7808 0.41165 0.0
H825 H 0.14364 0.74654 0.34459 0.0
H826 H 0.12237 0.77105 0.08559 0.0
H827 H 0.12156 0.80515 0.15279 0.0
C828 C 0.14265 0.71317 1.04243 0.0
C829 C 0.13282 0.69682 0.08602 0.0
C830 C 0.14281 0.73241 0.08309 0.0
C831 C 0.13341 0.7356 0.1688 0.0
C832 C 0.12396 0.71913 0.21349 0.0
C833 C 0.12352 0.69991 0.17202 0.0
C834 C 0.13858 0.77881 0.3404 0.0
C835 C 0.1323 0.79554 0.28721 0.0
C836 C 0.13879 0.75925 0.30231 0.0
C837 C 0.13307 0.75621 0.21 0.0
C838 C 0.127 0.77302 0.15672 0.0
C839 C 0.12647 0.79248 0.19519 0.0
H840 H 0.68841 0.87836 0.89062 0.0
H841 H 0.71298 0.84892 0.13253 0.0
H842 H 0.72239 0.87858 0.82065 0.0
H843 H 0.74693 0.84945 0.06337 0.0
H844 H 0.8068 0.87746 0.94242 0.0
H845 H 0.77284 0.87753 1.01283 0.0
H846 H 0.74788 0.85057 0.76626 0.0
H847 H 0.78177 0.85017 0.69669 0.0
C848 C 0.70108 0.87198 0.9287 0.0
C849 C 0.69813 0.86359 1.01671 0.0
C850 C 0.72046 0.87206 0.88873 0.0
C851 C 0.73725 0.86409 0.93689 0.0
C852 C 0.73427 0.85584 1.0252 0.0
C853 C 0.71486 0.85543 0.0644 0.0
C854 C 0.79403 0.87153 0.90359 0.0
C855 C 0.79684 0.86378 0.81435 0.0
C856 C 0.77467 0.87152 0.94381 0.0
C857 C 0.75778 0.86412 0.89471 0.0
C858 C 0.76062 0.85652 0.80521 0.0
C859 C 0.78 0.85619 0.76573 0.0
H860 H 0.84927 0.28255 0.94546 0.0
H861 H 0.87829 0.30506 0.19195 0.0
H862 H 0.85002 0.24804 1.00832 0.0
H863 H 0.87837 0.27085 0.25665 0.0
H864 H 0.89548 0.20551 0.30991 0.0
H865 H 0.89486 0.2392 0.2398 0.0
H866 H 0.83583 0.22614 0.12211 0.0
H867 H 0.837 0.19204 0.18939 0.0
C868 C 0.85562 0.2801 1.0135 0.0
C869 C 0.86381 0.29639 0.06377 0.0
C870 C 0.85597 0.26036 0.04981 0.0
C871 C 0.86438 0.25657 0.13746 0.0
C872 C 0.87219 0.27307 0.18816 0.0
C873 C 0.87201 0.29272 0.15149 0.0
C874 C 0.88245 0.20984 0.26854 0.0
C875 C 0.86627 0.19626 0.25515 0.0
C876 C 0.88198 0.22921 0.22892 0.0
C877 C 0.86518 0.23555 0.176 0.0
C878 C 0.84911 0.22175 0.16157 0.0
C879 C 0.84971 0.20225 0.20042 0.0
H880 H 0.30742 0.37633 0.45961 0.0
H881 H 0.28233 0.35007 0.21165 0.0
H882 H 0.2734 0.37643 0.52962 0.0
H883 H 0.24838 0.35061 0.28071 0.0
H884 H 0.18964 0.38025 0.40718 0.0
H885 H 0.22377 0.38018 0.33871 0.0
H886 H 0.24677 0.34725 0.57439 0.0
H887 H 0.21262 0.34691 0.64188 0.0
C888 C 0.29463 0.37063 0.42024 0.0
C889 C 0.29741 0.36317 0.33051 0.0
C890 C 0.27525 0.37064 0.4602 0.0
C891 C 0.25836 0.36359 0.41018 0.0
C892 C 0.26117 0.35626 0.32027 0.0
C893 C 0.28056 0.35586 0.28111 0.0
C894 C 0.20201 0.37297 0.44404 0.0
C895 C 0.19858 0.36354 0.52948 0.0
C896 C 0.22145 0.3729 0.40494 0.0
C897 C 0.23781 0.36376 0.45163 0.0
C898 C 0.2344 0.35451 0.53751 0.0
C899 C 0.21489 0.35422 0.5757 0.0
H900 H 0.39193 0.6931 0.69226 0.0
H901 H 0.33425 0.70589 0.82235 0.0
H902 H 0.39209 0.72728 0.6249 0.0
H903 H 0.3344 0.74002 0.75535 0.0
H904 H 0.33227 0.7904 0.53363 0.0
H905 H 0.33204 0.75618 0.59978 0.0
H906 H 0.39484 0.76339 0.68134 0.0
H907 H 0.39505 0.79765 0.61481 0.0
C908 C 0.37927 0.70321 0.70606 0.0
C909 C 0.36308 0.69693 0.76231 0.0
C910 C 0.37943 0.72278 0.66812 0.0
C911 C 0.36328 0.73632 0.68513 0.0
C912 C 0.34696 0.72986 0.74045 0.0
C913 C 0.3469 0.71038 0.77898 0.0
C914 C 0.34599 0.78468 0.56605 0.0
C915 C 0.36368 0.7966 0.56929 0.0
C916 C 0.34584 0.76514 0.6041 0.0
C917 C 0.36344 0.75712 0.64548 0.0
C918 C 0.38113 0.76911 0.64893 0.0
C919 C 0.38122 0.78873 0.6115 0.0
H920 H 0.69332 0.60263 0.40206 0.0
H921 H 0.70621 0.66006 0.26946 0.0
H922 H 0.72754 0.60244 0.46884 0.0
H923 H 0.74037 0.65987 0.33577 0.0
H924 H 0.79106 0.66221 0.55501 0.0
H925 H 0.75675 0.66246 0.49019 0.0
H926 H 0.76354 0.59939 0.41228 0.0
H927 H 0.79788 0.59915 0.47761 0.0
C928 C 0.70346 0.61523 0.38759 0.0
C929 C 0.6972 0.63136 0.3308 0.0
C930 C 0.72305 0.61506 0.42519 0.0
C931 C 0.73663 0.63112 0.40726 0.0
C932 C 0.73019 0.64738 0.35141 0.0
C933 C 0.71068 0.64746 0.31326 0.0
C934 C 0.78522 0.64844 0.52369 0.0
C935 C 0.79706 0.63067 0.5211 0.0
C936 C 0.76564 0.6486 0.4864 0.0
C937 C 0.75747 0.63093 0.44639 0.0
C938 C 0.76937 0.61315 0.44364 0.0
C939 C 0.78904 0.61305 0.48037 0.0
H940 H 0.6448 0.21328 0.45171 0.0
H941 H 0.61581 0.18857 0.69441 0.0
H942 H 0.64463 0.24714 0.52164 0.0
H943 H 0.61598 0.22247 0.76516 0.0
H944 H 0.64554 0.28158 0.88749 0.0
H945 H 0.64481 0.24774 0.81748 0.0
H946 H 0.61628 0.27288 0.57458 0.0
H947 H 0.61668 0.30677 0.6454 0.0
C948 C 0.63846 0.21512 0.52015 0.0
C949 C 0.63031 0.19841 0.56789 0.0
C950 C 0.63826 0.23446 0.55978 0.0
C951 C 0.63026 0.23734 0.6485 0.0
C952 C 0.6223 0.22057 0.69673 0.0
C953 C 0.62215 0.20126 0.65632 0.0
C954 C 0.63912 0.27985 0.81915 0.0
C955 C 0.63116 0.29669 0.77161 0.0
C956 C 0.6386 0.26052 0.77948 0.0
C957 C 0.63045 0.25777 0.69094 0.0
C958 C 0.6227 0.27467 0.64288 0.0
C959 C 0.62289 0.29398 0.68331 0.0
H960 H 0.39775 0.13292 0.40725 0.0
H961 H 0.33466 0.12039 0.46476 0.0
H962 H 0.40496 0.13359 0.57254 0.0
H963 H 0.34179 0.12011 0.62943 0.0
H964 H 0.35679 0.14086 0.92298 0.0
H965 H 0.34934 0.14054 0.75758 0.0
H966 H 0.40832 0.11371 0.70524 0.0
H967 H 0.41577 0.11473 0.86933 0.0
C968 C 0.3855 0.13005 0.45528 0.0
C969 C 0.36569 0.12661 0.42307 0.0
C970 C 0.38958 0.13033 0.5503 0.0
C971 C 0.37395 0.12693 0.6154 0.0
C972 C 0.35418 0.1232 0.58228 0.0
C973 C 0.35011 0.12316 0.48756 0.0
C974 C 0.36798 0.1347 0.87591 0.0
C975 C 0.38675 0.12766 0.90904 0.0
C976 C 0.36378 0.1345 0.78091 0.0
C977 C 0.37824 0.12713 0.71701 0.0
C978 C 0.39692 0.1199 0.75126 0.0
C979 C 0.40115 0.1203 0.84573 0.0
H980 H 0.13358 0.59611 0.68918 0.0
H981 H 0.12072 0.65912 0.63082 0.0
H982 H 0.13412 0.58879 0.52399 0.0
H983 H 0.12033 0.65189 0.46626 0.0
H984 H 0.14099 0.63688 0.1726 0.0
H985 H 0.1407 0.64437 0.33788 0.0
H986 H 0.11431 0.58524 0.39127 0.0
H987 H 0.11527 0.57776 0.22714 0.0
C988 C 0.13061 0.60832 0.64099 0.0
C989 C 0.12712 0.62814 0.67297 0.0
C990 C 0.13081 0.60417 0.54602 0.0
C991 C 0.1273 0.61975 0.48066 0.0
C992 C 0.12351 0.63953 0.51356 0.0
C993 C 0.12353 0.64367 0.60825 0.0
C994 C 0.13491 0.62567 0.21985 0.0
C995 C 0.12796 0.60685 0.18693 0.0
C996 C 0.13474 0.62989 0.31482 0.0
C997 C 0.12749 0.61541 0.37902 0.0
C998 C 0.12039 0.59666 0.34504 0.0
C999 C 0.12077 0.59241 0.25054 0.0
H1000 H 0.59657 0.86113 0.40804 0.0
H1001 H 0.65946 0.87452 0.46576 0.0
H1002 H 0.58936 0.8602 0.57333 0.0
H1003 H 0.65233 0.87454 0.63039 0.0
H1004 H 0.6377 0.85344 0.92379 0.0
H1005 H 0.64509 0.85388 0.75833 0.0
H1006 H 0.58574 0.87992 0.7061 0.0
H1007 H 0.57834 0.87877 0.87019 0.0
C1008 C 0.60876 0.86414 0.45612 0.0
C1009 C 0.62852 0.86789 0.42399 0.0
C1010 C 0.60469 0.8637 0.55112 0.0
C1011 C 0.62027 0.86726 0.61625 0.0
C1012 C 0.63999 0.87131 0.58321 0.0
C1013 C 0.64405 0.8715 0.48851 0.0
C1014 C 0.62641 0.85944 0.87671 0.0
C1015 C 0.60755 0.86623 0.90985 0.0
C1016 C 0.63058 0.85971 0.78169 0.0
C1017 C 0.616 0.86692 0.71784 0.0
C1018 C 0.59722 0.87387 0.75209 0.0
C1019 C 0.59303 0.87338 0.84656 0.0
H1020 H 0.8626 0.35715 0.17857 0.0
H1021 H 0.87706 0.4201 0.22941 0.0
H1022 H 0.86371 0.35031 0.34455 0.0
H1023 H 0.87787 0.4135 0.39491 0.0
H1024 H 0.85524 0.39797 0.68861 0.0
H1025 H 0.85469 0.4047 0.52242 0.0
H1026 H 0.88825 0.3492 0.47438 0.0
H1027 H 0.88876 0.34253 0.64003 0.0
C1028 C 0.86638 0.36941 0.22497 0.0
C1029 C 0.87015 0.38902 0.19069 0.0
C1030 C 0.86689 0.36557 0.3202 0.0
C1031 C 0.87091 0.38137 0.38332 0.0
C1032 C 0.87452 0.40102 0.34862 0.0
C1033 C 0.87417 0.40477 0.25362 0.0
C1034 C 0.86259 0.3873 0.64245 0.0
C1035 C 0.87204 0.36973 0.67734 0.0
C1036 C 0.86232 0.39116 0.54727 0.0
C1037 C 0.87135 0.37743 0.48481 0.0
C1038 C 0.88091 0.35994 0.52019 0.0
C1039 C 0.88132 0.35619 0.61524 0.0
H1040 H 0.41692 0.37855 0.47668 0.0
H1041 H 0.35774 0.35285 0.42365 0.0
H1042 H 0.40952 0.37974 0.64077 0.0
H1043 H 0.35033 0.35335 0.58909 0.0
H1044 H 0.33588 0.37403 0.88132 0.0
H1045 H 0.34299 0.37408 0.71668 0.0
H1046 H 0.40602 0.35993 0.77374 0.0
H1047 H 0.39884 0.36083 0.93904 0.0
C1048 C 0.40227 0.37311 0.50043 0.0
C1049 C 0.38779 0.36584 0.43731 0.0
C1050 C 0.39807 0.37361 0.59489 0.0
C1051 C 0.37934 0.36656 0.62928 0.0
C1052 C 0.36481 0.35925 0.56559 0.0
C1053 C 0.36898 0.35896 0.47059 0.0
C1054 C 0.3513 0.37106 0.85857 0.0
C1055 C 0.36685 0.36749 0.92309 0.0
C1056 C 0.35535 0.37088 0.76387 0.0
C1057 C 0.37508 0.3669 0.73085 0.0
C1058 C 0.39069 0.36338 0.79596 0.0
C1059 C 0.38662 0.3638 0.89096 0.0
H1060 H 0.3585 0.59638 0.15745 0.0
H1061 H 0.37517 0.65853 0.21409 0.0
H1062 H 0.35781 0.58915 0.32262 0.0
H1063 H 0.37552 0.65132 0.37871 0.0
H1064 H 0.35557 0.63768 0.67419 0.0
H1065 H 0.35554 0.64515 0.50876 0.0
H1066 H 0.37745 0.58427 0.45369 0.0
H1067 H 0.37652 0.57678 0.61768 0.0
C1068 C 0.36232 0.60839 0.20529 0.0
C1069 C 0.36692 0.62795 0.17291 0.0
C1070 C 0.36202 0.6043 0.30026 0.0
C1071 C 0.36661 0.61965 0.36516 0.0
C1072 C 0.37149 0.63917 0.33182 0.0
C1073 C 0.37149 0.64328 0.23711 0.0
C1074 C 0.36044 0.62602 0.62637 0.0
C1075 C 0.36609 0.6067 0.65867 0.0
C1076 C 0.36051 0.63025 0.53139 0.0
C1077 C 0.36645 0.6153 0.46675 0.0
C1078 C 0.37233 0.59607 0.50024 0.0
C1079 C 0.37198 0.59181 0.59466 0.0
H1080 H 0.59659 0.63585 0.93648 0.0
H1081 H 0.65882 0.61949 0.87971 0.0
H1082 H 0.58937 0.6365 0.77132 0.0
H1083 H 0.65162 0.61909 0.71513 0.0
H1084 H 0.6379 0.63902 0.41961 0.0
H1085 H 0.64535 0.63905 0.585 0.0
H1086 H 0.58461 0.61682 0.64037 0.0
H1087 H 0.57713 0.61775 0.4764 0.0
C1088 C 0.60862 0.6321 0.88861 0.0
C1089 C 0.6282 0.6276 0.92095 0.0
C1090 C 0.60453 0.63237 0.79365 0.0
C1091 C 0.61991 0.62785 0.72873 0.0
C1092 C 0.63945 0.62307 0.76203 0.0
C1093 C 0.64355 0.62309 0.85671 0.0
C1094 C 0.62626 0.63407 0.46749 0.0
C1095 C 0.60698 0.62835 0.43528 0.0
C1096 C 0.63049 0.634 0.56245 0.0
C1097 C 0.61558 0.62798 0.62716 0.0
C1098 C 0.59639 0.622 0.59376 0.0
C1099 C 0.59213 0.62235 0.49935 0.0
H1100 H 0.61767 0.41653 0.62509 0.0
H1101 H 0.64175 0.35665 0.67892 0.0
H1102 H 0.61637 0.40916 0.46106 0.0
H1103 H 0.64116 0.34926 0.5135 0.0
H1104 H 0.62017 0.33532 0.22126 0.0
H1105 H 0.62028 0.34246 0.38584 0.0
H1106 H 0.63605 0.4051 0.32832 0.0
H1107 H 0.635 0.3979 0.16309 0.0
C1108 C 0.62276 0.40174 0.60152 0.0
C1109 C 0.62959 0.38706 0.66484 0.0
C1110 C 0.62218 0.39755 0.50709 0.0
C1111 C 0.62873 0.37862 0.47294 0.0
C1112 C 0.63564 0.3639 0.53682 0.0
C1113 C 0.63599 0.36806 0.6318 0.0
C1114 C 0.62352 0.35066 0.24391 0.0
C1115 C 0.6275 0.36611 0.1793 0.0
C1116 C 0.62379 0.35473 0.33856 0.0
C1117 C 0.62829 0.37435 0.37143 0.0
C1118 C 0.6322 0.38985 0.30621 0.0
C1119 C 0.63169 0.38578 0.21126 0.0
H1120 H 0.83643 0.64023 0.96966 0.0
H1121 H 0.89795 0.62147 0.91131 0.0
H1122 H 0.84387 0.64059 0.13386 0.0
H1123 H 0.90534 0.62071 0.07658 0.0
H1124 H 0.9185 0.63859 0.37259 0.0
H1125 H 0.91111 0.63981 0.20837 0.0
H1126 H 0.84928 0.62085 0.26393 0.0
H1127 H 0.85667 0.62072 0.42902 0.0
C1128 C 0.85157 0.63605 0.99231 0.0
C1129 C 0.86663 0.63089 0.92775 0.0
C1130 C 0.85582 0.63605 0.08684 0.0
C1131 C 0.87521 0.63056 0.11984 0.0
C1132 C 0.89031 0.62537 0.05456 0.0
C1133 C 0.8861 0.62569 0.9596 0.0
C1134 C 0.90328 0.63483 0.34958 0.0
C1135 C 0.88812 0.62965 0.41369 0.0
C1136 C 0.89906 0.63531 0.25501 0.0
C1137 C 0.87959 0.63032 0.22151 0.0
C1138 C 0.86439 0.62516 0.28633 0.0
C1139 C 0.86858 0.62497 0.38127 0.0
H1140 H 0.64044 0.1384 0.66169 0.0
H1141 H 0.61717 0.07824 0.71575 0.0
H1142 H 0.63987 0.14577 0.82713 0.0
H1143 H 0.61587 0.08559 0.87981 0.0
H1144 H 0.63446 0.09709 0.17764 0.0
H1145 H 0.63554 0.08989 1.01241 0.0
H1146 H 0.61896 0.15233 0.95491 0.0
H1147 H 0.61881 0.15949 0.11947 0.0
C1148 C 0.63486 0.12692 0.70888 0.0
C1149 C 0.62868 0.10785 0.6759 0.0
C1150 C 0.63452 0.13107 0.80386 0.0
C1151 C 0.62784 0.11627 0.8678 0.0
C1152 C 0.62151 0.09727 0.83372 0.0
C1153 C 0.62208 0.09309 0.73928 0.0
C1154 C 0.63098 0.10916 0.12947 0.0
C1155 C 0.62654 0.12879 0.16142 0.0
C1156 C 0.63151 0.10509 1.03452 0.0
C1157 C 0.62737 0.12054 0.96931 0.0
C1158 C 0.62264 0.14011 1.00218 0.0
C1159 C 0.62235 0.14418 0.09682 0.0
H1160 H 0.07822 0.35109 0.37818 0.0
H1161 H 0.13601 0.37969 0.42987 0.0
H1162 H 0.08545 0.35057 0.21343 0.0
H1163 H 0.14326 0.37987 0.26491 0.0
H1164 H 0.15931 0.35994 0.97506 0.0
H1165 H 0.15183 0.35965 0.13903 0.0
H1166 H 0.0882 0.3701 0.07897 0.0
H1167 H 0.09581 0.3693 0.91381 0.0
C1168 C 0.09254 0.35727 0.35405 0.0
C1169 C 0.1068 0.36503 0.41701 0.0
C1170 C 0.09663 0.35716 0.25932 0.0
C1171 C 0.11499 0.36514 0.22479 0.0
C1172 C 0.12916 0.37311 0.28838 0.0
C1173 C 0.12512 0.37297 0.38331 0.0
C1174 C 0.1437 0.36214 0.99695 0.0
C1175 C 0.12812 0.36469 0.93165 0.0
C1176 C 0.13941 0.36215 0.09132 0.0
C1177 C 0.1194 0.36501 0.12336 0.0
C1178 C 0.10377 0.36758 0.05749 0.0
C1179 C 0.10808 0.36728 0.96265 0.0
H1180 H 0.35461 0.83587 0.11948 0.0
H1181 H 0.37351 0.89729 0.17791 0.0
H1182 H 0.35436 0.84333 0.9553 0.0
H1183 H 0.37454 0.9047 1.01289 0.0
H1184 H 0.35687 0.91815 0.71721 0.0
H1185 H 0.3558 0.91073 0.88132 0.0
H1186 H 0.37381 0.84861 0.82522 0.0
H1187 H 0.37361 0.85603 0.66019 0.0
C1188 C 0.35888 0.85099 0.09684 0.0
C1189 C 0.36402 0.86604 0.16137 0.0
C1190 C 0.35894 0.85525 1.00234 0.0
C1191 C 0.36455 0.87462 0.96946 0.0
C1192 C 0.36976 0.88969 1.03476 0.0
C1193 C 0.36931 0.88548 0.12963 0.0
C1194 C 0.3605 0.90287 0.74013 0.0
C1195 C 0.36526 0.88762 0.67593 0.0
C1196 C 0.36009 0.89863 0.83464 0.0
C1197 C 0.36482 0.87906 0.86792 0.0
C1198 C 0.36969 0.86379 0.803 0.0
C1199 C 0.36972 0.868 0.70811 0.0
H1200 H 0.83368 0.87029 0.36643 0.0
H1201 H 0.89803 0.86562 0.42019 0.0
H1202 H 0.84028 0.87152 0.2013 0.0
H1203 H 0.90481 0.86682 0.25396 0.0
H1204 H 0.90933 0.89091 0.9554 0.0
H1205 H 0.90289 0.89009 0.12123 0.0
H1206 H 0.85196 0.84979 0.07609 0.0
H1207 H 0.85843 0.8507 0.91003 0.0
C1208 C 0.8493 0.86954 0.34284 0.0
C1209 C 0.86538 0.868 0.4064 0.0
C1210 C 0.85308 0.87012 0.24799 0.0
C1211 C 0.87307 0.86923 0.21393 0.0
C1212 C 0.88922 0.86778 0.27772 0.0
C1213 C 0.88539 0.86709 0.37297 0.0
C1214 C 0.89671 0.88194 0.98092 0.0
C1215 C 0.88432 0.87095 0.91961 0.0
C1216 C 0.89311 0.88134 0.07609 0.0
C1217 C 0.87695 0.86982 0.11237 0.0
C1218 C 0.86441 0.859 0.05065 0.0
C1219 C 0.8681 0.85951 0.95543 0.0
H1220 H 0.8798 0.13638 0.16838 0.0
H1221 H 0.84121 0.0843 0.12182 0.0
H1222 H 0.88048 0.14308 1.00227 0.0
H1223 H 0.8417 0.09101 0.95631 0.0
H1224 H 0.86528 0.0965 0.65771 0.0
H1225 H 0.86456 0.08976 0.82389 0.0
H1226 H 0.85888 0.15423 0.87604 0.0
H1227 H 0.85974 0.1608 0.71063 0.0
C1228 C 0.87134 0.12647 0.12268 0.0
C1229 C 0.86045 0.10982 0.15815 0.0
C1230 C 0.87168 0.13031 1.02746 0.0
C1231 C 0.86122 0.11753 0.96545 0.0
C1232 C 0.8502 0.10099 1.00153 0.0
C1233 C 0.84978 0.09723 0.09659 0.0
C1234 C 0.86371 0.10915 0.70479 0.0
C1235 C 0.86242 0.12913 0.67104 0.0
C1236 C 0.86328 0.10534 0.80008 0.0
C1237 C 0.86167 0.12147 0.8638 0.0
C1238 C 0.86041 0.14145 0.82947 0.0
C1239 C 0.86076 0.14521 0.73446 0.0
H1240 H 0.13695 0.11471 0.91141 0.0
H1241 H 0.08423 0.15251 0.95773 0.0
H1242 H 0.14355 0.11404 0.0775 0.0
H1243 H 0.09087 0.15207 0.12329 0.0
H1244 H 0.09662 0.12811 0.42155 0.0
H1245 H 0.08991 0.12896 0.25538 0.0
H1246 H 0.15427 0.13583 0.20347 0.0
H1247 H 0.16081 0.13485 0.36878 0.0
C1248 C 0.12687 0.12301 0.95708 0.0
C1249 C 0.11007 0.13365 0.92161 0.0
C1250 C 0.13066 0.12267 0.05225 0.0
C1251 C 0.11768 0.13293 0.11414 0.0
C1252 C 0.101 0.14374 0.07808 0.0
C1253 C 0.09728 0.14413 0.98303 0.0
C1254 C 0.10924 0.12997 0.37452 0.0
C1255 C 0.12918 0.13156 0.40824 0.0
C1256 C 0.10545 0.13047 0.27927 0.0
C1257 C 0.12157 0.13245 0.21569 0.0
C1258 C 0.14151 0.13401 0.25 0.0
C1259 C 0.14525 0.13359 0.34494 0.0
H1260 H 0.1396 0.89734 0.66308 0.0
H1261 H 0.10767 0.841 0.71257 0.0
H1262 H 0.13989 0.90414 0.82925 0.0
H1263 H 0.10797 0.84772 0.87804 0.0
H1264 H 0.13372 0.85638 0.17326 0.0
H1265 H 0.13282 0.84958 1.00734 0.0
H1266 H 0.11612 0.91217 0.95688 0.0
H1267 H 0.11662 0.91871 0.12246 0.0
C1268 C 0.13255 0.88648 0.70941 0.0
C1269 C 0.12362 0.86865 0.67482 0.0
C1270 C 0.13268 0.89037 0.80455 0.0
C1271 C 0.12404 0.87641 0.86717 0.0
C1272 C 0.11501 0.85865 0.83207 0.0
C1273 C 0.11471 0.85487 0.73712 0.0
C1274 C 0.12937 0.86848 0.12691 0.0
C1275 C 0.12477 0.8879 0.16118 0.0
C1276 C 0.12902 0.86468 1.0317 0.0
C1277 C 0.12435 0.88034 0.96859 0.0
C1278 C 0.11995 0.89981 1.00322 0.0
C1279 C 0.12013 0.90352 0.09824 0.0
loop_
_geom_bond_atom_site_label_1
_geom_bond_atom_site_label_2
_geom_bond_distance
_geom_bond_site_symmetry_2
_ccdc_geom_bond_type
Tb0 O3 2.453 1_554 S
Tb0 O4 2.596 . S
Tb0 O5 2.374 . S
Tb0 O13 2.343 . S
Tb0 O15 2.353 . S
Tb0 O17 2.427 . S
Tb0 O18 2.513 . S
C1 O5 1.251 . S
C1 O7 1.263 . S
Tb2 O4 2.343 . S
Tb2 O7 2.353 . S
Tb2 O10 2.427 . S
Tb2 O11 2.513 . S
Tb2 O12 2.453 . S
Tb2 O13 2.596 . S
Tb2 O14 2.374 . S
O3 Tb0 2.453 1_556 S
O3 C19 1.245 . S
O4 Tb0 2.596 . S
O4 Tb2 2.343 . S
O4 C19 1.259 1_554 S
O5 Tb0 2.374 . S
O5 C1 1.251 . S
C6 O10 1.275 . S
C6 O11 1.246 . S
O7 C1 1.263 . S
O7 Tb2 2.353 . S
C8 O12 1.245 . S
C8 O13 1.259 . S
C9 O14 1.250 . S
C9 O15 1.263 . S
O10 Tb2 2.427 . S
O10 C6 1.275 . S
O11 Tb2 2.513 . S
O11 C6 1.246 . S
O12 Tb2 2.453 . S
O12 C8 1.245 . S
O13 Tb0 2.343 . S
O13 Tb2 2.596 . S
O13 C8 1.259 . S
O14 Tb2 2.374 . S
O14 C9 1.250 . S
O15 Tb0 2.353 . S
O15 C9 1.263 . S
C16 O17 1.275 . S
C16 O18 1.246 . S
O17 Tb0 2.427 . S
O17 C16 1.275 . S
O18 Tb0 2.513 . S
O18 C16 1.246 . S
C19 O3 1.245 . S
C19 O4 1.259 1_556 S
Tb20 O23 2.453 . S
Tb20 O24 2.596 . S
Tb20 O25 2.374 . S
Tb20 O33 2.343 . S
Tb20 O35 2.353 . S
Tb20 O37 2.427 . S
Tb20 O38 2.513 . S
C21 O25 1.251 . S
C21 O27 1.263 . S
Tb22 O24 2.343 . S
Tb22 O27 2.353 . S
Tb22 O30 2.427 . S
Tb22 O31 2.513 . S
Tb22 O32 2.453 1_556 S
Tb22 O33 2.596 . S
Tb22 O34 2.374 . S
O23 Tb20 2.453 . S
O23 C39 1.245 . S
O24 Tb20 2.596 . S
O24 Tb22 2.343 . S
O24 C39 1.259 . S
O25 Tb20 2.374 . S
O25 C21 1.251 . S
C26 O30 1.275 . S
C26 O31 1.246 . S
O27 C21 1.263 . S
O27 Tb22 2.353 . S
C28 O32 1.245 . S
C28 O33 1.259 1_554 S
C29 O34 1.250 . S
C29 O35 1.263 . S
O30 Tb22 2.427 . S
O30 C26 1.275 . S
O31 Tb22 2.513 . S
O31 C26 1.246 . S
O32 Tb22 2.453 1_554 S
O32 C28 1.245 . S
O33 Tb20 2.343 . S
O33 Tb22 2.596 . S
O33 C28 1.259 1_556 S
O34 Tb22 2.374 . S
O34 C29 1.250 . S
O35 Tb20 2.353 . S
O35 C29 1.263 . S
C36 O37 1.275 . S
C36 O38 1.246 . S
O37 Tb20 2.427 . S
O37 C36 1.275 . S
O38 Tb20 2.513 . S
O38 C36 1.246 . S
C39 O23 1.245 . S
C39 O24 1.259 . S
Tb40 O43 2.453 1_554 S
Tb40 O44 2.596 . S
Tb40 O45 2.374 . S
Tb40 O53 2.343 . S
Tb40 O55 2.353 . S
Tb40 O57 2.427 . S
Tb40 O58 2.513 . S
C41 O45 1.251 . S
C41 O47 1.263 . S
Tb42 O44 2.343 . S
Tb42 O47 2.353 . S
Tb42 O50 2.427 . S
Tb42 O51 2.513 . S
Tb42 O52 2.453 . S
Tb42 O53 2.596 . S
Tb42 O54 2.374 . S
O43 Tb40 2.453 1_556 S
O43 C59 1.245 . S
O44 Tb40 2.596 . S
O44 Tb42 2.343 . S
O44 C59 1.259 1_554 S
O45 Tb40 2.374 . S
O45 C41 1.251 . S
C46 O50 1.275 . S
C46 O51 1.246 . S
O47 C41 1.263 . S
O47 Tb42 2.353 . S
C48 O52 1.245 . S
C48 O53 1.259 . S
C49 O54 1.250 . S
C49 O55 1.263 . S
O50 Tb42 2.427 . S
O50 C46 1.275 . S
O51 Tb42 2.513 . S
O51 C46 1.246 . S
O52 Tb42 2.453 . S
O52 C48 1.245 . S
O53 Tb40 2.343 . S
O53 Tb42 2.596 . S
O53 C48 1.259 . S
O54 Tb42 2.374 . S
O54 C49 1.250 . S
O55 Tb40 2.353 . S
O55 C49 1.263 . S
C56 O57 1.275 . S
C56 O58 1.246 . S
O57 Tb40 2.427 . S
O57 C56 1.275 . S
O58 Tb40 2.513 . S
O58 C56 1.246 . S
C59 O43 1.245 . S
C59 O44 1.259 1_556 S
Tb60 O63 2.453 . S
Tb60 O64 2.596 . S
Tb60 O65 2.374 . S
Tb60 O73 2.343 . S
Tb60 O75 2.353 . S
Tb60 O77 2.427 . S
Tb60 O78 2.513 . S
C61 O65 1.251 . S
C61 O67 1.263 . S
Tb62 O64 2.343 . S
Tb62 O67 2.353 . S
Tb62 O70 2.427 . S
Tb62 O71 2.513 . S
Tb62 O72 2.453 1_556 S
Tb62 O73 2.596 . S
Tb62 O74 2.374 . S
O63 Tb60 2.453 . S
O63 C79 1.245 . S
O64 Tb60 2.596 . S
O64 Tb62 2.343 . S
O64 C79 1.259 . S
O65 Tb60 2.374 . S
O65 C61 1.251 . S
C66 O70 1.275 . S
C66 O71 1.246 . S
O67 C61 1.263 . S
O67 Tb62 2.353 . S
C68 O72 1.245 . S
C68 O73 1.259 1_554 S
C69 O74 1.250 . S
C69 O75 1.263 . S
O70 Tb62 2.427 . S
O70 C66 1.275 . S
O71 Tb62 2.513 . S
O71 C66 1.246 . S
O72 Tb62 2.453 1_554 S
O72 C68 1.245 . S
O73 Tb60 2.343 . S
O73 Tb62 2.596 . S
O73 C68 1.259 1_556 S
O74 Tb62 2.374 . S
O74 C69 1.250 . S
O75 Tb60 2.353 . S
O75 C69 1.263 . S
C76 O77 1.275 . S
C76 O78 1.246 . S
O77 Tb60 2.427 . S
O77 C76 1.275 . S
O78 Tb60 2.513 . S
O78 C76 1.246 . S
C79 O63 1.245 . S
C79 O64 1.259 . S
Tb80 O83 2.453 . S
Tb80 O84 2.596 . S
Tb80 O85 2.374 . S
Tb80 O93 2.343 . S
Tb80 O95 2.353 . S
Tb80 O97 2.427 . S
Tb80 O98 2.513 . S
C81 O85 1.251 . S
C81 O87 1.263 . S
Tb82 O84 2.343 . S
Tb82 O87 2.353 . S
Tb82 O90 2.427 . S
Tb82 O91 2.513 . S
Tb82 O92 2.453 1_554 S
Tb82 O93 2.596 . S
Tb82 O94 2.374 . S
O83 Tb80 2.453 . S
O83 C99 1.245 . S
O84 Tb80 2.596 . S
O84 Tb82 2.343 . S
O84 C99 1.259 . S
O85 Tb80 2.374 . S
O85 C81 1.251 . S
C86 O90 1.275 . S
C86 O91 1.246 . S
O87 C81 1.263 . S
O87 Tb82 2.353 . S
C88 O92 1.245 . S
C88 O93 1.259 1_556 S
C89 O94 1.250 . S
C89 O95 1.263 . S
O90 Tb82 2.427 . S
O90 C86 1.275 . S
O91 Tb82 2.513 . S
O91 C86 1.246 . S
O92 Tb82 2.453 1_556 S
O92 C88 1.245 . S
O93 Tb80 2.343 . S
O93 Tb82 2.596 . S
O93 C88 1.259 1_554 S
O94 Tb82 2.374 . S
O94 C89 1.250 . S
O95 Tb80 2.353 . S
O95 C89 1.263 . S
C96 O97 1.275 . S
C96 O98 1.246 . S
O97 Tb80 2.427 . S
O97 C96 1.275 . S
O98 Tb80 2.513 . S
O98 C96 1.246 . S
C99 O83 1.245 . S
C99 O84 1.259 . S
Tb100 O103 2.453 1_556 S
Tb100 O104 2.596 . S
Tb100 O105 2.374 . S
Tb100 O113 2.343 . S
Tb100 O115 2.353 . S
Tb100 O117 2.427 . S
Tb100 O118 2.513 . S
C101 O105 1.251 . S
C101 O107 1.263 . S
Tb102 O104 2.343 . S
Tb102 O107 2.353 . S
Tb102 O110 2.427 . S
Tb102 O111 2.513 . S
Tb102 O112 2.453 . S
Tb102 O113 2.596 . S
Tb102 O114 2.374 . S
O103 Tb100 2.453 1_554 S
O103 C119 1.245 . S
O104 Tb100 2.596 . S
O104 Tb102 2.343 . S
O104 C119 1.259 1_556 S
O105 Tb100 2.374 . S
O105 C101 1.251 . S
C106 O110 1.275 . S
C106 O111 1.246 . S
O107 C101 1.263 . S
O107 Tb102 2.353 . S
C108 O112 1.245 . S
C108 O113 1.259 . S
C109 O114 1.250 . S
C109 O115 1.263 . S
O110 Tb102 2.427 . S
O110 C106 1.275 . S
O111 Tb102 2.513 . S
O111 C106 1.246 . S
O112 Tb102 2.453 . S
O112 C108 1.245 . S
O113 Tb100 2.343 . S
O113 Tb102 2.596 . S
O113 C108 1.259 . S
O114 Tb102 2.374 . S
O114 C109 1.250 . S
O115 Tb100 2.353 . S
O115 C109 1.263 . S
C116 O117 1.275 . S
C116 O118 1.246 . S
O117 Tb100 2.427 . S
O117 C116 1.275 . S
O118 Tb100 2.513 . S
O118 C116 1.246 . S
C119 O103 1.245 . S
C119 O104 1.259 1_554 S
Tb120 O123 2.453 . S
Tb120 O124 2.596 . S
Tb120 O125 2.374 . S
Tb120 O133 2.343 . S
Tb120 O135 2.353 . S
Tb120 O137 2.427 . S
Tb120 O138 2.513 . S
C121 O125 1.251 . S
C121 O127 1.263 . S
Tb122 O124 2.343 . S
Tb122 O127 2.353 . S
Tb122 O130 2.427 . S
Tb122 O131 2.513 . S
Tb122 O132 2.453 1_554 S
Tb122 O133 2.596 . S
Tb122 O134 2.374 . S
O123 Tb120 2.453 . S
O123 C139 1.245 . S
O124 Tb120 2.596 . S
O124 Tb122 2.343 . S
O124 C139 1.259 . S
O125 Tb120 2.374 . S
O125 C121 1.251 . S
C126 O130 1.275 . S
C126 O131 1.246 . S
O127 C121 1.263 . S
O127 Tb122 2.353 . S
C128 O132 1.245 . S
C128 O133 1.259 1_556 S
C129 O134 1.250 . S
C129 O135 1.263 . S
O130 Tb122 2.427 . S
O130 C126 1.275 . S
O131 Tb122 2.513 . S
O131 C126 1.246 . S
O132 Tb122 2.453 1_556 S
O132 C128 1.245 . S
O133 Tb120 2.343 . S
O133 Tb122 2.596 . S
O133 C128 1.259 1_554 S
O134 Tb122 2.374 . S
O134 C129 1.250 . S
O135 Tb120 2.353 . S
O135 C129 1.263 . S
C136 O137 1.275 . S
C136 O138 1.246 . S
O137 Tb120 2.427 . S
O137 C136 1.275 . S
O138 Tb120 2.513 . S
O138 C136 1.246 . S
C139 O123 1.245 . S
C139 O124 1.259 . S
Tb140 O143 2.453 1_556 S
Tb140 O144 2.596 . S
Tb140 O145 2.374 . S
Tb140 O153 2.343 . S
Tb140 O155 2.353 . S
Tb140 O157 2.427 . S
Tb140 O158 2.513 . S
C141 O145 1.251 . S
C141 O147 1.263 . S
Tb142 O144 2.343 . S
Tb142 O147 2.353 . S
Tb142 O150 2.427 . S
Tb142 O151 2.513 . S
Tb142 O152 2.453 . S
Tb142 O153 2.596 . S
Tb142 O154 2.374 . S
O143 Tb140 2.453 1_554 S
O143 C159 1.245 . S
O144 Tb140 2.596 . S
O144 Tb142 2.343 . S
O144 C159 1.259 1_556 S
O145 Tb140 2.374 . S
O145 C141 1.251 . S
C146 O150 1.275 . S
C146 O151 1.246 . S
O147 C141 1.263 . S
O147 Tb142 2.353 . S
C148 O152 1.245 . S
C148 O153 1.259 . S
C149 O154 1.250 . S
C149 O155 1.263 . S
O150 Tb142 2.427 . S
O150 C146 1.275 . S
O151 Tb142 2.513 . S
O151 C146 1.246 . S
O152 Tb142 2.453 . S
O152 C148 1.245 . S
O153 Tb140 2.343 . S
O153 Tb142 2.596 . S
O153 C148 1.259 . S
O154 Tb142 2.374 . S
O154 C149 1.250 . S
O155 Tb140 2.353 . S
O155 C149 1.263 . S
C156 O157 1.275 . S
C156 O158 1.246 . S
O157 Tb140 2.427 . S
O157 C156 1.275 . S
O158 Tb140 2.513 . S
O158 C156 1.246 . S
C159 O143 1.245 . S
C159 O144 1.259 1_554 S
Tb160 O163 2.453 . S
Tb160 O164 2.596 . S
Tb160 O165 2.374 . S
Tb160 O173 2.343 . S
Tb160 O175 2.353 . S
Tb160 O177 2.427 . S
Tb160 O178 2.513 . S
C161 O165 1.251 . S
C161 O167 1.263 . S
Tb162 O164 2.343 . S
Tb162 O167 2.353 . S
Tb162 O170 2.427 . S
Tb162 O171 2.513 . S
Tb162 O172 2.453 . S
Tb162 O173 2.596 . S
Tb162 O174 2.374 . S
O163 Tb160 2.453 . S
O163 C179 1.245 . S
O164 Tb160 2.596 . S
O164 Tb162 2.343 . S
O164 C179 1.259 . S
O165 Tb160 2.374 . S
O165 C161 1.251 . S
C166 O170 1.275 . S
C166 O171 1.246 . S
O167 C161 1.263 . S
O167 Tb162 2.353 . S
C168 O172 1.245 . S
C168 O173 1.259 . S
C169 O174 1.250 . S
C169 O175 1.263 . S
O170 Tb162 2.427 . S
O170 C166 1.275 . S
O171 Tb162 2.513 . S
O171 C166 1.246 . S
O172 Tb162 2.453 . S
O172 C168 1.245 . S
O173 Tb160 2.343 . S
O173 Tb162 2.596 . S
O173 C168 1.259 . S
O174 Tb162 2.374 . S
O174 C169 1.250 . S
O175 Tb160 2.353 . S
O175 C169 1.263 . S
C176 O177 1.275 . S
C176 O178 1.246 . S
O177 Tb160 2.427 . S
O177 C176 1.275 . S
O178 Tb160 2.513 . S
O178 C176 1.246 . S
C179 O163 1.245 . S
C179 O164 1.259 . S
Tb180 O183 2.453 . S
Tb180 O184 2.596 . S
Tb180 O185 2.374 . S
Tb180 O193 2.343 . S
Tb180 O195 2.353 . S
Tb180 O197 2.427 . S
Tb180 O198 2.513 . S
C181 O185 1.251 . S
C181 O187 1.263 . S
Tb182 O184 2.343 . S
Tb182 O187 2.353 . S
Tb182 O190 2.427 . S
Tb182 O191 2.513 . S
Tb182 O192 2.453 . S
Tb182 O193 2.596 . S
Tb182 O194 2.374 . S
O183 Tb180 2.453 . S
O183 C199 1.245 . S
O184 Tb180 2.596 . S
O184 Tb182 2.343 . S
O184 C199 1.259 . S
O185 Tb180 2.374 . S
O185 C181 1.251 . S
C186 O190 1.275 . S
C186 O191 1.246 . S
O187 C181 1.263 . S
O187 Tb182 2.353 . S
C188 O192 1.245 . S
C188 O193 1.259 . S
C189 O194 1.250 . S
C189 O195 1.263 . S
O190 Tb182 2.427 . S
O190 C186 1.275 . S
O191 Tb182 2.513 . S
O191 C186 1.246 . S
O192 Tb182 2.453 . S
O192 C188 1.245 . S
O193 Tb180 2.343 . S
O193 Tb182 2.596 . S
O193 C188 1.259 . S
O194 Tb182 2.374 . S
O194 C189 1.250 . S
O195 Tb180 2.353 . S
O195 C189 1.263 . S
C196 O197 1.275 . S
C196 O198 1.246 . S
O197 Tb180 2.427 . S
O197 C196 1.275 . S
O198 Tb180 2.513 . S
O198 C196 1.246 . S
C199 O183 1.245 . S
C199 O184 1.259 . S
Tb200 O203 2.453 . S
Tb200 O204 2.596 . S
Tb200 O205 2.374 . S
Tb200 O213 2.343 . S
Tb200 O215 2.353 . S
Tb200 O217 2.427 . S
Tb200 O218 2.513 . S
C201 O205 1.251 . S
C201 O207 1.263 . S
Tb202 O204 2.343 . S
Tb202 O207 2.353 . S
Tb202 O210 2.427 . S
Tb202 O211 2.513 . S
Tb202 O212 2.453 . S
Tb202 O213 2.596 . S
Tb202 O214 2.374 . S
O203 Tb200 2.453 . S
O203 C219 1.245 . S
O204 Tb200 2.596 . S
O204 Tb202 2.343 . S
O204 C219 1.259 . S
O205 Tb200 2.374 . S
O205 C201 1.251 . S
C206 O210 1.275 . S
C206 O211 1.246 . S
O207 C201 1.263 . S
O207 Tb202 2.353 . S
C208 O212 1.245 . S
C208 O213 1.259 . S
C209 O214 1.250 . S
C209 O215 1.263 . S
O210 Tb202 2.427 . S
O210 C206 1.275 . S
O211 Tb202 2.513 . S
O211 C206 1.246 . S
O212 Tb202 2.453 . S
O212 C208 1.245 . S
O213 Tb200 2.343 . S
O213 Tb202 2.596 . S
O213 C208 1.259 . S
O214 Tb202 2.374 . S
O214 C209 1.250 . S
O215 Tb200 2.353 . S
O215 C209 1.263 . S
C216 O217 1.275 . S
C216 O218 1.246 . S
O217 Tb200 2.427 . S
O217 C216 1.275 . S
O218 Tb200 2.513 . S
O218 C216 1.246 . S
C219 O203 1.245 . S
C219 O204 1.259 . S
Tb220 O223 2.453 . S
Tb220 O224 2.596 . S
Tb220 O225 2.374 . S
Tb220 O233 2.343 . S
Tb220 O235 2.353 . S
Tb220 O237 2.427 . S
Tb220 O238 2.513 . S
C221 O225 1.251 . S
C221 O227 1.263 . S
Tb222 O224 2.343 . S
Tb222 O227 2.353 . S
Tb222 O230 2.427 . S
Tb222 O231 2.513 . S
Tb222 O232 2.453 . S
Tb222 O233 2.596 . S
Tb222 O234 2.374 . S
O223 Tb220 2.453 . S
O223 C239 1.245 . S
O224 Tb220 2.596 . S
O224 Tb222 2.343 . S
O224 C239 1.259 . S
O225 Tb220 2.374 . S
O225 C221 1.251 . S
C226 O230 1.275 . S
C226 O231 1.246 . S
O227 C221 1.263 . S
O227 Tb222 2.353 . S
C228 O232 1.245 . S
C228 O233 1.259 . S
C229 O234 1.250 . S
C229 O235 1.263 . S
O230 Tb222 2.427 . S
O230 C226 1.275 . S
O231 Tb222 2.513 . S
O231 C226 1.246 . S
O232 Tb222 2.453 . S
O232 C228 1.245 . S
O233 Tb220 2.343 . S
O233 Tb222 2.596 . S
O233 C228 1.259 . S
O234 Tb222 2.374 . S
O234 C229 1.250 . S
O235 Tb220 2.353 . S
O235 C229 1.263 . S
C236 O237 1.275 . S
C236 O238 1.246 . S
O237 Tb220 2.427 . S
O237 C236 1.275 . S
O238 Tb220 2.513 . S
O238 C236 1.246 . S
C239 O223 1.245 . S
C239 O224 1.259 . S
Tb240 O243 2.453 . S
Tb240 O244 2.596 . S
Tb240 O245 2.374 . S
Tb240 O253 2.343 . S
Tb240 O255 2.353 . S
Tb240 O257 2.427 . S
Tb240 O258 2.513 . S
C241 O245 1.251 . S
C241 O247 1.263 . S
Tb242 O244 2.343 . S
Tb242 O247 2.353 . S
Tb242 O250 2.427 . S
Tb242 O251 2.513 . S
Tb242 O252 2.453 . S
Tb242 O253 2.596 . S
Tb242 O254 2.374 . S
O243 Tb240 2.453 . S
O243 C259 1.245 . S
O244 Tb240 2.596 . S
O244 Tb242 2.343 . S
O244 C259 1.259 . S
O245 Tb240 2.374 . S
O245 C241 1.251 . S
C246 O250 1.275 . S
C246 O251 1.246 . S
O247 C241 1.263 . S
O247 Tb242 2.353 . S
C248 O252 1.245 . S
C248 O253 1.259 . S
C249 O254 1.250 . S
C249 O255 1.263 . S
O250 Tb242 2.427 . S
O250 C246 1.275 . S
O251 Tb242 2.513 . S
O251 C246 1.246 . S
O252 Tb242 2.453 . S
O252 C248 1.245 . S
O253 Tb240 2.343 . S
O253 Tb242 2.596 . S
O253 C248 1.259 . S
O254 Tb242 2.374 . S
O254 C249 1.250 . S
O255 Tb240 2.353 . S
O255 C249 1.263 . S
C256 O257 1.275 . S
C256 O258 1.246 . S
O257 Tb240 2.427 . S
O257 C256 1.275 . S
O258 Tb240 2.513 . S
O258 C256 1.246 . S
C259 O243 1.245 . S
C259 O244 1.259 . S
Tb260 O263 2.453 . S
Tb260 O264 2.596 . S
Tb260 O265 2.374 . S
Tb260 O273 2.343 . S
Tb260 O275 2.353 . S
Tb260 O277 2.427 . S
Tb260 O278 2.513 . S
C261 O265 1.251 . S
C261 O267 1.263 . S
Tb262 O264 2.343 . S
Tb262 O267 2.353 . S
Tb262 O270 2.427 . S
Tb262 O271 2.513 . S
Tb262 O272 2.453 . S
Tb262 O273 2.596 . S
Tb262 O274 2.374 . S
O263 Tb260 2.453 . S
O263 C279 1.245 . S
O264 Tb260 2.596 . S
O264 Tb262 2.343 . S
O264 C279 1.259 . S
O265 Tb260 2.374 . S
O265 C261 1.251 . S
C266 O270 1.275 . S
C266 O271 1.246 . S
O267 C261 1.263 . S
O267 Tb262 2.353 . S
C268 O272 1.245 . S
C268 O273 1.259 . S
C269 O274 1.250 . S
C269 O275 1.263 . S
O270 Tb262 2.427 . S
O270 C266 1.275 . S
O271 Tb262 2.513 . S
O271 C266 1.246 . S
O272 Tb262 2.453 . S
O272 C268 1.245 . S
O273 Tb260 2.343 . S
O273 Tb262 2.596 . S
O273 C268 1.259 . S
O274 Tb262 2.374 . S
O274 C269 1.250 . S
O275 Tb260 2.353 . S
O275 C269 1.263 . S
C276 O277 1.275 . S
C276 O278 1.246 . S
O277 Tb260 2.427 . S
O277 C276 1.275 . S
O278 Tb260 2.513 . S
O278 C276 1.246 . S
C279 O263 1.245 . S
C279 O264 1.259 . S
Tb280 O283 2.453 . S
Tb280 O284 2.596 . S
Tb280 O285 2.374 . S
Tb280 O293 2.343 . S
Tb280 O295 2.353 . S
Tb280 O297 2.427 . S
Tb280 O298 2.513 . S
C281 O285 1.251 . S
C281 O287 1.263 . S
Tb282 O284 2.343 . S
Tb282 O287 2.353 . S
Tb282 O290 2.427 . S
Tb282 O291 2.513 . S
Tb282 O292 2.453 . S
Tb282 O293 2.596 . S
Tb282 O294 2.374 . S
O283 Tb280 2.453 . S
O283 C299 1.245 . S
O284 Tb280 2.596 . S
O284 Tb282 2.343 . S
O284 C299 1.259 . S
O285 Tb280 2.374 . S
O285 C281 1.251 . S
C286 O290 1.275 . S
C286 O291 1.246 . S
O287 C281 1.263 . S
O287 Tb282 2.353 . S
C288 O292 1.245 . S
C288 O293 1.259 . S
C289 O294 1.250 . S
C289 O295 1.263 . S
O290 Tb282 2.427 . S
O290 C286 1.275 . S
O291 Tb282 2.513 . S
O291 C286 1.246 . S
O292 Tb282 2.453 . S
O292 C288 1.245 . S
O293 Tb280 2.343 . S
O293 Tb282 2.596 . S
O293 C288 1.259 . S
O294 Tb282 2.374 . S
O294 C289 1.250 . S
O295 Tb280 2.353 . S
O295 C289 1.263 . S
C296 O297 1.275 . S
C296 O298 1.246 . S
O297 Tb280 2.427 . S
O297 C296 1.275 . S
O298 Tb280 2.513 . S
O298 C296 1.246 . S
C299 O283 1.245 . S
C299 O284 1.259 . S
Tb300 O303 2.453 . S
Tb300 O304 2.596 . S
Tb300 O305 2.374 . S
Tb300 O313 2.343 . S
Tb300 O315 2.353 . S
Tb300 O317 2.427 . S
Tb300 O318 2.513 . S
C301 O305 1.251 . S
C301 O307 1.263 . S
Tb302 O304 2.343 . S
Tb302 O307 2.353 . S
Tb302 O310 2.427 . S
Tb302 O311 2.513 . S
Tb302 O312 2.453 . S
Tb302 O313 2.596 . S
Tb302 O314 2.374 . S
O303 Tb300 2.453 . S
O303 C319 1.245 . S
O304 Tb300 2.596 . S
O304 Tb302 2.343 . S
O304 C319 1.259 . S
O305 Tb300 2.374 . S
O305 C301 1.251 . S
C306 O310 1.275 . S
C306 O311 1.246 . S
O307 C301 1.263 . S
O307 Tb302 2.353 . S
C308 O312 1.245 . S
C308 O313 1.259 . S
C309 O314 1.250 . S
C309 O315 1.263 . S
O310 Tb302 2.427 . S
O310 C306 1.275 . S
O311 Tb302 2.513 . S
O311 C306 1.246 . S
O312 Tb302 2.453 . S
O312 C308 1.245 . S
O313 Tb300 2.343 . S
O313 Tb302 2.596 . S
O313 C308 1.259 . S
O314 Tb302 2.374 . S
O314 C309 1.250 . S
O315 Tb300 2.353 . S
O315 C309 1.263 . S
C316 O317 1.275 . S
C316 O318 1.246 . S
O317 Tb300 2.427 . S
O317 C316 1.275 . S
O318 Tb300 2.513 . S
O318 C316 1.246 . S
C319 O303 1.245 . S
C319 O304 1.259 . S
H320 C328 0.950 . S
H321 C333 0.950 . S
H322 C330 0.950 . S
H323 C332 0.950 . S
H324 C334 0.950 . S
H325 C336 0.950 . S
H326 C338 0.950 . S
H327 C339 0.950 . S
C328 H320 0.950 . S
C328 C329 1.386 . S
C328 C330 1.391 . S
C329 C328 1.386 . S
C329 C333 1.393 . S
C330 H322 0.950 . S
C330 C328 1.391 . S
C330 C331 1.398 . S
C331 C330 1.398 . S
C331 C332 1.395 . S
C331 C337 1.496 1_565 S
C332 H323 0.950 . S
C332 C331 1.395 . S
C332 C333 1.391 . S
C333 H321 0.950 . S
C333 C329 1.393 . S
C333 C332 1.391 . S
C334 H324 0.950 . S
C334 C335 1.386 . S
C334 C336 1.391 . S
C335 C334 1.386 . S
C335 C339 1.393 . S
C336 H325 0.950 . S
C336 C334 1.391 . S
C336 C337 1.400 . S
C337 C331 1.496 1_545 S
C337 C336 1.400 . S
C337 C338 1.398 . S
C338 H326 0.950 . S
C338 C337 1.398 . S
C338 C339 1.391 . S
C339 H327 0.950 . S
C339 C335 1.393 . S
C339 C338 1.391 . S
H340 C348 0.950 . S
H341 C353 0.950 . S
H342 C350 0.950 . S
H343 C352 0.950 . S
H344 C354 0.950 . S
H345 C356 0.950 . S
H346 C358 0.950 . S
H347 C359 0.950 . S
C348 H340 0.950 . S
C348 C349 1.386 . S
C348 C350 1.391 . S
C349 C348 1.386 . S
C349 C353 1.393 . S
C350 H342 0.950 . S
C350 C348 1.391 . S
C350 C351 1.397 . S
C351 C350 1.397 . S
C351 C352 1.396 . S
C351 C357 1.497 1_655 S
C352 H343 0.950 . S
C352 C351 1.396 . S
C352 C353 1.391 . S
C353 H341 0.950 . S
C353 C349 1.393 . S
C353 C352 1.391 . S
C354 H344 0.950 . S
C354 C355 1.386 . S
C354 C356 1.391 . S
C355 C354 1.386 . S
C355 C359 1.393 . S
C356 H345 0.950 . S
C356 C354 1.391 . S
C356 C357 1.400 . S
C357 C351 1.497 1_455 S
C357 C356 1.400 . S
C357 C358 1.398 . S
C358 H346 0.950 . S
C358 C357 1.398 . S
C358 C359 1.391 . S
C359 H347 0.950 . S
C359 C355 1.393 . S
C359 C358 1.391 . S
H360 C368 0.950 . S
H361 C373 0.950 . S
H362 C370 0.950 . S
H363 C372 0.950 . S
H364 C374 0.950 . S
H365 C376 0.970 . S
H366 C378 0.950 . S
H367 C379 0.950 . S
C368 H360 0.950 . S
C368 C369 1.386 . S
C368 C370 1.391 . S
C369 C368 1.386 . S
C369 C373 1.393 . S
C370 H362 0.950 . S
C370 C368 1.391 . S
C370 C371 1.400 . S
C371 C370 1.400 . S
C371 C372 1.398 . S
C371 C377 1.485 . S
C372 H363 0.950 . S
C372 C371 1.398 . S
C372 C373 1.391 . S
C373 H361 0.950 . S
C373 C369 1.393 . S
C373 C372 1.391 . S
C374 H364 0.950 . S
C374 C375 1.386 . S
C374 C376 1.391 . S
C375 C374 1.386 . S
C375 C379 1.393 . S
C376 H365 0.970 . S
C376 C374 1.391 . S
C376 C377 1.403 1_545 S
C377 C371 1.485 . S
C377 C376 1.403 1_565 S
C377 C378 1.402 1_565 S
C378 H366 0.950 . S
C378 C377 1.402 1_545 S
C378 C379 1.391 . S
C379 H367 0.950 . S
C379 C375 1.393 . S
C379 C378 1.391 . S
H380 C388 0.950 . S
H381 C393 0.950 . S
H382 C390 0.950 . S
H383 C392 0.950 . S
H384 C394 0.950 . S
H385 C396 0.950 . S
H386 C398 0.950 . S
H387 C399 0.950 . S
C388 H380 0.950 . S
C388 C389 1.386 . S
C388 C390 1.391 . S
C389 C388 1.386 . S
C389 C393 1.393 . S
C390 H382 0.950 . S
C390 C388 1.391 . S
C390 C391 1.400 . S
C391 C390 1.400 . S
C391 C392 1.398 . S
C391 C397 1.495 1_655 S
C392 H383 0.950 . S
C392 C391 1.398 . S
C392 C393 1.391 . S
C393 H381 0.950 . S
C393 C389 1.393 . S
C393 C392 1.391 . S
C394 H384 0.950 . S
C394 C395 1.386 . S
C394 C396 1.391 . S
C395 C394 1.386 . S
C395 C399 1.393 . S
C396 H385 0.950 . S
C396 C394 1.391 . S
C396 C397 1.398 . S
C397 C391 1.495 1_455 S
C397 C396 1.398 . S
C397 C398 1.396 . S
C398 H386 0.950 . S
C398 C397 1.396 . S
C398 C399 1.391 . S
C399 H387 0.950 . S
C399 C395 1.393 . S
C399 C398 1.391 . S
H400 C408 0.950 . S
H401 C413 0.950 . S
H402 C410 0.950 . S
H403 C412 0.950 . S
H404 C414 0.950 . S
H405 C416 0.950 . S
H406 C418 0.950 . S
H407 C419 0.950 . S
C408 H400 0.950 . S
C408 C409 1.386 . S
C408 C410 1.391 . S
C409 C408 1.386 . S
C409 C413 1.393 . S
C410 H402 0.950 . S
C410 C408 1.391 . S
C410 C411 1.400 . S
C411 C410 1.400 . S
C411 C412 1.398 . S
C411 C417 1.491 . S
C412 H403 0.950 . S
C412 C411 1.398 . S
C412 C413 1.391 . S
C413 H401 0.950 . S
C413 C409 1.393 . S
C413 C412 1.391 . S
C414 H404 0.950 . S
C414 C415 1.386 . S
C414 C416 1.391 . S
C415 C414 1.386 . S
C415 C419 1.393 . S
C416 H405 0.950 . S
C416 C414 1.391 . S
C416 C417 1.400 . S
C417 C411 1.491 . S
C417 C416 1.400 . S
C417 C418 1.398 . S
C418 H406 0.950 . S
C418 C417 1.398 . S
C418 C419 1.391 . S
C419 H407 0.950 . S
C419 C415 1.393 . S
C419 C418 1.391 . S
H420 C428 0.950 . S
H421 C433 0.950 . S
H422 C430 0.950 . S
H423 C432 0.950 1_554 S
H424 C434 0.950 . S
H425 C436 0.950 . S
H426 C438 0.950 . S
H427 C439 0.950 . S
C428 H420 0.950 . S
C428 C429 1.386 . S
C428 C430 1.391 . S
C429 C428 1.386 . S
C429 C433 1.393 1_556 S
C430 H422 0.950 . S
C430 C428 1.391 . S
C430 C431 1.400 . S
C431 C430 1.400 . S
C431 C432 1.398 . S
C431 C437 1.491 . S
C432 H423 0.950 1_556 S
C432 C431 1.398 . S
C432 C433 1.391 1_556 S
C433 H421 0.950 . S
C433 C429 1.393 1_554 S
C433 C432 1.391 1_554 S
C434 H424 0.950 . S
C434 C435 1.386 . S
C434 C436 1.391 . S
C435 C434 1.386 . S
C435 C439 1.393 . S
C436 H425 0.950 . S
C436 C434 1.391 . S
C436 C437 1.400 . S
C437 C431 1.491 . S
C437 C436 1.400 . S
C437 C438 1.398 . S
C438 H426 0.950 . S
C438 C437 1.398 . S
C438 C439 1.391 . S
C439 H427 0.950 . S
C439 C435 1.393 . S
C439 C438 1.391 . S
H440 C448 0.950 1_556 S
H441 C453 0.950 . S
H442 C450 0.950 1_556 S
H443 C452 0.950 . S
H444 C454 0.950 . S
H445 C456 0.950 . S
H446 C458 0.950 . S
H447 C459 0.950 . S
C448 H440 0.950 1_554 S
C448 C449 1.386 . S
C448 C450 1.391 . S
C449 C448 1.386 . S
C449 C453 1.393 . S
C450 H442 0.950 1_554 S
C450 C448 1.391 . S
C450 C451 1.400 . S
C451 C450 1.400 . S
C451 C452 1.398 . S
C451 C457 1.491 . S
C452 H443 0.950 . S
C452 C451 1.398 . S
C452 C453 1.391 . S
C453 H441 0.950 . S
C453 C449 1.393 . S
C453 C452 1.391 . S
C454 H444 0.950 . S
C454 C455 1.386 . S
C454 C456 1.391 . S
C455 C454 1.386 . S
C455 C459 1.393 1_554 S
C456 H445 0.950 . S
C456 C454 1.391 . S
C456 C457 1.400 . S
C457 C451 1.491 . S
C457 C456 1.400 . S
C457 C458 1.398 1_554 S
C458 H446 0.950 . S
C458 C457 1.398 1_556 S
C458 C459 1.391 . S
C459 H447 0.950 . S
C459 C455 1.393 1_556 S
C459 C458 1.391 . S
H460 C468 0.950 . S
H461 C473 0.950 . S
H462 C470 0.950 . S
H463 C472 0.950 . S
H464 C474 0.950 . S
H465 C476 0.950 . S
H466 C478 0.950 . S
H467 C479 0.950 . S
C468 H460 0.950 . S
C468 C469 1.386 . S
C468 C470 1.391 . S
C469 C468 1.386 . S
C469 C473 1.393 . S
C470 H462 0.950 . S
C470 C468 1.391 . S
C470 C471 1.400 . S
C471 C470 1.400 . S
C471 C472 1.398 . S
C471 C477 1.491 . S
C472 H463 0.950 . S
C472 C471 1.398 . S
C472 C473 1.391 . S
C473 H461 0.950 . S
C473 C469 1.393 . S
C473 C472 1.391 . S
C474 H464 0.950 . S
C474 C475 1.386 . S
C474 C476 1.391 . S
C475 C474 1.386 . S
C475 C479 1.393 . S
C476 H465 0.950 . S
C476 C474 1.391 . S
C476 C477 1.400 . S
C477 C471 1.491 . S
C477 C476 1.400 . S
C477 C478 1.398 . S
C478 H466 0.950 . S
C478 C477 1.398 . S
C478 C479 1.391 . S
C479 H467 0.950 . S
C479 C475 1.393 . S
C479 C478 1.391 . S
H480 C488 0.950 . S
H481 C493 0.950 . S
H482 C490 0.950 . S
H483 C492 0.950 . S
H484 C494 0.950 . S
H485 C496 0.950 . S
H486 C498 0.950 . S
H487 C499 0.950 . S
C488 H480 0.950 . S
C488 C489 1.386 . S
C488 C490 1.391 . S
C489 C488 1.386 . S
C489 C493 1.393 . S
C490 H482 0.950 . S
C490 C488 1.391 . S
C490 C491 1.400 . S
C491 C490 1.400 . S
C491 C492 1.398 . S
C491 C497 1.491 . S
C492 H483 0.950 . S
C492 C491 1.398 . S
C492 C493 1.391 . S
C493 H481 0.950 . S
C493 C489 1.393 . S
C493 C492 1.391 . S
C494 H484 0.950 . S
C494 C495 1.386 . S
C494 C496 1.391 . S
C495 C494 1.386 . S
C495 C499 1.393 . S
C496 H485 0.950 . S
C496 C494 1.391 . S
C496 C497 1.400 . S
C497 C491 1.491 . S
C497 C496 1.400 . S
C497 C498 1.398 . S
C498 H486 0.950 . S
C498 C497 1.398 . S
C498 C499 1.391 . S
C499 H487 0.950 . S
C499 C495 1.393 . S
C499 C498 1.391 . S
H500 C508 0.950 . S
H501 C513 0.950 . S
H502 C510 0.950 . S
H503 C512 0.950 . S
H504 C514 0.950 . S
H505 C516 0.950 . S
H506 C518 0.950 . S
H507 C519 0.950 . S
C508 H500 0.950 . S
C508 C509 1.386 . S
C508 C510 1.391 . S
C509 C508 1.386 . S
C509 C513 1.393 . S
C510 H502 0.950 . S
C510 C508 1.391 . S
C510 C511 1.400 . S
C511 C510 1.400 . S
C511 C512 1.398 . S
C511 C517 1.491 . S
C512 H503 0.950 . S
C512 C511 1.398 . S
C512 C513 1.391 . S
C513 H501 0.950 . S
C513 C509 1.393 . S
C513 C512 1.391 . S
C514 H504 0.950 . S
C514 C515 1.386 . S
C514 C516 1.391 . S
C515 C514 1.386 . S
C515 C519 1.393 . S
C516 H505 0.950 . S
C516 C514 1.391 . S
C516 C517 1.400 . S
C517 C511 1.491 . S
C517 C516 1.400 . S
C517 C518 1.398 . S
C518 H506 0.950 . S
C518 C517 1.398 . S
C518 C519 1.391 . S
C519 H507 0.950 . S
C519 C515 1.393 . S
C519 C518 1.391 . S
H520 C528 0.950 . S
H521 C533 0.950 . S
H522 C530 0.950 . S
H523 C532 0.950 . S
H524 C534 0.950 . S
H525 C536 0.950 . S
H526 C538 0.950 . S
H527 C539 0.950 . S
C528 H520 0.950 . S
C528 C529 1.386 . S
C528 C530 1.391 . S
C529 C528 1.386 . S
C529 C533 1.393 . S
C530 H522 0.950 . S
C530 C528 1.391 . S
C530 C531 1.400 . S
C531 C530 1.400 . S
C531 C532 1.398 . S
C531 C537 1.491 . S
C532 H523 0.950 . S
C532 C531 1.398 . S
C532 C533 1.391 . S
C533 H521 0.950 . S
C533 C529 1.393 . S
C533 C532 1.391 . S
C534 H524 0.950 . S
C534 C535 1.386 . S
C534 C536 1.391 . S
C535 C534 1.386 . S
C535 C539 1.393 . S
C536 H525 0.950 . S
C536 C534 1.391 . S
C536 C537 1.400 . S
C537 C531 1.491 . S
C537 C536 1.400 . S
C537 C538 1.398 . S
C538 H526 0.950 . S
C538 C537 1.398 . S
C538 C539 1.391 . S
C539 H527 0.950 . S
C539 C535 1.393 . S
C539 C538 1.391 . S
H540 C548 0.950 . S
H541 C553 0.950 . S
H542 C550 0.950 . S
H543 C552 0.950 . S
H544 C554 0.950 . S
H545 C556 0.950 . S
H546 C558 0.950 . S
H547 C559 0.950 . S
C548 H540 0.950 . S
C548 C549 1.386 . S
C548 C550 1.391 . S
C549 C548 1.386 . S
C549 C553 1.393 . S
C550 H542 0.950 . S
C550 C548 1.391 . S
C550 C551 1.400 . S
C551 C550 1.400 . S
C551 C552 1.398 . S
C551 C557 1.491 . S
C552 H543 0.950 . S
C552 C551 1.398 . S
C552 C553 1.391 . S
C553 H541 0.950 . S
C553 C549 1.393 . S
C553 C552 1.391 . S
C554 H544 0.950 . S
C554 C555 1.386 . S
C554 C556 1.391 . S
C555 C554 1.386 . S
C555 C559 1.393 . S
C556 H545 0.950 . S
C556 C554 1.391 . S
C556 C557 1.400 . S
C557 C551 1.491 . S
C557 C556 1.400 . S
C557 C558 1.398 . S
C558 H546 0.950 . S
C558 C557 1.398 . S
C558 C559 1.391 . S
C559 H547 0.950 . S
C559 C555 1.393 . S
C559 C558 1.391 . S
H560 C568 0.950 . S
H561 C573 0.950 . S
H562 C570 0.950 . S
H563 C572 0.950 . S
H564 C574 0.950 . S
H565 C576 0.950 . S
H566 C578 0.950 . S
H567 C579 0.950 . S
C568 H560 0.950 . S
C568 C569 1.386 . S
C568 C570 1.391 . S
C569 C568 1.386 . S
C569 C573 1.393 . S
C570 H562 0.950 . S
C570 C568 1.391 . S
C570 C571 1.400 . S
C571 C570 1.400 . S
C571 C572 1.398 . S
C571 C577 1.488 . S
C572 H563 0.950 . S
C572 C571 1.398 . S
C572 C573 1.391 . S
C573 H561 0.950 . S
C573 C569 1.393 . S
C573 C572 1.391 . S
C574 H564 0.950 . S
C574 C575 1.386 . S
C574 C576 1.391 . S
C575 C574 1.386 . S
C575 C579 1.393 . S
C576 H565 0.950 . S
C576 C574 1.391 . S
C576 C577 1.402 1_545 S
C577 C571 1.488 . S
C577 C576 1.402 1_565 S
C577 C578 1.400 1_565 S
C578 H566 0.950 . S
C578 C577 1.400 1_545 S
C578 C579 1.391 . S
C579 H567 0.950 . S
C579 C575 1.393 . S
C579 C578 1.391 . S
H580 C588 0.950 . S
H581 C593 0.950 . S
H582 C590 0.976 . S
H583 C592 0.950 . S
H584 C594 0.950 . S
H585 C596 0.950 . S
H586 C598 0.950 . S
H587 C599 0.950 . S
C588 H580 0.950 . S
C588 C589 1.386 . S
C588 C590 1.391 . S
C589 C588 1.386 . S
C589 C593 1.393 . S
C590 H582 0.976 . S
C590 C588 1.391 . S
C590 C591 1.402 1_455 S
C591 C590 1.402 1_655 S
C591 C592 1.401 1_655 S
C591 C597 1.486 . S
C592 H583 0.950 . S
C592 C591 1.401 1_455 S
C592 C593 1.391 . S
C593 H581 0.950 . S
C593 C589 1.393 . S
C593 C592 1.391 . S
C594 H584 0.950 . S
C594 C595 1.386 . S
C594 C596 1.391 . S
C595 C594 1.386 . S
C595 C599 1.393 . S
C596 H585 0.950 . S
C596 C594 1.391 . S
C596 C597 1.400 . S
C597 C591 1.486 . S
C597 C596 1.400 . S
C597 C598 1.398 . S
C598 H586 0.950 . S
C598 C597 1.398 . S
C598 C599 1.391 . S
C599 H587 0.950 . S
C599 C595 1.393 . S
C599 C598 1.391 . S
H600 C608 0.950 . S
H601 C613 0.950 . S
H602 C610 0.973 . S
H603 C612 0.950 . S
H604 C614 0.950 . S
H605 C616 0.950 . S
H606 C618 0.950 . S
H607 C619 0.950 . S
C608 H600 0.950 . S
C608 C609 1.386 . S
C608 C610 1.391 . S
C609 C608 1.386 . S
C609 C613 1.393 . S
C610 H602 0.973 . S
C610 C608 1.391 . S
C610 C611 1.403 1_565 S
C611 C610 1.403 1_545 S
C611 C612 1.402 1_545 S
C611 C617 1.484 . S
C612 H603 0.950 . S
C612 C611 1.402 1_565 S
C612 C613 1.391 . S
C613 H601 0.950 . S
C613 C609 1.393 . S
C613 C612 1.391 . S
C614 H604 0.950 . S
C614 C615 1.386 . S
C614 C616 1.391 . S
C615 C614 1.386 . S
C615 C619 1.393 . S
C616 H605 0.950 . S
C616 C614 1.391 . S
C616 C617 1.400 . S
C617 C611 1.484 . S
C617 C616 1.400 . S
C617 C618 1.398 . S
C618 H606 0.950 . S
C618 C617 1.398 . S
C618 C619 1.391 . S
C619 H607 0.950 . S
C619 C615 1.393 . S
C619 C618 1.391 . S
H620 C628 0.950 . S
H621 C633 0.950 . S
H622 C630 0.950 . S
H623 C632 0.950 . S
H624 C634 0.950 . S
H625 C636 0.950 . S
H626 C638 0.950 . S
H627 C639 0.950 . S
C628 H620 0.950 . S
C628 C629 1.386 . S
C628 C630 1.391 . S
C629 C628 1.386 . S
C629 C633 1.393 . S
C630 H622 0.950 . S
C630 C628 1.391 . S
C630 C631 1.400 . S
C631 C630 1.400 . S
C631 C632 1.398 . S
C631 C637 1.488 . S
C632 H623 0.950 . S
C632 C631 1.398 . S
C632 C633 1.391 . S
C633 H621 0.950 . S
C633 C629 1.393 . S
C633 C632 1.391 . S
C634 H624 0.950 . S
C634 C635 1.386 . S
C634 C636 1.391 . S
C635 C634 1.386 . S
C635 C639 1.393 . S
C636 H625 0.950 . S
C636 C634 1.391 . S
C636 C637 1.402 1_655 S
C637 C631 1.488 . S
C637 C636 1.402 1_455 S
C637 C638 1.400 1_455 S
C638 H626 0.950 . S
C638 C637 1.400 1_655 S
C638 C639 1.391 . S
C639 H627 0.950 . S
C639 C635 1.393 . S
C639 C638 1.391 . S
H640 C648 0.950 1_556 S
H641 C653 0.950 . S
H642 C650 0.950 . S
H643 C652 0.950 . S
H644 C654 0.950 . S
H645 C656 0.950 . S
H646 C658 0.950 . S
H647 C659 0.950 . S
C648 H640 0.950 1_554 S
C648 C649 1.386 . S
C648 C650 1.391 . S
C649 C648 1.386 . S
C649 C653 1.393 . S
C650 H642 0.950 . S
C650 C648 1.391 . S
C650 C651 1.400 . S
C651 C650 1.400 . S
C651 C652 1.398 . S
C651 C657 1.491 . S
C652 H643 0.950 . S
C652 C651 1.398 . S
C652 C653 1.391 . S
C653 H641 0.950 . S
C653 C649 1.393 . S
C653 C652 1.391 . S
C654 H644 0.950 . S
C654 C655 1.386 . S
C654 C656 1.391 . S
C655 C654 1.386 . S
C655 C659 1.393 . S
C656 H645 0.950 . S
C656 C654 1.391 . S
C656 C657 1.400 . S
C657 C651 1.491 . S
C657 C656 1.400 . S
C657 C658 1.398 . S
C658 H646 0.950 . S
C658 C657 1.398 . S
C658 C659 1.391 . S
C659 H647 0.950 . S
C659 C655 1.393 . S
C659 C658 1.391 . S
H660 C668 0.950 . S
H661 C673 0.950 . S
H662 C670 0.950 . S
H663 C672 0.950 . S
H664 C674 0.950 1_554 S
H665 C676 0.950 . S
H666 C678 0.950 . S
H667 C679 0.950 . S
C668 H660 0.950 . S
C668 C669 1.386 . S
C668 C670 1.391 . S
C669 C668 1.386 . S
C669 C673 1.393 . S
C670 H662 0.950 . S
C670 C668 1.391 . S
C670 C671 1.400 . S
C671 C670 1.400 . S
C671 C672 1.398 . S
C671 C677 1.491 . S
C672 H663 0.950 . S
C672 C671 1.398 . S
C672 C673 1.391 . S
C673 H661 0.950 . S
C673 C669 1.393 . S
C673 C672 1.391 . S
C674 H664 0.950 1_556 S
C674 C675 1.386 . S
C674 C676 1.391 . S
C675 C674 1.386 . S
C675 C679 1.393 . S
C676 H665 0.950 . S
C676 C674 1.391 . S
C676 C677 1.400 . S
C677 C671 1.491 . S
C677 C676 1.400 . S
C677 C678 1.398 . S
C678 H666 0.950 . S
C678 C677 1.398 . S
C678 C679 1.391 . S
C679 H667 0.950 . S
C679 C675 1.393 . S
C679 C678 1.391 . S
H680 C688 0.950 . S
H681 C693 0.950 1_556 S
H682 C690 0.950 . S
H683 C692 0.950 . S
H684 C694 0.950 . S
H685 C696 0.950 . S
H686 C698 0.950 . S
H687 C699 0.950 . S
C688 H680 0.950 . S
C688 C689 1.386 . S
C688 C690 1.391 . S
C689 C688 1.386 . S
C689 C693 1.393 . S
C690 H682 0.950 . S
C690 C688 1.391 . S
C690 C691 1.400 . S
C691 C690 1.400 . S
C691 C692 1.398 . S
C691 C697 1.491 . S
C692 H683 0.950 . S
C692 C691 1.398 . S
C692 C693 1.391 . S
C693 H681 0.950 1_554 S
C693 C689 1.393 . S
C693 C692 1.391 . S
C694 H684 0.950 . S
C694 C695 1.386 . S
C694 C696 1.391 . S
C695 C694 1.386 . S
C695 C699 1.393 . S
C696 H685 0.950 . S
C696 C694 1.391 . S
C696 C697 1.400 . S
C697 C691 1.491 . S
C697 C696 1.400 . S
C697 C698 1.398 . S
C698 H686 0.950 . S
C698 C697 1.398 . S
C698 C699 1.391 . S
C699 H687 0.950 . S
C699 C695 1.393 . S
C699 C698 1.391 . S
H700 C708 0.950 . S
H701 C713 0.950 . S
H702 C710 0.950 . S
H703 C712 0.950 . S
H704 C714 0.950 . S
H705 C716 0.950 . S
H706 C718 0.950 . S
H707 C719 0.950 . S
C708 H700 0.950 . S
C708 C709 1.386 . S
C708 C710 1.391 . S
C709 C708 1.386 . S
C709 C713 1.393 . S
C710 H702 0.950 . S
C710 C708 1.391 . S
C710 C711 1.400 . S
C711 C710 1.400 . S
C711 C712 1.398 . S
C711 C717 1.491 . S
C712 H703 0.950 . S
C712 C711 1.398 . S
C712 C713 1.391 . S
C713 H701 0.950 . S
C713 C709 1.393 . S
C713 C712 1.391 . S
C714 H704 0.950 . S
C714 C715 1.386 . S
C714 C716 1.391 . S
C715 C714 1.386 . S
C715 C719 1.393 . S
C716 H705 0.950 . S
C716 C714 1.391 . S
C716 C717 1.400 . S
C717 C711 1.491 . S
C717 C716 1.400 . S
C717 C718 1.398 . S
C718 H706 0.950 . S
C718 C717 1.398 . S
C718 C719 1.391 . S
C719 H707 0.950 . S
C719 C715 1.393 . S
C719 C718 1.391 . S
H720 C728 0.950 . S
H721 C733 0.950 . S
H722 C730 0.950 . S
H723 C732 0.950 . S
H724 C734 0.950 . S
H725 C736 0.950 . S
H726 C738 0.950 . S
H727 C739 0.950 . S
C728 H720 0.950 . S
C728 C729 1.386 . S
C728 C730 1.391 . S
C729 C728 1.386 . S
C729 C733 1.393 . S
C730 H722 0.950 . S
C730 C728 1.391 . S
C730 C731 1.400 . S
C731 C730 1.400 . S
C731 C732 1.398 . S
C731 C737 1.491 . S
C732 H723 0.950 . S
C732 C731 1.398 . S
C732 C733 1.391 . S
C733 H721 0.950 . S
C733 C729 1.393 . S
C733 C732 1.391 . S
C734 H724 0.950 . S
C734 C735 1.386 . S
C734 C736 1.391 . S
C735 C734 1.386 . S
C735 C739 1.393 . S
C736 H725 0.950 . S
C736 C734 1.391 . S
C736 C737 1.400 . S
C737 C731 1.491 . S
C737 C736 1.400 . S
C737 C738 1.398 . S
C738 H726 0.950 . S
C738 C737 1.398 . S
C738 C739 1.391 . S
C739 H727 0.950 . S
C739 C735 1.393 . S
C739 C738 1.391 . S
H740 C748 0.950 . S
H741 C753 0.950 . S
H742 C750 0.950 . S
H743 C752 0.950 . S
H744 C754 0.950 . S
H745 C756 0.950 . S
H746 C758 0.950 . S
H747 C759 0.950 . S
C748 H740 0.950 . S
C748 C749 1.386 . S
C748 C750 1.391 . S
C749 C748 1.386 . S
C749 C753 1.393 . S
C750 H742 0.950 . S
C750 C748 1.391 . S
C750 C751 1.400 . S
C751 C750 1.400 . S
C751 C752 1.398 . S
C751 C757 1.491 . S
C752 H743 0.950 . S
C752 C751 1.398 . S
C752 C753 1.391 . S
C753 H741 0.950 . S
C753 C749 1.393 . S
C753 C752 1.391 . S
C754 H744 0.950 . S
C754 C755 1.386 . S
C754 C756 1.391 . S
C755 C754 1.386 . S
C755 C759 1.393 . S
C756 H745 0.950 . S
C756 C754 1.391 . S
C756 C757 1.400 . S
C757 C751 1.491 . S
C757 C756 1.400 . S
C757 C758 1.398 . S
C758 H746 0.950 . S
C758 C757 1.398 . S
C758 C759 1.391 . S
C759 H747 0.950 . S
C759 C755 1.393 . S
C759 C758 1.391 . S
H760 C768 0.950 . S
H761 C773 0.950 . S
H762 C770 0.950 . S
H763 C772 0.950 . S
H764 C774 0.950 . S
H765 C776 0.950 . S
H766 C778 0.950 . S
H767 C779 0.950 . S
C768 H760 0.950 . S
C768 C769 1.386 . S
C768 C770 1.391 . S
C769 C768 1.386 . S
C769 C773 1.393 . S
C770 H762 0.950 . S
C770 C768 1.391 . S
C770 C771 1.400 . S
C771 C770 1.400 . S
C771 C772 1.398 . S
C771 C777 1.491 . S
C772 H763 0.950 . S
C772 C771 1.398 . S
C772 C773 1.391 . S
C773 H761 0.950 . S
C773 C769 1.393 . S
C773 C772 1.391 . S
C774 H764 0.950 . S
C774 C775 1.386 . S
C774 C776 1.391 . S
C775 C774 1.386 . S
C775 C779 1.393 . S
C776 H765 0.950 . S
C776 C774 1.391 . S
C776 C777 1.400 . S
C777 C771 1.491 . S
C777 C776 1.400 . S
C777 C778 1.398 . S
C778 H766 0.950 . S
C778 C777 1.398 . S
C778 C779 1.391 . S
C779 H767 0.950 . S
C779 C775 1.393 . S
C779 C778 1.391 . S
H780 C788 0.950 . S
H781 C793 0.950 . S
H782 C790 0.950 . S
H783 C792 0.950 . S
H784 C794 0.950 . S
H785 C796 0.950 . S
H786 C798 0.950 . S
H787 C799 0.950 . S
C788 H780 0.950 . S
C788 C789 1.386 . S
C788 C790 1.391 . S
C789 C788 1.386 . S
C789 C793 1.393 . S
C790 H782 0.950 . S
C790 C788 1.391 . S
C790 C791 1.400 . S
C791 C790 1.400 . S
C791 C792 1.398 . S
C791 C797 1.491 . S
C792 H783 0.950 . S
C792 C791 1.398 . S
C792 C793 1.391 . S
C793 H781 0.950 . S
C793 C789 1.393 . S
C793 C792 1.391 . S
C794 H784 0.950 . S
C794 C795 1.386 . S
C794 C796 1.391 . S
C795 C794 1.386 . S
C795 C799 1.393 . S
C796 H785 0.950 . S
C796 C794 1.391 . S
C796 C797 1.400 . S
C797 C791 1.491 . S
C797 C796 1.400 . S
C797 C798 1.398 . S
C798 H786 0.950 . S
C798 C797 1.398 . S
C798 C799 1.391 . S
C799 H787 0.950 . S
C799 C795 1.393 . S
C799 C798 1.391 . S
H800 C808 0.950 . S
H801 C813 0.950 . S
H802 C810 0.950 . S
H803 C812 0.950 . S
H804 C814 0.950 . S
H805 C816 0.950 . S
H806 C818 0.950 . S
H807 C819 0.950 . S
C808 H800 0.950 . S
C808 C809 1.386 . S
C808 C810 1.391 . S
C809 C808 1.386 . S
C809 C813 1.393 . S
C810 H802 0.950 . S
C810 C808 1.391 . S
C810 C811 1.400 . S
C811 C810 1.400 . S
C811 C812 1.398 . S
C811 C817 1.491 . S
C812 H803 0.950 . S
C812 C811 1.398 . S
C812 C813 1.391 . S
C813 H801 0.950 . S
C813 C809 1.393 . S
C813 C812 1.391 . S
C814 H804 0.950 . S
C814 C815 1.386 . S
C814 C816 1.391 . S
C815 C814 1.386 . S
C815 C819 1.393 1_556 S
C816 H805 0.950 . S
C816 C814 1.391 . S
C816 C817 1.400 . S
C817 C811 1.491 . S
C817 C816 1.400 . S
C817 C818 1.398 . S
C818 H806 0.950 . S
C818 C817 1.398 . S
C818 C819 1.391 1_556 S
C819 H807 0.950 . S
C819 C815 1.393 1_554 S
C819 C818 1.391 1_554 S
H820 C828 0.950 . S
H821 C833 0.950 . S
H822 C830 0.950 1_556 S
H823 C832 0.950 . S
H824 C834 0.950 . S
H825 C836 0.950 . S
H826 C838 0.950 . S
H827 C839 0.950 . S
C828 H820 0.950 . S
C828 C829 1.386 1_556 S
C828 C830 1.391 1_556 S
C829 C828 1.386 1_554 S
C829 C833 1.393 . S
C830 H822 0.950 1_554 S
C830 C828 1.391 1_554 S
C830 C831 1.400 . S
C831 C830 1.400 . S
C831 C832 1.398 . S
C831 C837 1.491 . S
C832 H823 0.950 . S
C832 C831 1.398 . S
C832 C833 1.391 . S
C833 H821 0.950 . S
C833 C829 1.393 . S
C833 C832 1.391 . S
C834 H824 0.950 . S
C834 C835 1.386 . S
C834 C836 1.391 . S
C835 C834 1.386 . S
C835 C839 1.393 . S
C836 H825 0.950 . S
C836 C834 1.391 . S
C836 C837 1.400 . S
C837 C831 1.491 . S
C837 C836 1.400 . S
C837 C838 1.398 . S
C838 H826 0.950 . S
C838 C837 1.398 . S
C838 C839 1.391 . S
C839 H827 0.950 . S
C839 C835 1.393 . S
C839 C838 1.391 . S
H840 C848 0.950 . S
H841 C853 0.950 . S
H842 C850 0.950 . S
H843 C852 0.950 1_554 S
H844 C854 0.950 . S
H845 C856 0.950 . S
H846 C858 0.950 . S
H847 C859 0.950 . S
C848 H840 0.950 . S
C848 C849 1.386 . S
C848 C850 1.391 . S
C849 C848 1.386 . S
C849 C853 1.393 1_556 S
C850 H842 0.950 . S
C850 C848 1.391 . S
C850 C851 1.400 . S
C851 C850 1.400 . S
C851 C852 1.398 . S
C851 C857 1.491 . S
C852 H843 0.950 1_556 S
C852 C851 1.398 . S
C852 C853 1.391 1_556 S
C853 H841 0.950 . S
C853 C849 1.393 1_554 S
C853 C852 1.391 1_554 S
C854 H844 0.950 . S
C854 C855 1.386 . S
C854 C856 1.391 . S
C855 C854 1.386 . S
C855 C859 1.393 . S
C856 H845 0.950 . S
C856 C854 1.391 . S
C856 C857 1.400 . S
C857 C851 1.491 . S
C857 C856 1.400 . S
C857 C858 1.398 . S
C858 H846 0.950 . S
C858 C857 1.398 . S
C858 C859 1.391 . S
C859 H847 0.950 . S
C859 C855 1.393 . S
C859 C858 1.391 . S
H860 C868 0.950 . S
H861 C873 0.950 . S
H862 C870 0.950 . S
H863 C872 0.950 . S
H864 C874 0.950 . S
H865 C876 0.950 . S
H866 C878 0.950 . S
H867 C879 0.950 . S
C868 H860 0.950 . S
C868 C869 1.386 . S
C868 C870 1.391 . S
C869 C868 1.386 . S
C869 C873 1.393 . S
C870 H862 0.950 . S
C870 C868 1.391 . S
C870 C871 1.400 . S
C871 C870 1.400 . S
C871 C872 1.398 . S
C871 C877 1.491 . S
C872 H863 0.950 . S
C872 C871 1.398 . S
C872 C873 1.391 . S
C873 H861 0.950 . S
C873 C869 1.393 . S
C873 C872 1.391 . S
C874 H864 0.950 . S
C874 C875 1.386 . S
C874 C876 1.391 . S
C875 C874 1.386 . S
C875 C879 1.393 . S
C876 H865 0.950 . S
C876 C874 1.391 . S
C876 C877 1.400 . S
C877 C871 1.491 . S
C877 C876 1.400 . S
C877 C878 1.398 . S
C878 H866 0.950 . S
C878 C877 1.398 . S
C878 C879 1.391 . S
C879 H867 0.950 . S
C879 C875 1.393 . S
C879 C878 1.391 . S
H880 C888 0.950 . S
H881 C893 0.950 . S
H882 C890 0.950 . S
H883 C892 0.950 . S
H884 C894 0.950 . S
H885 C896 0.950 . S
H886 C898 0.950 . S
H887 C899 0.950 . S
C888 H880 0.950 . S
C888 C889 1.386 . S
C888 C890 1.391 . S
C889 C888 1.386 . S
C889 C893 1.393 . S
C890 H882 0.950 . S
C890 C888 1.391 . S
C890 C891 1.400 . S
C891 C890 1.400 . S
C891 C892 1.398 . S
C891 C897 1.491 . S
C892 H883 0.950 . S
C892 C891 1.398 . S
C892 C893 1.391 . S
C893 H881 0.950 . S
C893 C889 1.393 . S
C893 C892 1.391 . S
C894 H884 0.950 . S
C894 C895 1.386 . S
C894 C896 1.391 . S
C895 C894 1.386 . S
C895 C899 1.393 . S
C896 H885 0.950 . S
C896 C894 1.391 . S
C896 C897 1.400 . S
C897 C891 1.491 . S
C897 C896 1.400 . S
C897 C898 1.398 . S
C898 H886 0.950 . S
C898 C897 1.398 . S
C898 C899 1.391 . S
C899 H887 0.950 . S
C899 C895 1.393 . S
C899 C898 1.391 . S
H900 C908 0.950 . S
H901 C913 0.950 . S
H902 C910 0.950 . S
H903 C912 0.950 . S
H904 C914 0.950 . S
H905 C916 0.950 . S
H906 C918 0.950 . S
H907 C919 0.950 . S
C908 H900 0.950 . S
C908 C909 1.386 . S
C908 C910 1.391 . S
C909 C908 1.386 . S
C909 C913 1.393 . S
C910 H902 0.950 . S
C910 C908 1.391 . S
C910 C911 1.400 . S
C911 C910 1.400 . S
C911 C912 1.398 . S
C911 C917 1.491 . S
C912 H903 0.950 . S
C912 C911 1.398 . S
C912 C913 1.391 . S
C913 H901 0.950 . S
C913 C909 1.393 . S
C913 C912 1.391 . S
C914 H904 0.950 . S
C914 C915 1.386 . S
C914 C916 1.391 . S
C915 C914 1.386 . S
C915 C919 1.393 . S
C916 H905 0.950 . S
C916 C914 1.391 . S
C916 C917 1.400 . S
C917 C911 1.491 . S
C917 C916 1.400 . S
C917 C918 1.398 . S
C918 H906 0.950 . S
C918 C917 1.398 . S
C918 C919 1.391 . S
C919 H907 0.950 . S
C919 C915 1.393 . S
C919 C918 1.391 . S
H920 C928 0.950 . S
H921 C933 0.950 . S
H922 C930 0.950 . S
H923 C932 0.950 . S
H924 C934 0.950 . S
H925 C936 0.950 . S
H926 C938 0.950 . S
H927 C939 0.950 . S
C928 H920 0.950 . S
C928 C929 1.386 . S
C928 C930 1.391 . S
C929 C928 1.386 . S
C929 C933 1.393 . S
C930 H922 0.950 . S
C930 C928 1.391 . S
C930 C931 1.400 . S
C931 C930 1.400 . S
C931 C932 1.398 . S
C931 C937 1.491 . S
C932 H923 0.950 . S
C932 C931 1.398 . S
C932 C933 1.391 . S
C933 H921 0.950 . S
C933 C929 1.393 . S
C933 C932 1.391 . S
C934 H924 0.950 . S
C934 C935 1.386 . S
C934 C936 1.391 . S
C935 C934 1.386 . S
C935 C939 1.393 . S
C936 H925 0.950 . S
C936 C934 1.391 . S
C936 C937 1.400 . S
C937 C931 1.491 . S
C937 C936 1.400 . S
C937 C938 1.398 . S
C938 H926 0.950 . S
C938 C937 1.398 . S
C938 C939 1.391 . S
C939 H927 0.950 . S
C939 C935 1.393 . S
C939 C938 1.391 . S
H940 C948 0.950 . S
H941 C953 0.950 . S
H942 C950 0.950 . S
H943 C952 0.950 . S
H944 C954 0.950 . S
H945 C956 0.950 . S
H946 C958 0.950 . S
H947 C959 0.950 . S
C948 H940 0.950 . S
C948 C949 1.386 . S
C948 C950 1.391 . S
C949 C948 1.386 . S
C949 C953 1.393 . S
C950 H942 0.950 . S
C950 C948 1.391 . S
C950 C951 1.400 . S
C951 C950 1.400 . S
C951 C952 1.398 . S
C951 C957 1.491 . S
C952 H943 0.950 . S
C952 C951 1.398 . S
C952 C953 1.391 . S
C953 H941 0.950 . S
C953 C949 1.393 . S
C953 C952 1.391 . S
C954 H944 0.950 . S
C954 C955 1.386 . S
C954 C956 1.391 . S
C955 C954 1.386 . S
C955 C959 1.393 . S
C956 H945 0.950 . S
C956 C954 1.391 . S
C956 C957 1.400 . S
C957 C951 1.491 . S
C957 C956 1.400 . S
C957 C958 1.398 . S
C958 H946 0.950 . S
C958 C957 1.398 . S
C958 C959 1.391 . S
C959 H947 0.950 . S
C959 C955 1.393 . S
C959 C958 1.391 . S
H960 C968 0.950 . S
H961 C973 0.950 . S
H962 C970 0.950 . S
H963 C972 0.950 . S
H964 C974 0.950 . S
H965 C976 0.950 . S
H966 C978 0.950 . S
H967 C979 0.950 . S
C968 H960 0.950 . S
C968 C969 1.386 . S
C968 C970 1.391 . S
C969 C968 1.386 . S
C969 C973 1.393 . S
C970 H962 0.950 . S
C970 C968 1.391 . S
C970 C971 1.400 . S
C971 C970 1.400 . S
C971 C972 1.398 . S
C971 C977 1.491 . S
C972 H963 0.950 . S
C972 C971 1.398 . S
C972 C973 1.391 . S
C973 H961 0.950 . S
C973 C969 1.393 . S
C973 C972 1.391 . S
C974 H964 0.950 . S
C974 C975 1.386 . S
C974 C976 1.391 . S
C975 C974 1.386 . S
C975 C979 1.393 . S
C976 H965 0.950 . S
C976 C974 1.391 . S
C976 C977 1.400 . S
C977 C971 1.491 . S
C977 C976 1.400 . S
C977 C978 1.398 . S
C978 H966 0.950 . S
C978 C977 1.398 . S
C978 C979 1.391 . S
C979 H967 0.950 . S
C979 C975 1.393 . S
C979 C978 1.391 . S
H980 C988 0.950 . S
H981 C993 0.950 . S
H982 C990 0.950 . S
H983 C992 0.950 . S
H984 C994 0.950 . S
H985 C996 0.950 . S
H986 C998 0.950 . S
H987 C999 0.950 . S
C988 H980 0.950 . S
C988 C989 1.386 . S
C988 C990 1.391 . S
C989 C988 1.386 . S
C989 C993 1.393 . S
C990 H982 0.950 . S
C990 C988 1.391 . S
C990 C991 1.400 . S
C991 C990 1.400 . S
C991 C992 1.398 . S
C991 C997 1.491 . S
C992 H983 0.950 . S
C992 C991 1.398 . S
C992 C993 1.391 . S
C993 H981 0.950 . S
C993 C989 1.393 . S
C993 C992 1.391 . S
C994 H984 0.950 . S
C994 C995 1.386 . S
C994 C996 1.391 . S
C995 C994 1.386 . S
C995 C999 1.393 . S
C996 H985 0.950 . S
C996 C994 1.391 . S
C996 C997 1.400 . S
C997 C991 1.491 . S
C997 C996 1.400 . S
C997 C998 1.398 . S
C998 H986 0.950 . S
C998 C997 1.398 . S
C998 C999 1.391 . S
C999 H987 0.950 . S
C999 C995 1.393 . S
C999 C998 1.391 . S
H1000 C1008 0.950 . S
H1001 C1013 0.950 . S
H1002 C1010 0.950 . S
H1003 C1012 0.950 . S
H1004 C1014 0.950 . S
H1005 C1016 0.950 . S
H1006 C1018 0.950 . S
H1007 C1019 0.950 . S
C1008 H1000 0.950 . S
C1008 C1009 1.386 . S
C1008 C1010 1.391 . S
C1009 C1008 1.386 . S
C1009 C1013 1.393 . S
C1010 H1002 0.950 . S
C1010 C1008 1.391 . S
C1010 C1011 1.400 . S
C1011 C1010 1.400 . S
C1011 C1012 1.398 . S
C1011 C1017 1.491 . S
C1012 H1003 0.950 . S
C1012 C1011 1.398 . S
C1012 C1013 1.391 . S
C1013 H1001 0.950 . S
C1013 C1009 1.393 . S
C1013 C1012 1.391 . S
C1014 H1004 0.950 . S
C1014 C1015 1.386 . S
C1014 C1016 1.391 . S
C1015 C1014 1.386 . S
C1015 C1019 1.393 . S
C1016 H1005 0.950 . S
C1016 C1014 1.391 . S
C1016 C1017 1.400 . S
C1017 C1011 1.491 . S
C1017 C1016 1.400 . S
C1017 C1018 1.398 . S
C1018 H1006 0.950 . S
C1018 C1017 1.398 . S
C1018 C1019 1.391 . S
C1019 H1007 0.950 . S
C1019 C1015 1.393 . S
C1019 C1018 1.391 . S
H1020 C1028 0.950 . S
H1021 C1033 0.950 . S
H1022 C1030 0.950 . S
H1023 C1032 0.950 . S
H1024 C1034 0.950 . S
H1025 C1036 0.950 . S
H1026 C1038 0.950 . S
H1027 C1039 0.950 . S
C1028 H1020 0.950 . S
C1028 C1029 1.386 . S
C1028 C1030 1.391 . S
C1029 C1028 1.386 . S
C1029 C1033 1.393 . S
C1030 H1022 0.950 . S
C1030 C1028 1.391 . S
C1030 C1031 1.400 . S
C1031 C1030 1.400 . S
C1031 C1032 1.398 . S
C1031 C1037 1.491 . S
C1032 H1023 0.950 . S
C1032 C1031 1.398 . S
C1032 C1033 1.391 . S
C1033 H1021 0.950 . S
C1033 C1029 1.393 . S
C1033 C1032 1.391 . S
C1034 H1024 0.950 . S
C1034 C1035 1.386 . S
C1034 C1036 1.391 . S
C1035 C1034 1.386 . S
C1035 C1039 1.393 . S
C1036 H1025 0.950 . S
C1036 C1034 1.391 . S
C1036 C1037 1.400 . S
C1037 C1031 1.491 . S
C1037 C1036 1.400 . S
C1037 C1038 1.398 . S
C1038 H1026 0.950 . S
C1038 C1037 1.398 . S
C1038 C1039 1.391 . S
C1039 H1027 0.950 . S
C1039 C1035 1.393 . S
C1039 C1038 1.391 . S
H1040 C1048 0.950 . S
H1041 C1053 0.950 . S
H1042 C1050 0.950 . S
H1043 C1052 0.950 . S
H1044 C1054 0.950 . S
H1045 C1056 0.950 . S
H1046 C1058 0.950 . S
H1047 C1059 0.950 . S
C1048 H1040 0.950 . S
C1048 C1049 1.386 . S
C1048 C1050 1.391 . S
C1049 C1048 1.386 . S
C1049 C1053 1.393 . S
C1050 H1042 0.950 . S
C1050 C1048 1.391 . S
C1050 C1051 1.400 . S
C1051 C1050 1.400 . S
C1051 C1052 1.398 . S
C1051 C1057 1.491 . S
C1052 H1043 0.950 . S
C1052 C1051 1.398 . S
C1052 C1053 1.391 . S
C1053 H1041 0.950 . S
C1053 C1049 1.393 . S
C1053 C1052 1.391 . S
C1054 H1044 0.950 . S
C1054 C1055 1.386 . S
C1054 C1056 1.391 . S
C1055 C1054 1.386 . S
C1055 C1059 1.393 . S
C1056 H1045 0.950 . S
C1056 C1054 1.391 . S
C1056 C1057 1.400 . S
C1057 C1051 1.491 . S
C1057 C1056 1.400 . S
C1057 C1058 1.398 . S
C1058 H1046 0.950 . S
C1058 C1057 1.398 . S
C1058 C1059 1.391 . S
C1059 H1047 0.950 . S
C1059 C1055 1.393 . S
C1059 C1058 1.391 . S
H1060 C1068 0.950 . S
H1061 C1073 0.950 . S
H1062 C1070 0.950 . S
H1063 C1072 0.950 . S
H1064 C1074 0.950 . S
H1065 C1076 0.950 . S
H1066 C1078 0.950 . S
H1067 C1079 0.950 . S
C1068 H1060 0.950 . S
C1068 C1069 1.386 . S
C1068 C1070 1.391 . S
C1069 C1068 1.386 . S
C1069 C1073 1.393 . S
C1070 H1062 0.950 . S
C1070 C1068 1.391 . S
C1070 C1071 1.400 . S
C1071 C1070 1.400 . S
C1071 C1072 1.398 . S
C1071 C1077 1.491 . S
C1072 H1063 0.950 . S
C1072 C1071 1.398 . S
C1072 C1073 1.391 . S
C1073 H1061 0.950 . S
C1073 C1069 1.393 . S
C1073 C1072 1.391 . S
C1074 H1064 0.950 . S
C1074 C1075 1.386 . S
C1074 C1076 1.391 . S
C1075 C1074 1.386 . S
C1075 C1079 1.393 . S
C1076 H1065 0.950 . S
C1076 C1074 1.391 . S
C1076 C1077 1.400 . S
C1077 C1071 1.491 . S
C1077 C1076 1.400 . S
C1077 C1078 1.398 . S
C1078 H1066 0.950 . S
C1078 C1077 1.398 . S
C1078 C1079 1.391 . S
C1079 H1067 0.950 . S
C1079 C1075 1.393 . S
C1079 C1078 1.391 . S
H1080 C1088 0.950 . S
H1081 C1093 0.950 . S
H1082 C1090 0.950 . S
H1083 C1092 0.950 . S
H1084 C1094 0.950 . S
H1085 C1096 0.950 . S
H1086 C1098 0.950 . S
H1087 C1099 0.950 . S
C1088 H1080 0.950 . S
C1088 C1089 1.386 . S
C1088 C1090 1.391 . S
C1089 C1088 1.386 . S
C1089 C1093 1.393 . S
C1090 H1082 0.950 . S
C1090 C1088 1.391 . S
C1090 C1091 1.400 . S
C1091 C1090 1.400 . S
C1091 C1092 1.398 . S
C1091 C1097 1.491 . S
C1092 H1083 0.950 . S
C1092 C1091 1.398 . S
C1092 C1093 1.391 . S
C1093 H1081 0.950 . S
C1093 C1089 1.393 . S
C1093 C1092 1.391 . S
C1094 H1084 0.950 . S
C1094 C1095 1.386 . S
C1094 C1096 1.391 . S
C1095 C1094 1.386 . S
C1095 C1099 1.393 . S
C1096 H1085 0.950 . S
C1096 C1094 1.391 . S
C1096 C1097 1.400 . S
C1097 C1091 1.491 . S
C1097 C1096 1.400 . S
C1097 C1098 1.398 . S
C1098 H1086 0.950 . S
C1098 C1097 1.398 . S
C1098 C1099 1.391 . S
C1099 H1087 0.950 . S
C1099 C1095 1.393 . S
C1099 C1098 1.391 . S
H1100 C1108 0.950 . S
H1101 C1113 0.950 . S
H1102 C1110 0.950 . S
H1103 C1112 0.950 . S
H1104 C1114 0.950 . S
H1105 C1116 0.950 . S
H1106 C1118 0.950 . S
H1107 C1119 0.950 . S
C1108 H1100 0.950 . S
C1108 C1109 1.386 . S
C1108 C1110 1.391 . S
C1109 C1108 1.386 . S
C1109 C1113 1.393 . S
C1110 H1102 0.950 . S
C1110 C1108 1.391 . S
C1110 C1111 1.400 . S
C1111 C1110 1.400 . S
C1111 C1112 1.398 . S
C1111 C1117 1.491 . S
C1112 H1103 0.950 . S
C1112 C1111 1.398 . S
C1112 C1113 1.391 . S
C1113 H1101 0.950 . S
C1113 C1109 1.393 . S
C1113 C1112 1.391 . S
C1114 H1104 0.950 . S
C1114 C1115 1.386 . S
C1114 C1116 1.391 . S
C1115 C1114 1.386 . S
C1115 C1119 1.393 . S
C1116 H1105 0.950 . S
C1116 C1114 1.391 . S
C1116 C1117 1.400 . S
C1117 C1111 1.491 . S
C1117 C1116 1.400 . S
C1117 C1118 1.398 . S
C1118 H1106 0.950 . S
C1118 C1117 1.398 . S
C1118 C1119 1.391 . S
C1119 H1107 0.950 . S
C1119 C1115 1.393 . S
C1119 C1118 1.391 . S
H1120 C1128 0.950 . S
H1121 C1133 0.950 . S
H1122 C1130 0.950 . S
H1123 C1132 0.950 . S
H1124 C1134 0.950 . S
H1125 C1136 0.950 . S
H1126 C1138 0.950 . S
H1127 C1139 0.950 . S
C1128 H1120 0.950 . S
C1128 C1129 1.386 . S
C1128 C1130 1.391 1_556 S
C1129 C1128 1.386 . S
C1129 C1133 1.393 . S
C1130 H1122 0.950 . S
C1130 C1128 1.391 1_554 S
C1130 C1131 1.400 . S
C1131 C1130 1.400 . S
C1131 C1132 1.398 . S
C1131 C1137 1.491 . S
C1132 H1123 0.950 . S
C1132 C1131 1.398 . S
C1132 C1133 1.391 1_554 S
C1133 H1121 0.950 . S
C1133 C1129 1.393 . S
C1133 C1132 1.391 1_556 S
C1134 H1124 0.950 . S
C1134 C1135 1.386 . S
C1134 C1136 1.391 . S
C1135 C1134 1.386 . S
C1135 C1139 1.393 . S
C1136 H1125 0.950 . S
C1136 C1134 1.391 . S
C1136 C1137 1.400 . S
C1137 C1131 1.491 . S
C1137 C1136 1.400 . S
C1137 C1138 1.398 . S
C1138 H1126 0.950 . S
C1138 C1137 1.398 . S
C1138 C1139 1.391 . S
C1139 H1127 0.950 . S
C1139 C1135 1.393 . S
C1139 C1138 1.391 . S
H1140 C1148 0.950 . S
H1141 C1153 0.950 . S
H1142 C1150 0.950 . S
H1143 C1152 0.950 . S
H1144 C1154 0.950 . S
H1145 C1156 0.950 . S
H1146 C1158 0.950 . S
H1147 C1159 0.950 . S
C1148 H1140 0.950 . S
C1148 C1149 1.386 . S
C1148 C1150 1.391 . S
C1149 C1148 1.386 . S
C1149 C1153 1.393 . S
C1150 H1142 0.950 . S
C1150 C1148 1.391 . S
C1150 C1151 1.400 . S
C1151 C1150 1.400 . S
C1151 C1152 1.398 . S
C1151 C1157 1.491 . S
C1152 H1143 0.950 . S
C1152 C1151 1.398 . S
C1152 C1153 1.391 . S
C1153 H1141 0.950 . S
C1153 C1149 1.393 . S
C1153 C1152 1.391 . S
C1154 H1144 0.950 . S
C1154 C1155 1.386 . S
C1154 C1156 1.391 1_554 S
C1155 C1154 1.386 . S
C1155 C1159 1.393 . S
C1156 H1145 0.950 . S
C1156 C1154 1.391 1_556 S
C1156 C1157 1.400 . S
C1157 C1151 1.491 . S
C1157 C1156 1.400 . S
C1157 C1158 1.398 . S
C1158 H1146 0.950 . S
C1158 C1157 1.398 . S
C1158 C1159 1.391 1_556 S
C1159 H1147 0.950 . S
C1159 C1155 1.393 . S
C1159 C1158 1.391 1_554 S
H1160 C1168 0.950 . S
H1161 C1173 0.950 . S
H1162 C1170 0.950 . S
H1163 C1172 0.950 . S
H1164 C1174 0.950 . S
H1165 C1176 0.950 . S
H1166 C1178 0.950 . S
H1167 C1179 0.950 . S
C1168 H1160 0.950 . S
C1168 C1169 1.386 . S
C1168 C1170 1.391 . S
C1169 C1168 1.386 . S
C1169 C1173 1.393 . S
C1170 H1162 0.950 . S
C1170 C1168 1.391 . S
C1170 C1171 1.400 . S
C1171 C1170 1.400 . S
C1171 C1172 1.398 . S
C1171 C1177 1.491 . S
C1172 H1163 0.950 . S
C1172 C1171 1.398 . S
C1172 C1173 1.391 . S
C1173 H1161 0.950 . S
C1173 C1169 1.393 . S
C1173 C1172 1.391 . S
C1174 H1164 0.950 . S
C1174 C1175 1.386 . S
C1174 C1176 1.391 1_556 S
C1175 C1174 1.386 . S
C1175 C1179 1.393 . S
C1176 H1165 0.950 . S
C1176 C1174 1.391 1_554 S
C1176 C1177 1.400 . S
C1177 C1171 1.491 . S
C1177 C1176 1.400 . S
C1177 C1178 1.398 . S
C1178 H1166 0.950 . S
C1178 C1177 1.398 . S
C1178 C1179 1.391 1_554 S
C1179 H1167 0.950 . S
C1179 C1175 1.393 . S
C1179 C1178 1.391 1_556 S
H1180 C1188 0.950 . S
H1181 C1193 0.950 . S
H1182 C1190 0.950 . S
H1183 C1192 0.950 . S
H1184 C1194 0.950 . S
H1185 C1196 0.950 . S
H1186 C1198 0.950 . S
H1187 C1199 0.950 . S
C1188 H1180 0.950 . S
C1188 C1189 1.386 . S
C1188 C1190 1.391 1_554 S
C1189 C1188 1.386 . S
C1189 C1193 1.393 . S
C1190 H1182 0.950 . S
C1190 C1188 1.391 1_556 S
C1190 C1191 1.400 . S
C1191 C1190 1.400 . S
C1191 C1192 1.398 . S
C1191 C1197 1.491 . S
C1192 H1183 0.950 . S
C1192 C1191 1.398 . S
C1192 C1193 1.391 1_556 S
C1193 H1181 0.950 . S
C1193 C1189 1.393 . S
C1193 C1192 1.391 1_554 S
C1194 H1184 0.950 . S
C1194 C1195 1.386 . S
C1194 C1196 1.391 . S
C1195 C1194 1.386 . S
C1195 C1199 1.393 . S
C1196 H1185 0.950 . S
C1196 C1194 1.391 . S
C1196 C1197 1.400 . S
C1197 C1191 1.491 . S
C1197 C1196 1.400 . S
C1197 C1198 1.398 . S
C1198 H1186 0.950 . S
C1198 C1197 1.398 . S
C1198 C1199 1.391 . S
C1199 H1187 0.950 . S
C1199 C1195 1.393 . S
C1199 C1198 1.391 . S
H1200 C1208 0.950 . S
H1201 C1213 0.950 . S
H1202 C1210 0.950 . S
H1203 C1212 0.950 . S
H1204 C1214 0.950 . S
H1205 C1216 0.950 . S
H1206 C1218 0.950 . S
H1207 C1219 0.950 . S
C1208 H1200 0.950 . S
C1208 C1209 1.386 . S
C1208 C1210 1.391 . S
C1209 C1208 1.386 . S
C1209 C1213 1.393 . S
C1210 H1202 0.950 . S
C1210 C1208 1.391 . S
C1210 C1211 1.400 . S
C1211 C1210 1.400 . S
C1211 C1212 1.398 . S
C1211 C1217 1.491 . S
C1212 H1203 0.950 . S
C1212 C1211 1.398 . S
C1212 C1213 1.391 . S
C1213 H1201 0.950 . S
C1213 C1209 1.393 . S
C1213 C1212 1.391 . S
C1214 H1204 0.950 . S
C1214 C1215 1.386 . S
C1214 C1216 1.391 1_556 S
C1215 C1214 1.386 . S
C1215 C1219 1.393 . S
C1216 H1205 0.950 . S
C1216 C1214 1.391 1_554 S
C1216 C1217 1.400 . S
C1217 C1211 1.491 . S
C1217 C1216 1.400 . S
C1217 C1218 1.398 . S
C1218 H1206 0.950 . S
C1218 C1217 1.398 . S
C1218 C1219 1.391 1_554 S
C1219 H1207 0.950 . S
C1219 C1215 1.393 . S
C1219 C1218 1.391 1_556 S
H1220 C1228 0.950 . S
H1221 C1233 0.950 . S
H1222 C1230 0.950 . S
H1223 C1232 0.950 . S
H1224 C1234 0.950 . S
H1225 C1236 0.950 . S
H1226 C1238 0.950 . S
H1227 C1239 0.950 . S
C1228 H1220 0.950 . S
C1228 C1229 1.386 . S
C1228 C1230 1.391 1_554 S
C1229 C1228 1.386 . S
C1229 C1233 1.393 . S
C1230 H1222 0.950 . S
C1230 C1228 1.391 1_556 S
C1230 C1231 1.400 . S
C1231 C1230 1.400 . S
C1231 C1232 1.398 . S
C1231 C1237 1.491 . S
C1232 H1223 0.950 . S
C1232 C1231 1.398 . S
C1232 C1233 1.391 1_556 S
C1233 H1221 0.950 . S
C1233 C1229 1.393 . S
C1233 C1232 1.391 1_554 S
C1234 H1224 0.950 . S
C1234 C1235 1.386 . S
C1234 C1236 1.391 . S
C1235 C1234 1.386 . S
C1235 C1239 1.393 . S
C1236 H1225 0.950 . S
C1236 C1234 1.391 . S
C1236 C1237 1.400 . S
C1237 C1231 1.491 . S
C1237 C1236 1.400 . S
C1237 C1238 1.398 . S
C1238 H1226 0.950 . S
C1238 C1237 1.398 . S
C1238 C1239 1.391 . S
C1239 H1227 0.950 . S
C1239 C1235 1.393 . S
C1239 C1238 1.391 . S
H1240 C1248 0.950 . S
H1241 C1253 0.950 . S
H1242 C1250 0.950 . S
H1243 C1252 0.950 . S
H1244 C1254 0.950 . S
H1245 C1256 0.950 . S
H1246 C1258 0.950 . S
H1247 C1259 0.950 . S
C1248 H1240 0.950 . S
C1248 C1249 1.386 . S
C1248 C1250 1.391 1_556 S
C1249 C1248 1.386 . S
C1249 C1253 1.393 . S
C1250 H1242 0.950 . S
C1250 C1248 1.391 1_554 S
C1250 C1251 1.400 . S
C1251 C1250 1.400 . S
C1251 C1252 1.398 . S
C1251 C1257 1.491 . S
C1252 H1243 0.950 . S
C1252 C1251 1.398 . S
C1252 C1253 1.391 1_554 S
C1253 H1241 0.950 . S
C1253 C1249 1.393 . S
C1253 C1252 1.391 1_556 S
C1254 H1244 0.950 . S
C1254 C1255 1.386 . S
C1254 C1256 1.391 . S
C1255 C1254 1.386 . S
C1255 C1259 1.393 . S
C1256 H1245 0.950 . S
C1256 C1254 1.391 . S
C1256 C1257 1.400 . S
C1257 C1251 1.491 . S
C1257 C1256 1.400 . S
C1257 C1258 1.398 . S
C1258 H1246 0.950 . S
C1258 C1257 1.398 . S
C1258 C1259 1.391 . S
C1259 H1247 0.950 . S
C1259 C1255 1.393 . S
C1259 C1258 1.391 . S
H1260 C1268 0.950 . S
H1261 C1273 0.950 . S
H1262 C1270 0.950 . S
H1263 C1272 0.950 . S
H1264 C1274 0.950 . S
H1265 C1276 0.950 . S
H1266 C1278 0.950 . S
H1267 C1279 0.950 . S
C1268 H1260 0.950 . S
C1268 C1269 1.386 . S
C1268 C1270 1.391 . S
C1269 C1268 1.386 . S
C1269 C1273 1.393 . S
C1270 H1262 0.950 . S
C1270 C1268 1.391 . S
C1270 C1271 1.400 . S
C1271 C1270 1.400 . S
C1271 C1272 1.398 . S
C1271 C1277 1.491 . S
C1272 H1263 0.950 . S
C1272 C1271 1.398 . S
C1272 C1273 1.391 . S
C1273 H1261 0.950 . S
C1273 C1269 1.393 . S
C1273 C1272 1.391 . S
C1274 H1264 0.950 . S
C1274 C1275 1.386 . S
C1274 C1276 1.391 1_554 S
C1275 C1274 1.386 . S
C1275 C1279 1.393 . S
C1276 H1265 0.950 . S
C1276 C1274 1.391 1_556 S
C1276 C1277 1.400 . S
C1277 C1271 1.491 . S
C1277 C1276 1.400 . S
C1277 C1278 1.398 . S
C1278 H1266 0.950 . S
C1278 C1277 1.398 . S
C1278 C1279 1.391 1_556 S
C1279 H1267 0.950 . S
C1279 C1275 1.393 . S
C1279 C1278 1.391 1_554 S
C329 C226 1.547 . S
C335 C9 1.621 . S
C349 C176 1.543 . S
C355 C21 1.619 . S
C369 C49 1.626 . S
C375 C186 1.548 . S
C389 C61 1.626 . S
C395 C216 1.554 . S
C409 C89 1.614 . S
C415 C106 1.525 1_554 S
C429 C136 1.526 1_556 S
C435 C101 1.613 . S
C449 C129 1.613 . S
C455 C146 1.528 1_554 S
C469 C96 1.556 1_556 S
C475 C141 1.628 . S
C489 C66 1.556 . S
C495 C169 1.628 . S
C509 C181 1.615 . S
C515 C16 1.535 . S
C529 C26 1.553 . S
C535 C209 1.628 . S
C549 C56 1.552 . S
C555 C221 1.628 . S
C569 C249 1.614 . S
C575 C266 1.525 . S
C589 C296 1.544 . S
C595 C261 1.625 . S
C609 C306 1.539 . S
C615 C289 1.617 . S
C629 C301 1.614 . S
C635 C256 1.526 . S
C649 C1 1.563 . S
C655 C81 1.561 . S
C669 C109 1.546 . S
C675 C29 1.548 . S
C689 C41 1.563 . S
C695 C121 1.566 . S
C709 C69 1.567 . S
C715 C149 1.565 . S
C729 C161 1.542 . S
C735 C241 1.542 . S
C749 C269 1.544 . S
C755 C189 1.546 . S
C769 C201 1.565 . S
C775 C281 1.563 . S
C789 C229 1.565 . S
C795 C309 1.563 . S
C809 C286 1.530 . S
C815 C6 1.532 1_556 S
C829 C36 1.525 1_554 S
C835 C316 1.527 . S
C849 C46 1.528 1_556 S
C855 C246 1.530 . S
C869 C76 1.517 1_554 S
C875 C276 1.517 . S
C889 C86 1.524 . S
C895 C206 1.527 . S
C909 C116 1.536 . S
C915 C236 1.536 . S
C929 C126 1.517 . S
C935 C166 1.517 . S
C949 C196 1.524 . S
C955 C156 1.526 . S
C969 C8 1.825 . S
C975 C19 1.825 . S
C989 C39 1.854 . S
C995 C28 1.854 . S
C1009 C48 1.825 . S
C1015 C59 1.825 . S
C1029 C68 1.845 . S
C1035 C79 1.845 . S
C1049 C99 1.837 . S
C1055 C88 1.837 . S
C1069 C119 1.853 . S
C1075 C108 1.853 . S
C1089 C128 1.825 . S
C1095 C139 1.825 . S
C1109 C148 1.853 . S
C1115 C159 1.853 . S
C1129 C168 1.844 . S
C1135 C179 1.844 . S
C1149 C188 1.827 . S
C1155 C199 1.827 . S
C1169 C219 1.850 . S
C1175 C208 1.850 . S
C1189 C239 1.829 . S
C1195 C228 1.829 . S
C1209 C248 1.850 . S
C1215 C259 1.850 . S
C1229 C268 1.833 . S
C1235 C279 1.833 . S
C1249 C299 1.836 . S
C1255 C288 1.836 . S
C1269 C319 1.826 . S
C1275 C308 1.826 . S
