# Generated by pormake.
# Topology mer, (4)-cn, num edge types: 1
# Building blocks:
#     Node 0, Type 0, BuildingBlock: KUFVIS_clean_sbu_0, # of connection points: 4
#     Node 1, Type 0, BuildingBlock: KUFVIS_clean_sbu_0, # of connection points: 4
#     Node 2, Type 0, BuildingBlock: KUFVIS_clean_sbu_0, # of connection points: 4
#     Node 3, Type 0, BuildingBlock: KUFVIS_clean_sbu_0, # of connection points: 4
#     Node 4, Type 0, BuildingBlock: KUFVIS_clean_sbu_0, # of connection points: 4
#     Node 5, Type 0, BuildingBlock: KUFVIS_clean_sbu_0, # of connection points: 4
#     Node 6, Type 0, BuildingBlock: KUFVIS_clean_sbu_0, # of connection points: 4
#     Node 7, Type 0, BuildingBlock: KUFVIS_clean_sbu_0, # of connection points: 4
#     Node 8, Type 0, BuildingBlock: KUFVIS_clean_sbu_0, # of connection points: 4
#     Node 9, Type 0, BuildingBlock: KUFVIS_clean_sbu_0, # of connection points: 4
#     Node 10, Type 0, BuildingBlock: KUFVIS_clean_sbu_0, # of connection points: 4
#     Node 11, Type 0, BuildingBlock: KUFVIS_clean_sbu_0, # of connection points: 4
#     Node 12, Type 0, BuildingBlock: KUFVIS_clean_sbu_0, # of connection points: 4
#     Node 13, Type 0, BuildingBlock: KUFVIS_clean_sbu_0, # of connection points: 4
#     Node 14, Type 0, BuildingBlock: KUFVIS_clean_sbu_0, # of connection points: 4
#     Node 15, Type 0, BuildingBlock: KUFVIS_clean_sbu_0, # of connection points: 4
#     Node 16, Type 0, BuildingBlock: KUFVIS_clean_sbu_0, # of connection points: 4
#     Node 17, Type 0, BuildingBlock: KUFVIS_clean_sbu_0, # of connection points: 4
#     Node 18, Type 0, BuildingBlock: KUFVIS_clean_sbu_0, # of connection points: 4
#     Node 19, Type 0, BuildingBlock: KUFVIS_clean_sbu_0, # of connection points: 4
#     Node 20, Type 0, BuildingBlock: KUFVIS_clean_sbu_0, # of connection points: 4
#     Node 21, Type 0, BuildingBlock: KUFVIS_clean_sbu_0, # of connection points: 4
#     Node 22, Type 0, BuildingBlock: KUFVIS_clean_sbu_0, # of connection points: 4
#     Node 23, Type 0, BuildingBlock: KUFVIS_clean_sbu_0, # of connection points: 4
#     Node 24, Type 0, BuildingBlock: KUFVIS_clean_sbu_0, # of connection points: 4
#     Node 25, Type 0, BuildingBlock: KUFVIS_clean_sbu_0, # of connection points: 4
#     Node 26, Type 0, BuildingBlock: KUFVIS_clean_sbu_0, # of connection points: 4
#     Node 27, Type 0, BuildingBlock: KUFVIS_clean_sbu_0, # of connection points: 4
#     Node 28, Type 0, BuildingBlock: KUFVIS_clean_sbu_0, # of connection points: 4
#     Node 29, Type 0, BuildingBlock: KUFVIS_clean_sbu_0, # of connection points: 4
#     Node 30, Type 0, BuildingBlock: KUFVIS_clean_sbu_0, # of connection points: 4
#     Node 31, Type 0, BuildingBlock: KUFVIS_clean_sbu_0, # of connection points: 4
#     Edge 32, Type (0, 0), None
#     Edge 33, Type (0, 0), None
#     Edge 34, Type (0, 0), None
#     Edge 35, Type (0, 0), None
#     Edge 36, Type (0, 0), None
#     Edge 37, Type (0, 0), None
#     Edge 38, Type (0, 0), None
#     Edge 39, Type (0, 0), None
#     Edge 40, Type (0, 0), None
#     Edge 41, Type (0, 0), None
#     Edge 42, Type (0, 0), None
#     Edge 43, Type (0, 0), None
#     Edge 44, Type (0, 0), None
#     Edge 45, Type (0, 0), None
#     Edge 46, Type (0, 0), None
#     Edge 47, Type (0, 0), None
#     Edge 48, Type (0, 0), None
#     Edge 49, Type (0, 0), None
#     Edge 50, Type (0, 0), None
#     Edge 51, Type (0, 0), None
#     Edge 52, Type (0, 0), None
#     Edge 53, Type (0, 0), None
#     Edge 54, Type (0, 0), None
#     Edge 55, Type (0, 0), None
#     Edge 56, Type (0, 0), None
#     Edge 57, Type (0, 0), None
#     Edge 58, Type (0, 0), None
#     Edge 59, Type (0, 0), None
#     Edge 60, Type (0, 0), None
#     Edge 61, Type (0, 0), None
#     Edge 62, Type (0, 0), None
#     Edge 63, Type (0, 0), None
#     Edge 64, Type (0, 0), None
#     Edge 65, Type (0, 0), None
#     Edge 66, Type (0, 0), None
#     Edge 67, Type (0, 0), None
#     Edge 68, Type (0, 0), None
#     Edge 69, Type (0, 0), None
#     Edge 70, Type (0, 0), None
#     Edge 71, Type (0, 0), None
#     Edge 72, Type (0, 0), None
#     Edge 73, Type (0, 0), None
#     Edge 74, Type (0, 0), None
#     Edge 75, Type (0, 0), None
#     Edge 76, Type (0, 0), None
#     Edge 77, Type (0, 0), None
#     Edge 78, Type (0, 0), None
#     Edge 79, Type (0, 0), None
#     Edge 80, Type (0, 0), None
#     Edge 81, Type (0, 0), None
#     Edge 82, Type (0, 0), None
#     Edge 83, Type (0, 0), None
#     Edge 84, Type (0, 0), None
#     Edge 85, Type (0, 0), None
#     Edge 86, Type (0, 0), None
#     Edge 87, Type (0, 0), None
#     Edge 88, Type (0, 0), None
#     Edge 89, Type (0, 0), None
#     Edge 90, Type (0, 0), None
#     Edge 91, Type (0, 0), None
#     Edge 92, Type (0, 0), None
#     Edge 93, Type (0, 0), None
#     Edge 94, Type (0, 0), None
#     Edge 95, Type (0, 0), None
# Relax obj value: 0.091
# Max RMSD: 0.142
# Mean RMSD: 0.138
data_MOF--net-mer--node1-KUFVIS_clean_sbu_0--edge1-none
_symmetry_space_group_name_H-M    P1
_symmetry_Int_Tables_number       1
_symmetry_cell_setting            triclinic
loop_
_symmetry_equiv_pos_as_xyz
'x, y, z'
_cell_length_a     29.072612
_cell_length_b     28.670607
_cell_length_c     22.532088
_cell_angle_alpha  89.999994
_cell_angle_beta   89.999997
_cell_angle_gamma 90.001815
loop_
_atom_site_label
_atom_site_type_symbol
_atom_site_fract_x
_atom_site_fract_y
_atom_site_fract_z
_atom_type_partial_charge
Mn0 Mn 0.1276 0.25384 0.39808 0.0
Mn1 Mn 0.21375 0.31554 0.45135 0.0
C2 C 0.13615 0.25524 0.50206 0.0
C3 C 0.04934 0.25722 0.3657 0.0
C4 C 0.22875 0.22469 0.39043 0.0
O5 O 0.14871 0.29331 0.32907 0.0
O6 O 0.18868 0.34872 0.37812 0.0
C7 C 0.16089 0.40429 0.49307 0.0
N8 N 0.19611 0.36468 0.50615 0.0
C9 C 0.21311 0.38015 0.65161 0.0
C10 C 0.17648 0.42747 0.65627 0.0
C11 C 0.14083 0.44227 0.54466 0.0
C12 C 0.22097 0.34974 0.56344 0.0
H13 H 0.1466 0.40667 0.44898 0.0
C14 C 0.16936 0.33233 0.33038 0.0
O15 O 0.07655 0.2239 0.34817 0.0
O16 O 0.06774 0.28807 0.39969 0.0
N17 N 0.24106 0.28227 0.51746 0.0
C18 C 0.25026 0.23622 0.52359 0.0
C19 C 0.27986 0.22123 0.56814 0.0
C20 C 0.29301 0.25078 0.61398 0.0
C21 C 0.27083 0.29374 0.61879 0.0
C22 C 0.24719 0.30935 0.56438 0.0
H23 H 0.23361 0.21038 0.49708 0.0
O24 O 0.11237 0.22458 0.47387 0.0
O25 O 0.15391 0.28677 0.46689 0.0
O26 O 0.18663 0.21062 0.3908 0.0
O27 O 0.23839 0.26746 0.39737 0.0
C28 C 0.26635 0.31486 0.67964 0.0
C29 C 0.24031 0.35639 0.69688 0.0
H30 H 0.17076 0.44468 0.69895 0.0
H31 H 0.11506 0.46705 0.52893 0.0
H32 H 0.28927 0.18601 0.56955 0.0
H33 H 0.31287 0.23671 0.65053 0.0
H34 H 0.28466 0.29786 0.71552 0.0
H35 H 0.24066 0.36868 0.74226 0.0
Mn36 Mn 0.71328 0.14073 0.35424 0.0
Mn37 Mn 0.80307 0.08416 0.41451 0.0
C38 C 0.79306 0.16869 0.33907 0.0
C39 C 0.68337 0.15722 0.25383 0.0
C40 C 0.71243 0.10013 0.48207 0.0
O41 O 0.70854 0.07302 0.3249 0.0
O42 O 0.7681 0.0393 0.36711 0.0
C43 C 0.85205 0.07139 0.30033 0.0
N44 N 0.85185 0.08543 0.35807 0.0
C45 C 0.93115 0.108 0.35324 0.0
C46 C 0.93253 0.09391 0.29364 0.0
C47 C 0.89265 0.07573 0.26695 0.0
C48 C 0.8893 0.10441 0.38343 0.0
H49 H 0.82138 0.05735 0.27999 0.0
C50 C 0.73152 0.03709 0.33731 0.0
O51 O 0.65656 0.15065 0.29898 0.0
O52 O 0.72624 0.15805 0.26743 0.0
N53 N 0.8426 0.11696 0.46605 0.0
C54 C 0.83655 0.12182 0.52572 0.0
C55 C 0.87463 0.12888 0.56218 0.0
C56 C 0.91819 0.13348 0.53662 0.0
C57 C 0.92343 0.13028 0.47481 0.0
C58 C 0.88486 0.11884 0.44149 0.0
H59 H 0.80334 0.11765 0.54613 0.0
O60 O 0.76265 0.16946 0.29736 0.0
O61 O 0.77865 0.14363 0.38313 0.0
O62 O 0.68837 0.11707 0.43854 0.0
O63 O 0.75352 0.08495 0.47417 0.0
C64 C 0.96531 0.13655 0.44491 0.0
C65 C 0.96943 0.1256 0.38412 0.0
H66 H 0.96397 0.09671 0.2681 0.0
H67 H 0.89329 0.06487 0.22094 0.0
H68 H 0.87049 0.13118 0.60983 0.0
H69 H 0.94647 0.14024 0.56579 0.0
H70 H 0.99357 0.15181 0.46779 0.0
H71 H 1.00214 0.13039 0.36191 0.0
Mn72 Mn 0.88269 0.75392 0.39808 0.0
Mn73 Mn 0.79655 0.69222 0.45135 0.0
C74 C 0.87415 0.75251 0.50206 0.0
C75 C 0.96095 0.75053 0.3657 0.0
C76 C 0.78155 0.78307 0.39043 0.0
O77 O 0.86159 0.71445 0.32907 0.0
O78 O 0.82162 0.65904 0.37812 0.0
C79 C 0.84941 0.60347 0.49307 0.0
N80 N 0.81419 0.64308 0.50615 0.0
C81 C 0.79719 0.62761 0.65161 0.0
C82 C 0.83382 0.58029 0.65627 0.0
C83 C 0.86947 0.56548 0.54466 0.0
C84 C 0.78932 0.65802 0.56344 0.0
H85 H 0.8637 0.60108 0.44898 0.0
C86 C 0.84094 0.67542 0.33038 0.0
O87 O 0.93375 0.78386 0.34817 0.0
O88 O 0.94256 0.71969 0.39969 0.0
N89 N 0.76924 0.72549 0.51746 0.0
C90 C 0.76004 0.77153 0.52359 0.0
C91 C 0.73044 0.78652 0.56814 0.0
C92 C 0.71729 0.75697 0.61398 0.0
C93 C 0.73946 0.71402 0.61879 0.0
C94 C 0.7631 0.69841 0.56438 0.0
H95 H 0.77669 0.79738 0.49708 0.0
O96 O 0.89793 0.78318 0.47387 0.0
O97 O 0.85639 0.72099 0.46689 0.0
O98 O 0.82367 0.79713 0.3908 0.0
O99 O 0.77191 0.74029 0.39737 0.0
C100 C 0.74395 0.6929 0.67964 0.0
C101 C 0.76999 0.65136 0.69688 0.0
H102 H 0.83954 0.56308 0.69895 0.0
H103 H 0.89524 0.54071 0.52893 0.0
H104 H 0.72102 0.82174 0.56955 0.0
H105 H 0.69743 0.77104 0.65053 0.0
H106 H 0.72564 0.7099 0.71552 0.0
H107 H 0.76964 0.63907 0.74226 0.0
Mn108 Mn 0.29702 0.86703 0.35424 0.0
Mn109 Mn 0.20723 0.9236 0.41451 0.0
C110 C 0.21724 0.83906 0.33907 0.0
C111 C 0.32693 0.85053 0.25383 0.0
C112 C 0.29787 0.90763 0.48207 0.0
O113 O 0.30176 0.93474 0.32489 0.0
O114 O 0.2422 0.96846 0.36711 0.0
C115 C 0.15825 0.93637 0.30033 0.0
N116 N 0.15845 0.92233 0.35807 0.0
C117 C 0.07915 0.89976 0.35323 0.0
C118 C 0.07777 0.91385 0.29363 0.0
C119 C 0.11765 0.93203 0.26694 0.0
C120 C 0.121 0.90335 0.38342 0.0
H121 H 0.18892 0.95041 0.27999 0.0
C122 C 0.27878 0.97067 0.33731 0.0
O123 O 0.35373 0.85711 0.29898 0.0
O124 O 0.28405 0.84971 0.26743 0.0
N125 N 0.1677 0.8908 0.46605 0.0
C126 C 0.17375 0.88593 0.52572 0.0
C127 C 0.13567 0.87887 0.56218 0.0
C128 C 0.09211 0.87428 0.53662 0.0
C129 C 0.08687 0.87748 0.4748 0.0
C130 C 0.12544 0.88892 0.44149 0.0
H131 H 0.20696 0.89011 0.54613 0.0
O132 O 0.24764 0.8383 0.29736 0.0
O133 O 0.23164 0.86413 0.38313 0.0
O134 O 0.32193 0.89069 0.43854 0.0
O135 O 0.25678 0.9228 0.47417 0.0
C136 C 0.04499 0.87121 0.44491 0.0
C137 C 0.04087 0.88216 0.38412 0.0
H138 H 0.04633 0.91105 0.26809 0.0
H139 H 0.11701 0.94288 0.22094 0.0
H140 H 0.13981 0.87658 0.60982 0.0
H141 H 0.06383 0.86752 0.56579 0.0
H142 H 0.01672 0.85595 0.46778 0.0
H143 H 0.00816 0.87737 0.36191 0.0
Mn144 Mn 0.12761 0.75389 0.62739 0.0
Mn145 Mn 0.21376 0.6922 0.57411 0.0
C146 C 0.13616 0.75247 0.52341 0.0
C147 C 0.04935 0.75052 0.65977 0.0
C148 C 0.22876 0.78305 0.63504 0.0
O149 O 0.14872 0.71442 0.6964 0.0
O150 O 0.18869 0.65902 0.64735 0.0
C151 C 0.1609 0.60344 0.53238 0.0
N152 N 0.19612 0.64306 0.51931 0.0
C153 C 0.21312 0.62759 0.37385 0.0
C154 C 0.17649 0.58027 0.36918 0.0
C155 C 0.14084 0.56546 0.4808 0.0
C156 C 0.22098 0.658 0.46202 0.0
H157 H 0.14661 0.60106 0.57647 0.0
C158 C 0.16937 0.6754 0.69509 0.0
O159 O 0.07657 0.78384 0.6773 0.0
O160 O 0.06774 0.71966 0.62579 0.0
N161 N 0.24106 0.72547 0.50801 0.0
C162 C 0.25025 0.77152 0.50187 0.0
C163 C 0.27985 0.78652 0.45733 0.0
C164 C 0.29301 0.75697 0.41149 0.0
C165 C 0.27084 0.71401 0.40668 0.0
C166 C 0.2472 0.6984 0.46109 0.0
H167 H 0.23359 0.79736 0.52838 0.0
O168 O 0.11238 0.78313 0.5516 0.0
O169 O 0.15392 0.72095 0.55858 0.0
O170 O 0.18663 0.79711 0.63466 0.0
O171 O 0.2384 0.74028 0.62809 0.0
C172 C 0.26635 0.69289 0.34583 0.0
C173 C 0.24032 0.65136 0.32858 0.0
H174 H 0.17077 0.56306 0.3265 0.0
H175 H 0.11507 0.54068 0.49653 0.0
H176 H 0.28924 0.82175 0.45592 0.0
H177 H 0.31287 0.77105 0.37494 0.0
H178 H 0.28467 0.7099 0.30994 0.0
H179 H 0.24067 0.63907 0.2832 0.0
Mn180 Mn 0.29703 0.14072 0.67124 0.0
Mn181 Mn 0.20724 0.08418 0.61094 0.0
C182 C 0.21725 0.16869 0.6864 0.0
C183 C 0.32695 0.15724 0.77164 0.0
C184 C 0.29786 0.10015 0.54338 0.0
O185 O 0.30175 0.07302 0.70063 0.0
O186 O 0.24225 0.0393 0.65826 0.0
C187 C 0.15834 0.07134 0.72517 0.0
N188 N 0.1585 0.0854 0.66743 0.0
C189 C 0.07918 0.10788 0.67234 0.0
C190 C 0.07784 0.09378 0.73194 0.0
C191 C 0.11775 0.07564 0.75859 0.0
C192 C 0.12102 0.10436 0.64212 0.0
H193 H 0.18904 0.05733 0.74548 0.0
C194 C 0.27879 0.03709 0.68813 0.0
O195 O 0.35375 0.15065 0.7265 0.0
O196 O 0.28407 0.15807 0.75803 0.0
N197 N 0.16767 0.11699 0.55947 0.0
C198 C 0.17369 0.12186 0.49978 0.0
C199 C 0.13557 0.12885 0.46335 0.0
C200 C 0.09202 0.13336 0.48894 0.0
C201 C 0.08682 0.13017 0.55077 0.0
C202 C 0.12542 0.11881 0.58406 0.0
H203 H 0.2069 0.11772 0.47935 0.0
O204 O 0.24766 0.16947 0.7281 0.0
O205 O 0.23166 0.14363 0.64234 0.0
O206 O 0.32194 0.11704 0.58693 0.0
O207 O 0.25676 0.08502 0.55125 0.0
C208 C 0.04493 0.13632 0.58067 0.0
C209 C 0.04086 0.1254 0.64147 0.0
H210 H 0.0464 0.09652 0.7575 0.0
H211 H 0.11715 0.06477 0.80459 0.0
H212 H 0.13969 0.13113 0.4157 0.0
H213 H 0.06369 0.13998 0.4598 0.0
H214 H 0.01661 0.15142 0.55777 0.0
H215 H 0.00814 0.1301 0.66369 0.0
Mn216 Mn 0.88268 0.25387 0.62739 0.0
Mn217 Mn 0.79654 0.31556 0.57411 0.0
C218 C 0.87414 0.25529 0.52341 0.0
C219 C 0.96095 0.25723 0.65977 0.0
C220 C 0.78154 0.22471 0.63504 0.0
O221 O 0.86158 0.29334 0.6964 0.0
O222 O 0.82161 0.34874 0.64735 0.0
C223 C 0.8494 0.40432 0.53238 0.0
N224 N 0.81418 0.3647 0.51931 0.0
C225 C 0.79718 0.38016 0.37385 0.0
C226 C 0.83381 0.42749 0.36918 0.0
C227 C 0.86945 0.4423 0.4808 0.0
C228 C 0.78931 0.34976 0.46202 0.0
H229 H 0.86368 0.4067 0.57647 0.0
C230 C 0.84093 0.33236 0.69509 0.0
O231 O 0.93373 0.22391 0.6773 0.0
O232 O 0.94256 0.28809 0.62579 0.0
N233 N 0.76923 0.28229 0.50801 0.0
C234 C 0.76005 0.23624 0.50187 0.0
C235 C 0.73045 0.22124 0.45733 0.0
C236 C 0.71729 0.25078 0.41149 0.0
C237 C 0.73946 0.29374 0.40668 0.0
C238 C 0.7631 0.30936 0.46109 0.0
H239 H 0.77671 0.2104 0.52838 0.0
O240 O 0.89792 0.22463 0.5516 0.0
O241 O 0.85638 0.28681 0.55858 0.0
O242 O 0.82366 0.21065 0.63466 0.0
O243 O 0.77189 0.26748 0.62809 0.0
C244 C 0.74394 0.31486 0.34583 0.0
C245 C 0.76998 0.3564 0.32858 0.0
H246 H 0.83952 0.44469 0.3265 0.0
H247 H 0.89522 0.46707 0.49653 0.0
H248 H 0.72106 0.18601 0.45592 0.0
H249 H 0.69743 0.2367 0.37494 0.0
H250 H 0.72563 0.29786 0.30994 0.0
H251 H 0.76963 0.36869 0.2832 0.0
Mn252 Mn 0.71326 0.86703 0.67124 0.0
Mn253 Mn 0.80306 0.92358 0.61094 0.0
C254 C 0.79304 0.83906 0.6864 0.0
C255 C 0.68335 0.85051 0.77164 0.0
C256 C 0.71243 0.90761 0.54338 0.0
O257 O 0.70855 0.93473 0.70063 0.0
O258 O 0.76805 0.96845 0.65826 0.0
C259 C 0.85196 0.93641 0.72516 0.0
N260 N 0.8518 0.92235 0.66743 0.0
C261 C 0.93112 0.89988 0.67234 0.0
C262 C 0.93246 0.91398 0.73193 0.0
C263 C 0.89255 0.93211 0.75859 0.0
C264 C 0.88927 0.9034 0.64212 0.0
H265 H 0.82127 0.95043 0.74548 0.0
C266 C 0.73151 0.97067 0.68813 0.0
O267 O 0.65655 0.85711 0.7265 0.0
O268 O 0.72623 0.84968 0.75803 0.0
N269 N 0.84262 0.89077 0.55947 0.0
C270 C 0.83661 0.8859 0.49978 0.0
C271 C 0.87472 0.87891 0.46335 0.0
C272 C 0.91828 0.8744 0.48894 0.0
C273 C 0.92348 0.87759 0.55076 0.0
C274 C 0.88488 0.88895 0.58405 0.0
H275 H 0.8034 0.89003 0.47935 0.0
O276 O 0.76264 0.83829 0.7281 0.0
O277 O 0.77864 0.86412 0.64234 0.0
O278 O 0.68836 0.89071 0.58693 0.0
O279 O 0.75354 0.92274 0.55125 0.0
C280 C 0.96536 0.87143 0.58067 0.0
C281 C 0.96944 0.88236 0.64147 0.0
H282 H 0.9639 0.91123 0.7575 0.0
H283 H 0.89316 0.94299 0.80458 0.0
H284 H 0.87061 0.87663 0.4157 0.0
H285 H 0.94661 0.86777 0.4598 0.0
H286 H 0.99368 0.85633 0.55777 0.0
H287 H 1.00216 0.87765 0.66369 0.0
Mn288 Mn 0.91713 0.75157 0.66454 0.0
Mn289 Mn 0.817 0.68771 0.6276 0.0
C290 C 0.8873 0.74903 0.56631 0.0
C291 C 0.99878 0.74899 0.67008 0.0
C292 C 0.82223 0.7956 0.67724 0.0
O293 O 0.90758 0.71536 0.74272 0.0
O294 O 0.84935 0.67469 0.70761 0.0
C295 C 0.90197 0.61027 0.61894 0.0
N296 N 0.85371 0.627 0.59006 0.0
C297 C 0.81345 0.52025 0.59082 0.0
C298 C 0.86692 0.50949 0.62174 0.0
C299 C 0.90857 0.5517 0.63502 0.0
C300 C 0.79833 0.57691 0.57145 0.0
H301 H 0.92688 0.63547 0.63432 0.0
C302 C 0.8785 0.68232 0.74735 0.0
O303 O 0.97567 0.78229 0.69521 0.0
O304 O 0.9746 0.71602 0.64629 0.0
N305 N 0.73031 0.62699 0.60795 0.0
C306 C 0.68373 0.63224 0.61797 0.0
C307 C 0.6535 0.59528 0.60827 0.0
C308 C 0.66982 0.55182 0.59083 0.0
C309 C 0.71684 0.54445 0.58176 0.0
C310 C 0.74641 0.58356 0.58194 0.0
H311 H 0.66889 0.66408 0.63485 0.0
O312 O 0.91918 0.77741 0.58324 0.0
O313 O 0.87388 0.72074 0.60823 0.0
O314 O 0.86581 0.79888 0.68509 0.0
O315 O 0.8022 0.75673 0.66144 0.0
C316 C 0.73342 0.49819 0.58145 0.0
C317 C 0.77952 0.48646 0.59012 0.0
H318 H 0.87444 0.47436 0.63611 0.0
H319 H 0.9401 0.54085 0.65642 0.0
H320 H 0.61735 0.59939 0.61815 0.0
H321 H 0.64573 0.52299 0.58881 0.0
H322 H 0.70895 0.46963 0.58218 0.0
H323 H 0.78809 0.45075 0.60059 0.0
Mn324 Mn 0.31061 0.91441 0.65263 0.0
Mn325 Mn 0.36873 0.82446 0.58859 0.0
C326 C 0.31205 0.91126 0.54737 0.0
C327 C 0.2995 0.99004 0.69293 0.0
C328 C 0.2693 0.81578 0.62936 0.0
O329 O 0.34858 0.88888 0.72195 0.0
O330 O 0.37243 0.82528 0.6753 0.0
C331 C 0.38884 0.73138 0.64081 0.0
N332 N 0.38688 0.75999 0.59231 0.0
C333 C 0.41009 0.69714 0.52844 0.0
C334 C 0.41343 0.66758 0.57774 0.0
C335 C 0.40213 0.68465 0.63412 0.0
C336 C 0.39428 0.74285 0.53739 0.0
H337 H 0.37991 0.74363 0.68453 0.0
C338 C 0.36916 0.8496 0.72164 0.0
O339 O 0.27322 0.95526 0.7063 0.0
O340 O 0.33563 0.97978 0.6614 0.0
N341 N 0.37846 0.81832 0.50501 0.0
C342 C 0.39771 0.85324 0.4723 0.0
C343 C 0.41409 0.84429 0.41482 0.0
C344 C 0.41743 0.79819 0.39494 0.0
C345 C 0.40859 0.76204 0.43502 0.0
C346 C 0.39043 0.77384 0.49099 0.0
H347 H 0.39963 0.88826 0.48993 0.0
O348 O 0.28269 0.93469 0.57841 0.0
O349 O 0.34444 0.89033 0.58 0.0
O350 O 0.26826 0.85556 0.6551 0.0
O351 O 0.30348 0.80244 0.59632 0.0
C352 C 0.42345 0.71606 0.42454 0.0
C353 C 0.42408 0.6836 0.47131 0.0
H354 H 0.42499 0.63186 0.57288 0.0
H355 H 0.40407 0.662 0.67248 0.0
H356 H 0.42599 0.87266 0.38711 0.0
H357 H 0.43172 0.79107 0.35146 0.0
H358 H 0.4373 0.70613 0.38172 0.0
H359 H 0.43803 0.64913 0.46378 0.0
Mn360 Mn 0.09317 0.25618 0.66454 0.0
Mn361 Mn 0.1933 0.32005 0.6276 0.0
C362 C 0.123 0.25873 0.56631 0.0
C363 C 0.01152 0.25877 0.67008 0.0
C364 C 0.18806 0.21216 0.67724 0.0
O365 O 0.10272 0.29239 0.74272 0.0
O366 O 0.16095 0.33307 0.70761 0.0
C367 C 0.10833 0.39749 0.61894 0.0
N368 N 0.15659 0.38076 0.59006 0.0
C369 C 0.19685 0.4875 0.59082 0.0
C370 C 0.14338 0.49827 0.62174 0.0
C371 C 0.10172 0.45606 0.63502 0.0
C372 C 0.21197 0.43085 0.57145 0.0
H373 H 0.08342 0.37229 0.63432 0.0
C374 C 0.1318 0.32544 0.74735 0.0
O375 O 0.03462 0.22547 0.69521 0.0
O376 O 0.0357 0.29174 0.64629 0.0
N377 N 0.27999 0.38077 0.60795 0.0
C378 C 0.32657 0.37551 0.61797 0.0
C379 C 0.3568 0.41248 0.60827 0.0
C380 C 0.34048 0.45593 0.59083 0.0
C381 C 0.29346 0.4633 0.58176 0.0
C382 C 0.26389 0.4242 0.58194 0.0
H383 H 0.3414 0.34367 0.63485 0.0
O384 O 0.09112 0.23034 0.58324 0.0
O385 O 0.13642 0.28702 0.60823 0.0
O386 O 0.14449 0.20887 0.68509 0.0
O387 O 0.2081 0.25103 0.66144 0.0
C388 C 0.27688 0.50957 0.58145 0.0
C389 C 0.23078 0.52129 0.59012 0.0
H390 H 0.13586 0.5334 0.63611 0.0
H391 H 0.0702 0.46691 0.65642 0.0
H392 H 0.39295 0.40836 0.61815 0.0
H393 H 0.36457 0.48477 0.58881 0.0
H394 H 0.30135 0.53813 0.58218 0.0
H395 H 0.22221 0.55701 0.60058 0.0
Mn396 Mn 0.69969 0.09335 0.65263 0.0
Mn397 Mn 0.64157 0.1833 0.58859 0.0
C398 C 0.69824 0.09649 0.54737 0.0
C399 C 0.7108 0.01772 0.69293 0.0
C400 C 0.741 0.19198 0.62936 0.0
O401 O 0.66172 0.11888 0.72195 0.0
O402 O 0.63787 0.18248 0.6753 0.0
C403 C 0.62145 0.27638 0.64081 0.0
N404 N 0.62342 0.24776 0.59231 0.0
C405 C 0.60021 0.31062 0.52844 0.0
C406 C 0.59687 0.34018 0.57774 0.0
C407 C 0.60817 0.32311 0.63412 0.0
C408 C 0.61602 0.26491 0.53739 0.0
H409 H 0.63039 0.26413 0.68453 0.0
C410 C 0.64114 0.15816 0.72164 0.0
O411 O 0.73708 0.0525 0.7063 0.0
O412 O 0.67467 0.02798 0.6614 0.0
N413 N 0.63184 0.18943 0.50501 0.0
C414 C 0.61259 0.15452 0.4723 0.0
C415 C 0.5962 0.16346 0.41482 0.0
C416 C 0.59287 0.20957 0.39494 0.0
C417 C 0.60171 0.24572 0.43502 0.0
C418 C 0.61987 0.23392 0.49099 0.0
H419 H 0.61067 0.1195 0.48993 0.0
O420 O 0.72761 0.07306 0.57841 0.0
O421 O 0.66586 0.11743 0.58 0.0
O422 O 0.74204 0.1522 0.6551 0.0
O423 O 0.70682 0.20531 0.59632 0.0
C424 C 0.58685 0.2917 0.42454 0.0
C425 C 0.58622 0.32415 0.47131 0.0
H426 H 0.58531 0.3759 0.57288 0.0
H427 H 0.60623 0.34576 0.67248 0.0
H428 H 0.58431 0.13509 0.38711 0.0
H429 H 0.57857 0.21669 0.35146 0.0
H430 H 0.573 0.30163 0.38172 0.0
H431 H 0.57226 0.35863 0.46378 0.0
Mn432 Mn 0.91712 0.25621 0.36093 0.0
Mn433 Mn 0.81699 0.32007 0.39786 0.0
C434 C 0.88729 0.25877 0.45916 0.0
C435 C 0.99877 0.25879 0.35538 0.0
C436 C 0.82223 0.21217 0.34824 0.0
O437 O 0.90757 0.29241 0.28275 0.0
O438 O 0.84934 0.33309 0.31785 0.0
C439 C 0.90196 0.39751 0.40652 0.0
N440 N 0.85369 0.38078 0.4354 0.0
C441 C 0.81343 0.48752 0.43464 0.0
C442 C 0.8669 0.49829 0.40371 0.0
C443 C 0.90856 0.45608 0.39043 0.0
C444 C 0.79832 0.43086 0.45401 0.0
H445 H 0.92687 0.37231 0.39114 0.0
C446 C 0.87849 0.32545 0.2781 0.0
O447 O 0.97566 0.22549 0.33025 0.0
O448 O 0.9746 0.29177 0.37916 0.0
N449 N 0.7303 0.38078 0.41751 0.0
C450 C 0.68372 0.37552 0.40749 0.0
C451 C 0.65349 0.41247 0.41718 0.0
C452 C 0.66981 0.45594 0.43462 0.0
C453 C 0.71683 0.46331 0.4437 0.0
C454 C 0.7464 0.42421 0.44351 0.0
H455 H 0.66888 0.34367 0.39061 0.0
O456 O 0.91918 0.23039 0.44223 0.0
O457 O 0.87387 0.28705 0.41723 0.0
O458 O 0.86581 0.20889 0.34039 0.0
O459 O 0.8022 0.25104 0.36403 0.0
C460 C 0.7334 0.50958 0.44401 0.0
C461 C 0.7795 0.52131 0.43534 0.0
H462 H 0.87442 0.53342 0.38935 0.0
H463 H 0.94008 0.46694 0.36903 0.0
H464 H 0.61734 0.40836 0.40731 0.0
H465 H 0.64572 0.48477 0.43664 0.0
H466 H 0.70893 0.53813 0.44328 0.0
H467 H 0.78808 0.55703 0.42488 0.0
Mn468 Mn 0.69969 0.91441 0.37282 0.0
Mn469 Mn 0.64157 0.82445 0.43687 0.0
C470 C 0.69824 0.91126 0.47808 0.0
C471 C 0.71081 0.99003 0.33253 0.0
C472 C 0.74101 0.81579 0.39609 0.0
O473 O 0.66171 0.88887 0.3035 0.0
O474 O 0.63787 0.82527 0.35016 0.0
C475 C 0.62146 0.73137 0.38465 0.0
N476 N 0.62342 0.75998 0.43315 0.0
C477 C 0.60021 0.69713 0.49702 0.0
C478 C 0.59688 0.66757 0.44772 0.0
C479 C 0.60818 0.68464 0.39133 0.0
C480 C 0.61602 0.74284 0.48807 0.0
H481 H 0.6304 0.74362 0.34092 0.0
C482 C 0.64114 0.84959 0.30381 0.0
O483 O 0.73708 0.95525 0.31916 0.0
O484 O 0.67468 0.97978 0.36405 0.0
N485 N 0.63185 0.81831 0.52045 0.0
C486 C 0.6126 0.85323 0.55316 0.0
C487 C 0.59621 0.84428 0.61064 0.0
C488 C 0.59288 0.79818 0.63052 0.0
C489 C 0.60172 0.76203 0.59044 0.0
C490 C 0.61987 0.77383 0.53447 0.0
H491 H 0.61067 0.88825 0.53553 0.0
O492 O 0.72761 0.93469 0.44704 0.0
O493 O 0.66585 0.89032 0.44545 0.0
O494 O 0.74204 0.85556 0.37035 0.0
O495 O 0.70682 0.80244 0.42913 0.0
C496 C 0.58686 0.71605 0.60092 0.0
C497 C 0.58622 0.68359 0.55414 0.0
H498 H 0.58531 0.63185 0.45258 0.0
H499 H 0.60623 0.66198 0.35298 0.0
H500 H 0.58432 0.87265 0.63835 0.0
H501 H 0.57858 0.79106 0.674 0.0
H502 H 0.57301 0.70612 0.64374 0.0
H503 H 0.57227 0.64911 0.56168 0.0
Mn504 Mn 0.09318 0.75154 0.36093 0.0
Mn505 Mn 0.19331 0.68769 0.39786 0.0
C506 C 0.123 0.74898 0.45916 0.0
C507 C 0.01153 0.74897 0.35538 0.0
C508 C 0.18806 0.79559 0.34824 0.0
O509 O 0.10273 0.71535 0.28275 0.0
O510 O 0.16096 0.67467 0.31785 0.0
C511 C 0.10834 0.61025 0.40652 0.0
N512 N 0.1566 0.62697 0.4354 0.0
C513 C 0.19687 0.52024 0.43464 0.0
C514 C 0.1434 0.50947 0.40371 0.0
C515 C 0.10174 0.55167 0.39043 0.0
C516 C 0.21198 0.5769 0.45401 0.0
H517 H 0.08343 0.63544 0.39114 0.0
C518 C 0.13181 0.6823 0.2781 0.0
O519 O 0.03464 0.78227 0.33025 0.0
O520 O 0.0357 0.71599 0.37916 0.0
N521 N 0.28 0.62698 0.41751 0.0
C522 C 0.32658 0.63224 0.40749 0.0
C523 C 0.35681 0.59528 0.41718 0.0
C524 C 0.34049 0.55182 0.43462 0.0
C525 C 0.29347 0.54445 0.4437 0.0
C526 C 0.2639 0.58355 0.44351 0.0
H527 H 0.34141 0.66408 0.39061 0.0
O528 O 0.09112 0.77737 0.44223 0.0
O529 O 0.13642 0.72071 0.41723 0.0
O530 O 0.14449 0.79887 0.34039 0.0
O531 O 0.2081 0.75672 0.36403 0.0
C532 C 0.27689 0.49818 0.44401 0.0
C533 C 0.2308 0.48645 0.43534 0.0
H534 H 0.13588 0.47433 0.38935 0.0
H535 H 0.07022 0.54082 0.36903 0.0
H536 H 0.39296 0.5994 0.40731 0.0
H537 H 0.36458 0.52299 0.43664 0.0
H538 H 0.30136 0.46962 0.44328 0.0
H539 H 0.22222 0.45073 0.42488 0.0
Mn540 Mn 0.31061 0.09335 0.37282 0.0
Mn541 Mn 0.36873 0.1833 0.43687 0.0
C542 C 0.31206 0.0965 0.47808 0.0
C543 C 0.29949 0.01772 0.33253 0.0
C544 C 0.26929 0.19197 0.39609 0.0
O545 O 0.34859 0.11888 0.3035 0.0
O546 O 0.37243 0.18248 0.35015 0.0
C547 C 0.38884 0.27639 0.38465 0.0
N548 N 0.38687 0.24777 0.43315 0.0
C549 C 0.41009 0.31063 0.49702 0.0
C550 C 0.41342 0.34019 0.44772 0.0
C551 C 0.40212 0.32312 0.39133 0.0
C552 C 0.39428 0.26492 0.48807 0.0
H553 H 0.3799 0.26414 0.34092 0.0
C554 C 0.36916 0.15817 0.30381 0.0
O555 O 0.27322 0.0525 0.31916 0.0
O556 O 0.33562 0.02798 0.36405 0.0
N557 N 0.37845 0.18944 0.52045 0.0
C558 C 0.3977 0.15453 0.55316 0.0
C559 C 0.41408 0.16347 0.61064 0.0
C560 C 0.41742 0.20958 0.63052 0.0
C561 C 0.40858 0.24573 0.59044 0.0
C562 C 0.39043 0.23393 0.53447 0.0
H563 H 0.39963 0.11951 0.53553 0.0
O564 O 0.28269 0.07307 0.44704 0.0
O565 O 0.34445 0.11744 0.44545 0.0
O566 O 0.26826 0.1522 0.37035 0.0
O567 O 0.30348 0.20531 0.42913 0.0
C568 C 0.42344 0.29171 0.60092 0.0
C569 C 0.42407 0.32417 0.55414 0.0
H570 H 0.42499 0.37591 0.45258 0.0
H571 H 0.40407 0.34578 0.35298 0.0
H572 H 0.42598 0.13511 0.63835 0.0
H573 H 0.43172 0.2167 0.674 0.0
H574 H 0.43729 0.30164 0.64374 0.0
H575 H 0.43803 0.35864 0.56168 0.0
Mn576 Mn 0.62761 0.75384 0.89806 0.0
Mn577 Mn 0.71375 0.81554 0.95135 0.0
C578 C 0.63615 0.75525 1.00205 0.0
C579 C 0.54935 0.75723 0.86569 0.0
C580 C 0.72875 0.72469 0.89042 0.0
O581 O 0.64871 0.79332 0.82905 0.0
O582 O 0.68869 0.84873 0.87812 0.0
C583 C 0.6609 0.9043 0.99307 0.0
N584 N 0.69612 0.86468 1.00615 0.0
C585 C 0.71312 0.88015 0.15161 0.0
C586 C 0.67649 0.92747 0.15627 0.0
C587 C 0.64084 0.94228 0.04466 0.0
C588 C 0.72098 0.84974 0.06344 0.0
H589 H 0.64661 0.90668 0.94898 0.0
C590 C 0.66933 0.83236 0.8304 0.0
O591 O 0.57656 0.72391 0.84815 0.0
O592 O 0.56774 0.78808 0.89968 0.0
N593 N 0.74106 0.78227 0.01745 0.0
C594 C 0.75026 0.73622 0.02358 0.0
C595 C 0.77985 0.72123 0.06813 0.0
C596 C 0.79301 0.75077 0.11398 0.0
C597 C 0.77083 0.79373 0.11878 0.0
C598 C 0.7472 0.80934 0.06437 0.0
H599 H 0.7336 0.71038 0.99707 0.0
O600 O 0.61238 0.72459 0.97386 0.0
O601 O 0.65392 0.78677 0.96688 0.0
O602 O 0.68663 0.71063 0.89078 0.0
O603 O 0.7384 0.76747 0.89737 0.0
C604 C 0.76635 0.81485 0.17963 0.0
C605 C 0.74032 0.85638 0.19688 0.0
H606 H 0.67077 0.94468 0.19895 0.0
H607 H 0.61507 0.96705 0.02893 0.0
H608 H 0.78926 0.686 0.06954 0.0
H609 H 0.81287 0.7367 0.15052 0.0
H610 H 0.78466 0.79785 0.21552 0.0
H611 H 0.74066 0.86867 0.24226 0.0
Mn612 Mn 0.21329 0.64072 0.85424 0.0
Mn613 Mn 0.30307 0.58415 0.91452 0.0
C614 C 0.29307 0.66869 0.83909 0.0
C615 C 0.18339 0.65727 0.75386 0.0
C616 C 0.21243 0.60012 0.98207 0.0
O617 O 0.20855 0.57302 0.82489 0.0
O618 O 0.2681 0.53929 0.86712 0.0
C619 C 0.35206 0.57137 0.80035 0.0
N620 N 0.35185 0.58542 0.85808 0.0
C621 C 0.43116 0.60799 0.85324 0.0
C622 C 0.43253 0.5939 0.79364 0.0
C623 C 0.39265 0.57572 0.76696 0.0
C624 C 0.3893 0.6044 0.88343 0.0
H625 H 0.32138 0.55733 0.78 0.0
C626 C 0.23152 0.53708 0.83731 0.0
O627 O 0.15657 0.65066 0.79899 0.0
O628 O 0.22626 0.65805 0.76744 0.0
N629 N 0.3426 0.61695 0.96606 0.0
C630 C 0.33656 0.62182 0.02573 0.0
C631 C 0.37464 0.62889 0.06219 0.0
C632 C 0.41819 0.63349 0.03663 0.0
C633 C 0.42343 0.63028 0.97481 0.0
C634 C 0.38487 0.61883 0.9415 0.0
H635 H 0.30334 0.61764 0.04614 0.0
O636 O 0.26267 0.66945 0.79738 0.0
O637 O 0.27866 0.64362 0.88314 0.0
O638 O 0.18837 0.61706 0.93854 0.0
O639 O 0.25352 0.58495 0.97418 0.0
C640 C 0.46531 0.63656 0.94491 0.0
C641 C 0.46943 0.6256 0.88412 0.0
H642 H 0.46398 0.5967 0.7681 0.0
H643 H 0.39329 0.56486 0.72096 0.0
H644 H 0.3705 0.63119 0.10983 0.0
H645 H 0.44647 0.64026 0.06579 0.0
H646 H 0.49357 0.65183 0.96778 0.0
H647 H 0.50214 0.63039 0.86191 0.0
Mn648 Mn 0.38269 0.25391 0.89806 0.0
Mn649 Mn 0.29655 0.19222 0.95135 0.0
C650 C 0.37414 0.25251 1.00205 0.0
C651 C 0.46095 0.25052 0.86569 0.0
C652 C 0.28155 0.28306 0.89042 0.0
O653 O 0.36158 0.21444 0.82905 0.0
O654 O 0.32161 0.15903 0.87812 0.0
C655 C 0.3494 0.10346 0.99307 0.0
N656 N 0.31418 0.14308 1.00615 0.0
C657 C 0.29718 0.12761 0.15161 0.0
C658 C 0.33381 0.08029 0.15627 0.0
C659 C 0.36945 0.06548 0.04466 0.0
C660 C 0.28932 0.15802 0.06344 0.0
H661 H 0.36368 0.10108 0.94898 0.0
C662 C 0.34097 0.1754 0.8304 0.0
O663 O 0.43374 0.28385 0.84815 0.0
O664 O 0.44255 0.21968 0.89968 0.0
N665 N 0.26924 0.22549 0.01745 0.0
C666 C 0.26004 0.27154 0.02358 0.0
C667 C 0.23044 0.28653 0.06813 0.0
C668 C 0.21729 0.25698 0.11398 0.0
C669 C 0.23946 0.21403 0.11878 0.0
C670 C 0.2631 0.19842 0.06437 0.0
H671 H 0.2767 0.29738 0.99707 0.0
O672 O 0.39792 0.28317 0.97386 0.0
O673 O 0.35638 0.22098 0.96688 0.0
O674 O 0.32367 0.29713 0.89078 0.0
O675 O 0.2719 0.24029 0.89737 0.0
C676 C 0.24395 0.19291 0.17963 0.0
C677 C 0.26998 0.15137 0.19688 0.0
H678 H 0.33953 0.06308 0.19895 0.0
H679 H 0.39522 0.04071 0.02893 0.0
H680 H 0.22104 0.32175 0.06954 0.0
H681 H 0.19743 0.27106 0.15052 0.0
H682 H 0.22564 0.20991 0.21552 0.0
H683 H 0.26964 0.13908 0.24226 0.0
Mn684 Mn 0.79701 0.36704 0.85424 0.0
Mn685 Mn 0.70723 0.42361 0.91452 0.0
C686 C 0.71723 0.33907 0.83909 0.0
C687 C 0.82691 0.35049 0.75386 0.0
C688 C 0.79787 0.40763 0.98207 0.0
O689 O 0.80175 0.43474 0.82489 0.0
O690 O 0.7422 0.46846 0.86712 0.0
C691 C 0.65824 0.43639 0.80035 0.0
N692 N 0.65845 0.42234 0.85808 0.0
C693 C 0.57914 0.39976 0.85324 0.0
C694 C 0.57777 0.41385 0.79364 0.0
C695 C 0.61764 0.43204 0.76696 0.0
C696 C 0.621 0.40336 0.88343 0.0
H697 H 0.68892 0.45042 0.78 0.0
C698 C 0.77877 0.47067 0.83731 0.0
O699 O 0.85373 0.3571 0.79899 0.0
O700 O 0.78403 0.3497 0.76744 0.0
N701 N 0.66769 0.39081 0.96606 0.0
C702 C 0.67374 0.38594 0.02573 0.0
C703 C 0.63566 0.37887 0.06219 0.0
C704 C 0.59211 0.37427 0.03663 0.0
C705 C 0.58686 0.37747 0.97481 0.0
C706 C 0.62543 0.38893 0.9415 0.0
H707 H 0.70695 0.39012 0.04614 0.0
O708 O 0.74762 0.33831 0.79738 0.0
O709 O 0.73163 0.36414 0.88314 0.0
O710 O 0.82192 0.3907 0.93854 0.0
O711 O 0.75678 0.42281 0.97418 0.0
C712 C 0.54499 0.3712 0.94491 0.0
C713 C 0.54087 0.38215 0.88412 0.0
H714 H 0.54632 0.41105 0.7681 0.0
H715 H 0.617 0.4429 0.72096 0.0
H716 H 0.6398 0.37657 0.10983 0.0
H717 H 0.56383 0.3675 0.06579 0.0
H718 H 0.51672 0.35593 0.96778 0.0
H719 H 0.50816 0.37736 0.86191 0.0
Mn720 Mn 0.62762 0.25388 0.12741 0.0
Mn721 Mn 0.71376 0.1922 0.07412 0.0
C722 C 0.63616 0.25246 0.02342 0.0
C723 C 0.54936 0.25051 0.15978 0.0
C724 C 0.72876 0.28304 0.13505 0.0
O725 O 0.64873 0.21441 0.19642 0.0
O726 O 0.6887 0.15901 0.14735 0.0
C727 C 0.66091 0.10344 0.03239 0.0
N728 N 0.69613 0.14306 0.01931 0.0
C729 C 0.71313 0.1276 0.87385 0.0
C730 C 0.6765 0.08027 0.86918 0.0
C731 C 0.64086 0.06545 0.9808 0.0
C732 C 0.72099 0.158 0.96202 0.0
H733 H 0.64663 0.10105 0.07647 0.0
C734 C 0.66935 0.17537 0.19507 0.0
O735 O 0.57658 0.28383 0.17731 0.0
O736 O 0.56774 0.21966 0.1258 0.0
N737 N 0.74107 0.22547 1.00802 0.0
C738 C 0.75025 0.27152 1.00188 0.0
C739 C 0.77984 0.28653 0.95734 0.0
C740 C 0.793 0.25698 0.91149 0.0
C741 C 0.77084 0.21402 0.90668 0.0
C742 C 0.7472 0.1984 0.96109 0.0
H743 H 0.73358 0.29736 0.02839 0.0
O744 O 0.61238 0.28312 0.05161 0.0
O745 O 0.65392 0.22094 0.05859 0.0
O746 O 0.68664 0.2971 0.13468 0.0
O747 O 0.73841 0.24027 0.1281 0.0
C748 C 0.76635 0.1929 0.84583 0.0
C749 C 0.74033 0.15137 0.82858 0.0
H750 H 0.67079 0.06307 0.8265 0.0
H751 H 0.61509 0.04068 0.99652 0.0
H752 H 0.78923 0.32176 0.95593 0.0
H753 H 0.81286 0.27107 0.87495 0.0
H754 H 0.78466 0.20991 0.80995 0.0
H755 H 0.74067 0.13908 0.7832 0.0
Mn756 Mn 0.79702 0.64072 0.17124 0.0
Mn757 Mn 0.70724 0.58417 0.11093 0.0
C758 C 0.71724 0.66869 0.18639 0.0
C759 C 0.82693 0.65729 0.27161 0.0
C760 C 0.79786 0.60015 0.04338 0.0
O761 O 0.80173 0.57302 0.20064 0.0
O762 O 0.74225 0.5393 0.15825 0.0
C763 C 0.65833 0.57133 0.22515 0.0
N764 N 0.65849 0.58539 0.16742 0.0
C765 C 0.57917 0.60788 0.17233 0.0
C766 C 0.57784 0.59377 0.23192 0.0
C767 C 0.61775 0.57563 0.25858 0.0
C768 C 0.62102 0.60435 0.14211 0.0
H769 H 0.68903 0.55731 0.24546 0.0
C770 C 0.77879 0.53709 0.18813 0.0
O771 O 0.85374 0.65066 0.22649 0.0
O772 O 0.78405 0.65808 0.25802 0.0
N773 N 0.66767 0.61698 0.05945 0.0
C774 C 0.67368 0.62185 0.99977 0.0
C775 C 0.63557 0.62885 0.96334 0.0
C776 C 0.59202 0.63337 0.98894 0.0
C777 C 0.58682 0.63018 0.05076 0.0
C778 C 0.62541 0.61881 0.08404 0.0
H779 H 0.70689 0.61771 0.97934 0.0
O780 O 0.74764 0.66946 0.22809 0.0
O781 O 0.73165 0.64362 0.14233 0.0
O782 O 0.82193 0.61704 0.08693 0.0
O783 O 0.75675 0.58501 0.05124 0.0
C784 C 0.54493 0.63634 0.08067 0.0
C785 C 0.54086 0.62541 0.14147 0.0
H786 H 0.5464 0.59652 0.25749 0.0
H787 H 0.61714 0.56475 0.30457 0.0
H788 H 0.63968 0.63114 0.91569 0.0
H789 H 0.56369 0.64001 0.95979 0.0
H790 H 0.51662 0.65145 0.05777 0.0
H791 H 0.50814 0.63012 0.16368 0.0
Mn792 Mn 0.38268 0.75388 0.12741 0.0
Mn793 Mn 0.29654 0.81556 0.07412 0.0
C794 C 0.37414 0.7553 0.02342 0.0
C795 C 0.46094 0.75724 0.15978 0.0
C796 C 0.28154 0.72471 0.13505 0.0
O797 O 0.36157 0.79335 0.19642 0.0
O798 O 0.3216 0.84875 0.14735 0.0
C799 C 0.34938 0.90432 0.03239 0.0
N800 N 0.31417 0.8647 0.01931 0.0
C801 C 0.29717 0.88016 0.87385 0.0
C802 C 0.3338 0.92748 0.86918 0.0
C803 C 0.36944 0.9423 0.9808 0.0
C804 C 0.28931 0.84975 0.96202 0.0
H805 H 0.36367 0.90671 0.07647 0.0
C806 C 0.34095 0.83238 0.19507 0.0
O807 O 0.43372 0.72392 0.17731 0.0
O808 O 0.44255 0.7881 0.1258 0.0
N809 N 0.26923 0.78228 1.00802 0.0
C810 C 0.26005 0.73623 1.00188 0.0
C811 C 0.23046 0.72123 0.95734 0.0
C812 C 0.21729 0.75077 0.91149 0.0
C813 C 0.23946 0.79374 0.90668 0.0
C814 C 0.26309 0.80935 0.96109 0.0
H815 H 0.27672 0.71039 0.02839 0.0
O816 O 0.39792 0.72464 0.05161 0.0
O817 O 0.35638 0.78681 0.05859 0.0
O818 O 0.32366 0.71066 0.13468 0.0
O819 O 0.27189 0.76749 0.1281 0.0
C820 C 0.24394 0.81485 0.84583 0.0
C821 C 0.26997 0.85639 0.82858 0.0
H822 H 0.33951 0.94469 0.8265 0.0
H823 H 0.39521 0.96708 0.99652 0.0
H824 H 0.22107 0.686 0.95593 0.0
H825 H 0.19744 0.73669 0.87495 0.0
H826 H 0.22563 0.79784 0.80995 0.0
H827 H 0.26962 0.86868 0.7832 0.0
Mn828 Mn 0.21328 0.36704 0.17124 0.0
Mn829 Mn 0.30306 0.42359 0.11093 0.0
C830 C 0.29306 0.33907 0.18639 0.0
C831 C 0.18337 0.35047 0.27161 0.0
C832 C 0.21244 0.40761 0.04338 0.0
O833 O 0.20856 0.43473 0.20064 0.0
O834 O 0.26805 0.46846 0.15825 0.0
C835 C 0.35197 0.43643 0.22515 0.0
N836 N 0.3518 0.42236 0.16742 0.0
C837 C 0.43113 0.39988 0.17233 0.0
C838 C 0.43246 0.41398 0.23192 0.0
C839 C 0.39255 0.43213 0.25858 0.0
C840 C 0.38928 0.40341 0.14211 0.0
H841 H 0.32127 0.45044 0.24546 0.0
C842 C 0.23151 0.47067 0.18813 0.0
O843 O 0.15656 0.3571 0.22649 0.0
O844 O 0.22625 0.34968 0.25802 0.0
N845 N 0.34263 0.39078 0.05945 0.0
C846 C 0.33662 0.38591 0.99977 0.0
C847 C 0.37473 0.37891 0.96334 0.0
C848 C 0.41828 0.37439 0.98894 0.0
C849 C 0.42348 0.37758 0.05076 0.0
C850 C 0.38488 0.38895 0.08404 0.0
H851 H 0.30341 0.39004 0.97934 0.0
O852 O 0.26266 0.33829 0.22809 0.0
O853 O 0.27865 0.36413 0.14233 0.0
O854 O 0.18837 0.39072 0.08693 0.0
O855 O 0.25354 0.42275 0.05124 0.0
C856 C 0.46536 0.37142 0.08067 0.0
C857 C 0.46944 0.38235 0.14147 0.0
H858 H 0.4639 0.41124 0.25749 0.0
H859 H 0.39316 0.443 0.30457 0.0
H860 H 0.37062 0.37662 0.91569 0.0
H861 H 0.44661 0.36775 0.95979 0.0
H862 H 0.49368 0.35631 0.05777 0.0
H863 H 0.50216 0.37764 0.16368 0.0
Mn864 Mn 0.41713 0.25157 0.16453 0.0
Mn865 Mn 0.31699 0.18771 0.12759 0.0
C866 C 0.3873 0.24902 0.0663 0.0
C867 C 0.49878 0.24898 0.17009 0.0
C868 C 0.32224 0.2956 0.17722 0.0
O869 O 0.40758 0.21537 0.24271 0.0
O870 O 0.34935 0.17469 0.2076 0.0
C871 C 0.40196 0.11027 0.11894 0.0
N872 N 0.3537 0.12699 0.09005 0.0
C873 C 0.31343 0.02025 0.09082 0.0
C874 C 0.3669 0.00949 0.12174 0.0
C875 C 0.40856 0.05169 0.13502 0.0
C876 C 0.29832 0.07691 0.07145 0.0
H877 H 0.42687 0.13546 0.13431 0.0
C878 C 0.3785 0.18231 0.24734 0.0
O879 O 0.47568 0.28228 0.1952 0.0
O880 O 0.4746 0.21601 0.14629 0.0
N881 N 0.2303 0.127 0.10795 0.0
C882 C 0.18372 0.13225 0.11797 0.0
C883 C 0.15349 0.0953 0.10828 0.0
C884 C 0.16981 0.05183 0.09084 0.0
C885 C 0.21683 0.04446 0.08176 0.0
C886 C 0.2464 0.08357 0.08194 0.0
H887 H 0.16889 0.1641 0.13485 0.0
O888 O 0.41919 0.2774 0.08323 0.0
O889 O 0.37388 0.22074 0.10823 0.0
O890 O 0.36582 0.29889 0.18507 0.0
O891 O 0.30221 0.25673 0.16143 0.0
C892 C 0.2334 0.9982 0.08145 0.0
C893 C 0.2795 0.98647 0.09012 0.0
H894 H 0.37442 0.97435 0.13611 0.0
H895 H 0.44008 0.04084 0.15642 0.0
H896 H 0.11734 0.09941 0.11816 0.0
H897 H 0.14572 0.023 0.08881 0.0
H898 H 0.20893 0.96964 0.08218 0.0
H899 H 0.28807 0.95075 0.10059 0.0
Mn900 Mn 0.81061 0.41441 0.15264 0.0
Mn901 Mn 0.86873 0.32446 0.08859 0.0
C902 C 0.81205 0.41126 0.04737 0.0
C903 C 0.79949 0.49004 0.19293 0.0
C904 C 0.7693 0.31578 0.12937 0.0
O905 O 0.84858 0.38888 0.22195 0.0
O906 O 0.87243 0.32528 0.1753 0.0
C907 C 0.88885 0.23138 0.1408 0.0
N908 N 0.88688 0.26 0.0923 0.0
C909 C 0.9101 0.19715 0.02843 0.0
C910 C 0.91344 0.16759 0.07773 0.0
C911 C 0.90214 0.18465 0.13411 0.0
C912 C 0.89429 0.24285 0.03738 0.0
H913 H 0.87991 0.24363 0.18453 0.0
C914 C 0.86918 0.34961 0.22163 0.0
O915 O 0.77322 0.45526 0.2063 0.0
O916 O 0.83562 0.47978 0.1614 0.0
N917 N 0.87845 0.31833 1.005 0.0
C918 C 0.89771 0.35324 0.9723 0.0
C919 C 0.91409 0.3443 0.91482 0.0
C920 C 0.91743 0.2982 0.89494 0.0
C921 C 0.90859 0.26204 0.93501 0.0
C922 C 0.89043 0.27385 0.99098 0.0
H923 H 0.89963 0.38826 0.98993 0.0
O924 O 0.78268 0.43469 0.07842 0.0
O925 O 0.84444 0.39033 0.08001 0.0
O926 O 0.76826 0.35555 0.15511 0.0
O927 O 0.80348 0.30244 0.09632 0.0
C928 C 0.92345 0.21607 0.92453 0.0
C929 C 0.92409 0.18361 0.97131 0.0
H930 H 0.92501 0.13187 0.07287 0.0
H931 H 0.90409 0.162 0.17247 0.0
H932 H 0.92598 0.37267 0.88711 0.0
H933 H 0.93172 0.29108 0.85146 0.0
H934 H 0.9373 0.20614 0.88171 0.0
H935 H 0.93805 0.14914 0.96377 0.0
Mn936 Mn 0.59317 0.75619 0.16453 0.0
Mn937 Mn 0.6933 0.82005 0.12759 0.0
C938 C 0.623 0.75874 0.0663 0.0
C939 C 0.51152 0.75878 0.17009 0.0
C940 C 0.68806 0.71216 0.17722 0.0
O941 O 0.60272 0.79239 0.24271 0.0
O942 O 0.66095 0.83307 0.2076 0.0
C943 C 0.60834 0.89749 0.11894 0.0
N944 N 0.6566 0.88076 0.09005 0.0
C945 C 0.69687 0.9875 0.09082 0.0
C946 C 0.6434 0.99827 0.12174 0.0
C947 C 0.60174 0.95606 0.13502 0.0
C948 C 0.71198 0.93084 0.07145 0.0
H949 H 0.58343 0.87229 0.13431 0.0
C950 C 0.6318 0.82544 0.24734 0.0
O951 O 0.53462 0.72547 0.1952 0.0
O952 O 0.5357 0.79175 0.14629 0.0
N953 N 0.78 0.88076 0.10795 0.0
C954 C 0.82658 0.8755 0.11797 0.0
C955 C 0.85681 0.91246 0.10828 0.0
C956 C 0.84049 0.95592 0.09084 0.0
C957 C 0.79347 0.96329 0.08176 0.0
C958 C 0.7639 0.92419 0.08194 0.0
H959 H 0.84141 0.84366 0.13485 0.0
O960 O 0.59111 0.73036 0.08323 0.0
O961 O 0.63642 0.78702 0.10823 0.0
O962 O 0.64448 0.70887 0.18507 0.0
O963 O 0.70809 0.75102 0.16143 0.0
C964 C 0.7769 0.00956 0.08145 0.0
C965 C 0.7308 0.02129 0.09012 0.0
H966 H 0.63588 0.0334 0.13611 0.0
H967 H 0.57022 0.96692 0.15642 0.0
H968 H 0.89296 0.90835 0.11816 0.0
H969 H 0.86458 0.98475 0.08881 0.0
H970 H 0.80137 0.03812 0.08218 0.0
H971 H 0.72223 0.05701 0.10059 0.0
Mn972 Mn 0.19969 0.59335 0.15264 0.0
Mn973 Mn 0.14157 0.68329 0.08859 0.0
C974 C 0.19825 0.59649 0.04737 0.0
C975 C 0.2108 0.51772 0.19293 0.0
C976 C 0.241 0.69198 0.12937 0.0
O977 O 0.16171 0.61887 0.22195 0.0
O978 O 0.13787 0.68248 0.1753 0.0
C979 C 0.12145 0.77637 0.1408 0.0
N980 N 0.12342 0.74776 0.0923 0.0
C981 C 0.1002 0.81061 0.02843 0.0
C982 C 0.09686 0.84017 0.07773 0.0
C983 C 0.10816 0.8231 0.13411 0.0
C984 C 0.11601 0.7649 0.03738 0.0
H985 H 0.13038 0.76413 0.18453 0.0
C986 C 0.14112 0.65815 0.22163 0.0
O987 O 0.23708 0.5525 0.2063 0.0
O988 O 0.17468 0.52798 0.1614 0.0
N989 N 0.13184 0.68943 1.005 0.0
C990 C 0.11259 0.65451 0.9723 0.0
C991 C 0.09621 0.66345 0.91482 0.0
C992 C 0.09287 0.70956 0.89494 0.0
C993 C 0.10171 0.74571 0.93501 0.0
C994 C 0.11987 0.73391 0.99098 0.0
H995 H 0.11067 0.61949 0.98993 0.0
O996 O 0.22762 0.57307 0.07842 0.0
O997 O 0.16586 0.61743 0.08001 0.0
O998 O 0.24204 0.6522 0.15511 0.0
O999 O 0.20681 0.70532 0.09632 0.0
C1000 C 0.08684 0.79169 0.92453 0.0
C1001 C 0.08621 0.82414 0.97131 0.0
H1002 H 0.08529 0.87589 0.07287 0.0
H1003 H 0.10621 0.84576 0.17247 0.0
H1004 H 0.08431 0.63508 0.88711 0.0
H1005 H 0.07858 0.71667 0.85146 0.0
H1006 H 0.07299 0.80162 0.88171 0.0
H1007 H 0.07225 0.85862 0.96377 0.0
Mn1008 Mn 0.41713 0.75622 0.86094 0.0
Mn1009 Mn 0.31698 0.82007 0.89787 0.0
C1010 C 0.3873 0.75878 0.95917 0.0
C1011 C 0.49878 0.75879 0.85537 0.0
C1012 C 0.32224 0.71216 0.84826 0.0
O1013 O 0.40757 0.79241 0.78275 0.0
O1014 O 0.34934 0.83309 0.81786 0.0
C1015 C 0.40195 0.89752 0.90652 0.0
N1016 N 0.35369 0.88078 0.9354 0.0
C1017 C 0.31341 0.98752 0.93463 0.0
C1018 C 0.36688 0.99829 0.90371 0.0
C1019 C 0.40855 0.95609 0.89043 0.0
C1020 C 0.2983 0.93086 0.95401 0.0
H1021 H 0.42686 0.87232 0.89115 0.0
C1022 C 0.37849 0.82546 0.77812 0.0
O1023 O 0.47566 0.7255 0.83026 0.0
O1024 O 0.4746 0.79177 0.87916 0.0
N1025 N 0.23029 0.88077 0.91751 0.0
C1026 C 0.18371 0.8755 0.90749 0.0
C1027 C 0.15348 0.91246 0.91718 0.0
C1028 C 0.16979 0.95592 0.93461 0.0
C1029 C 0.21681 0.9633 0.9437 0.0
C1030 C 0.24639 0.9242 0.94351 0.0
H1031 H 0.16888 0.84366 0.89061 0.0
O1032 O 0.41919 0.7304 0.94225 0.0
O1033 O 0.37388 0.78705 0.91723 0.0
O1034 O 0.36582 0.70889 0.84041 0.0
O1035 O 0.3022 0.75103 0.86404 0.0
C1036 C 0.23339 0.00957 0.944 0.0
C1037 C 0.27948 0.0213 0.93534 0.0
H1038 H 0.3744 0.03343 0.88934 0.0
H1039 H 0.44007 0.96694 0.86903 0.0
H1040 H 0.11733 0.90834 0.9073 0.0
H1041 H 0.1457 0.98475 0.93664 0.0
H1042 H 0.20891 0.03812 0.94328 0.0
H1043 H 0.28805 0.05702 0.92488 0.0
Mn1044 Mn 0.19969 0.41441 0.87281 0.0
Mn1045 Mn 0.14157 0.32445 0.93687 0.0
C1046 C 0.19825 0.41126 0.97808 0.0
C1047 C 0.21081 0.49003 0.83252 0.0
C1048 C 0.241 0.31578 0.89608 0.0
O1049 O 0.16171 0.38888 0.8035 0.0
O1050 O 0.13786 0.32527 0.85016 0.0
C1051 C 0.12145 0.23137 0.88466 0.0
N1052 N 0.12342 0.25999 0.93316 0.0
C1053 C 0.1002 0.19714 0.99703 0.0
C1054 C 0.09686 0.16757 0.94773 0.0
C1055 C 0.10817 0.18464 0.89134 0.0
C1056 C 0.11602 0.24284 0.98808 0.0
H1057 H 0.13039 0.24362 0.84093 0.0
C1058 C 0.14111 0.3496 0.80382 0.0
O1059 O 0.23708 0.45525 0.81915 0.0
O1060 O 0.17468 0.47978 0.86405 0.0
N1061 N 0.13185 0.31832 0.02045 0.0
C1062 C 0.1126 0.35324 0.05316 0.0
C1063 C 0.09622 0.34429 0.11064 0.0
C1064 C 0.09288 0.29819 0.13052 0.0
C1065 C 0.10172 0.26204 0.09044 0.0
C1066 C 0.11987 0.27384 0.03447 0.0
H1067 H 0.11068 0.38825 0.03553 0.0
O1068 O 0.22761 0.43468 0.94704 0.0
O1069 O 0.16585 0.39032 0.94545 0.0
O1070 O 0.24203 0.35556 0.87034 0.0
O1071 O 0.20682 0.30244 0.92913 0.0
C1072 C 0.08685 0.21606 0.10093 0.0
C1073 C 0.08621 0.1836 0.05415 0.0
H1074 H 0.0853 0.13185 0.95259 0.0
H1075 H 0.10622 0.16198 0.85299 0.0
H1076 H 0.08432 0.37266 0.13835 0.0
H1077 H 0.07858 0.29107 0.174 0.0
H1078 H 0.073 0.20613 0.14374 0.0
H1079 H 0.07225 0.14913 0.06169 0.0
Mn1080 Mn 0.59317 0.25154 0.86094 0.0
Mn1081 Mn 0.69331 0.18769 0.89787 0.0
C1082 C 0.623 0.24897 0.95917 0.0
C1083 C 0.51152 0.24896 0.85537 0.0
C1084 C 0.68806 0.29559 0.84826 0.0
O1085 O 0.60273 0.21535 0.78275 0.0
O1086 O 0.66096 0.17467 0.81786 0.0
C1087 C 0.60835 0.11024 0.90652 0.0
N1088 N 0.65661 0.12697 0.9354 0.0
C1089 C 0.69688 0.02024 0.93463 0.0
C1090 C 0.64341 0.00947 0.90371 0.0
C1091 C 0.60175 0.05167 0.89043 0.0
C1092 C 0.71199 0.0769 0.95401 0.0
H1093 H 0.58344 0.13544 0.89115 0.0
C1094 C 0.63181 0.1823 0.77812 0.0
O1095 O 0.53464 0.28226 0.83026 0.0
O1096 O 0.53569 0.21598 0.87916 0.0
N1097 N 0.78001 0.12699 0.91751 0.0
C1098 C 0.82659 0.13225 0.90749 0.0
C1099 C 0.85682 0.0953 0.91718 0.0
C1100 C 0.84051 0.05183 0.93461 0.0
C1101 C 0.79349 0.04446 0.9437 0.0
C1102 C 0.76391 0.08356 0.94351 0.0
H1103 H 0.84142 0.1641 0.89061 0.0
O1104 O 0.59111 0.27735 0.94225 0.0
O1105 O 0.63642 0.2207 0.91723 0.0
O1106 O 0.64448 0.29887 0.8404 0.0
O1107 O 0.7081 0.25672 0.86404 0.0
C1108 C 0.77691 0.99819 0.944 0.0
C1109 C 0.73082 0.98645 0.93534 0.0
H1110 H 0.6359 0.97433 0.88934 0.0
H1111 H 0.57023 0.04081 0.86903 0.0
H1112 H 0.89297 0.09942 0.9073 0.0
H1113 H 0.8646 0.023 0.93664 0.0
H1114 H 0.80138 0.96963 0.94328 0.0
H1115 H 0.72224 0.95073 0.92488 0.0
Mn1116 Mn 0.81061 0.59335 0.87281 0.0
Mn1117 Mn 0.86873 0.6833 0.93687 0.0
C1118 C 0.81205 0.5965 0.97808 0.0
C1119 C 0.79948 0.51772 0.83252 0.0
C1120 C 0.7693 0.69197 0.89608 0.0
O1121 O 0.84859 0.61888 0.8035 0.0
O1122 O 0.87244 0.68249 0.85016 0.0
C1123 C 0.88885 0.77639 0.88466 0.0
N1124 N 0.88688 0.74777 0.93316 0.0
C1125 C 0.9101 0.81062 0.99703 0.0
C1126 C 0.91343 0.84018 0.94773 0.0
C1127 C 0.90213 0.82311 0.89134 0.0
C1128 C 0.89428 0.76491 0.98808 0.0
H1129 H 0.87991 0.76414 0.84093 0.0
C1130 C 0.86918 0.65815 0.80382 0.0
O1131 O 0.77322 0.5525 0.81915 0.0
O1132 O 0.83562 0.52798 0.86405 0.0
N1133 N 0.87845 0.68944 0.02045 0.0
C1134 C 0.8977 0.65452 0.05316 0.0
C1135 C 0.91408 0.66346 0.11064 0.0
C1136 C 0.91742 0.70957 0.13052 0.0
C1137 C 0.90858 0.74572 0.09044 0.0
C1138 C 0.89043 0.73392 0.03447 0.0
H1139 H 0.89962 0.6195 0.03553 0.0
O1140 O 0.78268 0.57307 0.94704 0.0
O1141 O 0.84444 0.61743 0.94545 0.0
O1142 O 0.76826 0.6522 0.87034 0.0
O1143 O 0.80348 0.70531 0.92913 0.0
C1144 C 0.92345 0.7917 0.10093 0.0
C1145 C 0.92408 0.82416 0.05415 0.0
H1146 H 0.925 0.8759 0.95259 0.0
H1147 H 0.90408 0.84577 0.85299 0.0
H1148 H 0.92597 0.63509 0.13835 0.0
H1149 H 0.93171 0.71668 0.174 0.0
H1150 H 0.9373 0.80163 0.14374 0.0
H1151 H 0.93804 0.85863 0.06169 0.0
loop_
_geom_bond_atom_site_label_1
_geom_bond_atom_site_label_2
_geom_bond_distance
_geom_bond_site_symmetry_2
_ccdc_geom_bond_type
Mn0 O5 2.095 . S
Mn0 O15 2.162 . S
Mn0 O16 2.297 . S
Mn0 O24 2.385 . S
Mn0 O25 2.209 . S
Mn0 O26 2.094 . S
Mn1 O6 2.121 . S
Mn1 N8 2.257 . S
Mn1 N17 2.282 . S
Mn1 O25 2.215 . S
Mn1 O27 2.117 . S
C2 O24 1.234 . S
C2 O25 1.283 . S
C3 O15 1.281 . S
C3 O16 1.236 . S
C4 O26 1.240 . S
C4 O27 1.264 . S
O5 Mn0 2.095 . S
O5 C14 1.250 . S
O6 Mn1 2.121 . S
O6 C14 1.258 . S
C7 N8 1.326 . S
C7 C11 1.460 . S
C7 H13 0.929 . S
N8 Mn1 2.257 . S
N8 C7 1.326 . S
N8 C12 1.362 . S
C9 C10 1.258 . S
C9 C12 1.431 . S
C9 C29 1.449 . S
C10 C9 1.258 . S
C10 C11 1.477 . S
C10 H30 0.931 . S
C11 C7 1.460 . S
C11 C10 1.477 . S
C11 H31 0.930 . S
C12 N8 1.362 . S
C12 C9 1.431 . S
C12 C22 1.476 . S
H13 C7 0.929 . S
C14 O5 1.250 . S
C14 O6 1.258 . S
O15 Mn0 2.162 . S
O15 C3 1.281 . S
O16 Mn0 2.297 . S
O16 C3 1.236 . S
N17 Mn1 2.282 . S
N17 C18 1.328 . S
N17 C22 1.318 . S
C18 N17 1.328 . S
C18 C19 1.457 . S
C18 H23 0.929 . S
C19 C18 1.457 . S
C19 C20 1.291 . S
C19 H32 0.931 . S
C20 C19 1.291 . S
C20 C21 1.373 . S
C20 H33 0.929 . S
C21 C20 1.373 . S
C21 C22 1.396 . S
C21 C28 1.403 . S
C22 C12 1.476 . S
C22 N17 1.318 . S
C22 C21 1.396 . S
H23 C18 0.929 . S
O24 Mn0 2.385 . S
O24 C2 1.234 . S
O25 Mn0 2.209 . S
O25 Mn1 2.215 . S
O25 C2 1.283 . S
O26 Mn0 2.094 . S
O26 C4 1.240 . S
O27 Mn1 2.117 . S
O27 C4 1.264 . S
C28 C21 1.403 . S
C28 C29 1.399 . S
C28 H34 0.929 . S
C29 C9 1.449 . S
C29 C28 1.399 . S
C29 H35 0.930 . S
H30 C10 0.931 . S
H31 C11 0.930 . S
H32 C19 0.931 . S
H33 C20 0.929 . S
H34 C28 0.929 . S
H35 C29 0.930 . S
Mn36 O41 2.095 . S
Mn36 O51 2.162 . S
Mn36 O52 2.297 . S
Mn36 O60 2.385 . S
Mn36 O61 2.209 . S
Mn36 O62 2.094 . S
Mn37 O42 2.121 . S
Mn37 N44 2.257 . S
Mn37 N53 2.282 . S
Mn37 O61 2.215 . S
Mn37 O63 2.117 . S
C38 O60 1.234 . S
C38 O61 1.283 . S
C39 O51 1.281 . S
C39 O52 1.236 . S
C40 O62 1.240 . S
C40 O63 1.264 . S
O41 Mn36 2.095 . S
O41 C50 1.250 . S
O42 Mn37 2.121 . S
O42 C50 1.258 . S
C43 N44 1.326 . S
C43 C47 1.460 . S
C43 H49 0.929 . S
N44 Mn37 2.257 . S
N44 C43 1.326 . S
N44 C48 1.362 . S
C45 C46 1.258 . S
C45 C48 1.431 . S
C45 C65 1.449 . S
C46 C45 1.258 . S
C46 C47 1.477 . S
C46 H66 0.931 . S
C47 C43 1.460 . S
C47 C46 1.477 . S
C47 H67 0.930 . S
C48 N44 1.362 . S
C48 C45 1.431 . S
C48 C58 1.476 . S
H49 C43 0.929 . S
C50 O41 1.250 . S
C50 O42 1.258 . S
O51 Mn36 2.162 . S
O51 C39 1.281 . S
O52 Mn36 2.297 . S
O52 C39 1.236 . S
N53 Mn37 2.282 . S
N53 C54 1.328 . S
N53 C58 1.318 . S
C54 N53 1.328 . S
C54 C55 1.457 . S
C54 H59 0.929 . S
C55 C54 1.457 . S
C55 C56 1.291 . S
C55 H68 0.931 . S
C56 C55 1.291 . S
C56 C57 1.373 . S
C56 H69 0.929 . S
C57 C56 1.373 . S
C57 C58 1.396 . S
C57 C64 1.403 . S
C58 C48 1.476 . S
C58 N53 1.318 . S
C58 C57 1.396 . S
H59 C54 0.929 . S
O60 Mn36 2.385 . S
O60 C38 1.234 . S
O61 Mn36 2.209 . S
O61 Mn37 2.215 . S
O61 C38 1.283 . S
O62 Mn36 2.094 . S
O62 C40 1.240 . S
O63 Mn37 2.117 . S
O63 C40 1.264 . S
C64 C57 1.403 . S
C64 C65 1.399 . S
C64 H70 0.929 . S
C65 C45 1.449 . S
C65 C64 1.399 . S
C65 H71 0.930 . S
H66 C46 0.931 . S
H67 C47 0.930 . S
H68 C55 0.931 . S
H69 C56 0.929 . S
H70 C64 0.929 . S
H71 C65 0.930 . S
Mn72 O77 2.095 . S
Mn72 O87 2.162 . S
Mn72 O88 2.297 . S
Mn72 O96 2.385 . S
Mn72 O97 2.209 . S
Mn72 O98 2.094 . S
Mn73 O78 2.121 . S
Mn73 N80 2.257 . S
Mn73 N89 2.282 . S
Mn73 O97 2.215 . S
Mn73 O99 2.117 . S
C74 O96 1.234 . S
C74 O97 1.283 . S
C75 O87 1.281 . S
C75 O88 1.236 . S
C76 O98 1.240 . S
C76 O99 1.264 . S
O77 Mn72 2.095 . S
O77 C86 1.250 . S
O78 Mn73 2.121 . S
O78 C86 1.258 . S
C79 N80 1.326 . S
C79 C83 1.460 . S
C79 H85 0.929 . S
N80 Mn73 2.257 . S
N80 C79 1.326 . S
N80 C84 1.362 . S
C81 C82 1.258 . S
C81 C84 1.431 . S
C81 C101 1.449 . S
C82 C81 1.258 . S
C82 C83 1.477 . S
C82 H102 0.931 . S
C83 C79 1.460 . S
C83 C82 1.477 . S
C83 H103 0.930 . S
C84 N80 1.362 . S
C84 C81 1.431 . S
C84 C94 1.476 . S
H85 C79 0.929 . S
C86 O77 1.250 . S
C86 O78 1.258 . S
O87 Mn72 2.162 . S
O87 C75 1.281 . S
O88 Mn72 2.297 . S
O88 C75 1.236 . S
N89 Mn73 2.282 . S
N89 C90 1.328 . S
N89 C94 1.318 . S
C90 N89 1.328 . S
C90 C91 1.457 . S
C90 H95 0.929 . S
C91 C90 1.457 . S
C91 C92 1.291 . S
C91 H104 0.931 . S
C92 C91 1.291 . S
C92 C93 1.373 . S
C92 H105 0.929 . S
C93 C92 1.373 . S
C93 C94 1.396 . S
C93 C100 1.403 . S
C94 C84 1.476 . S
C94 N89 1.318 . S
C94 C93 1.396 . S
H95 C90 0.929 . S
O96 Mn72 2.385 . S
O96 C74 1.234 . S
O97 Mn72 2.209 . S
O97 Mn73 2.215 . S
O97 C74 1.283 . S
O98 Mn72 2.094 . S
O98 C76 1.240 . S
O99 Mn73 2.117 . S
O99 C76 1.264 . S
C100 C93 1.403 . S
C100 C101 1.399 . S
C100 H106 0.929 . S
C101 C81 1.449 . S
C101 C100 1.399 . S
C101 H107 0.930 . S
H102 C82 0.931 . S
H103 C83 0.930 . S
H104 C91 0.931 . S
H105 C92 0.929 . S
H106 C100 0.929 . S
H107 C101 0.930 . S
Mn108 O113 2.095 . S
Mn108 O123 2.162 . S
Mn108 O124 2.297 . S
Mn108 O132 2.385 . S
Mn108 O133 2.209 . S
Mn108 O134 2.094 . S
Mn109 O114 2.121 . S
Mn109 N116 2.257 . S
Mn109 N125 2.282 . S
Mn109 O133 2.215 . S
Mn109 O135 2.117 . S
C110 O132 1.234 . S
C110 O133 1.283 . S
C111 O123 1.281 . S
C111 O124 1.236 . S
C112 O134 1.240 . S
C112 O135 1.264 . S
O113 Mn108 2.095 . S
O113 C122 1.250 . S
O114 Mn109 2.121 . S
O114 C122 1.258 . S
C115 N116 1.326 . S
C115 C119 1.460 . S
C115 H121 0.929 . S
N116 Mn109 2.257 . S
N116 C115 1.326 . S
N116 C120 1.362 . S
C117 C118 1.258 . S
C117 C120 1.431 . S
C117 C137 1.449 . S
C118 C117 1.258 . S
C118 C119 1.477 . S
C118 H138 0.931 . S
C119 C115 1.460 . S
C119 C118 1.477 . S
C119 H139 0.930 . S
C120 N116 1.362 . S
C120 C117 1.431 . S
C120 C130 1.476 . S
H121 C115 0.929 . S
C122 O113 1.250 . S
C122 O114 1.258 . S
O123 Mn108 2.162 . S
O123 C111 1.281 . S
O124 Mn108 2.297 . S
O124 C111 1.236 . S
N125 Mn109 2.282 . S
N125 C126 1.328 . S
N125 C130 1.318 . S
C126 N125 1.328 . S
C126 C127 1.457 . S
C126 H131 0.929 . S
C127 C126 1.457 . S
C127 C128 1.291 . S
C127 H140 0.931 . S
C128 C127 1.291 . S
C128 C129 1.373 . S
C128 H141 0.929 . S
C129 C128 1.373 . S
C129 C130 1.396 . S
C129 C136 1.403 . S
C130 C120 1.476 . S
C130 N125 1.318 . S
C130 C129 1.396 . S
H131 C126 0.929 . S
O132 Mn108 2.385 . S
O132 C110 1.234 . S
O133 Mn108 2.209 . S
O133 Mn109 2.215 . S
O133 C110 1.283 . S
O134 Mn108 2.094 . S
O134 C112 1.240 . S
O135 Mn109 2.117 . S
O135 C112 1.264 . S
C136 C129 1.403 . S
C136 C137 1.399 . S
C136 H142 0.929 . S
C137 C117 1.449 . S
C137 C136 1.399 . S
C137 H143 0.930 . S
H138 C118 0.931 . S
H139 C119 0.930 . S
H140 C127 0.931 . S
H141 C128 0.929 . S
H142 C136 0.929 . S
H143 C137 0.930 . S
Mn144 O149 2.095 . S
Mn144 O159 2.162 . S
Mn144 O160 2.297 . S
Mn144 O168 2.385 . S
Mn144 O169 2.209 . S
Mn144 O170 2.094 . S
Mn145 O150 2.121 . S
Mn145 N152 2.257 . S
Mn145 N161 2.282 . S
Mn145 O169 2.215 . S
Mn145 O171 2.117 . S
C146 O168 1.234 . S
C146 O169 1.283 . S
C147 O159 1.281 . S
C147 O160 1.236 . S
C148 O170 1.240 . S
C148 O171 1.264 . S
O149 Mn144 2.095 . S
O149 C158 1.250 . S
O150 Mn145 2.121 . S
O150 C158 1.258 . S
C151 N152 1.326 . S
C151 C155 1.460 . S
C151 H157 0.929 . S
N152 Mn145 2.257 . S
N152 C151 1.326 . S
N152 C156 1.362 . S
C153 C154 1.258 . S
C153 C156 1.431 . S
C153 C173 1.449 . S
C154 C153 1.258 . S
C154 C155 1.477 . S
C154 H174 0.931 . S
C155 C151 1.460 . S
C155 C154 1.477 . S
C155 H175 0.930 . S
C156 N152 1.362 . S
C156 C153 1.431 . S
C156 C166 1.476 . S
H157 C151 0.929 . S
C158 O149 1.250 . S
C158 O150 1.258 . S
O159 Mn144 2.162 . S
O159 C147 1.281 . S
O160 Mn144 2.297 . S
O160 C147 1.236 . S
N161 Mn145 2.282 . S
N161 C162 1.328 . S
N161 C166 1.318 . S
C162 N161 1.328 . S
C162 C163 1.457 . S
C162 H167 0.929 . S
C163 C162 1.457 . S
C163 C164 1.291 . S
C163 H176 0.931 . S
C164 C163 1.291 . S
C164 C165 1.373 . S
C164 H177 0.929 . S
C165 C164 1.373 . S
C165 C166 1.396 . S
C165 C172 1.403 . S
C166 C156 1.476 . S
C166 N161 1.318 . S
C166 C165 1.396 . S
H167 C162 0.929 . S
O168 Mn144 2.385 . S
O168 C146 1.234 . S
O169 Mn144 2.209 . S
O169 Mn145 2.215 . S
O169 C146 1.283 . S
O170 Mn144 2.094 . S
O170 C148 1.240 . S
O171 Mn145 2.117 . S
O171 C148 1.264 . S
C172 C165 1.403 . S
C172 C173 1.399 . S
C172 H178 0.929 . S
C173 C153 1.449 . S
C173 C172 1.399 . S
C173 H179 0.930 . S
H174 C154 0.931 . S
H175 C155 0.930 . S
H176 C163 0.931 . S
H177 C164 0.929 . S
H178 C172 0.929 . S
H179 C173 0.930 . S
Mn180 O185 2.095 . S
Mn180 O195 2.162 . S
Mn180 O196 2.297 . S
Mn180 O204 2.385 . S
Mn180 O205 2.209 . S
Mn180 O206 2.094 . S
Mn181 O186 2.121 . S
Mn181 N188 2.257 . S
Mn181 N197 2.282 . S
Mn181 O205 2.215 . S
Mn181 O207 2.117 . S
C182 O204 1.234 . S
C182 O205 1.283 . S
C183 O195 1.281 . S
C183 O196 1.236 . S
C184 O206 1.240 . S
C184 O207 1.264 . S
O185 Mn180 2.095 . S
O185 C194 1.250 . S
O186 Mn181 2.121 . S
O186 C194 1.258 . S
C187 N188 1.326 . S
C187 C191 1.460 . S
C187 H193 0.929 . S
N188 Mn181 2.257 . S
N188 C187 1.326 . S
N188 C192 1.362 . S
C189 C190 1.258 . S
C189 C192 1.431 . S
C189 C209 1.449 . S
C190 C189 1.258 . S
C190 C191 1.477 . S
C190 H210 0.931 . S
C191 C187 1.460 . S
C191 C190 1.477 . S
C191 H211 0.930 . S
C192 N188 1.362 . S
C192 C189 1.431 . S
C192 C202 1.476 . S
H193 C187 0.929 . S
C194 O185 1.250 . S
C194 O186 1.258 . S
O195 Mn180 2.162 . S
O195 C183 1.281 . S
O196 Mn180 2.297 . S
O196 C183 1.236 . S
N197 Mn181 2.282 . S
N197 C198 1.328 . S
N197 C202 1.318 . S
C198 N197 1.328 . S
C198 C199 1.457 . S
C198 H203 0.929 . S
C199 C198 1.457 . S
C199 C200 1.291 . S
C199 H212 0.931 . S
C200 C199 1.291 . S
C200 C201 1.373 . S
C200 H213 0.929 . S
C201 C200 1.373 . S
C201 C202 1.396 . S
C201 C208 1.403 . S
C202 C192 1.476 . S
C202 N197 1.318 . S
C202 C201 1.396 . S
H203 C198 0.929 . S
O204 Mn180 2.385 . S
O204 C182 1.234 . S
O205 Mn180 2.209 . S
O205 Mn181 2.215 . S
O205 C182 1.283 . S
O206 Mn180 2.094 . S
O206 C184 1.240 . S
O207 Mn181 2.117 . S
O207 C184 1.264 . S
C208 C201 1.403 . S
C208 C209 1.399 . S
C208 H214 0.929 . S
C209 C189 1.449 . S
C209 C208 1.399 . S
C209 H215 0.930 . S
H210 C190 0.931 . S
H211 C191 0.930 . S
H212 C199 0.931 . S
H213 C200 0.929 . S
H214 C208 0.929 . S
H215 C209 0.930 . S
Mn216 O221 2.095 . S
Mn216 O231 2.162 . S
Mn216 O232 2.297 . S
Mn216 O240 2.385 . S
Mn216 O241 2.209 . S
Mn216 O242 2.094 . S
Mn217 O222 2.121 . S
Mn217 N224 2.257 . S
Mn217 N233 2.282 . S
Mn217 O241 2.215 . S
Mn217 O243 2.117 . S
C218 O240 1.234 . S
C218 O241 1.283 . S
C219 O231 1.281 . S
C219 O232 1.236 . S
C220 O242 1.240 . S
C220 O243 1.264 . S
O221 Mn216 2.095 . S
O221 C230 1.250 . S
O222 Mn217 2.121 . S
O222 C230 1.258 . S
C223 N224 1.326 . S
C223 C227 1.460 . S
C223 H229 0.929 . S
N224 Mn217 2.257 . S
N224 C223 1.326 . S
N224 C228 1.362 . S
C225 C226 1.258 . S
C225 C228 1.431 . S
C225 C245 1.449 . S
C226 C225 1.258 . S
C226 C227 1.477 . S
C226 H246 0.931 . S
C227 C223 1.460 . S
C227 C226 1.477 . S
C227 H247 0.930 . S
C228 N224 1.362 . S
C228 C225 1.431 . S
C228 C238 1.476 . S
H229 C223 0.929 . S
C230 O221 1.250 . S
C230 O222 1.258 . S
O231 Mn216 2.162 . S
O231 C219 1.281 . S
O232 Mn216 2.297 . S
O232 C219 1.236 . S
N233 Mn217 2.282 . S
N233 C234 1.328 . S
N233 C238 1.318 . S
C234 N233 1.328 . S
C234 C235 1.457 . S
C234 H239 0.929 . S
C235 C234 1.457 . S
C235 C236 1.291 . S
C235 H248 0.931 . S
C236 C235 1.291 . S
C236 C237 1.373 . S
C236 H249 0.929 . S
C237 C236 1.373 . S
C237 C238 1.396 . S
C237 C244 1.403 . S
C238 C228 1.476 . S
C238 N233 1.318 . S
C238 C237 1.396 . S
H239 C234 0.929 . S
O240 Mn216 2.385 . S
O240 C218 1.234 . S
O241 Mn216 2.209 . S
O241 Mn217 2.215 . S
O241 C218 1.283 . S
O242 Mn216 2.094 . S
O242 C220 1.240 . S
O243 Mn217 2.117 . S
O243 C220 1.264 . S
C244 C237 1.403 . S
C244 C245 1.399 . S
C244 H250 0.929 . S
C245 C225 1.449 . S
C245 C244 1.399 . S
C245 H251 0.930 . S
H246 C226 0.931 . S
H247 C227 0.930 . S
H248 C235 0.931 . S
H249 C236 0.929 . S
H250 C244 0.929 . S
H251 C245 0.930 . S
Mn252 O257 2.095 . S
Mn252 O267 2.162 . S
Mn252 O268 2.297 . S
Mn252 O276 2.385 . S
Mn252 O277 2.209 . S
Mn252 O278 2.094 . S
Mn253 O258 2.121 . S
Mn253 N260 2.257 . S
Mn253 N269 2.282 . S
Mn253 O277 2.215 . S
Mn253 O279 2.117 . S
C254 O276 1.234 . S
C254 O277 1.283 . S
C255 O267 1.281 . S
C255 O268 1.236 . S
C256 O278 1.240 . S
C256 O279 1.264 . S
O257 Mn252 2.095 . S
O257 C266 1.250 . S
O258 Mn253 2.121 . S
O258 C266 1.258 . S
C259 N260 1.326 . S
C259 C263 1.460 . S
C259 H265 0.929 . S
N260 Mn253 2.257 . S
N260 C259 1.326 . S
N260 C264 1.362 . S
C261 C262 1.258 . S
C261 C264 1.431 . S
C261 C281 1.449 . S
C262 C261 1.258 . S
C262 C263 1.477 . S
C262 H282 0.931 . S
C263 C259 1.460 . S
C263 C262 1.477 . S
C263 H283 0.930 . S
C264 N260 1.362 . S
C264 C261 1.431 . S
C264 C274 1.476 . S
H265 C259 0.929 . S
C266 O257 1.250 . S
C266 O258 1.258 . S
O267 Mn252 2.162 . S
O267 C255 1.281 . S
O268 Mn252 2.297 . S
O268 C255 1.236 . S
N269 Mn253 2.282 . S
N269 C270 1.328 . S
N269 C274 1.318 . S
C270 N269 1.328 . S
C270 C271 1.457 . S
C270 H275 0.929 . S
C271 C270 1.457 . S
C271 C272 1.291 . S
C271 H284 0.931 . S
C272 C271 1.291 . S
C272 C273 1.373 . S
C272 H285 0.929 . S
C273 C272 1.373 . S
C273 C274 1.396 . S
C273 C280 1.403 . S
C274 C264 1.476 . S
C274 N269 1.318 . S
C274 C273 1.396 . S
H275 C270 0.929 . S
O276 Mn252 2.385 . S
O276 C254 1.234 . S
O277 Mn252 2.209 . S
O277 Mn253 2.215 . S
O277 C254 1.283 . S
O278 Mn252 2.094 . S
O278 C256 1.240 . S
O279 Mn253 2.117 . S
O279 C256 1.264 . S
C280 C273 1.403 . S
C280 C281 1.399 . S
C280 H286 0.929 . S
C281 C261 1.449 . S
C281 C280 1.399 . S
C281 H287 0.930 . S
H282 C262 0.931 . S
H283 C263 0.930 . S
H284 C271 0.931 . S
H285 C272 0.929 . S
H286 C280 0.929 . S
H287 C281 0.930 . S
Mn288 O293 2.095 . S
Mn288 O303 2.162 . S
Mn288 O304 2.297 . S
Mn288 O312 2.385 . S
Mn288 O313 2.209 . S
Mn288 O314 2.094 . S
Mn289 O294 2.121 . S
Mn289 N296 2.257 . S
Mn289 N305 2.282 . S
Mn289 O313 2.215 . S
Mn289 O315 2.117 . S
C290 O312 1.234 . S
C290 O313 1.283 . S
C291 O303 1.281 . S
C291 O304 1.236 . S
C292 O314 1.240 . S
C292 O315 1.264 . S
O293 Mn288 2.095 . S
O293 C302 1.250 . S
O294 Mn289 2.121 . S
O294 C302 1.258 . S
C295 N296 1.326 . S
C295 C299 1.460 . S
C295 H301 0.929 . S
N296 Mn289 2.257 . S
N296 C295 1.326 . S
N296 C300 1.362 . S
C297 C298 1.258 . S
C297 C300 1.431 . S
C297 C317 1.449 . S
C298 C297 1.258 . S
C298 C299 1.477 . S
C298 H318 0.931 . S
C299 C295 1.460 . S
C299 C298 1.477 . S
C299 H319 0.930 . S
C300 N296 1.362 . S
C300 C297 1.431 . S
C300 C310 1.476 . S
H301 C295 0.929 . S
C302 O293 1.250 . S
C302 O294 1.258 . S
O303 Mn288 2.162 . S
O303 C291 1.281 . S
O304 Mn288 2.297 . S
O304 C291 1.236 . S
N305 Mn289 2.282 . S
N305 C306 1.328 . S
N305 C310 1.318 . S
C306 N305 1.328 . S
C306 C307 1.457 . S
C306 H311 0.929 . S
C307 C306 1.457 . S
C307 C308 1.291 . S
C307 H320 0.931 . S
C308 C307 1.291 . S
C308 C309 1.373 . S
C308 H321 0.929 . S
C309 C308 1.373 . S
C309 C310 1.396 . S
C309 C316 1.403 . S
C310 C300 1.476 . S
C310 N305 1.318 . S
C310 C309 1.396 . S
H311 C306 0.929 . S
O312 Mn288 2.385 . S
O312 C290 1.234 . S
O313 Mn288 2.209 . S
O313 Mn289 2.215 . S
O313 C290 1.283 . S
O314 Mn288 2.094 . S
O314 C292 1.240 . S
O315 Mn289 2.117 . S
O315 C292 1.264 . S
C316 C309 1.403 . S
C316 C317 1.399 . S
C316 H322 0.929 . S
C317 C297 1.449 . S
C317 C316 1.399 . S
C317 H323 0.930 . S
H318 C298 0.931 . S
H319 C299 0.930 . S
H320 C307 0.931 . S
H321 C308 0.929 . S
H322 C316 0.929 . S
H323 C317 0.930 . S
Mn324 O329 2.095 . S
Mn324 O339 2.162 . S
Mn324 O340 2.297 . S
Mn324 O348 2.385 . S
Mn324 O349 2.209 . S
Mn324 O350 2.094 . S
Mn325 O330 2.121 . S
Mn325 N332 2.257 . S
Mn325 N341 2.282 . S
Mn325 O349 2.215 . S
Mn325 O351 2.117 . S
C326 O348 1.234 . S
C326 O349 1.283 . S
C327 O339 1.281 . S
C327 O340 1.236 . S
C328 O350 1.240 . S
C328 O351 1.264 . S
O329 Mn324 2.095 . S
O329 C338 1.250 . S
O330 Mn325 2.121 . S
O330 C338 1.258 . S
C331 N332 1.326 . S
C331 C335 1.460 . S
C331 H337 0.929 . S
N332 Mn325 2.257 . S
N332 C331 1.326 . S
N332 C336 1.362 . S
C333 C334 1.258 . S
C333 C336 1.431 . S
C333 C353 1.449 . S
C334 C333 1.258 . S
C334 C335 1.477 . S
C334 H354 0.931 . S
C335 C331 1.460 . S
C335 C334 1.477 . S
C335 H355 0.930 . S
C336 N332 1.362 . S
C336 C333 1.431 . S
C336 C346 1.476 . S
H337 C331 0.929 . S
C338 O329 1.250 . S
C338 O330 1.258 . S
O339 Mn324 2.162 . S
O339 C327 1.281 . S
O340 Mn324 2.297 . S
O340 C327 1.236 . S
N341 Mn325 2.282 . S
N341 C342 1.328 . S
N341 C346 1.318 . S
C342 N341 1.328 . S
C342 C343 1.457 . S
C342 H347 0.929 . S
C343 C342 1.457 . S
C343 C344 1.291 . S
C343 H356 0.931 . S
C344 C343 1.291 . S
C344 C345 1.373 . S
C344 H357 0.929 . S
C345 C344 1.373 . S
C345 C346 1.396 . S
C345 C352 1.403 . S
C346 C336 1.476 . S
C346 N341 1.318 . S
C346 C345 1.396 . S
H347 C342 0.929 . S
O348 Mn324 2.385 . S
O348 C326 1.234 . S
O349 Mn324 2.209 . S
O349 Mn325 2.215 . S
O349 C326 1.283 . S
O350 Mn324 2.094 . S
O350 C328 1.240 . S
O351 Mn325 2.117 . S
O351 C328 1.264 . S
C352 C345 1.403 . S
C352 C353 1.399 . S
C352 H358 0.929 . S
C353 C333 1.449 . S
C353 C352 1.399 . S
C353 H359 0.930 . S
H354 C334 0.931 . S
H355 C335 0.930 . S
H356 C343 0.931 . S
H357 C344 0.929 . S
H358 C352 0.929 . S
H359 C353 0.930 . S
Mn360 O365 2.095 . S
Mn360 O375 2.162 . S
Mn360 O376 2.297 . S
Mn360 O384 2.385 . S
Mn360 O385 2.209 . S
Mn360 O386 2.094 . S
Mn361 O366 2.121 . S
Mn361 N368 2.257 . S
Mn361 N377 2.282 . S
Mn361 O385 2.215 . S
Mn361 O387 2.117 . S
C362 O384 1.234 . S
C362 O385 1.283 . S
C363 O375 1.281 . S
C363 O376 1.236 . S
C364 O386 1.240 . S
C364 O387 1.264 . S
O365 Mn360 2.095 . S
O365 C374 1.250 . S
O366 Mn361 2.121 . S
O366 C374 1.258 . S
C367 N368 1.326 . S
C367 C371 1.460 . S
C367 H373 0.929 . S
N368 Mn361 2.257 . S
N368 C367 1.326 . S
N368 C372 1.362 . S
C369 C370 1.258 . S
C369 C372 1.431 . S
C369 C389 1.449 . S
C370 C369 1.258 . S
C370 C371 1.477 . S
C370 H390 0.931 . S
C371 C367 1.460 . S
C371 C370 1.477 . S
C371 H391 0.930 . S
C372 N368 1.362 . S
C372 C369 1.431 . S
C372 C382 1.476 . S
H373 C367 0.929 . S
C374 O365 1.250 . S
C374 O366 1.258 . S
O375 Mn360 2.162 . S
O375 C363 1.281 . S
O376 Mn360 2.297 . S
O376 C363 1.236 . S
N377 Mn361 2.282 . S
N377 C378 1.328 . S
N377 C382 1.318 . S
C378 N377 1.328 . S
C378 C379 1.457 . S
C378 H383 0.929 . S
C379 C378 1.457 . S
C379 C380 1.291 . S
C379 H392 0.931 . S
C380 C379 1.291 . S
C380 C381 1.373 . S
C380 H393 0.929 . S
C381 C380 1.373 . S
C381 C382 1.396 . S
C381 C388 1.403 . S
C382 C372 1.476 . S
C382 N377 1.318 . S
C382 C381 1.396 . S
H383 C378 0.929 . S
O384 Mn360 2.385 . S
O384 C362 1.234 . S
O385 Mn360 2.209 . S
O385 Mn361 2.215 . S
O385 C362 1.283 . S
O386 Mn360 2.094 . S
O386 C364 1.240 . S
O387 Mn361 2.117 . S
O387 C364 1.264 . S
C388 C381 1.403 . S
C388 C389 1.399 . S
C388 H394 0.929 . S
C389 C369 1.449 . S
C389 C388 1.399 . S
C389 H395 0.930 . S
H390 C370 0.931 . S
H391 C371 0.930 . S
H392 C379 0.931 . S
H393 C380 0.929 . S
H394 C388 0.929 . S
H395 C389 0.930 . S
Mn396 O401 2.095 . S
Mn396 O411 2.162 . S
Mn396 O412 2.297 . S
Mn396 O420 2.385 . S
Mn396 O421 2.209 . S
Mn396 O422 2.094 . S
Mn397 O402 2.121 . S
Mn397 N404 2.257 . S
Mn397 N413 2.282 . S
Mn397 O421 2.215 . S
Mn397 O423 2.117 . S
C398 O420 1.234 . S
C398 O421 1.283 . S
C399 O411 1.281 . S
C399 O412 1.236 . S
C400 O422 1.240 . S
C400 O423 1.264 . S
O401 Mn396 2.095 . S
O401 C410 1.250 . S
O402 Mn397 2.121 . S
O402 C410 1.258 . S
C403 N404 1.326 . S
C403 C407 1.460 . S
C403 H409 0.929 . S
N404 Mn397 2.257 . S
N404 C403 1.326 . S
N404 C408 1.362 . S
C405 C406 1.258 . S
C405 C408 1.431 . S
C405 C425 1.449 . S
C406 C405 1.258 . S
C406 C407 1.477 . S
C406 H426 0.931 . S
C407 C403 1.460 . S
C407 C406 1.477 . S
C407 H427 0.930 . S
C408 N404 1.362 . S
C408 C405 1.431 . S
C408 C418 1.476 . S
H409 C403 0.929 . S
C410 O401 1.250 . S
C410 O402 1.258 . S
O411 Mn396 2.162 . S
O411 C399 1.281 . S
O412 Mn396 2.297 . S
O412 C399 1.236 . S
N413 Mn397 2.282 . S
N413 C414 1.328 . S
N413 C418 1.318 . S
C414 N413 1.328 . S
C414 C415 1.457 . S
C414 H419 0.929 . S
C415 C414 1.457 . S
C415 C416 1.291 . S
C415 H428 0.931 . S
C416 C415 1.291 . S
C416 C417 1.373 . S
C416 H429 0.929 . S
C417 C416 1.373 . S
C417 C418 1.396 . S
C417 C424 1.403 . S
C418 C408 1.476 . S
C418 N413 1.318 . S
C418 C417 1.396 . S
H419 C414 0.929 . S
O420 Mn396 2.385 . S
O420 C398 1.234 . S
O421 Mn396 2.209 . S
O421 Mn397 2.215 . S
O421 C398 1.283 . S
O422 Mn396 2.094 . S
O422 C400 1.240 . S
O423 Mn397 2.117 . S
O423 C400 1.264 . S
C424 C417 1.403 . S
C424 C425 1.399 . S
C424 H430 0.929 . S
C425 C405 1.449 . S
C425 C424 1.399 . S
C425 H431 0.930 . S
H426 C406 0.931 . S
H427 C407 0.930 . S
H428 C415 0.931 . S
H429 C416 0.929 . S
H430 C424 0.929 . S
H431 C425 0.930 . S
Mn432 O437 2.095 . S
Mn432 O447 2.162 . S
Mn432 O448 2.297 . S
Mn432 O456 2.385 . S
Mn432 O457 2.209 . S
Mn432 O458 2.094 . S
Mn433 O438 2.121 . S
Mn433 N440 2.257 . S
Mn433 N449 2.282 . S
Mn433 O457 2.215 . S
Mn433 O459 2.117 . S
C434 O456 1.234 . S
C434 O457 1.283 . S
C435 O447 1.281 . S
C435 O448 1.236 . S
C436 O458 1.240 . S
C436 O459 1.264 . S
O437 Mn432 2.095 . S
O437 C446 1.250 . S
O438 Mn433 2.121 . S
O438 C446 1.258 . S
C439 N440 1.326 . S
C439 C443 1.460 . S
C439 H445 0.929 . S
N440 Mn433 2.257 . S
N440 C439 1.326 . S
N440 C444 1.362 . S
C441 C442 1.258 . S
C441 C444 1.431 . S
C441 C461 1.449 . S
C442 C441 1.258 . S
C442 C443 1.477 . S
C442 H462 0.931 . S
C443 C439 1.460 . S
C443 C442 1.477 . S
C443 H463 0.930 . S
C444 N440 1.362 . S
C444 C441 1.431 . S
C444 C454 1.476 . S
H445 C439 0.929 . S
C446 O437 1.250 . S
C446 O438 1.258 . S
O447 Mn432 2.162 . S
O447 C435 1.281 . S
O448 Mn432 2.297 . S
O448 C435 1.236 . S
N449 Mn433 2.282 . S
N449 C450 1.328 . S
N449 C454 1.318 . S
C450 N449 1.328 . S
C450 C451 1.457 . S
C450 H455 0.929 . S
C451 C450 1.457 . S
C451 C452 1.291 . S
C451 H464 0.931 . S
C452 C451 1.291 . S
C452 C453 1.373 . S
C452 H465 0.929 . S
C453 C452 1.373 . S
C453 C454 1.396 . S
C453 C460 1.403 . S
C454 C444 1.476 . S
C454 N449 1.318 . S
C454 C453 1.396 . S
H455 C450 0.929 . S
O456 Mn432 2.385 . S
O456 C434 1.234 . S
O457 Mn432 2.209 . S
O457 Mn433 2.215 . S
O457 C434 1.283 . S
O458 Mn432 2.094 . S
O458 C436 1.240 . S
O459 Mn433 2.117 . S
O459 C436 1.264 . S
C460 C453 1.403 . S
C460 C461 1.399 . S
C460 H466 0.929 . S
C461 C441 1.449 . S
C461 C460 1.399 . S
C461 H467 0.930 . S
H462 C442 0.931 . S
H463 C443 0.930 . S
H464 C451 0.931 . S
H465 C452 0.929 . S
H466 C460 0.929 . S
H467 C461 0.930 . S
Mn468 O473 2.095 . S
Mn468 O483 2.162 . S
Mn468 O484 2.297 . S
Mn468 O492 2.385 . S
Mn468 O493 2.209 . S
Mn468 O494 2.094 . S
Mn469 O474 2.121 . S
Mn469 N476 2.257 . S
Mn469 N485 2.282 . S
Mn469 O493 2.215 . S
Mn469 O495 2.117 . S
C470 O492 1.234 . S
C470 O493 1.283 . S
C471 O483 1.281 . S
C471 O484 1.236 . S
C472 O494 1.240 . S
C472 O495 1.264 . S
O473 Mn468 2.095 . S
O473 C482 1.250 . S
O474 Mn469 2.121 . S
O474 C482 1.258 . S
C475 N476 1.326 . S
C475 C479 1.460 . S
C475 H481 0.929 . S
N476 Mn469 2.257 . S
N476 C475 1.326 . S
N476 C480 1.362 . S
C477 C478 1.258 . S
C477 C480 1.431 . S
C477 C497 1.449 . S
C478 C477 1.258 . S
C478 C479 1.477 . S
C478 H498 0.931 . S
C479 C475 1.460 . S
C479 C478 1.477 . S
C479 H499 0.930 . S
C480 N476 1.362 . S
C480 C477 1.431 . S
C480 C490 1.476 . S
H481 C475 0.929 . S
C482 O473 1.250 . S
C482 O474 1.258 . S
O483 Mn468 2.162 . S
O483 C471 1.281 . S
O484 Mn468 2.297 . S
O484 C471 1.236 . S
N485 Mn469 2.282 . S
N485 C486 1.328 . S
N485 C490 1.318 . S
C486 N485 1.328 . S
C486 C487 1.457 . S
C486 H491 0.929 . S
C487 C486 1.457 . S
C487 C488 1.291 . S
C487 H500 0.931 . S
C488 C487 1.291 . S
C488 C489 1.373 . S
C488 H501 0.929 . S
C489 C488 1.373 . S
C489 C490 1.396 . S
C489 C496 1.403 . S
C490 C480 1.476 . S
C490 N485 1.318 . S
C490 C489 1.396 . S
H491 C486 0.929 . S
O492 Mn468 2.385 . S
O492 C470 1.234 . S
O493 Mn468 2.209 . S
O493 Mn469 2.215 . S
O493 C470 1.283 . S
O494 Mn468 2.094 . S
O494 C472 1.240 . S
O495 Mn469 2.117 . S
O495 C472 1.264 . S
C496 C489 1.403 . S
C496 C497 1.399 . S
C496 H502 0.929 . S
C497 C477 1.449 . S
C497 C496 1.399 . S
C497 H503 0.930 . S
H498 C478 0.931 . S
H499 C479 0.930 . S
H500 C487 0.931 . S
H501 C488 0.929 . S
H502 C496 0.929 . S
H503 C497 0.930 . S
Mn504 O509 2.095 . S
Mn504 O519 2.162 . S
Mn504 O520 2.297 . S
Mn504 O528 2.385 . S
Mn504 O529 2.209 . S
Mn504 O530 2.094 . S
Mn505 O510 2.121 . S
Mn505 N512 2.257 . S
Mn505 N521 2.282 . S
Mn505 O529 2.215 . S
Mn505 O531 2.117 . S
C506 O528 1.234 . S
C506 O529 1.283 . S
C507 O519 1.281 . S
C507 O520 1.236 . S
C508 O530 1.240 . S
C508 O531 1.264 . S
O509 Mn504 2.095 . S
O509 C518 1.250 . S
O510 Mn505 2.121 . S
O510 C518 1.258 . S
C511 N512 1.326 . S
C511 C515 1.460 . S
C511 H517 0.929 . S
N512 Mn505 2.257 . S
N512 C511 1.326 . S
N512 C516 1.362 . S
C513 C514 1.258 . S
C513 C516 1.431 . S
C513 C533 1.449 . S
C514 C513 1.258 . S
C514 C515 1.477 . S
C514 H534 0.931 . S
C515 C511 1.460 . S
C515 C514 1.477 . S
C515 H535 0.930 . S
C516 N512 1.362 . S
C516 C513 1.431 . S
C516 C526 1.476 . S
H517 C511 0.929 . S
C518 O509 1.250 . S
C518 O510 1.258 . S
O519 Mn504 2.162 . S
O519 C507 1.281 . S
O520 Mn504 2.297 . S
O520 C507 1.236 . S
N521 Mn505 2.282 . S
N521 C522 1.328 . S
N521 C526 1.318 . S
C522 N521 1.328 . S
C522 C523 1.457 . S
C522 H527 0.929 . S
C523 C522 1.457 . S
C523 C524 1.291 . S
C523 H536 0.931 . S
C524 C523 1.291 . S
C524 C525 1.373 . S
C524 H537 0.929 . S
C525 C524 1.373 . S
C525 C526 1.396 . S
C525 C532 1.403 . S
C526 C516 1.476 . S
C526 N521 1.318 . S
C526 C525 1.396 . S
H527 C522 0.929 . S
O528 Mn504 2.385 . S
O528 C506 1.234 . S
O529 Mn504 2.209 . S
O529 Mn505 2.215 . S
O529 C506 1.283 . S
O530 Mn504 2.094 . S
O530 C508 1.240 . S
O531 Mn505 2.117 . S
O531 C508 1.264 . S
C532 C525 1.403 . S
C532 C533 1.399 . S
C532 H538 0.929 . S
C533 C513 1.449 . S
C533 C532 1.399 . S
C533 H539 0.930 . S
H534 C514 0.931 . S
H535 C515 0.930 . S
H536 C523 0.931 . S
H537 C524 0.929 . S
H538 C532 0.929 . S
H539 C533 0.930 . S
Mn540 O545 2.095 . S
Mn540 O555 2.162 . S
Mn540 O556 2.297 . S
Mn540 O564 2.385 . S
Mn540 O565 2.209 . S
Mn540 O566 2.094 . S
Mn541 O546 2.121 . S
Mn541 N548 2.257 . S
Mn541 N557 2.282 . S
Mn541 O565 2.215 . S
Mn541 O567 2.117 . S
C542 O564 1.234 . S
C542 O565 1.283 . S
C543 O555 1.281 . S
C543 O556 1.236 . S
C544 O566 1.240 . S
C544 O567 1.264 . S
O545 Mn540 2.095 . S
O545 C554 1.250 . S
O546 Mn541 2.121 . S
O546 C554 1.258 . S
C547 N548 1.326 . S
C547 C551 1.460 . S
C547 H553 0.929 . S
N548 Mn541 2.257 . S
N548 C547 1.326 . S
N548 C552 1.362 . S
C549 C550 1.258 . S
C549 C552 1.431 . S
C549 C569 1.449 . S
C550 C549 1.258 . S
C550 C551 1.477 . S
C550 H570 0.931 . S
C551 C547 1.460 . S
C551 C550 1.477 . S
C551 H571 0.930 . S
C552 N548 1.362 . S
C552 C549 1.431 . S
C552 C562 1.476 . S
H553 C547 0.929 . S
C554 O545 1.250 . S
C554 O546 1.258 . S
O555 Mn540 2.162 . S
O555 C543 1.281 . S
O556 Mn540 2.297 . S
O556 C543 1.236 . S
N557 Mn541 2.282 . S
N557 C558 1.328 . S
N557 C562 1.318 . S
C558 N557 1.328 . S
C558 C559 1.457 . S
C558 H563 0.929 . S
C559 C558 1.457 . S
C559 C560 1.291 . S
C559 H572 0.931 . S
C560 C559 1.291 . S
C560 C561 1.373 . S
C560 H573 0.929 . S
C561 C560 1.373 . S
C561 C562 1.396 . S
C561 C568 1.403 . S
C562 C552 1.476 . S
C562 N557 1.318 . S
C562 C561 1.396 . S
H563 C558 0.929 . S
O564 Mn540 2.385 . S
O564 C542 1.234 . S
O565 Mn540 2.209 . S
O565 Mn541 2.215 . S
O565 C542 1.283 . S
O566 Mn540 2.094 . S
O566 C544 1.240 . S
O567 Mn541 2.117 . S
O567 C544 1.264 . S
C568 C561 1.403 . S
C568 C569 1.399 . S
C568 H574 0.929 . S
C569 C549 1.449 . S
C569 C568 1.399 . S
C569 H575 0.930 . S
H570 C550 0.931 . S
H571 C551 0.930 . S
H572 C559 0.931 . S
H573 C560 0.929 . S
H574 C568 0.929 . S
H575 C569 0.930 . S
Mn576 O581 2.095 . S
Mn576 O591 2.162 . S
Mn576 O592 2.297 . S
Mn576 O600 2.385 . S
Mn576 O601 2.209 . S
Mn576 O602 2.094 . S
Mn577 O582 2.121 . S
Mn577 N584 2.257 . S
Mn577 N593 2.282 . S
Mn577 O601 2.215 . S
Mn577 O603 2.117 . S
C578 O600 1.234 . S
C578 O601 1.283 . S
C579 O591 1.281 . S
C579 O592 1.236 . S
C580 O602 1.240 . S
C580 O603 1.264 . S
O581 Mn576 2.095 . S
O581 C590 1.250 . S
O582 Mn577 2.121 . S
O582 C590 1.258 . S
C583 N584 1.326 . S
C583 C587 1.460 . S
C583 H589 0.929 . S
N584 Mn577 2.257 . S
N584 C583 1.326 . S
N584 C588 1.362 . S
C585 C586 1.258 . S
C585 C588 1.431 1_554 S
C585 C605 1.449 . S
C586 C585 1.258 . S
C586 C587 1.477 1_554 S
C586 H606 0.931 . S
C587 C583 1.460 . S
C587 C586 1.477 1_556 S
C587 H607 0.930 . S
C588 N584 1.362 . S
C588 C585 1.431 1_556 S
C588 C598 1.476 1_556 S
H589 C583 0.929 . S
C590 O581 1.250 . S
C590 O582 1.258 . S
O591 Mn576 2.162 . S
O591 C579 1.281 . S
O592 Mn576 2.297 . S
O592 C579 1.236 . S
N593 Mn577 2.282 . S
N593 C594 1.328 1_556 S
N593 C598 1.318 1_556 S
C594 N593 1.328 1_554 S
C594 C595 1.457 . S
C594 H599 0.929 1_554 S
C595 C594 1.457 . S
C595 C596 1.291 . S
C595 H608 0.931 . S
C596 C595 1.291 . S
C596 C597 1.373 . S
C596 H609 0.929 . S
C597 C596 1.373 . S
C597 C598 1.396 . S
C597 C604 1.403 . S
C598 C588 1.476 1_554 S
C598 N593 1.318 1_554 S
C598 C597 1.396 . S
H599 C594 0.929 1_556 S
O600 Mn576 2.385 . S
O600 C578 1.234 . S
O601 Mn576 2.209 . S
O601 Mn577 2.215 . S
O601 C578 1.283 . S
O602 Mn576 2.094 . S
O602 C580 1.240 . S
O603 Mn577 2.117 . S
O603 C580 1.264 . S
C604 C597 1.403 . S
C604 C605 1.399 . S
C604 H610 0.929 . S
C605 C585 1.449 . S
C605 C604 1.399 . S
C605 H611 0.930 . S
H606 C586 0.931 . S
H607 C587 0.930 . S
H608 C595 0.931 . S
H609 C596 0.929 . S
H610 C604 0.929 . S
H611 C605 0.930 . S
Mn612 O617 2.095 . S
Mn612 O627 2.162 . S
Mn612 O628 2.297 . S
Mn612 O636 2.385 . S
Mn612 O637 2.209 . S
Mn612 O638 2.094 . S
Mn613 O618 2.121 . S
Mn613 N620 2.257 . S
Mn613 N629 2.282 . S
Mn613 O637 2.215 . S
Mn613 O639 2.117 . S
C614 O636 1.234 . S
C614 O637 1.283 . S
C615 O627 1.281 . S
C615 O628 1.236 . S
C616 O638 1.240 . S
C616 O639 1.264 . S
O617 Mn612 2.095 . S
O617 C626 1.250 . S
O618 Mn613 2.121 . S
O618 C626 1.258 . S
C619 N620 1.326 . S
C619 C623 1.460 . S
C619 H625 0.929 . S
N620 Mn613 2.257 . S
N620 C619 1.326 . S
N620 C624 1.362 . S
C621 C622 1.258 . S
C621 C624 1.431 . S
C621 C641 1.449 . S
C622 C621 1.258 . S
C622 C623 1.477 . S
C622 H642 0.931 . S
C623 C619 1.460 . S
C623 C622 1.477 . S
C623 H643 0.930 . S
C624 N620 1.362 . S
C624 C621 1.431 . S
C624 C634 1.476 . S
H625 C619 0.929 . S
C626 O617 1.250 . S
C626 O618 1.258 . S
O627 Mn612 2.162 . S
O627 C615 1.281 . S
O628 Mn612 2.297 . S
O628 C615 1.236 . S
N629 Mn613 2.282 . S
N629 C630 1.328 1_556 S
N629 C634 1.318 . S
C630 N629 1.328 1_554 S
C630 C631 1.457 . S
C630 H635 0.929 . S
C631 C630 1.457 . S
C631 C632 1.291 . S
C631 H644 0.931 . S
C632 C631 1.291 . S
C632 C633 1.373 1_554 S
C632 H645 0.929 . S
C633 C632 1.373 1_556 S
C633 C634 1.396 . S
C633 C640 1.403 . S
C634 C624 1.476 . S
C634 N629 1.318 . S
C634 C633 1.396 . S
H635 C630 0.929 . S
O636 Mn612 2.385 . S
O636 C614 1.234 . S
O637 Mn612 2.209 . S
O637 Mn613 2.215 . S
O637 C614 1.283 . S
O638 Mn612 2.094 . S
O638 C616 1.240 . S
O639 Mn613 2.117 . S
O639 C616 1.264 . S
C640 C633 1.403 . S
C640 C641 1.399 . S
C640 H646 0.929 . S
C641 C621 1.449 . S
C641 C640 1.399 . S
C641 H647 0.930 . S
H642 C622 0.931 . S
H643 C623 0.930 . S
H644 C631 0.931 . S
H645 C632 0.929 . S
H646 C640 0.929 . S
H647 C641 0.930 . S
Mn648 O653 2.095 . S
Mn648 O663 2.162 . S
Mn648 O664 2.297 . S
Mn648 O672 2.385 . S
Mn648 O673 2.209 . S
Mn648 O674 2.094 . S
Mn649 O654 2.121 . S
Mn649 N656 2.257 . S
Mn649 N665 2.282 . S
Mn649 O673 2.215 . S
Mn649 O675 2.117 . S
C650 O672 1.234 . S
C650 O673 1.283 . S
C651 O663 1.281 . S
C651 O664 1.236 . S
C652 O674 1.240 . S
C652 O675 1.264 . S
O653 Mn648 2.095 . S
O653 C662 1.250 . S
O654 Mn649 2.121 . S
O654 C662 1.258 . S
C655 N656 1.326 . S
C655 C659 1.460 . S
C655 H661 0.929 . S
N656 Mn649 2.257 . S
N656 C655 1.326 . S
N656 C660 1.362 . S
C657 C658 1.258 . S
C657 C660 1.431 1_554 S
C657 C677 1.449 . S
C658 C657 1.258 . S
C658 C659 1.477 1_554 S
C658 H678 0.931 . S
C659 C655 1.460 . S
C659 C658 1.477 1_556 S
C659 H679 0.930 . S
C660 N656 1.362 . S
C660 C657 1.431 1_556 S
C660 C670 1.476 1_556 S
H661 C655 0.929 . S
C662 O653 1.250 . S
C662 O654 1.258 . S
O663 Mn648 2.162 . S
O663 C651 1.281 . S
O664 Mn648 2.297 . S
O664 C651 1.236 . S
N665 Mn649 2.282 . S
N665 C666 1.328 1_556 S
N665 C670 1.318 1_556 S
C666 N665 1.328 1_554 S
C666 C667 1.457 . S
C666 H671 0.929 1_554 S
C667 C666 1.457 . S
C667 C668 1.291 . S
C667 H680 0.931 . S
C668 C667 1.291 . S
C668 C669 1.373 . S
C668 H681 0.929 . S
C669 C668 1.373 . S
C669 C670 1.396 . S
C669 C676 1.403 . S
C670 C660 1.476 1_554 S
C670 N665 1.318 1_554 S
C670 C669 1.396 . S
H671 C666 0.929 1_556 S
O672 Mn648 2.385 . S
O672 C650 1.234 . S
O673 Mn648 2.209 . S
O673 Mn649 2.215 . S
O673 C650 1.283 . S
O674 Mn648 2.094 . S
O674 C652 1.240 . S
O675 Mn649 2.117 . S
O675 C652 1.264 . S
C676 C669 1.403 . S
C676 C677 1.399 . S
C676 H682 0.929 . S
C677 C657 1.449 . S
C677 C676 1.399 . S
C677 H683 0.930 . S
H678 C658 0.931 . S
H679 C659 0.930 . S
H680 C667 0.931 . S
H681 C668 0.929 . S
H682 C676 0.929 . S
H683 C677 0.930 . S
Mn684 O689 2.095 . S
Mn684 O699 2.162 . S
Mn684 O700 2.297 . S
Mn684 O708 2.385 . S
Mn684 O709 2.209 . S
Mn684 O710 2.094 . S
Mn685 O690 2.121 . S
Mn685 N692 2.257 . S
Mn685 N701 2.282 . S
Mn685 O709 2.215 . S
Mn685 O711 2.117 . S
C686 O708 1.234 . S
C686 O709 1.283 . S
C687 O699 1.281 . S
C687 O700 1.236 . S
C688 O710 1.240 . S
C688 O711 1.264 . S
O689 Mn684 2.095 . S
O689 C698 1.250 . S
O690 Mn685 2.121 . S
O690 C698 1.258 . S
C691 N692 1.326 . S
C691 C695 1.460 . S
C691 H697 0.929 . S
N692 Mn685 2.257 . S
N692 C691 1.326 . S
N692 C696 1.362 . S
C693 C694 1.258 . S
C693 C696 1.431 . S
C693 C713 1.449 . S
C694 C693 1.258 . S
C694 C695 1.477 . S
C694 H714 0.931 . S
C695 C691 1.460 . S
C695 C694 1.477 . S
C695 H715 0.930 . S
C696 N692 1.362 . S
C696 C693 1.431 . S
C696 C706 1.476 . S
H697 C691 0.929 . S
C698 O689 1.250 . S
C698 O690 1.258 . S
O699 Mn684 2.162 . S
O699 C687 1.281 . S
O700 Mn684 2.297 . S
O700 C687 1.236 . S
N701 Mn685 2.282 . S
N701 C702 1.328 1_556 S
N701 C706 1.318 . S
C702 N701 1.328 1_554 S
C702 C703 1.457 . S
C702 H707 0.929 . S
C703 C702 1.457 . S
C703 C704 1.291 . S
C703 H716 0.931 . S
C704 C703 1.291 . S
C704 C705 1.373 1_554 S
C704 H717 0.929 . S
C705 C704 1.373 1_556 S
C705 C706 1.396 . S
C705 C712 1.403 . S
C706 C696 1.476 . S
C706 N701 1.318 . S
C706 C705 1.396 . S
H707 C702 0.929 . S
O708 Mn684 2.385 . S
O708 C686 1.234 . S
O709 Mn684 2.209 . S
O709 Mn685 2.215 . S
O709 C686 1.283 . S
O710 Mn684 2.094 . S
O710 C688 1.240 . S
O711 Mn685 2.117 . S
O711 C688 1.264 . S
C712 C705 1.403 . S
C712 C713 1.399 . S
C712 H718 0.929 . S
C713 C693 1.449 . S
C713 C712 1.399 . S
C713 H719 0.930 . S
H714 C694 0.931 . S
H715 C695 0.930 . S
H716 C703 0.931 . S
H717 C704 0.929 . S
H718 C712 0.929 . S
H719 C713 0.930 . S
Mn720 O725 2.095 . S
Mn720 O735 2.162 . S
Mn720 O736 2.297 . S
Mn720 O744 2.385 . S
Mn720 O745 2.209 . S
Mn720 O746 2.094 . S
Mn721 O726 2.121 . S
Mn721 N728 2.257 . S
Mn721 N737 2.282 . S
Mn721 O745 2.215 . S
Mn721 O747 2.117 . S
C722 O744 1.234 . S
C722 O745 1.283 . S
C723 O735 1.281 . S
C723 O736 1.236 . S
C724 O746 1.240 . S
C724 O747 1.264 . S
O725 Mn720 2.095 . S
O725 C734 1.250 . S
O726 Mn721 2.121 . S
O726 C734 1.258 . S
C727 N728 1.326 . S
C727 C731 1.460 . S
C727 H733 0.929 . S
N728 Mn721 2.257 . S
N728 C727 1.326 . S
N728 C732 1.362 . S
C729 C730 1.258 . S
C729 C732 1.431 1_556 S
C729 C749 1.449 . S
C730 C729 1.258 . S
C730 C731 1.477 1_556 S
C730 H750 0.931 . S
C731 C727 1.460 . S
C731 C730 1.477 1_554 S
C731 H751 0.930 . S
C732 N728 1.362 . S
C732 C729 1.431 1_554 S
C732 C742 1.476 1_554 S
H733 C727 0.929 . S
C734 O725 1.250 . S
C734 O726 1.258 . S
O735 Mn720 2.162 . S
O735 C723 1.281 . S
O736 Mn720 2.297 . S
O736 C723 1.236 . S
N737 Mn721 2.282 . S
N737 C738 1.328 1_554 S
N737 C742 1.318 1_554 S
C738 N737 1.328 1_556 S
C738 C739 1.457 . S
C738 H743 0.929 1_556 S
C739 C738 1.457 . S
C739 C740 1.291 . S
C739 H752 0.931 . S
C740 C739 1.291 . S
C740 C741 1.373 . S
C740 H753 0.929 . S
C741 C740 1.373 . S
C741 C742 1.396 . S
C741 C748 1.403 . S
C742 C732 1.476 1_556 S
C742 N737 1.318 1_556 S
C742 C741 1.396 . S
H743 C738 0.929 1_554 S
O744 Mn720 2.385 . S
O744 C722 1.234 . S
O745 Mn720 2.209 . S
O745 Mn721 2.215 . S
O745 C722 1.283 . S
O746 Mn720 2.094 . S
O746 C724 1.240 . S
O747 Mn721 2.117 . S
O747 C724 1.264 . S
C748 C741 1.403 . S
C748 C749 1.399 . S
C748 H754 0.929 . S
C749 C729 1.449 . S
C749 C748 1.399 . S
C749 H755 0.930 . S
H750 C730 0.931 . S
H751 C731 0.930 . S
H752 C739 0.931 . S
H753 C740 0.929 . S
H754 C748 0.929 . S
H755 C749 0.930 . S
Mn756 O761 2.095 . S
Mn756 O771 2.162 . S
Mn756 O772 2.297 . S
Mn756 O780 2.385 . S
Mn756 O781 2.209 . S
Mn756 O782 2.094 . S
Mn757 O762 2.121 . S
Mn757 N764 2.257 . S
Mn757 N773 2.282 . S
Mn757 O781 2.215 . S
Mn757 O783 2.117 . S
C758 O780 1.234 . S
C758 O781 1.283 . S
C759 O771 1.281 . S
C759 O772 1.236 . S
C760 O782 1.240 . S
C760 O783 1.264 . S
O761 Mn756 2.095 . S
O761 C770 1.250 . S
O762 Mn757 2.121 . S
O762 C770 1.258 . S
C763 N764 1.326 . S
C763 C767 1.460 . S
C763 H769 0.929 . S
N764 Mn757 2.257 . S
N764 C763 1.326 . S
N764 C768 1.362 . S
C765 C766 1.258 . S
C765 C768 1.431 . S
C765 C785 1.449 . S
C766 C765 1.258 . S
C766 C767 1.477 . S
C766 H786 0.931 . S
C767 C763 1.460 . S
C767 C766 1.477 . S
C767 H787 0.930 . S
C768 N764 1.362 . S
C768 C765 1.431 . S
C768 C778 1.476 . S
H769 C763 0.929 . S
C770 O761 1.250 . S
C770 O762 1.258 . S
O771 Mn756 2.162 . S
O771 C759 1.281 . S
O772 Mn756 2.297 . S
O772 C759 1.236 . S
N773 Mn757 2.282 . S
N773 C774 1.328 1_554 S
N773 C778 1.318 . S
C774 N773 1.328 1_556 S
C774 C775 1.457 . S
C774 H779 0.929 . S
C775 C774 1.457 . S
C775 C776 1.291 . S
C775 H788 0.931 . S
C776 C775 1.291 . S
C776 C777 1.373 1_556 S
C776 H789 0.929 . S
C777 C776 1.373 1_554 S
C777 C778 1.396 . S
C777 C784 1.403 . S
C778 C768 1.476 . S
C778 N773 1.318 . S
C778 C777 1.396 . S
H779 C774 0.929 . S
O780 Mn756 2.385 . S
O780 C758 1.234 . S
O781 Mn756 2.209 . S
O781 Mn757 2.215 . S
O781 C758 1.283 . S
O782 Mn756 2.094 . S
O782 C760 1.240 . S
O783 Mn757 2.117 . S
O783 C760 1.264 . S
C784 C777 1.403 . S
C784 C785 1.399 . S
C784 H790 0.929 . S
C785 C765 1.449 . S
C785 C784 1.399 . S
C785 H791 0.930 . S
H786 C766 0.931 . S
H787 C767 0.930 . S
H788 C775 0.931 . S
H789 C776 0.929 . S
H790 C784 0.929 . S
H791 C785 0.930 . S
Mn792 O797 2.095 . S
Mn792 O807 2.162 . S
Mn792 O808 2.297 . S
Mn792 O816 2.385 . S
Mn792 O817 2.209 . S
Mn792 O818 2.094 . S
Mn793 O798 2.121 . S
Mn793 N800 2.257 . S
Mn793 N809 2.282 . S
Mn793 O817 2.215 . S
Mn793 O819 2.117 . S
C794 O816 1.234 . S
C794 O817 1.283 . S
C795 O807 1.281 . S
C795 O808 1.236 . S
C796 O818 1.240 . S
C796 O819 1.264 . S
O797 Mn792 2.095 . S
O797 C806 1.250 . S
O798 Mn793 2.121 . S
O798 C806 1.258 . S
C799 N800 1.326 . S
C799 C803 1.460 . S
C799 H805 0.929 . S
N800 Mn793 2.257 . S
N800 C799 1.326 . S
N800 C804 1.362 . S
C801 C802 1.258 . S
C801 C804 1.431 1_556 S
C801 C821 1.449 . S
C802 C801 1.258 . S
C802 C803 1.477 1_556 S
C802 H822 0.931 . S
C803 C799 1.460 . S
C803 C802 1.477 1_554 S
C803 H823 0.930 . S
C804 N800 1.362 . S
C804 C801 1.431 1_554 S
C804 C814 1.476 1_554 S
H805 C799 0.929 . S
C806 O797 1.250 . S
C806 O798 1.258 . S
O807 Mn792 2.162 . S
O807 C795 1.281 . S
O808 Mn792 2.297 . S
O808 C795 1.236 . S
N809 Mn793 2.282 . S
N809 C810 1.328 1_554 S
N809 C814 1.318 1_554 S
C810 N809 1.328 1_556 S
C810 C811 1.457 . S
C810 H815 0.929 1_556 S
C811 C810 1.457 . S
C811 C812 1.291 . S
C811 H824 0.931 . S
C812 C811 1.291 . S
C812 C813 1.373 . S
C812 H825 0.929 . S
C813 C812 1.373 . S
C813 C814 1.396 . S
C813 C820 1.403 . S
C814 C804 1.476 1_556 S
C814 N809 1.318 1_556 S
C814 C813 1.396 . S
H815 C810 0.929 1_554 S
O816 Mn792 2.385 . S
O816 C794 1.234 . S
O817 Mn792 2.209 . S
O817 Mn793 2.215 . S
O817 C794 1.283 . S
O818 Mn792 2.094 . S
O818 C796 1.240 . S
O819 Mn793 2.117 . S
O819 C796 1.264 . S
C820 C813 1.403 . S
C820 C821 1.399 . S
C820 H826 0.929 . S
C821 C801 1.449 . S
C821 C820 1.399 . S
C821 H827 0.930 . S
H822 C802 0.931 . S
H823 C803 0.930 . S
H824 C811 0.931 . S
H825 C812 0.929 . S
H826 C820 0.929 . S
H827 C821 0.930 . S
Mn828 O833 2.095 . S
Mn828 O843 2.162 . S
Mn828 O844 2.297 . S
Mn828 O852 2.385 . S
Mn828 O853 2.209 . S
Mn828 O854 2.094 . S
Mn829 O834 2.121 . S
Mn829 N836 2.257 . S
Mn829 N845 2.282 . S
Mn829 O853 2.215 . S
Mn829 O855 2.117 . S
C830 O852 1.234 . S
C830 O853 1.283 . S
C831 O843 1.281 . S
C831 O844 1.236 . S
C832 O854 1.240 . S
C832 O855 1.264 . S
O833 Mn828 2.095 . S
O833 C842 1.250 . S
O834 Mn829 2.121 . S
O834 C842 1.258 . S
C835 N836 1.326 . S
C835 C839 1.460 . S
C835 H841 0.929 . S
N836 Mn829 2.257 . S
N836 C835 1.326 . S
N836 C840 1.362 . S
C837 C838 1.258 . S
C837 C840 1.431 . S
C837 C857 1.449 . S
C838 C837 1.258 . S
C838 C839 1.477 . S
C838 H858 0.931 . S
C839 C835 1.460 . S
C839 C838 1.477 . S
C839 H859 0.930 . S
C840 N836 1.362 . S
C840 C837 1.431 . S
C840 C850 1.476 . S
H841 C835 0.929 . S
C842 O833 1.250 . S
C842 O834 1.258 . S
O843 Mn828 2.162 . S
O843 C831 1.281 . S
O844 Mn828 2.297 . S
O844 C831 1.236 . S
N845 Mn829 2.282 . S
N845 C846 1.328 1_554 S
N845 C850 1.318 . S
C846 N845 1.328 1_556 S
C846 C847 1.457 . S
C846 H851 0.929 . S
C847 C846 1.457 . S
C847 C848 1.291 . S
C847 H860 0.931 . S
C848 C847 1.291 . S
C848 C849 1.373 1_556 S
C848 H861 0.929 . S
C849 C848 1.373 1_554 S
C849 C850 1.396 . S
C849 C856 1.403 . S
C850 C840 1.476 . S
C850 N845 1.318 . S
C850 C849 1.396 . S
H851 C846 0.929 . S
O852 Mn828 2.385 . S
O852 C830 1.234 . S
O853 Mn828 2.209 . S
O853 Mn829 2.215 . S
O853 C830 1.283 . S
O854 Mn828 2.094 . S
O854 C832 1.240 . S
O855 Mn829 2.117 . S
O855 C832 1.264 . S
C856 C849 1.403 . S
C856 C857 1.399 . S
C856 H862 0.929 . S
C857 C837 1.449 . S
C857 C856 1.399 . S
C857 H863 0.930 . S
H858 C838 0.931 . S
H859 C839 0.930 . S
H860 C847 0.931 . S
H861 C848 0.929 . S
H862 C856 0.929 . S
H863 C857 0.930 . S
Mn864 O869 2.095 . S
Mn864 O879 2.162 . S
Mn864 O880 2.297 . S
Mn864 O888 2.385 . S
Mn864 O889 2.209 . S
Mn864 O890 2.094 . S
Mn865 O870 2.121 . S
Mn865 N872 2.257 . S
Mn865 N881 2.282 . S
Mn865 O889 2.215 . S
Mn865 O891 2.117 . S
C866 O888 1.234 . S
C866 O889 1.283 . S
C867 O879 1.281 . S
C867 O880 1.236 . S
C868 O890 1.240 . S
C868 O891 1.264 . S
O869 Mn864 2.095 . S
O869 C878 1.250 . S
O870 Mn865 2.121 . S
O870 C878 1.258 . S
C871 N872 1.326 . S
C871 C875 1.460 . S
C871 H877 0.929 . S
N872 Mn865 2.257 . S
N872 C871 1.326 . S
N872 C876 1.362 1_554 S
C873 C874 1.258 . S
C873 C876 1.431 . S
C873 C893 1.449 . S
C874 C873 1.258 . S
C874 C875 1.477 1_556 S
C874 H894 0.931 . S
C875 C871 1.460 . S
C875 C874 1.477 1_554 S
C875 H895 0.930 . S
C876 N872 1.362 1_556 S
C876 C873 1.431 . S
C876 C886 1.476 . S
H877 C871 0.929 . S
C878 O869 1.250 . S
C878 O870 1.258 . S
O879 Mn864 2.162 . S
O879 C867 1.281 . S
O880 Mn864 2.297 . S
O880 C867 1.236 . S
N881 Mn865 2.282 . S
N881 C882 1.328 1_554 S
N881 C886 1.318 1_554 S
C882 N881 1.328 1_556 S
C882 C883 1.457 . S
C882 H887 0.929 1_556 S
C883 C882 1.457 . S
C883 C884 1.291 . S
C883 H896 0.931 . S
C884 C883 1.291 . S
C884 C885 1.373 . S
C884 H897 0.929 . S
C885 C884 1.373 . S
C885 C886 1.396 . S
C885 C892 1.403 . S
C886 C876 1.476 . S
C886 N881 1.318 1_556 S
C886 C885 1.396 . S
H887 C882 0.929 1_554 S
O888 Mn864 2.385 . S
O888 C866 1.234 . S
O889 Mn864 2.209 . S
O889 Mn865 2.215 . S
O889 C866 1.283 . S
O890 Mn864 2.094 . S
O890 C868 1.240 . S
O891 Mn865 2.117 . S
O891 C868 1.264 . S
C892 C885 1.403 . S
C892 C893 1.399 . S
C892 H898 0.929 . S
C893 C873 1.449 . S
C893 C892 1.399 . S
C893 H899 0.930 . S
H894 C874 0.931 . S
H895 C875 0.930 . S
H896 C883 0.931 . S
H897 C884 0.929 . S
H898 C892 0.929 . S
H899 C893 0.930 . S
Mn900 O905 2.095 . S
Mn900 O915 2.162 . S
Mn900 O916 2.297 . S
Mn900 O924 2.385 . S
Mn900 O925 2.209 . S
Mn900 O926 2.094 . S
Mn901 O906 2.121 . S
Mn901 N908 2.257 . S
Mn901 N917 2.282 . S
Mn901 O925 2.215 . S
Mn901 O927 2.117 . S
C902 O924 1.234 . S
C902 O925 1.283 . S
C903 O915 1.281 . S
C903 O916 1.236 . S
C904 O926 1.240 . S
C904 O927 1.264 . S
O905 Mn900 2.095 . S
O905 C914 1.250 . S
O906 Mn901 2.121 . S
O906 C914 1.258 . S
C907 N908 1.326 . S
C907 C911 1.460 . S
C907 H913 0.929 . S
N908 Mn901 2.257 . S
N908 C907 1.326 . S
N908 C912 1.362 . S
C909 C910 1.258 1_556 S
C909 C912 1.431 1_556 S
C909 C929 1.449 . S
C910 C909 1.258 1_554 S
C910 C911 1.477 . S
C910 H930 0.931 1_554 S
C911 C907 1.460 . S
C911 C910 1.477 . S
C911 H931 0.930 . S
C912 N908 1.362 . S
C912 C909 1.431 1_554 S
C912 C922 1.476 1_554 S
H913 C907 0.929 . S
C914 O905 1.250 . S
C914 O906 1.258 . S
O915 Mn900 2.162 . S
O915 C903 1.281 . S
O916 Mn900 2.297 . S
O916 C903 1.236 . S
N917 Mn901 2.282 . S
N917 C918 1.328 . S
N917 C922 1.318 1_554 S
C918 N917 1.328 . S
C918 C919 1.457 1_554 S
C918 H923 0.929 . S
C919 C918 1.457 1_556 S
C919 C920 1.291 . S
C919 H932 0.931 . S
C920 C919 1.291 . S
C920 C921 1.373 . S
C920 H933 0.929 . S
C921 C920 1.373 . S
C921 C922 1.396 . S
C921 C928 1.403 . S
C922 C912 1.476 1_556 S
C922 N917 1.318 1_556 S
C922 C921 1.396 . S
H923 C918 0.929 . S
O924 Mn900 2.385 . S
O924 C902 1.234 . S
O925 Mn900 2.209 . S
O925 Mn901 2.215 . S
O925 C902 1.283 . S
O926 Mn900 2.094 . S
O926 C904 1.240 . S
O927 Mn901 2.117 . S
O927 C904 1.264 . S
C928 C921 1.403 . S
C928 C929 1.399 . S
C928 H934 0.929 . S
C929 C909 1.449 . S
C929 C928 1.399 . S
C929 H935 0.930 . S
H930 C910 0.931 1_556 S
H931 C911 0.930 . S
H932 C919 0.931 . S
H933 C920 0.929 . S
H934 C928 0.929 . S
H935 C929 0.930 . S
Mn936 O941 2.095 . S
Mn936 O951 2.162 . S
Mn936 O952 2.297 . S
Mn936 O960 2.385 . S
Mn936 O961 2.209 . S
Mn936 O962 2.094 . S
Mn937 O942 2.121 . S
Mn937 N944 2.257 . S
Mn937 N953 2.282 . S
Mn937 O961 2.215 . S
Mn937 O963 2.117 . S
C938 O960 1.234 . S
C938 O961 1.283 . S
C939 O951 1.281 . S
C939 O952 1.236 . S
C940 O962 1.240 . S
C940 O963 1.264 . S
O941 Mn936 2.095 . S
O941 C950 1.250 . S
O942 Mn937 2.121 . S
O942 C950 1.258 . S
C943 N944 1.326 . S
C943 C947 1.460 . S
C943 H949 0.929 . S
N944 Mn937 2.257 . S
N944 C943 1.326 . S
N944 C948 1.362 1_554 S
C945 C946 1.258 . S
C945 C948 1.431 . S
C945 C965 1.449 . S
C946 C945 1.258 . S
C946 C947 1.477 1_556 S
C946 H966 0.931 . S
C947 C943 1.460 . S
C947 C946 1.477 1_554 S
C947 H967 0.930 . S
C948 N944 1.362 1_556 S
C948 C945 1.431 . S
C948 C958 1.476 . S
H949 C943 0.929 . S
C950 O941 1.250 . S
C950 O942 1.258 . S
O951 Mn936 2.162 . S
O951 C939 1.281 . S
O952 Mn936 2.297 . S
O952 C939 1.236 . S
N953 Mn937 2.282 . S
N953 C954 1.328 1_554 S
N953 C958 1.318 1_554 S
C954 N953 1.328 1_556 S
C954 C955 1.457 . S
C954 H959 0.929 1_556 S
C955 C954 1.457 . S
C955 C956 1.291 . S
C955 H968 0.931 . S
C956 C955 1.291 . S
C956 C957 1.373 . S
C956 H969 0.929 . S
C957 C956 1.373 . S
C957 C958 1.396 . S
C957 C964 1.403 . S
C958 C948 1.476 . S
C958 N953 1.318 1_556 S
C958 C957 1.396 . S
H959 C954 0.929 1_554 S
O960 Mn936 2.385 . S
O960 C938 1.234 . S
O961 Mn936 2.209 . S
O961 Mn937 2.215 . S
O961 C938 1.283 . S
O962 Mn936 2.094 . S
O962 C940 1.240 . S
O963 Mn937 2.117 . S
O963 C940 1.264 . S
C964 C957 1.403 . S
C964 C965 1.399 . S
C964 H970 0.929 . S
C965 C945 1.449 . S
C965 C964 1.399 . S
C965 H971 0.930 . S
H966 C946 0.931 . S
H967 C947 0.930 . S
H968 C955 0.931 . S
H969 C956 0.929 . S
H970 C964 0.929 . S
H971 C965 0.930 . S
Mn972 O977 2.095 . S
Mn972 O987 2.162 . S
Mn972 O988 2.297 . S
Mn972 O996 2.385 . S
Mn972 O997 2.209 . S
Mn972 O998 2.094 . S
Mn973 O978 2.121 . S
Mn973 N980 2.257 . S
Mn973 N989 2.282 . S
Mn973 O997 2.215 . S
Mn973 O999 2.117 . S
C974 O996 1.234 . S
C974 O997 1.283 . S
C975 O987 1.281 . S
C975 O988 1.236 . S
C976 O998 1.240 . S
C976 O999 1.264 . S
O977 Mn972 2.095 . S
O977 C986 1.250 . S
O978 Mn973 2.121 . S
O978 C986 1.258 . S
C979 N980 1.326 . S
C979 C983 1.460 . S
C979 H985 0.929 . S
N980 Mn973 2.257 . S
N980 C979 1.326 . S
N980 C984 1.362 . S
C981 C982 1.258 1_556 S
C981 C984 1.431 1_556 S
C981 C1001 1.449 . S
C982 C981 1.258 1_554 S
C982 C983 1.477 . S
C982 H1002 0.931 1_554 S
C983 C979 1.460 . S
C983 C982 1.477 . S
C983 H1003 0.930 . S
C984 N980 1.362 . S
C984 C981 1.431 1_554 S
C984 C994 1.476 1_554 S
H985 C979 0.929 . S
C986 O977 1.250 . S
C986 O978 1.258 . S
O987 Mn972 2.162 . S
O987 C975 1.281 . S
O988 Mn972 2.297 . S
O988 C975 1.236 . S
N989 Mn973 2.282 . S
N989 C990 1.328 . S
N989 C994 1.318 1_554 S
C990 N989 1.328 . S
C990 C991 1.457 1_554 S
C990 H995 0.929 . S
C991 C990 1.457 1_556 S
C991 C992 1.291 . S
C991 H1004 0.931 . S
C992 C991 1.291 . S
C992 C993 1.373 . S
C992 H1005 0.929 . S
C993 C992 1.373 . S
C993 C994 1.396 . S
C993 C1000 1.403 . S
C994 C984 1.476 1_556 S
C994 N989 1.318 1_556 S
C994 C993 1.396 . S
H995 C990 0.929 . S
O996 Mn972 2.385 . S
O996 C974 1.234 . S
O997 Mn972 2.209 . S
O997 Mn973 2.215 . S
O997 C974 1.283 . S
O998 Mn972 2.094 . S
O998 C976 1.240 . S
O999 Mn973 2.117 . S
O999 C976 1.264 . S
C1000 C993 1.403 . S
C1000 C1001 1.399 . S
C1000 H1006 0.929 . S
C1001 C981 1.449 . S
C1001 C1000 1.399 . S
C1001 H1007 0.930 . S
H1002 C982 0.931 1_556 S
H1003 C983 0.930 . S
H1004 C991 0.931 . S
H1005 C992 0.929 . S
H1006 C1000 0.929 . S
H1007 C1001 0.930 . S
Mn1008 O1013 2.095 . S
Mn1008 O1023 2.162 . S
Mn1008 O1024 2.297 . S
Mn1008 O1032 2.385 . S
Mn1008 O1033 2.209 . S
Mn1008 O1034 2.094 . S
Mn1009 O1014 2.121 . S
Mn1009 N1016 2.257 . S
Mn1009 N1025 2.282 . S
Mn1009 O1033 2.215 . S
Mn1009 O1035 2.117 . S
C1010 O1032 1.234 . S
C1010 O1033 1.283 . S
C1011 O1023 1.281 . S
C1011 O1024 1.236 . S
C1012 O1034 1.240 . S
C1012 O1035 1.264 . S
O1013 Mn1008 2.095 . S
O1013 C1022 1.250 . S
O1014 Mn1009 2.121 . S
O1014 C1022 1.258 . S
C1015 N1016 1.326 . S
C1015 C1019 1.460 . S
C1015 H1021 0.929 . S
N1016 Mn1009 2.257 . S
N1016 C1015 1.326 . S
N1016 C1020 1.362 1_556 S
C1017 C1018 1.258 . S
C1017 C1020 1.431 . S
C1017 C1037 1.449 . S
C1018 C1017 1.258 . S
C1018 C1019 1.477 1_554 S
C1018 H1038 0.931 . S
C1019 C1015 1.460 . S
C1019 C1018 1.477 1_556 S
C1019 H1039 0.930 . S
C1020 N1016 1.362 1_554 S
C1020 C1017 1.431 . S
C1020 C1030 1.476 . S
H1021 C1015 0.929 . S
C1022 O1013 1.250 . S
C1022 O1014 1.258 . S
O1023 Mn1008 2.162 . S
O1023 C1011 1.281 . S
O1024 Mn1008 2.297 . S
O1024 C1011 1.236 . S
N1025 Mn1009 2.282 . S
N1025 C1026 1.328 1_556 S
N1025 C1030 1.318 1_556 S
C1026 N1025 1.328 1_554 S
C1026 C1027 1.457 . S
C1026 H1031 0.929 1_554 S
C1027 C1026 1.457 . S
C1027 C1028 1.291 . S
C1027 H1040 0.931 . S
C1028 C1027 1.291 . S
C1028 C1029 1.373 . S
C1028 H1041 0.929 . S
C1029 C1028 1.373 . S
C1029 C1030 1.396 . S
C1029 C1036 1.403 . S
C1030 C1020 1.476 . S
C1030 N1025 1.318 1_554 S
C1030 C1029 1.396 . S
H1031 C1026 0.929 1_556 S
O1032 Mn1008 2.385 . S
O1032 C1010 1.234 . S
O1033 Mn1008 2.209 . S
O1033 Mn1009 2.215 . S
O1033 C1010 1.283 . S
O1034 Mn1008 2.094 . S
O1034 C1012 1.240 . S
O1035 Mn1009 2.117 . S
O1035 C1012 1.264 . S
C1036 C1029 1.403 . S
C1036 C1037 1.399 . S
C1036 H1042 0.929 . S
C1037 C1017 1.449 . S
C1037 C1036 1.399 . S
C1037 H1043 0.930 . S
H1038 C1018 0.931 . S
H1039 C1019 0.930 . S
H1040 C1027 0.931 . S
H1041 C1028 0.929 . S
H1042 C1036 0.929 . S
H1043 C1037 0.930 . S
Mn1044 O1049 2.095 . S
Mn1044 O1059 2.162 . S
Mn1044 O1060 2.297 . S
Mn1044 O1068 2.385 . S
Mn1044 O1069 2.209 . S
Mn1044 O1070 2.094 . S
Mn1045 O1050 2.121 . S
Mn1045 N1052 2.257 . S
Mn1045 N1061 2.282 . S
Mn1045 O1069 2.215 . S
Mn1045 O1071 2.117 . S
C1046 O1068 1.234 . S
C1046 O1069 1.283 . S
C1047 O1059 1.281 . S
C1047 O1060 1.236 . S
C1048 O1070 1.240 . S
C1048 O1071 1.264 . S
O1049 Mn1044 2.095 . S
O1049 C1058 1.250 . S
O1050 Mn1045 2.121 . S
O1050 C1058 1.258 . S
C1051 N1052 1.326 . S
C1051 C1055 1.460 . S
C1051 H1057 0.929 . S
N1052 Mn1045 2.257 . S
N1052 C1051 1.326 . S
N1052 C1056 1.362 . S
C1053 C1054 1.258 1_554 S
C1053 C1056 1.431 1_554 S
C1053 C1073 1.449 . S
C1054 C1053 1.258 1_556 S
C1054 C1055 1.477 . S
C1054 H1074 0.931 1_556 S
C1055 C1051 1.460 . S
C1055 C1054 1.477 . S
C1055 H1075 0.930 . S
C1056 N1052 1.362 . S
C1056 C1053 1.431 1_556 S
C1056 C1066 1.476 1_556 S
H1057 C1051 0.929 . S
C1058 O1049 1.250 . S
C1058 O1050 1.258 . S
O1059 Mn1044 2.162 . S
O1059 C1047 1.281 . S
O1060 Mn1044 2.297 . S
O1060 C1047 1.236 . S
N1061 Mn1045 2.282 . S
N1061 C1062 1.328 . S
N1061 C1066 1.318 1_556 S
C1062 N1061 1.328 . S
C1062 C1063 1.457 1_556 S
C1062 H1067 0.929 . S
C1063 C1062 1.457 1_554 S
C1063 C1064 1.291 . S
C1063 H1076 0.931 . S
C1064 C1063 1.291 . S
C1064 C1065 1.373 . S
C1064 H1077 0.929 . S
C1065 C1064 1.373 . S
C1065 C1066 1.396 . S
C1065 C1072 1.403 . S
C1066 C1056 1.476 1_554 S
C1066 N1061 1.318 1_554 S
C1066 C1065 1.396 . S
H1067 C1062 0.929 . S
O1068 Mn1044 2.385 . S
O1068 C1046 1.234 . S
O1069 Mn1044 2.209 . S
O1069 Mn1045 2.215 . S
O1069 C1046 1.283 . S
O1070 Mn1044 2.094 . S
O1070 C1048 1.240 . S
O1071 Mn1045 2.117 . S
O1071 C1048 1.264 . S
C1072 C1065 1.403 . S
C1072 C1073 1.399 . S
C1072 H1078 0.929 . S
C1073 C1053 1.449 . S
C1073 C1072 1.399 . S
C1073 H1079 0.930 . S
H1074 C1054 0.931 1_554 S
H1075 C1055 0.930 . S
H1076 C1063 0.931 . S
H1077 C1064 0.929 . S
H1078 C1072 0.929 . S
H1079 C1073 0.930 . S
Mn1080 O1085 2.095 . S
Mn1080 O1095 2.162 . S
Mn1080 O1096 2.297 . S
Mn1080 O1104 2.385 . S
Mn1080 O1105 2.209 . S
Mn1080 O1106 2.094 . S
Mn1081 O1086 2.121 . S
Mn1081 N1088 2.257 . S
Mn1081 N1097 2.282 . S
Mn1081 O1105 2.215 . S
Mn1081 O1107 2.117 . S
C1082 O1104 1.234 . S
C1082 O1105 1.283 . S
C1083 O1095 1.281 . S
C1083 O1096 1.236 . S
C1084 O1106 1.240 . S
C1084 O1107 1.264 . S
O1085 Mn1080 2.095 . S
O1085 C1094 1.250 . S
O1086 Mn1081 2.121 . S
O1086 C1094 1.258 . S
C1087 N1088 1.326 . S
C1087 C1091 1.460 . S
C1087 H1093 0.929 . S
N1088 Mn1081 2.257 . S
N1088 C1087 1.326 . S
N1088 C1092 1.362 1_556 S
C1089 C1090 1.258 . S
C1089 C1092 1.431 . S
C1089 C1109 1.449 . S
C1090 C1089 1.258 . S
C1090 C1091 1.477 1_554 S
C1090 H1110 0.931 . S
C1091 C1087 1.460 . S
C1091 C1090 1.477 1_556 S
C1091 H1111 0.930 . S
C1092 N1088 1.362 1_554 S
C1092 C1089 1.431 . S
C1092 C1102 1.476 . S
H1093 C1087 0.929 . S
C1094 O1085 1.250 . S
C1094 O1086 1.258 . S
O1095 Mn1080 2.162 . S
O1095 C1083 1.281 . S
O1096 Mn1080 2.297 . S
O1096 C1083 1.236 . S
N1097 Mn1081 2.282 . S
N1097 C1098 1.328 1_556 S
N1097 C1102 1.318 1_556 S
C1098 N1097 1.328 1_554 S
C1098 C1099 1.457 . S
C1098 H1103 0.929 1_554 S
C1099 C1098 1.457 . S
C1099 C1100 1.291 . S
C1099 H1112 0.931 . S
C1100 C1099 1.291 . S
C1100 C1101 1.373 . S
C1100 H1113 0.929 . S
C1101 C1100 1.373 . S
C1101 C1102 1.396 . S
C1101 C1108 1.403 . S
C1102 C1092 1.476 . S
C1102 N1097 1.318 1_554 S
C1102 C1101 1.396 . S
H1103 C1098 0.929 1_556 S
O1104 Mn1080 2.385 . S
O1104 C1082 1.234 . S
O1105 Mn1080 2.209 . S
O1105 Mn1081 2.215 . S
O1105 C1082 1.283 . S
O1106 Mn1080 2.094 . S
O1106 C1084 1.240 . S
O1107 Mn1081 2.117 . S
O1107 C1084 1.264 . S
C1108 C1101 1.403 . S
C1108 C1109 1.399 . S
C1108 H1114 0.929 . S
C1109 C1089 1.449 . S
C1109 C1108 1.399 . S
C1109 H1115 0.930 . S
H1110 C1090 0.931 . S
H1111 C1091 0.930 . S
H1112 C1099 0.931 . S
H1113 C1100 0.929 . S
H1114 C1108 0.929 . S
H1115 C1109 0.930 . S
Mn1116 O1121 2.095 . S
Mn1116 O1131 2.162 . S
Mn1116 O1132 2.297 . S
Mn1116 O1140 2.385 . S
Mn1116 O1141 2.209 . S
Mn1116 O1142 2.094 . S
Mn1117 O1122 2.121 . S
Mn1117 N1124 2.257 . S
Mn1117 N1133 2.282 . S
Mn1117 O1141 2.215 . S
Mn1117 O1143 2.117 . S
C1118 O1140 1.234 . S
C1118 O1141 1.283 . S
C1119 O1131 1.281 . S
C1119 O1132 1.236 . S
C1120 O1142 1.240 . S
C1120 O1143 1.264 . S
O1121 Mn1116 2.095 . S
O1121 C1130 1.250 . S
O1122 Mn1117 2.121 . S
O1122 C1130 1.258 . S
C1123 N1124 1.326 . S
C1123 C1127 1.460 . S
C1123 H1129 0.929 . S
N1124 Mn1117 2.257 . S
N1124 C1123 1.326 . S
N1124 C1128 1.362 . S
C1125 C1126 1.258 1_554 S
C1125 C1128 1.431 1_554 S
C1125 C1145 1.449 . S
C1126 C1125 1.258 1_556 S
C1126 C1127 1.477 . S
C1126 H1146 0.931 1_556 S
C1127 C1123 1.460 . S
C1127 C1126 1.477 . S
C1127 H1147 0.930 . S
C1128 N1124 1.362 . S
C1128 C1125 1.431 1_556 S
C1128 C1138 1.476 1_556 S
H1129 C1123 0.929 . S
C1130 O1121 1.250 . S
C1130 O1122 1.258 . S
O1131 Mn1116 2.162 . S
O1131 C1119 1.281 . S
O1132 Mn1116 2.297 . S
O1132 C1119 1.236 . S
N1133 Mn1117 2.282 . S
N1133 C1134 1.328 . S
N1133 C1138 1.318 1_556 S
C1134 N1133 1.328 . S
C1134 C1135 1.457 1_556 S
C1134 H1139 0.929 . S
C1135 C1134 1.457 1_554 S
C1135 C1136 1.291 . S
C1135 H1148 0.931 . S
C1136 C1135 1.291 . S
C1136 C1137 1.373 . S
C1136 H1149 0.929 . S
C1137 C1136 1.373 . S
C1137 C1138 1.396 . S
C1137 C1144 1.403 . S
C1138 C1128 1.476 1_554 S
C1138 N1133 1.318 1_554 S
C1138 C1137 1.396 . S
H1139 C1134 0.929 . S
O1140 Mn1116 2.385 . S
O1140 C1118 1.234 . S
O1141 Mn1116 2.209 . S
O1141 Mn1117 2.215 . S
O1141 C1118 1.283 . S
O1142 Mn1116 2.094 . S
O1142 C1120 1.240 . S
O1143 Mn1117 2.117 . S
O1143 C1120 1.264 . S
C1144 C1137 1.403 . S
C1144 C1145 1.399 . S
C1144 H1150 0.929 . S
C1145 C1125 1.449 . S
C1145 C1144 1.399 . S
C1145 H1151 0.930 . S
H1146 C1126 0.931 1_554 S
H1147 C1127 0.930 . S
H1148 C1135 0.931 . S
H1149 C1136 0.929 . S
H1150 C1144 0.929 . S
H1151 C1145 0.930 . S
C544 C4 1.276 . S
C38 C436 1.534 . S
C76 C472 1.276 . S
C508 C110 1.534 . S
C148 C328 1.276 . S
C182 C364 1.534 . S
C400 C220 1.276 . S
C292 C254 1.534 . S
C580 C1120 1.276 . S
C614 C1012 1.534 . S
C652 C1048 1.276 . S
C1084 C686 1.534 . S
C724 C904 1.276 . S
C758 C940 1.534 . S
C976 C796 1.276 . S
C830 C868 1.534 . S
C435 C3 1.399 1_655 S
C50 C471 1.351 1_545 S
C507 C75 1.399 1_455 S
C122 C543 1.351 1_565 S
C147 C291 1.399 1_455 S
C327 C194 1.351 1_565 S
C363 C219 1.399 1_455 S
C399 C266 1.351 1_545 S
C579 C1011 1.399 . S
C1047 C626 1.351 . S
C651 C1083 1.399 . S
C698 C1119 1.351 . S
C867 C723 1.399 . S
C770 C903 1.351 . S
C795 C939 1.399 . S
C842 C975 1.351 . S
C2 C362 1.326 . S
C398 C40 1.265 . S
C74 C290 1.326 . S
C326 C112 1.265 . S
C506 C146 1.325 . S
C542 C184 1.265 . S
C434 C218 1.325 . S
C256 C470 1.265 . S
C938 C578 1.326 1_554 S
C616 C974 1.265 1_556 S
C866 C650 1.326 1_554 S
C902 C688 1.265 1_554 S
C722 C1082 1.325 1_554 S
C760 C1118 1.265 1_554 S
C1010 C794 1.325 1_556 S
C1046 C832 1.265 1_556 S
C831 C14 1.424 . S
C734 C39 1.424 . S
C759 C86 1.424 . S
C806 C111 1.424 . S
C615 C158 1.424 . S
C183 C662 1.424 . S
C230 C687 1.424 . S
C255 C590 1.424 . S
C302 C1130 1.466 . S
C1022 C338 1.466 . S
C374 C1058 1.466 . S
C410 C1094 1.466 . S
C914 C446 1.466 . S
C950 C482 1.466 . S
C518 C986 1.466 . S
C554 C878 1.466 . S
