# Generated by pormake.
# Topology umd, (4)-cn, num edge types: 1
# Building blocks:
#     Node 0, Type 0, BuildingBlock: MUDLON_clean_sbu_0, # of connection points: 4
#     Node 1, Type 0, BuildingBlock: MUDLON_clean_sbu_0, # of connection points: 4
#     Node 2, Type 0, BuildingBlock: MUDLON_clean_sbu_0, # of connection points: 4
#     Node 3, Type 0, BuildingBlock: MUDLON_clean_sbu_0, # of connection points: 4
#     Node 4, Type 0, BuildingBlock: MUDLON_clean_sbu_0, # of connection points: 4
#     Node 5, Type 0, BuildingBlock: MUDLON_clean_sbu_0, # of connection points: 4
#     Node 6, Type 0, BuildingBlock: MUDLON_clean_sbu_0, # of connection points: 4
#     Node 7, Type 0, BuildingBlock: MUDLON_clean_sbu_0, # of connection points: 4
#     Node 8, Type 0, BuildingBlock: MUDLON_clean_sbu_0, # of connection points: 4
#     Node 9, Type 0, BuildingBlock: MUDLON_clean_sbu_0, # of connection points: 4
#     Node 10, Type 0, BuildingBlock: MUDLON_clean_sbu_0, # of connection points: 4
#     Node 11, Type 0, BuildingBlock: MUDLON_clean_sbu_0, # of connection points: 4
#     Node 12, Type 0, BuildingBlock: MUDLON_clean_sbu_0, # of connection points: 4
#     Node 13, Type 0, BuildingBlock: MUDLON_clean_sbu_0, # of connection points: 4
#     Node 14, Type 0, BuildingBlock: MUDLON_clean_sbu_0, # of connection points: 4
#     Node 15, Type 0, BuildingBlock: MUDLON_clean_sbu_0, # of connection points: 4
#     Edge 16, Type (0, 0), BuildingBlock: EZIPEK_clean_linker_0, # of connection points: 2
#     Edge 17, Type (0, 0), BuildingBlock: EZIPEK_clean_linker_0, # of connection points: 2
#     Edge 18, Type (0, 0), BuildingBlock: EZIPEK_clean_linker_0, # of connection points: 2
#     Edge 19, Type (0, 0), BuildingBlock: EZIPEK_clean_linker_0, # of connection points: 2
#     Edge 20, Type (0, 0), BuildingBlock: EZIPEK_clean_linker_0, # of connection points: 2
#     Edge 21, Type (0, 0), BuildingBlock: EZIPEK_clean_linker_0, # of connection points: 2
#     Edge 22, Type (0, 0), BuildingBlock: EZIPEK_clean_linker_0, # of connection points: 2
#     Edge 23, Type (0, 0), BuildingBlock: EZIPEK_clean_linker_0, # of connection points: 2
#     Edge 24, Type (0, 0), BuildingBlock: EZIPEK_clean_linker_0, # of connection points: 2
#     Edge 25, Type (0, 0), BuildingBlock: EZIPEK_clean_linker_0, # of connection points: 2
#     Edge 26, Type (0, 0), BuildingBlock: EZIPEK_clean_linker_0, # of connection points: 2
#     Edge 27, Type (0, 0), BuildingBlock: EZIPEK_clean_linker_0, # of connection points: 2
#     Edge 28, Type (0, 0), BuildingBlock: EZIPEK_clean_linker_0, # of connection points: 2
#     Edge 29, Type (0, 0), BuildingBlock: EZIPEK_clean_linker_0, # of connection points: 2
#     Edge 30, Type (0, 0), BuildingBlock: EZIPEK_clean_linker_0, # of connection points: 2
#     Edge 31, Type (0, 0), BuildingBlock: EZIPEK_clean_linker_0, # of connection points: 2
#     Edge 32, Type (0, 0), BuildingBlock: EZIPEK_clean_linker_0, # of connection points: 2
#     Edge 33, Type (0, 0), BuildingBlock: EZIPEK_clean_linker_0, # of connection points: 2
#     Edge 34, Type (0, 0), BuildingBlock: EZIPEK_clean_linker_0, # of connection points: 2
#     Edge 35, Type (0, 0), BuildingBlock: EZIPEK_clean_linker_0, # of connection points: 2
#     Edge 36, Type (0, 0), BuildingBlock: EZIPEK_clean_linker_0, # of connection points: 2
#     Edge 37, Type (0, 0), BuildingBlock: EZIPEK_clean_linker_0, # of connection points: 2
#     Edge 38, Type (0, 0), BuildingBlock: EZIPEK_clean_linker_0, # of connection points: 2
#     Edge 39, Type (0, 0), BuildingBlock: EZIPEK_clean_linker_0, # of connection points: 2
#     Edge 40, Type (0, 0), BuildingBlock: EZIPEK_clean_linker_0, # of connection points: 2
#     Edge 41, Type (0, 0), BuildingBlock: EZIPEK_clean_linker_0, # of connection points: 2
#     Edge 42, Type (0, 0), BuildingBlock: EZIPEK_clean_linker_0, # of connection points: 2
#     Edge 43, Type (0, 0), BuildingBlock: EZIPEK_clean_linker_0, # of connection points: 2
#     Edge 44, Type (0, 0), BuildingBlock: EZIPEK_clean_linker_0, # of connection points: 2
#     Edge 45, Type (0, 0), BuildingBlock: EZIPEK_clean_linker_0, # of connection points: 2
#     Edge 46, Type (0, 0), BuildingBlock: EZIPEK_clean_linker_0, # of connection points: 2
#     Edge 47, Type (0, 0), BuildingBlock: EZIPEK_clean_linker_0, # of connection points: 2
# Relax obj value: 0.014
# Max RMSD: 0.191
# Mean RMSD: 0.191
data_MOF--net-umd--node1-MUDLON_clean_sbu_0--edge1-EZIPEK_clean_linker_0
_symmetry_space_group_name_H-M    P1
_symmetry_Int_Tables_number       1
_symmetry_cell_setting            triclinic
loop_
_symmetry_equiv_pos_as_xyz
'x, y, z'
_cell_length_a     30.282469
_cell_length_b     30.328584
_cell_length_c     43.535613
_cell_angle_alpha  89.883296
_cell_angle_beta   90.455862
_cell_angle_gamma 89.717249
loop_
_atom_site_label
_atom_site_type_symbol
_atom_site_fract_x
_atom_site_fract_y
_atom_site_fract_z
_atom_type_partial_charge
Mg0 Mg 0.18629 0.45366 0.17155 0.0
C1 C 0.19466 0.4619 0.10586 0.0
O2 O 0.16716 0.42919 0.11019 0.0
C3 C 0.23645 0.47443 0.23125 0.0
O4 O 0.2613 0.44067 0.22365 0.0
C5 C 0.24731 0.3779 0.16602 0.0
O6 O 0.27222 0.4112 0.15792 0.0
O7 O 0.20735 0.38504 0.17328 0.0
O8 O 0.21082 0.48164 0.12906 0.0
O9 O 0.11507 0.46093 0.16894 0.0
C10 C 0.10089 0.50019 0.16555 0.0
O11 O 0.1292 0.53276 0.16397 0.0
O12 O 0.20575 0.48748 0.21333 0.0
Mg13 Mg 0.58797 0.18948 0.65733 0.0
C14 C 0.51854 0.21292 0.60441 0.0
O15 O 0.48692 0.21641 0.62474 0.0
C16 C 0.52651 0.20812 0.71087 0.0
O17 O 0.49933 0.18386 0.69456 0.0
C18 C 0.65812 0.25261 0.64362 0.0
O19 O 0.62164 0.27445 0.63714 0.0
O20 O 0.65544 0.21292 0.65292 0.0
O21 O 0.55798 0.20477 0.61291 0.0
O22 O 0.58354 0.11823 0.66348 0.0
C23 C 0.5476 0.09924 0.65606 0.0
O24 O 0.51523 0.12253 0.64391 0.0
O25 O 0.56335 0.21906 0.6995 0.0
Mg26 Mg 0.82602 0.57821 0.15818 0.0
C27 C 0.79682 0.52096 0.10213 0.0
O28 O 0.78615 0.49008 0.12187 0.0
C29 C 0.81111 0.55043 0.22157 0.0
O30 O 0.82656 0.59061 0.22435 0.0
C31 C 0.75555 0.64421 0.15438 0.0
O32 O 0.73888 0.60976 0.14031 0.0
O33 O 0.79469 0.64194 0.16504 0.0
O34 O 0.81168 0.55768 0.11145 0.0
O35 O 0.89738 0.57768 0.16176 0.0
C36 C 0.91422 0.53977 0.15716 0.0
O37 O 0.88813 0.50663 0.15041 0.0
O38 O 0.8047 0.53469 0.19483 0.0
Mg39 Mg 0.47272 0.82451 0.65801 0.0
C40 C 0.52997 0.81176 0.6002 0.0
O41 O 0.56246 0.82787 0.6168 0.0
C42 C 0.49535 0.80796 0.72293 0.0
O43 O 0.46265 0.83649 0.72444 0.0
C44 C 0.40042 0.76211 0.66654 0.0
O45 O 0.4357 0.73991 0.67531 0.0
O46 O 0.4045 0.80249 0.65926 0.0
O47 O 0.49288 0.80424 0.61248 0.0
O48 O 0.48133 0.8958 0.65885 0.0
C49 C 0.51867 0.91111 0.66705 0.0
O50 O 0.54943 0.88402 0.67718 0.0
O51 O 0.50811 0.79492 0.69669 0.0
Mg52 Mg 0.1919 0.58004 0.41141 0.0
C53 C 0.21523 0.51928 0.46695 0.0
O54 O 0.21806 0.48671 0.44723 0.0
C55 C 0.21552 0.55708 0.34863 0.0
O56 O 0.19499 0.5951 0.34553 0.0
C57 C 0.25479 0.65322 0.41701 0.0
O58 O 0.27678 0.61974 0.42884 0.0
O59 O 0.21546 0.64736 0.40747 0.0
O60 O 0.2068 0.55823 0.45779 0.0
O61 O 0.12111 0.57308 0.40506 0.0
C62 C 0.10668 0.53399 0.40796 0.0
O63 O 0.13435 0.50187 0.41457 0.0
O64 O 0.22179 0.54132 0.3754 0.0
Mg65 Mg 0.44166 0.19061 0.89674 0.0
C66 C 0.46421 0.19351 0.96283 0.0
O67 O 0.45065 0.15289 0.95871 0.0
C68 C 0.50228 0.21159 0.84268 0.0
O69 O 0.5327 0.19411 0.86063 0.0
C70 C 0.36276 0.24657 0.89065 0.0
O71 O 0.39554 0.27272 0.88345 0.0
O72 O 0.37112 0.20645 0.89731 0.0
O73 O 0.46712 0.21884 0.93958 0.0
O74 O 0.45755 0.11991 0.89494 0.0
C75 C 0.49591 0.10633 0.90291 0.0
O76 O 0.52475 0.13469 0.91371 0.0
O77 O 0.4636 0.21745 0.85295 0.0
Mg78 Mg 0.83704 0.44513 0.40288 0.0
C79 C 0.79145 0.49706 0.45727 0.0
O80 O 0.76058 0.51118 0.43825 0.0
C81 C 0.81304 0.45783 0.3376 0.0
O82 O 0.82129 0.4153 0.33893 0.0
C83 C 0.76742 0.37915 0.40083 0.0
O84 O 0.74692 0.41673 0.39558 0.0
O85 O 0.80915 0.37923 0.40414 0.0
O86 O 0.8231 0.47338 0.44757 0.0
O87 O 0.9083 0.44879 0.40058 0.0
C88 C 0.92223 0.48827 0.3993 0.0
O89 O 0.89363 0.52096 0.39867 0.0
O90 O 0.81388 0.48028 0.36225 0.0
Mg91 Mg 0.5864 0.8327 0.90285 0.0
C92 C 0.51944 0.81714 0.95454 0.0
O93 O 0.49039 0.83369 0.93509 0.0
C94 C 0.56471 0.77894 0.84428 0.0
O95 O 0.59307 0.74982 0.85511 0.0
C96 C 0.65949 0.76944 0.91335 0.0
O97 O 0.6245 0.74798 0.92272 0.0
O98 O 0.65476 0.80869 0.90334 0.0
O99 O 0.55868 0.80978 0.94584 0.0
O100 O 0.57775 0.90438 0.90508 0.0
C101 C 0.54492 0.92153 0.89085 0.0
O102 O 0.51971 0.89645 0.87361 0.0
O103 O 0.55446 0.81247 0.86021 0.0
Mg104 Mg 0.82149 0.54786 0.90711 0.0
C105 C 0.81596 0.53379 0.97309 0.0
O106 O 0.85032 0.55954 0.96975 0.0
C107 C 0.80897 0.53633 0.84093 0.0
O108 O 0.82613 0.57588 0.84303 0.0
C109 C 0.80526 0.64827 0.92004 0.0
O110 O 0.8383 0.64608 0.93972 0.0
O111 O 0.79558 0.61498 0.90369 0.0
O112 O 0.79514 0.52073 0.94934 0.0
O113 O 0.89207 0.53356 0.90998 0.0
C114 C 0.92285 0.5486 0.89336 0.0
O115 O 0.91451 0.58069 0.87383 0.0
O116 O 0.80028 0.51511 0.86536 0.0
Mg117 Mg 0.47052 0.82225 0.40838 0.0
C118 C 0.49444 0.81744 0.47218 0.0
O119 O 0.45778 0.84068 0.4707 0.0
C120 C 0.46777 0.81538 0.34183 0.0
O121 O 0.42732 0.82685 0.34913 0.0
C122 C 0.36963 0.80208 0.4105 0.0
O123 O 0.3628 0.84442 0.40608 0.0
O124 O 0.40869 0.78691 0.41269 0.0
O125 O 0.51113 0.80288 0.44747 0.0
O126 O 0.4674 0.89386 0.40997 0.0
C127 C 0.5052 0.91211 0.40965 0.0
O128 O 0.54077 0.88715 0.40914 0.0
O129 O 0.49595 0.80834 0.36312 0.0
Mg130 Mg 0.19278 0.4572 0.91159 0.0
C131 C 0.19727 0.4631 0.97732 0.0
O132 O 0.16966 0.43095 0.97127 0.0
C133 C 0.20127 0.47562 0.84658 0.0
O134 O 0.17386 0.44233 0.84778 0.0
C135 C 0.20944 0.35706 0.894 0.0
O136 O 0.17336 0.3578 0.87709 0.0
O137 O 0.22025 0.39049 0.90989 0.0
O138 O 0.21499 0.48364 0.95518 0.0
O139 O 0.12225 0.47252 0.9111 0.0
C140 C 0.08982 0.45338 0.89824 0.0
O141 O 0.0957 0.41555 0.8842 0.0
O142 O 0.21717 0.49105 0.87141 0.0
Mg143 Mg 0.55522 0.19444 0.40889 0.0
C144 C 0.529 0.19358 0.47528 0.0
O145 O 0.54783 0.15475 0.47249 0.0
C146 C 0.53921 0.19381 0.34288 0.0
O147 O 0.57811 0.17506 0.34649 0.0
C148 C 0.64444 0.23795 0.42319 0.0
O149 O 0.63697 0.22325 0.45105 0.0
O150 O 0.61747 0.22886 0.40167 0.0
O151 O 0.5252 0.21828 0.45167 0.0
O152 O 0.56029 0.12279 0.41171 0.0
C153 C 0.52457 0.10203 0.40648 0.0
O154 O 0.48846 0.1244 0.3999 0.0
O155 O 0.51851 0.20706 0.36651 0.0
Mg156 Mg 0.83071 0.46669 0.65053 0.0
C157 C 0.82291 0.48679 0.58479 0.0
O158 O 0.85442 0.45695 0.58614 0.0
C159 C 0.80917 0.46988 0.71674 0.0
O160 O 0.81116 0.42724 0.71169 0.0
C161 C 0.80522 0.36988 0.63296 0.0
O162 O 0.83746 0.37074 0.61298 0.0
O163 O 0.79844 0.40266 0.65044 0.0
O164 O 0.80621 0.50083 0.60967 0.0
O165 O 0.90269 0.46718 0.64908 0.0
C166 C 0.9206 0.50299 0.65783 0.0
O167 O 0.89547 0.53567 0.66714 0.0
O168 O 0.81392 0.49648 0.69436 0.0
Mg169 Mg 0.54268 0.82924 0.1503 0.0
C170 C 0.53028 0.82635 0.08482 0.0
O171 O 0.56527 0.85079 0.08986 0.0
C172 C 0.52476 0.83277 0.21607 0.0
O173 O 0.55451 0.86351 0.21174 0.0
C174 C 0.62902 0.78484 0.17156 0.0
O175 O 0.61427 0.79435 0.19901 0.0
O176 O 0.60776 0.79799 0.14793 0.0
O177 O 0.50991 0.8103 0.10768 0.0
O178 O 0.54041 0.90094 0.15039 0.0
C179 C 0.503 0.91775 0.14343 0.0
O180 O 0.4705 0.89166 0.13524 0.0
O181 O 0.51126 0.81044 0.19313 0.0
Mg182 Mg 0.20011 0.5651 0.66003 0.0
C183 C 0.2022 0.54251 0.59452 0.0
O184 O 0.1713 0.57288 0.59604 0.0
C185 C 0.21024 0.55383 0.7262 0.0
O186 O 0.20252 0.59625 0.723 0.0
C187 C 0.25136 0.64861 0.6424 0.0
O188 O 0.2412 0.63646 0.6143 0.0
O189 O 0.23617 0.62704 0.66499 0.0
O190 O 0.22203 0.53054 0.61902 0.0
O191 O 0.12813 0.568 0.65787 0.0
C192 C 0.11 0.53017 0.65707 0.0
O193 O 0.13519 0.49478 0.65695 0.0
O194 O 0.21312 0.52982 0.70238 0.0
Mg195 Mg 0.45592 0.19947 0.15224 0.0
C196 C 0.47389 0.24253 0.09107 0.0
O197 O 0.44597 0.27165 0.10207 0.0
C198 C 0.47087 0.19593 0.21848 0.0
O199 O 0.4336 0.17478 0.21421 0.0
C200 C 0.35815 0.22541 0.16344 0.0
O201 O 0.35339 0.18534 0.17438 0.0
O202 O 0.39508 0.23762 0.15284 0.0
O203 O 0.48887 0.21263 0.10887 0.0
O204 O 0.44673 0.12869 0.15048 0.0
C205 C 0.48292 0.10722 0.15147 0.0
O206 O 0.5202 0.12893 0.15409 0.0
O207 O 0.49071 0.2119 0.19534 0.0
C208 C 0.03176 0.53079 0.18875 0.0
C209 C 0.05297 0.50975 0.16373 0.0
C210 C 0.98477 0.51473 0.13318 0.0
C211 C 0.96253 0.5322 0.15907 0.0
N212 N 0.96272 0.5509 0.21295 0.0
N213 N 0.0491 0.47651 0.1135 0.0
C214 C 0.98548 0.53896 0.18723 0.0
C215 C 0.02923 0.50003 0.13637 0.0
N216 N 0.0559 0.54302 0.21399 0.0
N217 N 0.96392 0.51401 0.10518 0.0
H218 H 0.08203 0.46645 0.11452 0.0
H219 H 0.0322 0.4641 0.0945 0.0
H220 H 0.93172 0.52553 0.10178 0.0
H221 H 0.97965 0.50596 0.08476 0.0
H222 H 0.04363 0.56326 0.23126 0.0
H223 H 0.08924 0.53513 0.21689 0.0
H224 H 0.97654 0.55105 0.23492 0.0
H225 H 0.92891 0.55746 0.21288 0.0
C226 C 0.56179 0.97513 0.64609 0.0
C227 C 0.52753 0.95918 0.66529 0.0
C228 C 0.50887 0.03503 0.68035 0.0
C229 C 0.54212 0.05101 0.66034 0.0
N230 N 0.59563 0.0376 0.6207 0.0
N231 N 0.47445 0.97226 0.7052 0.0
C232 C 0.56778 0.02139 0.64258 0.0
C233 C 0.50243 0.98874 0.6835 0.0
N234 N 0.58913 0.94603 0.63149 0.0
N235 N 0.48287 0.0643 0.69592 0.0
H236 H 0.46959 0.9386 0.70864 0.0
H237 H 0.45847 0.99133 0.72158 0.0
H238 H 0.48839 0.09814 0.69593 0.0
H239 H 0.45446 0.0557 0.70774 0.0
H240 H 0.6182 0.95508 0.62063 0.0
H241 H 0.58457 0.91206 0.63174 0.0
H242 H 0.61106 0.01825 0.60422 0.0
H243 H 0.60089 0.07118 0.61722 0.0
C244 C 0.038 0.52316 0.37635 0.0
C245 C 0.05897 0.52439 0.40558 0.0
C246 C 0.99171 0.49704 0.43002 0.0
C247 C 0.96989 0.4983 0.40106 0.0
N248 N 0.96949 0.51756 0.34729 0.0
N249 N 0.05471 0.52012 0.46072 0.0
C250 C 0.99224 0.51291 0.37438 0.0
C251 C 0.03555 0.51328 0.43257 0.0
N252 N 0.06222 0.53024 0.35043 0.0
N253 N 0.97049 0.48028 0.45506 0.0
H254 H 0.08643 0.53291 0.46338 0.0
H255 H 0.03812 0.51692 0.48144 0.0
H256 H 0.93771 0.46989 0.45444 0.0
H257 H 0.98607 0.47381 0.47599 0.0
H258 H 0.05031 0.52481 0.32828 0.0
H259 H 0.09552 0.5389 0.35106 0.0
H260 H 0.98237 0.53275 0.32789 0.0
H261 H 0.93647 0.50858 0.34469 0.0
C262 C 0.56135 1.00209 0.88311 0.0
C263 C 0.53322 0.96888 0.8948 0.0
C264 C 0.48264 0.02593 0.9142 0.0
C265 C 0.50851 0.05895 0.89995 0.0
N266 N 0.56857 0.07784 0.86625 0.0
N267 N 0.46374 0.94871 0.91782 0.0
C268 C 0.54701 0.04691 0.88333 0.0
C269 C 0.49278 0.98067 0.90913 0.0
N270 N 0.60168 0.99086 0.87149 0.0
N271 N 0.44978 0.03767 0.93399 0.0
H272 H 0.47061 0.91512 0.91636 0.0
H273 H 0.4315 0.95543 0.92461 0.0
H274 H 0.44168 0.07031 0.93886 0.0
H275 H 0.43333 0.01522 0.94788 0.0
H276 H 0.62591 0.01386 0.86622 0.0
H277 H 0.61229 0.95833 0.86897 0.0
H278 H 0.59352 0.07025 0.85079 0.0
H279 H 0.55893 0.1108 0.86524 0.0
C280 C 0.98456 0.50767 0.86689 0.0
C281 C 0.96673 0.52617 0.89413 0.0
C282 C 0.0264 0.49144 0.92434 0.0
C283 C 0.04646 0.47665 0.89681 0.0
N284 N 0.04934 0.47928 0.84135 0.0
N285 N 0.97531 0.54266 0.94802 0.0
C286 C 0.02686 0.48709 0.86792 0.0
C287 C 0.98899 0.52 0.92268 0.0
N288 N 0.96042 0.50775 0.84021 0.0
N289 N 0.04215 0.47696 0.95213 0.0
H290 H 0.94878 0.56473 0.94753 0.0
H291 H 0.99283 0.54302 0.9687 0.0
H292 H 0.06886 0.45529 0.95429 0.0
H293 H 0.02625 0.48299 0.97283 0.0
H294 H 0.96964 0.49002 0.8208 0.0
H295 H 0.92918 0.52197 0.83817 0.0
H296 H 0.03883 0.49107 0.82 0.0
H297 H 0.08063 0.46488 0.84081 0.0
C298 C 0.49679 0.03344 0.43215 0.0
C299 C 0.52248 0.05324 0.40872 0.0
C300 C 0.53334 0.98099 0.38464 0.0
C301 C 0.50988 0.96082 0.40905 0.0
N302 N 0.47629 0.96648 0.45895 0.0
N303 N 0.57146 0.04552 0.36561 0.0
C304 C 0.49332 0.98668 0.43357 0.0
C305 C 0.54287 0.02685 0.38596 0.0
N306 N 0.47564 0.0594 0.4531 0.0
N307 N 0.54464 0.95673 0.35941 0.0
H308 H 0.57832 0.07914 0.36516 0.0
H309 H 0.59116 0.02728 0.35076 0.0
H310 H 0.53799 0.92318 0.35732 0.0
H311 H 0.55699 0.97047 0.33932 0.0
H312 H 0.4519 0.04767 0.46819 0.0
H313 H 0.48017 0.09338 0.4544 0.0
H314 H 0.46845 0.98308 0.4791 0.0
H315 H 0.47334 0.93238 0.46098 0.0
C316 C 0.99631 0.48858 0.67966 0.0
C317 C 0.96917 0.50899 0.657 0.0
C318 C 0.03452 0.54255 0.63362 0.0
C319 C 0.06121 0.52505 0.6577 0.0
N320 N 0.06647 0.4885 0.70689 0.0
N321 N 0.96096 0.56074 0.61514 0.0
C322 C 0.04183 0.49985 0.68159 0.0
C323 C 0.98785 0.53772 0.63487 0.0
N324 N 0.9786 0.45841 0.69936 0.0
N325 N 0.05381 0.5618 0.60872 0.0
H326 H 0.9268 0.55679 0.61442 0.0
H327 H 0.97209 0.58602 0.601 0.0
H328 H 0.0878 0.56575 0.60681 0.0
H329 H 0.03658 0.57044 0.58879 0.0
H330 H 0.99752 0.43875 0.71409 0.0
H331 H 0.94513 0.45055 0.69943 0.0
H332 H 0.05322 0.47435 0.72656 0.0
H333 H 0.0996 0.49703 0.70954 0.0
C334 C 0.46226 0.03092 0.16902 0.0
C335 C 0.48416 0.05862 0.14779 0.0
C336 C 0.51891 0.99401 0.12391 0.0
C337 C 0.49573 0.96615 0.1444 0.0
N338 N 0.43797 0.95739 0.182 0.0
N339 N 0.52426 0.06638 0.10049 0.0
C340 C 0.46494 0.98438 0.16545 0.0
C341 C 0.51003 0.04011 0.12396 0.0
N342 N 0.44085 0.04888 0.19358 0.0
N343 N 0.54923 0.97646 0.10422 0.0
H344 H 0.51695 0.09999 0.09913 0.0
H345 H 0.53939 0.05433 0.0808 0.0
H346 H 0.55432 0.94266 0.10168 0.0
H347 H 0.57114 0.99547 0.09158 0.0
H348 H 0.42933 0.03033 0.21198 0.0
H349 H 0.43754 0.08273 0.19694 0.0
H350 H 0.41145 0.96894 0.19482 0.0
H351 H 0.43974 0.92313 0.18123 0.0
C352 C 0.20586 0.49123 0.3144 0.0
C353 C 0.22728 0.53178 0.32081 0.0
C354 C 0.25864 0.53269 0.26902 0.0
C355 C 0.23788 0.49185 0.2629 0.0
N356 N 0.19989 0.42736 0.2813 0.0
N357 N 0.28151 0.58618 0.30734 0.0
C358 C 0.21442 0.46941 0.28622 0.0
C359 C 0.25604 0.551 0.29902 0.0
N360 N 0.17491 0.47512 0.33415 0.0
N361 N 0.27985 0.55442 0.24593 0.0
H362 H 0.28086 0.59971 0.32935 0.0
H363 H 0.30605 0.59939 0.29354 0.0
H364 H 0.28401 0.54091 0.22411 0.0
H365 H 0.29119 0.58665 0.24781 0.0
H366 H 0.15417 0.44889 0.32885 0.0
H367 H 0.1672 0.49001 0.35497 0.0
H368 H 0.18703 0.40751 0.29857 0.0
H369 H 0.204 0.41081 0.26055 0.0
C370 C 0.52479 0.17071 0.76197 0.0
C371 C 0.52101 0.21025 0.74465 0.0
C372 C 0.50923 0.25205 0.79223 0.0
C373 C 0.5088 0.21182 0.80895 0.0
N374 N 0.50559 0.13223 0.80857 0.0
N375 N 0.50575 0.28815 0.74227 0.0
C376 C 0.51366 0.17095 0.79351 0.0
C377 C 0.51225 0.25094 0.75951 0.0
N378 N 0.54072 0.13315 0.7486 0.0
N379 N 0.50779 0.29118 0.80771 0.0
H380 H 0.5085 0.28837 0.7184 0.0
H381 H 0.49482 0.318 0.75127 0.0
H382 H 0.50499 0.29292 0.83155 0.0
H383 H 0.51241 0.32173 0.79731 0.0
H384 H 0.54847 0.10466 0.76096 0.0
H385 H 0.55059 0.13174 0.72573 0.0
H386 H 0.50412 0.10181 0.79754 0.0
H387 H 0.49572 0.13082 0.83144 0.0
C388 C 0.84329 0.49333 0.25666 0.0
C389 C 0.80797 0.52246 0.24938 0.0
C390 C 0.77305 0.50534 0.29871 0.0
C391 C 0.81081 0.48015 0.30728 0.0
N392 N 0.88589 0.45764 0.29688 0.0
N393 N 0.74102 0.55984 0.26406 0.0
C394 C 0.84692 0.47585 0.28684 0.0
C395 C 0.77329 0.52951 0.27059 0.0
N396 N 0.87363 0.48252 0.23481 0.0
N397 N 0.73651 0.50502 0.31694 0.0
H398 H 0.73902 0.57642 0.24308 0.0
H399 H 0.71775 0.57038 0.27996 0.0
H400 H 0.73522 0.4876 0.3376 0.0
H401 H 0.70635 0.519 0.31051 0.0
H402 H 0.89732 0.45784 0.23781 0.0
H403 H 0.87279 0.49541 0.21262 0.0
H404 H 0.91487 0.45827 0.28417 0.0
H405 H 0.89084 0.44598 0.31919 0.0
C406 C 0.57854 0.78707 0.78783 0.0
C407 C 0.54899 0.77678 0.81196 0.0
C408 C 0.48774 0.77359 0.77486 0.0
C409 C 0.5157 0.79114 0.7519 0.0
N410 N 0.58777 0.81651 0.73657 0.0
N411 N 0.47544 0.76048 0.82913 0.0
C412 C 0.56135 0.79752 0.75816 0.0
C413 C 0.50358 0.76979 0.80561 0.0
N414 N 0.62305 0.78767 0.79333 0.0
N415 N 0.44638 0.75944 0.76696 0.0
H416 H 0.48634 0.75485 0.8516 0.0
H417 H 0.4412 0.76048 0.82673 0.0
H418 H 0.4344 0.76055 0.74442 0.0
H419 H 0.42568 0.74267 0.7819 0.0
H420 H 0.64649 0.78955 0.77601 0.0
H421 H 0.63701 0.78287 0.815 0.0
H422 H 0.61952 0.82786 0.74117 0.0
H423 H 0.57724 0.82363 0.71432 0.0
C424 C 0.83629 0.48309 0.8016 0.0
C425 C 0.80501 0.51559 0.8103 0.0
C426 C 0.77311 0.51486 0.75825 0.0
C427 C 0.80757 0.48621 0.74879 0.0
N428 N 0.8773 0.45032 0.75998 0.0
N429 N 0.74575 0.56555 0.79684 0.0
C430 C 0.84045 0.47197 0.7701 0.0
C431 C 0.77403 0.53245 0.78856 0.0
N432 N 0.8624 0.46302 0.8233 0.0
N433 N 0.73868 0.5239 0.7387 0.0
H434 H 0.74358 0.57727 0.8193 0.0
H435 H 0.72616 0.58299 0.7812 0.0
H436 H 0.73678 0.51134 0.71644 0.0
H437 H 0.71028 0.54079 0.74526 0.0
H438 H 0.88212 0.43562 0.81868 0.0
H439 H 0.86198 0.47137 0.84649 0.0
H440 H 0.90466 0.44365 0.7739 0.0
H441 H 0.88276 0.44308 0.73693 0.0
C442 C 0.4804 0.86055 0.2948 0.0
C443 C 0.48176 0.81877 0.30948 0.0
C444 C 0.51091 0.78507 0.26262 0.0
C445 C 0.50665 0.82635 0.24732 0.0
N446 N 0.47899 0.90112 0.24696 0.0
N447 N 0.49121 0.74 0.30654 0.0
C448 C 0.48894 0.86343 0.2629 0.0
C449 C 0.49499 0.7806 0.29315 0.0
N450 N 0.47275 0.89786 0.31161 0.0
N451 N 0.53207 0.75076 0.24862 0.0
H452 H 0.48022 0.73564 0.32899 0.0
H453 H 0.49559 0.71052 0.2947 0.0
H454 H 0.54391 0.75252 0.22629 0.0
H455 H 0.54088 0.72166 0.25989 0.0
H456 H 0.47663 0.92961 0.3029 0.0
H457 H 0.46651 0.89743 0.33513 0.0
H458 H 0.4614 0.92744 0.25624 0.0
H459 H 0.48464 0.90452 0.22351 0.0
C460 C 0.2438 0.49054 0.79853 0.0
C461 C 0.20656 0.49901 0.81717 0.0
C462 C 0.17052 0.53923 0.77516 0.0
C463 C 0.20909 0.53388 0.75719 0.0
N464 N 0.28507 0.51052 0.75305 0.0
N465 N 0.13858 0.53846 0.82595 0.0
C466 C 0.24654 0.51114 0.76919 0.0
C467 C 0.17121 0.52562 0.8063 0.0
N468 N 0.27582 0.46188 0.80851 0.0
N469 N 0.13244 0.55516 0.76204 0.0
H470 H 0.13811 0.52916 0.84904 0.0
H471 H 0.11427 0.5615 0.82015 0.0
H472 H 0.12999 0.56431 0.73899 0.0
H473 H 0.10209 0.55511 0.77313 0.0
H474 H 0.30119 0.45032 0.79462 0.0
H475 H 0.27544 0.4474 0.83028 0.0
H476 H 0.31478 0.49847 0.76195 0.0
H477 H 0.28822 0.52524 0.73151 0.0
C478 C 0.51195 0.15533 0.29586 0.0
C479 C 0.51906 0.19549 0.31173 0.0
C480 C 0.49357 0.23693 0.26634 0.0
C481 C 0.49072 0.19682 0.2497 0.0
N482 N 0.50575 0.11883 0.24664 0.0
N483 N 0.52259 0.27491 0.31114 0.0
C484 C 0.50236 0.15627 0.26392 0.0
C485 C 0.51138 0.2365 0.29676 0.0
N486 N 0.51272 0.11628 0.31161 0.0
N487 N 0.47789 0.27513 0.25349 0.0
H488 H 0.53517 0.2759 0.3335 0.0
H489 H 0.52245 0.30547 0.30019 0.0
H490 H 0.46528 0.27677 0.23115 0.0
H491 H 0.47441 0.30444 0.26566 0.0
H492 H 0.50356 0.08629 0.3019 0.0
H493 H 0.51798 0.11452 0.33527 0.0
H494 H 0.51824 0.08913 0.25515 0.0
H495 H 0.50044 0.11862 0.22294 0.0
C496 C 0.16827 0.49678 1.02531 0.0
C497 C 0.20388 0.47659 1.00962 0.0
C498 C 0.24099 0.45992 0.0585 0.0
C499 C 0.20349 0.47642 0.07409 0.0
N500 N 0.13833 0.5218 0.07397 0.0
N501 N 0.27859 0.4493 1.00984 0.0
C502 C 0.16943 0.49882 0.05791 0.0
C503 C 0.24202 0.46198 1.02582 0.0
N504 N 0.13266 0.51223 1.00896 0.0
N505 N 0.27427 0.44022 0.07496 0.0
H506 H 0.27973 0.45007 0.9859 0.0
H507 H 0.30874 0.44119 1.02005 0.0
H508 H 0.27515 0.44045 0.09891 0.0
H509 H 0.30023 0.42274 0.06519 0.0
H510 H 0.10322 0.52251 1.01888 0.0
H511 H 0.13213 0.51346 0.985 0.0
H512 H 0.114 0.54146 0.06383 0.0
H513 H 0.13934 0.52415 0.09788 0.0
C514 C 0.53941 0.24207 0.52188 0.0
C515 C 0.51557 0.20838 0.50647 0.0
C516 C 0.48412 0.18417 0.55543 0.0
C517 C 0.50945 0.21669 0.57093 0.0
N518 N 0.55011 0.28447 0.56859 0.0
N519 N 0.45524 0.15731 0.50674 0.0
C520 C 0.53327 0.24839 0.55391 0.0
C521 C 0.48448 0.18278 0.52274 0.0
N522 N 0.57009 0.26604 0.50641 0.0
N523 N 0.46214 0.15283 0.57183 0.0
H524 H 0.45433 0.15693 0.48277 0.0
H525 H 0.42925 0.14051 0.51691 0.0
H526 H 0.46027 0.15307 0.5957 0.0
H527 H 0.44786 0.1251 0.56188 0.0
H528 H 0.5927 0.28691 0.51704 0.0
H529 H 0.57448 0.26306 0.48289 0.0
H530 H 0.56462 0.31084 0.5572 0.0
H531 H 0.54557 0.28994 0.59202 0.0
C532 C 0.82811 0.48907 0.05403 0.0
C533 C 0.79404 0.5133 0.06859 0.0
C534 C 0.76576 0.53851 1.01848 0.0
C535 C 0.80357 0.51975 1.00446 0.0
N536 N 0.86886 0.47432 1.00717 0.0
N537 N 0.7282 0.55777 0.06589 0.0
C538 C 0.83383 0.49354 1.02173 0.0
C539 C 0.76172 0.53647 0.05104 0.0
N540 N 0.8553 0.46251 0.07127 0.0
N541 N 0.73439 0.55899 1.00064 0.0
H542 H 0.72304 0.55436 0.08944 0.0
H543 H 0.70595 0.57933 0.05538 0.0
H544 H 0.73703 0.56195 0.97687 0.0
H545 H 0.70449 0.57095 1.0088 0.0
H546 H 0.87904 0.44146 0.06222 0.0
H547 H 0.85239 0.4593 0.09501 0.0
H548 H 0.89517 0.45887 1.01834 0.0
H549 H 0.87217 0.47466 0.98332 0.0
C550 C 0.5243 0.77061 0.55053 0.0
C551 C 0.53243 0.81079 0.56621 0.0
C552 C 0.53293 0.85009 0.517 0.0
C553 C 0.51656 0.81192 0.50234 0.0
N554 N 0.49636 0.73532 0.5043 0.0
N555 N 0.53931 0.89028 0.56458 0.0
C556 C 0.51293 0.7717 0.51872 0.0
C557 C 0.53632 0.8509 0.54949 0.0
N558 N 0.52743 0.7316 0.56617 0.0
N559 N 0.54462 0.88576 0.49971 0.0
H560 H 0.53967 0.89297 0.5884 0.0
H561 H 0.5372 0.92073 0.55355 0.0
H562 H 0.54262 0.88566 0.47576 0.0
H563 H 0.56043 0.91331 0.50877 0.0
H564 H 0.52557 0.70086 0.55566 0.0
H565 H 0.53585 0.73004 0.58945 0.0
H566 H 0.48778 0.70647 0.51574 0.0
H567 H 0.48914 0.7348 0.48083 0.0
C568 C 0.1806 0.49531 0.51619 0.0
C569 C 0.2181 0.51121 0.50038 0.0
C570 C 0.25179 0.53513 0.54882 0.0
C571 C 0.21254 0.52303 0.56423 0.0
N572 N 0.14557 0.48097 0.56529 0.0
N573 N 0.29366 0.5348 0.50133 0.0
C574 C 0.17895 0.49936 0.5487 0.0
C575 C 0.25527 0.52719 0.51674 0.0
N576 N 0.1457 0.47869 0.49991 0.0
N577 N 0.28449 0.5564 0.56455 0.0
H578 H 0.2967 0.52889 0.47782 0.0
H579 H 0.32329 0.54336 0.51195 0.0
H580 H 0.28383 0.56016 0.58828 0.0
H581 H 0.31152 0.57125 0.55427 0.0
H582 H 0.11518 0.47144 0.50944 0.0
H583 H 0.14673 0.47354 0.47626 0.0
H584 H 0.12156 0.46041 0.556 0.0
H585 H 0.14415 0.48335 0.58919 0.0
C586 C 0.429 0.20637 1.01364 0.0
C587 C 0.46659 0.21101 0.99466 0.0
C588 C 0.50793 0.24241 0.03825 0.0
C589 C 0.47192 0.23273 0.05774 0.0
N590 N 0.40118 0.19786 0.06512 0.0
N591 N 0.54335 0.22981 0.98907 0.0
C592 C 0.43323 0.21273 0.04573 0.0
C593 C 0.50647 0.22845 1.00692 0.0
N594 N 0.38871 0.19707 1.00086 0.0
N595 N 0.54315 0.2653 0.04965 0.0
H596 H 0.54329 0.22015 0.96609 0.0
H597 H 0.57461 0.23768 0.99746 0.0
H598 H 0.54533 0.27503 0.07259 0.0
H599 H 0.56855 0.27733 0.03606 0.0
H600 H 0.3593 0.19839 1.01309 0.0
H601 H 0.38395 0.19238 0.97738 0.0
H602 H 0.37478 0.17849 0.05786 0.0
H603 H 0.40295 0.20111 0.08893 0.0
C604 C 0.82808 0.52964 0.50315 0.0
C605 C 0.79085 0.50796 0.4905 0.0
C606 C 0.76622 0.48831 0.54239 0.0
C607 C 0.80761 0.50251 0.55419 0.0
N608 N 0.87677 0.53976 0.5471 0.0
N609 N 0.72228 0.46936 0.4974 0.0
C610 C 0.83789 0.52477 0.53497 0.0
C611 C 0.7586 0.4891 0.51 0.0
N612 N 0.85382 0.55492 0.48448 0.0
N613 N 0.73481 0.47301 0.56207 0.0
H614 H 0.71465 0.47108 0.47406 0.0
H615 H 0.70035 0.44992 0.50967 0.0
H616 H 0.73993 0.47054 0.5857 0.0
H617 H 0.70256 0.46575 0.55551 0.0
H618 H 0.87973 0.57442 0.49229 0.0
H619 H 0.84661 0.55938 0.46118 0.0
H620 H 0.9029 0.55135 0.53404 0.0
H621 H 0.8834 0.53923 0.57064 0.0
C622 C 0.51895 0.77969 0.03761 0.0
C623 C 0.51451 0.82084 0.05276 0.0
C624 C 0.50633 0.85877 1.0034 0.0
C625 C 0.51094 0.81773 0.98802 0.0
N626 N 0.51141 0.73846 0.99002 0.0
N627 N 0.4907 0.89656 0.0511 0.0
C628 C 0.51372 0.77788 1.00506 0.0
C629 C 0.50349 0.85932 0.03589 0.0
N630 N 0.53074 0.74299 0.05404 0.0
N631 N 0.50832 0.89752 0.98735 0.0
H632 H 0.48816 0.89765 0.07496 0.0
H633 H 0.4783 0.92455 0.04006 0.0
H634 H 0.51218 0.8991 0.96364 0.0
H635 H 0.51027 0.92831 0.99782 0.0
H636 H 0.53976 0.7132 0.04399 0.0
H637 H 0.53376 0.74297 0.07792 0.0
H638 H 0.50933 0.70815 1.00117 0.0
H639 H 0.50765 0.73641 0.96621 0.0
C640 C 0.27825 0.31398 0.13695 0.0
C641 C 0.26613 0.33277 0.16551 0.0
C642 C 0.30835 0.27589 0.19318 0.0
C643 C 0.32152 0.25785 0.16459 0.0
N644 N 0.31094 0.25201 0.10994 0.0
N645 N 0.25974 0.32596 0.22045 0.0
C646 C 0.30382 0.27453 0.13663 0.0
C647 C 0.27767 0.31159 0.19353 0.0
N648 N 0.26596 0.33448 0.11019 0.0
N649 N 0.32738 0.26092 0.21985 0.0
H650 H 0.23779 0.35247 0.22154 0.0
H651 H 0.26342 0.30936 0.24127 0.0
H652 H 0.34968 0.23463 0.22064 0.0
H653 H 0.32344 0.27626 0.24102 0.0
H654 H 0.27824 0.32601 0.08873 0.0
H655 H 0.24433 0.36137 0.10961 0.0
H656 H 0.29619 0.26015 0.089 0.0
H657 H 0.3287 0.22246 0.10931 0.0
C658 C 0.74469 0.32565 0.60813 0.0
C659 C 0.77338 0.3329 0.63357 0.0
C660 C 0.72952 0.28256 0.66514 0.0
C661 C 0.70127 0.27479 0.63954 0.0
N662 N 0.68869 0.27924 0.58491 0.0
N663 N 0.79984 0.31063 0.68354 0.0
C664 C 0.71116 0.2932 0.61043 0.0
C665 C 0.76796 0.30872 0.66119 0.0
N666 N 0.74748 0.35163 0.5825 0.0
N667 N 0.71827 0.26743 0.69361 0.0
H668 H 0.82843 0.32939 0.68119 0.0
H669 H 0.80005 0.29056 0.70298 0.0
H670 H 0.69045 0.24823 0.69761 0.0
H671 H 0.73469 0.27657 0.7137 0.0
H672 H 0.72402 0.35145 0.56488 0.0
H673 H 0.77128 0.37601 0.57979 0.0
H674 H 0.69717 0.28828 0.56263 0.0
H675 H 0.66433 0.25506 0.58579 0.0
C676 C 0.73466 0.7245 0.14872 0.0
C677 C 0.72637 0.68215 0.16134 0.0
C678 C 0.65383 0.70682 0.1788 0.0
C679 C 0.66312 0.75005 0.16822 0.0
N680 N 0.71453 0.80218 0.14721 0.0
N681 N 0.68337 0.63622 0.19494 0.0
C682 C 0.70426 0.75958 0.15438 0.0
C683 C 0.68757 0.67436 0.17844 0.0
N684 N 0.77044 0.73069 0.1303 0.0
N685 N 0.61199 0.69592 0.18754 0.0
H686 H 0.70781 0.61186 0.19564 0.0
H687 H 0.65784 0.63081 0.21038 0.0
H688 H 0.58558 0.71805 0.18667 0.0
H689 H 0.60239 0.66374 0.19244 0.0
H690 H 0.77565 0.75934 0.11765 0.0
H691 H 0.79356 0.70592 0.12597 0.0
H692 H 0.74568 0.81199 0.14 0.0
H693 H 0.69275 0.82841 0.15077 0.0
C694 C 0.28203 0.71847 0.66576 0.0
C695 C 0.28814 0.68002 0.64765 0.0
C696 C 0.36387 0.70253 0.63677 0.0
C697 C 0.35999 0.73738 0.65819 0.0
N698 N 0.31668 0.77699 0.69533 0.0
N699 N 0.33886 0.63003 0.62278 0.0
C700 C 0.31928 0.74523 0.6732 0.0
C701 C 0.33008 0.67065 0.63484 0.0
N702 N 0.24063 0.72982 0.67527 0.0
N703 N 0.39959 0.70022 0.61781 0.0
H704 H 0.31638 0.60422 0.62359 0.0
H705 H 0.37021 0.6203 0.61568 0.0
H706 H 0.42455 0.72383 0.61784 0.0
H707 H 0.40186 0.67772 0.59981 0.0
H708 H 0.2333 0.75962 0.68596 0.0
H709 H 0.21284 0.71087 0.67022 0.0
H710 H 0.28941 0.78112 0.70948 0.0
H711 H 0.34315 0.79741 0.70097 0.0
C712 C 0.32291 0.75136 0.44171 0.0
C713 C 0.33232 0.77094 0.4129 0.0
C714 C 0.2852 0.71699 0.38671 0.0
C715 C 0.27618 0.69706 0.41554 0.0
N716 N 0.2766 0.70153 0.47076 0.0
N717 N 0.31512 0.77962 0.3591 0.0
C718 C 0.292 0.7163 0.44317 0.0
C719 C 0.3107 0.7563 0.38579 0.0
N720 N 0.34449 0.76556 0.46754 0.0
N721 N 0.27209 0.69678 0.36013 0.0
H722 H 0.33447 0.80785 0.35748 0.0
H723 H 0.29676 0.7733 0.33929 0.0
H724 H 0.25331 0.66811 0.35973 0.0
H725 H 0.28233 0.70657 0.33841 0.0
H726 H 0.34353 0.74913 0.48854 0.0
H727 H 0.36528 0.7929 0.46761 0.0
H728 H 0.28361 0.71666 0.49167 0.0
H729 H 0.25328 0.67644 0.4725 0.0
C730 C 0.30013 0.28255 0.8626 0.0
C731 C 0.31713 0.26485 0.89044 0.0
C732 C 0.2542 0.29645 0.91817 0.0
C733 C 0.24187 0.32038 0.8914 0.0
N734 N 0.25554 0.33938 0.83836 0.0
N735 N 0.31186 0.25622 0.94534 0.0
C736 C 0.26494 0.31374 0.86347 0.0
C737 C 0.29414 0.27143 0.91837 0.0
N738 N 0.31774 0.26937 0.83529 0.0
N739 N 0.22755 0.29769 0.94334 0.0
H740 H 0.34076 0.23753 0.94627 0.0
H741 H 0.29963 0.26444 0.96688 0.0
H742 H 0.19808 0.31568 0.94371 0.0
H743 H 0.2324 0.27787 0.96265 0.0
H744 H 0.30417 0.27778 0.81401 0.0
H745 H 0.34337 0.2463 0.83403 0.0
H746 H 0.27495 0.33981 0.81872 0.0
H747 H 0.23036 0.3629 0.83784 0.0
C748 C 0.67521 0.31268 0.43442 0.0
C749 C 0.6784 0.27234 0.41818 0.0
C750 C 0.74251 0.30103 0.39033 0.0
C751 C 0.74094 0.33975 0.40857 0.0
N752 N 0.71424 0.37594 0.45408 0.0
N753 N 0.71901 0.225 0.38398 0.0
C754 C 0.71001 0.3434 0.43262 0.0
C755 C 0.71333 0.2655 0.39709 0.0
N756 N 0.63746 0.32333 0.44971 0.0
N757 N 0.77044 0.29891 0.36589 0.0
H758 H 0.69806 0.19855 0.38836 0.0
H759 H 0.7463 0.21666 0.37077 0.0
H760 H 0.79256 0.32403 0.36064 0.0
H761 H 0.7697 0.27369 0.34971 0.0
H762 H 0.63214 0.35403 0.45979 0.0
H763 H 0.6093 0.30385 0.44866 0.0
H764 H 0.69475 0.37753 0.47368 0.0
H765 H 0.74044 0.39816 0.45406 0.0
C766 C 0.7662 0.70954 0.89191 0.0
C767 C 0.77442 0.68657 0.91983 0.0
C768 C 0.71676 0.73046 0.94483 0.0
C769 C 0.70344 0.74749 0.91585 0.0
N770 N 0.71425 0.75215 0.86109 0.0
N771 N 0.75384 0.67156 0.97241 0.0
C772 C 0.72827 0.73738 0.8892 0.0
C773 C 0.74922 0.69652 0.94637 0.0
N774 N 0.79495 0.70491 0.86808 0.0
N775 N 0.69842 0.74708 0.97099 0.0
H776 H 0.77646 0.64574 0.97463 0.0
H777 H 0.73254 0.67393 0.99101 0.0
H778 H 0.67502 0.77246 0.97058 0.0
H779 H 0.7097 0.73905 0.99298 0.0
H780 H 0.79328 0.72382 0.84811 0.0
H781 H 0.82306 0.68494 0.86951 0.0
H782 H 0.72758 0.74136 0.84044 0.0
H783 H 0.68737 0.77333 0.85823 0.0
loop_
_geom_bond_atom_site_label_1
_geom_bond_atom_site_label_2
_geom_bond_distance
_geom_bond_site_symmetry_2
_ccdc_geom_bond_type
Mg0 O7 2.141 . S
Mg0 O8 2.048 . S
Mg0 O9 2.048 . S
Mg0 O12 2.141 . S
C1 O2 1.313 . S
C1 O8 1.195 . S
O2 C1 1.313 . S
C3 O4 1.245 . S
C3 O12 1.289 . S
O4 C3 1.245 . S
C5 O6 1.245 . S
C5 O7 1.289 . S
O6 C5 1.245 . S
O7 Mg0 2.141 . S
O7 C5 1.289 . S
O8 Mg0 2.048 . S
O8 C1 1.195 . S
O9 Mg0 2.048 . S
O9 C10 1.195 . S
C10 O9 1.195 . S
C10 O11 1.313 . S
O11 C10 1.313 . S
O12 Mg0 2.141 . S
O12 C3 1.289 . S
Mg13 O20 2.141 . S
Mg13 O21 2.048 . S
Mg13 O22 2.048 . S
Mg13 O25 2.141 . S
C14 O15 1.313 . S
C14 O21 1.195 . S
O15 C14 1.313 . S
C16 O17 1.245 . S
C16 O25 1.289 . S
O17 C16 1.245 . S
C18 O19 1.245 . S
C18 O20 1.289 . S
O19 C18 1.245 . S
O20 Mg13 2.141 . S
O20 C18 1.289 . S
O21 Mg13 2.048 . S
O21 C14 1.195 . S
O22 Mg13 2.048 . S
O22 C23 1.195 . S
C23 O22 1.195 . S
C23 O24 1.313 . S
O24 C23 1.313 . S
O25 Mg13 2.141 . S
O25 C16 1.289 . S
Mg26 O33 2.141 . S
Mg26 O34 2.048 . S
Mg26 O35 2.048 . S
Mg26 O38 2.141 . S
C27 O28 1.313 . S
C27 O34 1.195 . S
O28 C27 1.313 . S
C29 O30 1.245 . S
C29 O38 1.289 . S
O30 C29 1.245 . S
C31 O32 1.245 . S
C31 O33 1.289 . S
O32 C31 1.245 . S
O33 Mg26 2.141 . S
O33 C31 1.289 . S
O34 Mg26 2.048 . S
O34 C27 1.195 . S
O35 Mg26 2.048 . S
O35 C36 1.195 . S
C36 O35 1.195 . S
C36 O37 1.313 . S
O37 C36 1.313 . S
O38 Mg26 2.141 . S
O38 C29 1.289 . S
Mg39 O46 2.141 . S
Mg39 O47 2.048 . S
Mg39 O48 2.048 . S
Mg39 O51 2.141 . S
C40 O41 1.313 . S
C40 O47 1.195 . S
O41 C40 1.313 . S
C42 O43 1.245 . S
C42 O51 1.289 . S
O43 C42 1.245 . S
C44 O45 1.245 . S
C44 O46 1.289 . S
O45 C44 1.245 . S
O46 Mg39 2.141 . S
O46 C44 1.289 . S
O47 Mg39 2.048 . S
O47 C40 1.195 . S
O48 Mg39 2.048 . S
O48 C49 1.195 . S
C49 O48 1.195 . S
C49 O50 1.313 . S
O50 C49 1.313 . S
O51 Mg39 2.141 . S
O51 C42 1.289 . S
Mg52 O59 2.141 . S
Mg52 O60 2.048 . S
Mg52 O61 2.048 . S
Mg52 O64 2.141 . S
C53 O54 1.313 . S
C53 O60 1.195 . S
O54 C53 1.313 . S
C55 O56 1.245 . S
C55 O64 1.289 . S
O56 C55 1.245 . S
C57 O58 1.245 . S
C57 O59 1.289 . S
O58 C57 1.245 . S
O59 Mg52 2.141 . S
O59 C57 1.289 . S
O60 Mg52 2.048 . S
O60 C53 1.195 . S
O61 Mg52 2.048 . S
O61 C62 1.195 . S
C62 O61 1.195 . S
C62 O63 1.313 . S
O63 C62 1.313 . S
O64 Mg52 2.141 . S
O64 C55 1.289 . S
Mg65 O72 2.141 . S
Mg65 O73 2.048 . S
Mg65 O74 2.048 . S
Mg65 O77 2.141 . S
C66 O67 1.313 . S
C66 O73 1.195 . S
O67 C66 1.313 . S
C68 O69 1.245 . S
C68 O77 1.289 . S
O69 C68 1.245 . S
C70 O71 1.245 . S
C70 O72 1.289 . S
O71 C70 1.245 . S
O72 Mg65 2.141 . S
O72 C70 1.289 . S
O73 Mg65 2.048 . S
O73 C66 1.195 . S
O74 Mg65 2.048 . S
O74 C75 1.195 . S
C75 O74 1.195 . S
C75 O76 1.313 . S
O76 C75 1.313 . S
O77 Mg65 2.141 . S
O77 C68 1.289 . S
Mg78 O85 2.141 . S
Mg78 O86 2.048 . S
Mg78 O87 2.048 . S
Mg78 O90 2.141 . S
C79 O80 1.313 . S
C79 O86 1.195 . S
O80 C79 1.313 . S
C81 O82 1.245 . S
C81 O90 1.289 . S
O82 C81 1.245 . S
C83 O84 1.245 . S
C83 O85 1.289 . S
O84 C83 1.245 . S
O85 Mg78 2.141 . S
O85 C83 1.289 . S
O86 Mg78 2.048 . S
O86 C79 1.195 . S
O87 Mg78 2.048 . S
O87 C88 1.195 . S
C88 O87 1.195 . S
C88 O89 1.313 . S
O89 C88 1.313 . S
O90 Mg78 2.141 . S
O90 C81 1.289 . S
Mg91 O98 2.141 . S
Mg91 O99 2.048 . S
Mg91 O100 2.048 . S
Mg91 O103 2.141 . S
C92 O93 1.313 . S
C92 O99 1.195 . S
O93 C92 1.313 . S
C94 O95 1.245 . S
C94 O103 1.289 . S
O95 C94 1.245 . S
C96 O97 1.245 . S
C96 O98 1.289 . S
O97 C96 1.245 . S
O98 Mg91 2.141 . S
O98 C96 1.289 . S
O99 Mg91 2.048 . S
O99 C92 1.195 . S
O100 Mg91 2.048 . S
O100 C101 1.195 . S
C101 O100 1.195 . S
C101 O102 1.313 . S
O102 C101 1.313 . S
O103 Mg91 2.141 . S
O103 C94 1.289 . S
Mg104 O111 2.141 . S
Mg104 O112 2.048 . S
Mg104 O113 2.048 . S
Mg104 O116 2.141 . S
C105 O106 1.313 . S
C105 O112 1.195 . S
O106 C105 1.313 . S
C107 O108 1.245 . S
C107 O116 1.289 . S
O108 C107 1.245 . S
C109 O110 1.245 . S
C109 O111 1.289 . S
O110 C109 1.245 . S
O111 Mg104 2.141 . S
O111 C109 1.289 . S
O112 Mg104 2.048 . S
O112 C105 1.195 . S
O113 Mg104 2.048 . S
O113 C114 1.195 . S
C114 O113 1.195 . S
C114 O115 1.313 . S
O115 C114 1.313 . S
O116 Mg104 2.141 . S
O116 C107 1.289 . S
Mg117 O124 2.141 . S
Mg117 O125 2.048 . S
Mg117 O126 2.048 . S
Mg117 O129 2.141 . S
C118 O119 1.313 . S
C118 O125 1.195 . S
O119 C118 1.313 . S
C120 O121 1.245 . S
C120 O129 1.289 . S
O121 C120 1.245 . S
C122 O123 1.245 . S
C122 O124 1.289 . S
O123 C122 1.245 . S
O124 Mg117 2.141 . S
O124 C122 1.289 . S
O125 Mg117 2.048 . S
O125 C118 1.195 . S
O126 Mg117 2.048 . S
O126 C127 1.195 . S
C127 O126 1.195 . S
C127 O128 1.313 . S
O128 C127 1.313 . S
O129 Mg117 2.141 . S
O129 C120 1.289 . S
Mg130 O137 2.141 . S
Mg130 O138 2.048 . S
Mg130 O139 2.048 . S
Mg130 O142 2.141 . S
C131 O132 1.313 . S
C131 O138 1.195 . S
O132 C131 1.313 . S
C133 O134 1.245 . S
C133 O142 1.289 . S
O134 C133 1.245 . S
C135 O136 1.245 . S
C135 O137 1.289 . S
O136 C135 1.245 . S
O137 Mg130 2.141 . S
O137 C135 1.289 . S
O138 Mg130 2.048 . S
O138 C131 1.195 . S
O139 Mg130 2.048 . S
O139 C140 1.195 . S
C140 O139 1.195 . S
C140 O141 1.313 . S
O141 C140 1.313 . S
O142 Mg130 2.141 . S
O142 C133 1.289 . S
Mg143 O150 2.141 . S
Mg143 O151 2.048 . S
Mg143 O152 2.048 . S
Mg143 O155 2.141 . S
C144 O145 1.313 . S
C144 O151 1.195 . S
O145 C144 1.313 . S
C146 O147 1.245 . S
C146 O155 1.289 . S
O147 C146 1.245 . S
C148 O149 1.245 . S
C148 O150 1.289 . S
O149 C148 1.245 . S
O150 Mg143 2.141 . S
O150 C148 1.289 . S
O151 Mg143 2.048 . S
O151 C144 1.195 . S
O152 Mg143 2.048 . S
O152 C153 1.195 . S
C153 O152 1.195 . S
C153 O154 1.313 . S
O154 C153 1.313 . S
O155 Mg143 2.141 . S
O155 C146 1.289 . S
Mg156 O163 2.141 . S
Mg156 O164 2.048 . S
Mg156 O165 2.048 . S
Mg156 O168 2.141 . S
C157 O158 1.313 . S
C157 O164 1.195 . S
O158 C157 1.313 . S
C159 O160 1.245 . S
C159 O168 1.289 . S
O160 C159 1.245 . S
C161 O162 1.245 . S
C161 O163 1.289 . S
O162 C161 1.245 . S
O163 Mg156 2.141 . S
O163 C161 1.289 . S
O164 Mg156 2.048 . S
O164 C157 1.195 . S
O165 Mg156 2.048 . S
O165 C166 1.195 . S
C166 O165 1.195 . S
C166 O167 1.313 . S
O167 C166 1.313 . S
O168 Mg156 2.141 . S
O168 C159 1.289 . S
Mg169 O176 2.141 . S
Mg169 O177 2.048 . S
Mg169 O178 2.048 . S
Mg169 O181 2.141 . S
C170 O171 1.313 . S
C170 O177 1.195 . S
O171 C170 1.313 . S
C172 O173 1.245 . S
C172 O181 1.289 . S
O173 C172 1.245 . S
C174 O175 1.245 . S
C174 O176 1.289 . S
O175 C174 1.245 . S
O176 Mg169 2.141 . S
O176 C174 1.289 . S
O177 Mg169 2.048 . S
O177 C170 1.195 . S
O178 Mg169 2.048 . S
O178 C179 1.195 . S
C179 O178 1.195 . S
C179 O180 1.313 . S
O180 C179 1.313 . S
O181 Mg169 2.141 . S
O181 C172 1.289 . S
Mg182 O189 2.141 . S
Mg182 O190 2.048 . S
Mg182 O191 2.048 . S
Mg182 O194 2.141 . S
C183 O184 1.313 . S
C183 O190 1.195 . S
O184 C183 1.313 . S
C185 O186 1.245 . S
C185 O194 1.289 . S
O186 C185 1.245 . S
C187 O188 1.245 . S
C187 O189 1.289 . S
O188 C187 1.245 . S
O189 Mg182 2.141 . S
O189 C187 1.289 . S
O190 Mg182 2.048 . S
O190 C183 1.195 . S
O191 Mg182 2.048 . S
O191 C192 1.195 . S
C192 O191 1.195 . S
C192 O193 1.313 . S
O193 C192 1.313 . S
O194 Mg182 2.141 . S
O194 C185 1.289 . S
Mg195 O202 2.141 . S
Mg195 O203 2.048 . S
Mg195 O204 2.048 . S
Mg195 O207 2.141 . S
C196 O197 1.313 . S
C196 O203 1.195 . S
O197 C196 1.313 . S
C198 O199 1.245 . S
C198 O207 1.289 . S
O199 C198 1.245 . S
C200 O201 1.245 . S
C200 O202 1.289 . S
O201 C200 1.245 . S
O202 Mg195 2.141 . S
O202 C200 1.289 . S
O203 Mg195 2.048 . S
O203 C196 1.195 . S
O204 Mg195 2.048 . S
O204 C205 1.195 . S
C205 O204 1.195 . S
C205 O206 1.313 . S
O206 C205 1.313 . S
O207 Mg195 2.141 . S
O207 C198 1.289 . S
C208 C209 1.363 . S
C208 C214 1.379 1_455 S
C208 N216 1.356 . S
C209 C208 1.363 . S
C209 C215 1.363 . S
C210 C211 1.363 . S
C210 C215 1.379 1_655 S
C210 N217 1.356 . S
C211 C210 1.363 . S
C211 C214 1.363 . S
N212 C214 1.356 . S
N212 H224 0.984 . S
N212 H225 0.985 . S
N213 C215 1.356 . S
N213 H218 0.984 . S
N213 H219 0.985 . S
C214 C208 1.379 1_655 S
C214 C211 1.363 . S
C214 N212 1.356 . S
C215 C209 1.363 . S
C215 C210 1.379 1_455 S
C215 N213 1.356 . S
N216 C208 1.356 . S
N216 H222 0.984 . S
N216 H223 0.984 . S
N217 C210 1.356 . S
N217 H220 0.984 . S
N217 H221 0.985 . S
H218 N213 0.984 . S
H219 N213 0.985 . S
H220 N217 0.984 . S
H221 N217 0.985 . S
H222 N216 0.984 . S
H223 N216 0.984 . S
H224 N212 0.984 . S
H225 N212 0.985 . S
C226 C227 1.363 . S
C226 C232 1.379 1_565 S
C226 N234 1.356 . S
C227 C226 1.363 . S
C227 C233 1.363 . S
C228 C229 1.363 . S
C228 C233 1.379 1_545 S
C228 N235 1.356 . S
C229 C228 1.363 . S
C229 C232 1.363 . S
N230 C232 1.356 . S
N230 H242 0.984 . S
N230 H243 0.985 . S
N231 C233 1.356 . S
N231 H236 0.984 . S
N231 H237 0.985 . S
C232 C226 1.379 1_545 S
C232 C229 1.363 . S
C232 N230 1.356 . S
C233 C227 1.363 . S
C233 C228 1.379 1_565 S
C233 N231 1.356 . S
N234 C226 1.356 . S
N234 H240 0.984 . S
N234 H241 0.984 . S
N235 C228 1.356 . S
N235 H238 0.984 . S
N235 H239 0.985 . S
H236 N231 0.984 . S
H237 N231 0.985 . S
H238 N235 0.984 . S
H239 N235 0.985 . S
H240 N234 0.984 . S
H241 N234 0.984 . S
H242 N230 0.984 . S
H243 N230 0.985 . S
C244 C245 1.363 . S
C244 C250 1.379 1_455 S
C244 N252 1.356 . S
C245 C244 1.363 . S
C245 C251 1.363 . S
C246 C247 1.363 . S
C246 C251 1.379 1_655 S
C246 N253 1.356 . S
C247 C246 1.363 . S
C247 C250 1.363 . S
N248 C250 1.356 . S
N248 H260 0.984 . S
N248 H261 0.985 . S
N249 C251 1.356 . S
N249 H254 0.984 . S
N249 H255 0.985 . S
C250 C244 1.379 1_655 S
C250 C247 1.363 . S
C250 N248 1.356 . S
C251 C245 1.363 . S
C251 C246 1.379 1_455 S
C251 N249 1.356 . S
N252 C244 1.356 . S
N252 H258 0.984 . S
N252 H259 0.984 . S
N253 C246 1.356 . S
N253 H256 0.984 . S
N253 H257 0.985 . S
H254 N249 0.984 . S
H255 N249 0.985 . S
H256 N253 0.984 . S
H257 N253 0.985 . S
H258 N252 0.984 . S
H259 N252 0.984 . S
H260 N248 0.984 . S
H261 N248 0.985 . S
C262 C263 1.363 . S
C262 C268 1.379 1_565 S
C262 N270 1.356 . S
C263 C262 1.363 . S
C263 C269 1.363 . S
C264 C265 1.363 . S
C264 C269 1.379 1_545 S
C264 N271 1.356 . S
C265 C264 1.363 . S
C265 C268 1.363 . S
N266 C268 1.356 . S
N266 H278 0.984 . S
N266 H279 0.985 . S
N267 C269 1.356 . S
N267 H272 0.984 . S
N267 H273 0.985 . S
C268 C262 1.379 1_545 S
C268 C265 1.363 . S
C268 N266 1.356 . S
C269 C263 1.363 . S
C269 C264 1.379 1_565 S
C269 N267 1.356 . S
N270 C262 1.356 . S
N270 H276 0.984 . S
N270 H277 0.984 . S
N271 C264 1.356 . S
N271 H274 0.984 . S
N271 H275 0.985 . S
H272 N267 0.984 . S
H273 N267 0.985 . S
H274 N271 0.984 . S
H275 N271 0.985 . S
H276 N270 0.984 . S
H277 N270 0.984 . S
H278 N266 0.984 . S
H279 N266 0.985 . S
C280 C281 1.363 . S
C280 C286 1.379 1_655 S
C280 N288 1.356 . S
C281 C280 1.363 . S
C281 C287 1.363 . S
C282 C283 1.363 . S
C282 C287 1.379 1_455 S
C282 N289 1.356 . S
C283 C282 1.363 . S
C283 C286 1.363 . S
N284 C286 1.356 . S
N284 H296 0.984 . S
N284 H297 0.985 . S
N285 C287 1.356 . S
N285 H290 0.984 . S
N285 H291 0.985 . S
C286 C280 1.379 1_455 S
C286 C283 1.363 . S
C286 N284 1.356 . S
C287 C281 1.363 . S
C287 C282 1.379 1_655 S
C287 N285 1.356 . S
N288 C280 1.356 . S
N288 H294 0.984 . S
N288 H295 0.984 . S
N289 C282 1.356 . S
N289 H292 0.984 . S
N289 H293 0.985 . S
H290 N285 0.984 . S
H291 N285 0.985 . S
H292 N289 0.984 . S
H293 N289 0.985 . S
H294 N288 0.984 . S
H295 N288 0.984 . S
H296 N284 0.984 . S
H297 N284 0.985 . S
C298 C299 1.363 . S
C298 C304 1.379 1_545 S
C298 N306 1.356 . S
C299 C298 1.363 . S
C299 C305 1.363 . S
C300 C301 1.363 . S
C300 C305 1.379 1_565 S
C300 N307 1.356 . S
C301 C300 1.363 . S
C301 C304 1.363 . S
N302 C304 1.356 . S
N302 H314 0.984 . S
N302 H315 0.985 . S
N303 C305 1.356 . S
N303 H308 0.984 . S
N303 H309 0.985 . S
C304 C298 1.379 1_565 S
C304 C301 1.363 . S
C304 N302 1.356 . S
C305 C299 1.363 . S
C305 C300 1.379 1_545 S
C305 N303 1.356 . S
N306 C298 1.356 . S
N306 H312 0.984 . S
N306 H313 0.984 . S
N307 C300 1.356 . S
N307 H310 0.984 . S
N307 H311 0.985 . S
H308 N303 0.984 . S
H309 N303 0.985 . S
H310 N307 0.984 . S
H311 N307 0.985 . S
H312 N306 0.984 . S
H313 N306 0.984 . S
H314 N302 0.984 . S
H315 N302 0.985 . S
C316 C317 1.363 . S
C316 C322 1.379 1_655 S
C316 N324 1.356 . S
C317 C316 1.363 . S
C317 C323 1.363 . S
C318 C319 1.363 . S
C318 C323 1.379 1_455 S
C318 N325 1.356 . S
C319 C318 1.363 . S
C319 C322 1.363 . S
N320 C322 1.356 . S
N320 H332 0.984 . S
N320 H333 0.985 . S
N321 C323 1.356 . S
N321 H326 0.984 . S
N321 H327 0.985 . S
C322 C316 1.379 1_455 S
C322 C319 1.363 . S
C322 N320 1.356 . S
C323 C317 1.363 . S
C323 C318 1.379 1_655 S
C323 N321 1.356 . S
N324 C316 1.356 . S
N324 H330 0.984 . S
N324 H331 0.984 . S
N325 C318 1.356 . S
N325 H328 0.984 . S
N325 H329 0.985 . S
H326 N321 0.984 . S
H327 N321 0.985 . S
H328 N325 0.984 . S
H329 N325 0.985 . S
H330 N324 0.984 . S
H331 N324 0.984 . S
H332 N320 0.984 . S
H333 N320 0.985 . S
C334 C335 1.363 . S
C334 C340 1.379 1_545 S
C334 N342 1.356 . S
C335 C334 1.363 . S
C335 C341 1.363 . S
C336 C337 1.363 . S
C336 C341 1.379 1_565 S
C336 N343 1.356 . S
C337 C336 1.363 . S
C337 C340 1.363 . S
N338 C340 1.356 . S
N338 H350 0.984 . S
N338 H351 0.985 . S
N339 C341 1.356 . S
N339 H344 0.984 . S
N339 H345 0.985 . S
C340 C334 1.379 1_565 S
C340 C337 1.363 . S
C340 N338 1.356 . S
C341 C335 1.363 . S
C341 C336 1.379 1_545 S
C341 N339 1.356 . S
N342 C334 1.356 . S
N342 H348 0.984 . S
N342 H349 0.984 . S
N343 C336 1.356 . S
N343 H346 0.984 . S
N343 H347 0.985 . S
H344 N339 0.984 . S
H345 N339 0.985 . S
H346 N343 0.984 . S
H347 N343 0.985 . S
H348 N342 0.984 . S
H349 N342 0.984 . S
H350 N338 0.984 . S
H351 N338 0.985 . S
C352 C353 1.363 . S
C352 C358 1.379 . S
C352 N360 1.356 . S
C353 C352 1.363 . S
C353 C359 1.363 . S
C354 C355 1.363 . S
C354 C359 1.379 . S
C354 N361 1.356 . S
C355 C354 1.363 . S
C355 C358 1.363 . S
N356 C358 1.356 . S
N356 H368 0.984 . S
N356 H369 0.985 . S
N357 C359 1.356 . S
N357 H362 0.984 . S
N357 H363 0.985 . S
C358 C352 1.379 . S
C358 C355 1.363 . S
C358 N356 1.356 . S
C359 C353 1.363 . S
C359 C354 1.379 . S
C359 N357 1.356 . S
N360 C352 1.356 . S
N360 H366 0.984 . S
N360 H367 0.984 . S
N361 C354 1.356 . S
N361 H364 0.984 . S
N361 H365 0.985 . S
H362 N357 0.984 . S
H363 N357 0.985 . S
H364 N361 0.984 . S
H365 N361 0.985 . S
H366 N360 0.984 . S
H367 N360 0.984 . S
H368 N356 0.984 . S
H369 N356 0.985 . S
C370 C371 1.363 . S
C370 C376 1.379 . S
C370 N378 1.356 . S
C371 C370 1.363 . S
C371 C377 1.363 . S
C372 C373 1.363 . S
C372 C377 1.379 . S
C372 N379 1.356 . S
C373 C372 1.363 . S
C373 C376 1.363 . S
N374 C376 1.356 . S
N374 H386 0.984 . S
N374 H387 0.985 . S
N375 C377 1.356 . S
N375 H380 0.984 . S
N375 H381 0.985 . S
C376 C370 1.379 . S
C376 C373 1.363 . S
C376 N374 1.356 . S
C377 C371 1.363 . S
C377 C372 1.379 . S
C377 N375 1.356 . S
N378 C370 1.356 . S
N378 H384 0.984 . S
N378 H385 0.984 . S
N379 C372 1.356 . S
N379 H382 0.984 . S
N379 H383 0.985 . S
H380 N375 0.984 . S
H381 N375 0.985 . S
H382 N379 0.984 . S
H383 N379 0.985 . S
H384 N378 0.984 . S
H385 N378 0.984 . S
H386 N374 0.984 . S
H387 N374 0.985 . S
C388 C389 1.363 . S
C388 C394 1.379 . S
C388 N396 1.356 . S
C389 C388 1.363 . S
C389 C395 1.363 . S
C390 C391 1.363 . S
C390 C395 1.379 . S
C390 N397 1.356 . S
C391 C390 1.363 . S
C391 C394 1.363 . S
N392 C394 1.356 . S
N392 H404 0.984 . S
N392 H405 0.985 . S
N393 C395 1.356 . S
N393 H398 0.984 . S
N393 H399 0.985 . S
C394 C388 1.379 . S
C394 C391 1.363 . S
C394 N392 1.356 . S
C395 C389 1.363 . S
C395 C390 1.379 . S
C395 N393 1.356 . S
N396 C388 1.356 . S
N396 H402 0.984 . S
N396 H403 0.984 . S
N397 C390 1.356 . S
N397 H400 0.984 . S
N397 H401 0.985 . S
H398 N393 0.984 . S
H399 N393 0.985 . S
H400 N397 0.984 . S
H401 N397 0.985 . S
H402 N396 0.984 . S
H403 N396 0.984 . S
H404 N392 0.984 . S
H405 N392 0.985 . S
C406 C407 1.363 . S
C406 C412 1.379 . S
C406 N414 1.356 . S
C407 C406 1.363 . S
C407 C413 1.363 . S
C408 C409 1.363 . S
C408 C413 1.379 . S
C408 N415 1.356 . S
C409 C408 1.363 . S
C409 C412 1.363 . S
N410 C412 1.356 . S
N410 H422 0.984 . S
N410 H423 0.985 . S
N411 C413 1.356 . S
N411 H416 0.984 . S
N411 H417 0.985 . S
C412 C406 1.379 . S
C412 C409 1.363 . S
C412 N410 1.356 . S
C413 C407 1.363 . S
C413 C408 1.379 . S
C413 N411 1.356 . S
N414 C406 1.356 . S
N414 H420 0.984 . S
N414 H421 0.984 . S
N415 C408 1.356 . S
N415 H418 0.984 . S
N415 H419 0.985 . S
H416 N411 0.984 . S
H417 N411 0.985 . S
H418 N415 0.984 . S
H419 N415 0.985 . S
H420 N414 0.984 . S
H421 N414 0.984 . S
H422 N410 0.984 . S
H423 N410 0.985 . S
C424 C425 1.363 . S
C424 C430 1.379 . S
C424 N432 1.356 . S
C425 C424 1.363 . S
C425 C431 1.363 . S
C426 C427 1.363 . S
C426 C431 1.379 . S
C426 N433 1.356 . S
C427 C426 1.363 . S
C427 C430 1.363 . S
N428 C430 1.356 . S
N428 H440 0.984 . S
N428 H441 0.985 . S
N429 C431 1.356 . S
N429 H434 0.984 . S
N429 H435 0.985 . S
C430 C424 1.379 . S
C430 C427 1.363 . S
C430 N428 1.356 . S
C431 C425 1.363 . S
C431 C426 1.379 . S
C431 N429 1.356 . S
N432 C424 1.356 . S
N432 H438 0.984 . S
N432 H439 0.984 . S
N433 C426 1.356 . S
N433 H436 0.984 . S
N433 H437 0.985 . S
H434 N429 0.984 . S
H435 N429 0.985 . S
H436 N433 0.984 . S
H437 N433 0.985 . S
H438 N432 0.984 . S
H439 N432 0.984 . S
H440 N428 0.984 . S
H441 N428 0.985 . S
C442 C443 1.363 . S
C442 C448 1.379 . S
C442 N450 1.356 . S
C443 C442 1.363 . S
C443 C449 1.363 . S
C444 C445 1.363 . S
C444 C449 1.379 . S
C444 N451 1.356 . S
C445 C444 1.363 . S
C445 C448 1.363 . S
N446 C448 1.356 . S
N446 H458 0.984 . S
N446 H459 0.985 . S
N447 C449 1.356 . S
N447 H452 0.984 . S
N447 H453 0.985 . S
C448 C442 1.379 . S
C448 C445 1.363 . S
C448 N446 1.356 . S
C449 C443 1.363 . S
C449 C444 1.379 . S
C449 N447 1.356 . S
N450 C442 1.356 . S
N450 H456 0.984 . S
N450 H457 0.984 . S
N451 C444 1.356 . S
N451 H454 0.984 . S
N451 H455 0.985 . S
H452 N447 0.984 . S
H453 N447 0.985 . S
H454 N451 0.984 . S
H455 N451 0.985 . S
H456 N450 0.984 . S
H457 N450 0.984 . S
H458 N446 0.984 . S
H459 N446 0.985 . S
C460 C461 1.363 . S
C460 C466 1.379 . S
C460 N468 1.356 . S
C461 C460 1.363 . S
C461 C467 1.363 . S
C462 C463 1.363 . S
C462 C467 1.379 . S
C462 N469 1.356 . S
C463 C462 1.363 . S
C463 C466 1.363 . S
N464 C466 1.356 . S
N464 H476 0.984 . S
N464 H477 0.985 . S
N465 C467 1.356 . S
N465 H470 0.984 . S
N465 H471 0.985 . S
C466 C460 1.379 . S
C466 C463 1.363 . S
C466 N464 1.356 . S
C467 C461 1.363 . S
C467 C462 1.379 . S
C467 N465 1.356 . S
N468 C460 1.356 . S
N468 H474 0.984 . S
N468 H475 0.984 . S
N469 C462 1.356 . S
N469 H472 0.984 . S
N469 H473 0.985 . S
H470 N465 0.984 . S
H471 N465 0.985 . S
H472 N469 0.984 . S
H473 N469 0.985 . S
H474 N468 0.984 . S
H475 N468 0.984 . S
H476 N464 0.984 . S
H477 N464 0.985 . S
C478 C479 1.363 . S
C478 C484 1.379 . S
C478 N486 1.356 . S
C479 C478 1.363 . S
C479 C485 1.363 . S
C480 C481 1.363 . S
C480 C485 1.379 . S
C480 N487 1.356 . S
C481 C480 1.363 . S
C481 C484 1.363 . S
N482 C484 1.356 . S
N482 H494 0.984 . S
N482 H495 0.985 . S
N483 C485 1.356 . S
N483 H488 0.984 . S
N483 H489 0.985 . S
C484 C478 1.379 . S
C484 C481 1.363 . S
C484 N482 1.356 . S
C485 C479 1.363 . S
C485 C480 1.379 . S
C485 N483 1.356 . S
N486 C478 1.356 . S
N486 H492 0.984 . S
N486 H493 0.984 . S
N487 C480 1.356 . S
N487 H490 0.984 . S
N487 H491 0.985 . S
H488 N483 0.984 . S
H489 N483 0.985 . S
H490 N487 0.984 . S
H491 N487 0.985 . S
H492 N486 0.984 . S
H493 N486 0.984 . S
H494 N482 0.984 . S
H495 N482 0.985 . S
C496 C497 1.363 . S
C496 C502 1.379 1_556 S
C496 N504 1.356 . S
C497 C496 1.363 . S
C497 C503 1.363 . S
C498 C499 1.363 . S
C498 C503 1.379 1_554 S
C498 N505 1.356 . S
C499 C498 1.363 . S
C499 C502 1.363 . S
N500 C502 1.356 . S
N500 H512 0.984 . S
N500 H513 0.985 . S
N501 C503 1.356 . S
N501 H506 0.984 . S
N501 H507 0.985 . S
C502 C496 1.379 1_554 S
C502 C499 1.363 . S
C502 N500 1.356 . S
C503 C497 1.363 . S
C503 C498 1.379 1_556 S
C503 N501 1.356 . S
N504 C496 1.356 . S
N504 H510 0.984 . S
N504 H511 0.984 . S
N505 C498 1.356 . S
N505 H508 0.984 . S
N505 H509 0.985 . S
H506 N501 0.984 . S
H507 N501 0.985 . S
H508 N505 0.984 . S
H509 N505 0.985 . S
H510 N504 0.984 . S
H511 N504 0.984 . S
H512 N500 0.984 . S
H513 N500 0.985 . S
C514 C515 1.363 . S
C514 C520 1.379 . S
C514 N522 1.356 . S
C515 C514 1.363 . S
C515 C521 1.363 . S
C516 C517 1.363 . S
C516 C521 1.379 . S
C516 N523 1.356 . S
C517 C516 1.363 . S
C517 C520 1.363 . S
N518 C520 1.356 . S
N518 H530 0.984 . S
N518 H531 0.985 . S
N519 C521 1.356 . S
N519 H524 0.984 . S
N519 H525 0.985 . S
C520 C514 1.379 . S
C520 C517 1.363 . S
C520 N518 1.356 . S
C521 C515 1.363 . S
C521 C516 1.379 . S
C521 N519 1.356 . S
N522 C514 1.356 . S
N522 H528 0.984 . S
N522 H529 0.984 . S
N523 C516 1.356 . S
N523 H526 0.984 . S
N523 H527 0.985 . S
H524 N519 0.984 . S
H525 N519 0.985 . S
H526 N523 0.984 . S
H527 N523 0.985 . S
H528 N522 0.984 . S
H529 N522 0.984 . S
H530 N518 0.984 . S
H531 N518 0.985 . S
C532 C533 1.363 . S
C532 C538 1.379 1_554 S
C532 N540 1.356 . S
C533 C532 1.363 . S
C533 C539 1.363 . S
C534 C535 1.363 . S
C534 C539 1.379 1_556 S
C534 N541 1.356 . S
C535 C534 1.363 . S
C535 C538 1.363 . S
N536 C538 1.356 . S
N536 H548 0.984 . S
N536 H549 0.985 . S
N537 C539 1.356 . S
N537 H542 0.984 . S
N537 H543 0.985 . S
C538 C532 1.379 1_556 S
C538 C535 1.363 . S
C538 N536 1.356 . S
C539 C533 1.363 . S
C539 C534 1.379 1_554 S
C539 N537 1.356 . S
N540 C532 1.356 . S
N540 H546 0.984 . S
N540 H547 0.984 . S
N541 C534 1.356 . S
N541 H544 0.984 . S
N541 H545 0.985 . S
H542 N537 0.984 . S
H543 N537 0.985 . S
H544 N541 0.984 . S
H545 N541 0.985 . S
H546 N540 0.984 . S
H547 N540 0.984 . S
H548 N536 0.984 . S
H549 N536 0.985 . S
C550 C551 1.363 . S
C550 C556 1.379 . S
C550 N558 1.356 . S
C551 C550 1.363 . S
C551 C557 1.363 . S
C552 C553 1.363 . S
C552 C557 1.379 . S
C552 N559 1.356 . S
C553 C552 1.363 . S
C553 C556 1.363 . S
N554 C556 1.356 . S
N554 H566 0.984 . S
N554 H567 0.985 . S
N555 C557 1.356 . S
N555 H560 0.984 . S
N555 H561 0.985 . S
C556 C550 1.379 . S
C556 C553 1.363 . S
C556 N554 1.356 . S
C557 C551 1.363 . S
C557 C552 1.379 . S
C557 N555 1.356 . S
N558 C550 1.356 . S
N558 H564 0.984 . S
N558 H565 0.984 . S
N559 C552 1.356 . S
N559 H562 0.984 . S
N559 H563 0.985 . S
H560 N555 0.984 . S
H561 N555 0.985 . S
H562 N559 0.984 . S
H563 N559 0.985 . S
H564 N558 0.984 . S
H565 N558 0.984 . S
H566 N554 0.984 . S
H567 N554 0.985 . S
C568 C569 1.363 . S
C568 C574 1.379 . S
C568 N576 1.356 . S
C569 C568 1.363 . S
C569 C575 1.363 . S
C570 C571 1.363 . S
C570 C575 1.379 . S
C570 N577 1.356 . S
C571 C570 1.363 . S
C571 C574 1.363 . S
N572 C574 1.356 . S
N572 H584 0.984 . S
N572 H585 0.985 . S
N573 C575 1.356 . S
N573 H578 0.984 . S
N573 H579 0.985 . S
C574 C568 1.379 . S
C574 C571 1.363 . S
C574 N572 1.356 . S
C575 C569 1.363 . S
C575 C570 1.379 . S
C575 N573 1.356 . S
N576 C568 1.356 . S
N576 H582 0.984 . S
N576 H583 0.984 . S
N577 C570 1.356 . S
N577 H580 0.984 . S
N577 H581 0.985 . S
H578 N573 0.984 . S
H579 N573 0.985 . S
H580 N577 0.984 . S
H581 N577 0.985 . S
H582 N576 0.984 . S
H583 N576 0.984 . S
H584 N572 0.984 . S
H585 N572 0.985 . S
C586 C587 1.363 . S
C586 C592 1.379 1_556 S
C586 N594 1.356 . S
C587 C586 1.363 . S
C587 C593 1.363 . S
C588 C589 1.363 . S
C588 C593 1.379 1_554 S
C588 N595 1.356 . S
C589 C588 1.363 . S
C589 C592 1.363 . S
N590 C592 1.356 . S
N590 H602 0.984 . S
N590 H603 0.985 . S
N591 C593 1.356 . S
N591 H596 0.984 . S
N591 H597 0.985 . S
C592 C586 1.379 1_554 S
C592 C589 1.363 . S
C592 N590 1.356 . S
C593 C587 1.363 . S
C593 C588 1.379 1_556 S
C593 N591 1.356 . S
N594 C586 1.356 . S
N594 H600 0.984 . S
N594 H601 0.984 . S
N595 C588 1.356 . S
N595 H598 0.984 . S
N595 H599 0.985 . S
H596 N591 0.984 . S
H597 N591 0.985 . S
H598 N595 0.984 . S
H599 N595 0.985 . S
H600 N594 0.984 . S
H601 N594 0.984 . S
H602 N590 0.984 . S
H603 N590 0.985 . S
C604 C605 1.363 . S
C604 C610 1.379 . S
C604 N612 1.356 . S
C605 C604 1.363 . S
C605 C611 1.363 . S
C606 C607 1.363 . S
C606 C611 1.379 . S
C606 N613 1.356 . S
C607 C606 1.363 . S
C607 C610 1.363 . S
N608 C610 1.356 . S
N608 H620 0.984 . S
N608 H621 0.985 . S
N609 C611 1.356 . S
N609 H614 0.984 . S
N609 H615 0.985 . S
C610 C604 1.379 . S
C610 C607 1.363 . S
C610 N608 1.356 . S
C611 C605 1.363 . S
C611 C606 1.379 . S
C611 N609 1.356 . S
N612 C604 1.356 . S
N612 H618 0.984 . S
N612 H619 0.984 . S
N613 C606 1.356 . S
N613 H616 0.984 . S
N613 H617 0.985 . S
H614 N609 0.984 . S
H615 N609 0.985 . S
H616 N613 0.984 . S
H617 N613 0.985 . S
H618 N612 0.984 . S
H619 N612 0.984 . S
H620 N608 0.984 . S
H621 N608 0.985 . S
C622 C623 1.363 . S
C622 C628 1.379 1_554 S
C622 N630 1.356 . S
C623 C622 1.363 . S
C623 C629 1.363 . S
C624 C625 1.363 . S
C624 C629 1.379 1_556 S
C624 N631 1.356 . S
C625 C624 1.363 . S
C625 C628 1.363 . S
N626 C628 1.356 . S
N626 H638 0.984 . S
N626 H639 0.985 . S
N627 C629 1.356 . S
N627 H632 0.984 . S
N627 H633 0.985 . S
C628 C622 1.379 1_556 S
C628 C625 1.363 . S
C628 N626 1.356 . S
C629 C623 1.363 . S
C629 C624 1.379 1_554 S
C629 N627 1.356 . S
N630 C622 1.356 . S
N630 H636 0.984 . S
N630 H637 0.984 . S
N631 C624 1.356 . S
N631 H634 0.984 . S
N631 H635 0.985 . S
H632 N627 0.984 . S
H633 N627 0.985 . S
H634 N631 0.984 . S
H635 N631 0.985 . S
H636 N630 0.984 . S
H637 N630 0.984 . S
H638 N626 0.984 . S
H639 N626 0.985 . S
C640 C641 1.363 . S
C640 C646 1.379 . S
C640 N648 1.356 . S
C641 C640 1.363 . S
C641 C647 1.363 . S
C642 C643 1.363 . S
C642 C647 1.379 . S
C642 N649 1.356 . S
C643 C642 1.363 . S
C643 C646 1.363 . S
N644 C646 1.356 . S
N644 H656 0.984 . S
N644 H657 0.985 . S
N645 C647 1.356 . S
N645 H650 0.984 . S
N645 H651 0.985 . S
C646 C640 1.379 . S
C646 C643 1.363 . S
C646 N644 1.356 . S
C647 C641 1.363 . S
C647 C642 1.379 . S
C647 N645 1.356 . S
N648 C640 1.356 . S
N648 H654 0.984 . S
N648 H655 0.984 . S
N649 C642 1.356 . S
N649 H652 0.984 . S
N649 H653 0.985 . S
H650 N645 0.984 . S
H651 N645 0.985 . S
H652 N649 0.984 . S
H653 N649 0.985 . S
H654 N648 0.984 . S
H655 N648 0.984 . S
H656 N644 0.984 . S
H657 N644 0.985 . S
C658 C659 1.363 . S
C658 C664 1.379 . S
C658 N666 1.356 . S
C659 C658 1.363 . S
C659 C665 1.363 . S
C660 C661 1.363 . S
C660 C665 1.379 . S
C660 N667 1.356 . S
C661 C660 1.363 . S
C661 C664 1.363 . S
N662 C664 1.356 . S
N662 H674 0.984 . S
N662 H675 0.985 . S
N663 C665 1.356 . S
N663 H668 0.984 . S
N663 H669 0.985 . S
C664 C658 1.379 . S
C664 C661 1.363 . S
C664 N662 1.356 . S
C665 C659 1.363 . S
C665 C660 1.379 . S
C665 N663 1.356 . S
N666 C658 1.356 . S
N666 H672 0.984 . S
N666 H673 0.984 . S
N667 C660 1.356 . S
N667 H670 0.984 . S
N667 H671 0.985 . S
H668 N663 0.984 . S
H669 N663 0.985 . S
H670 N667 0.984 . S
H671 N667 0.985 . S
H672 N666 0.984 . S
H673 N666 0.984 . S
H674 N662 0.984 . S
H675 N662 0.985 . S
C676 C677 1.363 . S
C676 C682 1.379 . S
C676 N684 1.356 . S
C677 C676 1.363 . S
C677 C683 1.363 . S
C678 C679 1.363 . S
C678 C683 1.379 . S
C678 N685 1.356 . S
C679 C678 1.363 . S
C679 C682 1.363 . S
N680 C682 1.356 . S
N680 H692 0.984 . S
N680 H693 0.985 . S
N681 C683 1.356 . S
N681 H686 0.984 . S
N681 H687 0.985 . S
C682 C676 1.379 . S
C682 C679 1.363 . S
C682 N680 1.356 . S
C683 C677 1.363 . S
C683 C678 1.379 . S
C683 N681 1.356 . S
N684 C676 1.356 . S
N684 H690 0.984 . S
N684 H691 0.984 . S
N685 C678 1.356 . S
N685 H688 0.984 . S
N685 H689 0.985 . S
H686 N681 0.984 . S
H687 N681 0.985 . S
H688 N685 0.984 . S
H689 N685 0.985 . S
H690 N684 0.984 . S
H691 N684 0.984 . S
H692 N680 0.984 . S
H693 N680 0.985 . S
C694 C695 1.363 . S
C694 C700 1.379 . S
C694 N702 1.356 . S
C695 C694 1.363 . S
C695 C701 1.363 . S
C696 C697 1.363 . S
C696 C701 1.379 . S
C696 N703 1.356 . S
C697 C696 1.363 . S
C697 C700 1.363 . S
N698 C700 1.356 . S
N698 H710 0.984 . S
N698 H711 0.985 . S
N699 C701 1.356 . S
N699 H704 0.984 . S
N699 H705 0.985 . S
C700 C694 1.379 . S
C700 C697 1.363 . S
C700 N698 1.356 . S
C701 C695 1.363 . S
C701 C696 1.379 . S
C701 N699 1.356 . S
N702 C694 1.356 . S
N702 H708 0.984 . S
N702 H709 0.984 . S
N703 C696 1.356 . S
N703 H706 0.984 . S
N703 H707 0.985 . S
H704 N699 0.984 . S
H705 N699 0.985 . S
H706 N703 0.984 . S
H707 N703 0.985 . S
H708 N702 0.984 . S
H709 N702 0.984 . S
H710 N698 0.984 . S
H711 N698 0.985 . S
C712 C713 1.363 . S
C712 C718 1.379 . S
C712 N720 1.356 . S
C713 C712 1.363 . S
C713 C719 1.363 . S
C714 C715 1.363 . S
C714 C719 1.379 . S
C714 N721 1.356 . S
C715 C714 1.363 . S
C715 C718 1.363 . S
N716 C718 1.356 . S
N716 H728 0.984 . S
N716 H729 0.985 . S
N717 C719 1.356 . S
N717 H722 0.984 . S
N717 H723 0.985 . S
C718 C712 1.379 . S
C718 C715 1.363 . S
C718 N716 1.356 . S
C719 C713 1.363 . S
C719 C714 1.379 . S
C719 N717 1.356 . S
N720 C712 1.356 . S
N720 H726 0.984 . S
N720 H727 0.984 . S
N721 C714 1.356 . S
N721 H724 0.984 . S
N721 H725 0.985 . S
H722 N717 0.984 . S
H723 N717 0.985 . S
H724 N721 0.984 . S
H725 N721 0.985 . S
H726 N720 0.984 . S
H727 N720 0.984 . S
H728 N716 0.984 . S
H729 N716 0.985 . S
C730 C731 1.363 . S
C730 C736 1.379 . S
C730 N738 1.356 . S
C731 C730 1.363 . S
C731 C737 1.363 . S
C732 C733 1.363 . S
C732 C737 1.379 . S
C732 N739 1.356 . S
C733 C732 1.363 . S
C733 C736 1.363 . S
N734 C736 1.356 . S
N734 H746 0.984 . S
N734 H747 0.985 . S
N735 C737 1.356 . S
N735 H740 0.984 . S
N735 H741 0.985 . S
C736 C730 1.379 . S
C736 C733 1.363 . S
C736 N734 1.356 . S
C737 C731 1.363 . S
C737 C732 1.379 . S
C737 N735 1.356 . S
N738 C730 1.356 . S
N738 H744 0.984 . S
N738 H745 0.984 . S
N739 C732 1.356 . S
N739 H742 0.984 . S
N739 H743 0.985 . S
H740 N735 0.984 . S
H741 N735 0.985 . S
H742 N739 0.984 . S
H743 N739 0.985 . S
H744 N738 0.984 . S
H745 N738 0.984 . S
H746 N734 0.984 . S
H747 N734 0.985 . S
C748 C749 1.363 . S
C748 C754 1.379 . S
C748 N756 1.356 . S
C749 C748 1.363 . S
C749 C755 1.363 . S
C750 C751 1.363 . S
C750 C755 1.379 . S
C750 N757 1.356 . S
C751 C750 1.363 . S
C751 C754 1.363 . S
N752 C754 1.356 . S
N752 H764 0.984 . S
N752 H765 0.985 . S
N753 C755 1.356 . S
N753 H758 0.984 . S
N753 H759 0.985 . S
C754 C748 1.379 . S
C754 C751 1.363 . S
C754 N752 1.356 . S
C755 C749 1.363 . S
C755 C750 1.379 . S
C755 N753 1.356 . S
N756 C748 1.356 . S
N756 H762 0.984 . S
N756 H763 0.984 . S
N757 C750 1.356 . S
N757 H760 0.984 . S
N757 H761 0.985 . S
H758 N753 0.984 . S
H759 N753 0.985 . S
H760 N757 0.984 . S
H761 N757 0.985 . S
H762 N756 0.984 . S
H763 N756 0.984 . S
H764 N752 0.984 . S
H765 N752 0.985 . S
C766 C767 1.363 . S
C766 C772 1.379 . S
C766 N774 1.356 . S
C767 C766 1.363 . S
C767 C773 1.363 . S
C768 C769 1.363 . S
C768 C773 1.379 . S
C768 N775 1.356 . S
C769 C768 1.363 . S
C769 C772 1.363 . S
N770 C772 1.356 . S
N770 H782 0.984 . S
N770 H783 0.985 . S
N771 C773 1.356 . S
N771 H776 0.984 . S
N771 H777 0.985 . S
C772 C766 1.379 . S
C772 C769 1.363 . S
C772 N770 1.356 . S
C773 C767 1.363 . S
C773 C768 1.379 . S
C773 N771 1.356 . S
N774 C766 1.356 . S
N774 H780 0.984 . S
N774 H781 0.984 . S
N775 C768 1.356 . S
N775 H778 0.984 . S
N775 H779 0.985 . S
H776 N771 0.984 . S
H777 N771 0.985 . S
H778 N775 0.984 . S
H779 N775 0.985 . S
H780 N774 0.984 . S
H781 N774 0.984 . S
H782 N770 0.984 . S
H783 N770 0.985 . S
C209 C10 1.937 . S
C211 C36 1.937 . S
C227 C49 1.937 . S
C229 C23 1.937 . S
C245 C62 1.937 . S
C247 C88 1.937 . S
C263 C101 1.937 . S
C265 C75 1.937 . S
C281 C114 1.824 . S
C283 C140 1.824 . S
C299 C153 1.824 . S
C301 C127 1.824 . S
C317 C166 1.824 . S
C319 C192 1.824 . S
C335 C205 1.824 . S
C337 C179 1.824 . S
C353 C55 1.520 . S
C355 C3 1.520 . S
C371 C16 1.520 . S
C373 C68 1.520 . S
C389 C29 1.520 . S
C391 C81 1.520 . S
C407 C94 1.520 . S
C409 C42 1.520 . S
C425 C107 1.563 . S
C427 C159 1.563 . S
C443 C120 1.563 . S
C445 C172 1.563 . S
C461 C133 1.563 . S
C463 C185 1.563 . S
C479 C146 1.563 . S
C481 C198 1.563 . S
C497 C131 1.530 . S
C499 C1 1.518 . S
C515 C144 1.530 . S
C517 C14 1.518 . S
C533 C27 1.518 . S
C535 C105 1.530 . S
C551 C40 1.518 . S
C553 C118 1.530 . S
C569 C53 1.518 . S
C571 C183 1.530 . S
C587 C66 1.518 . S
C589 C196 1.530 . S
C605 C79 1.518 . S
C607 C157 1.530 . S
C623 C170 1.530 . S
C625 C92 1.518 . S
C641 C5 1.789 . S
C643 C200 1.729 . S
C659 C161 1.729 . S
C661 C18 1.789 . S
C677 C31 1.789 . S
C679 C174 1.729 . S
C695 C187 1.729 . S
C697 C44 1.789 . S
C713 C122 1.729 . S
C715 C57 1.789 . S
C731 C70 1.789 . S
C733 C135 1.729 . S
C749 C148 1.729 . S
C751 C83 1.789 . S
C767 C109 1.729 . S
C769 C96 1.789 . S
