# Generated by pormake.
# Topology vby, (6)-cn, num edge types: 1
# Building blocks:
#     Node 0, Type 0, BuildingBlock: UKALOJ_clean_sbu_0, # of connection points: 6
#     Node 1, Type 0, BuildingBlock: UKALOJ_clean_sbu_0, # of connection points: 6
#     Node 2, Type 0, BuildingBlock: UKALOJ_clean_sbu_0, # of connection points: 6
#     Node 3, Type 0, BuildingBlock: UKALOJ_clean_sbu_0, # of connection points: 6
#     Node 4, Type 0, BuildingBlock: UKALOJ_clean_sbu_0, # of connection points: 6
#     Node 5, Type 0, BuildingBlock: UKALOJ_clean_sbu_0, # of connection points: 6
#     Node 6, Type 0, BuildingBlock: UKALOJ_clean_sbu_0, # of connection points: 6
#     Node 7, Type 0, BuildingBlock: UKALOJ_clean_sbu_0, # of connection points: 6
#     Edge 8, Type (0, 0), BuildingBlock: CIFDUS_clean_linker_0, # of connection points: 2
#     Edge 9, Type (0, 0), BuildingBlock: CIFDUS_clean_linker_0, # of connection points: 2
#     Edge 10, Type (0, 0), BuildingBlock: CIFDUS_clean_linker_0, # of connection points: 2
#     Edge 11, Type (0, 0), BuildingBlock: CIFDUS_clean_linker_0, # of connection points: 2
#     Edge 12, Type (0, 0), BuildingBlock: CIFDUS_clean_linker_0, # of connection points: 2
#     Edge 13, Type (0, 0), BuildingBlock: CIFDUS_clean_linker_0, # of connection points: 2
#     Edge 14, Type (0, 0), BuildingBlock: CIFDUS_clean_linker_0, # of connection points: 2
#     Edge 15, Type (0, 0), BuildingBlock: CIFDUS_clean_linker_0, # of connection points: 2
#     Edge 16, Type (0, 0), BuildingBlock: CIFDUS_clean_linker_0, # of connection points: 2
#     Edge 17, Type (0, 0), BuildingBlock: CIFDUS_clean_linker_0, # of connection points: 2
#     Edge 18, Type (0, 0), BuildingBlock: CIFDUS_clean_linker_0, # of connection points: 2
#     Edge 19, Type (0, 0), BuildingBlock: CIFDUS_clean_linker_0, # of connection points: 2
#     Edge 20, Type (0, 0), BuildingBlock: CIFDUS_clean_linker_0, # of connection points: 2
#     Edge 21, Type (0, 0), BuildingBlock: CIFDUS_clean_linker_0, # of connection points: 2
#     Edge 22, Type (0, 0), BuildingBlock: CIFDUS_clean_linker_0, # of connection points: 2
#     Edge 23, Type (0, 0), BuildingBlock: CIFDUS_clean_linker_0, # of connection points: 2
#     Edge 24, Type (0, 0), BuildingBlock: CIFDUS_clean_linker_0, # of connection points: 2
#     Edge 25, Type (0, 0), BuildingBlock: CIFDUS_clean_linker_0, # of connection points: 2
#     Edge 26, Type (0, 0), BuildingBlock: CIFDUS_clean_linker_0, # of connection points: 2
#     Edge 27, Type (0, 0), BuildingBlock: CIFDUS_clean_linker_0, # of connection points: 2
#     Edge 28, Type (0, 0), BuildingBlock: CIFDUS_clean_linker_0, # of connection points: 2
#     Edge 29, Type (0, 0), BuildingBlock: CIFDUS_clean_linker_0, # of connection points: 2
#     Edge 30, Type (0, 0), BuildingBlock: CIFDUS_clean_linker_0, # of connection points: 2
#     Edge 31, Type (0, 0), BuildingBlock: CIFDUS_clean_linker_0, # of connection points: 2
# Relax obj value: 0.067
# Max RMSD: 0.108
# Mean RMSD: 0.108
data_MOF--net-vby--node1-UKALOJ_clean_sbu_0--edge1-CIFDUS_clean_linker_0
_symmetry_space_group_name_H-M    P1
_symmetry_Int_Tables_number       1
_symmetry_cell_setting            triclinic
loop_
_symmetry_equiv_pos_as_xyz
'x, y, z'
_cell_length_a     13.37157
_cell_length_b     50.955351
_cell_length_c     36.61054
_cell_angle_alpha  90.19166
_cell_angle_beta   89.98086
_cell_angle_gamma 90.273448
loop_
_atom_site_label
_atom_site_type_symbol
_atom_site_fract_x
_atom_site_fract_y
_atom_site_fract_z
_atom_type_partial_charge
Zn0 Zn 0.96877 0.3488 0.98732 0.0
O1 O 0.12572 0.35157 0.97866 0.0
C2 C 0.00493 0.29718 1.02111 0.0
Zn3 Zn -0.01498 0.35212 0.04751 0.0
C4 C 0.18032 0.35438 1.00693 0.0
O5 O 0.13942 0.35597 0.03818 0.0
C6 C 0.77334 0.34645 0.02797 0.0
O7 O 0.96864 0.39357 0.04263 0.0
O8 O 0.95452 0.38955 0.9831 0.0
N9 N 0.01088 0.35457 0.10265 0.0
C10 C 0.95988 0.36517 0.13086 0.0
C11 C 0.0873 0.34599 0.153 0.0
N12 N 0.09006 0.34276 0.11654 0.0
N13 N 0.00614 0.3599 0.16298 0.0
C14 C 0.97163 0.35475 0.9025 0.0
C15 C 0.85015 0.32934 0.88837 0.0
N16 N 0.93771 0.34391 0.93362 0.0
N17 N 0.86268 0.32807 0.92473 0.0
N18 N 0.9176 0.34592 0.87379 0.0
H19 H 0.0637 0.38495 0.92715 0.0
H20 H 0.03754 0.38948 0.879 0.0
H21 H 0.12475 0.36489 0.89362 0.0
C22 C 0.05362 0.37485 0.90059 0.0
C23 C 0.86791 0.38156 0.1264 0.0
H24 H 0.86615 0.39089 0.09918 0.0
H25 H 0.86451 0.39701 0.14778 0.0
H26 H 0.8008 0.3688 0.12871 0.0
O27 O 0.82821 0.34803 0.05624 0.0
O28 O 0.81421 0.3461 0.99675 0.0
C29 C 0.95717 0.40403 1.01135 0.0
O30 O -0.01575 0.30824 0.99115 0.0
O31 O 0.00668 0.31073 0.05035 0.0
Zn32 Zn 0.9076 0.61419 0.05556 0.0
O33 O 0.91925 0.57359 0.05382 0.0
C34 C 0.10308 0.61815 1.01901 0.0
Zn35 Zn 0.89107 0.61356 0.99461 0.0
C36 C 0.91877 0.56012 0.02468 0.0
O37 O 0.90907 0.57168 0.99408 0.0
C38 C 0.87281 0.66725 0.02827 0.0
O39 O 0.73576 0.60907 0.99983 0.0
O40 O 0.75106 0.61115 0.05952 0.0
N41 N 0.87798 0.6136 0.93801 0.0
C42 C 0.93047 0.62596 0.91152 0.0
C43 C 0.82513 0.60092 0.885 0.0
N44 N 0.81226 0.59817 0.92134 0.0
N45 N 0.89932 0.61818 0.87792 0.0
C46 C 0.96131 0.62752 0.1369 0.0
C47 C 0.89097 0.59561 0.16447 0.0
N48 N 0.91687 0.61236 0.11127 0.0
N49 N 0.87316 0.59261 0.12853 0.0
N50 N 0.94587 0.61742 0.17059 0.0
H51 H 0.05359 0.65055 0.1005 0.0
H52 H 0.08596 0.65326 0.14833 0.0
H53 H 0.97566 0.66904 0.13088 0.0
C54 C 0.02333 0.65135 0.12861 0.0
C55 C 0.00788 0.64669 0.9187 0.0
H56 H 0.00873 0.66135 0.89635 0.0
H57 H 0.08251 0.63743 0.9201 0.0
H58 H -0.0063 0.65671 0.94506 0.0
O59 O 0.86894 0.65511 0.99776 0.0
O60 O 0.894 0.6548 0.05717 0.0
C61 C 0.69594 0.60938 0.03136 0.0
O62 O 0.0633 0.61693 0.05048 0.0
O63 O 0.0478 0.61794 0.99076 0.0
Zn64 Zn 0.09921 0.63726 0.49208 0.0
O65 O 0.0909 0.59672 0.48559 0.0
C66 C 0.88906 0.63971 0.51723 0.0
Zn67 Zn 0.08562 0.63408 0.553 0.0
C68 C 0.07609 0.58229 0.51322 0.0
O69 O 0.06966 0.59275 0.5448 0.0
C70 C 0.11229 0.68898 0.52976 0.0
O71 O 0.2411 0.63013 0.55604 0.0
O72 O 0.25569 0.63485 0.49669 0.0
N73 N 0.0777 0.62845 0.609 0.0
C74 C 0.01714 0.63728 0.63593 0.0
C75 C 0.1231 0.61175 0.6605 0.0
N76 N 0.14329 0.61262 0.62451 0.0
N77 N 0.04401 0.62699 0.66864 0.0
C78 C 0.07164 0.6293 0.4081 0.0
C79 C 0.16349 0.65976 0.38628 0.0
N80 N 0.11233 0.6423 0.43666 0.0
N81 N 0.16922 0.66123 0.423 0.0
N82 N 0.10317 0.63978 0.37624 0.0
H83 H 0.95598 0.60831 0.43754 0.0
H84 H 0.03675 0.58838 0.40997 0.0
H85 H 0.94252 0.60803 0.38849 0.0
C86 C -0.00306 0.60738 0.41134 0.0
C87 C 0.93602 0.65699 0.63021 0.0
H88 H 0.95364 0.66968 0.60651 0.0
H89 H 0.92595 0.66931 0.65498 0.0
H90 H 0.86483 0.6465 0.62445 0.0
O91 O 0.1049 0.67564 0.55905 0.0
O92 O 0.10834 0.67752 0.499 0.0
C93 C 0.29587 0.63177 0.52783 0.0
O94 O 0.94354 0.63999 0.48882 0.0
O95 O 0.92938 0.63792 0.54859 0.0
Zn96 Zn -0.0159 0.37346 0.55336 0.0
O97 O 0.82748 0.37617 0.56161 0.0
C98 C 0.94842 0.32049 0.5282 0.0
Zn99 Zn 0.96855 0.37405 0.49305 0.0
C100 C 0.77308 0.37803 0.53319 0.0
O101 O 0.81412 0.37867 0.50188 0.0
C102 C 0.17976 0.36925 0.51325 0.0
O103 O -0.01348 0.41578 0.4904 0.0
O104 O -0.00676 0.41394 0.55014 0.0
N105 N 0.94218 0.37104 0.43798 0.0
C106 C -0.00654 0.37874 0.40807 0.0
C107 C 0.86524 0.35755 0.38968 0.0
N108 N 0.8625 0.35795 0.4264 0.0
N109 N 0.94689 0.37033 0.37723 0.0
C110 C -0.02164 0.36719 0.63846 0.0
C111 C 0.10809 0.38968 0.65234 0.0
N112 N 0.01591 0.37705 0.60723 0.0
N113 N 0.096 0.3911 0.61601 0.0
N114 N 0.0353 0.37483 0.66714 0.0
H115 H 0.87372 0.33994 0.61372 0.0
H116 H 0.82275 0.36085 0.64835 0.0
H117 H 0.90127 0.3339 0.66143 0.0
C118 C 0.88939 0.34925 0.64046 0.0
C119 C 0.08607 0.3954 0.40947 0.0
H120 H 0.08843 0.40731 0.43476 0.0
H121 H 0.08988 0.40863 0.38549 0.0
H122 H 0.15268 0.38252 0.4094 0.0
O123 O 0.12494 0.36914 0.4849 0.0
O124 O 0.1389 0.37076 0.54442 0.0
C125 C -0.00633 0.42738 0.52113 0.0
O126 O 0.97288 0.3328 0.55701 0.0
O127 O 0.94514 0.33267 0.49789 0.0
Zn128 Zn 0.55345 0.8542 0.99706 0.0
O129 O 0.71115 0.85856 0.99665 0.0
C130 C 0.57952 0.80206 0.02982 0.0
Zn131 Zn 0.54255 0.85636 0.0581 0.0
C132 C 0.75171 0.86192 0.02782 0.0
O133 O 0.69751 0.86255 0.05628 0.0
C134 C 0.34438 0.84862 0.02739 0.0
O135 O 0.5189 0.8978 0.05413 0.0
O136 O 0.53477 0.89484 0.99439 0.0
N137 N 0.55227 0.85719 0.11461 0.0
C138 C 0.50309 0.86829 0.14305 0.0
C139 C 0.62586 0.84708 0.16505 0.0
N140 N 0.62806 0.84402 0.12863 0.0
N141 N 0.54834 0.86225 0.17522 0.0
C142 C 0.56532 0.86541 0.91254 0.0
C143 C 0.48874 0.8316 0.89233 0.0
N144 N 0.54354 0.85013 0.9415 0.0
N145 N 0.49648 0.82911 0.92874 0.0
N146 N 0.53069 0.8543 0.88128 0.0
H147 H 0.57307 0.90708 0.91694 0.0
H148 H 0.67184 0.89279 0.89024 0.0
H149 H 0.6729 0.89027 0.9397 0.0
C150 C 0.62489 0.89028 0.915 0.0
C151 C 0.41409 0.88572 0.13882 0.0
H152 H 0.40982 0.89367 0.11076 0.0
H153 H 0.4171 0.90206 0.15891 0.0
H154 H 0.34515 0.87407 0.14381 0.0
O155 O 0.3855 0.85039 0.05868 0.0
O156 O 0.39796 0.84956 0.99881 0.0
C157 C 0.51991 0.9087 0.02279 0.0
O158 O 0.57169 0.8141 0.99985 0.0
O159 O 0.57002 0.81464 0.05971 0.0
Zn160 Zn 0.35664 0.1156 0.05707 0.0
O161 O 0.37077 0.07497 0.05823 0.0
C162 C 0.56654 0.12035 0.03209 0.0
Zn163 Zn 0.36936 0.11405 0.99588 0.0
C164 C 0.38785 0.06131 0.02992 0.0
O165 O 0.3928 0.07253 0.99889 0.0
C166 C 0.33184 0.168 0.02549 0.0
O167 O 0.21392 0.10822 0.99246 0.0
O168 O 0.19994 0.1121 0.05201 0.0
N169 N 0.37814 0.11252 0.93907 0.0
C170 C 0.43794 0.12418 0.914 0.0
C171 C 0.33542 0.09983 0.88486 0.0
N172 N 0.31463 0.09745 0.92072 0.0
N173 N 0.4128 0.11645 0.87966 0.0
C174 C 0.38075 0.13112 0.13973 0.0
C175 C 0.30067 0.10006 0.16561 0.0
N176 N 0.34347 0.11552 0.11305 0.0
N177 N 0.29348 0.09634 0.12928 0.0
N178 N 0.35477 0.12181 0.17304 0.0
H179 H 0.50552 0.15597 0.15427 0.0
H180 H 0.40011 0.17256 0.13453 0.0
H181 H 0.48139 0.15385 0.10578 0.0
C182 C 0.44635 0.15457 0.1331 0.0
C183 C 0.51629 0.14421 0.92326 0.0
H184 H 0.49582 0.15496 0.94853 0.0
H185 H 0.52618 0.15834 0.90054 0.0
H186 H 0.5884 0.13411 0.92805 0.0
O187 O 0.34153 0.15551 0.99543 0.0
O188 O 0.34123 0.15602 0.05559 0.0
C189 C 0.15936 0.10923 1.02083 0.0
O190 O 0.51269 0.11895 0.06062 0.0
O191 O 0.52546 0.11971 1.00075 0.0
Zn192 Zn 0.55866 0.14314 0.49347 0.0
O193 O 0.5424 0.10281 0.48693 0.0
C194 C 0.36243 0.14662 0.53082 0.0
Zn195 Zn 0.57338 0.13901 0.55446 0.0
C196 C 0.53732 0.08808 0.51469 0.0
O197 O 0.54637 0.098 0.54653 0.0
C198 C 0.60176 0.19393 0.53097 0.0
O199 O 0.72861 0.13349 0.54809 0.0
O200 O 0.7149 0.13934 0.48882 0.0
N201 N 0.58578 0.13298 0.6107 0.0
C202 C 0.53362 0.1423 0.6396 0.0
C203 C 0.63625 0.11424 0.66027 0.0
N204 N 0.64984 0.11564 0.6238 0.0
N205 N 0.56322 0.13068 0.67107 0.0
C206 C 0.49761 0.1356 0.4115 0.0
C207 C 0.58194 0.16575 0.38535 0.0
N208 N 0.54847 0.1486 0.43785 0.0
N209 N 0.6005 0.16736 0.42148 0.0
N210 N 0.51793 0.14588 0.37827 0.0
H211 H 0.38988 0.11588 0.44593 0.0
H212 H 0.46367 0.0948 0.4174 0.0
H213 H 0.36429 0.11373 0.39758 0.0
C214 C 0.42418 0.11387 0.41856 0.0
C215 C 0.45821 0.16383 0.63715 0.0
H216 H 0.47357 0.17656 0.61329 0.0
H217 H 0.45865 0.17584 0.6625 0.0
H218 H 0.38283 0.15509 0.63387 0.0
O219 O 0.60381 0.17998 0.55979 0.0
O220 O 0.57804 0.18347 0.50064 0.0
C221 C 0.7692 0.13552 0.51678 0.0
O222 O 0.40291 0.14692 0.49941 0.0
O223 O 0.41708 0.14459 0.5591 0.0
Zn224 Zn 0.40481 0.88189 0.55673 0.0
O225 O 0.24834 0.88379 0.56464 0.0
C226 C 0.37669 0.82834 0.53292 0.0
Zn227 Zn 0.38984 0.88148 0.49583 0.0
C228 C 0.19405 0.8852 0.53615 0.0
O229 O 0.23512 0.88556 0.50483 0.0
C230 C 0.60062 0.8781 0.51656 0.0
O231 O 0.40555 0.92327 0.49185 0.0
O232 O 0.41032 0.92231 0.55175 0.0
N233 N 0.36172 0.87727 0.44042 0.0
C234 C 0.40847 0.88473 0.40933 0.0
C235 C 0.2785 0.86314 0.3938 0.0
N236 N 0.2811 0.86389 0.43051 0.0
N237 N 0.35761 0.87599 0.37946 0.0
C238 C 0.41661 0.87185 0.64126 0.0
C239 C 0.50584 0.90454 0.6579 0.0
N240 N 0.43415 0.8865 0.61131 0.0
N241 N 0.48929 0.90681 0.62183 0.0
N242 N 0.46163 0.88267 0.67085 0.0
H243 H 0.29144 0.84959 0.62075 0.0
H244 H 0.31657 0.84515 0.66892 0.0
H245 H 0.39692 0.83042 0.6351 0.0
C246 C 0.35113 0.84792 0.64163 0.0
C247 C 0.50065 0.90153 0.40872 0.0
H248 H 0.50674 0.91334 0.43408 0.0
H249 H 0.50007 0.91479 0.38474 0.0
H250 H 0.5674 0.88873 0.40706 0.0
O251 O 0.546 0.87726 0.48813 0.0
O252 O 0.55978 0.88003 0.54778 0.0
C253 C 0.41121 0.93531 0.52233 0.0
O254 O 0.39788 0.84138 0.56144 0.0
O255 O 0.37092 0.84 0.50225 0.0
H256 H 0.31256 0.35342 0.06304 0.0
H257 H 0.29615 0.35369 0.94521 0.0
H258 H 0.47831 0.35044 0.94164 0.0
H259 H 0.64101 0.34729 0.97191 0.0
H260 H 0.65746 0.34698 0.08974 0.0
H261 H 0.47531 0.35021 0.09332 0.0
C262 C 0.34864 0.35294 0.03651 0.0
C263 C 0.29071 0.35391 1.00439 0.0
C264 C 0.45302 0.35083 0.03468 0.0
C265 C 0.33889 0.35306 0.97032 0.0
C266 C 0.44297 0.35112 0.96827 0.0
C267 C 0.60496 0.34779 0.99845 0.0
C268 C 0.66293 0.34683 0.03056 0.0
C269 C 0.50058 0.34987 1.00028 0.0
C270 C 0.61474 0.34762 0.06463 0.0
C271 C 0.51065 0.34955 0.06668 0.0
H272 H 0.24025 0.61515 0.07336 0.0
H273 H 0.2125 0.61998 0.95606 0.0
H274 H 0.39336 0.61706 0.9496 0.0
H275 H 0.55889 0.6126 0.97711 0.0
H276 H 0.58707 0.60724 0.09437 0.0
H277 H 0.40593 0.6105 0.10089 0.0
C278 C 0.2737 0.61571 0.04637 0.0
C279 C 0.21287 0.61796 1.01525 0.0
C280 C 0.37763 0.61362 0.04281 0.0
C281 C 0.25748 0.61851 0.98049 0.0
C282 C 0.36095 0.61668 0.97674 0.0
C283 C 0.52545 0.61195 1.0041 0.0
C284 C 0.58626 0.60959 0.03518 0.0
C285 C 0.42159 0.61406 1.00769 0.0
C286 C 0.54182 0.60898 0.06997 0.0
C287 C 0.43833 0.61094 0.07376 0.0
H288 H 0.7515 0.63159 0.57044 0.0
H289 H 0.78103 0.64811 0.45528 0.0
H290 H 0.59977 0.64645 0.44828 0.0
H291 H 0.43348 0.64006 0.47469 0.0
H292 H 0.40399 0.6233 0.58979 0.0
H293 H 0.5852 0.62512 0.59684 0.0
C294 C 0.7183 0.63501 0.54386 0.0
C295 C 0.77949 0.64006 0.5135 0.0
C296 C 0.61427 0.63378 0.53992 0.0
C297 C 0.73544 0.64422 0.47915 0.0
C298 C 0.63187 0.64322 0.47507 0.0
C299 C 0.46667 0.63666 0.50128 0.0
C300 C 0.40547 0.63152 0.53162 0.0
C301 C 0.57069 0.63789 0.50523 0.0
C302 C 0.44954 0.62728 0.56595 0.0
C303 C 0.5531 0.62838 0.57006 0.0
H304 H 0.64055 0.37447 0.47732 0.0
H305 H 0.65776 0.37969 0.59494 0.0
H306 H 0.47557 0.37658 0.59891 0.0
H307 H 0.3125 0.37235 0.56907 0.0
H308 H 0.29523 0.36684 0.45148 0.0
H309 H 0.47744 0.36983 0.4475 0.0
C310 C 0.60461 0.37512 0.50387 0.0
C311 C 0.66274 0.37751 0.53581 0.0
C312 C 0.50018 0.37304 0.50596 0.0
C313 C 0.61481 0.37802 0.56995 0.0
C314 C 0.51071 0.37614 0.57223 0.0
C315 C 0.34838 0.37166 0.54251 0.0
C316 C 0.29015 0.36937 0.51058 0.0
C317 C 0.45283 0.37357 0.54043 0.0
C318 C 0.33814 0.36856 0.47646 0.0
C319 C 0.44228 0.37036 0.47417 0.0
H320 H 0.89262 0.846 0.97917 0.0
H321 H 0.85617 0.87904 0.08704 0.0
H322 H 0.03583 0.87633 0.09752 0.0
H323 H 0.20372 0.86427 0.07629 0.0
H324 H 0.24009 0.8314 0.96833 0.0
H325 H 0.06029 0.83394 0.95795 0.0
C326 C 0.92423 0.8529 1.00476 0.0
C327 C 0.86132 0.8628 0.03215 0.0
C328 C 0.02751 0.85093 1.01088 0.0
C329 C 0.90314 0.87135 0.06542 0.0
C330 C 0.00582 0.8697 0.07156 0.0
C331 C 0.17198 0.85735 0.05072 0.0
C332 C 0.23484 0.84757 0.02323 0.0
C333 C 0.06865 0.85929 0.04463 0.0
C334 C 0.19304 0.83901 0.98997 0.0
C335 C 0.09032 0.84056 0.98391 0.0
H336 H 0.02281 0.11869 0.07402 0.0
H337 H 0.04938 0.10039 0.95916 0.0
H338 H 0.86835 0.10348 0.9522 0.0
H339 H 0.70284 0.11143 0.97865 0.0
H340 H 0.67639 0.12948 0.09356 0.0
H341 H 0.85756 0.12674 0.10042 0.0
C342 C -0.01098 0.11517 0.04751 0.0
C343 C 0.04946 0.10921 1.01722 0.0
C344 C 0.88512 0.11721 0.0436 0.0
C345 C 0.00451 0.10493 0.98298 0.0
C346 C 0.90104 0.10679 0.97892 0.0
C347 C 0.73677 0.11501 1.00512 0.0
C348 C 0.67638 0.12072 0.03551 0.0
C349 C 0.84074 0.11305 1.00899 0.0
C350 C 0.72133 0.12505 0.06972 0.0
C351 C 0.82484 0.12341 0.0737 0.0
H352 H 0.22626 0.14247 0.47607 0.0
H353 H 0.25102 0.1493 0.59329 0.0
H354 H 0.07018 0.14532 0.59929 0.0
H355 H 0.90525 0.13955 0.57139 0.0
H356 H 0.87969 0.13289 0.45415 0.0
H357 H 0.06105 0.1368 0.44811 0.0
C358 C 0.19215 0.14331 0.50294 0.0
C359 C 0.25232 0.1463 0.5342 0.0
C360 C 0.0881 0.14071 0.50622 0.0
C361 C 0.20673 0.14712 0.56878 0.0
C362 C 0.10322 0.14473 0.57225 0.0
C363 C 0.93935 0.13869 0.54452 0.0
C364 C 0.87915 0.13579 0.51329 0.0
C365 C 0.04331 0.14133 0.54119 0.0
C366 C 0.92444 0.13504 0.47865 0.0
C367 C 0.02805 0.13738 0.47515 0.0
H368 H 0.73357 0.88118 0.5723 0.0
H369 H 0.71554 0.87561 0.45472 0.0
H370 H 0.89783 0.87793 0.45062 0.0
H371 H 0.06126 0.88189 0.48035 0.0
H372 H 0.07912 0.88725 0.59795 0.0
H373 H 0.89688 0.88486 0.60203 0.0
C374 C 0.76931 0.88036 0.54572 0.0
C375 C 0.71091 0.87819 0.51384 0.0
C376 C 0.87379 0.88186 0.54357 0.0
C377 C 0.75865 0.87721 0.47968 0.0
C378 C 0.86283 0.87862 0.47731 0.0
C379 C 0.02545 0.88269 0.50692 0.0
C380 C 0.08377 0.88489 0.53882 0.0
C381 C 0.92096 0.88108 0.50907 0.0
C382 C 0.03603 0.88566 0.57298 0.0
C383 C 0.93189 0.88423 0.57533 0.0
H384 H 0.91308 0.5237 0.96953 0.0
H385 H 0.94721 0.5317 0.08641 0.0
H386 H 0.96151 0.48445 0.09253 0.0
H387 H 0.96363 0.4407 0.06526 0.0
H388 H 0.93034 0.43199 0.94855 0.0
H389 H 0.91626 0.47947 0.942 0.0
C390 C 0.92381 0.51508 0.99629 0.0
C391 C 0.92888 0.53129 0.02737 0.0
C392 C 0.93194 0.48769 0.99979 0.0
C393 C 0.9428 0.51977 0.0619 0.0
C394 C 0.95101 0.49268 0.06554 0.0
C395 C 0.95324 0.44916 0.03838 0.0
C396 C 0.94793 0.43279 1.00753 0.0
C397 C 0.94547 0.47645 0.03473 0.0
C398 C 0.93457 0.44412 0.97286 0.0
C399 C 0.92658 0.4713 0.96903 0.0
H400 H 0.03529 0.46302 0.4674 0.0
H401 H 0.97237 0.45633 0.58276 0.0
H402 H -0.00731 0.50337 0.59043 0.0
H403 H 0.02995 0.54642 0.56506 0.0
H404 H 0.09621 0.55386 0.45018 0.0
H405 H 0.0729 0.50672 0.44177 0.0
C406 C 0.02552 0.47193 0.4941 0.0
C407 C 0.00255 0.45616 0.52437 0.0
C408 C 0.03817 0.49916 0.49855 0.0
C409 C -0.00941 0.46796 0.55893 0.0
C410 C 0.00214 0.49491 0.56344 0.0
C411 C 0.0395 0.53776 0.53819 0.0
C412 C 0.06437 0.55367 0.50834 0.0
C413 C 0.02646 0.51067 0.53354 0.0
C414 C 0.07639 0.54209 0.47366 0.0
C415 C 0.06322 0.5151 0.46879 0.0
H416 H 0.46003 0.94347 0.07514 0.0
H417 H 0.53648 0.93787 0.96088 0.0
H418 H 0.49969 0.9841 0.95256 0.0
H419 H 0.44609 0.02644 0.97758 0.0
H420 H 0.37021 0.03227 0.09196 0.0
H421 H 0.40607 0.98587 0.10019 0.0
C422 C 0.46908 0.9524 0.04847 0.0
C423 C 0.50098 0.93713 1.0187 0.0
C424 C 0.44744 0.97913 0.04378 0.0
C425 C 0.5118 0.94904 0.98429 0.0
C426 C 0.49073 0.97556 0.97944 0.0
C427 C 0.43691 0.01753 1.00424 0.0
C428 C 0.40545 0.03284 0.034 0.0
C429 C 0.45823 0.9908 1.00896 0.0
C430 C 0.39435 0.02098 0.06847 0.0
C431 C 0.415 0.99441 0.0733 0.0
H432 H 0.47429 0.05359 0.56581 0.0
H433 H 0.55449 0.05928 0.45195 0.0
H434 H 0.51701 0.01271 0.44324 0.0
H435 H 0.46479 0.96989 0.46858 0.0
H436 H 0.38421 0.96522 0.58267 0.0
H437 H 0.41762 0.01175 0.59043 0.0
C438 C 0.48402 0.04462 0.53913 0.0
C439 C 0.51744 0.0598 0.50969 0.0
C440 C 0.46168 0.01797 0.53423 0.0
C441 C 0.52857 0.04798 0.47513 0.0
C442 C 0.50716 0.02135 0.47008 0.0
C443 C 0.45355 0.97917 0.49496 0.0
C444 C 0.4226 0.96407 0.52495 0.0
C445 C 0.4737 0.00611 0.49948 0.0
C446 C 0.40871 0.97633 0.5591 0.0
C447 C 0.42792 0.00297 0.56368 0.0
H448 H 0.14347 0.27673 0.06653 0.0
H449 H 0.96575 0.2588 0.97128 0.0
H450 H 0.05973 0.21832 0.96172 0.0
H451 H 0.19467 0.18847 0.9798 0.0
H452 H 0.37103 0.20616 0.0754 0.0
H453 H 0.27771 0.2468 0.08479 0.0
C454 C 0.12381 0.26364 0.0442 0.0
C455 C 0.0469 0.2705 1.01996 0.0
C456 C 0.18013 0.24085 0.03823 0.0
C457 C 0.02394 0.25372 0.99056 0.0
C458 C 0.07839 0.23076 0.98482 0.0
C459 C 0.21418 0.20159 1.00211 0.0
C460 C 0.2907 0.19471 0.02646 0.0
C461 C 0.15778 0.22437 1.0081 0.0
C462 C 0.31331 0.21138 0.056 0.0
C463 C 0.25921 0.2344 0.06163 0.0
H464 H 0.71203 0.77847 0.07501 0.0
H465 H 0.52794 0.76524 0.97998 0.0
H466 H 0.60904 0.72309 0.9692 0.0
H467 H 0.73604 0.69077 0.98543 0.0
H468 H 0.92056 0.70343 0.0805 0.0
H469 H 0.83781 0.74538 0.09208 0.0
C470 C 0.68818 0.76599 0.05256 0.0
C471 C 0.61341 0.77466 0.0286 0.0
C472 C 0.73734 0.74213 0.04586 0.0
C473 C 0.58475 0.75873 0.99898 0.0
C474 C 0.6318 0.73481 0.99255 0.0
C475 C 0.75945 0.70296 1.00825 0.0
C476 C 0.83526 0.69429 0.03172 0.0
C477 C 0.70955 0.72658 1.01536 0.0
C478 C 0.86303 0.70991 0.06181 0.0
C479 C 0.8151 0.73374 0.06865 0.0
H480 H 0.235 0.71454 0.57721 0.0
H481 H 0.053 0.72545 0.48127 0.0
H482 H 0.12418 0.76912 0.47242 0.0
H483 H 0.24404 0.80315 0.48989 0.0
H484 H 0.42621 0.79317 0.58598 0.0
H485 H 0.35105 0.7499 0.59641 0.0
C486 C 0.20926 0.72683 0.55501 0.0
C487 C 0.13848 0.71701 0.53009 0.0
C488 C 0.25272 0.75167 0.54946 0.0
C489 C 0.10706 0.73278 0.5009 0.0
C490 C 0.14844 0.7576 0.4956 0.0
C491 C 0.26848 0.79132 0.51278 0.0
C492 C 0.34179 0.80103 0.53672 0.0
C493 C 0.22304 0.76695 0.51915 0.0
C494 C 0.37069 0.78586 0.5669 0.0
C495 C 0.32714 0.76127 0.57305 0.0
H496 H 0.79803 0.30112 0.48735 0.0
H497 H -0.01249 0.28269 0.57894 0.0
H498 H 0.88906 0.24289 0.5907 0.0
H499 H 0.74852 0.21345 0.57465 0.0
H500 H 0.55771 0.2331 0.48384 0.0
H501 H 0.65516 0.27292 0.47288 0.0
C502 C 0.81913 0.28809 0.50941 0.0
C503 C 0.90133 0.29441 0.5317 0.0
C504 C 0.76003 0.26596 0.51683 0.0
C505 C 0.92564 0.27788 0.56098 0.0
C506 C 0.86867 0.25535 0.56797 0.0
C507 C 0.72681 0.22683 0.5531 0.0
C508 C 0.64549 0.22052 0.5303 0.0
C509 C 0.78494 0.24936 0.54631 0.0
C510 C 0.61952 0.2377 0.50193 0.0
C511 C 0.67589 0.26028 0.49537 0.0
H512 H 0.13076 0.36742 0.21934 0.0
H513 H 0.81766 0.36245 0.19182 0.0
H514 H 0.77289 0.36879 0.25557 0.0
H515 H 0.82242 0.37238 0.32001 0.0
H516 H 0.13536 0.36989 0.34818 0.0
H517 H 0.18026 0.37 0.28386 0.0
C518 C 0.05267 0.36801 0.22726 0.0
C519 C -0.02203 0.36547 0.20032 0.0
C520 C 0.02738 0.37027 0.26438 0.0
C521 C 0.87708 0.36575 0.21125 0.0
C522 C 0.85128 0.36888 0.24801 0.0
C523 C 0.90051 0.37215 0.31205 0.0
C524 C 0.97517 0.37218 0.3392 0.0
C525 C 0.92582 0.37081 0.27485 0.0
C526 C 0.07603 0.37133 0.32833 0.0
C527 C 0.10189 0.37087 0.29133 0.0
H528 H 0.01123 0.58722 0.22486 0.0
H529 H 0.9503 0.66751 0.19638 0.0
H530 H -0.00107 0.68183 0.25772 0.0
H531 H 0.05219 0.67107 0.32065 0.0
H532 H 0.10846 0.59056 0.34907 0.0
H533 H 0.06686 0.57657 0.28694 0.0
C534 C 0.00919 0.60786 0.23213 0.0
C535 C -0.02054 0.62632 0.20591 0.0
C536 C 0.03501 0.6158 0.26762 0.0
C537 C 0.97627 0.65301 0.21562 0.0
C538 C 0.00282 0.66115 0.25086 0.0
C539 C 0.05542 0.65052 0.313 0.0
C540 C 0.08079 0.63175 0.33944 0.0
C541 C 0.03164 0.64269 0.27717 0.0
C542 C 0.08582 0.60518 0.32942 0.0
C543 C 0.06301 0.59724 0.29385 0.0
H544 H 0.7971 0.62431 0.81516 0.0
H545 H 0.09536 0.62209 0.85952 0.0
H546 H 0.16576 0.62738 0.79861 0.0
H547 H 0.14348 0.62939 0.73203 0.0
H548 H 0.84639 0.6286 0.68661 0.0
H549 H 0.77473 0.62798 0.7481 0.0
C550 C 0.87745 0.62535 0.81142 0.0
C551 C 0.94062 0.62358 0.84216 0.0
C552 C 0.91769 0.62777 0.77594 0.0
C553 C 0.04471 0.62452 0.83681 0.0
C554 C 0.08517 0.62715 0.80178 0.0
C555 C 0.063 0.62943 0.73566 0.0
C556 C 0.00058 0.62958 0.70467 0.0
C557 C 0.02249 0.62845 0.77112 0.0
C558 C 0.89635 0.62936 0.70981 0.0
C559 C 0.85532 0.62864 0.74506 0.0
H560 H 0.86974 0.37468 0.70884 0.0
H561 H 0.18735 0.36116 0.71056 0.0
H562 H 0.18033 0.35169 0.77597 0.0
H563 H 0.08268 0.3467 0.83244 0.0
H564 H 0.76474 0.35928 0.83055 0.0
H565 H 0.77173 0.36915 0.76514 0.0
C566 C 0.93671 0.36907 0.72343 0.0
C567 C 0.02851 0.36806 0.70502 0.0
C568 C 0.9319 0.36366 0.7609 0.0
C569 C 0.11583 0.36186 0.72441 0.0
C570 C 0.11185 0.35647 0.76167 0.0
C571 C 0.01561 0.35205 0.81768 0.0
C572 C 0.92372 0.35279 0.83599 0.0
C573 C 0.02032 0.35738 0.78021 0.0
C574 C 0.83623 0.35883 0.81666 0.0
C575 C 0.84026 0.36443 0.77943 0.0
H576 H 0.36637 0.86889 0.20807 0.0
H577 H 0.68413 0.87062 0.228 0.0
H578 H 0.65464 0.87623 0.29322 0.0
H579 H 0.53894 0.87661 0.34515 0.0
H580 H 0.22119 0.87799 0.32548 0.0
H581 H 0.25039 0.87527 0.25975 0.0
C582 C 0.42922 0.87144 0.22634 0.0
C583 C 0.52754 0.86952 0.21276 0.0
C584 C 0.41178 0.87489 0.26413 0.0
C585 C 0.60767 0.87192 0.23757 0.0
C586 C 0.59094 0.87512 0.27497 0.0
C587 C 0.47599 0.87742 0.32669 0.0
C588 C 0.37786 0.87796 0.34063 0.0
C589 C 0.4933 0.87615 0.28872 0.0
C590 C 0.29758 0.87764 0.31568 0.0
C591 C 0.31417 0.87608 0.27799 0.0
H592 H 0.40785 0.09164 0.22931 0.0
H593 H 0.35948 0.17204 0.19832 0.0
H594 H 0.40697 0.18675 0.25962 0.0
H595 H 0.46193 0.17652 0.32252 0.0
H596 H 0.50897 0.09597 0.35309 0.0
H597 H 0.46043 0.0814 0.29197 0.0
C598 C 0.40769 0.11237 0.23607 0.0
C599 C 0.3827 0.13076 0.20905 0.0
C600 C 0.43359 0.12058 0.2715 0.0
C601 C 0.38197 0.15757 0.21817 0.0
C602 C 0.40797 0.16594 0.25338 0.0
C603 C 0.46097 0.1558 0.31568 0.0
C604 C 0.48633 0.1373 0.34253 0.0
C605 C 0.43419 0.14762 0.28025 0.0
C606 C 0.48614 0.11051 0.33336 0.0
C607 C 0.45959 0.1022 0.29826 0.0
H608 H 0.31459 0.12456 0.81684 0.0
H609 H 0.61043 0.12058 0.86285 0.0
H610 H 0.68378 0.12657 0.80216 0.0
H611 H 0.66346 0.13003 0.73495 0.0
H612 H 0.3667 0.13194 0.6893 0.0
H613 H 0.29431 0.1299 0.75037 0.0
C614 C 0.39513 0.12534 0.81356 0.0
C615 C 0.45676 0.12262 0.84454 0.0
C616 C 0.43668 0.12839 0.77843 0.0
C617 C 0.5611 0.12342 0.83981 0.0
C618 C 0.60309 0.12652 0.80495 0.0
C619 C 0.58299 0.13036 0.73852 0.0
C620 C 0.52082 0.13187 0.70746 0.0
C621 C 0.54164 0.12869 0.77396 0.0
C622 C 0.41657 0.13187 0.71252 0.0
C623 C 0.37499 0.13031 0.74755 0.0
H624 H 0.4584 0.91146 0.73198 0.0
H625 H 0.49578 0.83255 0.69187 0.0
H626 H 0.52484 0.81697 0.75401 0.0
H627 H 0.54103 0.82596 0.81983 0.0
H628 H 0.49861 0.90474 0.85999 0.0
H629 H 0.47418 0.92042 0.79789 0.0
C630 C 0.47229 0.89084 0.73702 0.0
C631 C 0.47201 0.87306 0.70757 0.0
C632 C 0.49066 0.88215 0.77273 0.0
C633 C 0.4915 0.84643 0.71421 0.0
C634 C 0.50974 0.83761 0.74968 0.0
C635 C 0.52739 0.84661 0.81486 0.0
C636 C 0.52526 0.86425 0.84451 0.0
C637 C 0.50967 0.85531 0.77912 0.0
C638 C 0.50578 0.89089 0.83778 0.0
C639 C 0.48969 0.8998 0.80221 0.0
loop_
_geom_bond_atom_site_label_1
_geom_bond_atom_site_label_2
_geom_bond_distance
_geom_bond_site_symmetry_2
_ccdc_geom_bond_type
Zn0 O1 2.055 . S
Zn0 O8 2.046 . S
Zn0 N16 2.036 . S
Zn0 O28 2.053 1_455 S
Zn0 O30 2.066 . S
O1 Zn0 2.055 . S
O1 C4 1.259 1_556 S
C2 O30 1.256 . S
C2 O31 1.244 1_556 S
Zn3 O5 2.046 . S
Zn3 O7 2.055 . S
Zn3 N9 2.036 . S
Zn3 O27 2.066 1_455 S
Zn3 O31 2.053 . S
C4 O1 1.259 1_554 S
C4 O5 1.254 . S
O5 Zn3 2.046 . S
O5 C4 1.254 . S
C6 O27 1.256 . S
C6 O28 1.244 1_554 S
O7 Zn3 2.055 . S
O7 C29 1.259 . S
O8 Zn0 2.046 . S
O8 C29 1.254 1_556 S
N9 Zn3 2.036 . S
N9 C10 1.298 . S
N9 N12 1.398 . S
C10 N9 1.298 . S
C10 N13 1.367 . S
C10 C23 1.481 1_455 S
C11 N12 1.299 . S
C11 N13 1.379 . S
N12 N9 1.398 . S
N12 C11 1.299 . S
N13 C10 1.367 . S
N13 C11 1.379 . S
C14 N16 1.298 . S
C14 N18 1.367 . S
C14 C22 1.481 . S
C15 N17 1.299 . S
C15 N18 1.379 1_655 S
N16 Zn0 2.036 . S
N16 C14 1.298 . S
N16 N17 1.398 1_455 S
N17 C15 1.299 . S
N17 N16 1.398 1_655 S
N18 C14 1.367 . S
N18 C15 1.379 1_455 S
H19 C22 0.980 . S
H20 C22 0.981 . S
H21 C22 0.981 . S
C22 C14 1.481 . S
C22 H19 0.980 . S
C22 H20 0.981 . S
C22 H21 0.981 . S
C23 C10 1.481 1_655 S
C23 H24 0.981 . S
C23 H25 0.981 . S
C23 H26 0.981 . S
H24 C23 0.981 . S
H25 C23 0.981 . S
H26 C23 0.981 . S
O27 Zn3 2.066 1_655 S
O27 C6 1.256 . S
O28 Zn0 2.053 1_655 S
O28 C6 1.244 1_556 S
C29 O7 1.259 . S
C29 O8 1.254 1_554 S
O30 Zn0 2.066 . S
O30 C2 1.256 . S
O31 C2 1.244 1_554 S
O31 Zn3 2.053 . S
Zn32 O33 2.055 . S
Zn32 O40 2.046 . S
Zn32 N48 2.036 . S
Zn32 O60 2.053 . S
Zn32 O62 2.066 1_655 S
O33 Zn32 2.055 . S
O33 C36 1.259 . S
C34 O62 1.256 . S
C34 O63 1.244 1_554 S
Zn35 O37 2.046 . S
Zn35 O39 2.055 . S
Zn35 N41 2.036 . S
Zn35 O59 2.066 . S
Zn35 O63 2.053 1_655 S
C36 O33 1.259 . S
C36 O37 1.254 1_554 S
O37 Zn35 2.046 . S
O37 C36 1.254 1_556 S
C38 O59 1.256 . S
C38 O60 1.244 1_556 S
O39 Zn35 2.055 . S
O39 C61 1.259 1_556 S
O40 Zn32 2.046 . S
O40 C61 1.254 . S
N41 Zn35 2.036 . S
N41 C42 1.298 . S
N41 N44 1.398 1_655 S
C42 N41 1.298 . S
C42 N45 1.367 . S
C42 C55 1.481 . S
C43 N44 1.299 . S
C43 N45 1.379 1_455 S
N44 N41 1.398 1_455 S
N44 C43 1.299 . S
N45 C42 1.367 . S
N45 C43 1.379 1_655 S
C46 N48 1.298 . S
C46 N50 1.367 . S
C46 C54 1.481 1_655 S
C47 N49 1.299 . S
C47 N50 1.379 . S
N48 Zn32 2.036 . S
N48 C46 1.298 . S
N48 N49 1.398 . S
N49 C47 1.299 . S
N49 N48 1.398 . S
N50 C46 1.367 . S
N50 C47 1.379 . S
H51 C54 0.981 . S
H52 C54 0.981 . S
H53 C54 0.981 . S
C54 C46 1.481 1_455 S
C54 H51 0.981 . S
C54 H52 0.981 . S
C54 H53 0.981 . S
C55 C42 1.481 . S
C55 H56 0.980 . S
C55 H57 0.981 . S
C55 H58 0.981 . S
H56 C55 0.980 . S
H57 C55 0.981 . S
H58 C55 0.981 . S
O59 Zn35 2.066 . S
O59 C38 1.256 . S
O60 Zn32 2.053 . S
O60 C38 1.244 1_554 S
C61 O39 1.259 1_554 S
C61 O40 1.254 . S
O62 Zn32 2.066 1_455 S
O62 C34 1.256 . S
O63 C34 1.244 1_556 S
O63 Zn35 2.053 1_455 S
Zn64 O65 2.055 . S
Zn64 O72 2.046 . S
Zn64 N80 2.036 . S
Zn64 O92 2.053 . S
Zn64 O94 2.066 1_455 S
O65 Zn64 2.055 . S
O65 C68 1.259 . S
C66 O94 1.256 . S
C66 O95 1.244 . S
Zn67 O69 2.046 . S
Zn67 O71 2.055 . S
Zn67 N73 2.036 . S
Zn67 O91 2.066 . S
Zn67 O95 2.053 1_455 S
C68 O65 1.259 . S
C68 O69 1.254 . S
O69 Zn67 2.046 . S
O69 C68 1.254 . S
C70 O91 1.256 . S
C70 O92 1.244 . S
O71 Zn67 2.055 . S
O71 C93 1.259 . S
O72 Zn64 2.046 . S
O72 C93 1.254 . S
N73 Zn67 2.036 . S
N73 C74 1.298 . S
N73 N76 1.398 1_455 S
C74 N73 1.298 . S
C74 N77 1.367 . S
C74 C87 1.481 . S
C75 N76 1.299 . S
C75 N77 1.379 1_655 S
N76 N73 1.398 1_655 S
N76 C75 1.299 . S
N77 C74 1.367 . S
N77 C75 1.379 1_455 S
C78 N80 1.298 . S
C78 N82 1.367 . S
C78 C86 1.481 1_455 S
C79 N81 1.299 . S
C79 N82 1.379 . S
N80 Zn64 2.036 . S
N80 C78 1.298 . S
N80 N81 1.398 . S
N81 C79 1.299 . S
N81 N80 1.398 . S
N82 C78 1.367 . S
N82 C79 1.379 . S
H83 C86 0.981 . S
H84 C86 0.981 . S
H85 C86 0.981 . S
C86 C78 1.481 1_655 S
C86 H83 0.981 . S
C86 H84 0.981 . S
C86 H85 0.981 . S
C87 C74 1.481 . S
C87 H88 0.980 . S
C87 H89 0.981 . S
C87 H90 0.981 . S
H88 C87 0.980 . S
H89 C87 0.981 . S
H90 C87 0.981 . S
O91 Zn67 2.066 . S
O91 C70 1.256 . S
O92 Zn64 2.053 . S
O92 C70 1.244 . S
C93 O71 1.259 . S
C93 O72 1.254 . S
O94 Zn64 2.066 1_655 S
O94 C66 1.256 . S
O95 C66 1.244 . S
O95 Zn67 2.053 1_655 S
Zn96 O97 2.055 . S
Zn96 O104 2.046 . S
Zn96 N112 2.036 . S
Zn96 O124 2.053 1_655 S
Zn96 O126 2.066 . S
O97 Zn96 2.055 . S
O97 C100 1.259 . S
C98 O126 1.256 . S
C98 O127 1.244 . S
Zn99 O101 2.046 . S
Zn99 O103 2.055 . S
Zn99 N105 2.036 . S
Zn99 O123 2.066 1_655 S
Zn99 O127 2.053 . S
C100 O97 1.259 . S
C100 O101 1.254 . S
O101 Zn99 2.046 . S
O101 C100 1.254 . S
C102 O123 1.256 . S
C102 O124 1.244 . S
O103 Zn99 2.055 . S
O103 C125 1.259 . S
O104 Zn96 2.046 . S
O104 C125 1.254 . S
N105 Zn99 2.036 . S
N105 C106 1.298 . S
N105 N108 1.398 . S
C106 N105 1.298 . S
C106 N109 1.367 . S
C106 C119 1.481 1_655 S
C107 N108 1.299 . S
C107 N109 1.379 . S
N108 N105 1.398 . S
N108 C107 1.299 . S
N109 C106 1.367 . S
N109 C107 1.379 . S
C110 N112 1.298 . S
C110 N114 1.367 . S
C110 C118 1.481 . S
C111 N113 1.299 . S
C111 N114 1.379 1_455 S
N112 Zn96 2.036 . S
N112 C110 1.298 . S
N112 N113 1.398 1_655 S
N113 C111 1.299 . S
N113 N112 1.398 1_455 S
N114 C110 1.367 . S
N114 C111 1.379 1_655 S
H115 C118 0.980 . S
H116 C118 0.981 . S
H117 C118 0.981 . S
C118 C110 1.481 . S
C118 H115 0.980 . S
C118 H116 0.981 . S
C118 H117 0.981 . S
C119 C106 1.481 1_455 S
C119 H120 0.981 . S
C119 H121 0.981 . S
C119 H122 0.981 . S
H120 C119 0.981 . S
H121 C119 0.981 . S
H122 C119 0.981 . S
O123 Zn99 2.066 1_455 S
O123 C102 1.256 . S
O124 Zn96 2.053 1_455 S
O124 C102 1.244 . S
C125 O103 1.259 . S
C125 O104 1.254 . S
O126 Zn96 2.066 . S
O126 C98 1.256 . S
O127 C98 1.244 . S
O127 Zn99 2.053 . S
Zn128 O129 2.055 . S
Zn128 O136 2.046 . S
Zn128 N144 2.036 . S
Zn128 O156 2.053 . S
Zn128 O158 2.066 . S
O129 Zn128 2.055 . S
O129 C132 1.259 1_556 S
C130 O158 1.256 . S
C130 O159 1.244 1_556 S
Zn131 O133 2.046 . S
Zn131 O135 2.055 . S
Zn131 N137 2.036 . S
Zn131 O155 2.066 . S
Zn131 O159 2.053 . S
C132 O129 1.259 1_554 S
C132 O133 1.254 . S
O133 Zn131 2.046 . S
O133 C132 1.254 . S
C134 O155 1.256 . S
C134 O156 1.244 1_554 S
O135 Zn131 2.055 . S
O135 C157 1.259 . S
O136 Zn128 2.046 . S
O136 C157 1.254 1_556 S
N137 Zn131 2.036 . S
N137 C138 1.298 . S
N137 N140 1.398 . S
C138 N137 1.298 . S
C138 N141 1.367 . S
C138 C151 1.481 . S
C139 N140 1.299 . S
C139 N141 1.379 . S
N140 N137 1.398 . S
N140 C139 1.299 . S
N141 C138 1.367 . S
N141 C139 1.379 . S
C142 N144 1.298 . S
C142 N146 1.367 . S
C142 C150 1.481 . S
C143 N145 1.299 . S
C143 N146 1.379 . S
N144 Zn128 2.036 . S
N144 C142 1.298 . S
N144 N145 1.398 . S
N145 C143 1.299 . S
N145 N144 1.398 . S
N146 C142 1.367 . S
N146 C143 1.379 . S
H147 C150 0.980 . S
H148 C150 0.981 . S
H149 C150 0.981 . S
C150 C142 1.481 . S
C150 H147 0.980 . S
C150 H148 0.981 . S
C150 H149 0.981 . S
C151 C138 1.481 . S
C151 H152 0.980 . S
C151 H153 0.981 . S
C151 H154 0.981 . S
H152 C151 0.980 . S
H153 C151 0.981 . S
H154 C151 0.981 . S
O155 Zn131 2.066 . S
O155 C134 1.256 . S
O156 Zn128 2.053 . S
O156 C134 1.244 1_556 S
C157 O135 1.259 . S
C157 O136 1.254 1_554 S
O158 Zn128 2.066 . S
O158 C130 1.256 . S
O159 C130 1.244 1_554 S
O159 Zn131 2.053 . S
Zn160 O161 2.055 . S
Zn160 O168 2.046 . S
Zn160 N176 2.036 . S
Zn160 O188 2.053 . S
Zn160 O190 2.066 . S
O161 Zn160 2.055 . S
O161 C164 1.259 . S
C162 O190 1.256 . S
C162 O191 1.244 1_554 S
Zn163 O165 2.046 . S
Zn163 O167 2.055 . S
Zn163 N169 2.036 . S
Zn163 O187 2.066 . S
Zn163 O191 2.053 . S
C164 O161 1.259 . S
C164 O165 1.254 1_554 S
O165 Zn163 2.046 . S
O165 C164 1.254 1_556 S
C166 O187 1.256 . S
C166 O188 1.244 1_556 S
O167 Zn163 2.055 . S
O167 C189 1.259 1_556 S
O168 Zn160 2.046 . S
O168 C189 1.254 . S
N169 Zn163 2.036 . S
N169 C170 1.298 . S
N169 N172 1.398 . S
C170 N169 1.298 . S
C170 N173 1.367 . S
C170 C183 1.481 . S
C171 N172 1.299 . S
C171 N173 1.379 . S
N172 N169 1.398 . S
N172 C171 1.299 . S
N173 C170 1.367 . S
N173 C171 1.379 . S
C174 N176 1.298 . S
C174 N178 1.367 . S
C174 C182 1.481 . S
C175 N177 1.299 . S
C175 N178 1.379 . S
N176 Zn160 2.036 . S
N176 C174 1.298 . S
N176 N177 1.398 . S
N177 C175 1.299 . S
N177 N176 1.398 . S
N178 C174 1.367 . S
N178 C175 1.379 . S
H179 C182 0.980 . S
H180 C182 0.981 . S
H181 C182 0.981 . S
C182 C174 1.481 . S
C182 H179 0.980 . S
C182 H180 0.981 . S
C182 H181 0.981 . S
C183 C170 1.481 . S
C183 H184 0.980 . S
C183 H185 0.981 . S
C183 H186 0.981 . S
H184 C183 0.980 . S
H185 C183 0.981 . S
H186 C183 0.981 . S
O187 Zn163 2.066 . S
O187 C166 1.256 . S
O188 Zn160 2.053 . S
O188 C166 1.244 1_554 S
C189 O167 1.259 1_554 S
C189 O168 1.254 . S
O190 Zn160 2.066 . S
O190 C162 1.256 . S
O191 C162 1.244 1_556 S
O191 Zn163 2.053 . S
Zn192 O193 2.055 . S
Zn192 O200 2.046 . S
Zn192 N208 2.036 . S
Zn192 O220 2.053 . S
Zn192 O222 2.066 . S
O193 Zn192 2.055 . S
O193 C196 1.259 . S
C194 O222 1.256 . S
C194 O223 1.244 . S
Zn195 O197 2.046 . S
Zn195 O199 2.055 . S
Zn195 N201 2.036 . S
Zn195 O219 2.066 . S
Zn195 O223 2.053 . S
C196 O193 1.259 . S
C196 O197 1.254 . S
O197 Zn195 2.046 . S
O197 C196 1.254 . S
C198 O219 1.256 . S
C198 O220 1.244 . S
O199 Zn195 2.055 . S
O199 C221 1.259 . S
O200 Zn192 2.046 . S
O200 C221 1.254 . S
N201 Zn195 2.036 . S
N201 C202 1.298 . S
N201 N204 1.398 . S
C202 N201 1.298 . S
C202 N205 1.367 . S
C202 C215 1.481 . S
C203 N204 1.299 . S
C203 N205 1.379 . S
N204 N201 1.398 . S
N204 C203 1.299 . S
N205 C202 1.367 . S
N205 C203 1.379 . S
C206 N208 1.298 . S
C206 N210 1.367 . S
C206 C214 1.481 . S
C207 N209 1.299 . S
C207 N210 1.379 . S
N208 Zn192 2.036 . S
N208 C206 1.298 . S
N208 N209 1.398 . S
N209 C207 1.299 . S
N209 N208 1.398 . S
N210 C206 1.367 . S
N210 C207 1.379 . S
H211 C214 0.980 . S
H212 C214 0.981 . S
H213 C214 0.981 . S
C214 C206 1.481 . S
C214 H211 0.980 . S
C214 H212 0.981 . S
C214 H213 0.981 . S
C215 C202 1.481 . S
C215 H216 0.980 . S
C215 H217 0.981 . S
C215 H218 0.981 . S
H216 C215 0.980 . S
H217 C215 0.981 . S
H218 C215 0.981 . S
O219 Zn195 2.066 . S
O219 C198 1.256 . S
O220 Zn192 2.053 . S
O220 C198 1.244 . S
C221 O199 1.259 . S
C221 O200 1.254 . S
O222 Zn192 2.066 . S
O222 C194 1.256 . S
O223 C194 1.244 . S
O223 Zn195 2.053 . S
Zn224 O225 2.055 . S
Zn224 O232 2.046 . S
Zn224 N240 2.036 . S
Zn224 O252 2.053 . S
Zn224 O254 2.066 . S
O225 Zn224 2.055 . S
O225 C228 1.259 . S
C226 O254 1.256 . S
C226 O255 1.244 . S
Zn227 O229 2.046 . S
Zn227 O231 2.055 . S
Zn227 N233 2.036 . S
Zn227 O251 2.066 . S
Zn227 O255 2.053 . S
C228 O225 1.259 . S
C228 O229 1.254 . S
O229 Zn227 2.046 . S
O229 C228 1.254 . S
C230 O251 1.256 . S
C230 O252 1.244 . S
O231 Zn227 2.055 . S
O231 C253 1.259 . S
O232 Zn224 2.046 . S
O232 C253 1.254 . S
N233 Zn227 2.036 . S
N233 C234 1.298 . S
N233 N236 1.398 . S
C234 N233 1.298 . S
C234 N237 1.367 . S
C234 C247 1.481 . S
C235 N236 1.299 . S
C235 N237 1.379 . S
N236 N233 1.398 . S
N236 C235 1.299 . S
N237 C234 1.367 . S
N237 C235 1.379 . S
C238 N240 1.298 . S
C238 N242 1.367 . S
C238 C246 1.481 . S
C239 N241 1.299 . S
C239 N242 1.379 . S
N240 Zn224 2.036 . S
N240 C238 1.298 . S
N240 N241 1.398 . S
N241 C239 1.299 . S
N241 N240 1.398 . S
N242 C238 1.367 . S
N242 C239 1.379 . S
H243 C246 0.980 . S
H244 C246 0.981 . S
H245 C246 0.981 . S
C246 C238 1.481 . S
C246 H243 0.980 . S
C246 H244 0.981 . S
C246 H245 0.981 . S
C247 C234 1.481 . S
C247 H248 0.980 . S
C247 H249 0.981 . S
C247 H250 0.981 . S
H248 C247 0.980 . S
H249 C247 0.981 . S
H250 C247 0.981 . S
O251 Zn227 2.066 . S
O251 C230 1.256 . S
O252 Zn224 2.053 . S
O252 C230 1.244 . S
C253 O231 1.259 . S
C253 O232 1.254 . S
O254 Zn224 2.066 . S
O254 C226 1.256 . S
O255 C226 1.244 . S
O255 Zn227 2.053 . S
H256 C262 0.930 . S
H257 C265 0.930 . S
H258 C266 0.930 . S
H259 C267 0.930 . S
H260 C270 0.927 1_556 S
H261 C271 0.930 . S
C262 H256 0.930 . S
C262 C263 1.355 1_556 S
C262 C264 1.415 1_556 S
C263 C262 1.355 1_554 S
C263 C265 1.419 . S
C264 C262 1.415 1_554 S
C264 C269 1.425 . S
C264 C271 1.409 1_554 S
C265 H257 0.930 . S
C265 C263 1.419 . S
C265 C266 1.362 . S
C266 H258 0.930 . S
C266 C265 1.362 . S
C266 C269 1.409 . S
C267 H259 0.930 . S
C267 C268 1.355 . S
C267 C269 1.415 . S
C268 C267 1.355 . S
C268 C270 1.424 . S
C269 C264 1.425 . S
C269 C266 1.409 . S
C269 C267 1.415 . S
C270 H260 0.927 1_554 S
C270 C268 1.424 . S
C270 C271 1.360 1_554 S
C271 H261 0.930 . S
C271 C264 1.409 1_556 S
C271 C270 1.360 1_556 S
H272 C278 0.930 . S
H273 C281 0.930 . S
H274 C282 0.930 . S
H275 C283 0.930 . S
H276 C286 0.930 . S
H277 C287 0.930 . S
C278 H272 0.930 . S
C278 C279 1.355 . S
C278 C280 1.415 . S
C279 C278 1.355 . S
C279 C281 1.419 1_554 S
C280 C278 1.415 . S
C280 C285 1.425 1_554 S
C280 C287 1.409 . S
C281 H273 0.930 . S
C281 C279 1.419 1_556 S
C281 C282 1.362 . S
C282 H274 0.930 . S
C282 C281 1.362 . S
C282 C285 1.409 . S
C283 H275 0.930 . S
C283 C284 1.355 1_556 S
C283 C285 1.415 . S
C284 C283 1.355 1_554 S
C284 C286 1.419 . S
C285 C280 1.425 1_556 S
C285 C282 1.409 . S
C285 C283 1.415 . S
C286 H276 0.930 . S
C286 C284 1.419 . S
C286 C287 1.362 . S
C287 H277 0.930 . S
C287 C280 1.409 . S
C287 C286 1.362 . S
H288 C294 0.930 . S
H289 C297 0.930 . S
H290 C298 0.930 . S
H291 C299 0.930 . S
H292 C302 0.930 . S
H293 C303 0.930 . S
C294 H288 0.930 . S
C294 C295 1.355 . S
C294 C296 1.415 . S
C295 C294 1.355 . S
C295 C297 1.419 . S
C296 C294 1.415 . S
C296 C301 1.425 . S
C296 C303 1.409 . S
C297 H289 0.930 . S
C297 C295 1.419 . S
C297 C298 1.362 . S
C298 H290 0.930 . S
C298 C297 1.362 . S
C298 C301 1.409 . S
C299 H291 0.930 . S
C299 C300 1.355 . S
C299 C301 1.415 . S
C300 C299 1.355 . S
C300 C302 1.419 . S
C301 C296 1.425 . S
C301 C298 1.409 . S
C301 C299 1.415 . S
C302 H292 0.930 . S
C302 C300 1.419 . S
C302 C303 1.362 . S
C303 H293 0.930 . S
C303 C296 1.409 . S
C303 C302 1.362 . S
H304 C310 0.930 . S
H305 C313 0.930 . S
H306 C314 0.930 . S
H307 C315 0.930 . S
H308 C318 0.930 . S
H309 C319 0.930 . S
C310 H304 0.930 . S
C310 C311 1.355 . S
C310 C312 1.415 . S
C311 C310 1.355 . S
C311 C313 1.419 . S
C312 C310 1.415 . S
C312 C317 1.425 . S
C312 C319 1.409 . S
C313 H305 0.930 . S
C313 C311 1.419 . S
C313 C314 1.362 . S
C314 H306 0.930 . S
C314 C313 1.362 . S
C314 C317 1.409 . S
C315 H307 0.930 . S
C315 C316 1.355 . S
C315 C317 1.415 . S
C316 C315 1.355 . S
C316 C318 1.419 . S
C317 C312 1.425 . S
C317 C314 1.409 . S
C317 C315 1.415 . S
C318 H308 0.930 . S
C318 C316 1.419 . S
C318 C319 1.362 . S
C319 H309 0.930 . S
C319 C312 1.409 . S
C319 C318 1.362 . S
H320 C326 0.930 . S
H321 C329 0.930 . S
H322 C330 0.930 . S
H323 C331 0.930 . S
H324 C334 0.930 . S
H325 C335 0.930 . S
C326 H320 0.930 . S
C326 C327 1.355 1_556 S
C326 C328 1.415 1_655 S
C327 C326 1.355 1_554 S
C327 C329 1.419 . S
C328 C326 1.415 1_455 S
C328 C333 1.425 1_556 S
C328 C335 1.409 . S
C329 H321 0.930 . S
C329 C327 1.419 . S
C329 C330 1.362 1_655 S
C330 H322 0.930 . S
C330 C329 1.362 1_455 S
C330 C333 1.409 . S
C331 H323 0.930 . S
C331 C332 1.355 . S
C331 C333 1.415 . S
C332 C331 1.355 . S
C332 C334 1.419 1_554 S
C333 C328 1.425 1_554 S
C333 C330 1.409 . S
C333 C331 1.415 . S
C334 H324 0.930 . S
C334 C332 1.419 1_556 S
C334 C335 1.362 . S
C335 H325 0.930 . S
C335 C328 1.409 . S
C335 C334 1.362 . S
H336 C342 0.929 1_556 S
H337 C345 0.930 . S
H338 C346 0.930 . S
H339 C347 0.930 . S
H340 C350 0.930 . S
H341 C351 0.930 . S
C342 H336 0.929 1_554 S
C342 C343 1.355 . S
C342 C344 1.415 1_455 S
C343 C342 1.355 . S
C343 C345 1.420 . S
C344 C342 1.415 1_655 S
C344 C349 1.425 . S
C344 C351 1.409 . S
C345 H337 0.930 . S
C345 C343 1.420 . S
C345 C346 1.362 1_455 S
C346 H338 0.930 . S
C346 C345 1.362 1_655 S
C346 C349 1.409 . S
C347 H339 0.930 . S
C347 C348 1.355 . S
C347 C349 1.415 . S
C348 C347 1.355 . S
C348 C350 1.419 . S
C349 C344 1.425 . S
C349 C346 1.409 . S
C349 C347 1.415 . S
C350 H340 0.930 . S
C350 C348 1.419 . S
C350 C351 1.362 . S
C351 H341 0.930 . S
C351 C344 1.409 . S
C351 C350 1.362 . S
H352 C358 0.930 . S
H353 C361 0.930 . S
H354 C362 0.930 . S
H355 C363 0.930 . S
H356 C366 0.930 . S
H357 C367 0.930 . S
C358 H352 0.930 . S
C358 C359 1.355 . S
C358 C360 1.415 . S
C359 C358 1.355 . S
C359 C361 1.419 . S
C360 C358 1.415 . S
C360 C365 1.425 . S
C360 C367 1.409 . S
C361 H353 0.930 . S
C361 C359 1.419 . S
C361 C362 1.362 . S
C362 H354 0.930 . S
C362 C361 1.362 . S
C362 C365 1.409 . S
C363 H355 0.930 . S
C363 C364 1.355 . S
C363 C365 1.415 1_655 S
C364 C363 1.355 . S
C364 C366 1.419 . S
C365 C360 1.425 . S
C365 C362 1.409 . S
C365 C363 1.415 1_455 S
C366 H356 0.930 . S
C366 C364 1.419 . S
C366 C367 1.362 1_655 S
C367 H357 0.930 . S
C367 C360 1.409 . S
C367 C366 1.362 1_455 S
H368 C374 0.930 . S
H369 C377 0.930 . S
H370 C378 0.930 . S
H371 C379 0.930 . S
H372 C382 0.930 . S
H373 C383 0.930 . S
C374 H368 0.930 . S
C374 C375 1.355 . S
C374 C376 1.415 . S
C375 C374 1.355 . S
C375 C377 1.419 . S
C376 C374 1.415 . S
C376 C381 1.425 . S
C376 C383 1.409 . S
C377 H369 0.930 . S
C377 C375 1.419 . S
C377 C378 1.362 . S
C378 H370 0.930 . S
C378 C377 1.362 . S
C378 C381 1.409 . S
C379 H371 0.930 . S
C379 C380 1.355 . S
C379 C381 1.415 1_455 S
C380 C379 1.355 . S
C380 C382 1.419 . S
C381 C376 1.425 . S
C381 C378 1.409 . S
C381 C379 1.415 1_655 S
C382 H372 0.930 . S
C382 C380 1.419 . S
C382 C383 1.362 1_455 S
C383 H373 0.930 . S
C383 C376 1.409 . S
C383 C382 1.362 1_655 S
H384 C390 0.930 . S
H385 C393 0.930 . S
H386 C394 0.930 . S
H387 C395 0.930 . S
H388 C398 0.930 . S
H389 C399 0.930 . S
C390 H384 0.930 . S
C390 C391 1.355 1_456 S
C390 C392 1.415 . S
C391 C390 1.355 1_654 S
C391 C393 1.419 . S
C392 C390 1.415 . S
C392 C397 1.425 1_456 S
C392 C399 1.409 . S
C393 H385 0.930 . S
C393 C391 1.419 . S
C393 C394 1.362 . S
C394 H386 0.930 . S
C394 C393 1.362 . S
C394 C397 1.409 . S
C395 H387 0.930 . S
C395 C396 1.355 1_655 S
C395 C397 1.415 . S
C396 C395 1.355 1_455 S
C396 C398 1.419 1_554 S
C397 C392 1.425 1_654 S
C397 C394 1.409 . S
C397 C395 1.415 . S
C398 H388 0.930 . S
C398 C396 1.419 1_556 S
C398 C399 1.362 . S
C399 H389 0.930 . S
C399 C392 1.409 . S
C399 C398 1.362 . S
H400 C406 0.930 . S
H401 C409 0.930 . S
H402 C410 0.930 . S
H403 C411 0.930 . S
H404 C414 0.930 . S
H405 C415 0.930 . S
C406 H400 0.930 . S
C406 C407 1.355 . S
C406 C408 1.415 . S
C407 C406 1.355 . S
C407 C409 1.419 1_655 S
C408 C406 1.415 . S
C408 C413 1.425 1_655 S
C408 C415 1.409 . S
C409 H401 0.930 . S
C409 C407 1.419 1_455 S
C409 C410 1.362 . S
C410 H402 0.930 . S
C410 C409 1.362 . S
C410 C413 1.409 . S
C411 H403 0.930 . S
C411 C412 1.355 . S
C411 C413 1.415 . S
C412 C411 1.355 . S
C412 C414 1.419 1_455 S
C413 C408 1.425 1_455 S
C413 C410 1.409 . S
C413 C411 1.415 . S
C414 H404 0.930 . S
C414 C412 1.419 1_655 S
C414 C415 1.362 . S
C415 H405 0.930 . S
C415 C408 1.409 . S
C415 C414 1.362 . S
H416 C422 0.930 . S
H417 C425 0.930 . S
H418 C426 0.930 . S
H419 C427 0.930 . S
H420 C430 0.930 . S
H421 C431 0.930 . S
C422 H416 0.930 . S
C422 C423 1.355 . S
C422 C424 1.415 . S
C423 C422 1.355 . S
C423 C425 1.419 1_554 S
C424 C422 1.415 . S
C424 C429 1.425 1_564 S
C424 C431 1.409 1_565 S
C425 H417 0.930 . S
C425 C423 1.419 1_556 S
C425 C426 1.362 . S
C426 H418 0.930 . S
C426 C425 1.362 . S
C426 C429 1.409 1_565 S
C427 H419 0.930 . S
C427 C428 1.355 1_556 S
C427 C429 1.415 . S
C428 C427 1.355 1_554 S
C428 C430 1.419 . S
C429 C424 1.425 1_546 S
C429 C426 1.409 1_545 S
C429 C427 1.415 . S
C430 H420 0.930 . S
C430 C428 1.419 . S
C430 C431 1.362 . S
C431 H421 0.930 . S
C431 C424 1.409 1_545 S
C431 C430 1.362 . S
H432 C438 0.930 . S
H433 C441 0.930 . S
H434 C442 0.930 . S
H435 C443 0.930 . S
H436 C446 0.930 . S
H437 C447 0.930 . S
C438 H432 0.930 . S
C438 C439 1.355 . S
C438 C440 1.415 . S
C439 C438 1.355 . S
C439 C441 1.419 . S
C440 C438 1.415 . S
C440 C445 1.425 1_545 S
C440 C447 1.409 1_545 S
C441 H433 0.930 . S
C441 C439 1.419 . S
C441 C442 1.362 . S
C442 H434 0.930 . S
C442 C441 1.362 . S
C442 C445 1.409 1_545 S
C443 H435 0.930 . S
C443 C444 1.355 . S
C443 C445 1.415 . S
C444 C443 1.355 . S
C444 C446 1.419 . S
C445 C440 1.425 1_565 S
C445 C442 1.409 1_565 S
C445 C443 1.415 . S
C446 H436 0.930 . S
C446 C444 1.419 . S
C446 C447 1.362 . S
C447 H437 0.930 . S
C447 C440 1.409 1_565 S
C447 C446 1.362 . S
H448 C454 0.930 . S
H449 C457 0.930 . S
H450 C458 0.930 . S
H451 C459 0.930 . S
H452 C462 0.930 . S
H453 C463 0.930 . S
C454 H448 0.930 . S
C454 C455 1.355 1_554 S
C454 C456 1.415 . S
C455 C454 1.355 1_556 S
C455 C457 1.419 . S
C456 C454 1.415 . S
C456 C461 1.425 1_554 S
C456 C463 1.409 . S
C457 H449 0.930 . S
C457 C455 1.419 . S
C457 C458 1.362 . S
C458 H450 0.930 . S
C458 C457 1.362 . S
C458 C461 1.409 . S
C459 H451 0.930 . S
C459 C460 1.355 . S
C459 C461 1.415 . S
C460 C459 1.355 . S
C460 C462 1.419 1_556 S
C461 C456 1.425 1_556 S
C461 C458 1.409 . S
C461 C459 1.415 . S
C462 H452 0.930 . S
C462 C460 1.419 1_554 S
C462 C463 1.362 . S
C463 H453 0.930 . S
C463 C456 1.409 . S
C463 C462 1.362 . S
H464 C470 0.930 . S
H465 C473 0.930 . S
H466 C474 0.930 . S
H467 C475 0.930 . S
H468 C478 0.930 . S
H469 C479 0.930 . S
C470 H464 0.930 . S
C470 C471 1.355 1_554 S
C470 C472 1.415 . S
C471 C470 1.355 1_556 S
C471 C473 1.419 . S
C472 C470 1.415 . S
C472 C477 1.425 1_554 S
C472 C479 1.409 . S
C473 H465 0.930 . S
C473 C471 1.419 . S
C473 C474 1.362 . S
C474 H466 0.930 . S
C474 C473 1.362 . S
C474 C477 1.409 . S
C475 H467 0.930 . S
C475 C476 1.355 . S
C475 C477 1.415 . S
C476 C475 1.355 . S
C476 C478 1.419 1_556 S
C477 C472 1.425 1_556 S
C477 C474 1.409 . S
C477 C475 1.415 . S
C478 H468 0.930 . S
C478 C476 1.419 1_554 S
C478 C479 1.362 . S
C479 H469 0.930 . S
C479 C472 1.409 . S
C479 C478 1.362 . S
H480 C486 0.930 . S
H481 C489 0.930 . S
H482 C490 0.930 . S
H483 C491 0.930 . S
H484 C494 0.930 . S
H485 C495 0.930 . S
C486 H480 0.930 . S
C486 C487 1.355 . S
C486 C488 1.415 . S
C487 C486 1.355 . S
C487 C489 1.419 . S
C488 C486 1.415 . S
C488 C493 1.425 . S
C488 C495 1.409 . S
C489 H481 0.930 . S
C489 C487 1.419 . S
C489 C490 1.362 . S
C490 H482 0.930 . S
C490 C489 1.362 . S
C490 C493 1.409 . S
C491 H483 0.930 . S
C491 C492 1.355 . S
C491 C493 1.415 . S
C492 C491 1.355 . S
C492 C494 1.419 . S
C493 C488 1.425 . S
C493 C490 1.409 . S
C493 C491 1.415 . S
C494 H484 0.930 . S
C494 C492 1.419 . S
C494 C495 1.362 . S
C495 H485 0.930 . S
C495 C488 1.409 . S
C495 C494 1.362 . S
H496 C502 0.930 . S
H497 C505 0.935 . S
H498 C506 0.930 . S
H499 C507 0.930 . S
H500 C510 0.930 . S
H501 C511 0.930 . S
C502 H496 0.930 . S
C502 C503 1.355 . S
C502 C504 1.415 . S
C503 C502 1.355 . S
C503 C505 1.419 . S
C504 C502 1.415 . S
C504 C509 1.425 . S
C504 C511 1.409 . S
C505 H497 0.935 . S
C505 C503 1.419 . S
C505 C506 1.362 . S
C506 H498 0.930 . S
C506 C505 1.362 . S
C506 C509 1.409 . S
C507 H499 0.930 . S
C507 C508 1.355 . S
C507 C509 1.415 . S
C508 C507 1.355 . S
C508 C510 1.419 . S
C509 C504 1.425 . S
C509 C506 1.409 . S
C509 C507 1.415 . S
C510 H500 0.930 . S
C510 C508 1.419 . S
C510 C511 1.362 . S
C511 H501 0.930 . S
C511 C504 1.409 . S
C511 C510 1.362 . S
H512 C518 0.930 . S
H513 C521 0.930 . S
H514 C522 0.930 . S
H515 C523 0.930 . S
H516 C526 0.930 . S
H517 C527 0.930 . S
C518 H512 0.930 . S
C518 C519 1.355 1_455 S
C518 C520 1.415 . S
C519 C518 1.355 1_655 S
C519 C521 1.419 . S
C520 C518 1.415 . S
C520 C525 1.425 1_455 S
C520 C527 1.409 . S
C521 H513 0.930 . S
C521 C519 1.419 . S
C521 C522 1.362 . S
C522 H514 0.930 . S
C522 C521 1.362 . S
C522 C525 1.409 . S
C523 H515 0.930 . S
C523 C524 1.355 1_655 S
C523 C525 1.415 . S
C524 C523 1.355 1_455 S
C524 C526 1.419 . S
C525 C520 1.425 1_655 S
C525 C522 1.409 . S
C525 C523 1.415 . S
C526 H516 0.930 . S
C526 C524 1.419 . S
C526 C527 1.362 . S
C527 H517 0.930 . S
C527 C520 1.409 . S
C527 C526 1.362 . S
H528 C534 0.930 . S
H529 C537 0.930 1_455 S
H530 C538 0.930 . S
H531 C539 0.930 . S
H532 C542 0.930 1_655 S
H533 C543 0.930 . S
C534 H528 0.930 . S
C534 C535 1.355 . S
C534 C536 1.415 . S
C535 C534 1.355 . S
C535 C537 1.419 . S
C536 C534 1.415 . S
C536 C541 1.425 1_655 S
C536 C543 1.409 . S
C537 H529 0.930 1_655 S
C537 C535 1.419 . S
C537 C538 1.362 1_655 S
C538 H530 0.930 . S
C538 C537 1.362 1_455 S
C538 C541 1.409 . S
C539 H531 0.930 . S
C539 C540 1.355 . S
C539 C541 1.415 . S
C540 C539 1.355 . S
C540 C542 1.419 . S
C541 C536 1.425 1_455 S
C541 C538 1.409 . S
C541 C539 1.415 . S
C542 H532 0.930 1_455 S
C542 C540 1.419 . S
C542 C543 1.362 1_455 S
C543 H533 0.930 . S
C543 C536 1.409 . S
C543 C542 1.362 1_655 S
H544 C550 0.930 . S
H545 C553 0.930 . S
H546 C554 0.930 . S
H547 C555 0.930 . S
H548 C558 0.930 . S
H549 C559 0.930 . S
C550 H544 0.930 . S
C550 C551 1.355 . S
C550 C552 1.415 . S
C551 C550 1.355 . S
C551 C553 1.419 1_655 S
C552 C550 1.415 . S
C552 C557 1.425 1_655 S
C552 C559 1.409 . S
C553 H545 0.930 . S
C553 C551 1.419 1_455 S
C553 C554 1.362 . S
C554 H546 0.930 . S
C554 C553 1.362 . S
C554 C557 1.409 . S
C555 H547 0.930 . S
C555 C556 1.355 . S
C555 C557 1.415 . S
C556 C555 1.355 . S
C556 C558 1.419 1_455 S
C557 C552 1.425 1_455 S
C557 C554 1.409 . S
C557 C555 1.415 . S
C558 H548 0.930 . S
C558 C556 1.419 1_655 S
C558 C559 1.362 . S
C559 H549 0.930 . S
C559 C552 1.409 . S
C559 C558 1.362 . S
H560 C566 0.930 . S
H561 C569 0.930 . S
H562 C570 0.930 . S
H563 C571 0.930 . S
H564 C574 0.930 . S
H565 C575 0.930 . S
C566 H560 0.930 . S
C566 C567 1.355 . S
C566 C568 1.415 . S
C567 C566 1.355 . S
C567 C569 1.419 1_655 S
C568 C566 1.415 . S
C568 C573 1.425 1_655 S
C568 C575 1.409 . S
C569 H561 0.930 . S
C569 C567 1.419 1_455 S
C569 C570 1.362 . S
C570 H562 0.930 . S
C570 C569 1.362 . S
C570 C573 1.409 . S
C571 H563 0.930 . S
C571 C572 1.355 . S
C571 C573 1.415 . S
C572 C571 1.355 . S
C572 C574 1.419 1_455 S
C573 C568 1.425 1_455 S
C573 C570 1.409 . S
C573 C571 1.415 . S
C574 H564 0.930 . S
C574 C572 1.419 1_655 S
C574 C575 1.362 . S
C575 H565 0.930 . S
C575 C568 1.409 . S
C575 C574 1.362 . S
H576 C582 0.930 . S
H577 C585 0.930 . S
H578 C586 0.930 . S
H579 C587 0.930 . S
H580 C590 0.930 . S
H581 C591 0.930 . S
C582 H576 0.930 . S
C582 C583 1.355 . S
C582 C584 1.415 . S
C583 C582 1.355 . S
C583 C585 1.419 . S
C584 C582 1.415 . S
C584 C589 1.425 . S
C584 C591 1.409 . S
C585 H577 0.930 . S
C585 C583 1.419 . S
C585 C586 1.362 . S
C586 H578 0.930 . S
C586 C585 1.362 . S
C586 C589 1.409 . S
C587 H579 0.930 . S
C587 C588 1.355 . S
C587 C589 1.415 . S
C588 C587 1.355 . S
C588 C590 1.419 . S
C589 C584 1.425 . S
C589 C586 1.409 . S
C589 C587 1.415 . S
C590 H580 0.930 . S
C590 C588 1.419 . S
C590 C591 1.362 . S
C591 H581 0.930 . S
C591 C584 1.409 . S
C591 C590 1.362 . S
H592 C598 0.930 . S
H593 C601 0.930 . S
H594 C602 0.930 . S
H595 C603 0.930 . S
H596 C606 0.930 . S
H597 C607 0.930 . S
C598 H592 0.930 . S
C598 C599 1.355 . S
C598 C600 1.415 . S
C599 C598 1.355 . S
C599 C601 1.419 . S
C600 C598 1.415 . S
C600 C605 1.425 . S
C600 C607 1.409 . S
C601 H593 0.930 . S
C601 C599 1.419 . S
C601 C602 1.362 . S
C602 H594 0.930 . S
C602 C601 1.362 . S
C602 C605 1.409 . S
C603 H595 0.930 . S
C603 C604 1.355 . S
C603 C605 1.415 . S
C604 C603 1.355 . S
C604 C606 1.419 . S
C605 C600 1.425 . S
C605 C602 1.409 . S
C605 C603 1.415 . S
C606 H596 0.930 . S
C606 C604 1.419 . S
C606 C607 1.362 . S
C607 H597 0.930 . S
C607 C600 1.409 . S
C607 C606 1.362 . S
H608 C614 0.930 . S
H609 C617 0.930 . S
H610 C618 0.930 . S
H611 C619 0.930 . S
H612 C622 0.930 . S
H613 C623 0.930 . S
C614 H608 0.930 . S
C614 C615 1.355 . S
C614 C616 1.415 . S
C615 C614 1.355 . S
C615 C617 1.419 . S
C616 C614 1.415 . S
C616 C621 1.425 . S
C616 C623 1.409 . S
C617 H609 0.930 . S
C617 C615 1.419 . S
C617 C618 1.362 . S
C618 H610 0.930 . S
C618 C617 1.362 . S
C618 C621 1.409 . S
C619 H611 0.930 . S
C619 C620 1.355 . S
C619 C621 1.415 . S
C620 C619 1.355 . S
C620 C622 1.419 . S
C621 C616 1.425 . S
C621 C618 1.409 . S
C621 C619 1.415 . S
C622 H612 0.930 . S
C622 C620 1.419 . S
C622 C623 1.362 . S
C623 H613 0.930 . S
C623 C616 1.409 . S
C623 C622 1.362 . S
H624 C630 0.930 . S
H625 C633 0.930 . S
H626 C634 0.930 . S
H627 C635 0.930 . S
H628 C638 0.930 . S
H629 C639 0.930 . S
C630 H624 0.930 . S
C630 C631 1.355 . S
C630 C632 1.415 . S
C631 C630 1.355 . S
C631 C633 1.419 . S
C632 C630 1.415 . S
C632 C637 1.425 . S
C632 C639 1.409 . S
C633 H625 0.930 . S
C633 C631 1.419 . S
C633 C634 1.362 . S
C634 H626 0.930 . S
C634 C633 1.362 . S
C634 C637 1.409 . S
C635 H627 0.930 . S
C635 C636 1.355 . S
C635 C637 1.415 . S
C636 C635 1.355 . S
C636 C638 1.419 . S
C637 C632 1.425 . S
C637 C634 1.409 . S
C637 C635 1.415 . S
C638 H628 0.930 . S
C638 C636 1.419 . S
C638 C639 1.362 . S
C639 H629 0.930 . S
C639 C632 1.409 . S
C639 C638 1.362 . S
C263 C4 1.333 . S
C268 C6 1.326 . S
C279 C34 1.326 . S
C284 C61 1.318 . S
C295 C66 1.335 . S
C300 C93 1.333 . S
C311 C100 1.325 . S
C316 C102 1.333 . S
C327 C132 1.320 . S
C332 C134 1.322 . S
C343 C189 1.335 . S
C348 C162 1.328 . S
C359 C194 1.323 . S
C364 C221 1.318 . S
C375 C230 1.335 . S
C380 C228 1.333 . S
C391 C36 1.506 . S
C396 C29 1.500 . S
C407 C125 1.519 . S
C412 C68 1.525 . S
C423 C157 1.498 . S
C428 C164 1.504 . S
C439 C196 1.527 . S
C444 C253 1.522 . S
C455 C2 1.598 . S
C460 C166 1.596 . S
C471 C130 1.602 . S
C476 C38 1.600 . S
C487 C70 1.586 . S
C492 C226 1.589 . S
C503 C98 1.604 . S
C508 C198 1.603 . S
C519 N13 1.494 1_655 S
C524 N109 1.485 1_455 S
C535 N50 1.436 . S
C540 N82 1.468 . S
C551 N45 1.499 . S
C556 N77 1.508 . S
C567 N114 1.505 . S
C572 N18 1.501 . S
C583 N141 1.438 . S
C588 N237 1.426 . S
C599 N178 1.440 . S
C604 N210 1.473 . S
C615 N173 1.500 . S
C620 N205 1.506 . S
C631 N242 1.516 . S
C636 N146 1.495 . S
