# Generated by pormake.
# Topology ftb, (5)-cn, num edge types: 1
# Building blocks:
#     Node 0, Type 0, BuildingBlock: BEQFEK_clean_sbu_0, # of connection points: 5
#     Node 1, Type 0, BuildingBlock: BEQFEK_clean_sbu_0, # of connection points: 5
#     Node 2, Type 0, BuildingBlock: BEQFEK_clean_sbu_0, # of connection points: 5
#     Node 3, Type 0, BuildingBlock: BEQFEK_clean_sbu_0, # of connection points: 5
#     Node 4, Type 0, BuildingBlock: BEQFEK_clean_sbu_0, # of connection points: 5
#     Node 5, Type 0, BuildingBlock: BEQFEK_clean_sbu_0, # of connection points: 5
#     Node 6, Type 0, BuildingBlock: BEQFEK_clean_sbu_0, # of connection points: 5
#     Node 7, Type 0, BuildingBlock: BEQFEK_clean_sbu_0, # of connection points: 5
#     Edge 8, Type (0, 0), BuildingBlock: XIVTED_clean_linker_0, # of connection points: 2
#     Edge 9, Type (0, 0), BuildingBlock: XIVTED_clean_linker_0, # of connection points: 2
#     Edge 10, Type (0, 0), BuildingBlock: XIVTED_clean_linker_0, # of connection points: 2
#     Edge 11, Type (0, 0), BuildingBlock: XIVTED_clean_linker_0, # of connection points: 2
#     Edge 12, Type (0, 0), BuildingBlock: XIVTED_clean_linker_0, # of connection points: 2
#     Edge 13, Type (0, 0), BuildingBlock: XIVTED_clean_linker_0, # of connection points: 2
#     Edge 14, Type (0, 0), BuildingBlock: XIVTED_clean_linker_0, # of connection points: 2
#     Edge 15, Type (0, 0), BuildingBlock: XIVTED_clean_linker_0, # of connection points: 2
#     Edge 16, Type (0, 0), BuildingBlock: XIVTED_clean_linker_0, # of connection points: 2
#     Edge 17, Type (0, 0), BuildingBlock: XIVTED_clean_linker_0, # of connection points: 2
#     Edge 18, Type (0, 0), BuildingBlock: XIVTED_clean_linker_0, # of connection points: 2
#     Edge 19, Type (0, 0), BuildingBlock: XIVTED_clean_linker_0, # of connection points: 2
#     Edge 20, Type (0, 0), BuildingBlock: XIVTED_clean_linker_0, # of connection points: 2
#     Edge 21, Type (0, 0), BuildingBlock: XIVTED_clean_linker_0, # of connection points: 2
#     Edge 22, Type (0, 0), BuildingBlock: XIVTED_clean_linker_0, # of connection points: 2
#     Edge 23, Type (0, 0), BuildingBlock: XIVTED_clean_linker_0, # of connection points: 2
#     Edge 24, Type (0, 0), BuildingBlock: XIVTED_clean_linker_0, # of connection points: 2
#     Edge 25, Type (0, 0), BuildingBlock: XIVTED_clean_linker_0, # of connection points: 2
#     Edge 26, Type (0, 0), BuildingBlock: XIVTED_clean_linker_0, # of connection points: 2
#     Edge 27, Type (0, 0), BuildingBlock: XIVTED_clean_linker_0, # of connection points: 2
# Relax obj value: 0.131
# Max RMSD: 0.202
# Mean RMSD: 0.202
data_MOF--net-ftb--node1-BEQFEK_clean_sbu_0--edge1-XIVTED_clean_linker_0
_symmetry_space_group_name_H-M    P1
_symmetry_Int_Tables_number       1
_symmetry_cell_setting            triclinic
loop_
_symmetry_equiv_pos_as_xyz
'x, y, z'
_cell_length_a     56.14431
_cell_length_b     15.364671
_cell_length_c     36.138035
_cell_angle_alpha  89.795369
_cell_angle_beta   93.175489
_cell_angle_gamma 90.082078
loop_
_atom_site_label
_atom_site_type_symbol
_atom_site_fract_x
_atom_site_fract_y
_atom_site_fract_z
_atom_type_partial_charge
Co0 Co 0.34588 0.09124 0.10557 0.0
Co1 Co 0.3448 0.00105 0.02746 0.0
C2 C 0.33144 0.90422 0.09484 0.0
O3 O 0.3359 0.97075 0.115 0.0
O4 O 0.33471 0.90508 0.06015 0.0
C5 C 0.35686 0.1145 0.18356 0.0
O6 O 0.36124 0.03053 0.1834 0.0
C7 C 0.34881 0.88333 0.96317 0.0
C8 C 0.35247 0.98043 0.91852 0.0
C9 C 0.35139 0.89185 0.92532 0.0
N10 N 0.34841 0.96354 0.97795 0.0
N11 N 0.35046 0.02108 0.95105 0.0
C12 C 0.34786 0.80107 0.98527 0.0
H13 H 0.35766 0.80971 0.01252 0.0
H14 H 0.35564 0.7458 0.97039 0.0
H15 H 0.32898 0.78592 0.99034 0.0
C16 C 0.39556 0.12442 0.08762 0.0
N17 N 0.37343 0.09518 0.07843 0.0
N18 N 0.37343 0.05435 0.0465 0.0
C19 C 0.3958 0.05451 0.03476 0.0
C20 C 0.41046 0.09956 0.06027 0.0
C21 C 0.40272 0.16561 0.12402 0.0
H22 H 0.39022 0.21919 0.12963 0.0
H23 H 0.4016 0.11629 0.14635 0.0
H24 H 0.42118 0.1915 0.12457 0.0
O25 O 0.31843 0.14546 0.07895 0.0
O26 O 0.31753 0.08303 0.02364 0.0
H27 H 0.39598 0.04337 0.97596 0.0
H28 H 0.42289 0.00521 -0.00026 0.0
C29 C 0.40322 0.00815 0.00091 0.0
H30 H 0.39576 0.94124 0.00031 0.0
H31 H 0.35055 0.08834 0.95499 0.0
O32 O 0.3506 0.15275 0.15335 0.0
C33 C 0.30873 0.13456 0.04668 0.0
Co34 Co 0.64815 0.03556 0.0301 0.0
Co35 Co 0.6517 0.97888 0.11379 0.0
C36 C 0.65398 0.84992 0.05132 0.0
O37 O 0.65062 0.90815 0.02636 0.0
O38 O 0.65439 0.86877 0.08575 0.0
C39 C 0.64652 0.05377 0.95024 0.0
O40 O 0.65563 0.97506 0.95021 0.0
C41 C 0.64387 0.88547 0.18368 0.0
C42 C 0.65345 0.988 0.22463 0.0
C43 C 0.64577 0.90254 0.22144 0.0
N44 N 0.65019 0.95767 0.1655 0.0
N45 N 0.65599 0.01849 0.19016 0.0
C46 C 0.63489 0.80425 0.16493 0.0
H47 H 0.62563 0.82036 0.13786 0.0
H48 H 0.62252 0.76854 0.18251 0.0
H49 H 0.65026 0.76155 0.15978 0.0
C50 C 0.60181 0.09937 0.05181 0.0
N51 N 0.62366 0.06741 0.06084 0.0
N52 N 0.62486 0.04349 0.09583 0.0
C53 C 0.6037 0.05945 0.11027 0.0
C54 C 0.58837 0.09527 0.08285 0.0
C55 C 0.59298 0.11882 0.01278 0.0
H56 H 0.60315 0.17471 0.00218 0.0
H57 H 0.59629 0.06182 0.99501 0.0
H58 H 0.57369 0.1345 0.01063 0.0
O59 O 0.67997 0.07587 0.04856 0.0
O60 O 0.6821 0.04109 0.10825 0.0
H61 H 0.61048 0.06152 0.16905 0.0
H62 H 0.57931 0.05449 0.1547 0.0
C63 C 0.59747 0.03268 0.14842 0.0
H64 H 0.59855 0.96082 0.15097 0.0
H65 H 0.66155 0.0811 0.18338 0.0
O66 O 0.64205 0.08904 0.9808 0.0
C67 C 0.6914 0.07301 0.07993 0.0
Co68 Co 0.34472 0.53517 0.61562 0.0
Co69 Co 0.34789 0.49569 0.5306 0.0
C70 C 0.34124 0.35348 0.58526 0.0
O71 O 0.34164 0.40741 0.61202 0.0
O72 O 0.34455 0.3783 0.5522 0.0
C73 C 0.33557 0.54607 0.69406 0.0
O74 O 0.31688 0.49643 0.68639 0.0
C75 C 0.3514 0.42362 0.45543 0.0
C76 C 0.35988 0.54178 0.42364 0.0
C77 C 0.3562 0.45296 0.42017 0.0
N78 N 0.35277 0.49175 0.47871 0.0
N79 N 0.3576 0.56223 0.45943 0.0
C80 C 0.34304 0.3351 0.46628 0.0
H81 H 0.32878 0.34137 0.48613 0.0
H82 H 0.35815 0.299 0.48015 0.0
H83 H 0.33591 0.29767 0.44193 0.0
C84 C 0.39138 0.61414 0.60408 0.0
N85 N 0.37103 0.57693 0.59057 0.0
N86 N 0.37322 0.55651 0.55564 0.0
C87 C 0.39542 0.57742 0.54616 0.0
C88 C 0.40756 0.61539 0.5765 0.0
C89 C 0.39571 0.64284 0.64339 0.0
H90 H 0.38041 0.68254 0.65165 0.0
H91 H 0.39714 0.58472 0.66169 0.0
H92 H 0.41228 0.68203 0.6471 0.0
O93 O 0.31422 0.58199 0.59493 0.0
O94 O 0.31654 0.55274 0.53511 0.0
H95 H 0.40328 0.59864 0.48968 0.0
H96 H 0.42566 0.53727 0.51576 0.0
C97 C 0.40617 0.54782 0.51132 0.0
H98 H 0.39773 0.48633 0.50138 0.0
H99 H 0.35923 0.62451 0.47073 0.0
O100 O 0.34889 0.56807 0.66833 0.0
C101 C 0.30509 0.58162 0.5619 0.0
Co102 Co 0.64417 0.54581 0.53337 0.0
Co103 Co 0.64982 0.51137 0.61902 0.0
C104 C 0.6545 0.36978 0.56145 0.0
O105 O 0.64894 0.4193 0.53399 0.0
O106 O 0.65503 0.39808 0.59464 0.0
C107 C 0.64585 0.55359 0.45414 0.0
O108 O 0.65959 0.48479 0.45862 0.0
C109 C 0.64141 0.42278 0.68884 0.0
C110 C 0.65491 0.51915 0.73016 0.0
C111 C 0.64509 0.43658 0.72666 0.0
N112 N 0.64888 0.49362 0.67094 0.0
N113 N 0.65692 0.55103 0.69575 0.0
C114 C 0.62988 0.34608 0.66977 0.0
H115 H 0.62075 0.36663 0.64314 0.0
H116 H 0.61685 0.31467 0.6876 0.0
H117 H 0.64381 0.29792 0.66366 0.0
C118 C 0.59697 0.60509 0.55449 0.0
N119 N 0.61932 0.57802 0.56351 0.0
N120 N 0.62191 0.56676 0.59956 0.0
C121 C 0.60145 0.5885 0.61488 0.0
C122 C 0.58485 0.61287 0.58682 0.0
C123 C 0.58675 0.61081 0.51538 0.0
H124 H 0.59239 0.6732 0.50299 0.0
H125 H 0.59376 0.55693 0.4988 0.0
H126 H 0.567 0.60737 0.51383 0.0
O127 O 0.67551 0.59612 0.54996 0.0
O128 O 0.6786 0.57948 0.61103 0.0
H129 H 0.61326 0.61253 0.67126 0.0
H130 H 0.58138 0.61876 0.66265 0.0
C131 C 0.59773 0.58353 0.65553 0.0
H132 H 0.59625 0.51431 0.66394 0.0
H133 H 0.66392 0.61174 0.68916 0.0
O134 O 0.63717 0.58822 0.48227 0.0
C135 C 0.68716 0.60472 0.58099 0.0
Co136 Co 0.85123 0.0497 0.59244 0.0
Co137 Co 0.84563 0.01401 0.50713 0.0
C138 C 0.84105 0.87345 0.56605 0.0
O139 O 0.84681 0.92295 0.59334 0.0
O140 O 0.84041 0.90171 0.53276 0.0
C141 C 0.857 0.05771 0.67314 0.0
O142 O 0.85406 0.97287 0.6732 0.0
C143 C 0.85402 0.92306 0.43809 0.0
C144 C 0.83994 0.01752 0.39615 0.0
C145 C 0.84991 0.93534 0.4002 0.0
N146 N 0.84661 0.99436 0.45548 0.0
N147 N 0.83824 0.05063 0.43029 0.0
C148 C 0.86577 0.84731 0.4577 0.0
H149 H 0.87491 0.86887 0.48412 0.0
H150 H 0.87882 0.81596 0.44002 0.0
H151 H 0.85197 0.79877 0.46427 0.0
C152 C 0.89829 0.11107 0.57094 0.0
N153 N 0.87606 0.08228 0.56217 0.0
N154 N 0.87344 0.07079 0.52617 0.0
C155 C 0.89374 0.09403 0.51063 0.0
C156 C 0.91031 0.11978 0.5385 0.0
C157 C 0.90854 0.11836 0.60996 0.0
H158 H 0.90352 0.18233 0.62135 0.0
H159 H 0.90105 0.0666 0.62737 0.0
H160 H 0.92825 0.11269 0.6115 0.0
O161 O 0.81976 0.09665 0.57496 0.0
O162 O 0.81666 0.08157 0.51395 0.0
H163 H 0.8814 0.11741 0.45437 0.0
H164 H 0.91326 0.12721 0.46248 0.0
C165 C 0.89725 0.09002 0.46991 0.0
H166 H 0.8992 0.0211 0.46156 0.0
H167 H 0.83115 0.11128 0.43646 0.0
O168 O 0.857 0.0986 0.64254 0.0
C169 C 0.80803 0.10537 0.54403 0.0
Co170 Co 0.15073 0.04135 0.50922 0.0
Co171 Co 0.1456 0.00112 0.5944 0.0
C172 C 0.15332 0.85918 0.54067 0.0
O173 O 0.15347 0.91317 0.51377 0.0
O174 O 0.14924 0.88385 0.5734 0.0
C175 C 0.13677 0.03858 0.43071 0.0
O176 O 0.12246 0.97491 0.43947 0.0
C177 C 0.14218 0.92996 0.67022 0.0
C178 C 0.13251 0.04746 0.70107 0.0
C179 C 0.1373 0.95949 0.70536 0.0
N180 N 0.13985 -0.00291 0.64627 0.0
N181 N 0.13426 0.06719 0.66501 0.0
C182 C 0.15169 0.84279 0.66015 0.0
H183 H 0.16574 0.85106 0.64004 0.0
H184 H 0.13702 0.8035 0.64682 0.0
H185 H 0.15939 0.8075 0.6848 0.0
C186 C 0.10395 0.12435 0.51884 0.0
N187 N 0.12387 0.0847 0.5328 0.0
N188 N 0.12092 0.06272 0.5675 0.0
C189 C 0.09859 0.08393 0.57605 0.0
C190 C 0.08719 0.12441 0.54558 0.0
C191 C 0.10061 0.15938 0.48022 0.0
H192 H 0.09479 0.10609 0.4612 0.0
H193 H 0.08668 0.2107 0.47863 0.0
H194 H 0.11761 0.18687 0.47117 0.0
O195 O 0.18077 0.08587 0.53195 0.0
O196 O 0.17739 0.05659 0.5916 0.0
H197 H 0.0888 0.10331 0.63172 0.0
H198 H 0.06772 0.03985 0.6041 0.0
C199 C 0.08702 0.05251 0.61002 0.0
H200 H 0.0956 0.99178 0.62062 0.0
H201 H 0.13201 0.12896 0.65324 0.0
O202 O 0.14997 0.07466 0.45595 0.0
C203 C 0.18941 0.08479 0.56522 0.0
Co204 Co 0.84341 0.54619 0.0943 0.0
Co205 Co 0.84486 0.4851 0.01159 0.0
C206 C 0.84131 0.35724 0.07329 0.0
O207 O 0.84237 0.41754 0.09753 0.0
O208 O 0.84301 0.374 0.03891 0.0
C209 C 0.84604 0.56037 0.17515 0.0
O210 O 0.84107 0.47688 0.17639 0.0
C211 C 0.84728 0.39639 0.93938 0.0
C212 C 0.85641 0.50693 0.90349 0.0
C213 C 0.85219 0.41805 0.90316 0.0
N214 N 0.84912 0.4689 0.96009 0.0
N215 N 0.8543 0.53477 0.93835 0.0
C216 C 0.83855 0.31115 0.95353 0.0
H217 H 0.82564 0.32247 0.97513 0.0
H218 H 0.85388 0.27398 0.96615 0.0
H219 H 0.82971 0.27218 0.93092 0.0
C220 C 0.88777 0.63195 0.07571 0.0
N221 N 0.86808 0.58614 0.0656 0.0
N222 N 0.87019 0.5541 0.03232 0.0
C223 C 0.89203 0.57419 0.02101 0.0
C224 C 0.90383 0.62513 0.04803 0.0
C225 C 0.89111 0.67993 0.1116 0.0
H226 H 0.8745 0.71543 0.11707 0.0
H227 H 0.89482 0.63266 0.13449 0.0
H228 H 0.906 0.72739 0.111 0.0
O229 O 0.81207 0.57994 0.07338 0.0
O230 O 0.81279 0.53977 0.0145 0.0
H231 H 0.90104 0.57654 0.9643 0.0
H232 H 0.9223 0.52034 0.99466 0.0
C233 C 0.90299 0.53241 0.98863 0.0
H234 H 0.89415 0.46954 0.98178 0.0
H235 H 0.85635 0.59894 0.94736 0.0
O236 O 0.84741 0.5981 0.14403 0.0
C237 C 0.80189 0.57161 0.0413 0.0
Co238 Co 0.14784 0.61694 0.02744 0.0
Co239 Co 0.13899 0.50656 0.09927 0.0
C240 C 0.15641 0.42067 0.03422 0.0
O241 O 0.15733 0.49433 0.01792 0.0
O242 O 0.14781 0.4131 0.06598 0.0
C243 C 0.1394 0.64541 0.9499 0.0
O244 O 0.1309 0.56584 0.95143 0.0
C245 C 0.13463 0.38543 0.16264 0.0
C246 C 0.11728 0.46991 0.20254 0.0
C247 C 0.12618 0.38695 0.19804 0.0
N248 N 0.13061 0.46383 0.14678 0.0
N249 N 0.12048 0.51414 0.171 0.0
C250 C 0.14595 0.31088 0.1438 0.0
H251 H 0.16413 0.33 0.13623 0.0
H252 H 0.13538 0.29588 0.11776 0.0
H253 H 0.14695 0.2518 0.16154 0.0
C254 C 0.09773 0.66568 0.03707 0.0
N255 N 0.11787 0.62327 0.04811 0.0
N256 N 0.11371 0.57346 0.07673 0.0
C257 C 0.09046 0.57941 0.08369 0.0
C258 C 0.07968 0.63934 0.05929 0.0
C259 C 0.09597 0.73065 0.00611 0.0
H260 H 0.11275 0.76868 0.00552 0.0
H261 H 0.0932 0.69574 0.97939 0.0
H262 H 0.08079 0.77574 0.00921 0.0
O263 O 0.17286 0.66481 0.06163 0.0
O264 O 0.16877 0.57459 0.10915 0.0
H265 H 0.07628 0.55131 0.13619 0.0
H266 H 0.05975 0.50384 0.09743 0.0
C267 C 0.07798 0.51927 0.10903 0.0
H268 H 0.08808 0.45773 0.11314 0.0
H269 H 0.11605 0.57929 0.16617 0.0
O270 O 0.14763 0.68129 0.97959 0.0
C271 C 0.17986 0.63524 0.0933 0.0
H272 H 0.34229 0.50803 0.35074 0.0
H273 H 0.37038 0.05539 0.25329 0.0
H274 H 0.37292 0.28707 0.40988 0.0
H275 H 0.34681 0.28653 0.19368 0.0
H276 H 0.37119 0.13797 0.3111 0.0
H277 H 0.34365 0.42696 0.29289 0.0
C278 C 0.34919 0.4422 0.35155 0.0
C279 C 0.35689 0.40336 0.38526 0.0
C280 C 0.36592 0.17062 0.28533 0.0
C281 C 0.35868 0.31024 0.31916 0.0
C282 C 0.36545 0.12352 0.25232 0.0
C283 C 0.35843 0.164 0.2186 0.0
C284 C 0.35923 0.25872 0.28462 0.0
C285 C 0.35228 0.25252 0.21902 0.0
C286 C 0.34997 0.39593 0.31853 0.0
C287 C 0.36595 0.31833 0.38469 0.0
N288 N 0.35274 0.29673 0.2515 0.0
N289 N 0.36649 0.27441 0.35217 0.0
H290 H 0.62554 0.9446 0.28537 0.0
H291 H 0.66273 0.50131 0.38794 0.0
H292 H 0.65741 0.72966 0.22984 0.0
H293 H 0.62072 0.70169 0.43657 0.0
H294 H 0.65942 0.57977 0.32884 0.0
H295 H 0.62218 0.85325 0.34024 0.0
C296 C 0.63155 0.87768 0.28463 0.0
C297 C 0.64152 0.84429 0.25296 0.0
C298 C 0.65075 0.60607 0.35237 0.0
C299 C 0.63812 0.73958 0.31581 0.0
C300 C 0.65265 0.56136 0.38613 0.0
C301 C 0.64221 0.59544 0.41736 0.0
C302 C 0.63847 0.68567 0.34994 0.0
C303 C 0.62925 0.67328 0.41334 0.0
C304 C 0.62961 0.82549 0.31592 0.0
C305 C 0.64914 0.75736 0.25343 0.0
N306 N 0.62794 0.71609 0.38037 0.0
N307 N 0.64749 0.70813 0.28453 0.0
H308 H 0.37437 0.63984 0.71939 0.0
H309 H 0.32333 0.74574 0.91646 0.0
H310 H 0.30814 0.53303 0.75471 0.0
H311 H 0.38014 0.88752 0.86774 0.0
H312 H 0.32163 0.6469 0.8631 0.0
H313 H 0.38077 0.7099 0.77928 0.0
C314 C 0.36118 0.63071 0.73979 0.0
C315 C 0.34047 0.58157 0.73172 0.0
C316 C 0.33468 0.69891 0.86442 0.0
C317 C 0.34774 0.6621 0.80068 0.0
C318 C 0.33582 0.75469 0.89499 0.0
C319 C 0.35202 0.82436 0.89648 0.0
C320 C 0.34992 0.71311 0.83542 0.0
C321 C 0.36737 0.83461 0.86753 0.0
C322 C 0.36488 0.67081 0.77408 0.0
C323 C 0.32424 0.57103 0.75962 0.0
N324 N 0.36591 0.7798 0.83817 0.0
N325 N 0.32811 0.61172 0.79282 0.0
H326 H 0.63016 0.47739 0.79463 0.0
H327 H 0.65618 0.00404 0.87973 0.0
H328 H 0.6526 0.25999 0.72994 0.0
H329 H 0.62865 0.21824 0.94149 0.0
H330 H 0.65269 0.09341 0.82352 0.0
H331 H 0.62737 0.38051 0.84796 0.0
C332 C 0.6342 0.40895 0.79157 0.0
C333 C 0.64127 0.37641 0.75771 0.0
C334 C 0.64726 0.12055 0.84934 0.0
C335 C 0.63848 0.26525 0.81867 0.0
C336 C 0.64925 0.06957 0.88144 0.0
C337 C 0.64291 0.10396 0.91543 0.0
C338 C 0.63896 0.20656 0.85134 0.0
C339 C 0.63394 0.18917 0.91597 0.0
C340 C 0.63259 0.35362 0.82197 0.0
C341 C 0.64646 0.28739 0.75522 0.0
N342 N 0.63239 0.23766 0.88448 0.0
N343 N 0.64511 0.23495 0.78539 0.0
H344 H 0.85916 0.99515 0.74473 0.0
H345 H 0.84137 0.4653 0.83183 0.0
H346 H 0.85724 0.23399 0.68124 0.0
H347 H 0.86548 0.24537 0.89839 0.0
H348 H 0.84363 0.37665 0.77639 0.0
H349 H 0.85842 0.08116 0.80178 0.0
C350 C 0.85871 0.06549 0.74277 0.0
C351 C 0.85817 0.10739 0.70815 0.0
C352 C 0.8483 0.34753 0.80315 0.0
C353 C 0.85705 0.20561 0.77301 0.0
C354 C 0.84697 0.39808 0.83483 0.0
C355 C 0.85269 0.36223 0.86993 0.0
C356 C 0.85545 0.26023 0.80643 0.0
C357 C 0.86002 0.27487 0.87208 0.0
C358 C 0.85829 0.11442 0.7753 0.0
C359 C 0.85763 0.19872 0.70726 0.0
N360 N 0.86109 0.22661 0.84073 0.0
N361 N 0.85692 0.24459 0.73914 0.0
H362 H 0.15421 0.81241 0.93693 0.0
H363 H 0.12255 0.79183 0.71804 0.0
H364 H 0.12396 0.58646 0.88126 0.0
H365 H 0.15189 0.01868 0.77389 0.0
H366 H 0.12332 0.71487 0.77744 0.0
H367 H 0.15373 0.88874 0.87744 0.0
C368 C 0.14747 0.77879 0.91221 0.0
C369 C 0.13914 0.69279 0.91412 0.0
C370 C 0.12973 0.78131 0.7767 0.0
C371 C 0.13853 0.77992 0.84584 0.0
C372 C 0.12953 0.82497 0.74272 0.0
C373 C 0.13774 0.91106 0.74091 0.0
C374 C 0.13804 0.82426 0.8092 0.0
C375 C 0.14559 0.95205 0.77402 0.0
C376 C 0.14719 0.82246 0.87823 0.0
C377 C 0.13057 0.65267 0.88115 0.0
N378 N 0.14565 0.90822 0.80676 0.0
N379 N 0.13051 0.69651 0.8484 0.0
H380 H 0.84348 0.7576 0.39892 0.0
H381 H 0.85985 0.73011 0.1813 0.0
H382 H 0.86285 0.97517 0.33097 0.0
H383 H 0.84052 0.50851 0.24714 0.0
H384 H 0.86412 0.81713 0.2372 0.0
H385 H 0.8457 0.66189 0.34538 0.0
C386 C 0.84881 0.78493 0.37302 0.0
C387 C 0.85337 0.87432 0.36951 0.0
C388 C 0.85904 0.74941 0.23957 0.0
C389 C 0.85518 0.76568 0.30789 0.0
C390 C 0.85657 0.69949 0.20756 0.0
C391 C 0.84964 0.61188 0.20946 0.0
C392 C 0.85443 0.71189 0.2739 0.0
C393 C 0.84579 0.57591 0.24439 0.0
C394 C 0.84979 0.73035 0.34233 0.0
C395 C 0.85923 0.9066 0.33486 0.0
N396 N 0.84808 0.62629 0.27527 0.0
N397 N 0.8599 0.8524 0.3054 0.0
H398 H 0.09926 0.03475 0.37908 0.0
H399 H 0.16599 0.30089 0.22506 0.0
H400 H 0.17162 0.12697 0.39647 0.0
H401 H 0.09049 0.32456 0.23848 0.0
H402 H 0.1691 0.20353 0.27927 0.0
H403 H 0.0967 0.10834 0.31855 0.0
C404 C 0.11471 0.06933 0.36991 0.0
C405 C 0.13565 0.07524 0.39281 0.0
C406 C 0.15182 0.22913 0.26995 0.0
C407 C 0.1329 0.15831 0.32376 0.0
C408 C 0.15001 0.28385 0.23896 0.0
C409 C 0.12791 0.31977 0.2273 0.0
C410 C 0.13132 0.20953 0.28896 0.0
C411 C 0.10781 0.29762 0.24666 0.0
C412 C 0.11318 0.11155 0.33554 0.0
C413 C 0.15509 0.12141 0.37973 0.0
N414 N 0.10995 0.24363 0.27655 0.0
N415 N 0.15327 0.1611 0.34601 0.0
H416 H 0.55832 0.96248 0.09636 0.0
H417 H 0.43921 0.24241 0.05934 0.0
H418 H 0.55936 0.23487 0.06773 0.0
H419 H 0.44066 0.96274 0.06781 0.0
H420 H 0.48302 0.24468 0.06664 0.0
H421 H 0.51477 0.96486 0.09145 0.0
C422 C 0.54924 0.02309 0.08953 0.0
C423 C 0.56219 0.09881 0.08274 0.0
C424 C 0.47376 0.18283 0.06671 0.0
C425 C 0.51254 0.10198 0.07636 0.0
C426 C 0.44889 0.18164 0.06251 0.0
C427 C 0.43665 0.10225 0.06268 0.0
C428 C 0.48623 0.10399 0.07148 0.0
C429 C 0.44966 0.02506 0.06715 0.0
C430 C 0.52444 0.02437 0.0864 0.0
C431 C 0.54979 0.17543 0.07331 0.0
N432 N 0.47379 0.02782 0.07146 0.0
N433 N 0.52555 0.17518 0.07035 0.0
H434 H 0.43584 0.71674 0.53481 0.0
H435 H 0.55501 0.50937 0.62408 0.0
H436 H 0.43795 0.54173 0.6284 0.0
H437 H 0.55584 0.73859 0.55496 0.0
H438 H 0.51185 0.5209 0.62541 0.0
H439 H 0.47963 0.72669 0.54047 0.0
C440 C 0.44559 0.68154 0.55681 0.0
C441 C 0.43349 0.62905 0.5814 0.0
C442 C 0.52142 0.56947 0.61029 0.0
C443 C 0.48309 0.63887 0.58777 0.0
C444 C 0.54609 0.5632 0.60975 0.0
C445 C 0.55892 0.62369 0.58969 0.0
C446 C 0.50943 0.63581 0.59004 0.0
C447 C 0.54644 0.69063 0.57066 0.0
C448 C 0.47044 0.68725 0.56009 0.0
C449 C 0.44669 0.58395 0.60929 0.0
N450 N 0.52227 0.69457 0.571 0.0
N451 N 0.47081 0.58938 0.61155 0.0
H452 H 0.05751 0.06012 0.49042 0.0
H453 H 0.93822 0.24777 0.57089 0.0
H454 H 0.05829 0.22052 0.58812 0.0
H455 H 0.94102 0.02327 0.49998 0.0
H456 H 0.9818 0.26204 0.56933 0.0
H457 H 0.01417 0.07227 0.4844 0.0
C458 C 0.04854 0.09957 0.51013 0.0
C459 C 0.06136 0.13996 0.53966 0.0
C460 C 0.97276 0.2104 0.5538 0.0
C461 C 0.0118 0.15243 0.53351 0.0
C462 C 0.94801 0.20221 0.5547 0.0
C463 C 0.93611 0.13456 0.53538 0.0
C464 C 0.98549 0.1509 0.53312 0.0
C465 C 0.94945 0.07736 0.51468 0.0
C466 C 0.0238 0.10573 0.50693 0.0
C467 C 0.04888 0.18849 0.56501 0.0
N468 N 0.97343 0.08676 0.51414 0.0
N469 N 0.02467 0.19316 0.56148 0.0
H470 H 0.93537 0.60314 0.10735 0.0
H471 H 0.05013 0.6475 0.99646 0.0
H472 H 0.93066 0.69499 0.99422 0.0
H473 H 0.05133 0.68175 0.11495 0.0
H474 H 0.0067 0.66534 0.99352 0.0
H475 H 0.97808 0.63022 0.11016 0.0
C476 C 0.94324 0.63111 0.08334 0.0
C477 C 0.92943 0.648 0.05063 0.0
C478 C 0.01655 0.67053 0.02004 0.0
C479 C 0.97855 0.67558 0.05317 0.0
C480 C 0.04129 0.66071 0.02172 0.0
C481 C 0.05417 0.66227 0.05607 0.0
C482 C 0.00477 0.68041 0.05303 0.0
C483 C 0.0419 0.67828 0.08804 0.0
C484 C 0.96768 0.64598 0.08489 0.0
C485 C 0.94077 0.68079 0.01989 0.0
N486 N 0.01781 0.6854 0.08584 0.0
N487 N 0.96482 0.6925 0.0217 0.0
H488 H 0.18438 0.41953 0.97408 0.0
H489 H 0.2762 0.17314 0.0965 0.0
H490 H 0.1635 0.25928 0.06527 0.0
H491 H 0.28592 0.17095 0.9788 0.0
H492 H 0.23491 0.21606 0.08408 0.0
H493 H 0.22042 0.33159 0.9704 0.0
C494 C 0.18685 0.36402 0.99245 0.0
C495 C 0.17139 0.34915 0.02117 0.0
C496 C 0.24602 0.20576 0.06091 0.0
C497 C 0.21261 0.2502 0.01734 0.0
C498 C 0.26972 0.18285 0.06798 0.0
C499 C 0.28458 0.16958 0.03862 0.0
C500 C 0.23712 0.21762 0.02425 0.0
C501 C 0.27502 0.18133 0.00218 0.0
C502 C 0.20751 0.31414 0.99035 0.0
C503 C 0.17532 0.27522 0.04357 0.0
N504 N 0.25185 0.20619 0.99594 0.0
N505 N 0.19598 0.23025 0.04204 0.0
H506 H 0.77446 0.60503 0.97713 0.0
H507 H 0.66263 0.70567 0.09479 0.0
H508 H 0.77035 0.57329 0.09536 0.0
H509 H 0.67014 0.80343 0.98389 0.0
H510 H 0.69535 0.60514 0.08624 0.0
H511 H 0.73135 0.63524 0.9723 0.0
C512 C 0.7645 0.60411 0.00195 0.0
C513 C 0.77608 0.58927 0.03681 0.0
C514 C 0.68943 0.6471 0.0634 0.0
C515 C 0.727 0.62037 0.03136 0.0
C516 C 0.67057 0.704 0.06815 0.0
C517 C 0.66445 0.76606 0.04072 0.0
C518 C 0.70226 0.65317 0.03119 0.0
C519 C 0.67487 0.75885 0.00635 0.0
C520 C 0.73994 0.62049 -0.00085 0.0
C521 C 0.76232 0.58702 0.06804 0.0
N522 N 0.69392 0.70563 0.00297 0.0
N523 N 0.73859 0.60289 0.06458 0.0
H524 H 0.21749 0.52818 0.10584 0.0
H525 H 0.30841 0.90698 0.15942 0.0
H526 H 0.19633 0.797 0.11228 0.0
H527 H 0.31896 0.74597 0.0639 0.0
H528 H 0.27245 0.8243 0.17096 0.0
H529 H 0.25937 0.5722 0.11826 0.0
C530 C 0.22165 0.59604 0.11118 0.0
C531 C 0.20369 0.65948 0.10822 0.0
C532 C 0.28321 0.80538 0.14835 0.0
C533 C 0.25086 0.70894 0.12314 0.0
C534 C 0.30382 0.85205 0.14171 0.0
C535 C 0.31634 0.83509 0.10986 0.0
C536 C 0.27558 0.73988 0.1237 0.0
C537 C 0.30956 0.76242 0.08828 0.0
C538 C 0.2454 0.62077 0.11809 0.0
C539 C 0.20979 0.74659 0.11451 0.0
N540 N 0.28927 0.71823 0.09519 0.0
N541 N 0.23299 0.76898 0.12172 0.0
H542 H 0.72094 0.0893 0.02307 0.0
H543 H 0.82456 0.30839 0.14035 0.0
H544 H 0.72022 0.10712 0.14222 0.0
H545 H 0.8317 0.21529 0.02895 0.0
H546 H 0.79021 0.21332 0.14581 0.0
H547 H 0.76336 0.12203 0.02694 0.0
C548 C 0.72968 0.10077 0.05009 0.0
C549 C 0.7169 0.09718 0.08233 0.0
C550 C 0.79969 0.21182 0.12053 0.0
C551 C 0.76576 0.1337 0.08702 0.0
C552 C 0.81954 0.26562 0.11746 0.0
C553 C 0.83023 0.27354 0.08332 0.0
C554 C 0.79064 0.16619 0.08924 0.0
C555 C 0.82332 0.21439 0.05521 0.0
C556 C 0.75404 0.11811 0.05234 0.0
C557 C 0.72935 0.11047 0.11663 0.0
N558 N 0.8034 0.16542 0.05828 0.0
N559 N 0.75306 0.12946 0.11806 0.0
H560 H 0.16138 0.73032 0.59278 0.0
H561 H 0.28022 0.60671 0.49515 0.0
H562 H 0.17416 0.79574 0.4793 0.0
H563 H 0.27183 0.60632 0.61325 0.0
H564 H 0.23763 0.63862 0.48506 0.0
H565 H 0.19661 0.63769 0.59506 0.0
C566 C 0.17109 0.72316 0.56791 0.0
C567 C 0.16556 0.77481 0.53647 0.0
C568 C 0.24514 0.63088 0.51313 0.0
C569 C 0.20597 0.66975 0.53908 0.0
C570 C 0.26947 0.61353 0.51895 0.0
C571 C 0.27972 0.60551 0.55514 0.0
C572 C 0.23095 0.63945 0.54369 0.0
C573 C 0.26484 0.61367 0.58489 0.0
C574 C 0.19137 0.67082 0.56938 0.0
C575 C 0.17828 0.75981 0.50467 0.0
N576 N 0.24125 0.63049 0.57849 0.0
N577 N 0.1984 0.71074 0.50712 0.0
H578 H 0.67051 0.24703 0.61207 0.0
H579 H 0.77708 0.13704 0.48395 0.0
H580 H 0.66936 0.30865 0.4953 0.0
H581 H 0.7809 0.12799 0.60364 0.0
H582 H 0.73431 0.16727 0.48481 0.0
H583 H 0.70613 0.15965 0.60529 0.0
C584 C 0.67722 0.23986 0.58472 0.0
C585 C 0.66757 0.28854 0.55456 0.0
C586 C 0.74455 0.15819 0.51082 0.0
C587 C 0.70862 0.19056 0.54689 0.0
C588 C 0.76899 0.14193 0.51039 0.0
C589 C 0.78271 0.1314 0.5438 0.0
C590 C 0.73375 0.16331 0.54487 0.0
C591 C 0.77118 0.13706 0.5772 0.0
C592 C 0.69777 0.19076 0.58097 0.0
C593 C 0.67667 0.27458 0.51962 0.0
N594 N 0.74742 0.15281 0.57685 0.0
N595 N 0.69719 0.22899 0.51692 0.0
H596 H 0.214 0.10812 0.6324 0.0
H597 H 0.33349 0.22217 0.53459 0.0
H598 H 0.22322 0.10457 0.51453 0.0
H599 H 0.3209 0.29146 0.64751 0.0
H600 H 0.29837 0.1288 0.53343 0.0
H601 H 0.25687 0.13568 0.64298 0.0
C602 C 0.22499 0.11332 0.60878 0.0
C603 C 0.21491 0.10594 0.57249 0.0
C604 C 0.30364 0.16288 0.55877 0.0
C605 C 0.2639 0.1345 0.58448 0.0
C606 C 0.32386 0.21565 0.55959 0.0
C607 C 0.32933 0.26872 0.59044 0.0
C608 C 0.28903 0.16317 0.58908 0.0
C609 C 0.31676 0.2545 0.62251 0.0
C610 C 0.24945 0.12808 0.61487 0.0
C611 C 0.23006 0.11169 0.54296 0.0
N612 N 0.29663 0.2053 0.62062 0.0
N613 N 0.25374 0.12595 0.54962 0.0
H614 H 0.71735 0.63967 0.64146 0.0
H615 H 0.82563 0.74928 0.51603 0.0
H616 H 0.71481 0.62834 0.52187 0.0
H617 H 0.825 0.8149 0.63206 0.0
H618 H 0.78975 0.66247 0.5222 0.0
H619 H 0.76003 0.67219 0.64152 0.0
C620 C 0.7257 0.64457 0.61522 0.0
C621 C 0.71237 0.63259 0.58156 0.0
C622 C 0.79777 0.69432 0.54651 0.0
C623 C 0.76126 0.66725 0.58158 0.0
C624 C 0.81847 0.74306 0.54314 0.0
C625 C 0.82776 0.79257 0.57319 0.0
C626 C 0.78641 0.69515 0.58014 0.0
C627 C 0.81805 0.77997 0.60783 0.0
C628 C 0.75009 0.6622 0.61533 0.0
C629 C 0.72423 0.63847 0.54846 0.0
N630 N 0.79742 0.73454 0.61014 0.0
N631 N 0.74796 0.65552 0.54933 0.0
loop_
_geom_bond_atom_site_label_1
_geom_bond_atom_site_label_2
_geom_bond_distance
_geom_bond_site_symmetry_2
_ccdc_geom_bond_type
Co0 O3 1.970 1_545 S
Co0 N17 1.989 . S
Co0 O25 1.967 . S
Co0 O32 1.920 . S
Co1 O4 1.966 1_545 S
Co1 N10 2.022 1_544 S
Co1 N18 1.993 . S
Co1 O26 1.941 . S
C2 O3 1.258 . S
C2 O4 1.263 . S
O3 Co0 1.970 1_565 S
O3 C2 1.258 . S
O4 Co1 1.966 1_565 S
O4 C2 1.263 . S
C5 O6 1.235 1_545 S
C5 O32 1.289 . S
O6 C5 1.235 1_565 S
C7 C9 1.400 . S
C7 N10 1.351 . S
C7 C12 1.501 . S
C8 C9 1.387 . S
C8 N11 1.341 1_565 S
C9 C7 1.400 . S
C9 C8 1.387 . S
N10 Co1 2.022 1_566 S
N10 C7 1.351 . S
N10 N11 1.365 1_565 S
N11 C8 1.341 1_545 S
N11 N10 1.365 1_545 S
N11 H31 0.862 . S
C12 C7 1.501 . S
C12 H13 0.961 . S
C12 H14 0.961 . S
C12 H15 0.960 . S
H13 C12 0.961 . S
H14 C12 0.961 . S
H15 C12 0.960 . S
C16 N17 1.342 . S
C16 C20 1.401 . S
C16 C21 1.499 . S
N17 Co0 1.989 . S
N17 C16 1.342 . S
N17 N18 1.388 . S
N18 Co1 1.993 . S
N18 N17 1.388 . S
N18 C19 1.346 . S
C19 N18 1.346 . S
C19 C20 1.396 . S
C19 C29 1.510 1_544 S
C20 C16 1.401 . S
C20 C19 1.396 . S
C21 C16 1.499 . S
C21 H22 0.959 . S
C21 H23 0.960 . S
C21 H24 0.961 . S
H22 C21 0.959 . S
H23 C21 0.960 . S
H24 C21 0.961 . S
O25 Co0 1.967 . S
O25 C33 1.258 . S
O26 Co1 1.941 . S
O26 C33 1.266 . S
H27 C29 0.959 1_545 S
H28 C29 0.961 . S
C29 C19 1.510 1_566 S
C29 H27 0.959 1_565 S
C29 H28 0.961 . S
C29 H30 0.960 . S
H30 C29 0.960 . S
H31 N11 0.862 . S
O32 Co0 1.920 . S
O32 C5 1.289 . S
C33 O25 1.258 . S
C33 O26 1.266 . S
Co34 O37 1.970 1_545 S
Co34 N51 1.989 . S
Co34 O59 1.967 . S
Co34 O66 1.920 1_554 S
Co35 O38 1.966 1_545 S
Co35 N44 2.022 1_545 S
Co35 N52 1.993 . S
Co35 O60 1.941 . S
C36 O37 1.258 . S
C36 O38 1.263 . S
O37 Co34 1.970 1_565 S
O37 C36 1.258 . S
O38 Co35 1.966 1_565 S
O38 C36 1.263 . S
C39 O40 1.235 1_545 S
C39 O66 1.289 . S
O40 C39 1.235 1_565 S
C41 C43 1.400 . S
C41 N44 1.351 . S
C41 C46 1.501 . S
C42 C43 1.387 . S
C42 N45 1.341 1_565 S
C43 C41 1.400 . S
C43 C42 1.387 . S
N44 Co35 2.022 1_565 S
N44 C41 1.351 . S
N44 N45 1.365 1_565 S
N45 C42 1.341 1_545 S
N45 N44 1.365 1_545 S
N45 H65 0.862 . S
C46 C41 1.501 . S
C46 H47 0.961 . S
C46 H48 0.961 . S
C46 H49 0.960 . S
H47 C46 0.961 . S
H48 C46 0.961 . S
H49 C46 0.960 . S
C50 N51 1.342 . S
C50 C54 1.401 . S
C50 C55 1.499 . S
N51 Co34 1.989 . S
N51 C50 1.342 . S
N51 N52 1.388 . S
N52 Co35 1.993 . S
N52 N51 1.388 . S
N52 C53 1.346 . S
C53 N52 1.346 . S
C53 C54 1.396 . S
C53 C63 1.510 1_545 S
C54 C50 1.401 . S
C54 C53 1.396 . S
C55 C50 1.499 . S
C55 H56 0.959 1_554 S
C55 H57 0.960 1_554 S
C55 H58 0.961 . S
H56 C55 0.959 1_556 S
H57 C55 0.960 1_556 S
H58 C55 0.961 . S
O59 Co34 1.967 . S
O59 C67 1.258 . S
O60 Co35 1.941 . S
O60 C67 1.266 . S
H61 C63 0.959 1_545 S
H62 C63 0.961 . S
C63 C53 1.510 1_565 S
C63 H61 0.959 1_565 S
C63 H62 0.961 . S
C63 H64 0.960 . S
H64 C63 0.960 . S
H65 N45 0.862 . S
O66 Co34 1.920 1_556 S
O66 C39 1.289 . S
C67 O59 1.258 . S
C67 O60 1.266 . S
Co68 O71 1.970 . S
Co68 N85 1.989 . S
Co68 O93 1.967 . S
Co68 O100 1.920 . S
Co69 O72 1.966 . S
Co69 N78 2.022 . S
Co69 N86 1.993 . S
Co69 O94 1.941 . S
C70 O71 1.258 . S
C70 O72 1.263 . S
O71 Co68 1.970 . S
O71 C70 1.258 . S
O72 Co69 1.966 . S
O72 C70 1.263 . S
C73 O74 1.235 . S
C73 O100 1.289 . S
O74 C73 1.235 . S
C75 C77 1.400 . S
C75 N78 1.351 . S
C75 C80 1.501 . S
C76 C77 1.387 . S
C76 N79 1.341 . S
C77 C75 1.400 . S
C77 C76 1.387 . S
N78 Co69 2.022 . S
N78 C75 1.351 . S
N78 N79 1.365 . S
N79 C76 1.341 . S
N79 N78 1.365 . S
N79 H99 0.862 . S
C80 C75 1.501 . S
C80 H81 0.961 . S
C80 H82 0.961 . S
C80 H83 0.960 . S
H81 C80 0.961 . S
H82 C80 0.961 . S
H83 C80 0.960 . S
C84 N85 1.342 . S
C84 C88 1.401 . S
C84 C89 1.499 . S
N85 Co68 1.989 . S
N85 C84 1.342 . S
N85 N86 1.388 . S
N86 Co69 1.993 . S
N86 N85 1.388 . S
N86 C87 1.346 . S
C87 N86 1.346 . S
C87 C88 1.396 . S
C87 C97 1.510 . S
C88 C84 1.401 . S
C88 C87 1.396 . S
C89 C84 1.499 . S
C89 H90 0.959 . S
C89 H91 0.960 . S
C89 H92 0.961 . S
H90 C89 0.959 . S
H91 C89 0.960 . S
H92 C89 0.961 . S
O93 Co68 1.967 . S
O93 C101 1.258 . S
O94 Co69 1.941 . S
O94 C101 1.266 . S
H95 C97 0.959 . S
H96 C97 0.961 . S
C97 C87 1.510 . S
C97 H95 0.959 . S
C97 H96 0.961 . S
C97 H98 0.960 . S
H98 C97 0.960 . S
H99 N79 0.862 . S
O100 Co68 1.920 . S
O100 C73 1.289 . S
C101 O93 1.258 . S
C101 O94 1.266 . S
Co102 O105 1.970 . S
Co102 N119 1.989 . S
Co102 O127 1.967 . S
Co102 O134 1.920 . S
Co103 O106 1.966 . S
Co103 N112 2.022 . S
Co103 N120 1.993 . S
Co103 O128 1.941 . S
C104 O105 1.258 . S
C104 O106 1.263 . S
O105 Co102 1.970 . S
O105 C104 1.258 . S
O106 Co103 1.966 . S
O106 C104 1.263 . S
C107 O108 1.235 . S
C107 O134 1.289 . S
O108 C107 1.235 . S
C109 C111 1.400 . S
C109 N112 1.351 . S
C109 C114 1.501 . S
C110 C111 1.387 . S
C110 N113 1.341 . S
C111 C109 1.400 . S
C111 C110 1.387 . S
N112 Co103 2.022 . S
N112 C109 1.351 . S
N112 N113 1.365 . S
N113 C110 1.341 . S
N113 N112 1.365 . S
N113 H133 0.862 . S
C114 C109 1.501 . S
C114 H115 0.961 . S
C114 H116 0.961 . S
C114 H117 0.960 . S
H115 C114 0.961 . S
H116 C114 0.961 . S
H117 C114 0.960 . S
C118 N119 1.342 . S
C118 C122 1.401 . S
C118 C123 1.499 . S
N119 Co102 1.989 . S
N119 C118 1.342 . S
N119 N120 1.388 . S
N120 Co103 1.993 . S
N120 N119 1.388 . S
N120 C121 1.346 . S
C121 N120 1.346 . S
C121 C122 1.396 . S
C121 C131 1.510 . S
C122 C118 1.401 . S
C122 C121 1.396 . S
C123 C118 1.499 . S
C123 H124 0.959 . S
C123 H125 0.960 . S
C123 H126 0.961 . S
H124 C123 0.959 . S
H125 C123 0.960 . S
H126 C123 0.961 . S
O127 Co102 1.967 . S
O127 C135 1.258 . S
O128 Co103 1.941 . S
O128 C135 1.266 . S
H129 C131 0.959 . S
H130 C131 0.961 . S
C131 C121 1.510 . S
C131 H129 0.959 . S
C131 H130 0.961 . S
C131 H132 0.960 . S
H132 C131 0.960 . S
H133 N113 0.862 . S
O134 Co102 1.920 . S
O134 C107 1.289 . S
C135 O127 1.258 . S
C135 O128 1.266 . S
Co136 O139 1.970 1_545 S
Co136 N153 1.989 . S
Co136 O161 1.967 . S
Co136 O168 1.920 . S
Co137 O140 1.966 1_545 S
Co137 N146 2.022 1_545 S
Co137 N154 1.993 . S
Co137 O162 1.941 . S
C138 O139 1.258 . S
C138 O140 1.263 . S
O139 Co136 1.970 1_565 S
O139 C138 1.258 . S
O140 Co137 1.966 1_565 S
O140 C138 1.263 . S
C141 O142 1.235 1_545 S
C141 O168 1.289 . S
O142 C141 1.235 1_565 S
C143 C145 1.400 . S
C143 N146 1.351 . S
C143 C148 1.501 . S
C144 C145 1.387 . S
C144 N147 1.341 1_565 S
C145 C143 1.400 . S
C145 C144 1.387 . S
N146 Co137 2.022 1_565 S
N146 C143 1.351 . S
N146 N147 1.365 1_565 S
N147 C144 1.341 1_545 S
N147 N146 1.365 1_545 S
N147 H167 0.862 . S
C148 C143 1.501 . S
C148 H149 0.961 . S
C148 H150 0.961 . S
C148 H151 0.960 . S
H149 C148 0.961 . S
H150 C148 0.961 . S
H151 C148 0.960 . S
C152 N153 1.342 . S
C152 C156 1.401 . S
C152 C157 1.499 . S
N153 Co136 1.989 . S
N153 C152 1.342 . S
N153 N154 1.388 . S
N154 Co137 1.993 . S
N154 N153 1.388 . S
N154 C155 1.346 . S
C155 N154 1.346 . S
C155 C156 1.396 . S
C155 C165 1.510 1_545 S
C156 C152 1.401 . S
C156 C155 1.396 . S
C157 C152 1.499 . S
C157 H158 0.959 . S
C157 H159 0.960 . S
C157 H160 0.961 . S
H158 C157 0.959 . S
H159 C157 0.960 . S
H160 C157 0.961 . S
O161 Co136 1.967 . S
O161 C169 1.258 . S
O162 Co137 1.941 . S
O162 C169 1.266 . S
H163 C165 0.959 1_545 S
H164 C165 0.961 . S
C165 C155 1.510 1_565 S
C165 H163 0.959 1_565 S
C165 H164 0.961 . S
C165 H166 0.960 . S
H166 C165 0.960 . S
H167 N147 0.862 . S
O168 Co136 1.920 . S
O168 C141 1.289 . S
C169 O161 1.258 . S
C169 O162 1.266 . S
Co170 O173 1.970 1_545 S
Co170 N187 1.989 . S
Co170 O195 1.967 . S
Co170 O202 1.920 . S
Co171 O174 1.966 1_545 S
Co171 N180 2.022 1_545 S
Co171 N188 1.993 . S
Co171 O196 1.941 . S
C172 O173 1.258 . S
C172 O174 1.263 . S
O173 Co170 1.970 1_565 S
O173 C172 1.258 . S
O174 Co171 1.966 1_565 S
O174 C172 1.263 . S
C175 O176 1.235 1_545 S
C175 O202 1.289 . S
O176 C175 1.235 1_565 S
C177 C179 1.400 . S
C177 N180 1.351 . S
C177 C182 1.501 . S
C178 C179 1.387 . S
C178 N181 1.341 1_565 S
C179 C177 1.400 . S
C179 C178 1.387 . S
N180 Co171 2.022 1_565 S
N180 C177 1.351 . S
N180 N181 1.365 1_565 S
N181 C178 1.341 1_545 S
N181 N180 1.365 1_545 S
N181 H201 0.862 . S
C182 C177 1.501 . S
C182 H183 0.961 . S
C182 H184 0.961 . S
C182 H185 0.960 . S
H183 C182 0.961 . S
H184 C182 0.961 . S
H185 C182 0.960 . S
C186 N187 1.342 . S
C186 C190 1.401 . S
C186 C191 1.499 . S
N187 Co170 1.989 . S
N187 C186 1.342 . S
N187 N188 1.388 . S
N188 Co171 1.993 . S
N188 N187 1.388 . S
N188 C189 1.346 . S
C189 N188 1.346 . S
C189 C190 1.396 . S
C189 C199 1.510 1_545 S
C190 C186 1.401 . S
C190 C189 1.396 . S
C191 C186 1.499 . S
C191 H192 0.959 . S
C191 H193 0.960 . S
C191 H194 0.961 . S
H192 C191 0.959 . S
H193 C191 0.960 . S
H194 C191 0.961 . S
O195 Co170 1.967 . S
O195 C203 1.258 . S
O196 Co171 1.941 . S
O196 C203 1.266 . S
H197 C199 0.959 1_545 S
H198 C199 0.961 . S
C199 C189 1.510 1_565 S
C199 H197 0.959 1_565 S
C199 H198 0.961 . S
C199 H200 0.960 . S
H200 C199 0.960 . S
H201 N181 0.862 . S
O202 Co170 1.920 . S
O202 C175 1.289 . S
C203 O195 1.258 . S
C203 O196 1.266 . S
Co204 O207 1.970 . S
Co204 N221 1.989 . S
Co204 O229 1.967 . S
Co204 O236 1.920 . S
Co205 O208 1.966 . S
Co205 N214 2.022 1_554 S
Co205 N222 1.993 . S
Co205 O230 1.941 . S
C206 O207 1.258 . S
C206 O208 1.263 . S
O207 Co204 1.970 . S
O207 C206 1.258 . S
O208 Co205 1.966 . S
O208 C206 1.263 . S
C209 O210 1.235 . S
C209 O236 1.289 . S
O210 C209 1.235 . S
C211 C213 1.400 . S
C211 N214 1.351 . S
C211 C216 1.501 . S
C212 C213 1.387 . S
C212 N215 1.341 . S
C213 C211 1.400 . S
C213 C212 1.387 . S
N214 Co205 2.022 1_556 S
N214 C211 1.351 . S
N214 N215 1.365 . S
N215 C212 1.341 . S
N215 N214 1.365 . S
N215 H235 0.862 . S
C216 C211 1.501 . S
C216 H217 0.961 . S
C216 H218 0.961 . S
C216 H219 0.960 . S
H217 C216 0.961 . S
H218 C216 0.961 . S
H219 C216 0.960 . S
C220 N221 1.342 . S
C220 C224 1.401 . S
C220 C225 1.499 . S
N221 Co204 1.989 . S
N221 C220 1.342 . S
N221 N222 1.388 . S
N222 Co205 1.993 . S
N222 N221 1.388 . S
N222 C223 1.346 . S
C223 N222 1.346 . S
C223 C224 1.396 . S
C223 C233 1.510 1_554 S
C224 C220 1.401 . S
C224 C223 1.396 . S
C225 C220 1.499 . S
C225 H226 0.959 . S
C225 H227 0.960 . S
C225 H228 0.961 . S
H226 C225 0.959 . S
H227 C225 0.960 . S
H228 C225 0.961 . S
O229 Co204 1.967 . S
O229 C237 1.258 . S
O230 Co205 1.941 . S
O230 C237 1.266 . S
H231 C233 0.959 . S
H232 C233 0.961 . S
C233 C223 1.510 1_556 S
C233 H231 0.959 . S
C233 H232 0.961 . S
C233 H234 0.960 . S
H234 C233 0.960 . S
H235 N215 0.862 . S
O236 Co204 1.920 . S
O236 C209 1.289 . S
C237 O229 1.258 . S
C237 O230 1.266 . S
Co238 O241 1.970 . S
Co238 N255 1.989 . S
Co238 O263 1.967 . S
Co238 O270 1.920 1_554 S
Co239 O242 1.966 . S
Co239 N248 2.022 . S
Co239 N256 1.993 . S
Co239 O264 1.941 . S
C240 O241 1.258 . S
C240 O242 1.263 . S
O241 Co238 1.970 . S
O241 C240 1.258 . S
O242 Co239 1.966 . S
O242 C240 1.263 . S
C243 O244 1.235 . S
C243 O270 1.289 . S
O244 C243 1.235 . S
C245 C247 1.400 . S
C245 N248 1.351 . S
C245 C250 1.501 . S
C246 C247 1.387 . S
C246 N249 1.341 . S
C247 C245 1.400 . S
C247 C246 1.387 . S
N248 Co239 2.022 . S
N248 C245 1.351 . S
N248 N249 1.365 . S
N249 C246 1.341 . S
N249 N248 1.365 . S
N249 H269 0.862 . S
C250 C245 1.501 . S
C250 H251 0.961 . S
C250 H252 0.961 . S
C250 H253 0.960 . S
H251 C250 0.961 . S
H252 C250 0.961 . S
H253 C250 0.960 . S
C254 N255 1.342 . S
C254 C258 1.401 . S
C254 C259 1.499 . S
N255 Co238 1.989 . S
N255 C254 1.342 . S
N255 N256 1.388 . S
N256 Co239 1.993 . S
N256 N255 1.388 . S
N256 C257 1.346 . S
C257 N256 1.346 . S
C257 C258 1.396 . S
C257 C267 1.510 . S
C258 C254 1.401 . S
C258 C257 1.396 . S
C259 C254 1.499 . S
C259 H260 0.959 1_554 S
C259 H261 0.960 1_554 S
C259 H262 0.961 . S
H260 C259 0.959 1_556 S
H261 C259 0.960 1_556 S
H262 C259 0.961 . S
O263 Co238 1.967 . S
O263 C271 1.258 . S
O264 Co239 1.941 . S
O264 C271 1.266 . S
H265 C267 0.959 . S
H266 C267 0.961 . S
C267 C257 1.510 . S
C267 H265 0.959 . S
C267 H266 0.961 . S
C267 H268 0.960 . S
H268 C267 0.960 . S
H269 N249 0.862 . S
O270 Co238 1.920 1_556 S
O270 C243 1.289 . S
C271 O263 1.258 . S
C271 O264 1.266 . S
H272 C278 0.930 . S
H273 C282 0.930 1_565 S
H274 C287 0.929 . S
H275 C285 0.929 . S
H276 C280 0.929 . S
H277 C286 0.929 . S
C278 H272 0.930 . S
C278 C279 1.367 . S
C278 C286 1.378 . S
C279 C278 1.367 . S
C279 C287 1.433 . S
C280 H276 0.929 . S
C280 C282 1.378 . S
C280 C284 1.350 . S
C281 C284 1.463 . S
C281 C286 1.350 . S
C281 N289 1.427 . S
C282 H273 0.930 1_545 S
C282 C280 1.378 . S
C282 C283 1.367 . S
C283 C282 1.367 . S
C283 C285 1.433 . S
C284 C280 1.350 . S
C284 C281 1.463 . S
C284 N288 1.427 . S
C285 H275 0.929 . S
C285 C283 1.433 . S
C285 N288 1.384 . S
C286 H277 0.929 . S
C286 C278 1.378 . S
C286 C281 1.350 . S
C287 H274 0.929 . S
C287 C279 1.433 . S
C287 N289 1.384 . S
N288 C284 1.427 . S
N288 C285 1.384 . S
N289 C281 1.427 . S
N289 C287 1.384 . S
H290 C296 0.930 . S
H291 C300 0.930 . S
H292 C305 0.929 . S
H293 C303 0.929 . S
H294 C298 0.929 . S
H295 C304 0.929 . S
C296 H290 0.930 . S
C296 C297 1.367 . S
C296 C304 1.378 . S
C297 C296 1.367 . S
C297 C305 1.433 . S
C298 H294 0.929 . S
C298 C300 1.378 . S
C298 C302 1.350 . S
C299 C302 1.463 . S
C299 C304 1.350 . S
C299 N307 1.427 . S
C300 H291 0.930 . S
C300 C298 1.378 . S
C300 C301 1.367 . S
C301 C300 1.367 . S
C301 C303 1.433 . S
C302 C298 1.350 . S
C302 C299 1.463 . S
C302 N306 1.427 . S
C303 H293 0.929 . S
C303 C301 1.433 . S
C303 N306 1.384 . S
C304 H295 0.929 . S
C304 C296 1.378 . S
C304 C299 1.350 . S
C305 H292 0.929 . S
C305 C297 1.433 . S
C305 N307 1.384 . S
N306 C302 1.427 . S
N306 C303 1.384 . S
N307 C299 1.427 . S
N307 C305 1.384 . S
H308 C314 0.930 . S
H309 C318 0.930 . S
H310 C323 0.929 . S
H311 C321 0.929 . S
H312 C316 0.929 . S
H313 C322 0.929 . S
C314 H308 0.930 . S
C314 C315 1.367 . S
C314 C322 1.378 . S
C315 C314 1.367 . S
C315 C323 1.433 . S
C316 H312 0.929 . S
C316 C318 1.378 . S
C316 C320 1.350 . S
C317 C320 1.463 . S
C317 C322 1.350 . S
C317 N325 1.427 . S
C318 H309 0.930 . S
C318 C316 1.378 . S
C318 C319 1.367 . S
C319 C318 1.367 . S
C319 C321 1.433 . S
C320 C316 1.350 . S
C320 C317 1.463 . S
C320 N324 1.427 . S
C321 H311 0.929 . S
C321 C319 1.433 . S
C321 N324 1.384 . S
C322 H313 0.929 . S
C322 C314 1.378 . S
C322 C317 1.350 . S
C323 H310 0.929 . S
C323 C315 1.433 . S
C323 N325 1.384 . S
N324 C320 1.427 . S
N324 C321 1.384 . S
N325 C317 1.427 . S
N325 C323 1.384 . S
H326 C332 0.930 . S
H327 C336 0.930 . S
H328 C341 0.929 . S
H329 C339 0.929 . S
H330 C334 0.929 . S
H331 C340 0.929 . S
C332 H326 0.930 . S
C332 C333 1.367 . S
C332 C340 1.378 . S
C333 C332 1.367 . S
C333 C341 1.433 . S
C334 H330 0.929 . S
C334 C336 1.378 . S
C334 C338 1.350 . S
C335 C338 1.463 . S
C335 C340 1.350 . S
C335 N343 1.427 . S
C336 H327 0.930 . S
C336 C334 1.378 . S
C336 C337 1.367 . S
C337 C336 1.367 . S
C337 C339 1.433 . S
C338 C334 1.350 . S
C338 C335 1.463 . S
C338 N342 1.427 . S
C339 H329 0.929 . S
C339 C337 1.433 . S
C339 N342 1.384 . S
C340 H331 0.929 . S
C340 C332 1.378 . S
C340 C335 1.350 . S
C341 H328 0.929 . S
C341 C333 1.433 . S
C341 N343 1.384 . S
N342 C338 1.427 . S
N342 C339 1.384 . S
N343 C335 1.427 . S
N343 C341 1.384 . S
H344 C350 0.930 . S
H345 C354 0.930 . S
H346 C359 0.929 . S
H347 C357 0.929 . S
H348 C352 0.929 . S
H349 C358 0.929 . S
C350 H344 0.930 . S
C350 C351 1.367 . S
C350 C358 1.378 . S
C351 C350 1.367 . S
C351 C359 1.433 . S
C352 H348 0.929 . S
C352 C354 1.378 . S
C352 C356 1.350 . S
C353 C356 1.463 . S
C353 C358 1.350 . S
C353 N361 1.427 . S
C354 H345 0.930 . S
C354 C352 1.378 . S
C354 C355 1.367 . S
C355 C354 1.367 . S
C355 C357 1.433 . S
C356 C352 1.350 . S
C356 C353 1.463 . S
C356 N360 1.427 . S
C357 H347 0.929 . S
C357 C355 1.433 . S
C357 N360 1.384 . S
C358 H349 0.929 . S
C358 C350 1.378 . S
C358 C353 1.350 . S
C359 H346 0.929 . S
C359 C351 1.433 . S
C359 N361 1.384 . S
N360 C356 1.427 . S
N360 C357 1.384 . S
N361 C353 1.427 . S
N361 C359 1.384 . S
H362 C368 0.930 . S
H363 C372 0.930 . S
H364 C377 0.929 . S
H365 C375 0.929 . S
H366 C370 0.929 . S
H367 C376 0.929 . S
C368 H362 0.930 . S
C368 C369 1.367 . S
C368 C376 1.378 . S
C369 C368 1.367 . S
C369 C377 1.433 . S
C370 H366 0.929 . S
C370 C372 1.378 . S
C370 C374 1.350 . S
C371 C374 1.463 . S
C371 C376 1.350 . S
C371 N379 1.427 . S
C372 H363 0.930 . S
C372 C370 1.378 . S
C372 C373 1.367 . S
C373 C372 1.367 . S
C373 C375 1.433 . S
C374 C370 1.350 . S
C374 C371 1.463 . S
C374 N378 1.427 . S
C375 H365 0.929 . S
C375 C373 1.433 . S
C375 N378 1.384 . S
C376 H367 0.929 . S
C376 C368 1.378 . S
C376 C371 1.350 . S
C377 H364 0.929 . S
C377 C369 1.433 . S
C377 N379 1.384 . S
N378 C374 1.427 . S
N378 C375 1.384 . S
N379 C371 1.427 . S
N379 C377 1.384 . S
H380 C386 0.930 . S
H381 C390 0.930 . S
H382 C395 0.929 . S
H383 C393 0.929 . S
H384 C388 0.929 . S
H385 C394 0.929 . S
C386 H380 0.930 . S
C386 C387 1.367 . S
C386 C394 1.378 . S
C387 C386 1.367 . S
C387 C395 1.433 . S
C388 H384 0.929 . S
C388 C390 1.378 . S
C388 C392 1.350 . S
C389 C392 1.463 . S
C389 C394 1.350 . S
C389 N397 1.427 . S
C390 H381 0.930 . S
C390 C388 1.378 . S
C390 C391 1.367 . S
C391 C390 1.367 . S
C391 C393 1.433 . S
C392 C388 1.350 . S
C392 C389 1.463 . S
C392 N396 1.427 . S
C393 H383 0.929 . S
C393 C391 1.433 . S
C393 N396 1.384 . S
C394 H385 0.929 . S
C394 C386 1.378 . S
C394 C389 1.350 . S
C395 H382 0.929 . S
C395 C387 1.433 . S
C395 N397 1.384 . S
N396 C392 1.427 . S
N396 C393 1.384 . S
N397 C389 1.427 . S
N397 C395 1.384 . S
H398 C404 0.930 . S
H399 C408 0.930 . S
H400 C413 0.929 . S
H401 C411 0.929 . S
H402 C406 0.929 . S
H403 C412 0.929 . S
C404 H398 0.930 . S
C404 C405 1.367 . S
C404 C412 1.378 . S
C405 C404 1.367 . S
C405 C413 1.433 . S
C406 H402 0.929 . S
C406 C408 1.378 . S
C406 C410 1.350 . S
C407 C410 1.463 . S
C407 C412 1.350 . S
C407 N415 1.427 . S
C408 H399 0.930 . S
C408 C406 1.378 . S
C408 C409 1.367 . S
C409 C408 1.367 . S
C409 C411 1.433 . S
C410 C406 1.350 . S
C410 C407 1.463 . S
C410 N414 1.427 . S
C411 H401 0.929 . S
C411 C409 1.433 . S
C411 N414 1.384 . S
C412 H403 0.929 . S
C412 C404 1.378 . S
C412 C407 1.350 . S
C413 H400 0.929 . S
C413 C405 1.433 . S
C413 N415 1.384 . S
N414 C410 1.427 . S
N414 C411 1.384 . S
N415 C407 1.427 . S
N415 C413 1.384 . S
H416 C422 0.930 . S
H417 C426 0.930 . S
H418 C431 0.929 . S
H419 C429 0.929 . S
H420 C424 0.929 . S
H421 C430 0.929 . S
C422 H416 0.930 . S
C422 C423 1.367 1_565 S
C422 C430 1.378 . S
C423 C422 1.367 1_545 S
C423 C431 1.433 . S
C424 H420 0.929 . S
C424 C426 1.378 . S
C424 C428 1.350 . S
C425 C428 1.463 . S
C425 C430 1.350 1_545 S
C425 N433 1.427 . S
C426 H417 0.930 . S
C426 C424 1.378 . S
C426 C427 1.367 . S
C427 C426 1.367 . S
C427 C429 1.433 1_545 S
C428 C424 1.350 . S
C428 C425 1.463 . S
C428 N432 1.427 1_545 S
C429 H419 0.929 . S
C429 C427 1.433 1_565 S
C429 N432 1.384 . S
C430 H421 0.929 . S
C430 C422 1.378 . S
C430 C425 1.350 1_565 S
C431 H418 0.929 . S
C431 C423 1.433 . S
C431 N433 1.384 . S
N432 C428 1.427 1_565 S
N432 C429 1.384 . S
N433 C425 1.427 . S
N433 C431 1.384 . S
H434 C440 0.930 . S
H435 C444 0.930 . S
H436 C449 0.929 . S
H437 C447 0.929 . S
H438 C442 0.929 . S
H439 C448 0.929 . S
C440 H434 0.930 . S
C440 C441 1.367 . S
C440 C448 1.378 . S
C441 C440 1.367 . S
C441 C449 1.433 . S
C442 H438 0.929 . S
C442 C444 1.378 . S
C442 C446 1.350 . S
C443 C446 1.463 . S
C443 C448 1.350 . S
C443 N451 1.427 . S
C444 H435 0.930 . S
C444 C442 1.378 . S
C444 C445 1.367 . S
C445 C444 1.367 . S
C445 C447 1.433 . S
C446 C442 1.350 . S
C446 C443 1.463 . S
C446 N450 1.427 . S
C447 H437 0.929 . S
C447 C445 1.433 . S
C447 N450 1.384 . S
C448 H439 0.929 . S
C448 C440 1.378 . S
C448 C443 1.350 . S
C449 H436 0.929 . S
C449 C441 1.433 . S
C449 N451 1.384 . S
N450 C446 1.427 . S
N450 C447 1.384 . S
N451 C443 1.427 . S
N451 C449 1.384 . S
H452 C458 0.930 . S
H453 C462 0.930 . S
H454 C467 0.929 . S
H455 C465 0.929 . S
H456 C460 0.929 . S
H457 C466 0.929 . S
C458 H452 0.930 . S
C458 C459 1.367 1_565 S
C458 C466 1.378 . S
C459 C458 1.367 1_545 S
C459 C467 1.433 . S
C460 H456 0.929 . S
C460 C462 1.378 . S
C460 C464 1.350 . S
C461 C464 1.463 1_455 S
C461 C466 1.350 1_545 S
C461 N469 1.427 . S
C462 H453 0.930 . S
C462 C460 1.378 . S
C462 C463 1.367 . S
C463 C462 1.367 . S
C463 C465 1.433 1_545 S
C464 C460 1.350 . S
C464 C461 1.463 1_655 S
C464 N468 1.427 1_545 S
C465 H455 0.929 . S
C465 C463 1.433 1_565 S
C465 N468 1.384 . S
C466 H457 0.929 . S
C466 C458 1.378 . S
C466 C461 1.350 1_565 S
C467 H454 0.929 . S
C467 C459 1.433 . S
C467 N469 1.384 . S
N468 C464 1.427 1_565 S
N468 C465 1.384 . S
N469 C461 1.427 . S
N469 C467 1.384 . S
H470 C476 0.930 . S
H471 C480 0.930 . S
H472 C485 0.929 1_556 S
H473 C483 0.929 . S
H474 C478 0.929 . S
H475 C484 0.929 . S
C476 H470 0.930 . S
C476 C477 1.367 . S
C476 C484 1.378 . S
C477 C476 1.367 . S
C477 C485 1.433 . S
C478 H474 0.929 . S
C478 C480 1.378 . S
C478 C482 1.350 . S
C479 C482 1.463 1_655 S
C479 C484 1.350 . S
C479 N487 1.427 . S
C480 H471 0.930 . S
C480 C478 1.378 . S
C480 C481 1.367 . S
C481 C480 1.367 . S
C481 C483 1.433 . S
C482 C478 1.350 . S
C482 C479 1.463 1_455 S
C482 N486 1.427 . S
C483 H473 0.929 . S
C483 C481 1.433 . S
C483 N486 1.384 . S
C484 H475 0.929 . S
C484 C476 1.378 . S
C484 C479 1.350 . S
C485 H472 0.929 1_554 S
C485 C477 1.433 . S
C485 N487 1.384 . S
N486 C482 1.427 . S
N486 C483 1.384 . S
N487 C479 1.427 . S
N487 C485 1.384 . S
H488 C494 0.930 . S
H489 C498 0.930 . S
H490 C503 0.929 . S
H491 C501 0.929 . S
H492 C496 0.929 . S
H493 C502 0.929 . S
C494 H488 0.930 . S
C494 C495 1.367 . S
C494 C502 1.378 . S
C495 C494 1.367 . S
C495 C503 1.433 . S
C496 H492 0.929 . S
C496 C498 1.378 . S
C496 C500 1.350 . S
C497 C500 1.463 . S
C497 C502 1.350 . S
C497 N505 1.427 . S
C498 H489 0.930 . S
C498 C496 1.378 . S
C498 C499 1.367 . S
C499 C498 1.367 . S
C499 C501 1.433 . S
C500 C496 1.350 . S
C500 C497 1.463 . S
C500 N504 1.427 . S
C501 H491 0.929 . S
C501 C499 1.433 . S
C501 N504 1.384 . S
C502 H493 0.929 . S
C502 C494 1.378 . S
C502 C497 1.350 . S
C503 H490 0.929 . S
C503 C495 1.433 . S
C503 N505 1.384 . S
N504 C500 1.427 . S
N504 C501 1.384 . S
N505 C497 1.427 . S
N505 C503 1.384 . S
H506 C512 0.930 1_556 S
H507 C516 0.930 . S
H508 C521 0.929 . S
H509 C519 0.929 . S
H510 C514 0.929 . S
H511 C520 0.929 1_556 S
C512 H506 0.930 1_554 S
C512 C513 1.367 . S
C512 C520 1.378 . S
C513 C512 1.367 . S
C513 C521 1.433 . S
C514 H510 0.929 . S
C514 C516 1.378 . S
C514 C518 1.350 . S
C515 C518 1.463 . S
C515 C520 1.350 . S
C515 N523 1.427 . S
C516 H507 0.930 . S
C516 C514 1.378 . S
C516 C517 1.367 . S
C517 C516 1.367 . S
C517 C519 1.433 . S
C518 C514 1.350 . S
C518 C515 1.463 . S
C518 N522 1.427 . S
C519 H509 0.929 . S
C519 C517 1.433 . S
C519 N522 1.384 . S
C520 H511 0.929 1_554 S
C520 C512 1.378 . S
C520 C515 1.350 . S
C521 H508 0.929 . S
C521 C513 1.433 . S
C521 N523 1.384 . S
N522 C518 1.427 . S
N522 C519 1.384 . S
N523 C515 1.427 . S
N523 C521 1.384 . S
H524 C530 0.930 . S
H525 C534 0.930 . S
H526 C539 0.929 . S
H527 C537 0.929 . S
H528 C532 0.929 . S
H529 C538 0.929 . S
C530 H524 0.930 . S
C530 C531 1.367 . S
C530 C538 1.378 . S
C531 C530 1.367 . S
C531 C539 1.433 . S
C532 H528 0.929 . S
C532 C534 1.378 . S
C532 C536 1.350 . S
C533 C536 1.463 . S
C533 C538 1.350 . S
C533 N541 1.427 . S
C534 H525 0.930 . S
C534 C532 1.378 . S
C534 C535 1.367 . S
C535 C534 1.367 . S
C535 C537 1.433 . S
C536 C532 1.350 . S
C536 C533 1.463 . S
C536 N540 1.427 . S
C537 H527 0.929 . S
C537 C535 1.433 . S
C537 N540 1.384 . S
C538 H529 0.929 . S
C538 C530 1.378 . S
C538 C533 1.350 . S
C539 H526 0.929 . S
C539 C531 1.433 . S
C539 N541 1.384 . S
N540 C536 1.427 . S
N540 C537 1.384 . S
N541 C533 1.427 . S
N541 C539 1.384 . S
H542 C548 0.930 . S
H543 C552 0.930 . S
H544 C557 0.929 . S
H545 C555 0.929 . S
H546 C550 0.929 . S
H547 C556 0.929 . S
C548 H542 0.930 . S
C548 C549 1.367 . S
C548 C556 1.378 . S
C549 C548 1.367 . S
C549 C557 1.433 . S
C550 H546 0.929 . S
C550 C552 1.378 . S
C550 C554 1.350 . S
C551 C554 1.463 . S
C551 C556 1.350 . S
C551 N559 1.427 . S
C552 H543 0.930 . S
C552 C550 1.378 . S
C552 C553 1.367 . S
C553 C552 1.367 . S
C553 C555 1.433 . S
C554 C550 1.350 . S
C554 C551 1.463 . S
C554 N558 1.427 . S
C555 H545 0.929 . S
C555 C553 1.433 . S
C555 N558 1.384 . S
C556 H547 0.929 . S
C556 C548 1.378 . S
C556 C551 1.350 . S
C557 H544 0.929 . S
C557 C549 1.433 . S
C557 N559 1.384 . S
N558 C554 1.427 . S
N558 C555 1.384 . S
N559 C551 1.427 . S
N559 C557 1.384 . S
H560 C566 0.930 . S
H561 C570 0.930 . S
H562 C575 0.929 . S
H563 C573 0.929 . S
H564 C568 0.929 . S
H565 C574 0.929 . S
C566 H560 0.930 . S
C566 C567 1.367 . S
C566 C574 1.378 . S
C567 C566 1.367 . S
C567 C575 1.433 . S
C568 H564 0.929 . S
C568 C570 1.378 . S
C568 C572 1.350 . S
C569 C572 1.463 . S
C569 C574 1.350 . S
C569 N577 1.427 . S
C570 H561 0.930 . S
C570 C568 1.378 . S
C570 C571 1.367 . S
C571 C570 1.367 . S
C571 C573 1.433 . S
C572 C568 1.350 . S
C572 C569 1.463 . S
C572 N576 1.427 . S
C573 H563 0.929 . S
C573 C571 1.433 . S
C573 N576 1.384 . S
C574 H565 0.929 . S
C574 C566 1.378 . S
C574 C569 1.350 . S
C575 H562 0.929 . S
C575 C567 1.433 . S
C575 N577 1.384 . S
N576 C572 1.427 . S
N576 C573 1.384 . S
N577 C569 1.427 . S
N577 C575 1.384 . S
H578 C584 0.930 . S
H579 C588 0.930 . S
H580 C593 0.929 . S
H581 C591 0.929 . S
H582 C586 0.929 . S
H583 C592 0.929 . S
C584 H578 0.930 . S
C584 C585 1.367 . S
C584 C592 1.378 . S
C585 C584 1.367 . S
C585 C593 1.433 . S
C586 H582 0.929 . S
C586 C588 1.378 . S
C586 C590 1.350 . S
C587 C590 1.463 . S
C587 C592 1.350 . S
C587 N595 1.427 . S
C588 H579 0.930 . S
C588 C586 1.378 . S
C588 C589 1.367 . S
C589 C588 1.367 . S
C589 C591 1.433 . S
C590 C586 1.350 . S
C590 C587 1.463 . S
C590 N594 1.427 . S
C591 H581 0.929 . S
C591 C589 1.433 . S
C591 N594 1.384 . S
C592 H583 0.929 . S
C592 C584 1.378 . S
C592 C587 1.350 . S
C593 H580 0.929 . S
C593 C585 1.433 . S
C593 N595 1.384 . S
N594 C590 1.427 . S
N594 C591 1.384 . S
N595 C587 1.427 . S
N595 C593 1.384 . S
H596 C602 0.930 . S
H597 C606 0.930 . S
H598 C611 0.929 . S
H599 C609 0.929 . S
H600 C604 0.929 . S
H601 C610 0.929 . S
C602 H596 0.930 . S
C602 C603 1.367 . S
C602 C610 1.378 . S
C603 C602 1.367 . S
C603 C611 1.433 . S
C604 H600 0.929 . S
C604 C606 1.378 . S
C604 C608 1.350 . S
C605 C608 1.463 . S
C605 C610 1.350 . S
C605 N613 1.427 . S
C606 H597 0.930 . S
C606 C604 1.378 . S
C606 C607 1.367 . S
C607 C606 1.367 . S
C607 C609 1.433 . S
C608 C604 1.350 . S
C608 C605 1.463 . S
C608 N612 1.427 . S
C609 H599 0.929 . S
C609 C607 1.433 . S
C609 N612 1.384 . S
C610 H601 0.929 . S
C610 C602 1.378 . S
C610 C605 1.350 . S
C611 H598 0.929 . S
C611 C603 1.433 . S
C611 N613 1.384 . S
N612 C608 1.427 . S
N612 C609 1.384 . S
N613 C605 1.427 . S
N613 C611 1.384 . S
H614 C620 0.930 . S
H615 C624 0.930 . S
H616 C629 0.929 . S
H617 C627 0.929 . S
H618 C622 0.929 . S
H619 C628 0.929 . S
C620 H614 0.930 . S
C620 C621 1.367 . S
C620 C628 1.378 . S
C621 C620 1.367 . S
C621 C629 1.433 . S
C622 H618 0.929 . S
C622 C624 1.378 . S
C622 C626 1.350 . S
C623 C626 1.463 . S
C623 C628 1.350 . S
C623 N631 1.427 . S
C624 H615 0.930 . S
C624 C622 1.378 . S
C624 C625 1.367 . S
C625 C624 1.367 . S
C625 C627 1.433 . S
C626 C622 1.350 . S
C626 C623 1.463 . S
C626 N630 1.427 . S
C627 H617 0.929 . S
C627 C625 1.433 . S
C627 N630 1.384 . S
C628 H619 0.929 . S
C628 C620 1.378 . S
C628 C623 1.350 . S
C629 H616 0.929 . S
C629 C621 1.433 . S
C629 N631 1.384 . S
N630 C626 1.427 . S
N630 C627 1.384 . S
N631 C623 1.427 . S
N631 C629 1.384 . S
C279 C77 1.507 . S
C283 C5 1.553 . S
C297 C43 1.510 . S
C301 C107 1.553 . S
C315 C73 1.550 . S
C319 C9 1.517 . S
C333 C111 1.508 . S
C337 C39 1.553 . S
C351 C141 1.552 . S
C355 C213 1.507 . S
C369 C243 1.551 . S
C373 C179 1.519 . S
C387 C145 1.517 . S
C391 C209 1.550 . S
C405 C175 1.551 . S
C409 C247 1.510 . S
C423 C54 1.425 . S
C427 C20 1.431 . S
C441 C88 1.431 . S
C445 C122 1.425 . S
C459 C190 1.427 . S
C463 C156 1.432 . S
C477 C224 1.426 . S
C481 C258 1.425 . S
C495 C240 0.852 . S
C499 C33 0.847 . S
C513 C237 0.833 . S
C517 C36 0.839 . S
C531 C271 0.820 . S
C535 C2 0.833 . S
C549 C67 0.847 . S
C553 C206 0.853 . S
C567 C172 0.841 . S
C571 C101 0.836 . S
C585 C104 0.850 . S
C589 C169 0.847 . S
C603 C203 0.848 . S
C607 C70 0.852 . S
C621 C135 0.841 . S
C625 C138 0.845 . S
