# Generated by pormake.
# Topology uob, (4)-cn, num edge types: 1
# Building blocks:
#     Node 0, Type 0, BuildingBlock: QUQFOY_clean_sbu_3, # of connection points: 4
#     Node 1, Type 0, BuildingBlock: QUQFOY_clean_sbu_3, # of connection points: 4
#     Node 2, Type 0, BuildingBlock: QUQFOY_clean_sbu_3, # of connection points: 4
#     Node 3, Type 0, BuildingBlock: QUQFOY_clean_sbu_3, # of connection points: 4
#     Node 4, Type 0, BuildingBlock: QUQFOY_clean_sbu_3, # of connection points: 4
#     Node 5, Type 0, BuildingBlock: QUQFOY_clean_sbu_3, # of connection points: 4
#     Node 6, Type 0, BuildingBlock: QUQFOY_clean_sbu_3, # of connection points: 4
#     Node 7, Type 0, BuildingBlock: QUQFOY_clean_sbu_3, # of connection points: 4
#     Node 8, Type 0, BuildingBlock: QUQFOY_clean_sbu_3, # of connection points: 4
#     Node 9, Type 0, BuildingBlock: QUQFOY_clean_sbu_3, # of connection points: 4
#     Node 10, Type 0, BuildingBlock: QUQFOY_clean_sbu_3, # of connection points: 4
#     Node 11, Type 0, BuildingBlock: QUQFOY_clean_sbu_3, # of connection points: 4
#     Node 12, Type 0, BuildingBlock: QUQFOY_clean_sbu_3, # of connection points: 4
#     Node 13, Type 0, BuildingBlock: QUQFOY_clean_sbu_3, # of connection points: 4
#     Node 14, Type 0, BuildingBlock: QUQFOY_clean_sbu_3, # of connection points: 4
#     Node 15, Type 0, BuildingBlock: QUQFOY_clean_sbu_3, # of connection points: 4
#     Edge 16, Type (0, 0), BuildingBlock: EZIPEK_clean_linker_0, # of connection points: 2
#     Edge 17, Type (0, 0), BuildingBlock: EZIPEK_clean_linker_0, # of connection points: 2
#     Edge 18, Type (0, 0), BuildingBlock: EZIPEK_clean_linker_0, # of connection points: 2
#     Edge 19, Type (0, 0), BuildingBlock: EZIPEK_clean_linker_0, # of connection points: 2
#     Edge 20, Type (0, 0), BuildingBlock: EZIPEK_clean_linker_0, # of connection points: 2
#     Edge 21, Type (0, 0), BuildingBlock: EZIPEK_clean_linker_0, # of connection points: 2
#     Edge 22, Type (0, 0), BuildingBlock: EZIPEK_clean_linker_0, # of connection points: 2
#     Edge 23, Type (0, 0), BuildingBlock: EZIPEK_clean_linker_0, # of connection points: 2
#     Edge 24, Type (0, 0), BuildingBlock: EZIPEK_clean_linker_0, # of connection points: 2
#     Edge 25, Type (0, 0), BuildingBlock: EZIPEK_clean_linker_0, # of connection points: 2
#     Edge 26, Type (0, 0), BuildingBlock: EZIPEK_clean_linker_0, # of connection points: 2
#     Edge 27, Type (0, 0), BuildingBlock: EZIPEK_clean_linker_0, # of connection points: 2
#     Edge 28, Type (0, 0), BuildingBlock: EZIPEK_clean_linker_0, # of connection points: 2
#     Edge 29, Type (0, 0), BuildingBlock: EZIPEK_clean_linker_0, # of connection points: 2
#     Edge 30, Type (0, 0), BuildingBlock: EZIPEK_clean_linker_0, # of connection points: 2
#     Edge 31, Type (0, 0), BuildingBlock: EZIPEK_clean_linker_0, # of connection points: 2
#     Edge 32, Type (0, 0), BuildingBlock: EZIPEK_clean_linker_0, # of connection points: 2
#     Edge 33, Type (0, 0), BuildingBlock: EZIPEK_clean_linker_0, # of connection points: 2
#     Edge 34, Type (0, 0), BuildingBlock: EZIPEK_clean_linker_0, # of connection points: 2
#     Edge 35, Type (0, 0), BuildingBlock: EZIPEK_clean_linker_0, # of connection points: 2
#     Edge 36, Type (0, 0), BuildingBlock: EZIPEK_clean_linker_0, # of connection points: 2
#     Edge 37, Type (0, 0), BuildingBlock: EZIPEK_clean_linker_0, # of connection points: 2
#     Edge 38, Type (0, 0), BuildingBlock: EZIPEK_clean_linker_0, # of connection points: 2
#     Edge 39, Type (0, 0), BuildingBlock: EZIPEK_clean_linker_0, # of connection points: 2
#     Edge 40, Type (0, 0), BuildingBlock: EZIPEK_clean_linker_0, # of connection points: 2
#     Edge 41, Type (0, 0), BuildingBlock: EZIPEK_clean_linker_0, # of connection points: 2
#     Edge 42, Type (0, 0), BuildingBlock: EZIPEK_clean_linker_0, # of connection points: 2
#     Edge 43, Type (0, 0), BuildingBlock: EZIPEK_clean_linker_0, # of connection points: 2
#     Edge 44, Type (0, 0), BuildingBlock: EZIPEK_clean_linker_0, # of connection points: 2
#     Edge 45, Type (0, 0), BuildingBlock: EZIPEK_clean_linker_0, # of connection points: 2
#     Edge 46, Type (0, 0), BuildingBlock: EZIPEK_clean_linker_0, # of connection points: 2
#     Edge 47, Type (0, 0), BuildingBlock: EZIPEK_clean_linker_0, # of connection points: 2
# Relax obj value: 0.164
# Max RMSD: 0.201
# Mean RMSD: 0.201
data_MOF--net-uob--node1-QUQFOY_clean_sbu_3--edge1-EZIPEK_clean_linker_0
_symmetry_space_group_name_H-M    P1
_symmetry_Int_Tables_number       1
_symmetry_cell_setting            triclinic
loop_
_symmetry_equiv_pos_as_xyz
'x, y, z'
_cell_length_a     40.776398
_cell_length_b     40.838049
_cell_length_c     20.237801
_cell_angle_alpha  90.202967
_cell_angle_beta   90.074072
_cell_angle_gamma 89.878494
loop_
_atom_site_label
_atom_site_type_symbol
_atom_site_fract_x
_atom_site_fract_y
_atom_site_fract_z
_atom_type_partial_charge
C0 C 0.11123 0.07134 0.14783 0.0
O1 O 0.09058 0.09117 0.17243 0.0
Cd2 Cd 0.06897 0.09176 0.28075 0.0
O3 O 0.12455 0.04876 0.18215 0.0
Cd4 Cd 0.12192 0.03137 0.29967 0.0
C5 C 0.04063 0.01211 0.28505 0.0
O6 O 0.11527 0.08513 0.34911 0.0
O7 O 0.1041 0.04338 0.41005 0.0
O8 O 0.18097 0.03097 0.31469 0.0
C9 C 0.10791 0.07404 0.40538 0.0
O10 O 0.03513 0.0428 0.28504 0.0
C11 C 0.18221 0.00353 0.34373 0.0
O12 O 0.06984 0.00059 0.28589 0.0
O13 O 0.15604 0.98663 0.34474 0.0
C14 C 0.91015 0.61599 0.41177 0.0
O15 O 0.88906 0.59998 0.44414 0.0
Cd16 Cd 0.89073 0.59201 0.559 0.0
O17 O 0.93328 0.63149 0.44062 0.0
Cd18 Cd 0.94872 0.63861 0.55895 0.0
C19 C 0.96859 0.56027 0.56416 0.0
O20 O 0.89578 0.64396 0.61133 0.0
O21 O 0.93238 0.61764 0.66635 0.0
O22 O 0.95806 0.69796 0.55698 0.0
C23 C 0.90521 0.63274 0.66623 0.0
O24 O 0.93806 0.55597 0.57391 0.0
C25 C 0.98147 0.69716 0.59844 0.0
O26 O 0.98024 0.58846 0.55165 0.0
O27 O 0.99274 0.66911 0.61304 0.0
C28 C 0.35605 0.42765 0.57904 0.0
O29 O 0.3733 0.40425 0.60119 0.0
Cd30 Cd 0.38343 0.38872 0.71159 0.0
O31 O 0.34137 0.44765 0.61756 0.0
Cd32 Cd 0.34446 0.45334 0.7392 0.0
C33 C 0.42764 0.45612 0.74674 0.0
O34 O 0.33333 0.39608 0.76972 0.0
O35 O 0.35789 0.42744 0.84016 0.0
O36 O 0.28955 0.47194 0.77038 0.0
C37 C 0.34166 0.40163 0.8288 0.0
O38 O 0.42737 0.42497 0.74698 0.0
C39 C 0.29954 0.49626 0.80402 0.0
O40 O 0.40139 0.47257 0.73835 0.0
O41 O 0.32963 0.50373 0.79872 0.0
C42 C 0.63701 0.85819 0.87755 0.0
O43 O 0.64936 0.88625 0.88757 0.0
Cd44 Cd 0.63395 0.92312 0.9738 0.0
O45 O 0.61306 0.84886 0.91281 0.0
Cd46 Cd 0.58491 0.87283 0.00913 0.0
C47 C 0.55279 0.9418 0.95538 0.0
O48 O 0.63057 0.89509 0.07635 0.0
O49 O 0.58264 0.9157 0.08842 0.0
O50 O 0.58674 0.82379 0.07693 0.0
C51 C 0.61136 0.91252 0.11099 0.0
O52 O 0.58192 0.95219 0.96324 0.0
C53 C 0.5561 0.82155 0.0861 0.0
O54 O 0.54685 0.91116 0.95502 0.0
O55 O 0.53802 0.84202 0.05602 0.0
C56 C 0.12615 0.40451 0.13104 0.0
O57 O 0.11402 0.38325 0.09224 0.0
Cd58 Cd 0.114 0.38456 0.97552 0.0
O59 O 0.14039 0.43028 0.10969 0.0
Cd60 Cd 0.15168 0.45343 -0.00177 0.0
C61 C 0.06918 0.45506 0.96615 0.0
O62 O 0.16912 0.40079 0.95525 0.0
O63 O 0.16249 0.43911 0.88452 0.0
O64 O 0.20472 0.47802 0.02392 0.0
C65 C 0.17343 0.41077 0.89702 0.0
O66 O 0.07061 0.42451 0.95394 0.0
C67 C 0.20062 0.50257 -0.0139 0.0
O68 O 0.09433 0.47088 -0.01447 0.0
O69 O 0.1718 0.50647 0.96363 0.0
C70 C 0.62394 0.60972 0.34973 0.0
O71 O 0.64142 0.59538 0.30654 0.0
Cd72 Cd 0.63406 0.59884 0.18975 0.0
O73 O 0.60085 0.62934 0.33376 0.0
Cd74 Cd 0.57624 0.6504 0.22992 0.0
C75 C 0.5542 0.57216 0.19002 0.0
O76 O 0.62648 0.65544 0.16645 0.0
O77 O 0.58115 0.65802 0.11284 0.0
O78 O 0.57183 0.70729 0.2653 0.0
C79 C 0.61203 0.66116 0.11234 0.0
O80 O 0.58395 0.56716 0.17374 0.0
C81 C 0.54321 0.71177 0.24187 0.0
O82 O 0.54485 0.59945 0.21458 0.0
O83 O 0.52856 0.68623 0.2215 0.0
C84 C 0.35707 0.08297 0.69708 0.0
O85 O 0.38224 0.09891 0.67926 0.0
Cd86 Cd 0.41359 0.09155 0.58122 0.0
O87 O 0.34579 0.06001 0.66089 0.0
Cd88 Cd 0.35783 0.03557 0.55114 0.0
C89 C 0.4345 0.00983 0.59267 0.0
O90 O 0.37513 0.0855 0.4951 0.0
O91 O 0.38438 0.03931 0.44603 0.0
O92 O 0.30042 0.03805 0.51912 0.0
C93 C 0.3854 0.07025 0.44455 0.0
O94 O 0.44277 0.03982 0.58976 0.0
C95 C 0.29856 0.00873 0.49858 0.0
O96 O 0.4046 0.00095 0.58648 0.0
O97 O 0.32349 0.99051 0.50743 0.0
C98 C 0.87497 0.88021 0.85757 0.0
O99 O 0.85483 0.89132 0.81535 0.0
Cd100 Cd 0.86942 0.90266 0.70499 0.0
O101 O 0.90406 0.87153 0.84188 0.0
Cd102 Cd 0.94007 0.8652 0.74339 0.0
C103 C 0.93994 0.94782 0.74153 0.0
O104 O 0.89495 0.85303 0.67273 0.0
O105 O 0.94056 0.86217 0.62305 0.0
O106 O 0.95327 0.81232 0.78532 0.0
C107 C 0.91073 0.85389 0.61916 0.0
O108 O 0.91002 0.94609 0.7235 0.0
C109 C 0.98103 0.8095 0.75737 0.0
O110 O 0.95695 0.92221 0.75321 0.0
O111 O 0.99212 0.83536 0.73082 0.0
C112 C 0.61816 0.58546 0.62603 0.0
O113 O 0.59619 0.60482 0.64708 0.0
Cd114 Cd 0.57939 0.60736 0.75788 0.0
O115 O 0.63232 0.56509 0.66445 0.0
Cd116 Cd 0.62652 0.55049 0.78404 0.0
C117 C 0.54724 0.53045 0.77165 0.0
O118 O 0.63018 0.60774 0.81694 0.0
O119 O 0.61047 0.57477 0.88954 0.0
O120 O 0.68454 0.53423 0.7774 0.0
C121 C 0.62319 0.60226 0.87656 0.0
O122 O 0.54242 0.56121 0.77224 0.0
C123 C 0.68493 0.52017 0.83325 0.0
O124 O 0.57615 0.51857 0.7711 0.0
O125 O 0.65738 0.51548 0.86045 0.0
C126 C 0.3728 0.09656 0.96703 0.0
O127 O 0.35979 0.08109 0.01446 0.0
Cd128 Cd 0.39205 0.06564 0.10669 0.0
O129 O 0.40027 0.11116 0.97396 0.0
Cd130 Cd 0.44155 0.12453 0.06116 0.0
C131 C 0.46601 0.04794 0.02521 0.0
O132 O 0.40953 0.1144 0.1568 0.0
O133 O 0.46203 0.11382 0.17245 0.0
O134 O 0.42563 0.18072 0.06802 0.0
C135 C 0.4334 0.11212 0.19658 0.0
O136 O 0.4395 0.03993 0.05428 0.0
C137 C 0.45416 0.19286 0.0637 0.0
O138 O 0.47429 0.07795 0.01891 0.0
O139 O 0.47739 0.17326 0.04872 0.0
C140 C 0.85424 0.88429 0.13667 0.0
O141 O 0.87522 0.86554 0.16417 0.0
Cd142 Cd 0.89367 0.85465 0.27574 0.0
O143 O 0.83661 0.90458 0.16929 0.0
Cd144 Cd 0.83637 0.92215 0.28537 0.0
C145 C 0.92387 0.93181 0.29169 0.0
O146 O 0.84586 0.86978 0.32812 0.0
O147 O 0.81433 0.89741 0.38954 0.0
O148 O 0.78221 0.94692 0.27902 0.0
C149 C 0.83457 0.87415 0.38515 0.0
O150 O 0.9291 0.90107 0.29149 0.0
C151 C 0.78832 0.96933 0.32138 0.0
O152 O 0.89484 0.9439 0.28802 0.0
O153 O 0.81808 0.97197 0.33952 0.0
C154 C 0.11263 0.3902 0.41079 0.0
O155 O 0.1338 0.40819 0.43868 0.0
Cd156 Cd 0.1345 0.41995 0.55173 0.0
O157 O 0.09067 0.37522 0.44389 0.0
Cd158 Cd 0.07951 0.3718 0.56527 0.0
C159 C 0.05572 0.44897 0.56346 0.0
O160 O 0.13522 0.36835 0.6065 0.0
O161 O 0.10065 0.39389 0.66851 0.0
O162 O 0.06821 0.31268 0.57214 0.0
C163 C 0.12779 0.37899 0.66313 0.0
O164 O 0.08628 0.455 0.56729 0.0
C165 C 0.04797 0.31593 0.61946 0.0
O166 O 0.04525 0.4198 0.55787 0.0
O167 O 0.03873 0.34481 0.63317 0.0
C168 C 0.63463 0.84946 0.62032 0.0
O169 O 0.61249 0.83522 0.58708 0.0
Cd170 Cd 0.58514 0.86055 0.49635 0.0
O171 O 0.64261 0.87876 0.6062 0.0
Cd172 Cd 0.62869 0.9192 0.52044 0.0
C173 C 0.54994 0.92936 0.56338 0.0
O174 O 0.62378 0.88423 0.42182 0.0
O175 O 0.6009 0.93224 0.42152 0.0
O176 O 0.68572 0.92768 0.49219 0.0
C177 C 0.61236 0.90822 0.38931 0.0
O178 O 0.54642 0.90172 0.53505 0.0
C179 C 0.68417 0.95861 0.48898 0.0
O180 O 0.57838 0.94169 0.57188 0.0
O181 O 0.65802 0.97209 0.50993 0.0
C182 C 0.10217 0.09596 0.87269 0.0
O183 O 0.11588 0.08074 0.82534 0.0
Cd184 Cd 0.09559 0.07923 0.71523 0.0
O185 O 0.07853 0.11602 0.86324 0.0
Cd186 Cd 0.046 0.14122 0.77225 0.0
C187 C 0.01328 0.06594 0.75944 0.0
O188 O 0.08653 0.13408 0.68954 0.0
O189 O 0.03876 0.14782 0.65372 0.0
O190 O 0.05917 0.1954 0.80773 0.0
C191 C 0.06797 0.13958 0.64077 0.0
O192 O 0.04092 0.05721 0.73574 0.0
C193 C 0.03183 0.20817 0.79161 0.0
O194 O 0.00766 0.09517 0.77913 0.0
O195 O 0.00906 0.18814 0.77707 0.0
C196 C 0.89844 0.59129 0.13383 0.0
O197 O 0.91509 0.60987 0.0967 0.0
Cd198 Cd 0.91788 0.60696 -0.01903 0.0
O199 O 0.88071 0.56805 0.11084 0.0
Cd200 Cd 0.86702 0.54567 -0.00146 0.0
C201 C 0.94732 0.52761 0.971 0.0
O202 O 0.86117 0.60109 0.95864 0.0
O203 O 0.86052 0.56362 0.88487 0.0
O204 O 0.81163 0.53166 0.03712 0.0
C205 C 0.8558 0.5934 0.89933 0.0
O206 O 0.95153 0.5583 0.96434 0.0
C207 C 0.80536 0.51477 -0.01429 0.0
O208 O 0.91921 0.51585 -0.01491 0.0
O209 O 0.82965 0.50614 0.95071 0.0
C210 C 0.37994 0.42679 0.30191 0.0
O211 O 0.3667 0.44641 0.26148 0.0
Cd212 Cd 0.38079 0.44632 0.14928 0.0
O213 O 0.40151 0.40593 0.28344 0.0
Cd214 Cd 0.42812 0.39111 0.17561 0.0
C215 C 0.46226 0.46526 0.16548 0.0
O216 O 0.3765 0.38949 0.12017 0.0
O217 O 0.41746 0.39974 0.05716 0.0
O218 O 0.42832 0.33271 0.20434 0.0
C219 C 0.38814 0.3898 0.06265 0.0
O220 O 0.43395 0.47407 0.14592 0.0
C221 C 0.45124 0.3252 0.16464 0.0
O222 O 0.46769 0.43602 0.18425 0.0
O223 O 0.46657 0.34871 0.13808 0.0
C224 C 0.27144 0.99475 0.39047 0.0
C225 C 0.26946 0.99786 0.46036 0.0
C226 C 0.20947 0.99741 0.45448 0.0
C227 C 0.21136 0.99507 0.38435 0.0
N228 N 0.24304 0.98326 0.2872 0.0
N229 N 0.2378 0.99317 0.55981 0.0
C230 C 0.2421 0.99089 0.35296 0.0
C231 C 0.23878 0.99608 0.49259 0.0
N232 N 0.3011 0.99759 0.35961 0.0
N233 N 0.18001 0.00334 0.48451 0.0
H234 H 0.25904 0.99215 0.58864 0.0
H235 H 0.2164 0.98859 0.58616 0.0
H236 H 0.15779 0.00416 0.45918 0.0
H237 H 0.17772 0.00958 0.53423 0.0
H238 H 0.30375 -0.00036 0.30865 0.0
H239 H 0.3232 -0.0002 0.3852 0.0
H240 H 0.26444 0.97696 0.26215 0.0
H241 H 0.22177 0.98025 0.25906 0.0
C242 C 0.9711 0.7503 0.74927 0.0
C243 C 0.99292 0.7762 0.73734 0.0
C244 C 0.01493 0.74481 0.64301 0.0
C245 C 0.98647 0.72483 0.64491 0.0
N246 N 0.93374 0.7138 0.69558 0.0
N247 N 0.04211 0.79425 0.68329 0.0
C248 C 0.96357 0.72884 0.69707 0.0
C249 C 0.01724 0.77211 0.6876 0.0
N250 N 0.95684 0.74693 0.80976 0.0
N251 N 0.03916 0.73793 0.59857 0.0
H252 H 0.0462 0.81162 0.72035 0.0
H253 H 0.05865 0.79518 0.64423 0.0
H254 H 0.0373 0.71872 0.56462 0.0
H255 H 0.06159 0.75001 0.59739 0.0
H256 H 0.94172 0.72721 0.82146 0.0
H257 H 0.96348 0.7619 0.84955 0.0
H258 H 0.91537 0.71909 0.72988 0.0
H259 H 0.92636 0.69816 0.65776 0.0
C260 C 0.28562 0.50297 0.92439 0.0
C261 C 0.27858 0.51045 0.85696 0.0
C262 C 0.22527 0.53289 0.89026 0.0
C263 C 0.22944 0.51826 0.95307 0.0
N264 N 0.26772 0.50623 0.03911 0.0
N265 N 0.2435 0.53577 0.77612 0.0
C266 C 0.26124 0.50903 0.9732 0.0
C267 C 0.24914 0.52703 0.84021 0.0
N268 N 0.31422 0.4875 0.94107 0.0
N269 N 0.19908 0.55306 0.87975 0.0
H270 H 0.26128 0.53317 0.73939 0.0
H271 H 0.22104 0.54444 0.75896 0.0
H272 H 0.18326 0.55963 0.91811 0.0
H273 H 0.19535 0.56616 0.83635 0.0
H274 H 0.31898 0.47808 -0.01219 0.0
H275 H 0.33291 0.48247 0.90758 0.0
H276 H 0.29096 0.50187 0.05852 0.0
H277 H 0.24997 0.51195 0.07455 0.0
C278 C 0.55448 0.80032 0.2019 0.0
C279 C 0.54299 0.79828 0.13561 0.0
C280 C 0.51285 0.74862 0.16391 0.0
C281 C 0.53249 0.74537 0.22129 0.0
N282 N 0.56307 0.77232 0.30676 0.0
N283 N 0.50913 0.7714 0.0539 0.0
C284 C 0.55014 0.77295 0.24453 0.0
C285 C 0.52088 0.77313 0.11703 0.0
N286 N 0.56923 0.82845 0.22355 0.0
N287 N 0.48636 0.72874 0.1551 0.0
H288 H 0.51439 0.78892 0.01815 0.0
H289 H 0.49595 0.7514 0.03599 0.0
H290 H 0.47854 0.71278 0.192 0.0
H291 H 0.4699 0.73132 0.11603 0.0
H292 H 0.57686 0.83246 0.27194 0.0
H293 H 0.57169 0.84908 0.19366 0.0
H294 H 0.57914 0.78977 0.32554 0.0
H295 H 0.55716 0.75374 0.34001 0.0
C296 C 0.73257 0.54727 0.88902 0.0
C297 C 0.71565 0.51786 0.8728 0.0
C298 C 0.75626 0.48605 0.93619 0.0
C299 C 0.77231 0.51557 0.95443 0.0
N300 N 0.77285 0.57506 0.95576 0.0
N301 N 0.70858 0.45977 0.88677 0.0
C302 C 0.75953 0.54632 0.93335 0.0
C303 C 0.72659 0.48739 0.89847 0.0
N304 N 0.72338 0.57644 0.86122 0.0
N305 N 0.76979 0.45673 0.95403 0.0
H306 H 0.68796 0.45958 0.8562 0.0
H307 H 0.71295 0.43743 0.90971 0.0
H308 H 0.79029 0.45505 -0.01523 0.0
H309 H 0.76176 0.43418 0.93634 0.0
H310 H 0.73822 0.59716 0.86106 0.0
H311 H 0.70152 0.58018 0.83579 0.0
H312 H 0.76095 0.59758 0.95223 0.0
H313 H 0.795 0.57697 -0.01921 0.0
C314 C 0.48202 0.2718 0.15063 0.0
C315 C 0.45416 0.29152 0.1373 0.0
C316 C 0.4347 0.2504 0.05817 0.0
C317 C 0.459 0.22816 0.08014 0.0
N318 N 0.50396 0.21677 0.15539 0.0
N319 N 0.40072 0.29674 0.08573 0.0
C320 C 0.48258 0.23865 0.1279 0.0
C321 C 0.42953 0.27999 0.0933 0.0
N322 N 0.50764 0.28446 0.18587 0.0
N323 N 0.41693 0.24349 0.00255 0.0
H324 H 0.39577 0.31911 0.10849 0.0
H325 H 0.38071 0.28722 0.06001 0.0
H326 H 0.42114 0.22253 0.97406 0.0
H327 H 0.40095 0.26024 -0.01925 0.0
H328 H 0.53006 0.27244 0.19102 0.0
H329 H 0.50727 0.30805 0.2058 0.0
H330 H 0.51879 0.22242 0.19578 0.0
H331 H 0.50527 0.19222 0.14186 0.0
C332 C 0.76551 0.99128 0.42821 0.0
C333 C 0.76091 0.98483 0.35988 0.0
C334 C 0.70175 0.98011 0.37929 0.0
C335 C 0.70837 0.97632 0.44788 0.0
N336 N 0.7457 0.98127 0.53935 0.0
N337 N 0.72394 0.98364 0.26769 0.0
C338 C 0.73994 0.98336 0.47306 0.0
C339 C 0.72854 0.98322 0.33453 0.0
N340 N 0.79381 0.00553 0.44972 0.0
N341 N 0.67004 0.9798 0.35736 0.0
H342 H 0.74314 0.989 0.23538 0.0
H343 H 0.70172 0.97892 0.24428 0.0
H344 H 0.65012 0.9777 0.38925 0.0
H345 H 0.66308 0.98366 0.30855 0.0
H346 H 0.79779 0.01237 0.49871 0.0
H347 H 0.8112 0.01465 0.41686 0.0
H348 H 0.7691 0.98239 0.55996 0.0
H349 H 0.72694 0.97694 0.57327 0.0
C350 C 0.06803 0.27792 0.70725 0.0
C351 C 0.04161 0.28913 0.66718 0.0
C352 C 0.00361 0.25519 0.73212 0.0
C353 C 0.03078 0.24302 0.76866 0.0
N354 N 0.08284 0.25772 0.81529 0.0
N355 N 0.98334 0.29301 0.6483 0.0
C356 C 0.06105 0.25937 0.76416 0.0
C357 C 0.00894 0.27939 0.68219 0.0
N358 N 0.09993 0.2844 0.69138 0.0
N359 N 0.97296 0.24374 0.74589 0.0
H360 H 0.98672 0.30914 0.60906 0.0
H361 H 0.95878 0.28918 0.65967 0.0
H362 H 0.96827 0.22998 0.7882 0.0
H363 H 0.95231 0.24831 0.71714 0.0
H364 H 0.11959 0.27344 0.71584 0.0
H365 H 0.10709 0.29909 0.65211 0.0
H366 H 0.10457 0.27112 0.81655 0.0
H367 H 0.07686 0.24623 0.8597 0.0
C368 C 0.0036 0.97299 0.34435 0.0
C369 C 0.0119 0.98992 0.28549 0.0
C370 C 0.96244 0.9687 0.2308 0.0
C371 C 0.953 0.95354 0.29088 0.0
N372 N 0.96271 0.94249 0.40606 0.0
N373 N 0.99858 0.00654 0.1744 0.0
C374 C 0.97319 0.9559 0.34796 0.0
C375 C 0.99105 0.98859 0.22928 0.0
N376 N 0.02486 0.97329 0.39673 0.0
N377 N 0.94498 0.96263 0.17431 0.0
H378 H 0.02057 0.0193 0.16922 0.0
H379 H 0.98247 0.0102 0.13519 0.0
H380 H 0.92392 0.94825 0.17342 0.0
H381 H 0.95253 0.96969 0.12738 0.0
H382 H 0.02225 0.95879 0.43852 0.0
H383 H 0.04648 0.98688 0.39729 0.0
H384 H 0.9741 0.94615 0.4515 0.0
H385 H 0.94115 0.929 0.40982 0.0
C386 C 0.01224 0.52665 0.61831 0.0
C387 C 0.99051 0.53155 0.56449 0.0
C388 C 0.01169 0.4824 0.50932 0.0
C389 C 0.03219 0.47649 0.56481 0.0
N390 N 0.04767 0.48888 0.67708 0.0
N391 N 0.96577 0.51234 0.46308 0.0
C392 C 0.03137 0.49756 0.62067 0.0
C393 C 0.98901 0.5088 0.5114 0.0
N394 N 0.01461 0.54982 0.66705 0.0
N395 N 0.01499 0.46378 0.45338 0.0
H396 H 0.94979 0.53226 0.46067 0.0
H397 H 0.96076 0.49448 0.42766 0.0
H398 H 0.03076 0.44376 0.45003 0.0
H399 H 0.00391 0.46949 0.40848 0.0
H400 H 0.03268 0.5496 0.70344 0.0
H401 H -0.00028 0.5706 0.66892 0.0
H402 H 0.04536 0.50138 0.72162 0.0
H403 H 0.06128 0.46732 0.68128 0.0
C404 C 0.46504 0.49215 0.81312 0.0
C405 C 0.4592 0.47348 0.75497 0.0
C406 C 0.51199 0.49091 0.7089 0.0
C407 C 0.51838 0.50862 0.76799 0.0
N408 N 0.50396 0.52298 0.87971 0.0
N409 N 0.47816 0.45138 0.65092 0.0
C410 C 0.49567 0.50838 0.82109 0.0
C411 C 0.48314 0.47153 0.70415 0.0
N412 N 0.44122 0.49431 0.86055 0.0
N413 N 0.53241 0.49431 0.65574 0.0
H414 H 0.45632 0.43879 0.64256 0.0
H415 H 0.49633 0.44556 0.61675 0.0
H416 H 0.5538 0.50824 0.65695 0.0
H417 H 0.5271 0.48541 0.60869 0.0
H418 H 0.44208 0.51034 0.90056 0.0
H419 H 0.41946 0.48097 0.85858 0.0
H420 H 0.4897 0.52204 0.92218 0.0
H421 H 0.52652 0.53437 0.88754 0.0
C422 C 0.52066 0.99161 0.92045 0.0
C423 C 0.52584 0.96571 0.96594 0.0
C424 C 0.49623 0.99648 0.05095 0.0
C425 C 0.48834 0.02105 0.00424 0.0
N426 N 0.48793 0.03912 0.8908 0.0
N427 N 0.51067 0.94005 0.06937 0.0
C428 C 0.49914 0.0179 0.93775 0.0
C429 C 0.51089 0.96692 0.02928 0.0
N430 N 0.53653 0.99119 0.86107 0.0
N431 N 0.49138 0.00205 0.11692 0.0
H432 H 0.52051 0.91748 0.05606 0.0
H433 H 0.49735 0.93908 0.11322 0.0
H434 H 0.48238 0.02413 0.13548 0.0
H435 H 0.49984 0.98633 0.15366 0.0
H436 H 0.5368 0.01102 0.82886 0.0
H437 H 0.55081 0.97135 0.84558 0.0
H438 H 0.49238 0.0361 0.84047 0.0
H439 H 0.47189 0.05833 0.90152 0.0
C440 C 0.01454 0.46668 0.01747 0.0
C441 C 0.03691 0.47169 0.96475 0.0
C442 C 0.99729 0.50793 0.91053 0.0
C443 C 0.97658 0.50599 0.96676 0.0
N444 N 0.96875 0.48844 0.07968 0.0
N445 N 0.05188 0.50053 0.86568 0.0
C446 C 0.98585 0.48642 0.02167 0.0
C447 C 0.02896 0.49333 0.91258 0.0
N448 N 0.02089 0.44338 0.06418 0.0
N449 N 0.98623 0.52273 0.85423 0.0
H450 H 0.07475 0.48907 0.86349 0.0
H451 H 0.04913 0.51977 0.83248 0.0
H452 H 0.96278 0.53282 0.85024 0.0
H453 H -0.00101 0.52213 0.80968 0.0
H454 H 0.00372 0.43604 0.09918 0.0
H455 H 0.0424 0.42955 0.06514 0.0
H456 H 0.97669 0.47774 0.12352 0.0
H457 H 0.94826 0.50338 0.08624 0.0
C458 C 0.50357 0.50301 0.11532 0.0
C459 C 0.488 0.49055 0.17246 0.0
C460 C 0.51765 0.53012 0.24179 0.0
C461 C 0.53067 0.54469 0.18388 0.0
N462 N 0.53354 0.54774 0.06509 0.0
N463 N 0.47789 0.49312 0.28973 0.0
C464 C 0.52312 0.53175 0.12046 0.0
C465 C 0.49453 0.50425 0.23569 0.0
N466 N 0.50036 0.48677 0.05651 0.0
N467 N 0.52837 0.54012 0.30267 0.0
H468 H 0.46223 0.473 0.288 0.0
H469 H 0.47811 0.50483 0.33551 0.0
H470 H 0.54478 0.55936 0.30947 0.0
H471 H 0.52297 0.52789 0.34636 0.0
H472 H 0.51428 0.49211 0.01487 0.0
H473 H 0.48593 0.46585 0.05109 0.0
H474 H 0.52609 0.54154 0.01749 0.0
H475 H 0.5476 0.56904 0.0669 0.0
C476 C 0.48091 0.97848 0.64524 0.0
C477 C 0.46116 0.98527 0.58904 0.0
C478 C 0.5016 0.95888 0.51732 0.0
C479 C 0.52019 0.9497 0.57367 0.0
N480 N 0.52591 0.94686 0.69194 0.0
N481 N 0.44944 0.97658 0.47326 0.0
C482 C 0.50941 0.95842 0.63802 0.0
C483 C 0.47038 0.97352 0.52574 0.0
N484 N 0.47264 0.99168 0.70509 0.0
N485 N 0.51472 0.95546 0.45549 0.0
H486 H 0.4266 0.98793 0.47652 0.0
H487 H 0.45341 0.96527 0.42775 0.0
H488 H 0.53821 0.9463 0.44729 0.0
H489 H 0.50393 0.965 0.41302 0.0
H490 H 0.48773 0.99072 0.74656 0.0
H491 H 0.45111 0.00508 0.71235 0.0
H492 H 0.51746 0.94943 0.74019 0.0
H493 H 0.5471 0.93262 0.68799 0.0
C494 C 0.98775 0.01845 0.81671 0.0
C495 C 0.98765 0.04072 0.76326 0.0
C496 C 0.95526 0.00291 0.69648 0.0
C497 C 0.95499 0.98048 0.75002 0.0
N498 N 0.96301 0.97062 0.86655 0.0
N499 N 0.96328 0.05908 0.66184 0.0
C500 C 0.96881 0.98938 0.81199 0.0
C501 C 0.96855 0.03458 0.70636 0.0
N502 N 0.00669 0.02472 0.87102 0.0
N503 N 0.9449 0.99334 0.63513 0.0
H504 H 0.97207 0.08277 0.66948 0.0
H505 H 0.94735 0.05691 0.62178 0.0
H506 H 0.93636 0.96986 0.62484 0.0
H507 H 0.94779 0.00763 0.59302 0.0
H508 H 0.01112 0.00761 0.90804 0.0
H509 H 0.01923 0.04677 0.87742 0.0
H510 H 0.9699 0.97752 0.91416 0.0
H511 H 0.94853 0.94959 0.86525 0.0
C512 C 0.10558 0.13669 0.54387 0.0
C513 C 0.0764 0.12634 0.57551 0.0
C514 C 0.06424 0.08994 0.48341 0.0
C515 C 0.09598 0.09561 0.45813 0.0
N516 N 0.14834 0.12287 0.46548 0.0
N517 N 0.03162 0.08736 0.58161 0.0
C518 C 0.11704 0.11892 0.48806 0.0
C519 C 0.05644 0.10165 0.54682 0.0
N520 N 0.12202 0.16358 0.56673 0.0
N521 N 0.04145 0.0735 0.44665 0.0
H522 H 0.02617 0.09324 0.63035 0.0
H523 H 0.01891 0.06687 0.56461 0.0
H524 H 0.04618 0.06538 0.39879 0.0
H525 H 0.01697 0.07135 0.46074 0.0
H526 H 0.14174 0.17405 0.54197 0.0
H527 H 0.11405 0.1772 0.60742 0.0
H528 H 0.16592 0.13681 0.49014 0.0
H529 H 0.15751 0.11039 0.42443 0.0
C530 C 0.89904 0.64448 0.78662 0.0
C531 C 0.88476 0.63371 0.7261 0.0
C532 C 0.83908 0.6098 0.78681 0.0
C533 C 0.85555 0.61782 0.84604 0.0
N534 N 0.88832 0.65858 0.90068 0.0
N535 N 0.83536 0.6162 0.66831 0.0
C536 C 0.88099 0.6409 0.84536 0.0
C537 C 0.85251 0.62025 0.7258 0.0
N538 N 0.93039 0.65615 0.78925 0.0
N539 N 0.81194 0.59033 0.78939 0.0
H540 H 0.84417 0.6227 0.62209 0.0
H541 H 0.8109 0.60899 0.66689 0.0
H542 H 0.80124 0.58397 0.83435 0.0
H543 H 0.8009 0.57976 0.74814 0.0
H544 H 0.9425 0.66086 0.83368 0.0
H545 H 0.94526 0.65884 0.74789 0.0
H546 H 0.90582 0.67717 0.9011 0.0
H547 H 0.8738 0.65751 0.94301 0.0
C548 C 0.33576 0.39257 -0.00424 0.0
C549 C 0.36844 0.38054 0.00435 0.0
C550 C 0.36825 0.35914 0.89132 0.0
C551 C 0.33942 0.37712 0.8807 0.0
N552 N 0.28811 0.39485 0.92301 0.0
N553 N 0.41143 0.34361 0.96746 0.0
C554 C 0.32019 0.38719 0.93417 0.0
C555 C 0.38315 0.36049 0.95459 0.0
N556 N 0.32093 0.41181 0.04245 0.0
N557 N 0.38251 0.34386 0.83863 0.0
H558 H 0.42336 0.34451 0.01296 0.0
H559 H 0.42225 0.32717 0.93471 0.0
H560 H 0.37051 0.34269 0.79304 0.0
H561 H 0.40545 0.33269 0.83948 0.0
H562 H 0.29842 0.4233 0.03515 0.0
H563 H 0.33173 0.41875 0.08682 0.0
H564 H 0.27151 0.40079 0.96029 0.0
H565 H 0.27788 0.39217 0.87592 0.0
C566 C 0.64537 0.90694 0.28423 0.0
C567 C 0.61463 0.91043 0.31704 0.0
C568 C 0.59135 0.93391 0.21772 0.0
C569 C 0.61805 0.92167 0.18077 0.0
N570 N 0.67455 0.90425 0.17985 0.0
N571 N 0.55664 0.92263 0.3105 0.0
C572 C 0.64649 0.91053 0.21432 0.0
C573 C 0.58712 0.92278 0.28258 0.0
N574 N 0.67354 0.9023 0.31974 0.0
N575 N 0.57036 0.95635 0.19108 0.0
H576 H 0.55203 0.91194 0.35629 0.0
H577 H 0.53561 0.9295 0.28461 0.0
H578 H 0.57474 0.96697 0.14507 0.0
H579 H 0.55153 0.96726 0.21823 0.0
H580 H 0.69689 0.90308 0.29913 0.0
H581 H 0.67404 0.90059 0.37102 0.0
H582 H 0.69443 0.89144 0.19927 0.0
H583 H 0.67799 0.91256 0.13169 0.0
C584 C 0.18012 0.39274 0.72187 0.0
C585 C 0.14967 0.37585 0.72029 0.0
C586 C 0.15635 0.36211 0.83626 0.0
C587 C 0.17877 0.38797 0.84177 0.0
N588 N 0.21869 0.4226 0.79145 0.0
N589 N 0.10818 0.34446 0.77783 0.0
C590 C 0.1937 0.40068 0.78452 0.0
C591 C 0.13792 0.35974 0.77765 0.0
N592 N 0.19486 0.40259 0.66477 0.0
N593 N 0.15155 0.34134 0.88788 0.0
H594 H 0.09317 0.34312 0.73626 0.0
H595 H 0.0974 0.33542 0.8207 0.0
H596 H 0.16601 0.34259 0.93036 0.0
H597 H 0.13625 0.32094 0.88487 0.0
H598 H 0.21804 0.41316 0.66329 0.0
H599 H 0.18512 0.39787 0.61815 0.0
H600 H 0.22852 0.43608 0.7527 0.0
H601 H 0.22882 0.42778 0.83781 0.0
C602 C 0.6536 0.63654 0.03851 0.0
C603 C 0.6291 0.66034 0.04809 0.0
C604 C 0.61362 0.65656 0.93181 0.0
C605 C 0.63029 0.62596 0.92949 0.0
N606 N 0.66904 0.58795 0.97792 0.0
N607 N 0.5939 0.70119 0.00192 0.0
C608 C 0.65175 0.61658 -0.01846 0.0
C609 C 0.61242 0.67361 -0.0069 0.0
N610 N 0.67817 0.63312 0.08375 0.0
N611 N 0.59784 0.66826 0.87712 0.0
H612 H 0.59428 0.71408 0.04664 0.0
H613 H 0.57851 0.71129 0.96638 0.0
H614 H 0.5975 0.65589 0.8321 0.0
H615 H 0.58644 0.69103 0.8748 0.0
H616 H 0.69796 0.61728 0.07733 0.0
H617 H 0.68073 0.64935 0.12339 0.0
H618 H 0.68223 0.5783 0.01746 0.0
H619 H 0.66868 0.57286 0.93637 0.0
C620 C 0.38706 0.11316 0.35578 0.0
C621 C 0.40225 0.08694 0.38993 0.0
C622 C 0.44242 0.08038 0.30162 0.0
C623 C 0.42721 0.10659 0.26731 0.0
N624 N 0.39353 0.15516 0.27285 0.0
N625 N 0.45126 0.05496 0.40783 0.0
C626 C 0.40236 0.12547 0.29831 0.0
C627 C 0.43231 0.0737 0.36697 0.0
N628 N 0.35712 0.12487 0.375 0.0
N629 N 0.46466 0.06036 0.27108 0.0
H630 H 0.44508 0.05088 0.4571 0.0
H631 H 0.47469 0.04684 0.39519 0.0
H632 H 0.47254 0.06354 0.22272 0.0
H633 H 0.47326 0.03874 0.29223 0.0
H634 H 0.34356 0.14139 0.34684 0.0
H635 H 0.34447 0.11623 0.41603 0.0
H636 H 0.37747 0.17115 0.29671 0.0
H637 H 0.40514 0.16529 0.23176 0.0
C638 C 0.88847 0.89017 0.53252 0.0
C639 C 0.89298 0.85807 0.55695 0.0
C640 C 0.85867 0.83565 0.46844 0.0
C641 C 0.85564 0.86765 0.44245 0.0
N642 N 0.87431 0.92398 0.43976 0.0
N643 N 0.88673 0.79968 0.54565 0.0
C644 C 0.87251 0.89451 0.47153 0.0
C645 C 0.87936 0.83053 0.52412 0.0
N646 N 0.89842 0.91672 0.5687 0.0
N647 N 0.84109 0.81057 0.44105 0.0
H648 H 0.90158 0.79534 0.58676 0.0
H649 H 0.88013 0.77842 0.52048 0.0
H650 H 0.82631 0.81364 0.39939 0.0
H651 H 0.83957 0.78728 0.46153 0.0
H652 H 0.8914 0.94065 0.55801 0.0
H653 H 0.91143 0.91484 0.61277 0.0
H654 H 0.88868 0.94347 0.456 0.0
H655 H 0.86416 0.92825 0.39349 0.0
C656 C 0.12719 0.10927 -0.01755 0.0
C657 C 0.1106 0.08674 0.94089 0.0
C658 C 0.10073 0.05018 0.03436 0.0
C659 C 0.11673 0.07305 0.07615 0.0
N660 N 0.15152 0.11999 0.09008 0.0
N661 N 0.08757 0.03285 0.92302 0.0
C662 C 0.13211 0.10122 0.04998 0.0
C663 C 0.09965 0.05608 0.9654 0.0
N664 N 0.13742 0.13861 0.95756 0.0
N665 N 0.0844 0.02415 0.06112 0.0
H666 H 0.08404 0.03677 0.87268 0.0
H667 H 0.083 0.00875 0.93682 0.0
H668 H 0.08518 0.01841 0.11125 0.0
H669 H 0.06835 0.00929 0.03458 0.0
H670 H 0.14637 0.15771 -0.01346 0.0
H671 H 0.13559 0.14447 0.90755 0.0
H672 H 0.16566 0.13947 0.07345 0.0
H673 H 0.15564 0.1142 0.13961 0.0
C674 C 0.88199 0.62543 0.30447 0.0
C675 C 0.90939 0.61289 0.33937 0.0
C676 C 0.92981 0.5864 0.23879 0.0
C677 C 0.90098 0.59665 0.20543 0.0
N678 N 0.84803 0.62297 0.20599 0.0
N679 N 0.95738 0.57812 0.34342 0.0
C680 C 0.87653 0.6153 0.23818 0.0
C681 C 0.93298 0.5927 0.30746 0.0
N682 N 0.8618 0.64774 0.33448 0.0
N683 N 0.95429 0.57087 0.20459 0.0
H684 H 0.96122 0.58266 0.39354 0.0
H685 H 0.97263 0.55981 0.32484 0.0
H686 H 0.95204 0.56389 0.15514 0.0
H687 H 0.97755 0.56653 0.22395 0.0
H688 H 0.84311 0.66026 0.3102 0.0
H689 H 0.86556 0.65592 0.38282 0.0
H690 H 0.8278 0.63359 0.22899 0.0
H691 H 0.8436 0.61656 0.15684 0.0
C692 C 0.34267 0.40567 0.46762 0.0
C693 C 0.35505 0.43175 0.50684 0.0
C694 C 0.38176 0.45581 0.41038 0.0
C695 C 0.37042 0.42904 0.37181 0.0
N696 N 0.33498 0.38239 0.35809 0.0
N697 N 0.38092 0.48474 0.51525 0.0
C698 C 0.34927 0.4051 0.39877 0.0
C699 C 0.37261 0.458 0.47793 0.0
N700 N 0.32528 0.38109 0.497 0.0
N701 N 0.40256 0.47824 0.383 0.0
H702 H 0.37597 0.48673 0.56556 0.0
H703 H 0.39066 0.50616 0.49588 0.0
H704 H 0.40881 0.47813 0.33311 0.0
H705 H 0.41516 0.49598 0.40983 0.0
H706 H 0.31903 0.35924 0.47366 0.0
H707 H 0.3178 0.38222 0.54626 0.0
H708 H 0.31688 0.36613 0.37311 0.0
H709 H 0.33962 0.38117 0.30745 0.0
C710 C 0.62805 0.81223 0.7184 0.0
C711 C 0.64755 0.83455 0.68224 0.0
C712 C 0.67587 0.8498 0.78358 0.0
C713 C 0.64789 0.83899 0.81857 0.0
N714 N 0.60712 0.79646 0.82617 0.0
N715 N 0.69937 0.86223 0.67611 0.0
C716 C 0.62716 0.81541 0.78838 0.0
C717 C 0.67507 0.84887 0.71358 0.0
N718 N 0.61182 0.78776 0.68607 0.0
N719 N 0.70258 0.86073 0.81778 0.0
H720 H 0.69995 0.85902 0.62489 0.0
H721 H 0.71868 0.87594 0.69521 0.0
H722 H 0.70356 0.85944 0.86929 0.0
H723 H 0.72438 0.8681 0.79578 0.0
H724 H 0.59774 0.77005 0.70944 0.0
H725 H 0.61572 0.78304 0.63599 0.0
H726 H 0.5885 0.7818 0.80714 0.0
H727 H 0.61028 0.79448 0.87714 0.0
C728 C 0.09869 0.41934 0.30706 0.0
C729 C 0.11141 0.39097 0.33834 0.0
C730 C 0.13514 0.37217 0.23417 0.0
C731 C 0.12139 0.39997 0.20242 0.0
N732 N 0.08363 0.44562 0.20442 0.0
N733 N 0.1362 0.33758 0.33156 0.0
C734 C 0.10125 0.42232 0.2376 0.0
C735 C 0.12773 0.36635 0.30166 0.0
N736 N 0.08509 0.44394 0.34406 0.0
N737 N 0.15651 0.35231 0.20067 0.0
H738 H 0.13136 0.33297 0.38129 0.0
H739 H 0.1454 0.31735 0.30617 0.0
H740 H 0.16298 0.35618 0.15146 0.0
H741 H 0.16993 0.33363 0.22285 0.0
H742 H 0.07911 0.46687 0.32508 0.0
H743 H 0.08173 0.44225 0.39499 0.0
H744 H 0.06571 0.46012 0.22667 0.0
H745 H 0.08472 0.4486 0.15332 0.0
C746 C 0.61762 0.56311 0.51108 0.0
C747 C 0.62748 0.58795 0.55586 0.0
C748 C 0.64265 0.62373 0.46378 0.0
C749 C 0.62828 0.60091 0.41972 0.0
N750 N 0.60208 0.54893 0.39884 0.0
N751 N 0.65126 0.64089 0.57746 0.0
C752 C 0.61633 0.57029 0.44247 0.0
C753 C 0.64093 0.61786 0.53283 0.0
N754 N 0.609 0.53292 0.53432 0.0
N755 N 0.65833 0.65063 0.43917 0.0
H756 H 0.65269 0.63627 0.62809 0.0
H757 H 0.65755 0.66476 0.5651 0.0
H758 H 0.65988 0.65542 0.38866 0.0
H759 H 0.67185 0.66696 0.4678 0.0
H760 H 0.6047 0.51269 0.50419 0.0
H761 H 0.6085 0.52719 0.58444 0.0
H762 H 0.58914 0.52816 0.41281 0.0
H763 H 0.60155 0.55279 0.34797 0.0
C764 C 0.34794 0.12023 0.79368 0.0
C765 C 0.34448 0.08867 0.76511 0.0
C766 C 0.35137 0.063 0.87207 0.0
C767 C 0.358 0.09424 0.90051 0.0
N768 N 0.35259 0.15291 0.89401 0.0
N769 N 0.32401 0.03413 0.78343 0.0
C770 C 0.35283 0.12311 0.86308 0.0
C771 C 0.33959 0.06141 0.80647 0.0
N772 N 0.34745 0.14708 0.75369 0.0
N773 N 0.35891 0.0347 0.90472 0.0
H774 H 0.31251 0.0335 0.73741 0.0
H775 H 0.31826 0.01433 0.81359 0.0
H776 H 0.36981 0.03399 0.95121 0.0
H777 H 0.3575 0.01171 0.88233 0.0
H778 H 0.35356 0.17061 0.76928 0.0
H779 H 0.34119 0.1453 0.70374 0.0
H780 H 0.34689 0.1748 0.87043 0.0
H781 H 0.35549 0.15536 0.94503 0.0
C782 C 0.86523 0.9133 0.03061 0.0
C783 C 0.85373 0.88501 0.06396 0.0
C784 C 0.85527 0.85344 0.96094 0.0
C785 C 0.86601 0.88189 0.92766 0.0
N786 N 0.87536 0.94028 0.92634 0.0
N787 N 0.83132 0.83054 0.0603 0.0
C788 C 0.86889 0.91232 0.96106 0.0
C789 C 0.84673 0.85575 0.0288 0.0
N790 N 0.87488 0.94037 0.0656 0.0
N791 N 0.85397 0.82418 0.92798 0.0
H792 H 0.82433 0.8319 0.10984 0.0
H793 H 0.82286 0.8096 0.03636 0.0
H794 H 0.85901 0.82197 0.87761 0.0
H795 H 0.84984 0.80183 0.95104 0.0
H796 H 0.88774 0.95978 0.04488 0.0
H797 H 0.8723 0.94271 0.11655 0.0
H798 H 0.87373 0.96367 0.94671 0.0
H799 H 0.88006 0.94048 0.87569 0.0
loop_
_geom_bond_atom_site_label_1
_geom_bond_atom_site_label_2
_geom_bond_distance
_geom_bond_site_symmetry_2
_ccdc_geom_bond_type
C0 O1 1.306 . S
C0 O3 1.160 . S
O1 C0 1.306 . S
O1 Cd2 2.228 . S
Cd2 O1 2.228 . S
Cd2 O6 2.273 . S
Cd2 O10 2.277 . S
O3 C0 1.160 . S
O3 Cd4 2.203 . S
Cd4 O3 2.203 . S
Cd4 O6 2.411 . S
Cd4 O7 2.333 . S
Cd4 O8 2.352 . S
Cd4 O12 2.277 . S
Cd4 O13 2.356 . S
C5 O10 1.209 . S
C5 O12 1.226 . S
O6 Cd2 2.273 . S
O6 Cd4 2.411 . S
O6 C9 1.320 . S
O7 Cd4 2.333 . S
O7 C9 1.214 . S
O8 Cd4 2.352 . S
O8 C11 1.258 . S
C9 O6 1.320 . S
C9 O7 1.214 . S
O10 Cd2 2.277 . S
O10 C5 1.209 . S
C11 O8 1.258 . S
C11 O13 1.282 . S
O12 Cd4 2.277 . S
O12 C5 1.226 . S
O13 Cd4 2.356 . S
O13 C11 1.282 . S
C14 O15 1.306 . S
C14 O17 1.160 . S
O15 C14 1.306 . S
O15 Cd16 2.228 . S
Cd16 O15 2.228 . S
Cd16 O20 2.273 . S
Cd16 O24 2.277 . S
O17 C14 1.160 . S
O17 Cd18 2.203 . S
Cd18 O17 2.203 . S
Cd18 O20 2.411 . S
Cd18 O21 2.333 . S
Cd18 O22 2.352 . S
Cd18 O26 2.277 . S
Cd18 O27 2.356 . S
C19 O24 1.209 . S
C19 O26 1.226 . S
O20 Cd16 2.273 . S
O20 Cd18 2.411 . S
O20 C23 1.320 . S
O21 Cd18 2.333 . S
O21 C23 1.214 . S
O22 Cd18 2.352 . S
O22 C25 1.258 . S
C23 O20 1.320 . S
C23 O21 1.214 . S
O24 Cd16 2.277 . S
O24 C19 1.209 . S
C25 O22 1.258 . S
C25 O27 1.282 . S
O26 Cd18 2.277 . S
O26 C19 1.226 . S
O27 Cd18 2.356 . S
O27 C25 1.282 . S
C28 O29 1.306 . S
C28 O31 1.160 . S
O29 C28 1.306 . S
O29 Cd30 2.228 . S
Cd30 O29 2.228 . S
Cd30 O34 2.273 . S
Cd30 O38 2.277 . S
O31 C28 1.160 . S
O31 Cd32 2.203 . S
Cd32 O31 2.203 . S
Cd32 O34 2.411 . S
Cd32 O35 2.333 . S
Cd32 O36 2.352 . S
Cd32 O40 2.277 . S
Cd32 O41 2.356 . S
C33 O38 1.209 . S
C33 O40 1.226 . S
O34 Cd30 2.273 . S
O34 Cd32 2.411 . S
O34 C37 1.320 . S
O35 Cd32 2.333 . S
O35 C37 1.214 . S
O36 Cd32 2.352 . S
O36 C39 1.258 . S
C37 O34 1.320 . S
C37 O35 1.214 . S
O38 Cd30 2.277 . S
O38 C33 1.209 . S
C39 O36 1.258 . S
C39 O41 1.282 . S
O40 Cd32 2.277 . S
O40 C33 1.226 . S
O41 Cd32 2.356 . S
O41 C39 1.282 . S
C42 O43 1.306 . S
C42 O45 1.160 . S
O43 C42 1.306 . S
O43 Cd44 2.228 1_556 S
Cd44 O43 2.228 1_554 S
Cd44 O48 2.273 . S
Cd44 O52 2.277 . S
O45 C42 1.160 . S
O45 Cd46 2.203 1_556 S
Cd46 O45 2.203 1_554 S
Cd46 O48 2.411 . S
Cd46 O49 2.333 . S
Cd46 O50 2.352 . S
Cd46 O54 2.277 . S
Cd46 O55 2.356 . S
C47 O52 1.209 . S
C47 O54 1.226 . S
O48 Cd44 2.273 . S
O48 Cd46 2.411 . S
O48 C51 1.320 . S
O49 Cd46 2.333 . S
O49 C51 1.214 . S
O50 Cd46 2.352 . S
O50 C53 1.258 . S
C51 O48 1.320 . S
C51 O49 1.214 . S
O52 Cd44 2.277 . S
O52 C47 1.209 . S
C53 O50 1.258 . S
C53 O55 1.282 . S
O54 Cd46 2.277 . S
O54 C47 1.226 . S
O55 Cd46 2.356 . S
O55 C53 1.282 . S
C56 O57 1.306 . S
C56 O59 1.160 . S
O57 C56 1.306 . S
O57 Cd58 2.228 . S
Cd58 O57 2.228 . S
Cd58 O62 2.273 1_554 S
Cd58 O66 2.277 . S
O59 C56 1.160 . S
O59 Cd60 2.203 . S
Cd60 O59 2.203 . S
Cd60 O62 2.411 1_554 S
Cd60 O63 2.333 1_554 S
Cd60 O64 2.352 . S
Cd60 O68 2.277 . S
Cd60 O69 2.356 1_554 S
C61 O66 1.209 . S
C61 O68 1.226 . S
O62 Cd58 2.273 1_556 S
O62 Cd60 2.411 1_556 S
O62 C65 1.320 . S
O63 Cd60 2.333 1_556 S
O63 C65 1.214 . S
O64 Cd60 2.352 . S
O64 C67 1.255 1_554 S
C65 O62 1.320 . S
C65 O63 1.214 . S
O66 Cd58 2.277 . S
O66 C61 1.209 . S
C67 O64 1.255 1_556 S
C67 O69 1.282 . S
O68 Cd60 2.277 . S
O68 C61 1.226 . S
O69 Cd60 2.356 1_556 S
O69 C67 1.282 . S
C70 O71 1.306 . S
C70 O73 1.160 . S
O71 C70 1.306 . S
O71 Cd72 2.228 . S
Cd72 O71 2.228 . S
Cd72 O76 2.273 . S
Cd72 O80 2.277 . S
O73 C70 1.160 . S
O73 Cd74 2.203 . S
Cd74 O73 2.203 . S
Cd74 O76 2.411 . S
Cd74 O77 2.333 . S
Cd74 O78 2.352 . S
Cd74 O82 2.277 . S
Cd74 O83 2.356 . S
C75 O80 1.209 . S
C75 O82 1.226 . S
O76 Cd72 2.273 . S
O76 Cd74 2.411 . S
O76 C79 1.320 . S
O77 Cd74 2.333 . S
O77 C79 1.214 . S
O78 Cd74 2.352 . S
O78 C81 1.258 . S
C79 O76 1.320 . S
C79 O77 1.214 . S
O80 Cd72 2.277 . S
O80 C75 1.209 . S
C81 O78 1.258 . S
C81 O83 1.282 . S
O82 Cd74 2.277 . S
O82 C75 1.226 . S
O83 Cd74 2.356 . S
O83 C81 1.282 . S
C84 O85 1.306 . S
C84 O87 1.160 . S
O85 C84 1.306 . S
O85 Cd86 2.228 . S
Cd86 O85 2.228 . S
Cd86 O90 2.273 . S
Cd86 O94 2.277 . S
O87 C84 1.160 . S
O87 Cd88 2.203 . S
Cd88 O87 2.203 . S
Cd88 O90 2.411 . S
Cd88 O91 2.333 . S
Cd88 O92 2.352 . S
Cd88 O96 2.277 . S
Cd88 O97 2.356 . S
C89 O94 1.209 . S
C89 O96 1.226 . S
O90 Cd86 2.273 . S
O90 Cd88 2.411 . S
O90 C93 1.320 . S
O91 Cd88 2.333 . S
O91 C93 1.214 . S
O92 Cd88 2.352 . S
O92 C95 1.258 . S
C93 O90 1.320 . S
C93 O91 1.214 . S
O94 Cd86 2.277 . S
O94 C89 1.209 . S
C95 O92 1.258 . S
C95 O97 1.282 . S
O96 Cd88 2.277 . S
O96 C89 1.226 . S
O97 Cd88 2.356 . S
O97 C95 1.282 . S
C98 O99 1.306 . S
C98 O101 1.160 . S
O99 C98 1.306 . S
O99 Cd100 2.228 . S
Cd100 O99 2.228 . S
Cd100 O104 2.273 . S
Cd100 O108 2.277 . S
O101 C98 1.160 . S
O101 Cd102 2.203 . S
Cd102 O101 2.203 . S
Cd102 O104 2.411 . S
Cd102 O105 2.333 . S
Cd102 O106 2.352 . S
Cd102 O110 2.277 . S
Cd102 O111 2.356 . S
C103 O108 1.209 . S
C103 O110 1.226 . S
O104 Cd100 2.273 . S
O104 Cd102 2.411 . S
O104 C107 1.320 . S
O105 Cd102 2.333 . S
O105 C107 1.214 . S
O106 Cd102 2.352 . S
O106 C109 1.258 . S
C107 O104 1.320 . S
C107 O105 1.214 . S
O108 Cd100 2.277 . S
O108 C103 1.209 . S
C109 O106 1.258 . S
C109 O111 1.282 . S
O110 Cd102 2.277 . S
O110 C103 1.226 . S
O111 Cd102 2.356 . S
O111 C109 1.282 . S
C112 O113 1.306 . S
C112 O115 1.160 . S
O113 C112 1.306 . S
O113 Cd114 2.228 . S
Cd114 O113 2.228 . S
Cd114 O118 2.273 . S
Cd114 O122 2.277 . S
O115 C112 1.160 . S
O115 Cd116 2.203 . S
Cd116 O115 2.203 . S
Cd116 O118 2.411 . S
Cd116 O119 2.333 . S
Cd116 O120 2.352 . S
Cd116 O124 2.277 . S
Cd116 O125 2.356 . S
C117 O122 1.209 . S
C117 O124 1.226 . S
O118 Cd114 2.273 . S
O118 Cd116 2.411 . S
O118 C121 1.320 . S
O119 Cd116 2.333 . S
O119 C121 1.214 . S
O120 Cd116 2.352 . S
O120 C123 1.258 . S
C121 O118 1.320 . S
C121 O119 1.214 . S
O122 Cd114 2.277 . S
O122 C117 1.209 . S
C123 O120 1.258 . S
C123 O125 1.282 . S
O124 Cd116 2.277 . S
O124 C117 1.226 . S
O125 Cd116 2.356 . S
O125 C123 1.282 . S
C126 O127 1.306 . S
C126 O129 1.160 . S
O127 C126 1.306 . S
O127 Cd128 2.228 1_556 S
Cd128 O127 2.228 1_554 S
Cd128 O132 2.273 . S
Cd128 O136 2.277 . S
O129 C126 1.160 . S
O129 Cd130 2.203 1_556 S
Cd130 O129 2.203 1_554 S
Cd130 O132 2.411 . S
Cd130 O133 2.333 . S
Cd130 O134 2.352 . S
Cd130 O138 2.277 . S
Cd130 O139 2.356 . S
C131 O136 1.209 . S
C131 O138 1.226 . S
O132 Cd128 2.273 . S
O132 Cd130 2.411 . S
O132 C135 1.320 . S
O133 Cd130 2.333 . S
O133 C135 1.214 . S
O134 Cd130 2.352 . S
O134 C137 1.258 . S
C135 O132 1.320 . S
C135 O133 1.214 . S
O136 Cd128 2.277 . S
O136 C131 1.209 . S
C137 O134 1.258 . S
C137 O139 1.282 . S
O138 Cd130 2.277 . S
O138 C131 1.226 . S
O139 Cd130 2.356 . S
O139 C137 1.282 . S
C140 O141 1.306 . S
C140 O143 1.160 . S
O141 C140 1.306 . S
O141 Cd142 2.228 . S
Cd142 O141 2.228 . S
Cd142 O146 2.273 . S
Cd142 O150 2.277 . S
O143 C140 1.160 . S
O143 Cd144 2.203 . S
Cd144 O143 2.203 . S
Cd144 O146 2.411 . S
Cd144 O147 2.333 . S
Cd144 O148 2.352 . S
Cd144 O152 2.277 . S
Cd144 O153 2.356 . S
C145 O150 1.209 . S
C145 O152 1.226 . S
O146 Cd142 2.273 . S
O146 Cd144 2.411 . S
O146 C149 1.320 . S
O147 Cd144 2.333 . S
O147 C149 1.214 . S
O148 Cd144 2.352 . S
O148 C151 1.258 . S
C149 O146 1.320 . S
C149 O147 1.214 . S
O150 Cd142 2.277 . S
O150 C145 1.209 . S
C151 O148 1.258 . S
C151 O153 1.282 . S
O152 Cd144 2.277 . S
O152 C145 1.226 . S
O153 Cd144 2.356 . S
O153 C151 1.282 . S
C154 O155 1.306 . S
C154 O157 1.160 . S
O155 C154 1.306 . S
O155 Cd156 2.228 . S
Cd156 O155 2.228 . S
Cd156 O160 2.273 . S
Cd156 O164 2.277 . S
O157 C154 1.160 . S
O157 Cd158 2.203 . S
Cd158 O157 2.203 . S
Cd158 O160 2.411 . S
Cd158 O161 2.333 . S
Cd158 O162 2.352 . S
Cd158 O166 2.277 . S
Cd158 O167 2.356 . S
C159 O164 1.209 . S
C159 O166 1.226 . S
O160 Cd156 2.273 . S
O160 Cd158 2.411 . S
O160 C163 1.320 . S
O161 Cd158 2.333 . S
O161 C163 1.214 . S
O162 Cd158 2.352 . S
O162 C165 1.258 . S
C163 O160 1.320 . S
C163 O161 1.214 . S
O164 Cd156 2.277 . S
O164 C159 1.209 . S
C165 O162 1.258 . S
C165 O167 1.282 . S
O166 Cd158 2.277 . S
O166 C159 1.226 . S
O167 Cd158 2.356 . S
O167 C165 1.282 . S
C168 O169 1.306 . S
C168 O171 1.160 . S
O169 C168 1.306 . S
O169 Cd170 2.228 . S
Cd170 O169 2.228 . S
Cd170 O174 2.273 . S
Cd170 O178 2.277 . S
O171 C168 1.160 . S
O171 Cd172 2.203 . S
Cd172 O171 2.203 . S
Cd172 O174 2.411 . S
Cd172 O175 2.333 . S
Cd172 O176 2.352 . S
Cd172 O180 2.277 . S
Cd172 O181 2.356 . S
C173 O178 1.209 . S
C173 O180 1.226 . S
O174 Cd170 2.273 . S
O174 Cd172 2.411 . S
O174 C177 1.320 . S
O175 Cd172 2.333 . S
O175 C177 1.214 . S
O176 Cd172 2.352 . S
O176 C179 1.258 . S
C177 O174 1.320 . S
C177 O175 1.214 . S
O178 Cd170 2.277 . S
O178 C173 1.209 . S
C179 O176 1.258 . S
C179 O181 1.282 . S
O180 Cd172 2.277 . S
O180 C173 1.226 . S
O181 Cd172 2.356 . S
O181 C179 1.282 . S
C182 O183 1.306 . S
C182 O185 1.160 . S
O183 C182 1.306 . S
O183 Cd184 2.228 . S
Cd184 O183 2.228 . S
Cd184 O188 2.273 . S
Cd184 O192 2.277 . S
O185 C182 1.160 . S
O185 Cd186 2.203 . S
Cd186 O185 2.203 . S
Cd186 O188 2.411 . S
Cd186 O189 2.333 . S
Cd186 O190 2.352 . S
Cd186 O194 2.277 . S
Cd186 O195 2.356 . S
C187 O192 1.209 . S
C187 O194 1.226 . S
O188 Cd184 2.273 . S
O188 Cd186 2.411 . S
O188 C191 1.320 . S
O189 Cd186 2.333 . S
O189 C191 1.214 . S
O190 Cd186 2.352 . S
O190 C193 1.258 . S
C191 O188 1.320 . S
C191 O189 1.214 . S
O192 Cd184 2.277 . S
O192 C187 1.209 . S
C193 O190 1.258 . S
C193 O195 1.282 . S
O194 Cd186 2.277 . S
O194 C187 1.226 . S
O195 Cd186 2.356 . S
O195 C193 1.282 . S
C196 O197 1.306 . S
C196 O199 1.160 . S
O197 C196 1.306 . S
O197 Cd198 2.228 . S
Cd198 O197 2.228 . S
Cd198 O202 2.273 1_554 S
Cd198 O206 2.277 . S
O199 C196 1.160 . S
O199 Cd200 2.203 . S
Cd200 O199 2.203 . S
Cd200 O202 2.411 1_554 S
Cd200 O203 2.333 1_554 S
Cd200 O204 2.352 . S
Cd200 O208 2.277 . S
Cd200 O209 2.356 1_554 S
C201 O206 1.209 . S
C201 O208 1.226 . S
O202 Cd198 2.273 1_556 S
O202 Cd200 2.411 1_556 S
O202 C205 1.320 . S
O203 Cd200 2.333 1_556 S
O203 C205 1.214 . S
O204 Cd200 2.352 . S
O204 C207 1.255 1_554 S
C205 O202 1.320 . S
C205 O203 1.214 . S
O206 Cd198 2.277 . S
O206 C201 1.209 . S
C207 O204 1.255 1_556 S
C207 O209 1.282 . S
O208 Cd200 2.277 . S
O208 C201 1.226 . S
O209 Cd200 2.356 1_556 S
O209 C207 1.282 . S
C210 O211 1.306 . S
C210 O213 1.160 . S
O211 C210 1.306 . S
O211 Cd212 2.228 . S
Cd212 O211 2.228 . S
Cd212 O216 2.273 . S
Cd212 O220 2.277 . S
O213 C210 1.160 . S
O213 Cd214 2.203 . S
Cd214 O213 2.203 . S
Cd214 O216 2.411 . S
Cd214 O217 2.333 . S
Cd214 O218 2.352 . S
Cd214 O222 2.277 . S
Cd214 O223 2.356 . S
C215 O220 1.209 . S
C215 O222 1.226 . S
O216 Cd212 2.273 . S
O216 Cd214 2.411 . S
O216 C219 1.320 . S
O217 Cd214 2.333 . S
O217 C219 1.214 . S
O218 Cd214 2.352 . S
O218 C221 1.258 . S
C219 O216 1.320 . S
C219 O217 1.214 . S
O220 Cd212 2.277 . S
O220 C215 1.209 . S
C221 O218 1.258 . S
C221 O223 1.282 . S
O222 Cd214 2.277 . S
O222 C215 1.226 . S
O223 Cd214 2.356 . S
O223 C221 1.282 . S
C224 C225 1.363 . S
C224 C230 1.379 . S
C224 N232 1.356 . S
C225 C224 1.363 . S
C225 C231 1.363 . S
C226 C227 1.363 . S
C226 C231 1.379 . S
C226 N233 1.356 . S
C227 C226 1.363 . S
C227 C230 1.363 . S
N228 C230 1.356 . S
N228 H240 0.995 . S
N228 H241 0.985 . S
N229 C231 1.356 . S
N229 H234 0.984 . S
N229 H235 0.985 . S
C230 C224 1.379 . S
C230 C227 1.363 . S
C230 N228 1.356 . S
C231 C225 1.363 . S
C231 C226 1.379 . S
C231 N229 1.356 . S
N232 C224 1.356 . S
N232 H238 0.997 . S
N232 H239 0.984 . S
N233 C226 1.356 . S
N233 H236 0.984 . S
N233 H237 0.985 . S
H234 N229 0.984 . S
H235 N229 0.985 . S
H236 N233 0.984 . S
H237 N233 0.985 . S
H238 N232 0.997 . S
H239 N232 0.984 . S
H240 N228 0.995 . S
H241 N228 0.985 . S
C242 C243 1.363 . S
C242 C248 1.379 . S
C242 N250 1.356 . S
C243 C242 1.363 . S
C243 C249 1.363 . S
C244 C245 1.363 . S
C244 C249 1.379 . S
C244 N251 1.356 . S
C245 C244 1.363 . S
C245 C248 1.363 . S
N246 C248 1.356 . S
N246 H258 0.984 . S
N246 H259 0.985 . S
N247 C249 1.356 . S
N247 H252 0.984 . S
N247 H253 0.985 . S
C248 C242 1.379 . S
C248 C245 1.363 . S
C248 N246 1.356 . S
C249 C243 1.363 . S
C249 C244 1.379 . S
C249 N247 1.356 . S
N250 C242 1.356 . S
N250 H256 0.984 . S
N250 H257 0.984 . S
N251 C244 1.356 . S
N251 H254 0.984 . S
N251 H255 0.985 . S
H252 N247 0.984 . S
H253 N247 0.985 . S
H254 N251 0.984 . S
H255 N251 0.985 . S
H256 N250 0.984 . S
H257 N250 0.984 . S
H258 N246 0.984 . S
H259 N246 0.985 . S
C260 C261 1.363 . S
C260 C266 1.379 . S
C260 N268 1.356 . S
C261 C260 1.363 . S
C261 C267 1.363 . S
C262 C263 1.363 . S
C262 C267 1.379 . S
C262 N269 1.356 1_556 S
C263 C262 1.363 . S
C263 C266 1.363 . S
N264 C266 1.356 . S
N264 H276 0.984 . S
N264 H277 0.985 . S
N265 C267 1.356 . S
N265 H270 0.984 . S
N265 H271 0.985 . S
C266 C260 1.379 . S
C266 C263 1.363 . S
C266 N264 1.356 . S
C267 C261 1.363 . S
C267 C262 1.379 . S
C267 N265 1.356 . S
N268 C260 1.356 . S
N268 H274 0.984 . S
N268 H275 0.984 . S
N269 C262 1.356 1_554 S
N269 H272 0.984 . S
N269 H273 0.985 . S
H270 N265 0.984 . S
H271 N265 0.985 . S
H272 N269 0.984 . S
H273 N269 0.985 . S
H274 N268 0.984 . S
H275 N268 0.984 . S
H276 N264 0.984 . S
H277 N264 0.985 . S
C278 C279 1.363 . S
C278 C284 1.379 . S
C278 N286 1.356 . S
C279 C278 1.363 . S
C279 C285 1.363 . S
C280 C281 1.363 . S
C280 C285 1.379 . S
C280 N287 1.356 . S
C281 C280 1.363 . S
C281 C284 1.363 . S
N282 C284 1.356 . S
N282 H294 0.984 . S
N282 H295 0.985 . S
N283 C285 1.356 . S
N283 H288 0.984 . S
N283 H289 0.985 1_554 S
C284 C278 1.379 . S
C284 C281 1.363 . S
C284 N282 1.356 . S
C285 C279 1.363 . S
C285 C280 1.379 . S
C285 N283 1.356 . S
N286 C278 1.356 . S
N286 H292 0.984 . S
N286 H293 0.984 . S
N287 C280 1.356 . S
N287 H290 0.984 . S
N287 H291 0.985 . S
H288 N283 0.984 . S
H289 N283 0.985 1_556 S
H290 N287 0.984 . S
H291 N287 0.985 . S
H292 N286 0.984 . S
H293 N286 0.984 . S
H294 N282 0.984 . S
H295 N282 0.985 . S
C296 C297 1.363 . S
C296 C302 1.379 . S
C296 N304 1.356 . S
C297 C296 1.363 . S
C297 C303 1.363 . S
C298 C299 1.363 . S
C298 C303 1.379 . S
C298 N305 1.356 1_556 S
C299 C298 1.363 . S
C299 C302 1.363 . S
N300 C302 1.356 . S
N300 H312 0.984 . S
N300 H313 0.985 . S
N301 C303 1.356 . S
N301 H306 0.984 . S
N301 H307 0.985 . S
C302 C296 1.379 . S
C302 C299 1.363 . S
C302 N300 1.356 . S
C303 C297 1.363 . S
C303 C298 1.379 . S
C303 N301 1.356 . S
N304 C296 1.356 . S
N304 H310 0.984 . S
N304 H311 0.984 . S
N305 C298 1.356 1_554 S
N305 H308 0.984 . S
N305 H309 0.985 . S
H306 N301 0.984 . S
H307 N301 0.985 . S
H308 N305 0.984 . S
H309 N305 0.985 . S
H310 N304 0.984 . S
H311 N304 0.984 . S
H312 N300 0.984 . S
H313 N300 0.985 . S
C314 C315 1.363 . S
C314 C320 1.379 . S
C314 N322 1.356 . S
C315 C314 1.363 . S
C315 C321 1.363 . S
C316 C317 1.363 . S
C316 C321 1.379 . S
C316 N323 1.356 . S
C317 C316 1.363 . S
C317 C320 1.363 . S
N318 C320 1.356 . S
N318 H330 0.984 . S
N318 H331 0.985 . S
N319 C321 1.356 . S
N319 H324 0.984 . S
N319 H325 0.985 . S
C320 C314 1.379 . S
C320 C317 1.363 . S
C320 N318 1.356 . S
C321 C315 1.363 . S
C321 C316 1.379 . S
C321 N319 1.356 . S
N322 C314 1.356 . S
N322 H328 0.984 . S
N322 H329 0.984 . S
N323 C316 1.356 . S
N323 H326 0.984 . S
N323 H327 0.985 . S
H324 N319 0.984 . S
H325 N319 0.985 . S
H326 N323 0.984 . S
H327 N323 0.985 . S
H328 N322 0.984 . S
H329 N322 0.984 . S
H330 N318 0.984 . S
H331 N318 0.985 . S
C332 C333 1.363 . S
C332 C338 1.379 . S
C332 N340 1.356 . S
C333 C332 1.363 . S
C333 C339 1.363 . S
C334 C335 1.363 . S
C334 C339 1.379 . S
C334 N341 1.356 . S
C335 C334 1.363 . S
C335 C338 1.363 . S
N336 C338 1.356 . S
N336 H348 0.984 . S
N336 H349 0.985 . S
N337 C339 1.356 . S
N337 H342 0.984 . S
N337 H343 0.985 . S
C338 C332 1.379 . S
C338 C335 1.363 . S
C338 N336 1.356 . S
C339 C333 1.363 . S
C339 C334 1.379 . S
C339 N337 1.356 . S
N340 C332 1.356 . S
N340 H346 0.984 . S
N340 H347 0.984 . S
N341 C334 1.356 . S
N341 H344 0.984 . S
N341 H345 0.985 . S
H342 N337 0.984 . S
H343 N337 0.985 . S
H344 N341 0.984 . S
H345 N341 0.985 . S
H346 N340 0.984 . S
H347 N340 0.984 . S
H348 N336 0.984 . S
H349 N336 0.985 . S
C350 C351 1.363 . S
C350 C356 1.379 . S
C350 N358 1.356 . S
C351 C350 1.363 . S
C351 C357 1.363 . S
C352 C353 1.363 . S
C352 C357 1.379 . S
C352 N359 1.356 . S
C353 C352 1.363 . S
C353 C356 1.363 . S
N354 C356 1.356 . S
N354 H366 0.984 . S
N354 H367 0.985 . S
N355 C357 1.356 . S
N355 H360 0.984 . S
N355 H361 0.985 . S
C356 C350 1.379 . S
C356 C353 1.363 . S
C356 N354 1.356 . S
C357 C351 1.363 . S
C357 C352 1.379 . S
C357 N355 1.356 . S
N358 C350 1.356 . S
N358 H364 0.984 . S
N358 H365 0.984 . S
N359 C352 1.356 . S
N359 H362 0.984 . S
N359 H363 0.985 . S
H360 N355 0.984 . S
H361 N355 0.985 . S
H362 N359 0.984 . S
H363 N359 0.985 . S
H364 N358 0.984 . S
H365 N358 0.984 . S
H366 N354 0.984 . S
H367 N354 0.985 . S
C368 C369 1.363 1_565 S
C368 C374 1.379 1_455 S
C368 N376 1.356 . S
C369 C368 1.363 1_545 S
C369 C375 1.363 . S
C370 C371 1.363 1_545 S
C370 C375 1.379 1_655 S
C370 N377 1.356 . S
C371 C370 1.363 1_565 S
C371 C374 1.363 . S
N372 C374 1.356 . S
N372 H384 0.984 . S
N372 H385 0.985 . S
N373 C375 1.356 . S
N373 H378 0.984 . S
N373 H379 0.985 . S
C374 C368 1.379 1_655 S
C374 C371 1.363 . S
C374 N372 1.356 . S
C375 C369 1.363 . S
C375 C370 1.379 1_455 S
C375 N373 1.356 . S
N376 C368 1.356 . S
N376 H382 0.984 . S
N376 H383 0.984 . S
N377 C370 1.356 . S
N377 H380 0.984 . S
N377 H381 0.985 . S
H378 N373 0.984 . S
H379 N373 0.985 . S
H380 N377 0.984 . S
H381 N377 0.985 . S
H382 N376 0.984 . S
H383 N376 0.984 . S
H384 N372 0.984 . S
H385 N372 0.985 . S
C386 C387 1.363 1_455 S
C386 C392 1.379 . S
C386 N394 1.356 . S
C387 C386 1.363 1_655 S
C387 C393 1.363 . S
C388 C389 1.363 1_655 S
C388 C393 1.379 . S
C388 N395 1.356 . S
C389 C388 1.363 1_455 S
C389 C392 1.363 . S
N390 C392 1.356 . S
N390 H402 0.984 . S
N390 H403 0.985 . S
N391 C393 1.356 . S
N391 H396 0.984 . S
N391 H397 0.985 . S
C392 C386 1.379 . S
C392 C389 1.363 . S
C392 N390 1.356 . S
C393 C387 1.363 . S
C393 C388 1.379 . S
C393 N391 1.356 . S
N394 C386 1.356 . S
N394 H400 0.984 . S
N394 H401 0.984 . S
N395 C388 1.356 . S
N395 H398 0.984 . S
N395 H399 0.985 . S
H396 N391 0.984 . S
H397 N391 0.985 . S
H398 N395 0.984 . S
H399 N395 0.985 . S
H400 N394 0.984 . S
H401 N394 0.984 . S
H402 N390 0.984 . S
H403 N390 0.985 . S
C404 C405 1.363 . S
C404 C410 1.379 . S
C404 N412 1.356 . S
C405 C404 1.363 . S
C405 C411 1.363 . S
C406 C407 1.363 . S
C406 C411 1.379 . S
C406 N413 1.356 . S
C407 C406 1.363 . S
C407 C410 1.363 . S
N408 C410 1.356 . S
N408 H420 0.984 . S
N408 H421 0.985 . S
N409 C411 1.356 . S
N409 H414 0.984 . S
N409 H415 0.985 . S
C410 C404 1.379 . S
C410 C407 1.363 . S
C410 N408 1.356 . S
C411 C405 1.363 . S
C411 C406 1.379 . S
C411 N409 1.356 . S
N412 C404 1.356 . S
N412 H418 0.984 . S
N412 H419 0.984 . S
N413 C406 1.356 . S
N413 H416 0.984 . S
N413 H417 0.985 . S
H414 N409 0.984 . S
H415 N409 0.985 . S
H416 N413 0.984 . S
H417 N413 0.985 . S
H418 N412 0.984 . S
H419 N412 0.984 . S
H420 N408 0.984 . S
H421 N408 0.985 . S
C422 C423 1.363 . S
C422 C428 1.379 1_565 S
C422 N430 1.356 1_554 S
C423 C422 1.363 . S
C423 C429 1.363 . S
C424 C425 1.363 . S
C424 C429 1.379 1_545 S
C424 N431 1.356 . S
C425 C424 1.363 . S
C425 C428 1.363 . S
N426 C428 1.356 1_556 S
N426 H438 0.984 . S
N426 H439 0.985 . S
N427 C429 1.356 . S
N427 H432 0.984 . S
N427 H433 0.985 . S
C428 C422 1.379 1_545 S
C428 C425 1.363 . S
C428 N426 1.356 1_554 S
C429 C423 1.363 . S
C429 C424 1.379 1_565 S
C429 N427 1.356 . S
N430 C422 1.356 1_556 S
N430 H436 0.984 . S
N430 H437 0.984 . S
N431 C424 1.356 . S
N431 H434 0.984 . S
N431 H435 0.985 . S
H432 N427 0.984 . S
H433 N427 0.985 . S
H434 N431 0.984 . S
H435 N431 0.985 . S
H436 N430 0.984 . S
H437 N430 0.984 . S
H438 N426 0.984 . S
H439 N426 0.985 . S
C440 C441 1.363 . S
C440 C446 1.379 1_455 S
C440 N448 1.356 . S
C441 C440 1.363 . S
C441 C447 1.363 1_554 S
C442 C443 1.363 1_556 S
C442 C447 1.379 1_655 S
C442 N449 1.356 . S
C443 C442 1.363 1_554 S
C443 C446 1.363 . S
N444 C446 1.356 . S
N444 H456 0.984 . S
N444 H457 0.985 . S
N445 C447 1.356 . S
N445 H450 0.984 . S
N445 H451 0.985 . S
C446 C440 1.379 1_655 S
C446 C443 1.363 . S
C446 N444 1.356 . S
C447 C441 1.363 1_556 S
C447 C442 1.379 1_455 S
C447 N445 1.356 . S
N448 C440 1.356 . S
N448 H454 0.984 . S
N448 H455 0.984 . S
N449 C442 1.356 . S
N449 H452 0.984 . S
N449 H453 0.985 . S
H450 N445 0.984 . S
H451 N445 0.985 . S
H452 N449 0.984 . S
H453 N449 0.985 . S
H454 N448 0.984 . S
H455 N448 0.984 . S
H456 N444 0.984 . S
H457 N444 0.985 . S
C458 C459 1.363 . S
C458 C464 1.379 . S
C458 N466 1.356 . S
C459 C458 1.363 . S
C459 C465 1.363 . S
C460 C461 1.363 . S
C460 C465 1.379 . S
C460 N467 1.356 . S
C461 C460 1.363 . S
C461 C464 1.363 . S
N462 C464 1.356 . S
N462 H474 0.984 . S
N462 H475 0.985 . S
N463 C465 1.356 . S
N463 H468 0.984 . S
N463 H469 0.985 . S
C464 C458 1.379 . S
C464 C461 1.363 . S
C464 N462 1.356 . S
C465 C459 1.363 . S
C465 C460 1.379 . S
C465 N463 1.356 . S
N466 C458 1.356 . S
N466 H472 0.984 . S
N466 H473 0.984 . S
N467 C460 1.356 . S
N467 H470 0.984 . S
N467 H471 0.985 . S
H468 N463 0.984 . S
H469 N463 0.985 . S
H470 N467 0.984 . S
H471 N467 0.985 . S
H472 N466 0.984 . S
H473 N466 0.984 . S
H474 N462 0.984 . S
H475 N462 0.985 . S
C476 C477 1.363 . S
C476 C482 1.379 . S
C476 N484 1.356 . S
C477 C476 1.363 . S
C477 C483 1.363 1_545 S
C478 C479 1.363 . S
C478 C483 1.379 . S
C478 N485 1.356 . S
C479 C478 1.363 . S
C479 C482 1.363 1_565 S
N480 C482 1.356 . S
N480 H492 0.984 . S
N480 H493 0.985 . S
N481 C483 1.356 . S
N481 H486 0.984 . S
N481 H487 0.985 . S
C482 C476 1.379 . S
C482 C479 1.363 1_545 S
C482 N480 1.356 . S
C483 C477 1.363 1_565 S
C483 C478 1.379 . S
C483 N481 1.356 . S
N484 C476 1.356 . S
N484 H490 0.984 . S
N484 H491 0.984 . S
N485 C478 1.356 . S
N485 H488 0.984 . S
N485 H489 0.985 . S
H486 N481 0.984 . S
H487 N481 0.985 . S
H488 N485 0.984 . S
H489 N485 0.985 . S
H490 N484 0.984 . S
H491 N484 0.984 . S
H492 N480 0.984 . S
H493 N480 0.985 . S
C494 C495 1.363 . S
C494 C500 1.379 1_545 S
C494 N502 1.356 . S
C495 C494 1.363 . S
C495 C501 1.363 1_455 S
C496 C497 1.363 . S
C496 C501 1.379 1_565 S
C496 N503 1.356 . S
C497 C496 1.363 . S
C497 C500 1.363 1_655 S
N498 C500 1.356 . S
N498 H510 0.984 . S
N498 H511 0.985 . S
N499 C501 1.356 . S
N499 H504 0.984 . S
N499 H505 0.985 . S
C500 C494 1.379 1_565 S
C500 C497 1.363 1_455 S
C500 N498 1.356 . S
C501 C495 1.363 1_655 S
C501 C496 1.379 1_545 S
C501 N499 1.356 . S
N502 C494 1.356 . S
N502 H508 0.984 . S
N502 H509 0.984 . S
N503 C496 1.356 . S
N503 H506 0.984 . S
N503 H507 0.985 . S
H504 N499 0.984 . S
H505 N499 0.985 . S
H506 N503 0.984 . S
H507 N503 0.985 . S
H508 N502 0.984 . S
H509 N502 0.984 . S
H510 N498 0.984 . S
H511 N498 0.985 . S
C512 C513 1.363 . S
C512 C518 1.379 . S
C512 N520 1.356 . S
C513 C512 1.363 . S
C513 C519 1.363 . S
C514 C515 1.363 . S
C514 C519 1.379 . S
C514 N521 1.356 . S
C515 C514 1.363 . S
C515 C518 1.363 . S
N516 C518 1.356 . S
N516 H528 0.984 . S
N516 H529 0.985 . S
N517 C519 1.356 . S
N517 H522 0.984 . S
N517 H523 0.985 . S
C518 C512 1.379 . S
C518 C515 1.363 . S
C518 N516 1.356 . S
C519 C513 1.363 . S
C519 C514 1.379 . S
C519 N517 1.356 . S
N520 C512 1.356 . S
N520 H526 0.984 . S
N520 H527 0.984 . S
N521 C514 1.356 . S
N521 H524 0.984 . S
N521 H525 0.985 . S
H522 N517 0.984 . S
H523 N517 0.985 . S
H524 N521 0.984 . S
H525 N521 0.985 . S
H526 N520 0.984 . S
H527 N520 0.984 . S
H528 N516 0.984 . S
H529 N516 0.985 . S
C530 C531 1.363 . S
C530 C536 1.379 . S
C530 N538 1.356 . S
C531 C530 1.363 . S
C531 C537 1.363 . S
C532 C533 1.363 . S
C532 C537 1.379 . S
C532 N539 1.356 . S
C533 C532 1.363 . S
C533 C536 1.363 . S
N534 C536 1.356 . S
N534 H546 0.984 . S
N534 H547 0.985 . S
N535 C537 1.356 . S
N535 H540 0.984 . S
N535 H541 0.985 . S
C536 C530 1.379 . S
C536 C533 1.363 . S
C536 N534 1.356 . S
C537 C531 1.363 . S
C537 C532 1.379 . S
C537 N535 1.356 . S
N538 C530 1.356 . S
N538 H544 0.984 . S
N538 H545 0.984 . S
N539 C532 1.356 . S
N539 H542 0.984 . S
N539 H543 0.985 . S
H540 N535 0.984 . S
H541 N535 0.985 . S
H542 N539 0.984 . S
H543 N539 0.985 . S
H544 N538 0.984 . S
H545 N538 0.984 . S
H546 N534 0.984 . S
H547 N534 0.985 . S
C548 C549 1.363 . S
C548 C554 1.379 1_554 S
C548 N556 1.356 . S
C549 C548 1.363 . S
C549 C555 1.363 . S
C550 C551 1.363 1_554 S
C550 C555 1.379 . S
C550 N557 1.356 1_554 S
C551 C550 1.363 1_556 S
C551 C554 1.363 . S
N552 C554 1.356 . S
N552 H564 0.984 . S
N552 H565 0.985 . S
N553 C555 1.356 . S
N553 H558 0.984 . S
N553 H559 0.985 . S
C554 C548 1.379 1_556 S
C554 C551 1.363 . S
C554 N552 1.356 . S
C555 C549 1.363 . S
C555 C550 1.379 . S
C555 N553 1.356 . S
N556 C548 1.356 . S
N556 H562 0.984 . S
N556 H563 0.984 . S
N557 C550 1.356 1_556 S
N557 H560 0.984 . S
N557 H561 0.985 1_556 S
H558 N553 0.984 . S
H559 N553 0.985 . S
H560 N557 0.984 . S
H561 N557 0.985 1_554 S
H562 N556 0.984 . S
H563 N556 0.984 . S
H564 N552 0.984 . S
H565 N552 0.985 . S
C566 C567 1.363 . S
C566 C572 1.379 . S
C566 N574 1.356 . S
C567 C566 1.363 . S
C567 C573 1.363 . S
C568 C569 1.363 . S
C568 C573 1.379 . S
C568 N575 1.356 . S
C569 C568 1.363 . S
C569 C572 1.363 . S
N570 C572 1.356 . S
N570 H582 0.984 . S
N570 H583 0.985 . S
N571 C573 1.356 . S
N571 H576 0.984 . S
N571 H577 0.985 . S
C572 C566 1.379 . S
C572 C569 1.363 . S
C572 N570 1.356 . S
C573 C567 1.363 . S
C573 C568 1.379 . S
C573 N571 1.356 . S
N574 C566 1.356 . S
N574 H580 0.984 . S
N574 H581 0.984 . S
N575 C568 1.356 . S
N575 H578 0.984 . S
N575 H579 0.985 . S
H576 N571 0.984 . S
H577 N571 0.985 . S
H578 N575 0.984 . S
H579 N575 0.985 . S
H580 N574 0.984 . S
H581 N574 0.984 . S
H582 N570 0.984 . S
H583 N570 0.985 . S
C584 C585 1.363 . S
C584 C590 1.379 . S
C584 N592 1.356 . S
C585 C584 1.363 . S
C585 C591 1.363 . S
C586 C587 1.363 . S
C586 C591 1.379 . S
C586 N593 1.356 . S
C587 C586 1.363 . S
C587 C590 1.363 . S
N588 C590 1.356 . S
N588 H600 0.984 . S
N588 H601 0.985 . S
N589 C591 1.356 . S
N589 H594 0.984 . S
N589 H595 0.985 . S
C590 C584 1.379 . S
C590 C587 1.363 . S
C590 N588 1.356 . S
C591 C585 1.363 . S
C591 C586 1.379 . S
C591 N589 1.356 . S
N592 C584 1.356 . S
N592 H598 0.984 . S
N592 H599 0.984 . S
N593 C586 1.356 . S
N593 H596 0.984 . S
N593 H597 0.985 . S
H594 N589 0.984 . S
H595 N589 0.985 . S
H596 N593 0.984 . S
H597 N593 0.985 . S
H598 N592 0.984 . S
H599 N592 0.984 . S
H600 N588 0.984 . S
H601 N588 0.985 . S
C602 C603 1.363 . S
C602 C608 1.379 1_554 S
C602 N610 1.356 . S
C603 C602 1.363 . S
C603 C609 1.363 . S
C604 C605 1.363 1_554 S
C604 C609 1.379 . S
C604 N611 1.356 1_554 S
C605 C604 1.363 1_556 S
C605 C608 1.363 . S
N606 C608 1.356 . S
N606 H618 0.984 . S
N606 H619 0.985 . S
N607 C609 1.356 . S
N607 H612 0.984 . S
N607 H613 0.985 . S
C608 C602 1.379 1_556 S
C608 C605 1.363 . S
C608 N606 1.356 . S
C609 C603 1.363 . S
C609 C604 1.379 . S
C609 N607 1.356 . S
N610 C602 1.356 . S
N610 H616 0.984 . S
N610 H617 0.984 . S
N611 C604 1.356 1_556 S
N611 H614 0.984 . S
N611 H615 0.985 1_556 S
H612 N607 0.984 . S
H613 N607 0.985 . S
H614 N611 0.984 . S
H615 N611 0.985 1_554 S
H616 N610 0.984 . S
H617 N610 0.984 . S
H618 N606 0.984 . S
H619 N606 0.985 . S
C620 C621 1.363 . S
C620 C626 1.379 . S
C620 N628 1.356 . S
C621 C620 1.363 . S
C621 C627 1.363 . S
C622 C623 1.363 . S
C622 C627 1.379 . S
C622 N629 1.356 . S
C623 C622 1.363 . S
C623 C626 1.363 . S
N624 C626 1.356 . S
N624 H636 0.984 . S
N624 H637 0.985 . S
N625 C627 1.356 . S
N625 H630 0.984 . S
N625 H631 0.985 . S
C626 C620 1.379 . S
C626 C623 1.363 . S
C626 N624 1.356 . S
C627 C621 1.363 . S
C627 C622 1.379 . S
C627 N625 1.356 . S
N628 C620 1.356 . S
N628 H634 0.984 . S
N628 H635 0.984 . S
N629 C622 1.356 . S
N629 H632 0.984 . S
N629 H633 0.985 . S
H630 N625 0.984 . S
H631 N625 0.985 . S
H632 N629 0.984 . S
H633 N629 0.985 . S
H634 N628 0.984 . S
H635 N628 0.984 . S
H636 N624 0.984 . S
H637 N624 0.985 . S
C638 C639 1.363 . S
C638 C644 1.379 . S
C638 N646 1.356 . S
C639 C638 1.363 . S
C639 C645 1.363 . S
C640 C641 1.363 . S
C640 C645 1.379 . S
C640 N647 1.356 . S
C641 C640 1.363 . S
C641 C644 1.363 . S
N642 C644 1.356 . S
N642 H654 0.984 . S
N642 H655 0.985 . S
N643 C645 1.356 . S
N643 H648 0.984 . S
N643 H649 0.985 . S
C644 C638 1.379 . S
C644 C641 1.363 . S
C644 N642 1.356 . S
C645 C639 1.363 . S
C645 C640 1.379 . S
C645 N643 1.356 . S
N646 C638 1.356 . S
N646 H652 0.984 . S
N646 H653 0.984 . S
N647 C640 1.356 . S
N647 H650 0.984 . S
N647 H651 0.985 . S
H648 N643 0.984 . S
H649 N643 0.985 . S
H650 N647 0.984 . S
H651 N647 0.985 . S
H652 N646 0.984 . S
H653 N646 0.984 . S
H654 N642 0.984 . S
H655 N642 0.985 . S
C656 C657 1.363 1_554 S
C656 C662 1.379 . S
C656 N664 1.356 1_554 S
C657 C656 1.363 1_556 S
C657 C663 1.363 1_556 S
C658 C659 1.363 . S
C658 C663 1.379 . S
C658 N665 1.356 . S
C659 C658 1.363 . S
C659 C662 1.363 . S
N660 C662 1.356 . S
N660 H672 0.984 . S
N660 H673 0.985 . S
N661 C663 1.356 1_556 S
N661 H666 0.984 . S
N661 H667 0.985 . S
C662 C656 1.379 . S
C662 C659 1.363 . S
C662 N660 1.356 . S
C663 C657 1.363 1_554 S
C663 C658 1.379 . S
C663 N661 1.356 1_554 S
N664 C656 1.356 1_556 S
N664 H670 0.984 . S
N664 H671 0.984 . S
N665 C658 1.356 . S
N665 H668 0.984 . S
N665 H669 0.985 . S
H666 N661 0.984 . S
H667 N661 0.985 . S
H668 N665 0.984 . S
H669 N665 0.985 . S
H670 N664 0.984 . S
H671 N664 0.984 . S
H672 N660 0.984 . S
H673 N660 0.985 . S
C674 C675 1.363 . S
C674 C680 1.379 . S
C674 N682 1.356 . S
C675 C674 1.363 . S
C675 C681 1.363 . S
C676 C677 1.363 . S
C676 C681 1.379 . S
C676 N683 1.356 . S
C677 C676 1.363 . S
C677 C680 1.363 . S
N678 C680 1.356 . S
N678 H690 0.984 . S
N678 H691 0.985 . S
N679 C681 1.356 . S
N679 H684 0.984 . S
N679 H685 0.985 . S
C680 C674 1.379 . S
C680 C677 1.363 . S
C680 N678 1.356 . S
C681 C675 1.363 . S
C681 C676 1.379 . S
C681 N679 1.356 . S
N682 C674 1.356 . S
N682 H688 0.984 . S
N682 H689 0.984 . S
N683 C676 1.356 . S
N683 H686 0.984 . S
N683 H687 0.985 . S
H684 N679 0.984 . S
H685 N679 0.985 . S
H686 N683 0.984 . S
H687 N683 0.985 . S
H688 N682 0.984 . S
H689 N682 0.984 . S
H690 N678 0.984 . S
H691 N678 0.985 . S
C692 C693 1.363 . S
C692 C698 1.379 . S
C692 N700 1.356 . S
C693 C692 1.363 . S
C693 C699 1.363 . S
C694 C695 1.363 . S
C694 C699 1.379 . S
C694 N701 1.356 . S
C695 C694 1.363 . S
C695 C698 1.363 . S
N696 C698 1.356 . S
N696 H708 0.984 . S
N696 H709 0.985 . S
N697 C699 1.356 . S
N697 H702 0.984 . S
N697 H703 0.985 . S
C698 C692 1.379 . S
C698 C695 1.363 . S
C698 N696 1.356 . S
C699 C693 1.363 . S
C699 C694 1.379 . S
C699 N697 1.356 . S
N700 C692 1.356 . S
N700 H706 0.984 . S
N700 H707 0.984 . S
N701 C694 1.356 . S
N701 H704 0.984 . S
N701 H705 0.985 . S
H702 N697 0.984 . S
H703 N697 0.985 . S
H704 N701 0.984 . S
H705 N701 0.985 . S
H706 N700 0.984 . S
H707 N700 0.984 . S
H708 N696 0.984 . S
H709 N696 0.985 . S
C710 C711 1.363 . S
C710 C716 1.379 . S
C710 N718 1.356 . S
C711 C710 1.363 . S
C711 C717 1.363 . S
C712 C713 1.363 . S
C712 C717 1.379 . S
C712 N719 1.356 . S
C713 C712 1.363 . S
C713 C716 1.363 . S
N714 C716 1.356 . S
N714 H726 0.984 . S
N714 H727 0.985 . S
N715 C717 1.356 . S
N715 H720 0.984 . S
N715 H721 0.985 . S
C716 C710 1.379 . S
C716 C713 1.363 . S
C716 N714 1.356 . S
C717 C711 1.363 . S
C717 C712 1.379 . S
C717 N715 1.356 . S
N718 C710 1.356 . S
N718 H724 0.984 . S
N718 H725 0.984 . S
N719 C712 1.356 . S
N719 H722 0.984 . S
N719 H723 0.985 . S
H720 N715 0.984 . S
H721 N715 0.985 . S
H722 N719 0.984 . S
H723 N719 0.985 . S
H724 N718 0.984 . S
H725 N718 0.984 . S
H726 N714 0.984 . S
H727 N714 0.985 . S
C728 C729 1.363 . S
C728 C734 1.379 . S
C728 N736 1.356 . S
C729 C728 1.363 . S
C729 C735 1.363 . S
C730 C731 1.363 . S
C730 C735 1.379 . S
C730 N737 1.356 . S
C731 C730 1.363 . S
C731 C734 1.363 . S
N732 C734 1.356 . S
N732 H744 0.984 . S
N732 H745 0.985 . S
N733 C735 1.356 . S
N733 H738 0.984 . S
N733 H739 0.985 . S
C734 C728 1.379 . S
C734 C731 1.363 . S
C734 N732 1.356 . S
C735 C729 1.363 . S
C735 C730 1.379 . S
C735 N733 1.356 . S
N736 C728 1.356 . S
N736 H742 0.984 . S
N736 H743 0.984 . S
N737 C730 1.356 . S
N737 H740 0.984 . S
N737 H741 0.985 . S
H738 N733 0.984 . S
H739 N733 0.985 . S
H740 N737 0.984 . S
H741 N737 0.985 . S
H742 N736 0.984 . S
H743 N736 0.984 . S
H744 N732 0.984 . S
H745 N732 0.985 . S
C746 C747 1.363 . S
C746 C752 1.379 . S
C746 N754 1.356 . S
C747 C746 1.363 . S
C747 C753 1.363 . S
C748 C749 1.363 . S
C748 C753 1.379 . S
C748 N755 1.356 . S
C749 C748 1.363 . S
C749 C752 1.363 . S
N750 C752 1.356 . S
N750 H762 0.984 . S
N750 H763 0.985 . S
N751 C753 1.356 . S
N751 H756 0.984 . S
N751 H757 0.985 . S
C752 C746 1.379 . S
C752 C749 1.363 . S
C752 N750 1.356 . S
C753 C747 1.363 . S
C753 C748 1.379 . S
C753 N751 1.356 . S
N754 C746 1.356 . S
N754 H760 0.984 . S
N754 H761 0.984 . S
N755 C748 1.356 . S
N755 H758 0.984 . S
N755 H759 0.985 . S
H756 N751 0.984 . S
H757 N751 0.985 . S
H758 N755 0.984 . S
H759 N755 0.985 . S
H760 N754 0.984 . S
H761 N754 0.984 . S
H762 N750 0.984 . S
H763 N750 0.985 . S
C764 C765 1.363 . S
C764 C770 1.379 . S
C764 N772 1.356 . S
C765 C764 1.363 . S
C765 C771 1.363 . S
C766 C767 1.363 . S
C766 C771 1.379 . S
C766 N773 1.356 . S
C767 C766 1.363 . S
C767 C770 1.363 . S
N768 C770 1.356 . S
N768 H780 0.984 . S
N768 H781 0.985 . S
N769 C771 1.356 . S
N769 H774 0.984 . S
N769 H775 0.985 . S
C770 C764 1.379 . S
C770 C767 1.363 . S
C770 N768 1.356 . S
C771 C765 1.363 . S
C771 C766 1.379 . S
C771 N769 1.356 . S
N772 C764 1.356 . S
N772 H778 0.984 . S
N772 H779 0.984 . S
N773 C766 1.356 . S
N773 H776 0.984 . S
N773 H777 0.985 . S
H774 N769 0.984 . S
H775 N769 0.985 . S
H776 N773 0.984 . S
H777 N773 0.985 . S
H778 N772 0.984 . S
H779 N772 0.984 . S
H780 N768 0.984 . S
H781 N768 0.985 . S
C782 C783 1.363 . S
C782 C788 1.379 1_554 S
C782 N790 1.356 . S
C783 C782 1.363 . S
C783 C789 1.363 . S
C784 C785 1.363 1_554 S
C784 C789 1.379 . S
C784 N791 1.356 1_554 S
C785 C784 1.363 1_556 S
C785 C788 1.363 . S
N786 C788 1.356 . S
N786 H798 0.984 . S
N786 H799 0.985 . S
N787 C789 1.356 . S
N787 H792 0.984 . S
N787 H793 0.985 . S
C788 C782 1.379 1_556 S
C788 C785 1.363 . S
C788 N786 1.356 . S
C789 C783 1.363 . S
C789 C784 1.379 . S
C789 N787 1.356 . S
N790 C782 1.356 . S
N790 H796 0.984 . S
N790 H797 0.984 . S
N791 C784 1.356 1_556 S
N791 H794 0.984 . S
N791 H795 0.985 . S
H792 N787 0.984 . S
H793 N787 0.985 . S
H794 N791 0.984 . S
H795 N791 0.985 . S
H796 N790 0.984 . S
H797 N790 0.984 . S
H798 N786 0.984 . S
H799 N786 0.985 . S
C225 C95 1.540 . S
C227 C11 1.540 . S
C243 C109 1.540 . S
C245 C25 1.540 . S
C261 C39 1.540 . S
C263 C67 1.540 . S
C279 C53 1.540 . S
C281 C81 1.540 . S
C297 C123 1.540 . S
C299 C207 1.540 . S
C315 C221 1.540 . S
C317 C137 1.540 . S
C333 C151 1.540 . S
C335 C179 1.540 . S
C351 C165 1.540 . S
C353 C193 1.540 . S
C369 C5 1.473 . S
C371 C145 1.473 . S
C387 C19 1.473 . S
C389 C159 1.473 . S
C405 C33 1.473 . S
C407 C117 1.473 . S
C423 C47 1.473 . S
C425 C131 1.473 . S
C441 C61 1.473 . S
C443 C201 1.473 . S
C459 C215 1.473 . S
C461 C75 1.473 . S
C477 C89 1.473 . S
C479 C173 1.473 . S
C495 C187 1.473 . S
C497 C103 1.473 . S
C513 C191 0.805 . S
C515 C9 0.805 . S
C531 C23 0.805 . S
C533 C205 0.805 . S
C549 C219 0.805 . S
C551 C37 0.805 . S
C567 C177 0.805 . S
C569 C51 0.805 . S
C585 C163 0.805 . S
C587 C65 0.805 . S
C603 C79 0.805 . S
C605 C121 0.805 . S
C621 C93 0.805 . S
C623 C135 0.805 . S
C639 C107 0.805 . S
C641 C149 0.805 . S
C657 C182 1.529 . S
C659 C0 1.529 . S
C675 C14 1.529 . S
C677 C196 1.529 . S
C693 C28 1.529 . S
C695 C210 1.529 . S
C711 C168 1.529 . S
C713 C42 1.529 . S
C729 C154 1.529 . S
C731 C56 1.529 . S
C747 C112 1.529 . S
C749 C70 1.529 . S
C765 C84 1.529 . S
C767 C126 1.529 . S
C783 C140 1.529 . S
C785 C98 1.529 . S
