# Generated by pormake.
# Topology sod-f, (3)-cn, num edge types: 1
# Building blocks:
#     Node 0, Type 0, BuildingBlock: OLANEW_clean_sbu_2, # of connection points: 3
#     Node 1, Type 0, BuildingBlock: OLANEW_clean_sbu_2, # of connection points: 3
#     Node 2, Type 0, BuildingBlock: OLANEW_clean_sbu_2, # of connection points: 3
#     Node 3, Type 0, BuildingBlock: OLANEW_clean_sbu_2, # of connection points: 3
#     Node 4, Type 0, BuildingBlock: OLANEW_clean_sbu_2, # of connection points: 3
#     Node 5, Type 0, BuildingBlock: OLANEW_clean_sbu_2, # of connection points: 3
#     Node 6, Type 0, BuildingBlock: OLANEW_clean_sbu_2, # of connection points: 3
#     Node 7, Type 0, BuildingBlock: OLANEW_clean_sbu_2, # of connection points: 3
#     Node 8, Type 0, BuildingBlock: OLANEW_clean_sbu_2, # of connection points: 3
#     Node 9, Type 0, BuildingBlock: OLANEW_clean_sbu_2, # of connection points: 3
#     Node 10, Type 0, BuildingBlock: OLANEW_clean_sbu_2, # of connection points: 3
#     Node 11, Type 0, BuildingBlock: OLANEW_clean_sbu_2, # of connection points: 3
#     Node 12, Type 0, BuildingBlock: OLANEW_clean_sbu_2, # of connection points: 3
#     Node 13, Type 0, BuildingBlock: OLANEW_clean_sbu_2, # of connection points: 3
#     Node 14, Type 0, BuildingBlock: OLANEW_clean_sbu_2, # of connection points: 3
#     Node 15, Type 0, BuildingBlock: OLANEW_clean_sbu_2, # of connection points: 3
#     Node 16, Type 0, BuildingBlock: OLANEW_clean_sbu_2, # of connection points: 3
#     Node 17, Type 0, BuildingBlock: OLANEW_clean_sbu_2, # of connection points: 3
#     Node 18, Type 0, BuildingBlock: OLANEW_clean_sbu_2, # of connection points: 3
#     Node 19, Type 0, BuildingBlock: OLANEW_clean_sbu_2, # of connection points: 3
#     Node 20, Type 0, BuildingBlock: OLANEW_clean_sbu_2, # of connection points: 3
#     Node 21, Type 0, BuildingBlock: OLANEW_clean_sbu_2, # of connection points: 3
#     Node 22, Type 0, BuildingBlock: OLANEW_clean_sbu_2, # of connection points: 3
#     Node 23, Type 0, BuildingBlock: OLANEW_clean_sbu_2, # of connection points: 3
#     Node 24, Type 0, BuildingBlock: OLANEW_clean_sbu_2, # of connection points: 3
#     Node 25, Type 0, BuildingBlock: OLANEW_clean_sbu_2, # of connection points: 3
#     Node 26, Type 0, BuildingBlock: OLANEW_clean_sbu_2, # of connection points: 3
#     Node 27, Type 0, BuildingBlock: OLANEW_clean_sbu_2, # of connection points: 3
#     Node 28, Type 0, BuildingBlock: OLANEW_clean_sbu_2, # of connection points: 3
#     Node 29, Type 0, BuildingBlock: OLANEW_clean_sbu_2, # of connection points: 3
#     Node 30, Type 0, BuildingBlock: OLANEW_clean_sbu_2, # of connection points: 3
#     Node 31, Type 0, BuildingBlock: OLANEW_clean_sbu_2, # of connection points: 3
#     Node 32, Type 0, BuildingBlock: OLANEW_clean_sbu_2, # of connection points: 3
#     Node 33, Type 0, BuildingBlock: OLANEW_clean_sbu_2, # of connection points: 3
#     Node 34, Type 0, BuildingBlock: OLANEW_clean_sbu_2, # of connection points: 3
#     Node 35, Type 0, BuildingBlock: OLANEW_clean_sbu_2, # of connection points: 3
#     Node 36, Type 0, BuildingBlock: OLANEW_clean_sbu_2, # of connection points: 3
#     Node 37, Type 0, BuildingBlock: OLANEW_clean_sbu_2, # of connection points: 3
#     Node 38, Type 0, BuildingBlock: OLANEW_clean_sbu_2, # of connection points: 3
#     Node 39, Type 0, BuildingBlock: OLANEW_clean_sbu_2, # of connection points: 3
#     Node 40, Type 0, BuildingBlock: OLANEW_clean_sbu_2, # of connection points: 3
#     Node 41, Type 0, BuildingBlock: OLANEW_clean_sbu_2, # of connection points: 3
#     Node 42, Type 0, BuildingBlock: OLANEW_clean_sbu_2, # of connection points: 3
#     Node 43, Type 0, BuildingBlock: OLANEW_clean_sbu_2, # of connection points: 3
#     Node 44, Type 0, BuildingBlock: OLANEW_clean_sbu_2, # of connection points: 3
#     Node 45, Type 0, BuildingBlock: OLANEW_clean_sbu_2, # of connection points: 3
#     Node 46, Type 0, BuildingBlock: OLANEW_clean_sbu_2, # of connection points: 3
#     Node 47, Type 0, BuildingBlock: OLANEW_clean_sbu_2, # of connection points: 3
#     Edge 48, Type (0, 0), BuildingBlock: AJUNOK_clean_linker_0, # of connection points: 2
#     Edge 49, Type (0, 0), BuildingBlock: AJUNOK_clean_linker_0, # of connection points: 2
#     Edge 50, Type (0, 0), BuildingBlock: AJUNOK_clean_linker_0, # of connection points: 2
#     Edge 51, Type (0, 0), BuildingBlock: AJUNOK_clean_linker_0, # of connection points: 2
#     Edge 52, Type (0, 0), BuildingBlock: AJUNOK_clean_linker_0, # of connection points: 2
#     Edge 53, Type (0, 0), BuildingBlock: AJUNOK_clean_linker_0, # of connection points: 2
#     Edge 54, Type (0, 0), BuildingBlock: AJUNOK_clean_linker_0, # of connection points: 2
#     Edge 55, Type (0, 0), BuildingBlock: AJUNOK_clean_linker_0, # of connection points: 2
#     Edge 56, Type (0, 0), BuildingBlock: AJUNOK_clean_linker_0, # of connection points: 2
#     Edge 57, Type (0, 0), BuildingBlock: AJUNOK_clean_linker_0, # of connection points: 2
#     Edge 58, Type (0, 0), BuildingBlock: AJUNOK_clean_linker_0, # of connection points: 2
#     Edge 59, Type (0, 0), BuildingBlock: AJUNOK_clean_linker_0, # of connection points: 2
#     Edge 60, Type (0, 0), BuildingBlock: AJUNOK_clean_linker_0, # of connection points: 2
#     Edge 61, Type (0, 0), BuildingBlock: AJUNOK_clean_linker_0, # of connection points: 2
#     Edge 62, Type (0, 0), BuildingBlock: AJUNOK_clean_linker_0, # of connection points: 2
#     Edge 63, Type (0, 0), BuildingBlock: AJUNOK_clean_linker_0, # of connection points: 2
#     Edge 64, Type (0, 0), BuildingBlock: AJUNOK_clean_linker_0, # of connection points: 2
#     Edge 65, Type (0, 0), BuildingBlock: AJUNOK_clean_linker_0, # of connection points: 2
#     Edge 66, Type (0, 0), BuildingBlock: AJUNOK_clean_linker_0, # of connection points: 2
#     Edge 67, Type (0, 0), BuildingBlock: AJUNOK_clean_linker_0, # of connection points: 2
#     Edge 68, Type (0, 0), BuildingBlock: AJUNOK_clean_linker_0, # of connection points: 2
#     Edge 69, Type (0, 0), BuildingBlock: AJUNOK_clean_linker_0, # of connection points: 2
#     Edge 70, Type (0, 0), BuildingBlock: AJUNOK_clean_linker_0, # of connection points: 2
#     Edge 71, Type (0, 0), BuildingBlock: AJUNOK_clean_linker_0, # of connection points: 2
#     Edge 72, Type (0, 0), BuildingBlock: AJUNOK_clean_linker_0, # of connection points: 2
#     Edge 73, Type (0, 0), BuildingBlock: AJUNOK_clean_linker_0, # of connection points: 2
#     Edge 74, Type (0, 0), BuildingBlock: AJUNOK_clean_linker_0, # of connection points: 2
#     Edge 75, Type (0, 0), BuildingBlock: AJUNOK_clean_linker_0, # of connection points: 2
#     Edge 76, Type (0, 0), BuildingBlock: AJUNOK_clean_linker_0, # of connection points: 2
#     Edge 77, Type (0, 0), BuildingBlock: AJUNOK_clean_linker_0, # of connection points: 2
#     Edge 78, Type (0, 0), BuildingBlock: AJUNOK_clean_linker_0, # of connection points: 2
#     Edge 79, Type (0, 0), BuildingBlock: AJUNOK_clean_linker_0, # of connection points: 2
#     Edge 80, Type (0, 0), BuildingBlock: AJUNOK_clean_linker_0, # of connection points: 2
#     Edge 81, Type (0, 0), BuildingBlock: AJUNOK_clean_linker_0, # of connection points: 2
#     Edge 82, Type (0, 0), BuildingBlock: AJUNOK_clean_linker_0, # of connection points: 2
#     Edge 83, Type (0, 0), BuildingBlock: AJUNOK_clean_linker_0, # of connection points: 2
#     Edge 84, Type (0, 0), BuildingBlock: AJUNOK_clean_linker_0, # of connection points: 2
#     Edge 85, Type (0, 0), BuildingBlock: AJUNOK_clean_linker_0, # of connection points: 2
#     Edge 86, Type (0, 0), BuildingBlock: AJUNOK_clean_linker_0, # of connection points: 2
#     Edge 87, Type (0, 0), BuildingBlock: AJUNOK_clean_linker_0, # of connection points: 2
#     Edge 88, Type (0, 0), BuildingBlock: AJUNOK_clean_linker_0, # of connection points: 2
#     Edge 89, Type (0, 0), BuildingBlock: AJUNOK_clean_linker_0, # of connection points: 2
#     Edge 90, Type (0, 0), BuildingBlock: AJUNOK_clean_linker_0, # of connection points: 2
#     Edge 91, Type (0, 0), BuildingBlock: AJUNOK_clean_linker_0, # of connection points: 2
#     Edge 92, Type (0, 0), BuildingBlock: AJUNOK_clean_linker_0, # of connection points: 2
#     Edge 93, Type (0, 0), BuildingBlock: AJUNOK_clean_linker_0, # of connection points: 2
#     Edge 94, Type (0, 0), BuildingBlock: AJUNOK_clean_linker_0, # of connection points: 2
#     Edge 95, Type (0, 0), BuildingBlock: AJUNOK_clean_linker_0, # of connection points: 2
#     Edge 96, Type (0, 0), BuildingBlock: AJUNOK_clean_linker_0, # of connection points: 2
#     Edge 97, Type (0, 0), BuildingBlock: AJUNOK_clean_linker_0, # of connection points: 2
#     Edge 98, Type (0, 0), BuildingBlock: AJUNOK_clean_linker_0, # of connection points: 2
#     Edge 99, Type (0, 0), BuildingBlock: AJUNOK_clean_linker_0, # of connection points: 2
#     Edge 100, Type (0, 0), BuildingBlock: AJUNOK_clean_linker_0, # of connection points: 2
#     Edge 101, Type (0, 0), BuildingBlock: AJUNOK_clean_linker_0, # of connection points: 2
#     Edge 102, Type (0, 0), BuildingBlock: AJUNOK_clean_linker_0, # of connection points: 2
#     Edge 103, Type (0, 0), BuildingBlock: AJUNOK_clean_linker_0, # of connection points: 2
#     Edge 104, Type (0, 0), BuildingBlock: AJUNOK_clean_linker_0, # of connection points: 2
#     Edge 105, Type (0, 0), BuildingBlock: AJUNOK_clean_linker_0, # of connection points: 2
#     Edge 106, Type (0, 0), BuildingBlock: AJUNOK_clean_linker_0, # of connection points: 2
#     Edge 107, Type (0, 0), BuildingBlock: AJUNOK_clean_linker_0, # of connection points: 2
#     Edge 108, Type (0, 0), BuildingBlock: AJUNOK_clean_linker_0, # of connection points: 2
#     Edge 109, Type (0, 0), BuildingBlock: AJUNOK_clean_linker_0, # of connection points: 2
#     Edge 110, Type (0, 0), BuildingBlock: AJUNOK_clean_linker_0, # of connection points: 2
#     Edge 111, Type (0, 0), BuildingBlock: AJUNOK_clean_linker_0, # of connection points: 2
#     Edge 112, Type (0, 0), BuildingBlock: AJUNOK_clean_linker_0, # of connection points: 2
#     Edge 113, Type (0, 0), BuildingBlock: AJUNOK_clean_linker_0, # of connection points: 2
#     Edge 114, Type (0, 0), BuildingBlock: AJUNOK_clean_linker_0, # of connection points: 2
#     Edge 115, Type (0, 0), BuildingBlock: AJUNOK_clean_linker_0, # of connection points: 2
#     Edge 116, Type (0, 0), BuildingBlock: AJUNOK_clean_linker_0, # of connection points: 2
#     Edge 117, Type (0, 0), BuildingBlock: AJUNOK_clean_linker_0, # of connection points: 2
#     Edge 118, Type (0, 0), BuildingBlock: AJUNOK_clean_linker_0, # of connection points: 2
#     Edge 119, Type (0, 0), BuildingBlock: AJUNOK_clean_linker_0, # of connection points: 2
# Relax obj value: 0.023
# Max RMSD: 0.081
# Mean RMSD: 0.050
data_MOF--net-sod-f--node1-OLANEW_clean_sbu_2--edge1-AJUNOK_clean_linker_0
_symmetry_space_group_name_H-M    P1
_symmetry_Int_Tables_number       1
_symmetry_cell_setting            triclinic
loop_
_symmetry_equiv_pos_as_xyz
'x, y, z'
_cell_length_a     77.551881
_cell_length_b     71.384462
_cell_length_c     72.125205
_cell_angle_alpha  88.128206
_cell_angle_beta   92.735364
_cell_angle_gamma 96.183012
loop_
_atom_site_label
_atom_site_type_symbol
_atom_site_fract_x
_atom_site_fract_y
_atom_site_fract_z
_atom_type_partial_charge
O0 O 0.05304 0.31309 0.43906 0.0
Cd1 Cd 0.03165 0.31254 0.41298 0.0
O2 O 0.05741 0.28337 0.43694 0.0
Cd3 Cd 0.03416 0.27831 0.41881 0.0
O4 O 0.00654 0.27503 0.42422 0.0
C5 C 0.00039 0.25962 0.43187 0.0
O6 O 0.01038 0.24588 0.43393 0.0
C7 C 0.06124 0.29925 0.44445 0.0
C8 C 0.04487 0.33237 0.38182 0.0
O9 O 0.03681 0.3405 0.39385 0.0
O10 O 0.04666 0.31484 0.38458 0.0
O11 O 0.73112 0.03642 0.43761 0.0
Cd12 Cd 0.72376 0.01225 0.41441 0.0
O13 O 0.75418 0.02373 0.44885 0.0
Cd14 Cd 0.75144 0.9988 0.43189 0.0
O15 O 0.75619 0.96922 0.43245 0.0
C16 C 0.76858 0.96518 0.44352 0.0
O17 O 0.77758 0.97891 0.45261 0.0
C18 C 0.74417 0.0367 0.44901 0.0
C19 C 0.70046 0.02359 0.38652 0.0
O20 O 0.69509 0.01587 0.40178 0.0
O21 O 0.71688 0.02604 0.38448 0.0
O22 O 0.07089 0.76045 0.38214 0.0
Cd23 Cd 0.05481 0.7571 0.35218 0.0
O24 O 0.04555 0.76075 0.39417 0.0
Cd25 Cd 0.02795 0.76128 0.417 0.0
O26 O 0.00985 0.76175 0.43927 0.0
C27 C 0.00749 0.77723 0.44648 0.0
O28 O 0.01626 0.79282 0.44043 0.0
C29 C 0.06201 0.76186 0.39628 0.0
C30 C 0.04961 0.7204 0.33917 0.0
O31 O 0.06261 0.73181 0.3343 0.0
O32 O 0.03927 0.72623 0.35053 0.0
O33 O 0.30067 0.0718 0.45131 0.0
Cd34 Cd 0.30915 0.10039 0.43295 0.0
O35 O 0.27909 0.08294 0.46449 0.0
Cd36 Cd 0.28358 0.11159 0.45311 0.0
O37 O 0.28041 0.14 0.46151 0.0
C38 C 0.26757 0.14071 0.47167 0.0
O39 O 0.25745 0.12507 0.47489 0.0
C40 C 0.28813 0.06947 0.46217 0.0
C41 C 0.33106 0.09213 0.40533 0.0
O42 O 0.33712 0.09684 0.42156 0.0
O43 O 0.31462 0.09156 0.4021 0.0
O44 O 0.04829 0.77803 0.60668 0.0
Cd45 Cd 0.02368 0.77665 0.62688 0.0
O46 O 0.04663 0.80777 0.5986 0.0
Cd47 Cd 0.02127 0.80824 0.61029 0.0
O48 O 0.99302 0.80529 0.6066 0.0
C49 C 0.98672 0.81157 0.59133 0.0
O50 O 0.99743 0.82006 0.57937 0.0
C51 C 0.05435 0.79297 0.59809 0.0
C52 C 0.02898 0.75632 0.66008 0.0
O53 O 0.02142 0.74828 0.6458 0.0
O54 O 0.03418 0.77395 0.65856 0.0
O55 O 0.27386 0.97353 0.6336 0.0
Cd56 Cd 0.27919 0.99415 0.66012 0.0
O57 O 0.27275 0.9984 0.61525 0.0
Cd58 Cd 0.27141 0.01554 0.58955 0.0
O59 O 0.27074 0.04121 0.57217 0.0
C60 C 0.2615 0.05344 0.57765 0.0
O61 O 0.25267 0.04952 0.59265 0.0
C62 C 0.27212 0.98057 0.61729 0.0
C63 C 0.3128 0.01265 0.66002 0.0
O64 O 0.30966 0.99649 0.66817 0.0
O65 O 0.29997 0.0201 0.65206 0.0
O66 O 0.06817 0.29294 0.67754 0.0
Cd67 Cd 0.05551 0.29165 0.70799 0.0
O68 O 0.04144 0.29248 0.66622 0.0
Cd69 Cd 0.02126 0.29382 0.64408 0.0
O70 O 0.00141 0.29161 0.62152 0.0
C71 C 0.98924 0.27818 0.62182 0.0
O72 O 0.98886 0.26606 0.63593 0.0
C73 C 0.05757 0.29273 0.66356 0.0
C74 C 0.04667 0.32667 0.71799 0.0
O75 O 0.06117 0.32092 0.72364 0.0
O76 O 0.03635 0.31584 0.70765 0.0
O77 O 0.77503 0.06428 0.64353 0.0
Cd78 Cd 0.77176 0.03405 0.6607 0.0
O79 O 0.77261 0.04656 0.61931 0.0
Cd80 Cd 0.77269 0.0375 0.59064 0.0
O81 O 0.77396 0.01409 0.57205 0.0
C82 C 0.77639 0.99849 0.58026 0.0
O83 O 0.77791 0.99799 0.59848 0.0
C84 C 0.77473 0.06296 0.62599 0.0
C85 C 0.75543 0.03415 0.69433 0.0
O86 O 0.77201 0.03675 0.69375 0.0
O87 O 0.74658 0.03198 0.67894 0.0
O88 O 0.42293 0.08499 0.31792 0.0
Cd89 Cd 0.40131 0.05897 0.32627 0.0
O90 O 0.4295 0.07212 0.29226 0.0
Cd91 Cd 0.41431 0.04514 0.29788 0.0
O92 O 0.41773 0.01558 0.30389 0.0
C93 C 0.42088 0.00539 0.29059 0.0
O94 O 0.42004 0.01252 0.27358 0.0
C95 C 0.43149 0.08583 0.30326 0.0
C96 C 0.37802 0.07013 0.35108 0.0
O97 O 0.3924 0.06418 0.35686 0.0
O98 O 0.37467 0.07081 0.33351 0.0
O99 O 0.10364 0.41757 0.2868 0.0
Cd100 Cd 0.07763 0.39514 0.28309 0.0
O101 O 0.08699 0.44046 0.28317 0.0
Cd102 Cd 0.08135 0.46965 0.27829 0.0
O103 O 0.06715 0.49244 0.26649 0.0
C104 C 0.06015 0.4898 0.25036 0.0
O105 O 0.06245 0.47424 0.24199 0.0
C106 C 0.10205 0.43511 0.28584 0.0
C107 C 0.06867 0.37481 0.31563 0.0
O108 O 0.07873 0.3686 0.30421 0.0
O109 O 0.06305 0.39078 0.31173 0.0
O110 O 0.60292 0.0238 0.29908 0.0
Cd111 Cd 0.62344 0.05203 0.30308 0.0
O112 O 0.58141 0.038 0.30903 0.0
Cd113 Cd 0.59378 0.06698 0.30738 0.0
O114 O 0.59212 0.09709 0.30168 0.0
C115 C 0.57931 0.10132 0.29131 0.0
O116 O 0.56848 0.08757 0.28445 0.0
C117 C 0.58735 0.02311 0.30405 0.0
C118 C 0.64951 0.04455 0.3296 0.0
O119 O 0.63518 0.04996 0.33439 0.0
O120 O 0.6516 0.04288 0.31224 0.0
O121 O 0.05153 0.59187 0.29755 0.0
Cd122 Cd 0.02574 0.60886 0.29607 0.0
O123 O 0.06087 0.60634 0.27199 0.0
Cd124 Cd 0.03575 0.61562 0.26351 0.0
O125 O 0.0143 0.6105 0.24308 0.0
C126 C 0.99884 0.60454 0.24704 0.0
O127 O 0.99489 0.60244 0.26455 0.0
C128 C 0.06338 0.59548 0.28595 0.0
C129 C 0.03401 0.64504 0.30985 0.0
O130 O 0.0277 0.6314 0.32034 0.0
O131 O 0.03616 0.6416 0.29285 0.0
O132 O 0.43534 0.07311 0.67558 0.0
Cd133 Cd 0.4189 0.05959 0.64853 0.0
O134 O 0.45165 0.04996 0.67429 0.0
Cd135 Cd 0.47297 0.03416 0.68495 0.0
O136 O 0.49429 0.01878 0.69617 0.0
C137 C 0.50205 0.02277 0.7117 0.0
O138 O 0.4971 0.03649 0.7212 0.0
C139 C 0.44832 0.06499 0.68175 0.0
C140 C 0.38442 0.04614 0.65458 0.0
O141 O 0.39669 0.03561 0.65772 0.0
O142 O 0.38856 0.06318 0.64896 0.0
O143 O 0.0473 0.45616 0.75635 0.0
Cd144 Cd 0.02123 0.43364 0.75422 0.0
O145 O 0.05519 0.4458 0.78412 0.0
Cd146 Cd 0.02881 0.43294 0.78777 0.0
O147 O 0.00696 0.44889 0.79222 0.0
C148 C 0.0117 0.46497 0.79897 0.0
O149 O 0.02831 0.46953 0.80286 0.0
C150 C 0.05843 0.45638 0.7699 0.0
C151 C 0.02878 0.39898 0.7418 0.0
O152 O 0.02306 0.4113 0.73046 0.0
O153 O 0.03092 0.40306 0.75898 0.0
O154 O 0.67796 0.99416 0.793 0.0
Cd155 Cd 0.69958 0.02169 0.79511 0.0
O156 O 0.65878 0.01434 0.78896 0.0
Cd157 Cd 0.63333 0.02422 0.78331 0.0
O158 O 0.60938 0.03767 0.7818 0.0
C159 C 0.6058 0.0468 0.79568 0.0
O160 O 0.61657 0.04751 0.81033 0.0
C161 C 0.66222 0.99731 0.79025 0.0
C162 C 0.71868 0.02701 0.76318 0.0
O163 O 0.72431 0.01793 0.77744 0.0
O164 O 0.70399 0.03356 0.76404 0.0
O165 O 0.05633 0.67578 0.77213 0.0
Cd166 Cd 0.03947 0.70285 0.76826 0.0
O167 O 0.03178 0.6589 0.77766 0.0
Cd168 Cd 0.01333 0.63387 0.78264 0.0
O169 O 0.98983 0.6148 0.78774 0.0
C170 C 0.97542 0.62039 0.78206 0.0
O171 O 0.97561 0.63688 0.77341 0.0
C172 C 0.04818 0.65993 0.77638 0.0
C173 C 0.03738 0.71805 0.73212 0.0
O174 O 0.04927 0.72452 0.74388 0.0
O175 O 0.02666 0.70419 0.73739 0.0
O176 O 0.2468 0.36264 0.98788 0.0
Cd177 Cd 0.254 0.33349 0.00373 0.0
O178 O 0.25592 0.3774 0.01333 0.0
Cd179 Cd 0.26263 0.40375 0.02807 0.0
O180 O 0.27036 0.43136 0.04001 0.0
C181 C 0.25997 0.43906 0.04971 0.0
O182 O 0.24462 0.43003 0.05261 0.0
C183 C 0.24943 0.37779 0.99681 0.0
C184 C 0.28985 0.33305 0.0089 0.0
O185 O 0.28162 0.32583 0.99457 0.0
O186 O 0.28107 0.34043 0.02081 0.0
O187 O 0.27751 0.64992 0.08616 0.0
Cd188 Cd 0.27578 0.67367 0.06115 0.0
O189 O 0.27181 0.62869 0.06501 0.0
Cd190 Cd 0.26853 0.60122 0.05211 0.0
O191 O 0.26412 0.57989 0.0309 0.0
C192 C 0.25754 0.58469 0.0152 0.0
O193 O 0.25366 0.60207 0.0126 0.0
C194 C 0.27529 0.63266 0.08194 0.0
C195 C 0.30881 0.68935 0.05145 0.0
O196 O 0.30029 0.69716 0.06331 0.0
O197 O 0.30163 0.67419 0.0441 0.0
O198 O 0.41757 0.33104 0.04217 0.0
Cd199 Cd 0.40143 0.34759 0.01797 0.0
O200 O 0.43429 0.32542 0.01985 0.0
Cd201 Cd 0.45791 0.31726 0.00823 0.0
O202 O 0.48022 0.31007 0.99354 0.0
C203 C 0.47777 0.2989 0.98007 0.0
O204 O 0.46183 0.29176 0.97563 0.0
C205 C 0.43084 0.324 0.03694 0.0
C206 C 0.36537 0.3397 0.01701 0.0
O207 O 0.37479 0.3301 0.00766 0.0
O208 O 0.37311 0.35269 0.02722 0.0
O209 O 0.75925 0.41547 0.06189 0.0
Cd210 Cd 0.75536 0.39374 0.03616 0.0
O211 O 0.75905 0.43839 0.04103 0.0
Cd212 Cd 0.76294 0.46759 0.03089 0.0
O213 O 0.76686 0.49571 0.0182 0.0
C214 C 0.77006 0.49764 0.00109 0.0
O215 O 0.77096 0.48248 0.99148 0.0
C216 C 0.76029 0.43303 0.05798 0.0
C217 C 0.7214 0.37675 0.03102 0.0
O218 O 0.73265 0.36885 0.04128 0.0
O219 O 0.72622 0.39278 0.02334 0.0
O220 O 0.60759 0.78076 0.02225 0.0
Cd221 Cd 0.62127 0.77993 0.05345 0.0
O222 O 0.60035 0.80944 0.025 0.0
Cd223 Cd 0.60538 0.80938 0.05507 0.0
O224 O 0.59839 0.80776 0.08415 0.0
C225 C 0.58427 0.7979 0.08789 0.0
O226 O 0.57524 0.78901 0.07435 0.0
C227 C 0.60139 0.79524 0.01507 0.0
C228 C 0.65608 0.77389 0.0512 0.0
O229 O 0.64438 0.7601 0.05393 0.0
O230 O 0.65133 0.79054 0.04987 0.0
O231 O 0.76343 0.72525 0.01825 0.0
Cd232 Cd 0.76168 0.74984 0.04068 0.0
O233 O 0.75668 0.70477 0.04079 0.0
Cd234 Cd 0.75375 0.67565 0.05174 0.0
O235 O 0.75104 0.64575 0.05989 0.0
C236 C 0.76028 0.63436 0.05289 0.0
O237 O 0.77162 0.64084 0.04065 0.0
C238 C 0.76028 0.70826 0.02393 0.0
C239 C 0.72772 0.75846 0.04402 0.0
O240 O 0.73793 0.76792 0.03284 0.0
O241 O 0.73357 0.74485 0.05354 0.0
O242 O 0.42924 0.74657 0.05223 0.0
Cd243 Cd 0.41025 0.7418 0.02433 0.0
O244 O 0.43876 0.77541 0.04336 0.0
Cd245 Cd 0.42776 0.7727 0.01503 0.0
O246 O 0.43718 0.77211 0.98706 0.0
C247 C 0.44363 0.78763 0.97986 0.0
O248 O 0.44243 0.80322 0.98869 0.0
C249 C 0.43836 0.7621 0.05553 0.0
C250 C 0.3775 0.7241 0.03258 0.0
O251 O 0.38964 0.71452 0.02807 0.0
O252 O 0.38089 0.74205 0.03322 0.0
O253 O 0.60326 0.31209 0.03788 0.0
Cd254 Cd 0.62015 0.31676 0.01002 0.0
O255 O 0.60125 0.28119 0.03703 0.0
Cd256 Cd 0.61233 0.28179 0.0098 0.0
O257 O 0.61193 0.28093 0.97958 0.0
C258 C 0.59795 0.27349 0.97174 0.0
O259 O 0.58517 0.26676 0.98219 0.0
C260 C 0.59827 0.29601 0.04508 0.0
C261 C 0.65245 0.33713 0.01715 0.0
O262 O 0.63921 0.34546 0.01166 0.0
O263 O 0.65034 0.31914 0.0193 0.0
O264 O 0.55952 0.80609 0.93466 0.0
Cd265 Cd 0.53966 0.80496 0.90727 0.0
O266 O 0.5561 0.77539 0.93932 0.0
Cd267 Cd 0.53281 0.77232 0.921 0.0
O268 O 0.50518 0.77229 0.92556 0.0
C269 C 0.50022 0.78764 0.93067 0.0
O270 O 0.51147 0.80278 0.93085 0.0
C271 C 0.56366 0.79147 0.94361 0.0
C272 C 0.55238 0.82843 0.8782 0.0
O273 O 0.54277 0.8344 0.89021 0.0
O274 O 0.55604 0.81136 0.88005 0.0
O275 O 0.23371 0.52972 0.94464 0.0
Cd276 Cd 0.22586 0.50569 0.92144 0.0
O277 O 0.25202 0.51314 0.96043 0.0
Cd278 Cd 0.24711 0.48749 0.94455 0.0
O279 O 0.24583 0.45709 0.94958 0.0
C280 C 0.23951 0.45173 0.96505 0.0
O281 O 0.23382 0.46443 0.97532 0.0
C282 C 0.24466 0.52816 0.95814 0.0
C283 C 0.20422 0.5188 0.89284 0.0
O284 O 0.19797 0.51087 0.90762 0.0
O285 O 0.22075 0.52051 0.89159 0.0
O286 O 0.60106 0.26556 0.88172 0.0
Cd287 Cd 0.59766 0.26027 0.8484 0.0
O288 O 0.57298 0.26601 0.88396 0.0
Cd289 Cd 0.5502 0.26984 0.89971 0.0
O290 O 0.52971 0.27461 0.91825 0.0
C291 C 0.53362 0.28334 0.93322 0.0
O292 O 0.54999 0.28927 0.93707 0.0
C293 C 0.58816 0.26689 0.89162 0.0
C294 C 0.57757 0.2263 0.84117 0.0
O295 O 0.59372 0.22677 0.84598 0.0
O296 O 0.57084 0.24194 0.8396 0.0
O297 O 0.78595 0.5727 0.94735 0.0
Cd298 Cd 0.79422 0.6023 0.93047 0.0
O299 O 0.78498 0.58652 0.974 0.0
Cd300 Cd 0.78918 0.61555 0.96362 0.0
O301 O 0.78429 0.64353 0.97182 0.0
C302 C 0.77074 0.64349 0.98107 0.0
O303 O 0.76113 0.62739 0.98371 0.0
C304 C 0.78368 0.57159 0.96471 0.0
C305 C 0.81458 0.59556 0.90098 0.0
O306 O 0.8214 0.59881 0.91724 0.0
O307 O 0.79812 0.59586 0.89858 0.0
O308 O 0.54137 0.27574 0.10935 0.0
Cd309 Cd 0.5176 0.27353 0.13064 0.0
O310 O 0.54041 0.30616 0.10464 0.0
Cd311 Cd 0.5145 0.30578 0.11515 0.0
O312 O 0.48871 0.30903 0.1028 0.0
C313 C 0.48465 0.29999 0.08804 0.0
O314 O 0.49549 0.28865 0.08242 0.0
C315 C 0.54778 0.29139 0.10235 0.0
C316 C 0.52827 0.25973 0.1655 0.0
O317 O 0.52027 0.24868 0.15351 0.0
O318 O 0.53114 0.27727 0.16102 0.0
O319 O 0.77684 0.47635 0.13522 0.0
Cd320 Cd 0.78298 0.49563 0.16266 0.0
O321 O 0.77513 0.50194 0.11802 0.0
Cd322 Cd 0.77317 0.52062 0.09344 0.0
O323 O 0.77144 0.54718 0.07773 0.0
C324 C 0.75917 0.5568 0.08127 0.0
O325 O 0.74792 0.54988 0.09343 0.0
C326 C 0.7743 0.48405 0.11933 0.0
C327 C 0.81653 0.51436 0.1631 0.0
O328 O 0.81351 0.4978 0.17042 0.0
O329 O 0.80362 0.52204 0.15558 0.0
O330 O 0.56607 0.79427 0.17618 0.0
Cd331 Cd 0.55227 0.79006 0.20601 0.0
O332 O 0.53987 0.78911 0.16351 0.0
Cd333 Cd 0.5199 0.78675 0.14091 0.0
O334 O 0.49957 0.78385 0.11882 0.0
C335 C 0.48731 0.77051 0.11943 0.0
O336 O 0.48702 0.75852 0.13364 0.0
C337 C 0.55616 0.79252 0.16166 0.0
C338 C 0.54613 0.82381 0.2217 0.0
O339 O 0.55988 0.81595 0.22623 0.0
O340 O 0.53543 0.81585 0.20953 0.0
O341 O 0.28504 0.57978 0.15677 0.0
Cd342 Cd 0.2913 0.55677 0.18145 0.0
O343 O 0.27907 0.55731 0.13689 0.0
Cd344 Cd 0.27337 0.5431 0.11051 0.0
O345 O 0.26669 0.51941 0.09209 0.0
C346 C 0.27858 0.51105 0.08544 0.0
O347 O 0.29486 0.51748 0.08912 0.0
C348 C 0.28112 0.57482 0.14021 0.0
C349 C 0.26499 0.54479 0.20561 0.0
O350 O 0.27466 0.56032 0.20804 0.0
O351 O 0.26739 0.5352 0.19141 0.0
O352 O 0.89696 0.58338 0.80129 0.0
Cd353 Cd 0.87054 0.56329 0.80892 0.0
O354 O 0.9094 0.5574 0.80049 0.0
Cd355 Cd 0.92981 0.53942 0.79589 0.0
O356 O 0.9483 0.51865 0.79402 0.0
C357 C 0.96212 0.52025 0.80429 0.0
O358 O 0.96483 0.5345 0.81552 0.0
C359 C 0.91044 0.57528 0.79879 0.0
C360 C 0.85392 0.57555 0.83907 0.0
O361 O 0.86634 0.56512 0.84145 0.0
O362 O 0.84943 0.58031 0.82238 0.0
O363 O 0.61093 0.91823 0.78603 0.0
Cd364 Cd 0.58737 0.89293 0.78147 0.0
O365 O 0.59178 0.93801 0.77921 0.0
Cd366 Cd 0.58176 0.96493 0.77179 0.0
O367 O 0.564 0.98418 0.75938 0.0
C368 C 0.55632 0.97938 0.74402 0.0
O369 O 0.55987 0.96375 0.73661 0.0
C370 C 0.60741 0.93511 0.78341 0.0
C371 C 0.57713 0.87377 0.81415 0.0
O372 O 0.58887 0.86808 0.80444 0.0
O373 O 0.57041 0.88868 0.80848 0.0
O374 O 0.11647 0.52439 0.79511 0.0
Cd375 Cd 0.13226 0.55341 0.80674 0.0
O376 O 0.10398 0.53698 0.77037 0.0
Cd377 Cd 0.11104 0.56647 0.77706 0.0
O378 O 0.10049 0.59366 0.77741 0.0
C379 C 0.08624 0.594 0.78535 0.0
O380 O 0.07932 0.57847 0.79357 0.0
C381 C 0.107 0.52253 0.78026 0.0
C382 C 0.15666 0.54417 0.83446 0.0
O383 O 0.14109 0.54652 0.83835 0.0
O384 O 0.16075 0.5465 0.81747 0.0
O385 O 0.54376 0.09935 0.80922 0.0
Cd386 Cd 0.52123 0.12023 0.81258 0.0
O387 O 0.53427 0.08845 0.78205 0.0
Cd388 Cd 0.51072 0.10255 0.77873 0.0
O389 O 0.48979 0.09922 0.75745 0.0
C390 C 0.49484 0.09292 0.74259 0.0
O391 O 0.51131 0.09031 0.74177 0.0
C392 C 0.54542 0.08903 0.79553 0.0
C393 C 0.53757 0.15524 0.82306 0.0
O394 O 0.53427 0.1419 0.83508 0.0
O395 O 0.53265 0.15228 0.80609 0.0
O396 O 0.93778 0.57868 0.18321 0.0
Cd397 Cd 0.92244 0.56384 0.15613 0.0
O398 O 0.95728 0.5592 0.17949 0.0
Cd399 Cd 0.9812 0.54715 0.18869 0.0
O400 O 0.00266 0.53265 0.20086 0.0
C401 C 0.01061 0.53785 0.21597 0.0
O402 O 0.00596 0.55254 0.22422 0.0
C403 C 0.95222 0.57274 0.18809 0.0
C404 C 0.88791 0.54953 0.16076 0.0
O405 O 0.90036 0.53946 0.16482 0.0
O406 O 0.89188 0.56654 0.15496 0.0
O407 O 0.53818 0.94714 0.28033 0.0
Cd408 Cd 0.51562 0.92138 0.27318 0.0
O409 O 0.52531 0.95289 0.30571 0.0
Cd410 Cd 0.5011 0.93535 0.29922 0.0
O411 O 0.47473 0.94232 0.29275 0.0
C412 C 0.46628 0.94746 0.30603 0.0
O413 O 0.47299 0.94601 0.32303 0.0
C414 C 0.53798 0.95634 0.29512 0.0
C415 C 0.52779 0.89101 0.25634 0.0
O416 O 0.52115 0.90398 0.24658 0.0
O417 O 0.52879 0.89252 0.27403 0.0
O418 O 0.17968 0.47836 0.29306 0.0
Cd419 Cd 0.20777 0.49711 0.29776 0.0
O420 O 0.1662 0.50347 0.29581 0.0
Cd421 Cd 0.14397 0.51995 0.2951 0.0
O422 O 0.12213 0.53669 0.29589 0.0
C423 C 0.12379 0.55345 0.28925 0.0
O424 O 0.13863 0.56005 0.28224 0.0
C425 C 0.16555 0.48579 0.2936 0.0
C426 C 0.22261 0.51297 0.26554 0.0
O427 O 0.22444 0.49594 0.27079 0.0
O428 O 0.21336 0.52238 0.27528 0.0
O429 O 0.57422 0.19245 0.2772 0.0
Cd430 Cd 0.56397 0.2237 0.27438 0.0
O431 O 0.54675 0.18165 0.27683 0.0
Cd432 Cd 0.52423 0.1606 0.2796 0.0
O433 O 0.50103 0.14061 0.28233 0.0
C434 C 0.48879 0.1444 0.29223 0.0
O435 O 0.49034 0.16056 0.30069 0.0
C436 C 0.56261 0.1785 0.27807 0.0
C437 C 0.55255 0.2336 0.23846 0.0
O438 O 0.56803 0.23897 0.24457 0.0
O439 O 0.54253 0.22341 0.24929 0.0
O440 O 0.7784 0.87468 0.45483 0.0
Cd441 Cd 0.77823 0.84188 0.46583 0.0
O442 O 0.77942 0.88462 0.4834 0.0
Cd443 Cd 0.77776 0.90705 0.50312 0.0
O444 O 0.7765 0.93208 0.51954 0.0
C445 C 0.77957 0.93122 0.53699 0.0
O446 O 0.7834 0.91517 0.54468 0.0
C447 C 0.77861 0.88811 0.46599 0.0
C448 C 0.80592 0.8335 0.4898 0.0
O449 O 0.80673 0.83245 0.47217 0.0
O450 O 0.79218 0.8391 0.49603 0.0
O451 O 0.78123 0.14747 0.58755 0.0
Cd452 Cd 0.7804 0.17558 0.56734 0.0
O453 O 0.77626 0.13151 0.56223 0.0
Cd454 Cd 0.77244 0.10757 0.54381 0.0
O455 O 0.76742 0.08775 0.52132 0.0
C456 C 0.75682 0.09121 0.50796 0.0
O457 O 0.74904 0.10665 0.50818 0.0
C458 C 0.77879 0.13162 0.57979 0.0
C459 C 0.81328 0.1917 0.55771 0.0
O460 O 0.80577 0.19765 0.57149 0.0
O461 O 0.80526 0.17807 0.54855 0.0
O462 O 0.90193 0.79249 0.57821 0.0
Cd463 Cd 0.87262 0.77966 0.56801 0.0
O464 O 0.91107 0.78981 0.55022 0.0
Cd465 Cd 0.93111 0.78979 0.52976 0.0
O466 O 0.95122 0.79133 0.50933 0.0
C467 C 0.95626 0.77635 0.50341 0.0
O468 O 0.9492 0.76 0.50982 0.0
C469 C 0.91429 0.79403 0.56713 0.0
C470 C 0.85484 0.80143 0.54221 0.0
O471 O 0.85347 0.80311 0.55971 0.0
O472 O 0.86505 0.78985 0.53697 0.0
O473 O 0.26009 0.91305 0.55704 0.0
Cd474 Cd 0.25737 0.89343 0.52966 0.0
O475 O 0.25962 0.93738 0.53792 0.0
Cd476 Cd 0.26247 0.96715 0.52946 0.0
O477 O 0.26587 0.99502 0.5161 0.0
C478 C 0.27602 0.99756 0.50273 0.0
O479 O 0.28417 0.9834 0.49784 0.0
C480 C 0.26092 0.93081 0.55447 0.0
C481 C 0.22474 0.87327 0.52408 0.0
O482 O 0.23689 0.86616 0.5337 0.0
O483 O 0.22801 0.89003 0.51732 0.0
O484 O 0.10917 0.28693 0.52011 0.0
Cd485 Cd 0.12358 0.28437 0.55083 0.0
O486 O 0.09809 0.31295 0.52646 0.0
Cd487 Cd 0.10401 0.31072 0.55632 0.0
O488 O 0.0973 0.3073 0.58545 0.0
C489 C 0.08309 0.29738 0.58875 0.0
O490 O 0.07382 0.28964 0.57474 0.0
C491 C 0.1008 0.30067 0.51485 0.0
C492 C 0.15762 0.27595 0.54741 0.0
O493 O 0.14525 0.26285 0.55004 0.0
O494 O 0.1539 0.29303 0.54669 0.0
O495 O 0.26221 0.22176 0.51194 0.0
Cd496 Cd 0.26103 0.24548 0.53544 0.0
O497 O 0.25782 0.20047 0.53432 0.0
Cd498 Cd 0.25642 0.1712 0.54487 0.0
O499 O 0.2553 0.14158 0.55405 0.0
C500 C 0.26263 0.12961 0.54538 0.0
O501 O 0.27102 0.13521 0.53045 0.0
C502 C 0.26028 0.20456 0.51729 0.0
C503 C 0.22769 0.25596 0.53889 0.0
O504 O 0.23843 0.2653 0.52819 0.0
O505 O 0.23268 0.24154 0.54781 0.0
O506 O 0.93142 0.25364 0.55458 0.0
Cd507 Cd 0.91208 0.2483 0.52706 0.0
O508 O 0.94288 0.28118 0.544 0.0
Cd509 Cd 0.9319 0.27736 0.51576 0.0
O510 O 0.94052 0.27477 0.48768 0.0
C511 C 0.94561 0.2592 0.48342 0.0
O512 O 0.94364 0.24491 0.49536 0.0
C513 C 0.94151 0.26871 0.55699 0.0
C514 C 0.88023 0.22917 0.5365 0.0
O515 O 0.89248 0.22022 0.53115 0.0
O516 O 0.88305 0.24716 0.53735 0.0
O517 O 0.11012 0.80428 0.53217 0.0
Cd518 Cd 0.12739 0.8046 0.5047 0.0
O519 O 0.10453 0.77347 0.5337 0.0
Cd520 Cd 0.11371 0.77026 0.50596 0.0
O521 O 0.10721 0.76666 0.47639 0.0
C522 C 0.09375 0.77402 0.47033 0.0
O523 O 0.08565 0.78353 0.48187 0.0
C524 C 0.10354 0.78948 0.54057 0.0
C525 C 0.15863 0.82751 0.51029 0.0
O526 O 0.14514 0.83419 0.50294 0.0
O527 O 0.15735 0.80991 0.51482 0.0
C528 C 0.09057 0.28521 0.48506 0.0
C529 C 0.09296 0.30155 0.4957 0.0
C530 C 0.08108 0.2849 0.46802 0.0
C531 C 0.07365 0.30093 0.46084 0.0
H532 H 0.09539 0.27227 0.49029 0.0
H533 H 0.07899 0.27171 0.46081 0.0
S534 S 0.07852 0.34815 0.48191 0.0
N535 N 0.08883 0.33478 0.49684 0.0
N536 N 0.0711 0.33427 0.4648 0.0
C537 C 0.07698 0.31774 0.47074 0.0
C538 C 0.08657 0.31802 0.48816 0.0
C539 C 0.76343 0.06272 0.49151 0.0
C540 C 0.75346 0.07798 0.4924 0.0
C541 C 0.76051 0.04978 0.47725 0.0
C542 C 0.74741 0.05142 0.46325 0.0
H543 H 0.7736 0.06064 0.50196 0.0
H544 H 0.7685 0.03823 0.47743 0.0
S545 S 0.71785 0.08911 0.45888 0.0
N546 N 0.7301 0.09423 0.47776 0.0
N547 N 0.72457 0.06983 0.45098 0.0
C548 C 0.73744 0.06674 0.46381 0.0
C549 C 0.74047 0.08001 0.47835 0.0
C550 C 0.98618 0.76056 0.46809 0.0
C551 C 0.99479 0.77758 0.46126 0.0
C552 C 0.97391 0.76035 0.48176 0.0
C553 C 0.96963 0.77716 0.48919 0.0
H554 H 0.98887 0.74719 0.46282 0.0
H555 H 0.96764 0.74684 0.48641 0.0
S556 S 0.98865 0.8256 0.47638 0.0
N557 N 0.99832 0.81178 0.46323 0.0
N558 N 0.97526 0.81139 0.48887 0.0
C559 C 0.97823 0.79432 0.48262 0.0
C560 C 0.99079 0.79453 0.4687 0.0
C561 C 0.29383 0.03603 0.46905 0.0
C562 C 0.28441 0.05124 0.47251 0.0
C563 C 0.29098 0.01881 0.47887 0.0
C564 C 0.27864 0.01605 0.49265 0.0
H565 H 0.30356 0.03738 0.45867 0.0
H566 H 0.29863 0.00762 0.47562 0.0
S567 S 0.25029 0.05127 0.50703 0.0
N568 N 0.26198 0.06229 0.49067 0.0
N569 N 0.25676 0.02999 0.50919 0.0
C570 C 0.26906 0.0311 0.49627 0.0
C571 C 0.27189 0.04864 0.48618 0.0
C572 C 0.08523 0.77435 0.56576 0.0
C573 C 0.09328 0.79086 0.55729 0.0
C574 C 0.07342 0.77518 0.57975 0.0
C575 C 0.06909 0.79256 0.58577 0.0
H576 H 0.0875 0.76059 0.5611 0.0
H577 H 0.06702 0.76205 0.58519 0.0
S578 S 0.08851 0.83995 0.57022 0.0
N579 N 0.09757 0.82517 0.55757 0.0
N580 N 0.0753 0.82668 0.58375 0.0
C581 C 0.0779 0.80918 0.57833 0.0
C582 C 0.09001 0.80834 0.56414 0.0
C583 C 0.25185 0.1039 0.56767 0.0
C584 C 0.26205 0.10975 0.5525 0.0
C585 C 0.25152 0.08561 0.57534 0.0
C586 C 0.26143 0.07229 0.56824 0.0
H587 H 0.24411 0.11358 0.57388 0.0
H588 H 0.24358 0.08202 0.58715 0.0
S589 S 0.28998 0.08018 0.52818 0.0
N590 N 0.28199 0.10049 0.53024 0.0
N591 N 0.28145 0.06611 0.54473 0.0
C592 C 0.27145 0.07778 0.5528 0.0
C593 C 0.27174 0.09647 0.54492 0.0
C594 C 0.97719 0.28883 0.59091 0.0
C595 C 0.97616 0.2759 0.60607 0.0
C596 C 0.96565 0.28663 0.57542 0.0
C597 C 0.95256 0.27136 0.57433 0.0
H598 H 0.98718 0.30067 0.59081 0.0
H599 H 0.9673 0.29683 0.56402 0.0
S600 S 0.94348 0.23416 0.61084 0.0
N601 N 0.96036 0.24772 0.61942 0.0
N602 N 0.9387 0.24357 0.59028 0.0
C603 C 0.95105 0.25858 0.58961 0.0
C604 C 0.96282 0.26085 0.60546 0.0
C605 C 0.77569 0.96547 0.53974 0.0
C606 C 0.77887 0.94812 0.54838 0.0
C607 C 0.77496 0.98164 0.55011 0.0
C608 C 0.77736 0.98116 0.56958 0.0
H609 H 0.77375 0.96665 0.52479 0.0
H610 H 0.77246 0.99461 0.54274 0.0
S611 S 0.78607 0.93922 0.59907 0.0
N612 N 0.78444 0.93148 0.57769 0.0
N613 N 0.78308 0.96175 0.59713 0.0
C614 C 0.78056 0.96389 0.57842 0.0
C615 C 0.78132 0.94743 0.56786 0.0
C616 C 0.47102 0.11433 0.28365 0.0
C617 C 0.47331 0.13047 0.29457 0.0
C618 C 0.45711 0.10039 0.28612 0.0
C619 C 0.44493 0.10187 0.29972 0.0
H620 H 0.48017 0.11225 0.27321 0.0
H621 H 0.45623 0.08808 0.27759 0.0
S622 S 0.44435 0.14192 0.33122 0.0
N623 N 0.46165 0.14759 0.31893 0.0
N624 N 0.43558 0.12133 0.32364 0.0
C625 C 0.44674 0.11821 0.31039 0.0
C626 C 0.46089 0.1325 0.30779 0.0
C627 C 0.03948 0.49844 0.22465 0.0
C628 C 0.04854 0.50313 0.24153 0.0
C629 C 0.02757 0.50994 0.2164 0.0
C630 C 0.02416 0.52669 0.22462 0.0
H631 H 0.04131 0.48556 0.21782 0.0
H632 H 0.02078 0.50541 0.20358 0.0
S633 S 0.04541 0.54623 0.26814 0.0
N634 N 0.05398 0.52631 0.26571 0.0
N635 N 0.0316 0.54796 0.25019 0.0
C636 C 0.03351 0.5319 0.24124 0.0
C637 C 0.04568 0.52014 0.24968 0.0
C638 C 0.56628 0.97538 0.2883 0.0
C639 C 0.55154 0.97225 0.29915 0.0
C640 C 0.57823 0.99148 0.29047 0.0
C641 C 0.57576 0.0052 0.30338 0.0
H642 H 0.56841 0.96556 0.27772 0.0
H643 H 0.58909 0.99354 0.28146 0.0
S644 S 0.54034 0.00301 0.33646 0.0
N645 N 0.53601 0.98372 0.32436 0.0
N646 N 0.5583 0.01394 0.32817 0.0
C647 C 0.56152 0.0019 0.31483 0.0
C648 C 0.54948 0.98544 0.3128 0.0
C649 C 0.07985 0.56926 0.29864 0.0
C650 C 0.07949 0.58598 0.2878 0.0
C651 C 0.09427 0.55897 0.29915 0.0
C652 C 0.10904 0.56511 0.28905 0.0
H653 H 0.06869 0.56372 0.30636 0.0
H654 H 0.09374 0.54599 0.30741 0.0
S655 S 0.11516 0.60877 0.25958 0.0
N656 N 0.09552 0.60873 0.26745 0.0
N657 N 0.12267 0.58953 0.26855 0.0
C658 C 0.10908 0.58215 0.27865 0.0
C659 C 0.09431 0.59254 0.27799 0.0
C660 C 0.5373 0.00565 0.74456 0.0
C661 C 0.54297 0.99066 0.73511 0.0
C662 C 0.52423 0.01602 0.73681 0.0
C663 C 0.51624 0.01185 0.71926 0.0
H664 H 0.54283 0.00931 0.75821 0.0
H665 H 0.52029 0.02731 0.74478 0.0
S666 S 0.52683 0.97442 0.68837 0.0
N667 N 0.5399 0.97253 0.70691 0.0
N668 N 0.51538 0.99193 0.6924 0.0
C669 C 0.52197 0.99707 0.70951 0.0
C670 C 0.5353 0.98651 0.71741 0.0
C671 C 0.08371 0.47362 0.78719 0.0
C672 C 0.0736 0.471 0.77054 0.0
C673 C 0.09548 0.48974 0.78974 0.0
C674 C 0.09758 0.50391 0.77576 0.0
H675 H 0.08181 0.46373 0.79881 0.0
H676 H 0.10213 0.4916 0.80321 0.0
S677 S 0.07707 0.50196 0.72819 0.0
N678 N 0.06859 0.48253 0.7388 0.0
N679 N 0.09065 0.51285 0.74364 0.0
C680 C 0.08879 0.50064 0.75845 0.0
C681 C 0.07684 0.48417 0.75582 0.0
C682 C 0.58695 0.0678 0.81052 0.0
C683 C 0.59006 0.05699 0.79529 0.0
C684 C 0.57249 0.07798 0.81048 0.0
C685 C 0.56046 0.07778 0.79522 0.0
H686 H 0.59581 0.06856 0.8226 0.0
H687 H 0.5708 0.08614 0.82255 0.0
S688 S 0.56247 0.05147 0.75186 0.0
N689 N 0.57975 0.04651 0.76454 0.0
N690 N 0.55259 0.06561 0.76444 0.0
C691 C 0.56332 0.06688 0.77992 0.0
C692 C 0.57809 0.05651 0.77996 0.0
C693 C 0.9586 0.5918 0.79614 0.0
C694 C 0.95871 0.60882 0.78566 0.0
C695 C 0.94298 0.58092 0.80019 0.0
C696 C 0.92685 0.58657 0.79387 0.0
H697 H 0.97065 0.58691 0.80151 0.0
H698 H 0.94358 0.5683 0.80881 0.0
S699 S 0.91979 0.62959 0.76547 0.0
N700 N 0.94108 0.63057 0.76876 0.0
N701 N 0.91187 0.61007 0.77635 0.0
C702 C 0.92673 0.60346 0.7833 0.0
C703 C 0.9426 0.61455 0.77915 0.0
C704 C 0.25266 0.46683 0.06692 0.0
C705 C 0.26505 0.45781 0.0579 0.0
C706 C 0.25707 0.48422 0.07532 0.0
C707 C 0.2741 0.49332 0.0752 0.0
H708 H 0.23941 0.46037 0.06765 0.0
H709 H 0.24706 0.49036 0.0823 0.0
S710 S 0.31129 0.47619 0.05263 0.0
N711 N 0.29501 0.45971 0.04873 0.0
N712 N 0.3033 0.49233 0.06459 0.0
C713 C 0.28656 0.48467 0.06589 0.0
C714 C 0.28205 0.46697 0.05723 0.0
C715 C 0.26066 0.55314 0.0024 0.0
C716 C 0.25437 0.57087 1.00012 0.0
C717 C 0.25773 0.53967 0.98861 0.0
C718 C 0.24827 0.54327 0.97194 0.0
H719 H 0.2679 0.54953 0.01499 0.0
H720 H 0.26273 0.5262 0.99123 0.0
S721 S 0.22932 0.5877 0.9588 0.0
N722 N 0.23852 0.59148 0.97964 0.0
N723 N 0.23295 0.56612 0.95376 0.0
C724 C 0.24206 0.56103 0.96935 0.0
C725 C 0.24513 0.57482 0.9834 0.0
C726 C 0.48902 0.28414 0.95271 0.0
C727 C 0.49243 0.29463 0.96891 0.0
C728 C 0.5024 0.28046 0.94142 0.0
C729 C 0.51983 0.28706 0.94584 0.0
H730 H 0.47584 0.27886 0.9485 0.0
H731 H 0.49897 0.27246 0.92903 0.0
S732 S 0.53593 0.31452 0.98723 0.0
N733 N 0.51469 0.3111 0.98914 0.0
N734 N 0.53984 0.30416 0.96798 0.0
C735 C 0.52351 0.2973 0.9622 0.0
C736 C 0.50983 0.30109 0.9737 0.0
C737 C 0.78134 0.53629 0.96482 0.0
C738 C 0.77972 0.55294 0.9742 0.0
C739 C 0.7781 0.51854 0.97359 0.0
C740 C 0.77305 0.51666 0.99211 0.0
H741 H 0.78535 0.53693 0.95061 0.0
H742 H 0.77971 0.5062 0.96577 0.0
S743 S 0.7659 0.55581 0.0226 0.0
N744 N 0.77202 0.56636 0.00293 0.0
N745 N 0.76594 0.53305 0.01936 0.0
C746 C 0.77109 0.53319 0.0016 0.0
C747 C 0.77442 0.55128 0.99267 0.0
C748 C 0.58039 0.77677 0.96975 0.0
C749 C 0.57569 0.79317 0.96029 0.0
C750 C 0.58945 0.77766 0.98703 0.0
C751 C 0.59407 0.79499 0.99567 0.0
H752 H 0.57651 0.763 0.9641 0.0
H753 H 0.59215 0.76456 0.99401 0.0
S754 S 0.58698 0.84231 0.97574 0.0
N755 N 0.57799 0.82748 0.96009 0.0
N756 N 0.59489 0.82911 0.99262 0.0
C757 C 0.59038 0.81159 0.98591 0.0
C758 C 0.58126 0.8107 0.96822 0.0
C759 C 0.77217 0.58455 0.06251 0.0
C760 C 0.75846 0.57612 0.07308 0.0
C761 C 0.77241 0.60319 0.05566 0.0
C762 C 0.75905 0.61427 0.05924 0.0
H763 H 0.78302 0.57684 0.05975 0.0
H764 H 0.78342 0.60908 0.04788 0.0
S765 S 0.71941 0.59848 0.08485 0.0
N766 N 0.73056 0.58001 0.08576 0.0
N767 N 0.73115 0.61504 0.07308 0.0
C768 C 0.74501 0.60587 0.06933 0.0
C769 C 0.74469 0.58683 0.0762 0.0
C770 C 0.46183 0.78038 0.07453 0.0
C771 C 0.44962 0.76437 0.07277 0.0
C772 C 0.47371 0.78231 0.08975 0.0
C773 C 0.4739 0.76836 0.10399 0.0
H774 H 0.46254 0.79142 0.06384 0.0
H775 H 0.48298 0.79479 0.09019 0.0
S776 S 0.44392 0.72419 0.10675 0.0
N777 N 0.43793 0.73464 0.0871 0.0
N778 N 0.46023 0.73829 0.11576 0.0
C779 C 0.46142 0.75252 0.10274 0.0
C780 C 0.44932 0.75051 0.08715 0.0
C781 C 0.58114 0.31089 0.068 0.0
C782 C 0.58754 0.29464 0.06169 0.0
C783 C 0.56896 0.30976 0.08181 0.0
C784 C 0.56267 0.29232 0.08998 0.0
H785 H 0.58498 0.32461 0.06169 0.0
H786 H 0.56399 0.32264 0.08557 0.0
S787 S 0.57717 0.2458 0.08039 0.0
N788 N 0.58807 0.26074 0.06614 0.0
N789 N 0.56519 0.25861 0.09212 0.0
C790 C 0.56981 0.27608 0.08471 0.0
C791 C 0.58222 0.27723 0.07057 0.0
C792 C 0.96149 0.81474 0.5689 0.0
C793 C 0.96787 0.80813 0.58626 0.0
C794 C 0.94406 0.81054 0.563 0.0
C795 C 0.93231 0.7995 0.57416 0.0
H796 H 0.97005 0.82303 0.55961 0.0
H797 H 0.93977 0.81604 0.5496 0.0
S798 S 0.94196 0.77967 0.62125 0.0
N799 N 0.96065 0.79075 0.61496 0.0
N800 N 0.92795 0.78278 0.60374 0.0
C801 C 0.93829 0.79338 0.59182 0.0
C802 C 0.95605 0.79766 0.59787 0.0
C803 C 0.2568 0.96073 0.57028 0.0
C804 C 0.26403 0.94347 0.57044 0.0
C805 C 0.25961 0.97281 0.58536 0.0
C806 C 0.2697 0.96803 0.60119 0.0
H807 H 0.24849 0.96473 0.55867 0.0
H808 H 0.25339 0.98569 0.58482 0.0
S809 S 0.29175 0.92454 0.60842 0.0
N810 N 0.28186 0.9223 0.58771 0.0
N811 N 0.28708 0.94489 0.61602 0.0
C812 C 0.27694 0.95076 0.60155 0.0
C813 C 0.2741 0.93851 0.58621 0.0
C814 C 0.07897 0.3052 0.64023 0.0
C815 C 0.06403 0.29324 0.64458 0.0
C816 C 0.08515 0.3063 0.62222 0.0
C817 C 0.07667 0.29537 0.60789 0.0
H818 H 0.08576 0.31406 0.65075 0.0
H819 H 0.09653 0.316 0.61948 0.0
S820 S 0.03823 0.25998 0.61294 0.0
N821 N 0.04193 0.26886 0.63377 0.0
N822 N 0.05317 0.27112 0.59983 0.0
C823 C 0.06199 0.28288 0.61229 0.0
C824 C 0.05577 0.28176 0.63066 0.0
C825 C 0.76794 0.08068 0.59643 0.0
C826 C 0.77679 0.08015 0.61388 0.0
C827 C 0.76879 0.09727 0.58536 0.0
C828 C 0.77874 0.11389 0.59118 0.0
H829 H 0.75972 0.06841 0.5916 0.0
H830 H 0.76101 0.09721 0.57252 0.0
S831 S 0.80517 0.11952 0.63534 0.0
N832 N 0.79623 0.09747 0.63627 0.0
N833 N 0.79814 0.12849 0.61535 0.0
C834 C 0.78791 0.1134 0.60848 0.0
C835 C 0.78689 0.09658 0.61983 0.0
C836 C 0.96583 0.2424 0.46561 0.0
C837 C 0.95681 0.25828 0.46738 0.0
C838 C 0.97911 0.2425 0.4531 0.0
C839 C 0.98393 0.25848 0.44181 0.0
H840 H 0.96333 0.23009 0.47466 0.0
H841 H 0.98625 0.23026 0.45306 0.0
S842 S 0.96199 0.3023 0.43835 0.0
N843 N 0.95187 0.2894 0.45475 0.0
N844 N 0.97683 0.28959 0.43123 0.0
C845 C 0.97395 0.27382 0.4422 0.0
C846 C 0.9604 0.27372 0.45498 0.0
C847 C 0.78428 0.9414 0.46178 0.0
C848 C 0.77193 0.94534 0.44762 0.0
C849 C 0.78673 0.92284 0.46724 0.0
C850 C 0.77694 0.90748 0.45881 0.0
H851 H 0.79192 0.95271 0.46904 0.0
H852 H 0.79631 0.92051 0.47827 0.0
S853 S 0.74397 0.90984 0.42008 0.0
N854 N 0.75056 0.9321 0.42444 0.0
N855 N 0.75521 0.89721 0.43486 0.0
C856 C 0.76512 0.9111 0.44409 0.0
C857 C 0.76256 0.93002 0.4385 0.0
C858 C 0.06389 0.77668 0.42728 0.0
C859 C 0.07068 0.76497 0.41482 0.0
C860 C 0.07161 0.77967 0.44502 0.0
C861 C 0.08656 0.77119 0.45103 0.0
H862 H 0.05265 0.78387 0.42322 0.0
H863 H 0.06572 0.78871 0.45409 0.0
S864 S 0.10996 0.73996 0.42319 0.0
N865 N 0.09354 0.74534 0.40932 0.0
N866 N 0.10822 0.75101 0.44267 0.0
C867 C 0.09377 0.7598 0.43849 0.0
C868 C 0.08584 0.75675 0.42037 0.0
C869 C 0.2517 0.15748 0.49421 0.0
C870 C 0.265 0.15808 0.4815 0.0
C871 C 0.24995 0.17284 0.50527 0.0
C872 C 0.2614 0.18941 0.50409 0.0
H873 H 0.24279 0.14487 0.49606 0.0
H874 H 0.23963 0.17163 0.51499 0.0
S875 S 0.29734 0.19912 0.4719 0.0
N876 N 0.28906 0.17735 0.46744 0.0
N877 N 0.28567 0.20622 0.48837 0.0
C878 C 0.27417 0.19067 0.49081 0.0
C879 C 0.27603 0.17499 0.47953 0.0
C880 C 0.63146 0.98306 0.79392 0.0
C881 C 0.64835 0.98139 0.78827 0.0
C882 C 0.61819 0.96815 0.79205 0.0
C883 C 0.6214 0.95089 0.78477 0.0
H884 H 0.62854 0.99574 0.80037 0.0
H885 H 0.60548 0.96998 0.79686 0.0
S886 S 0.66334 0.93912 0.76808 0.0
N887 N 0.66748 0.96102 0.77504 0.0
N888 N 0.64267 0.9329 0.77194 0.0
C889 C 0.63826 0.94891 0.77932 0.0
C890 C 0.6517 0.96415 0.78102 0.0
C891 C 0.07185 0.64103 0.76821 0.0
C892 C 0.05774 0.64314 0.77922 0.0
C893 C 0.08119 0.62529 0.77051 0.0
C894 C 0.07681 0.61106 0.78398 0.0
H895 H 0.07555 0.6515 0.7575 0.0
H896 H 0.09173 0.62413 0.76142 0.0
S897 S 0.04246 0.61132 0.81811 0.0
N898 N 0.04105 0.6308 0.80541 0.0
N899 N 0.05822 0.60095 0.80949 0.0
C900 C 0.06305 0.61333 0.79548 0.0
C901 C 0.05361 0.62943 0.79318 0.0
C902 C 0.48892 0.07997 0.71096 0.0
C903 C 0.48251 0.08719 0.7269 0.0
C904 C 0.47775 0.07308 0.69638 0.0
C905 C 0.4597 0.07309 0.69711 0.0
H906 H 0.50272 0.07936 0.70975 0.0
H907 H 0.48334 0.06779 0.68438 0.0
S908 S 0.43617 0.09148 0.73497 0.0
N909 N 0.45682 0.09475 0.74206 0.0
N910 N 0.43582 0.08175 0.71447 0.0
C911 C 0.45306 0.08087 0.71257 0.0
C912 C 0.46446 0.08788 0.72753 0.0
C913 C 0.98228 0.47598 0.79283 0.0
C914 C 0.99905 0.47883 0.80128 0.0
C915 C 0.97046 0.48941 0.79391 0.0
C916 C 0.97486 0.50619 0.80362 0.0
H917 H 0.97831 0.46341 0.78502 0.0
H918 H 0.95777 0.48659 0.78702 0.0
S919 S 0.01695 0.52018 0.8288 0.0
N920 N 0.01931 0.49955 0.82012 0.0
N921 N 0.99712 0.52469 0.82219 0.0
C922 C 0.99149 0.50908 0.81241 0.0
C923 C 0.00356 0.49544 0.81123 0.0
C924 C 0.56131 0.12524 0.27639 0.0
C925 C 0.57595 0.12126 0.28757 0.0
C926 C 0.55722 0.14376 0.2732 0.0
C927 C 0.56755 0.1591 0.2811 0.0
H928 H 0.5528 0.11396 0.27007 0.0
H929 H 0.546 0.14605 0.26426 0.0
S930 S 0.60769 0.15666 0.31083 0.0
N931 N 0.60117 0.13449 0.30606 0.0
N932 N 0.59338 0.16926 0.30011 0.0
C933 C 0.58246 0.15545 0.29192 0.0
C934 C 0.58665 0.13656 0.29519 0.0
C935 C 0.99239 0.59394 0.21459 0.0
C936 C 0.98623 0.59772 0.23199 0.0
C937 C 0.98121 0.586 0.2005 0.0
C938 C 0.96339 0.58174 0.20312 0.0
H939 H 0.00608 0.59664 0.21192 0.0
H940 H 0.98659 0.58316 0.18742 0.0
S941 S 0.94032 0.59001 0.24542 0.0
N942 N 0.96086 0.59731 0.2507 0.0
N943 N 0.93979 0.58265 0.2239 0.0
C944 C 0.95685 0.58605 0.2201 0.0
C945 C 0.9683 0.59392 0.23464 0.0
C946 C 0.44795 0.96529 0.28375 0.0
C947 C 0.45154 0.95888 0.30205 0.0
C948 C 0.43693 0.9794 0.28002 0.0
C949 C 0.42905 0.98769 0.29444 0.0
H950 H 0.45449 0.96025 0.27226 0.0
H951 H 0.43546 0.98459 0.26582 0.0
S952 S 0.43111 0.97292 0.34428 0.0
N953 N 0.44404 0.95968 0.33438 0.0
N954 N 0.42335 0.98621 0.32738 0.0
C955 C 0.43116 0.9801 0.31257 0.0
C956 C 0.4424 0.9657 0.31637 0.0
C957 C 0.14757 0.4585 0.27927 0.0
C958 C 0.14882 0.4738 0.29126 0.0
C959 C 0.13228 0.4462 0.27741 0.0
C960 C 0.1176 0.44889 0.28728 0.0
H961 H 0.15855 0.45594 0.27133 0.0
H962 H 0.13193 0.43449 0.26816 0.0
S963 S 0.1147 0.48521 0.32218 0.0
N964 N 0.13456 0.48961 0.31467 0.0
N965 N 0.10549 0.46711 0.31031 0.0
C966 C 0.11863 0.464 0.29938 0.0
C967 C 0.13434 0.47632 0.3016 0.0
C968 C 0.77639 0.69265 0.00072 0.0
C969 C 0.76173 0.69263 0.01143 0.0
C970 C 0.77893 0.67693 0.9904 0.0
C971 C 0.76685 0.6607 0.99037 0.0
H972 H 0.78629 0.70458 0.00091 0.0
H973 H 0.79073 0.67732 0.98289 0.0
S974 S 0.72494 0.65509 0.01396 0.0
N975 N 0.73399 0.67623 0.01968 0.0
N976 N 0.73875 0.64654 0.00059 0.0
C977 C 0.75164 0.66103 1.00025 0.0
C978 C 0.74908 0.67704 0.0107 0.0
C979 C 0.77923 0.45546 0.10231 0.0
C980 C 0.77099 0.47204 0.10292 0.0
C981 C 0.77576 0.44306 0.08762 0.0
C982 C 0.76393 0.44676 0.07294 0.0
H983 H 0.78845 0.452 0.11332 0.0
H984 H 0.78243 0.43048 0.08774 0.0
S985 S 0.7373 0.48698 0.06904 0.0
N986 N 0.74941 0.49069 0.0883 0.0
N987 N 0.74292 0.46738 0.06061 0.0
C988 C 0.75538 0.46313 0.07346 0.0
C989 C 0.75891 0.47578 0.08847 0.0
C990 C 0.56269 0.7845 0.1108 0.0
C991 C 0.57768 0.79672 0.10697 0.0
C992 C 0.55583 0.78325 0.12848 0.0
C993 C 0.56357 0.79426 0.14304 0.0
H994 H 0.55617 0.77569 0.10009 0.0
H995 H 0.54461 0.77322 0.13081 0.0
S996 S 0.60309 0.82837 0.14056 0.0
N997 N 0.60019 0.81993 0.11947 0.0
N998 N 0.58716 0.81763 0.15263 0.0
C999 C 0.57867 0.80638 0.13954 0.0
C1000 C 0.58571 0.80765 0.12152 0.0
C1001 C 0.26882 0.58605 0.10936 0.0
C1002 C 0.2799 0.58942 0.1252 0.0
C1003 C 0.26749 0.59998 0.09527 0.0
C1004 C 0.27718 0.61778 0.09652 0.0
H1005 H 0.26075 0.57279 0.10804 0.0
H1006 H 0.25841 0.59695 0.08362 0.0
S1007 S 0.30859 0.63346 0.13479 0.0
N1008 N 0.30108 0.61177 0.14102 0.0
N1009 N 0.29855 0.63781 0.11468 0.0
C1010 C 0.28835 0.62127 0.11225 0.0
C1011 C 0.28971 0.60714 0.12654 0.0
C1012 C 0.4473 0.32541 0.06748 0.0
C1013 C 0.44295 0.31611 0.05076 0.0
C1014 C 0.4603 0.3196 0.07987 0.0
C1015 C 0.46937 0.30421 0.07602 0.0
H1016 H 0.44114 0.33778 0.07066 0.0
H1017 H 0.46367 0.3277 0.0922 0.0
S1018 S 0.46046 0.27309 0.03558 0.0
N1019 N 0.44687 0.28929 0.03216 0.0
N1020 N 0.4715 0.27842 0.05519 0.0
C1021 C 0.4643 0.29406 0.05986 0.0
C1022 C 0.45105 0.30001 0.04728 0.0
C1023 C 0.25203 0.4017 0.97078 0.0
C1024 C 0.24541 0.39582 0.98804 0.0
C1025 C 0.24961 0.41961 0.9631 0.0
C1026 C 0.24032 0.43213 0.97236 0.0
H1027 H 0.25966 0.39269 0.96349 0.0
H1028 H 0.25548 0.42382 0.95008 0.0
S1029 S 0.21795 0.42177 0.01655 0.0
N1030 N 0.22765 0.40276 0.0132 0.0
N1031 N 0.22284 0.43628 0.99884 0.0
C1032 C 0.23281 0.42585 0.98918 0.0
C1033 C 0.23542 0.40772 0.997 0.0
C1034 C 0.58147 0.26115 0.94329 0.0
C1035 C 0.59591 0.27221 0.95123 0.0
C1036 C 0.57906 0.25956 0.92402 0.0
C1037 C 0.59086 0.26913 0.91189 0.0
H1038 H 0.57199 0.25344 0.952 0.0
H1039 H 0.56805 0.2504 0.91864 0.0
S1040 S 0.63072 0.30004 0.92536 0.0
N1041 N 0.62225 0.29293 0.94529 0.0
N1042 N 0.61754 0.29001 0.90903 0.0
C1043 C 0.6054 0.28016 0.91956 0.0
C1044 C 0.60793 0.28174 0.93922 0.0
C1045 C 0.47949 0.80456 0.94761 0.0
C1046 C 0.48347 0.7878 0.93983 0.0
C1047 C 0.46576 0.80457 0.95951 0.0
C1048 C 0.45542 0.78781 0.9642 0.0
H1049 H 0.48758 0.81769 0.94529 0.0
H1050 H 0.46389 0.8177 0.96587 0.0
S1051 S 0.45821 0.74077 0.94468 0.0
N1052 N 0.47432 0.75445 0.93551 0.0
N1053 N 0.4485 0.75448 0.95793 0.0
C1054 C 0.45825 0.77125 0.95522 0.0
C1055 C 0.47227 0.77124 0.94303 0.0
C1056 C 0.04735 0.36138 0.36125 0.0
C1057 C 0.05161 0.34293 0.36511 0.0
C1058 C 0.05306 0.37156 0.34535 0.0
C1059 C 0.06335 0.36379 0.33265 0.0
H1060 H 0.03936 0.36801 0.37047 0.0
H1061 H 0.04926 0.38564 0.343 0.0
S1062 S 0.07866 0.3162 0.3366 0.0
N1063 N 0.06712 0.31743 0.35509 0.0
N1064 N 0.07789 0.33657 0.32527 0.0
C1065 C 0.06794 0.34545 0.33647 0.0
C1066 C 0.06206 0.33503 0.35265 0.0
C1067 C 0.67069 0.03113 0.37604 0.0
C1068 C 0.68796 0.02942 0.37175 0.0
C1069 C 0.65849 0.03635 0.3624 0.0
C1070 C 0.66297 0.03982 0.34382 0.0
H1071 H 0.66652 0.02846 0.39009 0.0
H1072 H 0.64536 0.03737 0.36643 0.0
S1073 S 0.70652 0.03749 0.32528 0.0
N1074 N 0.70899 0.0319 0.34757 0.0
N1075 N 0.68601 0.04145 0.3219 0.0
C1076 C 0.68022 0.03824 0.33932 0.0
C1077 C 0.69271 0.03314 0.35328 0.0
C1078 C 0.03119 0.66927 0.33352 0.0
C1079 C 0.03853 0.6642 0.31719 0.0
C1080 C 0.0349 0.68742 0.34054 0.0
C1081 C 0.04633 0.70116 0.33168 0.0
H1082 H 0.02226 0.65923 0.34083 0.0
H1083 H 0.02876 0.69069 0.35305 0.0
S1084 S 0.06949 0.69483 0.28879 0.0
N1085 N 0.05805 0.6743 0.2925 0.0
N1086 N 0.06522 0.70829 0.30581 0.0
C1087 C 0.05401 0.69618 0.31549 0.0
C1088 C 0.05005 0.67776 0.30821 0.0
C1089 C 0.37123 0.07858 0.38312 0.0
C1090 C 0.36576 0.07606 0.3644 0.0
C1091 C 0.35999 0.08402 0.39612 0.0
C1092 C 0.34274 0.08701 0.391 0.0
H1093 H 0.38434 0.07637 0.38785 0.0
H1094 H 0.36487 0.08566 0.41036 0.0
S1095 S 0.32194 0.08247 0.34366 0.0
N1096 N 0.34191 0.07718 0.34133 0.0
N1097 N 0.32076 0.08725 0.36578 0.0
C1098 C 0.33708 0.08462 0.3723 0.0
C1099 C 0.34859 0.07921 0.35901 0.0
C1100 C 0.04443 0.74485 0.70955 0.0
C1101 C 0.03567 0.72691 0.71329 0.0
C1102 C 0.04229 0.75411 0.69229 0.0
C1103 C 0.03146 0.74576 0.67794 0.0
H1104 H 0.05275 0.75203 0.72017 0.0
H1105 H 0.04914 0.76802 0.69025 0.0
S1106 S 0.00626 0.6985 0.68025 0.0
N1107 N 0.01616 0.70083 0.70095 0.0
N1108 N 0.01227 0.71814 0.66847 0.0
C1109 C 0.02294 0.72761 0.68132 0.0
C1110 C 0.02501 0.71823 0.69898 0.0
C1111 C 0.36206 0.02014 0.66417 0.0
C1112 C 0.366 0.03852 0.65679 0.0
C1113 C 0.34485 0.0121 0.66549 0.0
C1114 C 0.33082 0.02204 0.65938 0.0
H1115 H 0.37235 0.01174 0.66881 0.0
H1116 H 0.34259 0.99781 0.67105 0.0
S1117 S 0.33399 0.07097 0.63973 0.0
N1118 N 0.35434 0.06673 0.64389 0.0
N1119 N 0.32202 0.05158 0.64629 0.0
C1120 C 0.33453 0.04058 0.65232 0.0
C1121 C 0.35209 0.04883 0.65106 0.0
C1122 C 0.04948 0.35331 0.73992 0.0
C1123 C 0.04192 0.34516 0.72357 0.0
C1124 C 0.045 0.37061 0.74577 0.0
C1125 C 0.03306 0.38063 0.7353 0.0
H1126 H 0.05877 0.34616 0.74844 0.0
H1127 H 0.05111 0.37627 0.75852 0.0
S1128 S 0.00981 0.36558 0.69121 0.0
N1129 N 0.02192 0.34844 0.69693 0.0
N1130 N 0.01379 0.38116 0.70772 0.0
C1131 C 0.02553 0.37274 0.71881 0.0
C1132 C 0.02987 0.35495 0.71301 0.0
C1133 C 0.72881 0.03516 0.7124 0.0
C1134 C 0.74666 0.03316 0.71223 0.0
C1135 C 0.71999 0.03352 0.72898 0.0
C1136 C 0.72858 0.0295 0.74603 0.0
H1137 H 0.72154 0.03798 0.69959 0.0
H1138 H 0.70622 0.03504 0.72833 0.0
S1139 S 0.77538 0.02341 0.75331 0.0
N1140 N 0.77274 0.02742 0.73074 0.0
N1141 N 0.75608 0.02406 0.76184 0.0
C1142 C 0.74647 0.02765 0.74613 0.0
C1143 C 0.75552 0.02958 0.72926 0.0
C1144 C 0.33623 0.34684 0.02661 0.0
C1145 C 0.3461 0.33659 0.01549 0.0
C1146 C 0.31808 0.34525 0.02465 0.0
C1147 C 0.309 0.33347 0.01138 0.0
H1148 H 0.34256 0.35641 0.03679 0.0
H1149 H 0.31115 0.3537 0.03336 0.0
S1150 S 0.32855 0.30264 0.97954 0.0
N1151 N 0.3453 0.31347 0.99129 0.0
N1152 N 0.31121 0.31061 0.98754 0.0
C1153 C 0.31864 0.32275 0.00047 0.0
C1154 C 0.33716 0.32427 0.00255 0.0
C1155 C 0.33209 0.71648 0.05094 0.0
C1156 C 0.32636 0.69775 0.04638 0.0
C1157 C 0.34856 0.72487 0.04629 0.0
C1158 C 0.36009 0.7148 0.0371 0.0
H1159 H 0.32375 0.72484 0.05806 0.0
H1160 H 0.35231 0.73933 0.05011 0.0
S1161 S 0.35147 0.66526 0.02212 0.0
N1162 N 0.33358 0.66934 0.03209 0.0
N1163 N 0.36458 0.68503 0.02355 0.0
C1164 C 0.35457 0.69602 0.03251 0.0
C1165 C 0.33771 0.68753 0.03707 0.0
C1166 C 0.68324 0.33864 0.02955 0.0
C1167 C 0.66971 0.34782 0.02086 0.0
C1168 C 0.69977 0.34819 0.03301 0.0
C1169 C 0.70354 0.36731 0.02778 0.0
H1170 H 0.68109 0.32389 0.03374 0.0
H1171 H 0.70972 0.3404 0.03963 0.0
S1172 S 0.67263 0.39803 0.00491 0.0
N1173 N 0.66116 0.37732 0.00737 0.0
N1174 N 0.69224 0.39522 0.01375 0.0
C1175 C 0.69012 0.37674 0.0192 0.0
C1176 C 0.67322 0.36703 0.01578 0.0
C1177 C 0.68014 0.75323 0.05562 0.0
C1178 C 0.67449 0.77055 0.04946 0.0
C1179 C 0.69739 0.74956 0.05396 0.0
C1180 C 0.70964 0.76294 0.04582 0.0
H1181 H 0.6712 0.7424 0.06187 0.0
H1182 H 0.70107 0.736 0.05892 0.0
S1183 S 0.7015 0.81053 0.02742 0.0
N1184 N 0.68259 0.80131 0.03497 0.0
N1185 N 0.71492 0.79431 0.03164 0.0
C1186 C 0.70417 0.78033 0.03957 0.0
C1187 C 0.68664 0.78416 0.04146 0.0
C1188 C 0.57659 0.84508 0.83508 0.0
C1189 C 0.57115 0.863 0.83105 0.0
C1190 C 0.57057 0.83414 0.85041 0.0
C1191 C 0.55892 0.8407 0.86245 0.0
H1192 H 0.58539 0.83924 0.82617 0.0
H1193 H 0.57504 0.82036 0.85272 0.0
S1194 S 0.54121 0.88707 0.85856 0.0
N1195 N 0.55377 0.88709 0.84073 0.0
N1196 N 0.54252 0.86659 0.86955 0.0
C1197 C 0.55361 0.85877 0.85881 0.0
C1198 C 0.5597 0.86989 0.84312 0.0
C1199 C 0.17485 0.52618 0.88075 0.0
C1200 C 0.1926 0.52573 0.87774 0.0
C1201 C 0.16345 0.53243 0.86678 0.0
C1202 C 0.16928 0.53837 0.84914 0.0
H1203 H 0.16963 0.52165 0.89402 0.0
H1204 H 0.1499 0.53235 0.86983 0.0
S1205 S 0.2146 0.54026 0.83413 0.0
N1206 N 0.21553 0.53208 0.85578 0.0
N1207 N 0.19411 0.54369 0.82952 0.0
C1208 C 0.18703 0.53813 0.84595 0.0
C1209 C 0.19868 0.53187 0.86024 0.0
C1210 C 0.55382 0.20734 0.82323 0.0
C1211 C 0.56707 0.20823 0.8373 0.0
C1212 C 0.5443 0.19013 0.8187 0.0
C1213 C 0.54733 0.17333 0.82846 0.0
H1214 H 0.55111 0.21995 0.81535 0.0
H1215 H 0.53444 0.19 0.80753 0.0
S1216 S 0.58007 0.16829 0.86702 0.0
N1217 N 0.58254 0.19094 0.86115 0.0
N1218 N 0.56427 0.15873 0.85307 0.0
C1219 C 0.56024 0.17413 0.84287 0.0
C1220 C 0.57021 0.19155 0.84716 0.0
C1221 C 0.8184 0.592 0.86705 0.0
C1222 C 0.82526 0.59121 0.88545 0.0
C1223 C 0.82792 0.58733 0.85214 0.0
C1224 C 0.84459 0.5814 0.85504 0.0
H1225 H 0.80552 0.59622 0.8641 0.0
H1226 H 0.82198 0.588 0.83827 0.0
S1227 S 0.8687 0.57738 0.90047 0.0
N1228 N 0.85 0.5845 0.90568 0.0
N1229 N 0.86778 0.5755 0.87769 0.0
C1230 C 0.85171 0.58075 0.87334 0.0
C1231 C 0.84209 0.58572 0.88852 0.0
C1232 C 0.55417 0.25618 0.21124 0.0
C1233 C 0.54631 0.23958 0.21968 0.0
C1234 C 0.54815 0.26262 0.1938 0.0
C1235 C 0.53426 0.25252 0.18394 0.0
H1236 H 0.56489 0.26448 0.2183 0.0
H1237 H 0.55454 0.27556 0.18794 0.0
S1238 S 0.50949 0.2079 0.19969 0.0
N1239 N 0.52399 0.21304 0.21679 0.0
N1240 N 0.51292 0.22492 0.18382 0.0
C1241 C 0.52644 0.23573 0.19208 0.0
C1242 C 0.53239 0.22934 0.21001 0.0
C1243 C 0.86568 0.52285 0.16903 0.0
C1244 C 0.86951 0.54142 0.16209 0.0
C1245 C 0.84854 0.51439 0.16953 0.0
C1246 C 0.83447 0.52408 0.16305 0.0
H1247 H 0.87601 0.51463 0.17396 0.0
H1248 H 0.84638 0.49999 0.17483 0.0
S1249 S 0.83732 0.57331 0.14417 0.0
N1250 N 0.85767 0.56949 0.14909 0.0
N1251 N 0.8255 0.55357 0.14999 0.0
C1252 C 0.83806 0.54279 0.15637 0.0
C1253 C 0.85554 0.55145 0.15592 0.0
C1254 C 0.52633 0.86906 0.22988 0.0
C1255 C 0.53345 0.87441 0.24747 0.0
C1256 C 0.53061 0.85276 0.22162 0.0
C1257 C 0.54243 0.84137 0.23046 0.0
H1258 H 0.51703 0.87727 0.22259 0.0
H1259 H 0.52456 0.84907 0.2082 0.0
S1260 S 0.56538 0.8497 0.27629 0.0
N1261 N 0.55328 0.86731 0.27325 0.0
N1262 N 0.56158 0.83689 0.25759 0.0
C1263 C 0.55001 0.84683 0.24784 0.0
C1264 C 0.54544 0.86327 0.25639 0.0
C1265 C 0.24799 0.51777 0.2216 0.0
C1266 C 0.25246 0.53734 0.21964 0.0
C1267 C 0.23795 0.51007 0.2362 0.0
C1268 C 0.2317 0.52165 0.24923 0.0
H1269 H 0.25287 0.50822 0.21225 0.0
H1270 H 0.23533 0.49488 0.23747 0.0
S1271 S 0.23835 0.57396 0.24917 0.0
N1272 N 0.24897 0.56824 0.23124 0.0
N1273 N 0.2298 0.55383 0.25846 0.0
C1274 C 0.23535 0.54132 0.24687 0.0
C1275 C 0.24582 0.54914 0.23216 0.0
C1276 C 0.83002 0.82047 0.53467 0.0
C1277 C 0.84392 0.81149 0.52855 0.0
C1278 C 0.8182 0.82814 0.52205 0.0
C1279 C 0.81982 0.82725 0.50274 0.0
H1280 H 0.82783 0.82102 0.54935 0.0
H1281 H 0.80743 0.83434 0.52753 0.0
S1282 S 0.85513 0.80718 0.47949 0.0
N1283 N 0.85947 0.80354 0.50186 0.0
N1284 N 0.83734 0.81801 0.47814 0.0
C1285 C 0.83419 0.81918 0.49642 0.0
C1286 C 0.8462 0.81128 0.50931 0.0
C1287 C 0.85238 0.2281 0.55281 0.0
C1288 C 0.86334 0.21913 0.54177 0.0
C1289 C 0.83637 0.219 0.5581 0.0
C1290 C 0.83052 0.20068 0.55231 0.0
H1291 H 0.85624 0.24224 0.55755 0.0
H1292 H 0.82841 0.22652 0.56659 0.0
S1293 S 0.85428 0.17097 0.52326 0.0
N1294 N 0.86726 0.19077 0.52533 0.0
N1295 N 0.83704 0.1738 0.53502 0.0
C1296 C 0.84133 0.19154 0.54124 0.0
C1297 C 0.85776 0.20072 0.53606 0.0
C1298 C 0.20519 0.8431 0.5264 0.0
C1299 C 0.20761 0.86218 0.52061 0.0
C1300 C 0.18936 0.83207 0.52296 0.0
C1301 C 0.17522 0.83966 0.51364 0.0
H1302 H 0.21564 0.83649 0.53356 0.0
H1303 H 0.18825 0.81745 0.52769 0.0
S1304 S 0.17463 0.88903 0.49583 0.0
N1305 N 0.19438 0.8883 0.50523 0.0
N1306 N 0.16464 0.86761 0.49882 0.0
C1307 C 0.17739 0.85878 0.50787 0.0
C1308 C 0.19356 0.87002 0.51134 0.0
C1309 C 0.1971 0.24863 0.54862 0.0
C1310 C 0.20999 0.26154 0.5409 0.0
C1311 C 0.18023 0.25341 0.5506 0.0
C1312 C 0.17562 0.27139 0.5452 0.0
H1313 H 0.19997 0.23461 0.55303 0.0
H1314 H 0.17077 0.24292 0.55655 0.0
S1315 S 0.20463 0.31049 0.52442 0.0
N1316 N 0.217 0.29317 0.52787 0.0
N1317 N 0.18539 0.30222 0.53181 0.0
C1318 C 0.18842 0.28451 0.53758 0.0
C1319 C 0.20556 0.27956 0.53536 0.0
loop_
_geom_bond_atom_site_label_1
_geom_bond_atom_site_label_2
_geom_bond_distance
_geom_bond_site_symmetry_2
_ccdc_geom_bond_type
O0 Cd1 2.300 . S
O0 C7 1.275 . S
Cd1 O0 2.300 . S
Cd1 O9 2.381 . S
Cd1 O10 2.378 . S
O2 Cd3 2.385 . S
O2 C7 1.255 . S
Cd3 O2 2.385 . S
Cd3 O4 2.317 . S
O4 Cd3 2.317 . S
O4 C5 1.232 . S
C5 O4 1.232 . S
C5 O6 1.218 . S
O6 C5 1.218 . S
C7 O0 1.275 . S
C7 O2 1.255 . S
C8 O9 1.258 . S
C8 O10 1.256 . S
O9 Cd1 2.381 . S
O9 C8 1.258 . S
O10 Cd1 2.378 . S
O10 C8 1.256 . S
O11 Cd12 2.300 . S
O11 C18 1.275 . S
Cd12 O11 2.300 . S
Cd12 O20 2.381 . S
Cd12 O21 2.378 . S
O13 Cd14 2.385 . S
O13 C18 1.255 . S
Cd14 O13 2.385 . S
Cd14 O15 2.317 1_545 S
O15 Cd14 2.317 1_565 S
O15 C16 1.232 . S
C16 O15 1.232 . S
C16 O17 1.218 . S
O17 C16 1.218 . S
C18 O11 1.275 . S
C18 O13 1.255 . S
C19 O20 1.258 . S
C19 O21 1.256 . S
O20 Cd12 2.381 . S
O20 C19 1.258 . S
O21 Cd12 2.378 . S
O21 C19 1.256 . S
O22 Cd23 2.300 . S
O22 C29 1.275 . S
Cd23 O22 2.300 . S
Cd23 O31 2.381 . S
Cd23 O32 2.378 . S
O24 Cd25 2.385 . S
O24 C29 1.255 . S
Cd25 O24 2.385 . S
Cd25 O26 2.317 1_455 S
O26 Cd25 2.317 1_655 S
O26 C27 1.232 . S
C27 O26 1.232 . S
C27 O28 1.212 1_655 S
O28 C27 1.212 1_455 S
C29 O22 1.275 . S
C29 O24 1.255 . S
C30 O31 1.258 . S
C30 O32 1.256 . S
O31 Cd23 2.381 . S
O31 C30 1.258 . S
O32 Cd23 2.378 . S
O32 C30 1.256 . S
O33 Cd34 2.300 . S
O33 C40 1.275 . S
Cd34 O33 2.300 . S
Cd34 O42 2.381 . S
Cd34 O43 2.378 . S
O35 Cd36 2.385 . S
O35 C40 1.255 . S
Cd36 O35 2.385 . S
Cd36 O37 2.317 . S
O37 Cd36 2.317 . S
O37 C38 1.232 . S
C38 O37 1.232 . S
C38 O39 1.218 . S
O39 C38 1.218 . S
C40 O33 1.275 . S
C40 O35 1.255 . S
C41 O42 1.258 . S
C41 O43 1.256 . S
O42 Cd34 2.381 . S
O42 C41 1.258 . S
O43 Cd34 2.378 . S
O43 C41 1.256 . S
O44 Cd45 2.300 . S
O44 C51 1.275 . S
Cd45 O44 2.300 . S
Cd45 O53 2.381 . S
Cd45 O54 2.378 . S
O46 Cd47 2.385 . S
O46 C51 1.255 . S
Cd47 O46 2.385 . S
Cd47 O48 2.317 . S
O48 Cd47 2.317 . S
O48 C49 1.222 1_455 S
C49 O48 1.222 1_655 S
C49 O50 1.193 1_655 S
O50 C49 1.193 1_455 S
C51 O44 1.275 . S
C51 O46 1.255 . S
C52 O53 1.258 . S
C52 O54 1.256 . S
O53 Cd45 2.381 . S
O53 C52 1.258 . S
O54 Cd45 2.378 . S
O54 C52 1.256 . S
O55 Cd56 2.300 . S
O55 C62 1.275 . S
Cd56 O55 2.300 . S
Cd56 O64 2.381 . S
Cd56 O65 2.378 . S
O57 Cd58 2.385 . S
O57 C62 1.255 . S
Cd58 O57 2.385 . S
Cd58 O59 2.317 . S
O59 Cd58 2.317 . S
O59 C60 1.232 . S
C60 O59 1.232 . S
C60 O61 1.218 . S
O61 C60 1.218 . S
C62 O55 1.275 . S
C62 O57 1.255 . S
C63 O64 1.258 . S
C63 O65 1.256 . S
O64 Cd56 2.381 . S
O64 C63 1.258 . S
O65 Cd56 2.378 . S
O65 C63 1.256 . S
O66 Cd67 2.300 . S
O66 C73 1.275 . S
Cd67 O66 2.300 . S
Cd67 O75 2.381 . S
Cd67 O76 2.378 . S
O68 Cd69 2.385 . S
O68 C73 1.255 . S
Cd69 O68 2.385 . S
Cd69 O70 2.317 1_455 S
O70 Cd69 2.317 1_655 S
O70 C71 1.232 . S
C71 O70 1.232 . S
C71 O72 1.218 . S
O72 C71 1.218 . S
C73 O66 1.275 . S
C73 O68 1.255 . S
C74 O75 1.258 . S
C74 O76 1.256 . S
O75 Cd67 2.381 . S
O75 C74 1.258 . S
O76 Cd67 2.378 . S
O76 C74 1.256 . S
O77 Cd78 2.300 . S
O77 C84 1.275 . S
Cd78 O77 2.300 . S
Cd78 O86 2.381 . S
Cd78 O87 2.378 . S
O79 Cd80 2.385 . S
O79 C84 1.255 . S
Cd80 O79 2.385 . S
Cd80 O81 2.317 1_545 S
O81 Cd80 2.317 1_565 S
O81 C82 1.232 . S
C82 O81 1.232 . S
C82 O83 1.218 . S
O83 C82 1.218 . S
C84 O77 1.275 . S
C84 O79 1.255 . S
C85 O86 1.258 . S
C85 O87 1.256 . S
O86 Cd78 2.381 . S
O86 C85 1.258 . S
O87 Cd78 2.378 . S
O87 C85 1.256 . S
O88 Cd89 2.300 . S
O88 C95 1.275 . S
Cd89 O88 2.300 . S
Cd89 O97 2.381 . S
Cd89 O98 2.378 . S
O90 Cd91 2.385 . S
O90 C95 1.255 . S
Cd91 O90 2.385 . S
Cd91 O92 2.317 . S
O92 Cd91 2.317 . S
O92 C93 1.232 . S
C93 O92 1.232 . S
C93 O94 1.218 . S
O94 C93 1.218 . S
C95 O88 1.275 . S
C95 O90 1.255 . S
C96 O97 1.258 . S
C96 O98 1.256 . S
O97 Cd89 2.381 . S
O97 C96 1.258 . S
O98 Cd89 2.378 . S
O98 C96 1.256 . S
O99 Cd100 2.300 . S
O99 C106 1.275 . S
Cd100 O99 2.300 . S
Cd100 O108 2.381 . S
Cd100 O109 2.378 . S
O101 Cd102 2.385 . S
O101 C106 1.255 . S
Cd102 O101 2.385 . S
Cd102 O103 2.317 . S
O103 Cd102 2.317 . S
O103 C104 1.232 . S
C104 O103 1.232 . S
C104 O105 1.218 . S
O105 C104 1.218 . S
C106 O99 1.275 . S
C106 O101 1.255 . S
C107 O108 1.258 . S
C107 O109 1.256 . S
O108 Cd100 2.381 . S
O108 C107 1.258 . S
O109 Cd100 2.378 . S
O109 C107 1.256 . S
O110 Cd111 2.300 . S
O110 C117 1.275 . S
Cd111 O110 2.300 . S
Cd111 O119 2.381 . S
Cd111 O120 2.378 . S
O112 Cd113 2.385 . S
O112 C117 1.255 . S
Cd113 O112 2.385 . S
Cd113 O114 2.317 . S
O114 Cd113 2.317 . S
O114 C115 1.232 . S
C115 O114 1.232 . S
C115 O116 1.218 . S
O116 C115 1.218 . S
C117 O110 1.275 . S
C117 O112 1.255 . S
C118 O119 1.258 . S
C118 O120 1.256 . S
O119 Cd111 2.381 . S
O119 C118 1.258 . S
O120 Cd111 2.378 . S
O120 C118 1.256 . S
O121 Cd122 2.300 . S
O121 C128 1.275 . S
Cd122 O121 2.300 . S
Cd122 O130 2.381 . S
Cd122 O131 2.378 . S
O123 Cd124 2.385 . S
O123 C128 1.255 . S
Cd124 O123 2.385 . S
Cd124 O125 2.317 . S
O125 Cd124 2.317 . S
O125 C126 1.232 . S
C126 O125 1.232 . S
C126 O127 1.218 . S
O127 C126 1.218 . S
C128 O121 1.275 . S
C128 O123 1.255 . S
C129 O130 1.258 . S
C129 O131 1.256 . S
O130 Cd122 2.381 . S
O130 C129 1.258 . S
O131 Cd122 2.378 . S
O131 C129 1.256 . S
O132 Cd133 2.300 . S
O132 C139 1.275 . S
Cd133 O132 2.300 . S
Cd133 O141 2.381 . S
Cd133 O142 2.378 . S
O134 Cd135 2.385 . S
O134 C139 1.255 . S
Cd135 O134 2.385 . S
Cd135 O136 2.317 1_545 S
O136 Cd135 2.317 1_565 S
O136 C137 1.232 . S
C137 O136 1.232 . S
C137 O138 1.218 . S
O138 C137 1.218 . S
C139 O132 1.275 . S
C139 O134 1.255 . S
C140 O141 1.258 . S
C140 O142 1.256 . S
O141 Cd133 2.381 . S
O141 C140 1.258 . S
O142 Cd133 2.378 . S
O142 C140 1.256 . S
O143 Cd144 2.300 . S
O143 C150 1.275 . S
Cd144 O143 2.300 . S
Cd144 O152 2.381 . S
Cd144 O153 2.378 . S
O145 Cd146 2.385 . S
O145 C150 1.255 . S
Cd146 O145 2.385 . S
Cd146 O147 2.317 1_455 S
O147 Cd146 2.317 1_655 S
O147 C148 1.232 . S
C148 O147 1.232 . S
C148 O149 1.218 . S
O149 C148 1.218 . S
C150 O143 1.275 . S
C150 O145 1.255 . S
C151 O152 1.258 . S
C151 O153 1.256 . S
O152 Cd144 2.381 . S
O152 C151 1.258 . S
O153 Cd144 2.378 . S
O153 C151 1.256 . S
O154 Cd155 2.300 . S
O154 C161 1.275 . S
Cd155 O154 2.300 . S
Cd155 O163 2.381 . S
Cd155 O164 2.378 . S
O156 Cd157 2.385 . S
O156 C161 1.255 . S
Cd157 O156 2.385 . S
Cd157 O158 2.317 . S
O158 Cd157 2.317 . S
O158 C159 1.232 . S
C159 O158 1.232 . S
C159 O160 1.218 . S
O160 C159 1.218 . S
C161 O154 1.275 . S
C161 O156 1.255 . S
C162 O163 1.258 . S
C162 O164 1.256 . S
O163 Cd155 2.381 . S
O163 C162 1.258 . S
O164 Cd155 2.378 . S
O164 C162 1.256 . S
O165 Cd166 2.300 . S
O165 C172 1.275 . S
Cd166 O165 2.300 . S
Cd166 O174 2.381 . S
Cd166 O175 2.378 . S
O167 Cd168 2.385 . S
O167 C172 1.255 . S
Cd168 O167 2.385 . S
Cd168 O169 2.317 1_455 S
O169 Cd168 2.317 1_655 S
O169 C170 1.232 . S
C170 O169 1.232 . S
C170 O171 1.218 . S
O171 C170 1.218 . S
C172 O165 1.275 . S
C172 O167 1.255 . S
C173 O174 1.258 . S
C173 O175 1.256 . S
O174 Cd166 2.381 . S
O174 C173 1.258 . S
O175 Cd166 2.378 . S
O175 C173 1.256 . S
O176 Cd177 2.300 . S
O176 C183 1.275 . S
Cd177 O176 2.300 . S
Cd177 O185 2.381 . S
Cd177 O186 2.378 . S
O178 Cd179 2.385 . S
O178 C183 1.255 . S
Cd179 O178 2.385 . S
Cd179 O180 2.317 . S
O180 Cd179 2.317 . S
O180 C181 1.232 . S
C181 O180 1.232 . S
C181 O182 1.218 . S
O182 C181 1.218 . S
C183 O176 1.275 . S
C183 O178 1.255 . S
C184 O185 1.258 . S
C184 O186 1.256 . S
O185 Cd177 2.381 . S
O185 C184 1.258 . S
O186 Cd177 2.378 . S
O186 C184 1.256 . S
O187 Cd188 2.300 . S
O187 C194 1.275 . S
Cd188 O187 2.300 . S
Cd188 O196 2.381 . S
Cd188 O197 2.378 . S
O189 Cd190 2.385 . S
O189 C194 1.255 . S
Cd190 O189 2.385 . S
Cd190 O191 2.317 . S
O191 Cd190 2.317 . S
O191 C192 1.232 . S
C192 O191 1.232 . S
C192 O193 1.218 . S
O193 C192 1.218 . S
C194 O187 1.275 . S
C194 O189 1.255 . S
C195 O196 1.258 . S
C195 O197 1.256 . S
O196 Cd188 2.381 . S
O196 C195 1.258 . S
O197 Cd188 2.378 . S
O197 C195 1.256 . S
O198 Cd199 2.300 . S
O198 C205 1.275 . S
Cd199 O198 2.300 . S
Cd199 O207 2.381 . S
Cd199 O208 2.378 1_554 S
O200 Cd201 2.385 1_554 S
O200 C205 1.255 . S
Cd201 O200 2.385 1_556 S
Cd201 O202 2.317 . S
O202 Cd201 2.317 . S
O202 C203 1.232 . S
C203 O202 1.232 . S
C203 O204 1.218 . S
O204 C203 1.218 . S
C205 O198 1.275 . S
C205 O200 1.255 . S
C206 O207 1.258 . S
C206 O208 1.256 1_554 S
O207 Cd199 2.381 . S
O207 C206 1.258 . S
O208 Cd199 2.378 1_556 S
O208 C206 1.256 1_556 S
O209 Cd210 2.300 . S
O209 C216 1.275 . S
Cd210 O209 2.300 . S
Cd210 O218 2.381 . S
Cd210 O219 2.378 . S
O211 Cd212 2.385 . S
O211 C216 1.255 . S
Cd212 O211 2.385 . S
Cd212 O213 2.317 1_554 S
O213 Cd212 2.317 1_556 S
O213 C214 1.232 . S
C214 O213 1.232 . S
C214 O215 1.218 1_556 S
O215 C214 1.218 1_554 S
C216 O209 1.275 . S
C216 O211 1.255 . S
C217 O218 1.258 . S
C217 O219 1.256 . S
O218 Cd210 2.381 . S
O218 C217 1.258 . S
O219 Cd210 2.378 . S
O219 C217 1.256 . S
O220 Cd221 2.300 . S
O220 C227 1.275 . S
Cd221 O220 2.300 . S
Cd221 O229 2.381 . S
Cd221 O230 2.378 . S
O222 Cd223 2.385 . S
O222 C227 1.255 . S
Cd223 O222 2.385 . S
Cd223 O224 2.317 . S
O224 Cd223 2.317 . S
O224 C225 1.232 . S
C225 O224 1.232 . S
C225 O226 1.218 . S
O226 C225 1.218 . S
C227 O220 1.275 . S
C227 O222 1.255 . S
C228 O229 1.258 . S
C228 O230 1.256 . S
O229 Cd221 2.381 . S
O229 C228 1.258 . S
O230 Cd221 2.378 . S
O230 C228 1.256 . S
O231 Cd232 2.300 . S
O231 C238 1.275 . S
Cd232 O231 2.300 . S
Cd232 O240 2.381 . S
Cd232 O241 2.378 . S
O233 Cd234 2.385 . S
O233 C238 1.255 . S
Cd234 O233 2.385 . S
Cd234 O235 2.317 . S
O235 Cd234 2.317 . S
O235 C236 1.232 . S
C236 O235 1.232 . S
C236 O237 1.218 . S
O237 C236 1.218 . S
C238 O231 1.275 . S
C238 O233 1.255 . S
C239 O240 1.258 . S
C239 O241 1.256 . S
O240 Cd232 2.381 . S
O240 C239 1.258 . S
O241 Cd232 2.378 . S
O241 C239 1.256 . S
O242 Cd243 2.300 . S
O242 C249 1.275 . S
Cd243 O242 2.300 . S
Cd243 O251 2.381 . S
Cd243 O252 2.378 . S
O244 Cd245 2.385 . S
O244 C249 1.255 . S
Cd245 O244 2.385 . S
Cd245 O246 2.317 . S
O246 Cd245 2.317 . S
O246 C247 1.232 . S
C247 O246 1.232 . S
C247 O248 1.218 . S
O248 C247 1.218 . S
C249 O242 1.275 . S
C249 O244 1.255 . S
C250 O251 1.258 . S
C250 O252 1.256 . S
O251 Cd243 2.381 . S
O251 C250 1.258 . S
O252 Cd243 2.378 . S
O252 C250 1.256 . S
O253 Cd254 2.300 . S
O253 C260 1.275 . S
Cd254 O253 2.300 . S
Cd254 O262 2.381 . S
Cd254 O263 2.378 . S
O255 Cd256 2.385 . S
O255 C260 1.255 . S
Cd256 O255 2.385 . S
Cd256 O257 2.317 1_554 S
O257 Cd256 2.317 1_556 S
O257 C258 1.232 . S
C258 O257 1.232 . S
C258 O259 1.218 . S
O259 C258 1.218 . S
C260 O253 1.275 . S
C260 O255 1.255 . S
C261 O262 1.258 . S
C261 O263 1.256 . S
O262 Cd254 2.381 . S
O262 C261 1.258 . S
O263 Cd254 2.378 . S
O263 C261 1.256 . S
O264 Cd265 2.300 . S
O264 C271 1.275 . S
Cd265 O264 2.300 . S
Cd265 O273 2.381 . S
Cd265 O274 2.378 . S
O266 Cd267 2.385 . S
O266 C271 1.255 . S
Cd267 O266 2.385 . S
Cd267 O268 2.317 . S
O268 Cd267 2.317 . S
O268 C269 1.232 . S
C269 O268 1.232 . S
C269 O270 1.218 . S
O270 C269 1.218 . S
C271 O264 1.275 . S
C271 O266 1.255 . S
C272 O273 1.258 . S
C272 O274 1.256 . S
O273 Cd265 2.381 . S
O273 C272 1.258 . S
O274 Cd265 2.378 . S
O274 C272 1.256 . S
O275 Cd276 2.300 . S
O275 C282 1.275 . S
Cd276 O275 2.300 . S
Cd276 O284 2.381 . S
Cd276 O285 2.378 . S
O277 Cd278 2.385 . S
O277 C282 1.255 . S
Cd278 O277 2.385 . S
Cd278 O279 2.317 . S
O279 Cd278 2.317 . S
O279 C280 1.232 . S
C280 O279 1.232 . S
C280 O281 1.218 . S
O281 C280 1.218 . S
C282 O275 1.275 . S
C282 O277 1.255 . S
C283 O284 1.258 . S
C283 O285 1.256 . S
O284 Cd276 2.381 . S
O284 C283 1.258 . S
O285 Cd276 2.378 . S
O285 C283 1.256 . S
O286 Cd287 2.300 . S
O286 C293 1.275 . S
Cd287 O286 2.300 . S
Cd287 O295 2.381 . S
Cd287 O296 2.378 . S
O288 Cd289 2.385 . S
O288 C293 1.255 . S
Cd289 O288 2.385 . S
Cd289 O290 2.317 . S
O290 Cd289 2.317 . S
O290 C291 1.232 . S
C291 O290 1.232 . S
C291 O292 1.218 . S
O292 C291 1.218 . S
C293 O286 1.275 . S
C293 O288 1.255 . S
C294 O295 1.258 . S
C294 O296 1.256 . S
O295 Cd287 2.381 . S
O295 C294 1.258 . S
O296 Cd287 2.378 . S
O296 C294 1.256 . S
O297 Cd298 2.300 . S
O297 C304 1.275 . S
Cd298 O297 2.300 . S
Cd298 O306 2.381 . S
Cd298 O307 2.378 . S
O299 Cd300 2.385 . S
O299 C304 1.255 . S
Cd300 O299 2.385 . S
Cd300 O301 2.317 . S
O301 Cd300 2.317 . S
O301 C302 1.232 . S
C302 O301 1.232 . S
C302 O303 1.218 . S
O303 C302 1.218 . S
C304 O297 1.275 . S
C304 O299 1.255 . S
C305 O306 1.258 . S
C305 O307 1.256 . S
O306 Cd298 2.381 . S
O306 C305 1.258 . S
O307 Cd298 2.378 . S
O307 C305 1.256 . S
O308 Cd309 2.300 . S
O308 C315 1.275 . S
Cd309 O308 2.300 . S
Cd309 O317 2.381 . S
Cd309 O318 2.378 . S
O310 Cd311 2.385 . S
O310 C315 1.255 . S
Cd311 O310 2.385 . S
Cd311 O312 2.317 . S
O312 Cd311 2.317 . S
O312 C313 1.232 . S
C313 O312 1.232 . S
C313 O314 1.218 . S
O314 C313 1.218 . S
C315 O308 1.275 . S
C315 O310 1.255 . S
C316 O317 1.258 . S
C316 O318 1.256 . S
O317 Cd309 2.381 . S
O317 C316 1.258 . S
O318 Cd309 2.378 . S
O318 C316 1.256 . S
O319 Cd320 2.300 . S
O319 C326 1.275 . S
Cd320 O319 2.300 . S
Cd320 O328 2.381 . S
Cd320 O329 2.378 . S
O321 Cd322 2.385 . S
O321 C326 1.255 . S
Cd322 O321 2.385 . S
Cd322 O323 2.317 . S
O323 Cd322 2.317 . S
O323 C324 1.232 . S
C324 O323 1.232 . S
C324 O325 1.218 . S
O325 C324 1.218 . S
C326 O319 1.275 . S
C326 O321 1.255 . S
C327 O328 1.258 . S
C327 O329 1.256 . S
O328 Cd320 2.381 . S
O328 C327 1.258 . S
O329 Cd320 2.378 . S
O329 C327 1.256 . S
O330 Cd331 2.300 . S
O330 C337 1.275 . S
Cd331 O330 2.300 . S
Cd331 O339 2.381 . S
Cd331 O340 2.378 . S
O332 Cd333 2.385 . S
O332 C337 1.255 . S
Cd333 O332 2.385 . S
Cd333 O334 2.317 . S
O334 Cd333 2.317 . S
O334 C335 1.232 . S
C335 O334 1.232 . S
C335 O336 1.218 . S
O336 C335 1.218 . S
C337 O330 1.275 . S
C337 O332 1.255 . S
C338 O339 1.258 . S
C338 O340 1.256 . S
O339 Cd331 2.381 . S
O339 C338 1.258 . S
O340 Cd331 2.378 . S
O340 C338 1.256 . S
O341 Cd342 2.300 . S
O341 C348 1.275 . S
Cd342 O341 2.300 . S
Cd342 O350 2.381 . S
Cd342 O351 2.378 . S
O343 Cd344 2.385 . S
O343 C348 1.255 . S
Cd344 O343 2.385 . S
Cd344 O345 2.317 . S
O345 Cd344 2.317 . S
O345 C346 1.232 . S
C346 O345 1.232 . S
C346 O347 1.218 . S
O347 C346 1.218 . S
C348 O341 1.275 . S
C348 O343 1.255 . S
C349 O350 1.258 . S
C349 O351 1.256 . S
O350 Cd342 2.381 . S
O350 C349 1.258 . S
O351 Cd342 2.378 . S
O351 C349 1.256 . S
O352 Cd353 2.300 . S
O352 C359 1.275 . S
Cd353 O352 2.300 . S
Cd353 O361 2.381 . S
Cd353 O362 2.378 . S
O354 Cd355 2.385 . S
O354 C359 1.255 . S
Cd355 O354 2.385 . S
Cd355 O356 2.317 . S
O356 Cd355 2.317 . S
O356 C357 1.232 . S
C357 O356 1.232 . S
C357 O358 1.218 . S
O358 C357 1.218 . S
C359 O352 1.275 . S
C359 O354 1.255 . S
C360 O361 1.258 . S
C360 O362 1.256 . S
O361 Cd353 2.381 . S
O361 C360 1.258 . S
O362 Cd353 2.378 . S
O362 C360 1.256 . S
O363 Cd364 2.300 . S
O363 C370 1.275 . S
Cd364 O363 2.300 . S
Cd364 O372 2.381 . S
Cd364 O373 2.378 . S
O365 Cd366 2.385 . S
O365 C370 1.255 . S
Cd366 O365 2.385 . S
Cd366 O367 2.317 . S
O367 Cd366 2.317 . S
O367 C368 1.232 . S
C368 O367 1.232 . S
C368 O369 1.218 . S
O369 C368 1.218 . S
C370 O363 1.275 . S
C370 O365 1.255 . S
C371 O372 1.258 . S
C371 O373 1.256 . S
O372 Cd364 2.381 . S
O372 C371 1.258 . S
O373 Cd364 2.378 . S
O373 C371 1.256 . S
O374 Cd375 2.300 . S
O374 C381 1.275 . S
Cd375 O374 2.300 . S
Cd375 O383 2.381 . S
Cd375 O384 2.378 . S
O376 Cd377 2.385 . S
O376 C381 1.255 . S
Cd377 O376 2.385 . S
Cd377 O378 2.317 . S
O378 Cd377 2.317 . S
O378 C379 1.232 . S
C379 O378 1.232 . S
C379 O380 1.218 . S
O380 C379 1.218 . S
C381 O374 1.275 . S
C381 O376 1.255 . S
C382 O383 1.258 . S
C382 O384 1.256 . S
O383 Cd375 2.381 . S
O383 C382 1.258 . S
O384 Cd375 2.378 . S
O384 C382 1.256 . S
O385 Cd386 2.300 . S
O385 C392 1.275 . S
Cd386 O385 2.300 . S
Cd386 O394 2.381 . S
Cd386 O395 2.378 . S
O387 Cd388 2.385 . S
O387 C392 1.255 . S
Cd388 O387 2.385 . S
Cd388 O389 2.317 . S
O389 Cd388 2.317 . S
O389 C390 1.232 . S
C390 O389 1.232 . S
C390 O391 1.218 . S
O391 C390 1.218 . S
C392 O385 1.275 . S
C392 O387 1.255 . S
C393 O394 1.258 . S
C393 O395 1.256 . S
O394 Cd386 2.381 . S
O394 C393 1.258 . S
O395 Cd386 2.378 . S
O395 C393 1.256 . S
O396 Cd397 2.300 . S
O396 C403 1.275 . S
Cd397 O396 2.300 . S
Cd397 O405 2.381 . S
Cd397 O406 2.378 . S
O398 Cd399 2.385 . S
O398 C403 1.255 . S
Cd399 O398 2.385 . S
Cd399 O400 2.317 . S
O400 Cd399 2.317 . S
O400 C401 1.232 . S
C401 O400 1.232 . S
C401 O402 1.218 1_655 S
O402 C401 1.218 1_455 S
C403 O396 1.275 . S
C403 O398 1.255 . S
C404 O405 1.258 . S
C404 O406 1.256 . S
O405 Cd397 2.381 . S
O405 C404 1.258 . S
O406 Cd397 2.378 . S
O406 C404 1.256 . S
O407 Cd408 2.300 . S
O407 C414 1.275 . S
Cd408 O407 2.300 . S
Cd408 O416 2.381 . S
Cd408 O417 2.378 . S
O409 Cd410 2.385 . S
O409 C414 1.255 . S
Cd410 O409 2.385 . S
Cd410 O411 2.317 . S
O411 Cd410 2.317 . S
O411 C412 1.232 . S
C412 O411 1.232 . S
C412 O413 1.218 . S
O413 C412 1.218 . S
C414 O407 1.275 . S
C414 O409 1.255 . S
C415 O416 1.258 . S
C415 O417 1.256 . S
O416 Cd408 2.381 . S
O416 C415 1.258 . S
O417 Cd408 2.378 . S
O417 C415 1.256 . S
O418 Cd419 2.300 . S
O418 C425 1.275 . S
Cd419 O418 2.300 . S
Cd419 O427 2.381 . S
Cd419 O428 2.378 . S
O420 Cd421 2.385 . S
O420 C425 1.255 . S
Cd421 O420 2.385 . S
Cd421 O422 2.317 . S
O422 Cd421 2.317 . S
O422 C423 1.232 . S
C423 O422 1.232 . S
C423 O424 1.218 . S
O424 C423 1.218 . S
C425 O418 1.275 . S
C425 O420 1.255 . S
C426 O427 1.258 . S
C426 O428 1.256 . S
O427 Cd419 2.381 . S
O427 C426 1.258 . S
O428 Cd419 2.378 . S
O428 C426 1.256 . S
O429 Cd430 2.300 . S
O429 C436 1.275 . S
Cd430 O429 2.300 . S
Cd430 O438 2.381 . S
Cd430 O439 2.378 . S
O431 Cd432 2.385 . S
O431 C436 1.255 . S
Cd432 O431 2.385 . S
Cd432 O433 2.317 . S
O433 Cd432 2.317 . S
O433 C434 1.232 . S
C434 O433 1.232 . S
C434 O435 1.218 . S
O435 C434 1.218 . S
C436 O429 1.275 . S
C436 O431 1.255 . S
C437 O438 1.258 . S
C437 O439 1.256 . S
O438 Cd430 2.381 . S
O438 C437 1.258 . S
O439 Cd430 2.378 . S
O439 C437 1.256 . S
O440 Cd441 2.300 . S
O440 C447 1.275 . S
Cd441 O440 2.300 . S
Cd441 O449 2.381 . S
Cd441 O450 2.378 . S
O442 Cd443 2.385 . S
O442 C447 1.255 . S
Cd443 O442 2.385 . S
Cd443 O444 2.317 . S
O444 Cd443 2.317 . S
O444 C445 1.232 . S
C445 O444 1.232 . S
C445 O446 1.218 . S
O446 C445 1.218 . S
C447 O440 1.275 . S
C447 O442 1.255 . S
C448 O449 1.258 . S
C448 O450 1.256 . S
O449 Cd441 2.381 . S
O449 C448 1.258 . S
O450 Cd441 2.378 . S
O450 C448 1.256 . S
O451 Cd452 2.300 . S
O451 C458 1.275 . S
Cd452 O451 2.300 . S
Cd452 O460 2.381 . S
Cd452 O461 2.378 . S
O453 Cd454 2.385 . S
O453 C458 1.255 . S
Cd454 O453 2.385 . S
Cd454 O455 2.317 . S
O455 Cd454 2.317 . S
O455 C456 1.232 . S
C456 O455 1.232 . S
C456 O457 1.218 . S
O457 C456 1.218 . S
C458 O451 1.275 . S
C458 O453 1.255 . S
C459 O460 1.258 . S
C459 O461 1.256 . S
O460 Cd452 2.381 . S
O460 C459 1.258 . S
O461 Cd452 2.378 . S
O461 C459 1.256 . S
O462 Cd463 2.300 . S
O462 C469 1.275 . S
Cd463 O462 2.300 . S
Cd463 O471 2.381 . S
Cd463 O472 2.378 . S
O464 Cd465 2.385 . S
O464 C469 1.255 . S
Cd465 O464 2.385 . S
Cd465 O466 2.317 . S
O466 Cd465 2.317 . S
O466 C467 1.232 . S
C467 O466 1.232 . S
C467 O468 1.218 . S
O468 C467 1.218 . S
C469 O462 1.275 . S
C469 O464 1.255 . S
C470 O471 1.258 . S
C470 O472 1.256 . S
O471 Cd463 2.381 . S
O471 C470 1.258 . S
O472 Cd463 2.378 . S
O472 C470 1.256 . S
O473 Cd474 2.300 . S
O473 C480 1.275 . S
Cd474 O473 2.300 . S
Cd474 O482 2.381 . S
Cd474 O483 2.378 . S
O475 Cd476 2.385 1_565 S
O475 C480 1.255 . S
Cd476 O475 2.385 1_545 S
Cd476 O477 2.317 1_545 S
O477 Cd476 2.317 1_565 S
O477 C478 1.206 1_565 S
C478 O477 1.206 1_545 S
C478 O479 1.254 . S
O479 C478 1.254 . S
C480 O473 1.275 . S
C480 O475 1.255 . S
C481 O482 1.258 . S
C481 O483 1.256 . S
O482 Cd474 2.381 . S
O482 C481 1.258 . S
O483 Cd474 2.378 . S
O483 C481 1.256 . S
O484 Cd485 2.300 . S
O484 C491 1.275 . S
Cd485 O484 2.300 . S
Cd485 O493 2.381 . S
Cd485 O494 2.378 . S
O486 Cd487 2.385 . S
O486 C491 1.255 . S
Cd487 O486 2.385 . S
Cd487 O488 2.317 . S
O488 Cd487 2.317 . S
O488 C489 1.232 . S
C489 O488 1.232 . S
C489 O490 1.218 . S
O490 C489 1.218 . S
C491 O484 1.275 . S
C491 O486 1.255 . S
C492 O493 1.258 . S
C492 O494 1.256 . S
O493 Cd485 2.381 . S
O493 C492 1.258 . S
O494 Cd485 2.378 . S
O494 C492 1.256 . S
O495 Cd496 2.300 . S
O495 C502 1.275 . S
Cd496 O495 2.300 . S
Cd496 O504 2.381 . S
Cd496 O505 2.378 . S
O497 Cd498 2.385 . S
O497 C502 1.255 . S
Cd498 O497 2.385 . S
Cd498 O499 2.317 . S
O499 Cd498 2.317 . S
O499 C500 1.232 . S
C500 O499 1.232 . S
C500 O501 1.218 . S
O501 C500 1.218 . S
C502 O495 1.275 . S
C502 O497 1.255 . S
C503 O504 1.258 . S
C503 O505 1.256 . S
O504 Cd496 2.381 . S
O504 C503 1.258 . S
O505 Cd496 2.378 . S
O505 C503 1.256 . S
O506 Cd507 2.300 . S
O506 C513 1.275 . S
Cd507 O506 2.300 . S
Cd507 O515 2.381 . S
Cd507 O516 2.378 . S
O508 Cd509 2.385 . S
O508 C513 1.255 . S
Cd509 O508 2.385 . S
Cd509 O510 2.317 . S
O510 Cd509 2.317 . S
O510 C511 1.232 . S
C511 O510 1.232 . S
C511 O512 1.218 . S
O512 C511 1.218 . S
C513 O506 1.275 . S
C513 O508 1.255 . S
C514 O515 1.258 . S
C514 O516 1.256 . S
O515 Cd507 2.381 . S
O515 C514 1.258 . S
O516 Cd507 2.378 . S
O516 C514 1.256 . S
O517 Cd518 2.300 . S
O517 C524 1.275 . S
Cd518 O517 2.300 . S
Cd518 O526 2.381 . S
Cd518 O527 2.378 . S
O519 Cd520 2.385 . S
O519 C524 1.255 . S
Cd520 O519 2.385 . S
Cd520 O521 2.317 . S
O521 Cd520 2.317 . S
O521 C522 1.232 . S
C522 O521 1.232 . S
C522 O523 1.218 . S
O523 C522 1.218 . S
C524 O517 1.275 . S
C524 O519 1.255 . S
C525 O526 1.258 . S
C525 O527 1.256 . S
O526 Cd518 2.381 . S
O526 C525 1.258 . S
O527 Cd518 2.378 . S
O527 C525 1.256 . S
C528 C529 1.369 . S
C528 C530 1.419 . S
C528 H532 0.930 . S
C529 C528 1.369 . S
C529 C538 1.429 . S
C530 C528 1.419 . S
C530 C531 1.363 . S
C530 H533 0.929 . S
C531 C530 1.363 . S
C531 C537 1.428 . S
H532 C528 0.930 . S
H533 C530 0.929 . S
S534 N535 1.613 . S
S534 N536 1.610 . S
N535 S534 1.613 . S
N535 C538 1.350 . S
N536 S534 1.610 . S
N536 C537 1.351 . S
C537 C531 1.428 . S
C537 N536 1.351 . S
C537 C538 1.434 . S
C538 C529 1.429 . S
C538 N535 1.350 . S
C538 C537 1.434 . S
C539 C540 1.369 . S
C539 C541 1.419 . S
C539 H543 0.930 . S
C540 C539 1.369 . S
C540 C549 1.429 . S
C541 C539 1.419 . S
C541 C542 1.363 . S
C541 H544 0.929 . S
C542 C541 1.363 . S
C542 C548 1.428 . S
H543 C539 0.930 . S
H544 C541 0.929 . S
S545 N546 1.613 . S
S545 N547 1.610 . S
N546 S545 1.613 . S
N546 C549 1.350 . S
N547 S545 1.610 . S
N547 C548 1.351 . S
C548 C542 1.428 . S
C548 N547 1.351 . S
C548 C549 1.434 . S
C549 C540 1.429 . S
C549 N546 1.350 . S
C549 C548 1.434 . S
C550 C551 1.369 . S
C550 C552 1.419 . S
C550 H554 0.930 . S
C551 C550 1.369 . S
C551 C560 1.429 . S
C552 C550 1.419 . S
C552 C553 1.363 . S
C552 H555 0.929 . S
C553 C552 1.363 . S
C553 C559 1.428 . S
H554 C550 0.930 . S
H555 C552 0.929 . S
S556 N557 1.613 . S
S556 N558 1.610 . S
N557 S556 1.613 . S
N557 C560 1.350 . S
N558 S556 1.610 . S
N558 C559 1.351 . S
C559 C553 1.428 . S
C559 N558 1.351 . S
C559 C560 1.434 . S
C560 C551 1.429 . S
C560 N557 1.350 . S
C560 C559 1.434 . S
C561 C562 1.369 . S
C561 C563 1.419 . S
C561 H565 0.930 . S
C562 C561 1.369 . S
C562 C571 1.429 . S
C563 C561 1.419 . S
C563 C564 1.363 . S
C563 H566 0.929 . S
C564 C563 1.363 . S
C564 C570 1.428 . S
H565 C561 0.930 . S
H566 C563 0.929 . S
S567 N568 1.613 . S
S567 N569 1.610 . S
N568 S567 1.613 . S
N568 C571 1.350 . S
N569 S567 1.610 . S
N569 C570 1.351 . S
C570 C564 1.428 . S
C570 N569 1.351 . S
C570 C571 1.434 . S
C571 C562 1.429 . S
C571 N568 1.350 . S
C571 C570 1.434 . S
C572 C573 1.369 . S
C572 C574 1.419 . S
C572 H576 0.930 . S
C573 C572 1.369 . S
C573 C582 1.429 . S
C574 C572 1.419 . S
C574 C575 1.363 . S
C574 H577 0.929 . S
C575 C574 1.363 . S
C575 C581 1.428 . S
H576 C572 0.930 . S
H577 C574 0.929 . S
S578 N579 1.613 . S
S578 N580 1.610 . S
N579 S578 1.613 . S
N579 C582 1.350 . S
N580 S578 1.610 . S
N580 C581 1.351 . S
C581 C575 1.428 . S
C581 N580 1.351 . S
C581 C582 1.434 . S
C582 C573 1.429 . S
C582 N579 1.350 . S
C582 C581 1.434 . S
C583 C584 1.369 . S
C583 C585 1.419 . S
C583 H587 0.930 . S
C584 C583 1.369 . S
C584 C593 1.429 . S
C585 C583 1.419 . S
C585 C586 1.363 . S
C585 H588 0.929 . S
C586 C585 1.363 . S
C586 C592 1.428 . S
H587 C583 0.930 . S
H588 C585 0.929 . S
S589 N590 1.613 . S
S589 N591 1.610 . S
N590 S589 1.613 . S
N590 C593 1.350 . S
N591 S589 1.610 . S
N591 C592 1.351 . S
C592 C586 1.428 . S
C592 N591 1.351 . S
C592 C593 1.434 . S
C593 C584 1.429 . S
C593 N590 1.350 . S
C593 C592 1.434 . S
C594 C595 1.369 . S
C594 C596 1.419 . S
C594 H598 0.930 . S
C595 C594 1.369 . S
C595 C604 1.429 . S
C596 C594 1.419 . S
C596 C597 1.363 . S
C596 H599 0.929 . S
C597 C596 1.363 . S
C597 C603 1.428 . S
H598 C594 0.930 . S
H599 C596 0.929 . S
S600 N601 1.613 . S
S600 N602 1.610 . S
N601 S600 1.613 . S
N601 C604 1.350 . S
N602 S600 1.610 . S
N602 C603 1.351 . S
C603 C597 1.428 . S
C603 N602 1.351 . S
C603 C604 1.434 . S
C604 C595 1.429 . S
C604 N601 1.350 . S
C604 C603 1.434 . S
C605 C606 1.369 . S
C605 C607 1.419 . S
C605 H609 0.930 . S
C606 C605 1.369 . S
C606 C615 1.429 . S
C607 C605 1.419 . S
C607 C608 1.363 . S
C607 H610 0.929 . S
C608 C607 1.363 . S
C608 C614 1.428 . S
H609 C605 0.930 . S
H610 C607 0.929 . S
S611 N612 1.613 . S
S611 N613 1.610 . S
N612 S611 1.613 . S
N612 C615 1.350 . S
N613 S611 1.610 . S
N613 C614 1.351 . S
C614 C608 1.428 . S
C614 N613 1.351 . S
C614 C615 1.434 . S
C615 C606 1.429 . S
C615 N612 1.350 . S
C615 C614 1.434 . S
C616 C617 1.369 . S
C616 C618 1.419 . S
C616 H620 0.930 . S
C617 C616 1.369 . S
C617 C626 1.429 . S
C618 C616 1.419 . S
C618 C619 1.363 . S
C618 H621 0.929 . S
C619 C618 1.363 . S
C619 C625 1.428 . S
H620 C616 0.930 . S
H621 C618 0.929 . S
S622 N623 1.613 . S
S622 N624 1.610 . S
N623 S622 1.613 . S
N623 C626 1.350 . S
N624 S622 1.610 . S
N624 C625 1.351 . S
C625 C619 1.428 . S
C625 N624 1.351 . S
C625 C626 1.434 . S
C626 C617 1.429 . S
C626 N623 1.350 . S
C626 C625 1.434 . S
C627 C628 1.369 . S
C627 C629 1.419 1_455 S
C627 H631 0.930 . S
C628 C627 1.369 . S
C628 C637 1.429 . S
C629 C627 1.419 1_655 S
C629 C630 1.363 . S
C629 H632 0.929 . S
C630 C629 1.363 . S
C630 C636 1.428 1_655 S
H631 C627 0.930 . S
H632 C629 0.929 . S
S633 N634 1.613 . S
S633 N635 1.610 . S
N634 S633 1.613 . S
N634 C637 1.350 . S
N635 S633 1.610 . S
N635 C636 1.351 . S
C636 C630 1.428 1_455 S
C636 N635 1.351 . S
C636 C637 1.434 . S
C637 C628 1.429 . S
C637 N634 1.350 . S
C637 C636 1.434 . S
C638 C639 1.369 . S
C638 C640 1.419 . S
C638 H642 0.930 . S
C639 C638 1.369 . S
C639 C648 1.429 . S
C640 C638 1.419 . S
C640 C641 1.363 1_565 S
C640 H643 0.929 . S
C641 C640 1.363 1_545 S
C641 C647 1.428 . S
H642 C638 0.930 . S
H643 C640 0.929 . S
S644 N645 1.613 . S
S644 N646 1.610 . S
N645 S644 1.613 . S
N645 C648 1.350 1_545 S
N646 S644 1.610 . S
N646 C647 1.351 . S
C647 C641 1.428 . S
C647 N646 1.351 . S
C647 C648 1.434 1_545 S
C648 C639 1.429 . S
C648 N645 1.350 1_565 S
C648 C647 1.434 1_565 S
C649 C650 1.369 . S
C649 C651 1.419 . S
C649 H653 0.930 . S
C650 C649 1.369 . S
C650 C659 1.429 . S
C651 C649 1.419 . S
C651 C652 1.363 . S
C651 H654 0.929 . S
C652 C651 1.363 . S
C652 C658 1.428 . S
H653 C649 0.930 . S
H654 C651 0.929 . S
S655 N656 1.613 . S
S655 N657 1.610 . S
N656 S655 1.613 . S
N656 C659 1.350 . S
N657 S655 1.610 . S
N657 C658 1.351 . S
C658 C652 1.428 . S
C658 N657 1.351 . S
C658 C659 1.434 . S
C659 C650 1.429 . S
C659 N656 1.350 . S
C659 C658 1.434 . S
C660 C661 1.369 . S
C660 C662 1.419 . S
C660 H664 0.930 . S
C661 C660 1.369 . S
C661 C670 1.429 . S
C662 C660 1.419 . S
C662 C663 1.363 . S
C662 H665 0.929 . S
C663 C662 1.363 . S
C663 C669 1.428 . S
H664 C660 0.930 . S
H665 C662 0.929 . S
S666 N667 1.613 . S
S666 N668 1.610 . S
N667 S666 1.613 . S
N667 C670 1.350 . S
N668 S666 1.610 . S
N668 C669 1.351 . S
C669 C663 1.428 . S
C669 N668 1.351 . S
C669 C670 1.434 . S
C670 C661 1.429 . S
C670 N667 1.350 . S
C670 C669 1.434 . S
C671 C672 1.369 . S
C671 C673 1.419 . S
C671 H675 0.930 . S
C672 C671 1.369 . S
C672 C681 1.429 . S
C673 C671 1.419 . S
C673 C674 1.363 . S
C673 H676 0.929 . S
C674 C673 1.363 . S
C674 C680 1.428 . S
H675 C671 0.930 . S
H676 C673 0.929 . S
S677 N678 1.613 . S
S677 N679 1.610 . S
N678 S677 1.613 . S
N678 C681 1.350 . S
N679 S677 1.610 . S
N679 C680 1.351 . S
C680 C674 1.428 . S
C680 N679 1.351 . S
C680 C681 1.434 . S
C681 C672 1.429 . S
C681 N678 1.350 . S
C681 C680 1.434 . S
C682 C683 1.369 . S
C682 C684 1.419 . S
C682 H686 0.930 . S
C683 C682 1.369 . S
C683 C692 1.429 . S
C684 C682 1.419 . S
C684 C685 1.363 . S
C684 H687 0.929 . S
C685 C684 1.363 . S
C685 C691 1.428 . S
H686 C682 0.930 . S
H687 C684 0.929 . S
S688 N689 1.613 . S
S688 N690 1.610 . S
N689 S688 1.613 . S
N689 C692 1.350 . S
N690 S688 1.610 . S
N690 C691 1.351 . S
C691 C685 1.428 . S
C691 N690 1.351 . S
C691 C692 1.434 . S
C692 C683 1.429 . S
C692 N689 1.350 . S
C692 C691 1.434 . S
C693 C694 1.369 . S
C693 C695 1.419 . S
C693 H697 0.930 . S
C694 C693 1.369 . S
C694 C703 1.429 . S
C695 C693 1.419 . S
C695 C696 1.363 . S
C695 H698 0.929 . S
C696 C695 1.363 . S
C696 C702 1.428 . S
H697 C693 0.930 . S
H698 C695 0.929 . S
S699 N700 1.613 . S
S699 N701 1.610 . S
N700 S699 1.613 . S
N700 C703 1.350 . S
N701 S699 1.610 . S
N701 C702 1.351 . S
C702 C696 1.428 . S
C702 N701 1.351 . S
C702 C703 1.434 . S
C703 C694 1.429 . S
C703 N700 1.350 . S
C703 C702 1.434 . S
C704 C705 1.369 . S
C704 C706 1.419 . S
C704 H708 0.930 . S
C705 C704 1.369 . S
C705 C714 1.429 . S
C706 C704 1.419 . S
C706 C707 1.363 . S
C706 H709 0.929 . S
C707 C706 1.363 . S
C707 C713 1.428 . S
H708 C704 0.930 . S
H709 C706 0.929 . S
S710 N711 1.613 . S
S710 N712 1.610 . S
N711 S710 1.613 . S
N711 C714 1.350 . S
N712 S710 1.610 . S
N712 C713 1.351 . S
C713 C707 1.428 . S
C713 N712 1.351 . S
C713 C714 1.434 . S
C714 C705 1.429 . S
C714 N711 1.350 . S
C714 C713 1.434 . S
C715 C716 1.369 . S
C715 C717 1.419 . S
C715 H719 0.930 1_556 S
C716 C715 1.369 . S
C716 C725 1.429 . S
C717 C715 1.419 . S
C717 C718 1.363 . S
C717 H720 0.929 . S
C718 C717 1.363 . S
C718 C724 1.428 . S
H719 C715 0.930 1_554 S
H720 C717 0.929 . S
S721 N722 1.613 . S
S721 N723 1.610 . S
N722 S721 1.613 . S
N722 C725 1.350 . S
N723 S721 1.610 . S
N723 C724 1.351 . S
C724 C718 1.428 . S
C724 N723 1.351 . S
C724 C725 1.434 . S
C725 C716 1.429 . S
C725 N722 1.350 . S
C725 C724 1.434 . S
C726 C727 1.369 . S
C726 C728 1.419 . S
C726 H730 0.930 . S
C727 C726 1.369 . S
C727 C736 1.429 . S
C728 C726 1.419 . S
C728 C729 1.363 . S
C728 H731 0.929 . S
C729 C728 1.363 . S
C729 C735 1.428 . S
H730 C726 0.930 . S
H731 C728 0.929 . S
S732 N733 1.613 . S
S732 N734 1.610 . S
N733 S732 1.613 . S
N733 C736 1.350 . S
N734 S732 1.610 . S
N734 C735 1.351 . S
C735 C729 1.428 . S
C735 N734 1.351 . S
C735 C736 1.434 . S
C736 C727 1.429 . S
C736 N733 1.350 . S
C736 C735 1.434 . S
C737 C738 1.369 . S
C737 C739 1.419 . S
C737 H741 0.930 . S
C738 C737 1.369 . S
C738 C747 1.429 . S
C739 C737 1.419 . S
C739 C740 1.363 . S
C739 H742 0.929 . S
C740 C739 1.363 . S
C740 C746 1.428 . S
H741 C737 0.930 . S
H742 C739 0.929 . S
S743 N744 1.613 1_554 S
S743 N745 1.610 . S
N744 S743 1.613 1_556 S
N744 C747 1.350 . S
N745 S743 1.610 . S
N745 C746 1.351 1_554 S
C746 C740 1.428 . S
C746 N745 1.351 1_556 S
C746 C747 1.434 . S
C747 C738 1.429 . S
C747 N744 1.350 . S
C747 C746 1.434 . S
C748 C749 1.369 . S
C748 C750 1.419 1_556 S
C748 H752 0.930 . S
C749 C748 1.369 . S
C749 C758 1.429 . S
C750 C748 1.419 1_554 S
C750 C751 1.363 . S
C750 H753 0.929 . S
C751 C750 1.363 . S
C751 C757 1.428 1_554 S
H752 C748 0.930 . S
H753 C750 0.929 . S
S754 N755 1.613 . S
S754 N756 1.610 . S
N755 S754 1.613 . S
N755 C758 1.350 . S
N756 S754 1.610 . S
N756 C757 1.351 . S
C757 C751 1.428 1_556 S
C757 N756 1.351 . S
C757 C758 1.434 . S
C758 C749 1.429 . S
C758 N755 1.350 . S
C758 C757 1.434 . S
C759 C760 1.369 . S
C759 C761 1.419 . S
C759 H763 0.930 . S
C760 C759 1.369 . S
C760 C769 1.429 . S
C761 C759 1.419 . S
C761 C762 1.363 . S
C761 H764 0.929 . S
C762 C761 1.363 . S
C762 C768 1.428 . S
H763 C759 0.930 . S
H764 C761 0.929 . S
S765 N766 1.613 . S
S765 N767 1.610 . S
N766 S765 1.613 . S
N766 C769 1.350 . S
N767 S765 1.610 . S
N767 C768 1.351 . S
C768 C762 1.428 . S
C768 N767 1.351 . S
C768 C769 1.434 . S
C769 C760 1.429 . S
C769 N766 1.350 . S
C769 C768 1.434 . S
C770 C771 1.369 . S
C770 C772 1.419 . S
C770 H774 0.930 . S
C771 C770 1.369 . S
C771 C780 1.429 . S
C772 C770 1.419 . S
C772 C773 1.363 . S
C772 H775 0.929 . S
C773 C772 1.363 . S
C773 C779 1.428 . S
H774 C770 0.930 . S
H775 C772 0.929 . S
S776 N777 1.613 . S
S776 N778 1.610 . S
N777 S776 1.613 . S
N777 C780 1.350 . S
N778 S776 1.610 . S
N778 C779 1.351 . S
C779 C773 1.428 . S
C779 N778 1.351 . S
C779 C780 1.434 . S
C780 C771 1.429 . S
C780 N777 1.350 . S
C780 C779 1.434 . S
C781 C782 1.369 . S
C781 C783 1.419 . S
C781 H785 0.930 . S
C782 C781 1.369 . S
C782 C791 1.429 . S
C783 C781 1.419 . S
C783 C784 1.363 . S
C783 H786 0.929 . S
C784 C783 1.363 . S
C784 C790 1.428 . S
H785 C781 0.930 . S
H786 C783 0.929 . S
S787 N788 1.613 . S
S787 N789 1.610 . S
N788 S787 1.613 . S
N788 C791 1.350 . S
N789 S787 1.610 . S
N789 C790 1.351 . S
C790 C784 1.428 . S
C790 N789 1.351 . S
C790 C791 1.434 . S
C791 C782 1.429 . S
C791 N788 1.350 . S
C791 C790 1.434 . S
C792 C793 1.369 . S
C792 C794 1.419 . S
C792 H796 0.930 . S
C793 C792 1.369 . S
C793 C802 1.429 . S
C794 C792 1.419 . S
C794 C795 1.363 . S
C794 H797 0.929 . S
C795 C794 1.363 . S
C795 C801 1.428 . S
H796 C792 0.930 . S
H797 C794 0.929 . S
S798 N799 1.613 . S
S798 N800 1.610 . S
N799 S798 1.613 . S
N799 C802 1.350 . S
N800 S798 1.610 . S
N800 C801 1.351 . S
C801 C795 1.428 . S
C801 N800 1.351 . S
C801 C802 1.434 . S
C802 C793 1.429 . S
C802 N799 1.350 . S
C802 C801 1.434 . S
C803 C804 1.369 . S
C803 C805 1.419 1_565 S
C803 H807 0.930 . S
C804 C803 1.369 . S
C804 C813 1.429 . S
C805 C803 1.419 1_545 S
C805 C806 1.363 . S
C805 H808 0.929 . S
C806 C805 1.363 . S
C806 C812 1.428 1_545 S
H807 C803 0.930 . S
H808 C805 0.929 . S
S809 N810 1.613 . S
S809 N811 1.610 . S
N810 S809 1.613 . S
N810 C813 1.350 . S
N811 S809 1.610 . S
N811 C812 1.351 . S
C812 C806 1.428 1_565 S
C812 N811 1.351 . S
C812 C813 1.434 . S
C813 C804 1.429 . S
C813 N810 1.350 . S
C813 C812 1.434 . S
C814 C815 1.369 . S
C814 C816 1.419 . S
C814 H818 0.930 . S
C815 C814 1.369 . S
C815 C824 1.429 . S
C816 C814 1.419 . S
C816 C817 1.363 . S
C816 H819 0.929 . S
C817 C816 1.363 . S
C817 C823 1.428 . S
H818 C814 0.930 . S
H819 C816 0.929 . S
S820 N821 1.613 . S
S820 N822 1.610 . S
N821 S820 1.613 . S
N821 C824 1.350 . S
N822 S820 1.610 . S
N822 C823 1.351 . S
C823 C817 1.428 . S
C823 N822 1.351 . S
C823 C824 1.434 . S
C824 C815 1.429 . S
C824 N821 1.350 . S
C824 C823 1.434 . S
C825 C826 1.369 . S
C825 C827 1.419 . S
C825 H829 0.930 . S
C826 C825 1.369 . S
C826 C835 1.429 . S
C827 C825 1.419 . S
C827 C828 1.363 . S
C827 H830 0.929 . S
C828 C827 1.363 . S
C828 C834 1.428 . S
H829 C825 0.930 . S
H830 C827 0.929 . S
S831 N832 1.613 . S
S831 N833 1.610 . S
N832 S831 1.613 . S
N832 C835 1.350 . S
N833 S831 1.610 . S
N833 C834 1.351 . S
C834 C828 1.428 . S
C834 N833 1.351 . S
C834 C835 1.434 . S
C835 C826 1.429 . S
C835 N832 1.350 . S
C835 C834 1.434 . S
C836 C837 1.369 . S
C836 C838 1.419 . S
C836 H840 0.930 . S
C837 C836 1.369 . S
C837 C846 1.429 . S
C838 C836 1.419 . S
C838 C839 1.363 . S
C838 H841 0.929 1_655 S
C839 C838 1.363 . S
C839 C845 1.428 . S
H840 C836 0.930 . S
H841 C838 0.929 1_455 S
S842 N843 1.613 . S
S842 N844 1.610 . S
N843 S842 1.613 . S
N843 C846 1.350 . S
N844 S842 1.610 . S
N844 C845 1.351 . S
C845 C839 1.428 . S
C845 N844 1.351 . S
C845 C846 1.434 . S
C846 C837 1.429 . S
C846 N843 1.350 . S
C846 C845 1.434 . S
C847 C848 1.369 . S
C847 C849 1.419 . S
C847 H851 0.930 . S
C848 C847 1.369 . S
C848 C857 1.429 . S
C849 C847 1.419 . S
C849 C850 1.363 . S
C849 H852 0.929 . S
C850 C849 1.363 . S
C850 C856 1.428 . S
H851 C847 0.930 . S
H852 C849 0.929 . S
S853 N854 1.613 . S
S853 N855 1.610 . S
N854 S853 1.613 . S
N854 C857 1.350 . S
N855 S853 1.610 . S
N855 C856 1.351 . S
C856 C850 1.428 . S
C856 N855 1.351 . S
C856 C857 1.434 . S
C857 C848 1.429 . S
C857 N854 1.350 . S
C857 C856 1.434 . S
C858 C859 1.369 . S
C858 C860 1.419 . S
C858 H862 0.930 . S
C859 C858 1.369 . S
C859 C868 1.429 . S
C860 C858 1.419 . S
C860 C861 1.363 . S
C860 H863 0.929 . S
C861 C860 1.363 . S
C861 C867 1.428 . S
H862 C858 0.930 . S
H863 C860 0.929 . S
S864 N865 1.613 . S
S864 N866 1.610 . S
N865 S864 1.613 . S
N865 C868 1.350 . S
N866 S864 1.610 . S
N866 C867 1.351 . S
C867 C861 1.428 . S
C867 N866 1.351 . S
C867 C868 1.434 . S
C868 C859 1.429 . S
C868 N865 1.350 . S
C868 C867 1.434 . S
C869 C870 1.369 . S
C869 C871 1.419 . S
C869 H873 0.930 . S
C870 C869 1.369 . S
C870 C879 1.429 . S
C871 C869 1.419 . S
C871 C872 1.363 . S
C871 H874 0.929 . S
C872 C871 1.363 . S
C872 C878 1.428 . S
H873 C869 0.930 . S
H874 C871 0.929 . S
S875 N876 1.613 . S
S875 N877 1.610 . S
N876 S875 1.613 . S
N876 C879 1.350 . S
N877 S875 1.610 . S
N877 C878 1.351 . S
C878 C872 1.428 . S
C878 N877 1.351 . S
C878 C879 1.434 . S
C879 C870 1.429 . S
C879 N876 1.350 . S
C879 C878 1.434 . S
C880 C881 1.369 . S
C880 C882 1.419 . S
C880 H884 0.930 . S
C881 C880 1.369 . S
C881 C890 1.429 . S
C882 C880 1.419 . S
C882 C883 1.363 . S
C882 H885 0.929 . S
C883 C882 1.363 . S
C883 C889 1.428 . S
H884 C880 0.930 . S
H885 C882 0.929 . S
S886 N887 1.613 . S
S886 N888 1.610 . S
N887 S886 1.613 . S
N887 C890 1.350 . S
N888 S886 1.610 . S
N888 C889 1.351 . S
C889 C883 1.428 . S
C889 N888 1.351 . S
C889 C890 1.434 . S
C890 C881 1.429 . S
C890 N887 1.350 . S
C890 C889 1.434 . S
C891 C892 1.369 . S
C891 C893 1.419 . S
C891 H895 0.930 . S
C892 C891 1.369 . S
C892 C901 1.429 . S
C893 C891 1.419 . S
C893 C894 1.363 . S
C893 H896 0.929 . S
C894 C893 1.363 . S
C894 C900 1.428 . S
H895 C891 0.930 . S
H896 C893 0.929 . S
S897 N898 1.613 . S
S897 N899 1.610 . S
N898 S897 1.613 . S
N898 C901 1.350 . S
N899 S897 1.610 . S
N899 C900 1.351 . S
C900 C894 1.428 . S
C900 N899 1.351 . S
C900 C901 1.434 . S
C901 C892 1.429 . S
C901 N898 1.350 . S
C901 C900 1.434 . S
C902 C903 1.369 . S
C902 C904 1.419 . S
C902 H906 0.930 . S
C903 C902 1.369 . S
C903 C912 1.429 . S
C904 C902 1.419 . S
C904 C905 1.363 . S
C904 H907 0.929 . S
C905 C904 1.363 . S
C905 C911 1.428 . S
H906 C902 0.930 . S
H907 C904 0.929 . S
S908 N909 1.613 . S
S908 N910 1.610 . S
N909 S908 1.613 . S
N909 C912 1.350 . S
N910 S908 1.610 . S
N910 C911 1.351 . S
C911 C905 1.428 . S
C911 N910 1.351 . S
C911 C912 1.434 . S
C912 C903 1.429 . S
C912 N909 1.350 . S
C912 C911 1.434 . S
C913 C914 1.369 . S
C913 C915 1.419 . S
C913 H917 0.930 . S
C914 C913 1.369 . S
C914 C923 1.429 . S
C915 C913 1.419 . S
C915 C916 1.363 . S
C915 H918 0.929 . S
C916 C915 1.363 . S
C916 C922 1.428 . S
H917 C913 0.930 . S
H918 C915 0.929 . S
S919 N920 1.613 . S
S919 N921 1.610 . S
N920 S919 1.613 . S
N920 C923 1.350 . S
N921 S919 1.610 . S
N921 C922 1.351 . S
C922 C916 1.428 . S
C922 N921 1.351 . S
C922 C923 1.434 . S
C923 C914 1.429 . S
C923 N920 1.350 . S
C923 C922 1.434 . S
C924 C925 1.369 . S
C924 C926 1.419 . S
C924 H928 0.930 . S
C925 C924 1.369 . S
C925 C934 1.429 . S
C926 C924 1.419 . S
C926 C927 1.363 . S
C926 H929 0.929 . S
C927 C926 1.363 . S
C927 C933 1.428 . S
H928 C924 0.930 . S
H929 C926 0.929 . S
S930 N931 1.613 . S
S930 N932 1.610 . S
N931 S930 1.613 . S
N931 C934 1.350 . S
N932 S930 1.610 . S
N932 C933 1.351 . S
C933 C927 1.428 . S
C933 N932 1.351 . S
C933 C934 1.434 . S
C934 C925 1.429 . S
C934 N931 1.350 . S
C934 C933 1.434 . S
C935 C936 1.369 . S
C935 C937 1.419 1_455 S
C935 H939 0.930 . S
C936 C935 1.369 . S
C936 C945 1.429 1_455 S
C937 C935 1.419 1_655 S
C937 C938 1.363 . S
C937 H940 0.929 . S
C938 C937 1.363 . S
C938 C944 1.428 . S
H939 C935 0.930 . S
H940 C937 0.929 . S
S941 N942 1.613 . S
S941 N943 1.610 . S
N942 S941 1.613 . S
N942 C945 1.350 . S
N943 S941 1.610 . S
N943 C944 1.351 . S
C944 C938 1.428 . S
C944 N943 1.351 . S
C944 C945 1.434 . S
C945 C936 1.429 1_655 S
C945 N942 1.350 . S
C945 C944 1.434 . S
C946 C947 1.369 . S
C946 C948 1.419 1_565 S
C946 H950 0.930 . S
C947 C946 1.369 . S
C947 C956 1.429 . S
C948 C946 1.419 1_545 S
C948 C949 1.363 . S
C948 H951 0.929 . S
C949 C948 1.363 . S
C949 C955 1.428 . S
H950 C946 0.930 . S
H951 C948 0.929 . S
S952 N953 1.613 . S
S952 N954 1.610 1_565 S
N953 S952 1.613 . S
N953 C956 1.350 . S
N954 S952 1.610 1_545 S
N954 C955 1.351 . S
C955 C949 1.428 . S
C955 N954 1.351 . S
C955 C956 1.434 1_545 S
C956 C947 1.429 . S
C956 N953 1.350 . S
C956 C955 1.434 1_565 S
C957 C958 1.369 . S
C957 C959 1.419 . S
C957 H961 0.930 . S
C958 C957 1.369 . S
C958 C967 1.429 . S
C959 C957 1.419 . S
C959 C960 1.363 . S
C959 H962 0.929 . S
C960 C959 1.363 . S
C960 C966 1.428 . S
H961 C957 0.930 . S
H962 C959 0.929 . S
S963 N964 1.613 . S
S963 N965 1.610 . S
N964 S963 1.613 . S
N964 C967 1.350 . S
N965 S963 1.610 . S
N965 C966 1.351 . S
C966 C960 1.428 . S
C966 N965 1.351 . S
C966 C967 1.434 . S
C967 C958 1.429 . S
C967 N964 1.350 . S
C967 C966 1.434 . S
C968 C969 1.399 . S
C968 C970 1.419 . S
C968 H972 0.930 . S
C969 C968 1.399 . S
C969 C978 1.433 . S
C970 C968 1.419 . S
C970 C971 1.363 . S
C970 H973 0.929 . S
C971 C970 1.363 . S
C971 C977 1.428 . S
H972 C968 0.930 . S
H973 C970 0.929 . S
S974 N975 1.613 . S
S974 N976 1.610 1_554 S
N975 S974 1.613 . S
N975 C978 1.350 1_554 S
N976 S974 1.610 1_556 S
N976 C977 1.351 . S
C977 C971 1.428 . S
C977 N976 1.351 . S
C977 C978 1.434 . S
C978 C969 1.433 . S
C978 N975 1.350 1_556 S
C978 C977 1.434 . S
C979 C980 1.369 . S
C979 C981 1.419 . S
C979 H983 0.930 . S
C980 C979 1.369 . S
C980 C989 1.429 . S
C981 C979 1.419 . S
C981 C982 1.363 . S
C981 H984 0.929 . S
C982 C981 1.363 . S
C982 C988 1.428 . S
H983 C979 0.930 . S
H984 C981 0.929 . S
S985 N986 1.613 . S
S985 N987 1.610 . S
N986 S985 1.613 . S
N986 C989 1.350 . S
N987 S985 1.610 . S
N987 C988 1.351 . S
C988 C982 1.428 . S
C988 N987 1.351 . S
C988 C989 1.434 . S
C989 C980 1.429 . S
C989 N986 1.350 . S
C989 C988 1.434 . S
C990 C991 1.369 . S
C990 C992 1.419 . S
C990 H994 0.930 . S
C991 C990 1.369 . S
C991 C1000 1.429 . S
C992 C990 1.419 . S
C992 C993 1.363 . S
C992 H995 0.929 . S
C993 C992 1.363 . S
C993 C999 1.428 . S
H994 C990 0.930 . S
H995 C992 0.929 . S
S996 N997 1.613 . S
S996 N998 1.610 . S
N997 S996 1.613 . S
N997 C1000 1.350 . S
N998 S996 1.610 . S
N998 C999 1.351 . S
C999 C993 1.428 . S
C999 N998 1.351 . S
C999 C1000 1.434 . S
C1000 C991 1.429 . S
C1000 N997 1.350 . S
C1000 C999 1.434 . S
C1001 C1002 1.369 . S
C1001 C1003 1.419 . S
C1001 H1005 0.930 . S
C1002 C1001 1.369 . S
C1002 C1011 1.429 . S
C1003 C1001 1.419 . S
C1003 C1004 1.363 . S
C1003 H1006 0.929 . S
C1004 C1003 1.363 . S
C1004 C1010 1.428 . S
H1005 C1001 0.930 . S
H1006 C1003 0.929 . S
S1007 N1008 1.613 . S
S1007 N1009 1.610 . S
N1008 S1007 1.613 . S
N1008 C1011 1.350 . S
N1009 S1007 1.610 . S
N1009 C1010 1.351 . S
C1010 C1004 1.428 . S
C1010 N1009 1.351 . S
C1010 C1011 1.434 . S
C1011 C1002 1.429 . S
C1011 N1008 1.350 . S
C1011 C1010 1.434 . S
C1012 C1013 1.369 . S
C1012 C1014 1.419 . S
C1012 H1016 0.930 . S
C1013 C1012 1.369 . S
C1013 C1022 1.429 . S
C1014 C1012 1.419 . S
C1014 C1015 1.363 . S
C1014 H1017 0.929 . S
C1015 C1014 1.363 . S
C1015 C1021 1.428 . S
H1016 C1012 0.930 . S
H1017 C1014 0.929 . S
S1018 N1019 1.613 . S
S1018 N1020 1.610 . S
N1019 S1018 1.613 . S
N1019 C1022 1.350 . S
N1020 S1018 1.610 . S
N1020 C1021 1.351 . S
C1021 C1015 1.428 . S
C1021 N1020 1.351 . S
C1021 C1022 1.434 . S
C1022 C1013 1.429 . S
C1022 N1019 1.350 . S
C1022 C1021 1.434 . S
C1023 C1024 1.369 . S
C1023 C1025 1.419 . S
C1023 H1027 0.930 . S
C1024 C1023 1.369 . S
C1024 C1033 1.429 . S
C1025 C1023 1.419 . S
C1025 C1026 1.363 . S
C1025 H1028 0.929 . S
C1026 C1025 1.363 . S
C1026 C1032 1.428 . S
H1027 C1023 0.930 . S
H1028 C1025 0.929 . S
S1029 N1030 1.613 . S
S1029 N1031 1.610 1_554 S
N1030 S1029 1.613 . S
N1030 C1033 1.350 1_554 S
N1031 S1029 1.610 1_556 S
N1031 C1032 1.351 . S
C1032 C1026 1.428 . S
C1032 N1031 1.351 . S
C1032 C1033 1.434 . S
C1033 C1024 1.429 . S
C1033 N1030 1.350 1_556 S
C1033 C1032 1.434 . S
C1034 C1035 1.369 . S
C1034 C1036 1.419 . S
C1034 H1038 0.930 . S
C1035 C1034 1.369 . S
C1035 C1044 1.429 . S
C1036 C1034 1.419 . S
C1036 C1037 1.363 . S
C1036 H1039 0.929 . S
C1037 C1036 1.363 . S
C1037 C1043 1.428 . S
H1038 C1034 0.930 . S
H1039 C1036 0.929 . S
S1040 N1041 1.613 . S
S1040 N1042 1.610 . S
N1041 S1040 1.613 . S
N1041 C1044 1.350 . S
N1042 S1040 1.610 . S
N1042 C1043 1.351 . S
C1043 C1037 1.428 . S
C1043 N1042 1.351 . S
C1043 C1044 1.434 . S
C1044 C1035 1.429 . S
C1044 N1041 1.350 . S
C1044 C1043 1.434 . S
C1045 C1046 1.369 . S
C1045 C1047 1.419 . S
C1045 H1049 0.930 . S
C1046 C1045 1.369 . S
C1046 C1055 1.429 . S
C1047 C1045 1.419 . S
C1047 C1048 1.363 . S
C1047 H1050 0.929 1_556 S
C1048 C1047 1.363 . S
C1048 C1054 1.428 . S
H1049 C1045 0.930 . S
H1050 C1047 0.929 1_554 S
S1051 N1052 1.613 . S
S1051 N1053 1.610 . S
N1052 S1051 1.613 . S
N1052 C1055 1.350 . S
N1053 S1051 1.610 . S
N1053 C1054 1.351 . S
C1054 C1048 1.428 . S
C1054 N1053 1.351 . S
C1054 C1055 1.434 . S
C1055 C1046 1.429 . S
C1055 N1052 1.350 . S
C1055 C1054 1.434 . S
C1056 C1057 1.369 . S
C1056 C1058 1.419 . S
C1056 H1060 0.930 . S
C1057 C1056 1.369 . S
C1057 C1066 1.429 . S
C1058 C1056 1.419 . S
C1058 C1059 1.363 . S
C1058 H1061 0.929 . S
C1059 C1058 1.363 . S
C1059 C1065 1.428 . S
H1060 C1056 0.930 . S
H1061 C1058 0.929 . S
S1062 N1063 1.613 . S
S1062 N1064 1.610 . S
N1063 S1062 1.613 . S
N1063 C1066 1.350 . S
N1064 S1062 1.610 . S
N1064 C1065 1.351 . S
C1065 C1059 1.428 . S
C1065 N1064 1.351 . S
C1065 C1066 1.434 . S
C1066 C1057 1.429 . S
C1066 N1063 1.350 . S
C1066 C1065 1.434 . S
C1067 C1068 1.369 . S
C1067 C1069 1.419 . S
C1067 H1071 0.936 . S
C1068 C1067 1.369 . S
C1068 C1077 1.429 . S
C1069 C1067 1.419 . S
C1069 C1070 1.363 . S
C1069 H1072 0.929 . S
C1070 C1069 1.363 . S
C1070 C1076 1.428 . S
H1071 C1067 0.936 . S
H1072 C1069 0.929 . S
S1073 N1074 1.613 . S
S1073 N1075 1.610 . S
N1074 S1073 1.613 . S
N1074 C1077 1.350 . S
N1075 S1073 1.610 . S
N1075 C1076 1.351 . S
C1076 C1070 1.428 . S
C1076 N1075 1.351 . S
C1076 C1077 1.434 . S
C1077 C1068 1.429 . S
C1077 N1074 1.350 . S
C1077 C1076 1.434 . S
C1078 C1079 1.369 . S
C1078 C1080 1.419 . S
C1078 H1082 0.930 . S
C1079 C1078 1.369 . S
C1079 C1088 1.429 . S
C1080 C1078 1.419 . S
C1080 C1081 1.363 . S
C1080 H1083 0.929 . S
C1081 C1080 1.363 . S
C1081 C1087 1.428 . S
H1082 C1078 0.930 . S
H1083 C1080 0.929 . S
S1084 N1085 1.613 . S
S1084 N1086 1.610 . S
N1085 S1084 1.613 . S
N1085 C1088 1.350 . S
N1086 S1084 1.610 . S
N1086 C1087 1.351 . S
C1087 C1081 1.428 . S
C1087 N1086 1.351 . S
C1087 C1088 1.434 . S
C1088 C1079 1.429 . S
C1088 N1085 1.350 . S
C1088 C1087 1.434 . S
C1089 C1090 1.369 . S
C1089 C1091 1.419 . S
C1089 H1093 0.930 . S
C1090 C1089 1.369 . S
C1090 C1099 1.429 . S
C1091 C1089 1.419 . S
C1091 C1092 1.363 . S
C1091 H1094 0.929 . S
C1092 C1091 1.363 . S
C1092 C1098 1.428 . S
H1093 C1089 0.930 . S
H1094 C1091 0.929 . S
S1095 N1096 1.613 . S
S1095 N1097 1.610 . S
N1096 S1095 1.613 . S
N1096 C1099 1.350 . S
N1097 S1095 1.610 . S
N1097 C1098 1.351 . S
C1098 C1092 1.428 . S
C1098 N1097 1.351 . S
C1098 C1099 1.434 . S
C1099 C1090 1.429 . S
C1099 N1096 1.350 . S
C1099 C1098 1.434 . S
C1100 C1101 1.369 . S
C1100 C1102 1.419 . S
C1100 H1104 0.930 . S
C1101 C1100 1.369 . S
C1101 C1110 1.429 . S
C1102 C1100 1.419 . S
C1102 C1103 1.363 . S
C1102 H1105 0.929 . S
C1103 C1102 1.363 . S
C1103 C1109 1.428 . S
H1104 C1100 0.930 . S
H1105 C1102 0.929 . S
S1106 N1107 1.613 . S
S1106 N1108 1.610 . S
N1107 S1106 1.613 . S
N1107 C1110 1.350 . S
N1108 S1106 1.610 . S
N1108 C1109 1.351 . S
C1109 C1103 1.428 . S
C1109 N1108 1.351 . S
C1109 C1110 1.434 . S
C1110 C1101 1.429 . S
C1110 N1107 1.350 . S
C1110 C1109 1.434 . S
C1111 C1112 1.369 . S
C1111 C1113 1.419 . S
C1111 H1115 0.930 . S
C1112 C1111 1.369 . S
C1112 C1121 1.429 . S
C1113 C1111 1.419 . S
C1113 C1114 1.363 . S
C1113 H1116 0.929 . S
C1114 C1113 1.363 . S
C1114 C1120 1.428 . S
H1115 C1111 0.930 . S
H1116 C1113 0.929 . S
S1117 N1118 1.613 . S
S1117 N1119 1.622 . S
N1118 S1117 1.613 . S
N1118 C1121 1.350 1_565 S
N1119 S1117 1.622 . S
N1119 C1120 1.340 1_565 S
C1120 C1114 1.428 . S
C1120 N1119 1.340 1_545 S
C1120 C1121 1.434 . S
C1121 C1112 1.429 . S
C1121 N1118 1.350 1_545 S
C1121 C1120 1.434 . S
C1122 C1123 1.369 . S
C1122 C1124 1.419 . S
C1122 H1126 0.930 1_455 S
C1123 C1122 1.369 . S
C1123 C1132 1.429 . S
C1124 C1122 1.419 . S
C1124 C1125 1.363 . S
C1124 H1127 0.929 1_455 S
C1125 C1124 1.363 . S
C1125 C1131 1.428 . S
H1126 C1122 0.930 1_655 S
H1127 C1124 0.929 1_655 S
S1128 N1129 1.613 . S
S1128 N1130 1.610 . S
N1129 S1128 1.613 . S
N1129 C1132 1.350 . S
N1130 S1128 1.610 . S
N1130 C1131 1.351 . S
C1131 C1125 1.428 . S
C1131 N1130 1.351 . S
C1131 C1132 1.434 . S
C1132 C1123 1.429 . S
C1132 N1129 1.350 . S
C1132 C1131 1.434 . S
C1133 C1134 1.369 . S
C1133 C1135 1.419 . S
C1133 H1137 0.930 . S
C1134 C1133 1.369 . S
C1134 C1143 1.429 . S
C1135 C1133 1.419 . S
C1135 C1136 1.363 . S
C1135 H1138 0.929 . S
C1136 C1135 1.363 . S
C1136 C1142 1.428 . S
H1137 C1133 0.930 . S
H1138 C1135 0.929 . S
S1139 N1140 1.613 1_565 S
S1139 N1141 1.611 1_565 S
N1140 S1139 1.613 1_545 S
N1140 C1143 1.350 . S
N1141 S1139 1.611 1_545 S
N1141 C1142 1.351 . S
C1142 C1136 1.428 . S
C1142 N1141 1.351 . S
C1142 C1143 1.434 . S
C1143 C1134 1.429 . S
C1143 N1140 1.350 . S
C1143 C1142 1.434 . S
C1144 C1145 1.369 . S
C1144 C1146 1.419 . S
C1144 H1148 0.930 . S
C1145 C1144 1.369 . S
C1145 C1154 1.429 . S
C1146 C1144 1.419 . S
C1146 C1147 1.363 . S
C1146 H1149 0.929 . S
C1147 C1146 1.363 . S
C1147 C1153 1.428 . S
H1148 C1144 0.930 . S
H1149 C1146 0.929 . S
S1150 N1151 1.613 . S
S1150 N1152 1.610 . S
N1151 S1150 1.613 . S
N1151 C1154 1.350 . S
N1152 S1150 1.610 . S
N1152 C1153 1.351 . S
C1153 C1147 1.428 . S
C1153 N1152 1.351 . S
C1153 C1154 1.434 . S
C1154 C1145 1.429 . S
C1154 N1151 1.350 . S
C1154 C1153 1.434 . S
C1155 C1156 1.369 . S
C1155 C1157 1.419 . S
C1155 H1159 0.930 . S
C1156 C1155 1.369 . S
C1156 C1165 1.429 . S
C1157 C1155 1.419 . S
C1157 C1158 1.363 . S
C1157 H1160 0.929 . S
C1158 C1157 1.363 . S
C1158 C1164 1.428 . S
H1159 C1155 0.930 . S
H1160 C1157 0.929 . S
S1161 N1162 1.613 . S
S1161 N1163 1.610 . S
N1162 S1161 1.613 . S
N1162 C1165 1.350 . S
N1163 S1161 1.610 . S
N1163 C1164 1.351 . S
C1164 C1158 1.428 . S
C1164 N1163 1.351 . S
C1164 C1165 1.434 . S
C1165 C1156 1.429 . S
C1165 N1162 1.350 . S
C1165 C1164 1.434 . S
C1166 C1167 1.369 . S
C1166 C1168 1.419 . S
C1166 H1170 0.930 . S
C1167 C1166 1.369 . S
C1167 C1176 1.429 . S
C1168 C1166 1.419 . S
C1168 C1169 1.363 . S
C1168 H1171 0.929 . S
C1169 C1168 1.363 . S
C1169 C1175 1.428 . S
H1170 C1166 0.930 . S
H1171 C1168 0.929 . S
S1172 N1173 1.613 . S
S1172 N1174 1.610 . S
N1173 S1172 1.613 . S
N1173 C1176 1.350 . S
N1174 S1172 1.610 . S
N1174 C1175 1.351 . S
C1175 C1169 1.428 . S
C1175 N1174 1.351 . S
C1175 C1176 1.434 . S
C1176 C1167 1.429 . S
C1176 N1173 1.350 . S
C1176 C1175 1.434 . S
C1177 C1178 1.369 . S
C1177 C1179 1.419 . S
C1177 H1181 0.930 . S
C1178 C1177 1.369 . S
C1178 C1187 1.429 . S
C1179 C1177 1.419 . S
C1179 C1180 1.363 . S
C1179 H1182 0.929 . S
C1180 C1179 1.363 . S
C1180 C1186 1.428 . S
H1181 C1177 0.930 . S
H1182 C1179 0.929 . S
S1183 N1184 1.613 . S
S1183 N1185 1.610 . S
N1184 S1183 1.613 . S
N1184 C1187 1.350 . S
N1185 S1183 1.610 . S
N1185 C1186 1.351 . S
C1186 C1180 1.428 . S
C1186 N1185 1.351 . S
C1186 C1187 1.434 . S
C1187 C1178 1.429 . S
C1187 N1184 1.350 . S
C1187 C1186 1.434 . S
C1188 C1189 1.369 . S
C1188 C1190 1.419 . S
C1188 H1192 0.930 . S
C1189 C1188 1.369 . S
C1189 C1198 1.429 . S
C1190 C1188 1.419 . S
C1190 C1191 1.363 . S
C1190 H1193 0.929 . S
C1191 C1190 1.363 . S
C1191 C1197 1.428 . S
H1192 C1188 0.930 . S
H1193 C1190 0.929 . S
S1194 N1195 1.613 . S
S1194 N1196 1.610 . S
N1195 S1194 1.613 . S
N1195 C1198 1.350 . S
N1196 S1194 1.610 . S
N1196 C1197 1.351 . S
C1197 C1191 1.428 . S
C1197 N1196 1.351 . S
C1197 C1198 1.434 . S
C1198 C1189 1.429 . S
C1198 N1195 1.350 . S
C1198 C1197 1.434 . S
C1199 C1200 1.369 . S
C1199 C1201 1.419 . S
C1199 H1203 0.930 . S
C1200 C1199 1.369 . S
C1200 C1209 1.429 . S
C1201 C1199 1.419 . S
C1201 C1202 1.363 . S
C1201 H1204 0.929 . S
C1202 C1201 1.363 . S
C1202 C1208 1.428 . S
H1203 C1199 0.930 . S
H1204 C1201 0.929 . S
S1205 N1206 1.613 . S
S1205 N1207 1.610 . S
N1206 S1205 1.613 . S
N1206 C1209 1.350 . S
N1207 S1205 1.610 . S
N1207 C1208 1.351 . S
C1208 C1202 1.428 . S
C1208 N1207 1.351 . S
C1208 C1209 1.434 . S
C1209 C1200 1.429 . S
C1209 N1206 1.350 . S
C1209 C1208 1.434 . S
C1210 C1211 1.369 . S
C1210 C1212 1.419 . S
C1210 H1214 0.930 . S
C1211 C1210 1.369 . S
C1211 C1220 1.429 . S
C1212 C1210 1.419 . S
C1212 C1213 1.363 . S
C1212 H1215 0.929 . S
C1213 C1212 1.363 . S
C1213 C1219 1.428 . S
H1214 C1210 0.930 . S
H1215 C1212 0.929 . S
S1216 N1217 1.613 . S
S1216 N1218 1.610 . S
N1217 S1216 1.613 . S
N1217 C1220 1.350 . S
N1218 S1216 1.610 . S
N1218 C1219 1.351 . S
C1219 C1213 1.428 . S
C1219 N1218 1.351 . S
C1219 C1220 1.434 . S
C1220 C1211 1.429 . S
C1220 N1217 1.350 . S
C1220 C1219 1.434 . S
C1221 C1222 1.369 . S
C1221 C1223 1.419 . S
C1221 H1225 0.930 . S
C1222 C1221 1.369 . S
C1222 C1231 1.429 . S
C1223 C1221 1.419 . S
C1223 C1224 1.363 . S
C1223 H1226 0.929 . S
C1224 C1223 1.363 . S
C1224 C1230 1.428 . S
H1225 C1221 0.930 . S
H1226 C1223 0.929 . S
S1227 N1228 1.613 . S
S1227 N1229 1.610 . S
N1228 S1227 1.613 . S
N1228 C1231 1.350 . S
N1229 S1227 1.610 . S
N1229 C1230 1.351 . S
C1230 C1224 1.428 . S
C1230 N1229 1.351 . S
C1230 C1231 1.434 . S
C1231 C1222 1.429 . S
C1231 N1228 1.350 . S
C1231 C1230 1.434 . S
C1232 C1233 1.369 . S
C1232 C1234 1.419 . S
C1232 H1236 0.930 . S
C1233 C1232 1.369 . S
C1233 C1242 1.429 . S
C1234 C1232 1.419 . S
C1234 C1235 1.363 . S
C1234 H1237 0.929 . S
C1235 C1234 1.363 . S
C1235 C1241 1.428 . S
H1236 C1232 0.930 . S
H1237 C1234 0.929 . S
S1238 N1239 1.613 . S
S1238 N1240 1.610 . S
N1239 S1238 1.613 . S
N1239 C1242 1.350 . S
N1240 S1238 1.610 . S
N1240 C1241 1.351 . S
C1241 C1235 1.428 . S
C1241 N1240 1.351 . S
C1241 C1242 1.434 . S
C1242 C1233 1.429 . S
C1242 N1239 1.350 . S
C1242 C1241 1.434 . S
C1243 C1244 1.369 . S
C1243 C1245 1.419 . S
C1243 H1247 0.930 . S
C1244 C1243 1.369 . S
C1244 C1253 1.429 . S
C1245 C1243 1.419 . S
C1245 C1246 1.363 . S
C1245 H1248 0.929 . S
C1246 C1245 1.363 . S
C1246 C1252 1.428 . S
H1247 C1243 0.930 . S
H1248 C1245 0.929 . S
S1249 N1250 1.613 . S
S1249 N1251 1.610 . S
N1250 S1249 1.613 . S
N1250 C1253 1.350 . S
N1251 S1249 1.610 . S
N1251 C1252 1.351 . S
C1252 C1246 1.428 . S
C1252 N1251 1.351 . S
C1252 C1253 1.434 . S
C1253 C1244 1.429 . S
C1253 N1250 1.350 . S
C1253 C1252 1.434 . S
C1254 C1255 1.369 . S
C1254 C1256 1.419 . S
C1254 H1258 0.930 . S
C1255 C1254 1.369 . S
C1255 C1264 1.429 . S
C1256 C1254 1.419 . S
C1256 C1257 1.363 . S
C1256 H1259 0.929 . S
C1257 C1256 1.363 . S
C1257 C1263 1.428 . S
H1258 C1254 0.930 . S
H1259 C1256 0.929 . S
S1260 N1261 1.613 . S
S1260 N1262 1.610 . S
N1261 S1260 1.613 . S
N1261 C1264 1.350 . S
N1262 S1260 1.610 . S
N1262 C1263 1.351 . S
C1263 C1257 1.428 . S
C1263 N1262 1.351 . S
C1263 C1264 1.434 . S
C1264 C1255 1.429 . S
C1264 N1261 1.350 . S
C1264 C1263 1.434 . S
C1265 C1266 1.369 . S
C1265 C1267 1.419 . S
C1265 H1269 0.930 . S
C1266 C1265 1.369 . S
C1266 C1275 1.429 . S
C1267 C1265 1.419 . S
C1267 C1268 1.363 . S
C1267 H1270 0.929 . S
C1268 C1267 1.363 . S
C1268 C1274 1.428 . S
H1269 C1265 0.930 . S
H1270 C1267 0.929 . S
S1271 N1272 1.613 . S
S1271 N1273 1.610 . S
N1272 S1271 1.613 . S
N1272 C1275 1.350 . S
N1273 S1271 1.610 . S
N1273 C1274 1.351 . S
C1274 C1268 1.428 . S
C1274 N1273 1.351 . S
C1274 C1275 1.434 . S
C1275 C1266 1.429 . S
C1275 N1272 1.350 . S
C1275 C1274 1.434 . S
C1276 C1277 1.369 . S
C1276 C1278 1.419 . S
C1276 H1280 0.930 . S
C1277 C1276 1.369 . S
C1277 C1286 1.429 . S
C1278 C1276 1.419 . S
C1278 C1279 1.363 . S
C1278 H1281 0.929 . S
C1279 C1278 1.363 . S
C1279 C1285 1.428 . S
H1280 C1276 0.930 . S
H1281 C1278 0.929 . S
S1282 N1283 1.613 . S
S1282 N1284 1.610 . S
N1283 S1282 1.613 . S
N1283 C1286 1.350 . S
N1284 S1282 1.610 . S
N1284 C1285 1.351 . S
C1285 C1279 1.428 . S
C1285 N1284 1.351 . S
C1285 C1286 1.434 . S
C1286 C1277 1.429 . S
C1286 N1283 1.350 . S
C1286 C1285 1.434 . S
C1287 C1288 1.369 . S
C1287 C1289 1.419 . S
C1287 H1291 0.930 . S
C1288 C1287 1.369 . S
C1288 C1297 1.429 . S
C1289 C1287 1.419 . S
C1289 C1290 1.363 . S
C1289 H1292 0.929 . S
C1290 C1289 1.363 . S
C1290 C1296 1.428 . S
H1291 C1287 0.930 . S
H1292 C1289 0.929 . S
S1293 N1294 1.613 . S
S1293 N1295 1.610 . S
N1294 S1293 1.613 . S
N1294 C1297 1.350 . S
N1295 S1293 1.610 . S
N1295 C1296 1.351 . S
C1296 C1290 1.428 . S
C1296 N1295 1.351 . S
C1296 C1297 1.434 . S
C1297 C1288 1.429 . S
C1297 N1294 1.350 . S
C1297 C1296 1.434 . S
C1298 C1299 1.369 . S
C1298 C1300 1.419 . S
C1298 H1302 0.930 . S
C1299 C1298 1.369 . S
C1299 C1308 1.429 . S
C1300 C1298 1.419 . S
C1300 C1301 1.363 . S
C1300 H1303 0.929 . S
C1301 C1300 1.363 . S
C1301 C1307 1.428 . S
H1302 C1298 0.930 . S
H1303 C1300 0.929 . S
S1304 N1305 1.613 . S
S1304 N1306 1.610 . S
N1305 S1304 1.613 . S
N1305 C1308 1.350 . S
N1306 S1304 1.610 . S
N1306 C1307 1.351 . S
C1307 C1301 1.428 . S
C1307 N1306 1.351 . S
C1307 C1308 1.434 . S
C1308 C1299 1.429 . S
C1308 N1305 1.350 . S
C1308 C1307 1.434 . S
C1309 C1310 1.369 . S
C1309 C1311 1.419 . S
C1309 H1313 0.930 . S
C1310 C1309 1.369 . S
C1310 C1319 1.429 . S
C1311 C1309 1.419 . S
C1311 C1312 1.363 . S
C1311 H1314 0.929 . S
C1312 C1311 1.363 . S
C1312 C1318 1.428 . S
H1313 C1309 0.930 . S
H1314 C1311 0.929 . S
S1315 N1316 1.613 . S
S1315 N1317 1.610 . S
N1316 S1315 1.613 . S
N1316 C1319 1.350 . S
N1317 S1315 1.610 . S
N1317 C1318 1.351 . S
C1318 C1312 1.428 . S
C1318 N1317 1.351 . S
C1318 C1319 1.434 . S
C1319 C1310 1.429 . S
C1319 N1316 1.350 . S
C1319 C1318 1.434 . S
C529 C491 1.698 . S
C531 C7 1.722 . S
C540 C456 1.359 . S
C542 C18 1.781 . S
C551 C27 1.075 . S
C553 C467 1.043 . S
C562 C40 1.735 . S
C564 C478 1.404 . S
C573 C524 1.882 . S
C575 C51 1.894 . S
C584 C500 1.308 . S
C586 C60 1.264 . S
C595 C71 1.148 . S
C597 C513 1.542 . S
C606 C445 1.276 . S
C608 C82 1.256 . S
C617 C434 1.201 . S
C619 C95 1.632 . S
C628 C104 1.121 . S
C630 C401 1.233 . S
C639 C414 1.778 . S
C641 C117 1.759 . S
C650 C128 1.785 . S
C652 C423 1.306 . S
C661 C368 1.143 . S
C663 C137 1.229 . S
C672 C150 1.776 . S
C674 C381 1.759 . S
C683 C159 1.301 . S
C685 C392 1.786 . S
C694 C170 1.204 . S
C696 C359 1.631 . S
C705 C181 1.274 . S
C707 C346 1.259 . S
C716 C192 1.360 1_556 S
C718 C282 1.781 . S
C727 C203 1.050 . S
C729 C291 1.073 . S
C738 C304 1.733 . S
C740 C214 1.391 . S
C749 C271 1.721 . S
C751 C227 1.694 . S
C760 C324 1.269 . S
C762 C236 1.292 . S
C771 C249 1.542 . S
C773 C335 1.146 . S
C782 C260 1.888 . S
C784 C315 1.892 . S
C793 C49 1.718 . S
C795 C469 1.610 . S
C804 C480 1.604 . S
C806 C62 1.532 . S
C815 C73 1.755 . S
C817 C489 1.871 . S
C826 C84 1.630 . S
C828 C458 1.616 . S
C837 C511 1.513 . S
C839 C5 1.525 1_655 S
C848 C16 1.496 . S
C850 C447 1.457 . S
C859 C29 1.652 . S
C861 C522 1.758 . S
C870 C38 1.607 . S
C872 C502 1.552 . S
C881 C161 1.642 1_565 S
C883 C370 1.699 . S
C892 C172 1.737 . S
C894 C379 1.857 . S
C903 C390 1.367 . S
C905 C139 1.441 . S
C914 C148 1.511 . S
C916 C357 1.494 . S
C925 C115 1.858 . S
C927 C436 1.738 . S
C936 C126 1.365 . S
C938 C403 1.443 . S
C947 C412 1.510 . S
C949 C93 1.496 . S
C958 C425 1.655 . S
C960 C106 1.691 . S
C969 C238 1.515 1_556 S
C971 C302 1.601 . S
C980 C326 1.541 . S
C982 C216 1.598 . S
C991 C225 1.868 . S
C993 C337 1.749 . S
C1002 C348 1.628 . S
C1004 C194 1.617 . S
C1013 C205 1.611 . S
C1015 C313 1.673 . S
C1024 C183 1.454 1_556 S
C1026 C280 1.492 . S
C1035 C258 1.761 . S
C1037 C293 1.658 . S
C1046 C269 1.527 . S
C1048 C247 1.510 1_556 S
C1057 C8 1.620 . S
C1059 C107 1.583 . S
C1068 C19 1.667 . S
C1070 C118 1.675 . S
C1079 C129 1.538 . S
C1081 C30 1.516 . S
C1090 C96 1.639 . S
C1092 C41 1.642 . S
C1101 C173 1.693 . S
C1103 C52 1.741 . S
C1112 C140 1.708 . S
C1114 C63 1.572 . S
C1123 C74 1.634 . S
C1125 C151 1.670 . S
C1134 C85 1.681 . S
C1136 C162 1.658 . S
C1145 C206 1.562 . S
C1147 C184 1.517 . S
C1156 C195 1.538 . S
C1158 C250 1.591 . S
C1167 C261 1.708 . S
C1169 C217 1.694 . S
C1178 C228 1.684 . S
C1180 C239 1.661 . S
C1189 C371 1.576 . S
C1191 C272 1.621 . S
C1200 C283 1.667 . S
C1202 C382 1.674 . S
C1211 C294 1.513 . S
C1213 C393 1.538 . S
C1222 C305 1.640 . S
C1224 C360 1.642 . S
C1233 C437 1.693 . S
C1235 C316 1.741 . S
C1244 C404 1.708 . S
C1246 C327 1.572 . S
C1255 C415 1.670 . S
C1257 C338 1.637 . S
C1266 C349 1.680 . S
C1268 C426 1.656 . S
C1277 C470 1.559 . S
C1279 C448 1.511 . S
C1288 C514 1.591 . S
C1290 C459 1.539 . S
C1299 C481 1.694 . S
C1301 C525 1.709 . S
C1310 C503 1.659 . S
C1312 C492 1.684 . S
