# Generated by pormake.
# Topology sow, (4)-cn, num edge types: 1
# Building blocks:
#     Node 0, Type 0, BuildingBlock: CEKHIL_clean_sbu_0, # of connection points: 4
#     Node 1, Type 0, BuildingBlock: CEKHIL_clean_sbu_0, # of connection points: 4
#     Node 2, Type 0, BuildingBlock: CEKHIL_clean_sbu_0, # of connection points: 4
#     Node 3, Type 0, BuildingBlock: CEKHIL_clean_sbu_0, # of connection points: 4
#     Node 4, Type 0, BuildingBlock: CEKHIL_clean_sbu_0, # of connection points: 4
#     Node 5, Type 0, BuildingBlock: CEKHIL_clean_sbu_0, # of connection points: 4
#     Node 6, Type 0, BuildingBlock: CEKHIL_clean_sbu_0, # of connection points: 4
#     Node 7, Type 0, BuildingBlock: CEKHIL_clean_sbu_0, # of connection points: 4
#     Edge 8, Type (0, 0), BuildingBlock: CIFDUS_clean_linker_0, # of connection points: 2
#     Edge 9, Type (0, 0), BuildingBlock: CIFDUS_clean_linker_0, # of connection points: 2
#     Edge 10, Type (0, 0), BuildingBlock: CIFDUS_clean_linker_0, # of connection points: 2
#     Edge 11, Type (0, 0), BuildingBlock: CIFDUS_clean_linker_0, # of connection points: 2
#     Edge 12, Type (0, 0), BuildingBlock: CIFDUS_clean_linker_0, # of connection points: 2
#     Edge 13, Type (0, 0), BuildingBlock: CIFDUS_clean_linker_0, # of connection points: 2
#     Edge 14, Type (0, 0), BuildingBlock: CIFDUS_clean_linker_0, # of connection points: 2
#     Edge 15, Type (0, 0), BuildingBlock: CIFDUS_clean_linker_0, # of connection points: 2
#     Edge 16, Type (0, 0), BuildingBlock: CIFDUS_clean_linker_0, # of connection points: 2
#     Edge 17, Type (0, 0), BuildingBlock: CIFDUS_clean_linker_0, # of connection points: 2
#     Edge 18, Type (0, 0), BuildingBlock: CIFDUS_clean_linker_0, # of connection points: 2
#     Edge 19, Type (0, 0), BuildingBlock: CIFDUS_clean_linker_0, # of connection points: 2
#     Edge 20, Type (0, 0), BuildingBlock: CIFDUS_clean_linker_0, # of connection points: 2
#     Edge 21, Type (0, 0), BuildingBlock: CIFDUS_clean_linker_0, # of connection points: 2
#     Edge 22, Type (0, 0), BuildingBlock: CIFDUS_clean_linker_0, # of connection points: 2
#     Edge 23, Type (0, 0), BuildingBlock: CIFDUS_clean_linker_0, # of connection points: 2
# Relax obj value: 0.167
# Max RMSD: 0.207
# Mean RMSD: 0.207
data_MOF--net-sow--node1-CEKHIL_clean_sbu_0--edge1-CIFDUS_clean_linker_0
_symmetry_space_group_name_H-M    P1
_symmetry_Int_Tables_number       1
_symmetry_cell_setting            triclinic
loop_
_symmetry_equiv_pos_as_xyz
'x, y, z'
_cell_length_a     34.222005
_cell_length_b     19.231563
_cell_length_c     20.438881
_cell_angle_alpha  90.233842
_cell_angle_beta   89.884106
_cell_angle_gamma 90.15254
loop_
_atom_site_label
_atom_site_type_symbol
_atom_site_fract_x
_atom_site_fract_y
_atom_site_fract_z
_atom_type_partial_charge
Co0 Co 0.13513 0.20224 0.02069 0.0
O1 O 0.17369 0.19251 0.95338 0.0
O2 O 0.15194 0.29348 0.99113 0.0
C3 C 0.09186 0.12513 0.98016 0.0
O4 O 0.09323 0.22982 0.08707 0.0
Co5 Co 0.119 0.07223 0.10789 0.0
O6 O 0.07438 0.13013 0.13644 0.0
C7 C 0.1867 0.16048 0.1378 0.0
C8 C 0.17352 0.2597 0.94919 0.0
C9 C 0.07072 0.19499 0.12558 0.0
O10 O 0.17645 0.20233 0.09176 0.0
O11 O 0.16933 0.10267 0.14866 0.0
O12 O 0.09394 0.18756 0.95662 0.0
O13 O 0.11972 0.10864 0.01989 0.0
Co14 Co 0.35385 0.30363 0.5285 0.0
O15 O 0.32136 0.32147 0.45399 0.0
O16 O 0.33191 0.21717 0.49575 0.0
C17 C 0.40515 0.36926 0.49698 0.0
O18 O 0.38699 0.26617 0.60324 0.0
Co19 Co 0.37507 0.42937 0.61936 0.0
O20 O 0.4094 0.35905 0.66008 0.0
C21 C 0.2997 0.35809 0.63758 0.0
C22 C 0.31571 0.25488 0.45055 0.0
C23 C 0.40771 0.29383 0.64897 0.0
O24 O 0.30843 0.3153 0.59107 0.0
O25 O 0.3211 0.4103 0.65299 0.0
O26 O 0.40044 0.30705 0.47335 0.0
O27 O 0.37631 0.39253 0.53147 0.0
Co28 Co 0.63466 0.31905 0.97561 0.0
O29 O 0.66959 0.34813 0.04349 0.0
O30 O 0.65675 0.23833 0.01842 0.0
C31 C 0.58487 0.38964 0.00363 0.0
O32 O 0.59887 0.27166 0.90928 0.0
Co33 Co 0.61176 0.43134 0.87247 0.0
O34 O 0.57491 0.35716 0.84531 0.0
C35 C 0.68567 0.35502 0.85628 0.0
C36 C 0.67442 0.28288 0.05649 0.0
C37 C 0.57652 0.29382 0.86329 0.0
O38 O 0.67806 0.31962 0.90825 0.0
O39 O 0.66437 0.40547 0.83676 0.0
O40 O 0.59013 0.33138 0.03399 0.0
O41 O 0.61258 0.40727 0.96389 0.0
Co42 Co 0.84 0.16329 0.47168 0.0
O43 O 0.80286 0.15628 0.5421 0.0
O44 O 0.82583 0.25528 0.50209 0.0
C45 C 0.88243 0.08296 0.50758 0.0
O46 O 0.88033 0.19074 0.4033 0.0
Co47 Co 0.85482 0.03496 0.38059 0.0
O48 O 0.89727 0.095 0.34572 0.0
C49 C 0.78499 0.12007 0.36049 0.0
C50 C 0.80437 0.22366 0.54538 0.0
C51 C 0.90106 0.15929 0.35988 0.0
O52 O 0.79724 0.1647 0.40318 0.0
O53 O 0.80145 0.06139 0.35025 0.0
O54 O 0.88278 0.14534 0.53225 0.0
O55 O 0.85341 0.06907 0.46949 0.0
Co56 Co 0.85165 0.81771 0.97787 0.0
O57 O 0.81604 0.84518 0.04539 0.0
O58 O 0.82972 0.73594 0.02035 0.0
C59 C 0.90094 0.88938 0.00658 0.0
O60 O 0.88875 0.77255 0.91196 0.0
Co61 Co 0.87408 0.93272 0.87619 0.0
O62 O 0.91238 0.8607 0.85025 0.0
C63 C 0.80058 0.85532 0.85926 0.0
C64 C 0.81165 0.77984 0.05854 0.0
C65 C 0.91157 0.79701 0.86736 0.0
O66 O 0.8087 0.81777 0.90964 0.0
O67 O 0.82129 0.90748 0.84156 0.0
O68 O 0.89568 0.83112 0.03707 0.0
O69 O 0.87322 0.90649 0.967 0.0
Co70 Co 0.64427 0.67846 0.4707 0.0
O71 O 0.67766 0.66783 0.54532 0.0
O72 O 0.664 0.76845 0.49833 0.0
C73 C 0.59474 0.6111 0.50672 0.0
O74 O 0.60961 0.70872 0.3954 0.0
Co75 Co 0.62577 0.54565 0.38719 0.0
O76 O 0.59187 0.61193 0.33969 0.0
C77 C 0.69929 0.62047 0.36442 0.0
C78 C 0.68109 0.73499 0.54551 0.0
C79 C 0.59106 0.67751 0.34914 0.0
O80 O 0.68925 0.66693 0.40696 0.0
O81 O 0.6799 0.56447 0.35443 0.0
O82 O 0.59831 0.67474 0.52725 0.0
O83 O 0.62388 0.5879 0.47288 0.0
Co84 Co 0.35224 0.71127 0.03516 0.0
O85 O 0.31744 0.69865 0.96288 0.0
O86 O 0.33474 0.80096 0.00411 0.0
C87 C 0.39903 0.63844 0.99914 0.0
O88 O 0.38943 0.7428 0.10713 0.0
Co89 Co 0.36857 0.58296 0.12378 0.0
O90 O 0.4103 0.64513 0.15705 0.0
C91 C 0.29751 0.66522 0.1469 0.0
C92 C 0.31626 0.76586 0.95912 0.0
C93 C 0.41155 0.71059 0.14774 0.0
O94 O 0.30777 0.70691 0.10062 0.0
O95 O 0.31642 0.60985 0.16068 0.0
O96 O 0.39674 0.70122 0.97665 0.0
O97 O 0.37009 0.61905 0.03572 0.0
Co98 Co 0.13822 0.82374 0.54 0.0
O99 O 0.16935 0.83582 0.46259 0.0
O100 O 0.15396 0.73382 0.5055 0.0
C101 C 0.09039 0.89876 0.51361 0.0
O102 O 0.10521 0.79219 0.61761 0.0
Co103 Co 0.12678 0.95285 0.63222 0.0
O104 O 0.09274 0.88678 0.68019 0.0
C105 C 0.19869 0.87032 0.64206 0.0
C106 C 0.17105 0.76859 0.45892 0.0
C107 C 0.08943 0.82202 0.66756 0.0
O108 O 0.18582 0.82719 0.59858 0.0
O109 O 0.18123 0.92699 0.6569 0.0
O110 O 0.09031 0.83619 0.48939 0.0
O111 O 0.12158 0.91608 0.54498 0.0
H112 H 0.2747 0.42885 0.74644 0.0
H113 H 0.25191 0.24413 0.63121 0.0
H114 H 0.20986 0.19932 0.71746 0.0
H115 H 0.18545 0.20623 0.82965 0.0
H116 H 0.20617 0.39038 0.94552 0.0
H117 H 0.24349 0.44178 0.8548 0.0
C118 C 0.25996 0.3794 0.73946 0.0
C119 C 0.26711 0.33957 0.68247 0.0
C120 C 0.23613 0.35322 0.78986 0.0
C121 C 0.24732 0.2759 0.67442 0.0
C122 C 0.22344 0.24985 0.72403 0.0
C123 C 0.1981 0.25774 0.83503 0.0
C124 C 0.19396 0.294 0.89447 0.0
C125 C 0.21878 0.28694 0.78268 0.0
C126 C 0.20944 0.36134 0.90032 0.0
C127 C 0.23068 0.3906 0.8485 0.0
H128 H 0.21426 0.08988 0.2439 0.0
H129 H 0.2263 0.28447 0.1406 0.0
H130 H 0.26756 0.32981 0.22808 0.0
H131 H 0.29654 0.3174 0.33687 0.0
H132 H 0.28526 0.12333 0.44044 0.0
H133 H 0.24704 0.07477 0.34979 0.0
C134 C 0.22625 0.14194 0.23989 0.0
C135 C 0.21679 0.18375 0.18559 0.0
C136 C 0.24963 0.16816 0.29086 0.0
C137 C 0.2329 0.25097 0.18157 0.0
C138 C 0.25636 0.2772 0.23186 0.0
C139 C 0.28571 0.26443 0.33971 0.0
C140 C 0.29327 0.22426 0.39568 0.0
C141 C 0.26417 0.23682 0.2873 0.0
C142 C 0.27962 0.15541 0.39807 0.0
C143 C 0.25782 0.12766 0.34623 0.0
H144 H 0.77222 0.24971 0.31521 0.0
H145 H 0.73341 0.03728 0.29435 0.0
H146 H 0.69568 0.06844 0.19732 0.0
H147 H 0.6777 0.15476 0.11359 0.0
H148 H 0.71944 0.36586 0.13323 0.0
H149 H 0.75247 0.33625 0.23463 0.0
C150 C 0.75465 0.21063 0.2905 0.0
C151 C 0.75533 0.14148 0.31223 0.0
C152 C 0.73437 0.2283 0.23336 0.0
C153 C 0.73313 0.09105 0.27874 0.0
C154 C 0.71188 0.10867 0.22289 0.0
C155 C 0.69424 0.19405 0.1399 0.0
C156 C 0.69636 0.26218 0.11549 0.0
C157 C 0.71315 0.17678 0.19868 0.0
C158 C 0.7175 0.31282 0.15062 0.0
C159 C 0.73626 0.29612 0.20892 0.0
H160 H 0.71185 0.4149 0.74308 0.0
H161 H 0.72797 0.23498 0.86606 0.0
H162 H 0.76644 0.17921 0.78046 0.0
H163 H 0.78999 0.17636 0.66703 0.0
H164 H 0.77621 0.35659 0.54461 0.0
H165 H 0.74188 0.41714 0.63351 0.0
C166 C 0.72432 0.364 0.75179 0.0
C167 C 0.71641 0.329 0.81093 0.0
C168 C 0.74612 0.33163 0.70191 0.0
C169 C 0.73331 0.26331 0.82123 0.0
C170 C 0.75508 0.23095 0.77197 0.0
C171 C 0.77943 0.22892 0.65986 0.0
C172 C 0.78478 0.26158 0.59909 0.0
C173 C 0.76057 0.26368 0.71146 0.0
C174 C 0.77198 0.33026 0.59085 0.0
C175 C 0.75247 0.36484 0.64167 0.0
H176 H 0.80405 0.64943 0.11188 0.0
H177 H 0.77144 0.86424 0.1407 0.0
H178 H 0.73939 0.83503 0.24302 0.0
H179 H 0.71779 0.74889 0.32211 0.0
H180 H 0.74557 0.53251 0.29223 0.0
H181 H 0.78316 0.56211 0.194 0.0
C182 C 0.78972 0.68962 0.14042 0.0
C183 C 0.79001 0.75882 0.11819 0.0
C184 C 0.77101 0.67247 0.19979 0.0
C185 C 0.77157 0.81043 0.15617 0.0
C186 C 0.75336 0.79395 0.21511 0.0
C187 C 0.73294 0.70831 0.29523 0.0
C188 C 0.72928 0.63873 0.315 0.0
C189 C 0.75283 0.72525 0.23735 0.0
C190 C 0.74828 0.58663 0.27841 0.0
C191 C 0.7694 0.60345 0.22183 0.0
H192 H 0.69398 0.68492 0.66666 0.0
H193 H 0.71211 0.86644 0.54702 0.0
H194 H 0.74687 0.92359 0.63729 0.0
H195 H 0.77582 0.91809 0.74709 0.0
H196 H 0.75677 0.7361 0.86652 0.0
H197 H 0.71752 0.68391 0.77982 0.0
C198 C 0.70558 0.73701 0.66028 0.0
C199 C 0.70121 0.771 0.59991 0.0
C200 C 0.72494 0.76967 0.71251 0.0
C201 C 0.7155 0.83903 0.59285 0.0
C202 C 0.73526 0.87169 0.64447 0.0
C203 C 0.7626 0.86747 0.75482 0.0
C204 C 0.7698 0.83086 0.8133 0.0
C205 C 0.7406 0.83707 0.70422 0.0
C206 C 0.75198 0.76559 0.82224 0.0
C207 C 0.72976 0.73533 0.77236 0.0
H208 H 0.3005 0.70656 0.84247 0.0
H209 H 0.29198 0.90091 0.94763 0.0
H210 H 0.26005 0.95421 0.85305 0.0
H211 H 0.22994 0.94199 0.74487 0.0
H212 H 0.23807 0.74636 0.64083 0.0
H213 H 0.27632 0.69789 0.73011 0.0
C214 C 0.29161 0.76061 0.8448 0.0
C215 C 0.29773 0.79947 0.90238 0.0
C216 C 0.27377 0.79081 0.79026 0.0
C217 C 0.28706 0.86983 0.90409 0.0
C218 C 0.26898 0.90027 0.85 0.0
C219 C 0.24066 0.88913 0.74086 0.0
C220 C 0.23047 0.84763 0.68635 0.0
C221 C 0.26164 0.86084 0.79326 0.0
C222 C 0.24518 0.77954 0.6821 0.0
C223 C 0.26673 0.75146 0.73352 0.0
H224 H 0.26934 0.59587 0.2539 0.0
H225 H 0.25495 0.7855 0.14382 0.0
H226 H 0.21323 0.83241 0.22988 0.0
H227 H 0.18627 0.82466 0.34071 0.0
H228 H 0.19966 0.63575 0.4513 0.0
H229 H 0.23649 0.58357 0.3606 0.0
C230 C 0.2566 0.64702 0.24803 0.0
C231 C 0.26587 0.68729 0.19247 0.0
C232 C 0.23297 0.67431 0.2983 0.0
C233 C 0.24866 0.75326 0.1859 0.0
C234 C 0.22494 0.78045 0.2354 0.0
C235 C 0.19713 0.77193 0.34492 0.0
C236 C 0.19088 0.73447 0.40303 0.0
C237 C 0.21792 0.74231 0.29258 0.0
C238 C 0.20437 0.66576 0.40724 0.0
C239 C 0.22542 0.636 0.35541 0.0
H240 H 0.06422 0.23393 0.25125 0.0
H241 H 0.00116 0.22051 0.06966 0.0
H242 H 0.93905 0.22001 0.12908 0.0
H243 H 0.90497 0.19454 0.23273 0.0
H244 H 0.96824 0.2045 0.4144 0.0
H245 H 0.02813 0.23607 0.35559 0.0
C246 C 0.03672 0.23483 0.22489 0.0
C247 C 0.03689 0.22786 0.15654 0.0
C248 C 0.00135 0.23193 0.25961 0.0
C249 C 0.00142 0.2273 0.12234 0.0
C250 C 0.966 0.22568 0.15639 0.0
C251 C 0.93163 0.20627 0.25927 0.0
C252 C 0.93271 0.19714 0.32728 0.0
C253 C 0.96584 0.22361 0.22502 0.0
C254 C 0.96708 0.21183 0.36189 0.0
C255 C 0.00127 0.22934 0.32825 0.0
H256 H 0.47815 0.23582 0.62721 0.0
H257 H 0.38798 0.26113 0.77232 0.0
H258 H 0.43502 0.24001 0.85961 0.0
H259 H 0.50372 0.25172 0.89246 0.0
H260 H 0.59436 0.23594 0.74711 0.0
H261 H 0.54576 0.2133 0.66227 0.0
C262 C 0.4686 0.23261 0.67778 0.0
C263 C 0.43001 0.25009 0.69385 0.0
C264 C 0.49624 0.22354 0.72774 0.0
C265 C 0.41769 0.24733 0.7593 0.0
C266 C 0.44469 0.23615 0.8092 0.0
C267 C 0.51276 0.23895 0.84292 0.0
C268 C 0.55222 0.24553 0.82558 0.0
C269 C 0.48446 0.22949 0.79403 0.0
C270 C 0.56397 0.23041 0.76126 0.0
C271 C 0.53612 0.21866 0.71258 0.0
H272 H 0.02202 0.75291 0.64269 0.0
H273 H 0.10323 0.80526 0.79594 0.0
H274 H 0.05438 0.77688 0.87889 0.0
H275 H 0.98466 0.77079 0.90462 0.0
H276 H 0.90158 0.73223 0.75109 0.0
H277 H 0.95462 0.71856 0.67179 0.0
C278 C 0.02937 0.75476 0.69429 0.0
C279 C 0.06578 0.78139 0.71367 0.0
C280 C 0.00042 0.74158 0.74166 0.0
C281 C 0.07515 0.78493 0.7804 0.0
C282 C 0.04717 0.76916 0.82775 0.0
C283 C 0.97849 0.75506 0.8546 0.0
C284 C 0.93961 0.75223 0.83341 0.0
C285 C 0.00902 0.75205 0.80879 0.0
C286 C 0.9315 0.73364 0.76835 0.0
C287 C 0.96183 0.72725 0.72279 0.0
H288 H 0.48582 0.73099 0.11349 0.0
H289 H 0.40289 0.7666 0.26835 0.0
H290 H 0.45606 0.77753 0.34769 0.0
H291 H 0.5236 0.74432 0.3754 0.0
H292 H 0.60465 0.69508 0.22075 0.0
H293 H 0.55555 0.72362 0.1386 0.0
C294 C 0.47976 0.745 0.16401 0.0
C295 C 0.44094 0.74852 0.18549 0.0
C296 C 0.51029 0.74698 0.20956 0.0
C297 C 0.43283 0.76479 0.25106 0.0
C298 C 0.46319 0.76988 0.29647 0.0
C299 C 0.53081 0.74314 0.32368 0.0
C300 C 0.56727 0.71771 0.30355 0.0
C301 C 0.50176 0.75631 0.27689 0.0
C302 C 0.57655 0.71478 0.23674 0.0
C303 C 0.54843 0.73055 0.18991 0.0
H304 H 0.07122 0.00785 0.04603 0.0
H305 H 0.03116 0.15068 0.89846 0.0
H306 H 0.96823 0.09114 0.89415 0.0
H307 H 0.92366 0.00121 0.93507 0.0
H308 H 0.96327 0.85927 0.08371 0.0
H309 H 0.027 0.91642 0.08553 0.0
C310 C 0.04885 0.02553 0.01255 0.0
C311 C 0.05582 0.08364 0.97281 0.0
C312 C 0.01243 0.99185 0.01113 0.0
C313 C 0.02651 0.10602 0.92968 0.0
C314 C 0.99043 0.07224 0.92735 0.0
C315 C 0.9462 0.98294 0.96796 0.0
C316 C 0.93871 0.92638 0.00935 0.0
C317 C 0.98287 0.01572 0.9685 0.0
C318 C 0.96826 0.90302 0.05151 0.0
C319 C 0.00478 0.93545 0.05244 0.0
H320 H 0.57555 0.48611 0.45283 0.0
H321 H 0.53033 0.65049 0.57555 0.0
H322 H 0.46745 0.59082 0.58258 0.0
H323 H 0.42498 0.49281 0.5527 0.0
H324 H 0.46998 0.32858 0.4296 0.0
H325 H 0.53312 0.38766 0.4234 0.0
C326 C 0.552 0.50868 0.48135 0.0
C327 C 0.55761 0.57256 0.51363 0.0
C328 C 0.51577 0.47441 0.48472 0.0
C329 C 0.52677 0.60128 0.55026 0.0
C330 C 0.49075 0.56731 0.55419 0.0
C331 C 0.44857 0.47004 0.5244 0.0
C332 C 0.44279 0.40654 0.49157 0.0
C333 C 0.48485 0.50407 0.52131 0.0
C334 C 0.47367 0.37757 0.45523 0.0
C335 C 0.50982 0.4112 0.45177 0.0
H336 H 0.41838 0.51713 0.05896 0.0
H337 H 0.46042 0.66792 0.91958 0.0
H338 H 0.52173 0.60468 0.90864 0.0
H339 H 0.56409 0.50774 0.94015 0.0
H340 H 0.52251 0.3577 0.08061 0.0
H341 H 0.4606 0.41955 0.08985 0.0
C342 C 0.44087 0.53582 0.02592 0.0
C343 C 0.43486 0.597 0.99017 0.0
C344 C 0.47631 0.49963 0.02036 0.0
C345 C 0.46434 0.62086 0.94773 0.0
C346 C 0.49947 0.58485 0.94149 0.0
C347 C 0.54149 0.4887 0.97282 0.0
C348 C 0.54791 0.42845 0.00971 0.0
C349 C 0.50591 0.52446 0.97791 0.0
C350 C 0.51833 0.40419 0.05175 0.0
C351 C 0.48286 0.43941 0.05702 0.0
H352 H 0.01692 0.86227 0.47694 0.0
H353 H 0.08462 0.03266 0.55565 0.0
H354 H 0.02573 0.10349 0.56437 0.0
H355 H 0.95519 0.11737 0.54882 0.0
H356 H 0.88743 0.94769 0.46906 0.0
H357 H 0.9461 0.8758 0.46242 0.0
C358 C 0.01879 0.91504 0.49562 0.0
C359 C 0.05503 0.94234 0.51533 0.0
C360 C 0.98478 0.95529 0.50099 0.0
C361 C 0.05701 0.01055 0.54001 0.0
C362 C 0.02336 0.05101 0.54521 0.0
C363 C 0.95319 0.06438 0.53074 0.0
C364 C 0.91707 0.03768 0.50977 0.0
C365 C 0.98709 0.02384 0.52605 0.0
C366 C 0.91497 0.96927 0.48566 0.0
C367 C 0.9485 0.92827 0.48159 0.0
loop_
_geom_bond_atom_site_label_1
_geom_bond_atom_site_label_2
_geom_bond_distance
_geom_bond_site_symmetry_2
_ccdc_geom_bond_type
Co0 O1 2.216 1_554 S
Co0 O2 2.091 1_554 S
Co0 O4 2.004 . S
Co0 O10 2.021 . S
Co0 O12 2.137 1_554 S
Co0 O13 2.244 . S
O1 Co0 2.216 1_556 S
O1 C8 1.247 . S
O2 Co0 2.091 1_556 S
O2 C8 1.261 . S
C3 O12 1.247 1_554 S
C3 O13 1.272 . S
O4 Co0 2.004 . S
O4 C9 1.259 . S
Co5 O6 2.061 . S
Co5 O11 2.052 . S
Co5 O13 2.135 . S
O6 Co5 2.061 . S
O6 C9 1.235 . S
C7 O10 1.238 . S
C7 O11 1.241 . S
C8 O1 1.247 . S
C8 O2 1.261 . S
C9 O4 1.259 . S
C9 O6 1.235 . S
O10 Co0 2.021 . S
O10 C7 1.238 . S
O11 Co5 2.052 . S
O11 C7 1.241 . S
O12 Co0 2.137 1_556 S
O12 C3 1.247 1_556 S
O13 Co0 2.244 . S
O13 C3 1.272 . S
O13 Co5 2.135 . S
Co14 O15 2.216 . S
Co14 O16 2.091 . S
Co14 O18 2.004 . S
Co14 O24 2.021 . S
Co14 O26 2.137 . S
Co14 O27 2.244 . S
O15 Co14 2.216 . S
O15 C22 1.247 . S
O16 Co14 2.091 . S
O16 C22 1.261 . S
C17 O26 1.247 . S
C17 O27 1.272 . S
O18 Co14 2.004 . S
O18 C23 1.259 . S
Co19 O20 2.061 . S
Co19 O25 2.052 . S
Co19 O27 2.135 . S
O20 Co19 2.061 . S
O20 C23 1.235 . S
C21 O24 1.238 . S
C21 O25 1.241 . S
C22 O15 1.247 . S
C22 O16 1.261 . S
C23 O18 1.259 . S
C23 O20 1.235 . S
O24 Co14 2.021 . S
O24 C21 1.238 . S
O25 Co19 2.052 . S
O25 C21 1.241 . S
O26 Co14 2.137 . S
O26 C17 1.247 . S
O27 Co14 2.244 . S
O27 C17 1.272 . S
O27 Co19 2.135 . S
Co28 O29 2.216 1_556 S
Co28 O30 2.091 1_556 S
Co28 O32 2.004 . S
Co28 O38 2.021 . S
Co28 O40 2.137 1_556 S
Co28 O41 2.244 . S
O29 Co28 2.216 1_554 S
O29 C36 1.247 . S
O30 Co28 2.091 1_554 S
O30 C36 1.261 . S
C31 O40 1.247 1_556 S
C31 O41 1.272 . S
O32 Co28 2.004 . S
O32 C37 1.259 . S
Co33 O34 2.061 . S
Co33 O39 2.052 . S
Co33 O41 2.135 . S
O34 Co33 2.061 . S
O34 C37 1.235 . S
C35 O38 1.238 . S
C35 O39 1.241 . S
C36 O29 1.247 . S
C36 O30 1.261 . S
C37 O32 1.259 . S
C37 O34 1.235 . S
O38 Co28 2.021 . S
O38 C35 1.238 . S
O39 Co33 2.052 . S
O39 C35 1.241 . S
O40 Co28 2.137 1_554 S
O40 C31 1.247 1_554 S
O41 Co28 2.244 . S
O41 C31 1.272 . S
O41 Co33 2.135 . S
Co42 O43 2.216 . S
Co42 O44 2.091 . S
Co42 O46 2.004 . S
Co42 O52 2.021 . S
Co42 O54 2.137 . S
Co42 O55 2.244 . S
O43 Co42 2.216 . S
O43 C50 1.247 . S
O44 Co42 2.091 . S
O44 C50 1.261 . S
C45 O54 1.247 . S
C45 O55 1.272 . S
O46 Co42 2.004 . S
O46 C51 1.259 . S
Co47 O48 2.061 . S
Co47 O53 2.052 . S
Co47 O55 2.135 . S
O48 Co47 2.061 . S
O48 C51 1.235 . S
C49 O52 1.238 . S
C49 O53 1.241 . S
C50 O43 1.247 . S
C50 O44 1.261 . S
C51 O46 1.259 . S
C51 O48 1.235 . S
O52 Co42 2.021 . S
O52 C49 1.238 . S
O53 Co47 2.052 . S
O53 C49 1.241 . S
O54 Co42 2.137 . S
O54 C45 1.247 . S
O55 Co42 2.244 . S
O55 C45 1.272 . S
O55 Co47 2.135 . S
Co56 O57 2.216 1_556 S
Co56 O58 2.091 1_556 S
Co56 O60 2.004 . S
Co56 O66 2.021 . S
Co56 O68 2.137 1_556 S
Co56 O69 2.244 . S
O57 Co56 2.216 1_554 S
O57 C64 1.247 . S
O58 Co56 2.091 1_554 S
O58 C64 1.261 . S
C59 O68 1.247 1_556 S
C59 O69 1.272 . S
O60 Co56 2.004 . S
O60 C65 1.259 . S
Co61 O62 2.061 . S
Co61 O67 2.052 . S
Co61 O69 2.135 . S
O62 Co61 2.061 . S
O62 C65 1.235 . S
C63 O66 1.238 . S
C63 O67 1.241 . S
C64 O57 1.247 . S
C64 O58 1.261 . S
C65 O60 1.259 . S
C65 O62 1.235 . S
O66 Co56 2.021 . S
O66 C63 1.238 . S
O67 Co61 2.052 . S
O67 C63 1.241 . S
O68 Co56 2.137 1_554 S
O68 C59 1.247 1_554 S
O69 Co56 2.244 . S
O69 C59 1.272 . S
O69 Co61 2.135 . S
Co70 O71 2.216 . S
Co70 O72 2.091 . S
Co70 O74 2.004 . S
Co70 O80 2.021 . S
Co70 O82 2.137 . S
Co70 O83 2.244 . S
O71 Co70 2.216 . S
O71 C78 1.247 . S
O72 Co70 2.091 . S
O72 C78 1.261 . S
C73 O82 1.247 . S
C73 O83 1.272 . S
O74 Co70 2.004 . S
O74 C79 1.259 . S
Co75 O76 2.061 . S
Co75 O81 2.052 . S
Co75 O83 2.135 . S
O76 Co75 2.061 . S
O76 C79 1.235 . S
C77 O80 1.238 . S
C77 O81 1.241 . S
C78 O71 1.247 . S
C78 O72 1.261 . S
C79 O74 1.259 . S
C79 O76 1.235 . S
O80 Co70 2.021 . S
O80 C77 1.238 . S
O81 Co75 2.052 . S
O81 C77 1.241 . S
O82 Co70 2.137 . S
O82 C73 1.247 . S
O83 Co70 2.244 . S
O83 C73 1.272 . S
O83 Co75 2.135 . S
Co84 O85 2.216 1_554 S
Co84 O86 2.091 1_554 S
Co84 O88 2.004 . S
Co84 O94 2.021 . S
Co84 O96 2.137 1_554 S
Co84 O97 2.244 . S
O85 Co84 2.216 1_556 S
O85 C92 1.247 . S
O86 Co84 2.091 1_556 S
O86 C92 1.261 . S
C87 O96 1.247 1_554 S
C87 O97 1.272 . S
O88 Co84 2.004 . S
O88 C93 1.259 . S
Co89 O90 2.061 . S
Co89 O95 2.052 . S
Co89 O97 2.135 . S
O90 Co89 2.061 . S
O90 C93 1.235 . S
C91 O94 1.238 . S
C91 O95 1.241 . S
C92 O85 1.247 . S
C92 O86 1.261 . S
C93 O88 1.259 . S
C93 O90 1.235 . S
O94 Co84 2.021 . S
O94 C91 1.238 . S
O95 Co89 2.052 . S
O95 C91 1.241 . S
O96 Co84 2.137 1_556 S
O96 C87 1.247 1_556 S
O97 Co84 2.244 . S
O97 C87 1.272 . S
O97 Co89 2.135 . S
Co98 O99 2.216 . S
Co98 O100 2.091 . S
Co98 O102 2.004 . S
Co98 O108 2.021 . S
Co98 O110 2.137 . S
Co98 O111 2.244 . S
O99 Co98 2.216 . S
O99 C106 1.247 . S
O100 Co98 2.091 . S
O100 C106 1.261 . S
C101 O110 1.247 . S
C101 O111 1.272 . S
O102 Co98 2.004 . S
O102 C107 1.259 . S
Co103 O104 2.061 . S
Co103 O109 2.052 . S
Co103 O111 2.135 . S
O104 Co103 2.061 . S
O104 C107 1.235 . S
C105 O108 1.238 . S
C105 O109 1.241 . S
C106 O99 1.247 . S
C106 O100 1.261 . S
C107 O102 1.259 . S
C107 O104 1.235 . S
O108 Co98 2.021 . S
O108 C105 1.238 . S
O109 Co103 2.052 . S
O109 C105 1.241 . S
O110 Co98 2.137 . S
O110 C101 1.247 . S
O111 Co98 2.244 . S
O111 C101 1.272 . S
O111 Co103 2.135 . S
H112 C118 0.930 . S
H113 C121 0.930 . S
H114 C122 0.930 . S
H115 C123 0.930 . S
H116 C126 0.930 . S
H117 C127 0.930 . S
C118 H112 0.930 . S
C118 C119 1.355 . S
C118 C120 1.415 . S
C119 C118 1.355 . S
C119 C121 1.419 . S
C120 C118 1.415 . S
C120 C125 1.425 . S
C120 C127 1.409 . S
C121 H113 0.930 . S
C121 C119 1.419 . S
C121 C122 1.362 . S
C122 H114 0.930 . S
C122 C121 1.362 . S
C122 C125 1.409 . S
C123 H115 0.930 . S
C123 C124 1.355 . S
C123 C125 1.415 . S
C124 C123 1.355 . S
C124 C126 1.419 . S
C125 C120 1.425 . S
C125 C122 1.409 . S
C125 C123 1.415 . S
C126 H116 0.930 . S
C126 C124 1.419 . S
C126 C127 1.362 . S
C127 H117 0.930 . S
C127 C120 1.409 . S
C127 C126 1.362 . S
H128 C134 0.930 . S
H129 C137 0.930 . S
H130 C138 0.930 . S
H131 C139 0.930 . S
H132 C142 0.930 . S
H133 C143 0.930 . S
C134 H128 0.930 . S
C134 C135 1.355 . S
C134 C136 1.415 . S
C135 C134 1.355 . S
C135 C137 1.419 . S
C136 C134 1.415 . S
C136 C141 1.425 . S
C136 C143 1.409 . S
C137 H129 0.930 . S
C137 C135 1.419 . S
C137 C138 1.362 . S
C138 H130 0.930 . S
C138 C137 1.362 . S
C138 C141 1.409 . S
C139 H131 0.930 . S
C139 C140 1.355 . S
C139 C141 1.415 . S
C140 C139 1.355 . S
C140 C142 1.419 . S
C141 C136 1.425 . S
C141 C138 1.409 . S
C141 C139 1.415 . S
C142 H132 0.930 . S
C142 C140 1.419 . S
C142 C143 1.362 . S
C143 H133 0.930 . S
C143 C136 1.409 . S
C143 C142 1.362 . S
H144 C150 0.930 . S
H145 C153 0.930 . S
H146 C154 0.930 . S
H147 C155 0.930 . S
H148 C158 0.930 . S
H149 C159 0.930 . S
C150 H144 0.930 . S
C150 C151 1.355 . S
C150 C152 1.415 . S
C151 C150 1.355 . S
C151 C153 1.419 . S
C152 C150 1.415 . S
C152 C157 1.425 . S
C152 C159 1.409 . S
C153 H145 0.930 . S
C153 C151 1.419 . S
C153 C154 1.362 . S
C154 H146 0.930 . S
C154 C153 1.362 . S
C154 C157 1.409 . S
C155 H147 0.930 . S
C155 C156 1.355 . S
C155 C157 1.415 . S
C156 C155 1.355 . S
C156 C158 1.419 . S
C157 C152 1.425 . S
C157 C154 1.409 . S
C157 C155 1.415 . S
C158 H148 0.930 . S
C158 C156 1.419 . S
C158 C159 1.362 . S
C159 H149 0.930 . S
C159 C152 1.409 . S
C159 C158 1.362 . S
H160 C166 0.930 . S
H161 C169 0.930 . S
H162 C170 0.930 . S
H163 C171 0.930 . S
H164 C174 0.930 . S
H165 C175 0.930 . S
C166 H160 0.930 . S
C166 C167 1.355 . S
C166 C168 1.415 . S
C167 C166 1.355 . S
C167 C169 1.419 . S
C168 C166 1.415 . S
C168 C173 1.425 . S
C168 C175 1.409 . S
C169 H161 0.930 . S
C169 C167 1.419 . S
C169 C170 1.362 . S
C170 H162 0.930 . S
C170 C169 1.362 . S
C170 C173 1.409 . S
C171 H163 0.930 . S
C171 C172 1.355 . S
C171 C173 1.415 . S
C172 C171 1.355 . S
C172 C174 1.419 . S
C173 C168 1.425 . S
C173 C170 1.409 . S
C173 C171 1.415 . S
C174 H164 0.930 . S
C174 C172 1.419 . S
C174 C175 1.362 . S
C175 H165 0.930 . S
C175 C168 1.409 . S
C175 C174 1.362 . S
H176 C182 0.930 . S
H177 C185 0.930 . S
H178 C186 0.930 . S
H179 C187 0.930 . S
H180 C190 0.930 . S
H181 C191 0.930 . S
C182 H176 0.930 . S
C182 C183 1.355 . S
C182 C184 1.415 . S
C183 C182 1.355 . S
C183 C185 1.419 . S
C184 C182 1.415 . S
C184 C189 1.425 . S
C184 C191 1.409 . S
C185 H177 0.930 . S
C185 C183 1.419 . S
C185 C186 1.362 . S
C186 H178 0.930 . S
C186 C185 1.362 . S
C186 C189 1.409 . S
C187 H179 0.930 . S
C187 C188 1.355 . S
C187 C189 1.415 . S
C188 C187 1.355 . S
C188 C190 1.419 . S
C189 C184 1.425 . S
C189 C186 1.409 . S
C189 C187 1.415 . S
C190 H180 0.930 . S
C190 C188 1.419 . S
C190 C191 1.362 . S
C191 H181 0.930 . S
C191 C184 1.409 . S
C191 C190 1.362 . S
H192 C198 0.930 . S
H193 C201 0.930 . S
H194 C202 0.930 . S
H195 C203 0.930 . S
H196 C206 0.930 . S
H197 C207 0.930 . S
C198 H192 0.930 . S
C198 C199 1.355 . S
C198 C200 1.415 . S
C199 C198 1.355 . S
C199 C201 1.419 . S
C200 C198 1.415 . S
C200 C205 1.425 . S
C200 C207 1.409 . S
C201 H193 0.930 . S
C201 C199 1.419 . S
C201 C202 1.362 . S
C202 H194 0.930 . S
C202 C201 1.362 . S
C202 C205 1.409 . S
C203 H195 0.930 . S
C203 C204 1.355 . S
C203 C205 1.415 . S
C204 C203 1.355 . S
C204 C206 1.419 . S
C205 C200 1.425 . S
C205 C202 1.409 . S
C205 C203 1.415 . S
C206 H196 0.930 . S
C206 C204 1.419 . S
C206 C207 1.362 . S
C207 H197 0.930 . S
C207 C200 1.409 . S
C207 C206 1.362 . S
H208 C214 0.930 . S
H209 C217 0.930 . S
H210 C218 0.930 . S
H211 C219 0.930 . S
H212 C222 0.930 . S
H213 C223 0.930 . S
C214 H208 0.930 . S
C214 C215 1.355 . S
C214 C216 1.415 . S
C215 C214 1.355 . S
C215 C217 1.419 . S
C216 C214 1.415 . S
C216 C221 1.425 . S
C216 C223 1.409 . S
C217 H209 0.930 . S
C217 C215 1.419 . S
C217 C218 1.362 . S
C218 H210 0.930 . S
C218 C217 1.362 . S
C218 C221 1.409 . S
C219 H211 0.930 . S
C219 C220 1.355 . S
C219 C221 1.415 . S
C220 C219 1.355 . S
C220 C222 1.419 . S
C221 C216 1.425 . S
C221 C218 1.409 . S
C221 C219 1.415 . S
C222 H212 0.930 . S
C222 C220 1.419 . S
C222 C223 1.362 . S
C223 H213 0.930 . S
C223 C216 1.409 . S
C223 C222 1.362 . S
H224 C230 0.930 . S
H225 C233 0.930 . S
H226 C234 0.930 . S
H227 C235 0.930 . S
H228 C238 0.930 . S
H229 C239 0.930 . S
C230 H224 0.930 . S
C230 C231 1.355 . S
C230 C232 1.415 . S
C231 C230 1.355 . S
C231 C233 1.419 . S
C232 C230 1.415 . S
C232 C237 1.425 . S
C232 C239 1.409 . S
C233 H225 0.930 . S
C233 C231 1.419 . S
C233 C234 1.362 . S
C234 H226 0.930 . S
C234 C233 1.362 . S
C234 C237 1.409 . S
C235 H227 0.930 . S
C235 C236 1.355 . S
C235 C237 1.415 . S
C236 C235 1.355 . S
C236 C238 1.419 . S
C237 C232 1.425 . S
C237 C234 1.409 . S
C237 C235 1.415 . S
C238 H228 0.930 . S
C238 C236 1.419 . S
C238 C239 1.362 . S
C239 H229 0.930 . S
C239 C232 1.409 . S
C239 C238 1.362 . S
H240 C246 0.930 . S
H241 C249 0.930 . S
H242 C250 0.930 . S
H243 C251 0.930 . S
H244 C254 0.930 . S
H245 C255 0.930 . S
C246 H240 0.930 . S
C246 C247 1.355 . S
C246 C248 1.415 . S
C247 C246 1.355 . S
C247 C249 1.419 . S
C248 C246 1.415 . S
C248 C253 1.425 1_455 S
C248 C255 1.409 . S
C249 H241 0.930 . S
C249 C247 1.419 . S
C249 C250 1.362 1_455 S
C250 H242 0.930 . S
C250 C249 1.362 1_655 S
C250 C253 1.409 . S
C251 H243 0.930 . S
C251 C252 1.355 . S
C251 C253 1.415 . S
C252 C251 1.355 . S
C252 C254 1.419 . S
C253 C248 1.425 1_655 S
C253 C250 1.409 . S
C253 C251 1.415 . S
C254 H244 0.930 . S
C254 C252 1.419 . S
C254 C255 1.362 1_655 S
C255 H245 0.930 . S
C255 C248 1.409 . S
C255 C254 1.362 1_455 S
H256 C262 0.930 . S
H257 C265 0.930 . S
H258 C266 0.930 . S
H259 C267 0.930 . S
H260 C270 0.930 . S
H261 C271 0.930 . S
C262 H256 0.930 . S
C262 C263 1.355 . S
C262 C264 1.415 . S
C263 C262 1.355 . S
C263 C265 1.419 . S
C264 C262 1.415 . S
C264 C269 1.425 . S
C264 C271 1.409 . S
C265 H257 0.930 . S
C265 C263 1.419 . S
C265 C266 1.362 . S
C266 H258 0.930 . S
C266 C265 1.362 . S
C266 C269 1.409 . S
C267 H259 0.930 . S
C267 C268 1.355 . S
C267 C269 1.415 . S
C268 C267 1.355 . S
C268 C270 1.419 . S
C269 C264 1.425 . S
C269 C266 1.409 . S
C269 C267 1.415 . S
C270 H260 0.930 . S
C270 C268 1.419 . S
C270 C271 1.362 . S
C271 H261 0.930 . S
C271 C264 1.409 . S
C271 C270 1.362 . S
H272 C278 0.930 1_655 S
H273 C281 0.930 . S
H274 C282 0.930 . S
H275 C283 0.930 1_455 S
H276 C286 0.930 . S
H277 C287 0.930 . S
C278 H272 0.930 1_455 S
C278 C279 1.355 . S
C278 C280 1.415 1_455 S
C279 C278 1.355 . S
C279 C281 1.419 . S
C280 C278 1.415 1_655 S
C280 C285 1.425 1_655 S
C280 C287 1.409 . S
C281 H273 0.930 . S
C281 C279 1.419 . S
C281 C282 1.362 . S
C282 H274 0.930 . S
C282 C281 1.362 . S
C282 C285 1.409 . S
C283 H275 0.930 1_655 S
C283 C284 1.355 . S
C283 C285 1.415 1_655 S
C284 C283 1.355 . S
C284 C286 1.419 . S
C285 C280 1.425 1_455 S
C285 C282 1.409 . S
C285 C283 1.415 1_455 S
C286 H276 0.930 . S
C286 C284 1.419 . S
C286 C287 1.362 . S
C287 H277 0.930 . S
C287 C280 1.409 . S
C287 C286 1.362 . S
H288 C294 0.930 . S
H289 C297 0.930 . S
H290 C298 0.930 . S
H291 C299 0.930 . S
H292 C302 0.930 . S
H293 C303 0.930 . S
C294 H288 0.930 . S
C294 C295 1.355 . S
C294 C296 1.415 . S
C295 C294 1.355 . S
C295 C297 1.419 . S
C296 C294 1.415 . S
C296 C301 1.425 . S
C296 C303 1.409 . S
C297 H289 0.930 . S
C297 C295 1.419 . S
C297 C298 1.362 . S
C298 H290 0.930 . S
C298 C297 1.362 . S
C298 C301 1.409 . S
C299 H291 0.930 . S
C299 C300 1.355 . S
C299 C301 1.415 . S
C300 C299 1.355 . S
C300 C302 1.419 . S
C301 C296 1.425 . S
C301 C298 1.409 . S
C301 C299 1.415 . S
C302 H292 0.930 . S
C302 C300 1.419 . S
C302 C303 1.362 . S
C303 H293 0.930 . S
C303 C296 1.409 . S
C303 C302 1.362 . S
H304 C310 0.922 1_565 S
H305 C313 0.930 . S
H306 C314 0.930 . S
H307 C315 0.922 1_545 S
H308 C318 0.930 . S
H309 C319 0.930 . S
C310 H304 0.922 1_545 S
C310 C311 1.355 . S
C310 C312 1.415 1_545 S
C311 C310 1.355 . S
C311 C313 1.419 1_554 S
C312 C310 1.415 1_565 S
C312 C317 1.425 1_464 S
C312 C319 1.409 . S
C313 H305 0.930 . S
C313 C311 1.419 1_556 S
C313 C314 1.362 1_455 S
C314 H306 0.930 . S
C314 C313 1.362 1_655 S
C314 C317 1.409 . S
C315 H307 0.922 1_565 S
C315 C316 1.355 . S
C315 C317 1.415 1_565 S
C316 C315 1.355 . S
C316 C318 1.419 1_556 S
C317 C312 1.425 1_646 S
C317 C314 1.409 . S
C317 C315 1.415 1_545 S
C318 H308 0.930 . S
C318 C316 1.419 1_554 S
C318 C319 1.362 1_655 S
C319 H309 0.930 . S
C319 C312 1.409 . S
C319 C318 1.362 1_455 S
H320 C326 0.930 . S
H321 C329 0.930 . S
H322 C330 0.930 . S
H323 C331 0.930 . S
H324 C334 0.930 . S
H325 C335 0.930 . S
C326 H320 0.930 . S
C326 C327 1.355 . S
C326 C328 1.415 . S
C327 C326 1.355 . S
C327 C329 1.419 . S
C328 C326 1.415 . S
C328 C333 1.425 . S
C328 C335 1.409 . S
C329 H321 0.930 . S
C329 C327 1.419 . S
C329 C330 1.362 . S
C330 H322 0.930 . S
C330 C329 1.362 . S
C330 C333 1.409 . S
C331 H323 0.930 . S
C331 C332 1.355 . S
C331 C333 1.415 . S
C332 C331 1.355 . S
C332 C334 1.419 . S
C333 C328 1.425 . S
C333 C330 1.409 . S
C333 C331 1.415 . S
C334 H324 0.930 . S
C334 C332 1.419 . S
C334 C335 1.362 . S
C335 H325 0.930 . S
C335 C328 1.409 . S
C335 C334 1.362 . S
H336 C342 0.930 . S
H337 C345 0.930 . S
H338 C346 0.930 1_556 S
H339 C347 0.930 . S
H340 C350 0.930 . S
H341 C351 0.930 1_554 S
C342 H336 0.930 . S
C342 C343 1.355 . S
C342 C344 1.415 . S
C343 C342 1.355 . S
C343 C345 1.419 . S
C344 C342 1.415 . S
C344 C349 1.425 1_554 S
C344 C351 1.409 1_554 S
C345 H337 0.930 . S
C345 C343 1.419 . S
C345 C346 1.362 . S
C346 H338 0.930 1_554 S
C346 C345 1.362 . S
C346 C349 1.409 1_554 S
C347 H339 0.930 . S
C347 C348 1.355 . S
C347 C349 1.415 . S
C348 C347 1.355 . S
C348 C350 1.419 . S
C349 C344 1.425 1_556 S
C349 C346 1.409 1_556 S
C349 C347 1.415 . S
C350 H340 0.930 . S
C350 C348 1.419 . S
C350 C351 1.362 . S
C351 H341 0.930 1_556 S
C351 C344 1.409 1_556 S
C351 C350 1.362 . S
H352 C358 0.930 . S
H353 C361 0.930 . S
H354 C362 0.930 . S
H355 C363 0.930 . S
H356 C366 0.930 . S
H357 C367 0.930 . S
C358 H352 0.930 . S
C358 C359 1.355 . S
C358 C360 1.415 1_455 S
C359 C358 1.355 . S
C359 C361 1.419 . S
C360 C358 1.415 1_655 S
C360 C365 1.425 1_665 S
C360 C367 1.409 . S
C361 H353 0.930 . S
C361 C359 1.419 . S
C361 C362 1.362 1_565 S
C362 H354 0.930 . S
C362 C361 1.362 1_545 S
C362 C365 1.409 . S
C363 H355 0.930 . S
C363 C364 1.355 . S
C363 C365 1.415 1_655 S
C364 C363 1.355 . S
C364 C366 1.419 . S
C365 C360 1.425 1_445 S
C365 C362 1.409 . S
C365 C363 1.415 1_455 S
C366 H356 0.930 . S
C366 C364 1.419 . S
C366 C367 1.362 1_545 S
C367 H357 0.930 . S
C367 C360 1.409 . S
C367 C366 1.362 1_565 S
C119 C21 1.586 . S
C124 C8 1.641 . S
C135 C7 1.645 . S
C140 C22 1.650 . S
C151 C49 1.584 . S
C156 C36 1.625 . S
C167 C35 1.647 . S
C172 C50 1.656 . S
C183 C64 1.625 . S
C188 C77 1.584 . S
C199 C78 1.651 . S
C204 C63 1.646 . S
C215 C92 1.636 . S
C220 C105 1.583 . S
C231 C91 1.613 . S
C236 C106 1.662 . S
C247 C9 0.618 . S
C252 C51 0.764 . S
C263 C23 0.597 . S
C268 C37 0.644 . S
C279 C107 0.579 . S
C284 C65 0.667 . S
C295 C93 0.617 . S
C300 C79 0.624 . S
C311 C3 1.549 . S
C316 C59 1.549 . S
C327 C73 1.540 . S
C332 C17 1.540 . S
C343 C87 1.540 . S
C348 C31 1.540 . S
C359 C101 1.581 . S
C364 C45 1.581 . S
