# Generated by pormake.
# Topology zfd, (5)-cn, num edge types: 1
# Building blocks:
#     Node 0, Type 0, BuildingBlock: BEQFEK_clean_sbu_0, # of connection points: 5
#     Node 1, Type 0, BuildingBlock: BEQFEK_clean_sbu_0, # of connection points: 5
#     Node 2, Type 0, BuildingBlock: BEQFEK_clean_sbu_0, # of connection points: 5
#     Node 3, Type 0, BuildingBlock: BEQFEK_clean_sbu_0, # of connection points: 5
#     Node 4, Type 0, BuildingBlock: BEQFEK_clean_sbu_0, # of connection points: 5
#     Node 5, Type 0, BuildingBlock: BEQFEK_clean_sbu_0, # of connection points: 5
#     Node 6, Type 0, BuildingBlock: BEQFEK_clean_sbu_0, # of connection points: 5
#     Node 7, Type 0, BuildingBlock: BEQFEK_clean_sbu_0, # of connection points: 5
#     Node 8, Type 0, BuildingBlock: BEQFEK_clean_sbu_0, # of connection points: 5
#     Node 9, Type 0, BuildingBlock: BEQFEK_clean_sbu_0, # of connection points: 5
#     Node 10, Type 0, BuildingBlock: BEQFEK_clean_sbu_0, # of connection points: 5
#     Node 11, Type 0, BuildingBlock: BEQFEK_clean_sbu_0, # of connection points: 5
#     Node 12, Type 0, BuildingBlock: BEQFEK_clean_sbu_0, # of connection points: 5
#     Node 13, Type 0, BuildingBlock: BEQFEK_clean_sbu_0, # of connection points: 5
#     Node 14, Type 0, BuildingBlock: BEQFEK_clean_sbu_0, # of connection points: 5
#     Node 15, Type 0, BuildingBlock: BEQFEK_clean_sbu_0, # of connection points: 5
#     Edge 16, Type (0, 0), BuildingBlock: EZIPEK_clean_linker_0, # of connection points: 2
#     Edge 17, Type (0, 0), BuildingBlock: EZIPEK_clean_linker_0, # of connection points: 2
#     Edge 18, Type (0, 0), BuildingBlock: EZIPEK_clean_linker_0, # of connection points: 2
#     Edge 19, Type (0, 0), BuildingBlock: EZIPEK_clean_linker_0, # of connection points: 2
#     Edge 20, Type (0, 0), BuildingBlock: EZIPEK_clean_linker_0, # of connection points: 2
#     Edge 21, Type (0, 0), BuildingBlock: EZIPEK_clean_linker_0, # of connection points: 2
#     Edge 22, Type (0, 0), BuildingBlock: EZIPEK_clean_linker_0, # of connection points: 2
#     Edge 23, Type (0, 0), BuildingBlock: EZIPEK_clean_linker_0, # of connection points: 2
#     Edge 24, Type (0, 0), BuildingBlock: EZIPEK_clean_linker_0, # of connection points: 2
#     Edge 25, Type (0, 0), BuildingBlock: EZIPEK_clean_linker_0, # of connection points: 2
#     Edge 26, Type (0, 0), BuildingBlock: EZIPEK_clean_linker_0, # of connection points: 2
#     Edge 27, Type (0, 0), BuildingBlock: EZIPEK_clean_linker_0, # of connection points: 2
#     Edge 28, Type (0, 0), BuildingBlock: EZIPEK_clean_linker_0, # of connection points: 2
#     Edge 29, Type (0, 0), BuildingBlock: EZIPEK_clean_linker_0, # of connection points: 2
#     Edge 30, Type (0, 0), BuildingBlock: EZIPEK_clean_linker_0, # of connection points: 2
#     Edge 31, Type (0, 0), BuildingBlock: EZIPEK_clean_linker_0, # of connection points: 2
#     Edge 32, Type (0, 0), BuildingBlock: EZIPEK_clean_linker_0, # of connection points: 2
#     Edge 33, Type (0, 0), BuildingBlock: EZIPEK_clean_linker_0, # of connection points: 2
#     Edge 34, Type (0, 0), BuildingBlock: EZIPEK_clean_linker_0, # of connection points: 2
#     Edge 35, Type (0, 0), BuildingBlock: EZIPEK_clean_linker_0, # of connection points: 2
#     Edge 36, Type (0, 0), BuildingBlock: EZIPEK_clean_linker_0, # of connection points: 2
#     Edge 37, Type (0, 0), BuildingBlock: EZIPEK_clean_linker_0, # of connection points: 2
#     Edge 38, Type (0, 0), BuildingBlock: EZIPEK_clean_linker_0, # of connection points: 2
#     Edge 39, Type (0, 0), BuildingBlock: EZIPEK_clean_linker_0, # of connection points: 2
#     Edge 40, Type (0, 0), BuildingBlock: EZIPEK_clean_linker_0, # of connection points: 2
#     Edge 41, Type (0, 0), BuildingBlock: EZIPEK_clean_linker_0, # of connection points: 2
#     Edge 42, Type (0, 0), BuildingBlock: EZIPEK_clean_linker_0, # of connection points: 2
#     Edge 43, Type (0, 0), BuildingBlock: EZIPEK_clean_linker_0, # of connection points: 2
#     Edge 44, Type (0, 0), BuildingBlock: EZIPEK_clean_linker_0, # of connection points: 2
#     Edge 45, Type (0, 0), BuildingBlock: EZIPEK_clean_linker_0, # of connection points: 2
#     Edge 46, Type (0, 0), BuildingBlock: EZIPEK_clean_linker_0, # of connection points: 2
#     Edge 47, Type (0, 0), BuildingBlock: EZIPEK_clean_linker_0, # of connection points: 2
#     Edge 48, Type (0, 0), BuildingBlock: EZIPEK_clean_linker_0, # of connection points: 2
#     Edge 49, Type (0, 0), BuildingBlock: EZIPEK_clean_linker_0, # of connection points: 2
#     Edge 50, Type (0, 0), BuildingBlock: EZIPEK_clean_linker_0, # of connection points: 2
#     Edge 51, Type (0, 0), BuildingBlock: EZIPEK_clean_linker_0, # of connection points: 2
#     Edge 52, Type (0, 0), BuildingBlock: EZIPEK_clean_linker_0, # of connection points: 2
#     Edge 53, Type (0, 0), BuildingBlock: EZIPEK_clean_linker_0, # of connection points: 2
#     Edge 54, Type (0, 0), BuildingBlock: EZIPEK_clean_linker_0, # of connection points: 2
#     Edge 55, Type (0, 0), BuildingBlock: EZIPEK_clean_linker_0, # of connection points: 2
# Relax obj value: 0.273
# Max RMSD: 0.096
# Mean RMSD: 0.096
data_MOF--net-zfd--node1-BEQFEK_clean_sbu_0--edge1-EZIPEK_clean_linker_0
_symmetry_space_group_name_H-M    P1
_symmetry_Int_Tables_number       1
_symmetry_cell_setting            triclinic
loop_
_symmetry_equiv_pos_as_xyz
'x, y, z'
_cell_length_a     47.888078
_cell_length_b     48.647663
_cell_length_c     17.90103
_cell_angle_alpha  89.925426
_cell_angle_beta   89.79118
_cell_angle_gamma 89.349962
loop_
_atom_site_label
_atom_site_type_symbol
_atom_site_fract_x
_atom_site_fract_y
_atom_site_fract_z
_atom_type_partial_charge
Co0 Co 0.16648 0.2297 0.9709 0.0
Co1 Co 0.13347 0.26129 0.07858 0.0
C2 C 0.16545 0.21181 0.14072 0.0
O3 O 0.17418 0.20941 0.07317 0.0
O4 O 0.14628 0.22999 0.15369 0.0
C5 C 0.16517 0.184 0.8809 0.0
O6 O 0.1427 0.17955 0.92133 0.0
C7 C 0.10735 0.29255 0.19365 0.0
C8 C 0.1096 0.3012 0.14539 0.0
C9 C 0.10011 0.31833 0.20997 0.0
N10 N 0.11473 0.29158 0.12368 0.0
N11 N 0.11477 0.31407 0.08003 0.0
C12 C 0.10646 0.26737 0.25115 0.0
H13 H 0.09949 0.24853 0.22205 0.0
H14 H 0.09241 0.27191 0.29909 0.0
H15 H 0.1278 0.26349 0.27296 0.0
C16 C 0.11266 0.23901 0.87005 0.0
N17 N 0.12753 0.23999 0.9356 0.0
N18 N 0.11158 0.25137 0.98656 0.0
C19 C 0.08565 0.25635 0.95578 0.0
C20 C 0.08475 0.24843 0.87893 0.0
C21 C 0.1256 0.23287 0.79619 0.0
H22 H 0.14815 0.23755 0.79809 0.0
H23 H 0.12234 0.21094 0.78287 0.0
H24 H 0.11558 0.24531 0.75145 0.0
O25 O 0.19308 0.26155 0.96882 0.0
O26 O 0.16944 0.28238 0.05759 0.0
H27 H 0.06441 0.29159 0.99945 0.0
H28 H 0.04165 0.26393 0.97341 0.0
C29 C 0.06203 0.26895 0.99905 0.0
H30 H 0.06268 0.26176 0.05791 0.0
H31 H 0.12154 0.30857 1.02659 0.0
O32 O 0.18017 0.20424 0.89762 0.0
C33 C 0.19079 0.28127 1.01508 0.0
Co34 Co 0.82279 0.13994 1.00519 0.0
Co35 Co 0.78154 0.11877 0.10429 0.0
C36 C 0.8373 0.14827 0.16473 0.0
O37 O 0.8458 0.14933 0.09727 0.0
O38 O 0.81366 0.13636 0.17722 0.0
C39 C 0.86971 0.14359 0.91742 0.0
O40 O 0.88266 0.13161 0.97346 0.0
C41 C 0.75495 0.07688 0.19578 0.0
C42 C 0.71346 0.09603 0.21714 0.0
C43 C 0.72936 0.07266 0.22927 0.0
N44 N 0.7544 0.10185 0.16461 0.0
N45 N 0.72963 0.11328 0.17792 0.0
C46 C 0.77942 0.05754 0.19355 0.0
H47 H 0.79727 0.0669 0.16347 0.0
H48 H 0.77342 0.03815 0.16564 0.0
H49 H 0.78568 0.05222 0.2515 0.0
C50 C 0.82093 0.08054 0.93095 0.0
N51 N 0.81405 0.10014 0.98374 0.0
N52 N 0.79092 0.09289 1.01693 0.0
C53 C 0.78083 0.07022 0.97966 0.0
C54 C 0.79944 0.06133 0.9216 0.0
C55 C 0.85012 0.07401 0.90559 0.0
H56 H 0.86507 0.0896 0.92315 0.0
H57 H 0.85677 0.05413 0.93077 0.0
H58 H 0.85091 0.07099 0.84425 0.0
O59 O 0.79041 0.16955 0.99876 0.0
O60 O 0.75903 0.15085 0.07098 0.0
H61 H 0.74366 0.04958 0.94446 0.0
H62 H 0.75569 0.04087 0.03649 0.0
C63 C 0.75301 0.05799 0.99616 0.0
H64 H 0.73885 0.07363 1.02154 0.0
H65 H 0.72343 0.13273 0.15944 0.0
O66 O 0.84441 0.15057 0.9227 0.0
C67 C 0.76635 0.17066 0.03 0.0
Co68 Co 0.90077 0.8164 0.98328 0.0
Co69 Co 0.93142 0.78268 0.09186 0.0
C70 C 0.89857 0.833 0.15287 0.0
O71 O 0.89194 0.8369 0.08427 0.0
O72 O 0.91604 0.81339 0.16746 0.0
C73 C 0.90138 0.86214 0.89108 0.0
O74 O 0.92343 0.86775 0.93158 0.0
C75 C 0.95919 0.75434 0.20922 0.0
C76 C 0.95648 0.74442 0.16328 0.0
C77 C 0.96745 0.72921 0.22963 0.0
N78 N 0.95057 0.75329 0.1405 0.0
N79 N 0.95014 0.72963 0.10196 0.0
C80 C 0.96049 0.7811 0.26108 0.0
H81 H 0.96616 0.79927 0.22691 0.0
H82 H 0.97567 0.77832 0.30723 0.0
H83 H 0.93954 0.78497 0.28585 0.0
C84 C 0.95723 0.80961 0.889 0.0
N85 N 0.94064 0.80694 0.95168 0.0
N86 N 0.95509 0.79365 1.00244 0.0
C87 C 0.98148 0.78854 0.97397 0.0
C88 C 0.98443 0.79875 0.89961 0.0
C89 C 0.94672 0.81903 0.81511 0.0
H90 H 0.94882 0.84163 0.81097 0.0
H91 H 0.95899 0.80965 0.76877 0.0
H92 H 0.92468 0.81295 0.80971 0.0
O93 O 0.87406 0.78399 0.97949 0.0
O94 O 0.89661 0.76063 0.06522 0.0
H95 H 1.00032 0.75086 1.00846 0.0
H96 H 1.02466 0.77841 0.99492 0.0
C97 C 1.00354 0.77321 1.0161 0.0
H98 H 1.00187 0.77787 0.07665 0.0
H99 H 0.94275 0.73354 0.0482 0.0
O100 O 0.88715 0.84139 0.90831 0.0
C101 C 0.87572 0.76297 1.02184 0.0
Co102 Co 0.23686 0.90177 0.99381 0.0
Co103 Co 0.27697 0.92786 0.09192 0.0
C104 C 0.22658 0.8976 0.16505 0.0
O105 O 0.2201 0.89203 0.0977 0.0
O106 O 0.24755 0.91357 0.17505 0.0
C107 C 0.18148 0.90083 0.9426 0.0
O108 O 0.17575 0.91812 0.99693 0.0
C109 C 0.30627 0.9686 0.1802 0.0
C110 C 0.34999 0.9534 0.17249 0.0
C111 C 0.3333 0.97415 0.2011 0.0
N112 N 0.30671 0.9454 0.14035 0.0
N113 N 0.33286 0.93632 0.13614 0.0
C114 C 0.28058 0.98521 0.19706 0.0
H115 H 0.2624 0.97726 0.16577 0.0
H116 H 0.28407 1.00711 0.18261 0.0
H117 H 0.27619 0.98422 0.25793 0.0
C118 C 0.24054 0.95626 0.9018 0.0
N119 N 0.24598 0.94011 0.96312 0.0
N120 N 0.26504 0.95188 1.00387 0.0
C121 C 0.27292 0.97564 0.96765 0.0
C122 C 0.25747 0.98002 0.90026 0.0
C123 C 0.21886 0.94923 0.84533 0.0
H124 H 0.1983 0.94955 0.87355 0.0
H125 H 0.21802 0.96415 0.79859 0.0
H126 H 0.22276 0.92819 0.82355 0.0
O127 O 0.26988 0.87472 0.97427 0.0
O128 O 0.29754 0.89408 0.05603 0.0
H129 H 0.30455 1.0061 0.94711 0.0
H130 H 0.28995 1.00586 0.04019 0.0
C131 C 0.29686 0.99273 0.99287 0.0
H132 H 0.31407 0.9792 1.01293 0.0
H133 H 0.33924 0.91867 0.10755 0.0
O134 O 0.20631 0.89211 0.93155 0.0
C135 C 0.29308 0.87492 1.00962 0.0
Co136 Co 0.16297 0.81561 0.57721 0.0
Co137 Co 0.13145 0.78409 0.46858 0.0
C138 C 0.16509 0.83428 0.41011 0.0
O139 O 0.17238 0.83733 0.47839 0.0
O140 O 0.1471 0.81547 0.39628 0.0
C141 C 0.1653 0.8613 0.6678 0.0
O142 O 0.14459 0.86901 0.62426 0.0
C143 C 0.08616 0.76359 0.37541 0.0
C144 C 0.09717 0.71931 0.36947 0.0
C145 C 0.07716 0.73853 0.3495 0.0
N146 N 0.11039 0.75943 0.41093 0.0
N147 N 0.11708 0.733 0.40617 0.0
C148 C 0.07176 0.79086 0.36765 0.0
H149 H 0.04895 0.7887 0.37673 0.0
H150 H 0.07488 0.7985 0.30982 0.0
H151 H 0.08056 0.80596 0.40734 0.0
C152 C 0.10725 0.81083 0.67424 0.0
N153 N 0.12311 0.80778 0.6102 0.0
N154 N 0.10839 0.79423 0.56115 0.0
C155 C 0.08268 0.78877 0.59304 0.0
C156 C 0.08034 0.79947 0.66688 0.0
C157 C 0.1183 0.82145 0.74614 0.0
H158 H 0.14038 0.81492 0.75192 0.0
H159 H 0.11656 0.84418 0.74636 0.0
H160 H 0.10618 0.81355 0.79444 0.0
O161 O 0.18829 0.78149 0.5784 0.0
O162 O 0.16495 0.75899 0.49326 0.0
H163 H 0.04513 0.76457 0.5961 0.0
H164 H 0.04966 0.78551 0.51438 0.0
C165 C 0.06072 0.77233 0.55548 0.0
H166 H 0.0707 0.75487 0.52578 0.0
H167 H 0.13477 0.72399 0.43011 0.0
O168 O 0.17744 0.83872 0.65387 0.0
C169 C 0.18587 0.76038 0.53682 0.0
Co170 Co 0.23648 0.14797 0.55689 0.0
Co171 Co 0.27818 0.12102 0.46346 0.0
C172 C 0.22708 0.14944 0.38677 0.0
O173 O 0.2196 0.15517 0.45331 0.0
O174 O 0.24901 0.13412 0.37834 0.0
C175 C 0.18063 0.1489 0.60407 0.0
O176 O 0.17613 0.13106 0.55058 0.0
C177 C 0.30794 0.07938 0.37825 0.0
C178 C 0.35189 0.09238 0.39043 0.0
C179 C 0.33509 0.07247 0.36009 0.0
N180 N 0.30838 0.10253 0.41811 0.0
N181 N 0.33465 0.11033 0.42509 0.0
C182 C 0.28208 0.06397 0.3593 0.0
H183 H 0.26359 0.07316 0.38779 0.0
H184 H 0.28457 0.04207 0.37572 0.0
H185 H 0.27894 0.06457 0.29792 0.0
C186 C 0.24109 0.09466 0.65459 0.0
N187 N 0.24685 0.11037 0.59275 0.0
N188 N 0.26632 0.09811 0.55325 0.0
C189 C 0.27411 0.07444 0.59064 0.0
C190 C 0.25821 0.07065 0.65764 0.0
C191 C 0.21874 0.10219 0.70961 0.0
H192 H 0.1984 0.10129 0.68083 0.0
H193 H 0.21806 0.08791 0.75778 0.0
H194 H 0.22175 0.12356 0.72937 0.0
O195 O 0.26778 0.17691 0.56934 0.0
O196 O 0.2974 0.15577 0.49414 0.0
H197 H 0.3053 0.04297 0.61218 0.0
H198 H 0.29163 0.04392 0.51832 0.0
C199 C 0.29815 0.05669 0.56633 0.0
H200 H 0.31566 0.06975 0.54748 0.0
H201 H 0.34096 0.12763 0.45463 0.0
O202 O 0.20509 0.15786 0.61629 0.0
C203 C 0.29129 0.17637 0.53486 0.0
Co204 Co 0.90835 0.23186 0.55599 0.0
Co205 Co 0.93674 0.26604 0.45061 0.0
C206 C 0.90338 0.21385 0.39398 0.0
O207 O 0.89841 0.20896 0.46269 0.0
O208 O 0.91939 0.23439 0.37928 0.0
C209 C 0.9017 0.18755 0.6401 0.0
O210 O 0.91975 0.17798 0.59083 0.0
C211 C 0.98266 0.2865 0.35889 0.0
C212 C 0.96817 0.3291 0.33624 0.0
C213 C 0.99016 0.31096 0.32589 0.0
N214 N 0.95724 0.28997 0.38889 0.0
N215 N 0.94852 0.31535 0.37424 0.0
C216 C 0.99932 0.26035 0.36167 0.0
H217 H 1.02155 0.2647 0.37377 0.0
H218 H 0.99854 0.25034 0.30606 0.0
H219 H 0.99064 0.2461 0.40405 0.0
C220 C 0.96824 0.23247 0.64324 0.0
N221 N 0.94932 0.23818 0.5865 0.0
N222 N 0.96068 0.25661 0.5425 0.0
C223 C 0.98555 0.26467 0.57428 0.0
C224 C 0.99177 0.24954 0.64027 0.0
C225 C 0.96603 0.21046 0.70121 0.0
H226 H 0.96274 0.22002 0.75678 0.0
H227 H 0.95001 0.19556 0.68843 0.0
H228 H 0.98588 0.19871 0.70513 0.0
O229 O 0.88211 0.26585 0.55656 0.0
O230 O 0.90459 0.29142 0.47658 0.0
H231 H 1.01442 0.29778 0.58982 0.0
H232 H 1.0186 0.27885 0.50476 0.0
C233 C 1.00294 0.28743 0.54429 0.0
H234 H 0.98945 0.30252 0.51475 0.0
H235 H 0.92946 0.32369 0.39177 0.0
O236 O 0.89172 0.21135 0.63253 0.0
C237 C 0.88358 0.28801 0.51873 0.0
Co238 Co 0.82546 0.89536 0.57244 0.0
Co239 Co 0.78576 0.92369 0.4769 0.0
C240 C 0.83624 0.89499 0.4003 0.0
O241 O 0.8422 0.88764 0.46685 0.0
O242 O 0.81568 0.91206 0.39255 0.0
C243 C 0.88032 0.89917 0.61935 0.0
O244 O 0.88134 0.91969 0.57178 0.0
C245 C 0.75533 0.96502 0.39222 0.0
C246 C 0.71166 0.95106 0.40443 0.0
C247 C 0.72806 0.97146 0.37447 0.0
N248 N 0.75534 0.94169 0.43148 0.0
N249 N 0.72924 0.93327 0.43824 0.0
C250 C 0.78085 0.98115 0.37386 0.0
H251 H 0.79937 0.97255 0.40324 0.0
H252 H 0.77761 1.00303 0.38951 0.0
H253 H 0.7845 0.98046 0.31263 0.0
C254 C 0.81837 0.94735 0.67506 0.0
N255 N 0.81436 0.93268 0.61043 0.0
N256 N 0.79646 0.94598 0.56839 0.0
C257 C 0.78846 0.96957 0.60587 0.0
C258 C 0.80219 0.97199 0.67627 0.0
C259 C 0.83776 0.93805 0.73547 0.0
H260 H 0.85924 0.94356 0.71888 0.0
H261 H 0.83317 0.94828 0.78942 0.0
H262 H 0.83682 0.91541 0.74231 0.0
O263 O 0.79427 0.86692 0.58617 0.0
O264 O 0.76697 0.88832 0.50568 0.0
H265 H 0.75877 1.00281 0.62273 0.0
H266 H 0.77474 1.00111 0.53132 0.0
C267 C 0.76622 0.98873 0.57798 0.0
H268 H 0.74847 0.97671 0.5563 0.0
H269 H 0.72325 0.91572 0.46743 0.0
O270 O 0.8576 0.88627 0.62983 0.0
C271 C 0.77165 0.86787 0.54829 0.0
Co272 Co 0.65881 0.72972 0.49985 0.0
Co273 Co 0.62424 0.76782 0.58883 0.0
C274 C 0.65266 0.71825 0.66826 0.0
O275 O 0.66167 0.71276 0.60327 0.0
O276 O 0.63528 0.73855 0.67465 0.0
C277 C 0.69422 0.68451 0.47186 0.0
O278 O 0.70388 0.6879 0.53968 0.0
C279 C 0.57518 0.79363 0.66018 0.0
C280 C 0.58459 0.83778 0.64645 0.0
C281 C 0.56452 0.81985 0.67196 0.0
N282 N 0.60053 0.79583 0.62895 0.0
N283 N 0.60615 0.82228 0.62158 0.0
C284 C 0.56126 0.76694 0.67687 0.0
H285 H 0.57324 0.74952 0.65203 0.0
H286 H 0.53958 0.76719 0.65525 0.0
H287 H 0.56003 0.76417 0.73834 0.0
C288 C 0.60836 0.73173 0.38767 0.0
N289 N 0.62165 0.73756 0.45365 0.0
N290 N 0.60625 0.75503 0.49178 0.0
C291 C 0.58297 0.76118 0.44968 0.0
C292 C 0.58272 0.7465 0.38107 0.0
C293 C 0.62063 0.71306 0.32977 0.0
H294 H 0.64265 0.71878 0.31882 0.0
H295 H 0.62077 0.69172 0.35173 0.0
H296 H 0.6085 0.71387 0.27707 0.0
O297 O 0.68547 0.76203 0.49827 0.0
O298 O 0.66015 0.78927 0.57044 0.0
H299 H 0.5471 0.78707 0.42618 0.0
H300 H 0.54946 0.77379 0.51998 0.0
C301 C 0.56164 0.78201 0.47242 0.0
H302 H 0.57246 0.80084 0.49078 0.0
H303 H 0.62431 0.82984 0.59706 0.0
O304 O 0.67624 0.70108 0.44434 0.0
C305 C 0.6827 0.78452 0.53432 0.0
Co306 Co 0.32488 0.63887 0.51447 0.0
Co307 Co 0.28417 0.61551 0.61493 0.0
C308 C 0.33796 0.64588 0.67861 0.0
O309 O 0.34587 0.64868 0.61084 0.0
O310 O 0.31524 0.63236 0.69092 0.0
C311 C 0.37345 0.64669 0.4312 0.0
O312 O 0.38683 0.63435 0.48596 0.0
C313 C 0.2563 0.57571 0.71169 0.0
C314 C 0.21214 0.58927 0.70114 0.0
C315 C 0.22934 0.56969 0.73307 0.0
N316 N 0.25532 0.59814 0.66858 0.0
N317 N 0.22889 0.60624 0.66285 0.0
C318 C 0.28234 0.55982 0.72955 0.0
H319 H 0.30049 0.56827 0.69874 0.0
H320 H 0.27957 0.53784 0.71506 0.0
H321 H 0.28623 0.56089 0.79056 0.0
C322 C 0.32455 0.57948 0.43916 0.0
N323 N 0.31689 0.5991 0.49114 0.0
N324 N 0.29527 0.59011 0.52838 0.0
C325 C 0.287 0.56587 0.49558 0.0
C326 C 0.30511 0.55794 0.4356 0.0
C327 C 0.35218 0.57818 0.40024 0.0
H328 H 0.36493 0.59606 0.41277 0.0
H329 H 0.36442 0.56033 0.42063 0.0
H330 H 0.34922 0.57527 0.33931 0.0
O331 O 0.29204 0.66736 0.5053 0.0
O332 O 0.26233 0.6485 0.58205 0.0
H333 H 0.25615 0.53426 0.48072 0.0
H334 H 0.26803 0.53931 0.57498 0.0
C335 C 0.26243 0.54993 0.5222 0.0
H336 H 0.24472 0.56418 0.53412 0.0
H337 H 0.22196 0.62294 0.63113 0.0
O338 O 0.34752 0.65101 0.43485 0.0
C339 C 0.26852 0.66817 0.53912 0.0
Co340 Co 0.40329 0.31647 0.49161 0.0
Co341 Co 0.43345 0.28161 0.59899 0.0
C342 C 0.40206 0.33237 0.6614 0.0
O343 O 0.39538 0.33662 0.59302 0.0
O344 O 0.41907 0.31232 0.67551 0.0
C345 C 0.40339 0.36335 0.40261 0.0
O346 O 0.42511 0.36926 0.44402 0.0
C347 C 0.4585 0.25029 0.71548 0.0
C348 C 0.45665 0.24153 0.6674 0.0
C349 C 0.46526 0.22445 0.73288 0.0
N350 N 0.45169 0.25116 0.6452 0.0
N351 N 0.4519 0.22857 0.60209 0.0
C352 C 0.45903 0.27563 0.77236 0.0
H353 H 0.46614 0.29441 0.74293 0.0
H354 H 0.47279 0.27126 0.82074 0.0
H355 H 0.43754 0.27955 0.79355 0.0
C356 C 0.45922 0.30941 0.39697 0.0
N357 N 0.44279 0.30655 0.45971 0.0
N358 N 0.45705 0.29252 0.50941 0.0
C359 C 0.48322 0.28703 0.48004 0.0
C360 C 0.48612 0.29781 0.40622 0.0
C361 C 0.44873 0.31983 0.32415 0.0
H362 H 0.42682 0.31347 0.31803 0.0
H363 H 0.45048 0.3425 0.32288 0.0
H364 H 0.46113 0.31138 0.27676 0.0
O365 O 0.37614 0.2845 0.48677 0.0
O366 O 0.39801 0.2606 0.57273 0.0
H367 H 0.50124 0.24871 0.51338 0.0
H368 H 0.52624 0.27564 0.49901 0.0
C369 C 0.50511 0.27097 0.52098 0.0
H370 H 0.50391 0.27551 0.58168 0.0
H371 H 0.44578 0.23403 0.54816 0.0
O372 O 0.38982 0.34197 0.41782 0.0
C373 C 0.37729 0.26344 0.52904 0.0
Co374 Co 0.73732 0.39396 0.47304 0.0
Co375 Co 0.76831 0.42596 0.58048 0.0
C376 C 0.71942 0.39337 0.64376 0.0
O377 O 0.71813 0.38469 0.57623 0.0
O378 O 0.73667 0.41296 0.65602 0.0
C379 C 0.69058 0.3928 0.3833 0.0
O380 O 0.68433 0.41503 0.42178 0.0
C381 C 0.79565 0.46696 0.67508 0.0
C382 C 0.83975 0.46001 0.64108 0.0
C383 C 0.82252 0.47624 0.68475 0.0
N384 N 0.79672 0.44607 0.6267 0.0
N385 N 0.82313 0.4419 0.60705 0.0
C386 C 0.76942 0.47854 0.70858 0.0
H387 H 0.75078 0.46984 0.68097 0.0
H388 H 0.7692 0.50129 0.70353 0.0
H389 H 0.76887 0.47342 0.769 0.0
C390 C 0.74156 0.44908 0.37585 0.0
N391 N 0.74454 0.43325 0.43935 0.0
N392 N 0.75696 0.44814 0.48988 0.0
C393 C 0.76123 0.47398 0.46054 0.0
C394 C 0.75139 0.47613 0.38583 0.0
C395 C 0.73286 0.43803 0.3022 0.0
H396 H 0.74059 0.41665 0.29727 0.0
H397 H 0.70979 0.43888 0.2983 0.0
H398 H 0.7415 0.45038 0.25553 0.0
O399 O 0.7717 0.3695 0.46657 0.0
O400 O 0.79212 0.39157 0.55746 0.0
H401 H 0.79756 0.48982 0.51141 0.0
H402 H 0.77507 0.51595 0.47078 0.0
C403 C 0.77559 0.49625 0.50211 0.0
H404 H 0.76549 0.49912 0.55737 0.0
H405 H 0.82985 0.42726 0.56824 0.0
O406 O 0.71208 0.37913 0.40101 0.0
C407 C 0.79194 0.37146 0.51204 0.0
Co408 Co 0.65788 0.31563 0.06238 0.0
Co409 Co 0.6265 0.28229 0.96228 0.0
C410 C 0.6571 0.33068 0.89139 0.0
O411 O 0.66654 0.33254 0.95772 0.0
O412 O 0.63745 0.31323 0.88233 0.0
C413 C 0.65263 0.3682 0.11275 0.0
O414 O 0.63169 0.36856 0.0656 0.0
C415 C 0.58205 0.25712 0.87702 0.0
C416 C 0.59365 0.213 0.88478 0.0
C417 C 0.57345 0.23105 0.85881 0.0
N418 N 0.60624 0.25478 0.91362 0.0
N419 N 0.61326 0.22841 0.91745 0.0
C420 C 0.56727 0.28371 0.86125 0.0
H421 H 0.57586 0.30046 0.8961 0.0
H422 H 0.5445 0.28163 0.87135 0.0
H423 H 0.57022 0.28901 0.80144 0.0
C424 C 0.60536 0.31044 0.16736 0.0
N425 N 0.61971 0.30689 0.1013 0.0
N426 N 0.60436 0.29265 0.05555 0.0
C427 C 0.57947 0.28711 0.09142 0.0
C428 C 0.57857 0.29848 0.16484 0.0
C429 C 0.61782 0.32269 0.23597 0.0
H430 H 0.64072 0.32491 0.23007 0.0
H431 H 0.60803 0.34303 0.24658 0.0
H432 H 0.61318 0.30954 0.28512 0.0
O433 O 0.68519 0.28356 0.07317 0.0
O434 O 0.66262 0.26045 0.98707 0.0
H435 H 0.54069 0.26487 0.09912 0.0
H436 H 0.54702 0.28209 1.0117 0.0
C437 C 0.55697 0.27026 0.05754 0.0
H438 H 0.5663 0.25127 0.03365 0.0
H439 H 0.63101 0.22079 0.94435 0.0
O440 O 0.66746 0.34649 0.12111 0.0
C441 C 0.68354 0.2625 0.03084 0.0
Co442 Co 0.73308 0.65192 0.07114 0.0
Co443 Co 0.76864 0.62287 0.96446 0.0
C444 C 0.71641 0.65477 0.90553 0.0
O445 O 0.71192 0.66073 0.97403 0.0
O446 O 0.73694 0.63828 0.89007 0.0
C447 C 0.71213 0.68242 0.18972 0.0
O448 O 0.72632 0.70352 0.16491 0.0
C449 C 0.79569 0.5819 0.86777 0.0
C450 C 0.84022 0.58987 0.89247 0.0
C451 C 0.82263 0.573 0.85325 0.0
N452 N 0.79709 0.60327 0.91434 0.0
N453 N 0.82374 0.60806 0.92847 0.0
C454 C 0.76917 0.56946 0.84085 0.0
H455 H 0.75088 0.57858 0.87041 0.0
H456 H 0.76984 0.54685 0.84945 0.0
H457 H 0.76715 0.57323 0.77994 0.0
C458 C 0.73668 0.59657 0.1618 0.0
N459 N 0.74166 0.61301 0.10072 0.0
N460 N 0.75792 0.59963 0.05418 0.0
C461 C 0.764 0.57433 0.08536 0.0
C462 C 0.75068 0.57086 0.15606 0.0
C463 C 0.72006 0.60575 0.22803 0.0
H464 H 0.69959 0.61404 0.20933 0.0
H465 H 0.71665 0.58878 0.26836 0.0
H466 H 0.73158 0.62227 0.25662 0.0
O467 O 0.76672 0.67822 0.07562 0.0
O468 O 0.79126 0.65652 0.99019 0.0
H469 H 0.80395 0.5634 0.04206 0.0
H470 H 0.78537 0.53493 0.0838 0.0
C471 C 0.78321 0.55386 0.04958 0.0
H472 H 0.77514 0.54846 0.99363 0.0
H473 H 0.8308 0.62317 0.96487 0.0
O474 O 0.70771 0.66227 0.14754 0.0
C475 C 0.78841 0.67685 0.03404 0.0
Co476 Co 0.40732 0.74013 0.06555 0.0
Co477 Co 0.43817 0.76388 0.94238 0.0
C478 C 0.40257 0.71399 0.90399 0.0
O479 O 0.39614 0.71469 0.97371 0.0
O480 O 0.42088 0.73113 0.88059 0.0
C481 C 0.41015 0.70089 0.17057 0.0
O482 O 0.43271 0.69453 0.13208 0.0
C483 C 0.44498 0.79622 0.814 0.0
C484 C 0.45771 0.80008 0.85416 0.0
C485 C 0.45494 0.82009 0.7904 0.0
N486 N 0.45675 0.78945 0.87731 0.0
N487 N 0.47916 0.80264 0.90288 0.0
C488 C 0.41761 0.78283 0.77883 0.0
H489 H 0.42331 0.76293 0.75228 0.0
H490 H 0.40792 0.7966 0.73651 0.0
H491 H 0.40219 0.77875 0.82353 0.0
C492 C 0.4637 0.74791 0.15376 0.0
N493 N 0.44742 0.74853 0.09059 0.0
N494 N 0.46332 0.75413 0.03298 0.0
C495 C 0.4907 0.7541 0.05821 0.0
C496 C 0.49221 0.75041 0.13725 0.0
C497 C 0.45251 0.74895 0.23128 0.0
H498 H 0.45002 0.72776 0.25254 0.0
H499 H 0.46718 0.75953 0.26923 0.0
H500 H 0.43253 0.76054 0.23107 0.0
O501 O 0.3823 0.77307 0.06357 0.0
O502 O 0.40396 0.78962 0.96579 0.0
H503 H 0.5252 0.77655 1.01422 0.0
H504 H 0.53165 0.74051 1.02541 0.0
C505 C 0.51569 0.75597 1.00824 0.0
H506 H 0.50981 0.75258 0.94907 0.0
H507 H 0.48381 0.79562 0.95608 0.0
O508 O 0.39414 0.72001 0.14891 0.0
C509 C 0.38385 0.79116 1.01277 0.0
Co510 Co 0.32878 0.39298 0.08111 0.0
Co511 Co 0.29256 0.42464 0.98474 0.0
C512 C 0.34111 0.3953 0.90827 0.0
O513 O 0.34531 0.38638 0.97447 0.0
O514 O 0.32214 0.41403 0.90016 0.0
C515 C 0.38235 0.39952 0.13042 0.0
O516 O 0.38157 0.42086 0.08547 0.0
C517 C 0.25951 0.46503 0.9009 0.0
C518 C 0.21681 0.45461 0.93906 0.0
C519 C 0.23175 0.47258 0.89523 0.0
N520 N 0.26119 0.44337 0.94661 0.0
N521 N 0.23562 0.4371 0.96887 0.0
C522 C 0.28401 0.47889 0.86589 0.0
H523 H 0.30388 0.47039 0.88837 0.0
H524 H 0.28273 0.50138 0.87612 0.0
H525 H 0.2834 0.47572 0.80453 0.0
C526 C 0.32023 0.44246 0.19035 0.0
N527 N 0.3178 0.42948 0.12274 0.0
N528 N 0.30405 0.44548 0.077 0.0
C529 C 0.29849 0.46988 0.11338 0.0
C530 C 0.30848 0.46944 0.18867 0.0
C531 C 0.33105 0.42812 0.25853 0.0
H532 H 0.32763 0.40565 0.25423 0.0
H533 H 0.35377 0.43148 0.2632 0.0
H534 H 0.32078 0.43631 0.30968 0.0
O535 O 0.29821 0.36478 0.09122 0.0
O536 O 0.27364 0.38825 1.00881 0.0
H537 H 0.2613 0.48831 0.07087 0.0
H538 H 0.28571 0.51264 0.10933 0.0
C539 C 0.28368 0.49342 0.07661 0.0
H540 H 0.29229 0.49652 1.01972 0.0
H541 H 0.231 0.42133 1.00629 0.0
O542 O 0.36099 0.3843 0.1378 0.0
C543 C 0.27676 0.36687 0.04934 0.0
C544 C 0.22499 0.31626 0.96046 0.0
C545 C 0.21374 0.3024 1.02358 0.0
C546 C 0.24293 0.33162 0.10513 0.0
C547 C 0.25597 0.34366 0.04172 0.0
N548 N 0.26413 0.34118 0.90865 0.0
N549 N 0.21819 0.29242 0.15527 0.0
C550 C 0.24831 0.33416 0.96928 0.0
C551 C 0.22446 0.30886 0.09575 0.0
N552 N 0.21278 0.31336 0.89213 0.0
N553 N 0.2472 0.34248 0.17441 0.0
H554 H 0.20628 0.27474 0.15029 0.0
H555 H 0.22746 0.29449 0.2075 0.0
H556 H 0.26002 0.3593 0.1837 0.0
H557 H 0.23592 0.33647 0.22146 0.0
H558 H 0.21825 0.3252 0.84589 0.0
H559 H 0.19528 0.30125 0.88337 0.0
H560 H 0.26122 0.3328 0.85575 0.0
H561 H 0.28222 0.35279 0.91287 0.0
C562 C 0.71859 0.23102 0.96158 0.0
C563 C 0.70632 0.2402 0.03031 0.0
C564 C 0.73836 0.2082 0.09675 0.0
C565 C 0.74757 0.19621 1.02806 0.0
N566 N 0.74345 0.19471 0.89422 0.0
N567 N 0.70191 0.23325 0.16327 0.0
C568 C 0.73694 0.20733 0.96019 0.0
C569 C 0.71564 0.2277 0.09788 0.0
N570 N 0.71373 0.24563 0.89762 0.0
N571 N 0.75205 0.20171 0.16139 0.0
H572 H 0.68473 0.24655 0.16669 0.0
H573 H 0.70572 0.22252 0.21265 0.0
H574 H 0.76939 0.18853 0.16291 0.0
H575 H 0.74825 0.21175 0.21185 0.0
H576 H 0.72415 0.24174 0.8475 0.0
H577 H 0.70153 0.26351 0.89639 0.0
H578 H 0.73388 0.19974 0.84379 0.0
H579 H 0.75681 0.17768 0.8909 0.0
C580 C 0.81778 0.71198 0.96224 0.0
C581 C 0.80997 0.69976 0.03176 0.0
C582 C 0.84191 0.73205 0.09466 0.0
C583 C 0.85256 0.74156 1.0246 0.0
N584 N 0.85341 0.73566 0.89078 0.0
N585 N 0.82001 0.69478 0.16278 0.0
C586 C 0.84117 0.7302 0.95813 0.0
C587 C 0.82351 0.70894 0.09761 0.0
N588 N 0.80221 0.70707 0.89995 0.0
N589 N 0.84824 0.74581 0.15877 0.0
H590 H 0.80809 0.67703 0.16618 0.0
H591 H 0.8314 0.69884 0.21094 0.0
H592 H 0.86016 0.7636 0.15938 0.0
H593 H 0.83896 0.74144 0.2101 0.0
H594 H 0.80503 0.71757 0.84977 0.0
H595 H 0.78454 0.69473 0.90046 0.0
H596 H 0.84792 0.7257 0.84157 0.0
H597 H 0.87101 0.74791 0.88515 0.0
C598 C 0.36644 0.84121 0.9996 0.0
C599 C 0.36059 0.81264 1.00474 0.0
C600 C 0.30995 0.82441 1.00887 0.0
C601 C 0.31571 0.85288 0.99946 0.0
N602 N 0.34974 0.88701 0.96662 0.0
N603 N 0.32597 0.77727 0.99226 0.0
C604 C 0.34409 0.8608 0.98907 0.0
C605 C 0.33209 0.80435 1.00291 0.0
N606 N 0.39325 0.84995 1.00822 0.0
N607 N 0.28359 0.81634 1.02741 0.0
H608 H 0.34128 0.76211 0.98452 0.0
H609 H 0.30579 0.77035 0.9827 0.0
H610 H 0.2668 0.82998 0.0329 0.0
H611 H 0.27891 0.79635 0.0438 0.0
H612 H 0.39846 0.87058 1.01348 0.0
H613 H 0.41004 0.83653 1.01706 0.0
H614 H 0.3696 0.89344 0.95102 0.0
H615 H 0.33409 0.90155 0.95575 0.0
C616 C 0.21714 0.7252 0.60496 0.0
C617 C 0.20799 0.73744 0.53691 0.0
C618 C 0.23826 0.70387 0.46827 0.0
C619 C 0.24903 0.69323 0.53657 0.0
N620 N 0.25345 0.69954 0.66974 0.0
N621 N 0.21541 0.74194 0.40395 0.0
C622 C 0.2398 0.70561 0.60476 0.0
C623 C 0.22011 0.7277 0.46859 0.0
N624 N 0.20339 0.73118 0.67004 0.0
N625 N 0.24442 0.69066 0.40289 0.0
H626 H 0.20339 0.75992 0.40189 0.0
H627 H 0.2258 0.73764 0.35403 0.0
H628 H 0.25743 0.67336 0.40027 0.0
H629 H 0.23474 0.69542 0.35241 0.0
H630 H 0.2071 0.72069 0.71986 0.0
H631 H 0.18626 0.74456 0.67276 0.0
H632 H 0.24966 0.70995 0.71965 0.0
H633 H 0.27074 0.68634 0.67211 0.0
C634 C 0.34111 0.2345 0.59947 0.0
C635 C 0.35391 0.24234 0.53046 0.0
C636 C 0.3213 0.2113 0.46548 0.0
C637 C 0.31131 0.2006 0.5349 0.0
N638 N 0.31522 0.20005 0.66899 0.0
N639 N 0.35869 0.23402 0.3983 0.0
C640 C 0.32209 0.2118 0.60219 0.0
C641 C 0.34455 0.22967 0.46362 0.0
N642 N 0.34617 0.24947 0.66243 0.0
N643 N 0.30789 0.20474 0.40076 0.0
H644 H 0.37609 0.24663 0.39443 0.0
H645 H 0.35489 0.22299 0.34961 0.0
H646 H 0.29038 0.19222 0.39931 0.0
H647 H 0.3122 0.2141 0.34969 0.0
H648 H 0.33535 0.24668 0.7124 0.0
H649 H 0.35905 0.2666 0.6628 0.0
H650 H 0.32483 0.20512 0.71914 0.0
H651 H 0.30165 0.18352 0.67348 0.0
C652 C 0.82956 0.34196 0.44752 0.0
C653 C 0.81527 0.3499 0.514 0.0
C654 C 0.84751 0.31928 0.58533 0.0
C655 C 0.85972 0.30913 0.51797 0.0
N656 N 0.85654 0.3068 0.38332 0.0
N657 N 0.80732 0.34097 0.64508 0.0
C658 C 0.84912 0.31942 0.44866 0.0
C659 C 0.82338 0.33713 0.58263 0.0
N660 N 0.82542 0.35661 0.38327 0.0
N661 N 0.85954 0.31286 0.65226 0.0
H662 H 0.78906 0.35284 0.64534 0.0
H663 H 0.81045 0.33004 0.69448 0.0
H664 H 0.87746 0.30061 0.65676 0.0
H665 H 0.85344 0.32194 0.7025 0.0
H666 H 0.83747 0.35368 0.33529 0.0
H667 H 0.81205 0.37363 0.38016 0.0
H668 H 0.84726 0.31149 0.33223 0.0
H669 H 0.86953 0.28954 0.38115 0.0
C670 C 0.74338 0.83245 0.4775 0.0
C671 C 0.75097 0.84437 0.54724 0.0
C672 C 0.7169 0.81379 0.60913 0.0
C673 C 0.70662 0.80483 0.53847 0.0
N674 N 0.70796 0.80947 0.40443 0.0
N675 N 0.74188 0.84854 0.67914 0.0
C676 C 0.71941 0.81513 0.47242 0.0
C677 C 0.73696 0.83551 0.61304 0.0
N678 N 0.75975 0.83689 0.41606 0.0
N679 N 0.70847 0.80073 0.67282 0.0
H680 H 0.75632 0.86429 0.68444 0.0
H681 H 0.73002 0.8453 0.72719 0.0
H682 H 0.69478 0.78423 0.67252 0.0
H683 H 0.71727 0.80431 0.72498 0.0
H684 H 0.75706 0.8267 0.3655 0.0
H685 H 0.77794 0.84847 0.41795 0.0
H686 H 0.71442 0.81882 0.35501 0.0
H687 H 0.69021 0.7975 0.39812 0.0
C688 C 1.02186 0.31646 0.21692 0.0
C689 C 1.0175 0.31779 0.29487 0.0
C690 C 0.06708 0.32547 0.31601 0.0
C691 C 0.07147 0.32304 0.23808 0.0
N692 N 0.05185 0.33038 0.11574 0.0
N693 N 0.03355 0.33221 0.4161 0.0
C694 C 0.04851 0.32274 0.18848 0.0
C695 C 0.03938 0.32513 0.34384 0.0
N696 N 1.00082 0.30881 0.17027 0.0
N697 N 0.08938 0.327 0.36324 0.0
H698 H 1.01323 0.33313 0.43703 0.0
H699 H 0.04836 0.33983 0.4529 0.0
H700 H 0.10991 0.32858 0.34411 0.0
H701 H 0.08768 0.32531 0.42106 0.0
H702 H 1.00403 0.30469 0.11374 0.0
H703 H 0.98063 0.30474 0.1891 0.0
H704 H 0.03534 0.33208 0.07821 0.0
H705 H 0.07029 0.33915 0.09673 0.0
C706 C 0.71689 1.02095 0.38199 0.0
C707 C 0.71854 0.99681 0.33829 0.0
C708 C 0.71584 0.02379 0.22404 0.0
C709 C 0.72042 0.04762 0.26734 0.0
N710 N 0.72482 0.06995 0.38699 0.0
N711 N 0.71816 0.97404 0.21901 0.0
C712 C 0.72015 0.04667 0.34638 0.0
C713 C 0.717 0.99782 0.25952 0.0
N714 N 0.71272 1.01905 0.45736 0.0
N715 N 0.71058 0.02619 0.14931 0.0
H716 H 0.71783 0.95465 0.244 0.0
H717 H 0.7206 0.97346 0.16122 0.0
H718 H 0.70933 0.04522 0.12248 0.0
H719 H 0.70504 1.00976 0.11547 0.0
H720 H 0.70921 0.03596 0.49183 0.0
H721 H 0.7101 1.00022 0.48433 0.0
H722 H 0.72827 0.06992 0.44437 0.0
H723 H 0.72678 0.08932 0.3627 0.0
C724 C 0.04586 0.73434 0.23981 0.0
C725 C 0.04976 0.7325 0.31781 0.0
C726 C 0.99998 0.72468 0.33709 0.0
C727 C 0.99615 0.72672 0.25889 0.0
N728 N 1.01696 0.72055 0.13697 0.0
N729 N 0.03257 0.71841 0.43885 0.0
C730 C 1.01951 0.7278 0.21015 0.0
C731 C 1.02745 0.72522 0.36605 0.0
N732 N 0.06717 0.74242 0.19412 0.0
N733 N 0.97734 0.72329 0.38367 0.0
H734 H 0.05256 0.71806 0.46158 0.0
H735 H 1.01749 0.71053 0.47477 0.0
H736 H 0.95691 0.72164 0.36416 0.0
H737 H 0.9786 0.72535 0.44144 0.0
H738 H 0.06431 0.74696 0.13771 0.0
H739 H 0.08721 0.74648 0.21369 0.0
H740 H 0.03386 0.7192 0.10027 0.0
H741 H 0.9988 0.71191 0.11621 0.0
C742 C 0.34581 1.02272 0.36023 0.0
C743 C 0.34406 0.04772 0.32003 0.0
C744 C 0.34638 1.02316 0.2017 0.0
C745 C 0.34254 0.99841 0.24183 0.0
N746 N 0.33983 0.97331 0.35769 0.0
N747 N 0.34416 0.07298 0.20429 0.0
C748 C 0.34321 0.99769 0.32082 0.0
C749 C 0.3454 0.04835 0.24111 0.0
N750 N 0.3495 1.02316 0.43591 0.0
N751 N 0.35053 1.02241 0.12612 0.0
H752 H 0.34463 0.09181 0.23206 0.0
H753 H 0.3416 0.07487 0.14682 0.0
H754 H 0.35123 1.00405 0.09607 0.0
H755 H 0.35558 0.03952 0.09409 0.0
H756 H 0.35298 1.00567 0.46822 0.0
H757 H 0.35149 0.04144 0.46574 0.0
H758 H 0.33674 0.97173 0.41509 0.0
H759 H 0.33894 0.95447 0.33007 0.0
C760 C 0.04589 0.77384 0.76061 0.0
C761 C 0.0555 0.79881 0.72656 0.0
C762 C 1.02131 0.8235 0.81266 0.0
C763 C 1.0099 0.79844 0.84179 0.0
N764 N 1.00976 0.74924 0.83044 0.0
N765 N 0.04799 0.84757 0.71609 0.0
C766 C 1.02197 0.77355 0.81212 0.0
C767 C 0.04193 0.82358 0.75201 0.0
N768 N 0.06035 0.75012 0.74603 0.0
N769 N 1.01323 0.84769 0.84524 0.0
H770 H 0.06253 0.84865 0.6727 0.0
H771 H 0.03689 0.86584 0.72438 0.0
H772 H 0.99887 0.84866 0.8891 0.0
H773 H 1.02264 0.86644 0.83398 0.0
H774 H 0.05697 0.73176 0.77444 0.0
H775 H 0.07747 0.74942 0.70984 0.0
H776 H 1.015 0.7306 0.80523 0.0
H777 H 0.99256 0.74811 0.86615 0.0
C778 C 0.26213 0.99734 0.7599 0.0
C779 C 0.25935 1.00349 0.83815 0.0
C780 C 0.26178 0.05335 0.79834 0.0
C781 C 0.25961 0.04722 0.72001 0.0
N782 N 0.25236 1.01085 0.63117 0.0
N783 N 0.25142 0.03996 0.92692 0.0
C784 C 0.25839 1.01846 0.70255 0.0
C785 C 0.25786 0.03227 0.85563 0.0
N786 N 0.26966 0.9713 0.73938 0.0
N787 N 0.26892 0.0793 0.81904 0.0
H788 H 0.2473 0.02576 0.96907 0.0
H789 H 0.24727 0.06029 0.94196 0.0
H790 H 0.27318 0.09469 0.78015 0.0
H791 H 0.27353 0.08459 0.87399 0.0
H792 H 0.27467 0.96596 0.68454 0.0
H793 H 0.27389 0.95587 0.77836 0.0
H794 H 0.24844 0.99057 0.61613 0.0
H795 H 0.24831 0.02509 0.58894 0.0
C796 C 0.03569 0.22783 0.70829 0.0
C797 C 1.0169 0.25068 0.69826 0.0
C798 C 0.04451 0.27379 0.80074 0.0
C799 C 0.0606 0.24944 0.81769 0.0
N800 N 0.06499 0.2009 0.79282 0.0
N801 N 1.00205 0.29441 0.74778 0.0
C802 C 0.05435 0.22593 0.77242 0.0
C803 C 1.02105 0.27332 0.74832 0.0
N804 N 0.03649 0.20787 0.65484 0.0
N805 N 0.05245 0.2981 0.83147 0.0
H806 H 0.98515 0.29498 0.71117 0.0
H807 H 1.00178 0.31001 0.7876 0.0
H808 H 0.06997 0.29965 0.86549 0.0
H809 H 0.04364 0.31698 0.81657 0.0
H810 H 0.05151 0.19221 0.65395 0.0
H811 H 1.02379 0.20863 0.60759 0.0
H812 H 0.05927 0.1826 0.76715 0.0
H813 H 0.07699 0.19807 0.84075 0.0
C814 C 0.80159 0.04471 0.78106 0.0
C815 C 0.79782 0.03816 0.85883 0.0
C816 C 0.79203 0.98904 0.81522 0.0
C817 C 0.79985 0.99508 0.73928 0.0
N818 N 0.81661 0.03024 0.65638 0.0
N819 N 0.79408 1.00128 0.9477 0.0
C820 C 0.80576 0.02342 0.72442 0.0
C821 C 0.79417 1.00951 0.87486 0.0
N822 N 0.79996 0.07162 0.7598 0.0
N823 N 0.78129 0.9638 0.83066 0.0
H824 H 0.79646 1.01502 0.99177 0.0
H825 H 0.79446 0.98069 0.96382 0.0
H826 H 0.77871 0.94886 0.7896 0.0
H827 H 0.7725 0.95876 0.88212 0.0
H828 H 0.79957 0.07788 0.70413 0.0
H829 H 0.79585 0.08748 0.79752 0.0
H830 H 0.82438 0.04967 0.64423 0.0
H831 H 0.82041 1.01578 0.61454 0.0
C832 C 0.51346 0.82134 0.64757 0.0
C833 C 0.53591 0.82721 0.69584 0.0
C834 C 0.50265 0.84084 0.79235 0.0
C835 C 0.48154 0.82691 0.75262 0.0
N836 N 0.46535 0.80743 0.63696 0.0
N837 N 0.55234 0.84438 0.81397 0.0
C838 C 0.48639 0.8184 0.67813 0.0
C839 C 0.5307 0.83803 0.76789 0.0
N840 N 0.51795 0.81995 0.57243 0.0
N841 N 0.49577 0.85655 0.85295 0.0
H842 H 0.57318 0.84294 0.79717 0.0
H843 H 0.54958 0.84951 0.87003 0.0
H844 H 0.4751 0.85917 0.87058 0.0
H845 H 0.51008 0.86882 0.88072 0.0
H846 H 0.5021 0.81743 0.53343 0.0
H847 H 0.53718 0.82504 0.54917 0.0
H848 H 0.46863 0.79767 0.58586 0.0
H849 H 0.44467 0.80749 0.65515 0.0
C850 C 0.22035 0.52239 0.89557 0.0
C851 C 0.22093 0.49701 0.85692 0.0
C852 C 0.21757 0.52021 0.73683 0.0
C853 C 0.22047 0.54549 0.77501 0.0
N854 N 0.21698 0.57218 0.88772 0.0
N855 N 0.2125 0.47065 0.74611 0.0
C856 C 0.2191 0.54708 0.85374 0.0
C857 C 0.21678 0.4956 0.77898 0.0
N858 N 0.2225 0.52269 0.97169 0.0
N859 N 0.21683 0.51988 0.66049 0.0
H860 H 0.21173 0.45243 0.77689 0.0
H861 H 0.20772 0.46801 0.68998 0.0
H862 H 0.2156 0.53784 0.62873 0.0
H863 H 0.21789 0.50213 0.62829 0.0
H864 H 0.2257 0.5403 1.00324 0.0
H865 H 0.2215 0.50483 1.00378 0.0
H866 H 0.21399 0.57492 0.94481 0.0
H867 H 0.21618 0.59056 0.85765 0.0
C868 C 0.54356 0.22445 0.7474 0.0
C869 C 0.54662 0.22374 0.82585 0.0
C870 C 0.49645 0.21761 0.84254 0.0
C871 C 0.49339 0.21959 0.76406 0.0
N872 N 0.51461 0.21137 0.64374 0.0
N873 N 0.52797 0.21241 0.9474 0.0
C874 C 0.51712 0.219 0.71666 0.0
C875 C 0.52367 0.21781 0.87334 0.0
N876 N 0.56572 0.23068 0.7024 0.0
N877 N 0.47328 0.2168 0.88738 0.0
H878 H 0.54771 0.21236 0.97162 0.0
H879 H 0.51243 0.20566 0.9836 0.0
H880 H 0.45309 0.21533 0.86615 0.0
H881 H 0.47386 0.21889 0.9452 0.0
H882 H 0.56367 0.23462 0.64543 0.0
H883 H 0.58584 0.23363 0.72285 0.0
H884 H 0.53159 0.20899 0.60767 0.0
H885 H 0.49615 0.20334 0.62302 0.0
C886 C 0.83214 0.52278 0.8483 0.0
C887 C 0.83077 0.54848 0.81108 0.0
C888 C 0.83224 0.52625 0.68951 0.0
C889 C 0.83073 0.50057 0.72675 0.0
N890 N 0.83643 0.47314 0.83756 0.0
N891 N 0.8368 0.57576 0.70023 0.0
C892 C 0.83315 0.49845 0.80515 0.0
C893 C 0.83334 0.55055 0.73267 0.0
N894 N 0.83136 0.52182 0.92458 0.0
N895 N 0.83136 0.52732 0.61324 0.0
H896 H 0.83764 0.59388 0.73126 0.0
H897 H 0.84094 0.57875 0.64375 0.0
H898 H 0.83284 0.50981 0.58 0.0
H899 H 0.82867 0.54531 0.58255 0.0
H900 H 0.82872 0.50393 0.95555 0.0
H901 H 0.83292 0.53937 0.95749 0.0
H902 H 0.84029 0.47001 0.89408 0.0
H903 H 0.83735 0.45502 0.80644 0.0
C904 C 0.54204 0.32267 0.25519 0.0
C905 C 0.555 0.29789 0.2278 0.0
C906 C 0.5225 0.27256 0.31578 0.0
C907 C 0.51114 0.29744 0.34729 0.0
N908 N 0.51531 0.3466 0.35263 0.0
N909 N 0.55987 0.24911 0.24593 0.0
C910 C 0.52247 0.32251 0.31813 0.0
C911 C 0.54573 0.27287 0.26222 0.0
N912 N 0.54748 0.34672 0.21882 0.0
N913 N 0.51024 0.24829 0.33424 0.0
H914 H 0.5766 0.24843 0.20848 0.0
H915 H 0.55671 0.2307 0.27428 0.0
H916 H 0.49346 0.24716 0.37135 0.0
H917 H 0.51497 0.22974 0.30787 0.0
H918 H 0.53667 0.36502 0.22911 0.0
H919 H 0.56106 0.34785 0.17326 0.0
H920 H 0.52485 0.36526 0.34099 0.0
H921 H 0.50177 0.34749 0.39834 0.0
C922 C 0.72646 0.5316 0.2345 0.0
C923 C 0.75133 0.54607 0.21414 0.0
C924 C 0.77684 0.51348 0.30177 0.0
C925 C 0.75158 0.50085 0.32748 0.0
N926 N 0.7014 0.50265 0.32359 0.0
N927 N 0.79996 0.55234 0.24131 0.0
C928 C 0.72624 0.51129 0.2948 0.0
C929 C 0.77639 0.53727 0.25148 0.0
N930 N 0.7028 0.5365 0.19408 0.0
N931 N 0.80174 0.50198 0.32267 0.0
H932 H 0.80057 0.56945 0.20624 0.0
H933 H 0.81808 0.5494 0.27245 0.0
H934 H 0.80304 0.48479 0.35738 0.0
H935 H 0.82087 0.5078 0.30022 0.0
H936 H 0.68484 0.52478 0.19905 0.0
H937 H 0.70201 0.55069 0.15038 0.0
H938 H 0.68219 0.51138 0.30932 0.0
H939 H 0.70014 0.48854 0.36735 0.0
C940 C 0.54297 0.72419 0.29944 0.0
C941 C 0.56047 0.7472 0.31525 0.0
C942 C 0.53382 0.77252 0.21347 0.0
C943 C 0.51742 0.749 0.19482 0.0
N944 N 0.51064 0.70074 0.21561 0.0
N945 N 0.57462 0.79212 0.27543 0.0
C946 C 0.52331 0.72447 0.23696 0.0
C947 C 0.55633 0.77097 0.26866 0.0
N948 N 0.54426 0.70207 0.34638 0.0
N949 N 0.52709 0.79706 0.18073 0.0
H950 H 0.59081 0.79189 0.31427 0.0
H951 H 0.57529 0.80873 0.23877 0.0
H952 H 0.51139 0.79901 0.1408 0.0
H953 H 0.53545 0.81575 0.19711 0.0
H954 H 0.53015 0.68597 0.34514 0.0
H955 H 0.55819 0.70086 0.39094 0.0
H956 H 0.51581 0.68146 0.237 0.0
H957 H 0.49664 0.69997 0.17118 0.0
C958 C 0.32728 0.51475 0.36702 0.0
C959 C 0.30427 0.5335 0.37661 0.0
C960 C 0.28161 0.5069 0.27203 0.0
C961 C 0.30673 0.49183 0.25364 0.0
N962 N 0.3561 0.4888 0.2794 0.0
N963 N 0.26035 0.54856 0.32454 0.0
C964 C 0.33021 0.49785 0.30032 0.0
C965 C 0.2817 0.52979 0.32505 0.0
N966 N 0.34595 0.51172 0.42373 0.0
N967 N 0.25696 0.49851 0.2424 0.0
H968 H 0.2596 0.56533 0.36072 0.0
H969 H 0.24483 0.54874 0.28386 0.0
H970 H 0.25556 0.48103 0.20905 0.0
H971 H 0.2377 0.50686 0.25822 0.0
H972 H 0.36177 0.4968 0.42308 0.0
H973 H 0.34348 0.52205 0.47446 0.0
H974 H 0.37416 0.49429 0.30786 0.0
H975 H 0.35975 0.47879 0.22877 0.0
C976 C 0.20997 0.1941 0.32077 0.0
C977 C 0.21202 0.16469 0.32083 0.0
C978 C 0.18407 0.1658 0.20176 0.0
C979 C 0.18017 0.19515 0.2051 0.0
N980 N 0.18799 0.23644 0.27668 0.0
N981 N 0.19794 0.12262 0.26322 0.0
C982 C 0.19255 0.20887 0.26753 0.0
C983 C 0.19837 0.15067 0.26127 0.0
N984 N 0.22632 0.20845 0.36921 0.0
N985 N 0.17386 0.15207 0.14144 0.0
H986 H 0.2082 0.11121 0.3044 0.0
H987 H 0.18598 0.11067 0.22764 0.0
H988 H 0.1612 0.16146 0.10139 0.0
H989 H 0.17882 0.13169 0.12918 0.0
H990 H 0.229 0.22963 0.36659 0.0
H991 H 0.2397 0.199 0.40744 0.0
H992 H 0.19239 0.24684 0.32598 0.0
H993 H 0.17823 0.24888 0.23721 0.0
C994 C 0.85691 0.19401 0.2186 0.0
C995 C 0.8536 0.16482 0.22567 0.0
C996 C 0.88601 0.16732 0.33617 0.0
C997 C 0.88783 0.19679 0.33219 0.0
N998 N 0.86945 0.23788 0.27414 0.0
N999 N 0.86303 0.12459 0.29942 0.0
C1000 C 0.87196 0.20989 0.27402 0.0
C1001 C 0.86751 0.15189 0.28722 0.0
N1002 N 0.84532 0.20706 0.15836 0.0
N1003 N 0.90324 0.15367 0.38465 0.0
H1004 H 0.85085 0.11274 0.26391 0.0
H1005 H 0.86953 0.11419 0.34723 0.0
H1006 H 0.91753 0.16375 0.41847 0.0
H1007 H 0.90546 0.13238 0.38632 0.0
H1008 H 0.85034 0.22701 0.14251 0.0
H1009 H 0.83165 0.19753 0.12161 0.0
H1010 H 0.8554 0.24877 0.2408 0.0
H1011 H 0.87956 0.25035 0.3123 0.0
C1012 C 0.88241 0.88027 0.32965 0.0
C1013 C 0.85237 0.88128 0.33274 0.0
C1014 C 0.85311 0.84917 0.22204 0.0
C1015 C 0.88299 0.84958 0.21611 0.0
N1016 N 0.92556 0.86883 0.26151 0.0
N1017 N 0.80957 0.86818 0.27231 0.0
C1018 C 0.89738 0.86593 0.26972 0.0
C1019 C 0.83802 0.86635 0.27564 0.0
N1020 N 0.89696 0.89329 0.38441 0.0
N1021 N 0.83889 0.8307 0.17953 0.0
H1022 H 0.79739 0.87818 0.31232 0.0
H1023 H 0.798 0.86137 0.22697 0.0
H1024 H 0.84868 0.81742 0.14176 0.0
H1025 H 0.8178 0.82643 0.18674 0.0
H1026 H 0.91826 0.89046 0.39328 0.0
H1027 H 0.88743 0.90633 0.42322 0.0
H1028 H 0.93741 0.8826 0.29207 0.0
H1029 H 0.93695 0.8588 0.21969 0.0
C1030 C 0.1958 0.89585 0.28789 0.0
C1031 C 0.21141 0.88204 0.2305 0.0
C1032 C 0.19455 0.83742 0.28611 0.0
C1033 C 0.18001 0.85106 0.34613 0.0
N1034 N 0.16958 0.89436 0.40567 0.0
N1035 N 0.22959 0.83871 0.18654 0.0
C1036 C 0.18169 0.88059 0.34733 0.0
C1037 C 0.21154 0.85258 0.23279 0.0
N1038 N 0.19333 0.9238 0.28385 0.0
N1039 N 0.19255 0.80953 0.27973 0.0
H1040 H 0.24285 0.84861 0.14913 0.0
H1041 H 0.23369 0.8177 0.19021 0.0
H1042 H 0.18331 0.79714 0.32001 0.0
H1043 H 0.19867 0.79868 0.23222 0.0
H1044 H 0.17995 0.93545 0.31741 0.0
H1045 H 0.20339 0.93532 0.24282 0.0
H1046 H 0.17279 0.91508 0.4167 0.0
H1047 H 0.15716 0.88471 0.44556 0.0
C1048 C 0.90691 0.90183 0.80164 0.0
C1049 C 0.8988 0.87407 0.8152 0.0
C1050 C 0.90494 0.8643 0.68355 0.0
C1051 C 0.90383 0.89232 0.66833 0.0
N1052 N 0.9145 0.93772 0.70786 0.0
N1053 N 0.87929 0.83272 0.75815 0.0
C1054 C 0.90913 0.91109 0.72618 0.0
C1055 C 0.89487 0.85603 0.75341 0.0
N1056 N 0.91064 0.91941 0.86011 0.0
N1057 N 0.90951 0.84616 0.62689 0.0
H1058 H 0.86633 0.82815 0.80303 0.0
H1059 H 0.8757 0.82018 0.71203 0.0
H1060 H 0.91441 0.85307 0.57314 0.0
H1061 H 0.91071 0.82497 0.63583 0.0
H1062 H 0.91825 0.93924 0.8546 0.0
H1063 H 0.90544 0.91424 0.91493 0.0
H1064 H 0.91682 0.95353 0.7463 0.0
H1065 H 0.91686 0.94367 0.65213 0.0
C1066 C 0.15891 0.90129 0.75584 0.0
C1067 C 0.16789 0.87359 0.74328 0.0
C1068 C 0.16243 0.86391 0.87546 0.0
C1069 C 0.16029 0.892 0.88961 0.0
N1070 N 0.14574 0.93633 0.84792 0.0
N1071 N 0.18964 0.83308 0.80056 0.0
C1072 C 0.15448 0.91033 0.83074 0.0
C1073 C 0.17279 0.85586 0.80548 0.0
N1074 N 0.15706 0.9192 0.69715 0.0
N1075 N 0.15939 0.84575 0.93276 0.0
H1076 H 0.2031 0.82943 0.75581 0.0
H1077 H 0.19401 0.82053 0.84642 0.0
H1078 H 0.15373 0.85251 0.98618 0.0
H1079 H 0.16002 0.8245 0.92479 0.0
H1080 H 0.15086 0.93967 0.70188 0.0
H1081 H 0.16384 0.914 0.6435 0.0
H1082 H 0.1406 0.95136 0.80884 0.0
H1083 H 0.14243 0.94221 0.9034 0.0
C1084 C 0.15177 0.13848 0.71231 0.0
C1085 C 0.15865 0.15757 0.65611 0.0
C1086 C 0.17349 0.19048 0.74459 0.0
C1087 C 0.16707 0.17237 0.80461 0.0
N1088 N 0.14948 0.12834 0.84532 0.0
N1089 N 0.15932 0.2048 0.62117 0.0
C1090 C 0.1554 0.14615 0.78856 0.0
C1091 C 0.16162 0.18512 0.67494 0.0
N1092 N 0.14374 0.11281 0.69162 0.0
N1093 N 0.19263 0.21094 0.75091 0.0
H1094 H 0.15295 0.19978 0.56713 0.0
H1095 H 0.16148 0.22568 0.63296 0.0
H1096 H 0.20653 0.21223 0.79531 0.0
H1097 H 0.19785 0.22365 0.70614 0.0
H1098 H 0.14052 0.09663 0.72859 0.0
H1099 H 0.14047 0.108 0.63551 0.0
H1100 H 0.1389 0.10999 0.83812 0.0
H1101 H 0.15568 0.13187 0.90024 0.0
C1102 C 0.87394 0.13832 0.77972 0.0
C1103 C 0.88378 0.14976 0.8477 0.0
C1104 C 0.90384 0.1874 0.77976 0.0
C1105 C 0.89771 0.1737 0.7113 0.0
N1106 N 0.88216 0.13265 0.64795 0.0
N1107 N 0.91441 0.18134 0.91016 0.0
C1108 C 0.88533 0.14755 0.71196 0.0
C1109 C 0.90141 0.17263 0.84677 0.0
N1110 N 0.85156 0.12123 0.7784 0.0
N1111 N 0.91017 0.21472 0.78266 0.0
H1112 H 0.91254 0.17134 0.9614 0.0
H1113 H 0.92923 0.1969 0.90955 0.0
H1114 H 0.913 0.22731 0.73642 0.0
H1115 H 0.91108 0.22553 0.83285 0.0
H1116 H 0.84244 0.11446 0.72904 0.0
H1117 H 0.83966 0.11702 0.82539 0.0
H1118 H 0.87526 0.11238 0.64859 0.0
H1119 H 0.88825 0.13956 0.59532 0.0
C1120 C 0.69919 0.69999 0.84263 0.0
C1121 C 0.69943 0.67052 0.84433 0.0
C1122 C 0.66716 0.67226 0.73402 0.0
C1123 C 0.66559 0.70181 0.73516 0.0
N1124 N 0.678 0.74314 0.80098 0.0
N1125 N 0.68009 0.62896 0.79577 0.0
C1126 C 0.6808 0.71532 0.79301 0.0
C1127 C 0.6825 0.65685 0.79072 0.0
N1128 N 0.71811 0.71365 0.88546 0.0
N1129 N 0.65382 0.65865 0.67807 0.0
H1130 H 0.69101 0.61728 0.83513 0.0
H1131 H 0.6659 0.61759 0.76504 0.0
H1132 H 0.64013 0.66843 0.64118 0.0
H1133 H 0.65703 0.6379 0.66634 0.0
H1134 H 0.72186 0.73462 0.88079 0.0
H1135 H 0.73229 0.70368 0.92055 0.0
H1136 H 0.68528 0.75385 0.84715 0.0
H1137 H 0.66642 0.75547 0.76479 0.0
C1138 C 0.35168 0.69208 0.74159 0.0
C1139 C 0.35332 0.66262 0.7408 0.0
C1140 C 0.38812 0.6664 0.8459 0.0
C1141 C 0.38561 0.6958 0.84809 0.0
N1142 N 0.35879 0.73518 0.80831 0.0
N1143 N 0.37111 0.62194 0.80069 0.0
C1144 C 0.36575 0.70811 0.79835 0.0
C1145 C 0.37093 0.64994 0.79583 0.0
N1146 N 0.33652 0.70516 0.68734 0.0
N1147 N 0.40769 0.65411 0.89045 0.0
H1148 H 0.35963 0.60968 0.76447 0.0
H1149 H 0.38094 0.61091 0.84311 0.0
H1150 H 0.41996 0.66524 0.92749 0.0
H1151 H 0.41311 0.63337 0.88766 0.0
H1152 H 0.33743 0.72623 0.67754 0.0
H1153 H 0.32424 0.69477 0.64885 0.0
H1154 H 0.34244 0.74503 0.78054 0.0
H1155 H 0.3674 0.74713 0.85047 0.0
C1156 C 0.38706 0.37833 0.84102 0.0
C1157 C 0.35715 0.38147 0.84114 0.0
C1158 C 0.35705 0.35063 0.72821 0.0
C1159 C 0.38696 0.34915 0.72479 0.0
N1160 N 0.43018 0.36519 0.77518 0.0
N1161 N 0.31441 0.37256 0.77472 0.0
C1162 C 0.40178 0.36388 0.78096 0.0
C1163 C 0.34255 0.36839 0.78129 0.0
N1164 N 0.40174 0.38935 0.89875 0.0
N1165 N 0.34206 0.33336 0.68389 0.0
H1166 H 0.30242 0.38331 0.81369 0.0
H1167 H 0.30314 0.36706 0.72751 0.0
H1168 H 0.35132 0.31947 0.64681 0.0
H1169 H 0.32064 0.33053 0.68937 0.0
H1170 H 0.42266 0.38483 0.90915 0.0
H1171 H 0.39262 0.40228 0.93852 0.0
H1172 H 0.44247 0.37784 0.80806 0.0
H1173 H 0.44141 0.35515 0.7331 0.0
C1174 C 0.67857 0.3614 0.69151 0.0
C1175 C 0.70165 0.37916 0.7078 0.0
C1176 C 0.6887 0.37099 0.84218 0.0
C1177 C 0.67054 0.34838 0.82616 0.0
N1178 N 0.65462 0.3194 0.72448 0.0
N1179 N 0.732 0.3932 0.80931 0.0
C1180 C 0.66737 0.3428 0.74767 0.0
C1181 C 0.70768 0.3817 0.78613 0.0
N1182 N 0.66587 0.36293 0.62351 0.0
N1183 N 0.6872 0.38374 0.90989 0.0
H1184 H 0.74805 0.39878 0.77342 0.0
H1185 H 0.73777 0.39353 0.86545 0.0
H1186 H 0.67147 0.37979 0.94862 0.0
H1187 H 0.69868 0.40127 0.92197 0.0
H1188 H 0.64793 0.3519 0.61105 0.0
H1189 H 0.67035 0.37812 0.58437 0.0
H1190 H 0.65411 0.31364 0.66839 0.0
H1191 H 0.6477 0.30413 0.76035 0.0
C1192 C 0.40905 0.41355 0.23961 0.0
C1193 C 0.40584 0.3945 0.18105 0.0
C1194 C 0.39809 0.3578 0.26484 0.0
C1195 C 0.40075 0.37568 0.32732 0.0
N1196 N 0.41081 0.42126 0.37378 0.0
N1197 N 0.41519 0.34873 0.1403 0.0
C1198 C 0.40755 0.40383 0.3148 0.0
C1199 C 0.40891 0.36661 0.19642 0.0
N1200 N 0.41133 0.44075 0.22257 0.0
N1201 N 0.38278 0.33429 0.2672 0.0
H1202 H 0.4204 0.35588 0.08699 0.0
H1203 H 0.41726 0.32762 0.14957 0.0
H1204 H 0.36931 0.32939 0.31078 0.0
H1205 H 0.38015 0.3219 0.22027 0.0
H1206 H 0.41108 0.45646 0.26193 0.0
H1207 H 0.41352 0.4473 0.16732 0.0
H1208 H 0.41806 0.44125 0.36853 0.0
H1209 H 0.40613 0.4156 0.42858 0.0
C1210 C 0.69617 0.38576 0.24571 0.0
C1211 C 0.67811 0.38891 0.30872 0.0
C1212 C 0.63873 0.3948 0.22261 0.0
C1213 C 0.65781 0.39117 0.16323 0.0
N1214 N 0.70365 0.40003 0.1181 0.0
N1215 N 0.63164 0.39843 0.35681 0.0
C1216 C 0.6862 0.39438 0.17615 0.0
C1217 C 0.64913 0.39467 0.29717 0.0
N1218 N 0.72136 0.37233 0.24921 0.0
N1219 N 0.61091 0.3965 0.20709 0.0
H1220 H 0.63791 0.39487 0.41175 0.0
H1221 H 0.61098 0.40504 0.35209 0.0
H1222 H 0.60378 0.39783 0.15214 0.0
H1223 H 0.59518 0.39644 0.24734 0.0
H1224 H 0.73381 0.36913 0.20201 0.0
H1225 H 0.72808 0.36082 0.29476 0.0
H1226 H 0.72505 0.40284 0.12543 0.0
H1227 H 0.69574 0.40425 0.06494 0.0
C1228 C 0.68689 0.66272 0.2984 0.0
C1229 C 0.71096 0.67602 0.26955 0.0
C1230 C 0.73302 0.67351 0.39202 0.0
C1231 C 0.70717 0.66509 0.42051 0.0
N1232 N 0.66769 0.63669 0.40217 0.0
N1233 N 0.76123 0.6811 0.28212 0.0
C1234 C 0.68764 0.65326 0.37277 0.0
C1235 C 0.73559 0.67751 0.31408 0.0
N1236 N 0.66314 0.66054 0.25683 0.0
N1237 N 0.75395 0.67976 0.44031 0.0
H1238 H 0.76429 0.68169 0.22465 0.0
H1239 H 0.77982 0.68033 0.31205 0.0
H1240 H 0.75223 0.67543 0.49728 0.0
H1241 H 0.77224 0.68961 0.4244 0.0
H1242 H 0.64466 0.65241 0.27777 0.0
H1243 H 0.66111 0.66899 0.20353 0.0
H1244 H 0.65312 0.62641 0.3697 0.0
H1245 H 0.66776 0.63175 0.45904 0.0
C1246 C 0.40038 0.68314 0.37285 0.0
C1247 C 0.3879 0.65723 0.36618 0.0
C1248 C 0.39576 0.65792 0.23216 0.0
C1249 C 0.4032 0.68579 0.23791 0.0
N1250 N 0.39965 0.72715 0.31386 0.0
N1251 N 0.36253 0.62694 0.28314 0.0
C1252 C 0.40221 0.69929 0.3082 0.0
C1253 C 0.38276 0.64596 0.29431 0.0
N1254 N 0.40798 0.69335 0.44072 0.0
N1255 N 0.39822 0.6438 0.16651 0.0
H1256 H 0.34748 0.62281 0.32326 0.0
H1257 H 0.35744 0.61947 0.2304 0.0
H1258 H 0.40548 0.65254 0.11704 0.0
H1259 H 0.39459 0.62272 0.16331 0.0
H1260 H 0.41859 0.71187 0.44593 0.0
H1261 H 0.406 0.68223 0.49026 0.0
H1262 H 0.39718 0.73718 0.36496 0.0
H1263 H 0.3955 0.73968 0.26817 0.0
loop_
_geom_bond_atom_site_label_1
_geom_bond_atom_site_label_2
_geom_bond_distance
_geom_bond_site_symmetry_2
_ccdc_geom_bond_type
Co0 O3 1.970 1_556 S
Co0 N17 1.989 . S
Co0 O25 1.967 . S
Co0 O32 1.920 . S
Co1 O4 1.966 . S
Co1 N10 2.022 . S
Co1 N18 1.993 1_554 S
Co1 O26 1.941 . S
C2 O3 1.258 . S
C2 O4 1.263 . S
O3 Co0 1.970 1_554 S
O3 C2 1.258 . S
O4 Co1 1.966 . S
O4 C2 1.263 . S
C5 O6 1.235 . S
C5 O32 1.289 . S
O6 C5 1.235 . S
C7 C9 1.400 . S
C7 N10 1.351 . S
C7 C12 1.501 . S
C8 C9 1.387 . S
C8 N11 1.341 . S
C9 C7 1.400 . S
C9 C8 1.387 . S
N10 Co1 2.022 . S
N10 C7 1.351 . S
N10 N11 1.365 . S
N11 C8 1.341 . S
N11 N10 1.365 . S
N11 H31 0.862 . S
C12 C7 1.501 . S
C12 H13 0.961 . S
C12 H14 0.961 . S
C12 H15 0.960 . S
H13 C12 0.961 . S
H14 C12 0.961 . S
H15 C12 0.960 . S
C16 N17 1.342 . S
C16 C20 1.401 . S
C16 C21 1.499 . S
N17 Co0 1.989 . S
N17 C16 1.342 . S
N17 N18 1.388 . S
N18 Co1 1.993 1_556 S
N18 N17 1.388 . S
N18 C19 1.346 . S
C19 N18 1.346 . S
C19 C20 1.396 . S
C19 C29 1.510 . S
C20 C16 1.401 . S
C20 C19 1.396 . S
C21 C16 1.499 . S
C21 H22 0.959 . S
C21 H23 0.960 . S
C21 H24 0.961 . S
H22 C21 0.959 . S
H23 C21 0.960 . S
H24 C21 0.961 . S
O25 Co0 1.967 . S
O25 C33 1.258 1_556 S
O26 Co1 1.941 . S
O26 C33 1.266 . S
H27 C29 0.959 . S
H28 C29 0.961 . S
C29 C19 1.510 . S
C29 H27 0.959 . S
C29 H28 0.961 . S
C29 H30 0.960 1_556 S
H30 C29 0.960 1_554 S
H31 N11 0.862 . S
O32 Co0 1.920 . S
O32 C5 1.289 . S
C33 O25 1.258 1_554 S
C33 O26 1.266 . S
Co34 O37 1.970 1_556 S
Co34 N51 1.989 . S
Co34 O59 1.967 . S
Co34 O66 1.920 . S
Co35 O38 1.966 . S
Co35 N44 2.022 . S
Co35 N52 1.993 1_554 S
Co35 O60 1.941 . S
C36 O37 1.258 . S
C36 O38 1.263 . S
O37 Co34 1.970 1_554 S
O37 C36 1.258 . S
O38 Co35 1.966 . S
O38 C36 1.263 . S
C39 O40 1.235 . S
C39 O66 1.289 . S
O40 C39 1.235 . S
C41 C43 1.400 . S
C41 N44 1.351 . S
C41 C46 1.501 . S
C42 C43 1.387 . S
C42 N45 1.341 . S
C43 C41 1.400 . S
C43 C42 1.387 . S
N44 Co35 2.022 . S
N44 C41 1.351 . S
N44 N45 1.365 . S
N45 C42 1.341 . S
N45 N44 1.365 . S
N45 H65 0.862 . S
C46 C41 1.501 . S
C46 H47 0.961 . S
C46 H48 0.961 . S
C46 H49 0.960 . S
H47 C46 0.961 . S
H48 C46 0.961 . S
H49 C46 0.960 . S
C50 N51 1.342 . S
C50 C54 1.401 . S
C50 C55 1.499 . S
N51 Co34 1.989 . S
N51 C50 1.342 . S
N51 N52 1.388 . S
N52 Co35 1.993 1_556 S
N52 N51 1.388 . S
N52 C53 1.346 . S
C53 N52 1.346 . S
C53 C54 1.396 . S
C53 C63 1.510 . S
C54 C50 1.401 . S
C54 C53 1.396 . S
C55 C50 1.499 . S
C55 H56 0.959 . S
C55 H57 0.960 . S
C55 H58 0.961 . S
H56 C55 0.959 . S
H57 C55 0.960 . S
H58 C55 0.961 . S
O59 Co34 1.967 . S
O59 C67 1.258 1_556 S
O60 Co35 1.941 . S
O60 C67 1.266 . S
H61 C63 0.959 . S
H62 C63 0.961 . S
C63 C53 1.510 . S
C63 H61 0.959 . S
C63 H62 0.961 . S
C63 H64 0.960 1_556 S
H64 C63 0.960 1_554 S
H65 N45 0.862 . S
O66 Co34 1.920 . S
O66 C39 1.289 . S
C67 O59 1.258 1_554 S
C67 O60 1.266 . S
Co68 O71 1.970 1_556 S
Co68 N85 1.989 . S
Co68 O93 1.967 . S
Co68 O100 1.920 . S
Co69 O72 1.966 . S
Co69 N78 2.022 . S
Co69 N86 1.993 1_554 S
Co69 O94 1.941 . S
C70 O71 1.258 . S
C70 O72 1.263 . S
O71 Co68 1.970 1_554 S
O71 C70 1.258 . S
O72 Co69 1.966 . S
O72 C70 1.263 . S
C73 O74 1.235 . S
C73 O100 1.289 . S
O74 C73 1.235 . S
C75 C77 1.400 . S
C75 N78 1.351 . S
C75 C80 1.501 . S
C76 C77 1.387 . S
C76 N79 1.341 . S
C77 C75 1.400 . S
C77 C76 1.387 . S
N78 Co69 2.022 . S
N78 C75 1.351 . S
N78 N79 1.365 . S
N79 C76 1.341 . S
N79 N78 1.365 . S
N79 H99 0.862 . S
C80 C75 1.501 . S
C80 H81 0.961 . S
C80 H82 0.961 . S
C80 H83 0.960 . S
H81 C80 0.961 . S
H82 C80 0.961 . S
H83 C80 0.960 . S
C84 N85 1.342 . S
C84 C88 1.401 . S
C84 C89 1.499 . S
N85 Co68 1.989 . S
N85 C84 1.342 . S
N85 N86 1.388 . S
N86 Co69 1.993 1_556 S
N86 N85 1.388 . S
N86 C87 1.346 . S
C87 N86 1.346 . S
C87 C88 1.396 . S
C87 C97 1.510 . S
C88 C84 1.401 . S
C88 C87 1.396 . S
C89 C84 1.499 . S
C89 H90 0.959 . S
C89 H91 0.960 . S
C89 H92 0.961 . S
H90 C89 0.959 . S
H91 C89 0.960 . S
H92 C89 0.961 . S
O93 Co68 1.967 . S
O93 C101 1.258 1_556 S
O94 Co69 1.941 . S
O94 C101 1.266 . S
H95 C97 0.959 . S
H96 C97 0.961 . S
C97 C87 1.510 . S
C97 H95 0.959 . S
C97 H96 0.961 . S
C97 H98 0.960 1_556 S
H98 C97 0.960 1_554 S
H99 N79 0.862 . S
O100 Co68 1.920 . S
O100 C73 1.289 . S
C101 O93 1.258 1_554 S
C101 O94 1.266 . S
Co102 O105 1.970 1_556 S
Co102 N119 1.989 . S
Co102 O127 1.967 . S
Co102 O134 1.920 . S
Co103 O106 1.966 . S
Co103 N112 2.022 . S
Co103 N120 1.993 1_554 S
Co103 O128 1.941 . S
C104 O105 1.258 . S
C104 O106 1.263 . S
O105 Co102 1.970 1_554 S
O105 C104 1.258 . S
O106 Co103 1.966 . S
O106 C104 1.263 . S
C107 O108 1.235 . S
C107 O134 1.289 . S
O108 C107 1.235 . S
C109 C111 1.400 . S
C109 N112 1.351 . S
C109 C114 1.501 . S
C110 C111 1.387 . S
C110 N113 1.341 . S
C111 C109 1.400 . S
C111 C110 1.387 . S
N112 Co103 2.022 . S
N112 C109 1.351 . S
N112 N113 1.365 . S
N113 C110 1.341 . S
N113 N112 1.365 . S
N113 H133 0.862 . S
C114 C109 1.501 . S
C114 H115 0.961 . S
C114 H116 0.961 . S
C114 H117 0.960 . S
H115 C114 0.961 . S
H116 C114 0.961 . S
H117 C114 0.960 . S
C118 N119 1.342 . S
C118 C122 1.401 . S
C118 C123 1.499 . S
N119 Co102 1.989 . S
N119 C118 1.342 . S
N119 N120 1.388 . S
N120 Co103 1.993 1_556 S
N120 N119 1.388 . S
N120 C121 1.346 . S
C121 N120 1.346 . S
C121 C122 1.396 . S
C121 C131 1.510 . S
C122 C118 1.401 . S
C122 C121 1.396 . S
C123 C118 1.499 . S
C123 H124 0.959 . S
C123 H125 0.960 . S
C123 H126 0.961 . S
H124 C123 0.959 . S
H125 C123 0.960 . S
H126 C123 0.961 . S
O127 Co102 1.967 . S
O127 C135 1.258 1_556 S
O128 Co103 1.941 . S
O128 C135 1.266 . S
H129 C131 0.959 . S
H130 C131 0.961 . S
C131 C121 1.510 . S
C131 H129 0.959 . S
C131 H130 0.961 . S
C131 H132 0.960 1_556 S
H132 C131 0.960 1_554 S
H133 N113 0.862 . S
O134 Co102 1.920 . S
O134 C107 1.289 . S
C135 O127 1.258 1_554 S
C135 O128 1.266 . S
Co136 O139 1.970 . S
Co136 N153 1.989 . S
Co136 O161 1.967 . S
Co136 O168 1.920 . S
Co137 O140 1.966 . S
Co137 N146 2.022 . S
Co137 N154 1.993 . S
Co137 O162 1.941 . S
C138 O139 1.258 . S
C138 O140 1.263 . S
O139 Co136 1.970 . S
O139 C138 1.258 . S
O140 Co137 1.966 . S
O140 C138 1.263 . S
C141 O142 1.235 . S
C141 O168 1.289 . S
O142 C141 1.235 . S
C143 C145 1.400 . S
C143 N146 1.351 . S
C143 C148 1.501 . S
C144 C145 1.387 . S
C144 N147 1.341 . S
C145 C143 1.400 . S
C145 C144 1.387 . S
N146 Co137 2.022 . S
N146 C143 1.351 . S
N146 N147 1.365 . S
N147 C144 1.341 . S
N147 N146 1.365 . S
N147 H167 0.862 . S
C148 C143 1.501 . S
C148 H149 0.961 . S
C148 H150 0.961 . S
C148 H151 0.960 . S
H149 C148 0.961 . S
H150 C148 0.961 . S
H151 C148 0.960 . S
C152 N153 1.342 . S
C152 C156 1.401 . S
C152 C157 1.499 . S
N153 Co136 1.989 . S
N153 C152 1.342 . S
N153 N154 1.388 . S
N154 Co137 1.993 . S
N154 N153 1.388 . S
N154 C155 1.346 . S
C155 N154 1.346 . S
C155 C156 1.396 . S
C155 C165 1.510 . S
C156 C152 1.401 . S
C156 C155 1.396 . S
C157 C152 1.499 . S
C157 H158 0.959 . S
C157 H159 0.960 . S
C157 H160 0.961 . S
H158 C157 0.959 . S
H159 C157 0.960 . S
H160 C157 0.961 . S
O161 Co136 1.967 . S
O161 C169 1.258 . S
O162 Co137 1.941 . S
O162 C169 1.266 . S
H163 C165 0.959 . S
H164 C165 0.961 . S
C165 C155 1.510 . S
C165 H163 0.959 . S
C165 H164 0.961 . S
C165 H166 0.960 . S
H166 C165 0.960 . S
H167 N147 0.862 . S
O168 Co136 1.920 . S
O168 C141 1.289 . S
C169 O161 1.258 . S
C169 O162 1.266 . S
Co170 O173 1.970 . S
Co170 N187 1.989 . S
Co170 O195 1.967 . S
Co170 O202 1.920 . S
Co171 O174 1.966 . S
Co171 N180 2.022 . S
Co171 N188 1.993 . S
Co171 O196 1.941 . S
C172 O173 1.258 . S
C172 O174 1.263 . S
O173 Co170 1.970 . S
O173 C172 1.258 . S
O174 Co171 1.966 . S
O174 C172 1.263 . S
C175 O176 1.235 . S
C175 O202 1.289 . S
O176 C175 1.235 . S
C177 C179 1.400 . S
C177 N180 1.351 . S
C177 C182 1.501 . S
C178 C179 1.387 . S
C178 N181 1.341 . S
C179 C177 1.400 . S
C179 C178 1.387 . S
N180 Co171 2.022 . S
N180 C177 1.351 . S
N180 N181 1.365 . S
N181 C178 1.341 . S
N181 N180 1.365 . S
N181 H201 0.862 . S
C182 C177 1.501 . S
C182 H183 0.961 . S
C182 H184 0.961 . S
C182 H185 0.960 . S
H183 C182 0.961 . S
H184 C182 0.961 . S
H185 C182 0.960 . S
C186 N187 1.342 . S
C186 C190 1.401 . S
C186 C191 1.499 . S
N187 Co170 1.989 . S
N187 C186 1.342 . S
N187 N188 1.388 . S
N188 Co171 1.993 . S
N188 N187 1.388 . S
N188 C189 1.346 . S
C189 N188 1.346 . S
C189 C190 1.396 . S
C189 C199 1.510 . S
C190 C186 1.401 . S
C190 C189 1.396 . S
C191 C186 1.499 . S
C191 H192 0.959 . S
C191 H193 0.960 . S
C191 H194 0.961 . S
H192 C191 0.959 . S
H193 C191 0.960 . S
H194 C191 0.961 . S
O195 Co170 1.967 . S
O195 C203 1.258 . S
O196 Co171 1.941 . S
O196 C203 1.266 . S
H197 C199 0.959 . S
H198 C199 0.961 . S
C199 C189 1.510 . S
C199 H197 0.959 . S
C199 H198 0.961 . S
C199 H200 0.960 . S
H200 C199 0.960 . S
H201 N181 0.862 . S
O202 Co170 1.920 . S
O202 C175 1.289 . S
C203 O195 1.258 . S
C203 O196 1.266 . S
Co204 O207 1.970 . S
Co204 N221 1.989 . S
Co204 O229 1.967 . S
Co204 O236 1.920 . S
Co205 O208 1.966 . S
Co205 N214 2.022 . S
Co205 N222 1.993 . S
Co205 O230 1.941 . S
C206 O207 1.258 . S
C206 O208 1.263 . S
O207 Co204 1.970 . S
O207 C206 1.258 . S
O208 Co205 1.966 . S
O208 C206 1.263 . S
C209 O210 1.235 . S
C209 O236 1.289 . S
O210 C209 1.235 . S
C211 C213 1.400 . S
C211 N214 1.351 . S
C211 C216 1.501 . S
C212 C213 1.387 . S
C212 N215 1.341 . S
C213 C211 1.400 . S
C213 C212 1.387 . S
N214 Co205 2.022 . S
N214 C211 1.351 . S
N214 N215 1.365 . S
N215 C212 1.341 . S
N215 N214 1.365 . S
N215 H235 0.862 . S
C216 C211 1.501 . S
C216 H217 0.961 . S
C216 H218 0.961 . S
C216 H219 0.960 . S
H217 C216 0.961 . S
H218 C216 0.961 . S
H219 C216 0.960 . S
C220 N221 1.342 . S
C220 C224 1.401 . S
C220 C225 1.499 . S
N221 Co204 1.989 . S
N221 C220 1.342 . S
N221 N222 1.388 . S
N222 Co205 1.993 . S
N222 N221 1.388 . S
N222 C223 1.346 . S
C223 N222 1.346 . S
C223 C224 1.396 . S
C223 C233 1.510 . S
C224 C220 1.401 . S
C224 C223 1.396 . S
C225 C220 1.499 . S
C225 H226 0.959 . S
C225 H227 0.960 . S
C225 H228 0.961 . S
H226 C225 0.959 . S
H227 C225 0.960 . S
H228 C225 0.961 . S
O229 Co204 1.967 . S
O229 C237 1.258 . S
O230 Co205 1.941 . S
O230 C237 1.266 . S
H231 C233 0.959 . S
H232 C233 0.961 . S
C233 C223 1.510 . S
C233 H231 0.959 . S
C233 H232 0.961 . S
C233 H234 0.960 . S
H234 C233 0.960 . S
H235 N215 0.862 . S
O236 Co204 1.920 . S
O236 C209 1.289 . S
C237 O229 1.258 . S
C237 O230 1.266 . S
Co238 O241 1.970 . S
Co238 N255 1.989 . S
Co238 O263 1.967 . S
Co238 O270 1.920 . S
Co239 O242 1.966 . S
Co239 N248 2.022 . S
Co239 N256 1.993 . S
Co239 O264 1.941 . S
C240 O241 1.258 . S
C240 O242 1.263 . S
O241 Co238 1.970 . S
O241 C240 1.258 . S
O242 Co239 1.966 . S
O242 C240 1.263 . S
C243 O244 1.235 . S
C243 O270 1.289 . S
O244 C243 1.235 . S
C245 C247 1.400 . S
C245 N248 1.351 . S
C245 C250 1.501 . S
C246 C247 1.387 . S
C246 N249 1.341 . S
C247 C245 1.400 . S
C247 C246 1.387 . S
N248 Co239 2.022 . S
N248 C245 1.351 . S
N248 N249 1.365 . S
N249 C246 1.341 . S
N249 N248 1.365 . S
N249 H269 0.862 . S
C250 C245 1.501 . S
C250 H251 0.961 . S
C250 H252 0.961 . S
C250 H253 0.960 . S
H251 C250 0.961 . S
H252 C250 0.961 . S
H253 C250 0.960 . S
C254 N255 1.342 . S
C254 C258 1.401 . S
C254 C259 1.499 . S
N255 Co238 1.989 . S
N255 C254 1.342 . S
N255 N256 1.388 . S
N256 Co239 1.993 . S
N256 N255 1.388 . S
N256 C257 1.346 . S
C257 N256 1.346 . S
C257 C258 1.396 . S
C257 C267 1.510 . S
C258 C254 1.401 . S
C258 C257 1.396 . S
C259 C254 1.499 . S
C259 H260 0.959 . S
C259 H261 0.960 . S
C259 H262 0.961 . S
H260 C259 0.959 . S
H261 C259 0.960 . S
H262 C259 0.961 . S
O263 Co238 1.967 . S
O263 C271 1.258 . S
O264 Co239 1.941 . S
O264 C271 1.266 . S
H265 C267 0.959 . S
H266 C267 0.961 . S
C267 C257 1.510 . S
C267 H265 0.959 . S
C267 H266 0.961 . S
C267 H268 0.960 . S
H268 C267 0.960 . S
H269 N249 0.862 . S
O270 Co238 1.920 . S
O270 C243 1.289 . S
C271 O263 1.258 . S
C271 O264 1.266 . S
Co272 O275 1.970 . S
Co272 N289 1.989 . S
Co272 O297 1.967 . S
Co272 O304 1.920 . S
Co273 O276 1.966 . S
Co273 N282 2.022 . S
Co273 N290 1.993 . S
Co273 O298 1.941 . S
C274 O275 1.258 . S
C274 O276 1.263 . S
O275 Co272 1.970 . S
O275 C274 1.258 . S
O276 Co273 1.966 . S
O276 C274 1.263 . S
C277 O278 1.235 . S
C277 O304 1.289 . S
O278 C277 1.235 . S
C279 C281 1.400 . S
C279 N282 1.351 . S
C279 C284 1.501 . S
C280 C281 1.387 . S
C280 N283 1.341 . S
C281 C279 1.400 . S
C281 C280 1.387 . S
N282 Co273 2.022 . S
N282 C279 1.351 . S
N282 N283 1.365 . S
N283 C280 1.341 . S
N283 N282 1.365 . S
N283 H303 0.862 . S
C284 C279 1.501 . S
C284 H285 0.961 . S
C284 H286 0.961 . S
C284 H287 0.960 . S
H285 C284 0.961 . S
H286 C284 0.961 . S
H287 C284 0.960 . S
C288 N289 1.342 . S
C288 C292 1.401 . S
C288 C293 1.499 . S
N289 Co272 1.989 . S
N289 C288 1.342 . S
N289 N290 1.388 . S
N290 Co273 1.993 . S
N290 N289 1.388 . S
N290 C291 1.346 . S
C291 N290 1.346 . S
C291 C292 1.396 . S
C291 C301 1.510 . S
C292 C288 1.401 . S
C292 C291 1.396 . S
C293 C288 1.499 . S
C293 H294 0.959 . S
C293 H295 0.960 . S
C293 H296 0.961 . S
H294 C293 0.959 . S
H295 C293 0.960 . S
H296 C293 0.961 . S
O297 Co272 1.967 . S
O297 C305 1.258 . S
O298 Co273 1.941 . S
O298 C305 1.266 . S
H299 C301 0.959 . S
H300 C301 0.961 . S
C301 C291 1.510 . S
C301 H299 0.959 . S
C301 H300 0.961 . S
C301 H302 0.960 . S
H302 C301 0.960 . S
H303 N283 0.862 . S
O304 Co272 1.920 . S
O304 C277 1.289 . S
C305 O297 1.258 . S
C305 O298 1.266 . S
Co306 O309 1.970 . S
Co306 N323 1.989 . S
Co306 O331 1.967 . S
Co306 O338 1.920 . S
Co307 O310 1.966 . S
Co307 N316 2.022 . S
Co307 N324 1.993 . S
Co307 O332 1.941 . S
C308 O309 1.258 . S
C308 O310 1.263 . S
O309 Co306 1.970 . S
O309 C308 1.258 . S
O310 Co307 1.966 . S
O310 C308 1.263 . S
C311 O312 1.235 . S
C311 O338 1.289 . S
O312 C311 1.235 . S
C313 C315 1.400 . S
C313 N316 1.351 . S
C313 C318 1.501 . S
C314 C315 1.387 . S
C314 N317 1.341 . S
C315 C313 1.400 . S
C315 C314 1.387 . S
N316 Co307 2.022 . S
N316 C313 1.351 . S
N316 N317 1.365 . S
N317 C314 1.341 . S
N317 N316 1.365 . S
N317 H337 0.862 . S
C318 C313 1.501 . S
C318 H319 0.961 . S
C318 H320 0.961 . S
C318 H321 0.960 . S
H319 C318 0.961 . S
H320 C318 0.961 . S
H321 C318 0.960 . S
C322 N323 1.342 . S
C322 C326 1.401 . S
C322 C327 1.499 . S
N323 Co306 1.989 . S
N323 C322 1.342 . S
N323 N324 1.388 . S
N324 Co307 1.993 . S
N324 N323 1.388 . S
N324 C325 1.346 . S
C325 N324 1.346 . S
C325 C326 1.396 . S
C325 C335 1.510 . S
C326 C322 1.401 . S
C326 C325 1.396 . S
C327 C322 1.499 . S
C327 H328 0.959 . S
C327 H329 0.960 . S
C327 H330 0.961 . S
H328 C327 0.959 . S
H329 C327 0.960 . S
H330 C327 0.961 . S
O331 Co306 1.967 . S
O331 C339 1.258 . S
O332 Co307 1.941 . S
O332 C339 1.266 . S
H333 C335 0.959 . S
H334 C335 0.961 . S
C335 C325 1.510 . S
C335 H333 0.959 . S
C335 H334 0.961 . S
C335 H336 0.960 . S
H336 C335 0.960 . S
H337 N317 0.862 . S
O338 Co306 1.920 . S
O338 C311 1.289 . S
C339 O331 1.258 . S
C339 O332 1.266 . S
Co340 O343 1.970 . S
Co340 N357 1.989 . S
Co340 O365 1.967 . S
Co340 O372 1.920 . S
Co341 O344 1.966 . S
Co341 N350 2.022 . S
Co341 N358 1.993 . S
Co341 O366 1.941 . S
C342 O343 1.258 . S
C342 O344 1.263 . S
O343 Co340 1.970 . S
O343 C342 1.258 . S
O344 Co341 1.966 . S
O344 C342 1.263 . S
C345 O346 1.235 . S
C345 O372 1.289 . S
O346 C345 1.235 . S
C347 C349 1.400 . S
C347 N350 1.351 . S
C347 C352 1.501 . S
C348 C349 1.387 . S
C348 N351 1.341 . S
C349 C347 1.400 . S
C349 C348 1.387 . S
N350 Co341 2.022 . S
N350 C347 1.351 . S
N350 N351 1.365 . S
N351 C348 1.341 . S
N351 N350 1.365 . S
N351 H371 0.862 . S
C352 C347 1.501 . S
C352 H353 0.961 . S
C352 H354 0.961 . S
C352 H355 0.960 . S
H353 C352 0.961 . S
H354 C352 0.961 . S
H355 C352 0.960 . S
C356 N357 1.342 . S
C356 C360 1.401 . S
C356 C361 1.499 . S
N357 Co340 1.989 . S
N357 C356 1.342 . S
N357 N358 1.388 . S
N358 Co341 1.993 . S
N358 N357 1.388 . S
N358 C359 1.346 . S
C359 N358 1.346 . S
C359 C360 1.396 . S
C359 C369 1.510 . S
C360 C356 1.401 . S
C360 C359 1.396 . S
C361 C356 1.499 . S
C361 H362 0.959 . S
C361 H363 0.960 . S
C361 H364 0.961 . S
H362 C361 0.959 . S
H363 C361 0.960 . S
H364 C361 0.961 . S
O365 Co340 1.967 . S
O365 C373 1.258 . S
O366 Co341 1.941 . S
O366 C373 1.266 . S
H367 C369 0.959 . S
H368 C369 0.961 . S
C369 C359 1.510 . S
C369 H367 0.959 . S
C369 H368 0.961 . S
C369 H370 0.960 . S
H370 C369 0.960 . S
H371 N351 0.862 . S
O372 Co340 1.920 . S
O372 C345 1.289 . S
C373 O365 1.258 . S
C373 O366 1.266 . S
Co374 O377 1.970 . S
Co374 N391 1.989 . S
Co374 O399 1.967 . S
Co374 O406 1.920 . S
Co375 O378 1.966 . S
Co375 N384 2.022 . S
Co375 N392 1.993 . S
Co375 O400 1.941 . S
C376 O377 1.258 . S
C376 O378 1.263 . S
O377 Co374 1.970 . S
O377 C376 1.258 . S
O378 Co375 1.966 . S
O378 C376 1.263 . S
C379 O380 1.235 . S
C379 O406 1.289 . S
O380 C379 1.235 . S
C381 C383 1.400 . S
C381 N384 1.351 . S
C381 C386 1.501 . S
C382 C383 1.387 . S
C382 N385 1.341 . S
C383 C381 1.400 . S
C383 C382 1.387 . S
N384 Co375 2.022 . S
N384 C381 1.351 . S
N384 N385 1.365 . S
N385 C382 1.341 . S
N385 N384 1.365 . S
N385 H405 0.862 . S
C386 C381 1.501 . S
C386 H387 0.961 . S
C386 H388 0.961 . S
C386 H389 0.960 . S
H387 C386 0.961 . S
H388 C386 0.961 . S
H389 C386 0.960 . S
C390 N391 1.342 . S
C390 C394 1.401 . S
C390 C395 1.499 . S
N391 Co374 1.989 . S
N391 C390 1.342 . S
N391 N392 1.388 . S
N392 Co375 1.993 . S
N392 N391 1.388 . S
N392 C393 1.346 . S
C393 N392 1.346 . S
C393 C394 1.396 . S
C393 C403 1.510 . S
C394 C390 1.401 . S
C394 C393 1.396 . S
C395 C390 1.499 . S
C395 H396 0.959 . S
C395 H397 0.960 . S
C395 H398 0.961 . S
H396 C395 0.959 . S
H397 C395 0.960 . S
H398 C395 0.961 . S
O399 Co374 1.967 . S
O399 C407 1.258 . S
O400 Co375 1.941 . S
O400 C407 1.266 . S
H401 C403 0.959 . S
H402 C403 0.961 . S
C403 C393 1.510 . S
C403 H401 0.959 . S
C403 H402 0.961 . S
C403 H404 0.960 . S
H404 C403 0.960 . S
H405 N385 0.862 . S
O406 Co374 1.920 . S
O406 C379 1.289 . S
C407 O399 1.258 . S
C407 O400 1.266 . S
Co408 O411 1.970 1_554 S
Co408 N425 1.989 . S
Co408 O433 1.967 . S
Co408 O440 1.920 . S
Co409 O412 1.966 . S
Co409 N418 2.022 . S
Co409 N426 1.993 1_556 S
Co409 O434 1.941 . S
C410 O411 1.258 . S
C410 O412 1.263 . S
O411 Co408 1.970 1_556 S
O411 C410 1.258 . S
O412 Co409 1.966 . S
O412 C410 1.263 . S
C413 O414 1.235 . S
C413 O440 1.289 . S
O414 C413 1.235 . S
C415 C417 1.400 . S
C415 N418 1.351 . S
C415 C420 1.501 . S
C416 C417 1.387 . S
C416 N419 1.341 . S
C417 C415 1.400 . S
C417 C416 1.387 . S
N418 Co409 2.022 . S
N418 C415 1.351 . S
N418 N419 1.365 . S
N419 C416 1.341 . S
N419 N418 1.365 . S
N419 H439 0.862 . S
C420 C415 1.501 . S
C420 H421 0.961 . S
C420 H422 0.961 . S
C420 H423 0.960 . S
H421 C420 0.961 . S
H422 C420 0.961 . S
H423 C420 0.960 . S
C424 N425 1.342 . S
C424 C428 1.401 . S
C424 C429 1.499 . S
N425 Co408 1.989 . S
N425 C424 1.342 . S
N425 N426 1.388 . S
N426 Co409 1.993 1_554 S
N426 N425 1.388 . S
N426 C427 1.346 . S
C427 N426 1.346 . S
C427 C428 1.396 . S
C427 C437 1.510 . S
C428 C424 1.401 . S
C428 C427 1.396 . S
C429 C424 1.499 . S
C429 H430 0.959 . S
C429 H431 0.960 . S
C429 H432 0.961 . S
H430 C429 0.959 . S
H431 C429 0.960 . S
H432 C429 0.961 . S
O433 Co408 1.967 . S
O433 C441 1.258 1_554 S
O434 Co409 1.941 . S
O434 C441 1.266 . S
H435 C437 0.959 . S
H436 C437 0.961 . S
C437 C427 1.510 . S
C437 H435 0.959 . S
C437 H436 0.961 . S
C437 H438 0.960 1_554 S
H438 C437 0.960 1_556 S
H439 N419 0.862 . S
O440 Co408 1.920 . S
O440 C413 1.289 . S
C441 O433 1.258 1_556 S
C441 O434 1.266 . S
Co442 O445 1.970 1_554 S
Co442 N459 1.989 . S
Co442 O467 1.967 . S
Co442 O474 1.920 . S
Co443 O446 1.966 . S
Co443 N452 2.022 . S
Co443 N460 1.993 1_556 S
Co443 O468 1.941 . S
C444 O445 1.258 . S
C444 O446 1.263 . S
O445 Co442 1.970 1_556 S
O445 C444 1.258 . S
O446 Co443 1.966 . S
O446 C444 1.263 . S
C447 O448 1.235 . S
C447 O474 1.289 . S
O448 C447 1.235 . S
C449 C451 1.400 . S
C449 N452 1.351 . S
C449 C454 1.501 . S
C450 C451 1.387 . S
C450 N453 1.341 . S
C451 C449 1.400 . S
C451 C450 1.387 . S
N452 Co443 2.022 . S
N452 C449 1.351 . S
N452 N453 1.365 . S
N453 C450 1.341 . S
N453 N452 1.365 . S
N453 H473 0.862 . S
C454 C449 1.501 . S
C454 H455 0.961 . S
C454 H456 0.961 . S
C454 H457 0.960 . S
H455 C454 0.961 . S
H456 C454 0.961 . S
H457 C454 0.960 . S
C458 N459 1.342 . S
C458 C462 1.401 . S
C458 C463 1.499 . S
N459 Co442 1.989 . S
N459 C458 1.342 . S
N459 N460 1.388 . S
N460 Co443 1.993 1_554 S
N460 N459 1.388 . S
N460 C461 1.346 . S
C461 N460 1.346 . S
C461 C462 1.396 . S
C461 C471 1.510 . S
C462 C458 1.401 . S
C462 C461 1.396 . S
C463 C458 1.499 . S
C463 H464 0.959 . S
C463 H465 0.960 . S
C463 H466 0.961 . S
H464 C463 0.959 . S
H465 C463 0.960 . S
H466 C463 0.961 . S
O467 Co442 1.967 . S
O467 C475 1.258 1_554 S
O468 Co443 1.941 . S
O468 C475 1.266 . S
H469 C471 0.959 . S
H470 C471 0.961 . S
C471 C461 1.510 . S
C471 H469 0.959 . S
C471 H470 0.961 . S
C471 H472 0.960 1_554 S
H472 C471 0.960 1_556 S
H473 N453 0.862 . S
O474 Co442 1.920 . S
O474 C447 1.289 . S
C475 O467 1.258 1_556 S
C475 O468 1.266 . S
Co476 O479 1.970 1_554 S
Co476 N493 1.989 . S
Co476 O501 1.967 . S
Co476 O508 1.920 . S
Co477 O480 1.966 . S
Co477 N486 2.022 . S
Co477 N494 1.993 1_556 S
Co477 O502 1.941 . S
C478 O479 1.258 . S
C478 O480 1.263 . S
O479 Co476 1.970 1_556 S
O479 C478 1.258 . S
O480 Co477 1.966 . S
O480 C478 1.263 . S
C481 O482 1.235 . S
C481 O508 1.289 . S
O482 C481 1.235 . S
C483 C485 1.400 . S
C483 N486 1.351 . S
C483 C488 1.501 . S
C484 C485 1.387 . S
C484 N487 1.341 . S
C485 C483 1.400 . S
C485 C484 1.387 . S
N486 Co477 2.022 . S
N486 C483 1.351 . S
N486 N487 1.365 . S
N487 C484 1.341 . S
N487 N486 1.365 . S
N487 H507 0.862 . S
C488 C483 1.501 . S
C488 H489 0.961 . S
C488 H490 0.961 . S
C488 H491 0.960 . S
H489 C488 0.961 . S
H490 C488 0.961 . S
H491 C488 0.960 . S
C492 N493 1.342 . S
C492 C496 1.401 . S
C492 C497 1.499 . S
N493 Co476 1.989 . S
N493 C492 1.342 . S
N493 N494 1.388 . S
N494 Co477 1.993 1_554 S
N494 N493 1.388 . S
N494 C495 1.346 . S
C495 N494 1.346 . S
C495 C496 1.396 . S
C495 C505 1.510 . S
C496 C492 1.401 . S
C496 C495 1.396 . S
C497 C492 1.499 . S
C497 H498 0.959 . S
C497 H499 0.960 . S
C497 H500 0.961 . S
H498 C497 0.959 . S
H499 C497 0.960 . S
H500 C497 0.961 . S
O501 Co476 1.967 . S
O501 C509 1.258 1_554 S
O502 Co477 1.941 . S
O502 C509 1.266 . S
H503 C505 0.959 . S
H504 C505 0.961 . S
C505 C495 1.510 . S
C505 H503 0.959 . S
C505 H504 0.961 . S
C505 H506 0.960 1_554 S
H506 C505 0.960 1_556 S
H507 N487 0.862 . S
O508 Co476 1.920 . S
O508 C481 1.289 . S
C509 O501 1.258 1_556 S
C509 O502 1.266 . S
Co510 O513 1.970 1_554 S
Co510 N527 1.989 . S
Co510 O535 1.967 . S
Co510 O542 1.920 . S
Co511 O514 1.966 . S
Co511 N520 2.022 . S
Co511 N528 1.993 1_556 S
Co511 O536 1.941 . S
C512 O513 1.258 . S
C512 O514 1.263 . S
O513 Co510 1.970 1_556 S
O513 C512 1.258 . S
O514 Co511 1.966 . S
O514 C512 1.263 . S
C515 O516 1.235 . S
C515 O542 1.289 . S
O516 C515 1.235 . S
C517 C519 1.400 . S
C517 N520 1.351 . S
C517 C522 1.501 . S
C518 C519 1.387 . S
C518 N521 1.341 . S
C519 C517 1.400 . S
C519 C518 1.387 . S
N520 Co511 2.022 . S
N520 C517 1.351 . S
N520 N521 1.365 . S
N521 C518 1.341 . S
N521 N520 1.365 . S
N521 H541 0.862 . S
C522 C517 1.501 . S
C522 H523 0.961 . S
C522 H524 0.961 . S
C522 H525 0.960 . S
H523 C522 0.961 . S
H524 C522 0.961 . S
H525 C522 0.960 . S
C526 N527 1.342 . S
C526 C530 1.401 . S
C526 C531 1.499 . S
N527 Co510 1.989 . S
N527 C526 1.342 . S
N527 N528 1.388 . S
N528 Co511 1.993 1_554 S
N528 N527 1.388 . S
N528 C529 1.346 . S
C529 N528 1.346 . S
C529 C530 1.396 . S
C529 C539 1.510 . S
C530 C526 1.401 . S
C530 C529 1.396 . S
C531 C526 1.499 . S
C531 H532 0.959 . S
C531 H533 0.960 . S
C531 H534 0.961 . S
H532 C531 0.959 . S
H533 C531 0.960 . S
H534 C531 0.961 . S
O535 Co510 1.967 . S
O535 C543 1.258 1_554 S
O536 Co511 1.941 . S
O536 C543 1.266 . S
H537 C539 0.959 . S
H538 C539 0.961 . S
C539 C529 1.510 . S
C539 H537 0.959 . S
C539 H538 0.961 . S
C539 H540 0.960 1_554 S
H540 C539 0.960 1_556 S
H541 N521 0.862 . S
O542 Co510 1.920 . S
O542 C515 1.289 . S
C543 O535 1.258 1_556 S
C543 O536 1.266 . S
C544 C545 1.363 1_556 S
C544 C550 1.379 . S
C544 N552 1.356 . S
C545 C544 1.363 1_554 S
C545 C551 1.363 . S
C546 C547 1.363 1_554 S
C546 C551 1.379 . S
C546 N553 1.356 . S
C547 C546 1.363 1_556 S
C547 C550 1.363 . S
N548 C550 1.356 . S
N548 H560 0.984 . S
N548 H561 0.985 . S
N549 C551 1.356 . S
N549 H554 0.984 . S
N549 H555 0.985 . S
C550 C544 1.379 . S
C550 C547 1.363 . S
C550 N548 1.356 . S
C551 C545 1.363 . S
C551 C546 1.379 . S
C551 N549 1.356 . S
N552 C544 1.356 . S
N552 H558 0.984 . S
N552 H559 0.984 . S
N553 C546 1.356 . S
N553 H556 0.984 . S
N553 H557 0.985 . S
H554 N549 0.984 . S
H555 N549 0.985 . S
H556 N553 0.984 . S
H557 N553 0.985 . S
H558 N552 0.984 . S
H559 N552 0.984 . S
H560 N548 0.984 . S
H561 N548 0.985 . S
C562 C563 1.363 . S
C562 C568 1.379 . S
C562 N570 1.356 . S
C563 C562 1.363 . S
C563 C569 1.363 1_556 S
C564 C565 1.363 . S
C564 C569 1.379 . S
C564 N571 1.356 . S
C565 C564 1.363 . S
C565 C568 1.363 1_554 S
N566 C568 1.356 . S
N566 H578 0.984 . S
N566 H579 0.985 . S
N567 C569 1.356 . S
N567 H572 0.984 . S
N567 H573 0.985 . S
C568 C562 1.379 . S
C568 C565 1.363 1_556 S
C568 N566 1.356 . S
C569 C563 1.363 1_554 S
C569 C564 1.379 . S
C569 N567 1.356 . S
N570 C562 1.356 . S
N570 H576 0.984 . S
N570 H577 0.984 . S
N571 C564 1.356 . S
N571 H574 0.984 . S
N571 H575 0.985 . S
H572 N567 0.984 . S
H573 N567 0.985 . S
H574 N571 0.984 . S
H575 N571 0.985 . S
H576 N570 0.984 . S
H577 N570 0.984 . S
H578 N566 0.984 . S
H579 N566 0.985 . S
C580 C581 1.363 . S
C580 C586 1.379 . S
C580 N588 1.356 . S
C581 C580 1.363 . S
C581 C587 1.363 1_556 S
C582 C583 1.363 . S
C582 C587 1.379 . S
C582 N589 1.356 . S
C583 C582 1.363 . S
C583 C586 1.363 1_554 S
N584 C586 1.356 . S
N584 H596 0.984 . S
N584 H597 0.985 . S
N585 C587 1.356 . S
N585 H590 0.984 . S
N585 H591 0.985 . S
C586 C580 1.379 . S
C586 C583 1.363 1_556 S
C586 N584 1.356 . S
C587 C581 1.363 1_554 S
C587 C582 1.379 . S
C587 N585 1.356 . S
N588 C580 1.356 . S
N588 H594 0.984 . S
N588 H595 0.984 . S
N589 C582 1.356 . S
N589 H592 0.984 . S
N589 H593 0.985 . S
H590 N585 0.984 . S
H591 N585 0.985 . S
H592 N589 0.984 . S
H593 N589 0.985 . S
H594 N588 0.984 . S
H595 N588 0.984 . S
H596 N584 0.984 . S
H597 N584 0.985 . S
C598 C599 1.363 . S
C598 C604 1.379 . S
C598 N606 1.356 . S
C599 C598 1.363 . S
C599 C605 1.363 1_556 S
C600 C601 1.363 . S
C600 C605 1.379 . S
C600 N607 1.356 . S
C601 C600 1.363 . S
C601 C604 1.363 1_554 S
N602 C604 1.356 . S
N602 H614 0.984 . S
N602 H615 0.985 . S
N603 C605 1.356 . S
N603 H608 0.984 . S
N603 H609 0.985 . S
C604 C598 1.379 . S
C604 C601 1.363 1_556 S
C604 N602 1.356 . S
C605 C599 1.363 1_554 S
C605 C600 1.379 . S
C605 N603 1.356 . S
N606 C598 1.356 . S
N606 H612 0.984 . S
N606 H613 0.984 . S
N607 C600 1.356 . S
N607 H610 0.984 . S
N607 H611 0.985 . S
H608 N603 0.984 . S
H609 N603 0.985 . S
H610 N607 0.984 . S
H611 N607 0.985 . S
H612 N606 0.984 . S
H613 N606 0.984 . S
H614 N602 0.984 . S
H615 N602 0.985 . S
C616 C617 1.363 . S
C616 C622 1.379 . S
C616 N624 1.356 . S
C617 C616 1.363 . S
C617 C623 1.363 . S
C618 C619 1.363 . S
C618 C623 1.379 . S
C618 N625 1.356 . S
C619 C618 1.363 . S
C619 C622 1.363 . S
N620 C622 1.356 . S
N620 H632 0.984 . S
N620 H633 0.985 . S
N621 C623 1.356 . S
N621 H626 0.984 . S
N621 H627 0.985 . S
C622 C616 1.379 . S
C622 C619 1.363 . S
C622 N620 1.356 . S
C623 C617 1.363 . S
C623 C618 1.379 . S
C623 N621 1.356 . S
N624 C616 1.356 . S
N624 H630 0.984 . S
N624 H631 0.984 . S
N625 C618 1.356 . S
N625 H628 0.984 . S
N625 H629 0.985 . S
H626 N621 0.984 . S
H627 N621 0.985 . S
H628 N625 0.984 . S
H629 N625 0.985 . S
H630 N624 0.984 . S
H631 N624 0.984 . S
H632 N620 0.984 . S
H633 N620 0.985 . S
C634 C635 1.363 . S
C634 C640 1.379 . S
C634 N642 1.356 . S
C635 C634 1.363 . S
C635 C641 1.363 . S
C636 C637 1.363 . S
C636 C641 1.379 . S
C636 N643 1.356 . S
C637 C636 1.363 . S
C637 C640 1.363 . S
N638 C640 1.356 . S
N638 H650 0.984 . S
N638 H651 0.985 . S
N639 C641 1.356 . S
N639 H644 0.984 . S
N639 H645 0.985 . S
C640 C634 1.379 . S
C640 C637 1.363 . S
C640 N638 1.356 . S
C641 C635 1.363 . S
C641 C636 1.379 . S
C641 N639 1.356 . S
N642 C634 1.356 . S
N642 H648 0.984 . S
N642 H649 0.984 . S
N643 C636 1.356 . S
N643 H646 0.984 . S
N643 H647 0.985 . S
H644 N639 0.984 . S
H645 N639 0.985 . S
H646 N643 0.984 . S
H647 N643 0.985 . S
H648 N642 0.984 . S
H649 N642 0.984 . S
H650 N638 0.984 . S
H651 N638 0.985 . S
C652 C653 1.363 . S
C652 C658 1.379 . S
C652 N660 1.356 . S
C653 C652 1.363 . S
C653 C659 1.363 . S
C654 C655 1.363 . S
C654 C659 1.379 . S
C654 N661 1.356 . S
C655 C654 1.363 . S
C655 C658 1.363 . S
N656 C658 1.356 . S
N656 H668 0.984 . S
N656 H669 0.985 . S
N657 C659 1.356 . S
N657 H662 0.984 . S
N657 H663 0.985 . S
C658 C652 1.379 . S
C658 C655 1.363 . S
C658 N656 1.356 . S
C659 C653 1.363 . S
C659 C654 1.379 . S
C659 N657 1.356 . S
N660 C652 1.356 . S
N660 H666 0.984 . S
N660 H667 0.984 . S
N661 C654 1.356 . S
N661 H664 0.984 . S
N661 H665 0.985 . S
H662 N657 0.984 . S
H663 N657 0.985 . S
H664 N661 0.984 . S
H665 N661 0.985 . S
H666 N660 0.984 . S
H667 N660 0.984 . S
H668 N656 0.984 . S
H669 N656 0.985 . S
C670 C671 1.363 . S
C670 C676 1.379 . S
C670 N678 1.356 . S
C671 C670 1.363 . S
C671 C677 1.363 . S
C672 C673 1.363 . S
C672 C677 1.379 . S
C672 N679 1.356 . S
C673 C672 1.363 . S
C673 C676 1.363 . S
N674 C676 1.356 . S
N674 H686 0.984 . S
N674 H687 0.985 . S
N675 C677 1.356 . S
N675 H680 0.984 . S
N675 H681 0.985 . S
C676 C670 1.379 . S
C676 C673 1.363 . S
C676 N674 1.356 . S
C677 C671 1.363 . S
C677 C672 1.379 . S
C677 N675 1.356 . S
N678 C670 1.356 . S
N678 H684 0.984 . S
N678 H685 0.984 . S
N679 C672 1.356 . S
N679 H682 0.984 . S
N679 H683 0.985 . S
H680 N675 0.984 . S
H681 N675 0.985 . S
H682 N679 0.984 . S
H683 N679 0.985 . S
H684 N678 0.984 . S
H685 N678 0.984 . S
H686 N674 0.984 . S
H687 N674 0.985 . S
C688 C689 1.363 . S
C688 C694 1.379 1_655 S
C688 N696 1.356 . S
C689 C688 1.363 . S
C689 C695 1.363 . S
C690 C691 1.363 . S
C690 C695 1.379 1_455 S
C690 N697 1.356 . S
C691 C690 1.363 . S
C691 C694 1.363 . S
N692 C694 1.356 . S
N692 H704 0.984 . S
N692 H705 0.985 . S
N693 C695 1.356 . S
N693 H698 0.984 . S
N693 H699 0.985 . S
C694 C688 1.379 1_455 S
C694 C691 1.363 . S
C694 N692 1.356 . S
C695 C689 1.363 . S
C695 C690 1.379 1_655 S
C695 N693 1.356 . S
N696 C688 1.356 . S
N696 H702 0.984 . S
N696 H703 0.984 . S
N697 C690 1.356 . S
N697 H700 0.984 . S
N697 H701 0.985 . S
H698 N693 0.984 . S
H699 N693 0.985 . S
H700 N697 0.984 . S
H701 N697 0.985 . S
H702 N696 0.984 . S
H703 N696 0.984 . S
H704 N692 0.984 . S
H705 N692 0.985 . S
C706 C707 1.363 . S
C706 C712 1.379 1_565 S
C706 N714 1.356 . S
C707 C706 1.363 . S
C707 C713 1.363 . S
C708 C709 1.363 . S
C708 C713 1.379 1_545 S
C708 N715 1.356 . S
C709 C708 1.363 . S
C709 C712 1.363 . S
N710 C712 1.356 . S
N710 H722 0.984 . S
N710 H723 0.985 . S
N711 C713 1.356 . S
N711 H716 0.984 . S
N711 H717 0.985 . S
C712 C706 1.379 1_545 S
C712 C709 1.363 . S
C712 N710 1.356 . S
C713 C707 1.363 . S
C713 C708 1.379 1_565 S
C713 N711 1.356 . S
N714 C706 1.356 . S
N714 H720 0.984 . S
N714 H721 0.984 . S
N715 C708 1.356 . S
N715 H718 0.984 . S
N715 H719 0.985 . S
H716 N711 0.984 . S
H717 N711 0.985 . S
H718 N715 0.984 . S
H719 N715 0.985 . S
H720 N714 0.984 . S
H721 N714 0.984 . S
H722 N710 0.984 . S
H723 N710 0.985 . S
C724 C725 1.363 . S
C724 C730 1.379 1_455 S
C724 N732 1.356 . S
C725 C724 1.363 . S
C725 C731 1.363 . S
C726 C727 1.363 . S
C726 C731 1.379 1_655 S
C726 N733 1.356 . S
C727 C726 1.363 . S
C727 C730 1.363 . S
N728 C730 1.356 . S
N728 H740 0.984 . S
N728 H741 0.985 . S
N729 C731 1.356 . S
N729 H734 0.984 . S
N729 H735 0.985 . S
C730 C724 1.379 1_655 S
C730 C727 1.363 . S
C730 N728 1.356 . S
C731 C725 1.363 . S
C731 C726 1.379 1_455 S
C731 N729 1.356 . S
N732 C724 1.356 . S
N732 H738 0.984 . S
N732 H739 0.984 . S
N733 C726 1.356 . S
N733 H736 0.984 . S
N733 H737 0.985 . S
H734 N729 0.984 . S
H735 N729 0.985 . S
H736 N733 0.984 . S
H737 N733 0.985 . S
H738 N732 0.984 . S
H739 N732 0.984 . S
H740 N728 0.984 . S
H741 N728 0.985 . S
C742 C743 1.363 . S
C742 C748 1.379 1_545 S
C742 N750 1.356 . S
C743 C742 1.363 . S
C743 C749 1.363 . S
C744 C745 1.363 . S
C744 C749 1.379 1_565 S
C744 N751 1.356 . S
C745 C744 1.363 . S
C745 C748 1.363 . S
N746 C748 1.356 . S
N746 H758 0.984 . S
N746 H759 0.985 . S
N747 C749 1.356 . S
N747 H752 0.984 . S
N747 H753 0.985 . S
C748 C742 1.379 1_565 S
C748 C745 1.363 . S
C748 N746 1.356 . S
C749 C743 1.363 . S
C749 C744 1.379 1_545 S
C749 N747 1.356 . S
N750 C742 1.356 . S
N750 H756 0.984 . S
N750 H757 0.984 . S
N751 C744 1.356 . S
N751 H754 0.984 . S
N751 H755 0.985 . S
H752 N747 0.984 . S
H753 N747 0.985 . S
H754 N751 0.984 . S
H755 N751 0.985 . S
H756 N750 0.984 . S
H757 N750 0.984 . S
H758 N746 0.984 . S
H759 N746 0.985 . S
C760 C761 1.363 . S
C760 C766 1.379 1_455 S
C760 N768 1.356 . S
C761 C760 1.363 . S
C761 C767 1.363 . S
C762 C763 1.363 . S
C762 C767 1.379 1_655 S
C762 N769 1.356 . S
C763 C762 1.363 . S
C763 C766 1.363 . S
N764 C766 1.356 . S
N764 H776 0.984 . S
N764 H777 0.985 . S
N765 C767 1.356 . S
N765 H770 0.984 . S
N765 H771 0.985 . S
C766 C760 1.379 1_655 S
C766 C763 1.363 . S
C766 N764 1.356 . S
C767 C761 1.363 . S
C767 C762 1.379 1_455 S
C767 N765 1.356 . S
N768 C760 1.356 . S
N768 H774 0.984 . S
N768 H775 0.984 . S
N769 C762 1.356 . S
N769 H772 0.984 . S
N769 H773 0.985 . S
H770 N765 0.984 . S
H771 N765 0.985 . S
H772 N769 0.984 . S
H773 N769 0.985 . S
H774 N768 0.984 . S
H775 N768 0.984 . S
H776 N764 0.984 . S
H777 N764 0.985 . S
C778 C779 1.363 . S
C778 C784 1.379 . S
C778 N786 1.356 . S
C779 C778 1.363 . S
C779 C785 1.363 1_565 S
C780 C781 1.363 . S
C780 C785 1.379 . S
C780 N787 1.356 . S
C781 C780 1.363 . S
C781 C784 1.363 1_545 S
N782 C784 1.353 1_545 S
N782 H794 0.968 1_545 S
N782 H795 1.005 . S
N783 C785 1.353 1_565 S
N783 H788 1.005 . S
N783 H789 0.968 1_565 S
C784 C778 1.379 . S
C784 C781 1.363 1_565 S
C784 N782 1.353 1_565 S
C785 C779 1.363 1_545 S
C785 C780 1.379 . S
C785 N783 1.353 1_545 S
N786 C778 1.356 . S
N786 H792 0.984 . S
N786 H793 0.984 . S
N787 C780 1.356 . S
N787 H790 0.984 . S
N787 H791 0.985 . S
H788 N783 1.005 . S
H789 N783 0.968 1_545 S
H790 N787 0.984 . S
H791 N787 0.985 . S
H792 N786 0.984 . S
H793 N786 0.984 . S
H794 N782 0.968 1_565 S
H795 N782 1.005 . S
C796 C797 1.363 . S
C796 C802 1.379 1_655 S
C796 N804 1.356 . S
C797 C796 1.363 . S
C797 C803 1.363 . S
C798 C799 1.363 . S
C798 C803 1.379 1_455 S
C798 N805 1.356 . S
C799 C798 1.363 . S
C799 C802 1.363 . S
N800 C802 1.356 . S
N800 H812 0.984 . S
N800 H813 0.985 . S
N801 C803 1.356 . S
N801 H806 0.984 . S
N801 H807 0.985 . S
C802 C796 1.379 1_455 S
C802 C799 1.363 . S
C802 N800 1.356 . S
C803 C797 1.363 . S
C803 C798 1.379 1_655 S
C803 N801 1.356 . S
N804 C796 1.356 . S
N804 H810 0.984 . S
N804 H811 0.984 . S
N805 C798 1.356 . S
N805 H808 0.984 . S
N805 H809 0.985 . S
H806 N801 0.984 . S
H807 N801 0.985 . S
H808 N805 0.984 . S
H809 N805 0.985 . S
H810 N804 0.984 . S
H811 N804 0.984 . S
H812 N800 0.984 . S
H813 N800 0.985 . S
C814 C815 1.363 . S
C814 C820 1.379 . S
C814 N822 1.356 . S
C815 C814 1.363 . S
C815 C821 1.363 1_545 S
C816 C817 1.363 . S
C816 C821 1.379 . S
C816 N823 1.356 . S
C817 C816 1.363 . S
C817 C820 1.363 1_565 S
N818 C820 1.353 1_565 S
N818 H830 0.968 1_565 S
N818 H831 1.005 . S
N819 C821 1.353 1_545 S
N819 H824 1.005 . S
N819 H825 0.968 1_545 S
C820 C814 1.379 . S
C820 C817 1.363 1_545 S
C820 N818 1.353 1_545 S
C821 C815 1.363 1_565 S
C821 C816 1.379 . S
C821 N819 1.353 1_565 S
N822 C814 1.356 . S
N822 H828 0.984 . S
N822 H829 0.984 . S
N823 C816 1.356 . S
N823 H826 0.984 . S
N823 H827 0.985 . S
H824 N819 1.005 . S
H825 N819 0.968 1_565 S
H826 N823 0.984 . S
H827 N823 0.985 . S
H828 N822 0.984 . S
H829 N822 0.984 . S
H830 N818 0.968 1_545 S
H831 N818 1.005 . S
C832 C833 1.363 . S
C832 C838 1.379 . S
C832 N840 1.356 . S
C833 C832 1.363 . S
C833 C839 1.363 . S
C834 C835 1.363 . S
C834 C839 1.379 . S
C834 N841 1.356 . S
C835 C834 1.363 . S
C835 C838 1.363 . S
N836 C838 1.356 . S
N836 H848 0.984 . S
N836 H849 0.985 . S
N837 C839 1.356 . S
N837 H842 0.984 . S
N837 H843 0.985 . S
C838 C832 1.379 . S
C838 C835 1.363 . S
C838 N836 1.356 . S
C839 C833 1.363 . S
C839 C834 1.379 . S
C839 N837 1.356 . S
N840 C832 1.356 . S
N840 H846 0.984 . S
N840 H847 0.984 . S
N841 C834 1.356 . S
N841 H844 0.984 . S
N841 H845 0.985 . S
H842 N837 0.984 . S
H843 N837 0.985 . S
H844 N841 0.984 . S
H845 N841 0.985 . S
H846 N840 0.984 . S
H847 N840 0.984 . S
H848 N836 0.984 . S
H849 N836 0.985 . S
C850 C851 1.363 . S
C850 C856 1.379 . S
C850 N858 1.356 . S
C851 C850 1.363 . S
C851 C857 1.363 . S
C852 C853 1.363 . S
C852 C857 1.379 . S
C852 N859 1.356 . S
C853 C852 1.363 . S
C853 C856 1.363 . S
N854 C856 1.356 . S
N854 H866 0.984 . S
N854 H867 0.985 . S
N855 C857 1.356 . S
N855 H860 0.984 . S
N855 H861 0.985 . S
C856 C850 1.379 . S
C856 C853 1.363 . S
C856 N854 1.356 . S
C857 C851 1.363 . S
C857 C852 1.379 . S
C857 N855 1.356 . S
N858 C850 1.356 . S
N858 H864 0.984 . S
N858 H865 0.984 . S
N859 C852 1.356 . S
N859 H862 0.984 . S
N859 H863 0.985 . S
H860 N855 0.984 . S
H861 N855 0.985 . S
H862 N859 0.984 . S
H863 N859 0.985 . S
H864 N858 0.984 . S
H865 N858 0.984 . S
H866 N854 0.984 . S
H867 N854 0.985 . S
C868 C869 1.363 . S
C868 C874 1.379 . S
C868 N876 1.356 . S
C869 C868 1.363 . S
C869 C875 1.363 . S
C870 C871 1.363 . S
C870 C875 1.379 . S
C870 N877 1.356 . S
C871 C870 1.363 . S
C871 C874 1.363 . S
N872 C874 1.356 . S
N872 H884 0.984 . S
N872 H885 0.985 . S
N873 C875 1.356 . S
N873 H878 0.984 . S
N873 H879 0.985 . S
C874 C868 1.379 . S
C874 C871 1.363 . S
C874 N872 1.356 . S
C875 C869 1.363 . S
C875 C870 1.379 . S
C875 N873 1.356 . S
N876 C868 1.356 . S
N876 H882 0.984 . S
N876 H883 0.984 . S
N877 C870 1.356 . S
N877 H880 0.984 . S
N877 H881 0.985 . S
H878 N873 0.984 . S
H879 N873 0.985 . S
H880 N877 0.984 . S
H881 N877 0.985 . S
H882 N876 0.984 . S
H883 N876 0.984 . S
H884 N872 0.984 . S
H885 N872 0.985 . S
C886 C887 1.363 . S
C886 C892 1.379 . S
C886 N894 1.356 . S
C887 C886 1.363 . S
C887 C893 1.363 . S
C888 C889 1.363 . S
C888 C893 1.379 . S
C888 N895 1.356 . S
C889 C888 1.363 . S
C889 C892 1.363 . S
N890 C892 1.356 . S
N890 H902 0.984 . S
N890 H903 0.985 . S
N891 C893 1.356 . S
N891 H896 0.984 . S
N891 H897 0.985 . S
C892 C886 1.379 . S
C892 C889 1.363 . S
C892 N890 1.356 . S
C893 C887 1.363 . S
C893 C888 1.379 . S
C893 N891 1.356 . S
N894 C886 1.356 . S
N894 H900 0.984 . S
N894 H901 0.984 . S
N895 C888 1.356 . S
N895 H898 0.984 . S
N895 H899 0.985 . S
H896 N891 0.984 . S
H897 N891 0.985 . S
H898 N895 0.984 . S
H899 N895 0.985 . S
H900 N894 0.984 . S
H901 N894 0.984 . S
H902 N890 0.984 . S
H903 N890 0.985 . S
C904 C905 1.363 . S
C904 C910 1.379 . S
C904 N912 1.356 . S
C905 C904 1.363 . S
C905 C911 1.363 . S
C906 C907 1.363 . S
C906 C911 1.379 . S
C906 N913 1.356 . S
C907 C906 1.363 . S
C907 C910 1.363 . S
N908 C910 1.356 . S
N908 H920 0.984 . S
N908 H921 0.985 . S
N909 C911 1.356 . S
N909 H914 0.984 . S
N909 H915 0.985 . S
C910 C904 1.379 . S
C910 C907 1.363 . S
C910 N908 1.356 . S
C911 C905 1.363 . S
C911 C906 1.379 . S
C911 N909 1.356 . S
N912 C904 1.356 . S
N912 H918 0.984 . S
N912 H919 0.984 . S
N913 C906 1.356 . S
N913 H916 0.984 . S
N913 H917 0.985 . S
H914 N909 0.984 . S
H915 N909 0.985 . S
H916 N913 0.984 . S
H917 N913 0.985 . S
H918 N912 0.984 . S
H919 N912 0.984 . S
H920 N908 0.984 . S
H921 N908 0.985 . S
C922 C923 1.363 . S
C922 C928 1.379 . S
C922 N930 1.356 . S
C923 C922 1.363 . S
C923 C929 1.363 . S
C924 C925 1.363 . S
C924 C929 1.379 . S
C924 N931 1.356 . S
C925 C924 1.363 . S
C925 C928 1.363 . S
N926 C928 1.356 . S
N926 H938 0.984 . S
N926 H939 0.985 . S
N927 C929 1.356 . S
N927 H932 0.984 . S
N927 H933 0.985 . S
C928 C922 1.379 . S
C928 C925 1.363 . S
C928 N926 1.356 . S
C929 C923 1.363 . S
C929 C924 1.379 . S
C929 N927 1.356 . S
N930 C922 1.356 . S
N930 H936 0.984 . S
N930 H937 0.984 . S
N931 C924 1.356 . S
N931 H934 0.984 . S
N931 H935 0.985 . S
H932 N927 0.984 . S
H933 N927 0.985 . S
H934 N931 0.984 . S
H935 N931 0.985 . S
H936 N930 0.984 . S
H937 N930 0.984 . S
H938 N926 0.984 . S
H939 N926 0.985 . S
C940 C941 1.363 . S
C940 C946 1.379 . S
C940 N948 1.356 . S
C941 C940 1.363 . S
C941 C947 1.363 . S
C942 C943 1.363 . S
C942 C947 1.379 . S
C942 N949 1.356 . S
C943 C942 1.363 . S
C943 C946 1.363 . S
N944 C946 1.356 . S
N944 H956 0.984 . S
N944 H957 0.985 . S
N945 C947 1.356 . S
N945 H950 0.984 . S
N945 H951 0.985 . S
C946 C940 1.379 . S
C946 C943 1.363 . S
C946 N944 1.356 . S
C947 C941 1.363 . S
C947 C942 1.379 . S
C947 N945 1.356 . S
N948 C940 1.356 . S
N948 H954 0.984 . S
N948 H955 0.984 . S
N949 C942 1.356 . S
N949 H952 0.984 . S
N949 H953 0.985 . S
H950 N945 0.984 . S
H951 N945 0.985 . S
H952 N949 0.984 . S
H953 N949 0.985 . S
H954 N948 0.984 . S
H955 N948 0.984 . S
H956 N944 0.984 . S
H957 N944 0.985 . S
C958 C959 1.363 . S
C958 C964 1.379 . S
C958 N966 1.356 . S
C959 C958 1.363 . S
C959 C965 1.363 . S
C960 C961 1.363 . S
C960 C965 1.379 . S
C960 N967 1.356 . S
C961 C960 1.363 . S
C961 C964 1.363 . S
N962 C964 1.356 . S
N962 H974 0.984 . S
N962 H975 0.985 . S
N963 C965 1.356 . S
N963 H968 0.984 . S
N963 H969 0.985 . S
C964 C958 1.379 . S
C964 C961 1.363 . S
C964 N962 1.356 . S
C965 C959 1.363 . S
C965 C960 1.379 . S
C965 N963 1.356 . S
N966 C958 1.356 . S
N966 H972 0.984 . S
N966 H973 0.984 . S
N967 C960 1.356 . S
N967 H970 0.984 . S
N967 H971 0.985 . S
H968 N963 0.984 . S
H969 N963 0.985 . S
H970 N967 0.984 . S
H971 N967 0.985 . S
H972 N966 0.984 . S
H973 N966 0.984 . S
H974 N962 0.984 . S
H975 N962 0.985 . S
C976 C977 1.363 . S
C976 C982 1.379 . S
C976 N984 1.356 . S
C977 C976 1.363 . S
C977 C983 1.363 . S
C978 C979 1.363 . S
C978 C983 1.379 . S
C978 N985 1.356 . S
C979 C978 1.363 . S
C979 C982 1.363 . S
N980 C982 1.356 . S
N980 H992 0.984 . S
N980 H993 0.985 . S
N981 C983 1.356 . S
N981 H986 0.984 . S
N981 H987 0.985 . S
C982 C976 1.379 . S
C982 C979 1.363 . S
C982 N980 1.356 . S
C983 C977 1.363 . S
C983 C978 1.379 . S
C983 N981 1.356 . S
N984 C976 1.356 . S
N984 H990 0.984 . S
N984 H991 0.984 . S
N985 C978 1.356 . S
N985 H988 0.984 . S
N985 H989 0.985 . S
H986 N981 0.984 . S
H987 N981 0.985 . S
H988 N985 0.984 . S
H989 N985 0.985 . S
H990 N984 0.984 . S
H991 N984 0.984 . S
H992 N980 0.984 . S
H993 N980 0.985 . S
C994 C995 1.363 . S
C994 C1000 1.379 . S
C994 N1002 1.356 . S
C995 C994 1.363 . S
C995 C1001 1.363 . S
C996 C997 1.363 . S
C996 C1001 1.379 . S
C996 N1003 1.356 . S
C997 C996 1.363 . S
C997 C1000 1.363 . S
N998 C1000 1.356 . S
N998 H1010 0.984 . S
N998 H1011 0.985 . S
N999 C1001 1.356 . S
N999 H1004 0.984 . S
N999 H1005 0.985 . S
C1000 C994 1.379 . S
C1000 C997 1.363 . S
C1000 N998 1.356 . S
C1001 C995 1.363 . S
C1001 C996 1.379 . S
C1001 N999 1.356 . S
N1002 C994 1.356 . S
N1002 H1008 0.984 . S
N1002 H1009 0.984 . S
N1003 C996 1.356 . S
N1003 H1006 0.984 . S
N1003 H1007 0.985 . S
H1004 N999 0.984 . S
H1005 N999 0.985 . S
H1006 N1003 0.984 . S
H1007 N1003 0.985 . S
H1008 N1002 0.984 . S
H1009 N1002 0.984 . S
H1010 N998 0.984 . S
H1011 N998 0.985 . S
C1012 C1013 1.363 . S
C1012 C1018 1.379 . S
C1012 N1020 1.356 . S
C1013 C1012 1.363 . S
C1013 C1019 1.363 . S
C1014 C1015 1.363 . S
C1014 C1019 1.379 . S
C1014 N1021 1.356 . S
C1015 C1014 1.363 . S
C1015 C1018 1.363 . S
N1016 C1018 1.356 . S
N1016 H1028 0.984 . S
N1016 H1029 0.985 . S
N1017 C1019 1.356 . S
N1017 H1022 0.984 . S
N1017 H1023 0.985 . S
C1018 C1012 1.379 . S
C1018 C1015 1.363 . S
C1018 N1016 1.356 . S
C1019 C1013 1.363 . S
C1019 C1014 1.379 . S
C1019 N1017 1.356 . S
N1020 C1012 1.356 . S
N1020 H1026 0.984 . S
N1020 H1027 0.984 . S
N1021 C1014 1.356 . S
N1021 H1024 0.984 . S
N1021 H1025 0.985 . S
H1022 N1017 0.984 . S
H1023 N1017 0.985 . S
H1024 N1021 0.984 . S
H1025 N1021 0.985 . S
H1026 N1020 0.984 . S
H1027 N1020 0.984 . S
H1028 N1016 0.984 . S
H1029 N1016 0.985 . S
C1030 C1031 1.363 . S
C1030 C1036 1.379 . S
C1030 N1038 1.356 . S
C1031 C1030 1.363 . S
C1031 C1037 1.363 . S
C1032 C1033 1.363 . S
C1032 C1037 1.379 . S
C1032 N1039 1.356 . S
C1033 C1032 1.363 . S
C1033 C1036 1.363 . S
N1034 C1036 1.356 . S
N1034 H1046 0.984 . S
N1034 H1047 0.985 . S
N1035 C1037 1.356 . S
N1035 H1040 0.984 . S
N1035 H1041 0.985 . S
C1036 C1030 1.379 . S
C1036 C1033 1.363 . S
C1036 N1034 1.356 . S
C1037 C1031 1.363 . S
C1037 C1032 1.379 . S
C1037 N1035 1.356 . S
N1038 C1030 1.356 . S
N1038 H1044 0.984 . S
N1038 H1045 0.984 . S
N1039 C1032 1.356 . S
N1039 H1042 0.984 . S
N1039 H1043 0.985 . S
H1040 N1035 0.984 . S
H1041 N1035 0.985 . S
H1042 N1039 0.984 . S
H1043 N1039 0.985 . S
H1044 N1038 0.984 . S
H1045 N1038 0.984 . S
H1046 N1034 0.984 . S
H1047 N1034 0.985 . S
C1048 C1049 1.363 . S
C1048 C1054 1.379 . S
C1048 N1056 1.356 . S
C1049 C1048 1.363 . S
C1049 C1055 1.363 . S
C1050 C1051 1.363 . S
C1050 C1055 1.379 . S
C1050 N1057 1.356 . S
C1051 C1050 1.363 . S
C1051 C1054 1.363 . S
N1052 C1054 1.356 . S
N1052 H1064 0.984 . S
N1052 H1065 0.985 . S
N1053 C1055 1.356 . S
N1053 H1058 0.984 . S
N1053 H1059 0.985 . S
C1054 C1048 1.379 . S
C1054 C1051 1.363 . S
C1054 N1052 1.356 . S
C1055 C1049 1.363 . S
C1055 C1050 1.379 . S
C1055 N1053 1.356 . S
N1056 C1048 1.356 . S
N1056 H1062 0.984 . S
N1056 H1063 0.984 . S
N1057 C1050 1.356 . S
N1057 H1060 0.984 . S
N1057 H1061 0.985 . S
H1058 N1053 0.984 . S
H1059 N1053 0.985 . S
H1060 N1057 0.984 . S
H1061 N1057 0.985 . S
H1062 N1056 0.984 . S
H1063 N1056 0.984 . S
H1064 N1052 0.984 . S
H1065 N1052 0.985 . S
C1066 C1067 1.363 . S
C1066 C1072 1.379 . S
C1066 N1074 1.356 . S
C1067 C1066 1.363 . S
C1067 C1073 1.363 . S
C1068 C1069 1.363 . S
C1068 C1073 1.379 . S
C1068 N1075 1.356 . S
C1069 C1068 1.363 . S
C1069 C1072 1.363 . S
N1070 C1072 1.356 . S
N1070 H1082 0.984 . S
N1070 H1083 0.985 . S
N1071 C1073 1.356 . S
N1071 H1076 0.984 . S
N1071 H1077 0.985 . S
C1072 C1066 1.379 . S
C1072 C1069 1.363 . S
C1072 N1070 1.356 . S
C1073 C1067 1.363 . S
C1073 C1068 1.379 . S
C1073 N1071 1.356 . S
N1074 C1066 1.356 . S
N1074 H1080 0.984 . S
N1074 H1081 0.984 . S
N1075 C1068 1.356 . S
N1075 H1078 0.984 . S
N1075 H1079 0.985 . S
H1076 N1071 0.984 . S
H1077 N1071 0.985 . S
H1078 N1075 0.984 . S
H1079 N1075 0.985 . S
H1080 N1074 0.984 . S
H1081 N1074 0.984 . S
H1082 N1070 0.984 . S
H1083 N1070 0.985 . S
C1084 C1085 1.363 . S
C1084 C1090 1.379 . S
C1084 N1092 1.356 . S
C1085 C1084 1.363 . S
C1085 C1091 1.363 . S
C1086 C1087 1.363 . S
C1086 C1091 1.379 . S
C1086 N1093 1.356 . S
C1087 C1086 1.363 . S
C1087 C1090 1.363 . S
N1088 C1090 1.356 . S
N1088 H1100 0.984 . S
N1088 H1101 0.985 . S
N1089 C1091 1.356 . S
N1089 H1094 0.984 . S
N1089 H1095 0.985 . S
C1090 C1084 1.379 . S
C1090 C1087 1.363 . S
C1090 N1088 1.356 . S
C1091 C1085 1.363 . S
C1091 C1086 1.379 . S
C1091 N1089 1.356 . S
N1092 C1084 1.356 . S
N1092 H1098 0.984 . S
N1092 H1099 0.984 . S
N1093 C1086 1.356 . S
N1093 H1096 0.984 . S
N1093 H1097 0.985 . S
H1094 N1089 0.984 . S
H1095 N1089 0.985 . S
H1096 N1093 0.984 . S
H1097 N1093 0.985 . S
H1098 N1092 0.984 . S
H1099 N1092 0.984 . S
H1100 N1088 0.984 . S
H1101 N1088 0.985 . S
C1102 C1103 1.363 . S
C1102 C1108 1.379 . S
C1102 N1110 1.356 . S
C1103 C1102 1.363 . S
C1103 C1109 1.363 . S
C1104 C1105 1.363 . S
C1104 C1109 1.379 . S
C1104 N1111 1.356 . S
C1105 C1104 1.363 . S
C1105 C1108 1.363 . S
N1106 C1108 1.356 . S
N1106 H1118 0.984 . S
N1106 H1119 0.985 . S
N1107 C1109 1.356 . S
N1107 H1112 0.984 . S
N1107 H1113 0.985 . S
C1108 C1102 1.379 . S
C1108 C1105 1.363 . S
C1108 N1106 1.356 . S
C1109 C1103 1.363 . S
C1109 C1104 1.379 . S
C1109 N1107 1.356 . S
N1110 C1102 1.356 . S
N1110 H1116 0.984 . S
N1110 H1117 0.984 . S
N1111 C1104 1.356 . S
N1111 H1114 0.984 . S
N1111 H1115 0.985 . S
H1112 N1107 0.984 . S
H1113 N1107 0.985 . S
H1114 N1111 0.984 . S
H1115 N1111 0.985 . S
H1116 N1110 0.984 . S
H1117 N1110 0.984 . S
H1118 N1106 0.984 . S
H1119 N1106 0.985 . S
C1120 C1121 1.363 . S
C1120 C1126 1.379 . S
C1120 N1128 1.356 . S
C1121 C1120 1.363 . S
C1121 C1127 1.363 . S
C1122 C1123 1.363 . S
C1122 C1127 1.379 . S
C1122 N1129 1.356 . S
C1123 C1122 1.363 . S
C1123 C1126 1.363 . S
N1124 C1126 1.356 . S
N1124 H1136 0.984 . S
N1124 H1137 0.985 . S
N1125 C1127 1.356 . S
N1125 H1130 0.984 . S
N1125 H1131 0.985 . S
C1126 C1120 1.379 . S
C1126 C1123 1.363 . S
C1126 N1124 1.356 . S
C1127 C1121 1.363 . S
C1127 C1122 1.379 . S
C1127 N1125 1.356 . S
N1128 C1120 1.356 . S
N1128 H1134 0.984 . S
N1128 H1135 0.984 . S
N1129 C1122 1.356 . S
N1129 H1132 0.984 . S
N1129 H1133 0.985 . S
H1130 N1125 0.984 . S
H1131 N1125 0.985 . S
H1132 N1129 0.984 . S
H1133 N1129 0.985 . S
H1134 N1128 0.984 . S
H1135 N1128 0.984 . S
H1136 N1124 0.984 . S
H1137 N1124 0.985 . S
C1138 C1139 1.363 . S
C1138 C1144 1.379 . S
C1138 N1146 1.356 . S
C1139 C1138 1.363 . S
C1139 C1145 1.363 . S
C1140 C1141 1.363 . S
C1140 C1145 1.379 . S
C1140 N1147 1.356 . S
C1141 C1140 1.363 . S
C1141 C1144 1.363 . S
N1142 C1144 1.356 . S
N1142 H1154 0.984 . S
N1142 H1155 0.985 . S
N1143 C1145 1.356 . S
N1143 H1148 0.984 . S
N1143 H1149 0.985 . S
C1144 C1138 1.379 . S
C1144 C1141 1.363 . S
C1144 N1142 1.356 . S
C1145 C1139 1.363 . S
C1145 C1140 1.379 . S
C1145 N1143 1.356 . S
N1146 C1138 1.356 . S
N1146 H1152 0.984 . S
N1146 H1153 0.984 . S
N1147 C1140 1.356 . S
N1147 H1150 0.984 . S
N1147 H1151 0.985 . S
H1148 N1143 0.984 . S
H1149 N1143 0.985 . S
H1150 N1147 0.984 . S
H1151 N1147 0.985 . S
H1152 N1146 0.984 . S
H1153 N1146 0.984 . S
H1154 N1142 0.984 . S
H1155 N1142 0.985 . S
C1156 C1157 1.363 . S
C1156 C1162 1.379 . S
C1156 N1164 1.356 . S
C1157 C1156 1.363 . S
C1157 C1163 1.363 . S
C1158 C1159 1.363 . S
C1158 C1163 1.379 . S
C1158 N1165 1.356 . S
C1159 C1158 1.363 . S
C1159 C1162 1.363 . S
N1160 C1162 1.356 . S
N1160 H1172 0.984 . S
N1160 H1173 0.985 . S
N1161 C1163 1.356 . S
N1161 H1166 0.984 . S
N1161 H1167 0.985 . S
C1162 C1156 1.379 . S
C1162 C1159 1.363 . S
C1162 N1160 1.356 . S
C1163 C1157 1.363 . S
C1163 C1158 1.379 . S
C1163 N1161 1.356 . S
N1164 C1156 1.356 . S
N1164 H1170 0.984 . S
N1164 H1171 0.984 . S
N1165 C1158 1.356 . S
N1165 H1168 0.984 . S
N1165 H1169 0.985 . S
H1166 N1161 0.984 . S
H1167 N1161 0.985 . S
H1168 N1165 0.984 . S
H1169 N1165 0.985 . S
H1170 N1164 0.984 . S
H1171 N1164 0.984 . S
H1172 N1160 0.984 . S
H1173 N1160 0.985 . S
C1174 C1175 1.363 . S
C1174 C1180 1.379 . S
C1174 N1182 1.356 . S
C1175 C1174 1.363 . S
C1175 C1181 1.363 . S
C1176 C1177 1.363 . S
C1176 C1181 1.379 . S
C1176 N1183 1.356 . S
C1177 C1176 1.363 . S
C1177 C1180 1.363 . S
N1178 C1180 1.356 . S
N1178 H1190 0.984 . S
N1178 H1191 0.985 . S
N1179 C1181 1.356 . S
N1179 H1184 0.984 . S
N1179 H1185 0.985 . S
C1180 C1174 1.379 . S
C1180 C1177 1.363 . S
C1180 N1178 1.356 . S
C1181 C1175 1.363 . S
C1181 C1176 1.379 . S
C1181 N1179 1.356 . S
N1182 C1174 1.356 . S
N1182 H1188 0.984 . S
N1182 H1189 0.984 . S
N1183 C1176 1.356 . S
N1183 H1186 0.984 . S
N1183 H1187 0.985 . S
H1184 N1179 0.984 . S
H1185 N1179 0.985 . S
H1186 N1183 0.984 . S
H1187 N1183 0.985 . S
H1188 N1182 0.984 . S
H1189 N1182 0.984 . S
H1190 N1178 0.984 . S
H1191 N1178 0.985 . S
C1192 C1193 1.363 . S
C1192 C1198 1.379 . S
C1192 N1200 1.356 . S
C1193 C1192 1.363 . S
C1193 C1199 1.363 . S
C1194 C1195 1.363 . S
C1194 C1199 1.379 . S
C1194 N1201 1.356 . S
C1195 C1194 1.363 . S
C1195 C1198 1.363 . S
N1196 C1198 1.356 . S
N1196 H1208 0.984 . S
N1196 H1209 0.985 . S
N1197 C1199 1.356 . S
N1197 H1202 0.984 . S
N1197 H1203 0.985 . S
C1198 C1192 1.379 . S
C1198 C1195 1.363 . S
C1198 N1196 1.356 . S
C1199 C1193 1.363 . S
C1199 C1194 1.379 . S
C1199 N1197 1.356 . S
N1200 C1192 1.356 . S
N1200 H1206 0.984 . S
N1200 H1207 0.984 . S
N1201 C1194 1.356 . S
N1201 H1204 0.984 . S
N1201 H1205 0.985 . S
H1202 N1197 0.984 . S
H1203 N1197 0.985 . S
H1204 N1201 0.984 . S
H1205 N1201 0.985 . S
H1206 N1200 0.984 . S
H1207 N1200 0.984 . S
H1208 N1196 0.984 . S
H1209 N1196 0.985 . S
C1210 C1211 1.363 . S
C1210 C1216 1.379 . S
C1210 N1218 1.356 . S
C1211 C1210 1.363 . S
C1211 C1217 1.363 . S
C1212 C1213 1.363 . S
C1212 C1217 1.379 . S
C1212 N1219 1.356 . S
C1213 C1212 1.363 . S
C1213 C1216 1.363 . S
N1214 C1216 1.356 . S
N1214 H1226 0.984 . S
N1214 H1227 0.985 . S
N1215 C1217 1.356 . S
N1215 H1220 0.984 . S
N1215 H1221 0.985 . S
C1216 C1210 1.379 . S
C1216 C1213 1.363 . S
C1216 N1214 1.356 . S
C1217 C1211 1.363 . S
C1217 C1212 1.379 . S
C1217 N1215 1.356 . S
N1218 C1210 1.356 . S
N1218 H1224 0.984 . S
N1218 H1225 0.984 . S
N1219 C1212 1.356 . S
N1219 H1222 0.984 . S
N1219 H1223 0.985 . S
H1220 N1215 0.984 . S
H1221 N1215 0.985 . S
H1222 N1219 0.984 . S
H1223 N1219 0.985 . S
H1224 N1218 0.984 . S
H1225 N1218 0.984 . S
H1226 N1214 0.984 . S
H1227 N1214 0.985 . S
C1228 C1229 1.363 . S
C1228 C1234 1.379 . S
C1228 N1236 1.356 . S
C1229 C1228 1.363 . S
C1229 C1235 1.363 . S
C1230 C1231 1.363 . S
C1230 C1235 1.379 . S
C1230 N1237 1.356 . S
C1231 C1230 1.363 . S
C1231 C1234 1.363 . S
N1232 C1234 1.356 . S
N1232 H1244 0.984 . S
N1232 H1245 0.985 . S
N1233 C1235 1.356 . S
N1233 H1238 0.984 . S
N1233 H1239 0.985 . S
C1234 C1228 1.379 . S
C1234 C1231 1.363 . S
C1234 N1232 1.356 . S
C1235 C1229 1.363 . S
C1235 C1230 1.379 . S
C1235 N1233 1.356 . S
N1236 C1228 1.356 . S
N1236 H1242 0.984 . S
N1236 H1243 0.984 . S
N1237 C1230 1.356 . S
N1237 H1240 0.984 . S
N1237 H1241 0.985 . S
H1238 N1233 0.984 . S
H1239 N1233 0.985 . S
H1240 N1237 0.984 . S
H1241 N1237 0.985 . S
H1242 N1236 0.984 . S
H1243 N1236 0.984 . S
H1244 N1232 0.984 . S
H1245 N1232 0.985 . S
C1246 C1247 1.363 . S
C1246 C1252 1.379 . S
C1246 N1254 1.356 . S
C1247 C1246 1.363 . S
C1247 C1253 1.363 . S
C1248 C1249 1.363 . S
C1248 C1253 1.379 . S
C1248 N1255 1.356 . S
C1249 C1248 1.363 . S
C1249 C1252 1.363 . S
N1250 C1252 1.356 . S
N1250 H1262 0.984 . S
N1250 H1263 0.985 . S
N1251 C1253 1.356 . S
N1251 H1256 0.984 . S
N1251 H1257 0.985 . S
C1252 C1246 1.379 . S
C1252 C1249 1.363 . S
C1252 N1250 1.356 . S
C1253 C1247 1.363 . S
C1253 C1248 1.379 . S
C1253 N1251 1.356 . S
N1254 C1246 1.356 . S
N1254 H1260 0.984 . S
N1254 H1261 0.984 . S
N1255 C1248 1.356 . S
N1255 H1258 0.984 . S
N1255 H1259 0.985 . S
H1256 N1251 0.984 . S
H1257 N1251 0.985 . S
H1258 N1255 0.984 . S
H1259 N1255 0.985 . S
H1260 N1254 0.984 . S
H1261 N1254 0.984 . S
H1262 N1250 0.984 . S
H1263 N1250 0.985 . S
C545 C33 1.186 . S
C547 C543 1.186 . S
C563 C441 1.186 . S
C565 C67 1.186 . S
C581 C475 1.186 . S
C583 C101 1.186 . S
C599 C509 1.186 . S
C601 C135 1.186 . S
C617 C169 1.186 . S
C619 C339 1.186 . S
C635 C373 1.186 . S
C637 C203 1.186 . S
C653 C407 1.186 . S
C655 C237 1.186 . S
C671 C271 1.186 . S
C673 C305 1.186 . S
C689 C213 0.680 . S
C691 C9 0.680 . S
C707 C247 0.680 . S
C709 C43 0.680 . S
C725 C145 0.680 . S
C727 C77 0.680 . S
C743 C179 0.680 . S
C745 C111 0.680 . S
C761 C156 2.278 . S
C763 C88 2.278 . S
C779 C122 2.278 . S
C781 C190 2.278 . S
C797 C224 2.278 . S
C799 C20 2.278 . S
C815 C54 2.278 . S
C817 C258 2.278 . S
C833 C281 0.680 . S
C835 C485 0.680 . S
C851 C519 0.680 . S
C853 C315 0.680 . S
C869 C417 0.680 . S
C871 C349 0.680 . S
C887 C451 0.680 . S
C889 C383 0.680 . S
C905 C428 2.278 . S
C907 C360 2.278 . S
C923 C462 2.278 . S
C925 C394 2.278 . S
C941 C292 2.278 . S
C943 C496 2.278 . S
C959 C326 2.278 . S
C961 C530 2.278 . S
C977 C172 2.826 . S
C979 C2 2.826 . S
C995 C36 2.826 . S
C997 C206 2.826 . S
C1013 C240 2.826 . S
C1015 C70 2.826 . S
C1031 C104 2.826 . S
C1033 C138 2.826 . S
C1049 C73 0.919 . S
C1051 C243 0.919 . S
C1067 C141 0.919 . S
C1069 C107 0.919 . S
C1085 C175 0.919 . S
C1087 C5 0.919 . S
C1103 C39 0.919 . S
C1105 C209 0.919 . S
C1121 C444 2.826 . S
C1123 C274 2.826 . S
C1139 C308 2.826 . S
C1141 C478 2.826 . S
C1157 C512 2.826 . S
C1159 C342 2.826 . S
C1175 C376 2.826 . S
C1177 C410 2.826 . S
C1193 C515 0.919 . S
C1195 C345 0.919 . S
C1211 C379 0.919 . S
C1213 C413 0.919 . S
C1229 C447 0.919 . S
C1231 C277 0.919 . S
C1247 C311 0.919 . S
C1249 C481 0.919 . S
