# Generated by pormake.
# Topology ukf, (4)-cn, num edge types: 1
# Building blocks:
#     Node 0, Type 0, BuildingBlock: QUQFOY_clean_sbu_1, # of connection points: 4
#     Node 1, Type 0, BuildingBlock: QUQFOY_clean_sbu_1, # of connection points: 4
#     Node 2, Type 0, BuildingBlock: QUQFOY_clean_sbu_1, # of connection points: 4
#     Node 3, Type 0, BuildingBlock: QUQFOY_clean_sbu_1, # of connection points: 4
#     Node 4, Type 0, BuildingBlock: QUQFOY_clean_sbu_1, # of connection points: 4
#     Node 5, Type 0, BuildingBlock: QUQFOY_clean_sbu_1, # of connection points: 4
#     Node 6, Type 0, BuildingBlock: QUQFOY_clean_sbu_1, # of connection points: 4
#     Node 7, Type 0, BuildingBlock: QUQFOY_clean_sbu_1, # of connection points: 4
#     Node 8, Type 0, BuildingBlock: QUQFOY_clean_sbu_1, # of connection points: 4
#     Node 9, Type 0, BuildingBlock: QUQFOY_clean_sbu_1, # of connection points: 4
#     Node 10, Type 0, BuildingBlock: QUQFOY_clean_sbu_1, # of connection points: 4
#     Node 11, Type 0, BuildingBlock: QUQFOY_clean_sbu_1, # of connection points: 4
#     Edge 12, Type (0, 0), BuildingBlock: ZUJKAS_clean_linker_0, # of connection points: 2
#     Edge 13, Type (0, 0), BuildingBlock: ZUJKAS_clean_linker_0, # of connection points: 2
#     Edge 14, Type (0, 0), BuildingBlock: ZUJKAS_clean_linker_0, # of connection points: 2
#     Edge 15, Type (0, 0), BuildingBlock: ZUJKAS_clean_linker_0, # of connection points: 2
#     Edge 16, Type (0, 0), BuildingBlock: ZUJKAS_clean_linker_0, # of connection points: 2
#     Edge 17, Type (0, 0), BuildingBlock: ZUJKAS_clean_linker_0, # of connection points: 2
#     Edge 18, Type (0, 0), BuildingBlock: ZUJKAS_clean_linker_0, # of connection points: 2
#     Edge 19, Type (0, 0), BuildingBlock: ZUJKAS_clean_linker_0, # of connection points: 2
#     Edge 20, Type (0, 0), BuildingBlock: ZUJKAS_clean_linker_0, # of connection points: 2
#     Edge 21, Type (0, 0), BuildingBlock: ZUJKAS_clean_linker_0, # of connection points: 2
#     Edge 22, Type (0, 0), BuildingBlock: ZUJKAS_clean_linker_0, # of connection points: 2
#     Edge 23, Type (0, 0), BuildingBlock: ZUJKAS_clean_linker_0, # of connection points: 2
#     Edge 24, Type (0, 0), BuildingBlock: ZUJKAS_clean_linker_0, # of connection points: 2
#     Edge 25, Type (0, 0), BuildingBlock: ZUJKAS_clean_linker_0, # of connection points: 2
#     Edge 26, Type (0, 0), BuildingBlock: ZUJKAS_clean_linker_0, # of connection points: 2
#     Edge 27, Type (0, 0), BuildingBlock: ZUJKAS_clean_linker_0, # of connection points: 2
#     Edge 28, Type (0, 0), BuildingBlock: ZUJKAS_clean_linker_0, # of connection points: 2
#     Edge 29, Type (0, 0), BuildingBlock: ZUJKAS_clean_linker_0, # of connection points: 2
#     Edge 30, Type (0, 0), BuildingBlock: ZUJKAS_clean_linker_0, # of connection points: 2
#     Edge 31, Type (0, 0), BuildingBlock: ZUJKAS_clean_linker_0, # of connection points: 2
#     Edge 32, Type (0, 0), BuildingBlock: ZUJKAS_clean_linker_0, # of connection points: 2
#     Edge 33, Type (0, 0), BuildingBlock: ZUJKAS_clean_linker_0, # of connection points: 2
#     Edge 34, Type (0, 0), BuildingBlock: ZUJKAS_clean_linker_0, # of connection points: 2
#     Edge 35, Type (0, 0), BuildingBlock: ZUJKAS_clean_linker_0, # of connection points: 2
# Relax obj value: 0.115
# Max RMSD: 0.131
# Mean RMSD: 0.131
data_MOF--net-ukf--node1-QUQFOY_clean_sbu_1--edge1-ZUJKAS_clean_linker_0
_symmetry_space_group_name_H-M    P1
_symmetry_Int_Tables_number       1
_symmetry_cell_setting            triclinic
loop_
_symmetry_equiv_pos_as_xyz
'x, y, z'
_cell_length_a     41.291692
_cell_length_b     41.395432
_cell_length_c     94.315923
_cell_angle_alpha  90.030567
_cell_angle_beta   89.910769
_cell_angle_gamma 120.07778
loop_
_atom_site_label
_atom_site_type_symbol
_atom_site_fract_x
_atom_site_fract_y
_atom_site_fract_z
_atom_type_partial_charge
O0 O 0.43644 0.2944 0.0655 0.0
Cd1 Cd 0.43816 0.24734 0.07116 0.0
Cd2 Cd 0.39633 0.22452 0.04456 0.0
O3 O 0.40552 0.27861 0.04521 0.0
O4 O 0.46098 0.26257 0.09037 0.0
O5 O 0.40496 0.2135 0.08691 0.0
C6 C 0.4309 0.23527 0.09561 0.0
C7 C 0.34024 0.17453 0.03606 0.0
C8 C 0.42304 0.30254 0.05487 0.0
C9 C 0.46964 0.22363 0.04717 0.0
O10 O 0.44126 0.21781 0.03996 0.0
O11 O 0.47412 0.23564 0.05984 0.0
O12 O 0.36349 0.20066 0.02778 0.0
O13 O 0.34764 0.17798 0.04947 0.0
O14 O 0.14647 0.43824 0.40081 0.0
Cd15 Cd 0.19387 0.43539 0.40524 0.0
Cd16 Cd 0.1671 0.39309 0.37972 0.0
O17 O 0.12153 0.40044 0.38251 0.0
O18 O 0.2064 0.46026 0.42417 0.0
O19 O 0.1935 0.40212 0.42114 0.0
C20 C 0.2013 0.42957 0.42962 0.0
C21 C 0.16216 0.33693 0.37221 0.0
C22 C 0.12046 0.42235 0.39172 0.0
C23 C 0.2425 0.46484 0.37942 0.0
O24 O 0.21553 0.43866 0.37266 0.0
O25 O 0.24072 0.46746 0.39281 0.0
O26 O 0.15461 0.35688 0.36385 0.0
O27 O 0.16999 0.34755 0.38526 0.0
O28 O 0.71063 0.15681 0.73297 0.0
Cd29 Cd 0.76503 0.19901 0.73609 0.0
Cd30 Cd 0.77315 0.16616 0.7126 0.0
O31 O 0.72057 0.12215 0.71781 0.0
O32 O 0.76246 0.21905 0.75505 0.0
O33 O 0.79593 0.19187 0.7511 0.0
C34 C 0.78381 0.20729 0.75993 0.0
C35 C 0.82665 0.16297 0.70754 0.0
C36 C 0.69844 0.12697 0.72578 0.0
C37 C 0.78311 0.24219 0.70919 0.0
O38 O 0.77476 0.21162 0.70308 0.0
O39 O 0.78491 0.24447 0.72264 0.0
O40 O 0.79843 0.14888 0.69901 0.0
O41 O 0.82315 0.17593 0.71958 0.0
O42 O 0.56558 0.70742 0.06577 0.0
Cd43 Cd 0.56838 0.75721 0.07099 0.0
Cd44 Cd 0.60911 0.77434 0.04461 0.0
O45 O 0.60105 0.72112 0.04664 0.0
O46 O 0.5442 0.74356 0.09007 0.0
O47 O 0.60217 0.78952 0.08694 0.0
C48 C 0.57502 0.76921 0.09548 0.0
C49 C 0.66466 0.82474 0.03592 0.0
C50 C 0.58029 0.69779 0.05601 0.0
C51 C 0.5373 0.7778 0.04601 0.0
O52 O 0.56311 0.77773 0.03869 0.0
O53 O 0.53548 0.77236 0.05934 0.0
O54 O 0.64302 0.79686 0.02797 0.0
O55 O 0.6561 0.82289 0.04919 0.0
O56 O 0.84636 0.55686 0.40032 0.0
Cd57 Cd 0.80291 0.56667 0.40443 0.0
Cd58 Cd 0.8317 0.60654 0.37948 0.0
O59 O 0.87517 0.59618 0.38273 0.0
O60 O 0.78667 0.54477 0.42374 0.0
O61 O 0.81003 0.60479 0.41943 0.0
C62 C 0.79727 0.57775 0.42849 0.0
C63 C 0.83911 0.66403 0.37257 0.0
C64 C 0.87339 0.57213 0.39157 0.0
C65 C 0.75428 0.53897 0.37874 0.0
O66 O 0.78281 0.56271 0.37186 0.0
O67 O 0.75518 0.53775 0.3922 0.0
O68 O 0.84676 0.64435 0.36407 0.0
O69 O 0.83005 0.6524 0.38548 0.0
O70 O 0.28823 0.84255 0.73528 0.0
Cd71 Cd 0.23457 0.79978 0.73934 0.0
Cd72 Cd 0.22475 0.82904 0.71413 0.0
O73 O 0.27823 0.87296 0.7182 0.0
O74 O 0.24002 0.78276 0.75853 0.0
O75 O 0.20397 0.80701 0.75456 0.0
C76 C 0.21787 0.7935 0.76345 0.0
C77 C 0.17435 0.83533 0.70646 0.0
C78 C 0.30033 0.87028 0.7269 0.0
C79 C 0.21456 0.75164 0.71362 0.0
O80 O 0.22079 0.78047 0.70667 0.0
O81 O 0.21517 0.75224 0.7271 0.0
O82 O 0.20264 0.84375 0.69833 0.0
O83 O 0.17612 0.82629 0.71944 0.0
O84 O 0.71298 0.55391 0.60785 0.0
Cd85 Cd 0.76721 0.5666 0.60378 0.0
Cd86 Cd 0.77548 0.60383 0.62925 0.0
O87 O 0.72172 0.59338 0.62515 0.0
O88 O 0.76268 0.54519 0.58444 0.0
O89 O 0.79752 0.60541 0.58882 0.0
C90 C 0.78442 0.57842 0.57975 0.0
C91 C 0.82476 0.66029 0.6377 0.0
C92 C 0.70012 0.56858 0.61636 0.0
C93 C 0.78714 0.53757 0.62919 0.0
O94 O 0.77993 0.55921 0.63635 0.0
O95 O 0.78727 0.5386 0.61572 0.0
O96 O 0.79595 0.63952 0.64546 0.0
O97 O 0.82417 0.65053 0.62463 0.0
O98 O 0.15589 0.70943 0.94245 0.0
Cd99 Cd 0.20003 0.76265 0.9389 0.0
Cd100 Cd 0.16893 0.7735 0.96318 0.0
O101 O 0.12511 0.72032 0.95916 0.0
O102 O 0.21776 0.7579 0.91974 0.0
O103 O 0.19401 0.79431 0.92392 0.0
C104 C 0.20733 0.78036 0.91494 0.0
C105 C 0.16178 0.82364 0.97027 0.0
C106 C 0.12767 0.69795 0.9506 0.0
C107 C 0.24561 0.78196 0.96533 0.0
O108 O 0.2163 0.77693 0.97168 0.0
O109 O 0.24646 0.7808 0.95186 0.0
O110 O 0.15225 0.79528 0.97842 0.0
O111 O 0.17267 0.82221 0.95754 0.0
O112 O 0.44036 0.14892 0.27615 0.0
Cd113 Cd 0.43537 0.19511 0.27196 0.0
Cd114 Cd 0.39303 0.16657 0.29737 0.0
O115 O 0.40167 0.12205 0.29412 0.0
O116 O 0.46049 0.20929 0.25307 0.0
O117 O 0.40147 0.19392 0.25614 0.0
C118 C 0.42936 0.20325 0.24766 0.0
C119 C 0.33657 0.16019 0.30553 0.0
C120 C 0.42459 0.12235 0.28502 0.0
C121 C 0.46359 0.24273 0.29797 0.0
O122 O 0.43808 0.21499 0.30466 0.0
O123 O 0.46609 0.24173 0.28454 0.0
O124 O 0.35703 0.15229 0.31346 0.0
O125 O 0.34676 0.16907 0.29248 0.0
O126 O 0.29079 0.44283 0.61031 0.0
Cd127 Cd 0.23828 0.4349 0.60636 0.0
Cd128 Cd 0.22663 0.39238 0.63053 0.0
O129 O 0.27898 0.39914 0.62614 0.0
O130 O 0.24813 0.4603 0.58759 0.0
O131 O 0.20677 0.40051 0.59043 0.0
C132 C 0.22451 0.42873 0.58205 0.0
C133 C 0.17302 0.33627 0.63631 0.0
C134 C 0.30186 0.42503 0.61797 0.0
C135 C 0.22017 0.46149 0.63291 0.0
O136 O 0.22561 0.43749 0.63923 0.0
O137 O 0.22042 0.46299 0.61943 0.0
O138 O 0.2012 0.35157 0.64482 0.0
O139 O 0.17643 0.35128 0.62397 0.0
O140 O 0.85013 0.2918 0.93984 0.0
Cd141 Cd 0.80339 0.24122 0.93556 0.0
Cd142 Cd 0.8294 0.22459 0.96105 0.0
O143 O 0.87384 0.2786 0.95846 0.0
O144 O 0.7892 0.24973 0.91629 0.0
O145 O 0.80668 0.20823 0.9204 0.0
C146 C 0.79667 0.22513 0.91141 0.0
C147 C 0.8367 0.17487 0.96872 0.0
C148 C 0.87547 0.30175 0.9492 0.0
C149 C 0.7534 0.21964 0.96107 0.0
O150 O 0.77935 0.21858 0.96787 0.0
O151 O 0.75658 0.2269 0.94787 0.0
O152 O 0.84285 0.20204 0.97705 0.0
O153 O 0.82913 0.17731 0.95561 0.0
O154 O 0.56296 0.85308 0.27619 0.0
Cd155 Cd 0.56694 0.80626 0.27202 0.0
Cd156 Cd 0.60822 0.83386 0.29777 0.0
O157 O 0.60062 0.87897 0.29446 0.0
O158 O 0.54222 0.79286 0.25307 0.0
O159 O 0.60073 0.80671 0.25624 0.0
C160 C 0.57318 0.7982 0.24771 0.0
C161 C 0.66412 0.83951 0.3062 0.0
C162 C 0.57851 0.87936 0.28518 0.0
C163 C 0.5367 0.75843 0.29798 0.0
O164 O 0.56225 0.78575 0.30482 0.0
O165 O 0.53498 0.7597 0.28454 0.0
O166 O 0.64347 0.84743 0.31405 0.0
O167 O 0.65438 0.83084 0.29311 0.0
H168 H 0.19391 0.89285 0.95786 0.0
H169 H 0.21145 0.95213 0.9697 0.0
H170 H 0.15556 0.89266 0.00778 0.0
H171 H 0.13812 0.83341 0.99612 0.0
H172 H 0.17035 0.98229 0.98603 0.0
H173 H 0.26899 0.95786 0.0182 0.0
H174 H 0.24759 0.93206 1.00219 0.0
H175 H 0.22093 0.92101 0.01831 0.0
C176 C 0.1845 0.8923 0.96863 0.0
C177 C 0.16502 0.85842 0.97611 0.0
C178 C 0.19459 0.92622 0.97538 0.0
C179 C 0.18534 0.92675 0.98968 0.0
C180 C 0.16338 0.89284 0.99679 0.0
H181 H 0.28993 0.1108 0.05012 0.0
H182 H 0.24554 0.05051 0.03954 0.0
C183 C 0.15336 0.85899 0.99009 0.0
C184 C 0.20199 0.96255 0.99755 0.0
H185 H 0.26733 0.01268 0.02278 0.0
C186 C 0.1914 0.98895 0.99413 0.0
C187 C 0.22939 0.97108 0.00812 0.0
C188 C 0.24273 0.94423 0.01191 0.0
C189 C 0.2076 0.02377 1.00102 0.0
C190 C 0.23568 0.03264 0.01136 0.0
C191 C 0.24564 0.00585 0.01494 0.0
C192 C 0.25737 0.07033 0.01787 0.0
C193 C 0.19432 0.05059 0.9972 0.0
C194 C 0.27822 0.10175 0.00925 0.0
C195 C 0.3034 0.13621 0.01527 0.0
C196 C 0.30867 0.13995 0.03005 0.0
C197 C 0.2865 0.10892 0.03872 0.0
C198 C 0.26117 0.07441 0.03267 0.0
H199 H 0.16515 0.03556 0.99314 0.0
H200 H 0.19563 0.0678 0.00645 0.0
H201 H 0.21245 0.06953 0.98868 0.0
H202 H 0.27656 0.09924 0.99781 0.0
H203 H 0.3201 0.15946 0.00826 0.0
H204 H 0.15207 0.31206 0.34488 0.0
H205 H 0.17011 0.2695 0.3345 0.0
H206 H 0.19985 0.2486 0.37592 0.0
H207 H 0.18269 0.29212 0.38639 0.0
H208 H 0.25603 0.27003 0.3575 0.0
H209 H 0.12758 0.15865 0.33227 0.0
H210 H 0.13745 0.20424 0.32689 0.0
H211 H 0.12658 0.19039 0.34517 0.0
C212 C 0.16157 0.29776 0.35187 0.0
C213 C 0.16608 0.30566 0.36648 0.0
C214 C 0.17165 0.27312 0.3459 0.0
C215 C 0.18597 0.25542 0.35442 0.0
C216 C 0.1887 0.26178 0.36913 0.0
H217 H 0.30781 0.14081 0.33226 0.0
H218 H 0.26662 0.15863 0.34426 0.0
C219 C 0.17878 0.28661 0.37512 0.0
C220 C 0.20253 0.23437 0.34777 0.0
H221 H 0.18594 0.16563 0.32382 0.0
C222 C 0.24047 0.24678 0.35034 0.0
C223 C 0.18238 0.20424 0.33829 0.0
C224 C 0.14115 0.18837 0.3356 0.0
C225 C 0.2591 0.2308 0.34338 0.0
C226 C 0.23919 0.20125 0.33369 0.0
C227 C 0.20112 0.18834 0.33124 0.0
C228 C 0.25821 0.18445 0.3258 0.0
C229 C 0.30035 0.24652 0.34609 0.0
C230 C 0.26558 0.19143 0.31124 0.0
C231 C 0.28909 0.18115 0.3043 0.0
C232 C 0.30557 0.16375 0.31183 0.0
C233 C 0.29583 0.15441 0.32616 0.0
C234 C 0.27234 0.16463 0.33306 0.0
H235 H 0.31306 0.27371 0.35174 0.0
H236 H 0.30428 0.22661 0.35272 0.0
H237 H 0.31565 0.25039 0.33597 0.0
H238 H 0.25483 0.20664 0.30545 0.0
H239 H 0.29601 0.18876 0.29327 0.0
H240 H 0.84068 0.11997 0.68935 0.0
H241 H 0.90054 0.13642 0.67811 0.0
H242 H 0.95397 0.23943 0.70187 0.0
H243 H 0.8951 0.2215 0.71387 0.0
H244 H 0.93756 0.18611 0.66088 0.0
H245 H 0.03431 0.2171 0.70538 0.0
H246 H 0.98447 0.19449 0.70812 0.0
H247 H 0.01257 0.24483 0.70749 0.0
C248 C 0.8656 0.14545 0.69252 0.0
C249 C 0.86338 0.16919 0.70263 0.0
C250 C 0.8998 0.15504 0.68601 0.0
C251 C 0.93233 0.18907 0.6892 0.0
C252 C 0.93002 0.21239 0.69954 0.0
H253 H 0.10414 0.325 0.62977 0.0
H254 H 0.04546 0.28414 0.64192 0.0
C255 C 0.89615 0.20221 0.70637 0.0
C256 C 0.96742 0.20201 0.68076 0.0
H257 H 0.06268 0.25033 0.68341 0.0
C258 C 0.96487 0.19942 0.66588 0.0
C259 C 0.00335 0.21861 0.68708 0.0
C260 C 0.00872 0.21845 0.7029 0.0
C261 C 0.99693 0.21451 0.65723 0.0
C262 C 0.03283 0.23477 0.66353 0.0
C263 C 0.03539 0.23562 0.67842 0.0
C264 C 0.06784 0.25689 0.65504 0.0
C265 C 0.99164 0.20804 0.64145 0.0
C266 C 0.10069 0.25622 0.65844 0.0
C267 C 0.13474 0.2808 0.65184 0.0
C268 C 0.13649 0.30588 0.64143 0.0
C269 C 0.10344 0.30533 0.63751 0.0
C270 C 0.06969 0.28168 0.64443 0.0
H271 H 0.96633 0.18073 0.63911 0.0
H272 H 0.98732 0.23001 0.63659 0.0
H273 H 0.01613 0.20851 0.63635 0.0
H274 H 0.1003 0.23751 0.66655 0.0
H275 H 0.15989 0.28087 0.65515 0.0
H276 H 0.70613 0.89373 0.04821 0.0
H277 H 0.74697 0.95283 0.03601 0.0
H278 H 0.73274 0.89325 0.9969 0.0
H279 H 0.69178 0.83424 0.00892 0.0
H280 H 0.81446 0.98111 0.01761 0.0
H281 H 0.68735 0.96209 0.98978 0.0
H282 H 0.68484 0.93548 0.00531 0.0
H283 H 0.69621 0.9239 0.98837 0.0
C284 C 0.71241 0.89311 0.0371 0.0
C285 C 0.69531 0.85931 0.0295 0.0
C286 C 0.73574 0.92692 0.03014 0.0
C287 C 0.74231 0.92741 0.01551 0.0
C288 C 0.72757 0.89349 0.00815 0.0
H289 H 0.81781 0.1097 0.95469 0.0
H290 H 0.80124 0.0494 0.96534 0.0
C291 C 0.70422 0.85978 0.01507 0.0
C292 C 0.76127 0.9633 0.00766 0.0
H293 H 0.7445 0.01502 0.98374 0.0
C294 C 0.7993 0.98856 0.01016 0.0
C295 C 0.74138 0.97288 0.99794 0.0
C296 C 0.70012 0.94739 0.99522 0.0
C297 C 0.81803 0.02318 1.00311 0.0
C298 C 0.79794 0.033 0.99355 0.0
C299 C 0.76003 0.00742 0.99096 0.0
C300 C 0.8145 0.07048 0.98681 0.0
C301 C 0.85919 0.0487 0.00588 0.0
C302 C 0.82837 0.10262 0.99527 0.0
C303 C 0.8381 0.13712 0.98919 0.0
C304 C 0.83369 0.14018 0.97455 0.0
C305 C 0.82162 0.10836 0.96599 0.0
C306 C 0.81204 0.07384 0.97207 0.0
H307 H 0.8728 0.03273 0.00937 0.0
H308 H 0.87389 0.0651 0.99629 0.0
H309 H 0.86266 0.06846 0.01449 0.0
H310 H 0.82973 0.10073 0.00668 0.0
H311 H 0.84714 0.16099 0.99613 0.0
H312 H 0.70559 0.81177 0.29401 0.0
H313 H 0.74705 0.79443 0.30624 0.0
H314 H 0.73319 0.8409 0.34513 0.0
H315 H 0.69174 0.8582 0.33308 0.0
H316 H 0.81544 0.83629 0.32495 0.0
H317 H 0.68828 0.72564 0.35215 0.0
H318 H 0.68573 0.74901 0.3364 0.0
H319 H 0.696 0.77236 0.35322 0.0
C320 C 0.71208 0.81913 0.30508 0.0
C321 C 0.69499 0.83598 0.31261 0.0
C322 C 0.73577 0.80918 0.31205 0.0
C323 C 0.74269 0.81592 0.32663 0.0
C324 C 0.72785 0.83511 0.33391 0.0
H325 H 0.81805 0.70816 0.38699 0.0
H326 H 0.80104 0.75191 0.3767 0.0
C327 C 0.7042 0.84503 0.32698 0.0
C328 C 0.76201 0.79949 0.33452 0.0
H329 H 0.74561 0.73031 0.35805 0.0
C330 C 0.80032 0.81324 0.33224 0.0
C331 C 0.74217 0.7695 0.34405 0.0
C332 C 0.70071 0.75295 0.34659 0.0
C333 C 0.81936 0.79772 0.3393 0.0
C334 C 0.7993 0.76714 0.34861 0.0
C335 C 0.7611 0.7539 0.35102 0.0
C336 C 0.81621 0.74642 0.35523 0.0
C337 C 0.8608 0.81446 0.3368 0.0
C338 C 0.83137 0.72951 0.34667 0.0
C339 C 0.84138 0.70475 0.35254 0.0
C340 C 0.83597 0.69592 0.36707 0.0
C341 C 0.82266 0.71437 0.37577 0.0
C342 C 0.81281 0.73933 0.36989 0.0
H343 H 0.87397 0.84428 0.33365 0.0
H344 H 0.87518 0.81238 0.3464 0.0
H345 H 0.86527 0.79924 0.32803 0.0
H346 H 0.83347 0.73372 0.3353 0.0
H347 H 0.85139 0.69094 0.3455 0.0
H348 H 0.89441 0.70188 0.62573 0.0
H349 H 0.95314 0.74275 0.63817 0.0
H350 H 0.89188 0.72846 0.67691 0.0
H351 H 0.83319 0.68757 0.66464 0.0
H352 H 0.98008 0.81045 0.6568 0.0
H353 H 0.96161 0.68342 0.68436 0.0
H354 H 0.93581 0.68101 0.66858 0.0
H355 H 0.92283 0.69162 0.68538 0.0
C356 C 0.89332 0.70817 0.63681 0.0
C357 C 0.8591 0.6911 0.64422 0.0
C358 C 0.92693 0.73151 0.64391 0.0
C359 C 0.92686 0.73811 0.65851 0.0
C360 C 0.89256 0.72333 0.66568 0.0
H361 H 0.1078 0.81355 0.72014 0.0
H362 H 0.04741 0.79589 0.7092 0.0
C363 C 0.85902 0.70003 0.65862 0.0
C364 C 0.96258 0.75717 0.66652 0.0
H365 H 0.01433 0.7405 0.69051 0.0
C366 C 0.9876 0.79529 0.66422 0.0
C367 C 0.97225 0.7373 0.6762 0.0
C368 C 0.94695 0.69601 0.67876 0.0
C369 C 0.02205 0.81412 0.67143 0.0
C370 C 0.03203 0.79404 0.68093 0.0
C371 C 0.00667 0.75602 0.68332 0.0
C372 C 0.0694 0.81086 0.68787 0.0
C373 C 0.04717 0.85538 0.6689 0.0
C374 C 0.1021 0.82603 0.67961 0.0
C375 C 0.13668 0.83643 0.68586 0.0
C376 C 0.13929 0.83141 0.70049 0.0
C377 C 0.10684 0.81789 0.70886 0.0
C378 C 0.07225 0.80767 0.7026 0.0
H379 H 0.03084 0.86867 0.66547 0.0
H380 H 0.06322 0.86979 0.67858 0.0
H381 H 0.06732 0.85957 0.66032 0.0
H382 H 0.10068 0.82798 0.66821 0.0
H383 H 0.16102 0.84653 0.67906 0.0
H384 H 0.71941 0.17282 0.98325 0.0
H385 H 0.66772 0.16735 0.99772 0.0
H386 H 0.66356 0.25151 0.97202 0.0
H387 H 0.71354 0.25504 0.95696 0.0
H388 H 0.66516 0.21418 0.01416 0.0
H389 H 0.55573 0.17978 0.97387 0.0
H390 H 0.59821 0.17939 0.96987 0.0
H391 H 0.59729 0.22249 0.96942 0.0
C392 C 0.70683 0.18953 0.98053 0.0
C393 C 0.72011 0.21408 0.96893 0.0
C394 C 0.67742 0.18653 0.98883 0.0
C395 C 0.66122 0.20861 0.98589 0.0
C396 C 0.67457 0.2332 0.97426 0.0
H397 H 0.5455 0.26672 0.04925 0.0
H398 H 0.59227 0.26167 0.03493 0.0
C399 C 0.70329 0.2354 0.9657 0.0
C400 C 0.63213 0.20754 0.99553 0.0
H401 H 0.54718 0.20263 0.9961 0.0
C402 C 0.63912 0.21115 0.0102 0.0
C403 C 0.59783 0.20301 0.99048 0.0
C404 C 0.58667 0.19553 0.97507 0.0
C405 C 0.61317 0.21089 0.0199 0.0
C406 C 0.57998 0.20879 0.01475 0.0
C407 C 0.57275 0.20465 1.0001 0.0
C408 C 0.55219 0.21074 0.02425 0.0
C409 C 0.62138 0.21196 0.03553 0.0
C410 C 0.51395 0.18437 0.02287 0.0
C411 C 0.48723 0.18804 0.03067 0.0
C412 C 0.49822 0.21765 0.04026 0.0
C413 C 0.53644 0.24327 0.0421 0.0
C414 C 0.56317 0.24023 0.03397 0.0
H415 H 0.63979 0.2001 0.03771 0.0
H416 H 0.63633 0.24139 0.03919 0.0
H417 H 0.59533 0.19618 0.04184 0.0
H418 H 0.50466 0.16134 0.01549 0.0
H419 H 0.45787 0.16796 0.02906 0.0
H420 H 0.25456 0.4664 0.35092 0.0
H421 H 0.30683 0.51414 0.33729 0.0
H422 H 0.35732 0.57513 0.3757 0.0
H423 H 0.30499 0.5272 0.38957 0.0
H424 H 0.32781 0.59065 0.33649 0.0
H425 H 0.44356 0.56976 0.35528 0.0
H426 H 0.39485 0.53491 0.35755 0.0
H427 H 0.41613 0.57505 0.36894 0.0
C428 C 0.27687 0.48975 0.35655 0.0
C429 C 0.27552 0.49296 0.37137 0.0
C430 C 0.30673 0.51701 0.34871 0.0
C431 C 0.33603 0.54793 0.3555 0.0
C432 C 0.33521 0.55112 0.3703 0.0
H433 H 0.53104 0.74883 0.32668 0.0
H434 H 0.48234 0.69677 0.34007 0.0
C435 C 0.30522 0.5238 0.37819 0.0
C436 C 0.36627 0.57773 0.34691 0.0
H437 H 0.46019 0.62191 0.34041 0.0
C438 C 0.35675 0.59743 0.33728 0.0
C439 C 0.40391 0.58643 0.34803 0.0
C440 C 0.41537 0.5653 0.35792 0.0
C441 C 0.38404 0.62618 0.32888 0.0
C442 C 0.42173 0.63484 0.32994 0.0
C443 C 0.43123 0.61505 0.33957 0.0
C444 C 0.45193 0.66541 0.32157 0.0
C445 C 0.37242 0.64772 0.31927 0.0
C446 C 0.4514 0.66472 0.30668 0.0
C447 C 0.47918 0.69466 0.29893 0.0
C448 C 0.50815 0.72562 0.30597 0.0
C449 C 0.50911 0.72556 0.32089 0.0
C450 C 0.48131 0.69576 0.32859 0.0
H451 H 0.3447 0.6439 0.3223 0.0
H452 H 0.39335 0.67801 0.31947 0.0
H453 H 0.37035 0.63762 0.30822 0.0
H454 H 0.42936 0.64115 0.30106 0.0
H455 H 0.47776 0.69368 0.28747 0.0
H456 H 0.78669 0.24838 0.68031 0.0
H457 H 0.79454 0.30098 0.666 0.0
H458 H 0.80127 0.36191 0.70404 0.0
H459 H 0.79409 0.30968 0.71849 0.0
H460 H 0.74747 0.32951 0.66559 0.0
H461 H 0.89017 0.43935 0.68127 0.0
H462 H 0.87221 0.39048 0.68497 0.0
H463 H 0.85931 0.41763 0.69605 0.0
C464 C 0.79023 0.27311 0.68567 0.0
C465 C 0.78976 0.27482 0.70056 0.0
C466 C 0.79474 0.30314 0.67746 0.0
C467 C 0.799 0.33552 0.68396 0.0
C468 C 0.7989 0.33752 0.69881 0.0
H469 H 0.79223 0.53035 0.65776 0.0
H470 H 0.79762 0.48163 0.67026 0.0
C471 C 0.79453 0.30752 0.70705 0.0
C472 C 0.80093 0.36609 0.67518 0.0
H473 H 0.85356 0.45957 0.66852 0.0
C474 C 0.77085 0.35787 0.6661 0.0
C475 C 0.83145 0.40305 0.6759 0.0
C476 C 0.8653 0.41317 0.68497 0.0
C477 C 0.76992 0.38584 0.65804 0.0
C478 C 0.80015 0.42288 0.65894 0.0
C479 C 0.83048 0.43108 0.66786 0.0
C480 C 0.79981 0.45374 0.65119 0.0
C481 C 0.73604 0.37578 0.64899 0.0
C482 C 0.80014 0.45462 0.63632 0.0
C483 C 0.79703 0.48245 0.62911 0.0
C484 C 0.79357 0.50986 0.63668 0.0
C485 C 0.7946 0.50955 0.65159 0.0
C486 C 0.79778 0.4818 0.65877 0.0
H487 H 0.71212 0.34779 0.65168 0.0
H488 H 0.72699 0.39677 0.65023 0.0
H489 H 0.7433 0.37547 0.63767 0.0
H490 H 0.80224 0.43344 0.6303 0.0
H491 H 0.79652 0.48197 0.61763 0.0
H492 H 0.25281 0.78725 0.99412 0.0
H493 H 0.30431 0.79233 0.00842 0.0
H494 H 0.36332 0.79385 0.97045 0.0
H495 H 0.31189 0.78902 0.95595 0.0
H496 H 0.32914 0.74033 0.00831 0.0
H497 H 0.44321 0.8823 0.99377 0.0
H498 H 0.39445 0.86665 0.9905 0.0
H499 H 0.41956 0.85218 0.979 0.0
C500 C 0.27686 0.78904 0.98875 0.0
C501 C 0.27817 0.78766 0.97386 0.0
C502 C 0.30627 0.79195 0.99697 0.0
C503 C 0.33772 0.79381 0.99049 0.0
C504 C 0.33954 0.7931 0.97564 0.0
H505 H 0.53241 0.78758 0.01766 0.0
H506 H 0.48373 0.79284 0.00515 0.0
C507 C 0.31005 0.79016 0.96738 0.0
C508 C 0.3674 0.79407 0.99935 0.0
H509 H 0.4605 0.84468 0.00716 0.0
C510 C 0.35783 0.76325 0.00816 0.0
C511 C 0.40471 0.82402 0.99909 0.0
C512 C 0.41618 0.85835 0.99018 0.0
C513 C 0.38484 0.76104 0.01644 0.0
C514 C 0.42227 0.79087 0.01611 0.0
C515 C 0.43174 0.82192 0.00743 0.0
C516 C 0.45242 0.78937 0.02405 0.0
C517 C 0.37333 0.7262 0.02506 0.0
C518 C 0.45133 0.78634 0.0389 0.0
C519 C 0.47913 0.78307 0.04614 0.0
C520 C 0.50862 0.78311 0.03864 0.0
C521 C 0.51008 0.78728 0.0238 0.0
C522 C 0.4823 0.79039 0.0166 0.0
H523 H 0.3459 0.70266 0.02159 0.0
H524 H 0.39462 0.71738 0.02428 0.0
H525 H 0.37076 0.732 0.03637 0.0
H526 H 0.42887 0.78625 0.04487 0.0
H527 H 0.47731 0.78018 0.05757 0.0
H528 H 0.52469 0.3066 0.28793 0.0
H529 H 0.57168 0.35923 0.30192 0.0
H530 H 0.51143 0.30633 0.34026 0.0
H531 H 0.46465 0.25377 0.32652 0.0
H532 H 0.56202 0.40756 0.32204 0.0
H533 H 0.61868 0.3244 0.34685 0.0
H534 H 0.58993 0.3092 0.33113 0.0
H535 H 0.56885 0.30439 0.34825 0.0
C536 C 0.52136 0.30625 0.29933 0.0
C537 C 0.49108 0.27579 0.3061 0.0
C538 C 0.54818 0.33633 0.30729 0.0
C539 C 0.54521 0.33628 0.32211 0.0
C540 C 0.5145 0.30653 0.32885 0.0
H541 H 0.68988 0.47976 0.38933 0.0
H542 H 0.63674 0.43208 0.3758 0.0
C543 C 0.48773 0.27656 0.32094 0.0
C544 C 0.57453 0.36691 0.33065 0.0
H545 H 0.64134 0.38552 0.35563 0.0
C546 C 0.57949 0.40287 0.32936 0.0
C547 C 0.59705 0.36051 0.34022 0.0
C548 C 0.5937 0.32263 0.34166 0.0
C549 C 0.6062 0.43264 0.33755 0.0
C550 C 0.62885 0.42626 0.34708 0.0
C551 C 0.62374 0.39024 0.34839 0.0
C552 C 0.65927 0.4568 0.35533 0.0
C553 C 0.60952 0.47048 0.33612 0.0
C554 C 0.68942 0.48645 0.34829 0.0
C555 C 0.71972 0.51366 0.35595 0.0
C556 C 0.72064 0.51162 0.37083 0.0
C557 C 0.69003 0.48222 0.37789 0.0
C558 C 0.65968 0.45495 0.37019 0.0
H559 H 0.5836 0.46833 0.33167 0.0
H560 H 0.61546 0.48494 0.34652 0.0
H561 H 0.63293 0.48793 0.3288 0.0
H562 H 0.69005 0.48798 0.33682 0.0
H563 H 0.74282 0.53585 0.35016 0.0
H564 H 0.21369 0.52067 0.62345 0.0
H565 H 0.20766 0.56667 0.63784 0.0
H566 H 0.20698 0.50862 0.67588 0.0
H567 H 0.21348 0.46289 0.66169 0.0
H568 H 0.15249 0.55752 0.65802 0.0
H569 H 0.2932 0.61552 0.68243 0.0
H570 H 0.27922 0.58576 0.66699 0.0
H571 H 0.26369 0.56592 0.68433 0.0
C572 C 0.21216 0.51762 0.63488 0.0
C573 C 0.21447 0.48831 0.64142 0.0
C574 C 0.20866 0.54389 0.64307 0.0
C575 C 0.20752 0.54134 0.65792 0.0
C576 C 0.20859 0.51149 0.66445 0.0
H577 H 0.20787 0.6872 0.72458 0.0
H578 H 0.20206 0.63356 0.71139 0.0
C579 C 0.21218 0.48531 0.6563 0.0
C580 C 0.20589 0.57026 0.66661 0.0
H581 H 0.25444 0.6378 0.6913 0.0
C582 C 0.17475 0.57513 0.66529 0.0
C583 C 0.235 0.59309 0.67609 0.0
C584 C 0.26985 0.59015 0.6775 0.0
C585 C 0.17181 0.60211 0.67333 0.0
C586 C 0.20103 0.62506 0.68274 0.0
C587 C 0.23199 0.61995 0.68413 0.0
C588 C 0.20111 0.65584 0.69075 0.0
C589 C 0.13732 0.60558 0.67179 0.0
C590 C 0.20243 0.68602 0.68349 0.0
C591 C 0.20583 0.71668 0.69096 0.0
C592 C 0.20817 0.71784 0.70586 0.0
C593 C 0.20608 0.68718 0.71312 0.0
C594 C 0.20278 0.65653 0.70562 0.0
H595 H 0.1135 0.57979 0.66731 0.0
H596 H 0.1287 0.61157 0.68217 0.0
H597 H 0.14352 0.629 0.66449 0.0
H598 H 0.20195 0.68637 0.67201 0.0
H599 H 0.20739 0.7398 0.68502 0.0
H600 H 0.39173 0.17041 0.11086 0.0
H601 H 0.38768 0.1639 0.13677 0.0
H602 H 0.4535 0.28374 0.14105 0.0
H603 H 0.45972 0.28994 0.11536 0.0
H604 H 0.47877 0.25612 0.15818 0.0
H605 H 0.32522 0.17665 0.16524 0.0
H606 H 0.34076 0.15194 0.15414 0.0
H607 H 0.34667 0.19611 0.14836 0.0
C608 C 0.40512 0.19526 0.11739 0.0
C609 C 0.42619 0.23064 0.11114 0.0
C610 C 0.40248 0.19159 0.13221 0.0
C611 C 0.4197 0.22337 0.14098 0.0
C612 C 0.44 0.25872 0.13461 0.0
H613 H 0.38159 0.21896 0.23286 0.0
H614 H 0.3788 0.22484 0.20701 0.0
C615 C 0.44355 0.26227 0.1199 0.0
C616 C 0.41895 0.22016 0.15676 0.0
H617 H 0.36186 0.17992 0.18544 0.0
C618 C 0.45304 0.2397 0.1641 0.0
C619 C 0.38546 0.1993 0.16464 0.0
C620 C 0.34746 0.18018 0.15769 0.0
C621 C 0.45472 0.23883 0.17893 0.0
C622 C 0.4216 0.21606 0.18675 0.0
C623 C 0.38737 0.19693 0.17948 0.0
C624 C 0.42219 0.21147 0.2024 0.0
C625 C 0.49201 0.26326 0.18601 0.0
C626 C 0.44677 0.20116 0.20843 0.0
C627 C 0.4491 0.19888 0.22312 0.0
C628 C 0.42593 0.20549 0.23213 0.0
C629 C 0.39995 0.21398 0.22614 0.0
C630 C 0.3983 0.21723 0.21139 0.0
H631 H 0.5104 0.28794 0.17936 0.0
H632 H 0.48862 0.27333 0.19652 0.0
H633 H 0.50655 0.24708 0.18749 0.0
H634 H 0.46439 0.19502 0.20178 0.0
H635 H 0.46882 0.19146 0.22742 0.0
H636 H 0.18236 0.4643 0.44948 0.0
H637 H 0.1841 0.45959 0.47519 0.0
H638 H 0.22608 0.38332 0.47076 0.0
H639 H 0.22185 0.38607 0.44482 0.0
H640 H 0.17964 0.36164 0.49178 0.0
H641 H 0.27419 0.51301 0.49874 0.0
H642 H 0.23204 0.50456 0.49015 0.0
H643 H 0.26287 0.4916 0.48147 0.0
C644 C 0.19204 0.44656 0.45398 0.0
C645 C 0.20253 0.42598 0.44517 0.0
C646 C 0.19329 0.44409 0.46871 0.0
C647 C 0.2065 0.42216 0.475 0.0
C648 C 0.21616 0.40078 0.46619 0.0
H649 H 0.27904 0.46493 0.56263 0.0
H650 H 0.27446 0.45955 0.53691 0.0
C651 C 0.21386 0.40242 0.45139 0.0
C652 C 0.21009 0.42171 0.49072 0.0
H653 H 0.24261 0.47893 0.51959 0.0
C654 C 0.1938 0.38729 0.49787 0.0
C655 C 0.22921 0.45509 0.49872 0.0
C656 C 0.25091 0.49306 0.49184 0.0
C657 C 0.19549 0.38534 0.51273 0.0
C658 C 0.2125 0.4188 0.52077 0.0
C659 C 0.22912 0.45315 0.51356 0.0
C660 C 0.21499 0.41944 0.53658 0.0
C661 C 0.17997 0.34744 0.51954 0.0
C662 C 0.18324 0.39846 0.54518 0.0
C663 C 0.18617 0.40065 0.56002 0.0
C664 C 0.22056 0.42499 0.56648 0.0
C665 C 0.25207 0.44622 0.55791 0.0
C666 C 0.24944 0.44313 0.54318 0.0
H667 H 0.17981 0.32675 0.51198 0.0
H668 H 0.19643 0.34858 0.52901 0.0
H669 H 0.15059 0.3372 0.52283 0.0
H670 H 0.15605 0.38091 0.54045 0.0
H671 H 0.16142 0.38418 0.56641 0.0
H672 H 0.81822 0.18109 0.89701 0.0
H673 H 0.82207 0.17578 0.87118 0.0
H674 H 0.77729 0.24907 0.86509 0.0
H675 H 0.77363 0.25478 0.89068 0.0
H676 H 0.76612 0.15228 0.84961 0.0
H677 H 0.87606 0.30023 0.84268 0.0
H678 H 0.86462 0.27736 0.85975 0.0
H679 H 0.83616 0.29477 0.85237 0.0
C680 C 0.80895 0.19584 0.89015 0.0
C681 C 0.7959 0.2186 0.89592 0.0
C682 C 0.81124 0.19283 0.87541 0.0
C683 C 0.80075 0.2127 0.86623 0.0
C684 C 0.78638 0.23421 0.87197 0.0
H685 H 0.76782 0.2445 0.78003 0.0
H686 H 0.77603 0.24445 0.80564 0.0
C687 C 0.78409 0.23724 0.88664 0.0
C688 C 0.80474 0.21139 0.85062 0.0
H689 H 0.84324 0.26769 0.82171 0.0
C690 C 0.78345 0.17734 0.84349 0.0
C691 C 0.82757 0.24412 0.84268 0.0
C692 C 0.8527 0.28113 0.84976 0.0
C693 C 0.78271 0.17557 0.82859 0.0
C694 C 0.80421 0.20866 0.82066 0.0
C695 C 0.82669 0.24239 0.82781 0.0
C696 C 0.80122 0.20956 0.805 0.0
C697 C 0.75755 0.13874 0.82141 0.0
C698 C 0.81345 0.1906 0.79608 0.0
C699 C 0.80894 0.19071 0.78134 0.0
C700 C 0.79206 0.20972 0.77532 0.0
C701 C 0.78082 0.22947 0.7843 0.0
C702 C 0.78549 0.22949 0.79896 0.0
H703 H 0.73844 0.11704 0.82903 0.0
H704 H 0.74051 0.14213 0.81308 0.0
H705 H 0.77496 0.12866 0.8162 0.0
H706 H 0.82618 0.1755 0.80052 0.0
H707 H 0.81789 0.17523 0.77472 0.0
H708 H 0.61732 0.83311 0.11095 0.0
H709 H 0.62057 0.83913 0.13687 0.0
H710 H 0.54698 0.72007 0.14082 0.0
H711 H 0.54166 0.71459 0.1151 0.0
H712 H 0.52478 0.75055 0.1579 0.0
H713 H 0.67788 0.82004 0.16558 0.0
H714 H 0.66555 0.8473 0.15448 0.0
H715 H 0.65637 0.80201 0.14861 0.0
C716 C 0.60203 0.80832 0.11741 0.0
C717 C 0.57911 0.77344 0.11105 0.0
C718 C 0.6042 0.81167 0.13224 0.0
C719 C 0.58458 0.77996 0.14093 0.0
C720 C 0.56235 0.74505 0.13445 0.0
H721 H 0.61861 0.77922 0.23289 0.0
H722 H 0.62167 0.7738 0.20701 0.0
C723 C 0.55932 0.74191 0.11972 0.0
C724 C 0.585 0.78293 0.15672 0.0
H725 H 0.64189 0.81922 0.18566 0.0
C726 C 0.55053 0.7653 0.16393 0.0
C727 C 0.61845 0.8016 0.16475 0.0
C728 C 0.65662 0.81843 0.15796 0.0
C729 C 0.54846 0.76591 0.17876 0.0
C730 C 0.58173 0.78659 0.18673 0.0
C731 C 0.6163 0.80384 0.17959 0.0
C732 C 0.58102 0.79087 0.20241 0.0
C733 C 0.51053 0.74333 0.18567 0.0
C734 C 0.55794 0.80309 0.20847 0.0
C735 C 0.55536 0.80506 0.22317 0.0
C736 C 0.5769 0.79627 0.23218 0.0
C737 C 0.60152 0.78591 0.22617 0.0
C738 C 0.60333 0.78292 0.2114 0.0
H739 H 0.4912 0.71939 0.1789 0.0
H740 H 0.51257 0.7323 0.19616 0.0
H741 H 0.49785 0.76123 0.18715 0.0
H742 H 0.54165 0.81096 0.20183 0.0
H743 H 0.53676 0.81397 0.22749 0.0
H744 H 0.76638 0.52595 0.55922 0.0
H745 H 0.77556 0.53537 0.53371 0.0
H746 H 0.82916 0.65449 0.53962 0.0
H747 H 0.8199 0.64529 0.56539 0.0
H748 H 0.77189 0.62459 0.51817 0.0
H749 H 0.87374 0.57596 0.51109 0.0
H750 H 0.83326 0.54399 0.52114 0.0
H751 H 0.86454 0.58971 0.52813 0.0
C752 C 0.78046 0.55424 0.55516 0.0
C753 C 0.79254 0.5849 0.56436 0.0
C754 C 0.78583 0.55956 0.54055 0.0
C755 C 0.80347 0.59563 0.53478 0.0
C756 C 0.81571 0.62643 0.54389 0.0
H757 H 0.82449 0.6445 0.44269 0.0
H758 H 0.82824 0.65403 0.46849 0.0
C759 C 0.81051 0.62113 0.55859 0.0
C760 C 0.80745 0.60046 0.51916 0.0
H761 H 0.84087 0.57667 0.49026 0.0
C762 C 0.78752 0.6148 0.51203 0.0
C763 C 0.82795 0.58775 0.51121 0.0
C764 C 0.8514 0.57382 0.51828 0.0
C765 C 0.78574 0.61465 0.49713 0.0
C766 C 0.80475 0.60019 0.48921 0.0
C767 C 0.82608 0.5875 0.49635 0.0
C768 C 0.80073 0.59518 0.4736 0.0
C769 C 0.76202 0.62811 0.48997 0.0
C770 C 0.78403 0.55903 0.46794 0.0
C771 C 0.78193 0.55352 0.4533 0.0
C772 C 0.79666 0.5841 0.44394 0.0
C773 C 0.8127 0.62036 0.44961 0.0
C774 C 0.8148 0.62585 0.46434 0.0
H775 H 0.74432 0.63273 0.49766 0.0
H776 H 0.78049 0.65489 0.48448 0.0
H777 H 0.74363 0.60765 0.48188 0.0
H778 H 0.77298 0.53497 0.4749 0.0
H779 H 0.76937 0.52522 0.44933 0.0
H780 H 0.23669 0.75676 0.89424 0.0
H781 H 0.23335 0.7627 0.86865 0.0
H782 H 0.17627 0.82487 0.87478 0.0
H783 H 0.17975 0.8193 0.90058 0.0
H784 H 0.16579 0.73516 0.85321 0.0
H785 H 0.25926 0.88812 0.84556 0.0
H786 H 0.26037 0.86436 0.86145 0.0
H787 H 0.22289 0.87375 0.85866 0.0
C788 C 0.22383 0.77215 0.8902 0.0
C789 C 0.20848 0.78756 0.89948 0.0
C790 C 0.22188 0.77543 0.87554 0.0
C791 C 0.20471 0.79433 0.86979 0.0
C792 C 0.1901 0.81059 0.87899 0.0
H793 H 0.18159 0.82344 0.77823 0.0
H794 H 0.17336 0.82327 0.80407 0.0
C795 C 0.19205 0.80732 0.89373 0.0
C796 C 0.2006 0.79497 0.85417 0.0
H797 H 0.23144 0.852 0.82513 0.0
C798 C 0.1799 0.76075 0.84708 0.0
C799 C 0.21871 0.8284 0.8462 0.0
C800 C 0.2418 0.86581 0.85328 0.0
C801 C 0.17767 0.75893 0.83223 0.0
C802 C 0.19717 0.79216 0.82422 0.0
C803 C 0.21655 0.82657 0.8313 0.0
C804 C 0.20054 0.79131 0.80857 0.0
C805 C 0.15481 0.72135 0.82523 0.0
C806 C 0.21865 0.77357 0.80257 0.0
C807 C 0.22342 0.77367 0.78792 0.0
C808 C 0.21027 0.79162 0.77889 0.0
C809 C 0.1918 0.80915 0.78489 0.0
C810 C 0.1872 0.8092 0.79963 0.0
H811 H 0.13303 0.70082 0.83251 0.0
H812 H 0.141 0.72352 0.81547 0.0
H813 H 0.17351 0.71041 0.82223 0.0
H814 H 0.22975 0.76017 0.80927 0.0
H815 H 0.23791 0.76004 0.78369 0.0
H816 H 0.55146 0.64518 0.07682 0.0
H817 H 0.52453 0.57788 0.07431 0.0
H818 H 0.55516 0.59226 0.03005 0.0
H819 H 0.58318 0.65997 0.03259 0.0
H820 H 0.46575 0.53358 0.05764 0.0
H821 H 0.58831 0.51985 0.04233 0.0
H822 H 0.59319 0.56249 0.04951 0.0
H823 H 0.5807 0.55061 0.03121 0.0
C824 C 0.55318 0.63414 0.06661 0.0
C825 C 0.5695 0.65794 0.0549 0.0
C826 C 0.53763 0.59562 0.06518 0.0
C827 C 0.53787 0.57996 0.05201 0.0
C828 C 0.55523 0.6037 0.04038 0.0
H829 H 0.42832 0.34078 0.03042 0.0
H830 H 0.4528 0.4083 0.02812 0.0
C831 C 0.57122 0.64242 0.04184 0.0
C832 C 0.51768 0.53871 0.0504 0.0
H833 H 0.52907 0.46467 0.04204 0.0
C834 C 0.47962 0.51857 0.05417 0.0
C835 C 0.5357 0.51911 0.04579 0.0
C836 C 0.57679 0.53902 0.04209 0.0
C837 C 0.45937 0.47943 0.05377 0.0
C838 C 0.47757 0.45992 0.04946 0.0
C839 C 0.51521 0.4799 0.04523 0.0
C840 C 0.45917 0.41885 0.05069 0.0
C841 C 0.41879 0.45903 0.05819 0.0
C842 C 0.45417 0.40262 0.06413 0.0
C843 C 0.44057 0.36439 0.06547 0.0
C844 C 0.43142 0.34156 0.05338 0.0
C845 C 0.4348 0.3576 0.03992 0.0
C846 C 0.44897 0.39612 0.03858 0.0
H847 H 0.40687 0.47786 0.05856 0.0
H848 H 0.40192 0.43567 0.05079 0.0
H849 H 0.4163 0.44696 0.06891 0.0
H850 H 0.46209 0.41981 0.07358 0.0
H851 H 0.43826 0.35286 0.07598 0.0
H852 H 0.92874 0.58902 0.37183 0.0
H853 H 0.96968 0.56209 0.37002 0.0
H854 H 0.92153 0.49938 0.40837 0.0
H855 H 0.88041 0.52561 0.4102 0.0
H856 H 0.02264 0.56367 0.38858 0.0
H857 H 0.90788 0.41842 0.38022 0.0
H858 H 0.90116 0.45815 0.37868 0.0
H859 H 0.90146 0.43936 0.39585 0.0
C860 C 0.92705 0.56969 0.37993 0.0
C861 C 0.90105 0.55925 0.3911 0.0
C862 C 0.95036 0.55424 0.37885 0.0
C863 C 0.94794 0.52802 0.38887 0.0
C864 C 0.92311 0.51874 0.40031 0.0
H865 H 0.10514 0.46019 0.41179 0.0
H866 H 0.06249 0.48459 0.40995 0.0
C867 C 0.89982 0.53405 0.40139 0.0
C868 C 0.97164 0.5106 0.38757 0.0
H869 H 0.96768 0.42618 0.38632 0.0
C870 C 0.01065 0.53365 0.38794 0.0
C871 C 0.95596 0.47144 0.38648 0.0
C872 C 0.91433 0.4454 0.38513 0.0
C873 C 0.03438 0.51849 0.38788 0.0
C874 C 0.0186 0.47922 0.38769 0.0
C875 C 0.97967 0.45623 0.38667 0.0
C876 C 0.04212 0.46167 0.38911 0.0
C877 C 0.07616 0.54467 0.38808 0.0
C878 C 0.04337 0.43898 0.37829 0.0
C879 C 0.06759 0.42457 0.37935 0.0
C880 C 0.09085 0.43261 0.39128 0.0
C881 C 0.08799 0.45378 0.40238 0.0
C882 C 0.06379 0.468 0.40132 0.0
H883 H 0.08371 0.57284 0.38409 0.0
H884 H 0.08641 0.5478 0.39915 0.0
H885 H 0.09087 0.53362 0.38156 0.0
H886 H 0.02651 0.43343 0.36884 0.0
H887 H 0.06911 0.40837 0.37062 0.0
H888 H 0.66117 0.05674 0.71387 0.0
H889 H 0.59348 0.01302 0.71389 0.0
H890 H 0.57621 0.09175 0.73798 0.0
H891 H 0.64337 0.13474 0.73843 0.0
H892 H 0.5351 0.02423 0.74836 0.0
H893 H 0.51547 0.01829 0.69009 0.0
H894 H 0.54839 0.0046 0.69565 0.0
H895 H 0.55865 0.0518 0.69848 0.0
C896 C 0.64293 0.06463 0.71921 0.0
C897 C 0.65777 0.0993 0.72613 0.0
C898 C 0.60419 0.03977 0.71909 0.0
C899 C 0.57961 0.04939 0.72568 0.0
C900 C 0.59451 0.08371 0.73276 0.0
H901 H 0.33713 0.93809 0.71313 0.0
H902 H 0.40468 0.98272 0.71305 0.0
C903 C 0.63306 0.1083 0.73302 0.0
C904 C 0.53839 0.02369 0.72558 0.0
H905 H 0.46287 0.9757 0.70383 0.0
C906 C 0.51934 0.01373 0.73861 0.0
C907 C 0.51764 0.01052 0.71285 0.0
C908 C 0.53599 0.02212 0.69847 0.0
C909 C 0.48031 0.99074 0.7393 0.0
C910 C 0.45974 0.97622 0.72662 0.0
C911 C 0.47866 0.98656 0.71356 0.0
C912 C 0.41874 0.94957 0.72673 0.0
C913 C 0.46153 0.98293 0.75363 0.0
C914 C 0.40424 0.916 0.7343 0.0
C915 C 0.36582 0.89082 0.73452 0.0
C916 C 0.34091 0.89824 0.72694 0.0
C917 C 0.35549 0.93162 0.71914 0.0
C918 C 0.39408 0.95708 0.71905 0.0
H919 H 0.47877 0.00516 0.7614 0.0
H920 H 0.43359 0.9806 0.75295 0.0
H921 H 0.45785 0.95622 0.75779 0.0
H922 H 0.42272 0.90901 0.73996 0.0
H923 H 0.35576 0.86517 0.74048 0.0
H924 H 0.66145 0.59744 0.63026 0.0
H925 H 0.59345 0.57148 0.6309 0.0
H926 H 0.57848 0.48063 0.60404 0.0
H927 H 0.64592 0.50693 0.6029 0.0
H928 H 0.5358 0.5061 0.59532 0.0
H929 H 0.51685 0.48418 0.65337 0.0
H930 H 0.5487 0.53189 0.64872 0.0
H931 H 0.56042 0.49648 0.64462 0.0
C932 C 0.64363 0.572 0.62447 0.0
C933 C 0.6592 0.55432 0.61653 0.0
C934 C 0.60472 0.55696 0.62496 0.0
C935 C 0.5807 0.52361 0.61776 0.0
C936 C 0.59632 0.50627 0.60973 0.0
H937 H 0.33729 0.39081 0.63048 0.0
H938 H 0.40466 0.41243 0.63025 0.0
C939 C 0.63503 0.52146 0.60908 0.0
C940 C 0.53934 0.50709 0.61812 0.0
H941 H 0.46389 0.47603 0.64026 0.0
C942 C 0.52012 0.49937 0.60516 0.0
C943 C 0.51865 0.49753 0.63094 0.0
C944 C 0.53714 0.50256 0.64519 0.0
C945 C 0.48107 0.48305 0.60466 0.0
C946 C 0.46059 0.47533 0.61747 0.0
C947 C 0.47961 0.48226 0.63044 0.0
C948 C 0.41972 0.46161 0.61758 0.0
C949 C 0.46216 0.47375 0.59035 0.0
C950 C 0.40589 0.48222 0.61072 0.0
C951 C 0.36766 0.46976 0.61067 0.0
C952 C 0.34221 0.43665 0.61774 0.0
C953 C 0.35608 0.41625 0.62486 0.0
C954 C 0.39456 0.42864 0.62477 0.0
H955 H 0.47923 0.46938 0.58228 0.0
H956 H 0.43409 0.44826 0.59084 0.0
H957 H 0.45879 0.49739 0.58672 0.0
H958 H 0.42477 0.50829 0.60547 0.0
H959 H 0.35818 0.48658 0.60525 0.0
H960 H 0.12128 0.6447 0.93194 0.0
H961 H 0.07834 0.57754 0.93307 0.0
H962 H 0.02773 0.59204 0.97077 0.0
H963 H 0.07037 0.65965 0.9696 0.0
H964 H 0.07182 0.52962 0.95479 0.0
H965 H 0.93735 0.52668 0.94576 0.0
H966 H 0.98218 0.56752 0.94224 0.0
H967 H 0.96513 0.55595 0.96012 0.0
C968 C 0.10077 0.63377 0.9404 0.0
C969 C 0.09924 0.65764 0.95067 0.0
C970 C 0.07633 0.5953 0.94105 0.0
C971 C 0.04974 0.57979 0.95196 0.0
C972 C 0.04767 0.60348 0.96213 0.0
H973 H 0.92551 0.33902 0.9707 0.0
H974 H 0.96936 0.40641 0.97232 0.0
C975 C 0.07209 0.64212 0.96146 0.0
C976 C 0.02503 0.5387 0.95276 0.0
H977 H 0.93383 0.46911 0.95073 0.0
C978 C 0.04161 0.51634 0.95396 0.0
C979 C 0.9857 0.52151 0.95159 0.0
C980 C 0.96643 0.54404 0.94973 0.0
C981 C 0.01994 0.47719 0.95383 0.0
C982 C 0.98062 0.46002 0.95267 0.0
C983 C 0.96401 0.48239 0.95168 0.0
C984 C 0.95618 0.41896 0.95156 0.0
C985 C 0.03937 0.45457 0.95443 0.0
C986 C 0.93437 0.40371 0.93937 0.0
C987 C 0.90931 0.36545 0.93844 0.0
C988 C 0.90537 0.3415 0.94972 0.0
C989 C 0.92807 0.35665 0.96179 0.0
C990 C 0.95315 0.39514 0.96273 0.0
H991 H 0.06983 0.47191 0.95224 0.0
H992 H 0.03585 0.44236 0.96518 0.0
H993 H 0.02691 0.43127 0.94667 0.0
H994 H 0.93637 0.42156 0.93061 0.0
H995 H 0.89242 0.35479 0.92897 0.0
H996 H 0.59278 0.93172 0.30587 0.0
H997 H 0.5663 0.97306 0.30761 0.0
H998 H 0.5125 0.93348 0.26711 0.0
H999 H 0.53838 0.89212 0.2653 0.0
H1000 H 0.57107 0.02991 0.28956 0.0
H1001 H 0.4253 0.91235 0.29392 0.0
H1002 H 0.46547 0.9065 0.29625 0.0
H1003 H 0.44973 0.90901 0.27873 0.0
C1004 C 0.5757 0.93217 0.29726 0.0
C1005 C 0.5674 0.90831 0.28551 0.0
C1006 C 0.56047 0.95567 0.2983 0.0
C1007 C 0.53666 0.95555 0.28766 0.0
C1008 C 0.52998 0.93325 0.27561 0.0
H1009 H 0.46687 0.11129 0.26552 0.0
H1010 H 0.49303 0.0702 0.26741 0.0
C1011 C 0.54507 0.9098 0.27456 0.0
C1012 C 0.51839 0.9784 0.28907 0.0
H1013 H 0.43279 0.9724 0.28897 0.0
C1014 C 0.54086 0.01737 0.28958 0.0
C1015 C 0.47894 0.96192 0.28935 0.0
C1016 C 0.45341 0.92013 0.28968 0.0
C1017 C 0.5249 0.04038 0.2897 0.0
C1018 C 0.48548 0.02393 0.28908 0.0
C1019 C 0.46299 0.98494 0.28925 0.0
C1020 C 0.46729 0.04685 0.28766 0.0
C1021 C 0.55039 0.08214 0.29041 0.0
C1022 C 0.44255 0.04596 0.29809 0.0
C1023 C 0.42716 0.0693 0.297 0.0
C1024 C 0.43621 0.09377 0.28542 0.0
C1025 C 0.45957 0.09313 0.27467 0.0
C1026 C 0.47482 0.06984 0.27577 0.0
H1027 H 0.57817 0.08966 0.29489 0.0
H1028 H 0.55491 0.09391 0.27954 0.0
H1029 H 0.53784 0.09539 0.29695 0.0
H1030 H 0.43605 0.02803 0.30728 0.0
H1031 H 0.40928 0.0691 0.30545 0.0
loop_
_geom_bond_atom_site_label_1
_geom_bond_atom_site_label_2
_geom_bond_distance
_geom_bond_site_symmetry_2
_ccdc_geom_bond_type
O0 Cd1 2.223 . S
O0 C8 1.315 . S
Cd1 O0 2.223 . S
Cd1 O4 2.297 . S
Cd1 O5 2.439 . S
Cd1 O11 2.240 . S
Cd2 O3 2.240 . S
Cd2 O10 2.223 . S
Cd2 O12 2.297 . S
Cd2 O13 2.439 . S
O3 Cd2 2.240 . S
O3 C8 1.279 . S
O4 Cd1 2.297 . S
O4 C6 1.247 . S
O5 Cd1 2.439 . S
O5 C6 1.208 . S
C6 O4 1.247 . S
C6 O5 1.208 . S
C7 O12 1.247 . S
C7 O13 1.208 . S
C8 O0 1.315 . S
C8 O3 1.279 . S
C9 O10 1.315 . S
C9 O11 1.279 . S
O10 Cd2 2.223 . S
O10 C9 1.315 . S
O11 Cd1 2.240 . S
O11 C9 1.279 . S
O12 Cd2 2.297 . S
O12 C7 1.247 . S
O13 Cd2 2.439 . S
O13 C7 1.208 . S
O14 Cd15 2.223 . S
O14 C22 1.315 . S
Cd15 O14 2.223 . S
Cd15 O18 2.297 . S
Cd15 O19 2.439 . S
Cd15 O25 2.240 . S
Cd16 O17 2.240 . S
Cd16 O24 2.223 . S
Cd16 O26 2.297 . S
Cd16 O27 2.439 . S
O17 Cd16 2.240 . S
O17 C22 1.279 . S
O18 Cd15 2.297 . S
O18 C20 1.247 . S
O19 Cd15 2.439 . S
O19 C20 1.208 . S
C20 O18 1.247 . S
C20 O19 1.208 . S
C21 O26 1.247 . S
C21 O27 1.208 . S
C22 O14 1.315 . S
C22 O17 1.279 . S
C23 O24 1.315 . S
C23 O25 1.279 . S
O24 Cd16 2.223 . S
O24 C23 1.315 . S
O25 Cd15 2.240 . S
O25 C23 1.279 . S
O26 Cd16 2.297 . S
O26 C21 1.247 . S
O27 Cd16 2.439 . S
O27 C21 1.208 . S
O28 Cd29 2.223 . S
O28 C36 1.315 . S
Cd29 O28 2.223 . S
Cd29 O32 2.297 . S
Cd29 O33 2.439 . S
Cd29 O39 2.240 . S
Cd30 O31 2.240 . S
Cd30 O38 2.223 . S
Cd30 O40 2.297 . S
Cd30 O41 2.439 . S
O31 Cd30 2.240 . S
O31 C36 1.279 . S
O32 Cd29 2.297 . S
O32 C34 1.247 . S
O33 Cd29 2.439 . S
O33 C34 1.208 . S
C34 O32 1.247 . S
C34 O33 1.208 . S
C35 O40 1.247 . S
C35 O41 1.208 . S
C36 O28 1.315 . S
C36 O31 1.279 . S
C37 O38 1.315 . S
C37 O39 1.279 . S
O38 Cd30 2.223 . S
O38 C37 1.315 . S
O39 Cd29 2.240 . S
O39 C37 1.279 . S
O40 Cd30 2.297 . S
O40 C35 1.247 . S
O41 Cd30 2.439 . S
O41 C35 1.208 . S
O42 Cd43 2.223 . S
O42 C50 1.315 . S
Cd43 O42 2.223 . S
Cd43 O46 2.297 . S
Cd43 O47 2.439 . S
Cd43 O53 2.240 . S
Cd44 O45 2.240 . S
Cd44 O52 2.223 . S
Cd44 O54 2.297 . S
Cd44 O55 2.439 . S
O45 Cd44 2.240 . S
O45 C50 1.279 . S
O46 Cd43 2.297 . S
O46 C48 1.247 . S
O47 Cd43 2.439 . S
O47 C48 1.208 . S
C48 O46 1.247 . S
C48 O47 1.208 . S
C49 O54 1.247 . S
C49 O55 1.208 . S
C50 O42 1.315 . S
C50 O45 1.279 . S
C51 O52 1.315 . S
C51 O53 1.279 . S
O52 Cd44 2.223 . S
O52 C51 1.315 . S
O53 Cd43 2.240 . S
O53 C51 1.279 . S
O54 Cd44 2.297 . S
O54 C49 1.247 . S
O55 Cd44 2.439 . S
O55 C49 1.208 . S
O56 Cd57 2.223 . S
O56 C64 1.315 . S
Cd57 O56 2.223 . S
Cd57 O60 2.297 . S
Cd57 O61 2.439 . S
Cd57 O67 2.240 . S
Cd58 O59 2.240 . S
Cd58 O66 2.223 . S
Cd58 O68 2.297 . S
Cd58 O69 2.439 . S
O59 Cd58 2.240 . S
O59 C64 1.279 . S
O60 Cd57 2.297 . S
O60 C62 1.247 . S
O61 Cd57 2.439 . S
O61 C62 1.208 . S
C62 O60 1.247 . S
C62 O61 1.208 . S
C63 O68 1.247 . S
C63 O69 1.208 . S
C64 O56 1.315 . S
C64 O59 1.279 . S
C65 O66 1.315 . S
C65 O67 1.279 . S
O66 Cd58 2.223 . S
O66 C65 1.315 . S
O67 Cd57 2.240 . S
O67 C65 1.279 . S
O68 Cd58 2.297 . S
O68 C63 1.247 . S
O69 Cd58 2.439 . S
O69 C63 1.208 . S
O70 Cd71 2.223 . S
O70 C78 1.315 . S
Cd71 O70 2.223 . S
Cd71 O74 2.297 . S
Cd71 O75 2.439 . S
Cd71 O81 2.240 . S
Cd72 O73 2.240 . S
Cd72 O80 2.223 . S
Cd72 O82 2.297 . S
Cd72 O83 2.439 . S
O73 Cd72 2.240 . S
O73 C78 1.279 . S
O74 Cd71 2.297 . S
O74 C76 1.247 . S
O75 Cd71 2.439 . S
O75 C76 1.208 . S
C76 O74 1.247 . S
C76 O75 1.208 . S
C77 O82 1.247 . S
C77 O83 1.208 . S
C78 O70 1.315 . S
C78 O73 1.279 . S
C79 O80 1.315 . S
C79 O81 1.279 . S
O80 Cd72 2.223 . S
O80 C79 1.315 . S
O81 Cd71 2.240 . S
O81 C79 1.279 . S
O82 Cd72 2.297 . S
O82 C77 1.247 . S
O83 Cd72 2.439 . S
O83 C77 1.208 . S
O84 Cd85 2.223 . S
O84 C92 1.315 . S
Cd85 O84 2.223 . S
Cd85 O88 2.297 . S
Cd85 O89 2.439 . S
Cd85 O95 2.240 . S
Cd86 O87 2.240 . S
Cd86 O94 2.223 . S
Cd86 O96 2.297 . S
Cd86 O97 2.439 . S
O87 Cd86 2.240 . S
O87 C92 1.279 . S
O88 Cd85 2.297 . S
O88 C90 1.247 . S
O89 Cd85 2.439 . S
O89 C90 1.208 . S
C90 O88 1.247 . S
C90 O89 1.208 . S
C91 O96 1.247 . S
C91 O97 1.208 . S
C92 O84 1.315 . S
C92 O87 1.279 . S
C93 O94 1.315 . S
C93 O95 1.279 . S
O94 Cd86 2.223 . S
O94 C93 1.315 . S
O95 Cd85 2.240 . S
O95 C93 1.279 . S
O96 Cd86 2.297 . S
O96 C91 1.247 . S
O97 Cd86 2.439 . S
O97 C91 1.208 . S
O98 Cd99 2.223 . S
O98 C106 1.315 . S
Cd99 O98 2.223 . S
Cd99 O102 2.297 . S
Cd99 O103 2.439 . S
Cd99 O109 2.240 . S
Cd100 O101 2.240 . S
Cd100 O108 2.223 . S
Cd100 O110 2.297 . S
Cd100 O111 2.439 . S
O101 Cd100 2.240 . S
O101 C106 1.279 . S
O102 Cd99 2.297 . S
O102 C104 1.247 . S
O103 Cd99 2.439 . S
O103 C104 1.208 . S
C104 O102 1.247 . S
C104 O103 1.208 . S
C105 O110 1.247 . S
C105 O111 1.208 . S
C106 O98 1.315 . S
C106 O101 1.279 . S
C107 O108 1.315 . S
C107 O109 1.279 . S
O108 Cd100 2.223 . S
O108 C107 1.315 . S
O109 Cd99 2.240 . S
O109 C107 1.279 . S
O110 Cd100 2.297 . S
O110 C105 1.247 . S
O111 Cd100 2.439 . S
O111 C105 1.208 . S
O112 Cd113 2.223 . S
O112 C120 1.315 . S
Cd113 O112 2.223 . S
Cd113 O116 2.297 . S
Cd113 O117 2.439 . S
Cd113 O123 2.240 . S
Cd114 O115 2.240 . S
Cd114 O122 2.223 . S
Cd114 O124 2.297 . S
Cd114 O125 2.439 . S
O115 Cd114 2.240 . S
O115 C120 1.279 . S
O116 Cd113 2.297 . S
O116 C118 1.247 . S
O117 Cd113 2.439 . S
O117 C118 1.208 . S
C118 O116 1.247 . S
C118 O117 1.208 . S
C119 O124 1.247 . S
C119 O125 1.208 . S
C120 O112 1.315 . S
C120 O115 1.279 . S
C121 O122 1.315 . S
C121 O123 1.279 . S
O122 Cd114 2.223 . S
O122 C121 1.315 . S
O123 Cd113 2.240 . S
O123 C121 1.279 . S
O124 Cd114 2.297 . S
O124 C119 1.247 . S
O125 Cd114 2.439 . S
O125 C119 1.208 . S
O126 Cd127 2.223 . S
O126 C134 1.315 . S
Cd127 O126 2.223 . S
Cd127 O130 2.297 . S
Cd127 O131 2.439 . S
Cd127 O137 2.240 . S
Cd128 O129 2.240 . S
Cd128 O136 2.223 . S
Cd128 O138 2.297 . S
Cd128 O139 2.439 . S
O129 Cd128 2.240 . S
O129 C134 1.279 . S
O130 Cd127 2.297 . S
O130 C132 1.247 . S
O131 Cd127 2.439 . S
O131 C132 1.208 . S
C132 O130 1.247 . S
C132 O131 1.208 . S
C133 O138 1.247 . S
C133 O139 1.208 . S
C134 O126 1.315 . S
C134 O129 1.279 . S
C135 O136 1.315 . S
C135 O137 1.279 . S
O136 Cd128 2.223 . S
O136 C135 1.315 . S
O137 Cd127 2.240 . S
O137 C135 1.279 . S
O138 Cd128 2.297 . S
O138 C133 1.247 . S
O139 Cd128 2.439 . S
O139 C133 1.208 . S
O140 Cd141 2.223 . S
O140 C148 1.315 . S
Cd141 O140 2.223 . S
Cd141 O144 2.297 . S
Cd141 O145 2.439 . S
Cd141 O151 2.240 . S
Cd142 O143 2.240 . S
Cd142 O150 2.223 . S
Cd142 O152 2.297 . S
Cd142 O153 2.439 . S
O143 Cd142 2.240 . S
O143 C148 1.279 . S
O144 Cd141 2.297 . S
O144 C146 1.247 . S
O145 Cd141 2.439 . S
O145 C146 1.208 . S
C146 O144 1.247 . S
C146 O145 1.208 . S
C147 O152 1.247 . S
C147 O153 1.208 . S
C148 O140 1.315 . S
C148 O143 1.279 . S
C149 O150 1.315 . S
C149 O151 1.279 . S
O150 Cd142 2.223 . S
O150 C149 1.315 . S
O151 Cd141 2.240 . S
O151 C149 1.279 . S
O152 Cd142 2.297 . S
O152 C147 1.247 . S
O153 Cd142 2.439 . S
O153 C147 1.208 . S
O154 Cd155 2.223 . S
O154 C162 1.315 . S
Cd155 O154 2.223 . S
Cd155 O158 2.297 . S
Cd155 O159 2.439 . S
Cd155 O165 2.240 . S
Cd156 O157 2.240 . S
Cd156 O164 2.223 . S
Cd156 O166 2.297 . S
Cd156 O167 2.439 . S
O157 Cd156 2.240 . S
O157 C162 1.279 . S
O158 Cd155 2.297 . S
O158 C160 1.247 . S
O159 Cd155 2.439 . S
O159 C160 1.208 . S
C160 O158 1.247 . S
C160 O159 1.208 . S
C161 O166 1.247 . S
C161 O167 1.208 . S
C162 O154 1.315 . S
C162 O157 1.279 . S
C163 O164 1.315 . S
C163 O165 1.279 . S
O164 Cd156 2.223 . S
O164 C163 1.315 . S
O165 Cd155 2.240 . S
O165 C163 1.279 . S
O166 Cd156 2.297 . S
O166 C161 1.247 . S
O167 Cd156 2.439 . S
O167 C161 1.208 . S
H168 C176 0.929 . S
H169 C178 0.930 . S
H170 C180 0.930 . S
H171 C183 0.929 . S
H172 C186 0.930 . S
H173 C188 0.960 . S
H174 C188 0.960 . S
H175 C188 0.960 . S
C176 H168 0.929 . S
C176 C177 1.377 . S
C176 C178 1.384 . S
C177 C176 1.377 . S
C177 C183 1.390 . S
C178 H169 0.930 . S
C178 C176 1.384 . S
C178 C179 1.372 . S
C179 C178 1.372 . S
C179 C180 1.400 . S
C179 C184 1.490 . S
C180 H170 0.930 . S
C180 C179 1.400 . S
C180 C183 1.386 . S
H181 C197 0.930 . S
H182 C198 0.931 . S
C183 H171 0.929 . S
C183 C177 1.390 . S
C183 C180 1.386 . S
C184 C179 1.490 . S
C184 C186 1.395 . S
C184 C187 1.403 1_556 S
H185 C191 0.930 . S
C186 H172 0.930 . S
C186 C184 1.395 . S
C186 C189 1.403 1_565 S
C187 C184 1.403 1_554 S
C187 C188 1.524 . S
C187 C191 1.400 1_565 S
C188 H173 0.960 . S
C188 H174 0.960 . S
C188 H175 0.960 . S
C188 C187 1.524 . S
C189 C186 1.403 1_545 S
C189 C190 1.392 1_556 S
C189 C193 1.495 . S
C190 C189 1.392 1_554 S
C190 C191 1.385 . S
C190 C192 1.478 . S
C191 H185 0.930 . S
C191 C187 1.400 1_545 S
C191 C190 1.385 . S
C192 C190 1.478 . S
C192 C194 1.381 . S
C192 C198 1.383 . S
C193 C189 1.495 . S
C193 H199 0.959 . S
C193 H200 0.961 . S
C193 H201 0.960 . S
C194 C192 1.381 . S
C194 C195 1.394 . S
C194 H202 0.971 . S
C195 C194 1.394 . S
C195 C196 1.383 . S
C195 H203 0.929 . S
C196 C195 1.383 . S
C196 C197 1.377 . S
C197 H181 0.930 . S
C197 C196 1.377 . S
C197 C198 1.379 . S
C198 H182 0.931 . S
C198 C192 1.383 . S
C198 C197 1.379 . S
H199 C193 0.959 . S
H200 C193 0.961 . S
H201 C193 0.960 . S
H202 C194 0.971 . S
H203 C195 0.929 . S
H204 C212 0.929 . S
H205 C214 0.930 . S
H206 C216 0.930 . S
H207 C219 0.929 . S
H208 C222 0.930 . S
H209 C224 0.960 . S
H210 C224 0.960 . S
H211 C224 0.960 . S
C212 H204 0.929 . S
C212 C213 1.377 . S
C212 C214 1.384 . S
C213 C212 1.377 . S
C213 C219 1.390 . S
C214 H205 0.930 . S
C214 C212 1.384 . S
C214 C215 1.372 . S
C215 C214 1.372 . S
C215 C216 1.400 . S
C215 C220 1.490 . S
C216 H206 0.930 . S
C216 C215 1.400 . S
C216 C219 1.386 . S
H217 C233 0.930 . S
H218 C234 0.931 . S
C219 H207 0.929 . S
C219 C213 1.390 . S
C219 C216 1.386 . S
C220 C215 1.490 . S
C220 C222 1.395 . S
C220 C223 1.403 . S
H221 C227 0.930 . S
C222 H208 0.930 . S
C222 C220 1.395 . S
C222 C225 1.403 . S
C223 C220 1.403 . S
C223 C224 1.524 . S
C223 C227 1.400 . S
C224 H209 0.960 . S
C224 H210 0.960 . S
C224 H211 0.960 . S
C224 C223 1.524 . S
C225 C222 1.403 . S
C225 C226 1.392 . S
C225 C229 1.495 . S
C226 C225 1.392 . S
C226 C227 1.385 . S
C226 C228 1.478 . S
C227 H221 0.930 . S
C227 C223 1.400 . S
C227 C226 1.385 . S
C228 C226 1.478 . S
C228 C230 1.381 . S
C228 C234 1.383 . S
C229 C225 1.495 . S
C229 H235 0.959 . S
C229 H236 0.961 . S
C229 H237 0.960 . S
C230 C228 1.381 . S
C230 C231 1.394 . S
C230 H238 0.930 . S
C231 C230 1.394 . S
C231 C232 1.383 . S
C231 H239 0.929 . S
C232 C231 1.383 . S
C232 C233 1.377 . S
C233 H217 0.930 . S
C233 C232 1.377 . S
C233 C234 1.379 . S
C234 H218 0.931 . S
C234 C228 1.383 . S
C234 C233 1.379 . S
H235 C229 0.959 . S
H236 C229 0.961 . S
H237 C229 0.960 . S
H238 C230 0.930 . S
H239 C231 0.929 . S
H240 C248 0.929 . S
H241 C250 0.930 . S
H242 C252 0.930 . S
H243 C255 0.929 . S
H244 C258 0.930 . S
H245 C260 0.970 . S
H246 C260 0.963 1_655 S
H247 C260 0.944 1_655 S
C248 H240 0.929 . S
C248 C249 1.377 . S
C248 C250 1.384 . S
C249 C248 1.377 . S
C249 C255 1.390 . S
C250 H241 0.930 . S
C250 C248 1.384 . S
C250 C251 1.372 . S
C251 C250 1.372 . S
C251 C252 1.400 . S
C251 C256 1.490 . S
C252 H242 0.930 . S
C252 C251 1.400 . S
C252 C255 1.386 . S
H253 C269 0.930 . S
H254 C270 0.931 . S
C255 H243 0.929 . S
C255 C249 1.390 . S
C255 C252 1.386 . S
C256 C251 1.490 . S
C256 C258 1.395 . S
C256 C259 1.403 . S
H257 C263 0.930 . S
C258 H244 0.930 . S
C258 C256 1.395 . S
C258 C261 1.407 . S
C259 C256 1.403 . S
C259 C260 1.528 1_655 S
C259 C263 1.400 1_655 S
C260 H245 0.970 . S
C260 H246 0.963 1_455 S
C260 H247 0.944 1_455 S
C260 C259 1.528 1_455 S
C261 C258 1.407 . S
C261 C262 1.390 1_655 S
C261 C265 1.494 . S
C262 C261 1.390 1_455 S
C262 C263 1.385 . S
C262 C264 1.478 . S
C263 H257 0.930 . S
C263 C259 1.400 1_455 S
C263 C262 1.385 . S
C264 C262 1.478 . S
C264 C266 1.381 . S
C264 C270 1.383 . S
C265 C261 1.494 . S
C265 H271 0.959 . S
C265 H272 0.961 1_655 S
C265 H273 0.960 1_655 S
C266 C264 1.381 . S
C266 C267 1.394 . S
C266 H274 0.930 . S
C267 C266 1.394 . S
C267 C268 1.383 . S
C267 H275 0.929 . S
C268 C267 1.383 . S
C268 C269 1.377 . S
C269 H253 0.930 . S
C269 C268 1.377 . S
C269 C270 1.379 . S
C270 H254 0.931 . S
C270 C264 1.383 . S
C270 C269 1.379 . S
H271 C265 0.959 . S
H272 C265 0.961 1_455 S
H273 C265 0.960 1_455 S
H274 C266 0.930 . S
H275 C267 0.929 . S
H276 C284 0.929 . S
H277 C286 0.930 . S
H278 C288 1.010 . S
H279 C291 0.929 . S
H280 C294 0.930 . S
H281 C296 0.960 . S
H282 C296 0.960 . S
H283 C296 0.960 . S
C284 H276 0.929 . S
C284 C285 1.377 . S
C284 C286 1.384 . S
C285 C284 1.377 . S
C285 C291 1.390 . S
C286 H277 0.930 . S
C286 C284 1.384 . S
C286 C287 1.372 . S
C287 C286 1.372 . S
C287 C288 1.400 . S
C287 C292 1.490 . S
C288 H278 1.010 . S
C288 C287 1.400 . S
C288 C291 1.386 . S
H289 C305 0.930 . S
H290 C306 0.931 . S
C291 H279 0.929 . S
C291 C285 1.390 . S
C291 C288 1.386 . S
C292 C287 1.490 . S
C292 C294 1.395 . S
C292 C295 1.403 1_554 S
H293 C299 0.930 . S
C294 H280 0.930 . S
C294 C292 1.395 . S
C294 C297 1.403 1_565 S
C295 C292 1.403 1_556 S
C295 C296 1.524 . S
C295 C299 1.400 1_565 S
C296 H281 0.960 . S
C296 H282 0.960 . S
C296 H283 0.960 . S
C296 C295 1.524 . S
C297 C294 1.403 1_545 S
C297 C298 1.392 1_554 S
C297 C301 1.495 . S
C298 C297 1.392 1_556 S
C298 C299 1.385 . S
C298 C300 1.478 . S
C299 H293 0.930 . S
C299 C295 1.400 1_545 S
C299 C298 1.385 . S
C300 C298 1.478 . S
C300 C302 1.381 . S
C300 C306 1.383 . S
C301 C297 1.495 . S
C301 H307 0.959 . S
C301 H308 0.961 . S
C301 H309 0.960 . S
C302 C300 1.381 . S
C302 C303 1.394 . S
C302 H310 0.944 . S
C303 C302 1.394 . S
C303 C304 1.383 . S
C303 H311 0.929 . S
C304 C303 1.383 . S
C304 C305 1.377 . S
C305 H289 0.930 . S
C305 C304 1.377 . S
C305 C306 1.379 . S
C306 H290 0.931 . S
C306 C300 1.383 . S
C306 C305 1.379 . S
H307 C301 0.959 . S
H308 C301 0.961 . S
H309 C301 0.960 . S
H310 C302 0.944 . S
H311 C303 0.929 . S
H312 C320 0.929 . S
H313 C322 0.930 . S
H314 C324 0.930 . S
H315 C327 0.929 . S
H316 C330 0.930 . S
H317 C332 0.960 . S
H318 C332 0.960 . S
H319 C332 0.960 . S
C320 H312 0.929 . S
C320 C321 1.377 . S
C320 C322 1.384 . S
C321 C320 1.377 . S
C321 C327 1.390 . S
C322 H313 0.930 . S
C322 C320 1.384 . S
C322 C323 1.372 . S
C323 C322 1.372 . S
C323 C324 1.400 . S
C323 C328 1.490 . S
C324 H314 0.930 . S
C324 C323 1.400 . S
C324 C327 1.386 . S
H325 C341 0.930 . S
H326 C342 0.931 . S
C327 H315 0.929 . S
C327 C321 1.390 . S
C327 C324 1.386 . S
C328 C323 1.490 . S
C328 C330 1.395 . S
C328 C331 1.403 . S
H329 C335 0.930 . S
C330 H316 0.930 . S
C330 C328 1.395 . S
C330 C333 1.403 . S
C331 C328 1.403 . S
C331 C332 1.524 . S
C331 C335 1.400 . S
C332 H317 0.960 . S
C332 H318 0.960 . S
C332 H319 0.960 . S
C332 C331 1.524 . S
C333 C330 1.403 . S
C333 C334 1.392 . S
C333 C337 1.495 . S
C334 C333 1.392 . S
C334 C335 1.385 . S
C334 C336 1.478 . S
C335 H329 0.930 . S
C335 C331 1.400 . S
C335 C334 1.385 . S
C336 C334 1.478 . S
C336 C338 1.381 . S
C336 C342 1.383 . S
C337 C333 1.495 . S
C337 H343 0.959 . S
C337 H344 0.961 . S
C337 H345 0.960 . S
C338 C336 1.381 . S
C338 C339 1.394 . S
C338 H346 0.930 . S
C339 C338 1.394 . S
C339 C340 1.383 . S
C339 H347 0.929 . S
C340 C339 1.383 . S
C340 C341 1.377 . S
C341 H325 0.930 . S
C341 C340 1.377 . S
C341 C342 1.379 . S
C342 H326 0.931 . S
C342 C336 1.383 . S
C342 C341 1.379 . S
H343 C337 0.959 . S
H344 C337 0.961 . S
H345 C337 0.960 . S
H346 C338 0.930 . S
H347 C339 0.929 . S
H348 C356 0.929 . S
H349 C358 0.930 . S
H350 C360 0.930 . S
H351 C363 0.929 . S
H352 C366 0.930 . S
H353 C368 0.960 . S
H354 C368 0.960 . S
H355 C368 0.960 . S
C356 H348 0.929 . S
C356 C357 1.377 . S
C356 C358 1.384 . S
C357 C356 1.377 . S
C357 C363 1.390 . S
C358 H349 0.930 . S
C358 C356 1.384 . S
C358 C359 1.372 . S
C359 C358 1.372 . S
C359 C360 1.400 . S
C359 C364 1.490 . S
C360 H350 0.930 . S
C360 C359 1.400 . S
C360 C363 1.386 . S
H361 C377 0.930 . S
H362 C378 0.931 . S
C363 H351 0.929 . S
C363 C357 1.390 . S
C363 C360 1.386 . S
C364 C359 1.490 . S
C364 C366 1.395 . S
C364 C367 1.403 . S
H365 C371 0.930 . S
C366 H352 0.930 . S
C366 C364 1.395 . S
C366 C369 1.403 1_655 S
C367 C364 1.403 . S
C367 C368 1.524 . S
C367 C371 1.400 1_655 S
C368 H353 0.960 . S
C368 H354 0.960 . S
C368 H355 0.960 . S
C368 C367 1.524 . S
C369 C366 1.403 1_455 S
C369 C370 1.392 . S
C369 C373 1.495 . S
C370 C369 1.392 . S
C370 C371 1.385 . S
C370 C372 1.478 . S
C371 H365 0.930 . S
C371 C367 1.400 1_455 S
C371 C370 1.385 . S
C372 C370 1.478 . S
C372 C374 1.381 . S
C372 C378 1.383 . S
C373 C369 1.495 . S
C373 H379 0.959 . S
C373 H380 0.961 . S
C373 H381 0.960 . S
C374 C372 1.381 . S
C374 C375 1.394 . S
C374 H382 0.930 . S
C375 C374 1.394 . S
C375 C376 1.383 . S
C375 H383 0.929 . S
C376 C375 1.383 . S
C376 C377 1.377 . S
C377 H361 0.930 . S
C377 C376 1.377 . S
C377 C378 1.379 . S
C378 H362 0.931 . S
C378 C372 1.383 . S
C378 C377 1.379 . S
H379 C373 0.959 . S
H380 C373 0.961 . S
H381 C373 0.960 . S
H382 C374 0.930 . S
H383 C375 0.929 . S
H384 C392 0.929 . S
H385 C394 0.930 . S
H386 C396 0.930 . S
H387 C399 0.929 . S
H388 C402 0.930 . S
H389 C404 0.960 . S
H390 C404 0.960 . S
H391 C404 0.960 . S
C392 H384 0.929 . S
C392 C393 1.377 . S
C392 C394 1.384 . S
C393 C392 1.377 . S
C393 C399 1.390 . S
C394 H385 0.930 . S
C394 C392 1.384 . S
C394 C395 1.372 . S
C395 C394 1.372 . S
C395 C396 1.400 . S
C395 C400 1.490 . S
C396 H386 0.930 . S
C396 C395 1.400 . S
C396 C399 1.386 . S
H397 C413 0.930 . S
H398 C414 0.931 . S
C399 H387 0.929 . S
C399 C393 1.390 . S
C399 C396 1.386 . S
C400 C395 1.490 . S
C400 C402 1.395 1_556 S
C400 C403 1.403 . S
H401 C407 0.930 . S
C402 H388 0.930 . S
C402 C400 1.395 1_554 S
C402 C405 1.403 . S
C403 C400 1.403 . S
C403 C404 1.524 . S
C403 C407 1.400 . S
C404 H389 0.960 . S
C404 H390 0.960 . S
C404 H391 0.960 . S
C404 C403 1.524 . S
C405 C402 1.403 . S
C405 C406 1.392 . S
C405 C409 1.495 . S
C406 C405 1.392 . S
C406 C407 1.385 1_554 S
C406 C408 1.478 . S
C407 H401 0.930 . S
C407 C403 1.400 . S
C407 C406 1.385 1_556 S
C408 C406 1.478 . S
C408 C410 1.381 . S
C408 C414 1.383 . S
C409 C405 1.495 . S
C409 H415 0.959 . S
C409 H416 0.961 . S
C409 H417 0.960 . S
C410 C408 1.381 . S
C410 C411 1.394 . S
C410 H418 0.930 . S
C411 C410 1.394 . S
C411 C412 1.383 . S
C411 H419 0.929 . S
C412 C411 1.383 . S
C412 C413 1.377 . S
C413 H397 0.930 . S
C413 C412 1.377 . S
C413 C414 1.379 . S
C414 H398 0.931 . S
C414 C408 1.383 . S
C414 C413 1.379 . S
H415 C409 0.959 . S
H416 C409 0.961 . S
H417 C409 0.960 . S
H418 C410 0.930 . S
H419 C411 0.929 . S
H420 C428 0.929 . S
H421 C430 0.930 . S
H422 C432 0.930 . S
H423 C435 0.929 . S
H424 C438 0.930 . S
H425 C440 0.960 . S
H426 C440 0.960 . S
H427 C440 0.960 . S
C428 H420 0.929 . S
C428 C429 1.377 . S
C428 C430 1.384 . S
C429 C428 1.377 . S
C429 C435 1.390 . S
C430 H421 0.930 . S
C430 C428 1.384 . S
C430 C431 1.372 . S
C431 C430 1.372 . S
C431 C432 1.400 . S
C431 C436 1.490 . S
C432 H422 0.930 . S
C432 C431 1.400 . S
C432 C435 1.386 . S
H433 C449 0.930 . S
H434 C450 0.931 . S
C435 H423 0.929 . S
C435 C429 1.390 . S
C435 C432 1.386 . S
C436 C431 1.490 . S
C436 C438 1.395 . S
C436 C439 1.403 . S
H437 C443 0.930 . S
C438 H424 0.930 . S
C438 C436 1.395 . S
C438 C441 1.403 . S
C439 C436 1.403 . S
C439 C440 1.524 . S
C439 C443 1.400 . S
C440 H425 0.960 . S
C440 H426 0.960 . S
C440 H427 0.960 . S
C440 C439 1.524 . S
C441 C438 1.403 . S
C441 C442 1.392 . S
C441 C445 1.495 . S
C442 C441 1.392 . S
C442 C443 1.385 . S
C442 C444 1.478 . S
C443 H437 0.930 . S
C443 C439 1.400 . S
C443 C442 1.385 . S
C444 C442 1.478 . S
C444 C446 1.381 . S
C444 C450 1.383 . S
C445 C441 1.495 . S
C445 H451 0.959 . S
C445 H452 0.961 . S
C445 H453 0.960 . S
C446 C444 1.381 . S
C446 C447 1.394 . S
C446 H454 0.930 . S
C447 C446 1.394 . S
C447 C448 1.383 . S
C447 H455 0.929 . S
C448 C447 1.383 . S
C448 C449 1.377 . S
C449 H433 0.930 . S
C449 C448 1.377 . S
C449 C450 1.379 . S
C450 H434 0.931 . S
C450 C444 1.383 . S
C450 C449 1.379 . S
H451 C445 0.959 . S
H452 C445 0.961 . S
H453 C445 0.960 . S
H454 C446 0.930 . S
H455 C447 0.929 . S
H456 C464 0.929 . S
H457 C466 0.930 . S
H458 C468 0.930 . S
H459 C471 0.929 . S
H460 C474 0.930 . S
H461 C476 0.960 . S
H462 C476 0.960 . S
H463 C476 0.960 . S
C464 H456 0.929 . S
C464 C465 1.377 . S
C464 C466 1.384 . S
C465 C464 1.377 . S
C465 C471 1.390 . S
C466 H457 0.930 . S
C466 C464 1.384 . S
C466 C467 1.372 . S
C467 C466 1.372 . S
C467 C468 1.400 . S
C467 C472 1.490 . S
C468 H458 0.930 . S
C468 C467 1.400 . S
C468 C471 1.386 . S
H469 C485 0.930 . S
H470 C486 0.931 . S
C471 H459 0.929 . S
C471 C465 1.390 . S
C471 C468 1.386 . S
C472 C467 1.490 . S
C472 C474 1.395 . S
C472 C475 1.403 . S
H473 C479 0.930 . S
C474 H460 0.930 . S
C474 C472 1.395 . S
C474 C477 1.403 . S
C475 C472 1.403 . S
C475 C476 1.524 . S
C475 C479 1.400 . S
C476 H461 0.960 . S
C476 H462 0.960 . S
C476 H463 0.960 . S
C476 C475 1.524 . S
C477 C474 1.403 . S
C477 C478 1.392 . S
C477 C481 1.495 . S
C478 C477 1.392 . S
C478 C479 1.385 . S
C478 C480 1.478 . S
C479 H473 0.930 . S
C479 C475 1.400 . S
C479 C478 1.385 . S
C480 C478 1.478 . S
C480 C482 1.381 . S
C480 C486 1.383 . S
C481 C477 1.495 . S
C481 H487 0.959 . S
C481 H488 0.961 . S
C481 H489 0.960 . S
C482 C480 1.381 . S
C482 C483 1.394 . S
C482 H490 0.930 . S
C483 C482 1.394 . S
C483 C484 1.383 . S
C483 H491 0.929 . S
C484 C483 1.383 . S
C484 C485 1.377 . S
C485 H469 0.930 . S
C485 C484 1.377 . S
C485 C486 1.379 . S
C486 H470 0.931 . S
C486 C480 1.383 . S
C486 C485 1.379 . S
H487 C481 0.959 . S
H488 C481 0.961 . S
H489 C481 0.960 . S
H490 C482 0.930 . S
H491 C483 0.929 . S
H492 C500 0.929 . S
H493 C502 0.930 . S
H494 C504 0.930 . S
H495 C507 0.929 . S
H496 C510 0.930 . S
H497 C512 0.960 . S
H498 C512 0.960 . S
H499 C512 0.960 . S
C500 H492 0.929 . S
C500 C501 1.377 . S
C500 C502 1.384 . S
C501 C500 1.377 . S
C501 C507 1.390 . S
C502 H493 0.930 . S
C502 C500 1.384 . S
C502 C503 1.372 . S
C503 C502 1.372 . S
C503 C504 1.400 . S
C503 C508 1.490 . S
C504 H494 0.930 . S
C504 C503 1.400 . S
C504 C507 1.386 . S
H505 C521 0.930 . S
H506 C522 0.931 . S
C507 H495 0.929 . S
C507 C501 1.390 . S
C507 C504 1.386 . S
C508 C503 1.490 . S
C508 C510 1.395 1_556 S
C508 C511 1.403 . S
H509 C515 0.930 . S
C510 H496 0.930 . S
C510 C508 1.395 1_554 S
C510 C513 1.403 . S
C511 C508 1.403 . S
C511 C512 1.524 . S
C511 C515 1.400 . S
C512 H497 0.960 . S
C512 H498 0.960 . S
C512 H499 0.960 . S
C512 C511 1.524 . S
C513 C510 1.403 . S
C513 C514 1.392 . S
C513 C517 1.495 . S
C514 C513 1.392 . S
C514 C515 1.385 1_554 S
C514 C516 1.478 . S
C515 H509 0.930 . S
C515 C511 1.400 . S
C515 C514 1.385 1_556 S
C516 C514 1.478 . S
C516 C518 1.381 . S
C516 C522 1.383 . S
C517 C513 1.495 . S
C517 H523 0.959 . S
C517 H524 0.961 . S
C517 H525 0.960 . S
C518 C516 1.381 . S
C518 C519 1.394 . S
C518 H526 0.930 . S
C519 C518 1.394 . S
C519 C520 1.383 . S
C519 H527 0.929 . S
C520 C519 1.383 . S
C520 C521 1.377 . S
C521 H505 0.930 . S
C521 C520 1.377 . S
C521 C522 1.379 . S
C522 H506 0.931 . S
C522 C516 1.383 . S
C522 C521 1.379 . S
H523 C517 0.959 . S
H524 C517 0.961 . S
H525 C517 0.960 . S
H526 C518 0.930 . S
H527 C519 0.929 . S
H528 C536 0.929 . S
H529 C538 0.930 . S
H530 C540 0.930 . S
H531 C543 0.929 . S
H532 C546 0.930 . S
H533 C548 0.960 . S
H534 C548 0.960 . S
H535 C548 0.960 . S
C536 H528 0.929 . S
C536 C537 1.377 . S
C536 C538 1.384 . S
C537 C536 1.377 . S
C537 C543 1.390 . S
C538 H529 0.930 . S
C538 C536 1.384 . S
C538 C539 1.372 . S
C539 C538 1.372 . S
C539 C540 1.400 . S
C539 C544 1.490 . S
C540 H530 0.930 . S
C540 C539 1.400 . S
C540 C543 1.386 . S
H541 C557 0.930 . S
H542 C558 0.931 . S
C543 H531 0.929 . S
C543 C537 1.390 . S
C543 C540 1.386 . S
C544 C539 1.490 . S
C544 C546 1.395 . S
C544 C547 1.403 . S
H545 C551 0.930 . S
C546 H532 0.930 . S
C546 C544 1.395 . S
C546 C549 1.403 . S
C547 C544 1.403 . S
C547 C548 1.524 . S
C547 C551 1.400 . S
C548 H533 0.960 . S
C548 H534 0.960 . S
C548 H535 0.960 . S
C548 C547 1.524 . S
C549 C546 1.403 . S
C549 C550 1.392 . S
C549 C553 1.495 . S
C550 C549 1.392 . S
C550 C551 1.385 . S
C550 C552 1.478 . S
C551 H545 0.930 . S
C551 C547 1.400 . S
C551 C550 1.385 . S
C552 C550 1.478 . S
C552 C554 1.381 . S
C552 C558 1.383 . S
C553 C549 1.495 . S
C553 H559 0.959 . S
C553 H560 0.961 . S
C553 H561 0.960 . S
C554 C552 1.381 . S
C554 C555 1.394 . S
C554 H562 0.930 . S
C555 C554 1.394 . S
C555 C556 1.383 . S
C555 H563 0.929 . S
C556 C555 1.383 . S
C556 C557 1.377 . S
C557 H541 0.930 . S
C557 C556 1.377 . S
C557 C558 1.379 . S
C558 H542 0.931 . S
C558 C552 1.383 . S
C558 C557 1.379 . S
H559 C553 0.959 . S
H560 C553 0.961 . S
H561 C553 0.960 . S
H562 C554 0.930 . S
H563 C555 0.929 . S
H564 C572 0.929 . S
H565 C574 0.930 . S
H566 C576 0.930 . S
H567 C579 0.929 . S
H568 C582 0.930 . S
H569 C584 0.960 . S
H570 C584 0.960 . S
H571 C584 0.960 . S
C572 H564 0.929 . S
C572 C573 1.377 . S
C572 C574 1.384 . S
C573 C572 1.377 . S
C573 C579 1.390 . S
C574 H565 0.930 . S
C574 C572 1.384 . S
C574 C575 1.372 . S
C575 C574 1.372 . S
C575 C576 1.400 . S
C575 C580 1.490 . S
C576 H566 0.930 . S
C576 C575 1.400 . S
C576 C579 1.386 . S
H577 C593 0.930 . S
H578 C594 0.931 . S
C579 H567 0.929 . S
C579 C573 1.390 . S
C579 C576 1.386 . S
C580 C575 1.490 . S
C580 C582 1.395 . S
C580 C583 1.403 . S
H581 C587 0.930 . S
C582 H568 0.930 . S
C582 C580 1.395 . S
C582 C585 1.403 . S
C583 C580 1.403 . S
C583 C584 1.524 . S
C583 C587 1.400 . S
C584 H569 0.960 . S
C584 H570 0.960 . S
C584 H571 0.960 . S
C584 C583 1.524 . S
C585 C582 1.403 . S
C585 C586 1.392 . S
C585 C589 1.495 . S
C586 C585 1.392 . S
C586 C587 1.385 . S
C586 C588 1.478 . S
C587 H581 0.930 . S
C587 C583 1.400 . S
C587 C586 1.385 . S
C588 C586 1.478 . S
C588 C590 1.381 . S
C588 C594 1.383 . S
C589 C585 1.495 . S
C589 H595 0.959 . S
C589 H596 0.961 . S
C589 H597 0.960 . S
C590 C588 1.381 . S
C590 C591 1.394 . S
C590 H598 0.930 . S
C591 C590 1.394 . S
C591 C592 1.383 . S
C591 H599 0.929 . S
C592 C591 1.383 . S
C592 C593 1.377 . S
C593 H577 0.930 . S
C593 C592 1.377 . S
C593 C594 1.379 . S
C594 H578 0.931 . S
C594 C588 1.383 . S
C594 C593 1.379 . S
H595 C589 0.959 . S
H596 C589 0.961 . S
H597 C589 0.960 . S
H598 C590 0.930 . S
H599 C591 0.929 . S
H600 C608 0.929 . S
H601 C610 0.930 . S
H602 C612 0.930 . S
H603 C615 0.929 . S
H604 C618 0.930 . S
H605 C620 0.960 . S
H606 C620 0.960 . S
H607 C620 0.960 . S
C608 H600 0.929 . S
C608 C609 1.377 . S
C608 C610 1.384 . S
C609 C608 1.377 . S
C609 C615 1.390 . S
C610 H601 0.930 . S
C610 C608 1.384 . S
C610 C611 1.372 . S
C611 C610 1.372 . S
C611 C612 1.400 . S
C611 C616 1.490 . S
C612 H602 0.930 . S
C612 C611 1.400 . S
C612 C615 1.386 . S
H613 C629 0.930 . S
H614 C630 0.931 . S
C615 H603 0.929 . S
C615 C609 1.390 . S
C615 C612 1.386 . S
C616 C611 1.490 . S
C616 C618 1.395 . S
C616 C619 1.403 . S
H617 C623 0.930 . S
C618 H604 0.930 . S
C618 C616 1.395 . S
C618 C621 1.403 . S
C619 C616 1.403 . S
C619 C620 1.524 . S
C619 C623 1.400 . S
C620 H605 0.960 . S
C620 H606 0.960 . S
C620 H607 0.960 . S
C620 C619 1.524 . S
C621 C618 1.403 . S
C621 C622 1.392 . S
C621 C625 1.495 . S
C622 C621 1.392 . S
C622 C623 1.385 . S
C622 C624 1.478 . S
C623 H617 0.930 . S
C623 C619 1.400 . S
C623 C622 1.385 . S
C624 C622 1.478 . S
C624 C626 1.381 . S
C624 C630 1.383 . S
C625 C621 1.495 . S
C625 H631 0.959 . S
C625 H632 0.961 . S
C625 H633 0.960 . S
C626 C624 1.381 . S
C626 C627 1.394 . S
C626 H634 0.930 . S
C627 C626 1.394 . S
C627 C628 1.383 . S
C627 H635 0.929 . S
C628 C627 1.383 . S
C628 C629 1.377 . S
C629 H613 0.930 . S
C629 C628 1.377 . S
C629 C630 1.379 . S
C630 H614 0.931 . S
C630 C624 1.383 . S
C630 C629 1.379 . S
H631 C625 0.959 . S
H632 C625 0.961 . S
H633 C625 0.960 . S
H634 C626 0.930 . S
H635 C627 0.929 . S
H636 C644 0.929 . S
H637 C646 0.930 . S
H638 C648 0.930 . S
H639 C651 0.929 . S
H640 C654 0.930 . S
H641 C656 0.960 . S
H642 C656 0.960 . S
H643 C656 0.960 . S
C644 H636 0.929 . S
C644 C645 1.377 . S
C644 C646 1.384 . S
C645 C644 1.377 . S
C645 C651 1.390 . S
C646 H637 0.930 . S
C646 C644 1.384 . S
C646 C647 1.372 . S
C647 C646 1.372 . S
C647 C648 1.400 . S
C647 C652 1.490 . S
C648 H638 0.930 . S
C648 C647 1.400 . S
C648 C651 1.386 . S
H649 C665 0.930 . S
H650 C666 0.931 . S
C651 H639 0.929 . S
C651 C645 1.390 . S
C651 C648 1.386 . S
C652 C647 1.490 . S
C652 C654 1.395 . S
C652 C655 1.403 . S
H653 C659 0.930 . S
C654 H640 0.930 . S
C654 C652 1.395 . S
C654 C657 1.403 . S
C655 C652 1.403 . S
C655 C656 1.524 . S
C655 C659 1.400 . S
C656 H641 0.960 . S
C656 H642 0.960 . S
C656 H643 0.960 . S
C656 C655 1.524 . S
C657 C654 1.403 . S
C657 C658 1.392 . S
C657 C661 1.495 . S
C658 C657 1.392 . S
C658 C659 1.385 . S
C658 C660 1.478 . S
C659 H653 0.930 . S
C659 C655 1.400 . S
C659 C658 1.385 . S
C660 C658 1.478 . S
C660 C662 1.381 . S
C660 C666 1.383 . S
C661 C657 1.495 . S
C661 H667 0.959 . S
C661 H668 0.961 . S
C661 H669 0.960 . S
C662 C660 1.381 . S
C662 C663 1.394 . S
C662 H670 0.930 . S
C663 C662 1.394 . S
C663 C664 1.383 . S
C663 H671 0.929 . S
C664 C663 1.383 . S
C664 C665 1.377 . S
C665 H649 0.930 . S
C665 C664 1.377 . S
C665 C666 1.379 . S
C666 H650 0.931 . S
C666 C660 1.383 . S
C666 C665 1.379 . S
H667 C661 0.959 . S
H668 C661 0.961 . S
H669 C661 0.960 . S
H670 C662 0.930 . S
H671 C663 0.929 . S
H672 C680 0.929 . S
H673 C682 0.930 . S
H674 C684 0.930 . S
H675 C687 0.929 . S
H676 C690 0.930 . S
H677 C692 0.960 . S
H678 C692 0.960 . S
H679 C692 0.960 . S
C680 H672 0.929 . S
C680 C681 1.377 . S
C680 C682 1.384 . S
C681 C680 1.377 . S
C681 C687 1.390 . S
C682 H673 0.930 . S
C682 C680 1.384 . S
C682 C683 1.372 . S
C683 C682 1.372 . S
C683 C684 1.400 . S
C683 C688 1.490 . S
C684 H674 0.930 . S
C684 C683 1.400 . S
C684 C687 1.386 . S
H685 C701 0.930 . S
H686 C702 0.931 . S
C687 H675 0.929 . S
C687 C681 1.390 . S
C687 C684 1.386 . S
C688 C683 1.490 . S
C688 C690 1.395 . S
C688 C691 1.403 . S
H689 C695 0.930 . S
C690 H676 0.930 . S
C690 C688 1.395 . S
C690 C693 1.403 . S
C691 C688 1.403 . S
C691 C692 1.524 . S
C691 C695 1.400 . S
C692 H677 0.960 . S
C692 H678 0.960 . S
C692 H679 0.960 . S
C692 C691 1.524 . S
C693 C690 1.403 . S
C693 C694 1.392 . S
C693 C697 1.495 . S
C694 C693 1.392 . S
C694 C695 1.385 . S
C694 C696 1.478 . S
C695 H689 0.930 . S
C695 C691 1.400 . S
C695 C694 1.385 . S
C696 C694 1.478 . S
C696 C698 1.381 . S
C696 C702 1.383 . S
C697 C693 1.495 . S
C697 H703 0.959 . S
C697 H704 0.961 . S
C697 H705 0.960 . S
C698 C696 1.381 . S
C698 C699 1.394 . S
C698 H706 0.930 . S
C699 C698 1.394 . S
C699 C700 1.383 . S
C699 H707 0.929 . S
C700 C699 1.383 . S
C700 C701 1.377 . S
C701 H685 0.930 . S
C701 C700 1.377 . S
C701 C702 1.379 . S
C702 H686 0.931 . S
C702 C696 1.383 . S
C702 C701 1.379 . S
H703 C697 0.959 . S
H704 C697 0.961 . S
H705 C697 0.960 . S
H706 C698 0.930 . S
H707 C699 0.929 . S
H708 C716 0.929 . S
H709 C718 0.930 . S
H710 C720 0.930 . S
H711 C723 0.929 . S
H712 C726 0.930 . S
H713 C728 0.960 . S
H714 C728 0.960 . S
H715 C728 0.960 . S
C716 H708 0.929 . S
C716 C717 1.377 . S
C716 C718 1.384 . S
C717 C716 1.377 . S
C717 C723 1.390 . S
C718 H709 0.930 . S
C718 C716 1.384 . S
C718 C719 1.372 . S
C719 C718 1.372 . S
C719 C720 1.400 . S
C719 C724 1.490 . S
C720 H710 0.930 . S
C720 C719 1.400 . S
C720 C723 1.386 . S
H721 C737 0.930 . S
H722 C738 0.931 . S
C723 H711 0.929 . S
C723 C717 1.390 . S
C723 C720 1.386 . S
C724 C719 1.490 . S
C724 C726 1.395 . S
C724 C727 1.403 . S
H725 C731 0.930 . S
C726 H712 0.930 . S
C726 C724 1.395 . S
C726 C729 1.403 . S
C727 C724 1.403 . S
C727 C728 1.524 . S
C727 C731 1.400 . S
C728 H713 0.960 . S
C728 H714 0.960 . S
C728 H715 0.960 . S
C728 C727 1.524 . S
C729 C726 1.403 . S
C729 C730 1.392 . S
C729 C733 1.495 . S
C730 C729 1.392 . S
C730 C731 1.385 . S
C730 C732 1.478 . S
C731 H725 0.930 . S
C731 C727 1.400 . S
C731 C730 1.385 . S
C732 C730 1.478 . S
C732 C734 1.381 . S
C732 C738 1.383 . S
C733 C729 1.495 . S
C733 H739 0.959 . S
C733 H740 0.961 . S
C733 H741 0.960 . S
C734 C732 1.381 . S
C734 C735 1.394 . S
C734 H742 0.930 . S
C735 C734 1.394 . S
C735 C736 1.383 . S
C735 H743 0.929 . S
C736 C735 1.383 . S
C736 C737 1.377 . S
C737 H721 0.930 . S
C737 C736 1.377 . S
C737 C738 1.379 . S
C738 H722 0.931 . S
C738 C732 1.383 . S
C738 C737 1.379 . S
H739 C733 0.959 . S
H740 C733 0.961 . S
H741 C733 0.960 . S
H742 C734 0.930 . S
H743 C735 0.929 . S
H744 C752 0.929 . S
H745 C754 0.930 . S
H746 C756 0.930 . S
H747 C759 0.929 . S
H748 C762 0.930 . S
H749 C764 0.960 . S
H750 C764 0.960 . S
H751 C764 0.960 . S
C752 H744 0.929 . S
C752 C753 1.377 . S
C752 C754 1.384 . S
C753 C752 1.377 . S
C753 C759 1.390 . S
C754 H745 0.930 . S
C754 C752 1.384 . S
C754 C755 1.372 . S
C755 C754 1.372 . S
C755 C756 1.400 . S
C755 C760 1.490 . S
C756 H746 0.930 . S
C756 C755 1.400 . S
C756 C759 1.386 . S
H757 C773 0.930 . S
H758 C774 0.931 . S
C759 H747 0.929 . S
C759 C753 1.390 . S
C759 C756 1.386 . S
C760 C755 1.490 . S
C760 C762 1.395 . S
C760 C763 1.403 . S
H761 C767 0.930 . S
C762 H748 0.930 . S
C762 C760 1.395 . S
C762 C765 1.403 . S
C763 C760 1.403 . S
C763 C764 1.524 . S
C763 C767 1.400 . S
C764 H749 0.960 . S
C764 H750 0.960 . S
C764 H751 0.960 . S
C764 C763 1.524 . S
C765 C762 1.403 . S
C765 C766 1.392 . S
C765 C769 1.495 . S
C766 C765 1.392 . S
C766 C767 1.385 . S
C766 C768 1.478 . S
C767 H761 0.930 . S
C767 C763 1.400 . S
C767 C766 1.385 . S
C768 C766 1.478 . S
C768 C770 1.381 . S
C768 C774 1.383 . S
C769 C765 1.495 . S
C769 H775 0.959 . S
C769 H776 0.961 . S
C769 H777 0.960 . S
C770 C768 1.381 . S
C770 C771 1.394 . S
C770 H778 0.930 . S
C771 C770 1.394 . S
C771 C772 1.383 . S
C771 H779 0.929 . S
C772 C771 1.383 . S
C772 C773 1.377 . S
C773 H757 0.930 . S
C773 C772 1.377 . S
C773 C774 1.379 . S
C774 H758 0.931 . S
C774 C768 1.383 . S
C774 C773 1.379 . S
H775 C769 0.959 . S
H776 C769 0.961 . S
H777 C769 0.960 . S
H778 C770 0.930 . S
H779 C771 0.929 . S
H780 C788 0.929 . S
H781 C790 0.930 . S
H782 C792 0.930 . S
H783 C795 0.929 . S
H784 C798 0.930 . S
H785 C800 0.960 . S
H786 C800 0.960 . S
H787 C800 0.960 . S
C788 H780 0.929 . S
C788 C789 1.377 . S
C788 C790 1.384 . S
C789 C788 1.377 . S
C789 C795 1.390 . S
C790 H781 0.930 . S
C790 C788 1.384 . S
C790 C791 1.372 . S
C791 C790 1.372 . S
C791 C792 1.400 . S
C791 C796 1.490 . S
C792 H782 0.930 . S
C792 C791 1.400 . S
C792 C795 1.386 . S
H793 C809 0.930 . S
H794 C810 0.931 . S
C795 H783 0.929 . S
C795 C789 1.390 . S
C795 C792 1.386 . S
C796 C791 1.490 . S
C796 C798 1.395 . S
C796 C799 1.403 . S
H797 C803 0.930 . S
C798 H784 0.930 . S
C798 C796 1.395 . S
C798 C801 1.403 . S
C799 C796 1.403 . S
C799 C800 1.524 . S
C799 C803 1.400 . S
C800 H785 0.960 . S
C800 H786 0.960 . S
C800 H787 0.960 . S
C800 C799 1.524 . S
C801 C798 1.403 . S
C801 C802 1.392 . S
C801 C805 1.495 . S
C802 C801 1.392 . S
C802 C803 1.385 . S
C802 C804 1.478 . S
C803 H797 0.930 . S
C803 C799 1.400 . S
C803 C802 1.385 . S
C804 C802 1.478 . S
C804 C806 1.381 . S
C804 C810 1.383 . S
C805 C801 1.495 . S
C805 H811 0.959 . S
C805 H812 0.961 . S
C805 H813 0.960 . S
C806 C804 1.381 . S
C806 C807 1.394 . S
C806 H814 0.930 . S
C807 C806 1.394 . S
C807 C808 1.383 . S
C807 H815 0.929 . S
C808 C807 1.383 . S
C808 C809 1.377 . S
C809 H793 0.930 . S
C809 C808 1.377 . S
C809 C810 1.379 . S
C810 H794 0.931 . S
C810 C804 1.383 . S
C810 C809 1.379 . S
H811 C805 0.959 . S
H812 C805 0.961 . S
H813 C805 0.960 . S
H814 C806 0.930 . S
H815 C807 0.929 . S
H816 C824 0.929 . S
H817 C826 0.930 . S
H818 C828 0.930 . S
H819 C831 0.929 . S
H820 C834 0.930 . S
H821 C836 0.960 . S
H822 C836 0.960 . S
H823 C836 0.960 . S
C824 H816 0.929 . S
C824 C825 1.377 . S
C824 C826 1.384 . S
C825 C824 1.377 . S
C825 C831 1.390 . S
C826 H817 0.930 . S
C826 C824 1.384 . S
C826 C827 1.372 . S
C827 C826 1.372 . S
C827 C828 1.400 . S
C827 C832 1.490 . S
C828 H818 0.930 . S
C828 C827 1.400 . S
C828 C831 1.386 . S
H829 C845 0.930 . S
H830 C846 0.931 . S
C831 H819 0.929 . S
C831 C825 1.390 . S
C831 C828 1.386 . S
C832 C827 1.490 . S
C832 C834 1.395 . S
C832 C835 1.403 . S
H833 C839 0.930 . S
C834 H820 0.930 . S
C834 C832 1.395 . S
C834 C837 1.403 . S
C835 C832 1.403 . S
C835 C836 1.524 . S
C835 C839 1.400 . S
C836 H821 0.960 . S
C836 H822 0.960 . S
C836 H823 0.960 . S
C836 C835 1.524 . S
C837 C834 1.403 . S
C837 C838 1.392 . S
C837 C841 1.495 . S
C838 C837 1.392 . S
C838 C839 1.385 . S
C838 C840 1.478 . S
C839 H833 0.930 . S
C839 C835 1.400 . S
C839 C838 1.385 . S
C840 C838 1.478 . S
C840 C842 1.381 . S
C840 C846 1.383 . S
C841 C837 1.495 . S
C841 H847 0.959 . S
C841 H848 0.961 . S
C841 H849 0.960 . S
C842 C840 1.381 . S
C842 C843 1.394 . S
C842 H850 0.930 . S
C843 C842 1.394 . S
C843 C844 1.383 . S
C843 H851 0.929 . S
C844 C843 1.383 . S
C844 C845 1.377 . S
C845 H829 0.930 . S
C845 C844 1.377 . S
C845 C846 1.379 . S
C846 H830 0.931 . S
C846 C840 1.383 . S
C846 C845 1.379 . S
H847 C841 0.959 . S
H848 C841 0.961 . S
H849 C841 0.960 . S
H850 C842 0.930 . S
H851 C843 0.929 . S
H852 C860 0.929 . S
H853 C862 0.930 . S
H854 C864 0.930 . S
H855 C867 0.929 . S
H856 C870 0.930 . S
H857 C872 0.960 . S
H858 C872 0.960 . S
H859 C872 0.960 . S
C860 H852 0.929 . S
C860 C861 1.377 . S
C860 C862 1.384 . S
C861 C860 1.377 . S
C861 C867 1.390 . S
C862 H853 0.930 . S
C862 C860 1.384 . S
C862 C863 1.372 . S
C863 C862 1.372 . S
C863 C864 1.400 . S
C863 C868 1.490 . S
C864 H854 0.930 . S
C864 C863 1.400 . S
C864 C867 1.386 . S
H865 C881 0.930 . S
H866 C882 0.931 . S
C867 H855 0.929 . S
C867 C861 1.390 . S
C867 C864 1.386 . S
C868 C863 1.490 . S
C868 C870 1.395 1_655 S
C868 C871 1.403 . S
H869 C875 0.930 . S
C870 H856 0.930 . S
C870 C868 1.395 1_455 S
C870 C873 1.403 . S
C871 C868 1.403 . S
C871 C872 1.524 . S
C871 C875 1.400 . S
C872 H857 0.960 . S
C872 H858 0.960 . S
C872 H859 0.960 . S
C872 C871 1.524 . S
C873 C870 1.403 . S
C873 C874 1.392 . S
C873 C877 1.495 . S
C874 C873 1.392 . S
C874 C875 1.385 1_455 S
C874 C876 1.478 . S
C875 H869 0.930 . S
C875 C871 1.400 . S
C875 C874 1.385 1_655 S
C876 C874 1.478 . S
C876 C878 1.381 . S
C876 C882 1.383 . S
C877 C873 1.495 . S
C877 H883 0.959 . S
C877 H884 0.961 . S
C877 H885 0.960 . S
C878 C876 1.381 . S
C878 C879 1.394 . S
C878 H886 0.930 . S
C879 C878 1.394 . S
C879 C880 1.383 . S
C879 H887 0.929 . S
C880 C879 1.383 . S
C880 C881 1.377 . S
C881 H865 0.930 . S
C881 C880 1.377 . S
C881 C882 1.379 . S
C882 H866 0.931 . S
C882 C876 1.383 . S
C882 C881 1.379 . S
H883 C877 0.959 . S
H884 C877 0.961 . S
H885 C877 0.960 . S
H886 C878 0.930 . S
H887 C879 0.929 . S
H888 C896 0.929 . S
H889 C898 0.930 . S
H890 C900 0.930 . S
H891 C903 0.929 . S
H892 C906 0.930 . S
H893 C908 0.960 . S
H894 C908 0.960 . S
H895 C908 0.960 . S
C896 H888 0.929 . S
C896 C897 1.377 . S
C896 C898 1.384 . S
C897 C896 1.377 . S
C897 C903 1.390 . S
C898 H889 0.930 . S
C898 C896 1.384 . S
C898 C899 1.372 . S
C899 C898 1.372 . S
C899 C900 1.400 . S
C899 C904 1.490 . S
C900 H890 0.930 . S
C900 C899 1.400 . S
C900 C903 1.386 . S
H901 C917 0.930 . S
H902 C918 0.931 . S
C903 H891 0.929 . S
C903 C897 1.390 . S
C903 C900 1.386 . S
C904 C899 1.490 . S
C904 C906 1.395 1_545 S
C904 C907 1.403 . S
H905 C911 0.948 . S
C906 H892 0.930 . S
C906 C904 1.395 1_565 S
C906 C909 1.403 . S
C907 C904 1.403 . S
C907 C908 1.524 . S
C907 C911 1.408 . S
C908 H893 0.960 . S
C908 H894 0.960 . S
C908 H895 0.960 . S
C908 C907 1.524 . S
C909 C906 1.403 . S
C909 C910 1.392 . S
C909 C913 1.495 . S
C910 C909 1.392 . S
C910 C911 1.361 1_565 S
C910 C912 1.478 . S
C911 H905 0.948 . S
C911 C907 1.408 . S
C911 C910 1.361 1_545 S
C912 C910 1.478 . S
C912 C914 1.381 . S
C912 C918 1.383 . S
C913 C909 1.495 . S
C913 H919 0.959 . S
C913 H920 0.961 . S
C913 H921 0.960 . S
C914 C912 1.381 . S
C914 C915 1.394 . S
C914 H922 0.930 . S
C915 C914 1.394 . S
C915 C916 1.383 . S
C915 H923 0.929 . S
C916 C915 1.383 . S
C916 C917 1.377 . S
C917 H901 0.930 . S
C917 C916 1.377 . S
C917 C918 1.379 . S
C918 H902 0.931 . S
C918 C912 1.383 . S
C918 C917 1.379 . S
H919 C913 0.959 . S
H920 C913 0.961 . S
H921 C913 0.960 . S
H922 C914 0.930 . S
H923 C915 0.929 . S
H924 C932 0.929 . S
H925 C934 0.930 . S
H926 C936 0.930 . S
H927 C939 0.929 . S
H928 C942 0.930 . S
H929 C944 0.960 . S
H930 C944 0.960 . S
H931 C944 0.960 . S
C932 H924 0.929 . S
C932 C933 1.377 . S
C932 C934 1.384 . S
C933 C932 1.377 . S
C933 C939 1.390 . S
C934 H925 0.930 . S
C934 C932 1.384 . S
C934 C935 1.372 . S
C935 C934 1.372 . S
C935 C936 1.400 . S
C935 C940 1.490 . S
C936 H926 0.930 . S
C936 C935 1.400 . S
C936 C939 1.386 . S
H937 C953 0.930 . S
H938 C954 0.931 . S
C939 H927 0.929 . S
C939 C933 1.390 . S
C939 C936 1.386 . S
C940 C935 1.490 . S
C940 C942 1.395 . S
C940 C943 1.403 . S
H941 C947 0.930 . S
C942 H928 0.930 . S
C942 C940 1.395 . S
C942 C945 1.403 . S
C943 C940 1.403 . S
C943 C944 1.524 . S
C943 C947 1.400 . S
C944 H929 0.960 . S
C944 H930 0.960 . S
C944 H931 0.960 . S
C944 C943 1.524 . S
C945 C942 1.403 . S
C945 C946 1.392 . S
C945 C949 1.495 . S
C946 C945 1.392 . S
C946 C947 1.385 . S
C946 C948 1.478 . S
C947 H941 0.930 . S
C947 C943 1.400 . S
C947 C946 1.385 . S
C948 C946 1.478 . S
C948 C950 1.381 . S
C948 C954 1.383 . S
C949 C945 1.495 . S
C949 H955 0.959 . S
C949 H956 0.961 . S
C949 H957 0.960 . S
C950 C948 1.381 . S
C950 C951 1.394 . S
C950 H958 0.930 . S
C951 C950 1.394 . S
C951 C952 1.383 . S
C951 H959 0.929 . S
C952 C951 1.383 . S
C952 C953 1.377 . S
C953 H937 0.930 . S
C953 C952 1.377 . S
C953 C954 1.379 . S
C954 H938 0.931 . S
C954 C948 1.383 . S
C954 C953 1.379 . S
H955 C949 0.959 . S
H956 C949 0.961 . S
H957 C949 0.960 . S
H958 C950 0.930 . S
H959 C951 0.929 . S
H960 C968 0.929 . S
H961 C970 0.930 . S
H962 C972 0.930 . S
H963 C975 0.929 . S
H964 C978 0.930 . S
H965 C980 0.960 . S
H966 C980 0.960 . S
H967 C980 0.960 . S
C968 H960 0.929 . S
C968 C969 1.377 . S
C968 C970 1.384 . S
C969 C968 1.377 . S
C969 C975 1.390 . S
C970 H961 0.930 . S
C970 C968 1.384 . S
C970 C971 1.372 . S
C971 C970 1.372 . S
C971 C972 1.400 . S
C971 C976 1.490 . S
C972 H962 0.930 . S
C972 C971 1.400 . S
C972 C975 1.386 . S
H973 C989 0.930 . S
H974 C990 0.931 . S
C975 H963 0.929 . S
C975 C969 1.390 . S
C975 C972 1.386 . S
C976 C971 1.490 . S
C976 C978 1.395 . S
C976 C979 1.403 1_455 S
H977 C983 0.930 . S
C978 H964 0.930 . S
C978 C976 1.395 . S
C978 C981 1.403 . S
C979 C976 1.403 1_655 S
C979 C980 1.524 . S
C979 C983 1.400 . S
C980 H965 0.960 . S
C980 H966 0.960 . S
C980 H967 0.960 . S
C980 C979 1.524 . S
C981 C978 1.403 . S
C981 C982 1.392 1_455 S
C981 C985 1.495 . S
C982 C981 1.392 1_655 S
C982 C983 1.385 . S
C982 C984 1.478 . S
C983 H977 0.930 . S
C983 C979 1.400 . S
C983 C982 1.385 . S
C984 C982 1.478 . S
C984 C986 1.381 . S
C984 C990 1.383 . S
C985 C981 1.495 . S
C985 H991 0.959 . S
C985 H992 0.961 . S
C985 H993 0.960 . S
C986 C984 1.381 . S
C986 C987 1.394 . S
C986 H994 0.930 . S
C987 C986 1.394 . S
C987 C988 1.383 . S
C987 H995 0.929 . S
C988 C987 1.383 . S
C988 C989 1.377 . S
C989 H973 0.930 . S
C989 C988 1.377 . S
C989 C990 1.379 . S
C990 H974 0.931 . S
C990 C984 1.383 . S
C990 C989 1.379 . S
H991 C985 0.959 . S
H992 C985 0.961 . S
H993 C985 0.960 . S
H994 C986 0.930 . S
H995 C987 0.929 . S
H996 C1004 0.929 . S
H997 C1006 0.930 . S
H998 C1008 0.930 . S
H999 C1011 0.929 . S
H1000 C1014 0.930 . S
H1001 C1016 0.960 . S
H1002 C1016 0.960 . S
H1003 C1016 0.960 . S
C1004 H996 0.929 . S
C1004 C1005 1.377 . S
C1004 C1006 1.384 . S
C1005 C1004 1.377 . S
C1005 C1011 1.390 . S
C1006 H997 0.930 . S
C1006 C1004 1.384 . S
C1006 C1007 1.372 . S
C1007 C1006 1.372 . S
C1007 C1008 1.400 . S
C1007 C1012 1.490 . S
C1008 H998 0.930 . S
C1008 C1007 1.400 . S
C1008 C1011 1.386 . S
H1009 C1025 0.930 . S
H1010 C1026 0.931 . S
C1011 H999 0.929 . S
C1011 C1005 1.390 . S
C1011 C1008 1.386 . S
C1012 C1007 1.490 . S
C1012 C1014 1.395 1_565 S
C1012 C1015 1.403 . S
H1013 C1019 0.930 . S
C1014 H1000 0.930 . S
C1014 C1012 1.395 1_545 S
C1014 C1017 1.403 . S
C1015 C1012 1.403 . S
C1015 C1016 1.524 . S
C1015 C1019 1.400 . S
C1016 H1001 0.960 . S
C1016 H1002 0.960 . S
C1016 H1003 0.960 . S
C1016 C1015 1.524 . S
C1017 C1014 1.403 . S
C1017 C1018 1.392 . S
C1017 C1021 1.495 . S
C1018 C1017 1.392 . S
C1018 C1019 1.385 1_545 S
C1018 C1020 1.478 . S
C1019 H1013 0.930 . S
C1019 C1015 1.400 . S
C1019 C1018 1.385 1_565 S
C1020 C1018 1.478 . S
C1020 C1022 1.381 . S
C1020 C1026 1.383 . S
C1021 C1017 1.495 . S
C1021 H1027 0.959 . S
C1021 H1028 0.961 . S
C1021 H1029 0.960 . S
C1022 C1020 1.381 . S
C1022 C1023 1.394 . S
C1022 H1030 0.930 . S
C1023 C1022 1.394 . S
C1023 C1024 1.383 . S
C1023 H1031 0.929 . S
C1024 C1023 1.383 . S
C1024 C1025 1.377 . S
C1025 H1009 0.930 . S
C1025 C1024 1.377 . S
C1025 C1026 1.379 . S
C1026 H1010 0.931 . S
C1026 C1020 1.383 . S
C1026 C1025 1.379 . S
H1027 C1021 0.959 . S
H1028 C1021 0.961 . S
H1029 C1021 0.960 . S
H1030 C1022 0.930 . S
H1031 C1023 0.929 . S
C177 C105 1.065 . S
C196 C7 1.045 . S
C213 C21 1.059 . S
C232 C119 1.037 . S
C249 C35 1.071 . S
C268 C133 1.089 . S
C285 C49 1.065 . S
C304 C147 1.046 . S
C321 C161 1.068 . S
C340 C63 1.061 . S
C357 C91 1.066 . S
C376 C77 1.048 . S
C393 C149 1.728 . S
C412 C9 1.728 . S
C429 C23 1.726 . S
C448 C163 1.736 . S
C465 C37 1.726 . S
C484 C93 1.737 . S
C501 C107 1.726 . S
C520 C51 1.737 . S
C537 C121 1.730 . S
C556 C65 1.714 . S
C573 C135 1.731 . S
C592 C79 1.711 . S
C609 C6 1.810 . S
C628 C118 1.787 . S
C645 C20 1.805 . S
C664 C132 1.820 . S
C681 C146 1.812 . S
C700 C34 1.813 . S
C717 C48 1.810 . S
C736 C160 1.789 . S
C753 C90 1.803 . S
C772 C62 1.809 . S
C789 C104 1.808 . S
C808 C76 1.782 . S
C825 C50 1.279 . S
C844 C8 1.290 . S
C861 C64 1.282 . S
C880 C22 1.258 . S
C897 C36 1.286 . S
C916 C78 1.252 . S
C933 C92 1.285 . S
C952 C134 1.251 . S
C969 C106 1.282 . S
C988 C148 1.283 . S
C1005 C162 1.280 . S
C1024 C120 1.268 . S
