# Generated by pormake.
# Topology lcy, (6)-cn, num edge types: 1
# Building blocks:
#     Node 0, Type 0, BuildingBlock: UKALOJ_clean_sbu_0, # of connection points: 6
#     Node 1, Type 0, BuildingBlock: UKALOJ_clean_sbu_0, # of connection points: 6
#     Node 2, Type 0, BuildingBlock: UKALOJ_clean_sbu_0, # of connection points: 6
#     Node 3, Type 0, BuildingBlock: UKALOJ_clean_sbu_0, # of connection points: 6
#     Edge 4, Type (0, 0), BuildingBlock: AJUNOK_clean_linker_0, # of connection points: 2
#     Edge 5, Type (0, 0), BuildingBlock: AJUNOK_clean_linker_0, # of connection points: 2
#     Edge 6, Type (0, 0), BuildingBlock: AJUNOK_clean_linker_0, # of connection points: 2
#     Edge 7, Type (0, 0), BuildingBlock: AJUNOK_clean_linker_0, # of connection points: 2
#     Edge 8, Type (0, 0), BuildingBlock: AJUNOK_clean_linker_0, # of connection points: 2
#     Edge 9, Type (0, 0), BuildingBlock: AJUNOK_clean_linker_0, # of connection points: 2
#     Edge 10, Type (0, 0), BuildingBlock: AJUNOK_clean_linker_0, # of connection points: 2
#     Edge 11, Type (0, 0), BuildingBlock: AJUNOK_clean_linker_0, # of connection points: 2
#     Edge 12, Type (0, 0), BuildingBlock: AJUNOK_clean_linker_0, # of connection points: 2
#     Edge 13, Type (0, 0), BuildingBlock: AJUNOK_clean_linker_0, # of connection points: 2
#     Edge 14, Type (0, 0), BuildingBlock: AJUNOK_clean_linker_0, # of connection points: 2
#     Edge 15, Type (0, 0), BuildingBlock: AJUNOK_clean_linker_0, # of connection points: 2
# Relax obj value: 0.371
# Max RMSD: 0.307
# Mean RMSD: 0.267
data_MOF--net-lcy--node1-UKALOJ_clean_sbu_0--edge1-AJUNOK_clean_linker_0
_symmetry_space_group_name_H-M    P1
_symmetry_Int_Tables_number       1
_symmetry_cell_setting            triclinic
loop_
_symmetry_equiv_pos_as_xyz
'x, y, z'
_cell_length_a     20.559308
_cell_length_b     19.842446
_cell_length_c     20.476903
_cell_angle_alpha  88.908659
_cell_angle_beta   101.737
_cell_angle_gamma 101.90999
loop_
_atom_site_label
_atom_site_type_symbol
_atom_site_fract_x
_atom_site_fract_y
_atom_site_fract_z
_atom_type_partial_charge
Zn0 Zn 0.35116 0.47113 0.35 0.0
O1 O 0.31835 0.52131 0.4235 0.0
C2 C 0.4499 0.6002 0.34175 0.0
Zn3 Zn 0.44811 0.47304 0.42283 0.0
C4 C 0.35698 0.53892 0.48029 0.0
O5 O 0.41621 0.52544 0.49421 0.0
C6 C 0.43983 0.40249 0.29309 0.0
O7 O 0.40037 0.37673 0.46179 0.0
O8 O 0.30982 0.37848 0.38428 0.0
N9 N 0.54279 0.47106 0.48134 0.0
C10 C 0.5758 0.41816 0.48952 0.0
C11 C 0.65011 0.51015 0.51826 0.0
N12 N 0.58922 0.52812 0.49936 0.0
N13 N 0.64328 0.44151 0.51124 0.0
C14 C 0.24418 0.51208 0.2384 0.0
C15 C 0.20955 0.41527 0.1862 0.0
N16 N 0.26362 0.46383 0.28054 0.0
N17 N 0.24061 0.40359 0.24846 0.0
N18 N 0.21176 0.48309 0.17811 0.0
H19 H 0.28774 0.59985 0.30684 0.0
H20 H 0.20316 0.59508 0.26568 0.0
H21 H 0.26825 0.62061 0.2184 0.0
C22 C 0.25267 0.58628 0.25825 0.0
C23 C 0.54127 0.34345 0.48099 0.0
H24 H 0.50365 0.33218 0.51362 0.0
H25 H 0.57759 0.3089 0.4952 0.0
H26 H 0.51397 0.33147 0.4288 0.0
O27 O 0.47819 0.4197 0.34941 0.0
O28 O 0.38367 0.42102 0.27926 0.0
C29 C 0.33955 0.34962 0.4336 0.0
O30 O 0.39207 0.56518 0.31563 0.0
O31 O 0.48894 0.57287 0.38603 0.0
Zn32 Zn 0.93525 0.17659 0.60482 0.0
O33 O 0.88406 0.25354 0.55083 0.0
C34 C 0.96586 0.27692 0.71615 0.0
Zn35 Zn 0.85553 0.1507 0.66682 0.0
C36 C 0.83197 0.2635 0.57159 0.0
O37 O 0.81101 0.2269 0.61754 0.0
C38 C 0.95535 0.05718 0.69861 0.0
O39 O 0.79155 0.07628 0.59011 0.0
O40 O 0.876 0.10179 0.53709 0.0
N41 N 0.78649 0.13908 0.73075 0.0
C42 C 0.76756 0.09059 0.77452 0.0
C43 C 0.73396 0.18033 0.79707 0.0
N44 N 0.76495 0.19447 0.74496 0.0
N45 N 0.73558 0.11571 0.81769 0.0
C46 C 0.06711 0.22879 0.54393 0.0
C47 C 0.0747 0.13264 0.50454 0.0
N48 N 0.01042 0.18283 0.55012 0.0
N49 N 0.01557 0.12336 0.5253 0.0
N50 N 0.10881 0.19806 0.51689 0.0
H51 H 0.02964 0.32098 0.53497 0.0
H52 H 0.11851 0.3342 0.53401 0.0
H53 H 0.09001 0.31534 0.6115 0.0
C54 C 0.07743 0.30441 0.55699 0.0
C55 C 0.77617 1.01779 0.77137 0.0
H56 H 0.77333 1.00207 0.71896 0.0
H57 H 0.7368 0.98244 0.79254 0.0
H58 H 0.82676 1.01406 0.80057 0.0
O59 O 0.90284 0.06966 0.716 0.0
O60 O 0.98201 0.09779 0.65811 0.0
C61 C 0.81687 0.06881 0.53907 0.0
O62 O 0.99225 0.25797 0.67035 0.0
O63 O 0.91719 0.23462 0.73407 0.0
Zn64 Zn 0.05865 0.6798 0.86842 0.0
O65 O 0.1454 0.74867 0.93634 0.0
C66 C 0.03702 0.79205 0.77124 0.0
Zn67 Zn 0.13127 0.6948 0.80659 0.0
C68 C 0.19523 0.78431 0.91396 0.0
O69 O 0.19475 0.78025 0.85257 0.0
C70 C 0.00967 0.57402 0.76831 0.0
O71 O 0.1882 0.63287 0.88118 0.0
O72 O 0.0911 0.59747 0.91052 0.0
N73 N 0.1953 0.69754 0.74274 0.0
C74 C 0.21348 0.64726 0.71183 0.0
C75 C 0.26318 0.7432 0.67889 0.0
N76 N 0.22633 0.75711 0.72238 0.0
N77 N 0.25582 0.67463 0.67153 0.0
C78 C 0.97445 0.71426 0.96903 0.0
C79 C 0.92165 0.61299 0.98523 0.0
N80 N 0.99633 0.66999 0.934 0.0
N81 N 0.96375 0.60718 0.94445 0.0
N82 N 0.92719 0.67962 1.0016 0.0
H83 H 0.05492 0.80251 0.96663 0.0
H84 H 0.9983 0.81262 0.02108 0.0
H85 H 0.97144 0.81512 0.93158 0.0
C86 C 1.00155 0.79053 0.97275 0.0
C87 C 0.19193 0.5717 0.72274 0.0
H88 H 0.18216 0.56244 0.77372 0.0
H89 H 0.23142 0.54379 0.71505 0.0
H90 H 0.14454 0.55073 0.6862 0.0
O91 O 0.06799 0.60244 0.75848 0.0
O92 O 0.98258 0.60503 0.80599 0.0
C93 C 0.15315 0.59701 0.91933 0.0
O94 O 0.02163 0.76601 0.82466 0.0
O95 O 0.0762 0.76473 0.74353 0.0
Zn96 Zn 0.60691 0.90017 0.1507 0.0
O97 O 0.51886 0.84769 0.07537 0.0
C98 C 0.64462 1.01022 0.05791 0.0
Zn99 Zn 0.55393 0.98366 0.16012 0.0
C100 C 0.4707 0.88033 0.05878 0.0
O101 O 0.47673 0.93904 0.08443 0.0
C102 C 0.67828 0.99955 0.26479 0.0
O103 O 0.5002 0.92421 0.23145 0.0
O104 O 0.56343 0.84964 0.22121 0.0
N105 N 0.50571 0.06286 0.15634 0.0
C106 C 0.50369 0.11129 0.20037 0.0
C107 C 0.45916 0.1416 0.10382 0.0
N108 N 0.47776 0.08164 0.0965 0.0
N109 N 0.4754 0.16166 0.16847 0.0
C110 C 0.68488 0.8015 0.10141 0.0
C111 C 0.7357 0.76802 0.19375 0.0
N112 N 0.65987 0.82508 0.15018 0.0
N113 N 0.69095 0.8037 0.20745 0.0
N114 N 0.73345 0.76636 0.12758 0.0
H115 H 0.60534 0.81398 0.01838 0.0
H116 H 0.66579 0.76717 0.99862 0.0
H117 H 0.68854 0.8592 0.01193 0.0
C118 C 0.65953 0.8107 0.02839 0.0
C119 C 0.5272 0.10763 0.27422 0.0
H120 H 0.52283 0.05315 0.28927 0.0
H121 H 0.49687 0.1332 0.30115 0.0
H122 H 0.58119 0.13441 0.2883 0.0
O123 O 0.62929 0.02872 0.24172 0.0
O124 O 0.68691 0.94977 0.23135 0.0
C125 C 0.52025 0.86835 0.24854 0.0
O126 O 0.65466 0.95155 0.0769 0.0
O127 O 0.60695 0.03847 0.08613 0.0
C128 C 0.21955 0.52529 0.99897 0.0
C129 C 0.18224 0.57748 0.98724 0.0
C130 C 0.23003 0.4953 0.0622 0.0
C131 C 0.20222 0.51571 0.1146 0.0
H132 H 0.23771 0.50544 0.95869 0.0
H133 H 0.25874 0.45478 0.06987 0.0
S134 S 0.10002 0.64957 0.1082 0.0
N135 N 0.12125 0.65108 0.03473 0.0
N136 N 0.13378 0.58859 0.14897 0.0
C137 C 0.16549 0.5679 0.10322 0.0
C138 C 0.15766 0.60051 0.04076 0.0
C139 C 0.68305 0.04235 0.38078 0.0
C140 C 0.71435 1.01352 0.33586 0.0
C141 C 0.71301 0.05326 0.44886 0.0
C142 C 0.77591 0.03615 0.47511 0.0
H143 H 0.63476 0.05688 0.36345 0.0
H144 H 0.68869 0.07919 0.48015 0.0
S145 S 0.87696 0.95408 0.38133 0.0
N146 N 0.80984 0.96329 0.32464 0.0
N147 N 0.86701 0.98533 0.45202 0.0
C148 C 0.80652 1.00465 0.43163 0.0
C149 C 0.77564 0.99292 0.36236 0.0
C150 C 0.23798 0.59313 0.57773 0.0
C151 C 0.28221 0.64018 0.62526 0.0
C152 C 0.26265 0.56083 0.53061 0.0
C153 C 0.33245 0.57404 0.53017 0.0
H154 H 0.1839 0.58225 0.5764 0.0
H155 H 0.2269 0.52486 0.4947 0.0
S156 S 0.46846 0.69439 0.64406 0.0
N157 N 0.398 0.69967 0.66882 0.0
N158 N 0.44524 0.63822 0.58086 0.0
C159 C 0.37715 0.62103 0.57768 0.0
C160 C 0.35173 0.65453 0.62498 0.0
C161 C 0.63209 0.07687 0.95186 0.0
C162 C 0.67107 0.04084 0.99902 0.0
C163 C 0.65285 0.09944 0.89225 0.0
C164 C 0.71349 0.08722 0.87728 0.0
H165 H 0.58425 0.08608 0.96019 0.0
H166 H 0.62098 0.12653 0.8572 0.0
S167 S 0.83851 1.00382 0.98906 0.0
N168 N 0.7755 0.99818 0.02897 0.0
N169 N 0.81617 0.04401 0.91933 0.0
C170 C 0.75425 0.05375 0.92546 0.0
C171 C 0.73256 0.0297 0.98557 0.0
C172 C 0.1863 0.21386 0.43848 0.0
C173 C 0.17424 0.22615 0.50178 0.0
C174 C 0.2461 0.24756 0.41936 0.0
C175 C 0.2962 0.29413 0.46317 0.0
H176 H 0.14725 0.18159 0.40208 0.0
H177 H 0.25058 0.24172 0.36803 0.0
S178 S 0.29469 0.33254 0.63912 0.0
N179 N 0.22178 0.27827 0.61214 0.0
N180 N 0.33379 0.34347 0.57554 0.0
C181 C 0.28787 0.30113 0.5289 0.0
C182 C 0.22676 0.26681 0.54835 0.0
C183 C 0.96654 0.88127 0.77676 0.0
C184 C 0.01506 0.858 0.7479 0.0
C185 C 0.94927 0.94583 0.76211 0.0
C186 C 0.97958 0.99122 0.71791 0.0
H187 H 0.94155 0.84938 0.81163 0.0
H188 H 0.91147 0.95994 0.7858 0.0
S189 S 0.11025 0.95623 0.62853 0.0
N190 N 0.09361 0.88662 0.67273 0.0
N191 N 0.06123 1.00729 0.64491 0.0
C192 C 0.02832 0.96872 0.68849 0.0
C193 C 0.0458 0.90255 0.70334 0.0
C194 C 0.29166 0.77462 0.0083 0.0
C195 C 0.2618 0.81401 0.95716 0.0
C196 C 0.36145 0.79274 0.03765 0.0
C197 C 0.40368 0.85079 0.01677 0.0
H198 H 0.26158 0.72814 0.02406 0.0
H199 H 0.38198 0.7624 0.07821 0.0
S200 S 0.35044 0.97145 0.88601 0.0
N201 N 0.28033 0.91364 0.88742 0.0
N202 N 0.41022 0.94835 0.94342 0.0
C203 C 0.37417 0.89074 0.96638 0.0
C204 C 0.30372 0.87225 0.93644 0.0
C205 C 0.51424 0.32587 0.26918 0.0
C206 C 0.45341 0.34974 0.2509 0.0
C207 C 0.52191 0.26523 0.24086 0.0
C208 C 0.46869 0.22598 0.19409 0.0
H209 H 0.55521 0.3527 0.3075 0.0
H210 H 0.56944 0.24853 0.25628 0.0
S211 S 0.30346 0.27118 0.12128 0.0
N212 N 0.34236 0.33389 0.17605 0.0
N213 N 0.35668 0.21868 0.12465 0.0
C214 C 0.40978 0.2518 0.17155 0.0
C215 C 0.40213 0.31402 0.19956 0.0
C216 C 0.79139 0.36721 0.5966 0.0
C217 C 0.79671 0.31987 0.54847 0.0
C218 C 0.74318 0.4091 0.58306 0.0
C219 C 0.69758 0.40406 0.52139 0.0
H220 H 0.82235 0.36913 0.64644 0.0
H221 H 0.73895 0.4429 0.6222 0.0
S222 S 0.69532 0.29387 0.37625 0.0
N223 N 0.75594 0.27429 0.43521 0.0
N224 N 0.6658 0.35383 0.40916 0.0
C225 C 0.70533 0.36029 0.47137 0.0
C226 C 0.75475 0.31785 0.48511 0.0
C227 C 0.97442 0.4509 0.80226 0.0
C228 C 0.98568 0.49893 0.75173 0.0
C229 C 0.96856 0.37929 0.79144 0.0
C230 C 0.97488 0.35304 0.73002 0.0
H231 H 0.97333 0.46908 0.8515 0.0
H232 H 0.96059 0.34456 0.83184 0.0
S233 S 0.99245 0.45674 0.57856 0.0
N234 N 0.99589 0.51442 0.63674 0.0
N235 N 0.98248 0.38166 0.6153 0.0
C236 C 0.98221 0.40081 0.67841 0.0
C237 C 0.98838 0.47307 0.68955 0.0
C238 C 0.85698 0.76296 0.01622 0.0
C239 C 0.88318 0.7044 0.0374 0.0
C240 C 0.80898 0.78349 0.04647 0.0
C241 C 0.78246 0.7442 0.09654 0.0
H242 H 0.87191 0.79235 0.97487 0.0
H243 H 0.79323 0.83084 0.03057 0.0
S244 S 0.83573 0.58772 0.17141 0.0
N245 N 0.88201 0.60945 0.11423 0.0
N246 N 0.78783 0.64556 0.16797 0.0
C247 C 0.8087 0.68601 0.11878 0.0
C248 C 0.85937 0.66633 0.08948 0.0
C249 C 0.4324 0.76818 0.25506 0.0
C250 C 0.48815 0.81597 0.28953 0.0
C251 C 0.42219 0.69869 0.27173 0.0
C252 C 0.46554 0.67428 0.32526 0.0
H253 H 0.40128 0.78281 0.20986 0.0
H254 H 0.3818 0.66329 0.23993 0.0
S255 S 0.61426 0.78162 0.43671 0.0
N256 N 0.58491 0.83617 0.38221 0.0
N257 N 0.56285 0.70592 0.41695 0.0
C258 C 0.51843 0.72281 0.36363 0.0
C259 C 0.52978 0.79359 0.34546 0.0
loop_
_geom_bond_atom_site_label_1
_geom_bond_atom_site_label_2
_geom_bond_distance
_geom_bond_site_symmetry_2
_ccdc_geom_bond_type
Zn0 O1 2.055 . S
Zn0 O8 2.046 . S
Zn0 N16 2.036 . S
Zn0 O28 2.053 . S
Zn0 O30 2.066 . S
O1 Zn0 2.055 . S
O1 C4 1.259 . S
C2 O30 1.256 . S
C2 O31 1.244 . S
Zn3 O5 2.046 . S
Zn3 O7 2.055 . S
Zn3 N9 2.036 . S
Zn3 O27 2.066 . S
Zn3 O31 2.053 . S
C4 O1 1.259 . S
C4 O5 1.254 . S
O5 Zn3 2.046 . S
O5 C4 1.254 . S
C6 O27 1.256 . S
C6 O28 1.244 . S
O7 Zn3 2.055 . S
O7 C29 1.259 . S
O8 Zn0 2.046 . S
O8 C29 1.254 . S
N9 Zn3 2.036 . S
N9 C10 1.298 . S
N9 N12 1.398 . S
C10 N9 1.298 . S
C10 N13 1.367 . S
C10 C23 1.481 . S
C11 N12 1.299 . S
C11 N13 1.379 . S
N12 N9 1.398 . S
N12 C11 1.299 . S
N13 C10 1.367 . S
N13 C11 1.379 . S
C14 N16 1.298 . S
C14 N18 1.367 . S
C14 C22 1.481 . S
C15 N17 1.299 . S
C15 N18 1.379 . S
N16 Zn0 2.036 . S
N16 C14 1.298 . S
N16 N17 1.398 . S
N17 C15 1.299 . S
N17 N16 1.398 . S
N18 C14 1.367 . S
N18 C15 1.379 . S
H19 C22 0.980 . S
H20 C22 0.981 . S
H21 C22 0.981 . S
C22 C14 1.481 . S
C22 H19 0.980 . S
C22 H20 0.981 . S
C22 H21 0.981 . S
C23 C10 1.481 . S
C23 H24 0.980 . S
C23 H25 0.981 . S
C23 H26 0.981 . S
H24 C23 0.980 . S
H25 C23 0.981 . S
H26 C23 0.981 . S
O27 Zn3 2.066 . S
O27 C6 1.256 . S
O28 Zn0 2.053 . S
O28 C6 1.244 . S
C29 O7 1.259 . S
C29 O8 1.254 . S
O30 Zn0 2.066 . S
O30 C2 1.256 . S
O31 C2 1.244 . S
O31 Zn3 2.053 . S
Zn32 O33 2.055 . S
Zn32 O40 2.046 . S
Zn32 N48 2.036 . S
Zn32 O60 2.053 . S
Zn32 O62 2.066 . S
O33 Zn32 2.055 . S
O33 C36 1.259 . S
C34 O62 1.256 . S
C34 O63 1.244 . S
Zn35 O37 2.046 . S
Zn35 O39 2.055 . S
Zn35 N41 2.036 . S
Zn35 O59 2.066 . S
Zn35 O63 2.053 . S
C36 O33 1.259 . S
C36 O37 1.254 . S
O37 Zn35 2.046 . S
O37 C36 1.254 . S
C38 O59 1.256 . S
C38 O60 1.244 . S
O39 Zn35 2.055 . S
O39 C61 1.259 . S
O40 Zn32 2.046 . S
O40 C61 1.254 . S
N41 Zn35 2.036 . S
N41 C42 1.298 . S
N41 N44 1.398 . S
C42 N41 1.298 . S
C42 N45 1.367 . S
C42 C55 1.481 1_545 S
C43 N44 1.299 . S
C43 N45 1.379 . S
N44 N41 1.398 . S
N44 C43 1.299 . S
N45 C42 1.367 . S
N45 C43 1.379 . S
C46 N48 1.298 1_455 S
C46 N50 1.367 . S
C46 C54 1.481 1_455 S
C47 N49 1.299 . S
C47 N50 1.379 . S
N48 Zn32 2.036 . S
N48 C46 1.298 1_655 S
N48 N49 1.398 1_655 S
N49 C47 1.299 . S
N49 N48 1.398 1_455 S
N50 C46 1.367 . S
N50 C47 1.379 . S
H51 C54 0.980 . S
H52 C54 0.981 . S
H53 C54 0.981 1_455 S
C54 C46 1.481 1_655 S
C54 H51 0.980 . S
C54 H52 0.981 . S
C54 H53 0.981 1_655 S
C55 C42 1.481 1_565 S
C55 H56 0.980 . S
C55 H57 0.981 . S
C55 H58 0.981 . S
H56 C55 0.980 . S
H57 C55 0.981 . S
H58 C55 0.981 . S
O59 Zn35 2.066 . S
O59 C38 1.256 . S
O60 Zn32 2.053 . S
O60 C38 1.244 . S
C61 O39 1.259 . S
C61 O40 1.254 . S
O62 Zn32 2.066 . S
O62 C34 1.256 . S
O63 C34 1.244 . S
O63 Zn35 2.053 . S
Zn64 O65 2.055 . S
Zn64 O72 2.046 . S
Zn64 N80 2.036 . S
Zn64 O92 2.053 . S
Zn64 O94 2.066 . S
O65 Zn64 2.055 . S
O65 C68 1.259 . S
C66 O94 1.256 . S
C66 O95 1.244 . S
Zn67 O69 2.046 . S
Zn67 O71 2.055 . S
Zn67 N73 2.036 . S
Zn67 O91 2.066 . S
Zn67 O95 2.053 . S
C68 O65 1.259 . S
C68 O69 1.254 . S
O69 Zn67 2.046 . S
O69 C68 1.254 . S
C70 O91 1.256 . S
C70 O92 1.244 . S
O71 Zn67 2.055 . S
O71 C93 1.259 . S
O72 Zn64 2.046 . S
O72 C93 1.254 . S
N73 Zn67 2.036 . S
N73 C74 1.298 . S
N73 N76 1.398 . S
C74 N73 1.298 . S
C74 N77 1.367 . S
C74 C87 1.481 . S
C75 N76 1.299 . S
C75 N77 1.379 . S
N76 N73 1.398 . S
N76 C75 1.299 . S
N77 C74 1.367 . S
N77 C75 1.379 . S
C78 N80 1.298 . S
C78 N82 1.367 1_455 S
C78 C86 1.481 . S
C79 N81 1.299 . S
C79 N82 1.379 . S
N80 Zn64 2.036 . S
N80 C78 1.298 . S
N80 N81 1.398 1_455 S
N81 C79 1.299 . S
N81 N80 1.398 1_655 S
N82 C78 1.367 1_655 S
N82 C79 1.379 . S
H83 C86 0.980 . S
H84 C86 0.993 . S
H85 C86 0.981 . S
C86 C78 1.481 . S
C86 H83 0.980 . S
C86 H84 0.993 . S
C86 H85 0.981 . S
C87 C74 1.481 . S
C87 H88 0.980 . S
C87 H89 0.981 . S
C87 H90 0.981 . S
H88 C87 0.980 . S
H89 C87 0.981 . S
H90 C87 0.981 . S
O91 Zn67 2.066 . S
O91 C70 1.256 . S
O92 Zn64 2.053 . S
O92 C70 1.244 . S
C93 O71 1.259 . S
C93 O72 1.254 . S
O94 Zn64 2.066 . S
O94 C66 1.256 . S
O95 C66 1.244 . S
O95 Zn67 2.053 . S
Zn96 O97 2.055 . S
Zn96 O104 2.046 . S
Zn96 N112 2.036 . S
Zn96 O124 2.053 . S
Zn96 O126 2.066 . S
O97 Zn96 2.055 . S
O97 C100 1.259 . S
C98 O126 1.256 . S
C98 O127 1.244 . S
Zn99 O101 2.046 . S
Zn99 O103 2.055 . S
Zn99 N105 2.036 1_565 S
Zn99 O123 2.066 . S
Zn99 O127 2.053 . S
C100 O97 1.259 . S
C100 O101 1.254 . S
O101 Zn99 2.046 . S
O101 C100 1.254 . S
C102 O123 1.256 . S
C102 O124 1.244 . S
O103 Zn99 2.055 . S
O103 C125 1.259 . S
O104 Zn96 2.046 . S
O104 C125 1.254 . S
N105 Zn99 2.036 1_545 S
N105 C106 1.298 . S
N105 N108 1.398 . S
C106 N105 1.298 . S
C106 N109 1.367 . S
C106 C119 1.481 1_545 S
C107 N108 1.299 . S
C107 N109 1.379 . S
N108 N105 1.398 . S
N108 C107 1.299 . S
N109 C106 1.367 . S
N109 C107 1.379 . S
C110 N112 1.298 . S
C110 N114 1.367 . S
C110 C118 1.481 . S
C111 N113 1.299 . S
C111 N114 1.379 . S
N112 Zn96 2.036 . S
N112 C110 1.298 . S
N112 N113 1.398 . S
N113 C111 1.299 . S
N113 N112 1.398 . S
N114 C110 1.367 . S
N114 C111 1.379 . S
H115 C118 0.980 . S
H116 C118 0.981 1_556 S
H117 C118 0.981 1_556 S
C118 C110 1.481 . S
C118 H115 0.980 . S
C118 H116 0.981 1_554 S
C118 H117 0.981 1_554 S
C119 C106 1.481 1_565 S
C119 H120 0.980 . S
C119 H121 0.981 . S
C119 H122 0.981 1_565 S
H120 C119 0.980 . S
H121 C119 0.981 . S
H122 C119 0.981 1_545 S
O123 Zn99 2.066 . S
O123 C102 1.256 . S
O124 Zn96 2.053 . S
O124 C102 1.244 . S
C125 O103 1.259 . S
C125 O104 1.254 . S
O126 Zn96 2.066 . S
O126 C98 1.256 . S
O127 C98 1.244 . S
O127 Zn99 2.053 . S
C128 C129 1.369 . S
C128 C130 1.418 1_556 S
C128 H132 0.930 . S
C129 C128 1.369 . S
C129 C138 1.429 1_556 S
C130 C128 1.418 1_554 S
C130 C131 1.363 . S
C130 H133 0.929 . S
C131 C130 1.363 . S
C131 C137 1.428 . S
H132 C128 0.930 . S
H133 C130 0.929 . S
S134 N135 1.613 1_554 S
S134 N136 1.610 . S
N135 S134 1.613 1_556 S
N135 C138 1.350 1_556 S
N136 S134 1.610 . S
N136 C137 1.351 . S
C137 C131 1.428 . S
C137 N136 1.351 . S
C137 C138 1.434 . S
C138 C129 1.429 1_554 S
C138 N135 1.350 1_554 S
C138 C137 1.434 . S
C139 C140 1.369 1_545 S
C139 C141 1.419 . S
C139 H143 0.930 . S
C140 C139 1.369 1_565 S
C140 C149 1.429 . S
C141 C139 1.419 . S
C141 C142 1.363 1_545 S
C141 H144 0.929 . S
C142 C141 1.363 1_565 S
C142 C148 1.428 . S
H143 C139 0.930 . S
H144 C141 0.929 . S
S145 N146 1.613 . S
S145 N147 1.610 . S
N146 S145 1.613 . S
N146 C149 1.350 . S
N147 S145 1.610 . S
N147 C148 1.351 . S
C148 C142 1.428 . S
C148 N147 1.351 . S
C148 C149 1.434 . S
C149 C140 1.429 . S
C149 N146 1.350 . S
C149 C148 1.434 . S
C150 C151 1.369 . S
C150 C152 1.419 . S
C150 H154 0.930 . S
C151 C150 1.369 . S
C151 C160 1.429 . S
C152 C150 1.419 . S
C152 C153 1.363 . S
C152 H155 0.929 . S
C153 C152 1.363 . S
C153 C159 1.428 . S
H154 C150 0.930 . S
H155 C152 0.929 . S
S156 N157 1.613 . S
S156 N158 1.610 . S
N157 S156 1.613 . S
N157 C160 1.350 . S
N158 S156 1.610 . S
N158 C159 1.351 . S
C159 C153 1.428 . S
C159 N158 1.351 . S
C159 C160 1.434 . S
C160 C151 1.429 . S
C160 N157 1.350 . S
C160 C159 1.434 . S
C161 C162 1.369 1_556 S
C161 C163 1.419 . S
C161 H165 0.930 . S
C162 C161 1.369 1_554 S
C162 C171 1.429 1_565 S
C163 C161 1.419 . S
C163 C164 1.363 1_565 S
C163 H166 0.929 . S
C164 C163 1.363 1_545 S
C164 C170 1.428 . S
H165 C161 0.930 . S
H166 C163 0.929 . S
S167 N168 1.613 . S
S167 N169 1.610 1_554 S
N168 S167 1.613 . S
N168 C171 1.350 . S
N169 S167 1.610 1_556 S
N169 C170 1.351 . S
C170 C164 1.428 . S
C170 N169 1.351 . S
C170 C171 1.434 1_556 S
C171 C162 1.429 1_545 S
C171 N168 1.350 . S
C171 C170 1.434 1_554 S
C172 C173 1.369 . S
C172 C174 1.419 . S
C172 H176 0.930 . S
C173 C172 1.369 . S
C173 C182 1.429 . S
C174 C172 1.419 . S
C174 C175 1.363 . S
C174 H177 0.929 . S
C175 C174 1.363 . S
C175 C181 1.428 . S
H176 C172 0.930 . S
H177 C174 0.929 . S
S178 N179 1.613 . S
S178 N180 1.610 . S
N179 S178 1.613 . S
N179 C182 1.350 . S
N180 S178 1.610 . S
N180 C181 1.351 . S
C181 C175 1.428 . S
C181 N180 1.351 . S
C181 C182 1.434 . S
C182 C173 1.429 . S
C182 N179 1.350 . S
C182 C181 1.434 . S
C183 C184 1.369 . S
C183 C185 1.419 . S
C183 H187 0.930 . S
C184 C183 1.369 . S
C184 C193 1.429 . S
C185 C183 1.419 . S
C185 C186 1.363 1_455 S
C185 H188 0.929 1_455 S
C186 C185 1.363 1_655 S
C186 C192 1.428 1_655 S
H187 C183 0.930 . S
H188 C185 0.929 1_655 S
S189 N190 1.613 . S
S189 N191 1.610 . S
N190 S189 1.613 . S
N190 C193 1.350 . S
N191 S189 1.610 . S
N191 C192 1.351 . S
C192 C186 1.428 1_455 S
C192 N191 1.351 . S
C192 C193 1.434 . S
C193 C184 1.429 . S
C193 N190 1.350 . S
C193 C192 1.434 . S
C194 C195 1.369 . S
C194 C196 1.419 1_556 S
C194 H198 0.930 . S
C195 C194 1.369 . S
C195 C204 1.429 . S
C196 C194 1.419 1_554 S
C196 C197 1.363 . S
C196 H199 0.929 . S
C197 C196 1.363 . S
C197 C203 1.428 1_554 S
H198 C194 0.930 . S
H199 C196 0.929 . S
S200 N201 1.613 . S
S200 N202 1.610 . S
N201 S200 1.613 . S
N201 C204 1.350 . S
N202 S200 1.610 . S
N202 C203 1.351 . S
C203 C197 1.428 1_556 S
C203 N202 1.351 . S
C203 C204 1.434 . S
C204 C195 1.429 . S
C204 N201 1.350 . S
C204 C203 1.434 . S
C205 C206 1.369 . S
C205 C207 1.419 . S
C205 H209 0.930 . S
C206 C205 1.369 . S
C206 C215 1.429 . S
C207 C205 1.419 . S
C207 C208 1.363 . S
C207 H210 0.929 . S
C208 C207 1.363 . S
C208 C214 1.428 . S
H209 C205 0.930 . S
H210 C207 0.929 . S
S211 N212 1.613 . S
S211 N213 1.610 . S
N212 S211 1.613 . S
N212 C215 1.350 . S
N213 S211 1.610 . S
N213 C214 1.351 . S
C214 C208 1.428 . S
C214 N213 1.351 . S
C214 C215 1.434 . S
C215 C206 1.429 . S
C215 N212 1.350 . S
C215 C214 1.434 . S
C216 C217 1.369 . S
C216 C218 1.419 . S
C216 H220 0.930 . S
C217 C216 1.369 . S
C217 C226 1.429 . S
C218 C216 1.419 . S
C218 C219 1.363 . S
C218 H221 0.929 . S
C219 C218 1.363 . S
C219 C225 1.428 . S
H220 C216 0.930 . S
H221 C218 0.929 . S
S222 N223 1.613 . S
S222 N224 1.610 . S
N223 S222 1.613 . S
N223 C226 1.350 . S
N224 S222 1.610 . S
N224 C225 1.351 . S
C225 C219 1.428 . S
C225 N224 1.351 . S
C225 C226 1.434 . S
C226 C217 1.429 . S
C226 N223 1.350 . S
C226 C225 1.434 . S
C227 C228 1.366 1_655 S
C227 C229 1.419 . S
C227 H231 0.933 1_655 S
C228 C227 1.366 1_455 S
C228 C237 1.429 . S
C229 C227 1.419 . S
C229 C230 1.363 . S
C229 H232 0.929 . S
C230 C229 1.363 . S
C230 C236 1.428 . S
H231 C227 0.933 1_455 S
H232 C229 0.929 . S
S233 N234 1.612 . S
S233 N235 1.609 1_455 S
N234 S233 1.612 . S
N234 C237 1.350 . S
N235 S233 1.609 1_655 S
N235 C236 1.351 . S
C236 C230 1.428 . S
C236 N235 1.351 . S
C236 C237 1.434 1_655 S
C237 C228 1.429 . S
C237 N234 1.350 . S
C237 C236 1.434 1_455 S
C238 C239 1.369 . S
C238 C240 1.412 1_556 S
C238 H242 0.930 . S
C239 C238 1.369 . S
C239 C248 1.429 1_556 S
C240 C238 1.412 1_554 S
C240 C241 1.372 . S
C240 H243 0.927 1_554 S
C241 C240 1.372 . S
C241 C247 1.428 . S
H242 C238 0.930 . S
H243 C240 0.927 1_556 S
S244 N245 1.613 . S
S244 N246 1.610 . S
N245 S244 1.613 . S
N245 C248 1.350 . S
N246 S244 1.610 . S
N246 C247 1.351 . S
C247 C241 1.428 . S
C247 N246 1.351 . S
C247 C248 1.434 . S
C248 C239 1.429 1_554 S
C248 N245 1.350 . S
C248 C247 1.434 . S
C249 C250 1.369 . S
C249 C251 1.419 . S
C249 H253 0.930 . S
C250 C249 1.369 . S
C250 C259 1.429 . S
C251 C249 1.419 . S
C251 C252 1.363 . S
C251 H254 0.929 . S
C252 C251 1.363 . S
C252 C258 1.428 . S
H253 C249 0.930 . S
H254 C251 0.929 . S
S255 N256 1.613 . S
S255 N257 1.610 . S
N256 S255 1.613 . S
N256 C259 1.350 . S
N257 S255 1.610 . S
N257 C258 1.351 . S
C258 C252 1.428 . S
C258 N257 1.351 . S
C258 C259 1.434 . S
C259 C250 1.429 . S
C259 N256 1.350 . S
C259 C258 1.434 . S
C129 C93 1.301 . S
C131 N18 1.321 . S
C140 C102 1.844 . S
C142 C61 1.713 1_565 S
C151 N77 1.106 . S
C153 C4 1.087 . S
C162 C98 1.611 . S
C164 N45 1.543 . S
C173 N50 1.278 . S
C175 C29 1.255 . S
C184 C66 2.033 . S
C186 C38 2.086 1_565 S
C195 C68 1.385 . S
C197 C100 1.526 . S
C206 C6 1.568 . S
C208 N109 1.478 . S
C217 C36 1.411 . S
C219 N13 1.389 . S
C228 C70 2.244 . S
C230 C34 2.221 . S
C239 N82 1.101 . S
C241 N114 1.158 . S
C250 C125 1.575 . S
C252 C2 1.602 . S
