# Generated by pormake.
# Topology ulg, (4)-cn, num edge types: 1
# Building blocks:
#     Node 0, Type 0, BuildingBlock: CEKHIL_clean_sbu_0, # of connection points: 4
#     Node 1, Type 0, BuildingBlock: CEKHIL_clean_sbu_0, # of connection points: 4
#     Node 2, Type 0, BuildingBlock: CEKHIL_clean_sbu_0, # of connection points: 4
#     Node 3, Type 0, BuildingBlock: CEKHIL_clean_sbu_0, # of connection points: 4
#     Node 4, Type 0, BuildingBlock: CEKHIL_clean_sbu_0, # of connection points: 4
#     Node 5, Type 0, BuildingBlock: CEKHIL_clean_sbu_0, # of connection points: 4
#     Node 6, Type 0, BuildingBlock: CEKHIL_clean_sbu_0, # of connection points: 4
#     Node 7, Type 0, BuildingBlock: CEKHIL_clean_sbu_0, # of connection points: 4
#     Node 8, Type 0, BuildingBlock: CEKHIL_clean_sbu_0, # of connection points: 4
#     Node 9, Type 0, BuildingBlock: CEKHIL_clean_sbu_0, # of connection points: 4
#     Node 10, Type 0, BuildingBlock: CEKHIL_clean_sbu_0, # of connection points: 4
#     Node 11, Type 0, BuildingBlock: CEKHIL_clean_sbu_0, # of connection points: 4
#     Node 12, Type 0, BuildingBlock: CEKHIL_clean_sbu_0, # of connection points: 4
#     Node 13, Type 0, BuildingBlock: CEKHIL_clean_sbu_0, # of connection points: 4
#     Node 14, Type 0, BuildingBlock: CEKHIL_clean_sbu_0, # of connection points: 4
#     Node 15, Type 0, BuildingBlock: CEKHIL_clean_sbu_0, # of connection points: 4
#     Node 16, Type 0, BuildingBlock: CEKHIL_clean_sbu_0, # of connection points: 4
#     Node 17, Type 0, BuildingBlock: CEKHIL_clean_sbu_0, # of connection points: 4
#     Node 18, Type 0, BuildingBlock: CEKHIL_clean_sbu_0, # of connection points: 4
#     Node 19, Type 0, BuildingBlock: CEKHIL_clean_sbu_0, # of connection points: 4
#     Node 20, Type 0, BuildingBlock: CEKHIL_clean_sbu_0, # of connection points: 4
#     Node 21, Type 0, BuildingBlock: CEKHIL_clean_sbu_0, # of connection points: 4
#     Node 22, Type 0, BuildingBlock: CEKHIL_clean_sbu_0, # of connection points: 4
#     Node 23, Type 0, BuildingBlock: CEKHIL_clean_sbu_0, # of connection points: 4
#     Node 24, Type 0, BuildingBlock: CEKHIL_clean_sbu_0, # of connection points: 4
#     Node 25, Type 0, BuildingBlock: CEKHIL_clean_sbu_0, # of connection points: 4
#     Node 26, Type 0, BuildingBlock: CEKHIL_clean_sbu_0, # of connection points: 4
#     Node 27, Type 0, BuildingBlock: CEKHIL_clean_sbu_0, # of connection points: 4
#     Node 28, Type 0, BuildingBlock: CEKHIL_clean_sbu_0, # of connection points: 4
#     Node 29, Type 0, BuildingBlock: CEKHIL_clean_sbu_0, # of connection points: 4
#     Node 30, Type 0, BuildingBlock: CEKHIL_clean_sbu_0, # of connection points: 4
#     Node 31, Type 0, BuildingBlock: CEKHIL_clean_sbu_0, # of connection points: 4
#     Node 32, Type 0, BuildingBlock: CEKHIL_clean_sbu_0, # of connection points: 4
#     Node 33, Type 0, BuildingBlock: CEKHIL_clean_sbu_0, # of connection points: 4
#     Node 34, Type 0, BuildingBlock: CEKHIL_clean_sbu_0, # of connection points: 4
#     Node 35, Type 0, BuildingBlock: CEKHIL_clean_sbu_0, # of connection points: 4
#     Node 36, Type 0, BuildingBlock: CEKHIL_clean_sbu_0, # of connection points: 4
#     Node 37, Type 0, BuildingBlock: CEKHIL_clean_sbu_0, # of connection points: 4
#     Node 38, Type 0, BuildingBlock: CEKHIL_clean_sbu_0, # of connection points: 4
#     Node 39, Type 0, BuildingBlock: CEKHIL_clean_sbu_0, # of connection points: 4
#     Node 40, Type 0, BuildingBlock: CEKHIL_clean_sbu_0, # of connection points: 4
#     Node 41, Type 0, BuildingBlock: CEKHIL_clean_sbu_0, # of connection points: 4
#     Node 42, Type 0, BuildingBlock: CEKHIL_clean_sbu_0, # of connection points: 4
#     Node 43, Type 0, BuildingBlock: CEKHIL_clean_sbu_0, # of connection points: 4
#     Node 44, Type 0, BuildingBlock: CEKHIL_clean_sbu_0, # of connection points: 4
#     Node 45, Type 0, BuildingBlock: CEKHIL_clean_sbu_0, # of connection points: 4
#     Node 46, Type 0, BuildingBlock: CEKHIL_clean_sbu_0, # of connection points: 4
#     Node 47, Type 0, BuildingBlock: CEKHIL_clean_sbu_0, # of connection points: 4
#     Node 48, Type 0, BuildingBlock: CEKHIL_clean_sbu_0, # of connection points: 4
#     Node 49, Type 0, BuildingBlock: CEKHIL_clean_sbu_0, # of connection points: 4
#     Node 50, Type 0, BuildingBlock: CEKHIL_clean_sbu_0, # of connection points: 4
#     Node 51, Type 0, BuildingBlock: CEKHIL_clean_sbu_0, # of connection points: 4
#     Node 52, Type 0, BuildingBlock: CEKHIL_clean_sbu_0, # of connection points: 4
#     Node 53, Type 0, BuildingBlock: CEKHIL_clean_sbu_0, # of connection points: 4
#     Node 54, Type 0, BuildingBlock: CEKHIL_clean_sbu_0, # of connection points: 4
#     Node 55, Type 0, BuildingBlock: CEKHIL_clean_sbu_0, # of connection points: 4
#     Node 56, Type 0, BuildingBlock: CEKHIL_clean_sbu_0, # of connection points: 4
#     Node 57, Type 0, BuildingBlock: CEKHIL_clean_sbu_0, # of connection points: 4
#     Node 58, Type 0, BuildingBlock: CEKHIL_clean_sbu_0, # of connection points: 4
#     Node 59, Type 0, BuildingBlock: CEKHIL_clean_sbu_0, # of connection points: 4
#     Node 60, Type 0, BuildingBlock: CEKHIL_clean_sbu_0, # of connection points: 4
#     Node 61, Type 0, BuildingBlock: CEKHIL_clean_sbu_0, # of connection points: 4
#     Node 62, Type 0, BuildingBlock: CEKHIL_clean_sbu_0, # of connection points: 4
#     Node 63, Type 0, BuildingBlock: CEKHIL_clean_sbu_0, # of connection points: 4
#     Node 64, Type 0, BuildingBlock: CEKHIL_clean_sbu_0, # of connection points: 4
#     Node 65, Type 0, BuildingBlock: CEKHIL_clean_sbu_0, # of connection points: 4
#     Node 66, Type 0, BuildingBlock: CEKHIL_clean_sbu_0, # of connection points: 4
#     Node 67, Type 0, BuildingBlock: CEKHIL_clean_sbu_0, # of connection points: 4
#     Node 68, Type 0, BuildingBlock: CEKHIL_clean_sbu_0, # of connection points: 4
#     Node 69, Type 0, BuildingBlock: CEKHIL_clean_sbu_0, # of connection points: 4
#     Node 70, Type 0, BuildingBlock: CEKHIL_clean_sbu_0, # of connection points: 4
#     Node 71, Type 0, BuildingBlock: CEKHIL_clean_sbu_0, # of connection points: 4
#     Node 72, Type 0, BuildingBlock: CEKHIL_clean_sbu_0, # of connection points: 4
#     Node 73, Type 0, BuildingBlock: CEKHIL_clean_sbu_0, # of connection points: 4
#     Node 74, Type 0, BuildingBlock: CEKHIL_clean_sbu_0, # of connection points: 4
#     Node 75, Type 0, BuildingBlock: CEKHIL_clean_sbu_0, # of connection points: 4
#     Node 76, Type 0, BuildingBlock: CEKHIL_clean_sbu_0, # of connection points: 4
#     Node 77, Type 0, BuildingBlock: CEKHIL_clean_sbu_0, # of connection points: 4
#     Node 78, Type 0, BuildingBlock: CEKHIL_clean_sbu_0, # of connection points: 4
#     Node 79, Type 0, BuildingBlock: CEKHIL_clean_sbu_0, # of connection points: 4
#     Node 80, Type 0, BuildingBlock: CEKHIL_clean_sbu_0, # of connection points: 4
#     Node 81, Type 0, BuildingBlock: CEKHIL_clean_sbu_0, # of connection points: 4
#     Node 82, Type 0, BuildingBlock: CEKHIL_clean_sbu_0, # of connection points: 4
#     Node 83, Type 0, BuildingBlock: CEKHIL_clean_sbu_0, # of connection points: 4
#     Node 84, Type 0, BuildingBlock: CEKHIL_clean_sbu_0, # of connection points: 4
#     Node 85, Type 0, BuildingBlock: CEKHIL_clean_sbu_0, # of connection points: 4
#     Node 86, Type 0, BuildingBlock: CEKHIL_clean_sbu_0, # of connection points: 4
#     Node 87, Type 0, BuildingBlock: CEKHIL_clean_sbu_0, # of connection points: 4
#     Node 88, Type 0, BuildingBlock: CEKHIL_clean_sbu_0, # of connection points: 4
#     Node 89, Type 0, BuildingBlock: CEKHIL_clean_sbu_0, # of connection points: 4
#     Node 90, Type 0, BuildingBlock: CEKHIL_clean_sbu_0, # of connection points: 4
#     Node 91, Type 0, BuildingBlock: CEKHIL_clean_sbu_0, # of connection points: 4
#     Node 92, Type 0, BuildingBlock: CEKHIL_clean_sbu_0, # of connection points: 4
#     Node 93, Type 0, BuildingBlock: CEKHIL_clean_sbu_0, # of connection points: 4
#     Node 94, Type 0, BuildingBlock: CEKHIL_clean_sbu_0, # of connection points: 4
#     Node 95, Type 0, BuildingBlock: CEKHIL_clean_sbu_0, # of connection points: 4
#     Edge 96, Type (0, 0), BuildingBlock: CIFDUS_clean_linker_0, # of connection points: 2
#     Edge 97, Type (0, 0), BuildingBlock: CIFDUS_clean_linker_0, # of connection points: 2
#     Edge 98, Type (0, 0), BuildingBlock: CIFDUS_clean_linker_0, # of connection points: 2
#     Edge 99, Type (0, 0), BuildingBlock: CIFDUS_clean_linker_0, # of connection points: 2
#     Edge 100, Type (0, 0), BuildingBlock: CIFDUS_clean_linker_0, # of connection points: 2
#     Edge 101, Type (0, 0), BuildingBlock: CIFDUS_clean_linker_0, # of connection points: 2
#     Edge 102, Type (0, 0), BuildingBlock: CIFDUS_clean_linker_0, # of connection points: 2
#     Edge 103, Type (0, 0), BuildingBlock: CIFDUS_clean_linker_0, # of connection points: 2
#     Edge 104, Type (0, 0), BuildingBlock: CIFDUS_clean_linker_0, # of connection points: 2
#     Edge 105, Type (0, 0), BuildingBlock: CIFDUS_clean_linker_0, # of connection points: 2
#     Edge 106, Type (0, 0), BuildingBlock: CIFDUS_clean_linker_0, # of connection points: 2
#     Edge 107, Type (0, 0), BuildingBlock: CIFDUS_clean_linker_0, # of connection points: 2
#     Edge 108, Type (0, 0), BuildingBlock: CIFDUS_clean_linker_0, # of connection points: 2
#     Edge 109, Type (0, 0), BuildingBlock: CIFDUS_clean_linker_0, # of connection points: 2
#     Edge 110, Type (0, 0), BuildingBlock: CIFDUS_clean_linker_0, # of connection points: 2
#     Edge 111, Type (0, 0), BuildingBlock: CIFDUS_clean_linker_0, # of connection points: 2
#     Edge 112, Type (0, 0), BuildingBlock: CIFDUS_clean_linker_0, # of connection points: 2
#     Edge 113, Type (0, 0), BuildingBlock: CIFDUS_clean_linker_0, # of connection points: 2
#     Edge 114, Type (0, 0), BuildingBlock: CIFDUS_clean_linker_0, # of connection points: 2
#     Edge 115, Type (0, 0), BuildingBlock: CIFDUS_clean_linker_0, # of connection points: 2
#     Edge 116, Type (0, 0), BuildingBlock: CIFDUS_clean_linker_0, # of connection points: 2
#     Edge 117, Type (0, 0), BuildingBlock: CIFDUS_clean_linker_0, # of connection points: 2
#     Edge 118, Type (0, 0), BuildingBlock: CIFDUS_clean_linker_0, # of connection points: 2
#     Edge 119, Type (0, 0), BuildingBlock: CIFDUS_clean_linker_0, # of connection points: 2
#     Edge 120, Type (0, 0), BuildingBlock: CIFDUS_clean_linker_0, # of connection points: 2
#     Edge 121, Type (0, 0), BuildingBlock: CIFDUS_clean_linker_0, # of connection points: 2
#     Edge 122, Type (0, 0), BuildingBlock: CIFDUS_clean_linker_0, # of connection points: 2
#     Edge 123, Type (0, 0), BuildingBlock: CIFDUS_clean_linker_0, # of connection points: 2
#     Edge 124, Type (0, 0), BuildingBlock: CIFDUS_clean_linker_0, # of connection points: 2
#     Edge 125, Type (0, 0), BuildingBlock: CIFDUS_clean_linker_0, # of connection points: 2
#     Edge 126, Type (0, 0), BuildingBlock: CIFDUS_clean_linker_0, # of connection points: 2
#     Edge 127, Type (0, 0), BuildingBlock: CIFDUS_clean_linker_0, # of connection points: 2
#     Edge 128, Type (0, 0), BuildingBlock: CIFDUS_clean_linker_0, # of connection points: 2
#     Edge 129, Type (0, 0), BuildingBlock: CIFDUS_clean_linker_0, # of connection points: 2
#     Edge 130, Type (0, 0), BuildingBlock: CIFDUS_clean_linker_0, # of connection points: 2
#     Edge 131, Type (0, 0), BuildingBlock: CIFDUS_clean_linker_0, # of connection points: 2
#     Edge 132, Type (0, 0), BuildingBlock: CIFDUS_clean_linker_0, # of connection points: 2
#     Edge 133, Type (0, 0), BuildingBlock: CIFDUS_clean_linker_0, # of connection points: 2
#     Edge 134, Type (0, 0), BuildingBlock: CIFDUS_clean_linker_0, # of connection points: 2
#     Edge 135, Type (0, 0), BuildingBlock: CIFDUS_clean_linker_0, # of connection points: 2
#     Edge 136, Type (0, 0), BuildingBlock: CIFDUS_clean_linker_0, # of connection points: 2
#     Edge 137, Type (0, 0), BuildingBlock: CIFDUS_clean_linker_0, # of connection points: 2
#     Edge 138, Type (0, 0), BuildingBlock: CIFDUS_clean_linker_0, # of connection points: 2
#     Edge 139, Type (0, 0), BuildingBlock: CIFDUS_clean_linker_0, # of connection points: 2
#     Edge 140, Type (0, 0), BuildingBlock: CIFDUS_clean_linker_0, # of connection points: 2
#     Edge 141, Type (0, 0), BuildingBlock: CIFDUS_clean_linker_0, # of connection points: 2
#     Edge 142, Type (0, 0), BuildingBlock: CIFDUS_clean_linker_0, # of connection points: 2
#     Edge 143, Type (0, 0), BuildingBlock: CIFDUS_clean_linker_0, # of connection points: 2
#     Edge 144, Type (0, 0), BuildingBlock: CIFDUS_clean_linker_0, # of connection points: 2
#     Edge 145, Type (0, 0), BuildingBlock: CIFDUS_clean_linker_0, # of connection points: 2
#     Edge 146, Type (0, 0), BuildingBlock: CIFDUS_clean_linker_0, # of connection points: 2
#     Edge 147, Type (0, 0), BuildingBlock: CIFDUS_clean_linker_0, # of connection points: 2
#     Edge 148, Type (0, 0), BuildingBlock: CIFDUS_clean_linker_0, # of connection points: 2
#     Edge 149, Type (0, 0), BuildingBlock: CIFDUS_clean_linker_0, # of connection points: 2
#     Edge 150, Type (0, 0), BuildingBlock: CIFDUS_clean_linker_0, # of connection points: 2
#     Edge 151, Type (0, 0), BuildingBlock: CIFDUS_clean_linker_0, # of connection points: 2
#     Edge 152, Type (0, 0), BuildingBlock: CIFDUS_clean_linker_0, # of connection points: 2
#     Edge 153, Type (0, 0), BuildingBlock: CIFDUS_clean_linker_0, # of connection points: 2
#     Edge 154, Type (0, 0), BuildingBlock: CIFDUS_clean_linker_0, # of connection points: 2
#     Edge 155, Type (0, 0), BuildingBlock: CIFDUS_clean_linker_0, # of connection points: 2
#     Edge 156, Type (0, 0), BuildingBlock: CIFDUS_clean_linker_0, # of connection points: 2
#     Edge 157, Type (0, 0), BuildingBlock: CIFDUS_clean_linker_0, # of connection points: 2
#     Edge 158, Type (0, 0), BuildingBlock: CIFDUS_clean_linker_0, # of connection points: 2
#     Edge 159, Type (0, 0), BuildingBlock: CIFDUS_clean_linker_0, # of connection points: 2
#     Edge 160, Type (0, 0), BuildingBlock: CIFDUS_clean_linker_0, # of connection points: 2
#     Edge 161, Type (0, 0), BuildingBlock: CIFDUS_clean_linker_0, # of connection points: 2
#     Edge 162, Type (0, 0), BuildingBlock: CIFDUS_clean_linker_0, # of connection points: 2
#     Edge 163, Type (0, 0), BuildingBlock: CIFDUS_clean_linker_0, # of connection points: 2
#     Edge 164, Type (0, 0), BuildingBlock: CIFDUS_clean_linker_0, # of connection points: 2
#     Edge 165, Type (0, 0), BuildingBlock: CIFDUS_clean_linker_0, # of connection points: 2
#     Edge 166, Type (0, 0), BuildingBlock: CIFDUS_clean_linker_0, # of connection points: 2
#     Edge 167, Type (0, 0), BuildingBlock: CIFDUS_clean_linker_0, # of connection points: 2
#     Edge 168, Type (0, 0), BuildingBlock: CIFDUS_clean_linker_0, # of connection points: 2
#     Edge 169, Type (0, 0), BuildingBlock: CIFDUS_clean_linker_0, # of connection points: 2
#     Edge 170, Type (0, 0), BuildingBlock: CIFDUS_clean_linker_0, # of connection points: 2
#     Edge 171, Type (0, 0), BuildingBlock: CIFDUS_clean_linker_0, # of connection points: 2
#     Edge 172, Type (0, 0), BuildingBlock: CIFDUS_clean_linker_0, # of connection points: 2
#     Edge 173, Type (0, 0), BuildingBlock: CIFDUS_clean_linker_0, # of connection points: 2
#     Edge 174, Type (0, 0), BuildingBlock: CIFDUS_clean_linker_0, # of connection points: 2
#     Edge 175, Type (0, 0), BuildingBlock: CIFDUS_clean_linker_0, # of connection points: 2
#     Edge 176, Type (0, 0), BuildingBlock: CIFDUS_clean_linker_0, # of connection points: 2
#     Edge 177, Type (0, 0), BuildingBlock: CIFDUS_clean_linker_0, # of connection points: 2
#     Edge 178, Type (0, 0), BuildingBlock: CIFDUS_clean_linker_0, # of connection points: 2
#     Edge 179, Type (0, 0), BuildingBlock: CIFDUS_clean_linker_0, # of connection points: 2
#     Edge 180, Type (0, 0), BuildingBlock: CIFDUS_clean_linker_0, # of connection points: 2
#     Edge 181, Type (0, 0), BuildingBlock: CIFDUS_clean_linker_0, # of connection points: 2
#     Edge 182, Type (0, 0), BuildingBlock: CIFDUS_clean_linker_0, # of connection points: 2
#     Edge 183, Type (0, 0), BuildingBlock: CIFDUS_clean_linker_0, # of connection points: 2
#     Edge 184, Type (0, 0), BuildingBlock: CIFDUS_clean_linker_0, # of connection points: 2
#     Edge 185, Type (0, 0), BuildingBlock: CIFDUS_clean_linker_0, # of connection points: 2
#     Edge 186, Type (0, 0), BuildingBlock: CIFDUS_clean_linker_0, # of connection points: 2
#     Edge 187, Type (0, 0), BuildingBlock: CIFDUS_clean_linker_0, # of connection points: 2
#     Edge 188, Type (0, 0), BuildingBlock: CIFDUS_clean_linker_0, # of connection points: 2
#     Edge 189, Type (0, 0), BuildingBlock: CIFDUS_clean_linker_0, # of connection points: 2
#     Edge 190, Type (0, 0), BuildingBlock: CIFDUS_clean_linker_0, # of connection points: 2
#     Edge 191, Type (0, 0), BuildingBlock: CIFDUS_clean_linker_0, # of connection points: 2
#     Edge 192, Type (0, 0), BuildingBlock: CIFDUS_clean_linker_0, # of connection points: 2
#     Edge 193, Type (0, 0), BuildingBlock: CIFDUS_clean_linker_0, # of connection points: 2
#     Edge 194, Type (0, 0), BuildingBlock: CIFDUS_clean_linker_0, # of connection points: 2
#     Edge 195, Type (0, 0), BuildingBlock: CIFDUS_clean_linker_0, # of connection points: 2
#     Edge 196, Type (0, 0), BuildingBlock: CIFDUS_clean_linker_0, # of connection points: 2
#     Edge 197, Type (0, 0), BuildingBlock: CIFDUS_clean_linker_0, # of connection points: 2
#     Edge 198, Type (0, 0), BuildingBlock: CIFDUS_clean_linker_0, # of connection points: 2
#     Edge 199, Type (0, 0), BuildingBlock: CIFDUS_clean_linker_0, # of connection points: 2
#     Edge 200, Type (0, 0), BuildingBlock: CIFDUS_clean_linker_0, # of connection points: 2
#     Edge 201, Type (0, 0), BuildingBlock: CIFDUS_clean_linker_0, # of connection points: 2
#     Edge 202, Type (0, 0), BuildingBlock: CIFDUS_clean_linker_0, # of connection points: 2
#     Edge 203, Type (0, 0), BuildingBlock: CIFDUS_clean_linker_0, # of connection points: 2
#     Edge 204, Type (0, 0), BuildingBlock: CIFDUS_clean_linker_0, # of connection points: 2
#     Edge 205, Type (0, 0), BuildingBlock: CIFDUS_clean_linker_0, # of connection points: 2
#     Edge 206, Type (0, 0), BuildingBlock: CIFDUS_clean_linker_0, # of connection points: 2
#     Edge 207, Type (0, 0), BuildingBlock: CIFDUS_clean_linker_0, # of connection points: 2
#     Edge 208, Type (0, 0), BuildingBlock: CIFDUS_clean_linker_0, # of connection points: 2
#     Edge 209, Type (0, 0), BuildingBlock: CIFDUS_clean_linker_0, # of connection points: 2
#     Edge 210, Type (0, 0), BuildingBlock: CIFDUS_clean_linker_0, # of connection points: 2
#     Edge 211, Type (0, 0), BuildingBlock: CIFDUS_clean_linker_0, # of connection points: 2
#     Edge 212, Type (0, 0), BuildingBlock: CIFDUS_clean_linker_0, # of connection points: 2
#     Edge 213, Type (0, 0), BuildingBlock: CIFDUS_clean_linker_0, # of connection points: 2
#     Edge 214, Type (0, 0), BuildingBlock: CIFDUS_clean_linker_0, # of connection points: 2
#     Edge 215, Type (0, 0), BuildingBlock: CIFDUS_clean_linker_0, # of connection points: 2
#     Edge 216, Type (0, 0), BuildingBlock: CIFDUS_clean_linker_0, # of connection points: 2
#     Edge 217, Type (0, 0), BuildingBlock: CIFDUS_clean_linker_0, # of connection points: 2
#     Edge 218, Type (0, 0), BuildingBlock: CIFDUS_clean_linker_0, # of connection points: 2
#     Edge 219, Type (0, 0), BuildingBlock: CIFDUS_clean_linker_0, # of connection points: 2
#     Edge 220, Type (0, 0), BuildingBlock: CIFDUS_clean_linker_0, # of connection points: 2
#     Edge 221, Type (0, 0), BuildingBlock: CIFDUS_clean_linker_0, # of connection points: 2
#     Edge 222, Type (0, 0), BuildingBlock: CIFDUS_clean_linker_0, # of connection points: 2
#     Edge 223, Type (0, 0), BuildingBlock: CIFDUS_clean_linker_0, # of connection points: 2
#     Edge 224, Type (0, 0), BuildingBlock: CIFDUS_clean_linker_0, # of connection points: 2
#     Edge 225, Type (0, 0), BuildingBlock: CIFDUS_clean_linker_0, # of connection points: 2
#     Edge 226, Type (0, 0), BuildingBlock: CIFDUS_clean_linker_0, # of connection points: 2
#     Edge 227, Type (0, 0), BuildingBlock: CIFDUS_clean_linker_0, # of connection points: 2
#     Edge 228, Type (0, 0), BuildingBlock: CIFDUS_clean_linker_0, # of connection points: 2
#     Edge 229, Type (0, 0), BuildingBlock: CIFDUS_clean_linker_0, # of connection points: 2
#     Edge 230, Type (0, 0), BuildingBlock: CIFDUS_clean_linker_0, # of connection points: 2
#     Edge 231, Type (0, 0), BuildingBlock: CIFDUS_clean_linker_0, # of connection points: 2
#     Edge 232, Type (0, 0), BuildingBlock: CIFDUS_clean_linker_0, # of connection points: 2
#     Edge 233, Type (0, 0), BuildingBlock: CIFDUS_clean_linker_0, # of connection points: 2
#     Edge 234, Type (0, 0), BuildingBlock: CIFDUS_clean_linker_0, # of connection points: 2
#     Edge 235, Type (0, 0), BuildingBlock: CIFDUS_clean_linker_0, # of connection points: 2
#     Edge 236, Type (0, 0), BuildingBlock: CIFDUS_clean_linker_0, # of connection points: 2
#     Edge 237, Type (0, 0), BuildingBlock: CIFDUS_clean_linker_0, # of connection points: 2
#     Edge 238, Type (0, 0), BuildingBlock: CIFDUS_clean_linker_0, # of connection points: 2
#     Edge 239, Type (0, 0), BuildingBlock: CIFDUS_clean_linker_0, # of connection points: 2
#     Edge 240, Type (0, 0), BuildingBlock: CIFDUS_clean_linker_0, # of connection points: 2
#     Edge 241, Type (0, 0), BuildingBlock: CIFDUS_clean_linker_0, # of connection points: 2
#     Edge 242, Type (0, 0), BuildingBlock: CIFDUS_clean_linker_0, # of connection points: 2
#     Edge 243, Type (0, 0), BuildingBlock: CIFDUS_clean_linker_0, # of connection points: 2
#     Edge 244, Type (0, 0), BuildingBlock: CIFDUS_clean_linker_0, # of connection points: 2
#     Edge 245, Type (0, 0), BuildingBlock: CIFDUS_clean_linker_0, # of connection points: 2
#     Edge 246, Type (0, 0), BuildingBlock: CIFDUS_clean_linker_0, # of connection points: 2
#     Edge 247, Type (0, 0), BuildingBlock: CIFDUS_clean_linker_0, # of connection points: 2
#     Edge 248, Type (0, 0), BuildingBlock: CIFDUS_clean_linker_0, # of connection points: 2
#     Edge 249, Type (0, 0), BuildingBlock: CIFDUS_clean_linker_0, # of connection points: 2
#     Edge 250, Type (0, 0), BuildingBlock: CIFDUS_clean_linker_0, # of connection points: 2
#     Edge 251, Type (0, 0), BuildingBlock: CIFDUS_clean_linker_0, # of connection points: 2
#     Edge 252, Type (0, 0), BuildingBlock: CIFDUS_clean_linker_0, # of connection points: 2
#     Edge 253, Type (0, 0), BuildingBlock: CIFDUS_clean_linker_0, # of connection points: 2
#     Edge 254, Type (0, 0), BuildingBlock: CIFDUS_clean_linker_0, # of connection points: 2
#     Edge 255, Type (0, 0), BuildingBlock: CIFDUS_clean_linker_0, # of connection points: 2
#     Edge 256, Type (0, 0), BuildingBlock: CIFDUS_clean_linker_0, # of connection points: 2
#     Edge 257, Type (0, 0), BuildingBlock: CIFDUS_clean_linker_0, # of connection points: 2
#     Edge 258, Type (0, 0), BuildingBlock: CIFDUS_clean_linker_0, # of connection points: 2
#     Edge 259, Type (0, 0), BuildingBlock: CIFDUS_clean_linker_0, # of connection points: 2
#     Edge 260, Type (0, 0), BuildingBlock: CIFDUS_clean_linker_0, # of connection points: 2
#     Edge 261, Type (0, 0), BuildingBlock: CIFDUS_clean_linker_0, # of connection points: 2
#     Edge 262, Type (0, 0), BuildingBlock: CIFDUS_clean_linker_0, # of connection points: 2
#     Edge 263, Type (0, 0), BuildingBlock: CIFDUS_clean_linker_0, # of connection points: 2
#     Edge 264, Type (0, 0), BuildingBlock: CIFDUS_clean_linker_0, # of connection points: 2
#     Edge 265, Type (0, 0), BuildingBlock: CIFDUS_clean_linker_0, # of connection points: 2
#     Edge 266, Type (0, 0), BuildingBlock: CIFDUS_clean_linker_0, # of connection points: 2
#     Edge 267, Type (0, 0), BuildingBlock: CIFDUS_clean_linker_0, # of connection points: 2
#     Edge 268, Type (0, 0), BuildingBlock: CIFDUS_clean_linker_0, # of connection points: 2
#     Edge 269, Type (0, 0), BuildingBlock: CIFDUS_clean_linker_0, # of connection points: 2
#     Edge 270, Type (0, 0), BuildingBlock: CIFDUS_clean_linker_0, # of connection points: 2
#     Edge 271, Type (0, 0), BuildingBlock: CIFDUS_clean_linker_0, # of connection points: 2
#     Edge 272, Type (0, 0), BuildingBlock: CIFDUS_clean_linker_0, # of connection points: 2
#     Edge 273, Type (0, 0), BuildingBlock: CIFDUS_clean_linker_0, # of connection points: 2
#     Edge 274, Type (0, 0), BuildingBlock: CIFDUS_clean_linker_0, # of connection points: 2
#     Edge 275, Type (0, 0), BuildingBlock: CIFDUS_clean_linker_0, # of connection points: 2
#     Edge 276, Type (0, 0), BuildingBlock: CIFDUS_clean_linker_0, # of connection points: 2
#     Edge 277, Type (0, 0), BuildingBlock: CIFDUS_clean_linker_0, # of connection points: 2
#     Edge 278, Type (0, 0), BuildingBlock: CIFDUS_clean_linker_0, # of connection points: 2
#     Edge 279, Type (0, 0), BuildingBlock: CIFDUS_clean_linker_0, # of connection points: 2
#     Edge 280, Type (0, 0), BuildingBlock: CIFDUS_clean_linker_0, # of connection points: 2
#     Edge 281, Type (0, 0), BuildingBlock: CIFDUS_clean_linker_0, # of connection points: 2
#     Edge 282, Type (0, 0), BuildingBlock: CIFDUS_clean_linker_0, # of connection points: 2
#     Edge 283, Type (0, 0), BuildingBlock: CIFDUS_clean_linker_0, # of connection points: 2
#     Edge 284, Type (0, 0), BuildingBlock: CIFDUS_clean_linker_0, # of connection points: 2
#     Edge 285, Type (0, 0), BuildingBlock: CIFDUS_clean_linker_0, # of connection points: 2
#     Edge 286, Type (0, 0), BuildingBlock: CIFDUS_clean_linker_0, # of connection points: 2
#     Edge 287, Type (0, 0), BuildingBlock: CIFDUS_clean_linker_0, # of connection points: 2
# Relax obj value: 0.562
# Max RMSD: 0.156
# Mean RMSD: 0.156
data_MOF--net-ulg--node1-CEKHIL_clean_sbu_0--edge1-CIFDUS_clean_linker_0
_symmetry_space_group_name_H-M    P1
_symmetry_Int_Tables_number       1
_symmetry_cell_setting            triclinic
loop_
_symmetry_equiv_pos_as_xyz
'x, y, z'
_cell_length_a     80.437067
_cell_length_b     80.38258
_cell_length_c     80.43477
_cell_angle_alpha  90.027178
_cell_angle_beta   90.056316
_cell_angle_gamma 89.960769
loop_
_atom_site_label
_atom_site_type_symbol
_atom_site_fract_x
_atom_site_fract_y
_atom_site_fract_z
_atom_type_partial_charge
Co0 Co 0.06151 0.54911 0.16962 0.0
O1 O 0.04155 0.54583 0.1824 0.0
O2 O 0.04489 0.53771 0.15635 0.0
C3 C 0.0793 0.54039 0.18967 0.0
O4 O 0.08032 0.5493 0.15266 0.0
Co5 Co 0.08964 0.57321 0.18106 0.0
O6 O 0.10294 0.56113 0.16404 0.0
C7 C 0.05914 0.58664 0.16523 0.0
C8 C 0.03561 0.53802 0.16958 0.0
C9 C 0.09591 0.5529 0.15244 0.0
O10 O 0.05387 0.57187 0.16163 0.0
O11 O 0.07201 0.58941 0.17421 0.0
O12 O 0.07175 0.52961 0.18028 0.0
O13 O 0.07483 0.55561 0.18756 0.0
Co14 Co 0.70569 0.31497 0.42345 0.0
O15 O 0.70957 0.29398 0.43405 0.0
O16 O 0.71694 0.29994 0.40823 0.0
C17 C 0.71493 0.33125 0.44442 0.0
O18 O 0.70445 0.33576 0.4089 0.0
Co19 Co 0.68034 0.33971 0.43916 0.0
O20 O 0.69163 0.35558 0.42399 0.0
C21 C 0.66799 0.31155 0.41913 0.0
C22 C 0.71702 0.28939 0.42052 0.0
C23 C 0.70011 0.351 0.41138 0.0
O24 O 0.68301 0.30751 0.41517 0.0
O25 O 0.66454 0.32299 0.42967 0.0
O26 O 0.72538 0.32437 0.43422 0.0
O27 O 0.69977 0.32623 0.44295 0.0
Co28 Co 0.93515 0.95666 0.66297 0.0
O29 O 0.95647 0.96256 0.67204 0.0
O30 O 0.94867 0.96736 0.64608 0.0
C31 C 0.91953 0.96647 0.68422 0.0
O32 O 0.91388 0.95339 0.6495 0.0
Co33 Co 0.91193 0.93173 0.6814 0.0
O34 O 0.89501 0.94079 0.66581 0.0
C35 C 0.94001 0.91894 0.66147 0.0
C36 C 0.95985 0.96904 0.65766 0.0
C37 C 0.89893 0.94851 0.65252 0.0
O38 O 0.94334 0.93372 0.6561 0.0
O39 O 0.92913 0.91603 0.6727 0.0
O40 O 0.92511 0.97657 0.67291 0.0
O41 O 0.92523 0.95153 0.68336 0.0
Co42 Co 0.29485 0.18724 0.91534 0.0
O43 O 0.28867 0.20872 0.92382 0.0
O44 O 0.28186 0.19928 0.89888 0.0
C45 C 0.2879 0.17198 0.9379 0.0
O46 O 0.29828 0.16537 0.90287 0.0
Co47 Co 0.32315 0.16715 0.93258 0.0
O48 O 0.31401 0.14868 0.91896 0.0
C49 C 0.33191 0.19371 0.90883 0.0
C50 C 0.28077 0.21106 0.90994 0.0
C51 C 0.30476 0.15108 0.90629 0.0
O52 O 0.31637 0.19624 0.90567 0.0
O53 O 0.33696 0.18364 0.92009 0.0
O54 O 0.27655 0.17679 0.92746 0.0
O55 O 0.30234 0.17862 0.93569 0.0
Co56 Co 0.0639 0.45641 0.8313 0.0
O57 O 0.0422 0.46178 0.82264 0.0
O58 O 0.05128 0.46891 0.84762 0.0
C59 C 0.07843 0.4638 0.80834 0.0
O60 O 0.08567 0.45428 0.84422 0.0
Co61 Co 0.08663 0.42984 0.81454 0.0
O62 O 0.10414 0.44043 0.82845 0.0
C63 C 0.05877 0.41912 0.83596 0.0
C64 C 0.03959 0.4697 0.83646 0.0
C65 C 0.10058 0.44929 0.84112 0.0
O66 O 0.05588 0.43426 0.84059 0.0
O67 O 0.06921 0.41529 0.82458 0.0
O68 O 0.07366 0.47507 0.81891 0.0
O69 O 0.07283 0.44909 0.81113 0.0
Co70 Co 0.79439 0.31501 0.08416 0.0
O71 O 0.79034 0.29446 0.07276 0.0
O72 O 0.77998 0.3009 0.09743 0.0
C73 C 0.78969 0.33196 0.06219 0.0
O74 O 0.79524 0.33543 0.09917 0.0
Co75 Co 0.82343 0.33797 0.07273 0.0
O76 O 0.81125 0.35454 0.08646 0.0
C77 C 0.83061 0.30869 0.0938 0.0
C78 C 0.78083 0.29042 0.08512 0.0
C79 C 0.80093 0.35034 0.09774 0.0
O80 O 0.81495 0.30568 0.09548 0.0
O81 O 0.83634 0.31996 0.08412 0.0
O82 O 0.77732 0.32617 0.07077 0.0
O83 O 0.80401 0.32579 0.06591 0.0
Co84 Co 0.94075 0.03989 0.33225 0.0
O85 O 0.96128 0.03314 0.32186 0.0
O86 O 0.95492 0.029 0.34834 0.0
C87 C 0.92357 0.03055 0.31205 0.0
O88 O 0.92084 0.04386 0.34732 0.0
Co89 Co 0.9162 0.06507 0.31602 0.0
O90 O 0.90049 0.0569 0.33331 0.0
C91 C 0.94634 0.07736 0.33326 0.0
C92 C 0.9653 0.02679 0.33617 0.0
C93 C 0.90581 0.04922 0.34613 0.0
O94 O 0.94999 0.06256 0.33835 0.0
O95 O 0.93446 0.08043 0.32309 0.0
O96 O 0.92948 0.0203 0.32307 0.0
O97 O 0.92951 0.0454 0.31266 0.0
Co98 Co 0.20796 0.18591 0.59302 0.0
O99 O 0.21454 0.20717 0.58426 0.0
O100 O 0.22109 0.19788 0.60935 0.0
C101 C 0.21441 0.17022 0.57054 0.0
O102 O 0.20435 0.16441 0.60591 0.0
Co103 Co 0.17934 0.16574 0.57646 0.0
O104 O 0.18881 0.14737 0.59005 0.0
C105 C 0.17109 0.19325 0.59934 0.0
C106 C 0.22236 0.20952 0.59819 0.0
C107 C 0.1981 0.15003 0.60264 0.0
O108 O 0.18665 0.19546 0.60262 0.0
O109 O 0.16591 0.18304 0.58827 0.0
O110 O 0.22595 0.17487 0.58087 0.0
O111 O 0.20012 0.17711 0.57287 0.0
Co112 Co 0.16498 0.06494 0.54129 0.0
O113 O 0.17852 0.04572 0.53671 0.0
O114 O 0.15338 0.04986 0.52637 0.0
C115 C 0.18518 0.08418 0.53731 0.0
O116 O 0.14775 0.08354 0.54249 0.0
Co117 Co 0.17359 0.08875 0.57071 0.0
O118 O 0.15803 0.10386 0.55878 0.0
C119 C 0.15588 0.05714 0.57733 0.0
C120 C 0.16668 0.04064 0.527 0.0
C121 C 0.14733 0.09842 0.54841 0.0
O122 O 0.15462 0.05404 0.56161 0.0
O123 O 0.16426 0.06935 0.5832 0.0
O124 O 0.17724 0.07798 0.52467 0.0
O125 O 0.18189 0.07736 0.55141 0.0
Co126 Co 0.18824 0.42831 0.80168 0.0
O127 O 0.2085 0.4406 0.79816 0.0
O128 O 0.20365 0.41514 0.78878 0.0
C129 C 0.17091 0.44959 0.79545 0.0
O130 O 0.16902 0.41184 0.80177 0.0
Co131 Co 0.16157 0.43849 0.8277 0.0
O132 O 0.14719 0.42239 0.81558 0.0
C133 C 0.19244 0.4214 0.83851 0.0
C134 C 0.21357 0.42788 0.78956 0.0
C135 C 0.15369 0.41134 0.80624 0.0
O136 O 0.19683 0.41863 0.82332 0.0
O137 O 0.1799 0.43037 0.8425 0.0
O138 O 0.17732 0.44066 0.78359 0.0
O139 O 0.17598 0.44609 0.8102 0.0
Co140 Co 0.84074 0.43495 0.03977 0.0
O141 O 0.8305 0.4557 0.03373 0.0
O142 O 0.85633 0.44869 0.02741 0.0
C143 C 0.81952 0.41815 0.03204 0.0
O144 O 0.85506 0.41418 0.04311 0.0
Co145 Co 0.82458 0.4127 0.06707 0.0
O146 O 0.83991 0.39573 0.0577 0.0
C147 C 0.84519 0.4414 0.07708 0.0
C148 C 0.84427 0.45944 0.02625 0.0
C149 C 0.85261 0.39945 0.04896 0.0
O150 O 0.84896 0.44436 0.06175 0.0
O151 O 0.8346 0.43035 0.08143 0.0
O152 O 0.8299 0.42372 0.021 0.0
O153 O 0.82106 0.42461 0.04662 0.0
Co154 Co 0.81823 0.07817 0.29235 0.0
O155 O 0.79878 0.06503 0.28773 0.0
O156 O 0.80219 0.09127 0.28007 0.0
C157 C 0.83686 0.05849 0.28492 0.0
O158 O 0.83661 0.09554 0.29398 0.0
Co159 Co 0.8447 0.06733 0.31846 0.0
O160 O 0.85847 0.08489 0.30778 0.0
C161 C 0.81292 0.08237 0.32949 0.0
C162 C 0.79303 0.07794 0.2799 0.0
C163 C 0.8518 0.09629 0.29898 0.0
O164 O 0.80881 0.08587 0.31438 0.0
O165 O 0.82575 0.07371 0.33331 0.0
O166 O 0.82997 0.06778 0.27362 0.0
O167 O 0.83134 0.06051 0.29979 0.0
Co168 Co 0.17089 0.93641 0.45418 0.0
O169 O 0.18047 0.95774 0.46003 0.0
O170 O 0.15476 0.94986 0.4658 0.0
C171 C 0.19266 0.92035 0.4622 0.0
O172 O 0.15648 0.91585 0.45166 0.0
Co173 Co 0.1861 0.91155 0.42872 0.0
O174 O 0.16989 0.89541 0.43822 0.0
C175 C 0.1675 0.94112 0.41684 0.0
C176 C 0.16627 0.96111 0.46701 0.0
C177 C 0.15756 0.90072 0.44665 0.0
O178 O 0.1629 0.9449 0.43177 0.0
O179 O 0.17792 0.92952 0.41357 0.0
O180 O 0.18208 0.92577 0.47318 0.0
O181 O 0.19054 0.92596 0.44739 0.0
Co182 Co 0.31587 0.41932 0.71495 0.0
O183 O 0.29534 0.42991 0.72144 0.0
O184 O 0.3048 0.40609 0.7316 0.0
C185 C 0.33172 0.44262 0.71555 0.0
O186 O 0.33634 0.40473 0.71236 0.0
Co187 Co 0.33571 0.42894 0.68317 0.0
O188 O 0.35374 0.41524 0.69326 0.0
C189 C 0.30551 0.40787 0.68055 0.0
C190 C 0.29335 0.4175 0.73159 0.0
C191 C 0.35036 0.40483 0.70472 0.0
O192 O 0.30445 0.40653 0.6965 0.0
O193 O 0.31594 0.41745 0.67326 0.0
O194 O 0.32866 0.43458 0.72925 0.0
O195 O 0.32426 0.43708 0.70255 0.0
Co196 Co 0.82965 0.56421 0.95489 0.0
O197 O 0.81902 0.54333 0.95965 0.0
O198 O 0.84399 0.55044 0.9687 0.0
C199 C 0.80717 0.58035 0.96029 0.0
O200 O 0.8443 0.58491 0.95337 0.0
Co201 Co 0.81645 0.58757 0.92684 0.0
O202 O 0.83099 0.60416 0.93803 0.0
C203 C 0.83596 0.55756 0.91827 0.0
C204 C 0.83199 0.53958 0.96848 0.0
C205 C 0.84275 0.59985 0.94778 0.0
O206 O 0.83979 0.55503 0.93367 0.0
O207 O 0.82554 0.56863 0.91351 0.0
O208 O 0.81659 0.57527 0.97242 0.0
O209 O 0.81081 0.57438 0.94593 0.0
Co210 Co 0.68798 0.08277 0.2088 0.0
O211 O 0.70906 0.07273 0.21433 0.0
O212 O 0.70034 0.09728 0.22339 0.0
C213 C 0.67246 0.05963 0.21263 0.0
O214 O 0.66722 0.0971 0.20688 0.0
Co215 Co 0.66539 0.07077 0.17979 0.0
O216 O 0.64829 0.08552 0.18997 0.0
C217 C 0.69505 0.0916 0.17284 0.0
C218 C 0.71177 0.08585 0.22338 0.0
C219 C 0.65262 0.09667 0.20038 0.0
O220 O 0.69767 0.09399 0.18849 0.0
O221 O 0.68396 0.08162 0.16724 0.0
O222 O 0.67666 0.06877 0.22532 0.0
O223 O 0.67867 0.06408 0.19861 0.0
Co224 Co 0.54498 0.17169 0.06436 0.0
O225 O 0.541 0.18461 0.04463 0.0
O226 O 0.53325 0.1584 0.04805 0.0
C227 C 0.53687 0.1913 0.08284 0.0
O228 O 0.54607 0.15465 0.08305 0.0
Co229 Co 0.57055 0.18314 0.09115 0.0
O230 O 0.55934 0.16593 0.10494 0.0
C231 C 0.58234 0.16704 0.06026 0.0
C232 C 0.5334 0.17164 0.03874 0.0
C233 C 0.55065 0.15438 0.09838 0.0
O234 O 0.5673 0.16373 0.05574 0.0
O235 O 0.58594 0.17597 0.07295 0.0
O236 O 0.52585 0.18207 0.07543 0.0
O237 O 0.55188 0.18952 0.07759 0.0
Co238 Co 0.05093 0.8269 0.43887 0.0
O239 O 0.04602 0.8188 0.46087 0.0
O240 O 0.03923 0.84378 0.45142 0.0
C241 C 0.04267 0.80384 0.42498 0.0
O242 O 0.0526 0.83945 0.41693 0.0
Co243 Co 0.07636 0.80945 0.41547 0.0
O244 O 0.06554 0.82338 0.39809 0.0
C245 C 0.08842 0.83136 0.44246 0.0
C246 C 0.0385 0.8329 0.46335 0.0
C247 C 0.05704 0.83624 0.4019 0.0
O248 O 0.07343 0.83592 0.44605 0.0
O249 O 0.0918 0.81992 0.43191 0.0
O250 O 0.03176 0.81472 0.4299 0.0
O251 O 0.05762 0.80645 0.43005 0.0
Co252 Co 0.42612 0.30126 0.68818 0.0
O253 O 0.43701 0.29626 0.70886 0.0
O254 O 0.41165 0.28796 0.70236 0.0
C255 C 0.44805 0.29477 0.67173 0.0
O256 O 0.41121 0.30319 0.66762 0.0
Co257 Co 0.44014 0.32866 0.66455 0.0
O258 O 0.42486 0.31806 0.64827 0.0
C259 C 0.42079 0.3383 0.6943 0.0
C260 C 0.42396 0.28772 0.71288 0.0
C261 C 0.41279 0.30875 0.65267 0.0
O262 O 0.41686 0.32298 0.69729 0.0
O263 O 0.43118 0.3426 0.68305 0.0
O264 O 0.43825 0.28309 0.6771 0.0
O265 O 0.44515 0.30933 0.67766 0.0
Co266 Co 0.95931 0.6635 0.93811 0.0
O267 O 0.96461 0.67395 0.95913 0.0
O268 O 0.97406 0.64943 0.95092 0.0
C269 C 0.96311 0.68656 0.92233 0.0
O270 O 0.95783 0.6489 0.91748 0.0
Co271 Co 0.93054 0.6751 0.91492 0.0
O272 O 0.94157 0.66068 0.89808 0.0
C273 C 0.92323 0.65431 0.94459 0.0
C274 C 0.97398 0.66112 0.96209 0.0
C275 C 0.95183 0.64949 0.90266 0.0
O276 O 0.93887 0.65211 0.94765 0.0
O277 O 0.91782 0.66417 0.9333 0.0
O278 O 0.97582 0.67757 0.92675 0.0
O279 O 0.94907 0.68202 0.92842 0.0
Co280 Co 0.07995 0.70598 0.19014 0.0
O281 O 0.06949 0.71214 0.21089 0.0
O282 O 0.09504 0.71912 0.20335 0.0
C283 C 0.05794 0.71205 0.17364 0.0
O284 O 0.09501 0.70341 0.1701 0.0
Co285 Co 0.06682 0.67876 0.16598 0.0
O286 O 0.08302 0.68838 0.14989 0.0
C287 C 0.08511 0.6692 0.1966 0.0
C288 C 0.08314 0.72016 0.21419 0.0
C289 C 0.09474 0.69763 0.15522 0.0
O290 O 0.089 0.68447 0.19975 0.0
O291 O 0.07513 0.66491 0.18494 0.0
O292 O 0.06786 0.72385 0.17857 0.0
O293 O 0.06098 0.69757 0.17969 0.0
Co294 Co 0.45632 0.83458 0.06648 0.0
O295 O 0.46341 0.8259 0.04534 0.0
O296 O 0.47213 0.84963 0.05634 0.0
C297 C 0.45869 0.81042 0.08076 0.0
O298 O 0.45271 0.84718 0.08819 0.0
Co299 Co 0.42495 0.82101 0.08462 0.0
O300 O 0.43424 0.83338 0.10394 0.0
C301 C 0.42116 0.84463 0.05661 0.0
C302 C 0.47289 0.83892 0.04424 0.0
C303 C 0.44503 0.84485 0.10203 0.0
O304 O 0.43703 0.84692 0.05589 0.0
O305 O 0.41435 0.83376 0.06604 0.0
O306 O 0.47174 0.81959 0.07814 0.0
O307 O 0.44533 0.81533 0.07345 0.0
Co308 Co 0.41903 0.20941 0.8128 0.0
O309 O 0.42759 0.21615 0.79148 0.0
O310 O 0.40383 0.22495 0.80217 0.0
C311 C 0.44326 0.21242 0.8269 0.0
O312 O 0.40657 0.20599 0.83467 0.0
Co313 Co 0.43347 0.17863 0.83155 0.0
O314 O 0.42099 0.18812 0.85066 0.0
C315 C 0.40966 0.17383 0.80382 0.0
C316 C 0.41457 0.22559 0.7901 0.0
C317 C 0.40922 0.19857 0.84864 0.0
O318 O 0.40701 0.18964 0.8027 0.0
O319 O 0.42078 0.16748 0.8133 0.0
O320 O 0.43385 0.22529 0.82412 0.0
O321 O 0.43849 0.19887 0.8199 0.0
Co322 Co 0.58628 0.29415 0.31368 0.0
O323 O 0.57456 0.28953 0.29336 0.0
O324 O 0.59916 0.27907 0.29971 0.0
C325 C 0.56414 0.29029 0.33065 0.0
O326 O 0.60174 0.29543 0.3338 0.0
Co327 Co 0.5754 0.32338 0.33686 0.0
O328 O 0.59004 0.31191 0.35316 0.0
C329 C 0.59537 0.33026 0.30664 0.0
C330 C 0.58669 0.27966 0.2894 0.0
C331 C 0.60116 0.30154 0.34861 0.0
O332 O 0.59745 0.31456 0.30375 0.0
O333 O 0.58576 0.33586 0.31804 0.0
O334 O 0.57275 0.27759 0.32556 0.0
O335 O 0.5683 0.30435 0.32429 0.0
Co336 Co 0.06182 0.04484 0.66596 0.0
O337 O 0.0405 0.04112 0.67589 0.0
O338 O 0.04864 0.02986 0.65218 0.0
C339 C 0.07641 0.04088 0.68972 0.0
O340 O 0.08337 0.04528 0.65244 0.0
Co341 Co 0.08447 0.07373 0.67859 0.0
O342 O 0.1018 0.06129 0.66613 0.0
C343 C 0.05623 0.08092 0.65594 0.0
C344 C 0.03736 0.03102 0.66373 0.0
C345 C 0.09822 0.05092 0.65466 0.0
O346 O 0.0534 0.06526 0.65367 0.0
O347 O 0.06685 0.08645 0.66645 0.0
O348 O 0.07186 0.02819 0.68081 0.0
O349 O 0.07094 0.05506 0.68473 0.0
Co350 Co 0.70611 0.8163 0.922 0.0
O351 O 0.71206 0.79466 0.93057 0.0
O352 O 0.72011 0.80465 0.90624 0.0
C353 C 0.7112 0.83098 0.94556 0.0
O354 O 0.7037 0.83805 0.90928 0.0
Co355 Co 0.67739 0.83748 0.93712 0.0
O356 O 0.68802 0.8557 0.92422 0.0
C357 C 0.66952 0.81011 0.91374 0.0
C358 C 0.72073 0.79269 0.91709 0.0
C359 C 0.69778 0.85265 0.91211 0.0
O360 O 0.68513 0.8074 0.91097 0.0
O361 O 0.66427 0.8204 0.9247 0.0
O362 O 0.72338 0.82685 0.93576 0.0
O363 O 0.69703 0.82461 0.94176 0.0
Co364 Co 0.93537 0.45994 0.16876 0.0
O365 O 0.95621 0.46773 0.17772 0.0
O366 O 0.94565 0.47546 0.1535 0.0
C367 C 0.92035 0.46273 0.19242 0.0
O368 O 0.9141 0.45558 0.15567 0.0
Co369 Co 0.91719 0.42872 0.18274 0.0
O370 O 0.89814 0.43729 0.16947 0.0
C371 C 0.94578 0.42458 0.15988 0.0
C372 C 0.9575 0.47679 0.16442 0.0
C373 C 0.9003 0.44775 0.15775 0.0
O374 O 0.94656 0.44042 0.15732 0.0
O375 O 0.93605 0.41796 0.1706 0.0
O376 O 0.92301 0.47558 0.18296 0.0
O377 O 0.92803 0.44938 0.18812 0.0
Co378 Co 0.29486 0.68637 0.42028 0.0
O379 O 0.28718 0.70706 0.42985 0.0
O380 O 0.28076 0.69821 0.40463 0.0
C381 C 0.28973 0.67029 0.44289 0.0
O382 O 0.29924 0.66553 0.40639 0.0
Co383 Co 0.32409 0.66601 0.43568 0.0
O384 O 0.31573 0.64812 0.42078 0.0
C385 C 0.33115 0.69598 0.41555 0.0
C386 C 0.27895 0.70942 0.41616 0.0
C387 C 0.30625 0.65125 0.40844 0.0
O388 O 0.31577 0.69724 0.41102 0.0
O389 O 0.33625 0.68564 0.42653 0.0
O390 O 0.27774 0.67393 0.43264 0.0
O391 O 0.30361 0.67758 0.43993 0.0
Co392 Co 0.06549 0.94877 0.3309 0.0
O393 O 0.0447 0.95208 0.31942 0.0
O394 O 0.05172 0.96426 0.34309 0.0
C395 C 0.08174 0.95124 0.30804 0.0
O396 O 0.08566 0.94945 0.34614 0.0
Co397 Co 0.09013 0.92006 0.32255 0.0
O398 O 0.10603 0.933 0.33646 0.0
C399 C 0.06001 0.91339 0.34285 0.0
C400 C 0.04101 0.96263 0.33109 0.0
C401 C 0.10068 0.944 0.34655 0.0
O402 O 0.05644 0.92904 0.34376 0.0
O403 O 0.07174 0.90758 0.33376 0.0
O404 O 0.07652 0.96448 0.31574 0.0
O405 O 0.07615 0.93736 0.31367 0.0
Co406 Co 0.79054 0.81983 0.5838 0.0
O407 O 0.7841 0.79882 0.57428 0.0
O408 O 0.77912 0.80634 0.60026 0.0
C409 C 0.78158 0.83609 0.56263 0.0
O410 O 0.79434 0.84086 0.59762 0.0
Co411 Co 0.8166 0.84227 0.56596 0.0
O412 O 0.80797 0.85933 0.58164 0.0
C413 C 0.82804 0.81356 0.58578 0.0
C414 C 0.77731 0.79537 0.58849 0.0
C415 C 0.7999 0.85564 0.59478 0.0
O416 O 0.81309 0.81078 0.59095 0.0
O417 O 0.83153 0.82439 0.57465 0.0
O418 O 0.77114 0.8307 0.57371 0.0
O419 O 0.7963 0.82985 0.56363 0.0
Co420 Co 0.93607 0.54362 0.8305 0.0
O421 O 0.95552 0.53862 0.81746 0.0
O422 O 0.95204 0.53125 0.84371 0.0
C423 C 0.91707 0.53603 0.81109 0.0
O424 O 0.91768 0.54551 0.84775 0.0
Co425 Co 0.90974 0.56979 0.81915 0.0
O426 O 0.89585 0.55891 0.8365 0.0
C427 C 0.94127 0.58095 0.83461 0.0
C428 C 0.96116 0.53072 0.83038 0.0
C429 C 0.90241 0.55026 0.84808 0.0
O430 O 0.94553 0.56582 0.83807 0.0
O431 O 0.92852 0.58467 0.82581 0.0
O432 O 0.9241 0.52482 0.82039 0.0
O433 O 0.92288 0.55084 0.81274 0.0
Co434 Co 0.20296 0.68618 0.08365 0.0
O435 O 0.20801 0.70775 0.07419 0.0
O436 O 0.2155 0.6994 0.09931 0.0
C437 C 0.20971 0.67111 0.0608 0.0
O438 O 0.20148 0.66529 0.09777 0.0
Co439 Co 0.17707 0.6612 0.06943 0.0
O440 O 0.18719 0.64494 0.08516 0.0
C441 C 0.16589 0.69063 0.08873 0.0
C442 C 0.21591 0.71087 0.08796 0.0
C443 C 0.19632 0.65018 0.09702 0.0
O444 O 0.18095 0.69431 0.093 0.0
O445 O 0.1623 0.6792 0.07823 0.0
O446 O 0.22131 0.67603 0.07097 0.0
O447 O 0.19499 0.67625 0.06421 0.0
Co448 Co 0.16813 0.56521 0.04516 0.0
O449 O 0.17836 0.54423 0.03931 0.0
O450 O 0.15323 0.55233 0.03142 0.0
C451 C 0.19078 0.58115 0.03999 0.0
O452 O 0.15343 0.58565 0.04732 0.0
Co453 Co 0.18093 0.58897 0.0729 0.0
O454 O 0.16553 0.60552 0.06271 0.0
C455 C 0.16182 0.55862 0.08169 0.0
C456 C 0.16493 0.5412 0.03082 0.0
C457 C 0.15395 0.60054 0.05309 0.0
O458 O 0.1582 0.55568 0.06631 0.0
O459 O 0.1719 0.57005 0.08632 0.0
O460 O 0.18113 0.57662 0.02781 0.0
O461 O 0.18704 0.57514 0.0543 0.0
Co462 Co 0.18834 0.91428 0.29715 0.0
O463 O 0.20969 0.92415 0.29251 0.0
O464 O 0.2024 0.8985 0.28563 0.0
C465 C 0.17286 0.93627 0.28872 0.0
O466 O 0.16764 0.89987 0.29857 0.0
Co467 Co 0.16274 0.92943 0.32188 0.0
O468 O 0.14694 0.91346 0.31145 0.0
C469 C 0.19169 0.91042 0.3346 0.0
C470 C 0.21344 0.91028 0.28509 0.0
C471 C 0.15234 0.90115 0.30304 0.0
O472 O 0.19594 0.90593 0.31976 0.0
O473 O 0.18007 0.9209 0.33758 0.0
O474 O 0.17859 0.92573 0.27786 0.0
O475 O 0.17774 0.93389 0.30376 0.0
Co476 Co 0.83323 0.93769 0.53651 0.0
O477 O 0.82203 0.95845 0.53299 0.0
O478 O 0.84667 0.95216 0.52254 0.0
C479 C 0.811 0.92122 0.53125 0.0
O480 O 0.84811 0.91707 0.53688 0.0
Co481 Co 0.82125 0.91382 0.56465 0.0
O482 O 0.83496 0.89756 0.55204 0.0
C483 C 0.84222 0.94287 0.57303 0.0
C484 C 0.83442 0.9627 0.52362 0.0
C485 C 0.84643 0.90199 0.54202 0.0
O486 O 0.84435 0.94631 0.5575 0.0
O487 O 0.83232 0.93151 0.57818 0.0
O488 O 0.81979 0.92711 0.51906 0.0
O489 O 0.81483 0.9269 0.54572 0.0
Co490 Co 0.81349 0.587 0.79438 0.0
O491 O 0.79217 0.57782 0.78842 0.0
O492 O 0.80029 0.60341 0.78247 0.0
C493 C 0.82924 0.56513 0.78602 0.0
O494 O 0.83485 0.6004 0.7974 0.0
Co495 Co 0.83598 0.56956 0.82078 0.0
O496 O 0.85325 0.58431 0.81104 0.0
C497 C 0.80788 0.59047 0.83187 0.0
C498 C 0.78906 0.59185 0.78108 0.0
C499 C 0.84968 0.59728 0.80261 0.0
O500 O 0.80494 0.59522 0.81679 0.0
O501 O 0.81851 0.5792 0.83557 0.0
O502 O 0.82383 0.57591 0.77526 0.0
O503 O 0.8232 0.56678 0.80075 0.0
Co504 Co 0.17279 0.4409 0.9529 0.0
O505 O 0.18418 0.46162 0.95684 0.0
O506 O 0.16012 0.45458 0.96815 0.0
C507 C 0.19532 0.42428 0.95604 0.0
O508 O 0.15764 0.42066 0.9528 0.0
Co509 Co 0.18224 0.41701 0.92388 0.0
O510 O 0.1684 0.40076 0.93638 0.0
C511 C 0.1613 0.44671 0.91727 0.0
C512 C 0.17221 0.46526 0.96704 0.0
C513 C 0.15785 0.40569 0.94715 0.0
O514 O 0.1604 0.45021 0.93294 0.0
O515 O 0.17054 0.43513 0.91141 0.0
O516 O 0.18729 0.4296 0.96901 0.0
O517 O 0.19043 0.43028 0.94204 0.0
Co518 Co 0.31582 0.92054 0.21008 0.0
O519 O 0.29586 0.93218 0.21602 0.0
O520 O 0.30155 0.90631 0.22345 0.0
C521 C 0.33379 0.94117 0.21671 0.0
O522 O 0.33569 0.90503 0.20695 0.0
Co523 Co 0.33828 0.93457 0.18175 0.0
O524 O 0.35461 0.91884 0.19161 0.0
C525 C 0.30793 0.9158 0.17318 0.0
C526 C 0.2916 0.91906 0.22435 0.0
C527 C 0.35043 0.90664 0.20085 0.0
O528 O 0.30552 0.91201 0.18859 0.0
O529 O 0.31923 0.9259 0.16832 0.0
O530 O 0.32794 0.93148 0.22821 0.0
O531 O 0.32704 0.93938 0.20229 0.0
Co532 Co 0.83484 0.06797 0.45314 0.0
O533 O 0.82579 0.04664 0.45899 0.0
O534 O 0.85149 0.05477 0.4646 0.0
C535 C 0.81309 0.08356 0.46183 0.0
O536 O 0.84822 0.08927 0.44999 0.0
Co537 Co 0.81723 0.09062 0.42709 0.0
O538 O 0.83248 0.10783 0.43619 0.0
C539 C 0.83789 0.06247 0.41566 0.0
C540 C 0.84003 0.04343 0.4659 0.0
C541 C 0.84546 0.10408 0.44453 0.0
O542 O 0.84265 0.05946 0.4307 0.0
O543 O 0.82674 0.07325 0.41202 0.0
O544 O 0.82406 0.07826 0.47246 0.0
O545 O 0.81458 0.07764 0.44703 0.0
Co546 Co 0.68768 0.58175 0.70428 0.0
O547 O 0.70868 0.57114 0.70864 0.0
O548 O 0.70158 0.59589 0.71826 0.0
C549 C 0.6717 0.55916 0.70976 0.0
O550 O 0.66678 0.59621 0.70331 0.0
Co551 Co 0.66406 0.56857 0.67641 0.0
O552 O 0.64752 0.58264 0.68821 0.0
C553 C 0.69341 0.58887 0.66752 0.0
C554 C 0.71239 0.58384 0.71788 0.0
C555 C 0.65175 0.59435 0.69805 0.0
O556 O 0.69638 0.59232 0.68295 0.0
O557 O 0.68237 0.57839 0.66284 0.0
O558 O 0.67704 0.56847 0.72186 0.0
O559 O 0.67747 0.56288 0.69534 0.0
Co560 Co 0.54944 0.67885 0.56765 0.0
O561 O 0.54414 0.68945 0.54688 0.0
O562 O 0.53555 0.66436 0.55404 0.0
C563 C 0.54378 0.70106 0.58406 0.0
O564 O 0.55157 0.66431 0.58842 0.0
Co565 Co 0.57783 0.69278 0.5902 0.0
O566 O 0.56732 0.67808 0.60704 0.0
C567 C 0.58621 0.67265 0.56065 0.0
C568 C 0.53528 0.67646 0.54329 0.0
C569 C 0.55756 0.66616 0.60318 0.0
O570 O 0.57075 0.66893 0.55823 0.0
O571 O 0.59107 0.68329 0.57146 0.0
O572 O 0.5318 0.69148 0.57894 0.0
O573 O 0.5581 0.69791 0.57773 0.0
Co574 Co 0.05289 0.33106 0.93697 0.0
O575 O 0.04959 0.31896 0.95735 0.0
O576 O 0.04033 0.34445 0.95254 0.0
C577 C 0.04616 0.30968 0.91991 0.0
O578 O 0.05284 0.34739 0.91762 0.0
Co579 Co 0.07829 0.32032 0.9099 0.0
O580 O 0.06613 0.33649 0.89563 0.0
C581 C 0.08987 0.33711 0.94066 0.0
C582 C 0.04115 0.33174 0.9625 0.0
C583 C 0.05703 0.3477 0.9022 0.0
O584 O 0.07482 0.34046 0.94515 0.0
O585 O 0.09343 0.3279 0.92816 0.0
O586 O 0.03449 0.31881 0.9264 0.0
O587 O 0.061 0.3131 0.92472 0.0
Co588 Co 0.41214 0.78945 0.18558 0.0
O589 O 0.4232 0.78457 0.2063 0.0
O590 O 0.39837 0.77512 0.19902 0.0
C591 C 0.43463 0.78522 0.16926 0.0
O592 O 0.3969 0.79082 0.16542 0.0
Co593 Co 0.42313 0.81793 0.16184 0.0
O594 O 0.4078 0.80718 0.14564 0.0
C595 C 0.40357 0.8256 0.1922 0.0
C596 C 0.41032 0.77553 0.2099 0.0
C597 C 0.39681 0.79692 0.15065 0.0
O598 O 0.40126 0.81001 0.19525 0.0
O599 O 0.41307 0.83092 0.18058 0.0
O600 O 0.42569 0.77263 0.17405 0.0
O601 O 0.43037 0.79942 0.17524 0.0
Co602 Co 0.96374 0.16411 0.43339 0.0
O603 O 0.96854 0.1752 0.45413 0.0
O604 O 0.97648 0.1496 0.44774 0.0
C605 C 0.97027 0.18554 0.41634 0.0
O606 O 0.96219 0.14867 0.41343 0.0
Co607 Co 0.93682 0.17667 0.40854 0.0
O608 O 0.94743 0.16061 0.39295 0.0
C609 C 0.92678 0.15773 0.4385 0.0
C610 C 0.9765 0.16178 0.45837 0.0
C611 C 0.95679 0.14901 0.39838 0.0
O612 O 0.94209 0.15483 0.44233 0.0
O613 O 0.92242 0.16733 0.42655 0.0
O614 O 0.98194 0.17605 0.42233 0.0
O615 O 0.95562 0.18278 0.42211 0.0
Co616 Co 0.07992 0.20667 0.69201 0.0
O617 O 0.06933 0.21224 0.71267 0.0
O618 O 0.09364 0.22218 0.70461 0.0
C619 C 0.05712 0.21015 0.67582 0.0
O620 O 0.09416 0.20441 0.67109 0.0
Co621 Co 0.06754 0.17635 0.67112 0.0
O622 O 0.08079 0.18731 0.65339 0.0
C623 C 0.08939 0.17082 0.70028 0.0
C624 C 0.08169 0.22219 0.71552 0.0
C625 C 0.09227 0.19778 0.6566 0.0
O626 O 0.09153 0.18664 0.70226 0.0
O627 O 0.07918 0.16464 0.68972 0.0
O628 O 0.06598 0.22291 0.68025 0.0
O629 O 0.06129 0.1963 0.68269 0.0
Co630 Co 0.45839 0.3362 0.5625 0.0
O631 O 0.46196 0.32385 0.54231 0.0
O632 O 0.47322 0.34835 0.54796 0.0
C633 C 0.46191 0.31422 0.57975 0.0
O634 O 0.45844 0.3524 0.58197 0.0
Co635 Co 0.43007 0.32761 0.58749 0.0
O636 O 0.44254 0.34263 0.60272 0.0
C637 C 0.42261 0.34644 0.55655 0.0
C638 C 0.47189 0.33577 0.53787 0.0
C639 C 0.453 0.35306 0.59698 0.0
O640 O 0.43818 0.34785 0.55293 0.0
O641 O 0.41719 0.33761 0.56865 0.0
O642 O 0.47478 0.32223 0.57416 0.0
O643 O 0.4478 0.319 0.57396 0.0
Co644 Co 0.42226 0.71035 0.31841 0.0
O645 O 0.4352 0.71501 0.29878 0.0
O646 O 0.40899 0.72257 0.30253 0.0
C647 C 0.44213 0.71763 0.33696 0.0
O648 O 0.4049 0.70881 0.33675 0.0
Co649 Co 0.43283 0.68441 0.3451 0.0
O650 O 0.41527 0.69522 0.35883 0.0
C651 C 0.41799 0.67321 0.31325 0.0
C652 C 0.42214 0.7227 0.29316 0.0
C653 C 0.40397 0.70397 0.35195 0.0
O654 O 0.4145 0.68831 0.30903 0.0
O655 O 0.42656 0.66947 0.32616 0.0
O656 O 0.43282 0.72901 0.33019 0.0
O657 O 0.43991 0.70278 0.33146 0.0
Co658 Co 0.58024 0.7985 0.81978 0.0
O659 O 0.57191 0.79237 0.79815 0.0
O660 O 0.59728 0.78686 0.80735 0.0
C661 C 0.55774 0.79004 0.8344 0.0
O662 O 0.59309 0.80161 0.84143 0.0
Co663 Co 0.56226 0.82435 0.84233 0.0
O664 O 0.5771 0.81517 0.85989 0.0
C665 C 0.58325 0.83595 0.81447 0.0
C666 C 0.58623 0.78532 0.79565 0.0
C667 C 0.59013 0.80688 0.85626 0.0
O668 O 0.58829 0.82096 0.81148 0.0
O669 O 0.57185 0.83938 0.82504 0.0
O670 O 0.56893 0.77931 0.82979 0.0
O671 O 0.55972 0.80484 0.82866 0.0
Co672 Co 0.56252 0.55041 0.66983 0.0
O673 O 0.54187 0.5473 0.68161 0.0
O674 O 0.54774 0.53626 0.65711 0.0
C675 C 0.57926 0.54578 0.69204 0.0
O676 O 0.58233 0.54978 0.65413 0.0
Co677 Co 0.58853 0.57748 0.67945 0.0
O678 O 0.60357 0.56452 0.66467 0.0
C679 C 0.5586 0.58665 0.6597 0.0
C680 C 0.53742 0.5376 0.66947 0.0
C681 C 0.5976 0.55447 0.65395 0.0
O682 O 0.55407 0.57128 0.6583 0.0
O683 O 0.57083 0.59138 0.66877 0.0
O684 O 0.57323 0.53331 0.68369 0.0
O685 O 0.57409 0.56021 0.6875 0.0
Co686 Co 0.20733 0.31494 0.91784 0.0
O687 O 0.21155 0.2942 0.92896 0.0
O688 O 0.22158 0.30093 0.90425 0.0
C689 C 0.21215 0.33143 0.94017 0.0
O690 O 0.20655 0.33537 0.90291 0.0
Co691 Co 0.1791 0.33889 0.92947 0.0
O692 O 0.19103 0.35515 0.91516 0.0
C693 C 0.17095 0.3096 0.90858 0.0
C694 C 0.22098 0.29034 0.91646 0.0
C695 C 0.20111 0.3504 0.90387 0.0
O696 O 0.18649 0.30599 0.90669 0.0
O697 O 0.16575 0.32108 0.91834 0.0
O698 O 0.2245 0.32594 0.93133 0.0
O699 O 0.1978 0.32559 0.93621 0.0
Co700 Co 0.43677 0.9609 0.16558 0.0
O701 O 0.45805 0.96686 0.17468 0.0
O702 O 0.44964 0.97317 0.14924 0.0
C703 C 0.42105 0.96875 0.18752 0.0
O704 O 0.41529 0.9577 0.15238 0.0
Co705 Co 0.41533 0.93364 0.1828 0.0
O706 O 0.39761 0.9431 0.16841 0.0
C707 C 0.44259 0.92353 0.16041 0.0
C708 C 0.46101 0.97435 0.16071 0.0
C709 C 0.4007 0.95189 0.15557 0.0
O710 O 0.44559 0.93889 0.1568 0.0
O711 O 0.43205 0.91913 0.17149 0.0
O712 O 0.4263 0.97975 0.17693 0.0
O713 O 0.42739 0.95411 0.18577 0.0
Co714 Co 0.78819 0.18506 0.41097 0.0
O715 O 0.78267 0.20583 0.42147 0.0
O716 O 0.77535 0.19873 0.39586 0.0
C717 C 0.78143 0.16842 0.4326 0.0
O718 O 0.79066 0.16465 0.39624 0.0
Co719 Co 0.81556 0.16158 0.42513 0.0
O720 O 0.80557 0.14512 0.40957 0.0
C721 C 0.82517 0.19084 0.40491 0.0
C722 C 0.7747 0.20951 0.4079 0.0
C723 C 0.79641 0.14976 0.39747 0.0
O724 O 0.80979 0.1943 0.40187 0.0
O725 O 0.82973 0.17933 0.41494 0.0
O726 O 0.76992 0.17394 0.42267 0.0
O727 O 0.79603 0.17451 0.43018 0.0
Co728 Co 0.56674 0.46358 0.33964 0.0
O729 O 0.54581 0.46908 0.32932 0.0
O730 O 0.55328 0.47677 0.35467 0.0
C731 C 0.58271 0.46981 0.31735 0.0
O732 O 0.5873 0.4613 0.35432 0.0
Co733 Co 0.59049 0.4363 0.32578 0.0
O734 O 0.60694 0.4462 0.3414 0.0
C735 C 0.56096 0.42669 0.34569 0.0
C736 C 0.54233 0.47728 0.34279 0.0
C737 C 0.60219 0.45549 0.35335 0.0
O738 O 0.55757 0.44205 0.34903 0.0
O739 O 0.57241 0.42228 0.33554 0.0
O740 O 0.57782 0.48156 0.32733 0.0
O741 O 0.57686 0.45527 0.32047 0.0
Co742 Co 0.29382 0.31431 0.59113 0.0
O743 O 0.2909 0.2934 0.58001 0.0
O744 O 0.28105 0.29918 0.60501 0.0
C745 C 0.28674 0.33058 0.56924 0.0
O746 O 0.29369 0.33492 0.60598 0.0
Co747 Co 0.32031 0.33946 0.57817 0.0
O748 O 0.30728 0.35511 0.59217 0.0
C749 C 0.33091 0.31106 0.59904 0.0
C750 C 0.28208 0.28875 0.59266 0.0
C751 C 0.29793 0.35025 0.60402 0.0
O752 O 0.31563 0.30675 0.60151 0.0
O753 O 0.33517 0.3227 0.58905 0.0
O754 O 0.27531 0.32392 0.57847 0.0
O755 O 0.30167 0.32565 0.57236 0.0
Co756 Co 0.43464 0.04193 0.83106 0.0
O757 O 0.45539 0.03423 0.82196 0.0
O758 O 0.44782 0.03107 0.84819 0.0
C759 C 0.41783 0.03228 0.81066 0.0
O760 O 0.41378 0.04727 0.84458 0.0
Co761 Co 0.41314 0.06775 0.81168 0.0
O762 O 0.39587 0.06092 0.82794 0.0
C763 C 0.44195 0.07937 0.8312 0.0
C764 C 0.45868 0.02819 0.83655 0.0
C765 C 0.39927 0.05338 0.84148 0.0
O766 O 0.44441 0.06454 0.83692 0.0
O767 O 0.4312 0.08268 0.81993 0.0
O768 O 0.42316 0.02232 0.82222 0.0
O769 O 0.42465 0.04678 0.8106 0.0
Co770 Co 0.70917 0.18622 0.08576 0.0
O771 O 0.71438 0.20791 0.07721 0.0
O772 O 0.72187 0.19864 0.10206 0.0
C773 C 0.71617 0.17136 0.06293 0.0
O774 O 0.70694 0.16439 0.09841 0.0
Co775 Co 0.68158 0.16458 0.06934 0.0
O776 O 0.69197 0.14663 0.08281 0.0
C777 C 0.6721 0.1913 0.09271 0.0
C778 C 0.72232 0.21046 0.09104 0.0
C779 C 0.70127 0.14973 0.09529 0.0
O780 O 0.68753 0.19441 0.09577 0.0
O781 O 0.66734 0.18089 0.08163 0.0
O782 O 0.72758 0.17646 0.07319 0.0
O783 O 0.70152 0.17732 0.06562 0.0
Co784 Co 0.66886 0.06598 0.0434 0.0
O785 O 0.68163 0.04628 0.0389 0.0
O786 O 0.65543 0.04981 0.03138 0.0
C787 C 0.68849 0.08436 0.03514 0.0
O788 O 0.65205 0.08494 0.04506 0.0
Co789 Co 0.68135 0.09223 0.06913 0.0
O790 O 0.66419 0.1064 0.05833 0.0
C791 C 0.66524 0.06132 0.08088 0.0
C792 C 0.66874 0.04059 0.03105 0.0
C793 C 0.6523 0.10027 0.04978 0.0
O794 O 0.66133 0.05709 0.06586 0.0
O795 O 0.67451 0.0738 0.08434 0.0
O796 O 0.67892 0.07726 0.02422 0.0
O797 O 0.68698 0.0789 0.05009 0.0
Co798 Co 0.68736 0.42186 0.29939 0.0
O799 O 0.70848 0.43236 0.2956 0.0
O800 O 0.70014 0.40912 0.28338 0.0
C801 C 0.67219 0.44554 0.29771 0.0
O802 O 0.66621 0.40781 0.29948 0.0
Co803 Co 0.66518 0.43166 0.32964 0.0
O804 O 0.64777 0.41952 0.31694 0.0
C805 C 0.69432 0.40955 0.33439 0.0
C806 C 0.71146 0.42056 0.285 0.0
C807 C 0.65148 0.40902 0.30564 0.0
O808 O 0.69664 0.40836 0.31856 0.0
O809 O 0.68364 0.41937 0.34097 0.0
O810 O 0.67647 0.43771 0.28422 0.0
O811 O 0.67821 0.43958 0.31126 0.0
Co812 Co 0.3286 0.43601 0.54567 0.0
O813 O 0.31709 0.45638 0.54072 0.0
O814 O 0.34301 0.45097 0.53331 0.0
C815 C 0.30805 0.41839 0.5379 0.0
O816 O 0.34409 0.41595 0.54768 0.0
Co817 Co 0.31443 0.41182 0.57245 0.0
O818 O 0.33036 0.39614 0.56191 0.0
C819 C 0.33296 0.44162 0.58308 0.0
C820 C 0.33033 0.46104 0.5328 0.0
C821 C 0.34252 0.40087 0.55289 0.0
O822 O 0.33692 0.44498 0.56787 0.0
O823 O 0.32278 0.43007 0.58708 0.0
O824 O 0.31779 0.4249 0.52679 0.0
O825 O 0.30973 0.42439 0.55265 0.0
Co826 Co 0.31542 0.08483 0.79175 0.0
O827 O 0.29403 0.07526 0.78726 0.0
O828 O 0.30187 0.10046 0.77937 0.0
C829 C 0.33101 0.06257 0.78456 0.0
O830 O 0.33668 0.09853 0.79339 0.0
Co831 Co 0.33841 0.06964 0.81895 0.0
O832 O 0.35547 0.08373 0.80793 0.0
C833 C 0.31067 0.09155 0.82886 0.0
C834 C 0.29048 0.08897 0.77951 0.0
C835 C 0.35159 0.09604 0.79869 0.0
O836 O 0.30729 0.09452 0.81348 0.0
O837 O 0.32167 0.08099 0.83348 0.0
O838 O 0.32531 0.07255 0.77317 0.0
O839 O 0.32537 0.0652 0.79932 0.0
Co840 Co 0.66997 0.93782 0.95643 0.0
O841 O 0.67845 0.95943 0.96248 0.0
O842 O 0.65363 0.94985 0.96945 0.0
C843 C 0.69308 0.92301 0.96297 0.0
O844 O 0.65722 0.91612 0.95369 0.0
Co845 Co 0.68643 0.91622 0.92879 0.0
O846 O 0.67287 0.89824 0.93901 0.0
C847 C 0.66445 0.94419 0.91942 0.0
C848 C 0.66459 0.96168 0.97045 0.0
C849 C 0.66034 0.90142 0.94818 0.0
O850 O 0.66024 0.94659 0.93475 0.0
O851 O 0.67579 0.93393 0.91498 0.0
O852 O 0.68268 0.92737 0.97455 0.0
O853 O 0.69009 0.92922 0.94854 0.0
Co854 Co 0.81565 0.41326 0.21292 0.0
O855 O 0.79491 0.42376 0.21879 0.0
O856 O 0.8032 0.39904 0.22775 0.0
C857 C 0.83173 0.43611 0.21642 0.0
O858 O 0.83609 0.39854 0.21054 0.0
Co859 Co 0.83758 0.42496 0.1833 0.0
O860 O 0.85473 0.41018 0.19336 0.0
C861 C 0.80734 0.40473 0.17715 0.0
C862 C 0.79198 0.41069 0.22782 0.0
C863 C 0.85057 0.39899 0.20378 0.0
O864 O 0.80526 0.40221 0.19284 0.0
O865 O 0.81836 0.41461 0.17127 0.0
O866 O 0.82768 0.42706 0.2292 0.0
O867 O 0.82508 0.43177 0.20255 0.0
Co868 Co 0.33898 0.56489 0.4599 0.0
O869 O 0.32858 0.54381 0.46497 0.0
O870 O 0.35286 0.55219 0.47487 0.0
C871 C 0.31579 0.58066 0.46308 0.0
O872 O 0.35359 0.58545 0.45869 0.0
Co873 Co 0.32812 0.58817 0.43092 0.0
O874 O 0.34281 0.60488 0.44182 0.0
C875 C 0.34858 0.55812 0.42412 0.0
C876 C 0.34136 0.54088 0.47444 0.0
C877 C 0.35358 0.60016 0.45245 0.0
O878 O 0.35075 0.55529 0.43978 0.0
O879 O 0.33877 0.56938 0.41852 0.0
O880 O 0.32447 0.57632 0.47604 0.0
O881 O 0.32074 0.57455 0.44918 0.0
Co882 Co 0.18203 0.0793 0.71361 0.0
O883 O 0.20263 0.06826 0.71828 0.0
O884 O 0.19523 0.09262 0.72887 0.0
C885 C 0.16587 0.05652 0.7168 0.0
O886 O 0.16132 0.09398 0.71216 0.0
Co887 Co 0.16039 0.06801 0.68347 0.0
O888 O 0.14313 0.08152 0.69491 0.0
C889 C 0.1899 0.08926 0.67797 0.0
C890 C 0.20608 0.08061 0.72805 0.0
C891 C 0.14674 0.09264 0.70564 0.0
O892 O 0.19202 0.0911 0.69376 0.0
O893 O 0.17909 0.07939 0.67169 0.0
O894 O 0.17041 0.06509 0.72974 0.0
O895 O 0.17239 0.06109 0.70295 0.0
Co896 Co 0.04455 0.17476 0.56546 0.0
O897 O 0.03933 0.18614 0.54513 0.0
O898 O 0.03069 0.16078 0.55141 0.0
C899 C 0.03909 0.19635 0.58266 0.0
O900 O 0.04673 0.15949 0.58564 0.0
Co901 Co 0.07328 0.1876 0.58816 0.0
O902 O 0.06254 0.17265 0.60465 0.0
C903 C 0.08112 0.16831 0.5579 0.0
C904 C 0.03062 0.1732 0.54103 0.0
C905 C 0.05273 0.16091 0.60044 0.0
O906 O 0.0656 0.16499 0.55552 0.0
O907 O 0.08631 0.17837 0.56911 0.0
O908 O 0.02703 0.18704 0.57726 0.0
O909 O 0.05339 0.19337 0.57618 0.0
Co910 Co 0.54725 0.83165 0.94179 0.0
O911 O 0.5443 0.82015 0.96257 0.0
O912 O 0.53281 0.84438 0.95625 0.0
C913 C 0.54332 0.80898 0.92557 0.0
O914 O 0.54649 0.84705 0.92171 0.0
Co915 Co 0.57474 0.82224 0.91624 0.0
O916 O 0.56179 0.83663 0.90081 0.0
C917 C 0.58316 0.84224 0.94616 0.0
C918 C 0.53445 0.83223 0.9668 0.0
C919 C 0.55143 0.84721 0.90651 0.0
O920 O 0.56771 0.84365 0.95027 0.0
O921 O 0.58824 0.83305 0.93417 0.0
O922 O 0.53058 0.81719 0.93121 0.0
O923 O 0.55758 0.81404 0.93072 0.0
Co924 Co 0.92281 0.29321 0.18581 0.0
O925 O 0.93413 0.28808 0.20618 0.0
O926 O 0.90822 0.28082 0.20076 0.0
C927 C 0.94355 0.28525 0.16852 0.0
O928 O 0.90757 0.29571 0.16554 0.0
Co929 Co 0.93795 0.32 0.16212 0.0
O930 O 0.92207 0.30981 0.14617 0.0
C931 C 0.91921 0.33064 0.1918 0.0
C932 C 0.92088 0.28024 0.21087 0.0
C933 C 0.90957 0.30108 0.15055 0.0
O934 O 0.91485 0.31547 0.1949 0.0
O935 O 0.92964 0.33455 0.18044 0.0
O936 O 0.93348 0.27423 0.17466 0.0
O937 O 0.94193 0.29999 0.17454 0.0
Co938 Co 0.46231 0.66823 0.43968 0.0
O939 O 0.46794 0.67904 0.46036 0.0
O940 O 0.47367 0.65281 0.45438 0.0
C941 C 0.47113 0.68894 0.42274 0.0
O942 O 0.4596 0.65289 0.41964 0.0
Co943 Co 0.4372 0.68344 0.41433 0.0
O944 O 0.4467 0.66654 0.39893 0.0
C945 C 0.4248 0.66602 0.44431 0.0
C946 C 0.47492 0.66515 0.46476 0.0
C947 C 0.45469 0.65398 0.40443 0.0
O948 O 0.43963 0.66121 0.44829 0.0
O949 O 0.42178 0.67616 0.4324 0.0
O950 O 0.48174 0.67836 0.42884 0.0
O951 O 0.45621 0.68755 0.42828 0.0
Co952 Co 0.58479 0.70933 0.6937 0.0
O953 O 0.57279 0.71243 0.71415 0.0
O954 O 0.5971 0.72392 0.70846 0.0
C955 C 0.56261 0.71341 0.67679 0.0
O956 O 0.60054 0.70988 0.67391 0.0
Co957 Co 0.57553 0.68156 0.66822 0.0
O958 O 0.5898 0.69479 0.65296 0.0
C959 C 0.59521 0.67328 0.69841 0.0
C960 C 0.58462 0.72245 0.71863 0.0
C961 C 0.60047 0.70504 0.65866 0.0
O962 O 0.59658 0.68877 0.70251 0.0
O963 O 0.58614 0.66817 0.68634 0.0
O964 O 0.57072 0.72608 0.6827 0.0
O965 O 0.56733 0.69912 0.68221 0.0
Co966 Co 0.95661 0.83164 0.56071 0.0
O967 O 0.96188 0.81936 0.54084 0.0
O968 O 0.97388 0.84298 0.54832 0.0
C969 C 0.95655 0.80925 0.57786 0.0
O970 O 0.9553 0.84752 0.5804 0.0
Co971 Co 0.92488 0.8246 0.5818 0.0
O972 O 0.93624 0.83861 0.59875 0.0
C973 C 0.92251 0.844 0.55045 0.0
C974 C 0.97301 0.83067 0.53787 0.0
C975 C 0.94803 0.84836 0.59462 0.0
O976 O 0.93848 0.84468 0.54897 0.0
O977 O 0.9151 0.83529 0.56153 0.0
O978 O 0.9705 0.81642 0.57399 0.0
O979 O 0.94361 0.81503 0.57046 0.0
Co980 Co 0.91741 0.2073 0.31486 0.0
O981 O 0.92691 0.21389 0.29391 0.0
O982 O 0.90107 0.21924 0.30157 0.0
C983 C 0.93887 0.21554 0.33121 0.0
O984 O 0.90358 0.20346 0.33578 0.0
Co985 Co 0.93477 0.18063 0.33709 0.0
O986 O 0.91916 0.18926 0.35419 0.0
C987 C 0.91505 0.16999 0.30797 0.0
C988 C 0.91278 0.22094 0.29056 0.0
C989 C 0.90618 0.19762 0.35049 0.0
O990 O 0.90987 0.18502 0.30549 0.0
O991 O 0.92618 0.16624 0.31874 0.0
O992 O 0.92797 0.22632 0.32603 0.0
O993 O 0.93749 0.20095 0.32477 0.0
Co994 Co 0.08311 0.30232 0.81333 0.0
O995 O 0.07455 0.29683 0.79161 0.0
O996 O 0.09947 0.2897 0.80089 0.0
C997 C 0.06001 0.29514 0.82779 0.0
O998 O 0.096 0.30441 0.83508 0.0
Co999 Co 0.06655 0.3289 0.83619 0.0
O1000 O 0.08043 0.31824 0.8537 0.0
C1001 C 0.08788 0.33955 0.80819 0.0
C1002 C 0.08837 0.28883 0.78916 0.0
C1003 C 0.09304 0.30934 0.85001 0.0
O1004 O 0.0925 0.32441 0.80526 0.0
O1005 O 0.07654 0.34338 0.81868 0.0
O1006 O 0.07055 0.28377 0.82314 0.0
O1007 O 0.06297 0.30981 0.82219 0.0
Co1008 Co 0.56576 0.04615 0.16913 0.0
O1009 O 0.54541 0.04208 0.181 0.0
O1010 O 0.55084 0.03272 0.15572 0.0
C1011 C 0.5826 0.04038 0.19094 0.0
O1012 O 0.58539 0.04691 0.1531 0.0
Co1013 Co 0.5915 0.07291 0.18024 0.0
O1014 O 0.60645 0.06158 0.16411 0.0
C1015 C 0.56033 0.08289 0.16312 0.0
C1016 C 0.54072 0.03326 0.16831 0.0
C1017 C 0.60054 0.05206 0.15289 0.0
O1018 O 0.55674 0.06765 0.1595 0.0
O1019 O 0.57246 0.08705 0.17259 0.0
O1020 O 0.57693 0.02833 0.18175 0.0
O1021 O 0.5773 0.05498 0.18721 0.0
Co1022 Co 0.20094 0.81018 0.42319 0.0
O1023 O 0.20533 0.78986 0.43528 0.0
O1024 O 0.21512 0.79551 0.41026 0.0
C1025 C 0.20566 0.8276 0.44493 0.0
O1026 O 0.2003 0.82964 0.407 0.0
Co1027 Co 0.17348 0.83572 0.43316 0.0
O1028 O 0.18527 0.85075 0.41745 0.0
C1029 C 0.16444 0.80437 0.41583 0.0
C1030 C 0.21467 0.78541 0.42287 0.0
C1031 C 0.19514 0.84479 0.40657 0.0
O1032 O 0.17983 0.80074 0.41288 0.0
O1033 O 0.15988 0.81653 0.42506 0.0
O1034 O 0.21809 0.8219 0.43629 0.0
O1035 O 0.19135 0.82182 0.44087 0.0
Co1036 Co 0.43634 0.46068 0.6666 0.0
O1037 O 0.45702 0.46733 0.67695 0.0
O1038 O 0.4493 0.47398 0.65137 0.0
C1039 C 0.42002 0.4666 0.68877 0.0
O1040 O 0.41619 0.45751 0.65163 0.0
Co1041 Co 0.4129 0.43313 0.68023 0.0
O1042 O 0.39642 0.44242 0.66422 0.0
C1043 C 0.44377 0.42398 0.66213 0.0
C1044 C 0.46019 0.47527 0.66323 0.0
C1045 C 0.40137 0.45156 0.65227 0.0
O1046 O 0.44645 0.43924 0.65784 0.0
O1047 O 0.43224 0.41963 0.67221 0.0
O1048 O 0.4244 0.47841 0.67861 0.0
O1049 O 0.42629 0.45223 0.68574 0.0
Co1050 Co 0.79671 0.69043 0.9214 0.0
O1051 O 0.79208 0.71019 0.93419 0.0
O1052 O 0.78282 0.70557 0.90871 0.0
C1053 C 0.79144 0.67243 0.94242 0.0
O1054 O 0.79786 0.67151 0.9045 0.0
Co1055 Co 0.82406 0.66476 0.93128 0.0
O1056 O 0.81264 0.65017 0.91487 0.0
C1057 C 0.83331 0.69682 0.91544 0.0
C1058 C 0.78303 0.71513 0.92176 0.0
C1059 C 0.80307 0.65638 0.90384 0.0
O1060 O 0.81798 0.70034 0.91209 0.0
O1061 O 0.83773 0.68437 0.92436 0.0
O1062 O 0.77924 0.67828 0.93356 0.0
O1063 O 0.80587 0.67828 0.93893 0.0
Co1064 Co 0.56188 0.95347 0.833 0.0
O1065 O 0.54177 0.95738 0.82057 0.0
O1066 O 0.54655 0.96704 0.84585 0.0
C1067 C 0.57934 0.95916 0.81164 0.0
O1068 O 0.58113 0.95297 0.84951 0.0
Co1069 Co 0.58805 0.92675 0.82269 0.0
O1070 O 0.60263 0.93878 0.83867 0.0
C1071 C 0.55677 0.91669 0.83949 0.0
C1072 C 0.53676 0.96641 0.83298 0.0
C1073 C 0.59641 0.94822 0.8498 0.0
O1074 O 0.55281 0.93196 0.84267 0.0
O1075 O 0.56913 0.91254 0.83035 0.0
O1076 O 0.57327 0.97124 0.82053 0.0
O1077 O 0.57395 0.94458 0.81528 0.0
Co1078 Co 0.28747 0.81638 0.08478 0.0
O1079 O 0.28204 0.79745 0.07118 0.0
O1080 O 0.27537 0.79993 0.09772 0.0
C1081 C 0.27933 0.83584 0.06614 0.0
O1082 O 0.29016 0.83442 0.10251 0.0
Co1083 Co 0.31354 0.84258 0.07301 0.0
O1084 O 0.30349 0.85619 0.09106 0.0
C1085 C 0.32483 0.81043 0.08701 0.0
C1086 C 0.27446 0.79133 0.08402 0.0
C1087 C 0.2952 0.84964 0.10288 0.0
O1088 O 0.30984 0.80647 0.09122 0.0
O1089 O 0.32835 0.82329 0.0783 0.0
O1090 O 0.26841 0.82875 0.0757 0.0
O1091 O 0.29415 0.82991 0.06716 0.0
Co1092 Co 0.4375 0.54854 0.32978 0.0
O1093 O 0.45805 0.54396 0.31847 0.0
O1094 O 0.45228 0.53586 0.3441 0.0
C1095 C 0.42028 0.54132 0.30867 0.0
O1096 O 0.41735 0.55003 0.34509 0.0
Co1097 Co 0.41307 0.57548 0.31624 0.0
O1098 O 0.39733 0.5642 0.33158 0.0
C1099 C 0.44276 0.5858 0.33526 0.0
C1100 C 0.46257 0.53576 0.33162 0.0
C1101 C 0.40219 0.55501 0.34357 0.0
O1102 O 0.44627 0.57051 0.33878 0.0
O1103 O 0.43113 0.59002 0.32522 0.0
O1104 O 0.42663 0.52995 0.31824 0.0
O1105 O 0.42606 0.55608 0.31096 0.0
Co1106 Co 0.70335 0.69169 0.58174 0.0
O1107 O 0.70766 0.7119 0.56956 0.0
O1108 O 0.71799 0.70612 0.59438 0.0
C1109 C 0.70721 0.67438 0.55978 0.0
O1110 O 0.70272 0.67225 0.598 0.0
Co1111 Co 0.67519 0.66674 0.57236 0.0
O1112 O 0.68713 0.65144 0.58776 0.0
C1113 C 0.66722 0.69841 0.58965 0.0
C1114 C 0.71722 0.71628 0.58184 0.0
C1115 C 0.69729 0.6572 0.59849 0.0
O1116 O 0.68274 0.70155 0.59242 0.0
O1117 O 0.66219 0.68636 0.58052 0.0
O1118 O 0.71997 0.67968 0.56821 0.0
O1119 O 0.69311 0.68033 0.56428 0.0
Co1120 Co 0.66741 0.56693 0.54628 0.0
O1121 O 0.67778 0.54607 0.54037 0.0
O1122 O 0.65212 0.55339 0.53357 0.0
C1123 C 0.68936 0.58329 0.53958 0.0
O1124 O 0.65245 0.58716 0.54879 0.0
Co1125 Co 0.68127 0.59138 0.57291 0.0
O1126 O 0.66542 0.60753 0.56278 0.0
C1127 C 0.66322 0.56089 0.58325 0.0
C1128 C 0.66404 0.54253 0.5326 0.0
C1129 C 0.65334 0.60226 0.55396 0.0
O1130 O 0.65887 0.55763 0.56812 0.0
O1131 O 0.67331 0.57259 0.58715 0.0
O1132 O 0.67919 0.57826 0.52804 0.0
O1133 O 0.68658 0.57743 0.55417 0.0
Co1134 Co 0.68696 0.91905 0.79809 0.0
O1135 O 0.70806 0.92898 0.7923 0.0
O1136 O 0.69937 0.90418 0.78397 0.0
C1137 C 0.67107 0.9419 0.7936 0.0
O1138 O 0.66633 0.90471 0.80023 0.0
Co1139 Co 0.66417 0.93159 0.82669 0.0
O1140 O 0.64716 0.91668 0.81656 0.0
C1141 C 0.69369 0.91076 0.83433 0.0
C1142 C 0.71079 0.91558 0.78365 0.0
C1143 C 0.65166 0.9053 0.80648 0.0
O1144 O 0.6966 0.90832 0.81874 0.0
O1145 O 0.68247 0.92075 0.83967 0.0
O1146 O 0.67556 0.93255 0.78117 0.0
O1147 O 0.6774 0.93795 0.80775 0.0
Co1148 Co 0.33138 0.93857 0.04248 0.0
O1149 O 0.32053 0.95942 0.03841 0.0
O1150 O 0.34512 0.9524 0.02824 0.0
C1151 C 0.30899 0.92223 0.03766 0.0
O1152 O 0.34596 0.91779 0.04342 0.0
Co1153 Co 0.31925 0.91575 0.07136 0.0
O1154 O 0.3327 0.8989 0.05923 0.0
C1155 C 0.34083 0.9446 0.07876 0.0
C1156 C 0.3331 0.96322 0.02908 0.0
C1157 C 0.34418 0.9029 0.04907 0.0
O1158 O 0.34269 0.94761 0.06312 0.0
O1159 O 0.33092 0.93348 0.08438 0.0
O1160 O 0.3178 0.92779 0.02532 0.0
O1161 O 0.31284 0.92825 0.052 0.0
Co1162 Co 0.31574 0.59101 0.28962 0.0
O1163 O 0.29499 0.58028 0.28418 0.0
O1164 O 0.30159 0.6061 0.27727 0.0
C1165 C 0.33274 0.56985 0.28206 0.0
O1166 O 0.33597 0.60603 0.29193 0.0
Co1167 Co 0.34001 0.57673 0.31623 0.0
O1168 O 0.356 0.5926 0.30605 0.0
C1169 C 0.31094 0.59673 0.32692 0.0
C1170 C 0.29102 0.59389 0.27644 0.0
C1171 C 0.35101 0.60482 0.29725 0.0
O1172 O 0.30686 0.59968 0.31165 0.0
O1173 O 0.32274 0.58684 0.33103 0.0
O1174 O 0.32667 0.57985 0.2709 0.0
O1175 O 0.32686 0.5718 0.29682 0.0
Co1176 Co 0.67486 0.43892 0.45946 0.0
O1177 O 0.68619 0.45939 0.46408 0.0
O1178 O 0.66016 0.45424 0.47116 0.0
C1179 C 0.69515 0.42162 0.46843 0.0
O1180 O 0.65962 0.41861 0.45742 0.0
Co1181 Co 0.69023 0.41448 0.43354 0.0
O1182 O 0.6743 0.39883 0.44402 0.0
C1183 C 0.6712 0.44356 0.42178 0.0
C1184 C 0.67287 0.46426 0.47171 0.0
C1185 C 0.66173 0.40346 0.45252 0.0
O1186 O 0.66708 0.44729 0.43686 0.0
O1187 O 0.68155 0.432 0.41818 0.0
O1188 O 0.68509 0.42852 0.47898 0.0
O1189 O 0.69404 0.4272 0.45344 0.0
Co1190 Co 0.81478 0.92023 0.71071 0.0
O1191 O 0.79507 0.9331 0.71503 0.0
O1192 O 0.7997 0.90773 0.7247 0.0
C1193 C 0.8332 0.94088 0.71586 0.0
O1194 O 0.83375 0.90347 0.70971 0.0
Co1195 Co 0.83957 0.92997 0.6826 0.0
O1196 O 0.85448 0.91398 0.69421 0.0
C1197 C 0.80859 0.91179 0.67426 0.0
C1198 C 0.79013 0.92077 0.72419 0.0
C1199 C 0.84874 0.90302 0.70413 0.0
O1200 O 0.80485 0.91016 0.68979 0.0
O1201 O 0.82092 0.92045 0.66911 0.0
O1202 O 0.82687 0.93242 0.72808 0.0
O1203 O 0.82703 0.93769 0.70144 0.0
Co1204 Co 0.33828 0.06864 0.95915 0.0
O1205 O 0.32848 0.04768 0.96497 0.0
O1206 O 0.3542 0.0552 0.97134 0.0
C1207 C 0.31689 0.08514 0.96691 0.0
O1208 O 0.35223 0.08954 0.95602 0.0
Co1209 Co 0.32205 0.09079 0.93184 0.0
O1210 O 0.33706 0.10796 0.94138 0.0
C1211 C 0.34346 0.06266 0.92187 0.0
C1212 C 0.3424 0.04417 0.97233 0.0
C1213 C 0.34972 0.10426 0.95021 0.0
O1214 O 0.34681 0.05951 0.93724 0.0
O1215 O 0.33288 0.07369 0.91735 0.0
O1216 O 0.32727 0.07951 0.97795 0.0
O1217 O 0.31847 0.07878 0.95226 0.0
Co1218 Co 0.18559 0.58154 0.2066 0.0
O1219 O 0.20584 0.56932 0.21061 0.0
O1220 O 0.20177 0.59565 0.2175 0.0
C1221 C 0.16791 0.56171 0.21592 0.0
O1222 O 0.16652 0.59817 0.20566 0.0
Co1223 Co 0.15777 0.56889 0.18279 0.0
O1224 O 0.1441 0.58623 0.19402 0.0
C1225 C 0.18801 0.58465 0.16893 0.0
C1226 C 0.21141 0.58267 0.21784 0.0
C1227 C 0.15096 0.59813 0.20197 0.0
O1228 O 0.19322 0.58874 0.1836 0.0
O1229 O 0.17527 0.57544 0.1664 0.0
O1230 O 0.17536 0.57153 0.22639 0.0
O1231 O 0.17259 0.56318 0.20071 0.0
Co1232 Co 0.0476 0.67468 0.06512 0.0
O1233 O 0.04337 0.68613 0.04443 0.0
O1234 O 0.03454 0.66077 0.05037 0.0
C1235 C 0.0413 0.69653 0.08177 0.0
O1236 O 0.0483 0.65896 0.08497 0.0
Co1237 Co 0.07375 0.68639 0.0912 0.0
O1238 O 0.06239 0.67034 0.10622 0.0
C1239 C 0.08456 0.66861 0.0607 0.0
C1240 C 0.03477 0.67319 0.04002 0.0
C1241 C 0.0531 0.65896 0.10024 0.0
O1242 O 0.0694 0.66513 0.0566 0.0
O1243 O 0.08838 0.67822 0.07282 0.0
O1244 O 0.02949 0.68716 0.0759 0.0
O1245 O 0.056 0.69305 0.07659 0.0
Co1246 Co 0.54812 0.33591 0.43658 0.0
O1247 O 0.54165 0.32713 0.45791 0.0
O1248 O 0.53297 0.35111 0.44741 0.0
C1249 C 0.54487 0.31213 0.42184 0.0
O1250 O 0.55105 0.3487 0.41498 0.0
Co1251 Co 0.57864 0.32227 0.41707 0.0
O1252 O 0.56874 0.335 0.39828 0.0
C1253 C 0.58374 0.34575 0.44498 0.0
C1254 C 0.53247 0.34035 0.45945 0.0
C1255 C 0.55813 0.34652 0.40082 0.0
O1256 O 0.56792 0.34792 0.44654 0.0
O1257 O 0.59015 0.33503 0.4351 0.0
O1258 O 0.53205 0.32138 0.4253 0.0
O1259 O 0.55856 0.3166 0.42882 0.0
Co1260 Co 0.9158 0.79418 0.68568 0.0
O1261 O 0.92694 0.78807 0.70608 0.0
O1262 O 0.90077 0.78206 0.69995 0.0
C1263 C 0.93673 0.78668 0.66845 0.0
O1264 O 0.90004 0.79717 0.6661 0.0
Co1265 Co 0.92941 0.82047 0.66082 0.0
O1266 O 0.91223 0.81139 0.64544 0.0
C1267 C 0.91279 0.83129 0.69192 0.0
C1268 C 0.91311 0.78088 0.71032 0.0
C1269 C 0.90022 0.80276 0.65113 0.0
O1270 O 0.9083 0.81625 0.69531 0.0
O1271 O 0.92248 0.835 0.67984 0.0
O1272 O 0.92642 0.7755 0.67394 0.0
O1273 O 0.93472 0.8014 0.67435 0.0
Co1274 Co 0.46561 0.16558 0.93137 0.0
O1275 O 0.47174 0.17625 0.95196 0.0
O1276 O 0.48008 0.15119 0.94407 0.0
C1277 C 0.46967 0.1881 0.91502 0.0
O1278 O 0.46284 0.15056 0.91119 0.0
Co1279 Co 0.43637 0.17763 0.90906 0.0
O1280 O 0.44576 0.16201 0.8923 0.0
C1281 C 0.42963 0.15816 0.93967 0.0
C1282 C 0.48044 0.16299 0.95511 0.0
C1283 C 0.45596 0.1507 0.89676 0.0
O1284 O 0.44526 0.15529 0.94189 0.0
O1285 O 0.42404 0.16795 0.9284 0.0
O1286 O 0.48223 0.17876 0.91917 0.0
O1287 O 0.45569 0.18419 0.92164 0.0
Co1288 Co 0.58348 0.20471 0.1872 0.0
O1289 O 0.57495 0.21089 0.20871 0.0
O1290 O 0.60081 0.21514 0.20046 0.0
C1291 C 0.5623 0.21494 0.17172 0.0
O1292 O 0.59644 0.2011 0.16566 0.0
Co1293 Co 0.56406 0.17996 0.16451 0.0
O1294 O 0.57959 0.18838 0.14727 0.0
C1295 C 0.58472 0.16688 0.19189 0.0
C1296 C 0.58949 0.21713 0.21184 0.0
C1297 C 0.59307 0.19596 0.15084 0.0
O1298 O 0.59014 0.18165 0.19526 0.0
O1299 O 0.57324 0.16404 0.18123 0.0
O1300 O 0.57379 0.2248 0.17735 0.0
O1301 O 0.5628 0.20002 0.17754 0.0
Co1302 Co 0.9684 0.33642 0.06609 0.0
O1303 O 0.97516 0.32672 0.04532 0.0
O1304 O 0.98196 0.35206 0.05376 0.0
C1305 C 0.97434 0.31435 0.0825 0.0
O1306 O 0.96453 0.3502 0.08705 0.0
Co1307 Co 0.93926 0.32091 0.08629 0.0
O1308 O 0.94846 0.33514 0.1043 0.0
C1309 C 0.93181 0.34292 0.05784 0.0
C1310 C 0.98322 0.34042 0.04258 0.0
C1311 C 0.95785 0.34758 0.10137 0.0
O1312 O 0.94742 0.34597 0.05584 0.0
O1313 O 0.9263 0.33226 0.0683 0.0
O1314 O 0.98607 0.32441 0.0778 0.0
O1315 O 0.96016 0.31671 0.07539 0.0
Co1316 Co 0.92043 0.70951 0.81555 0.0
O1317 O 0.93256 0.71307 0.79517 0.0
O1318 O 0.90857 0.725 0.80145 0.0
C1319 C 0.94276 0.71181 0.83262 0.0
O1320 O 0.90446 0.70985 0.83515 0.0
Co1321 Co 0.92812 0.68053 0.84008 0.0
O1322 O 0.91367 0.69326 0.85564 0.0
C1323 C 0.9088 0.6742 0.80919 0.0
C1324 C 0.92081 0.72337 0.79104 0.0
C1325 C 0.90365 0.70422 0.85008 0.0
O1326 O 0.90798 0.68988 0.80577 0.0
O1327 O 0.91747 0.66828 0.82118 0.0
O1328 O 0.93516 0.72512 0.82742 0.0
O1329 O 0.93734 0.69802 0.82663 0.0
Co1330 Co 0.07651 0.79638 0.31537 0.0
O1331 O 0.06411 0.79268 0.29518 0.0
O1332 O 0.08946 0.78312 0.30007 0.0
C1333 C 0.05522 0.79036 0.33271 0.0
O1334 O 0.09305 0.79651 0.33457 0.0
Co1335 Co 0.06653 0.82248 0.34205 0.0
O1336 O 0.08252 0.81024 0.35646 0.0
C1337 C 0.08329 0.83321 0.311 0.0
C1338 C 0.07662 0.78371 0.29026 0.0
C1339 C 0.09355 0.80091 0.34993 0.0
O1340 O 0.08621 0.818 0.30664 0.0
O1341 O 0.07433 0.83717 0.32355 0.0
O1342 O 0.06411 0.77842 0.3264 0.0
O1343 O 0.0588 0.80506 0.32759 0.0
H1344 H 0.12924 0.54816 0.15063 0.0
H1345 H 0.0848 0.54855 0.12059 0.0
H1346 H 0.10161 0.54685 0.09533 0.0
H1347 H 0.12905 0.55003 0.08185 0.0
H1348 H 0.17325 0.55032 0.11225 0.0
H1349 H 0.1565 0.54653 0.13719 0.0
C1350 C 0.12323 0.5476 0.13855 0.0
C1351 C 0.10583 0.54883 0.13747 0.0
C1352 C 0.13296 0.54674 0.1241 0.0
C1353 C 0.09819 0.54775 0.12177 0.0
C1354 C 0.10781 0.54683 0.1073 0.0
C1355 C 0.13502 0.54857 0.09386 0.0
C1356 C 0.15234 0.55058 0.09522 0.0
C1357 C 0.12523 0.54693 0.10829 0.0
C1358 C 0.15992 0.54887 0.1109 0.0
C1359 C 0.15034 0.54687 0.1252 0.0
H1360 H 0.7017 0.41444 0.3667 0.0
H1361 H 0.70406 0.37748 0.32791 0.0
H1362 H 0.70861 0.35571 0.34875 0.0
H1363 H 0.70662 0.34682 0.3782 0.0
H1364 H 0.70255 0.38424 0.41654 0.0
H1365 H 0.70395 0.40612 0.39571 0.0
C1366 C 0.70364 0.40167 0.36276 0.0
C1367 C 0.70229 0.39753 0.34583 0.0
C1368 C 0.70557 0.38923 0.37479 0.0
C1369 C 0.70506 0.38099 0.34088 0.0
C1370 C 0.70744 0.36851 0.35282 0.0
C1371 C 0.70642 0.35977 0.38199 0.0
C1372 C 0.70409 0.36388 0.39886 0.0
C1373 C 0.70689 0.37239 0.36985 0.0
C1374 C 0.70396 0.38072 0.4036 0.0
C1375 C 0.7048 0.39327 0.39171 0.0
H1376 H 0.83638 0.94544 0.60603 0.0
H1377 H 0.87326 0.9564 0.56872 0.0
H1378 H 0.89404 0.96104 0.5905 0.0
H1379 H 0.90262 0.95755 0.61985 0.0
H1380 H 0.86549 0.94525 0.65664 0.0
H1381 H 0.84402 0.94548 0.63534 0.0
C1382 C 0.84888 0.94919 0.60264 0.0
C1383 C 0.85331 0.95032 0.58575 0.0
C1384 C 0.86085 0.95124 0.61515 0.0
C1385 C 0.86949 0.95545 0.58161 0.0
C1386 C 0.88144 0.9579 0.59407 0.0
C1387 C 0.8898 0.95518 0.62325 0.0
C1388 C 0.88579 0.95101 0.6398 0.0
C1389 C 0.87742 0.95512 0.61084 0.0
C1390 C 0.86905 0.94814 0.64398 0.0
C1391 C 0.85671 0.94833 0.6318 0.0
H1392 H 0.29245 0.15195 0.87457 0.0
H1393 H 0.31214 0.11842 0.91167 0.0
H1394 H 0.31311 0.09608 0.89129 0.0
H1395 H 0.31207 0.08718 0.86232 0.0
H1396 H 0.29337 0.12072 0.82476 0.0
H1397 H 0.28785 0.14168 0.84604 0.0
C1398 C 0.29668 0.13969 0.87827 0.0
C1399 C 0.30259 0.13703 0.89454 0.0
C1400 C 0.29744 0.12686 0.8664 0.0
C1401 C 0.30785 0.12097 0.89915 0.0
C1402 C 0.30839 0.10813 0.88751 0.0
C1403 C 0.30649 0.09895 0.85877 0.0
C1404 C 0.30346 0.10245 0.84189 0.0
C1405 C 0.30379 0.11111 0.87098 0.0
C1406 C 0.29596 0.11768 0.83763 0.0
C1407 C 0.29291 0.12976 0.84979 0.0
H1408 H 0.09786 0.45797 0.87399 0.0
H1409 H 0.13381 0.44933 0.83511 0.0
H1410 H 0.15636 0.45129 0.85527 0.0
H1411 H 0.16549 0.45089 0.8842 0.0
H1412 H 0.12988 0.4584 0.92354 0.0
H1413 H 0.10771 0.46192 0.90294 0.0
C1414 C 0.11065 0.45678 0.8699 0.0
C1415 C 0.1141 0.45304 0.85312 0.0
C1416 C 0.12364 0.45763 0.88165 0.0
C1417 C 0.13076 0.45172 0.848 0.0
C1418 C 0.14369 0.45289 0.85951 0.0
C1419 C 0.15295 0.45375 0.88828 0.0
C1420 C 0.14932 0.45417 0.90539 0.0
C1421 C 0.14023 0.45516 0.87643 0.0
C1422 C 0.13305 0.45806 0.91046 0.0
C1423 C 0.12031 0.45984 0.89867 0.0
H1424 H 0.79201 0.3453 0.1301 0.0
H1425 H 0.8005 0.38384 0.09373 0.0
H1426 H 0.79943 0.40494 0.11545 0.0
H1427 H 0.80119 0.41177 0.14491 0.0
H1428 H 0.79481 0.37334 0.18175 0.0
H1429 H 0.78931 0.353 0.15977 0.0
C1430 C 0.79319 0.35835 0.12691 0.0
C1431 C 0.79669 0.36298 0.1104 0.0
C1432 C 0.79303 0.37044 0.13957 0.0
C1433 C 0.79814 0.37994 0.10641 0.0
C1434 C 0.79751 0.39202 0.11881 0.0
C1435 C 0.79817 0.39903 0.14816 0.0
C1436 C 0.79874 0.394 0.1649 0.0
C1437 C 0.79575 0.38733 0.13549 0.0
C1438 C 0.79451 0.37753 0.16895 0.0
C1439 C 0.79157 0.36584 0.15636 0.0
H1440 H 0.87203 0.05149 0.34672 0.0
H1441 H 0.91457 0.04312 0.37839 0.0
H1442 H 0.89672 0.04382 0.4029 0.0
H1443 H 0.86961 0.05035 0.41552 0.0
H1444 H 0.82722 0.05895 0.38375 0.0
H1445 H 0.84434 0.05431 0.3592 0.0
C1446 C 0.87738 0.04966 0.35897 0.0
C1447 C 0.89466 0.04755 0.36071 0.0
C1448 C 0.86706 0.05013 0.37305 0.0
C1449 C 0.90133 0.04487 0.37667 0.0
C1450 C 0.89113 0.0453 0.39073 0.0
C1451 C 0.86401 0.05072 0.40325 0.0
C1452 C 0.8472 0.05523 0.40149 0.0
C1453 C 0.87404 0.04838 0.38911 0.0
C1454 C 0.84018 0.05572 0.38546 0.0
C1455 C 0.84998 0.05314 0.37138 0.0
H1456 H 0.20703 0.15176 0.63539 0.0
H1457 H 0.19529 0.11697 0.59616 0.0
H1458 H 0.19516 0.09419 0.6161 0.0
H1459 H 0.19406 0.08496 0.6449 0.0
H1460 H 0.20389 0.11971 0.68461 0.0
H1461 H 0.20972 0.14152 0.66423 0.0
C1462 C 0.20476 0.13914 0.63117 0.0
C1463 C 0.20079 0.13613 0.61438 0.0
C1464 C 0.20434 0.12608 0.6428 0.0
C1465 C 0.198 0.11969 0.60908 0.0
C1466 C 0.19798 0.10663 0.62046 0.0
C1467 C 0.19782 0.09721 0.64913 0.0
C1468 C 0.1982 0.10078 0.66625 0.0
C1469 C 0.20046 0.1098 0.63741 0.0
C1470 C 0.20343 0.11662 0.67151 0.0
C1471 C 0.20657 0.12916 0.65985 0.0
H1472 H 0.07921 0.13607 0.54745 0.0
H1473 H 0.11243 0.17811 0.55014 0.0
H1474 H 0.13617 0.15999 0.54504 0.0
H1475 H 0.14779 0.13183 0.54511 0.0
H1476 H 0.11501 0.08949 0.54296 0.0
H1477 H 0.09083 0.10802 0.54234 0.0
C1478 C 0.09157 0.14133 0.54629 0.0
C1479 C 0.09408 0.15837 0.54941 0.0
C1480 C 0.1053 0.13071 0.54383 0.0
C1481 C 0.1102 0.165 0.54796 0.0
C1482 C 0.1238 0.15462 0.54516 0.0
C1483 C 0.13535 0.12669 0.54417 0.0
C1484 C 0.13312 0.10937 0.54441 0.0
C1485 C 0.12157 0.13739 0.54396 0.0
C1486 C 0.117 0.10281 0.54287 0.0
C1487 C 0.10318 0.11341 0.54261 0.0
H1488 H 0.12084 0.34068 0.80006 0.0
H1489 H 0.0764 0.3707 0.80202 0.0
H1490 H 0.09297 0.39595 0.79999 0.0
H1491 H 0.12018 0.40955 0.80232 0.0
H1492 H 0.16479 0.37982 0.80034 0.0
H1493 H 0.14814 0.35455 0.79758 0.0
C1494 C 0.11477 0.35271 0.79941 0.0
C1495 C 0.09743 0.35378 0.80141 0.0
C1496 C 0.12444 0.36731 0.79864 0.0
C1497 C 0.08975 0.36952 0.80066 0.0
C1498 C 0.09922 0.384 0.79964 0.0
C1499 C 0.12624 0.39755 0.80103 0.0
C1500 C 0.14366 0.39653 0.80185 0.0
C1501 C 0.1166 0.38306 0.79943 0.0
C1502 C 0.15138 0.38094 0.79984 0.0
C1503 C 0.14186 0.36646 0.79832 0.0
H1504 H 0.88547 0.40316 0.04072 0.0
H1505 H 0.84827 0.36604 0.05168 0.0
H1506 H 0.86955 0.34455 0.0524 0.0
H1507 H 0.89886 0.33698 0.05396 0.0
H1508 H 0.93652 0.37391 0.04427 0.0
H1509 H 0.91495 0.39457 0.03847 0.0
C1510 C 0.882 0.39032 0.04295 0.0
C1511 C 0.86533 0.38632 0.04652 0.0
C1512 C 0.8944 0.37795 0.04362 0.0
C1513 C 0.86104 0.36957 0.04926 0.0
C1514 C 0.8732 0.35723 0.04963 0.0
C1515 C 0.9024 0.34945 0.05024 0.0
C1516 C 0.9193 0.35393 0.04985 0.0
C1517 C 0.88997 0.36138 0.04746 0.0
C1518 C 0.92362 0.37009 0.04473 0.0
C1519 C 0.91127 0.38199 0.04158 0.0
H1520 H 0.88534 0.09936 0.29701 0.0
H1521 H 0.83994 0.12777 0.29397 0.0
H1522 H 0.8559 0.15365 0.29342 0.0
H1523 H 0.88258 0.16818 0.29808 0.0
H1524 H 0.92778 0.13941 0.30134 0.0
H1525 H 0.91215 0.11382 0.29712 0.0
C1526 C 0.87895 0.11121 0.29598 0.0
C1527 C 0.86148 0.11165 0.29583 0.0
C1528 C 0.8882 0.12603 0.29571 0.0
C1529 C 0.85339 0.12708 0.29418 0.0
C1530 C 0.86251 0.14191 0.29393 0.0
C1531 C 0.88907 0.15638 0.29727 0.0
C1532 C 0.90631 0.15572 0.30023 0.0
C1533 C 0.87991 0.14156 0.29524 0.0
C1534 C 0.9145 0.14027 0.29925 0.0
C1535 C 0.90556 0.12559 0.29695 0.0
H1536 H 0.08876 0.86385 0.45221 0.0
H1537 H 0.12057 0.82113 0.44548 0.0
H1538 H 0.14511 0.83879 0.44752 0.0
H1539 H 0.15739 0.86678 0.44702 0.0
H1540 H 0.12559 0.90956 0.45356 0.0
H1541 H 0.10135 0.89151 0.45574 0.0
C1542 C 0.10106 0.85834 0.45169 0.0
C1543 C 0.10278 0.84123 0.44849 0.0
C1544 C 0.11518 0.86864 0.45239 0.0
C1545 C 0.11886 0.8343 0.44777 0.0
C1546 C 0.13293 0.8444 0.44879 0.0
C1547 C 0.14517 0.87213 0.44907 0.0
C1548 C 0.14329 0.8895 0.4498 0.0
C1549 C 0.13122 0.86167 0.45034 0.0
C1550 C 0.12741 0.89622 0.45281 0.0
C1551 C 0.1135 0.88591 0.45405 0.0
H1552 H 0.38406 0.40587 0.70304 0.0
H1553 H 0.34309 0.37299 0.71362 0.0
H1554 H 0.362 0.3492 0.71433 0.0
H1555 H 0.38951 0.33734 0.70764 0.0
H1556 H 0.43045 0.37055 0.69757 0.0
H1557 H 0.41237 0.3945 0.70143 0.0
C1558 C 0.37935 0.39352 0.70577 0.0
C1559 C 0.36221 0.39113 0.70797 0.0
C1560 C 0.3903 0.3799 0.70624 0.0
C1561 C 0.35626 0.37514 0.71181 0.0
C1562 C 0.36706 0.3615 0.71216 0.0
C1563 C 0.39461 0.34981 0.70687 0.0
C1564 C 0.41123 0.35209 0.70198 0.0
C1565 C 0.38403 0.36365 0.70883 0.0
C1566 C 0.41762 0.36839 0.70106 0.0
C1567 C 0.40726 0.38215 0.70316 0.0
H1568 H 0.87517 0.59464 0.95697 0.0
H1569 H 0.83931 0.63347 0.94734 0.0
H1570 H 0.86114 0.65437 0.94909 0.0
H1571 H 0.89067 0.66115 0.94901 0.0
H1572 H 0.92713 0.62255 0.95665 0.0
H1573 H 0.90484 0.60217 0.96068 0.0
C1574 C 0.8721 0.6077 0.9556 0.0
C1575 C 0.85566 0.61244 0.9517 0.0
C1576 C 0.88485 0.61972 0.95625 0.0
C1577 C 0.85189 0.62944 0.95002 0.0
C1578 C 0.86437 0.64143 0.95106 0.0
C1579 C 0.89377 0.64835 0.95197 0.0
C1580 C 0.91055 0.64334 0.95229 0.0
C1581 C 0.88095 0.63664 0.95353 0.0
C1582 C 0.91434 0.62676 0.95636 0.0
C1583 C 0.90157 0.61506 0.95844 0.0
H1584 H 0.61577 0.16547 0.2058 0.0
H1585 H 0.57408 0.13465 0.19182 0.0
H1586 H 0.59115 0.10982 0.19465 0.0
H1587 H 0.61888 0.09719 0.19703 0.0
H1588 H 0.66059 0.12784 0.21119 0.0
H1589 H 0.64256 0.15221 0.2125 0.0
C1590 C 0.61027 0.15331 0.20386 0.0
C1591 C 0.59372 0.15204 0.1983 0.0
C1592 C 0.62026 0.13898 0.20522 0.0
C1593 C 0.58684 0.13609 0.19588 0.0
C1594 C 0.59663 0.12183 0.1974 0.0
C1595 C 0.62397 0.10916 0.20063 0.0
C1596 C 0.64111 0.11071 0.20371 0.0
C1597 C 0.61353 0.12318 0.20136 0.0
C1598 C 0.64746 0.12627 0.20865 0.0
C1599 C 0.63715 0.14026 0.20936 0.0
H1600 H 0.54919 0.08358 0.13114 0.0
H1601 H 0.55385 0.1136 0.17536 0.0
H1602 H 0.54914 0.13877 0.15915 0.0
H1603 H 0.54864 0.15241 0.13196 0.0
H1604 H 0.54477 0.12271 0.08744 0.0
H1605 H 0.54399 0.09734 0.10417 0.0
C1606 C 0.54852 0.09558 0.13729 0.0
C1607 C 0.55203 0.09676 0.15438 0.0
C1608 C 0.54633 0.11012 0.12777 0.0
C1609 C 0.55129 0.11241 0.16218 0.0
C1610 C 0.54874 0.12683 0.15291 0.0
C1611 C 0.54737 0.14039 0.12593 0.0
C1612 C 0.54712 0.13942 0.10849 0.0
C1613 C 0.54708 0.12587 0.1356 0.0
C1614 C 0.54511 0.1238 0.10086 0.0
C1615 C 0.54473 0.10927 0.11042 0.0
H1616 H 0.04866 0.86909 0.4053 0.0
H1617 H 0.05643 0.83073 0.36856 0.0
H1618 H 0.05444 0.85136 0.3464 0.0
H1619 H 0.05525 0.88051 0.33789 0.0
H1620 H 0.04853 0.91924 0.37438 0.0
H1621 H 0.04488 0.89823 0.39612 0.0
C1622 C 0.04966 0.8652 0.39243 0.0
C1623 C 0.05321 0.84844 0.38861 0.0
C1624 C 0.04879 0.8772 0.3797 0.0
C1625 C 0.05424 0.8436 0.37185 0.0
C1626 C 0.05305 0.85537 0.35917 0.0
C1627 C 0.05252 0.88436 0.35053 0.0
C1628 C 0.05238 0.9014 0.35455 0.0
C1629 C 0.05104 0.87226 0.363 0.0
C1630 C 0.04865 0.90621 0.37093 0.0
C1631 C 0.0468 0.89418 0.38342 0.0
H1632 H 0.36376 0.3095 0.59202 0.0
H1633 H 0.32827 0.29794 0.63047 0.0
H1634 H 0.35097 0.29417 0.65044 0.0
H1635 H 0.3806 0.29855 0.65783 0.0
H1636 H 0.41552 0.3112 0.61907 0.0
H1637 H 0.39339 0.31013 0.59847 0.0
C1638 C 0.36098 0.3058 0.60469 0.0
C1639 C 0.34431 0.30423 0.60978 0.0
C1640 C 0.37402 0.30416 0.61617 0.0
C1641 C 0.34097 0.29921 0.62618 0.0
C1642 C 0.35396 0.29724 0.63767 0.0
C1643 C 0.38342 0.30077 0.64483 0.0
C1644 C 0.39967 0.30532 0.64011 0.0
C1645 C 0.3705 0.30037 0.63296 0.0
C1646 C 0.40309 0.30802 0.62316 0.0
C1647 C 0.39043 0.30737 0.61132 0.0
H1648 H 0.95003 0.64961 0.86886 0.0
H1649 H 0.96176 0.61798 0.91058 0.0
H1650 H 0.96288 0.5938 0.89225 0.0
H1651 H 0.9559 0.58109 0.86522 0.0
H1652 H 0.94382 0.61284 0.82369 0.0
H1653 H 0.94792 0.63743 0.84093 0.0
C1654 C 0.95309 0.63746 0.87389 0.0
C1655 C 0.95546 0.63557 0.89111 0.0
C1656 C 0.95364 0.62356 0.86329 0.0
C1657 C 0.95975 0.6198 0.89739 0.0
C1658 C 0.96035 0.60592 0.88691 0.0
C1659 C 0.95479 0.59339 0.85979 0.0
C1660 C 0.94934 0.5951 0.84325 0.0
C1661 C 0.95671 0.60755 0.86994 0.0
C1662 C 0.94786 0.61116 0.83644 0.0
C1663 C 0.95006 0.62526 0.84633 0.0
H1664 H 0.1649 0.70127 0.12092 0.0
H1665 H 0.13449 0.69508 0.07717 0.0
H1666 H 0.10937 0.69794 0.09384 0.0
H1667 H 0.09609 0.69785 0.12136 0.0
H1668 H 0.12641 0.70423 0.16518 0.0
H1669 H 0.15137 0.7057 0.14804 0.0
C1670 C 0.1528 0.70114 0.11497 0.0
C1671 C 0.15158 0.69773 0.09787 0.0
C1672 C 0.13832 0.70241 0.12472 0.0
C1673 C 0.13576 0.6975 0.09035 0.0
C1674 C 0.12136 0.699 0.0999 0.0
C1675 C 0.10815 0.69976 0.12712 0.0
C1676 C 0.10941 0.70063 0.14452 0.0
C1677 C 0.12249 0.70068 0.11718 0.0
C1678 C 0.12508 0.70342 0.1518 0.0
C1679 C 0.1394 0.70424 0.14201 0.0
H1680 H 0.4404 0.89015 0.16534 0.0
H1681 H 0.4596 0.92655 0.13089 0.0
H1682 H 0.46406 0.90468 0.11023 0.0
H1683 H 0.45841 0.87607 0.10056 0.0
H1684 H 0.43747 0.84039 0.13476 0.0
H1685 H 0.43775 0.86117 0.15684 0.0
C1686 C 0.44585 0.89334 0.15344 0.0
C1687 C 0.44938 0.91009 0.14963 0.0
C1688 C 0.44778 0.88083 0.14141 0.0
C1689 C 0.45668 0.91382 0.13419 0.0
C1690 C 0.45909 0.90132 0.12229 0.0
C1691 C 0.45419 0.87275 0.11292 0.0
C1692 C 0.44765 0.85675 0.11589 0.0
C1693 C 0.45404 0.88491 0.12553 0.0
C1694 C 0.44229 0.85267 0.13202 0.0
C1695 C 0.44247 0.86455 0.14468 0.0
H1696 H 0.36547 0.19311 0.91292 0.0
H1697 H 0.32736 0.20935 0.87873 0.0
H1698 H 0.34846 0.21431 0.85745 0.0
H1699 H 0.37719 0.21009 0.84734 0.0
H1700 H 0.4147 0.19237 0.88147 0.0
H1701 H 0.39438 0.19195 0.9039 0.0
C1702 C 0.36173 0.19802 0.90092 0.0
C1703 C 0.34475 0.20059 0.89742 0.0
C1704 C 0.37385 0.20033 0.88859 0.0
C1705 C 0.34029 0.20718 0.88183 0.0
C1706 C 0.35236 0.20989 0.86958 0.0
C1707 C 0.38099 0.20645 0.85976 0.0
C1708 C 0.39741 0.20101 0.86262 0.0
C1709 C 0.3691 0.2059 0.87261 0.0
C1710 C 0.4021 0.19635 0.87881 0.0
C1711 C 0.39048 0.19612 0.89168 0.0
H1712 H 0.66846 0.29772 0.38806 0.0
H1713 H 0.63545 0.31049 0.42841 0.0
H1714 H 0.61147 0.30641 0.41037 0.0
H1715 H 0.60015 0.30353 0.38226 0.0
H1716 H 0.63291 0.29148 0.34155 0.0
H1717 H 0.65659 0.29069 0.36063 0.0
C1718 C 0.65602 0.29912 0.39305 0.0
C1719 C 0.65382 0.30465 0.40952 0.0
C1720 C 0.6422 0.29715 0.38245 0.0
C1721 C 0.63755 0.30644 0.41573 0.0
C1722 C 0.6238 0.30418 0.4054 0.0
C1723 C 0.61244 0.30049 0.37759 0.0
C1724 C 0.61481 0.2979 0.36046 0.0
C1725 C 0.62601 0.30027 0.38858 0.0
C1726 C 0.63074 0.29362 0.35466 0.0
C1727 C 0.64432 0.29325 0.36557 0.0
H1728 H 0.09502 0.04089 0.62221 0.0
H1729 H 0.13155 0.05181 0.66004 0.0
H1730 H 0.15356 0.05111 0.63931 0.0
H1731 H 0.16167 0.05236 0.6101 0.0
H1732 H 0.12534 0.04302 0.57178 0.0
H1733 H 0.10422 0.03753 0.59299 0.0
C1734 C 0.10785 0.04268 0.62597 0.0
C1735 C 0.11156 0.04676 0.64261 0.0
C1736 C 0.12051 0.04263 0.61385 0.0
C1737 C 0.12828 0.04899 0.64727 0.0
C1738 C 0.14091 0.04857 0.63542 0.0
C1739 C 0.14925 0.04865 0.60637 0.0
C1740 C 0.14504 0.04835 0.58938 0.0
C1741 C 0.13707 0.04616 0.61859 0.0
C1742 C 0.12894 0.04332 0.58476 0.0
C1743 C 0.11679 0.0404 0.59691 0.0
H1744 H 0.69608 0.9163 0.86747 0.0
H1745 H 0.70814 0.88018 0.82963 0.0
H1746 H 0.71281 0.85912 0.85107 0.0
H1747 H 0.70848 0.84989 0.88001 0.0
H1748 H 0.695 0.88598 0.91739 0.0
H1749 H 0.69579 0.90809 0.89667 0.0
C1750 C 0.7001 0.90392 0.86389 0.0
C1751 C 0.70144 0.89975 0.84694 0.0
C1752 C 0.70212 0.89175 0.8762 0.0
C1753 C 0.70696 0.88374 0.84257 0.0
C1754 C 0.70944 0.87162 0.85483 0.0
C1755 C 0.70603 0.86264 0.88368 0.0
C1756 C 0.70121 0.86622 0.90014 0.0
C1757 C 0.70626 0.87529 0.87161 0.0
C1758 C 0.69825 0.88283 0.90472 0.0
C1759 C 0.69878 0.8955 0.89289 0.0
H1760 H 0.8389 0.44048 0.11024 0.0
H1761 H 0.8745 0.45887 0.07456 0.0
H1762 H 0.89418 0.46453 0.09704 0.0
H1763 H 0.90279 0.46007 0.12618 0.0
H1764 H 0.86752 0.43987 0.16122 0.0
H1765 H 0.84627 0.43907 0.13961 0.0
C1766 C 0.85084 0.44601 0.10733 0.0
C1767 C 0.85527 0.44896 0.09063 0.0
C1768 C 0.86232 0.44862 0.12022 0.0
C1769 C 0.87072 0.4564 0.08724 0.0
C1770 C 0.88207 0.45949 0.10011 0.0
C1771 C 0.89037 0.45578 0.12917 0.0
C1772 C 0.88686 0.44976 0.14525 0.0
C1773 C 0.87826 0.45499 0.11655 0.0
C1774 C 0.87067 0.4443 0.14889 0.0
C1775 C 0.85848 0.44386 0.13654 0.0
H1776 H 0.2945 0.65468 0.37658 0.0
H1777 H 0.3133 0.61821 0.41128 0.0
H1778 H 0.31358 0.59726 0.38942 0.0
H1779 H 0.31188 0.5902 0.35999 0.0
H1780 H 0.29446 0.62665 0.32465 0.0
H1781 H 0.28971 0.64645 0.34729 0.0
C1782 C 0.29841 0.64209 0.37942 0.0
C1783 C 0.30418 0.63817 0.39553 0.0
C1784 C 0.29879 0.63005 0.36667 0.0
C1785 C 0.3091 0.62172 0.39897 0.0
C1786 C 0.30922 0.60968 0.38647 0.0
C1787 C 0.30673 0.60236 0.35721 0.0
C1788 C 0.30376 0.60697 0.34056 0.0
C1789 C 0.3046 0.61385 0.37019 0.0
C1790 C 0.29687 0.62272 0.33731 0.0
C1791 C 0.29433 0.63414 0.35026 0.0
H1792 H 0.13448 0.94502 0.34723 0.0
H1793 H 0.09113 0.95439 0.37737 0.0
H1794 H 0.10865 0.95772 0.40195 0.0
H1795 H 0.13578 0.95321 0.41554 0.0
H1796 H 0.17902 0.9439 0.38521 0.0
H1797 H 0.16216 0.94578 0.36012 0.0
C1798 C 0.12891 0.94808 0.35913 0.0
C1799 C 0.11153 0.94912 0.36053 0.0
C1800 C 0.13905 0.94996 0.37324 0.0
C1801 C 0.10449 0.95342 0.37596 0.0
C1802 C 0.1145 0.95527 0.39006 0.0
C1803 C 0.14162 0.95223 0.40343 0.0
C1804 C 0.15858 0.94809 0.40229 0.0
C1805 C 0.13175 0.95294 0.38897 0.0
C1806 C 0.16593 0.94685 0.38645 0.0
C1807 C 0.15628 0.94779 0.37207 0.0
H1808 H 0.80594 0.91794 0.64133 0.0
H1809 H 0.79332 0.88158 0.67865 0.0
H1810 H 0.78755 0.86106 0.65688 0.0
H1811 H 0.79062 0.8523 0.62749 0.0
H1812 H 0.80441 0.88893 0.5907 0.0
H1813 H 0.80523 0.91037 0.612 0.0
C1814 C 0.80153 0.90564 0.64472 0.0
C1815 C 0.80028 0.90125 0.6616 0.0
C1816 C 0.79881 0.89379 0.63221 0.0
C1817 C 0.79436 0.88533 0.66575 0.0
C1818 C 0.79127 0.87351 0.6533 0.0
C1819 C 0.79353 0.86503 0.62409 0.0
C1820 C 0.79784 0.86886 0.60754 0.0
C1821 C 0.79417 0.8774 0.63651 0.0
C1822 C 0.80141 0.88548 0.60337 0.0
C1823 C 0.80183 0.89782 0.61554 0.0
H1824 H 0.86907 0.54607 0.84969 0.0
H1825 H 0.91328 0.54665 0.88005 0.0
H1826 H 0.89627 0.54556 0.90522 0.0
H1827 H 0.86875 0.54904 0.91842 0.0
H1828 H 0.82477 0.54892 0.88769 0.0
H1829 H 0.8417 0.54474 0.86294 0.0
C1830 C 0.87497 0.54571 0.86182 0.0
C1831 C 0.89235 0.54679 0.86304 0.0
C1832 C 0.86513 0.54513 0.87621 0.0
C1833 C 0.89988 0.54595 0.8788 0.0
C1834 C 0.89016 0.54537 0.89321 0.0
C1835 C 0.86286 0.54744 0.90639 0.0
C1836 C 0.84556 0.54947 0.90486 0.0
C1837 C 0.87275 0.54555 0.89207 0.0
C1838 C 0.83809 0.54752 0.88916 0.0
C1839 C 0.84777 0.54528 0.87497 0.0
H1840 H 0.20251 0.61523 0.16673 0.0
H1841 H 0.18819 0.57271 0.13727 0.0
H1842 H 0.19109 0.58897 0.11189 0.0
H1843 H 0.19331 0.61634 0.09847 0.0
H1844 H 0.20721 0.65903 0.12795 0.0
H1845 H 0.20898 0.64166 0.1527 0.0
C1846 C 0.20061 0.60937 0.15473 0.0
C1847 C 0.19496 0.59284 0.15395 0.0
C1848 C 0.20183 0.61895 0.14012 0.0
C1849 C 0.19243 0.58547 0.13825 0.0
C1850 C 0.19394 0.5948 0.1237 0.0
C1851 C 0.19694 0.62181 0.11027 0.0
C1852 C 0.19978 0.63904 0.11135 0.0
C1853 C 0.19788 0.61175 0.12455 0.0
C1854 C 0.20479 0.64584 0.12671 0.0
C1855 C 0.20579 0.63591 0.14093 0.0
H1856 H 0.08481 0.63684 0.04876 0.0
H1857 H 0.1162 0.67958 0.05677 0.0
H1858 H 0.14094 0.66233 0.05375 0.0
H1859 H 0.1535 0.63444 0.05338 0.0
H1860 H 0.12223 0.59162 0.0452 0.0
H1861 H 0.09776 0.6095 0.04361 0.0
C1862 C 0.09706 0.64247 0.04921 0.0
C1863 C 0.09865 0.65941 0.05323 0.0
C1864 C 0.11131 0.63237 0.04785 0.0
C1865 C 0.11464 0.66651 0.05388 0.0
C1866 C 0.12882 0.65663 0.05229 0.0
C1867 C 0.14135 0.62906 0.05104 0.0
C1868 C 0.13966 0.61171 0.04975 0.0
C1869 C 0.12729 0.63942 0.05008 0.0
C1870 C 0.12388 0.60494 0.04637 0.0
C1871 C 0.10984 0.61516 0.04548 0.0
H1872 H 0.11847 0.90143 0.3029 0.0
H1873 H 0.16068 0.86918 0.2951 0.0
H1874 H 0.14231 0.84511 0.29342 0.0
H1875 H 0.11477 0.83278 0.29863 0.0
H1876 H 0.07279 0.86508 0.30715 0.0
H1877 H 0.09042 0.88947 0.30361 0.0
C1878 C 0.12363 0.88916 0.30062 0.0
C1879 C 0.14096 0.88708 0.2995 0.0
C1880 C 0.11301 0.87532 0.29976 0.0
C1881 C 0.14741 0.87114 0.29618 0.0
C1882 C 0.1369 0.85733 0.29524 0.0
C1883 C 0.10938 0.84515 0.29906 0.0
C1884 C 0.09254 0.8471 0.30329 0.0
C1885 C 0.11973 0.85918 0.29758 0.0
C1886 C 0.08576 0.86324 0.30399 0.0
C1887 C 0.09586 0.87722 0.30213 0.0
H1888 H 0.89096 0.83871 0.5406 0.0
H1889 H 0.92969 0.87572 0.54021 0.0
H1890 H 0.90909 0.89744 0.53448 0.0
H1891 H 0.87955 0.90632 0.53565 0.0
H1892 H 0.84116 0.86894 0.53839 0.0
H1893 H 0.86204 0.84701 0.53707 0.0
C1894 C 0.89495 0.85147 0.53873 0.0
C1895 C 0.91176 0.85565 0.54107 0.0
C1896 C 0.88299 0.8639 0.53626 0.0
C1897 C 0.91682 0.87217 0.53843 0.0
C1898 C 0.90499 0.88463 0.53541 0.0
C1899 C 0.87578 0.89338 0.53548 0.0
C1900 C 0.85888 0.88924 0.53744 0.0
C1901 C 0.88795 0.88075 0.53523 0.0
C1902 C 0.85413 0.87242 0.5372 0.0
C1903 C 0.86605 0.85987 0.53644 0.0
H1904 H 0.91379 0.64131 0.8049 0.0
H1905 H 0.878 0.6802 0.79574 0.0
H1906 H 0.85643 0.65928 0.79069 0.0
H1907 H 0.84688 0.63014 0.79385 0.0
H1908 H 0.88298 0.59179 0.80463 0.0
H1909 H 0.9052 0.61228 0.80416 0.0
C1910 C 0.90136 0.64522 0.80138 0.0
C1911 C 0.89744 0.66227 0.80093 0.0
C1912 C 0.88896 0.6332 0.79919 0.0
C1913 C 0.88136 0.66715 0.79614 0.0
C1914 C 0.86896 0.65518 0.79348 0.0
C1915 C 0.85964 0.62624 0.79579 0.0
C1916 C 0.86317 0.6095 0.79967 0.0
C1917 C 0.87245 0.63819 0.79576 0.0
C1918 C 0.87982 0.60463 0.802 0.0
C1919 C 0.89258 0.61634 0.80167 0.0
H1920 H 0.1583 0.37191 0.947 0.0
H1921 H 0.12668 0.41393 0.95772 0.0
H1922 H 0.10267 0.39551 0.96013 0.0
H1923 H 0.09002 0.36819 0.95426 0.0
H1924 H 0.1218 0.32641 0.94303 0.0
H1925 H 0.14633 0.34388 0.94619 0.0
C1926 C 0.1462 0.37699 0.95015 0.0
C1927 C 0.14421 0.39427 0.95181 0.0
C1928 C 0.13242 0.36635 0.95138 0.0
C1929 C 0.12854 0.40066 0.95624 0.0
C1930 C 0.11476 0.39014 0.95756 0.0
C1931 C 0.10232 0.36278 0.95314 0.0
C1932 C 0.10406 0.3461 0.94816 0.0
C1933 C 0.11644 0.37304 0.9545 0.0
C1934 C 0.12012 0.33928 0.94669 0.0
C1935 C 0.13418 0.34929 0.94836 0.0
H1936 H 0.41095 0.85803 0.19668 0.0
H1937 H 0.37253 0.82179 0.20581 0.0
H1938 H 0.3527 0.84417 0.21169 0.0
H1939 H 0.34531 0.87402 0.20932 0.0
H1940 H 0.38394 0.90972 0.19861 0.0
H1941 H 0.40459 0.8876 0.19824 0.0
C1942 C 0.39833 0.855 0.20034 0.0
C1943 C 0.39315 0.83829 0.20055 0.0
C1944 C 0.38692 0.86788 0.20307 0.0
C1945 C 0.37684 0.83455 0.20556 0.0
C1946 C 0.36544 0.84736 0.20872 0.0
C1947 C 0.35829 0.87697 0.20726 0.0
C1948 C 0.363 0.89345 0.20363 0.0
C1949 C 0.37016 0.86408 0.20675 0.0
C1950 C 0.37991 0.8971 0.20108 0.0
C1951 C 0.39176 0.88446 0.20091 0.0
H1952 H 0.89388 0.16488 0.43904 0.0
H1953 H 0.9294 0.12781 0.45475 0.0
H1954 H 0.90676 0.10821 0.46003 0.0
H1955 H 0.87741 0.10029 0.45573 0.0
H1956 H 0.84241 0.13736 0.43865 0.0
H1957 H 0.86434 0.15819 0.43832 0.0
C1958 C 0.89669 0.15263 0.44396 0.0
C1959 C 0.91335 0.14774 0.44622 0.0
C1960 C 0.8837 0.14127 0.44639 0.0
C1961 C 0.91671 0.13191 0.45286 0.0
C1962 C 0.90376 0.12062 0.4557 0.0
C1963 C 0.87451 0.11298 0.4522 0.0
C1964 C 0.85832 0.11711 0.44685 0.0
C1965 C 0.88728 0.12494 0.45179 0.0
C1966 C 0.85479 0.1337 0.4425 0.0
C1967 C 0.86733 0.14567 0.44234 0.0
H1968 H 0.65609 0.62646 0.7088 0.0
H1969 H 0.61827 0.59 0.69757 0.0
H1970 H 0.59678 0.61111 0.70042 0.0
H1971 H 0.58916 0.64044 0.70158 0.0
H1972 H 0.62667 0.67757 0.71097 0.0
H1973 H 0.64768 0.65569 0.71403 0.0
C1974 C 0.64312 0.62309 0.70732 0.0
C1975 C 0.63885 0.60673 0.70261 0.0
C1976 C 0.63073 0.63544 0.70864 0.0
C1977 C 0.62196 0.60255 0.70084 0.0
C1978 C 0.60962 0.61462 0.70252 0.0
C1979 C 0.60186 0.64374 0.70475 0.0
C1980 C 0.60638 0.66061 0.70582 0.0
C1981 C 0.61393 0.63119 0.70575 0.0
C1982 C 0.62283 0.66468 0.71013 0.0
C1983 C 0.6349 0.65217 0.71163 0.0
H1984 H 0.55703 0.61965 0.66568 0.0
H1985 H 0.54489 0.58282 0.62862 0.0
H1986 H 0.54143 0.60481 0.60779 0.0
H1987 H 0.54656 0.63404 0.59925 0.0
H1988 H 0.56028 0.67015 0.63661 0.0
H1989 H 0.55851 0.64894 0.65808 0.0
C1990 C 0.55322 0.61644 0.65313 0.0
C1991 C 0.55142 0.5996 0.64867 0.0
C1992 C 0.55193 0.62903 0.64115 0.0
C1993 C 0.5463 0.59567 0.63242 0.0
C1994 C 0.54455 0.60825 0.62045 0.0
C1995 C 0.54885 0.63732 0.61213 0.0
C1996 C 0.55389 0.65362 0.61622 0.0
C1997 C 0.54807 0.62491 0.6245 0.0
C1998 C 0.55672 0.65766 0.63301 0.0
C1999 C 0.55566 0.64553 0.64535 0.0
H2000 H 0.05301 0.3493 0.8687 0.0
H2001 H 0.0511 0.3793 0.91313 0.0
H2002 H 0.04826 0.40446 0.89632 0.0
H2003 H 0.05068 0.41816 0.86894 0.0
H2004 H 0.05269 0.38788 0.82467 0.0
H2005 H 0.05067 0.36272 0.84141 0.0
C2006 C 0.05173 0.36133 0.87469 0.0
C2007 C 0.05259 0.36246 0.8921 0.0
C2008 C 0.0501 0.37575 0.86496 0.0
C2009 C 0.05058 0.37809 0.89972 0.0
C2010 C 0.049 0.39251 0.89011 0.0
C2011 C 0.05005 0.40609 0.86293 0.0
C2012 C 0.05205 0.40492 0.8456 0.0
C2013 C 0.04931 0.39156 0.8727 0.0
C2014 C 0.05132 0.38914 0.83802 0.0
C2015 C 0.05031 0.37471 0.84758 0.0
H2016 H 0.32641 0.79503 0.1172 0.0
H2017 H 0.35591 0.8073 0.07415 0.0
H2018 H 0.38135 0.80215 0.08979 0.0
H2019 H 0.39508 0.79921 0.11691 0.0
H2020 H 0.36572 0.78724 0.16014 0.0
H2021 H 0.34052 0.78703 0.14323 0.0
C2022 C 0.33838 0.79595 0.11107 0.0
C2023 C 0.33924 0.8018 0.09461 0.0
C2024 C 0.35306 0.79342 0.1203 0.0
C2025 C 0.35489 0.803 0.08688 0.0
C2026 C 0.36948 0.80019 0.09585 0.0
C2027 C 0.3832 0.79626 0.12257 0.0
C2028 C 0.38226 0.79359 0.13981 0.0
C2029 C 0.36871 0.79625 0.11279 0.0
C2030 C 0.36682 0.78947 0.1469 0.0
C2031 C 0.35235 0.7894 0.13725 0.0
H2032 H 0.96061 0.07902 0.36398 0.0
H2033 H 0.94839 0.10893 0.32112 0.0
H2034 H 0.9524 0.13423 0.3373 0.0
H2035 H 0.95475 0.1476 0.36463 0.0
H2036 H 0.96644 0.11778 0.40769 0.0
H2037 H 0.96745 0.09284 0.39043 0.0
C2038 C 0.95939 0.09106 0.35803 0.0
C2039 C 0.95395 0.09204 0.34143 0.0
C2040 C 0.96127 0.10564 0.36755 0.0
C2041 C 0.95239 0.10779 0.33394 0.0
C2042 C 0.95457 0.1223 0.34321 0.0
C2043 C 0.95775 0.13568 0.3702 0.0
C2044 C 0.96016 0.13453 0.38747 0.0
C2045 C 0.9582 0.12134 0.36022 0.0
C2046 C 0.96439 0.11903 0.39444 0.0
C2047 C 0.96492 0.10472 0.38458 0.0
H2048 H 0.12452 0.20814 0.65993 0.0
H2049 H 0.08756 0.19491 0.62327 0.0
H2050 H 0.10861 0.1954 0.60153 0.0
H2051 H 0.13789 0.19546 0.5937 0.0
H2052 H 0.17539 0.2071 0.63031 0.0
H2053 H 0.15374 0.2119 0.6511 0.0
C2054 C 0.12103 0.20572 0.64713 0.0
C2055 C 0.10455 0.20118 0.6433 0.0
C2056 C 0.13332 0.20566 0.63466 0.0
C2057 C 0.10021 0.19813 0.62662 0.0
C2058 C 0.11224 0.19843 0.61416 0.0
C2059 C 0.14137 0.19938 0.60613 0.0
C2060 C 0.15829 0.20061 0.61047 0.0
C2061 C 0.12892 0.20154 0.61814 0.0
C2062 C 0.16249 0.20598 0.62659 0.0
C2063 C 0.1501 0.20857 0.63856 0.0
H2064 H 0.45556 0.42339 0.6303 0.0
H2065 H 0.45025 0.39317 0.6743 0.0
H2066 H 0.45485 0.36807 0.65799 0.0
H2067 H 0.45502 0.35457 0.63063 0.0
H2068 H 0.46021 0.38448 0.58646 0.0
H2069 H 0.46124 0.40972 0.60337 0.0
C2070 C 0.45606 0.41137 0.63641 0.0
C2071 C 0.45228 0.41015 0.65343 0.0
C2072 C 0.45831 0.39685 0.62684 0.0
C2073 C 0.45293 0.39445 0.66116 0.0
C2074 C 0.45543 0.38004 0.65182 0.0
C2075 C 0.45672 0.36659 0.62475 0.0
C2076 C 0.45721 0.36769 0.60733 0.0
C2077 C 0.45723 0.38106 0.63454 0.0
C2078 C 0.45972 0.38331 0.59986 0.0
C2079 C 0.46022 0.39777 0.60953 0.0
H2080 H 0.33209 0.70321 0.38239 0.0
H2081 H 0.36057 0.70703 0.42769 0.0
H2082 H 0.38591 0.71147 0.41176 0.0
H2083 H 0.40061 0.70928 0.3851 0.0
H2084 H 0.37244 0.70572 0.33962 0.0
H2085 H 0.34645 0.70626 0.35538 0.0
C2086 C 0.34372 0.7057 0.38876 0.0
C2087 C 0.34446 0.70459 0.4062 0.0
C2088 C 0.35842 0.70784 0.37946 0.0
C2089 C 0.35969 0.7077 0.41427 0.0
C2090 C 0.37424 0.71008 0.40516 0.0
C2091 C 0.38876 0.70891 0.37865 0.0
C2092 C 0.38843 0.70715 0.36128 0.0
C2093 C 0.37387 0.70931 0.38777 0.0
C2094 C 0.37302 0.70699 0.35302 0.0
C2095 C 0.35814 0.70725 0.36203 0.0
H2096 H 0.63634 0.8081 0.9192 0.0
H2097 H 0.67372 0.79739 0.88225 0.0
H2098 H 0.65197 0.79361 0.86127 0.0
H2099 H 0.62271 0.79758 0.85265 0.0
H2100 H 0.58586 0.80984 0.88973 0.0
H2101 H 0.60707 0.8089 0.91136 0.0
C2102 C 0.63978 0.80462 0.90663 0.0
C2103 C 0.6567 0.80328 0.90228 0.0
C2104 C 0.62729 0.8031 0.89454 0.0
C2105 C 0.66083 0.79851 0.88598 0.0
C2106 C 0.64839 0.79654 0.87392 0.0
C2107 C 0.61927 0.79981 0.86549 0.0
C2108 C 0.60274 0.80413 0.86948 0.0
C2109 C 0.63162 0.79949 0.87792 0.0
C2110 C 0.59852 0.80684 0.88623 0.0
C2111 C 0.61063 0.80624 0.89864 0.0
H2112 H 0.63147 0.54902 0.58411 0.0
H2113 H 0.67523 0.55583 0.61441 0.0
H2114 H 0.65876 0.55226 0.63954 0.0
H2115 H 0.63131 0.5525 0.6528 0.0
H2116 H 0.58737 0.54603 0.62271 0.0
H2117 H 0.60448 0.54393 0.59774 0.0
C2118 C 0.63749 0.54907 0.59618 0.0
C2119 C 0.65449 0.55297 0.59738 0.0
C2120 C 0.62783 0.54746 0.61068 0.0
C2121 C 0.66211 0.55305 0.61315 0.0
C2122 C 0.65268 0.55113 0.62756 0.0
C2123 C 0.62552 0.55032 0.64081 0.0
C2124 C 0.6081 0.54979 0.63957 0.0
C2125 C 0.63541 0.54924 0.62648 0.0
C2126 C 0.60076 0.54662 0.62401 0.0
C2127 C 0.61054 0.54548 0.60968 0.0
H2128 H 0.20617 0.39044 0.83725 0.0
H2129 H 0.19518 0.43086 0.87082 0.0
H2130 H 0.19916 0.41252 0.89461 0.0
H2131 H 0.20072 0.38411 0.9055 0.0
H2132 H 0.2108 0.34334 0.87208 0.0
H2133 H 0.21244 0.36268 0.84871 0.0
C2134 C 0.20526 0.39536 0.84978 0.0
C2135 C 0.20018 0.41192 0.85225 0.0
C2136 C 0.20702 0.38458 0.86345 0.0
C2137 C 0.19894 0.4181 0.86858 0.0
C2138 C 0.20108 0.40759 0.8822 0.0
C2139 C 0.20353 0.37949 0.89314 0.0
C2140 C 0.20526 0.3623 0.89047 0.0
C2141 C 0.20426 0.39064 0.87974 0.0
C2142 C 0.20928 0.35652 0.87446 0.0
C2143 C 0.21016 0.36757 0.86106 0.0
H2144 H 0.33634 0.94737 0.11199 0.0
H2145 H 0.3714 0.95863 0.07304 0.0
H2146 H 0.39294 0.96404 0.09384 0.0
H2147 H 0.40283 0.96105 0.12283 0.0
H2148 H 0.36757 0.94851 0.16131 0.0
H2149 H 0.34518 0.94812 0.14097 0.0
C2150 C 0.3486 0.95134 0.10803 0.0
C2151 C 0.35231 0.95231 0.09097 0.0
C2152 C 0.36102 0.9539 0.11999 0.0
C2153 C 0.36819 0.95775 0.08608 0.0
C2154 C 0.38058 0.96067 0.09798 0.0
C2155 C 0.3902 0.95854 0.1268 0.0
C2156 C 0.38698 0.95444 0.14351 0.0
C2157 C 0.37732 0.95807 0.11494 0.0
C2158 C 0.3705 0.95135 0.14847 0.0
C2159 C 0.35764 0.95116 0.13685 0.0
H2160 H 0.79997 0.11612 0.39776 0.0
H2161 H 0.78709 0.15716 0.36563 0.0
H2162 H 0.78788 0.13876 0.34151 0.0
H2163 H 0.79683 0.11219 0.32918 0.0
H2164 H 0.81038 0.07146 0.36135 0.0
H2165 H 0.80439 0.08843 0.38577 0.0
C2166 C 0.79709 0.12099 0.38551 0.0
C2167 C 0.79385 0.13806 0.38347 0.0
C2168 C 0.79775 0.11039 0.37165 0.0
C2169 C 0.78978 0.1441 0.36756 0.0
C2170 C 0.79028 0.13359 0.35372 0.0
C2171 C 0.79791 0.10685 0.34152 0.0
C2172 C 0.80433 0.09069 0.34347 0.0
C2173 C 0.79488 0.11685 0.35554 0.0
C2174 C 0.8057 0.08396 0.35955 0.0
C2175 C 0.80237 0.09369 0.37353 0.0
H2176 H 0.64004 0.45716 0.42183 0.0
H2177 H 0.68133 0.44568 0.38956 0.0
H2178 H 0.66384 0.45009 0.36522 0.0
H2179 H 0.63595 0.45305 0.35322 0.0
H2180 H 0.59442 0.46411 0.38531 0.0
H2181 H 0.61286 0.46422 0.40945 0.0
C2182 C 0.64534 0.45614 0.40948 0.0
C2183 C 0.66193 0.45088 0.40758 0.0
C2184 C 0.63508 0.45831 0.39544 0.0
C2185 C 0.66856 0.44955 0.39143 0.0
C2186 C 0.65854 0.45197 0.37746 0.0
C2187 C 0.63096 0.4557 0.36547 0.0
C2188 C 0.61378 0.45825 0.36746 0.0
C2189 C 0.64162 0.45564 0.37933 0.0
C2190 C 0.60759 0.462 0.38339 0.0
C2191 C 0.61812 0.46201 0.39724 0.0
H2192 H 0.29196 0.34555 0.63716 0.0
H2193 H 0.29341 0.38326 0.599 0.0
H2194 H 0.29185 0.405 0.62005 0.0
H2195 H 0.29553 0.41315 0.649 0.0
H2196 H 0.29617 0.37583 0.68746 0.0
H2197 H 0.2908 0.35417 0.66673 0.0
C2198 C 0.29146 0.35851 0.63347 0.0
C2199 C 0.29316 0.36281 0.61659 0.0
C2200 C 0.29104 0.37104 0.64572 0.0
C2201 C 0.29246 0.37966 0.61195 0.0
C2202 C 0.29155 0.39211 0.62397 0.0
C2203 C 0.29399 0.40033 0.65291 0.0
C2204 C 0.29654 0.39606 0.66966 0.0
C2205 C 0.29166 0.38794 0.64088 0.0
C2206 C 0.29428 0.37945 0.67462 0.0
C2207 C 0.29144 0.36702 0.66272 0.0
H2208 H 0.40201 0.04334 0.87399 0.0
H2209 H 0.36651 0.0613 0.83782 0.0
H2210 H 0.34533 0.06328 0.85926 0.0
H2211 H 0.33775 0.06305 0.88859 0.0
H2212 H 0.37311 0.04598 0.92523 0.0
H2213 H 0.3932 0.04003 0.90323 0.0
C2214 C 0.38959 0.04747 0.87075 0.0
C2215 C 0.38604 0.0525 0.85433 0.0
C2216 C 0.37737 0.04874 0.88323 0.0
C2217 C 0.36977 0.05765 0.85038 0.0
C2218 C 0.35758 0.05875 0.86264 0.0
C2219 C 0.34974 0.05775 0.8918 0.0
C2220 C 0.35395 0.05522 0.90861 0.0
C2221 C 0.36138 0.0548 0.87917 0.0
C2222 C 0.36948 0.04811 0.91244 0.0
C2223 C 0.38107 0.04485 0.89985 0.0
H2224 H 0.71161 0.1523 0.12756 0.0
H2225 H 0.6979 0.11645 0.08994 0.0
H2226 H 0.69813 0.09435 0.11063 0.0
H2227 H 0.69792 0.08611 0.13977 0.0
H2228 H 0.70978 0.122 0.1779 0.0
H2229 H 0.71522 0.14299 0.15658 0.0
C2230 C 0.70901 0.1396 0.12383 0.0
C2231 C 0.70437 0.13611 0.10729 0.0
C2232 C 0.70881 0.12694 0.13589 0.0
C2233 C 0.70116 0.11955 0.10265 0.0
C2234 C 0.70133 0.10688 0.11447 0.0
C2235 C 0.70205 0.09843 0.14345 0.0
C2236 C 0.70311 0.10257 0.16042 0.0
C2237 C 0.70448 0.11056 0.13121 0.0
C2238 C 0.70879 0.11848 0.16493 0.0
C2239 C 0.71172 0.13056 0.15274 0.0
H2240 H 0.58264 0.13564 0.04761 0.0
H2241 H 0.61387 0.17839 0.05631 0.0
H2242 H 0.63864 0.16154 0.05161 0.0
H2243 H 0.65136 0.13398 0.04968 0.0
H2244 H 0.62042 0.09076 0.04236 0.0
H2245 H 0.59567 0.10845 0.04163 0.0
C2246 C 0.59485 0.14137 0.04787 0.0
C2247 C 0.59643 0.15821 0.05239 0.0
C2248 C 0.60912 0.13143 0.04576 0.0
C2249 C 0.61234 0.16543 0.0529 0.0
C2250 C 0.62652 0.15577 0.05035 0.0
C2251 C 0.63922 0.12843 0.04771 0.0
C2252 C 0.63771 0.11104 0.04644 0.0
C2253 C 0.62506 0.13863 0.04756 0.0
C2254 C 0.62193 0.1041 0.04352 0.0
C2255 C 0.60776 0.11421 0.04316 0.0
H2256 H 0.65584 0.37707 0.29471 0.0
H2257 H 0.61804 0.41354 0.30586 0.0
H2258 H 0.59654 0.39235 0.3032 0.0
H2259 H 0.58907 0.363 0.3025 0.0
H2260 H 0.62676 0.32582 0.29386 0.0
H2261 H 0.64756 0.34772 0.29004 0.0
C2262 C 0.64286 0.38043 0.29614 0.0
C2263 C 0.63856 0.39681 0.30075 0.0
C2264 C 0.63054 0.36801 0.29509 0.0
C2265 C 0.62169 0.40098 0.30259 0.0
C2266 C 0.60939 0.38887 0.30105 0.0
C2267 C 0.60175 0.35966 0.29935 0.0
C2268 C 0.60639 0.34278 0.29875 0.0
C2269 C 0.61374 0.37225 0.29802 0.0
C2270 C 0.62282 0.3387 0.2944 0.0
C2271 C 0.63478 0.35124 0.29245 0.0
H2272 H 0.37503 0.40619 0.54402 0.0
H2273 H 0.33906 0.36731 0.55286 0.0
H2274 H 0.36081 0.34638 0.55096 0.0
H2275 H 0.39028 0.33952 0.55142 0.0
H2276 H 0.42687 0.37802 0.5444 0.0
H2277 H 0.4047 0.39855 0.54029 0.0
C2278 C 0.37193 0.39311 0.5452 0.0
C2279 C 0.3555 0.38837 0.54898 0.0
C2280 C 0.38463 0.38104 0.54442 0.0
C2281 C 0.35166 0.37136 0.55034 0.0
C2282 C 0.36408 0.35934 0.54919 0.0
C2283 C 0.39341 0.35233 0.54851 0.0
C2284 C 0.41016 0.3573 0.54844 0.0
C2285 C 0.38066 0.3641 0.54691 0.0
C2286 C 0.41406 0.37387 0.54448 0.0
C2287 C 0.40137 0.38565 0.54238 0.0
H2288 H 0.41487 0.1411 0.79804 0.0
H2289 H 0.37772 0.17952 0.79293 0.0
H2290 H 0.35635 0.15832 0.7884 0.0
H2291 H 0.34765 0.12891 0.79094 0.0
H2292 H 0.38498 0.091 0.79843 0.0
H2293 H 0.4068 0.11196 0.79711 0.0
C2294 C 0.40216 0.14491 0.79559 0.0
C2295 C 0.39787 0.16189 0.79613 0.0
C2296 C 0.38988 0.13269 0.79379 0.0
C2297 C 0.38139 0.16656 0.79262 0.0
C2298 C 0.36912 0.15441 0.79024 0.0
C2299 C 0.36058 0.12522 0.79193 0.0
C2300 C 0.36467 0.10846 0.79507 0.0
C2301 C 0.37311 0.13744 0.79158 0.0
C2302 C 0.38148 0.10385 0.7963 0.0
C2303 C 0.39398 0.11582 0.7955 0.0
H2304 H 0.62824 0.90395 0.95909 0.0
H2305 H 0.66582 0.86813 0.94537 0.0
H2306 H 0.6454 0.84581 0.94674 0.0
H2307 H 0.61634 0.83721 0.9478 0.0
H2308 H 0.57828 0.8729 0.96033 0.0
H2309 H 0.5995 0.89438 0.96415 0.0
C2310 C 0.63202 0.89123 0.95668 0.0
C2311 C 0.64844 0.88779 0.95163 0.0
C2312 C 0.62012 0.87842 0.95733 0.0
C2313 C 0.65317 0.87119 0.94877 0.0
C2314 C 0.64151 0.8584 0.94965 0.0
C2315 C 0.6127 0.8496 0.95176 0.0
C2316 C 0.59573 0.85352 0.95351 0.0
C2317 C 0.62486 0.86197 0.9533 0.0
C2318 C 0.59124 0.86954 0.9589 0.0
C2319 C 0.60337 0.88189 0.96087 0.0
H2320 H 0.88815 0.33051 0.20563 0.0
H2321 H 0.92964 0.36272 0.1947 0.0
H2322 H 0.91224 0.3871 0.1991 0.0
H2323 H 0.88431 0.39917 0.20156 0.0
H2324 H 0.84271 0.3672 0.21262 0.0
H2325 H 0.86106 0.34298 0.21283 0.0
C2326 C 0.89352 0.34284 0.20475 0.0
C2327 C 0.91011 0.34473 0.19953 0.0
C2328 C 0.88333 0.35693 0.20698 0.0
C2329 C 0.91685 0.36087 0.19847 0.0
C2330 C 0.90688 0.37487 0.20088 0.0
C2331 C 0.87932 0.38693 0.20427 0.0
C2332 C 0.86214 0.38496 0.20675 0.0
C2333 C 0.88993 0.37303 0.20436 0.0
C2334 C 0.85589 0.36907 0.21057 0.0
C2335 C 0.86637 0.35517 0.21064 0.0
H2336 H 0.42307 0.63515 0.45838 0.0
H2337 H 0.39314 0.67792 0.44577 0.0
H2338 H 0.36791 0.6615 0.4488 0.0
H2339 H 0.35471 0.63398 0.45038 0.0
H2340 H 0.38449 0.59116 0.46307 0.0
H2341 H 0.40924 0.60859 0.46481 0.0
C2342 C 0.41102 0.64102 0.45688 0.0
C2343 C 0.41006 0.65766 0.45155 0.0
C2344 C 0.39647 0.63139 0.45828 0.0
C2345 C 0.39428 0.66506 0.44965 0.0
C2346 C 0.37981 0.65565 0.45126 0.0
C2347 C 0.36657 0.62852 0.45378 0.0
C2348 C 0.36779 0.61126 0.45627 0.0
C2349 C 0.38081 0.63862 0.45476 0.0
C2350 C 0.3832 0.60441 0.46098 0.0
C2351 C 0.39741 0.61437 0.46194 0.0
H2352 H 0.15079 0.12531 0.71442 0.0
H2353 H 0.11341 0.08787 0.70542 0.0
H2354 H 0.09167 0.10893 0.70672 0.0
H2355 H 0.0838 0.13815 0.70578 0.0
H2356 H 0.12099 0.17623 0.71226 0.0
H2357 H 0.14213 0.15484 0.71719 0.0
C2358 C 0.13785 0.12175 0.71315 0.0
C2359 C 0.13374 0.10507 0.70961 0.0
C2360 C 0.12537 0.13408 0.71337 0.0
C2361 C 0.11692 0.10064 0.70795 0.0
C2362 C 0.10447 0.11268 0.70868 0.0
C2363 C 0.09646 0.14182 0.70866 0.0
C2364 C 0.10084 0.15877 0.70836 0.0
C2365 C 0.10862 0.12949 0.7107 0.0
C2366 C 0.11725 0.16329 0.71239 0.0
C2367 C 0.1294 0.15103 0.715 0.0
H2368 H 0.04418 0.12829 0.59542 0.0
H2369 H 0.05305 0.16467 0.63394 0.0
H2370 H 0.05146 0.14304 0.65504 0.0
H2371 H 0.05175 0.11361 0.66215 0.0
H2372 H 0.04499 0.07659 0.62392 0.0
H2373 H 0.04094 0.09861 0.60323 0.0
C2374 C 0.04542 0.1315 0.60846 0.0
C2375 C 0.04902 0.14803 0.61307 0.0
C2376 C 0.04491 0.11886 0.62059 0.0
C2377 C 0.05057 0.15201 0.63003 0.0
C2378 C 0.04963 0.13964 0.64212 0.0
C2379 C 0.04904 0.11032 0.64935 0.0
C2380 C 0.04894 0.09348 0.64455 0.0
C2381 C 0.04744 0.12298 0.63749 0.0
C2382 C 0.04513 0.08945 0.62797 0.0
C2383 C 0.04303 0.10205 0.61609 0.0
H2384 H 0.54527 0.9165 0.87137 0.0
H2385 H 0.55136 0.88544 0.82808 0.0
H2386 H 0.54829 0.86055 0.84508 0.0
H2387 H 0.54915 0.84777 0.87279 0.0
H2388 H 0.5431 0.87862 0.91626 0.0
H2389 H 0.54067 0.90331 0.89872 0.0
C2390 C 0.54522 0.90431 0.86558 0.0
C2391 C 0.54879 0.90281 0.84854 0.0
C2392 C 0.54387 0.88996 0.87555 0.0
C2393 C 0.54881 0.8869 0.84122 0.0
C2394 C 0.5472 0.87264 0.85096 0.0
C2395 C 0.54698 0.85986 0.87839 0.0
C2396 C 0.54664 0.8614 0.89579 0.0
C2397 C 0.54563 0.87402 0.86824 0.0
C2398 C 0.54351 0.8771 0.90288 0.0
C2399 C 0.54218 0.89126 0.89286 0.0
H2400 H 0.87644 0.29392 0.15496 0.0
H2401 H 0.91381 0.3012 0.11713 0.0
H2402 H 0.8925 0.30114 0.09569 0.0
H2403 H 0.86325 0.30329 0.08807 0.0
H2404 H 0.82538 0.29708 0.12544 0.0
H2405 H 0.8468 0.29192 0.14649 0.0
C2406 C 0.87992 0.29514 0.14199 0.0
C2407 C 0.89667 0.29796 0.13773 0.0
C2408 C 0.86749 0.29535 0.1296 0.0
C2409 C 0.90098 0.2994 0.12084 0.0
C2410 C 0.8888 0.29933 0.10852 0.0
C2411 C 0.85965 0.3004 0.10075 0.0
C2412 C 0.84276 0.3008 0.10521 0.0
C2413 C 0.872 0.29796 0.11281 0.0
C2414 C 0.83829 0.29683 0.12164 0.0
C2415 C 0.85056 0.29408 0.13374 0.0
H2416 H 0.45415 0.65388 0.37063 0.0
H2417 H 0.46072 0.62155 0.41294 0.0
H2418 H 0.46058 0.59727 0.39465 0.0
H2419 H 0.45456 0.58508 0.36709 0.0
H2420 H 0.44742 0.61767 0.32508 0.0
H2421 H 0.45214 0.64188 0.34269 0.0
C2422 C 0.45575 0.64153 0.37584 0.0
C2423 C 0.45712 0.63954 0.39317 0.0
C2424 C 0.45555 0.62761 0.36527 0.0
C2425 C 0.45952 0.62347 0.39967 0.0
C2426 C 0.4594 0.60954 0.38921 0.0
C2427 C 0.4546 0.59744 0.3617 0.0
C2428 C 0.45048 0.59955 0.34482 0.0
C2429 C 0.4569 0.61142 0.37204 0.0
C2430 C 0.45044 0.6157 0.33806 0.0
C2431 C 0.45303 0.62958 0.34815 0.0
H2432 H 0.66866 0.70943 0.62165 0.0
H2433 H 0.63598 0.7056 0.57927 0.0
H2434 H 0.61186 0.70968 0.59711 0.0
H2435 H 0.6 0.70867 0.62517 0.0
H2436 H 0.63239 0.71202 0.66778 0.0
H2437 H 0.65659 0.714 0.64952 0.0
C2438 C 0.65631 0.71021 0.61626 0.0
C2439 C 0.65408 0.70699 0.59922 0.0
C2440 C 0.64239 0.71203 0.62671 0.0
C2441 C 0.63799 0.70791 0.5924 0.0
C2442 C 0.62416 0.71008 0.60261 0.0
C2443 C 0.61234 0.71018 0.63043 0.0
C2444 C 0.61446 0.70984 0.64776 0.0
C2445 C 0.62618 0.7112 0.61987 0.0
C2446 C 0.63045 0.71213 0.65445 0.0
C2447 C 0.64432 0.71319 0.64401 0.0
H2448 H 0.95406 0.91741 0.6305 0.0
H2449 H 0.94072 0.88695 0.67264 0.0
H2450 H 0.94376 0.86195 0.65589 0.0
H2451 H 0.9457 0.8491 0.62828 0.0
H2452 H 0.95927 0.8792 0.58606 0.0
H2453 H 0.96084 0.90383 0.60383 0.0
C2454 C 0.95233 0.90529 0.63616 0.0
C2455 C 0.94681 0.90415 0.65273 0.0
C2456 C 0.95384 0.89085 0.62635 0.0
C2457 C 0.94471 0.88828 0.65985 0.0
C2458 C 0.94636 0.87392 0.65025 0.0
C2459 C 0.94928 0.86101 0.62304 0.0
C2460 C 0.95206 0.86239 0.60585 0.0
C2461 C 0.95014 0.87512 0.63331 0.0
C2462 C 0.95699 0.87782 0.59926 0.0
C2463 C 0.95782 0.89194 0.6094 0.0
H2464 H 0.87391 0.20803 0.34674 0.0
H2465 H 0.90943 0.19188 0.38371 0.0
H2466 H 0.88765 0.19126 0.40465 0.0
H2467 H 0.85818 0.19167 0.4116 0.0
H2468 H 0.82212 0.20655 0.37473 0.0
H2469 H 0.84451 0.21186 0.35486 0.0
C2470 C 0.87694 0.20464 0.35943 0.0
C2471 C 0.89326 0.19966 0.3635 0.0
C2472 C 0.86425 0.20408 0.37148 0.0
C2473 C 0.89695 0.19545 0.38008 0.0
C2474 C 0.8845 0.19513 0.39212 0.0
C2475 C 0.85519 0.1964 0.39933 0.0
C2476 C 0.83845 0.19844 0.39461 0.0
C2477 C 0.86804 0.19887 0.38783 0.0
C2478 C 0.83487 0.20484 0.37873 0.0
C2479 C 0.84768 0.2077 0.36728 0.0
H2480 H 0.12534 0.29904 0.84671 0.0
H2481 H 0.08797 0.31062 0.88342 0.0
H2482 H 0.10865 0.30822 0.90548 0.0
H2483 H 0.1378 0.3072 0.91381 0.0
H2484 H 0.17566 0.29684 0.87728 0.0
H2485 H 0.15428 0.29385 0.85582 0.0
C2486 C 0.12167 0.3008 0.85956 0.0
C2487 C 0.1052 0.30548 0.86336 0.0
C2488 C 0.13372 0.29966 0.87223 0.0
C2489 C 0.10063 0.30749 0.8801 0.0
C2490 C 0.11244 0.30607 0.89274 0.0
C2491 C 0.14138 0.30386 0.90123 0.0
C2492 C 0.15834 0.3025 0.89712 0.0
C2493 C 0.12911 0.3028 0.88888 0.0
C2494 C 0.16272 0.29795 0.88082 0.0
C2495 C 0.15049 0.29647 0.86848 0.0
H2496 H 0.63382 0.04858 0.0823 0.0
H2497 H 0.67758 0.05742 0.11205 0.0
H2498 H 0.66153 0.05337 0.1374 0.0
H2499 H 0.63431 0.05209 0.15104 0.0
H2500 H 0.59027 0.04379 0.12153 0.0
H2501 H 0.60713 0.04266 0.09631 0.0
C2502 C 0.63995 0.04899 0.09431 0.0
C2503 C 0.65684 0.05346 0.09527 0.0
C2504 C 0.6305 0.04713 0.10894 0.0
C2505 C 0.66457 0.0541 0.11096 0.0
C2506 C 0.65536 0.05193 0.1255 0.0
C2507 C 0.62843 0.04977 0.13912 0.0
C2508 C 0.61102 0.04836 0.13816 0.0
C2509 C 0.63818 0.04925 0.12464 0.0
C2510 C 0.60364 0.04503 0.12264 0.0
C2511 C 0.61327 0.04445 0.10817 0.0
H2512 H 0.20265 0.87832 0.33638 0.0
H2513 H 0.1947 0.92234 0.36605 0.0
H2514 H 0.19669 0.90593 0.39142 0.0
H2515 H 0.19612 0.87856 0.40491 0.0
H2516 H 0.20389 0.83437 0.37546 0.0
H2517 H 0.20668 0.85131 0.35042 0.0
C2518 C 0.20196 0.8844 0.34841 0.0
C2519 C 0.19831 0.90149 0.34929 0.0
C2520 C 0.2027 0.87478 0.36303 0.0
C2521 C 0.19735 0.90916 0.36501 0.0
C2522 C 0.19835 0.89977 0.37955 0.0
C2523 C 0.19866 0.87266 0.39304 0.0
C2524 C 0.19948 0.85522 0.39201 0.0
C2525 C 0.20023 0.88247 0.37867 0.0
C2526 C 0.2031 0.84777 0.3766 0.0
C2527 C 0.20465 0.85745 0.36224 0.0
H2528 H 0.36487 0.45318 0.58301 0.0
H2529 H 0.32228 0.4462 0.6148 0.0
H2530 H 0.33963 0.45007 0.63935 0.0
H2531 H 0.36751 0.4511 0.65181 0.0
H2532 H 0.41023 0.45802 0.62018 0.0
H2533 H 0.39229 0.4586 0.59569 0.0
C2534 C 0.35929 0.4531 0.59528 0.0
C2535 C 0.34233 0.44921 0.59704 0.0
C2536 C 0.36946 0.45491 0.60945 0.0
C2537 C 0.33534 0.44903 0.61308 0.0
C2538 C 0.34528 0.45111 0.62716 0.0
C2539 C 0.37286 0.45293 0.63957 0.0
C2540 C 0.3902 0.45419 0.63782 0.0
C2541 C 0.36247 0.45328 0.62551 0.0
C2542 C 0.39692 0.4569 0.6219 0.0
C2543 C 0.38667 0.45721 0.60785 0.0
H2544 H 0.80057 0.62274 0.90191 0.0
H2545 H 0.79697 0.66727 0.87225 0.0
H2546 H 0.79513 0.65049 0.84694 0.0
H2547 H 0.79872 0.62324 0.83307 0.0
H2548 H 0.80229 0.5789 0.86309 0.0
H2549 H 0.79953 0.59544 0.8883 0.0
C2550 C 0.79914 0.62876 0.88992 0.0
C2551 C 0.79921 0.64622 0.88894 0.0
C2552 C 0.79807 0.61904 0.87542 0.0
C2553 C 0.79703 0.65384 0.87335 0.0
C2554 C 0.79603 0.64424 0.85884 0.0
C2555 C 0.79829 0.61715 0.84509 0.0
C2556 C 0.80092 0.59986 0.84616 0.0
C2557 C 0.79707 0.62683 0.85968 0.0
C2558 C 0.80044 0.5922 0.86189 0.0
C2559 C 0.79899 0.60167 0.87636 0.0
H2560 H 0.62986 0.95238 0.85073 0.0
H2561 H 0.5862 0.95329 0.88177 0.0
H2562 H 0.60365 0.95526 0.90662 0.0
H2563 H 0.63142 0.95228 0.91956 0.0
H2564 H 0.67487 0.95136 0.88815 0.0
H2565 H 0.65748 0.95428 0.86353 0.0
C2566 C 0.62418 0.95328 0.86293 0.0
C2567 C 0.6068 0.95238 0.86444 0.0
C2568 C 0.63428 0.95439 0.87714 0.0
C2569 C 0.59957 0.95387 0.88028 0.0
C2570 C 0.60955 0.95493 0.89451 0.0
C2571 C 0.6371 0.95333 0.90738 0.0
C2572 C 0.65441 0.95137 0.90571 0.0
C2573 C 0.62695 0.95463 0.89314 0.0
C2574 C 0.66156 0.95267 0.88979 0.0
C2575 C 0.65162 0.95421 0.87566 0.0
H2576 H 0.29826 0.88326 0.17341 0.0
H2577 H 0.29911 0.92724 0.14271 0.0
H2578 H 0.29314 0.91051 0.11814 0.0
H2579 H 0.29238 0.88313 0.10484 0.0
H2580 H 0.29225 0.83883 0.13504 0.0
H2581 H 0.29304 0.85587 0.16028 0.0
C2582 C 0.29653 0.88922 0.16144 0.0
C2583 C 0.29926 0.90646 0.15987 0.0
C2584 C 0.2936 0.87941 0.14719 0.0
C2585 C 0.29716 0.91399 0.14423 0.0
C2586 C 0.29387 0.90441 0.13014 0.0
C2587 C 0.29227 0.87721 0.11696 0.0
C2588 C 0.29259 0.85975 0.11807 0.0
C2589 C 0.29287 0.88706 0.13137 0.0
C2590 C 0.2921 0.85225 0.13385 0.0
C2591 C 0.29262 0.862 0.14829 0.0
H2592 H 0.34146 0.55241 0.39188 0.0
H2593 H 0.38057 0.54692 0.42815 0.0
H2594 H 0.40089 0.54302 0.40581 0.0
H2595 H 0.40805 0.54654 0.37604 0.0
H2596 H 0.36862 0.5541 0.34034 0.0
H2597 H 0.34798 0.5519 0.36234 0.0
C2598 C 0.35437 0.54992 0.39492 0.0
C2599 C 0.35955 0.55021 0.41163 0.0
C2600 C 0.36601 0.54848 0.38206 0.0
C2601 C 0.37625 0.54673 0.41539 0.0
C2602 C 0.38792 0.54474 0.40259 0.0
C2603 C 0.39492 0.54736 0.37306 0.0
C2604 C 0.38991 0.55086 0.35663 0.0
C2605 C 0.38305 0.54645 0.38588 0.0
C2606 C 0.37284 0.55179 0.35293 0.0
C2607 C 0.36101 0.55047 0.3655 0.0
H2608 H 0.70191 0.62181 0.66797 0.0
H2609 H 0.70068 0.57848 0.63632 0.0
H2610 H 0.70342 0.59598 0.61177 0.0
H2611 H 0.70128 0.62369 0.59914 0.0
H2612 H 0.70275 0.66722 0.63043 0.0
H2613 H 0.70493 0.64964 0.65516 0.0
C2614 C 0.70292 0.61618 0.65576 0.0
C2615 C 0.70089 0.59888 0.65399 0.0
C2616 C 0.70411 0.6264 0.64155 0.0
C2617 C 0.70208 0.59179 0.63802 0.0
C2618 C 0.7035 0.60179 0.62394 0.0
C2619 C 0.70237 0.62931 0.61137 0.0
C2620 C 0.70155 0.64669 0.61299 0.0
C2621 C 0.70368 0.61914 0.62552 0.0
C2622 C 0.70327 0.65385 0.62886 0.0
C2623 C 0.70446 0.64379 0.64303 0.0
H2624 H 0.65367 0.63601 0.55146 0.0
H2625 H 0.62094 0.59358 0.54922 0.0
H2626 H 0.59681 0.61198 0.54779 0.0
H2627 H 0.58492 0.64003 0.55138 0.0
H2628 H 0.6178 0.68235 0.5537 0.0
H2629 H 0.64184 0.66419 0.55037 0.0
C2630 C 0.64126 0.63082 0.55046 0.0
C2631 C 0.63908 0.61348 0.55079 0.0
C2632 C 0.62741 0.64147 0.54959 0.0
C2633 C 0.62296 0.6069 0.54911 0.0
C2634 C 0.60913 0.61742 0.54832 0.0
C2635 C 0.59729 0.64533 0.55053 0.0
C2636 C 0.59955 0.6625 0.553 0.0
C2637 C 0.61116 0.63473 0.54907 0.0
C2638 C 0.61571 0.66915 0.55197 0.0
C2639 C 0.6295 0.65875 0.55022 0.0
H2640 H 0.61484 0.83653 0.80201 0.0
H2641 H 0.57262 0.86806 0.81228 0.0
H2642 H 0.58991 0.89271 0.80929 0.0
H2643 H 0.61781 0.90511 0.80807 0.0
H2644 H 0.66004 0.87371 0.79751 0.0
H2645 H 0.64198 0.84939 0.79618 0.0
C2646 C 0.60931 0.84879 0.80308 0.0
C2647 C 0.59252 0.85038 0.8077 0.0
C2648 C 0.61941 0.86301 0.80165 0.0
C2649 C 0.58557 0.86643 0.809 0.0
C2650 C 0.59547 0.88058 0.80739 0.0
C2651 C 0.62301 0.89297 0.80527 0.0
C2652 C 0.64026 0.8912 0.80322 0.0
C2653 C 0.61255 0.87899 0.80448 0.0
C2654 C 0.64679 0.87544 0.79925 0.0
C2655 C 0.63648 0.86147 0.79853 0.0
H2656 H 0.3889 0.83957 0.04869 0.0
H2657 H 0.42757 0.87667 0.04659 0.0
H2658 H 0.40674 0.89823 0.04117 0.0
H2659 H 0.37723 0.90705 0.04243 0.0
H2660 H 0.33897 0.86969 0.0468 0.0
H2661 H 0.3599 0.84777 0.0459 0.0
C2662 C 0.39284 0.85232 0.04667 0.0
C2663 C 0.40973 0.85654 0.04837 0.0
C2664 C 0.38079 0.86468 0.04428 0.0
C2665 C 0.41465 0.87306 0.04541 0.0
C2666 C 0.4027 0.88544 0.0425 0.0
C2667 C 0.37349 0.89409 0.04274 0.0
C2668 C 0.35662 0.88998 0.04496 0.0
C2669 C 0.38568 0.8815 0.04273 0.0
C2670 C 0.35191 0.87316 0.04538 0.0
C2671 C 0.36387 0.86061 0.04485 0.0
H2672 H 0.38466 0.60473 0.30039 0.0
H2673 H 0.34329 0.63667 0.28803 0.0
H2674 H 0.36155 0.66089 0.28862 0.0
H2675 H 0.38813 0.67337 0.29731 0.0
H2676 H 0.42906 0.64134 0.31075 0.0
H2677 H 0.41225 0.61686 0.30471 0.0
C2678 C 0.37967 0.61696 0.29758 0.0
C2679 C 0.36256 0.61892 0.29456 0.0
C2680 C 0.39018 0.63088 0.29818 0.0
C2681 C 0.35638 0.6348 0.29058 0.0
C2682 C 0.36682 0.6487 0.29096 0.0
C2683 C 0.39354 0.66105 0.29835 0.0
C2684 C 0.40973 0.65917 0.30469 0.0
C2685 C 0.3836 0.64696 0.29539 0.0
C2686 C 0.41656 0.64311 0.30605 0.0
C2687 C 0.40691 0.62908 0.30271 0.0
H2688 H 0.61616 0.34055 0.45211 0.0
H2689 H 0.57777 0.37793 0.45479 0.0
H2690 H 0.59881 0.39938 0.45978 0.0
H2691 H 0.62842 0.40796 0.45845 0.0
H2692 H 0.66633 0.37012 0.45428 0.0
H2693 H 0.64523 0.3485 0.45481 0.0
C2694 C 0.61233 0.35333 0.45417 0.0
C2695 C 0.59545 0.35766 0.45281 0.0
C2696 C 0.62449 0.36561 0.45644 0.0
C2697 C 0.59069 0.37424 0.45576 0.0
C2698 C 0.60275 0.38655 0.45842 0.0
C2699 C 0.63204 0.39498 0.45803 0.0
C2700 C 0.6489 0.3907 0.45597 0.0
C2701 C 0.61974 0.38248 0.45802 0.0
C2702 C 0.65342 0.37379 0.45552 0.0
C2703 C 0.64136 0.36138 0.45586 0.0
H2704 H 0.8818 0.83246 0.70562 0.0
H2705 H 0.92537 0.86233 0.6963 0.0
H2706 H 0.90953 0.8876 0.70156 0.0
H2707 H 0.8824 0.90124 0.70379 0.0
H2708 H 0.83851 0.87168 0.71242 0.0
H2709 H 0.85537 0.84637 0.71271 0.0
C2710 C 0.88796 0.84446 0.70534 0.0
C2711 C 0.90467 0.84551 0.70033 0.0
C2712 C 0.87862 0.85906 0.70792 0.0
C2713 C 0.91246 0.86118 0.69996 0.0
C2714 C 0.90338 0.87568 0.70285 0.0
C2715 C 0.87656 0.88928 0.70603 0.0
C2716 C 0.85921 0.8883 0.70772 0.0
C2717 C 0.88629 0.87478 0.70599 0.0
C2718 C 0.85185 0.87277 0.71096 0.0
C2719 C 0.86148 0.85826 0.71105 0.0
H2720 H 0.38224 0.10008 0.95911 0.0
H2721 H 0.34589 0.13772 0.94684 0.0
H2722 H 0.36766 0.15873 0.94589 0.0
H2723 H 0.39713 0.16543 0.94412 0.0
H2724 H 0.4339 0.12773 0.95456 0.0
H2725 H 0.41184 0.10791 0.96129 0.0
C2726 C 0.37905 0.11294 0.95657 0.0
C2727 C 0.36252 0.11724 0.95266 0.0
C2728 C 0.39171 0.12496 0.95569 0.0
C2729 C 0.35857 0.13399 0.94953 0.0
C2730 C 0.371 0.14604 0.94902 0.0
C2731 C 0.40036 0.15298 0.94823 0.0
C2732 C 0.41712 0.14797 0.94851 0.0
C2733 C 0.38766 0.14152 0.9514 0.0
C2734 C 0.4211 0.13191 0.95417 0.0
C2735 C 0.40847 0.1205 0.95783 0.0
H2736 H 0.11748 0.59988 0.20591 0.0
H2737 H 0.16187 0.62995 0.20684 0.0
H2738 H 0.14502 0.65516 0.20888 0.0
H2739 H 0.11766 0.66872 0.20575 0.0
H2740 H 0.07346 0.63843 0.20401 0.0
H2741 H 0.09016 0.61335 0.20743 0.0
C2742 C 0.12346 0.61194 0.20678 0.0
C2743 C 0.14087 0.61306 0.20584 0.0
C2744 C 0.1137 0.6264 0.20785 0.0
C2745 C 0.14847 0.62874 0.20737 0.0
C2746 C 0.13884 0.64319 0.20851 0.0
C2747 C 0.11166 0.65669 0.2068 0.0
C2748 C 0.09437 0.65542 0.2045 0.0
C2749 C 0.12143 0.64221 0.20817 0.0
C2750 C 0.08677 0.63971 0.20569 0.0
C2751 C 0.09632 0.62534 0.20747 0.0
H2752 H 0.04656 0.58861 0.13382 0.0
H2753 H 0.05689 0.61802 0.17749 0.0
H2754 H 0.05411 0.64353 0.16134 0.0
H2755 H 0.05339 0.65716 0.13406 0.0
H2756 H 0.04375 0.62787 0.09013 0.0
H2757 H 0.04147 0.60279 0.10707 0.0
C2758 C 0.04757 0.60062 0.13991 0.0
C2759 C 0.05204 0.6014 0.1568 0.0
C2760 C 0.04649 0.6153 0.13039 0.0
C2761 C 0.05351 0.61708 0.16448 0.0
C2762 C 0.05208 0.63168 0.15521 0.0
C2763 C 0.05057 0.64533 0.12821 0.0
C2764 C 0.04908 0.64437 0.11081 0.0
C2765 C 0.04937 0.63091 0.13802 0.0
C2766 C 0.04509 0.62898 0.10348 0.0
C2767 C 0.04382 0.61459 0.11317 0.0
H2768 H 0.56142 0.39364 0.339 0.0
H2769 H 0.54416 0.42919 0.37535 0.0
H2770 H 0.53946 0.40664 0.3952 0.0
H2771 H 0.54499 0.37768 0.40367 0.0
H2772 H 0.5644 0.34283 0.36769 0.0
H2773 H 0.56361 0.3643 0.3463 0.0
C2774 C 0.55631 0.39649 0.35115 0.0
C2775 C 0.55347 0.41317 0.35577 0.0
C2776 C 0.55438 0.38359 0.36271 0.0
C2777 C 0.54654 0.41652 0.37146 0.0
C2778 C 0.54403 0.40362 0.38289 0.0
C2779 C 0.54875 0.37469 0.39108 0.0
C2780 C 0.55506 0.35874 0.38738 0.0
C2781 C 0.54866 0.38724 0.3789 0.0
C2782 C 0.55979 0.35507 0.37096 0.0
C2783 C 0.55931 0.36734 0.3587 0.0
H2784 H 0.89827 0.80335 0.61732 0.0
H2785 H 0.86848 0.79665 0.66139 0.0
H2786 H 0.84321 0.7965 0.64455 0.0
H2787 H 0.8294 0.80217 0.61776 0.0
H2788 H 0.85936 0.809 0.5738 0.0
H2789 H 0.88459 0.8048 0.59004 0.0
C2790 C 0.88625 0.80167 0.62321 0.0
C2791 C 0.88526 0.80033 0.64061 0.0
C2792 C 0.87174 0.80161 0.61345 0.0
C2793 C 0.86962 0.79781 0.64802 0.0
C2794 C 0.85513 0.79777 0.6384 0.0
C2795 C 0.84141 0.8022 0.61164 0.0
C2796 C 0.84245 0.80613 0.59462 0.0
C2797 C 0.85599 0.80016 0.62115 0.0
C2798 C 0.85817 0.80618 0.58692 0.0
C2799 C 0.87265 0.80389 0.59622 0.0
H2800 H 0.45253 0.14943 0.86309 0.0
H2801 H 0.46486 0.11917 0.90564 0.0
H2802 H 0.46435 0.09422 0.88835 0.0
H2803 H 0.45638 0.08065 0.86203 0.0
H2804 H 0.44425 0.11113 0.81952 0.0
H2805 H 0.44908 0.13619 0.83578 0.0
C2806 C 0.45535 0.1374 0.86852 0.0
C2807 C 0.45843 0.13616 0.88568 0.0
C2808 C 0.45503 0.12306 0.8585 0.0
C2809 C 0.46237 0.12051 0.89247 0.0
C2810 C 0.46201 0.10618 0.8826 0.0
C2811 C 0.45529 0.09275 0.85617 0.0
C2812 C 0.44964 0.09392 0.83964 0.0
C2813 C 0.45782 0.10724 0.8657 0.0
C2814 C 0.44834 0.10978 0.83228 0.0
C2815 C 0.45102 0.12419 0.8416 0.0
H2816 H 0.63872 0.1914 0.08769 0.0
H2817 H 0.67615 0.20565 0.12347 0.0
H2818 H 0.65459 0.21 0.14444 0.0
H2819 H 0.62556 0.20594 0.1536 0.0
H2820 H 0.58862 0.19074 0.11764 0.0
H2821 H 0.60958 0.19055 0.09588 0.0
C2822 C 0.6422 0.19575 0.09999 0.0
C2823 C 0.65909 0.19794 0.10403 0.0
C2824 C 0.62982 0.19777 0.1121 0.0
C2825 C 0.66327 0.20382 0.11997 0.0
C2826 C 0.65094 0.20616 0.13204 0.0
C2827 C 0.62204 0.20281 0.14097 0.0
C2828 C 0.60556 0.19801 0.13741 0.0
C2829 C 0.63424 0.20255 0.12842 0.0
C2830 C 0.60124 0.19416 0.12088 0.0
C2831 C 0.61322 0.19409 0.10836 0.0
H2832 H 0.95178 0.39185 0.16498 0.0
H2833 H 0.95866 0.43091 0.12884 0.0
H2834 H 0.96547 0.41015 0.10764 0.0
H2835 H 0.96471 0.38076 0.09841 0.0
H2836 H 0.95565 0.34216 0.13459 0.0
H2837 H 0.95438 0.36287 0.15667 0.0
C2838 C 0.95509 0.3959 0.15255 0.0
C2839 C 0.95441 0.41292 0.14846 0.0
C2840 C 0.95828 0.38391 0.14031 0.0
C2841 C 0.95903 0.41791 0.13236 0.0
C2842 C 0.96275 0.40601 0.12016 0.0
C2843 C 0.96282 0.37688 0.11118 0.0
C2844 C 0.96 0.35997 0.11481 0.0
C2845 C 0.96168 0.38895 0.12383 0.0
C2846 C 0.95757 0.35512 0.13142 0.0
C2847 C 0.95687 0.36695 0.14407 0.0
H2848 H 0.8337 0.70875 0.88372 0.0
H2849 H 0.86404 0.70329 0.92762 0.0
H2850 H 0.88913 0.70731 0.91117 0.0
H2851 H 0.90246 0.7067 0.88372 0.0
H2852 H 0.87238 0.71205 0.83965 0.0
H2853 H 0.8473 0.71392 0.85667 0.0
C2854 C 0.84576 0.70916 0.88977 0.0
C2855 C 0.84703 0.70548 0.90681 0.0
C2856 C 0.86025 0.711 0.88011 0.0
C2857 C 0.86276 0.70594 0.91447 0.0
C2858 C 0.87714 0.70807 0.90505 0.0
C2859 C 0.89043 0.70863 0.87789 0.0
C2860 C 0.88922 0.7089 0.86048 0.0
C2861 C 0.87606 0.70966 0.88775 0.0
C2862 C 0.87363 0.71171 0.85306 0.0
C2863 C 0.85925 0.7127 0.86278 0.0
H2864 H 0.16406 0.79558 0.38312 0.0
H2865 H 0.13387 0.79645 0.42737 0.0
H2866 H 0.10873 0.79375 0.41064 0.0
H2867 H 0.09522 0.79632 0.38337 0.0
H2868 H 0.12516 0.79558 0.33893 0.0
H2869 H 0.15039 0.79294 0.3557 0.0
C2870 C 0.15203 0.79442 0.38911 0.0
C2871 C 0.15082 0.79632 0.40644 0.0
C2872 C 0.13751 0.79339 0.37933 0.0
C2873 C 0.13511 0.79505 0.41403 0.0
C2874 C 0.1207 0.79371 0.40446 0.0
C2875 C 0.10726 0.7953 0.37736 0.0
C2876 C 0.10835 0.79647 0.35997 0.0
C2877 C 0.12171 0.79376 0.38708 0.0
C2878 C 0.12399 0.79481 0.35232 0.0
C2879 C 0.13844 0.79335 0.36191 0.0
H2880 H 0.15495 0.53442 0.2016 0.0
H2881 H 0.14382 0.57335 0.23674 0.0
H2882 H 0.1141 0.56771 0.23381 0.0
H2883 H 0.09167 0.55598 0.21657 0.0
H2884 H 0.10284 0.51761 0.18083 0.0
H2885 H 0.13216 0.51844 0.18888 0.0
C2886 C 0.14601 0.54117 0.20913 0.0
C2887 C 0.15147 0.55436 0.21924 0.0
C2888 C 0.12897 0.53813 0.20703 0.0
C2889 C 0.13989 0.56306 0.22897 0.0
C2890 C 0.12288 0.55999 0.2271 0.0
C2891 C 0.10047 0.54739 0.211 0.0
C2892 C 0.09523 0.53688 0.19803 0.0
C2893 C 0.11731 0.54819 0.21548 0.0
C2894 C 0.10661 0.52574 0.19089 0.0
C2895 C 0.1234 0.52635 0.19538 0.0
H2896 H 0.69956 0.34494 0.47096 0.0
H2897 H 0.73748 0.35432 0.43429 0.0
H2898 H 0.73678 0.38396 0.44083 0.0
H2899 H 0.72131 0.40744 0.45291 0.0
H2900 H 0.68363 0.39807 0.48982 0.0
H2901 H 0.68858 0.3682 0.4876 0.0
C2902 C 0.70809 0.35343 0.46486 0.0
C2903 C 0.71839 0.34755 0.45205 0.0
C2904 C 0.70752 0.37047 0.4686 0.0
C2905 C 0.72946 0.35856 0.44424 0.0
C2906 C 0.72895 0.37555 0.44786 0.0
C2907 C 0.71465 0.39886 0.46091 0.0
C2908 C 0.70201 0.40487 0.47133 0.0
C2909 C 0.71745 0.3817 0.45943 0.0
C2910 C 0.69348 0.39373 0.48173 0.0
C2911 C 0.69617 0.37662 0.48032 0.0
H2912 H 0.90924 0.95236 0.71282 0.0
H2913 H 0.89392 0.98635 0.67428 0.0
H2914 H 0.86497 0.98343 0.68291 0.0
H2915 H 0.84393 0.96677 0.69759 0.0
H2916 H 0.85918 0.93262 0.736 0.0
H2917 H 0.88826 0.94025 0.73152 0.0
C2918 C 0.8996 0.95961 0.70675 0.0
C2919 C 0.90363 0.96941 0.69284 0.0
C2920 C 0.88297 0.95763 0.71161 0.0
C2921 C 0.89113 0.9788 0.68506 0.0
C2922 C 0.87453 0.97696 0.68987 0.0
C2923 C 0.85361 0.96147 0.70537 0.0
C2924 C 0.84953 0.94908 0.71699 0.0
C2925 C 0.87028 0.96577 0.70256 0.0
C2926 C 0.86206 0.94227 0.72705 0.0
C2927 C 0.8787 0.9465 0.72436 0.0
H2928 H 0.30594 0.16139 0.9643 0.0
H2929 H 0.26733 0.14618 0.93032 0.0
H2930 H 0.27117 0.11724 0.93856 0.0
H2931 H 0.28919 0.09606 0.95139 0.0
H2932 H 0.3274 0.11119 0.98583 0.0
H2933 H 0.31984 0.14034 0.98174 0.0
C2934 C 0.29799 0.15179 0.95916 0.0
C2935 C 0.28654 0.15587 0.94659 0.0
C2936 C 0.30033 0.13513 0.96389 0.0
C2937 C 0.27622 0.14337 0.94005 0.0
C2938 C 0.27853 0.12677 0.94463 0.0
C2939 C 0.29542 0.10573 0.95845 0.0
C2940 C 0.3089 0.10155 0.96875 0.0
C2941 C 0.29107 0.12246 0.95596 0.0
C2942 C 0.3169 0.11411 0.9779 0.0
C2943 C 0.31271 0.1308 0.97542 0.0
H2944 H 0.1444 0.44293 0.77565 0.0
H2945 H 0.16294 0.47753 0.81211 0.0
H2946 H 0.13498 0.48846 0.81648 0.0
H2947 H 0.10498 0.48359 0.81459 0.0
H2948 H 0.08628 0.44682 0.78039 0.0
H2949 H 0.11435 0.44165 0.7701 0.0
C2950 C 0.14237 0.45336 0.78396 0.0
C2951 C 0.15561 0.45945 0.79355 0.0
C2952 C 0.1261 0.45901 0.78701 0.0
C2953 C 0.15285 0.47272 0.80459 0.0
C2954 C 0.13685 0.47887 0.80718 0.0
C2955 C 0.10699 0.47503 0.80436 0.0
C2956 C 0.09366 0.46553 0.79831 0.0
C2957 C 0.12328 0.47149 0.79914 0.0
C2958 C 0.09642 0.45425 0.78524 0.0
C2959 C 0.11249 0.45117 0.77947 0.0
H2960 H 0.80843 0.34205 0.03625 0.0
H2961 H 0.76935 0.35807 0.06922 0.0
H2962 H 0.7734 0.38687 0.06043 0.0
H2963 H 0.79156 0.40771 0.04728 0.0
H2964 H 0.83023 0.39168 0.01383 0.0
H2965 H 0.82261 0.36265 0.01853 0.0
C2966 C 0.80044 0.35181 0.04105 0.0
C2967 C 0.78872 0.34803 0.05343 0.0
C2968 C 0.80287 0.36833 0.03595 0.0
C2969 C 0.77838 0.36069 0.05959 0.0
C2970 C 0.78081 0.37718 0.05469 0.0
C2971 C 0.79788 0.39785 0.04055 0.0
C2972 C 0.8115 0.40176 0.03035 0.0
C2973 C 0.7935 0.3812 0.04342 0.0
C2974 C 0.81962 0.38897 0.02165 0.0
C2975 C 0.8154 0.37235 0.0245 0.0
H2976 H 0.91254 0.04546 0.28419 0.0
H2977 H 0.89817 0.01049 0.32217 0.0
H2978 H 0.86898 0.01391 0.31445 0.0
H2979 H 0.84771 0.03141 0.30116 0.0
H2980 H 0.86202 0.06718 0.26394 0.0
H2981 H 0.89111 0.0587 0.2668 0.0
C2982 C 0.90304 0.03813 0.29034 0.0
C2983 C 0.9074 0.02791 0.30384 0.0
C2984 C 0.88629 0.04053 0.28612 0.0
C2985 C 0.89509 0.01839 0.3117 0.0
C2986 C 0.87838 0.02051 0.30742 0.0
C2987 C 0.85717 0.03691 0.29327 0.0
C2988 C 0.85287 0.04999 0.2825 0.0
C2989 C 0.87383 0.03222 0.29528 0.0
C2990 C 0.86508 0.05703 0.27226 0.0
C2991 C 0.88172 0.0523 0.27404 0.0
H2992 H 0.19647 0.16054 0.5437 0.0
H2993 H 0.23391 0.14359 0.57819 0.0
H2994 H 0.22958 0.11494 0.56913 0.0
H2995 H 0.2118 0.09447 0.55486 0.0
H2996 H 0.17496 0.11127 0.51975 0.0
H2997 H 0.18254 0.14022 0.52535 0.0
C2998 C 0.20406 0.15062 0.54881 0.0
C2999 C 0.21539 0.15414 0.56167 0.0
C3000 C 0.20147 0.13414 0.54355 0.0
C3001 C 0.22518 0.14122 0.5682 0.0
C3002 C 0.22259 0.12479 0.56314 0.0
C3003 C 0.20586 0.10449 0.54804 0.0
C3004 C 0.19285 0.10083 0.53696 0.0
C3005 C 0.21029 0.12106 0.55133 0.0
C3006 C 0.18515 0.11382 0.52819 0.0
C3007 C 0.18936 0.13037 0.53153 0.0
H3008 H 0.18355 0.89284 0.47948 0.0
H3009 H 0.22201 0.91257 0.44794 0.0
H3010 H 0.23214 0.88451 0.44219 0.0
H3011 H 0.22605 0.85447 0.44127 0.0
H3012 H 0.18594 0.83504 0.47093 0.0
H3013 H 0.18063 0.86261 0.48243 0.0
C3014 C 0.19463 0.89101 0.47201 0.0
C3015 C 0.20205 0.9047 0.46416 0.0
C3016 C 0.19986 0.87476 0.46809 0.0
C3017 C 0.21616 0.90215 0.45417 0.0
C3018 C 0.22184 0.88609 0.45072 0.0
C3019 C 0.21664 0.85619 0.45077 0.0
C3020 C 0.20638 0.8428 0.45523 0.0
C3021 C 0.21322 0.87227 0.45688 0.0
C3022 C 0.19399 0.84522 0.46731 0.0
C3023 C 0.19087 0.86101 0.47383 0.0
H3024 H 0.36138 0.44235 0.73193 0.0
H3025 H 0.33403 0.46772 0.69345 0.0
H3026 H 0.35947 0.48099 0.68365 0.0
H3027 H 0.39002 0.48069 0.68247 0.0
H3028 H 0.41749 0.45319 0.71931 0.0
H3029 H 0.39172 0.44585 0.73355 0.0
C3030 C 0.36093 0.45131 0.72186 0.0
C3031 C 0.34592 0.45404 0.71339 0.0
C3032 C 0.37577 0.45838 0.71584 0.0
C3033 C 0.34551 0.46543 0.70013 0.0
C3034 C 0.36008 0.47294 0.69445 0.0
C3035 C 0.39035 0.47376 0.69404 0.0
C3036 C 0.40556 0.46756 0.69993 0.0
C3037 C 0.37539 0.46889 0.70169 0.0
C3038 C 0.40586 0.45818 0.71467 0.0
C3039 C 0.39112 0.45383 0.72271 0.0
H3040 H 0.81316 0.60809 0.97851 0.0
H3041 H 0.77935 0.58697 0.94272 0.0
H3042 H 0.76835 0.61456 0.93633 0.0
H3043 H 0.77282 0.64485 0.93654 0.0
H3044 H 0.80875 0.66581 0.9703 0.0
H3045 H 0.81423 0.63838 0.98208 0.0
C3046 C 0.80287 0.6095 0.96989 0.0
C3047 C 0.79704 0.5956 0.9611 0.0
C3048 C 0.7972 0.6255 0.96567 0.0
C3049 C 0.78397 0.59757 0.94966 0.0
C3050 C 0.77779 0.61335 0.94588 0.0
C3051 C 0.78128 0.64345 0.94696 0.0
C3052 C 0.79036 0.65724 0.95258 0.0
C3053 C 0.78493 0.62749 0.95316 0.0
C3054 C 0.8016 0.65529 0.96582 0.0
C3055 C 0.80483 0.6396 0.97248 0.0
H3056 H 0.61093 0.02301 0.1853 0.0
H3057 H 0.58704 0.05572 0.22033 0.0
H3058 H 0.61373 0.0618 0.23345 0.0
H3059 H 0.64408 0.06285 0.23055 0.0
H3060 H 0.66802 0.03239 0.19356 0.0
H3061 H 0.64136 0.02009 0.18589 0.0
C3062 C 0.61154 0.03082 0.19629 0.0
C3063 C 0.59715 0.0389 0.2019 0.0
C3064 C 0.62707 0.03492 0.20323 0.0
C3065 C 0.59805 0.04934 0.21589 0.0
C3066 C 0.61332 0.05294 0.22329 0.0
C3067 C 0.64351 0.05298 0.22136 0.0
C3068 C 0.65789 0.04855 0.21257 0.0
C3069 C 0.628 0.04655 0.21646 0.0
C3070 C 0.65702 0.03597 0.20046 0.0
C3071 C 0.64176 0.02904 0.19597 0.0
H3072 H 0.53525 0.19926 0.15931 0.0
H3073 H 0.57171 0.23677 0.14754 0.0
H3074 H 0.56453 0.23474 0.11813 0.0
H3075 H 0.55219 0.21812 0.09563 0.0
H3076 H 0.5161 0.18028 0.10722 0.0
H3077 H 0.51857 0.18678 0.13684 0.0
C3078 C 0.54118 0.20741 0.15035 0.0
C3079 C 0.55415 0.21796 0.15553 0.0
C3080 C 0.53722 0.20593 0.13341 0.0
C3081 C 0.56169 0.22855 0.14388 0.0
C3082 C 0.55772 0.22726 0.12702 0.0
C3083 C 0.54442 0.21175 0.10463 0.0
C3084 C 0.53408 0.19869 0.09936 0.0
C3085 C 0.54614 0.21538 0.1216 0.0
C3086 C 0.52404 0.19047 0.11102 0.0
C3087 C 0.52561 0.19407 0.12796 0.0
H3088 H 0.02243 0.81032 0.39884 0.0
H3089 H 0.05857 0.77524 0.41715 0.0
H3090 H 0.06299 0.76464 0.38906 0.0
H3091 H 0.06154 0.77024 0.35904 0.0
H3092 H 0.02768 0.8076 0.34087 0.0
H3093 H 0.01715 0.81221 0.36892 0.0
C3094 C 0.03066 0.79983 0.39676 0.0
C3095 C 0.04025 0.79363 0.40995 0.0
C3096 C 0.03381 0.79445 0.38044 0.0
C3097 C 0.05109 0.78021 0.4071 0.0
C3098 C 0.05375 0.77427 0.39101 0.0
C3099 C 0.05133 0.77881 0.36118 0.0
C3100 C 0.04539 0.7886 0.34802 0.0
C3101 C 0.04593 0.78199 0.37749 0.0
C3102 C 0.03241 0.79994 0.3509 0.0
C3103 C 0.02647 0.80267 0.36695 0.0
H3104 H 0.43927 0.27813 0.64386 0.0
H3105 H 0.47723 0.30969 0.66462 0.0
H3106 H 0.48768 0.31592 0.6368 0.0
H3107 H 0.48197 0.31723 0.60677 0.0
H3108 H 0.44175 0.2883 0.58638 0.0
H3109 H 0.43634 0.27604 0.6136 0.0
C3110 C 0.4503 0.28574 0.64228 0.0
C3111 C 0.45755 0.29341 0.65617 0.0
C3112 C 0.45558 0.29005 0.6262 0.0
C3113 C 0.47155 0.3036 0.65402 0.0
C3114 C 0.4774 0.30731 0.63811 0.0
C3115 C 0.4725 0.30774 0.60821 0.0
C3116 C 0.46227 0.30364 0.59468 0.0
C3117 C 0.46895 0.30133 0.62409 0.0
C3118 C 0.44977 0.2916 0.5967 0.0
C3119 C 0.44661 0.28466 0.61227 0.0
H3120 H 0.93777 0.72744 0.86206 0.0
H3121 H 0.97064 0.69369 0.8366 0.0
H3122 H 0.98297 0.68518 0.86303 0.0
H3123 H 0.98018 0.6831 0.89341 0.0
H3124 H 0.94502 0.71458 0.91873 0.0
H3125 H 0.93804 0.72842 0.89262 0.0
C3126 C 0.94815 0.71881 0.86231 0.0
C3127 C 0.95343 0.71129 0.84749 0.0
C3128 C 0.95456 0.71332 0.87765 0.0
C3129 C 0.96652 0.69972 0.84793 0.0
C3130 C 0.97345 0.69473 0.86305 0.0
C3131 C 0.97155 0.69347 0.89327 0.0
C3132 C 0.96317 0.69789 0.90791 0.0
C3133 C 0.967 0.70082 0.87804 0.0
C3134 C 0.95166 0.71105 0.90756 0.0
C3135 C 0.94757 0.71888 0.89261 0.0
H3136 H 0.06303 0.73138 0.14637 0.0
H3137 H 0.03031 0.69429 0.1669 0.0
H3138 H 0.01882 0.68867 0.13939 0.0
H3139 H 0.02278 0.68984 0.10912 0.0
H3140 H 0.05736 0.72513 0.08854 0.0
H3141 H 0.06306 0.73625 0.11621 0.0
C3142 C 0.05288 0.72262 0.14488 0.0
C3143 C 0.04758 0.71319 0.15855 0.0
C3144 C 0.04682 0.71894 0.12888 0.0
C3145 C 0.0346 0.70166 0.15647 0.0
C3146 C 0.02811 0.69835 0.14072 0.0
C3147 C 0.03093 0.70048 0.11066 0.0
C3148 C 0.03965 0.70668 0.09691 0.0
C3149 C 0.03477 0.70626 0.12673 0.0
C3150 C 0.05049 0.72022 0.09904 0.0
C3151 C 0.05389 0.72646 0.11487 0.0
H3152 H 0.47561 0.81134 0.10997 0.0
H3153 H 0.43788 0.78417 0.08332 0.0
H3154 H 0.42929 0.77038 0.10895 0.0
H3155 H 0.42868 0.77067 0.13951 0.0
H3156 H 0.46433 0.80035 0.16627 0.0
H3157 H 0.47785 0.80817 0.14024 0.0
C3158 C 0.46598 0.8019 0.1097 0.0
C3159 C 0.45735 0.79878 0.09485 0.0
C3160 C 0.46059 0.7946 0.12464 0.0
C3161 C 0.44467 0.78676 0.09467 0.0
C3162 C 0.43968 0.77895 0.10934 0.0
C3163 C 0.43987 0.77821 0.13962 0.0
C3164 C 0.44563 0.78484 0.15468 0.0
C3165 C 0.44699 0.7834 0.12452 0.0
C3166 C 0.45982 0.79501 0.15474 0.0
C3167 C 0.46743 0.79963 0.13986 0.0
H3168 H 0.44202 0.22907 0.85626 0.0
H3169 H 0.47027 0.19257 0.82904 0.0
H3170 H 0.48441 0.18402 0.8545 0.0
H3171 H 0.48419 0.18288 0.88506 0.0
H3172 H 0.4537 0.21742 0.91237 0.0
H3173 H 0.44532 0.23103 0.88655 0.0
C3174 C 0.45178 0.21976 0.85584 0.0
C3175 C 0.45511 0.21144 0.84087 0.0
C3176 C 0.4593 0.21436 0.87068 0.0
C3177 C 0.46753 0.19914 0.84049 0.0
C3178 C 0.47553 0.19415 0.85506 0.0
C3179 C 0.47633 0.19386 0.88534 0.0
C3180 C 0.46961 0.19923 0.9005 0.0
C3181 C 0.4709 0.20108 0.87036 0.0
C3182 C 0.45908 0.21318 0.90077 0.0
C3183 C 0.45416 0.22085 0.886 0.0
H3184 H 0.57131 0.27472 0.35961 0.0
H3185 H 0.5355 0.30685 0.33606 0.0
H3186 H 0.52357 0.31391 0.36309 0.0
H3187 H 0.52703 0.31519 0.39337 0.0
H3188 H 0.5652 0.28577 0.41684 0.0
H3189 H 0.57234 0.27319 0.39013 0.0
C3190 C 0.56045 0.28269 0.36042 0.0
C3191 C 0.55414 0.29015 0.34595 0.0
C3192 C 0.55428 0.28742 0.37608 0.0
C3193 C 0.54041 0.30088 0.3471 0.0
C3194 C 0.5337 0.30503 0.36255 0.0
C3195 C 0.53644 0.30554 0.39271 0.0
C3196 C 0.54554 0.30135 0.40701 0.0
C3197 C 0.54104 0.29899 0.37716 0.0
C3198 C 0.55799 0.28912 0.40595 0.0
C3199 C 0.56217 0.28202 0.39067 0.0
H3200 H 0.13672 0.06308 0.73204 0.0
H3201 H 0.161 0.02823 0.69941 0.0
H3202 H 0.13409 0.01717 0.69065 0.0
H3203 H 0.10409 0.02187 0.68768 0.0
H3204 H 0.08026 0.05957 0.71736 0.0
H3205 H 0.10629 0.06488 0.7321 0.0
C3206 C 0.13607 0.05255 0.72361 0.0
C3207 C 0.1507 0.04637 0.71641 0.0
C3208 C 0.12054 0.04702 0.71785 0.0
C3209 C 0.1498 0.03305 0.70515 0.0
C3210 C 0.13443 0.02686 0.70001 0.0
C3211 C 0.10449 0.03074 0.69784 0.0
C3212 C 0.09038 0.0403 0.70151 0.0
C3213 C 0.11973 0.03437 0.70558 0.0
C3214 C 0.09105 0.05206 0.71441 0.0
C3215 C 0.10594 0.05516 0.72276 0.0
H3216 H 0.72951 0.85894 0.94071 0.0
H3217 H 0.69249 0.83728 0.97274 0.0
H3218 H 0.68595 0.86465 0.98417 0.0
H3219 H 0.68673 0.895 0.98073 0.0
H3220 H 0.72156 0.91668 0.94635 0.0
H3221 H 0.73325 0.88926 0.94046 0.0
C3222 C 0.72055 0.86015 0.95071 0.0
C3223 C 0.71152 0.84615 0.95592 0.0
C3224 C 0.71626 0.87607 0.95662 0.0
C3225 C 0.69964 0.84792 0.9686 0.0
C3226 C 0.69579 0.8636 0.97503 0.0
C3227 C 0.69736 0.89377 0.97253 0.0
C3228 C 0.70333 0.9078 0.96402 0.0
C3229 C 0.70344 0.87784 0.96855 0.0
C3230 C 0.71683 0.90602 0.95309 0.0
C3231 C 0.72342 0.89032 0.9496 0.0
H3232 H 0.86154 0.43208 0.23175 0.0
H3233 H 0.83425 0.4647 0.19917 0.0
H3234 H 0.85992 0.47881 0.19124 0.0
H3235 H 0.89037 0.47799 0.18935 0.0
H3236 H 0.91775 0.44335 0.21972 0.0
H3237 H 0.89205 0.43419 0.23299 0.0
C3238 C 0.8612 0.44274 0.22349 0.0
C3239 C 0.8461 0.44745 0.21611 0.0
C3240 C 0.87614 0.45027 0.21836 0.0
C3241 C 0.84579 0.46097 0.20505 0.0
C3242 C 0.86048 0.46894 0.20041 0.0
C3243 C 0.89074 0.46895 0.19935 0.0
C3244 C 0.90588 0.46136 0.20359 0.0
C3245 C 0.8758 0.46318 0.20637 0.0
C3246 C 0.90619 0.44938 0.21631 0.0
C3247 C 0.89148 0.44404 0.2238 0.0
H3248 H 0.27518 0.64052 0.43641 0.0
H3249 H 0.30589 0.66618 0.47201 0.0
H3250 H 0.31436 0.63971 0.48428 0.0
H3251 H 0.31758 0.60942 0.48091 0.0
H3252 H 0.28884 0.58403 0.44349 0.0
H3253 H 0.27489 0.60996 0.43611 0.0
C3254 C 0.28312 0.6403 0.44732 0.0
C3255 C 0.28988 0.65522 0.45334 0.0
C3256 C 0.28858 0.62497 0.45379 0.0
C3257 C 0.30049 0.65479 0.46723 0.0
C3258 C 0.30547 0.63965 0.47414 0.0
C3259 C 0.30776 0.60949 0.47166 0.0
C3260 C 0.3042 0.59489 0.46277 0.0
C3261 C 0.30027 0.62463 0.46698 0.0
C3262 C 0.29173 0.59517 0.45052 0.0
C3263 C 0.28383 0.61002 0.4462 0.0
H3264 H 0.10845 0.97193 0.30872 0.0
H3265 H 0.08794 0.92939 0.28337 0.0
H3266 H 0.11492 0.92337 0.2709 0.0
H3267 H 0.14518 0.92653 0.2724 0.0
H3268 H 0.16612 0.96692 0.30065 0.0
H3269 H 0.13834 0.97785 0.30626 0.0
C3270 C 0.10978 0.96178 0.29992 0.0
C3271 C 0.09632 0.95108 0.29698 0.0
C3272 C 0.12555 0.95793 0.29341 0.0
C3273 C 0.09821 0.93777 0.28581 0.0
C3274 C 0.11365 0.93426 0.27874 0.0
C3275 C 0.14364 0.93817 0.27906 0.0
C3276 C 0.15757 0.94596 0.28608 0.0
C3277 C 0.12758 0.94374 0.28315 0.0
C3278 C 0.15549 0.9608 0.29506 0.0
C3279 C 0.1396 0.96693 0.29846 0.0
H3280 H 0.79578 0.84589 0.53392 0.0
H3281 H 0.76312 0.86254 0.573 0.0
H3282 H 0.76729 0.89141 0.5645 0.0
H3283 H 0.78475 0.91174 0.54972 0.0
H3284 H 0.81743 0.89512 0.51065 0.0
H3285 H 0.8085 0.8664 0.51509 0.0
C3286 C 0.78908 0.85583 0.54013 0.0
C3287 C 0.77931 0.85217 0.55414 0.0
C3288 C 0.79174 0.87239 0.53531 0.0
C3289 C 0.77063 0.86506 0.56212 0.0
C3290 C 0.77318 0.88159 0.55738 0.0
C3291 C 0.78942 0.90187 0.54178 0.0
C3292 C 0.8018 0.90543 0.52999 0.0
C3293 C 0.78436 0.8854 0.54455 0.0
C3294 C 0.8078 0.89265 0.51972 0.0
C3295 C 0.80283 0.87621 0.52239 0.0
H3296 H 0.84049 0.53854 0.80333 0.0
H3297 H 0.85414 0.57266 0.7643 0.0
H3298 H 0.88316 0.56411 0.76678 0.0
H3299 H 0.90501 0.55108 0.78378 0.0
H3300 H 0.89155 0.51714 0.82296 0.0
H3301 H 0.86208 0.52118 0.81652 0.0
C3302 C 0.84976 0.54367 0.79499 0.0
C3303 C 0.84523 0.55634 0.78379 0.0
C3304 C 0.86647 0.53885 0.79666 0.0
C3305 C 0.85729 0.56286 0.77299 0.0
C3306 C 0.87393 0.55809 0.77453 0.0
C3307 C 0.89561 0.5441 0.79047 0.0
C3308 C 0.90036 0.5339 0.80385 0.0
C3309 C 0.87874 0.5467 0.78684 0.0
C3310 C 0.88817 0.52492 0.81249 0.0
C3311 C 0.87131 0.5274 0.80894 0.0
H3312 H 0.22781 0.64299 0.06576 0.0
H3313 H 0.19408 0.66666 0.03152 0.0
H3314 H 0.18775 0.63989 0.0187 0.0
H3315 H 0.18674 0.60948 0.02193 0.0
H3316 H 0.21879 0.58582 0.05776 0.0
H3317 H 0.23112 0.6126 0.06495 0.0
C3318 C 0.21973 0.64234 0.05497 0.0
C3319 C 0.21138 0.6567 0.0496 0.0
C3320 C 0.21556 0.62676 0.04815 0.0
C3321 C 0.20066 0.6557 0.03582 0.0
C3322 C 0.19689 0.64037 0.0286 0.0
C3323 C 0.19696 0.61014 0.03072 0.0
C3324 C 0.2018 0.59579 0.03938 0.0
C3325 C 0.20351 0.62572 0.03531 0.0
C3326 C 0.21486 0.59679 0.05097 0.0
C3327 C 0.22182 0.61212 0.0552 0.0
H3328 H 0.22957 0.35916 0.93259 0.0
H3329 H 0.19537 0.33873 0.96831 0.0
H3330 H 0.18971 0.36654 0.97924 0.0
H3331 H 0.19031 0.39676 0.9748 0.0
H3332 H 0.22157 0.41708 0.93639 0.0
H3333 H 0.23278 0.38945 0.93049 0.0
C3334 C 0.22145 0.36079 0.94323 0.0
C3335 C 0.213 0.347 0.94977 0.0
C3336 C 0.21751 0.37691 0.94876 0.0
C3337 C 0.20209 0.34923 0.96321 0.0
C3338 C 0.19874 0.36513 0.96935 0.0
C3339 C 0.20007 0.39518 0.96563 0.0
C3340 C 0.20523 0.40887 0.95612 0.0
C3341 C 0.20578 0.37912 0.9617 0.0
C3342 C 0.21753 0.40667 0.94393 0.0
C3343 C 0.22384 0.39086 0.94047 0.0
H3344 H 0.41018 0.95192 0.21447 0.0
H3345 H 0.39538 0.98904 0.17869 0.0
H3346 H 0.36632 0.98542 0.1866 0.0
H3347 H 0.34502 0.96794 0.1999 0.0
H3348 H 0.35977 0.93108 0.23594 0.0
H3349 H 0.38894 0.93853 0.23197 0.0
C3350 C 0.40062 0.95963 0.20885 0.0
C3351 C 0.40486 0.97058 0.19592 0.0
C3352 C 0.38392 0.95735 0.21335 0.0
C3353 C 0.39244 0.98057 0.18874 0.0
C3354 C 0.37578 0.97836 0.19312 0.0
C3355 C 0.35461 0.96196 0.20728 0.0
C3356 C 0.35033 0.94892 0.21808 0.0
C3357 C 0.37135 0.96625 0.20486 0.0
C3358 C 0.36278 0.94124 0.22763 0.0
C3359 C 0.37948 0.94538 0.22523 0.0
H3360 H 0.79844 0.15886 0.45983 0.0
H3361 H 0.76157 0.14211 0.4247 0.0
H3362 H 0.76605 0.11334 0.43345 0.0
H3363 H 0.78471 0.09298 0.44668 0.0
H3364 H 0.8219 0.10975 0.48148 0.0
H3365 H 0.8128 0.13849 0.47763 0.0
C3366 C 0.79096 0.14894 0.45456 0.0
C3367 C 0.77985 0.1525 0.44154 0.0
C3368 C 0.79384 0.13243 0.45945 0.0
C3369 C 0.77015 0.13965 0.4348 0.0
C3370 C 0.77285 0.12317 0.43967 0.0
C3371 C 0.79037 0.10289 0.45389 0.0
C3372 C 0.80405 0.09934 0.46419 0.0
C3373 C 0.78527 0.11939 0.45135 0.0
C3374 C 0.81129 0.11219 0.47354 0.0
C3375 C 0.80622 0.12865 0.47117 0.0
H3376 H 0.60623 0.52622 0.68679 0.0
H3377 H 0.58643 0.56388 0.71935 0.0
H3378 H 0.61401 0.56866 0.73114 0.0
H3379 H 0.64423 0.56631 0.72784 0.0
H3380 H 0.66424 0.53122 0.69266 0.0
H3381 H 0.63633 0.52091 0.68656 0.0
C3382 C 0.60789 0.53494 0.69696 0.0
C3383 C 0.5944 0.54463 0.70229 0.0
C3384 C 0.62396 0.53824 0.70305 0.0
C3385 C 0.5967 0.55623 0.71516 0.0
C3386 C 0.61248 0.55905 0.72181 0.0
C3387 C 0.6425 0.5559 0.71942 0.0
C3388 C 0.6562 0.54947 0.71075 0.0
C3389 C 0.62632 0.55073 0.71527 0.0
C3390 C 0.65382 0.53628 0.69953 0.0
C3391 C 0.63785 0.5305 0.69592 0.0
H3392 H 0.52665 0.69274 0.61177 0.0
H3393 H 0.56045 0.72917 0.59187 0.0
H3394 H 0.56684 0.73903 0.6199 0.0
H3395 H 0.56714 0.73327 0.64992 0.0
H3396 H 0.53602 0.69433 0.66948 0.0
H3397 H 0.52406 0.6896 0.64196 0.0
C3398 C 0.53483 0.70332 0.61357 0.0
C3399 C 0.54301 0.71031 0.59985 0.0
C3400 C 0.53917 0.70824 0.62977 0.0
C3401 C 0.55395 0.7237 0.60232 0.0
C3402 C 0.55773 0.72922 0.61835 0.0
C3403 C 0.55725 0.72425 0.64823 0.0
C3404 C 0.55236 0.71422 0.66163 0.0
C3405 C 0.55105 0.72103 0.63219 0.0
C3406 C 0.53987 0.70224 0.65928 0.0
C3407 C 0.53312 0.69946 0.64354 0.0
H3408 H 0.02667 0.31658 0.89323 0.0
H3409 H 0.06207 0.28121 0.91237 0.0
H3410 H 0.06668 0.27019 0.88449 0.0
H3411 H 0.06551 0.27519 0.85446 0.0
H3412 H 0.03221 0.31252 0.83519 0.0
H3413 H 0.02156 0.31788 0.86309 0.0
C3414 C 0.03476 0.30595 0.89134 0.0
C3415 C 0.04402 0.29968 0.90473 0.0
C3416 C 0.03796 0.30022 0.87512 0.0
C3417 C 0.05479 0.28616 0.90216 0.0
C3418 C 0.05754 0.27996 0.8862 0.0
C3419 C 0.05538 0.28392 0.85629 0.0
C3420 C 0.04972 0.29353 0.84286 0.0
C3421 C 0.04991 0.28752 0.87249 0.0
C3422 C 0.03677 0.30501 0.84541 0.0
C3423 C 0.03079 0.3082 0.86139 0.0
H3424 H 0.96683 0.19966 0.34081 0.0
H3425 H 0.93004 0.23482 0.35769 0.0
H3426 H 0.93904 0.23067 0.38642 0.0
H3427 H 0.95339 0.21281 0.40674 0.0
H3428 H 0.98989 0.17733 0.38993 0.0
H3429 H 0.98531 0.18606 0.36115 0.0
C3430 C 0.96122 0.20685 0.35075 0.0
C3431 C 0.9477 0.2174 0.3472 0.0
C3432 C 0.96628 0.20416 0.36724 0.0
C3433 C 0.94052 0.2267 0.36011 0.0
C3434 C 0.94554 0.22417 0.37656 0.0
C3435 C 0.96078 0.20745 0.3968 0.0
C3436 C 0.97187 0.19439 0.40037 0.0
C3437 C 0.95784 0.21234 0.3803 0.0
C3438 C 0.98139 0.1875 0.38748 0.0
C3439 C 0.97861 0.19235 0.371 0.0
H3440 H 0.06106 0.22961 0.64862 0.0
H3441 H 0.03166 0.18941 0.66834 0.0
H3442 H 0.02021 0.18386 0.64075 0.0
H3443 H 0.02268 0.18707 0.61049 0.0
H3444 H 0.05496 0.22485 0.59059 0.0
H3445 H 0.06087 0.23502 0.61862 0.0
C3446 C 0.05168 0.22006 0.64695 0.0
C3447 C 0.04715 0.20996 0.66043 0.0
C3448 C 0.0458 0.21641 0.6309 0.0
C3449 C 0.03528 0.19736 0.65809 0.0
C3450 C 0.0288 0.19413 0.6423 0.0
C3451 C 0.03043 0.19796 0.6123 0.0
C3452 C 0.03828 0.20533 0.59858 0.0
C3453 C 0.03453 0.20309 0.62851 0.0
C3454 C 0.04871 0.21912 0.60104 0.0
C3455 C 0.0522 0.22482 0.61706 0.0
H3456 H 0.46948 0.7014 0.34716 0.0
H3457 H 0.43369 0.73819 0.36264 0.0
H3458 H 0.44255 0.73481 0.39157 0.0
H3459 H 0.45609 0.71702 0.4125 0.0
H3460 H 0.49107 0.67946 0.39698 0.0
H3461 H 0.4873 0.68776 0.36797 0.0
C3462 C 0.46407 0.7091 0.35683 0.0
C3463 C 0.45088 0.71991 0.35289 0.0
C3464 C 0.46897 0.70678 0.37341 0.0
C3465 C 0.44393 0.72988 0.3654 0.0
C3466 C 0.44887 0.72779 0.38196 0.0
C3467 C 0.46336 0.71111 0.40279 0.0
C3468 C 0.47371 0.69756 0.40678 0.0
C3469 C 0.46075 0.71566 0.38615 0.0
C3470 C 0.48311 0.68998 0.3942 0.0
C3471 C 0.48078 0.69459 0.37759 0.0
H3472 H 0.56607 0.77272 0.86199 0.0
H3473 H 0.52789 0.80397 0.84109 0.0
H3474 H 0.51705 0.80981 0.86884 0.0
H3475 H 0.52282 0.81139 0.89884 0.0
H3476 H 0.56319 0.78273 0.91936 0.0
H3477 H 0.56865 0.77033 0.89222 0.0
C3478 C 0.5549 0.78014 0.8635 0.0
C3479 C 0.5478 0.78796 0.84961 0.0
C3480 C 0.54938 0.78424 0.87955 0.0
C3481 C 0.53352 0.79782 0.85169 0.0
C3482 C 0.52744 0.80132 0.86756 0.0
C3483 C 0.5323 0.80188 0.89746 0.0
C3484 C 0.54262 0.79796 0.91097 0.0
C3485 C 0.53589 0.79541 0.88161 0.0
C3486 C 0.55511 0.78589 0.90904 0.0
C3487 C 0.55831 0.77889 0.89351 0.0
H3488 H 0.61184 0.48437 0.32552 0.0
H3489 H 0.58732 0.45646 0.28695 0.0
H3490 H 0.61414 0.4492 0.27468 0.0
H3491 H 0.64422 0.44562 0.27879 0.0
H3492 H 0.66835 0.47074 0.31951 0.0
H3493 H 0.6423 0.48443 0.32695 0.0
C3494 C 0.61241 0.47739 0.31398 0.0
C3495 C 0.59774 0.47103 0.30704 0.0
C3496 C 0.62791 0.47242 0.30761 0.0
C3497 C 0.59855 0.46158 0.29237 0.0
C3498 C 0.61388 0.45726 0.28548 0.0
C3499 C 0.64387 0.45463 0.28883 0.0
C3500 C 0.65809 0.45721 0.2986 0.0
C3501 C 0.62864 0.46184 0.29353 0.0
C3502 C 0.65748 0.46862 0.31183 0.0
C3503 C 0.64257 0.47636 0.31615 0.0
H3504 H 0.30346 0.34192 0.54241 0.0
H3505 H 0.2644 0.35482 0.57674 0.0
H3506 H 0.26542 0.38372 0.56744 0.0
H3507 H 0.28123 0.4059 0.55354 0.0
H3508 H 0.31993 0.39303 0.51881 0.0
H3509 H 0.31493 0.36348 0.52383 0.0
C3510 C 0.2948 0.35098 0.5474 0.0
C3511 C 0.28399 0.34635 0.56032 0.0
C3512 C 0.29547 0.36757 0.54199 0.0
C3513 C 0.27276 0.3581 0.56672 0.0
C3514 C 0.27345 0.37466 0.56151 0.0
C3515 C 0.28808 0.39658 0.54658 0.0
C3516 C 0.30102 0.40157 0.53598 0.0
C3517 C 0.28527 0.37964 0.5497 0.0
C3518 C 0.30982 0.38947 0.52695 0.0
C3519 C 0.30712 0.37256 0.53 0.0
H3520 H 0.40638 0.04692 0.78271 0.0
H3521 H 0.39191 0.0138 0.82228 0.0
H3522 H 0.36265 0.01827 0.81553 0.0
H3523 H 0.34156 0.03603 0.80219 0.0
H3524 H 0.35604 0.06934 0.76278 0.0
H3525 H 0.38488 0.06017 0.76542 0.0
C3526 C 0.39681 0.04021 0.78943 0.0
C3527 C 0.40125 0.03023 0.80308 0.0
C3528 C 0.38001 0.04309 0.78567 0.0
C3529 C 0.38881 0.02151 0.81168 0.0
C3530 C 0.37205 0.02423 0.80796 0.0
C3531 C 0.35097 0.04082 0.7938 0.0
C3532 C 0.34677 0.05344 0.78245 0.0
C3533 C 0.36754 0.03564 0.79554 0.0
C3534 C 0.35897 0.05956 0.77157 0.0
C3535 C 0.3755 0.05444 0.7732 0.0
H3536 H 0.69753 0.16064 0.03704 0.0
H3537 H 0.73821 0.14633 0.06896 0.0
H3538 H 0.73498 0.11738 0.06045 0.0
H3539 H 0.71685 0.09582 0.04856 0.0
H3540 H 0.67618 0.10992 0.01664 0.0
H3541 H 0.68329 0.1393 0.02022 0.0
C3542 C 0.70606 0.15125 0.04165 0.0
C3543 C 0.71792 0.15554 0.05377 0.0
C3544 C 0.70397 0.13457 0.03686 0.0
C3545 C 0.72899 0.14334 0.0596 0.0
C3546 C 0.72703 0.12674 0.05488 0.0
C3547 C 0.70999 0.10533 0.04187 0.0
C3548 C 0.69599 0.10083 0.03245 0.0
C3549 C 0.71403 0.12214 0.04418 0.0
C3550 C 0.68711 0.11314 0.02383 0.0
C3551 C 0.69105 0.12994 0.02606 0.0
H3552 H 0.95527 0.28851 0.09254 0.0
H3553 H 0.99467 0.3211 0.10873 0.0
H3554 H 0.99034 0.31243 0.13747 0.0
H3555 H 0.97184 0.29972 0.15819 0.0
H3556 H 0.93259 0.26696 0.14218 0.0
H3557 H 0.94055 0.27123 0.11316 0.0
C3558 C 0.96326 0.29327 0.10232 0.0
C3559 C 0.97513 0.30555 0.09858 0.0
C3560 C 0.9606 0.28832 0.11885 0.0
C3561 C 0.98548 0.31161 0.11129 0.0
C3562 C 0.9829 0.30677 0.12776 0.0
C3563 C 0.96547 0.29303 0.14835 0.0
C3564 C 0.95163 0.28314 0.15223 0.0
C3565 C 0.97001 0.29572 0.13173 0.0
C3566 C 0.9434 0.27451 0.13947 0.0
C3567 C 0.94782 0.27713 0.12286 0.0
H3568 H 0.92624 0.77356 0.63935 0.0
H3569 H 0.96803 0.79724 0.66297 0.0
H3570 H 0.98008 0.80374 0.63586 0.0
H3571 H 0.9756 0.80786 0.60587 0.0
H3572 H 0.93212 0.78676 0.58268 0.0
H3573 H 0.92392 0.774 0.60893 0.0
C3574 C 0.93835 0.77943 0.63849 0.0
C3575 C 0.94635 0.7848 0.65303 0.0
C3576 C 0.94468 0.784 0.62286 0.0
C3577 C 0.96179 0.79286 0.65185 0.0
C3578 C 0.96857 0.79676 0.63636 0.0
C3579 C 0.96468 0.79997 0.60647 0.0
C3580 C 0.95442 0.79832 0.59244 0.0
C3581 C 0.95968 0.79318 0.6218 0.0
C3582 C 0.94015 0.78827 0.5934 0.0
C3583 C 0.93542 0.78101 0.60841 0.0
H3584 H 0.60724 0.97679 0.81863 0.0
H3585 H 0.58557 0.94341 0.78279 0.0
H3586 H 0.61295 0.93772 0.77099 0.0
H3587 H 0.64321 0.93759 0.77498 0.0
H3588 H 0.66492 0.9688 0.81275 0.0
H3589 H 0.63762 0.98026 0.81944 0.0
C3590 C 0.6085 0.9689 0.80776 0.0
C3591 C 0.5945 0.96058 0.8015 0.0
C3592 C 0.6244 0.96504 0.80158 0.0
C3593 C 0.59625 0.95 0.78771 0.0
C3594 C 0.61191 0.94662 0.78106 0.0
C3595 C 0.64202 0.94742 0.78415 0.0
C3596 C 0.65599 0.95234 0.79338 0.0
C3597 C 0.62616 0.95339 0.78846 0.0
C3598 C 0.65428 0.96484 0.80548 0.0
C3599 C 0.63865 0.9713 0.80941 0.0
H3600 H 0.29188 0.84704 0.03736 0.0
H3601 H 0.26259 0.86202 0.07961 0.0
H3602 H 0.26721 0.89131 0.07271 0.0
H3603 H 0.28416 0.91209 0.05784 0.0
H3604 H 0.31348 0.89692 0.01561 0.0
H3605 H 0.30403 0.86827 0.01904 0.0
C3606 C 0.28598 0.85676 0.04464 0.0
C3607 C 0.27698 0.8525 0.05897 0.0
C3608 C 0.28891 0.87349 0.04072 0.0
C3609 C 0.2694 0.86507 0.06841 0.0
C3610 C 0.27224 0.8818 0.06458 0.0
C3611 C 0.28802 0.90257 0.04908 0.0
C3612 C 0.29962 0.90651 0.03662 0.0
C3613 C 0.28264 0.8861 0.05124 0.0
C3614 C 0.30451 0.89418 0.02526 0.0
C3615 C 0.29923 0.87776 0.02732 0.0
H3616 H 0.34402 0.54278 0.2984 0.0
H3617 H 0.35808 0.57912 0.26162 0.0
H3618 H 0.38724 0.57113 0.26466 0.0
H3619 H 0.40884 0.55772 0.28176 0.0
H3620 H 0.39481 0.52126 0.31842 0.0
H3621 H 0.36553 0.52507 0.31123 0.0
C3622 C 0.35344 0.54851 0.29064 0.0
C3623 C 0.34899 0.5616 0.27993 0.0
C3624 C 0.37018 0.54395 0.29259 0.0
C3625 C 0.36121 0.56895 0.26989 0.0
C3626 C 0.37791 0.56451 0.27176 0.0
C3627 C 0.39938 0.55017 0.28771 0.0
C3628 C 0.4039 0.53934 0.30067 0.0
C3629 C 0.38258 0.55258 0.28363 0.0
C3630 C 0.39163 0.52958 0.30831 0.0
C3631 C 0.37486 0.53192 0.30434 0.0
H3632 H 0.72617 0.64644 0.5628 0.0
H3633 H 0.68769 0.66903 0.53313 0.0
H3634 H 0.68101 0.64218 0.5207 0.0
H3635 H 0.68206 0.61173 0.52294 0.0
H3636 H 0.71884 0.58892 0.5545 0.0
H3637 H 0.73055 0.61615 0.56111 0.0
C3638 C 0.71686 0.64554 0.55309 0.0
C3639 C 0.70741 0.65961 0.54889 0.0
C3640 C 0.7126 0.62989 0.54647 0.0
C3641 C 0.69511 0.65829 0.53654 0.0
C3642 C 0.6912 0.64292 0.5295 0.0
C3643 C 0.69312 0.61271 0.5306 0.0
C3644 C 0.69961 0.59842 0.53821 0.0
C3645 C 0.69927 0.6285 0.535 0.0
C3646 C 0.7137 0.59983 0.54847 0.0
C3647 C 0.72029 0.61541 0.55239 0.0
H3648 H 0.97474 0.49247 0.18857 0.0
H3649 H 0.97142 0.48756 0.13533 0.0
H3650 H 0.99511 0.50648 0.13197 0.0
H3651 H 0.01738 0.52385 0.14444 0.0
H3652 H 0.01899 0.5299 0.19775 0.0
H3653 H 0.9953 0.51133 0.20079 0.0
C3654 C 0.97923 0.49553 0.17623 0.0
C3655 C 0.97152 0.48848 0.16223 0.0
C3656 C 0.9925 0.50673 0.17442 0.0
C3657 C 0.97722 0.4928 0.1463 0.0
C3658 C 0.99076 0.50361 0.14439 0.0
C3659 C 0.01242 0.52122 0.15669 0.0
C3660 C 0.02002 0.52824 0.17084 0.0
C3661 C 0.99857 0.5106 0.15838 0.0
C3662 C 0.01338 0.52476 0.18663 0.0
C3663 C 0.99987 0.51404 0.18841 0.0
H3664 H 0.731 0.27357 0.39361 0.0
H3665 H 0.72489 0.27002 0.44684 0.0
H3666 H 0.7426 0.24557 0.44754 0.0
H3667 H 0.7603 0.22547 0.43343 0.0
H3668 H 0.76537 0.22703 0.38013 0.0
H3669 H 0.7477 0.25196 0.37904 0.0
C3670 C 0.73347 0.26735 0.40531 0.0
C3671 C 0.72664 0.27368 0.42014 0.0
C3672 C 0.7436 0.25302 0.40565 0.0
C3673 C 0.72989 0.26542 0.43521 0.0
C3674 C 0.74012 0.25145 0.43567 0.0
C3675 C 0.75763 0.23133 0.42157 0.0
C3676 C 0.7643 0.22462 0.40692 0.0
C3677 C 0.74715 0.24524 0.42103 0.0
C3678 C 0.76043 0.23208 0.3916 0.0
C3679 C 0.75032 0.2463 0.39098 0.0
H3680 H 0.97615 0.98572 0.68149 0.0
H3681 H 0.9768 0.97619 0.62878 0.0
H3682 H 1.00118 0.9944 0.62572 0.0
H3683 H 0.0223 0.01336 0.63839 0.0
H3684 H 0.01916 0.02401 0.69093 0.0
H3685 H 0.99578 0.00517 0.69365 0.0
C3686 C 0.9817 0.98749 0.66933 0.0
C3687 C 0.97487 0.97944 0.65543 0.0
C3688 C 0.99522 0.99834 0.66763 0.0
C3689 C 0.98194 0.98219 0.6397 0.0
C3690 C 0.99584 0.99262 0.63795 0.0
C3691 C 0.01642 0.01157 0.65037 0.0
C3692 C 0.02251 0.02012 0.66442 0.0
C3693 C 0.00258 1.00084 0.65186 0.0
C3694 C 0.0147 0.01773 0.67987 0.0
C3695 C 0.00135 0.00687 0.68149 0.0
H3696 H 0.23316 0.27122 0.89081 0.0
H3697 H 0.23375 0.27665 0.94419 0.0
H3698 H 0.25295 0.25338 0.94665 0.0
H3699 H 0.26935 0.23137 0.93397 0.0
H3700 H 0.26758 0.22369 0.88095 0.0
H3701 H 0.24907 0.24785 0.87798 0.0
C3702 C 0.23749 0.26722 0.90294 0.0
C3703 C 0.232 0.27562 0.91731 0.0
C3704 C 0.24832 0.25345 0.90434 0.0
C3705 C 0.23762 0.27028 0.93297 0.0
C3706 C 0.24868 0.25702 0.9344 0.0
C3707 C 0.26503 0.23502 0.92172 0.0
C3708 C 0.27 0.22587 0.90768 0.0
C3709 C 0.25409 0.24852 0.9202 0.0
C3710 C 0.26402 0.23061 0.89195 0.0
C3711 C 0.25342 0.2444 0.89026 0.0
H3712 H 0.02174 0.48433 0.81215 0.0
H3713 H 0.02467 0.47977 0.86545 0.0
H3714 H 1.00069 0.49843 0.86848 0.0
H3715 H 0.97873 0.51605 0.85572 0.0
H3716 H 0.97762 0.52174 0.80236 0.0
H3717 H 1.0011 0.50282 0.79963 0.0
C3718 C 0.01705 0.4873 0.82443 0.0
C3719 C 0.02479 0.48048 0.83855 0.0
C3720 C 0.00365 0.4984 0.82606 0.0
C3721 C 0.01883 0.48477 0.85439 0.0
C3722 C 0.00515 0.49547 0.85612 0.0
C3723 C 0.98372 0.51322 0.84352 0.0
C3724 C 0.97636 0.52031 0.82927 0.0
C3725 C 0.99746 0.5024 0.84202 0.0
C3726 C 0.98303 0.51656 0.81355 0.0
C3727 C 0.99643 0.50565 0.81195 0.0
H3728 H 0.76608 0.27308 0.11059 0.0
H3729 H 0.77198 0.274 0.05725 0.0
H3730 H 0.75383 0.25 0.05449 0.0
H3731 H 0.7363 0.22875 0.06693 0.0
H3732 H 0.73167 0.22563 0.1202 0.0
H3733 H 0.74922 0.25046 0.12333 0.0
C3734 C 0.76339 0.26796 0.0984 0.0
C3735 C 0.77036 0.27533 0.08415 0.0
C3736 C 0.75312 0.25382 0.09688 0.0
C3737 C 0.76688 0.26851 0.06843 0.0
C3738 C 0.75643 0.25482 0.06681 0.0
C3739 C 0.73902 0.23357 0.07923 0.0
C3740 C 0.73255 0.22555 0.0933 0.0
C3741 C 0.74946 0.24741 0.08091 0.0
C3742 C 0.73648 0.23169 0.10918 0.0
C3743 C 0.74651 0.24585 0.11096 0.0
H3744 H 0.97987 0.00814 0.3124 0.0
H3745 H 0.98356 0.02108 0.36428 0.0
H3746 H 0.00736 0.00226 0.36746 0.0
H3747 H 0.02705 0.98193 0.35535 0.0
H3748 H 0.02166 0.96771 0.30387 0.0
H3749 H 0.9985 0.98704 0.30072 0.0
C3750 C 0.986 0.00695 0.32437 0.0
C3751 C 0.98017 0.01614 0.33803 0.0
C3752 C 0.99925 0.99572 0.3262 0.0
C3753 C 0.98794 0.0142 0.35356 0.0
C3754 C 0.0015 0.00341 0.35538 0.0
C3755 C 0.02073 0.98301 0.34348 0.0
C3756 C 0.0261 0.97339 0.32986 0.0
C3757 C 0.00722 0.99404 0.34179 0.0
C3758 C 0.01774 0.97488 0.31458 0.0
C3759 C 0.00454 0.98601 0.31273 0.0
H3760 H 0.23846 0.22639 0.57434 0.0
H3761 H 0.23081 0.22525 0.62733 0.0
H3762 H 0.24878 0.24976 0.63062 0.0
H3763 H 0.26644 0.27189 0.61803 0.0
H3764 H 0.27522 0.27086 0.56507 0.0
H3765 H 0.25719 0.24682 0.56222 0.0
C3766 C 0.24066 0.23155 0.58662 0.0
C3767 C 0.23316 0.22421 0.60054 0.0
C3768 C 0.25132 0.24522 0.58842 0.0
C3769 C 0.23641 0.23077 0.61641 0.0
C3770 C 0.24668 0.24477 0.61828 0.0
C3771 C 0.26448 0.26629 0.60592 0.0
C3772 C 0.27217 0.27323 0.5918 0.0
C3773 C 0.2542 0.25214 0.60433 0.0
C3774 C 0.26957 0.26578 0.57619 0.0
C3775 C 0.25917 0.25205 0.57449 0.0
H3776 H 0.14306 0.02316 0.50968 0.0
H3777 H 0.19566 0.02476 0.52015 0.0
H3778 H 0.20031 1.00113 0.50176 0.0
H3779 H 0.18955 0.97973 0.4828 0.0
H3780 H 0.13683 0.97658 0.4737 0.0
H3781 H 0.13213 1.00105 0.49124 0.0
C3782 C 0.15551 0.0183 0.50795 0.0
C3783 C 0.16897 0.02575 0.51631 0.0
C3784 C 0.15811 0.00445 0.49748 0.0
C3785 C 0.18504 0.01923 0.51398 0.0
C3786 C 0.18775 0.00574 0.50338 0.0
C3787 C 0.17706 0.98451 0.48453 0.0
C3788 C 0.16359 0.97648 0.47683 0.0
C3789 C 0.1744 0.99825 0.49505 0.0
C3790 C 0.14742 0.9826 0.47945 0.0
C3791 C 0.14472 0.99657 0.48951 0.0
H3792 H 0.27606 0.44316 0.74481 0.0
H3793 H 0.27841 0.3896 0.74362 0.0
H3794 H 0.25397 0.38794 0.76169 0.0
H3795 H 0.2315 0.40185 0.77733 0.0
H3796 H 0.23059 0.45544 0.78005 0.0
H3797 H 0.25496 0.45698 0.76207 0.0
C3798 C 0.27118 0.43114 0.74851 0.0
C3799 C 0.27884 0.41652 0.74277 0.0
C3800 C 0.25744 0.4303 0.75924 0.0
C3801 C 0.27265 0.40101 0.74787 0.0
C3802 C 0.25868 0.40007 0.75819 0.0
C3803 C 0.23672 0.41384 0.77406 0.0
C3804 C 0.22921 0.4285 0.77994 0.0
C3805 C 0.25092 0.41463 0.76389 0.0
C3806 C 0.23618 0.44397 0.77574 0.0
C3807 C 0.25007 0.44487 0.76538 0.0
H3808 H 0.81881 0.4761 0.0124 0.0
H3809 H 0.87223 0.4766 0.01646 0.0
H3810 H 0.87337 0.5017 0.99904 0.0
H3811 H 0.85884 0.52365 0.98262 0.0
H3812 H 0.80546 0.52112 0.97752 0.0
H3813 H 0.80467 0.49669 0.9953 0.0
C3814 C 0.83072 0.48174 0.00957 0.0
C3815 C 0.8454 0.47464 0.01587 0.0
C3816 C 0.83128 0.4958 0.99926 0.0
C3817 C 0.86075 0.4819 0.0118 0.0
C3818 C 0.86139 0.49623 0.00185 0.0
C3819 C 0.84708 0.51769 0.98539 0.0
C3820 C 0.83222 0.52426 0.97875 0.0
C3821 C 0.8467 0.50332 0.99548 0.0
C3822 C 0.81708 0.51633 0.98236 0.0
C3823 C 0.81659 0.50236 0.9926 0.0
H3824 H 0.77461 0.10352 0.26723 0.0
H3825 H 0.77657 0.04997 0.27061 0.0
H3826 H 0.75202 0.04772 0.25297 0.0
H3827 H 0.73022 0.06084 0.23617 0.0
H3828 H 0.72683 0.11432 0.23411 0.0
H3829 H 0.75171 0.11675 0.25154 0.0
C3830 C 0.7696 0.09138 0.26416 0.0
C3831 C 0.77744 0.07694 0.27018 0.0
C3832 C 0.75529 0.09016 0.25414 0.0
C3833 C 0.77075 0.06129 0.26619 0.0
C3834 C 0.75674 0.05997 0.25603 0.0
C3835 C 0.73499 0.07302 0.23948 0.0
C3836 C 0.72686 0.08738 0.23374 0.0
C3837 C 0.74899 0.0743 0.24984 0.0
C3838 C 0.73295 0.10309 0.23836 0.0
C3839 C 0.74715 0.10448 0.24832 0.0
H3840 H 0.52183 0.14584 0.01982 0.0
H3841 H 0.52453 0.19943 0.0218 0.0
H3842 H 0.50813 0.20145 0.9964 0.0
H3843 H 0.49254 0.18814 0.97386 0.0
H3844 H 0.49105 0.13463 0.97055 0.0
H3845 H 0.5074 0.13241 0.99618 0.0
C3846 C 0.51887 0.15794 0.01463 0.0
C3847 C 0.52435 0.17246 0.02273 0.0
C3848 C 0.50959 0.15903 0.99982 0.0
C3849 C 0.52053 0.18805 0.0158 0.0
C3850 C 0.51108 0.18924 0.00129 0.0
C3851 C 0.49577 0.17599 0.97878 0.0
C3852 C 0.49049 0.16157 0.97044 0.0
C3853 C 0.50545 0.17483 0.99326 0.0
C3854 C 0.49497 0.14591 0.97679 0.0
C3855 C 0.5043 0.14464 0.99144 0.0
H3856 H 0.99144 0.85482 0.52252 0.0
H3857 H 0.98134 0.8021 0.52211 0.0
H3858 H 0.00168 0.79809 0.50004 0.0
H3859 H 0.02203 0.80942 0.48054 0.0
H3860 H 0.03056 0.8623 0.47865 0.0
H3861 H 0.01132 0.86642 0.50198 0.0
C3862 C 0.99371 0.84249 0.51755 0.0
C3863 C 0.9849 0.82878 0.52396 0.0
C3864 C 0.00522 0.84029 0.50453 0.0
C3865 C 0.98786 0.81288 0.51733 0.0
C3866 C 0.99956 0.81054 0.50476 0.0
C3867 C 0.01983 0.82183 0.48538 0.0
C3868 C 0.02787 0.83551 0.4781 0.0
C3869 C 0.0083 0.82413 0.49827 0.0
C3870 C 0.02459 0.85157 0.48418 0.0
C3871 C 0.01356 0.85392 0.49746 0.0
H3872 H 0.43942 0.23967 0.77283 0.0
H3873 H 0.38599 0.23794 0.77588 0.0
H3874 H 0.38386 0.257 0.75206 0.0
H3875 H 0.39756 0.27399 0.72997 0.0
H3876 H 0.45116 0.27684 0.72924 0.0
H3877 H 0.45283 0.25765 0.7525 0.0
C3878 C 0.42729 0.24342 0.76825 0.0
C3879 C 0.41289 0.23725 0.77593 0.0
C3880 C 0.42621 0.25467 0.75496 0.0
C3881 C 0.39727 0.24249 0.7701 0.0
C3882 C 0.39606 0.25337 0.75648 0.0
C3883 C 0.40956 0.27045 0.735 0.0
C3884 C 0.42421 0.27685 0.7278 0.0
C3885 C 0.41048 0.25954 0.74876 0.0
C3886 C 0.43968 0.27222 0.73454 0.0
C3887 C 0.44068 0.26116 0.74783 0.0
H3888 H 0.02065 0.64671 0.02392 0.0
H3889 H 0.02534 0.70014 0.02195 0.0
H3890 H 0.00637 0.70116 0.99829 0.0
H3891 H 0.98803 0.68701 0.97836 0.0
H3892 H 0.98486 0.6335 0.97863 0.0
H3893 H 0.0035 0.63234 0.00274 0.0
C3894 C 0.01759 0.65855 0.01823 0.0
C3895 C 0.0244 0.67333 0.02474 0.0
C3896 C 0.00682 0.65904 0.0044 0.0
C3897 C 0.02038 0.68857 0.01716 0.0
C3898 C 0.00944 0.68918 0.00367 0.0
C3899 C 0.99135 0.67511 0.98378 0.0
C3900 C 0.98491 0.66038 0.9769 0.0
C3901 C 0.00248 0.67453 0.99727 0.0
C3902 C 0.98959 0.64502 0.98379 0.0
C3903 C 1.00027 0.64435 0.99755 0.0
H3904 H 0.10156 0.76672 0.27477 0.0
H3905 H 0.04893 0.77681 0.27207 0.0
H3906 H 0.04615 0.75733 0.24897 0.0
H3907 H 0.05853 0.73701 0.22977 0.0
H3908 H 0.11138 0.72822 0.23106 0.0
H3909 H 0.11422 0.74742 0.25456 0.0
C3910 C 0.08952 0.76475 0.26904 0.0
C3911 C 0.07548 0.7732 0.27517 0.0
C3912 C 0.08801 0.75359 0.25563 0.0
C3913 C 0.05996 0.77055 0.26755 0.0
C3914 C 0.05833 0.75931 0.2544 0.0
C3915 C 0.07063 0.73919 0.23532 0.0
C3916 C 0.08469 0.73105 0.22891 0.0
C3917 C 0.07223 0.75065 0.24844 0.0
C3918 C 0.10037 0.73428 0.23591 0.0
C3919 C 0.10199 0.74528 0.24929 0.0
H3920 H 0.48872 0.81448 0.02776 0.0
H3921 H 0.48337 0.86778 0.02961 0.0
H3922 H 0.50216 0.87064 0.00574 0.0
H3923 H 0.5196 0.85767 0.98384 0.0
H3924 H 0.52642 0.80441 0.98395 0.0
H3925 H 0.50772 0.80183 0.00763 0.0
C3926 C 0.49166 0.82672 0.02291 0.0
C3927 C 0.48453 0.84089 0.03021 0.0
C3928 C 0.5028 0.82825 0.00958 0.0
C3929 C 0.48869 0.8567 0.02409 0.0
C3930 C 0.49941 0.85832 0.01046 0.0
C3931 C 0.51706 0.84554 0.98915 0.0
C3932 C 0.52432 0.83125 0.9821 0.0
C3933 C 0.50648 0.84415 0.00304 0.0
C3934 C 0.52105 0.81561 0.98919 0.0
C3935 C 0.51028 0.8141 0.00268 0.0
H3936 H 0.56621 0.23355 0.22937 0.0
H3937 H 0.61901 0.22469 0.22749 0.0
H3938 H 0.62306 0.24308 0.25158 0.0
H3939 H 0.61131 0.2621 0.27313 0.0
H3940 H 0.55855 0.27205 0.27273 0.0
H3941 H 0.55482 0.25297 0.24961 0.0
C3942 C 0.57861 0.2355 0.2343 0.0
C3943 C 0.59226 0.22759 0.2268 0.0
C3944 C 0.58086 0.24646 0.24771 0.0
C3945 C 0.60828 0.23056 0.23313 0.0
C3946 C 0.61059 0.24111 0.24687 0.0
C3947 C 0.59904 0.26011 0.26791 0.0
C3948 C 0.58524 0.26855 0.27471 0.0
C3949 C 0.59696 0.24922 0.25425 0.0
C3950 C 0.56942 0.26586 0.26774 0.0
C3951 C 0.56723 0.25486 0.25453 0.0
H3952 H 0.73576 0.77477 0.9412 0.0
H3953 H 0.73088 0.77831 0.88796 0.0
H3954 H 0.74976 0.75457 0.8845 0.0
H3955 H 0.7677 0.73266 0.89682 0.0
H3956 H 0.77396 0.73101 0.95009 0.0
H3957 H 0.75468 0.75417 0.95332 0.0
C3958 C 0.73874 0.77026 0.92884 0.0
C3959 C 0.73177 0.77811 0.91486 0.0
C3960 C 0.74999 0.757 0.92696 0.0
C3961 C 0.73603 0.77239 0.89892 0.0
C3962 C 0.74684 0.75884 0.89694 0.0
C3963 C 0.7649 0.73745 0.90911 0.0
C3964 C 0.77226 0.73006 0.92319 0.0
C3965 C 0.75393 0.75105 0.91089 0.0
C3966 C 0.76857 0.73649 0.93903 0.0
C3967 C 0.75746 0.7497 0.94091 0.0
H3968 H 0.23098 0.76933 0.39756 0.0
H3969 H 0.22291 0.76794 0.45057 0.0
H3970 H 0.24243 0.74488 0.45317 0.0
H3971 H 0.2623 0.7254 0.44063 0.0
H3972 H 0.26911 0.725 0.3875 0.0
H3973 H 0.24971 0.74842 0.38469 0.0
C3974 C 0.23342 0.76389 0.40965 0.0
C3975 C 0.22548 0.77043 0.42386 0.0
C3976 C 0.24456 0.75037 0.41106 0.0
C3977 C 0.22874 0.76315 0.43942 0.0
C3978 C 0.23999 0.74999 0.44094 0.0
C3979 C 0.2596 0.73049 0.42843 0.0
C3980 C 0.2673 0.72363 0.41431 0.0
C3981 C 0.24808 0.74359 0.42689 0.0
C3982 C 0.2634 0.73013 0.39857 0.0
C3983 C 0.2523 0.74351 0.39696 0.0
H3984 H 0.7615 0.77854 0.56419 0.0
H3985 H 0.76916 0.77882 0.61723 0.0
H3986 H 0.75127 0.75422 0.62002 0.0
H3987 H 0.73338 0.73255 0.60713 0.0
H3988 H 0.72457 0.7341 0.5542 0.0
H3989 H 0.74286 0.7581 0.55165 0.0
C3990 C 0.75936 0.77316 0.57637 0.0
C3991 C 0.76682 0.78035 0.59046 0.0
C3992 C 0.74873 0.7594 0.57789 0.0
C3993 C 0.76363 0.77345 0.60618 0.0
C3994 C 0.75338 0.75941 0.60777 0.0
C3995 C 0.73543 0.73821 0.59506 0.0
C3996 C 0.72762 0.73149 0.58087 0.0
C3997 C 0.74584 0.75227 0.59369 0.0
C3998 C 0.73033 0.73902 0.56534 0.0
C3999 C 0.74086 0.75273 0.56384 0.0
H4000 H 0.22943 0.73015 0.0639 0.0
H4001 H 0.22533 0.72557 0.11712 0.0
H4002 H 0.24308 0.75006 0.12082 0.0
H4003 H 0.26008 0.77276 0.10879 0.0
H4004 H 0.26537 0.7758 0.05548 0.0
H4005 H 0.24706 0.75196 0.052 0.0
C4006 C 0.2323 0.73461 0.0763 0.0
C4007 C 0.22592 0.72618 0.0902 0.0
C4008 C 0.2429 0.74837 0.07833 0.0
C4009 C 0.23002 0.7319 0.10621 0.0
C4010 C 0.24021 0.74588 0.10833 0.0
C4011 C 0.25727 0.76814 0.09644 0.0
C4012 C 0.26412 0.77611 0.08244 0.0
C4013 C 0.2468 0.75419 0.09448 0.0
C4014 C 0.26038 0.76991 0.0665 0.0
C4015 C 0.24982 0.75629 0.06447 0.0
H4016 H 0.14709 0.48024 0.98434 0.0
H4017 H 0.19974 0.48328 0.97459 0.0
H4018 H 0.20229 0.50628 0.99422 0.0
H4019 H 0.18968 0.52551 0.01434 0.0
H4020 H 0.13676 0.52427 0.0225 0.0
H4021 H 0.13417 0.50056 0.0035 0.0
C4022 C 0.15908 0.48601 0.98647 0.0
C4023 C 0.17319 0.48003 0.97802 0.0
C4024 C 0.16044 0.49947 0.99762 0.0
C4025 C 0.18865 0.4877 0.98083 0.0
C4026 C 0.19015 0.5008 0.99215 0.0
C4027 C 0.17762 0.51993 0.01205 0.0
C4028 C 0.16346 0.52643 0.01996 0.0
C4029 C 0.17616 0.50673 1.00067 0.0
C4030 C 0.14784 0.51938 0.01661 0.0
C4031 C 0.14636 0.50586 0.00573 0.0
H4032 H 0.27509 0.89297 0.23911 0.0
H4033 H 0.27531 0.94652 0.23488 0.0
H4034 H 0.25213 0.94847 0.25413 0.0
H4035 H 0.23151 0.93524 0.27193 0.0
H4036 H 0.22926 0.88176 0.27502 0.0
H4037 H 0.25349 0.8795 0.25664 0.0
C4038 C 0.27001 0.90503 0.24239 0.0
C4039 C 0.27694 0.91956 0.23551 0.0
C4040 C 0.25636 0.9061 0.25337 0.0
C4041 C 0.27017 0.93511 0.23985 0.0
C4042 C 0.25694 0.93627 0.25095 0.0
C4043 C 0.23643 0.92308 0.26875 0.0
C4044 C 0.22874 0.9087 0.27498 0.0
C4045 C 0.24994 0.92188 0.25779 0.0
C4046 C 0.23505 0.89303 0.27045 0.0
C4047 C 0.24886 0.89173 0.2599 0.0
H4048 H 0.81613 0.02579 0.48105 0.0
H4049 H 0.86916 0.02722 0.47364 0.0
H4050 H 0.87238 0.0021 0.49077 0.0
H4051 H 0.85976 0.9796 0.50798 0.0
H4052 H 0.80676 0.98032 0.5165 0.0
H4053 H 0.80393 0.00471 0.49893 0.0
C4054 C 0.8284 0.02055 0.48308 0.0
C4055 C 0.84236 0.02818 0.47593 0.0
C4056 C 0.83016 0.00652 0.49326 0.0
C4057 C 0.85821 0.02148 0.47897 0.0
C4058 C 0.86004 0.00714 0.48877 0.0
C4059 C 0.84764 0.98517 0.506 0.0
C4060 C 0.83351 0.9781 0.51355 0.0
C4061 C 0.84607 0.99953 0.49602 0.0
C4062 C 0.81788 0.98552 0.51096 0.0
C4063 C 0.8162 0.99946 0.50083 0.0
H4064 H 0.72753 0.60968 0.73471 0.0
H4065 H 0.73071 0.55678 0.72582 0.0
H4066 H 0.75388 0.55464 0.74509 0.0
H4067 H 0.77317 0.56741 0.76468 0.0
H4068 H 0.77229 0.62044 0.77242 0.0
H4069 H 0.74835 0.62292 0.75356 0.0
C4070 C 0.73338 0.59773 0.73694 0.0
C4071 C 0.72732 0.58342 0.72879 0.0
C4072 C 0.74705 0.59657 0.74796 0.0
C4073 C 0.73511 0.56804 0.73179 0.0
C4074 C 0.74835 0.56675 0.74291 0.0
C4075 C 0.76766 0.57952 0.76235 0.0
C4076 C 0.77431 0.59369 0.77013 0.0
C4077 C 0.75435 0.58088 0.75113 0.0
C4078 C 0.7673 0.60933 0.76667 0.0
C4079 C 0.75364 0.61074 0.75586 0.0
H4080 H 0.48879 0.69062 0.48167 0.0
H4081 H 0.48449 0.63719 0.48193 0.0
H4082 H 0.50259 0.63572 0.50649 0.0
H4083 H 0.52012 0.64988 0.52777 0.0
H4084 H 0.52554 0.70326 0.52549 0.0
H4085 H 0.50666 0.70446 0.50191 0.0
C4086 C 0.49167 0.67865 0.48718 0.0
C4087 C 0.48514 0.66406 0.4801 0.0
C4088 C 0.50245 0.67789 0.50091 0.0
C4089 C 0.48929 0.64862 0.48721 0.0
C4090 C 0.49967 0.64778 0.50123 0.0
C4091 C 0.51719 0.66173 0.52206 0.0
C4092 C 0.5243 0.67645 0.52842 0.0
C4093 C 0.50643 0.66235 0.50816 0.0
C4094 C 0.5204 0.69171 0.52082 0.0
C4095 C 0.50951 0.69245 0.50734 0.0
H4096 H 0.99846 0.31563 0.02607 0.0
H4097 H 0.99256 0.36892 0.02638 0.0
H4098 H 0.01028 0.37114 0.00164 0.0
H4099 H 0.02698 0.35761 0.97951 0.0
H4100 H 0.03396 0.30437 0.98082 0.0
H4101 H 0.01644 0.30246 0.00542 0.0
C4102 C 1.00102 0.32773 0.02069 0.0
C4103 C 0.99406 0.34207 0.02785 0.0
C4104 C 0.01149 0.32891 0.00681 0.0
C4105 C 0.99774 0.3577 0.021 0.0
C4106 C 0.00786 0.35896 0.00687 0.0
C4107 C 0.02474 0.34563 0.98527 0.0
C4108 C 0.03172 0.33115 0.97829 0.0
C4109 C 0.01475 0.34461 0.99962 0.0
C4110 C 0.02881 0.31572 0.98595 0.0
C4111 C 0.01871 0.31459 0.99999 0.0
H4112 H 0.43626 0.76441 0.22824 0.0
H4113 H 0.38269 0.76439 0.2261 0.0
H4114 H 0.38153 0.74801 0.25174 0.0
H4115 H 0.39584 0.73381 0.27489 0.0
H4116 H 0.44947 0.73245 0.27584 0.0
H4117 H 0.45052 0.74913 0.25051 0.0
C4118 C 0.42433 0.76087 0.23344 0.0
C4119 C 0.40958 0.76572 0.22541 0.0
C4120 C 0.42378 0.75113 0.24792 0.0
C4121 C 0.39422 0.76082 0.2321 0.0
C4122 C 0.39355 0.75146 0.24675 0.0
C4123 C 0.40774 0.73713 0.2695 0.0
C4124 C 0.42255 0.73196 0.27727 0.0
C4125 C 0.40826 0.74654 0.25477 0.0
C4126 C 0.43788 0.73623 0.27008 0.0
C4127 C 0.4385 0.74583 0.25563 0.0
H4128 H 0.98759 0.18744 0.47703 0.0
H4129 H 0.98676 0.13386 0.47496 0.0
H4130 H 0.00304 0.13244 0.50071 0.0
H4131 H 0.018 0.14665 0.52368 0.0
H4132 H 0.02016 0.20029 0.52407 0.0
H4133 H 0.00296 0.20146 0.49919 0.0
C4134 C 0.99087 0.17545 0.48228 0.0
C4135 C 0.98587 0.16079 0.47419 0.0
C4136 C 1.00057 0.17474 0.49678 0.0
C4137 C 0.99044 0.14534 0.48099 0.0
C4138 C 0.99976 0.14452 0.4957 0.0
C4139 C 0.01467 0.15856 0.51829 0.0
C4140 C 0.02037 0.17335 0.52573 0.0
C4141 C 0.00498 0.15916 0.50368 0.0
C4142 C 0.01605 0.18871 0.51855 0.0
C4143 C 0.00615 0.18941 0.50433 0.0
H4144 H 0.10726 0.23952 0.73043 0.0
H4145 H 0.05413 0.23202 0.73193 0.0
H4146 H 0.05154 0.25272 0.7538 0.0
H4147 H 0.06406 0.27286 0.77269 0.0
H4148 H 0.11724 0.27906 0.77373 0.0
H4149 H 0.12014 0.25916 0.7507 0.0
C4150 C 0.09516 0.24241 0.73562 0.0
C4151 C 0.08092 0.2342 0.72952 0.0
C4152 C 0.09374 0.2542 0.74858 0.0
C4153 C 0.06532 0.23802 0.73644 0.0
C4154 C 0.06378 0.24995 0.74891 0.0
C4155 C 0.07628 0.27 0.76776 0.0
C4156 C 0.09039 0.27761 0.77469 0.0
C4157 C 0.07786 0.25813 0.75505 0.0
C4158 C 0.10618 0.27345 0.76847 0.0
C4159 C 0.10783 0.26204 0.75535 0.0
H4160 H 0.48685 0.36064 0.52021 0.0
H4161 H 0.48028 0.30739 0.52176 0.0
H4162 H 0.4989 0.30411 0.49809 0.0
H4163 H 0.51744 0.31623 0.47719 0.0
H4164 H 0.52245 0.36949 0.47379 0.0
H4165 H 0.50413 0.37297 0.49791 0.0
C4166 C 0.48946 0.34835 0.51528 0.0
C4167 C 0.48225 0.33428 0.52276 0.0
C4168 C 0.49997 0.34656 0.5014 0.0
C4169 C 0.4856 0.31843 0.51618 0.0
C4170 C 0.49632 0.31653 0.50269 0.0
C4171 C 0.51456 0.32859 0.48179 0.0
C4172 C 0.52141 0.34258 0.47392 0.0
C4173 C 0.50366 0.33048 0.49528 0.0
C4174 C 0.51733 0.35854 0.47973 0.0
C4175 C 0.50687 0.36052 0.4935 0.0
H4176 H 0.56321 0.76769 0.77895 0.0
H4177 H 0.61567 0.77845 0.77991 0.0
H4178 H 0.62005 0.75984 0.75608 0.0
H4179 H 0.60869 0.74043 0.73486 0.0
H4180 H 0.55641 0.72837 0.73599 0.0
H4181 H 0.55227 0.74737 0.75917 0.0
C4182 C 0.57559 0.76606 0.77385 0.0
C4183 C 0.58906 0.77461 0.78097 0.0
C4184 C 0.57805 0.75496 0.76061 0.0
C4185 C 0.60509 0.77208 0.77453 0.0
C4186 C 0.60759 0.76142 0.76094 0.0
C4187 C 0.59644 0.7419 0.74028 0.0
C4188 C 0.58288 0.73299 0.73366 0.0
C4189 C 0.59414 0.75274 0.75389 0.0
C4190 C 0.56709 0.73497 0.74087 0.0
C4191 C 0.56467 0.74593 0.75409 0.0
H4192 H 0.47587 0.49237 0.68763 0.0
H4193 H 0.47715 0.48292 0.63491 0.0
H4194 H 0.5011 0.50153 0.63199 0.0
H4195 H 0.52183 0.52045 0.64458 0.0
H4196 H 0.51895 0.53133 0.69704 0.0
H4197 H 0.49542 0.51243 0.69987 0.0
C4198 C 0.48149 0.49431 0.67553 0.0
C4199 C 0.47494 0.48612 0.66154 0.0
C4200 C 0.49488 0.50543 0.67388 0.0
C4201 C 0.48206 0.48902 0.64587 0.0
C4202 C 0.49573 0.49968 0.6442 0.0
C4203 C 0.51596 0.51876 0.6566 0.0
C4204 C 0.52219 0.52728 0.67058 0.0
C4205 C 0.50224 0.50798 0.65812 0.0
C4206 C 0.51439 0.52501 0.68605 0.0
C4207 C 0.50097 0.51412 0.68772 0.0
H4208 H 0.47808 0.98946 0.18516 0.0
H4209 H 0.47713 0.9833 0.13194 0.0
H4210 H 0.50185 1.00107 0.12938 0.0
H4211 H 0.52394 0.01826 0.14259 0.0
H4212 H 0.52294 0.02552 0.19578 0.0
H4213 H 0.49874 0.00754 0.198 0.0
C4214 C 0.48333 0.99191 0.17299 0.0
C4215 C 0.47596 0.9849 0.15878 0.0
C4216 C 0.49715 0.00245 0.17161 0.0
C4217 C 0.48267 0.9885 0.14307 0.0
C4218 C 0.49678 0.99866 0.14162 0.0
C4219 C 0.51835 0.01595 0.15463 0.0
C4220 C 0.5253 0.02321 0.169 0.0
C4221 C 0.50415 0.00572 0.15583 0.0
C4222 C 0.51784 0.02018 0.18451 0.0
C4223 C 0.50402 0.00982 0.18582 0.0
H4224 H 0.47903 0.52179 0.35812 0.0
H4225 H 0.48057 0.52666 0.30469 0.0
H4226 H 0.50474 0.5085 0.30348 0.0
H4227 H 0.52536 0.49099 0.31734 0.0
H4228 H 0.52567 0.48734 0.37078 0.0
H4229 H 0.5009 0.50513 0.37227 0.0
C4230 C 0.48473 0.51892 0.34625 0.0
C4231 C 0.47795 0.52558 0.33152 0.0
C4232 C 0.4989 0.50858 0.34562 0.0
C4233 C 0.48554 0.52181 0.31623 0.0
C4234 C 0.49935 0.51134 0.3155 0.0
C4235 C 0.51994 0.494 0.32931 0.0
C4236 C 0.52718 0.4877 0.34391 0.0
C4237 C 0.50607 0.50459 0.33007 0.0
C4238 C 0.52025 0.49199 0.35936 0.0
C4239 C 0.50611 0.50217 0.36021 0.0
H4240 H 0.52052 0.98376 0.85759 0.0
H4241 H 0.51869 0.97236 0.80516 0.0
H4242 H 0.49496 0.9908 0.80171 0.0
H4243 H 0.475 0.01056 0.81322 0.0
H4244 H 0.47501 0.02108 0.86576 0.0
H4245 H 0.49915 0.00271 0.86954 0.0
C4246 C 0.51484 0.98525 0.84546 0.0
C4247 C 0.52145 0.97668 0.83165 0.0
C4248 C 0.50094 0.99583 0.84354 0.0
C4249 C 0.51388 0.9787 0.81602 0.0
C4250 C 0.50032 0.98934 0.814 0.0
C4251 C 0.48033 0.00892 0.8255 0.0
C4252 C 0.47338 0.01735 0.83915 0.0
C4253 C 0.49384 0.99805 0.82761 0.0
C4254 C 0.48021 0.0148 0.85504 0.0
C4255 C 0.49399 0.00429 0.85719 0.0
H4256 H 0.68839 0.97978 0.98557 0.0
H4257 H 0.63523 0.97624 0.97996 0.0
H4258 H 0.63154 1.00033 0.99838 0.0
H4259 H 0.64372 0.02266 0.01604 0.0
H4260 H 0.69697 0.02423 0.02275 0.0
H4261 H 0.70028 1.00065 0.00414 0.0
C4262 C 0.67599 0.98435 0.98829 0.0
C4263 C 0.66212 0.97641 0.98124 0.0
C4264 C 0.67398 0.99781 0.99923 0.0
C4265 C 0.64612 0.98223 0.98517 0.0
C4266 C 0.64401 0.99598 0.99572 0.0
C4267 C 0.65601 0.01774 0.0135 0.0
C4268 C 0.67006 0.02528 0.0208 0.0
C4269 C 0.65788 0.00389 0.00286 0.0
C4270 C 0.68591 0.01869 0.01741 0.0
C4271 C 0.68786 0.00522 0.00668 0.0
H4272 H 0.7281 0.39447 0.27081 0.0
H4273 H 0.72859 0.44791 0.27574 0.0
H4274 H 0.75304 0.4496 0.25794 0.0
H4275 H 0.77438 0.43602 0.24103 0.0
H4276 H 0.77582 0.38252 0.23782 0.0
H4277 H 0.7506 0.38066 0.25483 0.0
C4278 C 0.7336 0.40644 0.26795 0.0
C4279 C 0.72654 0.42104 0.27452 0.0
C4280 C 0.74799 0.40731 0.25801 0.0
C4281 C 0.73386 0.43649 0.2709 0.0
C4282 C 0.74781 0.43748 0.26067 0.0
C4283 C 0.76912 0.42396 0.244 0.0
C4284 C 0.77681 0.40944 0.23808 0.0
C4285 C 0.75498 0.42299 0.25416 0.0
C4286 C 0.77007 0.39388 0.24225 0.0
C4287 C 0.75566 0.39282 0.25195 0.0
H4288 H 0.35678 0.47834 0.51991 0.0
H4289 H 0.30317 0.47786 0.52215 0.0
H4290 H 0.30186 0.50183 0.50372 0.0
H4291 H 0.31576 0.52296 0.48677 0.0
H4292 H 0.36927 0.52525 0.48594 0.0
H4293 H 0.37083 0.50061 0.50385 0.0
C4294 C 0.34484 0.48355 0.5164 0.0
C4295 C 0.33011 0.47628 0.52242 0.0
C4296 C 0.34415 0.49763 0.50594 0.0
C4297 C 0.31473 0.48324 0.51782 0.0
C4298 C 0.31394 0.49693 0.50719 0.0
C4299 C 0.32776 0.51799 0.49043 0.0
C4300 C 0.34237 0.52576 0.48491 0.0
C4301 C 0.32854 0.50418 0.50112 0.0
C4302 C 0.35784 0.51941 0.49 0.0
C4303 C 0.35873 0.50534 0.50025 0.0
H4304 H 0.22474 0.10673 0.73968 0.0
H4305 H 0.22134 0.05315 0.73957 0.0
H4306 H 0.24656 0.05118 0.75617 0.0
H4307 H 0.26996 0.06436 0.77 0.0
H4308 H 0.27535 0.1177 0.76878 0.0
H4309 H 0.24905 0.12014 0.75344 0.0
C4310 C 0.22954 0.09468 0.74339 0.0
C4311 C 0.22122 0.08011 0.73842 0.0
C4312 C 0.24441 0.09359 0.75264 0.0
C4313 C 0.2276 0.06454 0.74315 0.0
C4314 C 0.242 0.06339 0.75267 0.0
C4315 C 0.26535 0.07655 0.76649 0.0
C4316 C 0.27451 0.09083 0.7706 0.0
C4317 C 0.25056 0.07779 0.75738 0.0
C4318 C 0.26849 0.10652 0.76575 0.0
C4319 C 0.25346 0.1079 0.75699 0.0
H4320 H 0.93723 0.23585 0.27335 0.0
H4321 H 0.88399 0.23016 0.27439 0.0
H4322 H 0.88145 0.24803 0.24971 0.0
H4323 H 0.89476 0.26531 0.22757 0.0
H4324 H 0.94806 0.27181 0.22868 0.0
H4325 H 0.95011 0.25376 0.25272 0.0
C4326 C 0.92505 0.23842 0.26814 0.0
C4327 C 0.91084 0.23151 0.27555 0.0
C4328 C 0.9237 0.24899 0.25432 0.0
C4329 C 0.89514 0.23526 0.26884 0.0
C4330 C 0.8937 0.24549 0.25474 0.0
C4331 C 0.90678 0.26281 0.23315 0.0
C4332 C 0.92122 0.26994 0.22622 0.0
C4333 C 0.90793 0.25246 0.24734 0.0
C4334 C 0.9367 0.26662 0.23369 0.0
C4335 C 0.93794 0.2562 0.24746 0.0
H4336 H 0.6889 0.52613 0.5172 0.0
H4337 H 0.63576 0.52569 0.52384 0.0
H4338 H 0.63348 0.50144 0.50543 0.0
H4339 H 0.64687 0.48021 0.48734 0.0
H4340 H 0.69994 0.48263 0.47958 0.0
H4341 H 0.7019 0.50624 0.4983 0.0
C4342 C 0.67683 0.52064 0.51472 0.0
C4343 C 0.66256 0.52752 0.52203 0.0
C4344 C 0.67558 0.5071 0.50375 0.0
C4345 C 0.64695 0.52052 0.51842 0.0
C4346 C 0.64565 0.50669 0.50787 0.0
C4347 C 0.65881 0.486 0.48967 0.0
C4348 C 0.67321 0.47957 0.48204 0.0
C4349 C 0.6599 0.49987 0.5004 0.0
C4350 C 0.68861 0.48729 0.48518 0.0
C4351 C 0.6898 0.50079 0.49598 0.0
H4352 H 0.72892 0.94003 0.76935 0.0
H4353 H 0.72599 0.88673 0.77435 0.0
H4354 H 0.75039 0.88346 0.75645 0.0
H4355 H 0.77257 0.89587 0.7392 0.0
H4356 H 0.77393 0.94914 0.73271 0.0
H4357 H 0.75013 0.9523 0.75119 0.0
C4358 C 0.73372 0.92771 0.7666 0.0
C4359 C 0.72582 0.91365 0.77328 0.0
C4360 C 0.74741 0.92592 0.7559 0.0
C4361 C 0.73193 0.89774 0.76937 0.0
C4362 C 0.74586 0.89587 0.75913 0.0
C4363 C 0.76759 0.90815 0.74179 0.0
C4364 C 0.77503 0.92224 0.7346 0.0
C4365 C 0.75368 0.90988 0.75227 0.0
C4366 C 0.76839 0.93807 0.738 0.0
C4367 C 0.75482 0.93991 0.74864 0.0
H4368 H 0.35926 0.9797 0.01455 0.0
H4369 H 0.30597 0.98115 0.02079 0.0
H4370 H 0.30426 0.00576 0.00335 0.0
H4371 H 0.31758 0.02685 0.98631 0.0
H4372 H 0.37091 0.02745 0.98118 0.0
H4373 H 0.37297 0.0021 0.99814 0.0
C4374 C 0.34732 0.98546 0.01209 0.0
C4375 C 0.33277 0.97857 0.01895 0.0
C4376 C 0.34642 0.99993 0.00221 0.0
C4377 C 0.31738 0.98622 0.01576 0.0
C4378 C 0.31635 1.00028 0.00572 0.0
C4379 C 0.32967 0.02139 0.98881 0.0
C4380 C 0.34405 0.02885 0.98237 0.0
C4381 C 0.33075 0.00721 0.99886 0.0
C4382 C 0.35965 0.02185 0.98598 0.0
C4383 C 0.36081 0.00738 0.99567 0.0
H4384 H 0.22788 0.609 0.2318 0.0
H4385 H 0.23009 0.55566 0.22593 0.0
H4386 H 0.25434 0.55444 0.24407 0.0
H4387 H 0.27462 0.5683 0.2621 0.0
H4388 H 0.27385 0.62171 0.26689 0.0
H4389 H 0.2493 0.62313 0.24883 0.0
C4390 C 0.23376 0.59714 0.23439 0.0
C4391 C 0.22713 0.58244 0.22751 0.0
C4392 C 0.24786 0.59651 0.2448 0.0
C4393 C 0.23494 0.56718 0.23097 0.0
C4394 C 0.24877 0.56644 0.24144 0.0
C4395 C 0.269 0.58025 0.25929 0.0
C4396 C 0.27588 0.59486 0.26601 0.0
C4397 C 0.25524 0.58099 0.24855 0.0
C4398 C 0.2687 0.61028 0.26196 0.0
C4399 C 0.2547 0.61109 0.2516 0.0
H4400 H 0.89575 0.73977 0.77506 0.0
H4401 H 0.94836 0.72959 0.77252 0.0
H4402 H 0.95074 0.74712 0.74787 0.0
H4403 H 0.93796 0.7654 0.72698 0.0
H4404 H 0.88507 0.77404 0.72811 0.0
H4405 H 0.8827 0.75718 0.75336 0.0
C4406 C 0.90771 0.74138 0.76908 0.0
C4407 C 0.92186 0.73342 0.77565 0.0
C4408 C 0.90896 0.75128 0.75469 0.0
C4409 C 0.93726 0.73551 0.76768 0.0
C4410 C 0.93866 0.7456 0.75362 0.0
C4411 C 0.92594 0.76367 0.73283 0.0
C4412 C 0.91174 0.77108 0.72582 0.0
C4413 C 0.92461 0.75358 0.74704 0.0
C4414 C 0.89619 0.76849 0.73333 0.0
C4415 C 0.89483 0.75885 0.74775 0.0
loop_
_geom_bond_atom_site_label_1
_geom_bond_atom_site_label_2
_geom_bond_distance
_geom_bond_site_symmetry_2
_ccdc_geom_bond_type
Co0 O1 2.216 . S
Co0 O2 2.091 . S
Co0 O4 2.004 . S
Co0 O10 2.021 . S
Co0 O12 2.137 . S
Co0 O13 2.244 . S
O1 Co0 2.216 . S
O1 C8 1.247 . S
O2 Co0 2.091 . S
O2 C8 1.261 . S
C3 O12 1.247 . S
C3 O13 1.272 . S
O4 Co0 2.004 . S
O4 C9 1.259 . S
Co5 O6 2.061 . S
Co5 O11 2.052 . S
Co5 O13 2.135 . S
O6 Co5 2.061 . S
O6 C9 1.235 . S
C7 O10 1.238 . S
C7 O11 1.241 . S
C8 O1 1.247 . S
C8 O2 1.261 . S
C9 O4 1.259 . S
C9 O6 1.235 . S
O10 Co0 2.021 . S
O10 C7 1.238 . S
O11 Co5 2.052 . S
O11 C7 1.241 . S
O12 Co0 2.137 . S
O12 C3 1.247 . S
O13 Co0 2.244 . S
O13 C3 1.272 . S
O13 Co5 2.135 . S
Co14 O15 2.216 . S
Co14 O16 2.091 . S
Co14 O18 2.004 . S
Co14 O24 2.021 . S
Co14 O26 2.137 . S
Co14 O27 2.244 . S
O15 Co14 2.216 . S
O15 C22 1.247 . S
O16 Co14 2.091 . S
O16 C22 1.261 . S
C17 O26 1.247 . S
C17 O27 1.272 . S
O18 Co14 2.004 . S
O18 C23 1.259 . S
Co19 O20 2.061 . S
Co19 O25 2.052 . S
Co19 O27 2.135 . S
O20 Co19 2.061 . S
O20 C23 1.235 . S
C21 O24 1.238 . S
C21 O25 1.241 . S
C22 O15 1.247 . S
C22 O16 1.261 . S
C23 O18 1.259 . S
C23 O20 1.235 . S
O24 Co14 2.021 . S
O24 C21 1.238 . S
O25 Co19 2.052 . S
O25 C21 1.241 . S
O26 Co14 2.137 . S
O26 C17 1.247 . S
O27 Co14 2.244 . S
O27 C17 1.272 . S
O27 Co19 2.135 . S
Co28 O29 2.216 . S
Co28 O30 2.105 . S
Co28 O32 2.004 . S
Co28 O38 2.021 . S
Co28 O40 2.137 . S
Co28 O41 2.244 . S
O29 Co28 2.216 . S
O29 C36 1.247 . S
O30 Co28 2.105 . S
O30 C36 1.267 . S
C31 O40 1.247 . S
C31 O41 1.272 . S
O32 Co28 2.004 . S
O32 C37 1.259 . S
Co33 O34 2.061 . S
Co33 O39 2.052 . S
Co33 O41 2.135 . S
O34 Co33 2.061 . S
O34 C37 1.235 . S
C35 O38 1.238 . S
C35 O39 1.241 . S
C36 O29 1.247 . S
C36 O30 1.267 . S
C37 O32 1.259 . S
C37 O34 1.235 . S
O38 Co28 2.021 . S
O38 C35 1.238 . S
O39 Co33 2.052 . S
O39 C35 1.241 . S
O40 Co28 2.137 . S
O40 C31 1.247 . S
O41 Co28 2.244 . S
O41 C31 1.272 . S
O41 Co33 2.135 . S
Co42 O43 2.216 . S
Co42 O44 2.091 . S
Co42 O46 2.004 . S
Co42 O52 2.021 . S
Co42 O54 2.137 . S
Co42 O55 2.244 . S
O43 Co42 2.216 . S
O43 C50 1.247 . S
O44 Co42 2.091 . S
O44 C50 1.261 . S
C45 O54 1.247 . S
C45 O55 1.272 . S
O46 Co42 2.004 . S
O46 C51 1.259 . S
Co47 O48 2.061 . S
Co47 O53 2.052 . S
Co47 O55 2.135 . S
O48 Co47 2.061 . S
O48 C51 1.235 . S
C49 O52 1.238 . S
C49 O53 1.241 . S
C50 O43 1.247 . S
C50 O44 1.261 . S
C51 O46 1.259 . S
C51 O48 1.235 . S
O52 Co42 2.021 . S
O52 C49 1.238 . S
O53 Co47 2.052 . S
O53 C49 1.241 . S
O54 Co42 2.137 . S
O54 C45 1.247 . S
O55 Co42 2.244 . S
O55 C45 1.272 . S
O55 Co47 2.135 . S
Co56 O57 2.216 . S
Co56 O58 2.091 . S
Co56 O60 2.004 . S
Co56 O66 2.021 . S
Co56 O68 2.137 . S
Co56 O69 2.244 . S
O57 Co56 2.216 . S
O57 C64 1.247 . S
O58 Co56 2.091 . S
O58 C64 1.261 . S
C59 O68 1.247 . S
C59 O69 1.272 . S
O60 Co56 2.004 . S
O60 C65 1.259 . S
Co61 O62 2.061 . S
Co61 O67 2.052 . S
Co61 O69 2.135 . S
O62 Co61 2.061 . S
O62 C65 1.235 . S
C63 O66 1.238 . S
C63 O67 1.241 . S
C64 O57 1.247 . S
C64 O58 1.261 . S
C65 O60 1.259 . S
C65 O62 1.235 . S
O66 Co56 2.021 . S
O66 C63 1.238 . S
O67 Co61 2.052 . S
O67 C63 1.241 . S
O68 Co56 2.137 . S
O68 C59 1.247 . S
O69 Co56 2.244 . S
O69 C59 1.272 . S
O69 Co61 2.135 . S
Co70 O71 2.216 . S
Co70 O72 2.091 . S
Co70 O74 2.004 . S
Co70 O80 2.021 . S
Co70 O82 2.137 . S
Co70 O83 2.244 . S
O71 Co70 2.216 . S
O71 C78 1.247 . S
O72 Co70 2.091 . S
O72 C78 1.261 . S
C73 O82 1.247 . S
C73 O83 1.272 . S
O74 Co70 2.004 . S
O74 C79 1.259 . S
Co75 O76 2.061 . S
Co75 O81 2.052 . S
Co75 O83 2.135 . S
O76 Co75 2.061 . S
O76 C79 1.235 . S
C77 O80 1.238 . S
C77 O81 1.241 . S
C78 O71 1.247 . S
C78 O72 1.261 . S
C79 O74 1.259 . S
C79 O76 1.235 . S
O80 Co70 2.021 . S
O80 C77 1.238 . S
O81 Co75 2.052 . S
O81 C77 1.241 . S
O82 Co70 2.137 . S
O82 C73 1.247 . S
O83 Co70 2.244 . S
O83 C73 1.272 . S
O83 Co75 2.135 . S
Co84 O85 2.216 . S
Co84 O86 2.105 . S
Co84 O88 2.004 . S
Co84 O94 2.021 . S
Co84 O96 2.137 . S
Co84 O97 2.244 . S
O85 Co84 2.216 . S
O85 C92 1.247 . S
O86 Co84 2.105 . S
O86 C92 1.267 . S
C87 O96 1.247 . S
C87 O97 1.272 . S
O88 Co84 2.004 . S
O88 C93 1.259 . S
Co89 O90 2.061 . S
Co89 O95 2.052 . S
Co89 O97 2.135 . S
O90 Co89 2.061 . S
O90 C93 1.235 . S
C91 O94 1.238 . S
C91 O95 1.241 . S
C92 O85 1.247 . S
C92 O86 1.267 . S
C93 O88 1.259 . S
C93 O90 1.235 . S
O94 Co84 2.021 . S
O94 C91 1.238 . S
O95 Co89 2.052 . S
O95 C91 1.241 . S
O96 Co84 2.137 . S
O96 C87 1.247 . S
O97 Co84 2.244 . S
O97 C87 1.272 . S
O97 Co89 2.135 . S
Co98 O99 2.216 . S
Co98 O100 2.091 . S
Co98 O102 2.004 . S
Co98 O108 2.021 . S
Co98 O110 2.137 . S
Co98 O111 2.244 . S
O99 Co98 2.216 . S
O99 C106 1.247 . S
O100 Co98 2.091 . S
O100 C106 1.261 . S
C101 O110 1.247 . S
C101 O111 1.272 . S
O102 Co98 2.004 . S
O102 C107 1.259 . S
Co103 O104 2.061 . S
Co103 O109 2.052 . S
Co103 O111 2.135 . S
O104 Co103 2.061 . S
O104 C107 1.235 . S
C105 O108 1.238 . S
C105 O109 1.241 . S
C106 O99 1.247 . S
C106 O100 1.261 . S
C107 O102 1.259 . S
C107 O104 1.235 . S
O108 Co98 2.021 . S
O108 C105 1.238 . S
O109 Co103 2.052 . S
O109 C105 1.241 . S
O110 Co98 2.137 . S
O110 C101 1.247 . S
O111 Co98 2.244 . S
O111 C101 1.272 . S
O111 Co103 2.135 . S
Co112 O113 2.216 . S
Co112 O114 2.091 . S
Co112 O116 2.004 . S
Co112 O122 2.021 . S
Co112 O124 2.137 . S
Co112 O125 2.244 . S
O113 Co112 2.216 . S
O113 C120 1.247 . S
O114 Co112 2.091 . S
O114 C120 1.261 . S
C115 O124 1.247 . S
C115 O125 1.272 . S
O116 Co112 2.004 . S
O116 C121 1.259 . S
Co117 O118 2.061 . S
Co117 O123 2.052 . S
Co117 O125 2.135 . S
O118 Co117 2.061 . S
O118 C121 1.235 . S
C119 O122 1.238 . S
C119 O123 1.241 . S
C120 O113 1.247 . S
C120 O114 1.261 . S
C121 O116 1.259 . S
C121 O118 1.235 . S
O122 Co112 2.021 . S
O122 C119 1.238 . S
O123 Co117 2.052 . S
O123 C119 1.241 . S
O124 Co112 2.137 . S
O124 C115 1.247 . S
O125 Co112 2.244 . S
O125 C115 1.272 . S
O125 Co117 2.135 . S
Co126 O127 2.216 . S
Co126 O128 2.091 . S
Co126 O130 2.004 . S
Co126 O136 2.021 . S
Co126 O138 2.137 . S
Co126 O139 2.244 . S
O127 Co126 2.216 . S
O127 C134 1.247 . S
O128 Co126 2.091 . S
O128 C134 1.261 . S
C129 O138 1.247 . S
C129 O139 1.272 . S
O130 Co126 2.004 . S
O130 C135 1.259 . S
Co131 O132 2.061 . S
Co131 O137 2.052 . S
Co131 O139 2.135 . S
O132 Co131 2.061 . S
O132 C135 1.235 . S
C133 O136 1.238 . S
C133 O137 1.241 . S
C134 O127 1.247 . S
C134 O128 1.261 . S
C135 O130 1.259 . S
C135 O132 1.235 . S
O136 Co126 2.021 . S
O136 C133 1.238 . S
O137 Co131 2.052 . S
O137 C133 1.241 . S
O138 Co126 2.137 . S
O138 C129 1.247 . S
O139 Co126 2.244 . S
O139 C129 1.272 . S
O139 Co131 2.135 . S
Co140 O141 2.216 . S
Co140 O142 2.104 . S
Co140 O144 2.004 . S
Co140 O150 2.021 . S
Co140 O152 2.137 . S
Co140 O153 2.244 . S
O141 Co140 2.216 . S
O141 C148 1.247 . S
O142 Co140 2.104 . S
O142 C148 1.267 . S
C143 O152 1.247 . S
C143 O153 1.272 . S
O144 Co140 2.004 . S
O144 C149 1.259 . S
Co145 O146 2.061 . S
Co145 O151 2.052 . S
Co145 O153 2.135 . S
O146 Co145 2.061 . S
O146 C149 1.235 . S
C147 O150 1.238 . S
C147 O151 1.241 . S
C148 O141 1.247 . S
C148 O142 1.267 . S
C149 O144 1.259 . S
C149 O146 1.235 . S
O150 Co140 2.021 . S
O150 C147 1.238 . S
O151 Co145 2.052 . S
O151 C147 1.241 . S
O152 Co140 2.137 . S
O152 C143 1.247 . S
O153 Co140 2.244 . S
O153 C143 1.272 . S
O153 Co145 2.135 . S
Co154 O155 2.216 . S
Co154 O156 2.091 . S
Co154 O158 2.004 . S
Co154 O164 2.021 . S
Co154 O166 2.137 . S
Co154 O167 2.244 . S
O155 Co154 2.216 . S
O155 C162 1.247 . S
O156 Co154 2.091 . S
O156 C162 1.261 . S
C157 O166 1.247 . S
C157 O167 1.272 . S
O158 Co154 2.004 . S
O158 C163 1.259 . S
Co159 O160 2.061 . S
Co159 O165 2.052 . S
Co159 O167 2.135 . S
O160 Co159 2.061 . S
O160 C163 1.235 . S
C161 O164 1.238 . S
C161 O165 1.241 . S
C162 O155 1.247 . S
C162 O156 1.261 . S
C163 O158 1.259 . S
C163 O160 1.235 . S
O164 Co154 2.021 . S
O164 C161 1.238 . S
O165 Co159 2.052 . S
O165 C161 1.241 . S
O166 Co154 2.137 . S
O166 C157 1.247 . S
O167 Co154 2.244 . S
O167 C157 1.272 . S
O167 Co159 2.135 . S
Co168 O169 2.216 . S
Co168 O170 2.091 . S
Co168 O172 2.004 . S
Co168 O178 2.021 . S
Co168 O180 2.137 . S
Co168 O181 2.244 . S
O169 Co168 2.216 . S
O169 C176 1.247 . S
O170 Co168 2.091 . S
O170 C176 1.261 . S
C171 O180 1.247 . S
C171 O181 1.272 . S
O172 Co168 2.004 . S
O172 C177 1.259 . S
Co173 O174 2.061 . S
Co173 O179 2.052 . S
Co173 O181 2.135 . S
O174 Co173 2.061 . S
O174 C177 1.235 . S
C175 O178 1.238 . S
C175 O179 1.241 . S
C176 O169 1.247 . S
C176 O170 1.261 . S
C177 O172 1.259 . S
C177 O174 1.235 . S
O178 Co168 2.021 . S
O178 C175 1.238 . S
O179 Co173 2.052 . S
O179 C175 1.241 . S
O180 Co168 2.137 . S
O180 C171 1.247 . S
O181 Co168 2.244 . S
O181 C171 1.272 . S
O181 Co173 2.135 . S
Co182 O183 2.216 . S
Co182 O184 2.091 . S
Co182 O186 2.004 . S
Co182 O192 2.021 . S
Co182 O194 2.137 . S
Co182 O195 2.244 . S
O183 Co182 2.216 . S
O183 C190 1.247 . S
O184 Co182 2.091 . S
O184 C190 1.261 . S
C185 O194 1.247 . S
C185 O195 1.272 . S
O186 Co182 2.004 . S
O186 C191 1.259 . S
Co187 O188 2.061 . S
Co187 O193 2.052 . S
Co187 O195 2.135 . S
O188 Co187 2.061 . S
O188 C191 1.235 . S
C189 O192 1.238 . S
C189 O193 1.241 . S
C190 O183 1.247 . S
C190 O184 1.261 . S
C191 O186 1.259 . S
C191 O188 1.235 . S
O192 Co182 2.021 . S
O192 C189 1.238 . S
O193 Co187 2.052 . S
O193 C189 1.241 . S
O194 Co182 2.137 . S
O194 C185 1.247 . S
O195 Co182 2.244 . S
O195 C185 1.272 . S
O195 Co187 2.135 . S
Co196 O197 2.216 . S
Co196 O198 2.104 . S
Co196 O200 2.004 . S
Co196 O206 2.021 . S
Co196 O208 2.137 . S
Co196 O209 2.244 . S
O197 Co196 2.216 . S
O197 C204 1.247 . S
O198 Co196 2.104 . S
O198 C204 1.267 . S
C199 O208 1.247 . S
C199 O209 1.272 . S
O200 Co196 2.004 . S
O200 C205 1.259 . S
Co201 O202 2.061 . S
Co201 O207 2.052 . S
Co201 O209 2.135 . S
O202 Co201 2.061 . S
O202 C205 1.235 . S
C203 O206 1.238 . S
C203 O207 1.241 . S
C204 O197 1.247 . S
C204 O198 1.267 . S
C205 O200 1.259 . S
C205 O202 1.235 . S
O206 Co196 2.021 . S
O206 C203 1.238 . S
O207 Co201 2.052 . S
O207 C203 1.241 . S
O208 Co196 2.137 . S
O208 C199 1.247 . S
O209 Co196 2.244 . S
O209 C199 1.272 . S
O209 Co201 2.135 . S
Co210 O211 2.216 . S
Co210 O212 2.091 . S
Co210 O214 2.004 . S
Co210 O220 2.021 . S
Co210 O222 2.137 . S
Co210 O223 2.244 . S
O211 Co210 2.216 . S
O211 C218 1.247 . S
O212 Co210 2.091 . S
O212 C218 1.261 . S
C213 O222 1.247 . S
C213 O223 1.272 . S
O214 Co210 2.004 . S
O214 C219 1.259 . S
Co215 O216 2.061 . S
Co215 O221 2.052 . S
Co215 O223 2.135 . S
O216 Co215 2.061 . S
O216 C219 1.235 . S
C217 O220 1.238 . S
C217 O221 1.241 . S
C218 O211 1.247 . S
C218 O212 1.261 . S
C219 O214 1.259 . S
C219 O216 1.235 . S
O220 Co210 2.021 . S
O220 C217 1.238 . S
O221 Co215 2.052 . S
O221 C217 1.241 . S
O222 Co210 2.137 . S
O222 C213 1.247 . S
O223 Co210 2.244 . S
O223 C213 1.272 . S
O223 Co215 2.135 . S
Co224 O225 2.216 . S
Co224 O226 2.091 . S
Co224 O228 2.004 . S
Co224 O234 2.021 . S
Co224 O236 2.137 . S
Co224 O237 2.244 . S
O225 Co224 2.216 . S
O225 C232 1.247 . S
O226 Co224 2.091 . S
O226 C232 1.261 . S
C227 O236 1.247 . S
C227 O237 1.272 . S
O228 Co224 2.004 . S
O228 C233 1.259 . S
Co229 O230 2.061 . S
Co229 O235 2.052 . S
Co229 O237 2.135 . S
O230 Co229 2.061 . S
O230 C233 1.235 . S
C231 O234 1.238 . S
C231 O235 1.241 . S
C232 O225 1.247 . S
C232 O226 1.261 . S
C233 O228 1.259 . S
C233 O230 1.235 . S
O234 Co224 2.021 . S
O234 C231 1.238 . S
O235 Co229 2.052 . S
O235 C231 1.241 . S
O236 Co224 2.137 . S
O236 C227 1.247 . S
O237 Co224 2.244 . S
O237 C227 1.272 . S
O237 Co229 2.135 . S
Co238 O239 2.216 . S
Co238 O240 2.104 . S
Co238 O242 2.004 . S
Co238 O248 2.021 . S
Co238 O250 2.137 . S
Co238 O251 2.244 . S
O239 Co238 2.216 . S
O239 C246 1.247 . S
O240 Co238 2.104 . S
O240 C246 1.267 . S
C241 O250 1.247 . S
C241 O251 1.272 . S
O242 Co238 2.004 . S
O242 C247 1.259 . S
Co243 O244 2.061 . S
Co243 O249 2.052 . S
Co243 O251 2.135 . S
O244 Co243 2.061 . S
O244 C247 1.235 . S
C245 O248 1.238 . S
C245 O249 1.241 . S
C246 O239 1.247 . S
C246 O240 1.267 . S
C247 O242 1.259 . S
C247 O244 1.235 . S
O248 Co238 2.021 . S
O248 C245 1.238 . S
O249 Co243 2.052 . S
O249 C245 1.241 . S
O250 Co238 2.137 . S
O250 C241 1.247 . S
O251 Co238 2.244 . S
O251 C241 1.272 . S
O251 Co243 2.135 . S
Co252 O253 2.216 . S
Co252 O254 2.091 . S
Co252 O256 2.004 . S
Co252 O262 2.021 . S
Co252 O264 2.137 . S
Co252 O265 2.244 . S
O253 Co252 2.216 . S
O253 C260 1.247 . S
O254 Co252 2.091 . S
O254 C260 1.261 . S
C255 O264 1.247 . S
C255 O265 1.272 . S
O256 Co252 2.004 . S
O256 C261 1.259 . S
Co257 O258 2.061 . S
Co257 O263 2.052 . S
Co257 O265 2.135 . S
O258 Co257 2.061 . S
O258 C261 1.235 . S
C259 O262 1.238 . S
C259 O263 1.241 . S
C260 O253 1.247 . S
C260 O254 1.261 . S
C261 O256 1.259 . S
C261 O258 1.235 . S
O262 Co252 2.021 . S
O262 C259 1.238 . S
O263 Co257 2.052 . S
O263 C259 1.241 . S
O264 Co252 2.137 . S
O264 C255 1.247 . S
O265 Co252 2.244 . S
O265 C255 1.272 . S
O265 Co257 2.135 . S
Co266 O267 2.216 . S
Co266 O268 2.105 . S
Co266 O270 2.004 . S
Co266 O276 2.021 . S
Co266 O278 2.137 . S
Co266 O279 2.244 . S
O267 Co266 2.216 . S
O267 C274 1.247 . S
O268 Co266 2.105 . S
O268 C274 1.267 . S
C269 O278 1.247 . S
C269 O279 1.272 . S
O270 Co266 2.004 . S
O270 C275 1.259 . S
Co271 O272 2.061 . S
Co271 O277 2.052 . S
Co271 O279 2.135 . S
O272 Co271 2.061 . S
O272 C275 1.235 . S
C273 O276 1.238 . S
C273 O277 1.241 . S
C274 O267 1.247 . S
C274 O268 1.267 . S
C275 O270 1.259 . S
C275 O272 1.235 . S
O276 Co266 2.021 . S
O276 C273 1.238 . S
O277 Co271 2.052 . S
O277 C273 1.241 . S
O278 Co266 2.137 . S
O278 C269 1.247 . S
O279 Co266 2.244 . S
O279 C269 1.272 . S
O279 Co271 2.135 . S
Co280 O281 2.216 . S
Co280 O282 2.091 . S
Co280 O284 2.004 . S
Co280 O290 2.021 . S
Co280 O292 2.137 . S
Co280 O293 2.244 . S
O281 Co280 2.216 . S
O281 C288 1.247 . S
O282 Co280 2.091 . S
O282 C288 1.261 . S
C283 O292 1.247 . S
C283 O293 1.272 . S
O284 Co280 2.004 . S
O284 C289 1.259 . S
Co285 O286 2.061 . S
Co285 O291 2.052 . S
Co285 O293 2.135 . S
O286 Co285 2.061 . S
O286 C289 1.235 . S
C287 O290 1.238 . S
C287 O291 1.241 . S
C288 O281 1.247 . S
C288 O282 1.261 . S
C289 O284 1.259 . S
C289 O286 1.235 . S
O290 Co280 2.021 . S
O290 C287 1.238 . S
O291 Co285 2.052 . S
O291 C287 1.241 . S
O292 Co280 2.137 . S
O292 C283 1.247 . S
O293 Co280 2.244 . S
O293 C283 1.272 . S
O293 Co285 2.135 . S
Co294 O295 2.216 . S
Co294 O296 2.091 . S
Co294 O298 2.004 . S
Co294 O304 2.021 . S
Co294 O306 2.137 . S
Co294 O307 2.244 . S
O295 Co294 2.216 . S
O295 C302 1.247 . S
O296 Co294 2.091 . S
O296 C302 1.261 . S
C297 O306 1.247 . S
C297 O307 1.272 . S
O298 Co294 2.004 . S
O298 C303 1.259 . S
Co299 O300 2.061 . S
Co299 O305 2.052 . S
Co299 O307 2.135 . S
O300 Co299 2.061 . S
O300 C303 1.235 . S
C301 O304 1.238 . S
C301 O305 1.241 . S
C302 O295 1.247 . S
C302 O296 1.261 . S
C303 O298 1.259 . S
C303 O300 1.235 . S
O304 Co294 2.021 . S
O304 C301 1.238 . S
O305 Co299 2.052 . S
O305 C301 1.241 . S
O306 Co294 2.137 . S
O306 C297 1.247 . S
O307 Co294 2.244 . S
O307 C297 1.272 . S
O307 Co299 2.135 . S
Co308 O309 2.216 . S
Co308 O310 2.091 . S
Co308 O312 2.004 . S
Co308 O318 2.021 . S
Co308 O320 2.137 . S
Co308 O321 2.244 . S
O309 Co308 2.216 . S
O309 C316 1.247 . S
O310 Co308 2.091 . S
O310 C316 1.261 . S
C311 O320 1.247 . S
C311 O321 1.272 . S
O312 Co308 2.004 . S
O312 C317 1.259 . S
Co313 O314 2.061 . S
Co313 O319 2.052 . S
Co313 O321 2.135 . S
O314 Co313 2.061 . S
O314 C317 1.235 . S
C315 O318 1.238 . S
C315 O319 1.241 . S
C316 O309 1.247 . S
C316 O310 1.261 . S
C317 O312 1.259 . S
C317 O314 1.235 . S
O318 Co308 2.021 . S
O318 C315 1.238 . S
O319 Co313 2.052 . S
O319 C315 1.241 . S
O320 Co308 2.137 . S
O320 C311 1.247 . S
O321 Co308 2.244 . S
O321 C311 1.272 . S
O321 Co313 2.135 . S
Co322 O323 2.216 . S
Co322 O324 2.091 . S
Co322 O326 2.004 . S
Co322 O332 2.021 . S
Co322 O334 2.137 . S
Co322 O335 2.244 . S
O323 Co322 2.216 . S
O323 C330 1.247 . S
O324 Co322 2.091 . S
O324 C330 1.261 . S
C325 O334 1.247 . S
C325 O335 1.272 . S
O326 Co322 2.004 . S
O326 C331 1.259 . S
Co327 O328 2.061 . S
Co327 O333 2.052 . S
Co327 O335 2.135 . S
O328 Co327 2.061 . S
O328 C331 1.235 . S
C329 O332 1.238 . S
C329 O333 1.241 . S
C330 O323 1.247 . S
C330 O324 1.261 . S
C331 O326 1.259 . S
C331 O328 1.235 . S
O332 Co322 2.021 . S
O332 C329 1.238 . S
O333 Co327 2.052 . S
O333 C329 1.241 . S
O334 Co322 2.137 . S
O334 C325 1.247 . S
O335 Co322 2.244 . S
O335 C325 1.272 . S
O335 Co327 2.135 . S
Co336 O337 2.216 . S
Co336 O338 2.105 . S
Co336 O340 2.004 . S
Co336 O346 2.021 . S
Co336 O348 2.137 . S
Co336 O349 2.244 . S
O337 Co336 2.216 . S
O337 C344 1.247 . S
O338 Co336 2.105 . S
O338 C344 1.267 . S
C339 O348 1.247 . S
C339 O349 1.272 . S
O340 Co336 2.004 . S
O340 C345 1.259 . S
Co341 O342 2.061 . S
Co341 O347 2.052 . S
Co341 O349 2.135 . S
O342 Co341 2.061 . S
O342 C345 1.235 . S
C343 O346 1.238 . S
C343 O347 1.241 . S
C344 O337 1.247 . S
C344 O338 1.267 . S
C345 O340 1.259 . S
C345 O342 1.235 . S
O346 Co336 2.021 . S
O346 C343 1.238 . S
O347 Co341 2.052 . S
O347 C343 1.241 . S
O348 Co336 2.137 . S
O348 C339 1.247 . S
O349 Co336 2.244 . S
O349 C339 1.272 . S
O349 Co341 2.135 . S
Co350 O351 2.216 . S
Co350 O352 2.091 . S
Co350 O354 2.004 . S
Co350 O360 2.021 . S
Co350 O362 2.137 . S
Co350 O363 2.244 . S
O351 Co350 2.216 . S
O351 C358 1.247 . S
O352 Co350 2.091 . S
O352 C358 1.261 . S
C353 O362 1.247 . S
C353 O363 1.272 . S
O354 Co350 2.004 . S
O354 C359 1.259 . S
Co355 O356 2.061 . S
Co355 O361 2.052 . S
Co355 O363 2.135 . S
O356 Co355 2.061 . S
O356 C359 1.235 . S
C357 O360 1.238 . S
C357 O361 1.241 . S
C358 O351 1.247 . S
C358 O352 1.261 . S
C359 O354 1.259 . S
C359 O356 1.235 . S
O360 Co350 2.021 . S
O360 C357 1.238 . S
O361 Co355 2.052 . S
O361 C357 1.241 . S
O362 Co350 2.137 . S
O362 C353 1.247 . S
O363 Co350 2.244 . S
O363 C353 1.272 . S
O363 Co355 2.135 . S
Co364 O365 2.216 . S
Co364 O366 2.091 . S
Co364 O368 2.004 . S
Co364 O374 2.021 . S
Co364 O376 2.137 . S
Co364 O377 2.244 . S
O365 Co364 2.216 . S
O365 C372 1.247 . S
O366 Co364 2.091 . S
O366 C372 1.261 . S
C367 O376 1.247 . S
C367 O377 1.272 . S
O368 Co364 2.004 . S
O368 C373 1.259 . S
Co369 O370 2.061 . S
Co369 O375 2.052 . S
Co369 O377 2.135 . S
O370 Co369 2.061 . S
O370 C373 1.235 . S
C371 O374 1.238 . S
C371 O375 1.241 . S
C372 O365 1.247 . S
C372 O366 1.261 . S
C373 O368 1.259 . S
C373 O370 1.235 . S
O374 Co364 2.021 . S
O374 C371 1.238 . S
O375 Co369 2.052 . S
O375 C371 1.241 . S
O376 Co364 2.137 . S
O376 C367 1.247 . S
O377 Co364 2.244 . S
O377 C367 1.272 . S
O377 Co369 2.135 . S
Co378 O379 2.216 . S
Co378 O380 2.091 . S
Co378 O382 2.004 . S
Co378 O388 2.021 . S
Co378 O390 2.137 . S
Co378 O391 2.244 . S
O379 Co378 2.216 . S
O379 C386 1.247 . S
O380 Co378 2.091 . S
O380 C386 1.261 . S
C381 O390 1.247 . S
C381 O391 1.272 . S
O382 Co378 2.004 . S
O382 C387 1.259 . S
Co383 O384 2.061 . S
Co383 O389 2.052 . S
Co383 O391 2.135 . S
O384 Co383 2.061 . S
O384 C387 1.235 . S
C385 O388 1.238 . S
C385 O389 1.241 . S
C386 O379 1.247 . S
C386 O380 1.261 . S
C387 O382 1.259 . S
C387 O384 1.235 . S
O388 Co378 2.021 . S
O388 C385 1.238 . S
O389 Co383 2.052 . S
O389 C385 1.241 . S
O390 Co378 2.137 . S
O390 C381 1.247 . S
O391 Co378 2.244 . S
O391 C381 1.272 . S
O391 Co383 2.135 . S
Co392 O393 2.216 . S
Co392 O394 2.105 . S
Co392 O396 2.004 . S
Co392 O402 2.021 . S
Co392 O404 2.137 . S
Co392 O405 2.244 . S
O393 Co392 2.216 . S
O393 C400 1.247 . S
O394 Co392 2.105 . S
O394 C400 1.267 . S
C395 O404 1.247 . S
C395 O405 1.272 . S
O396 Co392 2.004 . S
O396 C401 1.259 . S
Co397 O398 2.061 . S
Co397 O403 2.052 . S
Co397 O405 2.135 . S
O398 Co397 2.061 . S
O398 C401 1.235 . S
C399 O402 1.238 . S
C399 O403 1.241 . S
C400 O393 1.247 . S
C400 O394 1.267 . S
C401 O396 1.259 . S
C401 O398 1.235 . S
O402 Co392 2.021 . S
O402 C399 1.238 . S
O403 Co397 2.052 . S
O403 C399 1.241 . S
O404 Co392 2.137 . S
O404 C395 1.247 . S
O405 Co392 2.244 . S
O405 C395 1.272 . S
O405 Co397 2.135 . S
Co406 O407 2.216 . S
Co406 O408 2.091 . S
Co406 O410 2.004 . S
Co406 O416 2.021 . S
Co406 O418 2.137 . S
Co406 O419 2.244 . S
O407 Co406 2.216 . S
O407 C414 1.247 . S
O408 Co406 2.091 . S
O408 C414 1.261 . S
C409 O418 1.247 . S
C409 O419 1.272 . S
O410 Co406 2.004 . S
O410 C415 1.259 . S
Co411 O412 2.061 . S
Co411 O417 2.052 . S
Co411 O419 2.135 . S
O412 Co411 2.061 . S
O412 C415 1.235 . S
C413 O416 1.238 . S
C413 O417 1.241 . S
C414 O407 1.247 . S
C414 O408 1.261 . S
C415 O410 1.259 . S
C415 O412 1.235 . S
O416 Co406 2.021 . S
O416 C413 1.238 . S
O417 Co411 2.052 . S
O417 C413 1.241 . S
O418 Co406 2.137 . S
O418 C409 1.247 . S
O419 Co406 2.244 . S
O419 C409 1.272 . S
O419 Co411 2.135 . S
Co420 O421 2.216 . S
Co420 O422 2.091 . S
Co420 O424 2.004 . S
Co420 O430 2.021 . S
Co420 O432 2.137 . S
Co420 O433 2.244 . S
O421 Co420 2.216 . S
O421 C428 1.247 . S
O422 Co420 2.091 . S
O422 C428 1.261 . S
C423 O432 1.247 . S
C423 O433 1.272 . S
O424 Co420 2.004 . S
O424 C429 1.259 . S
Co425 O426 2.061 . S
Co425 O431 2.052 . S
Co425 O433 2.135 . S
O426 Co425 2.061 . S
O426 C429 1.235 . S
C427 O430 1.238 . S
C427 O431 1.241 . S
C428 O421 1.247 . S
C428 O422 1.261 . S
C429 O424 1.259 . S
C429 O426 1.235 . S
O430 Co420 2.021 . S
O430 C427 1.238 . S
O431 Co425 2.052 . S
O431 C427 1.241 . S
O432 Co420 2.137 . S
O432 C423 1.247 . S
O433 Co420 2.244 . S
O433 C423 1.272 . S
O433 Co425 2.135 . S
Co434 O435 2.216 . S
Co434 O436 2.091 . S
Co434 O438 2.004 . S
Co434 O444 2.021 . S
Co434 O446 2.137 . S
Co434 O447 2.244 . S
O435 Co434 2.216 . S
O435 C442 1.247 . S
O436 Co434 2.091 . S
O436 C442 1.261 . S
C437 O446 1.247 . S
C437 O447 1.272 . S
O438 Co434 2.004 . S
O438 C443 1.259 . S
Co439 O440 2.061 . S
Co439 O445 2.052 . S
Co439 O447 2.135 . S
O440 Co439 2.061 . S
O440 C443 1.235 . S
C441 O444 1.238 . S
C441 O445 1.241 . S
C442 O435 1.247 . S
C442 O436 1.261 . S
C443 O438 1.259 . S
C443 O440 1.235 . S
O444 Co434 2.021 . S
O444 C441 1.238 . S
O445 Co439 2.052 . S
O445 C441 1.241 . S
O446 Co434 2.137 . S
O446 C437 1.247 . S
O447 Co434 2.244 . S
O447 C437 1.272 . S
O447 Co439 2.135 . S
Co448 O449 2.216 . S
Co448 O450 2.104 . S
Co448 O452 2.004 . S
Co448 O458 2.021 . S
Co448 O460 2.137 . S
Co448 O461 2.244 . S
O449 Co448 2.216 . S
O449 C456 1.247 . S
O450 Co448 2.104 . S
O450 C456 1.267 . S
C451 O460 1.247 . S
C451 O461 1.272 . S
O452 Co448 2.004 . S
O452 C457 1.259 . S
Co453 O454 2.061 . S
Co453 O459 2.052 . S
Co453 O461 2.135 . S
O454 Co453 2.061 . S
O454 C457 1.235 . S
C455 O458 1.238 . S
C455 O459 1.241 . S
C456 O449 1.247 . S
C456 O450 1.267 . S
C457 O452 1.259 . S
C457 O454 1.235 . S
O458 Co448 2.021 . S
O458 C455 1.238 . S
O459 Co453 2.052 . S
O459 C455 1.241 . S
O460 Co448 2.137 . S
O460 C451 1.247 . S
O461 Co448 2.244 . S
O461 C451 1.272 . S
O461 Co453 2.135 . S
Co462 O463 2.216 . S
Co462 O464 2.091 . S
Co462 O466 2.004 . S
Co462 O472 2.021 . S
Co462 O474 2.137 . S
Co462 O475 2.244 . S
O463 Co462 2.216 . S
O463 C470 1.247 . S
O464 Co462 2.091 . S
O464 C470 1.261 . S
C465 O474 1.247 . S
C465 O475 1.272 . S
O466 Co462 2.004 . S
O466 C471 1.259 . S
Co467 O468 2.061 . S
Co467 O473 2.052 . S
Co467 O475 2.135 . S
O468 Co467 2.061 . S
O468 C471 1.235 . S
C469 O472 1.238 . S
C469 O473 1.241 . S
C470 O463 1.247 . S
C470 O464 1.261 . S
C471 O466 1.259 . S
C471 O468 1.235 . S
O472 Co462 2.021 . S
O472 C469 1.238 . S
O473 Co467 2.052 . S
O473 C469 1.241 . S
O474 Co462 2.137 . S
O474 C465 1.247 . S
O475 Co462 2.244 . S
O475 C465 1.272 . S
O475 Co467 2.135 . S
Co476 O477 2.216 . S
Co476 O478 2.091 . S
Co476 O480 2.004 . S
Co476 O486 2.021 . S
Co476 O488 2.137 . S
Co476 O489 2.244 . S
O477 Co476 2.216 . S
O477 C484 1.247 . S
O478 Co476 2.091 . S
O478 C484 1.261 . S
C479 O488 1.247 . S
C479 O489 1.272 . S
O480 Co476 2.004 . S
O480 C485 1.259 . S
Co481 O482 2.061 . S
Co481 O487 2.052 . S
Co481 O489 2.135 . S
O482 Co481 2.061 . S
O482 C485 1.235 . S
C483 O486 1.238 . S
C483 O487 1.241 . S
C484 O477 1.247 . S
C484 O478 1.261 . S
C485 O480 1.259 . S
C485 O482 1.235 . S
O486 Co476 2.021 . S
O486 C483 1.238 . S
O487 Co481 2.052 . S
O487 C483 1.241 . S
O488 Co476 2.137 . S
O488 C479 1.247 . S
O489 Co476 2.244 . S
O489 C479 1.272 . S
O489 Co481 2.135 . S
Co490 O491 2.216 . S
Co490 O492 2.091 . S
Co490 O494 2.004 . S
Co490 O500 2.021 . S
Co490 O502 2.137 . S
Co490 O503 2.244 . S
O491 Co490 2.216 . S
O491 C498 1.247 . S
O492 Co490 2.091 . S
O492 C498 1.261 . S
C493 O502 1.247 . S
C493 O503 1.272 . S
O494 Co490 2.004 . S
O494 C499 1.259 . S
Co495 O496 2.061 . S
Co495 O501 2.052 . S
Co495 O503 2.135 . S
O496 Co495 2.061 . S
O496 C499 1.235 . S
C497 O500 1.238 . S
C497 O501 1.241 . S
C498 O491 1.247 . S
C498 O492 1.261 . S
C499 O494 1.259 . S
C499 O496 1.235 . S
O500 Co490 2.021 . S
O500 C497 1.238 . S
O501 Co495 2.052 . S
O501 C497 1.241 . S
O502 Co490 2.137 . S
O502 C493 1.247 . S
O503 Co490 2.244 . S
O503 C493 1.272 . S
O503 Co495 2.135 . S
Co504 O505 2.216 . S
Co504 O506 2.104 . S
Co504 O508 2.004 . S
Co504 O514 2.021 . S
Co504 O516 2.137 . S
Co504 O517 2.244 . S
O505 Co504 2.216 . S
O505 C512 1.247 . S
O506 Co504 2.104 . S
O506 C512 1.267 . S
C507 O516 1.247 . S
C507 O517 1.272 . S
O508 Co504 2.004 . S
O508 C513 1.259 . S
Co509 O510 2.061 . S
Co509 O515 2.052 . S
Co509 O517 2.135 . S
O510 Co509 2.061 . S
O510 C513 1.235 . S
C511 O514 1.238 . S
C511 O515 1.241 . S
C512 O505 1.247 . S
C512 O506 1.267 . S
C513 O508 1.259 . S
C513 O510 1.235 . S
O514 Co504 2.021 . S
O514 C511 1.238 . S
O515 Co509 2.052 . S
O515 C511 1.241 . S
O516 Co504 2.137 . S
O516 C507 1.247 . S
O517 Co504 2.244 . S
O517 C507 1.272 . S
O517 Co509 2.135 . S
Co518 O519 2.216 . S
Co518 O520 2.091 . S
Co518 O522 2.004 . S
Co518 O528 2.021 . S
Co518 O530 2.137 . S
Co518 O531 2.244 . S
O519 Co518 2.216 . S
O519 C526 1.247 . S
O520 Co518 2.091 . S
O520 C526 1.261 . S
C521 O530 1.247 . S
C521 O531 1.272 . S
O522 Co518 2.004 . S
O522 C527 1.259 . S
Co523 O524 2.061 . S
Co523 O529 2.052 . S
Co523 O531 2.135 . S
O524 Co523 2.061 . S
O524 C527 1.235 . S
C525 O528 1.238 . S
C525 O529 1.241 . S
C526 O519 1.247 . S
C526 O520 1.261 . S
C527 O522 1.259 . S
C527 O524 1.235 . S
O528 Co518 2.021 . S
O528 C525 1.238 . S
O529 Co523 2.052 . S
O529 C525 1.241 . S
O530 Co518 2.137 . S
O530 C521 1.247 . S
O531 Co518 2.244 . S
O531 C521 1.272 . S
O531 Co523 2.135 . S
Co532 O533 2.216 . S
Co532 O534 2.091 . S
Co532 O536 2.004 . S
Co532 O542 2.021 . S
Co532 O544 2.137 . S
Co532 O545 2.244 . S
O533 Co532 2.216 . S
O533 C540 1.247 . S
O534 Co532 2.091 . S
O534 C540 1.261 . S
C535 O544 1.247 . S
C535 O545 1.272 . S
O536 Co532 2.004 . S
O536 C541 1.259 . S
Co537 O538 2.061 . S
Co537 O543 2.052 . S
Co537 O545 2.135 . S
O538 Co537 2.061 . S
O538 C541 1.235 . S
C539 O542 1.238 . S
C539 O543 1.241 . S
C540 O533 1.247 . S
C540 O534 1.261 . S
C541 O536 1.259 . S
C541 O538 1.235 . S
O542 Co532 2.021 . S
O542 C539 1.238 . S
O543 Co537 2.052 . S
O543 C539 1.241 . S
O544 Co532 2.137 . S
O544 C535 1.247 . S
O545 Co532 2.244 . S
O545 C535 1.272 . S
O545 Co537 2.135 . S
Co546 O547 2.216 . S
Co546 O548 2.091 . S
Co546 O550 2.004 . S
Co546 O556 2.021 . S
Co546 O558 2.137 . S
Co546 O559 2.244 . S
O547 Co546 2.216 . S
O547 C554 1.247 . S
O548 Co546 2.091 . S
O548 C554 1.261 . S
C549 O558 1.247 . S
C549 O559 1.272 . S
O550 Co546 2.004 . S
O550 C555 1.259 . S
Co551 O552 2.061 . S
Co551 O557 2.052 . S
Co551 O559 2.135 . S
O552 Co551 2.061 . S
O552 C555 1.235 . S
C553 O556 1.238 . S
C553 O557 1.241 . S
C554 O547 1.247 . S
C554 O548 1.261 . S
C555 O550 1.259 . S
C555 O552 1.235 . S
O556 Co546 2.021 . S
O556 C553 1.238 . S
O557 Co551 2.052 . S
O557 C553 1.241 . S
O558 Co546 2.137 . S
O558 C549 1.247 . S
O559 Co546 2.244 . S
O559 C549 1.272 . S
O559 Co551 2.135 . S
Co560 O561 2.216 . S
Co560 O562 2.091 . S
Co560 O564 2.004 . S
Co560 O570 2.021 . S
Co560 O572 2.137 . S
Co560 O573 2.244 . S
O561 Co560 2.216 . S
O561 C568 1.247 . S
O562 Co560 2.091 . S
O562 C568 1.261 . S
C563 O572 1.247 . S
C563 O573 1.272 . S
O564 Co560 2.004 . S
O564 C569 1.259 . S
Co565 O566 2.061 . S
Co565 O571 2.052 . S
Co565 O573 2.135 . S
O566 Co565 2.061 . S
O566 C569 1.235 . S
C567 O570 1.238 . S
C567 O571 1.241 . S
C568 O561 1.247 . S
C568 O562 1.261 . S
C569 O564 1.259 . S
C569 O566 1.235 . S
O570 Co560 2.021 . S
O570 C567 1.238 . S
O571 Co565 2.052 . S
O571 C567 1.241 . S
O572 Co560 2.137 . S
O572 C563 1.247 . S
O573 Co560 2.244 . S
O573 C563 1.272 . S
O573 Co565 2.135 . S
Co574 O575 2.216 . S
Co574 O576 2.105 . S
Co574 O578 2.004 . S
Co574 O584 2.021 . S
Co574 O586 2.137 . S
Co574 O587 2.244 . S
O575 Co574 2.216 . S
O575 C582 1.247 . S
O576 Co574 2.105 . S
O576 C582 1.267 . S
C577 O586 1.247 . S
C577 O587 1.272 . S
O578 Co574 2.004 . S
O578 C583 1.259 . S
Co579 O580 2.061 . S
Co579 O585 2.052 . S
Co579 O587 2.135 . S
O580 Co579 2.061 . S
O580 C583 1.235 . S
C581 O584 1.238 . S
C581 O585 1.241 . S
C582 O575 1.247 . S
C582 O576 1.267 . S
C583 O578 1.259 . S
C583 O580 1.235 . S
O584 Co574 2.021 . S
O584 C581 1.238 . S
O585 Co579 2.052 . S
O585 C581 1.241 . S
O586 Co574 2.137 . S
O586 C577 1.247 . S
O587 Co574 2.244 . S
O587 C577 1.272 . S
O587 Co579 2.135 . S
Co588 O589 2.216 . S
Co588 O590 2.091 . S
Co588 O592 2.004 . S
Co588 O598 2.021 . S
Co588 O600 2.137 . S
Co588 O601 2.244 . S
O589 Co588 2.216 . S
O589 C596 1.247 . S
O590 Co588 2.091 . S
O590 C596 1.261 . S
C591 O600 1.247 . S
C591 O601 1.272 . S
O592 Co588 2.004 . S
O592 C597 1.259 . S
Co593 O594 2.061 . S
Co593 O599 2.052 . S
Co593 O601 2.135 . S
O594 Co593 2.061 . S
O594 C597 1.235 . S
C595 O598 1.238 . S
C595 O599 1.241 . S
C596 O589 1.247 . S
C596 O590 1.261 . S
C597 O592 1.259 . S
C597 O594 1.235 . S
O598 Co588 2.021 . S
O598 C595 1.238 . S
O599 Co593 2.052 . S
O599 C595 1.241 . S
O600 Co588 2.137 . S
O600 C591 1.247 . S
O601 Co588 2.244 . S
O601 C591 1.272 . S
O601 Co593 2.135 . S
Co602 O603 2.216 . S
Co602 O604 2.104 . S
Co602 O606 2.004 . S
Co602 O612 2.021 . S
Co602 O614 2.137 . S
Co602 O615 2.244 . S
O603 Co602 2.216 . S
O603 C610 1.247 . S
O604 Co602 2.104 . S
O604 C610 1.267 . S
C605 O614 1.247 . S
C605 O615 1.272 . S
O606 Co602 2.004 . S
O606 C611 1.259 . S
Co607 O608 2.061 . S
Co607 O613 2.052 . S
Co607 O615 2.135 . S
O608 Co607 2.061 . S
O608 C611 1.235 . S
C609 O612 1.238 . S
C609 O613 1.241 . S
C610 O603 1.247 . S
C610 O604 1.267 . S
C611 O606 1.259 . S
C611 O608 1.235 . S
O612 Co602 2.021 . S
O612 C609 1.238 . S
O613 Co607 2.052 . S
O613 C609 1.241 . S
O614 Co602 2.137 . S
O614 C605 1.247 . S
O615 Co602 2.244 . S
O615 C605 1.272 . S
O615 Co607 2.135 . S
Co616 O617 2.216 . S
Co616 O618 2.091 . S
Co616 O620 2.004 . S
Co616 O626 2.021 . S
Co616 O628 2.137 . S
Co616 O629 2.244 . S
O617 Co616 2.216 . S
O617 C624 1.247 . S
O618 Co616 2.091 . S
O618 C624 1.261 . S
C619 O628 1.247 . S
C619 O629 1.272 . S
O620 Co616 2.004 . S
O620 C625 1.259 . S
Co621 O622 2.061 . S
Co621 O627 2.052 . S
Co621 O629 2.135 . S
O622 Co621 2.061 . S
O622 C625 1.235 . S
C623 O626 1.238 . S
C623 O627 1.241 . S
C624 O617 1.247 . S
C624 O618 1.261 . S
C625 O620 1.259 . S
C625 O622 1.235 . S
O626 Co616 2.021 . S
O626 C623 1.238 . S
O627 Co621 2.052 . S
O627 C623 1.241 . S
O628 Co616 2.137 . S
O628 C619 1.247 . S
O629 Co616 2.244 . S
O629 C619 1.272 . S
O629 Co621 2.135 . S
Co630 O631 2.216 . S
Co630 O632 2.091 . S
Co630 O634 2.004 . S
Co630 O640 2.021 . S
Co630 O642 2.137 . S
Co630 O643 2.244 . S
O631 Co630 2.216 . S
O631 C638 1.247 . S
O632 Co630 2.091 . S
O632 C638 1.261 . S
C633 O642 1.247 . S
C633 O643 1.272 . S
O634 Co630 2.004 . S
O634 C639 1.259 . S
Co635 O636 2.061 . S
Co635 O641 2.052 . S
Co635 O643 2.135 . S
O636 Co635 2.061 . S
O636 C639 1.235 . S
C637 O640 1.238 . S
C637 O641 1.241 . S
C638 O631 1.247 . S
C638 O632 1.261 . S
C639 O634 1.259 . S
C639 O636 1.235 . S
O640 Co630 2.021 . S
O640 C637 1.238 . S
O641 Co635 2.052 . S
O641 C637 1.241 . S
O642 Co630 2.137 . S
O642 C633 1.247 . S
O643 Co630 2.244 . S
O643 C633 1.272 . S
O643 Co635 2.135 . S
Co644 O645 2.216 . S
Co644 O646 2.091 . S
Co644 O648 2.004 . S
Co644 O654 2.021 . S
Co644 O656 2.137 . S
Co644 O657 2.244 . S
O645 Co644 2.216 . S
O645 C652 1.247 . S
O646 Co644 2.091 . S
O646 C652 1.261 . S
C647 O656 1.247 . S
C647 O657 1.272 . S
O648 Co644 2.004 . S
O648 C653 1.259 . S
Co649 O650 2.061 . S
Co649 O655 2.052 . S
Co649 O657 2.135 . S
O650 Co649 2.061 . S
O650 C653 1.235 . S
C651 O654 1.238 . S
C651 O655 1.241 . S
C652 O645 1.247 . S
C652 O646 1.261 . S
C653 O648 1.259 . S
C653 O650 1.235 . S
O654 Co644 2.021 . S
O654 C651 1.238 . S
O655 Co649 2.052 . S
O655 C651 1.241 . S
O656 Co644 2.137 . S
O656 C647 1.247 . S
O657 Co644 2.244 . S
O657 C647 1.272 . S
O657 Co649 2.135 . S
Co658 O659 2.216 . S
Co658 O660 2.091 . S
Co658 O662 2.004 . S
Co658 O668 2.021 . S
Co658 O670 2.137 . S
Co658 O671 2.244 . S
O659 Co658 2.216 . S
O659 C666 1.247 . S
O660 Co658 2.091 . S
O660 C666 1.261 . S
C661 O670 1.247 . S
C661 O671 1.272 . S
O662 Co658 2.004 . S
O662 C667 1.259 . S
Co663 O664 2.061 . S
Co663 O669 2.052 . S
Co663 O671 2.135 . S
O664 Co663 2.061 . S
O664 C667 1.235 . S
C665 O668 1.238 . S
C665 O669 1.241 . S
C666 O659 1.247 . S
C666 O660 1.261 . S
C667 O662 1.259 . S
C667 O664 1.235 . S
O668 Co658 2.021 . S
O668 C665 1.238 . S
O669 Co663 2.052 . S
O669 C665 1.241 . S
O670 Co658 2.137 . S
O670 C661 1.247 . S
O671 Co658 2.244 . S
O671 C661 1.272 . S
O671 Co663 2.135 . S
Co672 O673 2.216 . S
Co672 O674 2.091 . S
Co672 O676 2.004 . S
Co672 O682 2.021 . S
Co672 O684 2.137 . S
Co672 O685 2.244 . S
O673 Co672 2.216 . S
O673 C680 1.247 . S
O674 Co672 2.091 . S
O674 C680 1.261 . S
C675 O684 1.247 . S
C675 O685 1.272 . S
O676 Co672 2.004 . S
O676 C681 1.259 . S
Co677 O678 2.061 . S
Co677 O683 2.052 . S
Co677 O685 2.135 . S
O678 Co677 2.061 . S
O678 C681 1.235 . S
C679 O682 1.238 . S
C679 O683 1.241 . S
C680 O673 1.247 . S
C680 O674 1.261 . S
C681 O676 1.259 . S
C681 O678 1.235 . S
O682 Co672 2.021 . S
O682 C679 1.238 . S
O683 Co677 2.052 . S
O683 C679 1.241 . S
O684 Co672 2.137 . S
O684 C675 1.247 . S
O685 Co672 2.244 . S
O685 C675 1.272 . S
O685 Co677 2.135 . S
Co686 O687 2.216 . S
Co686 O688 2.091 . S
Co686 O690 2.004 . S
Co686 O696 2.021 . S
Co686 O698 2.137 . S
Co686 O699 2.244 . S
O687 Co686 2.216 . S
O687 C694 1.247 . S
O688 Co686 2.091 . S
O688 C694 1.261 . S
C689 O698 1.247 . S
C689 O699 1.272 . S
O690 Co686 2.004 . S
O690 C695 1.259 . S
Co691 O692 2.061 . S
Co691 O697 2.052 . S
Co691 O699 2.135 . S
O692 Co691 2.061 . S
O692 C695 1.235 . S
C693 O696 1.238 . S
C693 O697 1.241 . S
C694 O687 1.247 . S
C694 O688 1.261 . S
C695 O690 1.259 . S
C695 O692 1.235 . S
O696 Co686 2.021 . S
O696 C693 1.238 . S
O697 Co691 2.052 . S
O697 C693 1.241 . S
O698 Co686 2.137 . S
O698 C689 1.247 . S
O699 Co686 2.244 . S
O699 C689 1.272 . S
O699 Co691 2.135 . S
Co700 O701 2.216 . S
Co700 O702 2.104 . S
Co700 O704 2.004 . S
Co700 O710 2.021 . S
Co700 O712 2.137 . S
Co700 O713 2.244 . S
O701 Co700 2.216 . S
O701 C708 1.247 . S
O702 Co700 2.104 . S
O702 C708 1.267 . S
C703 O712 1.247 . S
C703 O713 1.272 . S
O704 Co700 2.004 . S
O704 C709 1.259 . S
Co705 O706 2.061 . S
Co705 O711 2.052 . S
Co705 O713 2.135 . S
O706 Co705 2.061 . S
O706 C709 1.235 . S
C707 O710 1.238 . S
C707 O711 1.241 . S
C708 O701 1.247 . S
C708 O702 1.267 . S
C709 O704 1.259 . S
C709 O706 1.235 . S
O710 Co700 2.021 . S
O710 C707 1.238 . S
O711 Co705 2.052 . S
O711 C707 1.241 . S
O712 Co700 2.137 . S
O712 C703 1.247 . S
O713 Co700 2.244 . S
O713 C703 1.272 . S
O713 Co705 2.135 . S
Co714 O715 2.216 . S
Co714 O716 2.091 . S
Co714 O718 2.004 . S
Co714 O724 2.021 . S
Co714 O726 2.137 . S
Co714 O727 2.244 . S
O715 Co714 2.216 . S
O715 C722 1.247 . S
O716 Co714 2.091 . S
O716 C722 1.261 . S
C717 O726 1.247 . S
C717 O727 1.272 . S
O718 Co714 2.004 . S
O718 C723 1.259 . S
Co719 O720 2.061 . S
Co719 O725 2.052 . S
Co719 O727 2.135 . S
O720 Co719 2.061 . S
O720 C723 1.235 . S
C721 O724 1.238 . S
C721 O725 1.241 . S
C722 O715 1.247 . S
C722 O716 1.261 . S
C723 O718 1.259 . S
C723 O720 1.235 . S
O724 Co714 2.021 . S
O724 C721 1.238 . S
O725 Co719 2.052 . S
O725 C721 1.241 . S
O726 Co714 2.137 . S
O726 C717 1.247 . S
O727 Co714 2.244 . S
O727 C717 1.272 . S
O727 Co719 2.135 . S
Co728 O729 2.216 . S
Co728 O730 2.091 . S
Co728 O732 2.004 . S
Co728 O738 2.021 . S
Co728 O740 2.137 . S
Co728 O741 2.244 . S
O729 Co728 2.216 . S
O729 C736 1.247 . S
O730 Co728 2.091 . S
O730 C736 1.261 . S
C731 O740 1.247 . S
C731 O741 1.272 . S
O732 Co728 2.004 . S
O732 C737 1.259 . S
Co733 O734 2.061 . S
Co733 O739 2.052 . S
Co733 O741 2.135 . S
O734 Co733 2.061 . S
O734 C737 1.235 . S
C735 O738 1.238 . S
C735 O739 1.241 . S
C736 O729 1.247 . S
C736 O730 1.261 . S
C737 O732 1.259 . S
C737 O734 1.235 . S
O738 Co728 2.021 . S
O738 C735 1.238 . S
O739 Co733 2.052 . S
O739 C735 1.241 . S
O740 Co728 2.137 . S
O740 C731 1.247 . S
O741 Co728 2.244 . S
O741 C731 1.272 . S
O741 Co733 2.135 . S
Co742 O743 2.216 . S
Co742 O744 2.091 . S
Co742 O746 2.004 . S
Co742 O752 2.021 . S
Co742 O754 2.137 . S
Co742 O755 2.244 . S
O743 Co742 2.216 . S
O743 C750 1.247 . S
O744 Co742 2.091 . S
O744 C750 1.261 . S
C745 O754 1.247 . S
C745 O755 1.272 . S
O746 Co742 2.004 . S
O746 C751 1.259 . S
Co747 O748 2.061 . S
Co747 O753 2.052 . S
Co747 O755 2.135 . S
O748 Co747 2.061 . S
O748 C751 1.235 . S
C749 O752 1.238 . S
C749 O753 1.241 . S
C750 O743 1.247 . S
C750 O744 1.261 . S
C751 O746 1.259 . S
C751 O748 1.235 . S
O752 Co742 2.021 . S
O752 C749 1.238 . S
O753 Co747 2.052 . S
O753 C749 1.241 . S
O754 Co742 2.137 . S
O754 C745 1.247 . S
O755 Co742 2.244 . S
O755 C745 1.272 . S
O755 Co747 2.135 . S
Co756 O757 2.216 . S
Co756 O758 2.104 . S
Co756 O760 2.004 . S
Co756 O766 2.021 . S
Co756 O768 2.137 . S
Co756 O769 2.244 . S
O757 Co756 2.216 . S
O757 C764 1.247 . S
O758 Co756 2.104 . S
O758 C764 1.267 . S
C759 O768 1.247 . S
C759 O769 1.272 . S
O760 Co756 2.004 . S
O760 C765 1.259 . S
Co761 O762 2.061 . S
Co761 O767 2.052 . S
Co761 O769 2.135 . S
O762 Co761 2.061 . S
O762 C765 1.235 . S
C763 O766 1.238 . S
C763 O767 1.241 . S
C764 O757 1.247 . S
C764 O758 1.267 . S
C765 O760 1.259 . S
C765 O762 1.235 . S
O766 Co756 2.021 . S
O766 C763 1.238 . S
O767 Co761 2.052 . S
O767 C763 1.241 . S
O768 Co756 2.137 . S
O768 C759 1.247 . S
O769 Co756 2.244 . S
O769 C759 1.272 . S
O769 Co761 2.135 . S
Co770 O771 2.216 . S
Co770 O772 2.091 . S
Co770 O774 2.004 . S
Co770 O780 2.021 . S
Co770 O782 2.137 . S
Co770 O783 2.244 . S
O771 Co770 2.216 . S
O771 C778 1.247 . S
O772 Co770 2.091 . S
O772 C778 1.261 . S
C773 O782 1.247 . S
C773 O783 1.272 . S
O774 Co770 2.004 . S
O774 C779 1.259 . S
Co775 O776 2.061 . S
Co775 O781 2.052 . S
Co775 O783 2.135 . S
O776 Co775 2.061 . S
O776 C779 1.235 . S
C777 O780 1.238 . S
C777 O781 1.241 . S
C778 O771 1.247 . S
C778 O772 1.261 . S
C779 O774 1.259 . S
C779 O776 1.235 . S
O780 Co770 2.021 . S
O780 C777 1.238 . S
O781 Co775 2.052 . S
O781 C777 1.241 . S
O782 Co770 2.137 . S
O782 C773 1.247 . S
O783 Co770 2.244 . S
O783 C773 1.272 . S
O783 Co775 2.135 . S
Co784 O785 2.216 . S
Co784 O786 2.105 . S
Co784 O788 2.004 . S
Co784 O794 2.021 . S
Co784 O796 2.137 . S
Co784 O797 2.244 . S
O785 Co784 2.216 . S
O785 C792 1.247 . S
O786 Co784 2.105 . S
O786 C792 1.267 . S
C787 O796 1.247 . S
C787 O797 1.272 . S
O788 Co784 2.004 . S
O788 C793 1.259 . S
Co789 O790 2.061 . S
Co789 O795 2.052 . S
Co789 O797 2.135 . S
O790 Co789 2.061 . S
O790 C793 1.235 . S
C791 O794 1.238 . S
C791 O795 1.241 . S
C792 O785 1.247 . S
C792 O786 1.267 . S
C793 O788 1.259 . S
C793 O790 1.235 . S
O794 Co784 2.021 . S
O794 C791 1.238 . S
O795 Co789 2.052 . S
O795 C791 1.241 . S
O796 Co784 2.137 . S
O796 C787 1.247 . S
O797 Co784 2.244 . S
O797 C787 1.272 . S
O797 Co789 2.135 . S
Co798 O799 2.216 . S
Co798 O800 2.091 . S
Co798 O802 2.004 . S
Co798 O808 2.021 . S
Co798 O810 2.137 . S
Co798 O811 2.244 . S
O799 Co798 2.216 . S
O799 C806 1.247 . S
O800 Co798 2.091 . S
O800 C806 1.261 . S
C801 O810 1.247 . S
C801 O811 1.272 . S
O802 Co798 2.004 . S
O802 C807 1.259 . S
Co803 O804 2.061 . S
Co803 O809 2.052 . S
Co803 O811 2.135 . S
O804 Co803 2.061 . S
O804 C807 1.235 . S
C805 O808 1.238 . S
C805 O809 1.241 . S
C806 O799 1.247 . S
C806 O800 1.261 . S
C807 O802 1.259 . S
C807 O804 1.235 . S
O808 Co798 2.021 . S
O808 C805 1.238 . S
O809 Co803 2.052 . S
O809 C805 1.241 . S
O810 Co798 2.137 . S
O810 C801 1.247 . S
O811 Co798 2.244 . S
O811 C801 1.272 . S
O811 Co803 2.135 . S
Co812 O813 2.216 . S
Co812 O814 2.091 . S
Co812 O816 2.004 . S
Co812 O822 2.021 . S
Co812 O824 2.137 . S
Co812 O825 2.244 . S
O813 Co812 2.216 . S
O813 C820 1.247 . S
O814 Co812 2.091 . S
O814 C820 1.261 . S
C815 O824 1.247 . S
C815 O825 1.272 . S
O816 Co812 2.004 . S
O816 C821 1.259 . S
Co817 O818 2.061 . S
Co817 O823 2.052 . S
Co817 O825 2.135 . S
O818 Co817 2.061 . S
O818 C821 1.235 . S
C819 O822 1.238 . S
C819 O823 1.241 . S
C820 O813 1.247 . S
C820 O814 1.261 . S
C821 O816 1.259 . S
C821 O818 1.235 . S
O822 Co812 2.021 . S
O822 C819 1.238 . S
O823 Co817 2.052 . S
O823 C819 1.241 . S
O824 Co812 2.137 . S
O824 C815 1.247 . S
O825 Co812 2.244 . S
O825 C815 1.272 . S
O825 Co817 2.135 . S
Co826 O827 2.216 . S
Co826 O828 2.091 . S
Co826 O830 2.004 . S
Co826 O836 2.021 . S
Co826 O838 2.137 . S
Co826 O839 2.244 . S
O827 Co826 2.216 . S
O827 C834 1.247 . S
O828 Co826 2.091 . S
O828 C834 1.261 . S
C829 O838 1.247 . S
C829 O839 1.272 . S
O830 Co826 2.004 . S
O830 C835 1.259 . S
Co831 O832 2.061 . S
Co831 O837 2.052 . S
Co831 O839 2.135 . S
O832 Co831 2.061 . S
O832 C835 1.235 . S
C833 O836 1.238 . S
C833 O837 1.241 . S
C834 O827 1.247 . S
C834 O828 1.261 . S
C835 O830 1.259 . S
C835 O832 1.235 . S
O836 Co826 2.021 . S
O836 C833 1.238 . S
O837 Co831 2.052 . S
O837 C833 1.241 . S
O838 Co826 2.137 . S
O838 C829 1.247 . S
O839 Co826 2.244 . S
O839 C829 1.272 . S
O839 Co831 2.135 . S
Co840 O841 2.216 . S
Co840 O842 2.105 . S
Co840 O844 2.004 . S
Co840 O850 2.021 . S
Co840 O852 2.137 . S
Co840 O853 2.244 . S
O841 Co840 2.216 . S
O841 C848 1.247 . S
O842 Co840 2.105 . S
O842 C848 1.267 . S
C843 O852 1.247 . S
C843 O853 1.272 . S
O844 Co840 2.004 . S
O844 C849 1.259 . S
Co845 O846 2.061 . S
Co845 O851 2.052 . S
Co845 O853 2.135 . S
O846 Co845 2.061 . S
O846 C849 1.235 . S
C847 O850 1.238 . S
C847 O851 1.241 . S
C848 O841 1.247 . S
C848 O842 1.267 . S
C849 O844 1.259 . S
C849 O846 1.235 . S
O850 Co840 2.021 . S
O850 C847 1.238 . S
O851 Co845 2.052 . S
O851 C847 1.241 . S
O852 Co840 2.137 . S
O852 C843 1.247 . S
O853 Co840 2.244 . S
O853 C843 1.272 . S
O853 Co845 2.135 . S
Co854 O855 2.216 . S
Co854 O856 2.091 . S
Co854 O858 2.004 . S
Co854 O864 2.021 . S
Co854 O866 2.137 . S
Co854 O867 2.244 . S
O855 Co854 2.216 . S
O855 C862 1.247 . S
O856 Co854 2.091 . S
O856 C862 1.261 . S
C857 O866 1.247 . S
C857 O867 1.272 . S
O858 Co854 2.004 . S
O858 C863 1.259 . S
Co859 O860 2.061 . S
Co859 O865 2.052 . S
Co859 O867 2.135 . S
O860 Co859 2.061 . S
O860 C863 1.235 . S
C861 O864 1.238 . S
C861 O865 1.241 . S
C862 O855 1.247 . S
C862 O856 1.261 . S
C863 O858 1.259 . S
C863 O860 1.235 . S
O864 Co854 2.021 . S
O864 C861 1.238 . S
O865 Co859 2.052 . S
O865 C861 1.241 . S
O866 Co854 2.137 . S
O866 C857 1.247 . S
O867 Co854 2.244 . S
O867 C857 1.272 . S
O867 Co859 2.135 . S
Co868 O869 2.216 . S
Co868 O870 2.091 . S
Co868 O872 2.004 . S
Co868 O878 2.021 . S
Co868 O880 2.137 . S
Co868 O881 2.244 . S
O869 Co868 2.216 . S
O869 C876 1.247 . S
O870 Co868 2.091 . S
O870 C876 1.261 . S
C871 O880 1.247 . S
C871 O881 1.272 . S
O872 Co868 2.004 . S
O872 C877 1.259 . S
Co873 O874 2.061 . S
Co873 O879 2.052 . S
Co873 O881 2.135 . S
O874 Co873 2.061 . S
O874 C877 1.235 . S
C875 O878 1.238 . S
C875 O879 1.241 . S
C876 O869 1.247 . S
C876 O870 1.261 . S
C877 O872 1.259 . S
C877 O874 1.235 . S
O878 Co868 2.021 . S
O878 C875 1.238 . S
O879 Co873 2.052 . S
O879 C875 1.241 . S
O880 Co868 2.137 . S
O880 C871 1.247 . S
O881 Co868 2.244 . S
O881 C871 1.272 . S
O881 Co873 2.135 . S
Co882 O883 2.216 . S
Co882 O884 2.091 . S
Co882 O886 2.004 . S
Co882 O892 2.021 . S
Co882 O894 2.137 . S
Co882 O895 2.244 . S
O883 Co882 2.216 . S
O883 C890 1.247 . S
O884 Co882 2.091 . S
O884 C890 1.261 . S
C885 O894 1.247 . S
C885 O895 1.272 . S
O886 Co882 2.004 . S
O886 C891 1.259 . S
Co887 O888 2.061 . S
Co887 O893 2.052 . S
Co887 O895 2.135 . S
O888 Co887 2.061 . S
O888 C891 1.235 . S
C889 O892 1.238 . S
C889 O893 1.241 . S
C890 O883 1.247 . S
C890 O884 1.261 . S
C891 O886 1.259 . S
C891 O888 1.235 . S
O892 Co882 2.021 . S
O892 C889 1.238 . S
O893 Co887 2.052 . S
O893 C889 1.241 . S
O894 Co882 2.137 . S
O894 C885 1.247 . S
O895 Co882 2.244 . S
O895 C885 1.272 . S
O895 Co887 2.135 . S
Co896 O897 2.216 . S
Co896 O898 2.104 . S
Co896 O900 2.004 . S
Co896 O906 2.021 . S
Co896 O908 2.137 . S
Co896 O909 2.244 . S
O897 Co896 2.216 . S
O897 C904 1.247 . S
O898 Co896 2.104 . S
O898 C904 1.267 . S
C899 O908 1.247 . S
C899 O909 1.272 . S
O900 Co896 2.004 . S
O900 C905 1.259 . S
Co901 O902 2.061 . S
Co901 O907 2.052 . S
Co901 O909 2.135 . S
O902 Co901 2.061 . S
O902 C905 1.235 . S
C903 O906 1.238 . S
C903 O907 1.241 . S
C904 O897 1.247 . S
C904 O898 1.267 . S
C905 O900 1.259 . S
C905 O902 1.235 . S
O906 Co896 2.021 . S
O906 C903 1.238 . S
O907 Co901 2.052 . S
O907 C903 1.241 . S
O908 Co896 2.137 . S
O908 C899 1.247 . S
O909 Co896 2.244 . S
O909 C899 1.272 . S
O909 Co901 2.135 . S
Co910 O911 2.216 . S
Co910 O912 2.091 . S
Co910 O914 2.004 . S
Co910 O920 2.021 . S
Co910 O922 2.137 . S
Co910 O923 2.244 . S
O911 Co910 2.216 . S
O911 C918 1.247 . S
O912 Co910 2.091 . S
O912 C918 1.261 . S
C913 O922 1.247 . S
C913 O923 1.272 . S
O914 Co910 2.004 . S
O914 C919 1.259 . S
Co915 O916 2.061 . S
Co915 O921 2.052 . S
Co915 O923 2.135 . S
O916 Co915 2.061 . S
O916 C919 1.235 . S
C917 O920 1.238 . S
C917 O921 1.241 . S
C918 O911 1.247 . S
C918 O912 1.261 . S
C919 O914 1.259 . S
C919 O916 1.235 . S
O920 Co910 2.021 . S
O920 C917 1.238 . S
O921 Co915 2.052 . S
O921 C917 1.241 . S
O922 Co910 2.137 . S
O922 C913 1.247 . S
O923 Co910 2.244 . S
O923 C913 1.272 . S
O923 Co915 2.135 . S
Co924 O925 2.216 . S
Co924 O926 2.091 . S
Co924 O928 2.004 . S
Co924 O934 2.021 . S
Co924 O936 2.137 . S
Co924 O937 2.244 . S
O925 Co924 2.216 . S
O925 C932 1.247 . S
O926 Co924 2.091 . S
O926 C932 1.261 . S
C927 O936 1.247 . S
C927 O937 1.272 . S
O928 Co924 2.004 . S
O928 C933 1.259 . S
Co929 O930 2.061 . S
Co929 O935 2.052 . S
Co929 O937 2.135 . S
O930 Co929 2.061 . S
O930 C933 1.235 . S
C931 O934 1.238 . S
C931 O935 1.241 . S
C932 O925 1.247 . S
C932 O926 1.261 . S
C933 O928 1.259 . S
C933 O930 1.235 . S
O934 Co924 2.021 . S
O934 C931 1.238 . S
O935 Co929 2.052 . S
O935 C931 1.241 . S
O936 Co924 2.137 . S
O936 C927 1.247 . S
O937 Co924 2.244 . S
O937 C927 1.272 . S
O937 Co929 2.135 . S
Co938 O939 2.216 . S
Co938 O940 2.091 . S
Co938 O942 2.004 . S
Co938 O948 2.021 . S
Co938 O950 2.137 . S
Co938 O951 2.244 . S
O939 Co938 2.216 . S
O939 C946 1.247 . S
O940 Co938 2.091 . S
O940 C946 1.261 . S
C941 O950 1.247 . S
C941 O951 1.272 . S
O942 Co938 2.004 . S
O942 C947 1.259 . S
Co943 O944 2.061 . S
Co943 O949 2.052 . S
Co943 O951 2.135 . S
O944 Co943 2.061 . S
O944 C947 1.235 . S
C945 O948 1.238 . S
C945 O949 1.241 . S
C946 O939 1.247 . S
C946 O940 1.261 . S
C947 O942 1.259 . S
C947 O944 1.235 . S
O948 Co938 2.021 . S
O948 C945 1.238 . S
O949 Co943 2.052 . S
O949 C945 1.241 . S
O950 Co938 2.137 . S
O950 C941 1.247 . S
O951 Co938 2.244 . S
O951 C941 1.272 . S
O951 Co943 2.135 . S
Co952 O953 2.216 . S
Co952 O954 2.091 . S
Co952 O956 2.004 . S
Co952 O962 2.021 . S
Co952 O964 2.137 . S
Co952 O965 2.244 . S
O953 Co952 2.216 . S
O953 C960 1.247 . S
O954 Co952 2.091 . S
O954 C960 1.261 . S
C955 O964 1.247 . S
C955 O965 1.272 . S
O956 Co952 2.004 . S
O956 C961 1.259 . S
Co957 O958 2.061 . S
Co957 O963 2.052 . S
Co957 O965 2.135 . S
O958 Co957 2.061 . S
O958 C961 1.235 . S
C959 O962 1.238 . S
C959 O963 1.241 . S
C960 O953 1.247 . S
C960 O954 1.261 . S
C961 O956 1.259 . S
C961 O958 1.235 . S
O962 Co952 2.021 . S
O962 C959 1.238 . S
O963 Co957 2.052 . S
O963 C959 1.241 . S
O964 Co952 2.137 . S
O964 C955 1.247 . S
O965 Co952 2.244 . S
O965 C955 1.272 . S
O965 Co957 2.135 . S
Co966 O967 2.216 . S
Co966 O968 2.104 . S
Co966 O970 2.004 . S
Co966 O976 2.021 . S
Co966 O978 2.137 . S
Co966 O979 2.244 . S
O967 Co966 2.216 . S
O967 C974 1.247 . S
O968 Co966 2.104 . S
O968 C974 1.267 . S
C969 O978 1.247 . S
C969 O979 1.272 . S
O970 Co966 2.004 . S
O970 C975 1.259 . S
Co971 O972 2.061 . S
Co971 O977 2.052 . S
Co971 O979 2.135 . S
O972 Co971 2.061 . S
O972 C975 1.235 . S
C973 O976 1.238 . S
C973 O977 1.241 . S
C974 O967 1.247 . S
C974 O968 1.267 . S
C975 O970 1.259 . S
C975 O972 1.235 . S
O976 Co966 2.021 . S
O976 C973 1.238 . S
O977 Co971 2.052 . S
O977 C973 1.241 . S
O978 Co966 2.137 . S
O978 C969 1.247 . S
O979 Co966 2.244 . S
O979 C969 1.272 . S
O979 Co971 2.135 . S
Co980 O981 2.216 . S
Co980 O982 2.091 . S
Co980 O984 2.004 . S
Co980 O990 2.021 . S
Co980 O992 2.137 . S
Co980 O993 2.244 . S
O981 Co980 2.216 . S
O981 C988 1.247 . S
O982 Co980 2.091 . S
O982 C988 1.261 . S
C983 O992 1.247 . S
C983 O993 1.272 . S
O984 Co980 2.004 . S
O984 C989 1.259 . S
Co985 O986 2.061 . S
Co985 O991 2.052 . S
Co985 O993 2.135 . S
O986 Co985 2.061 . S
O986 C989 1.235 . S
C987 O990 1.238 . S
C987 O991 1.241 . S
C988 O981 1.247 . S
C988 O982 1.261 . S
C989 O984 1.259 . S
C989 O986 1.235 . S
O990 Co980 2.021 . S
O990 C987 1.238 . S
O991 Co985 2.052 . S
O991 C987 1.241 . S
O992 Co980 2.137 . S
O992 C983 1.247 . S
O993 Co980 2.244 . S
O993 C983 1.272 . S
O993 Co985 2.135 . S
Co994 O995 2.216 . S
Co994 O996 2.091 . S
Co994 O998 2.004 . S
Co994 O1004 2.021 . S
Co994 O1006 2.137 . S
Co994 O1007 2.244 . S
O995 Co994 2.216 . S
O995 C1002 1.247 . S
O996 Co994 2.091 . S
O996 C1002 1.261 . S
C997 O1006 1.247 . S
C997 O1007 1.272 . S
O998 Co994 2.004 . S
O998 C1003 1.259 . S
Co999 O1000 2.061 . S
Co999 O1005 2.052 . S
Co999 O1007 2.135 . S
O1000 Co999 2.061 . S
O1000 C1003 1.235 . S
C1001 O1004 1.238 . S
C1001 O1005 1.241 . S
C1002 O995 1.247 . S
C1002 O996 1.261 . S
C1003 O998 1.259 . S
C1003 O1000 1.235 . S
O1004 Co994 2.021 . S
O1004 C1001 1.238 . S
O1005 Co999 2.052 . S
O1005 C1001 1.241 . S
O1006 Co994 2.137 . S
O1006 C997 1.247 . S
O1007 Co994 2.244 . S
O1007 C997 1.272 . S
O1007 Co999 2.135 . S
Co1008 O1009 2.216 . S
Co1008 O1010 2.104 . S
Co1008 O1012 2.004 . S
Co1008 O1018 2.021 . S
Co1008 O1020 2.137 . S
Co1008 O1021 2.244 . S
O1009 Co1008 2.216 . S
O1009 C1016 1.247 . S
O1010 Co1008 2.104 . S
O1010 C1016 1.267 . S
C1011 O1020 1.247 . S
C1011 O1021 1.272 . S
O1012 Co1008 2.004 . S
O1012 C1017 1.259 . S
Co1013 O1014 2.061 . S
Co1013 O1019 2.052 . S
Co1013 O1021 2.135 . S
O1014 Co1013 2.061 . S
O1014 C1017 1.235 . S
C1015 O1018 1.238 . S
C1015 O1019 1.241 . S
C1016 O1009 1.247 . S
C1016 O1010 1.267 . S
C1017 O1012 1.259 . S
C1017 O1014 1.235 . S
O1018 Co1008 2.021 . S
O1018 C1015 1.238 . S
O1019 Co1013 2.052 . S
O1019 C1015 1.241 . S
O1020 Co1008 2.137 . S
O1020 C1011 1.247 . S
O1021 Co1008 2.244 . S
O1021 C1011 1.272 . S
O1021 Co1013 2.135 . S
Co1022 O1023 2.216 . S
Co1022 O1024 2.091 . S
Co1022 O1026 2.004 . S
Co1022 O1032 2.021 . S
Co1022 O1034 2.137 . S
Co1022 O1035 2.244 . S
O1023 Co1022 2.216 . S
O1023 C1030 1.247 . S
O1024 Co1022 2.091 . S
O1024 C1030 1.261 . S
C1025 O1034 1.247 . S
C1025 O1035 1.272 . S
O1026 Co1022 2.004 . S
O1026 C1031 1.259 . S
Co1027 O1028 2.061 . S
Co1027 O1033 2.052 . S
Co1027 O1035 2.135 . S
O1028 Co1027 2.061 . S
O1028 C1031 1.235 . S
C1029 O1032 1.238 . S
C1029 O1033 1.241 . S
C1030 O1023 1.247 . S
C1030 O1024 1.261 . S
C1031 O1026 1.259 . S
C1031 O1028 1.235 . S
O1032 Co1022 2.021 . S
O1032 C1029 1.238 . S
O1033 Co1027 2.052 . S
O1033 C1029 1.241 . S
O1034 Co1022 2.137 . S
O1034 C1025 1.247 . S
O1035 Co1022 2.244 . S
O1035 C1025 1.272 . S
O1035 Co1027 2.135 . S
Co1036 O1037 2.216 . S
Co1036 O1038 2.091 . S
Co1036 O1040 2.004 . S
Co1036 O1046 2.021 . S
Co1036 O1048 2.137 . S
Co1036 O1049 2.244 . S
O1037 Co1036 2.216 . S
O1037 C1044 1.247 . S
O1038 Co1036 2.091 . S
O1038 C1044 1.261 . S
C1039 O1048 1.247 . S
C1039 O1049 1.272 . S
O1040 Co1036 2.004 . S
O1040 C1045 1.259 . S
Co1041 O1042 2.061 . S
Co1041 O1047 2.052 . S
Co1041 O1049 2.135 . S
O1042 Co1041 2.061 . S
O1042 C1045 1.235 . S
C1043 O1046 1.238 . S
C1043 O1047 1.241 . S
C1044 O1037 1.247 . S
C1044 O1038 1.261 . S
C1045 O1040 1.259 . S
C1045 O1042 1.235 . S
O1046 Co1036 2.021 . S
O1046 C1043 1.238 . S
O1047 Co1041 2.052 . S
O1047 C1043 1.241 . S
O1048 Co1036 2.137 . S
O1048 C1039 1.247 . S
O1049 Co1036 2.244 . S
O1049 C1039 1.272 . S
O1049 Co1041 2.135 . S
Co1050 O1051 2.216 . S
Co1050 O1052 2.091 . S
Co1050 O1054 2.004 . S
Co1050 O1060 2.021 . S
Co1050 O1062 2.137 . S
Co1050 O1063 2.244 . S
O1051 Co1050 2.216 . S
O1051 C1058 1.247 . S
O1052 Co1050 2.091 . S
O1052 C1058 1.261 . S
C1053 O1062 1.247 . S
C1053 O1063 1.272 . S
O1054 Co1050 2.004 . S
O1054 C1059 1.259 . S
Co1055 O1056 2.061 . S
Co1055 O1061 2.052 . S
Co1055 O1063 2.135 . S
O1056 Co1055 2.061 . S
O1056 C1059 1.235 . S
C1057 O1060 1.238 . S
C1057 O1061 1.241 . S
C1058 O1051 1.247 . S
C1058 O1052 1.261 . S
C1059 O1054 1.259 . S
C1059 O1056 1.235 . S
O1060 Co1050 2.021 . S
O1060 C1057 1.238 . S
O1061 Co1055 2.052 . S
O1061 C1057 1.241 . S
O1062 Co1050 2.137 . S
O1062 C1053 1.247 . S
O1063 Co1050 2.244 . S
O1063 C1053 1.272 . S
O1063 Co1055 2.135 . S
Co1064 O1065 2.216 . S
Co1064 O1066 2.104 . S
Co1064 O1068 2.004 . S
Co1064 O1074 2.021 . S
Co1064 O1076 2.137 . S
Co1064 O1077 2.244 . S
O1065 Co1064 2.216 . S
O1065 C1072 1.247 . S
O1066 Co1064 2.104 . S
O1066 C1072 1.267 . S
C1067 O1076 1.247 . S
C1067 O1077 1.272 . S
O1068 Co1064 2.004 . S
O1068 C1073 1.259 . S
Co1069 O1070 2.061 . S
Co1069 O1075 2.052 . S
Co1069 O1077 2.135 . S
O1070 Co1069 2.061 . S
O1070 C1073 1.235 . S
C1071 O1074 1.238 . S
C1071 O1075 1.241 . S
C1072 O1065 1.247 . S
C1072 O1066 1.267 . S
C1073 O1068 1.259 . S
C1073 O1070 1.235 . S
O1074 Co1064 2.021 . S
O1074 C1071 1.238 . S
O1075 Co1069 2.052 . S
O1075 C1071 1.241 . S
O1076 Co1064 2.137 . S
O1076 C1067 1.247 . S
O1077 Co1064 2.244 . S
O1077 C1067 1.272 . S
O1077 Co1069 2.135 . S
Co1078 O1079 2.216 . S
Co1078 O1080 2.091 . S
Co1078 O1082 2.004 . S
Co1078 O1088 2.021 . S
Co1078 O1090 2.137 . S
Co1078 O1091 2.244 . S
O1079 Co1078 2.216 . S
O1079 C1086 1.247 . S
O1080 Co1078 2.091 . S
O1080 C1086 1.261 . S
C1081 O1090 1.247 . S
C1081 O1091 1.272 . S
O1082 Co1078 2.004 . S
O1082 C1087 1.259 . S
Co1083 O1084 2.061 . S
Co1083 O1089 2.052 . S
Co1083 O1091 2.135 . S
O1084 Co1083 2.061 . S
O1084 C1087 1.235 . S
C1085 O1088 1.238 . S
C1085 O1089 1.241 . S
C1086 O1079 1.247 . S
C1086 O1080 1.261 . S
C1087 O1082 1.259 . S
C1087 O1084 1.235 . S
O1088 Co1078 2.021 . S
O1088 C1085 1.238 . S
O1089 Co1083 2.052 . S
O1089 C1085 1.241 . S
O1090 Co1078 2.137 . S
O1090 C1081 1.247 . S
O1091 Co1078 2.244 . S
O1091 C1081 1.272 . S
O1091 Co1083 2.135 . S
Co1092 O1093 2.216 . S
Co1092 O1094 2.091 . S
Co1092 O1096 2.004 . S
Co1092 O1102 2.021 . S
Co1092 O1104 2.137 . S
Co1092 O1105 2.244 . S
O1093 Co1092 2.216 . S
O1093 C1100 1.247 . S
O1094 Co1092 2.091 . S
O1094 C1100 1.261 . S
C1095 O1104 1.247 . S
C1095 O1105 1.272 . S
O1096 Co1092 2.004 . S
O1096 C1101 1.259 . S
Co1097 O1098 2.061 . S
Co1097 O1103 2.052 . S
Co1097 O1105 2.135 . S
O1098 Co1097 2.061 . S
O1098 C1101 1.235 . S
C1099 O1102 1.238 . S
C1099 O1103 1.241 . S
C1100 O1093 1.247 . S
C1100 O1094 1.261 . S
C1101 O1096 1.259 . S
C1101 O1098 1.235 . S
O1102 Co1092 2.021 . S
O1102 C1099 1.238 . S
O1103 Co1097 2.052 . S
O1103 C1099 1.241 . S
O1104 Co1092 2.137 . S
O1104 C1095 1.247 . S
O1105 Co1092 2.244 . S
O1105 C1095 1.272 . S
O1105 Co1097 2.135 . S
Co1106 O1107 2.216 . S
Co1106 O1108 2.091 . S
Co1106 O1110 2.004 . S
Co1106 O1116 2.021 . S
Co1106 O1118 2.137 . S
Co1106 O1119 2.244 . S
O1107 Co1106 2.216 . S
O1107 C1114 1.247 . S
O1108 Co1106 2.091 . S
O1108 C1114 1.261 . S
C1109 O1118 1.247 . S
C1109 O1119 1.272 . S
O1110 Co1106 2.004 . S
O1110 C1115 1.259 . S
Co1111 O1112 2.061 . S
Co1111 O1117 2.052 . S
Co1111 O1119 2.135 . S
O1112 Co1111 2.061 . S
O1112 C1115 1.235 . S
C1113 O1116 1.238 . S
C1113 O1117 1.241 . S
C1114 O1107 1.247 . S
C1114 O1108 1.261 . S
C1115 O1110 1.259 . S
C1115 O1112 1.235 . S
O1116 Co1106 2.021 . S
O1116 C1113 1.238 . S
O1117 Co1111 2.052 . S
O1117 C1113 1.241 . S
O1118 Co1106 2.137 . S
O1118 C1109 1.247 . S
O1119 Co1106 2.244 . S
O1119 C1109 1.272 . S
O1119 Co1111 2.135 . S
Co1120 O1121 2.216 . S
Co1120 O1122 2.091 . S
Co1120 O1124 2.004 . S
Co1120 O1130 2.021 . S
Co1120 O1132 2.137 . S
Co1120 O1133 2.244 . S
O1121 Co1120 2.216 . S
O1121 C1128 1.247 . S
O1122 Co1120 2.091 . S
O1122 C1128 1.261 . S
C1123 O1132 1.247 . S
C1123 O1133 1.272 . S
O1124 Co1120 2.004 . S
O1124 C1129 1.259 . S
Co1125 O1126 2.061 . S
Co1125 O1131 2.052 . S
Co1125 O1133 2.135 . S
O1126 Co1125 2.061 . S
O1126 C1129 1.235 . S
C1127 O1130 1.238 . S
C1127 O1131 1.241 . S
C1128 O1121 1.247 . S
C1128 O1122 1.261 . S
C1129 O1124 1.259 . S
C1129 O1126 1.235 . S
O1130 Co1120 2.021 . S
O1130 C1127 1.238 . S
O1131 Co1125 2.052 . S
O1131 C1127 1.241 . S
O1132 Co1120 2.137 . S
O1132 C1123 1.247 . S
O1133 Co1120 2.244 . S
O1133 C1123 1.272 . S
O1133 Co1125 2.135 . S
Co1134 O1135 2.216 . S
Co1134 O1136 2.091 . S
Co1134 O1138 2.004 . S
Co1134 O1144 2.021 . S
Co1134 O1146 2.137 . S
Co1134 O1147 2.244 . S
O1135 Co1134 2.216 . S
O1135 C1142 1.247 . S
O1136 Co1134 2.091 . S
O1136 C1142 1.261 . S
C1137 O1146 1.247 . S
C1137 O1147 1.272 . S
O1138 Co1134 2.004 . S
O1138 C1143 1.259 . S
Co1139 O1140 2.061 . S
Co1139 O1145 2.052 . S
Co1139 O1147 2.135 . S
O1140 Co1139 2.061 . S
O1140 C1143 1.235 . S
C1141 O1144 1.238 . S
C1141 O1145 1.241 . S
C1142 O1135 1.247 . S
C1142 O1136 1.261 . S
C1143 O1138 1.259 . S
C1143 O1140 1.235 . S
O1144 Co1134 2.021 . S
O1144 C1141 1.238 . S
O1145 Co1139 2.052 . S
O1145 C1141 1.241 . S
O1146 Co1134 2.137 . S
O1146 C1137 1.247 . S
O1147 Co1134 2.244 . S
O1147 C1137 1.272 . S
O1147 Co1139 2.135 . S
Co1148 O1149 2.216 . S
Co1148 O1150 2.105 . S
Co1148 O1152 2.004 . S
Co1148 O1158 2.021 . S
Co1148 O1160 2.137 . S
Co1148 O1161 2.244 . S
O1149 Co1148 2.216 . S
O1149 C1156 1.247 . S
O1150 Co1148 2.105 . S
O1150 C1156 1.267 . S
C1151 O1160 1.247 . S
C1151 O1161 1.272 . S
O1152 Co1148 2.004 . S
O1152 C1157 1.259 . S
Co1153 O1154 2.061 . S
Co1153 O1159 2.052 . S
Co1153 O1161 2.135 . S
O1154 Co1153 2.061 . S
O1154 C1157 1.235 . S
C1155 O1158 1.238 . S
C1155 O1159 1.241 . S
C1156 O1149 1.247 . S
C1156 O1150 1.267 . S
C1157 O1152 1.259 . S
C1157 O1154 1.235 . S
O1158 Co1148 2.021 . S
O1158 C1155 1.238 . S
O1159 Co1153 2.052 . S
O1159 C1155 1.241 . S
O1160 Co1148 2.137 . S
O1160 C1151 1.247 . S
O1161 Co1148 2.244 . S
O1161 C1151 1.272 . S
O1161 Co1153 2.135 . S
Co1162 O1163 2.216 . S
Co1162 O1164 2.091 . S
Co1162 O1166 2.004 . S
Co1162 O1172 2.021 . S
Co1162 O1174 2.137 . S
Co1162 O1175 2.244 . S
O1163 Co1162 2.216 . S
O1163 C1170 1.247 . S
O1164 Co1162 2.091 . S
O1164 C1170 1.261 . S
C1165 O1174 1.247 . S
C1165 O1175 1.272 . S
O1166 Co1162 2.004 . S
O1166 C1171 1.259 . S
Co1167 O1168 2.061 . S
Co1167 O1173 2.052 . S
Co1167 O1175 2.135 . S
O1168 Co1167 2.061 . S
O1168 C1171 1.235 . S
C1169 O1172 1.238 . S
C1169 O1173 1.241 . S
C1170 O1163 1.247 . S
C1170 O1164 1.261 . S
C1171 O1166 1.259 . S
C1171 O1168 1.235 . S
O1172 Co1162 2.021 . S
O1172 C1169 1.238 . S
O1173 Co1167 2.052 . S
O1173 C1169 1.241 . S
O1174 Co1162 2.137 . S
O1174 C1165 1.247 . S
O1175 Co1162 2.244 . S
O1175 C1165 1.272 . S
O1175 Co1167 2.135 . S
Co1176 O1177 2.216 . S
Co1176 O1178 2.091 . S
Co1176 O1180 2.004 . S
Co1176 O1186 2.021 . S
Co1176 O1188 2.137 . S
Co1176 O1189 2.244 . S
O1177 Co1176 2.216 . S
O1177 C1184 1.247 . S
O1178 Co1176 2.091 . S
O1178 C1184 1.261 . S
C1179 O1188 1.247 . S
C1179 O1189 1.272 . S
O1180 Co1176 2.004 . S
O1180 C1185 1.259 . S
Co1181 O1182 2.061 . S
Co1181 O1187 2.052 . S
Co1181 O1189 2.135 . S
O1182 Co1181 2.061 . S
O1182 C1185 1.235 . S
C1183 O1186 1.238 . S
C1183 O1187 1.241 . S
C1184 O1177 1.247 . S
C1184 O1178 1.261 . S
C1185 O1180 1.259 . S
C1185 O1182 1.235 . S
O1186 Co1176 2.021 . S
O1186 C1183 1.238 . S
O1187 Co1181 2.052 . S
O1187 C1183 1.241 . S
O1188 Co1176 2.137 . S
O1188 C1179 1.247 . S
O1189 Co1176 2.244 . S
O1189 C1179 1.272 . S
O1189 Co1181 2.135 . S
Co1190 O1191 2.216 . S
Co1190 O1192 2.091 . S
Co1190 O1194 2.004 . S
Co1190 O1200 2.021 . S
Co1190 O1202 2.137 . S
Co1190 O1203 2.244 . S
O1191 Co1190 2.216 . S
O1191 C1198 1.247 . S
O1192 Co1190 2.091 . S
O1192 C1198 1.261 . S
C1193 O1202 1.247 . S
C1193 O1203 1.272 . S
O1194 Co1190 2.004 . S
O1194 C1199 1.259 . S
Co1195 O1196 2.061 . S
Co1195 O1201 2.052 . S
Co1195 O1203 2.135 . S
O1196 Co1195 2.061 . S
O1196 C1199 1.235 . S
C1197 O1200 1.238 . S
C1197 O1201 1.241 . S
C1198 O1191 1.247 . S
C1198 O1192 1.261 . S
C1199 O1194 1.259 . S
C1199 O1196 1.235 . S
O1200 Co1190 2.021 . S
O1200 C1197 1.238 . S
O1201 Co1195 2.052 . S
O1201 C1197 1.241 . S
O1202 Co1190 2.137 . S
O1202 C1193 1.247 . S
O1203 Co1190 2.244 . S
O1203 C1193 1.272 . S
O1203 Co1195 2.135 . S
Co1204 O1205 2.216 . S
Co1204 O1206 2.105 . S
Co1204 O1208 2.004 . S
Co1204 O1214 2.021 . S
Co1204 O1216 2.137 . S
Co1204 O1217 2.244 . S
O1205 Co1204 2.216 . S
O1205 C1212 1.247 . S
O1206 Co1204 2.105 . S
O1206 C1212 1.267 . S
C1207 O1216 1.247 . S
C1207 O1217 1.272 . S
O1208 Co1204 2.004 . S
O1208 C1213 1.259 . S
Co1209 O1210 2.061 . S
Co1209 O1215 2.052 . S
Co1209 O1217 2.135 . S
O1210 Co1209 2.061 . S
O1210 C1213 1.235 . S
C1211 O1214 1.238 . S
C1211 O1215 1.241 . S
C1212 O1205 1.247 . S
C1212 O1206 1.267 . S
C1213 O1208 1.259 . S
C1213 O1210 1.235 . S
O1214 Co1204 2.021 . S
O1214 C1211 1.238 . S
O1215 Co1209 2.052 . S
O1215 C1211 1.241 . S
O1216 Co1204 2.137 . S
O1216 C1207 1.247 . S
O1217 Co1204 2.244 . S
O1217 C1207 1.272 . S
O1217 Co1209 2.135 . S
Co1218 O1219 2.216 . S
Co1218 O1220 2.091 . S
Co1218 O1222 2.004 . S
Co1218 O1228 2.021 . S
Co1218 O1230 2.137 . S
Co1218 O1231 2.244 . S
O1219 Co1218 2.216 . S
O1219 C1226 1.247 . S
O1220 Co1218 2.091 . S
O1220 C1226 1.261 . S
C1221 O1230 1.247 . S
C1221 O1231 1.272 . S
O1222 Co1218 2.004 . S
O1222 C1227 1.259 . S
Co1223 O1224 2.061 . S
Co1223 O1229 2.052 . S
Co1223 O1231 2.135 . S
O1224 Co1223 2.061 . S
O1224 C1227 1.235 . S
C1225 O1228 1.238 . S
C1225 O1229 1.241 . S
C1226 O1219 1.247 . S
C1226 O1220 1.261 . S
C1227 O1222 1.259 . S
C1227 O1224 1.235 . S
O1228 Co1218 2.021 . S
O1228 C1225 1.238 . S
O1229 Co1223 2.052 . S
O1229 C1225 1.241 . S
O1230 Co1218 2.137 . S
O1230 C1221 1.247 . S
O1231 Co1218 2.244 . S
O1231 C1221 1.272 . S
O1231 Co1223 2.135 . S
Co1232 O1233 2.216 . S
Co1232 O1234 2.105 . S
Co1232 O1236 2.004 . S
Co1232 O1242 2.021 . S
Co1232 O1244 2.137 . S
Co1232 O1245 2.244 . S
O1233 Co1232 2.216 . S
O1233 C1240 1.247 . S
O1234 Co1232 2.105 . S
O1234 C1240 1.267 . S
C1235 O1244 1.247 . S
C1235 O1245 1.272 . S
O1236 Co1232 2.004 . S
O1236 C1241 1.259 . S
Co1237 O1238 2.061 . S
Co1237 O1243 2.052 . S
Co1237 O1245 2.135 . S
O1238 Co1237 2.061 . S
O1238 C1241 1.235 . S
C1239 O1242 1.238 . S
C1239 O1243 1.241 . S
C1240 O1233 1.247 . S
C1240 O1234 1.267 . S
C1241 O1236 1.259 . S
C1241 O1238 1.235 . S
O1242 Co1232 2.021 . S
O1242 C1239 1.238 . S
O1243 Co1237 2.052 . S
O1243 C1239 1.241 . S
O1244 Co1232 2.137 . S
O1244 C1235 1.247 . S
O1245 Co1232 2.244 . S
O1245 C1235 1.272 . S
O1245 Co1237 2.135 . S
Co1246 O1247 2.216 . S
Co1246 O1248 2.091 . S
Co1246 O1250 2.004 . S
Co1246 O1256 2.021 . S
Co1246 O1258 2.137 . S
Co1246 O1259 2.244 . S
O1247 Co1246 2.216 . S
O1247 C1254 1.247 . S
O1248 Co1246 2.091 . S
O1248 C1254 1.261 . S
C1249 O1258 1.247 . S
C1249 O1259 1.272 . S
O1250 Co1246 2.004 . S
O1250 C1255 1.259 . S
Co1251 O1252 2.061 . S
Co1251 O1257 2.052 . S
Co1251 O1259 2.135 . S
O1252 Co1251 2.061 . S
O1252 C1255 1.235 . S
C1253 O1256 1.238 . S
C1253 O1257 1.241 . S
C1254 O1247 1.247 . S
C1254 O1248 1.261 . S
C1255 O1250 1.259 . S
C1255 O1252 1.235 . S
O1256 Co1246 2.021 . S
O1256 C1253 1.238 . S
O1257 Co1251 2.052 . S
O1257 C1253 1.241 . S
O1258 Co1246 2.137 . S
O1258 C1249 1.247 . S
O1259 Co1246 2.244 . S
O1259 C1249 1.272 . S
O1259 Co1251 2.135 . S
Co1260 O1261 2.216 . S
Co1260 O1262 2.091 . S
Co1260 O1264 2.004 . S
Co1260 O1270 2.021 . S
Co1260 O1272 2.137 . S
Co1260 O1273 2.244 . S
O1261 Co1260 2.216 . S
O1261 C1268 1.247 . S
O1262 Co1260 2.091 . S
O1262 C1268 1.261 . S
C1263 O1272 1.247 . S
C1263 O1273 1.272 . S
O1264 Co1260 2.004 . S
O1264 C1269 1.259 . S
Co1265 O1266 2.061 . S
Co1265 O1271 2.052 . S
Co1265 O1273 2.135 . S
O1266 Co1265 2.061 . S
O1266 C1269 1.235 . S
C1267 O1270 1.238 . S
C1267 O1271 1.241 . S
C1268 O1261 1.247 . S
C1268 O1262 1.261 . S
C1269 O1264 1.259 . S
C1269 O1266 1.235 . S
O1270 Co1260 2.021 . S
O1270 C1267 1.238 . S
O1271 Co1265 2.052 . S
O1271 C1267 1.241 . S
O1272 Co1260 2.137 . S
O1272 C1263 1.247 . S
O1273 Co1260 2.244 . S
O1273 C1263 1.272 . S
O1273 Co1265 2.135 . S
Co1274 O1275 2.216 . S
Co1274 O1276 2.091 . S
Co1274 O1278 2.004 . S
Co1274 O1284 2.021 . S
Co1274 O1286 2.137 . S
Co1274 O1287 2.244 . S
O1275 Co1274 2.216 . S
O1275 C1282 1.247 . S
O1276 Co1274 2.091 . S
O1276 C1282 1.261 . S
C1277 O1286 1.247 . S
C1277 O1287 1.272 . S
O1278 Co1274 2.004 . S
O1278 C1283 1.259 . S
Co1279 O1280 2.061 . S
Co1279 O1285 2.052 . S
Co1279 O1287 2.135 . S
O1280 Co1279 2.061 . S
O1280 C1283 1.235 . S
C1281 O1284 1.238 . S
C1281 O1285 1.241 . S
C1282 O1275 1.247 . S
C1282 O1276 1.261 . S
C1283 O1278 1.259 . S
C1283 O1280 1.235 . S
O1284 Co1274 2.021 . S
O1284 C1281 1.238 . S
O1285 Co1279 2.052 . S
O1285 C1281 1.241 . S
O1286 Co1274 2.137 . S
O1286 C1277 1.247 . S
O1287 Co1274 2.244 . S
O1287 C1277 1.272 . S
O1287 Co1279 2.135 . S
Co1288 O1289 2.216 . S
Co1288 O1290 2.091 . S
Co1288 O1292 2.004 . S
Co1288 O1298 2.021 . S
Co1288 O1300 2.137 . S
Co1288 O1301 2.244 . S
O1289 Co1288 2.216 . S
O1289 C1296 1.247 . S
O1290 Co1288 2.091 . S
O1290 C1296 1.261 . S
C1291 O1300 1.247 . S
C1291 O1301 1.272 . S
O1292 Co1288 2.004 . S
O1292 C1297 1.259 . S
Co1293 O1294 2.061 . S
Co1293 O1299 2.052 . S
Co1293 O1301 2.135 . S
O1294 Co1293 2.061 . S
O1294 C1297 1.235 . S
C1295 O1298 1.238 . S
C1295 O1299 1.241 . S
C1296 O1289 1.247 . S
C1296 O1290 1.261 . S
C1297 O1292 1.259 . S
C1297 O1294 1.235 . S
O1298 Co1288 2.021 . S
O1298 C1295 1.238 . S
O1299 Co1293 2.052 . S
O1299 C1295 1.241 . S
O1300 Co1288 2.137 . S
O1300 C1291 1.247 . S
O1301 Co1288 2.244 . S
O1301 C1291 1.272 . S
O1301 Co1293 2.135 . S
Co1302 O1303 2.216 . S
Co1302 O1304 2.105 . S
Co1302 O1306 2.004 . S
Co1302 O1312 2.021 . S
Co1302 O1314 2.137 . S
Co1302 O1315 2.244 . S
O1303 Co1302 2.216 . S
O1303 C1310 1.247 . S
O1304 Co1302 2.105 . S
O1304 C1310 1.267 . S
C1305 O1314 1.247 . S
C1305 O1315 1.272 . S
O1306 Co1302 2.004 . S
O1306 C1311 1.259 . S
Co1307 O1308 2.061 . S
Co1307 O1313 2.052 . S
Co1307 O1315 2.135 . S
O1308 Co1307 2.061 . S
O1308 C1311 1.235 . S
C1309 O1312 1.238 . S
C1309 O1313 1.241 . S
C1310 O1303 1.247 . S
C1310 O1304 1.267 . S
C1311 O1306 1.259 . S
C1311 O1308 1.235 . S
O1312 Co1302 2.021 . S
O1312 C1309 1.238 . S
O1313 Co1307 2.052 . S
O1313 C1309 1.241 . S
O1314 Co1302 2.137 . S
O1314 C1305 1.247 . S
O1315 Co1302 2.244 . S
O1315 C1305 1.272 . S
O1315 Co1307 2.135 . S
Co1316 O1317 2.216 . S
Co1316 O1318 2.091 . S
Co1316 O1320 2.004 . S
Co1316 O1326 2.021 . S
Co1316 O1328 2.137 . S
Co1316 O1329 2.244 . S
O1317 Co1316 2.216 . S
O1317 C1324 1.247 . S
O1318 Co1316 2.091 . S
O1318 C1324 1.261 . S
C1319 O1328 1.247 . S
C1319 O1329 1.272 . S
O1320 Co1316 2.004 . S
O1320 C1325 1.259 . S
Co1321 O1322 2.061 . S
Co1321 O1327 2.052 . S
Co1321 O1329 2.135 . S
O1322 Co1321 2.061 . S
O1322 C1325 1.235 . S
C1323 O1326 1.238 . S
C1323 O1327 1.241 . S
C1324 O1317 1.247 . S
C1324 O1318 1.261 . S
C1325 O1320 1.259 . S
C1325 O1322 1.235 . S
O1326 Co1316 2.021 . S
O1326 C1323 1.238 . S
O1327 Co1321 2.052 . S
O1327 C1323 1.241 . S
O1328 Co1316 2.137 . S
O1328 C1319 1.247 . S
O1329 Co1316 2.244 . S
O1329 C1319 1.272 . S
O1329 Co1321 2.135 . S
Co1330 O1331 2.216 . S
Co1330 O1332 2.091 . S
Co1330 O1334 2.004 . S
Co1330 O1340 2.021 . S
Co1330 O1342 2.137 . S
Co1330 O1343 2.244 . S
O1331 Co1330 2.216 . S
O1331 C1338 1.247 . S
O1332 Co1330 2.091 . S
O1332 C1338 1.261 . S
C1333 O1342 1.247 . S
C1333 O1343 1.272 . S
O1334 Co1330 2.004 . S
O1334 C1339 1.259 . S
Co1335 O1336 2.061 . S
Co1335 O1341 2.052 . S
Co1335 O1343 2.135 . S
O1336 Co1335 2.061 . S
O1336 C1339 1.235 . S
C1337 O1340 1.238 . S
C1337 O1341 1.241 . S
C1338 O1331 1.247 . S
C1338 O1332 1.261 . S
C1339 O1334 1.259 . S
C1339 O1336 1.235 . S
O1340 Co1330 2.021 . S
O1340 C1337 1.238 . S
O1341 Co1335 2.052 . S
O1341 C1337 1.241 . S
O1342 Co1330 2.137 . S
O1342 C1333 1.247 . S
O1343 Co1330 2.244 . S
O1343 C1333 1.272 . S
O1343 Co1335 2.135 . S
H1344 C1350 0.930 . S
H1345 C1353 0.930 . S
H1346 C1354 0.930 . S
H1347 C1355 0.930 . S
H1348 C1358 0.930 . S
H1349 C1359 0.930 . S
C1350 H1344 0.930 . S
C1350 C1351 1.355 . S
C1350 C1352 1.415 . S
C1351 C1350 1.355 . S
C1351 C1353 1.419 . S
C1352 C1350 1.415 . S
C1352 C1357 1.425 . S
C1352 C1359 1.409 . S
C1353 H1345 0.930 . S
C1353 C1351 1.419 . S
C1353 C1354 1.362 . S
C1354 H1346 0.930 . S
C1354 C1353 1.362 . S
C1354 C1357 1.409 . S
C1355 H1347 0.930 . S
C1355 C1356 1.355 . S
C1355 C1357 1.415 . S
C1356 C1355 1.355 . S
C1356 C1358 1.419 . S
C1357 C1352 1.425 . S
C1357 C1354 1.409 . S
C1357 C1355 1.415 . S
C1358 H1348 0.930 . S
C1358 C1356 1.419 . S
C1358 C1359 1.362 . S
C1359 H1349 0.930 . S
C1359 C1352 1.409 . S
C1359 C1358 1.362 . S
H1360 C1366 0.930 . S
H1361 C1369 0.930 . S
H1362 C1370 0.930 . S
H1363 C1371 0.930 . S
H1364 C1374 0.930 . S
H1365 C1375 0.930 . S
C1366 H1360 0.930 . S
C1366 C1367 1.355 . S
C1366 C1368 1.415 . S
C1367 C1366 1.355 . S
C1367 C1369 1.419 . S
C1368 C1366 1.415 . S
C1368 C1373 1.425 . S
C1368 C1375 1.409 . S
C1369 H1361 0.930 . S
C1369 C1367 1.419 . S
C1369 C1370 1.362 . S
C1370 H1362 0.930 . S
C1370 C1369 1.362 . S
C1370 C1373 1.409 . S
C1371 H1363 0.930 . S
C1371 C1372 1.355 . S
C1371 C1373 1.415 . S
C1372 C1371 1.355 . S
C1372 C1374 1.419 . S
C1373 C1368 1.425 . S
C1373 C1370 1.409 . S
C1373 C1371 1.415 . S
C1374 H1364 0.930 . S
C1374 C1372 1.419 . S
C1374 C1375 1.362 . S
C1375 H1365 0.930 . S
C1375 C1368 1.409 . S
C1375 C1374 1.362 . S
H1376 C1382 0.930 . S
H1377 C1385 0.930 . S
H1378 C1386 0.930 . S
H1379 C1387 0.930 . S
H1380 C1390 0.930 . S
H1381 C1391 0.930 . S
C1382 H1376 0.930 . S
C1382 C1383 1.355 . S
C1382 C1384 1.415 . S
C1383 C1382 1.355 . S
C1383 C1385 1.419 . S
C1384 C1382 1.415 . S
C1384 C1389 1.425 . S
C1384 C1391 1.409 . S
C1385 H1377 0.930 . S
C1385 C1383 1.419 . S
C1385 C1386 1.362 . S
C1386 H1378 0.930 . S
C1386 C1385 1.362 . S
C1386 C1389 1.409 . S
C1387 H1379 0.930 . S
C1387 C1388 1.355 . S
C1387 C1389 1.415 . S
C1388 C1387 1.355 . S
C1388 C1390 1.419 . S
C1389 C1384 1.425 . S
C1389 C1386 1.409 . S
C1389 C1387 1.415 . S
C1390 H1380 0.930 . S
C1390 C1388 1.419 . S
C1390 C1391 1.362 . S
C1391 H1381 0.930 . S
C1391 C1384 1.409 . S
C1391 C1390 1.362 . S
H1392 C1398 0.930 . S
H1393 C1401 0.930 . S
H1394 C1402 0.930 . S
H1395 C1403 0.930 . S
H1396 C1406 0.930 . S
H1397 C1407 0.930 . S
C1398 H1392 0.930 . S
C1398 C1399 1.355 . S
C1398 C1400 1.415 . S
C1399 C1398 1.355 . S
C1399 C1401 1.419 . S
C1400 C1398 1.415 . S
C1400 C1405 1.425 . S
C1400 C1407 1.409 . S
C1401 H1393 0.930 . S
C1401 C1399 1.419 . S
C1401 C1402 1.362 . S
C1402 H1394 0.930 . S
C1402 C1401 1.362 . S
C1402 C1405 1.409 . S
C1403 H1395 0.930 . S
C1403 C1404 1.355 . S
C1403 C1405 1.415 . S
C1404 C1403 1.355 . S
C1404 C1406 1.419 . S
C1405 C1400 1.425 . S
C1405 C1402 1.409 . S
C1405 C1403 1.415 . S
C1406 H1396 0.930 . S
C1406 C1404 1.419 . S
C1406 C1407 1.362 . S
C1407 H1397 0.930 . S
C1407 C1400 1.409 . S
C1407 C1406 1.362 . S
H1408 C1414 0.930 . S
H1409 C1417 0.930 . S
H1410 C1418 0.930 . S
H1411 C1419 0.930 . S
H1412 C1422 0.930 . S
H1413 C1423 0.930 . S
C1414 H1408 0.930 . S
C1414 C1415 1.355 . S
C1414 C1416 1.415 . S
C1415 C1414 1.355 . S
C1415 C1417 1.419 . S
C1416 C1414 1.415 . S
C1416 C1421 1.425 . S
C1416 C1423 1.409 . S
C1417 H1409 0.930 . S
C1417 C1415 1.419 . S
C1417 C1418 1.362 . S
C1418 H1410 0.930 . S
C1418 C1417 1.362 . S
C1418 C1421 1.409 . S
C1419 H1411 0.930 . S
C1419 C1420 1.355 . S
C1419 C1421 1.415 . S
C1420 C1419 1.355 . S
C1420 C1422 1.419 . S
C1421 C1416 1.425 . S
C1421 C1418 1.409 . S
C1421 C1419 1.415 . S
C1422 H1412 0.930 . S
C1422 C1420 1.419 . S
C1422 C1423 1.362 . S
C1423 H1413 0.930 . S
C1423 C1416 1.409 . S
C1423 C1422 1.362 . S
H1424 C1430 0.930 . S
H1425 C1433 0.930 . S
H1426 C1434 0.930 . S
H1427 C1435 0.930 . S
H1428 C1438 0.930 . S
H1429 C1439 0.930 . S
C1430 H1424 0.930 . S
C1430 C1431 1.355 . S
C1430 C1432 1.415 . S
C1431 C1430 1.355 . S
C1431 C1433 1.419 . S
C1432 C1430 1.415 . S
C1432 C1437 1.425 . S
C1432 C1439 1.409 . S
C1433 H1425 0.930 . S
C1433 C1431 1.419 . S
C1433 C1434 1.362 . S
C1434 H1426 0.930 . S
C1434 C1433 1.362 . S
C1434 C1437 1.409 . S
C1435 H1427 0.930 . S
C1435 C1436 1.355 . S
C1435 C1437 1.415 . S
C1436 C1435 1.355 . S
C1436 C1438 1.419 . S
C1437 C1432 1.425 . S
C1437 C1434 1.409 . S
C1437 C1435 1.415 . S
C1438 H1428 0.930 . S
C1438 C1436 1.419 . S
C1438 C1439 1.362 . S
C1439 H1429 0.930 . S
C1439 C1432 1.409 . S
C1439 C1438 1.362 . S
H1440 C1446 0.930 . S
H1441 C1449 0.930 . S
H1442 C1450 0.930 . S
H1443 C1451 0.930 . S
H1444 C1454 0.930 . S
H1445 C1455 0.930 . S
C1446 H1440 0.930 . S
C1446 C1447 1.355 . S
C1446 C1448 1.415 . S
C1447 C1446 1.355 . S
C1447 C1449 1.419 . S
C1448 C1446 1.415 . S
C1448 C1453 1.425 . S
C1448 C1455 1.409 . S
C1449 H1441 0.930 . S
C1449 C1447 1.419 . S
C1449 C1450 1.362 . S
C1450 H1442 0.930 . S
C1450 C1449 1.362 . S
C1450 C1453 1.409 . S
C1451 H1443 0.930 . S
C1451 C1452 1.355 . S
C1451 C1453 1.415 . S
C1452 C1451 1.355 . S
C1452 C1454 1.419 . S
C1453 C1448 1.425 . S
C1453 C1450 1.409 . S
C1453 C1451 1.415 . S
C1454 H1444 0.930 . S
C1454 C1452 1.419 . S
C1454 C1455 1.362 . S
C1455 H1445 0.930 . S
C1455 C1448 1.409 . S
C1455 C1454 1.362 . S
H1456 C1462 0.930 . S
H1457 C1465 0.930 . S
H1458 C1466 0.930 . S
H1459 C1467 0.930 . S
H1460 C1470 0.930 . S
H1461 C1471 0.930 . S
C1462 H1456 0.930 . S
C1462 C1463 1.355 . S
C1462 C1464 1.415 . S
C1463 C1462 1.355 . S
C1463 C1465 1.419 . S
C1464 C1462 1.415 . S
C1464 C1469 1.425 . S
C1464 C1471 1.409 . S
C1465 H1457 0.930 . S
C1465 C1463 1.419 . S
C1465 C1466 1.362 . S
C1466 H1458 0.930 . S
C1466 C1465 1.362 . S
C1466 C1469 1.409 . S
C1467 H1459 0.930 . S
C1467 C1468 1.355 . S
C1467 C1469 1.415 . S
C1468 C1467 1.355 . S
C1468 C1470 1.419 . S
C1469 C1464 1.425 . S
C1469 C1466 1.409 . S
C1469 C1467 1.415 . S
C1470 H1460 0.930 . S
C1470 C1468 1.419 . S
C1470 C1471 1.362 . S
C1471 H1461 0.930 . S
C1471 C1464 1.409 . S
C1471 C1470 1.362 . S
H1472 C1478 0.930 . S
H1473 C1481 0.930 . S
H1474 C1482 0.930 . S
H1475 C1483 0.930 . S
H1476 C1486 0.930 . S
H1477 C1487 0.930 . S
C1478 H1472 0.930 . S
C1478 C1479 1.355 . S
C1478 C1480 1.415 . S
C1479 C1478 1.355 . S
C1479 C1481 1.419 . S
C1480 C1478 1.415 . S
C1480 C1485 1.425 . S
C1480 C1487 1.409 . S
C1481 H1473 0.930 . S
C1481 C1479 1.419 . S
C1481 C1482 1.362 . S
C1482 H1474 0.930 . S
C1482 C1481 1.362 . S
C1482 C1485 1.409 . S
C1483 H1475 0.930 . S
C1483 C1484 1.355 . S
C1483 C1485 1.415 . S
C1484 C1483 1.355 . S
C1484 C1486 1.419 . S
C1485 C1480 1.425 . S
C1485 C1482 1.409 . S
C1485 C1483 1.415 . S
C1486 H1476 0.930 . S
C1486 C1484 1.419 . S
C1486 C1487 1.362 . S
C1487 H1477 0.930 . S
C1487 C1480 1.409 . S
C1487 C1486 1.362 . S
H1488 C1494 0.930 . S
H1489 C1497 0.930 . S
H1490 C1498 0.930 . S
H1491 C1499 0.930 . S
H1492 C1502 0.930 . S
H1493 C1503 0.930 . S
C1494 H1488 0.930 . S
C1494 C1495 1.355 . S
C1494 C1496 1.415 . S
C1495 C1494 1.355 . S
C1495 C1497 1.419 . S
C1496 C1494 1.415 . S
C1496 C1501 1.425 . S
C1496 C1503 1.409 . S
C1497 H1489 0.930 . S
C1497 C1495 1.419 . S
C1497 C1498 1.362 . S
C1498 H1490 0.930 . S
C1498 C1497 1.362 . S
C1498 C1501 1.409 . S
C1499 H1491 0.930 . S
C1499 C1500 1.355 . S
C1499 C1501 1.415 . S
C1500 C1499 1.355 . S
C1500 C1502 1.419 . S
C1501 C1496 1.425 . S
C1501 C1498 1.409 . S
C1501 C1499 1.415 . S
C1502 H1492 0.930 . S
C1502 C1500 1.419 . S
C1502 C1503 1.362 . S
C1503 H1493 0.930 . S
C1503 C1496 1.409 . S
C1503 C1502 1.362 . S
H1504 C1510 0.930 . S
H1505 C1513 0.930 . S
H1506 C1514 0.930 . S
H1507 C1515 0.930 . S
H1508 C1518 0.930 . S
H1509 C1519 0.930 . S
C1510 H1504 0.930 . S
C1510 C1511 1.355 . S
C1510 C1512 1.415 . S
C1511 C1510 1.355 . S
C1511 C1513 1.419 . S
C1512 C1510 1.415 . S
C1512 C1517 1.425 . S
C1512 C1519 1.409 . S
C1513 H1505 0.930 . S
C1513 C1511 1.419 . S
C1513 C1514 1.362 . S
C1514 H1506 0.930 . S
C1514 C1513 1.362 . S
C1514 C1517 1.409 . S
C1515 H1507 0.930 . S
C1515 C1516 1.355 . S
C1515 C1517 1.415 . S
C1516 C1515 1.355 . S
C1516 C1518 1.419 . S
C1517 C1512 1.425 . S
C1517 C1514 1.409 . S
C1517 C1515 1.415 . S
C1518 H1508 0.930 . S
C1518 C1516 1.419 . S
C1518 C1519 1.362 . S
C1519 H1509 0.930 . S
C1519 C1512 1.409 . S
C1519 C1518 1.362 . S
H1520 C1526 0.930 . S
H1521 C1529 0.930 . S
H1522 C1530 0.930 . S
H1523 C1531 0.930 . S
H1524 C1534 0.930 . S
H1525 C1535 0.930 . S
C1526 H1520 0.930 . S
C1526 C1527 1.355 . S
C1526 C1528 1.415 . S
C1527 C1526 1.355 . S
C1527 C1529 1.419 . S
C1528 C1526 1.415 . S
C1528 C1533 1.425 . S
C1528 C1535 1.409 . S
C1529 H1521 0.930 . S
C1529 C1527 1.419 . S
C1529 C1530 1.362 . S
C1530 H1522 0.930 . S
C1530 C1529 1.362 . S
C1530 C1533 1.409 . S
C1531 H1523 0.930 . S
C1531 C1532 1.355 . S
C1531 C1533 1.415 . S
C1532 C1531 1.355 . S
C1532 C1534 1.419 . S
C1533 C1528 1.425 . S
C1533 C1530 1.409 . S
C1533 C1531 1.415 . S
C1534 H1524 0.930 . S
C1534 C1532 1.419 . S
C1534 C1535 1.362 . S
C1535 H1525 0.930 . S
C1535 C1528 1.409 . S
C1535 C1534 1.362 . S
H1536 C1542 0.930 . S
H1537 C1545 0.930 . S
H1538 C1546 0.930 . S
H1539 C1547 0.930 . S
H1540 C1550 0.930 . S
H1541 C1551 0.930 . S
C1542 H1536 0.930 . S
C1542 C1543 1.355 . S
C1542 C1544 1.415 . S
C1543 C1542 1.355 . S
C1543 C1545 1.419 . S
C1544 C1542 1.415 . S
C1544 C1549 1.425 . S
C1544 C1551 1.409 . S
C1545 H1537 0.930 . S
C1545 C1543 1.419 . S
C1545 C1546 1.362 . S
C1546 H1538 0.930 . S
C1546 C1545 1.362 . S
C1546 C1549 1.409 . S
C1547 H1539 0.930 . S
C1547 C1548 1.355 . S
C1547 C1549 1.415 . S
C1548 C1547 1.355 . S
C1548 C1550 1.419 . S
C1549 C1544 1.425 . S
C1549 C1546 1.409 . S
C1549 C1547 1.415 . S
C1550 H1540 0.930 . S
C1550 C1548 1.419 . S
C1550 C1551 1.362 . S
C1551 H1541 0.930 . S
C1551 C1544 1.409 . S
C1551 C1550 1.362 . S
H1552 C1558 0.930 . S
H1553 C1561 0.930 . S
H1554 C1562 0.930 . S
H1555 C1563 0.930 . S
H1556 C1566 0.930 . S
H1557 C1567 0.930 . S
C1558 H1552 0.930 . S
C1558 C1559 1.355 . S
C1558 C1560 1.415 . S
C1559 C1558 1.355 . S
C1559 C1561 1.419 . S
C1560 C1558 1.415 . S
C1560 C1565 1.425 . S
C1560 C1567 1.409 . S
C1561 H1553 0.930 . S
C1561 C1559 1.419 . S
C1561 C1562 1.362 . S
C1562 H1554 0.930 . S
C1562 C1561 1.362 . S
C1562 C1565 1.409 . S
C1563 H1555 0.930 . S
C1563 C1564 1.355 . S
C1563 C1565 1.415 . S
C1564 C1563 1.355 . S
C1564 C1566 1.419 . S
C1565 C1560 1.425 . S
C1565 C1562 1.409 . S
C1565 C1563 1.415 . S
C1566 H1556 0.930 . S
C1566 C1564 1.419 . S
C1566 C1567 1.362 . S
C1567 H1557 0.930 . S
C1567 C1560 1.409 . S
C1567 C1566 1.362 . S
H1568 C1574 0.930 . S
H1569 C1577 0.930 . S
H1570 C1578 0.930 . S
H1571 C1579 0.930 . S
H1572 C1582 0.930 . S
H1573 C1583 0.930 . S
C1574 H1568 0.930 . S
C1574 C1575 1.355 . S
C1574 C1576 1.415 . S
C1575 C1574 1.355 . S
C1575 C1577 1.419 . S
C1576 C1574 1.415 . S
C1576 C1581 1.425 . S
C1576 C1583 1.409 . S
C1577 H1569 0.930 . S
C1577 C1575 1.419 . S
C1577 C1578 1.362 . S
C1578 H1570 0.930 . S
C1578 C1577 1.362 . S
C1578 C1581 1.409 . S
C1579 H1571 0.930 . S
C1579 C1580 1.355 . S
C1579 C1581 1.415 . S
C1580 C1579 1.355 . S
C1580 C1582 1.419 . S
C1581 C1576 1.425 . S
C1581 C1578 1.409 . S
C1581 C1579 1.415 . S
C1582 H1572 0.930 . S
C1582 C1580 1.419 . S
C1582 C1583 1.362 . S
C1583 H1573 0.930 . S
C1583 C1576 1.409 . S
C1583 C1582 1.362 . S
H1584 C1590 0.930 . S
H1585 C1593 0.930 . S
H1586 C1594 0.930 . S
H1587 C1595 0.930 . S
H1588 C1598 0.930 . S
H1589 C1599 0.930 . S
C1590 H1584 0.930 . S
C1590 C1591 1.355 . S
C1590 C1592 1.415 . S
C1591 C1590 1.355 . S
C1591 C1593 1.419 . S
C1592 C1590 1.415 . S
C1592 C1597 1.425 . S
C1592 C1599 1.409 . S
C1593 H1585 0.930 . S
C1593 C1591 1.419 . S
C1593 C1594 1.362 . S
C1594 H1586 0.930 . S
C1594 C1593 1.362 . S
C1594 C1597 1.409 . S
C1595 H1587 0.930 . S
C1595 C1596 1.355 . S
C1595 C1597 1.415 . S
C1596 C1595 1.355 . S
C1596 C1598 1.419 . S
C1597 C1592 1.425 . S
C1597 C1594 1.409 . S
C1597 C1595 1.415 . S
C1598 H1588 0.930 . S
C1598 C1596 1.419 . S
C1598 C1599 1.362 . S
C1599 H1589 0.930 . S
C1599 C1592 1.409 . S
C1599 C1598 1.362 . S
H1600 C1606 0.930 . S
H1601 C1609 0.930 . S
H1602 C1610 0.930 . S
H1603 C1611 0.930 . S
H1604 C1614 0.930 . S
H1605 C1615 0.930 . S
C1606 H1600 0.930 . S
C1606 C1607 1.355 . S
C1606 C1608 1.415 . S
C1607 C1606 1.355 . S
C1607 C1609 1.419 . S
C1608 C1606 1.415 . S
C1608 C1613 1.425 . S
C1608 C1615 1.409 . S
C1609 H1601 0.930 . S
C1609 C1607 1.419 . S
C1609 C1610 1.362 . S
C1610 H1602 0.930 . S
C1610 C1609 1.362 . S
C1610 C1613 1.409 . S
C1611 H1603 0.930 . S
C1611 C1612 1.355 . S
C1611 C1613 1.415 . S
C1612 C1611 1.355 . S
C1612 C1614 1.419 . S
C1613 C1608 1.425 . S
C1613 C1610 1.409 . S
C1613 C1611 1.415 . S
C1614 H1604 0.930 . S
C1614 C1612 1.419 . S
C1614 C1615 1.362 . S
C1615 H1605 0.930 . S
C1615 C1608 1.409 . S
C1615 C1614 1.362 . S
H1616 C1622 0.930 . S
H1617 C1625 0.930 . S
H1618 C1626 0.930 . S
H1619 C1627 0.930 . S
H1620 C1630 0.930 . S
H1621 C1631 0.930 . S
C1622 H1616 0.930 . S
C1622 C1623 1.355 . S
C1622 C1624 1.415 . S
C1623 C1622 1.355 . S
C1623 C1625 1.419 . S
C1624 C1622 1.415 . S
C1624 C1629 1.425 . S
C1624 C1631 1.409 . S
C1625 H1617 0.930 . S
C1625 C1623 1.419 . S
C1625 C1626 1.362 . S
C1626 H1618 0.930 . S
C1626 C1625 1.362 . S
C1626 C1629 1.409 . S
C1627 H1619 0.930 . S
C1627 C1628 1.355 . S
C1627 C1629 1.415 . S
C1628 C1627 1.355 . S
C1628 C1630 1.419 . S
C1629 C1624 1.425 . S
C1629 C1626 1.409 . S
C1629 C1627 1.415 . S
C1630 H1620 0.930 . S
C1630 C1628 1.419 . S
C1630 C1631 1.362 . S
C1631 H1621 0.930 . S
C1631 C1624 1.409 . S
C1631 C1630 1.362 . S
H1632 C1638 0.930 . S
H1633 C1641 0.930 . S
H1634 C1642 0.930 . S
H1635 C1643 0.930 . S
H1636 C1646 0.930 . S
H1637 C1647 0.930 . S
C1638 H1632 0.930 . S
C1638 C1639 1.355 . S
C1638 C1640 1.415 . S
C1639 C1638 1.355 . S
C1639 C1641 1.419 . S
C1640 C1638 1.415 . S
C1640 C1645 1.425 . S
C1640 C1647 1.409 . S
C1641 H1633 0.930 . S
C1641 C1639 1.419 . S
C1641 C1642 1.362 . S
C1642 H1634 0.930 . S
C1642 C1641 1.362 . S
C1642 C1645 1.409 . S
C1643 H1635 0.930 . S
C1643 C1644 1.355 . S
C1643 C1645 1.415 . S
C1644 C1643 1.355 . S
C1644 C1646 1.419 . S
C1645 C1640 1.425 . S
C1645 C1642 1.409 . S
C1645 C1643 1.415 . S
C1646 H1636 0.930 . S
C1646 C1644 1.419 . S
C1646 C1647 1.362 . S
C1647 H1637 0.930 . S
C1647 C1640 1.409 . S
C1647 C1646 1.362 . S
H1648 C1654 0.930 . S
H1649 C1657 0.930 . S
H1650 C1658 0.930 . S
H1651 C1659 0.930 . S
H1652 C1662 0.930 . S
H1653 C1663 0.930 . S
C1654 H1648 0.930 . S
C1654 C1655 1.355 . S
C1654 C1656 1.415 . S
C1655 C1654 1.355 . S
C1655 C1657 1.419 . S
C1656 C1654 1.415 . S
C1656 C1661 1.425 . S
C1656 C1663 1.409 . S
C1657 H1649 0.930 . S
C1657 C1655 1.419 . S
C1657 C1658 1.362 . S
C1658 H1650 0.930 . S
C1658 C1657 1.362 . S
C1658 C1661 1.409 . S
C1659 H1651 0.930 . S
C1659 C1660 1.355 . S
C1659 C1661 1.415 . S
C1660 C1659 1.355 . S
C1660 C1662 1.419 . S
C1661 C1656 1.425 . S
C1661 C1658 1.409 . S
C1661 C1659 1.415 . S
C1662 H1652 0.930 . S
C1662 C1660 1.419 . S
C1662 C1663 1.362 . S
C1663 H1653 0.930 . S
C1663 C1656 1.409 . S
C1663 C1662 1.362 . S
H1664 C1670 0.930 . S
H1665 C1673 0.930 . S
H1666 C1674 0.930 . S
H1667 C1675 0.930 . S
H1668 C1678 0.930 . S
H1669 C1679 0.930 . S
C1670 H1664 0.930 . S
C1670 C1671 1.355 . S
C1670 C1672 1.415 . S
C1671 C1670 1.355 . S
C1671 C1673 1.419 . S
C1672 C1670 1.415 . S
C1672 C1677 1.425 . S
C1672 C1679 1.409 . S
C1673 H1665 0.930 . S
C1673 C1671 1.419 . S
C1673 C1674 1.362 . S
C1674 H1666 0.930 . S
C1674 C1673 1.362 . S
C1674 C1677 1.409 . S
C1675 H1667 0.930 . S
C1675 C1676 1.355 . S
C1675 C1677 1.415 . S
C1676 C1675 1.355 . S
C1676 C1678 1.419 . S
C1677 C1672 1.425 . S
C1677 C1674 1.409 . S
C1677 C1675 1.415 . S
C1678 H1668 0.930 . S
C1678 C1676 1.419 . S
C1678 C1679 1.362 . S
C1679 H1669 0.930 . S
C1679 C1672 1.409 . S
C1679 C1678 1.362 . S
H1680 C1686 0.930 . S
H1681 C1689 0.930 . S
H1682 C1690 0.930 . S
H1683 C1691 0.930 . S
H1684 C1694 0.930 . S
H1685 C1695 0.930 . S
C1686 H1680 0.930 . S
C1686 C1687 1.355 . S
C1686 C1688 1.415 . S
C1687 C1686 1.355 . S
C1687 C1689 1.419 . S
C1688 C1686 1.415 . S
C1688 C1693 1.425 . S
C1688 C1695 1.409 . S
C1689 H1681 0.930 . S
C1689 C1687 1.419 . S
C1689 C1690 1.362 . S
C1690 H1682 0.930 . S
C1690 C1689 1.362 . S
C1690 C1693 1.409 . S
C1691 H1683 0.930 . S
C1691 C1692 1.355 . S
C1691 C1693 1.415 . S
C1692 C1691 1.355 . S
C1692 C1694 1.419 . S
C1693 C1688 1.425 . S
C1693 C1690 1.409 . S
C1693 C1691 1.415 . S
C1694 H1684 0.930 . S
C1694 C1692 1.419 . S
C1694 C1695 1.362 . S
C1695 H1685 0.930 . S
C1695 C1688 1.409 . S
C1695 C1694 1.362 . S
H1696 C1702 0.930 . S
H1697 C1705 0.930 . S
H1698 C1706 0.930 . S
H1699 C1707 0.930 . S
H1700 C1710 0.930 . S
H1701 C1711 0.930 . S
C1702 H1696 0.930 . S
C1702 C1703 1.355 . S
C1702 C1704 1.415 . S
C1703 C1702 1.355 . S
C1703 C1705 1.419 . S
C1704 C1702 1.415 . S
C1704 C1709 1.425 . S
C1704 C1711 1.409 . S
C1705 H1697 0.930 . S
C1705 C1703 1.419 . S
C1705 C1706 1.362 . S
C1706 H1698 0.930 . S
C1706 C1705 1.362 . S
C1706 C1709 1.409 . S
C1707 H1699 0.930 . S
C1707 C1708 1.355 . S
C1707 C1709 1.415 . S
C1708 C1707 1.355 . S
C1708 C1710 1.419 . S
C1709 C1704 1.425 . S
C1709 C1706 1.409 . S
C1709 C1707 1.415 . S
C1710 H1700 0.930 . S
C1710 C1708 1.419 . S
C1710 C1711 1.362 . S
C1711 H1701 0.930 . S
C1711 C1704 1.409 . S
C1711 C1710 1.362 . S
H1712 C1718 0.930 . S
H1713 C1721 0.930 . S
H1714 C1722 0.930 . S
H1715 C1723 0.930 . S
H1716 C1726 0.930 . S
H1717 C1727 0.930 . S
C1718 H1712 0.930 . S
C1718 C1719 1.355 . S
C1718 C1720 1.415 . S
C1719 C1718 1.355 . S
C1719 C1721 1.419 . S
C1720 C1718 1.415 . S
C1720 C1725 1.425 . S
C1720 C1727 1.409 . S
C1721 H1713 0.930 . S
C1721 C1719 1.419 . S
C1721 C1722 1.362 . S
C1722 H1714 0.930 . S
C1722 C1721 1.362 . S
C1722 C1725 1.409 . S
C1723 H1715 0.930 . S
C1723 C1724 1.355 . S
C1723 C1725 1.415 . S
C1724 C1723 1.355 . S
C1724 C1726 1.419 . S
C1725 C1720 1.425 . S
C1725 C1722 1.409 . S
C1725 C1723 1.415 . S
C1726 H1716 0.930 . S
C1726 C1724 1.419 . S
C1726 C1727 1.362 . S
C1727 H1717 0.930 . S
C1727 C1720 1.409 . S
C1727 C1726 1.362 . S
H1728 C1734 0.930 . S
H1729 C1737 0.930 . S
H1730 C1738 0.930 . S
H1731 C1739 0.930 . S
H1732 C1742 0.930 . S
H1733 C1743 0.930 . S
C1734 H1728 0.930 . S
C1734 C1735 1.355 . S
C1734 C1736 1.415 . S
C1735 C1734 1.355 . S
C1735 C1737 1.419 . S
C1736 C1734 1.415 . S
C1736 C1741 1.425 . S
C1736 C1743 1.409 . S
C1737 H1729 0.930 . S
C1737 C1735 1.419 . S
C1737 C1738 1.362 . S
C1738 H1730 0.930 . S
C1738 C1737 1.362 . S
C1738 C1741 1.409 . S
C1739 H1731 0.930 . S
C1739 C1740 1.355 . S
C1739 C1741 1.415 . S
C1740 C1739 1.355 . S
C1740 C1742 1.419 . S
C1741 C1736 1.425 . S
C1741 C1738 1.409 . S
C1741 C1739 1.415 . S
C1742 H1732 0.930 . S
C1742 C1740 1.419 . S
C1742 C1743 1.362 . S
C1743 H1733 0.930 . S
C1743 C1736 1.409 . S
C1743 C1742 1.362 . S
H1744 C1750 0.930 . S
H1745 C1753 0.930 . S
H1746 C1754 0.930 . S
H1747 C1755 0.930 . S
H1748 C1758 0.930 . S
H1749 C1759 0.930 . S
C1750 H1744 0.930 . S
C1750 C1751 1.355 . S
C1750 C1752 1.415 . S
C1751 C1750 1.355 . S
C1751 C1753 1.419 . S
C1752 C1750 1.415 . S
C1752 C1757 1.425 . S
C1752 C1759 1.409 . S
C1753 H1745 0.930 . S
C1753 C1751 1.419 . S
C1753 C1754 1.362 . S
C1754 H1746 0.930 . S
C1754 C1753 1.362 . S
C1754 C1757 1.409 . S
C1755 H1747 0.930 . S
C1755 C1756 1.355 . S
C1755 C1757 1.415 . S
C1756 C1755 1.355 . S
C1756 C1758 1.419 . S
C1757 C1752 1.425 . S
C1757 C1754 1.409 . S
C1757 C1755 1.415 . S
C1758 H1748 0.930 . S
C1758 C1756 1.419 . S
C1758 C1759 1.362 . S
C1759 H1749 0.930 . S
C1759 C1752 1.409 . S
C1759 C1758 1.362 . S
H1760 C1766 0.930 . S
H1761 C1769 0.930 . S
H1762 C1770 0.930 . S
H1763 C1771 0.930 . S
H1764 C1774 0.930 . S
H1765 C1775 0.930 . S
C1766 H1760 0.930 . S
C1766 C1767 1.355 . S
C1766 C1768 1.415 . S
C1767 C1766 1.355 . S
C1767 C1769 1.419 . S
C1768 C1766 1.415 . S
C1768 C1773 1.425 . S
C1768 C1775 1.409 . S
C1769 H1761 0.930 . S
C1769 C1767 1.419 . S
C1769 C1770 1.362 . S
C1770 H1762 0.930 . S
C1770 C1769 1.362 . S
C1770 C1773 1.409 . S
C1771 H1763 0.930 . S
C1771 C1772 1.355 . S
C1771 C1773 1.415 . S
C1772 C1771 1.355 . S
C1772 C1774 1.419 . S
C1773 C1768 1.425 . S
C1773 C1770 1.409 . S
C1773 C1771 1.415 . S
C1774 H1764 0.930 . S
C1774 C1772 1.419 . S
C1774 C1775 1.362 . S
C1775 H1765 0.930 . S
C1775 C1768 1.409 . S
C1775 C1774 1.362 . S
H1776 C1782 0.930 . S
H1777 C1785 0.930 . S
H1778 C1786 0.930 . S
H1779 C1787 0.930 . S
H1780 C1790 0.930 . S
H1781 C1791 0.930 . S
C1782 H1776 0.930 . S
C1782 C1783 1.355 . S
C1782 C1784 1.415 . S
C1783 C1782 1.355 . S
C1783 C1785 1.419 . S
C1784 C1782 1.415 . S
C1784 C1789 1.425 . S
C1784 C1791 1.409 . S
C1785 H1777 0.930 . S
C1785 C1783 1.419 . S
C1785 C1786 1.362 . S
C1786 H1778 0.930 . S
C1786 C1785 1.362 . S
C1786 C1789 1.409 . S
C1787 H1779 0.930 . S
C1787 C1788 1.355 . S
C1787 C1789 1.415 . S
C1788 C1787 1.355 . S
C1788 C1790 1.419 . S
C1789 C1784 1.425 . S
C1789 C1786 1.409 . S
C1789 C1787 1.415 . S
C1790 H1780 0.930 . S
C1790 C1788 1.419 . S
C1790 C1791 1.362 . S
C1791 H1781 0.930 . S
C1791 C1784 1.409 . S
C1791 C1790 1.362 . S
H1792 C1798 0.930 . S
H1793 C1801 0.930 . S
H1794 C1802 0.930 . S
H1795 C1803 0.930 . S
H1796 C1806 0.930 . S
H1797 C1807 0.930 . S
C1798 H1792 0.930 . S
C1798 C1799 1.355 . S
C1798 C1800 1.415 . S
C1799 C1798 1.355 . S
C1799 C1801 1.419 . S
C1800 C1798 1.415 . S
C1800 C1805 1.425 . S
C1800 C1807 1.409 . S
C1801 H1793 0.930 . S
C1801 C1799 1.419 . S
C1801 C1802 1.362 . S
C1802 H1794 0.930 . S
C1802 C1801 1.362 . S
C1802 C1805 1.409 . S
C1803 H1795 0.930 . S
C1803 C1804 1.355 . S
C1803 C1805 1.415 . S
C1804 C1803 1.355 . S
C1804 C1806 1.419 . S
C1805 C1800 1.425 . S
C1805 C1802 1.409 . S
C1805 C1803 1.415 . S
C1806 H1796 0.930 . S
C1806 C1804 1.419 . S
C1806 C1807 1.362 . S
C1807 H1797 0.930 . S
C1807 C1800 1.409 . S
C1807 C1806 1.362 . S
H1808 C1814 0.930 . S
H1809 C1817 0.930 . S
H1810 C1818 0.930 . S
H1811 C1819 0.930 . S
H1812 C1822 0.930 . S
H1813 C1823 0.930 . S
C1814 H1808 0.930 . S
C1814 C1815 1.355 . S
C1814 C1816 1.415 . S
C1815 C1814 1.355 . S
C1815 C1817 1.419 . S
C1816 C1814 1.415 . S
C1816 C1821 1.425 . S
C1816 C1823 1.409 . S
C1817 H1809 0.930 . S
C1817 C1815 1.419 . S
C1817 C1818 1.362 . S
C1818 H1810 0.930 . S
C1818 C1817 1.362 . S
C1818 C1821 1.409 . S
C1819 H1811 0.930 . S
C1819 C1820 1.355 . S
C1819 C1821 1.415 . S
C1820 C1819 1.355 . S
C1820 C1822 1.419 . S
C1821 C1816 1.425 . S
C1821 C1818 1.409 . S
C1821 C1819 1.415 . S
C1822 H1812 0.930 . S
C1822 C1820 1.419 . S
C1822 C1823 1.362 . S
C1823 H1813 0.930 . S
C1823 C1816 1.409 . S
C1823 C1822 1.362 . S
H1824 C1830 0.930 . S
H1825 C1833 0.930 . S
H1826 C1834 0.930 . S
H1827 C1835 0.930 . S
H1828 C1838 0.930 . S
H1829 C1839 0.930 . S
C1830 H1824 0.930 . S
C1830 C1831 1.355 . S
C1830 C1832 1.415 . S
C1831 C1830 1.355 . S
C1831 C1833 1.419 . S
C1832 C1830 1.415 . S
C1832 C1837 1.425 . S
C1832 C1839 1.409 . S
C1833 H1825 0.930 . S
C1833 C1831 1.419 . S
C1833 C1834 1.362 . S
C1834 H1826 0.930 . S
C1834 C1833 1.362 . S
C1834 C1837 1.409 . S
C1835 H1827 0.930 . S
C1835 C1836 1.355 . S
C1835 C1837 1.415 . S
C1836 C1835 1.355 . S
C1836 C1838 1.419 . S
C1837 C1832 1.425 . S
C1837 C1834 1.409 . S
C1837 C1835 1.415 . S
C1838 H1828 0.930 . S
C1838 C1836 1.419 . S
C1838 C1839 1.362 . S
C1839 H1829 0.930 . S
C1839 C1832 1.409 . S
C1839 C1838 1.362 . S
H1840 C1846 0.930 . S
H1841 C1849 0.930 . S
H1842 C1850 0.930 . S
H1843 C1851 0.930 . S
H1844 C1854 0.930 . S
H1845 C1855 0.930 . S
C1846 H1840 0.930 . S
C1846 C1847 1.355 . S
C1846 C1848 1.415 . S
C1847 C1846 1.355 . S
C1847 C1849 1.419 . S
C1848 C1846 1.415 . S
C1848 C1853 1.425 . S
C1848 C1855 1.409 . S
C1849 H1841 0.930 . S
C1849 C1847 1.419 . S
C1849 C1850 1.362 . S
C1850 H1842 0.930 . S
C1850 C1849 1.362 . S
C1850 C1853 1.409 . S
C1851 H1843 0.930 . S
C1851 C1852 1.355 . S
C1851 C1853 1.415 . S
C1852 C1851 1.355 . S
C1852 C1854 1.419 . S
C1853 C1848 1.425 . S
C1853 C1850 1.409 . S
C1853 C1851 1.415 . S
C1854 H1844 0.930 . S
C1854 C1852 1.419 . S
C1854 C1855 1.362 . S
C1855 H1845 0.930 . S
C1855 C1848 1.409 . S
C1855 C1854 1.362 . S
H1856 C1862 0.930 . S
H1857 C1865 0.930 . S
H1858 C1866 0.930 . S
H1859 C1867 0.930 . S
H1860 C1870 0.930 . S
H1861 C1871 0.930 . S
C1862 H1856 0.930 . S
C1862 C1863 1.355 . S
C1862 C1864 1.415 . S
C1863 C1862 1.355 . S
C1863 C1865 1.419 . S
C1864 C1862 1.415 . S
C1864 C1869 1.425 . S
C1864 C1871 1.409 . S
C1865 H1857 0.930 . S
C1865 C1863 1.419 . S
C1865 C1866 1.362 . S
C1866 H1858 0.930 . S
C1866 C1865 1.362 . S
C1866 C1869 1.409 . S
C1867 H1859 0.930 . S
C1867 C1868 1.355 . S
C1867 C1869 1.415 . S
C1868 C1867 1.355 . S
C1868 C1870 1.419 . S
C1869 C1864 1.425 . S
C1869 C1866 1.409 . S
C1869 C1867 1.415 . S
C1870 H1860 0.930 . S
C1870 C1868 1.419 . S
C1870 C1871 1.362 . S
C1871 H1861 0.930 . S
C1871 C1864 1.409 . S
C1871 C1870 1.362 . S
H1872 C1878 0.930 . S
H1873 C1881 0.930 . S
H1874 C1882 0.930 . S
H1875 C1883 0.930 . S
H1876 C1886 0.930 . S
H1877 C1887 0.930 . S
C1878 H1872 0.930 . S
C1878 C1879 1.355 . S
C1878 C1880 1.415 . S
C1879 C1878 1.355 . S
C1879 C1881 1.419 . S
C1880 C1878 1.415 . S
C1880 C1885 1.425 . S
C1880 C1887 1.409 . S
C1881 H1873 0.930 . S
C1881 C1879 1.419 . S
C1881 C1882 1.362 . S
C1882 H1874 0.930 . S
C1882 C1881 1.362 . S
C1882 C1885 1.409 . S
C1883 H1875 0.930 . S
C1883 C1884 1.355 . S
C1883 C1885 1.415 . S
C1884 C1883 1.355 . S
C1884 C1886 1.419 . S
C1885 C1880 1.425 . S
C1885 C1882 1.409 . S
C1885 C1883 1.415 . S
C1886 H1876 0.930 . S
C1886 C1884 1.419 . S
C1886 C1887 1.362 . S
C1887 H1877 0.930 . S
C1887 C1880 1.409 . S
C1887 C1886 1.362 . S
H1888 C1894 0.930 . S
H1889 C1897 0.930 . S
H1890 C1898 0.930 . S
H1891 C1899 0.930 . S
H1892 C1902 0.930 . S
H1893 C1903 0.930 . S
C1894 H1888 0.930 . S
C1894 C1895 1.355 . S
C1894 C1896 1.415 . S
C1895 C1894 1.355 . S
C1895 C1897 1.419 . S
C1896 C1894 1.415 . S
C1896 C1901 1.425 . S
C1896 C1903 1.409 . S
C1897 H1889 0.930 . S
C1897 C1895 1.419 . S
C1897 C1898 1.362 . S
C1898 H1890 0.930 . S
C1898 C1897 1.362 . S
C1898 C1901 1.409 . S
C1899 H1891 0.930 . S
C1899 C1900 1.355 . S
C1899 C1901 1.415 . S
C1900 C1899 1.355 . S
C1900 C1902 1.419 . S
C1901 C1896 1.425 . S
C1901 C1898 1.409 . S
C1901 C1899 1.415 . S
C1902 H1892 0.930 . S
C1902 C1900 1.419 . S
C1902 C1903 1.362 . S
C1903 H1893 0.930 . S
C1903 C1896 1.409 . S
C1903 C1902 1.362 . S
H1904 C1910 0.930 . S
H1905 C1913 0.930 . S
H1906 C1914 0.930 . S
H1907 C1915 0.930 . S
H1908 C1918 0.930 . S
H1909 C1919 0.930 . S
C1910 H1904 0.930 . S
C1910 C1911 1.355 . S
C1910 C1912 1.415 . S
C1911 C1910 1.355 . S
C1911 C1913 1.419 . S
C1912 C1910 1.415 . S
C1912 C1917 1.425 . S
C1912 C1919 1.409 . S
C1913 H1905 0.930 . S
C1913 C1911 1.419 . S
C1913 C1914 1.362 . S
C1914 H1906 0.930 . S
C1914 C1913 1.362 . S
C1914 C1917 1.409 . S
C1915 H1907 0.930 . S
C1915 C1916 1.355 . S
C1915 C1917 1.415 . S
C1916 C1915 1.355 . S
C1916 C1918 1.419 . S
C1917 C1912 1.425 . S
C1917 C1914 1.409 . S
C1917 C1915 1.415 . S
C1918 H1908 0.930 . S
C1918 C1916 1.419 . S
C1918 C1919 1.362 . S
C1919 H1909 0.930 . S
C1919 C1912 1.409 . S
C1919 C1918 1.362 . S
H1920 C1926 0.930 . S
H1921 C1929 0.930 . S
H1922 C1930 0.930 . S
H1923 C1931 0.930 . S
H1924 C1934 0.930 . S
H1925 C1935 0.930 . S
C1926 H1920 0.930 . S
C1926 C1927 1.355 . S
C1926 C1928 1.415 . S
C1927 C1926 1.355 . S
C1927 C1929 1.419 . S
C1928 C1926 1.415 . S
C1928 C1933 1.425 . S
C1928 C1935 1.409 . S
C1929 H1921 0.930 . S
C1929 C1927 1.419 . S
C1929 C1930 1.362 . S
C1930 H1922 0.930 . S
C1930 C1929 1.362 . S
C1930 C1933 1.409 . S
C1931 H1923 0.930 . S
C1931 C1932 1.355 . S
C1931 C1933 1.415 . S
C1932 C1931 1.355 . S
C1932 C1934 1.419 . S
C1933 C1928 1.425 . S
C1933 C1930 1.409 . S
C1933 C1931 1.415 . S
C1934 H1924 0.930 . S
C1934 C1932 1.419 . S
C1934 C1935 1.362 . S
C1935 H1925 0.930 . S
C1935 C1928 1.409 . S
C1935 C1934 1.362 . S
H1936 C1942 0.930 . S
H1937 C1945 0.930 . S
H1938 C1946 0.930 . S
H1939 C1947 0.930 . S
H1940 C1950 0.930 . S
H1941 C1951 0.930 . S
C1942 H1936 0.930 . S
C1942 C1943 1.355 . S
C1942 C1944 1.415 . S
C1943 C1942 1.355 . S
C1943 C1945 1.419 . S
C1944 C1942 1.415 . S
C1944 C1949 1.425 . S
C1944 C1951 1.409 . S
C1945 H1937 0.930 . S
C1945 C1943 1.419 . S
C1945 C1946 1.362 . S
C1946 H1938 0.930 . S
C1946 C1945 1.362 . S
C1946 C1949 1.409 . S
C1947 H1939 0.930 . S
C1947 C1948 1.355 . S
C1947 C1949 1.415 . S
C1948 C1947 1.355 . S
C1948 C1950 1.419 . S
C1949 C1944 1.425 . S
C1949 C1946 1.409 . S
C1949 C1947 1.415 . S
C1950 H1940 0.930 . S
C1950 C1948 1.419 . S
C1950 C1951 1.362 . S
C1951 H1941 0.930 . S
C1951 C1944 1.409 . S
C1951 C1950 1.362 . S
H1952 C1958 0.930 . S
H1953 C1961 0.930 . S
H1954 C1962 0.930 . S
H1955 C1963 0.930 . S
H1956 C1966 0.930 . S
H1957 C1967 0.930 . S
C1958 H1952 0.930 . S
C1958 C1959 1.355 . S
C1958 C1960 1.415 . S
C1959 C1958 1.355 . S
C1959 C1961 1.419 . S
C1960 C1958 1.415 . S
C1960 C1965 1.425 . S
C1960 C1967 1.409 . S
C1961 H1953 0.930 . S
C1961 C1959 1.419 . S
C1961 C1962 1.362 . S
C1962 H1954 0.930 . S
C1962 C1961 1.362 . S
C1962 C1965 1.409 . S
C1963 H1955 0.930 . S
C1963 C1964 1.355 . S
C1963 C1965 1.415 . S
C1964 C1963 1.355 . S
C1964 C1966 1.419 . S
C1965 C1960 1.425 . S
C1965 C1962 1.409 . S
C1965 C1963 1.415 . S
C1966 H1956 0.930 . S
C1966 C1964 1.419 . S
C1966 C1967 1.362 . S
C1967 H1957 0.930 . S
C1967 C1960 1.409 . S
C1967 C1966 1.362 . S
H1968 C1974 0.930 . S
H1969 C1977 0.930 . S
H1970 C1978 0.930 . S
H1971 C1979 0.930 . S
H1972 C1982 0.930 . S
H1973 C1983 0.930 . S
C1974 H1968 0.930 . S
C1974 C1975 1.355 . S
C1974 C1976 1.415 . S
C1975 C1974 1.355 . S
C1975 C1977 1.419 . S
C1976 C1974 1.415 . S
C1976 C1981 1.425 . S
C1976 C1983 1.409 . S
C1977 H1969 0.930 . S
C1977 C1975 1.419 . S
C1977 C1978 1.362 . S
C1978 H1970 0.930 . S
C1978 C1977 1.362 . S
C1978 C1981 1.409 . S
C1979 H1971 0.930 . S
C1979 C1980 1.355 . S
C1979 C1981 1.415 . S
C1980 C1979 1.355 . S
C1980 C1982 1.419 . S
C1981 C1976 1.425 . S
C1981 C1978 1.409 . S
C1981 C1979 1.415 . S
C1982 H1972 0.930 . S
C1982 C1980 1.419 . S
C1982 C1983 1.362 . S
C1983 H1973 0.930 . S
C1983 C1976 1.409 . S
C1983 C1982 1.362 . S
H1984 C1990 0.930 . S
H1985 C1993 0.930 . S
H1986 C1994 0.930 . S
H1987 C1995 0.930 . S
H1988 C1998 0.930 . S
H1989 C1999 0.930 . S
C1990 H1984 0.930 . S
C1990 C1991 1.355 . S
C1990 C1992 1.415 . S
C1991 C1990 1.355 . S
C1991 C1993 1.419 . S
C1992 C1990 1.415 . S
C1992 C1997 1.425 . S
C1992 C1999 1.409 . S
C1993 H1985 0.930 . S
C1993 C1991 1.419 . S
C1993 C1994 1.362 . S
C1994 H1986 0.930 . S
C1994 C1993 1.362 . S
C1994 C1997 1.409 . S
C1995 H1987 0.930 . S
C1995 C1996 1.355 . S
C1995 C1997 1.415 . S
C1996 C1995 1.355 . S
C1996 C1998 1.419 . S
C1997 C1992 1.425 . S
C1997 C1994 1.409 . S
C1997 C1995 1.415 . S
C1998 H1988 0.930 . S
C1998 C1996 1.419 . S
C1998 C1999 1.362 . S
C1999 H1989 0.930 . S
C1999 C1992 1.409 . S
C1999 C1998 1.362 . S
H2000 C2006 0.930 . S
H2001 C2009 0.930 . S
H2002 C2010 0.930 . S
H2003 C2011 0.930 . S
H2004 C2014 0.930 . S
H2005 C2015 0.930 . S
C2006 H2000 0.930 . S
C2006 C2007 1.355 . S
C2006 C2008 1.415 . S
C2007 C2006 1.355 . S
C2007 C2009 1.419 . S
C2008 C2006 1.415 . S
C2008 C2013 1.425 . S
C2008 C2015 1.409 . S
C2009 H2001 0.930 . S
C2009 C2007 1.419 . S
C2009 C2010 1.362 . S
C2010 H2002 0.930 . S
C2010 C2009 1.362 . S
C2010 C2013 1.409 . S
C2011 H2003 0.930 . S
C2011 C2012 1.355 . S
C2011 C2013 1.415 . S
C2012 C2011 1.355 . S
C2012 C2014 1.419 . S
C2013 C2008 1.425 . S
C2013 C2010 1.409 . S
C2013 C2011 1.415 . S
C2014 H2004 0.930 . S
C2014 C2012 1.419 . S
C2014 C2015 1.362 . S
C2015 H2005 0.930 . S
C2015 C2008 1.409 . S
C2015 C2014 1.362 . S
H2016 C2022 0.930 . S
H2017 C2025 0.930 . S
H2018 C2026 0.930 . S
H2019 C2027 0.930 . S
H2020 C2030 0.930 . S
H2021 C2031 0.930 . S
C2022 H2016 0.930 . S
C2022 C2023 1.355 . S
C2022 C2024 1.415 . S
C2023 C2022 1.355 . S
C2023 C2025 1.419 . S
C2024 C2022 1.415 . S
C2024 C2029 1.425 . S
C2024 C2031 1.409 . S
C2025 H2017 0.930 . S
C2025 C2023 1.419 . S
C2025 C2026 1.362 . S
C2026 H2018 0.930 . S
C2026 C2025 1.362 . S
C2026 C2029 1.409 . S
C2027 H2019 0.930 . S
C2027 C2028 1.355 . S
C2027 C2029 1.415 . S
C2028 C2027 1.355 . S
C2028 C2030 1.419 . S
C2029 C2024 1.425 . S
C2029 C2026 1.409 . S
C2029 C2027 1.415 . S
C2030 H2020 0.930 . S
C2030 C2028 1.419 . S
C2030 C2031 1.362 . S
C2031 H2021 0.930 . S
C2031 C2024 1.409 . S
C2031 C2030 1.362 . S
H2032 C2038 0.930 . S
H2033 C2041 0.930 . S
H2034 C2042 0.930 . S
H2035 C2043 0.930 . S
H2036 C2046 0.930 . S
H2037 C2047 0.930 . S
C2038 H2032 0.930 . S
C2038 C2039 1.355 . S
C2038 C2040 1.415 . S
C2039 C2038 1.355 . S
C2039 C2041 1.419 . S
C2040 C2038 1.415 . S
C2040 C2045 1.425 . S
C2040 C2047 1.409 . S
C2041 H2033 0.930 . S
C2041 C2039 1.419 . S
C2041 C2042 1.362 . S
C2042 H2034 0.930 . S
C2042 C2041 1.362 . S
C2042 C2045 1.409 . S
C2043 H2035 0.930 . S
C2043 C2044 1.355 . S
C2043 C2045 1.415 . S
C2044 C2043 1.355 . S
C2044 C2046 1.419 . S
C2045 C2040 1.425 . S
C2045 C2042 1.409 . S
C2045 C2043 1.415 . S
C2046 H2036 0.930 . S
C2046 C2044 1.419 . S
C2046 C2047 1.362 . S
C2047 H2037 0.930 . S
C2047 C2040 1.409 . S
C2047 C2046 1.362 . S
H2048 C2054 0.930 . S
H2049 C2057 0.930 . S
H2050 C2058 0.930 . S
H2051 C2059 0.930 . S
H2052 C2062 0.930 . S
H2053 C2063 0.930 . S
C2054 H2048 0.930 . S
C2054 C2055 1.355 . S
C2054 C2056 1.415 . S
C2055 C2054 1.355 . S
C2055 C2057 1.419 . S
C2056 C2054 1.415 . S
C2056 C2061 1.425 . S
C2056 C2063 1.409 . S
C2057 H2049 0.930 . S
C2057 C2055 1.419 . S
C2057 C2058 1.362 . S
C2058 H2050 0.930 . S
C2058 C2057 1.362 . S
C2058 C2061 1.409 . S
C2059 H2051 0.930 . S
C2059 C2060 1.355 . S
C2059 C2061 1.415 . S
C2060 C2059 1.355 . S
C2060 C2062 1.419 . S
C2061 C2056 1.425 . S
C2061 C2058 1.409 . S
C2061 C2059 1.415 . S
C2062 H2052 0.930 . S
C2062 C2060 1.419 . S
C2062 C2063 1.362 . S
C2063 H2053 0.930 . S
C2063 C2056 1.409 . S
C2063 C2062 1.362 . S
H2064 C2070 0.930 . S
H2065 C2073 0.930 . S
H2066 C2074 0.930 . S
H2067 C2075 0.930 . S
H2068 C2078 0.930 . S
H2069 C2079 0.930 . S
C2070 H2064 0.930 . S
C2070 C2071 1.355 . S
C2070 C2072 1.415 . S
C2071 C2070 1.355 . S
C2071 C2073 1.419 . S
C2072 C2070 1.415 . S
C2072 C2077 1.425 . S
C2072 C2079 1.409 . S
C2073 H2065 0.930 . S
C2073 C2071 1.419 . S
C2073 C2074 1.362 . S
C2074 H2066 0.930 . S
C2074 C2073 1.362 . S
C2074 C2077 1.409 . S
C2075 H2067 0.930 . S
C2075 C2076 1.355 . S
C2075 C2077 1.415 . S
C2076 C2075 1.355 . S
C2076 C2078 1.419 . S
C2077 C2072 1.425 . S
C2077 C2074 1.409 . S
C2077 C2075 1.415 . S
C2078 H2068 0.930 . S
C2078 C2076 1.419 . S
C2078 C2079 1.362 . S
C2079 H2069 0.930 . S
C2079 C2072 1.409 . S
C2079 C2078 1.362 . S
H2080 C2086 0.930 . S
H2081 C2089 0.930 . S
H2082 C2090 0.930 . S
H2083 C2091 0.930 . S
H2084 C2094 0.930 . S
H2085 C2095 0.930 . S
C2086 H2080 0.930 . S
C2086 C2087 1.355 . S
C2086 C2088 1.415 . S
C2087 C2086 1.355 . S
C2087 C2089 1.419 . S
C2088 C2086 1.415 . S
C2088 C2093 1.425 . S
C2088 C2095 1.409 . S
C2089 H2081 0.930 . S
C2089 C2087 1.419 . S
C2089 C2090 1.362 . S
C2090 H2082 0.930 . S
C2090 C2089 1.362 . S
C2090 C2093 1.409 . S
C2091 H2083 0.930 . S
C2091 C2092 1.355 . S
C2091 C2093 1.415 . S
C2092 C2091 1.355 . S
C2092 C2094 1.419 . S
C2093 C2088 1.425 . S
C2093 C2090 1.409 . S
C2093 C2091 1.415 . S
C2094 H2084 0.930 . S
C2094 C2092 1.419 . S
C2094 C2095 1.362 . S
C2095 H2085 0.930 . S
C2095 C2088 1.409 . S
C2095 C2094 1.362 . S
H2096 C2102 0.930 . S
H2097 C2105 0.930 . S
H2098 C2106 0.930 . S
H2099 C2107 0.930 . S
H2100 C2110 0.930 . S
H2101 C2111 0.930 . S
C2102 H2096 0.930 . S
C2102 C2103 1.355 . S
C2102 C2104 1.415 . S
C2103 C2102 1.355 . S
C2103 C2105 1.419 . S
C2104 C2102 1.415 . S
C2104 C2109 1.425 . S
C2104 C2111 1.409 . S
C2105 H2097 0.930 . S
C2105 C2103 1.419 . S
C2105 C2106 1.362 . S
C2106 H2098 0.930 . S
C2106 C2105 1.362 . S
C2106 C2109 1.409 . S
C2107 H2099 0.930 . S
C2107 C2108 1.355 . S
C2107 C2109 1.415 . S
C2108 C2107 1.355 . S
C2108 C2110 1.419 . S
C2109 C2104 1.425 . S
C2109 C2106 1.409 . S
C2109 C2107 1.415 . S
C2110 H2100 0.930 . S
C2110 C2108 1.419 . S
C2110 C2111 1.362 . S
C2111 H2101 0.930 . S
C2111 C2104 1.409 . S
C2111 C2110 1.362 . S
H2112 C2118 0.930 . S
H2113 C2121 0.930 . S
H2114 C2122 0.930 . S
H2115 C2123 0.930 . S
H2116 C2126 0.930 . S
H2117 C2127 0.930 . S
C2118 H2112 0.930 . S
C2118 C2119 1.355 . S
C2118 C2120 1.415 . S
C2119 C2118 1.355 . S
C2119 C2121 1.419 . S
C2120 C2118 1.415 . S
C2120 C2125 1.425 . S
C2120 C2127 1.409 . S
C2121 H2113 0.930 . S
C2121 C2119 1.419 . S
C2121 C2122 1.362 . S
C2122 H2114 0.930 . S
C2122 C2121 1.362 . S
C2122 C2125 1.409 . S
C2123 H2115 0.930 . S
C2123 C2124 1.355 . S
C2123 C2125 1.415 . S
C2124 C2123 1.355 . S
C2124 C2126 1.419 . S
C2125 C2120 1.425 . S
C2125 C2122 1.409 . S
C2125 C2123 1.415 . S
C2126 H2116 0.930 . S
C2126 C2124 1.419 . S
C2126 C2127 1.362 . S
C2127 H2117 0.930 . S
C2127 C2120 1.409 . S
C2127 C2126 1.362 . S
H2128 C2134 0.930 . S
H2129 C2137 0.930 . S
H2130 C2138 0.930 . S
H2131 C2139 0.930 . S
H2132 C2142 0.930 . S
H2133 C2143 0.930 . S
C2134 H2128 0.930 . S
C2134 C2135 1.355 . S
C2134 C2136 1.415 . S
C2135 C2134 1.355 . S
C2135 C2137 1.419 . S
C2136 C2134 1.415 . S
C2136 C2141 1.425 . S
C2136 C2143 1.409 . S
C2137 H2129 0.930 . S
C2137 C2135 1.419 . S
C2137 C2138 1.362 . S
C2138 H2130 0.930 . S
C2138 C2137 1.362 . S
C2138 C2141 1.409 . S
C2139 H2131 0.930 . S
C2139 C2140 1.355 . S
C2139 C2141 1.415 . S
C2140 C2139 1.355 . S
C2140 C2142 1.419 . S
C2141 C2136 1.425 . S
C2141 C2138 1.409 . S
C2141 C2139 1.415 . S
C2142 H2132 0.930 . S
C2142 C2140 1.419 . S
C2142 C2143 1.362 . S
C2143 H2133 0.930 . S
C2143 C2136 1.409 . S
C2143 C2142 1.362 . S
H2144 C2150 0.930 . S
H2145 C2153 0.930 . S
H2146 C2154 0.930 . S
H2147 C2155 0.930 . S
H2148 C2158 0.930 . S
H2149 C2159 0.930 . S
C2150 H2144 0.930 . S
C2150 C2151 1.355 . S
C2150 C2152 1.415 . S
C2151 C2150 1.355 . S
C2151 C2153 1.419 . S
C2152 C2150 1.415 . S
C2152 C2157 1.425 . S
C2152 C2159 1.409 . S
C2153 H2145 0.930 . S
C2153 C2151 1.419 . S
C2153 C2154 1.362 . S
C2154 H2146 0.930 . S
C2154 C2153 1.362 . S
C2154 C2157 1.409 . S
C2155 H2147 0.930 . S
C2155 C2156 1.355 . S
C2155 C2157 1.415 . S
C2156 C2155 1.355 . S
C2156 C2158 1.419 . S
C2157 C2152 1.425 . S
C2157 C2154 1.409 . S
C2157 C2155 1.415 . S
C2158 H2148 0.930 . S
C2158 C2156 1.419 . S
C2158 C2159 1.362 . S
C2159 H2149 0.930 . S
C2159 C2152 1.409 . S
C2159 C2158 1.362 . S
H2160 C2166 0.930 . S
H2161 C2169 0.930 . S
H2162 C2170 0.930 . S
H2163 C2171 0.930 . S
H2164 C2174 0.930 . S
H2165 C2175 0.930 . S
C2166 H2160 0.930 . S
C2166 C2167 1.355 . S
C2166 C2168 1.415 . S
C2167 C2166 1.355 . S
C2167 C2169 1.419 . S
C2168 C2166 1.415 . S
C2168 C2173 1.425 . S
C2168 C2175 1.409 . S
C2169 H2161 0.930 . S
C2169 C2167 1.419 . S
C2169 C2170 1.362 . S
C2170 H2162 0.930 . S
C2170 C2169 1.362 . S
C2170 C2173 1.409 . S
C2171 H2163 0.930 . S
C2171 C2172 1.355 . S
C2171 C2173 1.415 . S
C2172 C2171 1.355 . S
C2172 C2174 1.419 . S
C2173 C2168 1.425 . S
C2173 C2170 1.409 . S
C2173 C2171 1.415 . S
C2174 H2164 0.930 . S
C2174 C2172 1.419 . S
C2174 C2175 1.362 . S
C2175 H2165 0.930 . S
C2175 C2168 1.409 . S
C2175 C2174 1.362 . S
H2176 C2182 0.930 . S
H2177 C2185 0.930 . S
H2178 C2186 0.930 . S
H2179 C2187 0.930 . S
H2180 C2190 0.930 . S
H2181 C2191 0.930 . S
C2182 H2176 0.930 . S
C2182 C2183 1.355 . S
C2182 C2184 1.415 . S
C2183 C2182 1.355 . S
C2183 C2185 1.419 . S
C2184 C2182 1.415 . S
C2184 C2189 1.425 . S
C2184 C2191 1.409 . S
C2185 H2177 0.930 . S
C2185 C2183 1.419 . S
C2185 C2186 1.362 . S
C2186 H2178 0.930 . S
C2186 C2185 1.362 . S
C2186 C2189 1.409 . S
C2187 H2179 0.930 . S
C2187 C2188 1.355 . S
C2187 C2189 1.415 . S
C2188 C2187 1.355 . S
C2188 C2190 1.419 . S
C2189 C2184 1.425 . S
C2189 C2186 1.409 . S
C2189 C2187 1.415 . S
C2190 H2180 0.930 . S
C2190 C2188 1.419 . S
C2190 C2191 1.362 . S
C2191 H2181 0.930 . S
C2191 C2184 1.409 . S
C2191 C2190 1.362 . S
H2192 C2198 0.930 . S
H2193 C2201 0.930 . S
H2194 C2202 0.930 . S
H2195 C2203 0.930 . S
H2196 C2206 0.930 . S
H2197 C2207 0.930 . S
C2198 H2192 0.930 . S
C2198 C2199 1.355 . S
C2198 C2200 1.415 . S
C2199 C2198 1.355 . S
C2199 C2201 1.419 . S
C2200 C2198 1.415 . S
C2200 C2205 1.425 . S
C2200 C2207 1.409 . S
C2201 H2193 0.930 . S
C2201 C2199 1.419 . S
C2201 C2202 1.362 . S
C2202 H2194 0.930 . S
C2202 C2201 1.362 . S
C2202 C2205 1.409 . S
C2203 H2195 0.930 . S
C2203 C2204 1.355 . S
C2203 C2205 1.415 . S
C2204 C2203 1.355 . S
C2204 C2206 1.419 . S
C2205 C2200 1.425 . S
C2205 C2202 1.409 . S
C2205 C2203 1.415 . S
C2206 H2196 0.930 . S
C2206 C2204 1.419 . S
C2206 C2207 1.362 . S
C2207 H2197 0.930 . S
C2207 C2200 1.409 . S
C2207 C2206 1.362 . S
H2208 C2214 0.930 . S
H2209 C2217 0.930 . S
H2210 C2218 0.930 . S
H2211 C2219 0.930 . S
H2212 C2222 0.930 . S
H2213 C2223 0.930 . S
C2214 H2208 0.930 . S
C2214 C2215 1.355 . S
C2214 C2216 1.415 . S
C2215 C2214 1.355 . S
C2215 C2217 1.419 . S
C2216 C2214 1.415 . S
C2216 C2221 1.425 . S
C2216 C2223 1.409 . S
C2217 H2209 0.930 . S
C2217 C2215 1.419 . S
C2217 C2218 1.362 . S
C2218 H2210 0.930 . S
C2218 C2217 1.362 . S
C2218 C2221 1.409 . S
C2219 H2211 0.930 . S
C2219 C2220 1.355 . S
C2219 C2221 1.415 . S
C2220 C2219 1.355 . S
C2220 C2222 1.419 . S
C2221 C2216 1.425 . S
C2221 C2218 1.409 . S
C2221 C2219 1.415 . S
C2222 H2212 0.930 . S
C2222 C2220 1.419 . S
C2222 C2223 1.362 . S
C2223 H2213 0.930 . S
C2223 C2216 1.409 . S
C2223 C2222 1.362 . S
H2224 C2230 0.930 . S
H2225 C2233 0.930 . S
H2226 C2234 0.930 . S
H2227 C2235 0.930 . S
H2228 C2238 0.930 . S
H2229 C2239 0.930 . S
C2230 H2224 0.930 . S
C2230 C2231 1.355 . S
C2230 C2232 1.415 . S
C2231 C2230 1.355 . S
C2231 C2233 1.419 . S
C2232 C2230 1.415 . S
C2232 C2237 1.425 . S
C2232 C2239 1.409 . S
C2233 H2225 0.930 . S
C2233 C2231 1.419 . S
C2233 C2234 1.362 . S
C2234 H2226 0.930 . S
C2234 C2233 1.362 . S
C2234 C2237 1.409 . S
C2235 H2227 0.930 . S
C2235 C2236 1.355 . S
C2235 C2237 1.415 . S
C2236 C2235 1.355 . S
C2236 C2238 1.419 . S
C2237 C2232 1.425 . S
C2237 C2234 1.409 . S
C2237 C2235 1.415 . S
C2238 H2228 0.930 . S
C2238 C2236 1.419 . S
C2238 C2239 1.362 . S
C2239 H2229 0.930 . S
C2239 C2232 1.409 . S
C2239 C2238 1.362 . S
H2240 C2246 0.930 . S
H2241 C2249 0.930 . S
H2242 C2250 0.930 . S
H2243 C2251 0.930 . S
H2244 C2254 0.930 . S
H2245 C2255 0.930 . S
C2246 H2240 0.930 . S
C2246 C2247 1.355 . S
C2246 C2248 1.415 . S
C2247 C2246 1.355 . S
C2247 C2249 1.419 . S
C2248 C2246 1.415 . S
C2248 C2253 1.425 . S
C2248 C2255 1.409 . S
C2249 H2241 0.930 . S
C2249 C2247 1.419 . S
C2249 C2250 1.362 . S
C2250 H2242 0.930 . S
C2250 C2249 1.362 . S
C2250 C2253 1.409 . S
C2251 H2243 0.930 . S
C2251 C2252 1.355 . S
C2251 C2253 1.415 . S
C2252 C2251 1.355 . S
C2252 C2254 1.419 . S
C2253 C2248 1.425 . S
C2253 C2250 1.409 . S
C2253 C2251 1.415 . S
C2254 H2244 0.930 . S
C2254 C2252 1.419 . S
C2254 C2255 1.362 . S
C2255 H2245 0.930 . S
C2255 C2248 1.409 . S
C2255 C2254 1.362 . S
H2256 C2262 0.930 . S
H2257 C2265 0.930 . S
H2258 C2266 0.930 . S
H2259 C2267 0.930 . S
H2260 C2270 0.930 . S
H2261 C2271 0.930 . S
C2262 H2256 0.930 . S
C2262 C2263 1.355 . S
C2262 C2264 1.415 . S
C2263 C2262 1.355 . S
C2263 C2265 1.419 . S
C2264 C2262 1.415 . S
C2264 C2269 1.425 . S
C2264 C2271 1.409 . S
C2265 H2257 0.930 . S
C2265 C2263 1.419 . S
C2265 C2266 1.362 . S
C2266 H2258 0.930 . S
C2266 C2265 1.362 . S
C2266 C2269 1.409 . S
C2267 H2259 0.930 . S
C2267 C2268 1.355 . S
C2267 C2269 1.415 . S
C2268 C2267 1.355 . S
C2268 C2270 1.419 . S
C2269 C2264 1.425 . S
C2269 C2266 1.409 . S
C2269 C2267 1.415 . S
C2270 H2260 0.930 . S
C2270 C2268 1.419 . S
C2270 C2271 1.362 . S
C2271 H2261 0.930 . S
C2271 C2264 1.409 . S
C2271 C2270 1.362 . S
H2272 C2278 0.930 . S
H2273 C2281 0.930 . S
H2274 C2282 0.930 . S
H2275 C2283 0.930 . S
H2276 C2286 0.930 . S
H2277 C2287 0.930 . S
C2278 H2272 0.930 . S
C2278 C2279 1.355 . S
C2278 C2280 1.415 . S
C2279 C2278 1.355 . S
C2279 C2281 1.419 . S
C2280 C2278 1.415 . S
C2280 C2285 1.425 . S
C2280 C2287 1.409 . S
C2281 H2273 0.930 . S
C2281 C2279 1.419 . S
C2281 C2282 1.362 . S
C2282 H2274 0.930 . S
C2282 C2281 1.362 . S
C2282 C2285 1.409 . S
C2283 H2275 0.930 . S
C2283 C2284 1.355 . S
C2283 C2285 1.415 . S
C2284 C2283 1.355 . S
C2284 C2286 1.419 . S
C2285 C2280 1.425 . S
C2285 C2282 1.409 . S
C2285 C2283 1.415 . S
C2286 H2276 0.930 . S
C2286 C2284 1.419 . S
C2286 C2287 1.362 . S
C2287 H2277 0.930 . S
C2287 C2280 1.409 . S
C2287 C2286 1.362 . S
H2288 C2294 0.930 . S
H2289 C2297 0.930 . S
H2290 C2298 0.930 . S
H2291 C2299 0.930 . S
H2292 C2302 0.930 . S
H2293 C2303 0.930 . S
C2294 H2288 0.930 . S
C2294 C2295 1.355 . S
C2294 C2296 1.415 . S
C2295 C2294 1.355 . S
C2295 C2297 1.419 . S
C2296 C2294 1.415 . S
C2296 C2301 1.425 . S
C2296 C2303 1.409 . S
C2297 H2289 0.930 . S
C2297 C2295 1.419 . S
C2297 C2298 1.362 . S
C2298 H2290 0.930 . S
C2298 C2297 1.362 . S
C2298 C2301 1.409 . S
C2299 H2291 0.930 . S
C2299 C2300 1.355 . S
C2299 C2301 1.415 . S
C2300 C2299 1.355 . S
C2300 C2302 1.419 . S
C2301 C2296 1.425 . S
C2301 C2298 1.409 . S
C2301 C2299 1.415 . S
C2302 H2292 0.930 . S
C2302 C2300 1.419 . S
C2302 C2303 1.362 . S
C2303 H2293 0.930 . S
C2303 C2296 1.409 . S
C2303 C2302 1.362 . S
H2304 C2310 0.930 . S
H2305 C2313 0.930 . S
H2306 C2314 0.930 . S
H2307 C2315 0.930 . S
H2308 C2318 0.930 . S
H2309 C2319 0.930 . S
C2310 H2304 0.930 . S
C2310 C2311 1.355 . S
C2310 C2312 1.415 . S
C2311 C2310 1.355 . S
C2311 C2313 1.419 . S
C2312 C2310 1.415 . S
C2312 C2317 1.425 . S
C2312 C2319 1.409 . S
C2313 H2305 0.930 . S
C2313 C2311 1.419 . S
C2313 C2314 1.362 . S
C2314 H2306 0.930 . S
C2314 C2313 1.362 . S
C2314 C2317 1.409 . S
C2315 H2307 0.930 . S
C2315 C2316 1.355 . S
C2315 C2317 1.415 . S
C2316 C2315 1.355 . S
C2316 C2318 1.419 . S
C2317 C2312 1.425 . S
C2317 C2314 1.409 . S
C2317 C2315 1.415 . S
C2318 H2308 0.930 . S
C2318 C2316 1.419 . S
C2318 C2319 1.362 . S
C2319 H2309 0.930 . S
C2319 C2312 1.409 . S
C2319 C2318 1.362 . S
H2320 C2326 0.930 . S
H2321 C2329 0.930 . S
H2322 C2330 0.930 . S
H2323 C2331 0.930 . S
H2324 C2334 0.930 . S
H2325 C2335 0.930 . S
C2326 H2320 0.930 . S
C2326 C2327 1.355 . S
C2326 C2328 1.415 . S
C2327 C2326 1.355 . S
C2327 C2329 1.419 . S
C2328 C2326 1.415 . S
C2328 C2333 1.425 . S
C2328 C2335 1.409 . S
C2329 H2321 0.930 . S
C2329 C2327 1.419 . S
C2329 C2330 1.362 . S
C2330 H2322 0.930 . S
C2330 C2329 1.362 . S
C2330 C2333 1.409 . S
C2331 H2323 0.930 . S
C2331 C2332 1.355 . S
C2331 C2333 1.415 . S
C2332 C2331 1.355 . S
C2332 C2334 1.419 . S
C2333 C2328 1.425 . S
C2333 C2330 1.409 . S
C2333 C2331 1.415 . S
C2334 H2324 0.930 . S
C2334 C2332 1.419 . S
C2334 C2335 1.362 . S
C2335 H2325 0.930 . S
C2335 C2328 1.409 . S
C2335 C2334 1.362 . S
H2336 C2342 0.930 . S
H2337 C2345 0.930 . S
H2338 C2346 0.930 . S
H2339 C2347 0.930 . S
H2340 C2350 0.930 . S
H2341 C2351 0.930 . S
C2342 H2336 0.930 . S
C2342 C2343 1.355 . S
C2342 C2344 1.415 . S
C2343 C2342 1.355 . S
C2343 C2345 1.419 . S
C2344 C2342 1.415 . S
C2344 C2349 1.425 . S
C2344 C2351 1.409 . S
C2345 H2337 0.930 . S
C2345 C2343 1.419 . S
C2345 C2346 1.362 . S
C2346 H2338 0.930 . S
C2346 C2345 1.362 . S
C2346 C2349 1.409 . S
C2347 H2339 0.930 . S
C2347 C2348 1.355 . S
C2347 C2349 1.415 . S
C2348 C2347 1.355 . S
C2348 C2350 1.419 . S
C2349 C2344 1.425 . S
C2349 C2346 1.409 . S
C2349 C2347 1.415 . S
C2350 H2340 0.930 . S
C2350 C2348 1.419 . S
C2350 C2351 1.362 . S
C2351 H2341 0.930 . S
C2351 C2344 1.409 . S
C2351 C2350 1.362 . S
H2352 C2358 0.930 . S
H2353 C2361 0.930 . S
H2354 C2362 0.930 . S
H2355 C2363 0.930 . S
H2356 C2366 0.930 . S
H2357 C2367 0.930 . S
C2358 H2352 0.930 . S
C2358 C2359 1.355 . S
C2358 C2360 1.415 . S
C2359 C2358 1.355 . S
C2359 C2361 1.419 . S
C2360 C2358 1.415 . S
C2360 C2365 1.425 . S
C2360 C2367 1.409 . S
C2361 H2353 0.930 . S
C2361 C2359 1.419 . S
C2361 C2362 1.362 . S
C2362 H2354 0.930 . S
C2362 C2361 1.362 . S
C2362 C2365 1.409 . S
C2363 H2355 0.930 . S
C2363 C2364 1.355 . S
C2363 C2365 1.415 . S
C2364 C2363 1.355 . S
C2364 C2366 1.419 . S
C2365 C2360 1.425 . S
C2365 C2362 1.409 . S
C2365 C2363 1.415 . S
C2366 H2356 0.930 . S
C2366 C2364 1.419 . S
C2366 C2367 1.362 . S
C2367 H2357 0.930 . S
C2367 C2360 1.409 . S
C2367 C2366 1.362 . S
H2368 C2374 0.930 . S
H2369 C2377 0.930 . S
H2370 C2378 0.930 . S
H2371 C2379 0.930 . S
H2372 C2382 0.930 . S
H2373 C2383 0.930 . S
C2374 H2368 0.930 . S
C2374 C2375 1.355 . S
C2374 C2376 1.415 . S
C2375 C2374 1.355 . S
C2375 C2377 1.419 . S
C2376 C2374 1.415 . S
C2376 C2381 1.425 . S
C2376 C2383 1.409 . S
C2377 H2369 0.930 . S
C2377 C2375 1.419 . S
C2377 C2378 1.362 . S
C2378 H2370 0.930 . S
C2378 C2377 1.362 . S
C2378 C2381 1.409 . S
C2379 H2371 0.930 . S
C2379 C2380 1.355 . S
C2379 C2381 1.415 . S
C2380 C2379 1.355 . S
C2380 C2382 1.419 . S
C2381 C2376 1.425 . S
C2381 C2378 1.409 . S
C2381 C2379 1.415 . S
C2382 H2372 0.930 . S
C2382 C2380 1.419 . S
C2382 C2383 1.362 . S
C2383 H2373 0.930 . S
C2383 C2376 1.409 . S
C2383 C2382 1.362 . S
H2384 C2390 0.930 . S
H2385 C2393 0.930 . S
H2386 C2394 0.930 . S
H2387 C2395 0.930 . S
H2388 C2398 0.930 . S
H2389 C2399 0.930 . S
C2390 H2384 0.930 . S
C2390 C2391 1.355 . S
C2390 C2392 1.415 . S
C2391 C2390 1.355 . S
C2391 C2393 1.419 . S
C2392 C2390 1.415 . S
C2392 C2397 1.425 . S
C2392 C2399 1.409 . S
C2393 H2385 0.930 . S
C2393 C2391 1.419 . S
C2393 C2394 1.362 . S
C2394 H2386 0.930 . S
C2394 C2393 1.362 . S
C2394 C2397 1.409 . S
C2395 H2387 0.930 . S
C2395 C2396 1.355 . S
C2395 C2397 1.415 . S
C2396 C2395 1.355 . S
C2396 C2398 1.419 . S
C2397 C2392 1.425 . S
C2397 C2394 1.409 . S
C2397 C2395 1.415 . S
C2398 H2388 0.930 . S
C2398 C2396 1.419 . S
C2398 C2399 1.362 . S
C2399 H2389 0.930 . S
C2399 C2392 1.409 . S
C2399 C2398 1.362 . S
H2400 C2406 0.930 . S
H2401 C2409 0.930 . S
H2402 C2410 0.930 . S
H2403 C2411 0.930 . S
H2404 C2414 0.930 . S
H2405 C2415 0.930 . S
C2406 H2400 0.930 . S
C2406 C2407 1.355 . S
C2406 C2408 1.415 . S
C2407 C2406 1.355 . S
C2407 C2409 1.419 . S
C2408 C2406 1.415 . S
C2408 C2413 1.425 . S
C2408 C2415 1.409 . S
C2409 H2401 0.930 . S
C2409 C2407 1.419 . S
C2409 C2410 1.362 . S
C2410 H2402 0.930 . S
C2410 C2409 1.362 . S
C2410 C2413 1.409 . S
C2411 H2403 0.930 . S
C2411 C2412 1.355 . S
C2411 C2413 1.415 . S
C2412 C2411 1.355 . S
C2412 C2414 1.419 . S
C2413 C2408 1.425 . S
C2413 C2410 1.409 . S
C2413 C2411 1.415 . S
C2414 H2404 0.930 . S
C2414 C2412 1.419 . S
C2414 C2415 1.362 . S
C2415 H2405 0.930 . S
C2415 C2408 1.409 . S
C2415 C2414 1.362 . S
H2416 C2422 0.930 . S
H2417 C2425 0.930 . S
H2418 C2426 0.930 . S
H2419 C2427 0.930 . S
H2420 C2430 0.930 . S
H2421 C2431 0.930 . S
C2422 H2416 0.930 . S
C2422 C2423 1.355 . S
C2422 C2424 1.415 . S
C2423 C2422 1.355 . S
C2423 C2425 1.419 . S
C2424 C2422 1.415 . S
C2424 C2429 1.425 . S
C2424 C2431 1.409 . S
C2425 H2417 0.930 . S
C2425 C2423 1.419 . S
C2425 C2426 1.362 . S
C2426 H2418 0.930 . S
C2426 C2425 1.362 . S
C2426 C2429 1.409 . S
C2427 H2419 0.930 . S
C2427 C2428 1.355 . S
C2427 C2429 1.415 . S
C2428 C2427 1.355 . S
C2428 C2430 1.419 . S
C2429 C2424 1.425 . S
C2429 C2426 1.409 . S
C2429 C2427 1.415 . S
C2430 H2420 0.930 . S
C2430 C2428 1.419 . S
C2430 C2431 1.362 . S
C2431 H2421 0.930 . S
C2431 C2424 1.409 . S
C2431 C2430 1.362 . S
H2432 C2438 0.930 . S
H2433 C2441 0.930 . S
H2434 C2442 0.930 . S
H2435 C2443 0.930 . S
H2436 C2446 0.930 . S
H2437 C2447 0.930 . S
C2438 H2432 0.930 . S
C2438 C2439 1.355 . S
C2438 C2440 1.415 . S
C2439 C2438 1.355 . S
C2439 C2441 1.419 . S
C2440 C2438 1.415 . S
C2440 C2445 1.425 . S
C2440 C2447 1.409 . S
C2441 H2433 0.930 . S
C2441 C2439 1.419 . S
C2441 C2442 1.362 . S
C2442 H2434 0.930 . S
C2442 C2441 1.362 . S
C2442 C2445 1.409 . S
C2443 H2435 0.930 . S
C2443 C2444 1.355 . S
C2443 C2445 1.415 . S
C2444 C2443 1.355 . S
C2444 C2446 1.419 . S
C2445 C2440 1.425 . S
C2445 C2442 1.409 . S
C2445 C2443 1.415 . S
C2446 H2436 0.930 . S
C2446 C2444 1.419 . S
C2446 C2447 1.362 . S
C2447 H2437 0.930 . S
C2447 C2440 1.409 . S
C2447 C2446 1.362 . S
H2448 C2454 0.930 . S
H2449 C2457 0.930 . S
H2450 C2458 0.930 . S
H2451 C2459 0.930 . S
H2452 C2462 0.930 . S
H2453 C2463 0.930 . S
C2454 H2448 0.930 . S
C2454 C2455 1.355 . S
C2454 C2456 1.415 . S
C2455 C2454 1.355 . S
C2455 C2457 1.419 . S
C2456 C2454 1.415 . S
C2456 C2461 1.425 . S
C2456 C2463 1.409 . S
C2457 H2449 0.930 . S
C2457 C2455 1.419 . S
C2457 C2458 1.362 . S
C2458 H2450 0.930 . S
C2458 C2457 1.362 . S
C2458 C2461 1.409 . S
C2459 H2451 0.930 . S
C2459 C2460 1.355 . S
C2459 C2461 1.415 . S
C2460 C2459 1.355 . S
C2460 C2462 1.419 . S
C2461 C2456 1.425 . S
C2461 C2458 1.409 . S
C2461 C2459 1.415 . S
C2462 H2452 0.930 . S
C2462 C2460 1.419 . S
C2462 C2463 1.362 . S
C2463 H2453 0.930 . S
C2463 C2456 1.409 . S
C2463 C2462 1.362 . S
H2464 C2470 0.930 . S
H2465 C2473 0.930 . S
H2466 C2474 0.930 . S
H2467 C2475 0.930 . S
H2468 C2478 0.930 . S
H2469 C2479 0.930 . S
C2470 H2464 0.930 . S
C2470 C2471 1.355 . S
C2470 C2472 1.415 . S
C2471 C2470 1.355 . S
C2471 C2473 1.419 . S
C2472 C2470 1.415 . S
C2472 C2477 1.425 . S
C2472 C2479 1.409 . S
C2473 H2465 0.930 . S
C2473 C2471 1.419 . S
C2473 C2474 1.362 . S
C2474 H2466 0.930 . S
C2474 C2473 1.362 . S
C2474 C2477 1.409 . S
C2475 H2467 0.930 . S
C2475 C2476 1.355 . S
C2475 C2477 1.415 . S
C2476 C2475 1.355 . S
C2476 C2478 1.419 . S
C2477 C2472 1.425 . S
C2477 C2474 1.409 . S
C2477 C2475 1.415 . S
C2478 H2468 0.930 . S
C2478 C2476 1.419 . S
C2478 C2479 1.362 . S
C2479 H2469 0.930 . S
C2479 C2472 1.409 . S
C2479 C2478 1.362 . S
H2480 C2486 0.930 . S
H2481 C2489 0.930 . S
H2482 C2490 0.930 . S
H2483 C2491 0.930 . S
H2484 C2494 0.930 . S
H2485 C2495 0.930 . S
C2486 H2480 0.930 . S
C2486 C2487 1.355 . S
C2486 C2488 1.415 . S
C2487 C2486 1.355 . S
C2487 C2489 1.419 . S
C2488 C2486 1.415 . S
C2488 C2493 1.425 . S
C2488 C2495 1.409 . S
C2489 H2481 0.930 . S
C2489 C2487 1.419 . S
C2489 C2490 1.362 . S
C2490 H2482 0.930 . S
C2490 C2489 1.362 . S
C2490 C2493 1.409 . S
C2491 H2483 0.930 . S
C2491 C2492 1.355 . S
C2491 C2493 1.415 . S
C2492 C2491 1.355 . S
C2492 C2494 1.419 . S
C2493 C2488 1.425 . S
C2493 C2490 1.409 . S
C2493 C2491 1.415 . S
C2494 H2484 0.930 . S
C2494 C2492 1.419 . S
C2494 C2495 1.362 . S
C2495 H2485 0.930 . S
C2495 C2488 1.409 . S
C2495 C2494 1.362 . S
H2496 C2502 0.930 . S
H2497 C2505 0.930 . S
H2498 C2506 0.930 . S
H2499 C2507 0.930 . S
H2500 C2510 0.930 . S
H2501 C2511 0.930 . S
C2502 H2496 0.930 . S
C2502 C2503 1.355 . S
C2502 C2504 1.415 . S
C2503 C2502 1.355 . S
C2503 C2505 1.419 . S
C2504 C2502 1.415 . S
C2504 C2509 1.425 . S
C2504 C2511 1.409 . S
C2505 H2497 0.930 . S
C2505 C2503 1.419 . S
C2505 C2506 1.362 . S
C2506 H2498 0.930 . S
C2506 C2505 1.362 . S
C2506 C2509 1.409 . S
C2507 H2499 0.930 . S
C2507 C2508 1.355 . S
C2507 C2509 1.415 . S
C2508 C2507 1.355 . S
C2508 C2510 1.419 . S
C2509 C2504 1.425 . S
C2509 C2506 1.409 . S
C2509 C2507 1.415 . S
C2510 H2500 0.930 . S
C2510 C2508 1.419 . S
C2510 C2511 1.362 . S
C2511 H2501 0.930 . S
C2511 C2504 1.409 . S
C2511 C2510 1.362 . S
H2512 C2518 0.930 . S
H2513 C2521 0.930 . S
H2514 C2522 0.930 . S
H2515 C2523 0.930 . S
H2516 C2526 0.930 . S
H2517 C2527 0.930 . S
C2518 H2512 0.930 . S
C2518 C2519 1.355 . S
C2518 C2520 1.415 . S
C2519 C2518 1.355 . S
C2519 C2521 1.419 . S
C2520 C2518 1.415 . S
C2520 C2525 1.425 . S
C2520 C2527 1.409 . S
C2521 H2513 0.930 . S
C2521 C2519 1.419 . S
C2521 C2522 1.362 . S
C2522 H2514 0.930 . S
C2522 C2521 1.362 . S
C2522 C2525 1.409 . S
C2523 H2515 0.930 . S
C2523 C2524 1.355 . S
C2523 C2525 1.415 . S
C2524 C2523 1.355 . S
C2524 C2526 1.419 . S
C2525 C2520 1.425 . S
C2525 C2522 1.409 . S
C2525 C2523 1.415 . S
C2526 H2516 0.930 . S
C2526 C2524 1.419 . S
C2526 C2527 1.362 . S
C2527 H2517 0.930 . S
C2527 C2520 1.409 . S
C2527 C2526 1.362 . S
H2528 C2534 0.930 . S
H2529 C2537 0.930 . S
H2530 C2538 0.930 . S
H2531 C2539 0.930 . S
H2532 C2542 0.930 . S
H2533 C2543 0.930 . S
C2534 H2528 0.930 . S
C2534 C2535 1.355 . S
C2534 C2536 1.415 . S
C2535 C2534 1.355 . S
C2535 C2537 1.419 . S
C2536 C2534 1.415 . S
C2536 C2541 1.425 . S
C2536 C2543 1.409 . S
C2537 H2529 0.930 . S
C2537 C2535 1.419 . S
C2537 C2538 1.362 . S
C2538 H2530 0.930 . S
C2538 C2537 1.362 . S
C2538 C2541 1.409 . S
C2539 H2531 0.930 . S
C2539 C2540 1.355 . S
C2539 C2541 1.415 . S
C2540 C2539 1.355 . S
C2540 C2542 1.419 . S
C2541 C2536 1.425 . S
C2541 C2538 1.409 . S
C2541 C2539 1.415 . S
C2542 H2532 0.930 . S
C2542 C2540 1.419 . S
C2542 C2543 1.362 . S
C2543 H2533 0.930 . S
C2543 C2536 1.409 . S
C2543 C2542 1.362 . S
H2544 C2550 0.930 . S
H2545 C2553 0.930 . S
H2546 C2554 0.930 . S
H2547 C2555 0.930 . S
H2548 C2558 0.930 . S
H2549 C2559 0.930 . S
C2550 H2544 0.930 . S
C2550 C2551 1.355 . S
C2550 C2552 1.415 . S
C2551 C2550 1.355 . S
C2551 C2553 1.419 . S
C2552 C2550 1.415 . S
C2552 C2557 1.425 . S
C2552 C2559 1.409 . S
C2553 H2545 0.930 . S
C2553 C2551 1.419 . S
C2553 C2554 1.362 . S
C2554 H2546 0.930 . S
C2554 C2553 1.362 . S
C2554 C2557 1.409 . S
C2555 H2547 0.930 . S
C2555 C2556 1.355 . S
C2555 C2557 1.415 . S
C2556 C2555 1.355 . S
C2556 C2558 1.419 . S
C2557 C2552 1.425 . S
C2557 C2554 1.409 . S
C2557 C2555 1.415 . S
C2558 H2548 0.930 . S
C2558 C2556 1.419 . S
C2558 C2559 1.362 . S
C2559 H2549 0.930 . S
C2559 C2552 1.409 . S
C2559 C2558 1.362 . S
H2560 C2566 0.930 . S
H2561 C2569 0.930 . S
H2562 C2570 0.930 . S
H2563 C2571 0.930 . S
H2564 C2574 0.930 . S
H2565 C2575 0.930 . S
C2566 H2560 0.930 . S
C2566 C2567 1.355 . S
C2566 C2568 1.415 . S
C2567 C2566 1.355 . S
C2567 C2569 1.419 . S
C2568 C2566 1.415 . S
C2568 C2573 1.425 . S
C2568 C2575 1.409 . S
C2569 H2561 0.930 . S
C2569 C2567 1.419 . S
C2569 C2570 1.362 . S
C2570 H2562 0.930 . S
C2570 C2569 1.362 . S
C2570 C2573 1.409 . S
C2571 H2563 0.930 . S
C2571 C2572 1.355 . S
C2571 C2573 1.415 . S
C2572 C2571 1.355 . S
C2572 C2574 1.419 . S
C2573 C2568 1.425 . S
C2573 C2570 1.409 . S
C2573 C2571 1.415 . S
C2574 H2564 0.930 . S
C2574 C2572 1.419 . S
C2574 C2575 1.362 . S
C2575 H2565 0.930 . S
C2575 C2568 1.409 . S
C2575 C2574 1.362 . S
H2576 C2582 0.930 . S
H2577 C2585 0.930 . S
H2578 C2586 0.930 . S
H2579 C2587 0.930 . S
H2580 C2590 0.930 . S
H2581 C2591 0.930 . S
C2582 H2576 0.930 . S
C2582 C2583 1.355 . S
C2582 C2584 1.415 . S
C2583 C2582 1.355 . S
C2583 C2585 1.419 . S
C2584 C2582 1.415 . S
C2584 C2589 1.425 . S
C2584 C2591 1.409 . S
C2585 H2577 0.930 . S
C2585 C2583 1.419 . S
C2585 C2586 1.362 . S
C2586 H2578 0.930 . S
C2586 C2585 1.362 . S
C2586 C2589 1.409 . S
C2587 H2579 0.930 . S
C2587 C2588 1.355 . S
C2587 C2589 1.415 . S
C2588 C2587 1.355 . S
C2588 C2590 1.419 . S
C2589 C2584 1.425 . S
C2589 C2586 1.409 . S
C2589 C2587 1.415 . S
C2590 H2580 0.930 . S
C2590 C2588 1.419 . S
C2590 C2591 1.362 . S
C2591 H2581 0.930 . S
C2591 C2584 1.409 . S
C2591 C2590 1.362 . S
H2592 C2598 0.930 . S
H2593 C2601 0.930 . S
H2594 C2602 0.930 . S
H2595 C2603 0.930 . S
H2596 C2606 0.930 . S
H2597 C2607 0.930 . S
C2598 H2592 0.930 . S
C2598 C2599 1.355 . S
C2598 C2600 1.415 . S
C2599 C2598 1.355 . S
C2599 C2601 1.419 . S
C2600 C2598 1.415 . S
C2600 C2605 1.425 . S
C2600 C2607 1.409 . S
C2601 H2593 0.930 . S
C2601 C2599 1.419 . S
C2601 C2602 1.362 . S
C2602 H2594 0.930 . S
C2602 C2601 1.362 . S
C2602 C2605 1.409 . S
C2603 H2595 0.930 . S
C2603 C2604 1.355 . S
C2603 C2605 1.415 . S
C2604 C2603 1.355 . S
C2604 C2606 1.419 . S
C2605 C2600 1.425 . S
C2605 C2602 1.409 . S
C2605 C2603 1.415 . S
C2606 H2596 0.930 . S
C2606 C2604 1.419 . S
C2606 C2607 1.362 . S
C2607 H2597 0.930 . S
C2607 C2600 1.409 . S
C2607 C2606 1.362 . S
H2608 C2614 0.930 . S
H2609 C2617 0.930 . S
H2610 C2618 0.930 . S
H2611 C2619 0.930 . S
H2612 C2622 0.930 . S
H2613 C2623 0.930 . S
C2614 H2608 0.930 . S
C2614 C2615 1.355 . S
C2614 C2616 1.415 . S
C2615 C2614 1.355 . S
C2615 C2617 1.419 . S
C2616 C2614 1.415 . S
C2616 C2621 1.425 . S
C2616 C2623 1.409 . S
C2617 H2609 0.930 . S
C2617 C2615 1.419 . S
C2617 C2618 1.362 . S
C2618 H2610 0.930 . S
C2618 C2617 1.362 . S
C2618 C2621 1.409 . S
C2619 H2611 0.930 . S
C2619 C2620 1.355 . S
C2619 C2621 1.415 . S
C2620 C2619 1.355 . S
C2620 C2622 1.419 . S
C2621 C2616 1.425 . S
C2621 C2618 1.409 . S
C2621 C2619 1.415 . S
C2622 H2612 0.930 . S
C2622 C2620 1.419 . S
C2622 C2623 1.362 . S
C2623 H2613 0.930 . S
C2623 C2616 1.409 . S
C2623 C2622 1.362 . S
H2624 C2630 0.930 . S
H2625 C2633 0.930 . S
H2626 C2634 0.930 . S
H2627 C2635 0.930 . S
H2628 C2638 0.930 . S
H2629 C2639 0.930 . S
C2630 H2624 0.930 . S
C2630 C2631 1.355 . S
C2630 C2632 1.415 . S
C2631 C2630 1.355 . S
C2631 C2633 1.419 . S
C2632 C2630 1.415 . S
C2632 C2637 1.425 . S
C2632 C2639 1.409 . S
C2633 H2625 0.930 . S
C2633 C2631 1.419 . S
C2633 C2634 1.362 . S
C2634 H2626 0.930 . S
C2634 C2633 1.362 . S
C2634 C2637 1.409 . S
C2635 H2627 0.930 . S
C2635 C2636 1.355 . S
C2635 C2637 1.415 . S
C2636 C2635 1.355 . S
C2636 C2638 1.419 . S
C2637 C2632 1.425 . S
C2637 C2634 1.409 . S
C2637 C2635 1.415 . S
C2638 H2628 0.930 . S
C2638 C2636 1.419 . S
C2638 C2639 1.362 . S
C2639 H2629 0.930 . S
C2639 C2632 1.409 . S
C2639 C2638 1.362 . S
H2640 C2646 0.930 . S
H2641 C2649 0.930 . S
H2642 C2650 0.930 . S
H2643 C2651 0.930 . S
H2644 C2654 0.930 . S
H2645 C2655 0.930 . S
C2646 H2640 0.930 . S
C2646 C2647 1.355 . S
C2646 C2648 1.415 . S
C2647 C2646 1.355 . S
C2647 C2649 1.419 . S
C2648 C2646 1.415 . S
C2648 C2653 1.425 . S
C2648 C2655 1.409 . S
C2649 H2641 0.930 . S
C2649 C2647 1.419 . S
C2649 C2650 1.362 . S
C2650 H2642 0.930 . S
C2650 C2649 1.362 . S
C2650 C2653 1.409 . S
C2651 H2643 0.930 . S
C2651 C2652 1.355 . S
C2651 C2653 1.415 . S
C2652 C2651 1.355 . S
C2652 C2654 1.419 . S
C2653 C2648 1.425 . S
C2653 C2650 1.409 . S
C2653 C2651 1.415 . S
C2654 H2644 0.930 . S
C2654 C2652 1.419 . S
C2654 C2655 1.362 . S
C2655 H2645 0.930 . S
C2655 C2648 1.409 . S
C2655 C2654 1.362 . S
H2656 C2662 0.930 . S
H2657 C2665 0.930 . S
H2658 C2666 0.930 . S
H2659 C2667 0.930 . S
H2660 C2670 0.930 . S
H2661 C2671 0.930 . S
C2662 H2656 0.930 . S
C2662 C2663 1.355 . S
C2662 C2664 1.415 . S
C2663 C2662 1.355 . S
C2663 C2665 1.419 . S
C2664 C2662 1.415 . S
C2664 C2669 1.425 . S
C2664 C2671 1.409 . S
C2665 H2657 0.930 . S
C2665 C2663 1.419 . S
C2665 C2666 1.362 . S
C2666 H2658 0.930 . S
C2666 C2665 1.362 . S
C2666 C2669 1.409 . S
C2667 H2659 0.930 . S
C2667 C2668 1.355 . S
C2667 C2669 1.415 . S
C2668 C2667 1.355 . S
C2668 C2670 1.419 . S
C2669 C2664 1.425 . S
C2669 C2666 1.409 . S
C2669 C2667 1.415 . S
C2670 H2660 0.930 . S
C2670 C2668 1.419 . S
C2670 C2671 1.362 . S
C2671 H2661 0.930 . S
C2671 C2664 1.409 . S
C2671 C2670 1.362 . S
H2672 C2678 0.930 . S
H2673 C2681 0.930 . S
H2674 C2682 0.930 . S
H2675 C2683 0.930 . S
H2676 C2686 0.930 . S
H2677 C2687 0.930 . S
C2678 H2672 0.930 . S
C2678 C2679 1.355 . S
C2678 C2680 1.415 . S
C2679 C2678 1.355 . S
C2679 C2681 1.419 . S
C2680 C2678 1.415 . S
C2680 C2685 1.425 . S
C2680 C2687 1.409 . S
C2681 H2673 0.930 . S
C2681 C2679 1.419 . S
C2681 C2682 1.362 . S
C2682 H2674 0.930 . S
C2682 C2681 1.362 . S
C2682 C2685 1.409 . S
C2683 H2675 0.930 . S
C2683 C2684 1.355 . S
C2683 C2685 1.415 . S
C2684 C2683 1.355 . S
C2684 C2686 1.419 . S
C2685 C2680 1.425 . S
C2685 C2682 1.409 . S
C2685 C2683 1.415 . S
C2686 H2676 0.930 . S
C2686 C2684 1.419 . S
C2686 C2687 1.362 . S
C2687 H2677 0.930 . S
C2687 C2680 1.409 . S
C2687 C2686 1.362 . S
H2688 C2694 0.930 . S
H2689 C2697 0.930 . S
H2690 C2698 0.930 . S
H2691 C2699 0.930 . S
H2692 C2702 0.930 . S
H2693 C2703 0.930 . S
C2694 H2688 0.930 . S
C2694 C2695 1.355 . S
C2694 C2696 1.415 . S
C2695 C2694 1.355 . S
C2695 C2697 1.419 . S
C2696 C2694 1.415 . S
C2696 C2701 1.425 . S
C2696 C2703 1.409 . S
C2697 H2689 0.930 . S
C2697 C2695 1.419 . S
C2697 C2698 1.362 . S
C2698 H2690 0.930 . S
C2698 C2697 1.362 . S
C2698 C2701 1.409 . S
C2699 H2691 0.930 . S
C2699 C2700 1.355 . S
C2699 C2701 1.415 . S
C2700 C2699 1.355 . S
C2700 C2702 1.419 . S
C2701 C2696 1.425 . S
C2701 C2698 1.409 . S
C2701 C2699 1.415 . S
C2702 H2692 0.930 . S
C2702 C2700 1.419 . S
C2702 C2703 1.362 . S
C2703 H2693 0.930 . S
C2703 C2696 1.409 . S
C2703 C2702 1.362 . S
H2704 C2710 0.930 . S
H2705 C2713 0.930 . S
H2706 C2714 0.930 . S
H2707 C2715 0.930 . S
H2708 C2718 0.930 . S
H2709 C2719 0.930 . S
C2710 H2704 0.930 . S
C2710 C2711 1.355 . S
C2710 C2712 1.415 . S
C2711 C2710 1.355 . S
C2711 C2713 1.419 . S
C2712 C2710 1.415 . S
C2712 C2717 1.425 . S
C2712 C2719 1.409 . S
C2713 H2705 0.930 . S
C2713 C2711 1.419 . S
C2713 C2714 1.362 . S
C2714 H2706 0.930 . S
C2714 C2713 1.362 . S
C2714 C2717 1.409 . S
C2715 H2707 0.930 . S
C2715 C2716 1.355 . S
C2715 C2717 1.415 . S
C2716 C2715 1.355 . S
C2716 C2718 1.419 . S
C2717 C2712 1.425 . S
C2717 C2714 1.409 . S
C2717 C2715 1.415 . S
C2718 H2708 0.930 . S
C2718 C2716 1.419 . S
C2718 C2719 1.362 . S
C2719 H2709 0.930 . S
C2719 C2712 1.409 . S
C2719 C2718 1.362 . S
H2720 C2726 0.930 . S
H2721 C2729 0.930 . S
H2722 C2730 0.930 . S
H2723 C2731 0.930 . S
H2724 C2734 0.930 . S
H2725 C2735 0.930 . S
C2726 H2720 0.930 . S
C2726 C2727 1.355 . S
C2726 C2728 1.415 . S
C2727 C2726 1.355 . S
C2727 C2729 1.419 . S
C2728 C2726 1.415 . S
C2728 C2733 1.425 . S
C2728 C2735 1.409 . S
C2729 H2721 0.930 . S
C2729 C2727 1.419 . S
C2729 C2730 1.362 . S
C2730 H2722 0.930 . S
C2730 C2729 1.362 . S
C2730 C2733 1.409 . S
C2731 H2723 0.930 . S
C2731 C2732 1.355 . S
C2731 C2733 1.415 . S
C2732 C2731 1.355 . S
C2732 C2734 1.419 . S
C2733 C2728 1.425 . S
C2733 C2730 1.409 . S
C2733 C2731 1.415 . S
C2734 H2724 0.930 . S
C2734 C2732 1.419 . S
C2734 C2735 1.362 . S
C2735 H2725 0.930 . S
C2735 C2728 1.409 . S
C2735 C2734 1.362 . S
H2736 C2742 0.930 . S
H2737 C2745 0.930 . S
H2738 C2746 0.930 . S
H2739 C2747 0.930 . S
H2740 C2750 0.930 . S
H2741 C2751 0.930 . S
C2742 H2736 0.930 . S
C2742 C2743 1.355 . S
C2742 C2744 1.415 . S
C2743 C2742 1.355 . S
C2743 C2745 1.419 . S
C2744 C2742 1.415 . S
C2744 C2749 1.425 . S
C2744 C2751 1.409 . S
C2745 H2737 0.930 . S
C2745 C2743 1.419 . S
C2745 C2746 1.362 . S
C2746 H2738 0.930 . S
C2746 C2745 1.362 . S
C2746 C2749 1.409 . S
C2747 H2739 0.930 . S
C2747 C2748 1.355 . S
C2747 C2749 1.415 . S
C2748 C2747 1.355 . S
C2748 C2750 1.419 . S
C2749 C2744 1.425 . S
C2749 C2746 1.409 . S
C2749 C2747 1.415 . S
C2750 H2740 0.930 . S
C2750 C2748 1.419 . S
C2750 C2751 1.362 . S
C2751 H2741 0.930 . S
C2751 C2744 1.409 . S
C2751 C2750 1.362 . S
H2752 C2758 0.930 . S
H2753 C2761 0.930 . S
H2754 C2762 0.930 . S
H2755 C2763 0.930 . S
H2756 C2766 0.930 . S
H2757 C2767 0.930 . S
C2758 H2752 0.930 . S
C2758 C2759 1.355 . S
C2758 C2760 1.415 . S
C2759 C2758 1.355 . S
C2759 C2761 1.419 . S
C2760 C2758 1.415 . S
C2760 C2765 1.425 . S
C2760 C2767 1.409 . S
C2761 H2753 0.930 . S
C2761 C2759 1.419 . S
C2761 C2762 1.362 . S
C2762 H2754 0.930 . S
C2762 C2761 1.362 . S
C2762 C2765 1.409 . S
C2763 H2755 0.930 . S
C2763 C2764 1.355 . S
C2763 C2765 1.415 . S
C2764 C2763 1.355 . S
C2764 C2766 1.419 . S
C2765 C2760 1.425 . S
C2765 C2762 1.409 . S
C2765 C2763 1.415 . S
C2766 H2756 0.930 . S
C2766 C2764 1.419 . S
C2766 C2767 1.362 . S
C2767 H2757 0.930 . S
C2767 C2760 1.409 . S
C2767 C2766 1.362 . S
H2768 C2774 0.930 . S
H2769 C2777 0.930 . S
H2770 C2778 0.930 . S
H2771 C2779 0.930 . S
H2772 C2782 0.930 . S
H2773 C2783 0.930 . S
C2774 H2768 0.930 . S
C2774 C2775 1.355 . S
C2774 C2776 1.415 . S
C2775 C2774 1.355 . S
C2775 C2777 1.419 . S
C2776 C2774 1.415 . S
C2776 C2781 1.425 . S
C2776 C2783 1.409 . S
C2777 H2769 0.930 . S
C2777 C2775 1.419 . S
C2777 C2778 1.362 . S
C2778 H2770 0.930 . S
C2778 C2777 1.362 . S
C2778 C2781 1.409 . S
C2779 H2771 0.930 . S
C2779 C2780 1.355 . S
C2779 C2781 1.415 . S
C2780 C2779 1.355 . S
C2780 C2782 1.419 . S
C2781 C2776 1.425 . S
C2781 C2778 1.409 . S
C2781 C2779 1.415 . S
C2782 H2772 0.930 . S
C2782 C2780 1.419 . S
C2782 C2783 1.362 . S
C2783 H2773 0.930 . S
C2783 C2776 1.409 . S
C2783 C2782 1.362 . S
H2784 C2790 0.930 . S
H2785 C2793 0.930 . S
H2786 C2794 0.930 . S
H2787 C2795 0.930 . S
H2788 C2798 0.930 . S
H2789 C2799 0.930 . S
C2790 H2784 0.930 . S
C2790 C2791 1.355 . S
C2790 C2792 1.415 . S
C2791 C2790 1.355 . S
C2791 C2793 1.419 . S
C2792 C2790 1.415 . S
C2792 C2797 1.425 . S
C2792 C2799 1.409 . S
C2793 H2785 0.930 . S
C2793 C2791 1.419 . S
C2793 C2794 1.362 . S
C2794 H2786 0.930 . S
C2794 C2793 1.362 . S
C2794 C2797 1.409 . S
C2795 H2787 0.930 . S
C2795 C2796 1.355 . S
C2795 C2797 1.415 . S
C2796 C2795 1.355 . S
C2796 C2798 1.419 . S
C2797 C2792 1.425 . S
C2797 C2794 1.409 . S
C2797 C2795 1.415 . S
C2798 H2788 0.930 . S
C2798 C2796 1.419 . S
C2798 C2799 1.362 . S
C2799 H2789 0.930 . S
C2799 C2792 1.409 . S
C2799 C2798 1.362 . S
H2800 C2806 0.930 . S
H2801 C2809 0.930 . S
H2802 C2810 0.930 . S
H2803 C2811 0.930 . S
H2804 C2814 0.930 . S
H2805 C2815 0.930 . S
C2806 H2800 0.930 . S
C2806 C2807 1.355 . S
C2806 C2808 1.415 . S
C2807 C2806 1.355 . S
C2807 C2809 1.419 . S
C2808 C2806 1.415 . S
C2808 C2813 1.425 . S
C2808 C2815 1.409 . S
C2809 H2801 0.930 . S
C2809 C2807 1.419 . S
C2809 C2810 1.362 . S
C2810 H2802 0.930 . S
C2810 C2809 1.362 . S
C2810 C2813 1.409 . S
C2811 H2803 0.930 . S
C2811 C2812 1.355 . S
C2811 C2813 1.415 . S
C2812 C2811 1.355 . S
C2812 C2814 1.419 . S
C2813 C2808 1.425 . S
C2813 C2810 1.409 . S
C2813 C2811 1.415 . S
C2814 H2804 0.930 . S
C2814 C2812 1.419 . S
C2814 C2815 1.362 . S
C2815 H2805 0.930 . S
C2815 C2808 1.409 . S
C2815 C2814 1.362 . S
H2816 C2822 0.930 . S
H2817 C2825 0.930 . S
H2818 C2826 0.930 . S
H2819 C2827 0.930 . S
H2820 C2830 0.930 . S
H2821 C2831 0.930 . S
C2822 H2816 0.930 . S
C2822 C2823 1.355 . S
C2822 C2824 1.415 . S
C2823 C2822 1.355 . S
C2823 C2825 1.419 . S
C2824 C2822 1.415 . S
C2824 C2829 1.425 . S
C2824 C2831 1.409 . S
C2825 H2817 0.930 . S
C2825 C2823 1.419 . S
C2825 C2826 1.362 . S
C2826 H2818 0.930 . S
C2826 C2825 1.362 . S
C2826 C2829 1.409 . S
C2827 H2819 0.930 . S
C2827 C2828 1.355 . S
C2827 C2829 1.415 . S
C2828 C2827 1.355 . S
C2828 C2830 1.419 . S
C2829 C2824 1.425 . S
C2829 C2826 1.409 . S
C2829 C2827 1.415 . S
C2830 H2820 0.930 . S
C2830 C2828 1.419 . S
C2830 C2831 1.362 . S
C2831 H2821 0.930 . S
C2831 C2824 1.409 . S
C2831 C2830 1.362 . S
H2832 C2838 0.930 . S
H2833 C2841 0.930 . S
H2834 C2842 0.930 . S
H2835 C2843 0.930 . S
H2836 C2846 0.930 . S
H2837 C2847 0.930 . S
C2838 H2832 0.930 . S
C2838 C2839 1.355 . S
C2838 C2840 1.415 . S
C2839 C2838 1.355 . S
C2839 C2841 1.419 . S
C2840 C2838 1.415 . S
C2840 C2845 1.425 . S
C2840 C2847 1.409 . S
C2841 H2833 0.930 . S
C2841 C2839 1.419 . S
C2841 C2842 1.362 . S
C2842 H2834 0.930 . S
C2842 C2841 1.362 . S
C2842 C2845 1.409 . S
C2843 H2835 0.930 . S
C2843 C2844 1.355 . S
C2843 C2845 1.415 . S
C2844 C2843 1.355 . S
C2844 C2846 1.419 . S
C2845 C2840 1.425 . S
C2845 C2842 1.409 . S
C2845 C2843 1.415 . S
C2846 H2836 0.930 . S
C2846 C2844 1.419 . S
C2846 C2847 1.362 . S
C2847 H2837 0.930 . S
C2847 C2840 1.409 . S
C2847 C2846 1.362 . S
H2848 C2854 0.930 . S
H2849 C2857 0.930 . S
H2850 C2858 0.930 . S
H2851 C2859 0.930 . S
H2852 C2862 0.930 . S
H2853 C2863 0.930 . S
C2854 H2848 0.930 . S
C2854 C2855 1.355 . S
C2854 C2856 1.415 . S
C2855 C2854 1.355 . S
C2855 C2857 1.419 . S
C2856 C2854 1.415 . S
C2856 C2861 1.425 . S
C2856 C2863 1.409 . S
C2857 H2849 0.930 . S
C2857 C2855 1.419 . S
C2857 C2858 1.362 . S
C2858 H2850 0.930 . S
C2858 C2857 1.362 . S
C2858 C2861 1.409 . S
C2859 H2851 0.930 . S
C2859 C2860 1.355 . S
C2859 C2861 1.415 . S
C2860 C2859 1.355 . S
C2860 C2862 1.419 . S
C2861 C2856 1.425 . S
C2861 C2858 1.409 . S
C2861 C2859 1.415 . S
C2862 H2852 0.930 . S
C2862 C2860 1.419 . S
C2862 C2863 1.362 . S
C2863 H2853 0.930 . S
C2863 C2856 1.409 . S
C2863 C2862 1.362 . S
H2864 C2870 0.930 . S
H2865 C2873 0.930 . S
H2866 C2874 0.930 . S
H2867 C2875 0.930 . S
H2868 C2878 0.930 . S
H2869 C2879 0.930 . S
C2870 H2864 0.930 . S
C2870 C2871 1.355 . S
C2870 C2872 1.415 . S
C2871 C2870 1.355 . S
C2871 C2873 1.419 . S
C2872 C2870 1.415 . S
C2872 C2877 1.425 . S
C2872 C2879 1.409 . S
C2873 H2865 0.930 . S
C2873 C2871 1.419 . S
C2873 C2874 1.362 . S
C2874 H2866 0.930 . S
C2874 C2873 1.362 . S
C2874 C2877 1.409 . S
C2875 H2867 0.930 . S
C2875 C2876 1.355 . S
C2875 C2877 1.415 . S
C2876 C2875 1.355 . S
C2876 C2878 1.419 . S
C2877 C2872 1.425 . S
C2877 C2874 1.409 . S
C2877 C2875 1.415 . S
C2878 H2868 0.930 . S
C2878 C2876 1.419 . S
C2878 C2879 1.362 . S
C2879 H2869 0.930 . S
C2879 C2872 1.409 . S
C2879 C2878 1.362 . S
H2880 C2886 0.930 . S
H2881 C2889 0.930 . S
H2882 C2890 0.930 . S
H2883 C2891 0.930 . S
H2884 C2894 0.930 . S
H2885 C2895 0.930 . S
C2886 H2880 0.930 . S
C2886 C2887 1.355 . S
C2886 C2888 1.415 . S
C2887 C2886 1.355 . S
C2887 C2889 1.419 . S
C2888 C2886 1.415 . S
C2888 C2893 1.425 . S
C2888 C2895 1.409 . S
C2889 H2881 0.930 . S
C2889 C2887 1.419 . S
C2889 C2890 1.362 . S
C2890 H2882 0.930 . S
C2890 C2889 1.362 . S
C2890 C2893 1.409 . S
C2891 H2883 0.930 . S
C2891 C2892 1.355 . S
C2891 C2893 1.415 . S
C2892 C2891 1.355 . S
C2892 C2894 1.419 . S
C2893 C2888 1.425 . S
C2893 C2890 1.409 . S
C2893 C2891 1.415 . S
C2894 H2884 0.930 . S
C2894 C2892 1.419 . S
C2894 C2895 1.362 . S
C2895 H2885 0.930 . S
C2895 C2888 1.409 . S
C2895 C2894 1.362 . S
H2896 C2902 0.930 . S
H2897 C2905 0.930 . S
H2898 C2906 0.930 . S
H2899 C2907 0.930 . S
H2900 C2910 0.930 . S
H2901 C2911 0.930 . S
C2902 H2896 0.930 . S
C2902 C2903 1.355 . S
C2902 C2904 1.415 . S
C2903 C2902 1.355 . S
C2903 C2905 1.419 . S
C2904 C2902 1.415 . S
C2904 C2909 1.425 . S
C2904 C2911 1.409 . S
C2905 H2897 0.930 . S
C2905 C2903 1.419 . S
C2905 C2906 1.362 . S
C2906 H2898 0.930 . S
C2906 C2905 1.362 . S
C2906 C2909 1.409 . S
C2907 H2899 0.930 . S
C2907 C2908 1.355 . S
C2907 C2909 1.415 . S
C2908 C2907 1.355 . S
C2908 C2910 1.419 . S
C2909 C2904 1.425 . S
C2909 C2906 1.409 . S
C2909 C2907 1.415 . S
C2910 H2900 0.930 . S
C2910 C2908 1.419 . S
C2910 C2911 1.362 . S
C2911 H2901 0.930 . S
C2911 C2904 1.409 . S
C2911 C2910 1.362 . S
H2912 C2918 0.930 . S
H2913 C2921 0.930 . S
H2914 C2922 0.930 . S
H2915 C2923 0.930 . S
H2916 C2926 0.930 . S
H2917 C2927 0.930 . S
C2918 H2912 0.930 . S
C2918 C2919 1.355 . S
C2918 C2920 1.415 . S
C2919 C2918 1.355 . S
C2919 C2921 1.419 . S
C2920 C2918 1.415 . S
C2920 C2925 1.425 . S
C2920 C2927 1.409 . S
C2921 H2913 0.930 . S
C2921 C2919 1.419 . S
C2921 C2922 1.362 . S
C2922 H2914 0.930 . S
C2922 C2921 1.362 . S
C2922 C2925 1.409 . S
C2923 H2915 0.930 . S
C2923 C2924 1.355 . S
C2923 C2925 1.415 . S
C2924 C2923 1.355 . S
C2924 C2926 1.419 . S
C2925 C2920 1.425 . S
C2925 C2922 1.409 . S
C2925 C2923 1.415 . S
C2926 H2916 0.930 . S
C2926 C2924 1.419 . S
C2926 C2927 1.362 . S
C2927 H2917 0.930 . S
C2927 C2920 1.409 . S
C2927 C2926 1.362 . S
H2928 C2934 0.930 . S
H2929 C2937 0.930 . S
H2930 C2938 0.930 . S
H2931 C2939 0.930 . S
H2932 C2942 0.930 . S
H2933 C2943 0.930 . S
C2934 H2928 0.930 . S
C2934 C2935 1.355 . S
C2934 C2936 1.415 . S
C2935 C2934 1.355 . S
C2935 C2937 1.419 . S
C2936 C2934 1.415 . S
C2936 C2941 1.425 . S
C2936 C2943 1.409 . S
C2937 H2929 0.930 . S
C2937 C2935 1.419 . S
C2937 C2938 1.362 . S
C2938 H2930 0.930 . S
C2938 C2937 1.362 . S
C2938 C2941 1.409 . S
C2939 H2931 0.930 . S
C2939 C2940 1.355 . S
C2939 C2941 1.415 . S
C2940 C2939 1.355 . S
C2940 C2942 1.419 . S
C2941 C2936 1.425 . S
C2941 C2938 1.409 . S
C2941 C2939 1.415 . S
C2942 H2932 0.930 . S
C2942 C2940 1.419 . S
C2942 C2943 1.362 . S
C2943 H2933 0.930 . S
C2943 C2936 1.409 . S
C2943 C2942 1.362 . S
H2944 C2950 0.930 . S
H2945 C2953 0.930 . S
H2946 C2954 0.930 . S
H2947 C2955 0.930 . S
H2948 C2958 0.930 . S
H2949 C2959 0.930 . S
C2950 H2944 0.930 . S
C2950 C2951 1.355 . S
C2950 C2952 1.415 . S
C2951 C2950 1.355 . S
C2951 C2953 1.419 . S
C2952 C2950 1.415 . S
C2952 C2957 1.425 . S
C2952 C2959 1.409 . S
C2953 H2945 0.930 . S
C2953 C2951 1.419 . S
C2953 C2954 1.362 . S
C2954 H2946 0.930 . S
C2954 C2953 1.362 . S
C2954 C2957 1.409 . S
C2955 H2947 0.930 . S
C2955 C2956 1.355 . S
C2955 C2957 1.415 . S
C2956 C2955 1.355 . S
C2956 C2958 1.419 . S
C2957 C2952 1.425 . S
C2957 C2954 1.409 . S
C2957 C2955 1.415 . S
C2958 H2948 0.930 . S
C2958 C2956 1.419 . S
C2958 C2959 1.362 . S
C2959 H2949 0.930 . S
C2959 C2952 1.409 . S
C2959 C2958 1.362 . S
H2960 C2966 0.930 . S
H2961 C2969 0.930 . S
H2962 C2970 0.930 . S
H2963 C2971 0.930 . S
H2964 C2974 0.930 . S
H2965 C2975 0.930 . S
C2966 H2960 0.930 . S
C2966 C2967 1.355 . S
C2966 C2968 1.415 . S
C2967 C2966 1.355 . S
C2967 C2969 1.419 . S
C2968 C2966 1.415 . S
C2968 C2973 1.425 . S
C2968 C2975 1.409 . S
C2969 H2961 0.930 . S
C2969 C2967 1.419 . S
C2969 C2970 1.362 . S
C2970 H2962 0.930 . S
C2970 C2969 1.362 . S
C2970 C2973 1.409 . S
C2971 H2963 0.930 . S
C2971 C2972 1.355 . S
C2971 C2973 1.415 . S
C2972 C2971 1.355 . S
C2972 C2974 1.419 . S
C2973 C2968 1.425 . S
C2973 C2970 1.409 . S
C2973 C2971 1.415 . S
C2974 H2964 0.930 . S
C2974 C2972 1.419 . S
C2974 C2975 1.362 . S
C2975 H2965 0.930 . S
C2975 C2968 1.409 . S
C2975 C2974 1.362 . S
H2976 C2982 0.930 . S
H2977 C2985 0.930 . S
H2978 C2986 0.930 . S
H2979 C2987 0.930 . S
H2980 C2990 0.930 . S
H2981 C2991 0.930 . S
C2982 H2976 0.930 . S
C2982 C2983 1.355 . S
C2982 C2984 1.415 . S
C2983 C2982 1.355 . S
C2983 C2985 1.419 . S
C2984 C2982 1.415 . S
C2984 C2989 1.425 . S
C2984 C2991 1.409 . S
C2985 H2977 0.930 . S
C2985 C2983 1.419 . S
C2985 C2986 1.362 . S
C2986 H2978 0.930 . S
C2986 C2985 1.362 . S
C2986 C2989 1.409 . S
C2987 H2979 0.930 . S
C2987 C2988 1.355 . S
C2987 C2989 1.415 . S
C2988 C2987 1.355 . S
C2988 C2990 1.419 . S
C2989 C2984 1.425 . S
C2989 C2986 1.409 . S
C2989 C2987 1.415 . S
C2990 H2980 0.930 . S
C2990 C2988 1.419 . S
C2990 C2991 1.362 . S
C2991 H2981 0.930 . S
C2991 C2984 1.409 . S
C2991 C2990 1.362 . S
H2992 C2998 0.930 . S
H2993 C3001 0.930 . S
H2994 C3002 0.930 . S
H2995 C3003 0.930 . S
H2996 C3006 0.930 . S
H2997 C3007 0.930 . S
C2998 H2992 0.930 . S
C2998 C2999 1.355 . S
C2998 C3000 1.415 . S
C2999 C2998 1.355 . S
C2999 C3001 1.419 . S
C3000 C2998 1.415 . S
C3000 C3005 1.425 . S
C3000 C3007 1.409 . S
C3001 H2993 0.930 . S
C3001 C2999 1.419 . S
C3001 C3002 1.362 . S
C3002 H2994 0.930 . S
C3002 C3001 1.362 . S
C3002 C3005 1.409 . S
C3003 H2995 0.930 . S
C3003 C3004 1.355 . S
C3003 C3005 1.415 . S
C3004 C3003 1.355 . S
C3004 C3006 1.419 . S
C3005 C3000 1.425 . S
C3005 C3002 1.409 . S
C3005 C3003 1.415 . S
C3006 H2996 0.930 . S
C3006 C3004 1.419 . S
C3006 C3007 1.362 . S
C3007 H2997 0.930 . S
C3007 C3000 1.409 . S
C3007 C3006 1.362 . S
H3008 C3014 0.930 . S
H3009 C3017 0.930 . S
H3010 C3018 0.930 . S
H3011 C3019 0.930 . S
H3012 C3022 0.930 . S
H3013 C3023 0.930 . S
C3014 H3008 0.930 . S
C3014 C3015 1.355 . S
C3014 C3016 1.415 . S
C3015 C3014 1.355 . S
C3015 C3017 1.419 . S
C3016 C3014 1.415 . S
C3016 C3021 1.425 . S
C3016 C3023 1.409 . S
C3017 H3009 0.930 . S
C3017 C3015 1.419 . S
C3017 C3018 1.362 . S
C3018 H3010 0.930 . S
C3018 C3017 1.362 . S
C3018 C3021 1.409 . S
C3019 H3011 0.930 . S
C3019 C3020 1.355 . S
C3019 C3021 1.415 . S
C3020 C3019 1.355 . S
C3020 C3022 1.419 . S
C3021 C3016 1.425 . S
C3021 C3018 1.409 . S
C3021 C3019 1.415 . S
C3022 H3012 0.930 . S
C3022 C3020 1.419 . S
C3022 C3023 1.362 . S
C3023 H3013 0.930 . S
C3023 C3016 1.409 . S
C3023 C3022 1.362 . S
H3024 C3030 0.930 . S
H3025 C3033 0.930 . S
H3026 C3034 0.930 . S
H3027 C3035 0.930 . S
H3028 C3038 0.930 . S
H3029 C3039 0.930 . S
C3030 H3024 0.930 . S
C3030 C3031 1.355 . S
C3030 C3032 1.415 . S
C3031 C3030 1.355 . S
C3031 C3033 1.419 . S
C3032 C3030 1.415 . S
C3032 C3037 1.425 . S
C3032 C3039 1.409 . S
C3033 H3025 0.930 . S
C3033 C3031 1.419 . S
C3033 C3034 1.362 . S
C3034 H3026 0.930 . S
C3034 C3033 1.362 . S
C3034 C3037 1.409 . S
C3035 H3027 0.930 . S
C3035 C3036 1.355 . S
C3035 C3037 1.415 . S
C3036 C3035 1.355 . S
C3036 C3038 1.419 . S
C3037 C3032 1.425 . S
C3037 C3034 1.409 . S
C3037 C3035 1.415 . S
C3038 H3028 0.930 . S
C3038 C3036 1.419 . S
C3038 C3039 1.362 . S
C3039 H3029 0.930 . S
C3039 C3032 1.409 . S
C3039 C3038 1.362 . S
H3040 C3046 0.930 . S
H3041 C3049 0.930 . S
H3042 C3050 0.930 . S
H3043 C3051 0.930 . S
H3044 C3054 0.930 . S
H3045 C3055 0.930 . S
C3046 H3040 0.930 . S
C3046 C3047 1.355 . S
C3046 C3048 1.415 . S
C3047 C3046 1.355 . S
C3047 C3049 1.419 . S
C3048 C3046 1.415 . S
C3048 C3053 1.425 . S
C3048 C3055 1.409 . S
C3049 H3041 0.930 . S
C3049 C3047 1.419 . S
C3049 C3050 1.362 . S
C3050 H3042 0.930 . S
C3050 C3049 1.362 . S
C3050 C3053 1.409 . S
C3051 H3043 0.930 . S
C3051 C3052 1.355 . S
C3051 C3053 1.415 . S
C3052 C3051 1.355 . S
C3052 C3054 1.419 . S
C3053 C3048 1.425 . S
C3053 C3050 1.409 . S
C3053 C3051 1.415 . S
C3054 H3044 0.930 . S
C3054 C3052 1.419 . S
C3054 C3055 1.362 . S
C3055 H3045 0.930 . S
C3055 C3048 1.409 . S
C3055 C3054 1.362 . S
H3056 C3062 0.930 . S
H3057 C3065 0.930 . S
H3058 C3066 0.930 . S
H3059 C3067 0.930 . S
H3060 C3070 0.930 . S
H3061 C3071 0.930 . S
C3062 H3056 0.930 . S
C3062 C3063 1.355 . S
C3062 C3064 1.415 . S
C3063 C3062 1.355 . S
C3063 C3065 1.419 . S
C3064 C3062 1.415 . S
C3064 C3069 1.425 . S
C3064 C3071 1.409 . S
C3065 H3057 0.930 . S
C3065 C3063 1.419 . S
C3065 C3066 1.362 . S
C3066 H3058 0.930 . S
C3066 C3065 1.362 . S
C3066 C3069 1.409 . S
C3067 H3059 0.930 . S
C3067 C3068 1.355 . S
C3067 C3069 1.415 . S
C3068 C3067 1.355 . S
C3068 C3070 1.419 . S
C3069 C3064 1.425 . S
C3069 C3066 1.409 . S
C3069 C3067 1.415 . S
C3070 H3060 0.930 . S
C3070 C3068 1.419 . S
C3070 C3071 1.362 . S
C3071 H3061 0.930 . S
C3071 C3064 1.409 . S
C3071 C3070 1.362 . S
H3072 C3078 0.930 . S
H3073 C3081 0.930 . S
H3074 C3082 0.930 . S
H3075 C3083 0.930 . S
H3076 C3086 0.930 . S
H3077 C3087 0.930 . S
C3078 H3072 0.930 . S
C3078 C3079 1.355 . S
C3078 C3080 1.415 . S
C3079 C3078 1.355 . S
C3079 C3081 1.419 . S
C3080 C3078 1.415 . S
C3080 C3085 1.425 . S
C3080 C3087 1.409 . S
C3081 H3073 0.930 . S
C3081 C3079 1.419 . S
C3081 C3082 1.362 . S
C3082 H3074 0.930 . S
C3082 C3081 1.362 . S
C3082 C3085 1.409 . S
C3083 H3075 0.930 . S
C3083 C3084 1.355 . S
C3083 C3085 1.415 . S
C3084 C3083 1.355 . S
C3084 C3086 1.419 . S
C3085 C3080 1.425 . S
C3085 C3082 1.409 . S
C3085 C3083 1.415 . S
C3086 H3076 0.930 . S
C3086 C3084 1.419 . S
C3086 C3087 1.362 . S
C3087 H3077 0.930 . S
C3087 C3080 1.409 . S
C3087 C3086 1.362 . S
H3088 C3094 0.930 . S
H3089 C3097 0.930 . S
H3090 C3098 0.930 . S
H3091 C3099 0.930 . S
H3092 C3102 0.930 . S
H3093 C3103 0.930 . S
C3094 H3088 0.930 . S
C3094 C3095 1.355 . S
C3094 C3096 1.415 . S
C3095 C3094 1.355 . S
C3095 C3097 1.419 . S
C3096 C3094 1.415 . S
C3096 C3101 1.425 . S
C3096 C3103 1.409 . S
C3097 H3089 0.930 . S
C3097 C3095 1.419 . S
C3097 C3098 1.362 . S
C3098 H3090 0.930 . S
C3098 C3097 1.362 . S
C3098 C3101 1.409 . S
C3099 H3091 0.930 . S
C3099 C3100 1.355 . S
C3099 C3101 1.415 . S
C3100 C3099 1.355 . S
C3100 C3102 1.419 . S
C3101 C3096 1.425 . S
C3101 C3098 1.409 . S
C3101 C3099 1.415 . S
C3102 H3092 0.930 . S
C3102 C3100 1.419 . S
C3102 C3103 1.362 . S
C3103 H3093 0.930 . S
C3103 C3096 1.409 . S
C3103 C3102 1.362 . S
H3104 C3110 0.930 . S
H3105 C3113 0.930 . S
H3106 C3114 0.930 . S
H3107 C3115 0.930 . S
H3108 C3118 0.930 . S
H3109 C3119 0.930 . S
C3110 H3104 0.930 . S
C3110 C3111 1.355 . S
C3110 C3112 1.415 . S
C3111 C3110 1.355 . S
C3111 C3113 1.419 . S
C3112 C3110 1.415 . S
C3112 C3117 1.425 . S
C3112 C3119 1.409 . S
C3113 H3105 0.930 . S
C3113 C3111 1.419 . S
C3113 C3114 1.362 . S
C3114 H3106 0.930 . S
C3114 C3113 1.362 . S
C3114 C3117 1.409 . S
C3115 H3107 0.930 . S
C3115 C3116 1.355 . S
C3115 C3117 1.415 . S
C3116 C3115 1.355 . S
C3116 C3118 1.419 . S
C3117 C3112 1.425 . S
C3117 C3114 1.409 . S
C3117 C3115 1.415 . S
C3118 H3108 0.930 . S
C3118 C3116 1.419 . S
C3118 C3119 1.362 . S
C3119 H3109 0.930 . S
C3119 C3112 1.409 . S
C3119 C3118 1.362 . S
H3120 C3126 0.930 . S
H3121 C3129 0.930 . S
H3122 C3130 0.930 . S
H3123 C3131 0.930 . S
H3124 C3134 0.930 . S
H3125 C3135 0.930 . S
C3126 H3120 0.930 . S
C3126 C3127 1.355 . S
C3126 C3128 1.415 . S
C3127 C3126 1.355 . S
C3127 C3129 1.419 . S
C3128 C3126 1.415 . S
C3128 C3133 1.425 . S
C3128 C3135 1.409 . S
C3129 H3121 0.930 . S
C3129 C3127 1.419 . S
C3129 C3130 1.362 . S
C3130 H3122 0.930 . S
C3130 C3129 1.362 . S
C3130 C3133 1.409 . S
C3131 H3123 0.930 . S
C3131 C3132 1.355 . S
C3131 C3133 1.415 . S
C3132 C3131 1.355 . S
C3132 C3134 1.419 . S
C3133 C3128 1.425 . S
C3133 C3130 1.409 . S
C3133 C3131 1.415 . S
C3134 H3124 0.930 . S
C3134 C3132 1.419 . S
C3134 C3135 1.362 . S
C3135 H3125 0.930 . S
C3135 C3128 1.409 . S
C3135 C3134 1.362 . S
H3136 C3142 0.930 . S
H3137 C3145 0.930 . S
H3138 C3146 0.930 . S
H3139 C3147 0.930 . S
H3140 C3150 0.930 . S
H3141 C3151 0.930 . S
C3142 H3136 0.930 . S
C3142 C3143 1.355 . S
C3142 C3144 1.415 . S
C3143 C3142 1.355 . S
C3143 C3145 1.419 . S
C3144 C3142 1.415 . S
C3144 C3149 1.425 . S
C3144 C3151 1.409 . S
C3145 H3137 0.930 . S
C3145 C3143 1.419 . S
C3145 C3146 1.362 . S
C3146 H3138 0.930 . S
C3146 C3145 1.362 . S
C3146 C3149 1.409 . S
C3147 H3139 0.930 . S
C3147 C3148 1.355 . S
C3147 C3149 1.415 . S
C3148 C3147 1.355 . S
C3148 C3150 1.419 . S
C3149 C3144 1.425 . S
C3149 C3146 1.409 . S
C3149 C3147 1.415 . S
C3150 H3140 0.930 . S
C3150 C3148 1.419 . S
C3150 C3151 1.362 . S
C3151 H3141 0.930 . S
C3151 C3144 1.409 . S
C3151 C3150 1.362 . S
H3152 C3158 0.930 . S
H3153 C3161 0.930 . S
H3154 C3162 0.930 . S
H3155 C3163 0.930 . S
H3156 C3166 0.930 . S
H3157 C3167 0.930 . S
C3158 H3152 0.930 . S
C3158 C3159 1.355 . S
C3158 C3160 1.415 . S
C3159 C3158 1.355 . S
C3159 C3161 1.419 . S
C3160 C3158 1.415 . S
C3160 C3165 1.425 . S
C3160 C3167 1.409 . S
C3161 H3153 0.930 . S
C3161 C3159 1.419 . S
C3161 C3162 1.362 . S
C3162 H3154 0.930 . S
C3162 C3161 1.362 . S
C3162 C3165 1.409 . S
C3163 H3155 0.930 . S
C3163 C3164 1.355 . S
C3163 C3165 1.415 . S
C3164 C3163 1.355 . S
C3164 C3166 1.419 . S
C3165 C3160 1.425 . S
C3165 C3162 1.409 . S
C3165 C3163 1.415 . S
C3166 H3156 0.930 . S
C3166 C3164 1.419 . S
C3166 C3167 1.362 . S
C3167 H3157 0.930 . S
C3167 C3160 1.409 . S
C3167 C3166 1.362 . S
H3168 C3174 0.930 . S
H3169 C3177 0.930 . S
H3170 C3178 0.930 . S
H3171 C3179 0.930 . S
H3172 C3182 0.930 . S
H3173 C3183 0.930 . S
C3174 H3168 0.930 . S
C3174 C3175 1.355 . S
C3174 C3176 1.415 . S
C3175 C3174 1.355 . S
C3175 C3177 1.419 . S
C3176 C3174 1.415 . S
C3176 C3181 1.425 . S
C3176 C3183 1.409 . S
C3177 H3169 0.930 . S
C3177 C3175 1.419 . S
C3177 C3178 1.362 . S
C3178 H3170 0.930 . S
C3178 C3177 1.362 . S
C3178 C3181 1.409 . S
C3179 H3171 0.930 . S
C3179 C3180 1.355 . S
C3179 C3181 1.415 . S
C3180 C3179 1.355 . S
C3180 C3182 1.419 . S
C3181 C3176 1.425 . S
C3181 C3178 1.409 . S
C3181 C3179 1.415 . S
C3182 H3172 0.930 . S
C3182 C3180 1.419 . S
C3182 C3183 1.362 . S
C3183 H3173 0.930 . S
C3183 C3176 1.409 . S
C3183 C3182 1.362 . S
H3184 C3190 0.930 . S
H3185 C3193 0.930 . S
H3186 C3194 0.930 . S
H3187 C3195 0.930 . S
H3188 C3198 0.930 . S
H3189 C3199 0.930 . S
C3190 H3184 0.930 . S
C3190 C3191 1.355 . S
C3190 C3192 1.415 . S
C3191 C3190 1.355 . S
C3191 C3193 1.419 . S
C3192 C3190 1.415 . S
C3192 C3197 1.425 . S
C3192 C3199 1.409 . S
C3193 H3185 0.930 . S
C3193 C3191 1.419 . S
C3193 C3194 1.362 . S
C3194 H3186 0.930 . S
C3194 C3193 1.362 . S
C3194 C3197 1.409 . S
C3195 H3187 0.930 . S
C3195 C3196 1.355 . S
C3195 C3197 1.415 . S
C3196 C3195 1.355 . S
C3196 C3198 1.419 . S
C3197 C3192 1.425 . S
C3197 C3194 1.409 . S
C3197 C3195 1.415 . S
C3198 H3188 0.930 . S
C3198 C3196 1.419 . S
C3198 C3199 1.362 . S
C3199 H3189 0.930 . S
C3199 C3192 1.409 . S
C3199 C3198 1.362 . S
H3200 C3206 0.930 . S
H3201 C3209 0.930 . S
H3202 C3210 0.930 . S
H3203 C3211 0.930 . S
H3204 C3214 0.930 . S
H3205 C3215 0.930 . S
C3206 H3200 0.930 . S
C3206 C3207 1.355 . S
C3206 C3208 1.415 . S
C3207 C3206 1.355 . S
C3207 C3209 1.419 . S
C3208 C3206 1.415 . S
C3208 C3213 1.425 . S
C3208 C3215 1.409 . S
C3209 H3201 0.930 . S
C3209 C3207 1.419 . S
C3209 C3210 1.362 . S
C3210 H3202 0.930 . S
C3210 C3209 1.362 . S
C3210 C3213 1.409 . S
C3211 H3203 0.930 . S
C3211 C3212 1.355 . S
C3211 C3213 1.415 . S
C3212 C3211 1.355 . S
C3212 C3214 1.419 . S
C3213 C3208 1.425 . S
C3213 C3210 1.409 . S
C3213 C3211 1.415 . S
C3214 H3204 0.930 . S
C3214 C3212 1.419 . S
C3214 C3215 1.362 . S
C3215 H3205 0.930 . S
C3215 C3208 1.409 . S
C3215 C3214 1.362 . S
H3216 C3222 0.930 . S
H3217 C3225 0.930 . S
H3218 C3226 0.930 . S
H3219 C3227 0.930 . S
H3220 C3230 0.930 . S
H3221 C3231 0.930 . S
C3222 H3216 0.930 . S
C3222 C3223 1.355 . S
C3222 C3224 1.415 . S
C3223 C3222 1.355 . S
C3223 C3225 1.419 . S
C3224 C3222 1.415 . S
C3224 C3229 1.425 . S
C3224 C3231 1.409 . S
C3225 H3217 0.930 . S
C3225 C3223 1.419 . S
C3225 C3226 1.362 . S
C3226 H3218 0.930 . S
C3226 C3225 1.362 . S
C3226 C3229 1.409 . S
C3227 H3219 0.930 . S
C3227 C3228 1.355 . S
C3227 C3229 1.415 . S
C3228 C3227 1.355 . S
C3228 C3230 1.419 . S
C3229 C3224 1.425 . S
C3229 C3226 1.409 . S
C3229 C3227 1.415 . S
C3230 H3220 0.930 . S
C3230 C3228 1.419 . S
C3230 C3231 1.362 . S
C3231 H3221 0.930 . S
C3231 C3224 1.409 . S
C3231 C3230 1.362 . S
H3232 C3238 0.930 . S
H3233 C3241 0.930 . S
H3234 C3242 0.930 . S
H3235 C3243 0.930 . S
H3236 C3246 0.930 . S
H3237 C3247 0.930 . S
C3238 H3232 0.930 . S
C3238 C3239 1.355 . S
C3238 C3240 1.415 . S
C3239 C3238 1.355 . S
C3239 C3241 1.419 . S
C3240 C3238 1.415 . S
C3240 C3245 1.425 . S
C3240 C3247 1.409 . S
C3241 H3233 0.930 . S
C3241 C3239 1.419 . S
C3241 C3242 1.362 . S
C3242 H3234 0.930 . S
C3242 C3241 1.362 . S
C3242 C3245 1.409 . S
C3243 H3235 0.930 . S
C3243 C3244 1.355 . S
C3243 C3245 1.415 . S
C3244 C3243 1.355 . S
C3244 C3246 1.419 . S
C3245 C3240 1.425 . S
C3245 C3242 1.409 . S
C3245 C3243 1.415 . S
C3246 H3236 0.930 . S
C3246 C3244 1.419 . S
C3246 C3247 1.362 . S
C3247 H3237 0.930 . S
C3247 C3240 1.409 . S
C3247 C3246 1.362 . S
H3248 C3254 0.930 . S
H3249 C3257 0.930 . S
H3250 C3258 0.930 . S
H3251 C3259 0.930 . S
H3252 C3262 0.930 . S
H3253 C3263 0.930 . S
C3254 H3248 0.930 . S
C3254 C3255 1.355 . S
C3254 C3256 1.415 . S
C3255 C3254 1.355 . S
C3255 C3257 1.419 . S
C3256 C3254 1.415 . S
C3256 C3261 1.425 . S
C3256 C3263 1.409 . S
C3257 H3249 0.930 . S
C3257 C3255 1.419 . S
C3257 C3258 1.362 . S
C3258 H3250 0.930 . S
C3258 C3257 1.362 . S
C3258 C3261 1.409 . S
C3259 H3251 0.930 . S
C3259 C3260 1.355 . S
C3259 C3261 1.415 . S
C3260 C3259 1.355 . S
C3260 C3262 1.419 . S
C3261 C3256 1.425 . S
C3261 C3258 1.409 . S
C3261 C3259 1.415 . S
C3262 H3252 0.930 . S
C3262 C3260 1.419 . S
C3262 C3263 1.362 . S
C3263 H3253 0.930 . S
C3263 C3256 1.409 . S
C3263 C3262 1.362 . S
H3264 C3270 0.930 . S
H3265 C3273 0.930 . S
H3266 C3274 0.930 . S
H3267 C3275 0.930 . S
H3268 C3278 0.930 . S
H3269 C3279 0.930 . S
C3270 H3264 0.930 . S
C3270 C3271 1.355 . S
C3270 C3272 1.415 . S
C3271 C3270 1.355 . S
C3271 C3273 1.419 . S
C3272 C3270 1.415 . S
C3272 C3277 1.425 . S
C3272 C3279 1.409 . S
C3273 H3265 0.930 . S
C3273 C3271 1.419 . S
C3273 C3274 1.362 . S
C3274 H3266 0.930 . S
C3274 C3273 1.362 . S
C3274 C3277 1.409 . S
C3275 H3267 0.930 . S
C3275 C3276 1.355 . S
C3275 C3277 1.415 . S
C3276 C3275 1.355 . S
C3276 C3278 1.419 . S
C3277 C3272 1.425 . S
C3277 C3274 1.409 . S
C3277 C3275 1.415 . S
C3278 H3268 0.930 . S
C3278 C3276 1.419 . S
C3278 C3279 1.362 . S
C3279 H3269 0.930 . S
C3279 C3272 1.409 . S
C3279 C3278 1.362 . S
H3280 C3286 0.930 . S
H3281 C3289 0.930 . S
H3282 C3290 0.930 . S
H3283 C3291 0.930 . S
H3284 C3294 0.930 . S
H3285 C3295 0.930 . S
C3286 H3280 0.930 . S
C3286 C3287 1.355 . S
C3286 C3288 1.415 . S
C3287 C3286 1.355 . S
C3287 C3289 1.419 . S
C3288 C3286 1.415 . S
C3288 C3293 1.425 . S
C3288 C3295 1.409 . S
C3289 H3281 0.930 . S
C3289 C3287 1.419 . S
C3289 C3290 1.362 . S
C3290 H3282 0.930 . S
C3290 C3289 1.362 . S
C3290 C3293 1.409 . S
C3291 H3283 0.930 . S
C3291 C3292 1.355 . S
C3291 C3293 1.415 . S
C3292 C3291 1.355 . S
C3292 C3294 1.419 . S
C3293 C3288 1.425 . S
C3293 C3290 1.409 . S
C3293 C3291 1.415 . S
C3294 H3284 0.930 . S
C3294 C3292 1.419 . S
C3294 C3295 1.362 . S
C3295 H3285 0.930 . S
C3295 C3288 1.409 . S
C3295 C3294 1.362 . S
H3296 C3302 0.930 . S
H3297 C3305 0.930 . S
H3298 C3306 0.930 . S
H3299 C3307 0.930 . S
H3300 C3310 0.930 . S
H3301 C3311 0.930 . S
C3302 H3296 0.930 . S
C3302 C3303 1.355 . S
C3302 C3304 1.415 . S
C3303 C3302 1.355 . S
C3303 C3305 1.419 . S
C3304 C3302 1.415 . S
C3304 C3309 1.425 . S
C3304 C3311 1.409 . S
C3305 H3297 0.930 . S
C3305 C3303 1.419 . S
C3305 C3306 1.362 . S
C3306 H3298 0.930 . S
C3306 C3305 1.362 . S
C3306 C3309 1.409 . S
C3307 H3299 0.930 . S
C3307 C3308 1.355 . S
C3307 C3309 1.415 . S
C3308 C3307 1.355 . S
C3308 C3310 1.419 . S
C3309 C3304 1.425 . S
C3309 C3306 1.409 . S
C3309 C3307 1.415 . S
C3310 H3300 0.930 . S
C3310 C3308 1.419 . S
C3310 C3311 1.362 . S
C3311 H3301 0.930 . S
C3311 C3304 1.409 . S
C3311 C3310 1.362 . S
H3312 C3318 0.930 . S
H3313 C3321 0.930 . S
H3314 C3322 0.930 . S
H3315 C3323 0.930 . S
H3316 C3326 0.930 . S
H3317 C3327 0.930 . S
C3318 H3312 0.930 . S
C3318 C3319 1.355 . S
C3318 C3320 1.415 . S
C3319 C3318 1.355 . S
C3319 C3321 1.419 . S
C3320 C3318 1.415 . S
C3320 C3325 1.425 . S
C3320 C3327 1.409 . S
C3321 H3313 0.930 . S
C3321 C3319 1.419 . S
C3321 C3322 1.362 . S
C3322 H3314 0.930 . S
C3322 C3321 1.362 . S
C3322 C3325 1.409 . S
C3323 H3315 0.930 . S
C3323 C3324 1.355 . S
C3323 C3325 1.415 . S
C3324 C3323 1.355 . S
C3324 C3326 1.419 . S
C3325 C3320 1.425 . S
C3325 C3322 1.409 . S
C3325 C3323 1.415 . S
C3326 H3316 0.930 . S
C3326 C3324 1.419 . S
C3326 C3327 1.362 . S
C3327 H3317 0.930 . S
C3327 C3320 1.409 . S
C3327 C3326 1.362 . S
H3328 C3334 0.930 . S
H3329 C3337 0.930 . S
H3330 C3338 0.930 . S
H3331 C3339 0.930 . S
H3332 C3342 0.930 . S
H3333 C3343 0.930 . S
C3334 H3328 0.930 . S
C3334 C3335 1.355 . S
C3334 C3336 1.415 . S
C3335 C3334 1.355 . S
C3335 C3337 1.419 . S
C3336 C3334 1.415 . S
C3336 C3341 1.425 . S
C3336 C3343 1.409 . S
C3337 H3329 0.930 . S
C3337 C3335 1.419 . S
C3337 C3338 1.362 . S
C3338 H3330 0.930 . S
C3338 C3337 1.362 . S
C3338 C3341 1.409 . S
C3339 H3331 0.930 . S
C3339 C3340 1.355 . S
C3339 C3341 1.415 . S
C3340 C3339 1.355 . S
C3340 C3342 1.419 . S
C3341 C3336 1.425 . S
C3341 C3338 1.409 . S
C3341 C3339 1.415 . S
C3342 H3332 0.930 . S
C3342 C3340 1.419 . S
C3342 C3343 1.362 . S
C3343 H3333 0.930 . S
C3343 C3336 1.409 . S
C3343 C3342 1.362 . S
H3344 C3350 0.930 . S
H3345 C3353 0.930 . S
H3346 C3354 0.930 . S
H3347 C3355 0.930 . S
H3348 C3358 0.930 . S
H3349 C3359 0.930 . S
C3350 H3344 0.930 . S
C3350 C3351 1.355 . S
C3350 C3352 1.415 . S
C3351 C3350 1.355 . S
C3351 C3353 1.419 . S
C3352 C3350 1.415 . S
C3352 C3357 1.425 . S
C3352 C3359 1.409 . S
C3353 H3345 0.930 . S
C3353 C3351 1.419 . S
C3353 C3354 1.362 . S
C3354 H3346 0.930 . S
C3354 C3353 1.362 . S
C3354 C3357 1.409 . S
C3355 H3347 0.930 . S
C3355 C3356 1.355 . S
C3355 C3357 1.415 . S
C3356 C3355 1.355 . S
C3356 C3358 1.419 . S
C3357 C3352 1.425 . S
C3357 C3354 1.409 . S
C3357 C3355 1.415 . S
C3358 H3348 0.930 . S
C3358 C3356 1.419 . S
C3358 C3359 1.362 . S
C3359 H3349 0.930 . S
C3359 C3352 1.409 . S
C3359 C3358 1.362 . S
H3360 C3366 0.930 . S
H3361 C3369 0.930 . S
H3362 C3370 0.930 . S
H3363 C3371 0.930 . S
H3364 C3374 0.930 . S
H3365 C3375 0.930 . S
C3366 H3360 0.930 . S
C3366 C3367 1.355 . S
C3366 C3368 1.415 . S
C3367 C3366 1.355 . S
C3367 C3369 1.419 . S
C3368 C3366 1.415 . S
C3368 C3373 1.425 . S
C3368 C3375 1.409 . S
C3369 H3361 0.930 . S
C3369 C3367 1.419 . S
C3369 C3370 1.362 . S
C3370 H3362 0.930 . S
C3370 C3369 1.362 . S
C3370 C3373 1.409 . S
C3371 H3363 0.930 . S
C3371 C3372 1.355 . S
C3371 C3373 1.415 . S
C3372 C3371 1.355 . S
C3372 C3374 1.419 . S
C3373 C3368 1.425 . S
C3373 C3370 1.409 . S
C3373 C3371 1.415 . S
C3374 H3364 0.930 . S
C3374 C3372 1.419 . S
C3374 C3375 1.362 . S
C3375 H3365 0.930 . S
C3375 C3368 1.409 . S
C3375 C3374 1.362 . S
H3376 C3382 0.930 . S
H3377 C3385 0.930 . S
H3378 C3386 0.930 . S
H3379 C3387 0.930 . S
H3380 C3390 0.930 . S
H3381 C3391 0.930 . S
C3382 H3376 0.930 . S
C3382 C3383 1.355 . S
C3382 C3384 1.415 . S
C3383 C3382 1.355 . S
C3383 C3385 1.419 . S
C3384 C3382 1.415 . S
C3384 C3389 1.425 . S
C3384 C3391 1.409 . S
C3385 H3377 0.930 . S
C3385 C3383 1.419 . S
C3385 C3386 1.362 . S
C3386 H3378 0.930 . S
C3386 C3385 1.362 . S
C3386 C3389 1.409 . S
C3387 H3379 0.930 . S
C3387 C3388 1.355 . S
C3387 C3389 1.415 . S
C3388 C3387 1.355 . S
C3388 C3390 1.419 . S
C3389 C3384 1.425 . S
C3389 C3386 1.409 . S
C3389 C3387 1.415 . S
C3390 H3380 0.930 . S
C3390 C3388 1.419 . S
C3390 C3391 1.362 . S
C3391 H3381 0.930 . S
C3391 C3384 1.409 . S
C3391 C3390 1.362 . S
H3392 C3398 0.930 . S
H3393 C3401 0.930 . S
H3394 C3402 0.930 . S
H3395 C3403 0.930 . S
H3396 C3406 0.930 . S
H3397 C3407 0.930 . S
C3398 H3392 0.930 . S
C3398 C3399 1.355 . S
C3398 C3400 1.415 . S
C3399 C3398 1.355 . S
C3399 C3401 1.419 . S
C3400 C3398 1.415 . S
C3400 C3405 1.425 . S
C3400 C3407 1.409 . S
C3401 H3393 0.930 . S
C3401 C3399 1.419 . S
C3401 C3402 1.362 . S
C3402 H3394 0.930 . S
C3402 C3401 1.362 . S
C3402 C3405 1.409 . S
C3403 H3395 0.930 . S
C3403 C3404 1.355 . S
C3403 C3405 1.415 . S
C3404 C3403 1.355 . S
C3404 C3406 1.419 . S
C3405 C3400 1.425 . S
C3405 C3402 1.409 . S
C3405 C3403 1.415 . S
C3406 H3396 0.930 . S
C3406 C3404 1.419 . S
C3406 C3407 1.362 . S
C3407 H3397 0.930 . S
C3407 C3400 1.409 . S
C3407 C3406 1.362 . S
H3408 C3414 0.930 . S
H3409 C3417 0.930 . S
H3410 C3418 0.930 . S
H3411 C3419 0.930 . S
H3412 C3422 0.930 . S
H3413 C3423 0.930 . S
C3414 H3408 0.930 . S
C3414 C3415 1.355 . S
C3414 C3416 1.415 . S
C3415 C3414 1.355 . S
C3415 C3417 1.419 . S
C3416 C3414 1.415 . S
C3416 C3421 1.425 . S
C3416 C3423 1.409 . S
C3417 H3409 0.930 . S
C3417 C3415 1.419 . S
C3417 C3418 1.362 . S
C3418 H3410 0.930 . S
C3418 C3417 1.362 . S
C3418 C3421 1.409 . S
C3419 H3411 0.930 . S
C3419 C3420 1.355 . S
C3419 C3421 1.415 . S
C3420 C3419 1.355 . S
C3420 C3422 1.419 . S
C3421 C3416 1.425 . S
C3421 C3418 1.409 . S
C3421 C3419 1.415 . S
C3422 H3412 0.930 . S
C3422 C3420 1.419 . S
C3422 C3423 1.362 . S
C3423 H3413 0.930 . S
C3423 C3416 1.409 . S
C3423 C3422 1.362 . S
H3424 C3430 0.930 . S
H3425 C3433 0.930 . S
H3426 C3434 0.930 . S
H3427 C3435 0.930 . S
H3428 C3438 0.930 . S
H3429 C3439 0.930 . S
C3430 H3424 0.930 . S
C3430 C3431 1.355 . S
C3430 C3432 1.415 . S
C3431 C3430 1.355 . S
C3431 C3433 1.419 . S
C3432 C3430 1.415 . S
C3432 C3437 1.425 . S
C3432 C3439 1.409 . S
C3433 H3425 0.930 . S
C3433 C3431 1.419 . S
C3433 C3434 1.362 . S
C3434 H3426 0.930 . S
C3434 C3433 1.362 . S
C3434 C3437 1.409 . S
C3435 H3427 0.930 . S
C3435 C3436 1.355 . S
C3435 C3437 1.415 . S
C3436 C3435 1.355 . S
C3436 C3438 1.419 . S
C3437 C3432 1.425 . S
C3437 C3434 1.409 . S
C3437 C3435 1.415 . S
C3438 H3428 0.930 . S
C3438 C3436 1.419 . S
C3438 C3439 1.362 . S
C3439 H3429 0.930 . S
C3439 C3432 1.409 . S
C3439 C3438 1.362 . S
H3440 C3446 0.930 . S
H3441 C3449 0.930 . S
H3442 C3450 0.930 . S
H3443 C3451 0.930 . S
H3444 C3454 0.930 . S
H3445 C3455 0.930 . S
C3446 H3440 0.930 . S
C3446 C3447 1.355 . S
C3446 C3448 1.415 . S
C3447 C3446 1.355 . S
C3447 C3449 1.419 . S
C3448 C3446 1.415 . S
C3448 C3453 1.425 . S
C3448 C3455 1.409 . S
C3449 H3441 0.930 . S
C3449 C3447 1.419 . S
C3449 C3450 1.362 . S
C3450 H3442 0.930 . S
C3450 C3449 1.362 . S
C3450 C3453 1.409 . S
C3451 H3443 0.930 . S
C3451 C3452 1.355 . S
C3451 C3453 1.415 . S
C3452 C3451 1.355 . S
C3452 C3454 1.419 . S
C3453 C3448 1.425 . S
C3453 C3450 1.409 . S
C3453 C3451 1.415 . S
C3454 H3444 0.930 . S
C3454 C3452 1.419 . S
C3454 C3455 1.362 . S
C3455 H3445 0.930 . S
C3455 C3448 1.409 . S
C3455 C3454 1.362 . S
H3456 C3462 0.930 . S
H3457 C3465 0.930 . S
H3458 C3466 0.930 . S
H3459 C3467 0.930 . S
H3460 C3470 0.930 . S
H3461 C3471 0.930 . S
C3462 H3456 0.930 . S
C3462 C3463 1.355 . S
C3462 C3464 1.415 . S
C3463 C3462 1.355 . S
C3463 C3465 1.419 . S
C3464 C3462 1.415 . S
C3464 C3469 1.425 . S
C3464 C3471 1.409 . S
C3465 H3457 0.930 . S
C3465 C3463 1.419 . S
C3465 C3466 1.362 . S
C3466 H3458 0.930 . S
C3466 C3465 1.362 . S
C3466 C3469 1.409 . S
C3467 H3459 0.930 . S
C3467 C3468 1.355 . S
C3467 C3469 1.415 . S
C3468 C3467 1.355 . S
C3468 C3470 1.419 . S
C3469 C3464 1.425 . S
C3469 C3466 1.409 . S
C3469 C3467 1.415 . S
C3470 H3460 0.930 . S
C3470 C3468 1.419 . S
C3470 C3471 1.362 . S
C3471 H3461 0.930 . S
C3471 C3464 1.409 . S
C3471 C3470 1.362 . S
H3472 C3478 0.930 . S
H3473 C3481 0.930 . S
H3474 C3482 0.930 . S
H3475 C3483 0.930 . S
H3476 C3486 0.930 . S
H3477 C3487 0.930 . S
C3478 H3472 0.930 . S
C3478 C3479 1.355 . S
C3478 C3480 1.415 . S
C3479 C3478 1.355 . S
C3479 C3481 1.419 . S
C3480 C3478 1.415 . S
C3480 C3485 1.425 . S
C3480 C3487 1.409 . S
C3481 H3473 0.930 . S
C3481 C3479 1.419 . S
C3481 C3482 1.362 . S
C3482 H3474 0.930 . S
C3482 C3481 1.362 . S
C3482 C3485 1.409 . S
C3483 H3475 0.930 . S
C3483 C3484 1.355 . S
C3483 C3485 1.415 . S
C3484 C3483 1.355 . S
C3484 C3486 1.419 . S
C3485 C3480 1.425 . S
C3485 C3482 1.409 . S
C3485 C3483 1.415 . S
C3486 H3476 0.930 . S
C3486 C3484 1.419 . S
C3486 C3487 1.362 . S
C3487 H3477 0.930 . S
C3487 C3480 1.409 . S
C3487 C3486 1.362 . S
H3488 C3494 0.930 . S
H3489 C3497 0.930 . S
H3490 C3498 0.930 . S
H3491 C3499 0.930 . S
H3492 C3502 0.930 . S
H3493 C3503 0.930 . S
C3494 H3488 0.930 . S
C3494 C3495 1.355 . S
C3494 C3496 1.415 . S
C3495 C3494 1.355 . S
C3495 C3497 1.419 . S
C3496 C3494 1.415 . S
C3496 C3501 1.425 . S
C3496 C3503 1.409 . S
C3497 H3489 0.930 . S
C3497 C3495 1.419 . S
C3497 C3498 1.362 . S
C3498 H3490 0.930 . S
C3498 C3497 1.362 . S
C3498 C3501 1.409 . S
C3499 H3491 0.930 . S
C3499 C3500 1.355 . S
C3499 C3501 1.415 . S
C3500 C3499 1.355 . S
C3500 C3502 1.419 . S
C3501 C3496 1.425 . S
C3501 C3498 1.409 . S
C3501 C3499 1.415 . S
C3502 H3492 0.930 . S
C3502 C3500 1.419 . S
C3502 C3503 1.362 . S
C3503 H3493 0.930 . S
C3503 C3496 1.409 . S
C3503 C3502 1.362 . S
H3504 C3510 0.930 . S
H3505 C3513 0.930 . S
H3506 C3514 0.930 . S
H3507 C3515 0.930 . S
H3508 C3518 0.930 . S
H3509 C3519 0.930 . S
C3510 H3504 0.930 . S
C3510 C3511 1.355 . S
C3510 C3512 1.415 . S
C3511 C3510 1.355 . S
C3511 C3513 1.419 . S
C3512 C3510 1.415 . S
C3512 C3517 1.425 . S
C3512 C3519 1.409 . S
C3513 H3505 0.930 . S
C3513 C3511 1.419 . S
C3513 C3514 1.362 . S
C3514 H3506 0.930 . S
C3514 C3513 1.362 . S
C3514 C3517 1.409 . S
C3515 H3507 0.930 . S
C3515 C3516 1.355 . S
C3515 C3517 1.415 . S
C3516 C3515 1.355 . S
C3516 C3518 1.419 . S
C3517 C3512 1.425 . S
C3517 C3514 1.409 . S
C3517 C3515 1.415 . S
C3518 H3508 0.930 . S
C3518 C3516 1.419 . S
C3518 C3519 1.362 . S
C3519 H3509 0.930 . S
C3519 C3512 1.409 . S
C3519 C3518 1.362 . S
H3520 C3526 0.930 . S
H3521 C3529 0.930 . S
H3522 C3530 0.930 . S
H3523 C3531 0.930 . S
H3524 C3534 0.930 . S
H3525 C3535 0.930 . S
C3526 H3520 0.930 . S
C3526 C3527 1.355 . S
C3526 C3528 1.415 . S
C3527 C3526 1.355 . S
C3527 C3529 1.419 . S
C3528 C3526 1.415 . S
C3528 C3533 1.425 . S
C3528 C3535 1.409 . S
C3529 H3521 0.930 . S
C3529 C3527 1.419 . S
C3529 C3530 1.362 . S
C3530 H3522 0.930 . S
C3530 C3529 1.362 . S
C3530 C3533 1.409 . S
C3531 H3523 0.930 . S
C3531 C3532 1.355 . S
C3531 C3533 1.415 . S
C3532 C3531 1.355 . S
C3532 C3534 1.419 . S
C3533 C3528 1.425 . S
C3533 C3530 1.409 . S
C3533 C3531 1.415 . S
C3534 H3524 0.930 . S
C3534 C3532 1.419 . S
C3534 C3535 1.362 . S
C3535 H3525 0.930 . S
C3535 C3528 1.409 . S
C3535 C3534 1.362 . S
H3536 C3542 0.930 . S
H3537 C3545 0.930 . S
H3538 C3546 0.930 . S
H3539 C3547 0.930 . S
H3540 C3550 0.930 . S
H3541 C3551 0.930 . S
C3542 H3536 0.930 . S
C3542 C3543 1.355 . S
C3542 C3544 1.415 . S
C3543 C3542 1.355 . S
C3543 C3545 1.419 . S
C3544 C3542 1.415 . S
C3544 C3549 1.425 . S
C3544 C3551 1.409 . S
C3545 H3537 0.930 . S
C3545 C3543 1.419 . S
C3545 C3546 1.362 . S
C3546 H3538 0.930 . S
C3546 C3545 1.362 . S
C3546 C3549 1.409 . S
C3547 H3539 0.930 . S
C3547 C3548 1.355 . S
C3547 C3549 1.415 . S
C3548 C3547 1.355 . S
C3548 C3550 1.419 . S
C3549 C3544 1.425 . S
C3549 C3546 1.409 . S
C3549 C3547 1.415 . S
C3550 H3540 0.930 . S
C3550 C3548 1.419 . S
C3550 C3551 1.362 . S
C3551 H3541 0.930 . S
C3551 C3544 1.409 . S
C3551 C3550 1.362 . S
H3552 C3558 0.930 . S
H3553 C3561 0.930 . S
H3554 C3562 0.930 . S
H3555 C3563 0.930 . S
H3556 C3566 0.930 . S
H3557 C3567 0.930 . S
C3558 H3552 0.930 . S
C3558 C3559 1.355 . S
C3558 C3560 1.415 . S
C3559 C3558 1.355 . S
C3559 C3561 1.419 . S
C3560 C3558 1.415 . S
C3560 C3565 1.425 . S
C3560 C3567 1.409 . S
C3561 H3553 0.930 . S
C3561 C3559 1.419 . S
C3561 C3562 1.362 . S
C3562 H3554 0.930 . S
C3562 C3561 1.362 . S
C3562 C3565 1.409 . S
C3563 H3555 0.930 . S
C3563 C3564 1.355 . S
C3563 C3565 1.415 . S
C3564 C3563 1.355 . S
C3564 C3566 1.419 . S
C3565 C3560 1.425 . S
C3565 C3562 1.409 . S
C3565 C3563 1.415 . S
C3566 H3556 0.930 . S
C3566 C3564 1.419 . S
C3566 C3567 1.362 . S
C3567 H3557 0.930 . S
C3567 C3560 1.409 . S
C3567 C3566 1.362 . S
H3568 C3574 0.930 . S
H3569 C3577 0.930 . S
H3570 C3578 0.930 . S
H3571 C3579 0.930 . S
H3572 C3582 0.930 . S
H3573 C3583 0.930 . S
C3574 H3568 0.930 . S
C3574 C3575 1.355 . S
C3574 C3576 1.415 . S
C3575 C3574 1.355 . S
C3575 C3577 1.419 . S
C3576 C3574 1.415 . S
C3576 C3581 1.425 . S
C3576 C3583 1.409 . S
C3577 H3569 0.930 . S
C3577 C3575 1.419 . S
C3577 C3578 1.362 . S
C3578 H3570 0.930 . S
C3578 C3577 1.362 . S
C3578 C3581 1.409 . S
C3579 H3571 0.930 . S
C3579 C3580 1.355 . S
C3579 C3581 1.415 . S
C3580 C3579 1.355 . S
C3580 C3582 1.419 . S
C3581 C3576 1.425 . S
C3581 C3578 1.409 . S
C3581 C3579 1.415 . S
C3582 H3572 0.930 . S
C3582 C3580 1.419 . S
C3582 C3583 1.362 . S
C3583 H3573 0.930 . S
C3583 C3576 1.409 . S
C3583 C3582 1.362 . S
H3584 C3590 0.930 . S
H3585 C3593 0.930 . S
H3586 C3594 0.930 . S
H3587 C3595 0.930 . S
H3588 C3598 0.930 . S
H3589 C3599 0.930 . S
C3590 H3584 0.930 . S
C3590 C3591 1.355 . S
C3590 C3592 1.415 . S
C3591 C3590 1.355 . S
C3591 C3593 1.419 . S
C3592 C3590 1.415 . S
C3592 C3597 1.425 . S
C3592 C3599 1.409 . S
C3593 H3585 0.930 . S
C3593 C3591 1.419 . S
C3593 C3594 1.362 . S
C3594 H3586 0.930 . S
C3594 C3593 1.362 . S
C3594 C3597 1.409 . S
C3595 H3587 0.930 . S
C3595 C3596 1.355 . S
C3595 C3597 1.415 . S
C3596 C3595 1.355 . S
C3596 C3598 1.419 . S
C3597 C3592 1.425 . S
C3597 C3594 1.409 . S
C3597 C3595 1.415 . S
C3598 H3588 0.930 . S
C3598 C3596 1.419 . S
C3598 C3599 1.362 . S
C3599 H3589 0.930 . S
C3599 C3592 1.409 . S
C3599 C3598 1.362 . S
H3600 C3606 0.930 . S
H3601 C3609 0.930 . S
H3602 C3610 0.930 . S
H3603 C3611 0.930 . S
H3604 C3614 0.930 . S
H3605 C3615 0.930 . S
C3606 H3600 0.930 . S
C3606 C3607 1.355 . S
C3606 C3608 1.415 . S
C3607 C3606 1.355 . S
C3607 C3609 1.419 . S
C3608 C3606 1.415 . S
C3608 C3613 1.425 . S
C3608 C3615 1.409 . S
C3609 H3601 0.930 . S
C3609 C3607 1.419 . S
C3609 C3610 1.362 . S
C3610 H3602 0.930 . S
C3610 C3609 1.362 . S
C3610 C3613 1.409 . S
C3611 H3603 0.930 . S
C3611 C3612 1.355 . S
C3611 C3613 1.415 . S
C3612 C3611 1.355 . S
C3612 C3614 1.419 . S
C3613 C3608 1.425 . S
C3613 C3610 1.409 . S
C3613 C3611 1.415 . S
C3614 H3604 0.930 . S
C3614 C3612 1.419 . S
C3614 C3615 1.362 . S
C3615 H3605 0.930 . S
C3615 C3608 1.409 . S
C3615 C3614 1.362 . S
H3616 C3622 0.930 . S
H3617 C3625 0.930 . S
H3618 C3626 0.930 . S
H3619 C3627 0.930 . S
H3620 C3630 0.930 . S
H3621 C3631 0.930 . S
C3622 H3616 0.930 . S
C3622 C3623 1.355 . S
C3622 C3624 1.415 . S
C3623 C3622 1.355 . S
C3623 C3625 1.419 . S
C3624 C3622 1.415 . S
C3624 C3629 1.425 . S
C3624 C3631 1.409 . S
C3625 H3617 0.930 . S
C3625 C3623 1.419 . S
C3625 C3626 1.362 . S
C3626 H3618 0.930 . S
C3626 C3625 1.362 . S
C3626 C3629 1.409 . S
C3627 H3619 0.930 . S
C3627 C3628 1.355 . S
C3627 C3629 1.415 . S
C3628 C3627 1.355 . S
C3628 C3630 1.419 . S
C3629 C3624 1.425 . S
C3629 C3626 1.409 . S
C3629 C3627 1.415 . S
C3630 H3620 0.930 . S
C3630 C3628 1.419 . S
C3630 C3631 1.362 . S
C3631 H3621 0.930 . S
C3631 C3624 1.409 . S
C3631 C3630 1.362 . S
H3632 C3638 0.930 . S
H3633 C3641 0.930 . S
H3634 C3642 0.930 . S
H3635 C3643 0.930 . S
H3636 C3646 0.930 . S
H3637 C3647 0.930 . S
C3638 H3632 0.930 . S
C3638 C3639 1.355 . S
C3638 C3640 1.415 . S
C3639 C3638 1.355 . S
C3639 C3641 1.419 . S
C3640 C3638 1.415 . S
C3640 C3645 1.425 . S
C3640 C3647 1.409 . S
C3641 H3633 0.930 . S
C3641 C3639 1.419 . S
C3641 C3642 1.362 . S
C3642 H3634 0.930 . S
C3642 C3641 1.362 . S
C3642 C3645 1.409 . S
C3643 H3635 0.930 . S
C3643 C3644 1.355 . S
C3643 C3645 1.415 . S
C3644 C3643 1.355 . S
C3644 C3646 1.419 . S
C3645 C3640 1.425 . S
C3645 C3642 1.409 . S
C3645 C3643 1.415 . S
C3646 H3636 0.930 . S
C3646 C3644 1.419 . S
C3646 C3647 1.362 . S
C3647 H3637 0.930 . S
C3647 C3640 1.409 . S
C3647 C3646 1.362 . S
H3648 C3654 0.930 . S
H3649 C3657 0.930 . S
H3650 C3658 0.930 . S
H3651 C3659 0.930 . S
H3652 C3662 0.930 . S
H3653 C3663 0.930 . S
C3654 H3648 0.930 . S
C3654 C3655 1.355 . S
C3654 C3656 1.415 . S
C3655 C3654 1.355 . S
C3655 C3657 1.419 . S
C3656 C3654 1.415 . S
C3656 C3661 1.425 1_655 S
C3656 C3663 1.409 1_655 S
C3657 H3649 0.930 . S
C3657 C3655 1.419 . S
C3657 C3658 1.362 . S
C3658 H3650 0.930 . S
C3658 C3657 1.362 . S
C3658 C3661 1.409 1_655 S
C3659 H3651 0.930 . S
C3659 C3660 1.355 . S
C3659 C3661 1.415 . S
C3660 C3659 1.355 . S
C3660 C3662 1.419 . S
C3661 C3656 1.425 1_455 S
C3661 C3658 1.409 1_455 S
C3661 C3659 1.415 . S
C3662 H3652 0.930 . S
C3662 C3660 1.419 . S
C3662 C3663 1.362 . S
C3663 H3653 0.930 . S
C3663 C3656 1.409 1_455 S
C3663 C3662 1.362 . S
H3664 C3670 0.930 . S
H3665 C3673 0.930 . S
H3666 C3674 0.930 . S
H3667 C3675 0.930 . S
H3668 C3678 0.930 . S
H3669 C3679 0.930 . S
C3670 H3664 0.930 . S
C3670 C3671 1.355 . S
C3670 C3672 1.415 . S
C3671 C3670 1.355 . S
C3671 C3673 1.419 . S
C3672 C3670 1.415 . S
C3672 C3677 1.425 . S
C3672 C3679 1.409 . S
C3673 H3665 0.930 . S
C3673 C3671 1.419 . S
C3673 C3674 1.362 . S
C3674 H3666 0.930 . S
C3674 C3673 1.362 . S
C3674 C3677 1.409 . S
C3675 H3667 0.930 . S
C3675 C3676 1.355 . S
C3675 C3677 1.415 . S
C3676 C3675 1.355 . S
C3676 C3678 1.419 . S
C3677 C3672 1.425 . S
C3677 C3674 1.409 . S
C3677 C3675 1.415 . S
C3678 H3668 0.930 . S
C3678 C3676 1.419 . S
C3678 C3679 1.362 . S
C3679 H3669 0.930 . S
C3679 C3672 1.409 . S
C3679 C3678 1.362 . S
H3680 C3686 0.930 . S
H3681 C3689 0.930 . S
H3682 C3690 0.930 . S
H3683 C3691 0.930 . S
H3684 C3694 0.930 . S
H3685 C3695 0.930 . S
C3686 H3680 0.930 . S
C3686 C3687 1.355 1_545 S
C3686 C3688 1.415 . S
C3687 C3686 1.355 1_565 S
C3687 C3689 1.419 . S
C3688 C3686 1.415 . S
C3688 C3693 1.425 1_645 S
C3688 C3695 1.409 1_655 S
C3689 H3681 0.930 . S
C3689 C3687 1.419 . S
C3689 C3690 1.362 . S
C3690 H3682 0.930 . S
C3690 C3689 1.362 . S
C3690 C3693 1.409 1_655 S
C3691 H3683 0.930 . S
C3691 C3692 1.355 1_565 S
C3691 C3693 1.415 . S
C3692 C3691 1.355 1_545 S
C3692 C3694 1.419 . S
C3693 C3688 1.425 1_465 S
C3693 C3690 1.409 1_455 S
C3693 C3691 1.415 . S
C3694 H3684 0.930 . S
C3694 C3692 1.419 . S
C3694 C3695 1.362 . S
C3695 H3685 0.930 . S
C3695 C3688 1.409 1_455 S
C3695 C3694 1.362 . S
H3696 C3702 0.930 . S
H3697 C3705 0.930 . S
H3698 C3706 0.930 . S
H3699 C3707 0.930 . S
H3700 C3710 0.930 . S
H3701 C3711 0.930 . S
C3702 H3696 0.930 . S
C3702 C3703 1.355 . S
C3702 C3704 1.415 . S
C3703 C3702 1.355 . S
C3703 C3705 1.419 . S
C3704 C3702 1.415 . S
C3704 C3709 1.425 . S
C3704 C3711 1.409 . S
C3705 H3697 0.930 . S
C3705 C3703 1.419 . S
C3705 C3706 1.362 . S
C3706 H3698 0.930 . S
C3706 C3705 1.362 . S
C3706 C3709 1.409 . S
C3707 H3699 0.930 . S
C3707 C3708 1.355 . S
C3707 C3709 1.415 . S
C3708 C3707 1.355 . S
C3708 C3710 1.419 . S
C3709 C3704 1.425 . S
C3709 C3706 1.409 . S
C3709 C3707 1.415 . S
C3710 H3700 0.930 . S
C3710 C3708 1.419 . S
C3710 C3711 1.362 . S
C3711 H3701 0.930 . S
C3711 C3704 1.409 . S
C3711 C3710 1.362 . S
H3712 C3718 0.930 . S
H3713 C3721 0.930 . S
H3714 C3722 0.930 . S
H3715 C3723 0.930 . S
H3716 C3726 0.930 . S
H3717 C3727 0.930 . S
C3718 H3712 0.930 . S
C3718 C3719 1.355 . S
C3718 C3720 1.415 . S
C3719 C3718 1.355 . S
C3719 C3721 1.419 . S
C3720 C3718 1.415 . S
C3720 C3725 1.425 1_455 S
C3720 C3727 1.409 1_455 S
C3721 H3713 0.930 . S
C3721 C3719 1.419 . S
C3721 C3722 1.362 . S
C3722 H3714 0.930 . S
C3722 C3721 1.362 . S
C3722 C3725 1.409 1_455 S
C3723 H3715 0.930 . S
C3723 C3724 1.355 . S
C3723 C3725 1.415 . S
C3724 C3723 1.355 . S
C3724 C3726 1.419 . S
C3725 C3720 1.425 1_655 S
C3725 C3722 1.409 1_655 S
C3725 C3723 1.415 . S
C3726 H3716 0.930 . S
C3726 C3724 1.419 . S
C3726 C3727 1.362 . S
C3727 H3717 0.930 . S
C3727 C3720 1.409 1_655 S
C3727 C3726 1.362 . S
H3728 C3734 0.930 . S
H3729 C3737 0.930 . S
H3730 C3738 0.930 . S
H3731 C3739 0.930 . S
H3732 C3742 0.930 . S
H3733 C3743 0.930 . S
C3734 H3728 0.930 . S
C3734 C3735 1.355 . S
C3734 C3736 1.415 . S
C3735 C3734 1.355 . S
C3735 C3737 1.419 . S
C3736 C3734 1.415 . S
C3736 C3741 1.425 . S
C3736 C3743 1.409 . S
C3737 H3729 0.930 . S
C3737 C3735 1.419 . S
C3737 C3738 1.362 . S
C3738 H3730 0.930 . S
C3738 C3737 1.362 . S
C3738 C3741 1.409 . S
C3739 H3731 0.930 . S
C3739 C3740 1.355 . S
C3739 C3741 1.415 . S
C3740 C3739 1.355 . S
C3740 C3742 1.419 . S
C3741 C3736 1.425 . S
C3741 C3738 1.409 . S
C3741 C3739 1.415 . S
C3742 H3732 0.930 . S
C3742 C3740 1.419 . S
C3742 C3743 1.362 . S
C3743 H3733 0.930 . S
C3743 C3736 1.409 . S
C3743 C3742 1.362 . S
H3744 C3750 0.930 . S
H3745 C3753 0.930 . S
H3746 C3754 0.930 . S
H3747 C3755 0.930 . S
H3748 C3758 0.930 . S
H3749 C3759 0.930 . S
C3750 H3744 0.930 . S
C3750 C3751 1.355 1_565 S
C3750 C3752 1.415 . S
C3751 C3750 1.355 1_545 S
C3751 C3753 1.419 . S
C3752 C3750 1.415 . S
C3752 C3757 1.425 1_665 S
C3752 C3759 1.409 1_655 S
C3753 H3745 0.930 . S
C3753 C3751 1.419 . S
C3753 C3754 1.362 . S
C3754 H3746 0.930 . S
C3754 C3753 1.362 . S
C3754 C3757 1.409 1_655 S
C3755 H3747 0.930 . S
C3755 C3756 1.355 1_545 S
C3755 C3757 1.415 . S
C3756 C3755 1.355 1_565 S
C3756 C3758 1.419 . S
C3757 C3752 1.425 1_445 S
C3757 C3754 1.409 1_455 S
C3757 C3755 1.415 . S
C3758 H3748 0.930 . S
C3758 C3756 1.419 . S
C3758 C3759 1.362 . S
C3759 H3749 0.930 . S
C3759 C3752 1.409 1_455 S
C3759 C3758 1.362 . S
H3760 C3766 0.930 . S
H3761 C3769 0.930 . S
H3762 C3770 0.930 . S
H3763 C3771 0.930 . S
H3764 C3774 0.930 . S
H3765 C3775 0.930 . S
C3766 H3760 0.930 . S
C3766 C3767 1.355 . S
C3766 C3768 1.415 . S
C3767 C3766 1.355 . S
C3767 C3769 1.419 . S
C3768 C3766 1.415 . S
C3768 C3773 1.425 . S
C3768 C3775 1.409 . S
C3769 H3761 0.930 . S
C3769 C3767 1.419 . S
C3769 C3770 1.362 . S
C3770 H3762 0.930 . S
C3770 C3769 1.362 . S
C3770 C3773 1.409 . S
C3771 H3763 0.930 . S
C3771 C3772 1.355 . S
C3771 C3773 1.415 . S
C3772 C3771 1.355 . S
C3772 C3774 1.419 . S
C3773 C3768 1.425 . S
C3773 C3770 1.409 . S
C3773 C3771 1.415 . S
C3774 H3764 0.930 . S
C3774 C3772 1.419 . S
C3774 C3775 1.362 . S
C3775 H3765 0.930 . S
C3775 C3768 1.409 . S
C3775 C3774 1.362 . S
H3776 C3782 0.930 . S
H3777 C3785 0.930 . S
H3778 C3786 0.930 . S
H3779 C3787 0.930 . S
H3780 C3790 0.930 . S
H3781 C3791 0.930 . S
C3782 H3776 0.930 . S
C3782 C3783 1.355 . S
C3782 C3784 1.415 . S
C3783 C3782 1.355 . S
C3783 C3785 1.419 . S
C3784 C3782 1.415 . S
C3784 C3789 1.425 1_545 S
C3784 C3791 1.409 1_545 S
C3785 H3777 0.930 . S
C3785 C3783 1.419 . S
C3785 C3786 1.362 . S
C3786 H3778 0.930 . S
C3786 C3785 1.362 . S
C3786 C3789 1.409 1_545 S
C3787 H3779 0.930 . S
C3787 C3788 1.355 . S
C3787 C3789 1.415 . S
C3788 C3787 1.355 . S
C3788 C3790 1.419 . S
C3789 C3784 1.425 1_565 S
C3789 C3786 1.409 1_565 S
C3789 C3787 1.415 . S
C3790 H3780 0.930 . S
C3790 C3788 1.419 . S
C3790 C3791 1.362 . S
C3791 H3781 0.930 . S
C3791 C3784 1.409 1_565 S
C3791 C3790 1.362 . S
H3792 C3798 0.930 . S
H3793 C3801 0.930 . S
H3794 C3802 0.930 . S
H3795 C3803 0.930 . S
H3796 C3806 0.930 . S
H3797 C3807 0.930 . S
C3798 H3792 0.930 . S
C3798 C3799 1.355 . S
C3798 C3800 1.415 . S
C3799 C3798 1.355 . S
C3799 C3801 1.419 . S
C3800 C3798 1.415 . S
C3800 C3805 1.425 . S
C3800 C3807 1.409 . S
C3801 H3793 0.930 . S
C3801 C3799 1.419 . S
C3801 C3802 1.362 . S
C3802 H3794 0.930 . S
C3802 C3801 1.362 . S
C3802 C3805 1.409 . S
C3803 H3795 0.930 . S
C3803 C3804 1.355 . S
C3803 C3805 1.415 . S
C3804 C3803 1.355 . S
C3804 C3806 1.419 . S
C3805 C3800 1.425 . S
C3805 C3802 1.409 . S
C3805 C3803 1.415 . S
C3806 H3796 0.930 . S
C3806 C3804 1.419 . S
C3806 C3807 1.362 . S
C3807 H3797 0.930 . S
C3807 C3800 1.409 . S
C3807 C3806 1.362 . S
H3808 C3814 0.930 . S
H3809 C3817 0.930 . S
H3810 C3818 0.930 . S
H3811 C3819 0.930 . S
H3812 C3822 0.930 . S
H3813 C3823 0.930 . S
C3814 H3808 0.930 . S
C3814 C3815 1.355 1_554 S
C3814 C3816 1.415 . S
C3815 C3814 1.355 1_556 S
C3815 C3817 1.419 . S
C3816 C3814 1.415 . S
C3816 C3821 1.425 1_554 S
C3816 C3823 1.409 . S
C3817 H3809 0.930 . S
C3817 C3815 1.419 . S
C3817 C3818 1.362 . S
C3818 H3810 0.930 . S
C3818 C3817 1.362 . S
C3818 C3821 1.409 . S
C3819 H3811 0.930 . S
C3819 C3820 1.355 1_556 S
C3819 C3821 1.415 . S
C3820 C3819 1.355 1_554 S
C3820 C3822 1.419 . S
C3821 C3816 1.425 1_556 S
C3821 C3818 1.409 . S
C3821 C3819 1.415 . S
C3822 H3812 0.930 . S
C3822 C3820 1.419 . S
C3822 C3823 1.362 . S
C3823 H3813 0.930 . S
C3823 C3816 1.409 . S
C3823 C3822 1.362 . S
H3824 C3830 0.930 . S
H3825 C3833 0.930 . S
H3826 C3834 0.930 . S
H3827 C3835 0.930 . S
H3828 C3838 0.930 . S
H3829 C3839 0.930 . S
C3830 H3824 0.930 . S
C3830 C3831 1.355 . S
C3830 C3832 1.415 . S
C3831 C3830 1.355 . S
C3831 C3833 1.419 . S
C3832 C3830 1.415 . S
C3832 C3837 1.425 . S
C3832 C3839 1.409 . S
C3833 H3825 0.930 . S
C3833 C3831 1.419 . S
C3833 C3834 1.362 . S
C3834 H3826 0.930 . S
C3834 C3833 1.362 . S
C3834 C3837 1.409 . S
C3835 H3827 0.930 . S
C3835 C3836 1.355 . S
C3835 C3837 1.415 . S
C3836 C3835 1.355 . S
C3836 C3838 1.419 . S
C3837 C3832 1.425 . S
C3837 C3834 1.409 . S
C3837 C3835 1.415 . S
C3838 H3828 0.930 . S
C3838 C3836 1.419 . S
C3838 C3839 1.362 . S
C3839 H3829 0.930 . S
C3839 C3832 1.409 . S
C3839 C3838 1.362 . S
H3840 C3846 0.930 . S
H3841 C3849 0.930 . S
H3842 C3850 0.930 . S
H3843 C3851 0.930 . S
H3844 C3854 0.930 . S
H3845 C3855 0.930 . S
C3846 H3840 0.930 . S
C3846 C3847 1.355 . S
C3846 C3848 1.415 . S
C3847 C3846 1.355 . S
C3847 C3849 1.419 . S
C3848 C3846 1.415 . S
C3848 C3853 1.425 1_554 S
C3848 C3855 1.409 1_554 S
C3849 H3841 0.930 . S
C3849 C3847 1.419 . S
C3849 C3850 1.362 . S
C3850 H3842 0.930 . S
C3850 C3849 1.362 . S
C3850 C3853 1.409 1_554 S
C3851 H3843 0.930 . S
C3851 C3852 1.355 . S
C3851 C3853 1.415 . S
C3852 C3851 1.355 . S
C3852 C3854 1.419 . S
C3853 C3848 1.425 1_556 S
C3853 C3850 1.409 1_556 S
C3853 C3851 1.415 . S
C3854 H3844 0.930 . S
C3854 C3852 1.419 . S
C3854 C3855 1.362 . S
C3855 H3845 0.930 . S
C3855 C3848 1.409 1_556 S
C3855 C3854 1.362 . S
H3856 C3862 0.930 . S
H3857 C3865 0.930 . S
H3858 C3866 0.930 . S
H3859 C3867 0.930 . S
H3860 C3870 0.930 . S
H3861 C3871 0.930 . S
C3862 H3856 0.930 . S
C3862 C3863 1.355 1_455 S
C3862 C3864 1.415 . S
C3863 C3862 1.355 1_655 S
C3863 C3865 1.419 . S
C3864 C3862 1.415 . S
C3864 C3869 1.425 1_455 S
C3864 C3871 1.409 . S
C3865 H3857 0.930 . S
C3865 C3863 1.419 . S
C3865 C3866 1.362 . S
C3866 H3858 0.930 . S
C3866 C3865 1.362 . S
C3866 C3869 1.409 . S
C3867 H3859 0.930 . S
C3867 C3868 1.355 1_655 S
C3867 C3869 1.415 . S
C3868 C3867 1.355 1_455 S
C3868 C3870 1.419 . S
C3869 C3864 1.425 1_655 S
C3869 C3866 1.409 . S
C3869 C3867 1.415 . S
C3870 H3860 0.930 . S
C3870 C3868 1.419 . S
C3870 C3871 1.362 . S
C3871 H3861 0.930 . S
C3871 C3864 1.409 . S
C3871 C3870 1.362 . S
H3872 C3878 0.930 . S
H3873 C3881 0.930 . S
H3874 C3882 0.930 . S
H3875 C3883 0.930 . S
H3876 C3886 0.930 . S
H3877 C3887 0.930 . S
C3878 H3872 0.930 . S
C3878 C3879 1.355 . S
C3878 C3880 1.415 . S
C3879 C3878 1.355 . S
C3879 C3881 1.419 . S
C3880 C3878 1.415 . S
C3880 C3885 1.425 . S
C3880 C3887 1.409 . S
C3881 H3873 0.930 . S
C3881 C3879 1.419 . S
C3881 C3882 1.362 . S
C3882 H3874 0.930 . S
C3882 C3881 1.362 . S
C3882 C3885 1.409 . S
C3883 H3875 0.930 . S
C3883 C3884 1.355 . S
C3883 C3885 1.415 . S
C3884 C3883 1.355 . S
C3884 C3886 1.419 . S
C3885 C3880 1.425 . S
C3885 C3882 1.409 . S
C3885 C3883 1.415 . S
C3886 H3876 0.930 . S
C3886 C3884 1.419 . S
C3886 C3887 1.362 . S
C3887 H3877 0.930 . S
C3887 C3880 1.409 . S
C3887 C3886 1.362 . S
H3888 C3894 0.930 . S
H3889 C3897 0.930 . S
H3890 C3898 0.930 . S
H3891 C3899 0.930 . S
H3892 C3902 0.930 . S
H3893 C3903 0.930 . S
C3894 H3888 0.930 . S
C3894 C3895 1.320 1_455 S
C3894 C3896 1.415 . S
C3895 C3894 1.320 1_655 S
C3895 C3897 1.464 . S
C3896 C3894 1.415 . S
C3896 C3901 1.425 1_454 S
C3896 C3903 1.409 1_554 S
C3897 H3889 0.930 . S
C3897 C3895 1.464 . S
C3897 C3898 1.362 . S
C3898 H3890 0.930 . S
C3898 C3897 1.362 . S
C3898 C3901 1.409 1_554 S
C3899 H3891 0.930 . S
C3899 C3900 1.320 1_655 S
C3899 C3901 1.415 . S
C3900 C3899 1.320 1_455 S
C3900 C3902 1.464 . S
C3901 C3896 1.425 1_656 S
C3901 C3898 1.409 1_556 S
C3901 C3899 1.415 . S
C3902 H3892 0.930 . S
C3902 C3900 1.464 . S
C3902 C3903 1.362 . S
C3903 H3893 0.930 . S
C3903 C3896 1.409 1_556 S
C3903 C3902 1.362 . S
H3904 C3910 0.930 . S
H3905 C3913 0.930 . S
H3906 C3914 0.930 . S
H3907 C3915 0.930 . S
H3908 C3918 0.930 . S
H3909 C3919 0.930 . S
C3910 H3904 0.930 . S
C3910 C3911 1.355 . S
C3910 C3912 1.415 . S
C3911 C3910 1.355 . S
C3911 C3913 1.419 . S
C3912 C3910 1.415 . S
C3912 C3917 1.425 . S
C3912 C3919 1.409 . S
C3913 H3905 0.930 . S
C3913 C3911 1.419 . S
C3913 C3914 1.362 . S
C3914 H3906 0.930 . S
C3914 C3913 1.362 . S
C3914 C3917 1.409 . S
C3915 H3907 0.930 . S
C3915 C3916 1.355 . S
C3915 C3917 1.415 . S
C3916 C3915 1.355 . S
C3916 C3918 1.419 . S
C3917 C3912 1.425 . S
C3917 C3914 1.409 . S
C3917 C3915 1.415 . S
C3918 H3908 0.930 . S
C3918 C3916 1.419 . S
C3918 C3919 1.362 . S
C3919 H3909 0.930 . S
C3919 C3912 1.409 . S
C3919 C3918 1.362 . S
H3920 C3926 0.930 . S
H3921 C3929 0.930 . S
H3922 C3930 0.930 . S
H3923 C3931 0.930 . S
H3924 C3934 0.930 . S
H3925 C3935 0.930 . S
C3926 H3920 0.930 . S
C3926 C3927 1.355 . S
C3926 C3928 1.415 . S
C3927 C3926 1.355 . S
C3927 C3929 1.419 . S
C3928 C3926 1.415 . S
C3928 C3933 1.425 1_554 S
C3928 C3935 1.409 1_554 S
C3929 H3921 0.930 . S
C3929 C3927 1.419 . S
C3929 C3930 1.362 . S
C3930 H3922 0.930 . S
C3930 C3929 1.362 . S
C3930 C3933 1.409 1_554 S
C3931 H3923 0.930 . S
C3931 C3932 1.355 . S
C3931 C3933 1.415 . S
C3932 C3931 1.355 . S
C3932 C3934 1.419 . S
C3933 C3928 1.425 1_556 S
C3933 C3930 1.409 1_556 S
C3933 C3931 1.415 . S
C3934 H3924 0.930 . S
C3934 C3932 1.419 . S
C3934 C3935 1.362 . S
C3935 H3925 0.930 . S
C3935 C3928 1.409 1_556 S
C3935 C3934 1.362 . S
H3936 C3942 0.930 . S
H3937 C3945 0.930 . S
H3938 C3946 0.930 . S
H3939 C3947 0.930 . S
H3940 C3950 0.930 . S
H3941 C3951 0.930 . S
C3942 H3936 0.930 . S
C3942 C3943 1.355 . S
C3942 C3944 1.415 . S
C3943 C3942 1.355 . S
C3943 C3945 1.419 . S
C3944 C3942 1.415 . S
C3944 C3949 1.425 . S
C3944 C3951 1.409 . S
C3945 H3937 0.930 . S
C3945 C3943 1.419 . S
C3945 C3946 1.362 . S
C3946 H3938 0.930 . S
C3946 C3945 1.362 . S
C3946 C3949 1.409 . S
C3947 H3939 0.930 . S
C3947 C3948 1.355 . S
C3947 C3949 1.415 . S
C3948 C3947 1.355 . S
C3948 C3950 1.419 . S
C3949 C3944 1.425 . S
C3949 C3946 1.409 . S
C3949 C3947 1.415 . S
C3950 H3940 0.930 . S
C3950 C3948 1.419 . S
C3950 C3951 1.362 . S
C3951 H3941 0.930 . S
C3951 C3944 1.409 . S
C3951 C3950 1.362 . S
H3952 C3958 0.930 . S
H3953 C3961 0.930 . S
H3954 C3962 0.930 . S
H3955 C3963 0.930 . S
H3956 C3966 0.930 . S
H3957 C3967 0.930 . S
C3958 H3952 0.930 . S
C3958 C3959 1.355 . S
C3958 C3960 1.415 . S
C3959 C3958 1.355 . S
C3959 C3961 1.419 . S
C3960 C3958 1.415 . S
C3960 C3965 1.425 . S
C3960 C3967 1.409 . S
C3961 H3953 0.930 . S
C3961 C3959 1.419 . S
C3961 C3962 1.362 . S
C3962 H3954 0.930 . S
C3962 C3961 1.362 . S
C3962 C3965 1.409 . S
C3963 H3955 0.930 . S
C3963 C3964 1.355 . S
C3963 C3965 1.415 . S
C3964 C3963 1.355 . S
C3964 C3966 1.419 . S
C3965 C3960 1.425 . S
C3965 C3962 1.409 . S
C3965 C3963 1.415 . S
C3966 H3956 0.930 . S
C3966 C3964 1.419 . S
C3966 C3967 1.362 . S
C3967 H3957 0.930 . S
C3967 C3960 1.409 . S
C3967 C3966 1.362 . S
H3968 C3974 0.930 . S
H3969 C3977 0.930 . S
H3970 C3978 0.930 . S
H3971 C3979 0.930 . S
H3972 C3982 0.930 . S
H3973 C3983 0.930 . S
C3974 H3968 0.930 . S
C3974 C3975 1.355 . S
C3974 C3976 1.415 . S
C3975 C3974 1.355 . S
C3975 C3977 1.419 . S
C3976 C3974 1.415 . S
C3976 C3981 1.425 . S
C3976 C3983 1.409 . S
C3977 H3969 0.930 . S
C3977 C3975 1.419 . S
C3977 C3978 1.362 . S
C3978 H3970 0.930 . S
C3978 C3977 1.362 . S
C3978 C3981 1.409 . S
C3979 H3971 0.930 . S
C3979 C3980 1.355 . S
C3979 C3981 1.415 . S
C3980 C3979 1.355 . S
C3980 C3982 1.419 . S
C3981 C3976 1.425 . S
C3981 C3978 1.409 . S
C3981 C3979 1.415 . S
C3982 H3972 0.930 . S
C3982 C3980 1.419 . S
C3982 C3983 1.362 . S
C3983 H3973 0.930 . S
C3983 C3976 1.409 . S
C3983 C3982 1.362 . S
H3984 C3990 0.930 . S
H3985 C3993 0.930 . S
H3986 C3994 0.930 . S
H3987 C3995 0.930 . S
H3988 C3998 0.930 . S
H3989 C3999 0.930 . S
C3990 H3984 0.930 . S
C3990 C3991 1.355 . S
C3990 C3992 1.415 . S
C3991 C3990 1.355 . S
C3991 C3993 1.419 . S
C3992 C3990 1.415 . S
C3992 C3997 1.425 . S
C3992 C3999 1.409 . S
C3993 H3985 0.930 . S
C3993 C3991 1.419 . S
C3993 C3994 1.362 . S
C3994 H3986 0.930 . S
C3994 C3993 1.362 . S
C3994 C3997 1.409 . S
C3995 H3987 0.930 . S
C3995 C3996 1.355 . S
C3995 C3997 1.415 . S
C3996 C3995 1.355 . S
C3996 C3998 1.419 . S
C3997 C3992 1.425 . S
C3997 C3994 1.409 . S
C3997 C3995 1.415 . S
C3998 H3988 0.930 . S
C3998 C3996 1.419 . S
C3998 C3999 1.362 . S
C3999 H3989 0.930 . S
C3999 C3992 1.409 . S
C3999 C3998 1.362 . S
H4000 C4006 0.930 . S
H4001 C4009 0.930 . S
H4002 C4010 0.930 . S
H4003 C4011 0.930 . S
H4004 C4014 0.930 . S
H4005 C4015 0.930 . S
C4006 H4000 0.930 . S
C4006 C4007 1.355 . S
C4006 C4008 1.415 . S
C4007 C4006 1.355 . S
C4007 C4009 1.419 . S
C4008 C4006 1.415 . S
C4008 C4013 1.425 . S
C4008 C4015 1.409 . S
C4009 H4001 0.930 . S
C4009 C4007 1.419 . S
C4009 C4010 1.362 . S
C4010 H4002 0.930 . S
C4010 C4009 1.362 . S
C4010 C4013 1.409 . S
C4011 H4003 0.930 . S
C4011 C4012 1.355 . S
C4011 C4013 1.415 . S
C4012 C4011 1.355 . S
C4012 C4014 1.419 . S
C4013 C4008 1.425 . S
C4013 C4010 1.409 . S
C4013 C4011 1.415 . S
C4014 H4004 0.930 . S
C4014 C4012 1.419 . S
C4014 C4015 1.362 . S
C4015 H4005 0.930 . S
C4015 C4008 1.409 . S
C4015 C4014 1.362 . S
H4016 C4022 0.930 . S
H4017 C4025 0.929 . S
H4018 C4026 0.935 . S
H4019 C4027 0.930 . S
H4020 C4030 0.929 . S
H4021 C4031 0.935 . S
C4022 H4016 0.930 . S
C4022 C4023 1.360 . S
C4022 C4024 1.418 . S
C4023 C4022 1.360 . S
C4023 C4025 1.415 1_556 S
C4024 C4022 1.418 . S
C4024 C4029 1.421 1_556 S
C4024 C4031 1.409 . S
C4025 H4017 0.929 . S
C4025 C4023 1.415 1_554 S
C4025 C4026 1.362 . S
C4026 H4018 0.935 . S
C4026 C4025 1.362 . S
C4026 C4029 1.409 . S
C4027 H4019 0.930 . S
C4027 C4028 1.360 . S
C4027 C4029 1.418 . S
C4028 C4027 1.360 . S
C4028 C4030 1.415 1_554 S
C4029 C4024 1.421 1_554 S
C4029 C4026 1.409 . S
C4029 C4027 1.418 . S
C4030 H4020 0.929 . S
C4030 C4028 1.415 1_556 S
C4030 C4031 1.362 . S
C4031 H4021 0.935 . S
C4031 C4024 1.409 . S
C4031 C4030 1.362 . S
H4032 C4038 0.930 . S
H4033 C4041 0.930 . S
H4034 C4042 0.930 . S
H4035 C4043 0.930 . S
H4036 C4046 0.930 . S
H4037 C4047 0.930 . S
C4038 H4032 0.930 . S
C4038 C4039 1.355 . S
C4038 C4040 1.415 . S
C4039 C4038 1.355 . S
C4039 C4041 1.419 . S
C4040 C4038 1.415 . S
C4040 C4045 1.425 . S
C4040 C4047 1.409 . S
C4041 H4033 0.930 . S
C4041 C4039 1.419 . S
C4041 C4042 1.362 . S
C4042 H4034 0.930 . S
C4042 C4041 1.362 . S
C4042 C4045 1.409 . S
C4043 H4035 0.930 . S
C4043 C4044 1.355 . S
C4043 C4045 1.415 . S
C4044 C4043 1.355 . S
C4044 C4046 1.419 . S
C4045 C4040 1.425 . S
C4045 C4042 1.409 . S
C4045 C4043 1.415 . S
C4046 H4036 0.930 . S
C4046 C4044 1.419 . S
C4046 C4047 1.362 . S
C4047 H4037 0.930 . S
C4047 C4040 1.409 . S
C4047 C4046 1.362 . S
H4048 C4054 0.930 . S
H4049 C4057 0.930 . S
H4050 C4058 0.930 . S
H4051 C4059 0.930 . S
H4052 C4062 0.930 . S
H4053 C4063 0.930 . S
C4054 H4048 0.930 . S
C4054 C4055 1.355 . S
C4054 C4056 1.415 . S
C4055 C4054 1.355 . S
C4055 C4057 1.419 . S
C4056 C4054 1.415 . S
C4056 C4061 1.425 1_545 S
C4056 C4063 1.409 1_545 S
C4057 H4049 0.930 . S
C4057 C4055 1.419 . S
C4057 C4058 1.362 . S
C4058 H4050 0.930 . S
C4058 C4057 1.362 . S
C4058 C4061 1.409 1_545 S
C4059 H4051 0.930 . S
C4059 C4060 1.355 . S
C4059 C4061 1.415 . S
C4060 C4059 1.355 . S
C4060 C4062 1.419 . S
C4061 C4056 1.425 1_565 S
C4061 C4058 1.409 1_565 S
C4061 C4059 1.415 . S
C4062 H4052 0.930 . S
C4062 C4060 1.419 . S
C4062 C4063 1.362 . S
C4063 H4053 0.930 . S
C4063 C4056 1.409 1_565 S
C4063 C4062 1.362 . S
H4064 C4070 0.930 . S
H4065 C4073 0.930 . S
H4066 C4074 0.930 . S
H4067 C4075 0.930 . S
H4068 C4078 0.930 . S
H4069 C4079 0.930 . S
C4070 H4064 0.930 . S
C4070 C4071 1.355 . S
C4070 C4072 1.415 . S
C4071 C4070 1.355 . S
C4071 C4073 1.419 . S
C4072 C4070 1.415 . S
C4072 C4077 1.425 . S
C4072 C4079 1.409 . S
C4073 H4065 0.930 . S
C4073 C4071 1.419 . S
C4073 C4074 1.362 . S
C4074 H4066 0.930 . S
C4074 C4073 1.362 . S
C4074 C4077 1.409 . S
C4075 H4067 0.930 . S
C4075 C4076 1.355 . S
C4075 C4077 1.415 . S
C4076 C4075 1.355 . S
C4076 C4078 1.419 . S
C4077 C4072 1.425 . S
C4077 C4074 1.409 . S
C4077 C4075 1.415 . S
C4078 H4068 0.930 . S
C4078 C4076 1.419 . S
C4078 C4079 1.362 . S
C4079 H4069 0.930 . S
C4079 C4072 1.409 . S
C4079 C4078 1.362 . S
H4080 C4086 0.930 . S
H4081 C4089 0.930 . S
H4082 C4090 0.930 . S
H4083 C4091 0.930 . S
H4084 C4094 0.930 . S
H4085 C4095 0.930 . S
C4086 H4080 0.930 . S
C4086 C4087 1.355 . S
C4086 C4088 1.415 . S
C4087 C4086 1.355 . S
C4087 C4089 1.419 . S
C4088 C4086 1.415 . S
C4088 C4093 1.425 . S
C4088 C4095 1.409 . S
C4089 H4081 0.930 . S
C4089 C4087 1.419 . S
C4089 C4090 1.362 . S
C4090 H4082 0.930 . S
C4090 C4089 1.362 . S
C4090 C4093 1.409 . S
C4091 H4083 0.930 . S
C4091 C4092 1.355 . S
C4091 C4093 1.415 . S
C4092 C4091 1.355 . S
C4092 C4094 1.419 . S
C4093 C4088 1.425 . S
C4093 C4090 1.409 . S
C4093 C4091 1.415 . S
C4094 H4084 0.930 . S
C4094 C4092 1.419 . S
C4094 C4095 1.362 . S
C4095 H4085 0.930 . S
C4095 C4088 1.409 . S
C4095 C4094 1.362 . S
H4096 C4102 0.930 . S
H4097 C4105 0.930 . S
H4098 C4106 0.930 . S
H4099 C4107 0.930 . S
H4100 C4110 0.930 . S
H4101 C4111 0.930 . S
C4102 H4096 0.930 . S
C4102 C4103 1.355 1_455 S
C4102 C4104 1.415 . S
C4103 C4102 1.355 1_655 S
C4103 C4105 1.419 . S
C4104 C4102 1.415 . S
C4104 C4109 1.425 1_454 S
C4104 C4111 1.409 1_554 S
C4105 H4097 0.930 . S
C4105 C4103 1.419 . S
C4105 C4106 1.362 . S
C4106 H4098 0.930 . S
C4106 C4105 1.362 . S
C4106 C4109 1.409 1_554 S
C4107 H4099 0.930 . S
C4107 C4108 1.355 1_655 S
C4107 C4109 1.415 . S
C4108 C4107 1.355 1_455 S
C4108 C4110 1.419 . S
C4109 C4104 1.425 1_656 S
C4109 C4106 1.409 1_556 S
C4109 C4107 1.415 . S
C4110 H4100 0.930 . S
C4110 C4108 1.419 . S
C4110 C4111 1.362 . S
C4111 H4101 0.930 . S
C4111 C4104 1.409 1_556 S
C4111 C4110 1.362 . S
H4112 C4118 0.930 . S
H4113 C4121 0.930 . S
H4114 C4122 0.930 . S
H4115 C4123 0.930 . S
H4116 C4126 0.930 . S
H4117 C4127 0.930 . S
C4118 H4112 0.930 . S
C4118 C4119 1.355 . S
C4118 C4120 1.415 . S
C4119 C4118 1.355 . S
C4119 C4121 1.419 . S
C4120 C4118 1.415 . S
C4120 C4125 1.425 . S
C4120 C4127 1.409 . S
C4121 H4113 0.930 . S
C4121 C4119 1.419 . S
C4121 C4122 1.362 . S
C4122 H4114 0.930 . S
C4122 C4121 1.362 . S
C4122 C4125 1.409 . S
C4123 H4115 0.930 . S
C4123 C4124 1.355 . S
C4123 C4125 1.415 . S
C4124 C4123 1.355 . S
C4124 C4126 1.419 . S
C4125 C4120 1.425 . S
C4125 C4122 1.409 . S
C4125 C4123 1.415 . S
C4126 H4116 0.930 . S
C4126 C4124 1.419 . S
C4126 C4127 1.362 . S
C4127 H4117 0.930 . S
C4127 C4120 1.409 . S
C4127 C4126 1.362 . S
H4128 C4134 0.930 . S
H4129 C4137 0.930 . S
H4130 C4138 0.930 . S
H4131 C4139 0.930 . S
H4132 C4142 0.930 . S
H4133 C4143 0.930 . S
C4134 H4128 0.930 . S
C4134 C4135 1.355 1_655 S
C4134 C4136 1.415 . S
C4135 C4134 1.355 1_455 S
C4135 C4137 1.419 . S
C4136 C4134 1.415 . S
C4136 C4141 1.425 1_655 S
C4136 C4143 1.409 . S
C4137 H4129 0.930 . S
C4137 C4135 1.419 . S
C4137 C4138 1.362 . S
C4138 H4130 0.930 . S
C4138 C4137 1.362 . S
C4138 C4141 1.409 . S
C4139 H4131 0.930 . S
C4139 C4140 1.355 1_455 S
C4139 C4141 1.415 . S
C4140 C4139 1.355 1_655 S
C4140 C4142 1.419 . S
C4141 C4136 1.425 1_455 S
C4141 C4138 1.409 . S
C4141 C4139 1.415 . S
C4142 H4132 0.930 . S
C4142 C4140 1.419 . S
C4142 C4143 1.362 . S
C4143 H4133 0.930 . S
C4143 C4136 1.409 . S
C4143 C4142 1.362 . S
H4144 C4150 0.930 . S
H4145 C4153 0.930 . S
H4146 C4154 0.930 . S
H4147 C4155 0.930 . S
H4148 C4158 0.930 . S
H4149 C4159 0.930 . S
C4150 H4144 0.930 . S
C4150 C4151 1.355 . S
C4150 C4152 1.415 . S
C4151 C4150 1.355 . S
C4151 C4153 1.419 . S
C4152 C4150 1.415 . S
C4152 C4157 1.425 . S
C4152 C4159 1.409 . S
C4153 H4145 0.930 . S
C4153 C4151 1.419 . S
C4153 C4154 1.362 . S
C4154 H4146 0.930 . S
C4154 C4153 1.362 . S
C4154 C4157 1.409 . S
C4155 H4147 0.930 . S
C4155 C4156 1.355 . S
C4155 C4157 1.415 . S
C4156 C4155 1.355 . S
C4156 C4158 1.419 . S
C4157 C4152 1.425 . S
C4157 C4154 1.409 . S
C4157 C4155 1.415 . S
C4158 H4148 0.930 . S
C4158 C4156 1.419 . S
C4158 C4159 1.362 . S
C4159 H4149 0.930 . S
C4159 C4152 1.409 . S
C4159 C4158 1.362 . S
H4160 C4166 0.930 . S
H4161 C4169 0.930 . S
H4162 C4170 0.930 . S
H4163 C4171 0.930 . S
H4164 C4174 0.930 . S
H4165 C4175 0.930 . S
C4166 H4160 0.930 . S
C4166 C4167 1.355 . S
C4166 C4168 1.415 . S
C4167 C4166 1.355 . S
C4167 C4169 1.419 . S
C4168 C4166 1.415 . S
C4168 C4173 1.425 . S
C4168 C4175 1.409 . S
C4169 H4161 0.930 . S
C4169 C4167 1.419 . S
C4169 C4170 1.362 . S
C4170 H4162 0.930 . S
C4170 C4169 1.362 . S
C4170 C4173 1.409 . S
C4171 H4163 0.930 . S
C4171 C4172 1.355 . S
C4171 C4173 1.415 . S
C4172 C4171 1.355 . S
C4172 C4174 1.419 . S
C4173 C4168 1.425 . S
C4173 C4170 1.409 . S
C4173 C4171 1.415 . S
C4174 H4164 0.930 . S
C4174 C4172 1.419 . S
C4174 C4175 1.362 . S
C4175 H4165 0.930 . S
C4175 C4168 1.409 . S
C4175 C4174 1.362 . S
H4176 C4182 0.930 . S
H4177 C4185 0.930 . S
H4178 C4186 0.930 . S
H4179 C4187 0.930 . S
H4180 C4190 0.930 . S
H4181 C4191 0.930 . S
C4182 H4176 0.930 . S
C4182 C4183 1.355 . S
C4182 C4184 1.415 . S
C4183 C4182 1.355 . S
C4183 C4185 1.419 . S
C4184 C4182 1.415 . S
C4184 C4189 1.425 . S
C4184 C4191 1.409 . S
C4185 H4177 0.930 . S
C4185 C4183 1.419 . S
C4185 C4186 1.362 . S
C4186 H4178 0.930 . S
C4186 C4185 1.362 . S
C4186 C4189 1.409 . S
C4187 H4179 0.930 . S
C4187 C4188 1.355 . S
C4187 C4189 1.415 . S
C4188 C4187 1.355 . S
C4188 C4190 1.419 . S
C4189 C4184 1.425 . S
C4189 C4186 1.409 . S
C4189 C4187 1.415 . S
C4190 H4180 0.930 . S
C4190 C4188 1.419 . S
C4190 C4191 1.362 . S
C4191 H4181 0.930 . S
C4191 C4184 1.409 . S
C4191 C4190 1.362 . S
H4192 C4198 0.930 . S
H4193 C4201 0.930 . S
H4194 C4202 0.930 . S
H4195 C4203 0.930 . S
H4196 C4206 0.930 . S
H4197 C4207 0.930 . S
C4198 H4192 0.930 . S
C4198 C4199 1.355 . S
C4198 C4200 1.415 . S
C4199 C4198 1.355 . S
C4199 C4201 1.419 . S
C4200 C4198 1.415 . S
C4200 C4205 1.425 . S
C4200 C4207 1.409 . S
C4201 H4193 0.930 . S
C4201 C4199 1.419 . S
C4201 C4202 1.362 . S
C4202 H4194 0.930 . S
C4202 C4201 1.362 . S
C4202 C4205 1.409 . S
C4203 H4195 0.930 . S
C4203 C4204 1.355 . S
C4203 C4205 1.415 . S
C4204 C4203 1.355 . S
C4204 C4206 1.419 . S
C4205 C4200 1.425 . S
C4205 C4202 1.409 . S
C4205 C4203 1.415 . S
C4206 H4196 0.930 . S
C4206 C4204 1.419 . S
C4206 C4207 1.362 . S
C4207 H4197 0.930 . S
C4207 C4200 1.409 . S
C4207 C4206 1.362 . S
H4208 C4214 0.930 . S
H4209 C4217 0.930 . S
H4210 C4218 0.930 . S
H4211 C4219 0.930 . S
H4212 C4222 0.930 . S
H4213 C4223 0.930 . S
C4214 H4208 0.930 . S
C4214 C4215 1.353 1_565 S
C4214 C4216 1.415 . S
C4215 C4214 1.353 1_545 S
C4215 C4217 1.421 . S
C4216 C4214 1.415 . S
C4216 C4221 1.425 1_565 S
C4216 C4223 1.409 . S
C4217 H4209 0.930 . S
C4217 C4215 1.421 . S
C4217 C4218 1.362 . S
C4218 H4210 0.930 . S
C4218 C4217 1.362 . S
C4218 C4221 1.409 . S
C4219 H4211 0.930 . S
C4219 C4220 1.353 1_545 S
C4219 C4221 1.415 . S
C4220 C4219 1.353 1_565 S
C4220 C4222 1.421 . S
C4221 C4216 1.425 1_545 S
C4221 C4218 1.409 . S
C4221 C4219 1.415 . S
C4222 H4212 0.930 . S
C4222 C4220 1.421 . S
C4222 C4223 1.362 . S
C4223 H4213 0.930 . S
C4223 C4216 1.409 . S
C4223 C4222 1.362 . S
H4224 C4230 0.930 . S
H4225 C4233 0.930 . S
H4226 C4234 0.930 . S
H4227 C4235 0.930 . S
H4228 C4238 0.930 . S
H4229 C4239 0.930 . S
C4230 H4224 0.930 . S
C4230 C4231 1.355 . S
C4230 C4232 1.415 . S
C4231 C4230 1.355 . S
C4231 C4233 1.419 . S
C4232 C4230 1.415 . S
C4232 C4237 1.425 . S
C4232 C4239 1.409 . S
C4233 H4225 0.930 . S
C4233 C4231 1.419 . S
C4233 C4234 1.362 . S
C4234 H4226 0.930 . S
C4234 C4233 1.362 . S
C4234 C4237 1.409 . S
C4235 H4227 0.930 . S
C4235 C4236 1.355 . S
C4235 C4237 1.415 . S
C4236 C4235 1.355 . S
C4236 C4238 1.419 . S
C4237 C4232 1.425 . S
C4237 C4234 1.409 . S
C4237 C4235 1.415 . S
C4238 H4228 0.930 . S
C4238 C4236 1.419 . S
C4238 C4239 1.362 . S
C4239 H4229 0.930 . S
C4239 C4232 1.409 . S
C4239 C4238 1.362 . S
H4240 C4246 0.930 . S
H4241 C4249 0.930 . S
H4242 C4250 0.930 . S
H4243 C4251 0.930 . S
H4244 C4254 0.930 . S
H4245 C4255 0.930 . S
C4246 H4240 0.930 . S
C4246 C4247 1.315 1_565 S
C4246 C4248 1.415 . S
C4247 C4246 1.315 1_545 S
C4247 C4249 1.471 . S
C4248 C4246 1.415 . S
C4248 C4253 1.425 1_565 S
C4248 C4255 1.409 . S
C4249 H4241 0.930 . S
C4249 C4247 1.471 . S
C4249 C4250 1.362 . S
C4250 H4242 0.930 . S
C4250 C4249 1.362 . S
C4250 C4253 1.409 . S
C4251 H4243 0.930 . S
C4251 C4252 1.315 1_545 S
C4251 C4253 1.415 . S
C4252 C4251 1.315 1_565 S
C4252 C4254 1.471 . S
C4253 C4248 1.425 1_545 S
C4253 C4250 1.409 . S
C4253 C4251 1.415 . S
C4254 H4244 0.930 . S
C4254 C4252 1.471 . S
C4254 C4255 1.362 . S
C4255 H4245 0.930 . S
C4255 C4248 1.409 . S
C4255 C4254 1.362 . S
H4256 C4262 0.930 . S
H4257 C4265 0.930 . S
H4258 C4266 0.930 . S
H4259 C4267 0.930 . S
H4260 C4270 0.930 . S
H4261 C4271 0.930 . S
C4262 H4256 0.930 . S
C4262 C4263 1.355 1_554 S
C4262 C4264 1.415 . S
C4263 C4262 1.355 1_556 S
C4263 C4265 1.419 . S
C4264 C4262 1.415 . S
C4264 C4269 1.425 1_564 S
C4264 C4271 1.409 1_565 S
C4265 H4257 0.930 . S
C4265 C4263 1.419 . S
C4265 C4266 1.362 . S
C4266 H4258 0.930 . S
C4266 C4265 1.362 . S
C4266 C4269 1.409 1_565 S
C4267 H4259 0.930 . S
C4267 C4268 1.355 1_556 S
C4267 C4269 1.415 . S
C4268 C4267 1.355 1_554 S
C4268 C4270 1.419 . S
C4269 C4264 1.425 1_546 S
C4269 C4266 1.409 1_545 S
C4269 C4267 1.415 . S
C4270 H4260 0.930 . S
C4270 C4268 1.419 . S
C4270 C4271 1.362 . S
C4271 H4261 0.930 . S
C4271 C4264 1.409 1_545 S
C4271 C4270 1.362 . S
H4272 C4278 0.930 . S
H4273 C4281 0.930 . S
H4274 C4282 0.930 . S
H4275 C4283 0.930 . S
H4276 C4286 0.930 . S
H4277 C4287 0.930 . S
C4278 H4272 0.930 . S
C4278 C4279 1.355 . S
C4278 C4280 1.415 . S
C4279 C4278 1.355 . S
C4279 C4281 1.419 . S
C4280 C4278 1.415 . S
C4280 C4285 1.425 . S
C4280 C4287 1.409 . S
C4281 H4273 0.930 . S
C4281 C4279 1.419 . S
C4281 C4282 1.362 . S
C4282 H4274 0.930 . S
C4282 C4281 1.362 . S
C4282 C4285 1.409 . S
C4283 H4275 0.930 . S
C4283 C4284 1.355 . S
C4283 C4285 1.415 . S
C4284 C4283 1.355 . S
C4284 C4286 1.419 . S
C4285 C4280 1.425 . S
C4285 C4282 1.409 . S
C4285 C4283 1.415 . S
C4286 H4276 0.930 . S
C4286 C4284 1.419 . S
C4286 C4287 1.362 . S
C4287 H4277 0.930 . S
C4287 C4280 1.409 . S
C4287 C4286 1.362 . S
H4288 C4294 0.930 . S
H4289 C4297 0.930 . S
H4290 C4298 0.930 . S
H4291 C4299 0.930 . S
H4292 C4302 0.930 . S
H4293 C4303 0.930 . S
C4294 H4288 0.930 . S
C4294 C4295 1.355 . S
C4294 C4296 1.415 . S
C4295 C4294 1.355 . S
C4295 C4297 1.419 . S
C4296 C4294 1.415 . S
C4296 C4301 1.425 . S
C4296 C4303 1.409 . S
C4297 H4289 0.930 . S
C4297 C4295 1.419 . S
C4297 C4298 1.362 . S
C4298 H4290 0.930 . S
C4298 C4297 1.362 . S
C4298 C4301 1.409 . S
C4299 H4291 0.930 . S
C4299 C4300 1.355 . S
C4299 C4301 1.415 . S
C4300 C4299 1.355 . S
C4300 C4302 1.419 . S
C4301 C4296 1.425 . S
C4301 C4298 1.409 . S
C4301 C4299 1.415 . S
C4302 H4292 0.930 . S
C4302 C4300 1.419 . S
C4302 C4303 1.362 . S
C4303 H4293 0.930 . S
C4303 C4296 1.409 . S
C4303 C4302 1.362 . S
H4304 C4310 0.930 . S
H4305 C4313 0.930 . S
H4306 C4314 0.930 . S
H4307 C4315 0.930 . S
H4308 C4318 0.930 . S
H4309 C4319 0.930 . S
C4310 H4304 0.930 . S
C4310 C4311 1.355 . S
C4310 C4312 1.415 . S
C4311 C4310 1.355 . S
C4311 C4313 1.419 . S
C4312 C4310 1.415 . S
C4312 C4317 1.425 . S
C4312 C4319 1.409 . S
C4313 H4305 0.930 . S
C4313 C4311 1.419 . S
C4313 C4314 1.362 . S
C4314 H4306 0.930 . S
C4314 C4313 1.362 . S
C4314 C4317 1.409 . S
C4315 H4307 0.930 . S
C4315 C4316 1.355 . S
C4315 C4317 1.415 . S
C4316 C4315 1.355 . S
C4316 C4318 1.419 . S
C4317 C4312 1.425 . S
C4317 C4314 1.409 . S
C4317 C4315 1.415 . S
C4318 H4308 0.930 . S
C4318 C4316 1.419 . S
C4318 C4319 1.362 . S
C4319 H4309 0.930 . S
C4319 C4312 1.409 . S
C4319 C4318 1.362 . S
H4320 C4326 0.930 . S
H4321 C4329 0.930 . S
H4322 C4330 0.930 . S
H4323 C4331 0.930 . S
H4324 C4334 0.930 . S
H4325 C4335 0.930 . S
C4326 H4320 0.930 . S
C4326 C4327 1.355 . S
C4326 C4328 1.415 . S
C4327 C4326 1.355 . S
C4327 C4329 1.419 . S
C4328 C4326 1.415 . S
C4328 C4333 1.425 . S
C4328 C4335 1.409 . S
C4329 H4321 0.930 . S
C4329 C4327 1.419 . S
C4329 C4330 1.362 . S
C4330 H4322 0.930 . S
C4330 C4329 1.362 . S
C4330 C4333 1.409 . S
C4331 H4323 0.930 . S
C4331 C4332 1.355 . S
C4331 C4333 1.415 . S
C4332 C4331 1.355 . S
C4332 C4334 1.419 . S
C4333 C4328 1.425 . S
C4333 C4330 1.409 . S
C4333 C4331 1.415 . S
C4334 H4324 0.930 . S
C4334 C4332 1.419 . S
C4334 C4335 1.362 . S
C4335 H4325 0.930 . S
C4335 C4328 1.409 . S
C4335 C4334 1.362 . S
H4336 C4342 0.930 . S
H4337 C4345 0.930 . S
H4338 C4346 0.930 . S
H4339 C4347 0.930 . S
H4340 C4350 0.930 . S
H4341 C4351 0.930 . S
C4342 H4336 0.930 . S
C4342 C4343 1.355 . S
C4342 C4344 1.415 . S
C4343 C4342 1.355 . S
C4343 C4345 1.419 . S
C4344 C4342 1.415 . S
C4344 C4349 1.425 . S
C4344 C4351 1.409 . S
C4345 H4337 0.930 . S
C4345 C4343 1.419 . S
C4345 C4346 1.362 . S
C4346 H4338 0.930 . S
C4346 C4345 1.362 . S
C4346 C4349 1.409 . S
C4347 H4339 0.930 . S
C4347 C4348 1.355 . S
C4347 C4349 1.415 . S
C4348 C4347 1.355 . S
C4348 C4350 1.419 . S
C4349 C4344 1.425 . S
C4349 C4346 1.409 . S
C4349 C4347 1.415 . S
C4350 H4340 0.930 . S
C4350 C4348 1.419 . S
C4350 C4351 1.362 . S
C4351 H4341 0.930 . S
C4351 C4344 1.409 . S
C4351 C4350 1.362 . S
H4352 C4358 0.930 . S
H4353 C4361 0.930 . S
H4354 C4362 0.930 . S
H4355 C4363 0.930 . S
H4356 C4366 0.930 . S
H4357 C4367 0.930 . S
C4358 H4352 0.930 . S
C4358 C4359 1.355 . S
C4358 C4360 1.415 . S
C4359 C4358 1.355 . S
C4359 C4361 1.419 . S
C4360 C4358 1.415 . S
C4360 C4365 1.425 . S
C4360 C4367 1.409 . S
C4361 H4353 0.930 . S
C4361 C4359 1.419 . S
C4361 C4362 1.362 . S
C4362 H4354 0.930 . S
C4362 C4361 1.362 . S
C4362 C4365 1.409 . S
C4363 H4355 0.930 . S
C4363 C4364 1.355 . S
C4363 C4365 1.415 . S
C4364 C4363 1.355 . S
C4364 C4366 1.419 . S
C4365 C4360 1.425 . S
C4365 C4362 1.409 . S
C4365 C4363 1.415 . S
C4366 H4356 0.930 . S
C4366 C4364 1.419 . S
C4366 C4367 1.362 . S
C4367 H4357 0.930 . S
C4367 C4360 1.409 . S
C4367 C4366 1.362 . S
H4368 C4374 0.930 . S
H4369 C4377 0.930 . S
H4370 C4378 0.930 . S
H4371 C4379 0.930 . S
H4372 C4382 0.930 . S
H4373 C4383 0.930 . S
C4374 H4368 0.930 . S
C4374 C4375 1.355 1_556 S
C4374 C4376 1.415 . S
C4375 C4374 1.355 1_554 S
C4375 C4377 1.419 . S
C4376 C4374 1.415 . S
C4376 C4381 1.425 1_566 S
C4376 C4383 1.409 1_565 S
C4377 H4369 0.930 . S
C4377 C4375 1.419 . S
C4377 C4378 1.362 . S
C4378 H4370 0.930 . S
C4378 C4377 1.362 . S
C4378 C4381 1.409 1_565 S
C4379 H4371 0.930 . S
C4379 C4380 1.355 1_554 S
C4379 C4381 1.415 . S
C4380 C4379 1.355 1_556 S
C4380 C4382 1.419 . S
C4381 C4376 1.425 1_544 S
C4381 C4378 1.409 1_545 S
C4381 C4379 1.415 . S
C4382 H4372 0.930 . S
C4382 C4380 1.419 . S
C4382 C4383 1.362 . S
C4383 H4373 0.930 . S
C4383 C4376 1.409 1_545 S
C4383 C4382 1.362 . S
H4384 C4390 0.930 . S
H4385 C4393 0.930 . S
H4386 C4394 0.930 . S
H4387 C4395 0.930 . S
H4388 C4398 0.930 . S
H4389 C4399 0.930 . S
C4390 H4384 0.930 . S
C4390 C4391 1.355 . S
C4390 C4392 1.415 . S
C4391 C4390 1.355 . S
C4391 C4393 1.419 . S
C4392 C4390 1.415 . S
C4392 C4397 1.425 . S
C4392 C4399 1.409 . S
C4393 H4385 0.930 . S
C4393 C4391 1.419 . S
C4393 C4394 1.362 . S
C4394 H4386 0.930 . S
C4394 C4393 1.362 . S
C4394 C4397 1.409 . S
C4395 H4387 0.930 . S
C4395 C4396 1.355 . S
C4395 C4397 1.415 . S
C4396 C4395 1.355 . S
C4396 C4398 1.419 . S
C4397 C4392 1.425 . S
C4397 C4394 1.409 . S
C4397 C4395 1.415 . S
C4398 H4388 0.930 . S
C4398 C4396 1.419 . S
C4398 C4399 1.362 . S
C4399 H4389 0.930 . S
C4399 C4392 1.409 . S
C4399 C4398 1.362 . S
H4400 C4406 0.930 . S
H4401 C4409 0.930 . S
H4402 C4410 0.930 . S
H4403 C4411 0.930 . S
H4404 C4414 0.930 . S
H4405 C4415 0.930 . S
C4406 H4400 0.930 . S
C4406 C4407 1.355 . S
C4406 C4408 1.415 . S
C4407 C4406 1.355 . S
C4407 C4409 1.419 . S
C4408 C4406 1.415 . S
C4408 C4413 1.425 . S
C4408 C4415 1.409 . S
C4409 H4401 0.930 . S
C4409 C4407 1.419 . S
C4409 C4410 1.362 . S
C4410 H4402 0.930 . S
C4410 C4409 1.362 . S
C4410 C4413 1.409 . S
C4411 H4403 0.930 . S
C4411 C4412 1.355 . S
C4411 C4413 1.415 . S
C4412 C4411 1.355 . S
C4412 C4414 1.419 . S
C4413 C4408 1.425 . S
C4413 C4410 1.409 . S
C4413 C4411 1.415 . S
C4414 H4404 0.930 . S
C4414 C4412 1.419 . S
C4414 C4415 1.362 . S
C4415 H4405 0.930 . S
C4415 C4408 1.409 . S
C4415 C4414 1.362 . S
C1351 C9 1.191 . S
C1356 C455 1.254 . S
C1367 C805 1.266 . S
C1372 C23 1.233 . S
C1383 C483 1.256 . S
C1388 C37 1.245 . S
C1399 C51 1.176 . S
C1404 C833 1.297 . S
C1415 C65 1.192 . S
C1420 C511 1.291 . S
C1431 C79 1.240 . S
C1436 C861 1.260 . S
C1447 C93 1.240 . S
C1452 C539 1.224 . S
C1463 C107 1.270 . S
C1468 C889 1.226 . S
C1479 C903 1.296 . S
C1484 C121 1.154 . S
C1495 C1001 1.227 . S
C1500 C135 1.234 . S
C1511 C149 1.185 . S
C1516 C1309 1.294 . S
C1527 C163 1.180 . S
C1532 C987 1.264 . S
C1543 C245 1.221 . S
C1548 C177 1.245 . S
C1559 C191 1.173 . S
C1564 C259 1.269 . S
C1575 C205 1.225 . S
C1580 C273 1.271 . S
C1591 C1295 1.222 . S
C1596 C219 1.244 . S
C1607 C1015 1.244 . S
C1612 C233 1.206 . S
C1623 C247 1.253 . S
C1628 C399 1.249 . S
C1639 C749 1.225 . S
C1644 C261 1.270 . S
C1655 C275 1.197 . S
C1660 C427 1.250 . S
C1671 C441 1.297 . S
C1676 C289 1.155 . S
C1687 C707 1.250 . S
C1692 C303 1.251 . S
C1703 C49 1.300 . S
C1708 C317 1.168 . S
C1719 C21 1.216 . S
C1724 C331 1.262 . S
C1735 C345 1.221 . S
C1740 C119 1.274 . S
C1751 C1141 1.300 . S
C1756 C359 1.167 . S
C1767 C147 1.293 . S
C1772 C373 1.187 . S
C1783 C387 1.245 . S
C1788 C1169 1.221 . S
C1799 C401 1.155 . S
C1804 C175 1.292 . S
C1815 C1197 1.273 . S
C1820 C415 1.223 . S
C1831 C429 1.200 . S
C1836 C203 1.248 . S
C1847 C1225 1.288 . S
C1852 C443 1.157 . S
C1863 C1239 1.217 . S
C1868 C457 1.257 . S
C1879 C471 1.191 . S
C1884 C1337 1.255 . S
C1895 C973 1.254 . S
C1900 C485 1.247 . S
C1911 C1323 1.271 . S
C1916 C499 1.225 . S
C1927 C513 1.242 . S
C1932 C581 1.223 . S
C1943 C595 1.295 . S
C1948 C527 1.154 . S
C1959 C609 1.228 . S
C1964 C541 1.269 . S
C1975 C555 1.264 . S
C1980 C959 1.236 . S
C1991 C679 1.297 . S
C1996 C569 1.155 . S
C2007 C583 1.168 . S
C2012 C63 1.299 . S
C2023 C1085 1.251 . S
C2028 C597 1.195 . S
C2039 C91 1.247 . S
C2044 C611 1.201 . S
C2055 C625 1.215 . S
C2060 C105 1.278 . S
C2071 C1043 1.241 . S
C2076 C639 1.211 . S
C2087 C385 1.298 . S
C2092 C653 1.155 . S
C2103 C357 1.228 . S
C2108 C667 1.269 . S
C2119 C1127 1.278 . S
C2124 C681 1.164 . S
C2135 C133 1.222 . S
C2140 C695 1.243 . S
C2151 C1155 1.217 . S
C2156 C709 1.269 . S
C2167 C723 1.173 . S
C2172 C161 1.270 . S
C2183 C1183 1.229 . S
C2188 C737 1.229 . S
C2199 C751 1.236 . S
C2204 C189 1.263 . S
C2215 C765 1.176 . S
C2220 C1211 1.297 . S
C2231 C779 1.248 . S
C2236 C217 1.220 . S
C2247 C231 1.226 . S
C2252 C793 1.236 . S
C2263 C807 1.264 . S
C2268 C329 1.236 . S
C2279 C821 1.181 . S
C2284 C637 1.295 . S
C2295 C315 1.298 . S
C2300 C835 1.173 . S
C2311 C849 1.242 . S
C2316 C917 1.222 . S
C2327 C931 1.218 . S
C2332 C863 1.253 . S
C2343 C945 1.218 . S
C2348 C877 1.255 . S
C2359 C891 1.269 . S
C2364 C623 1.229 . S
C2375 C905 1.263 . S
C2380 C343 1.237 . S
C2391 C1071 1.216 . S
C2396 C919 1.267 . S
C2407 C933 1.265 . S
C2412 C77 1.235 . S
C2423 C947 1.163 . S
C2428 C1099 1.279 . S
C2439 C1113 1.216 . S
C2444 C961 1.262 . S
C2455 C35 1.217 . S
C2460 C975 1.258 . S
C2471 C989 1.253 . S
C2476 C721 1.219 . S
C2487 C1003 1.244 . S
C2492 C693 1.256 . S
C2503 C791 1.273 . S
C2508 C1017 1.169 . S
C2519 C469 1.221 . S
C2524 C1031 1.245 . S
C2535 C819 1.296 . S
C2540 C1045 1.154 . S
C2551 C1059 1.160 . S
C2556 C497 1.300 . S
C2567 C1073 1.155 . S
C2572 C847 1.293 . S
C2583 C525 1.244 . S
C2588 C1087 1.206 . S
C2599 C875 1.216 . S
C2604 C1101 1.267 . S
C2615 C553 1.221 . S
C2620 C1115 1.246 . S
C2631 C1129 1.156 . S
C2636 C567 1.290 . S
C2647 C665 1.228 . S
C2652 C1143 1.231 . S
C2663 C301 1.289 . S
C2668 C1157 1.196 . S
C2679 C1171 1.201 . S
C2684 C651 1.247 . S
C2695 C1253 1.271 . S
C2700 C1185 1.226 . S
C2711 C1267 1.220 . S
C2716 C1199 1.248 . S
C2727 C1213 1.175 . S
C2732 C1281 1.298 . S
C2743 C1227 1.172 . S
C2748 C287 1.270 . S
C2759 C7 1.245 . S
C2764 C1241 1.203 . S
C2775 C735 1.299 . S
C2780 C1255 1.171 . S
C2791 C1269 1.154 . S
C2796 C413 1.297 . S
C2807 C1283 1.157 . S
C2812 C763 1.288 . S
C2823 C777 1.294 . S
C2828 C1297 1.184 . S
C2839 C371 1.296 . S
C2844 C1311 1.154 . S
C2855 C1057 1.289 . S
C2860 C1325 1.156 . S
C2871 C1029 1.221 . S
C2876 C1339 1.247 . S
C2887 C1221 1.299 . S
C2892 C3 1.242 . S
C2903 C17 1.297 . S
C2908 C1179 1.244 . S
C2919 C31 1.278 . S
C2924 C1193 1.264 . S
C2935 C45 1.262 . S
C2940 C1207 1.281 . S
C2951 C129 1.280 . S
C2956 C59 1.257 . S
C2967 C73 1.304 . S
C2972 C143 1.237 . S
C2983 C87 1.289 . S
C2988 C157 1.253 . S
C2999 C101 1.233 . S
C3004 C115 1.305 . S
C3015 C171 1.306 . S
C3020 C1025 1.233 . S
C3031 C185 1.305 . S
C3036 C1039 1.234 . S
C3047 C199 1.306 . S
C3052 C1053 1.233 . S
C3063 C1011 1.304 . S
C3068 C213 1.234 . S
C3079 C1291 1.236 . S
C3084 C227 1.304 . S
C3095 C241 1.295 . S
C3100 C1333 1.243 . S
C3111 C255 1.289 . S
C3116 C633 1.248 . S
C3127 C1319 1.304 . S
C3132 C269 1.234 . S
C3143 C283 1.255 . S
C3148 C1235 1.282 . S
C3159 C297 1.261 . S
C3164 C591 1.276 . S
C3175 C311 1.293 . S
C3180 C1277 1.244 . S
C3191 C325 1.306 . S
C3196 C1249 1.232 . S
C3207 C885 1.239 . S
C3212 C339 1.298 . S
C3223 C353 1.272 . S
C3228 C843 1.265 . S
C3239 C857 1.241 . S
C3244 C367 1.296 . S
C3255 C381 1.306 . S
C3260 C871 1.232 . S
C3271 C395 1.275 . S
C3276 C465 1.262 . S
C3287 C409 1.242 . S
C3292 C479 1.299 . S
C3303 C493 1.280 . S
C3308 C423 1.262 . S
C3319 C437 1.274 . S
C3324 C451 1.264 . S
C3335 C689 1.277 . S
C3340 C507 1.260 . S
C3351 C703 1.273 . S
C3356 C521 1.270 . S
C3367 C717 1.234 . S
C3372 C535 1.306 . S
C3383 C675 1.285 . S
C3388 C549 1.252 . S
C3399 C563 1.245 . S
C3404 C955 1.293 . S
C3415 C577 1.306 . S
C3420 C997 1.233 . S
C3431 C983 1.239 . S
C3436 C605 1.302 . S
C3447 C619 1.292 . S
C3452 C899 1.246 . S
C3463 C647 1.234 . S
C3468 C941 1.304 . S
C3479 C661 1.299 . S
C3484 C913 1.238 . S
C3495 C731 1.243 . S
C3500 C801 1.294 . S
C3511 C745 1.236 . S
C3516 C815 1.302 . S
C3527 C759 1.241 . S
C3532 C829 1.300 . S
C3543 C773 1.274 . S
C3548 C787 1.269 . S
C3559 C1305 1.261 . S
C3564 C927 1.282 . S
C3575 C1263 1.306 . S
C3580 C969 1.233 . S
C3591 C1067 1.275 . S
C3596 C1137 1.262 . S
C3607 C1081 1.304 . S
C3612 C1151 1.236 . S
C3623 C1165 1.273 . S
C3628 C1095 1.270 . S
C3639 C1109 1.271 . S
C3644 C1123 1.266 . S
C3655 C372 1.588 . S
C3660 C8 1.614 . S
C3671 C22 1.604 . S
C3676 C722 1.565 . S
C3687 C36 1.538 . S
C3692 C344 1.561 . S
C3703 C694 1.615 . S
C3708 C50 1.599 . S
C3719 C64 1.538 . S
C3724 C428 1.559 . S
C3735 C78 1.549 . S
C3740 C778 1.540 . S
C3751 C92 1.540 . S
C3756 C400 1.548 . S
C3767 C106 1.542 . S
C3772 C750 1.575 . S
C3783 C120 1.584 . S
C3788 C176 1.547 . S
C3799 C190 1.538 . S
C3804 C134 1.557 . S
C3815 C148 1.604 1_556 S
C3820 C204 1.614 1_554 S
C3831 C162 1.539 . S
C3836 C218 1.551 . S
C3847 C232 1.546 . S
C3852 C1282 1.541 . S
C3863 C974 1.575 . S
C3868 C246 1.542 . S
C3879 C316 1.554 . S
C3884 C260 1.594 . S
C3895 C1240 1.599 1_655 S
C3900 C274 1.573 1_455 S
C3911 C1338 1.614 . S
C3916 C288 1.588 . S
C3927 C302 1.596 . S
C3932 C918 1.615 . S
C3943 C1296 1.566 . S
C3948 C330 1.604 . S
C3959 C358 1.561 . S
C3964 C1058 1.600 . S
C3975 C1030 1.538 . S
C3980 C386 1.557 . S
C3991 C414 1.550 . S
C3996 C1114 1.589 . S
C4007 C442 1.609 . S
C4012 C1086 1.611 . S
C4023 C512 1.606 . S
C4028 C456 1.568 . S
C4039 C526 1.615 . S
C4044 C470 1.601 . S
C4055 C540 1.575 . S
C4060 C484 1.610 . S
C4071 C554 1.547 . S
C4076 C498 1.541 . S
C4087 C946 1.604 . S
C4092 C568 1.614 . S
C4103 C1310 1.540 . S
C4108 C582 1.570 . S
C4119 C596 1.544 . S
C4124 C652 1.580 . S
C4135 C610 1.608 1_455 S
C4140 C904 1.612 1_655 S
C4151 C624 1.576 . S
C4156 C1002 1.542 . S
C4167 C638 1.588 . S
C4172 C1254 1.549 . S
C4183 C666 1.567 . S
C4188 C960 1.605 . S
C4199 C1044 1.544 . S
C4204 C680 1.579 . S
C4215 C708 1.572 1_545 S
C4220 C1016 1.606 1_565 S
C4231 C1100 1.606 . S
C4236 C736 1.569 . S
C4247 C1072 1.598 1_545 S
C4252 C764 1.574 1_565 S
C4263 C848 1.539 . S
C4268 C792 1.553 . S
C4279 C806 1.598 . S
C4284 C862 1.558 . S
C4295 C820 1.548 . S
C4300 C876 1.540 . S
C4311 C890 1.610 . S
C4316 C834 1.576 . S
C4327 C988 1.576 . S
C4332 C932 1.610 . S
C4343 C1128 1.596 . S
C4348 C1184 1.615 . S
C4359 C1142 1.611 . S
C4364 C1198 1.608 . S
C4375 C1156 1.564 . S
C4380 C1212 1.538 . S
C4391 C1226 1.613 . S
C4396 C1170 1.606 . S
C4407 C1324 1.568 . S
C4412 C1268 1.539 . S
