# Generated by pormake.
# Topology upa, (4)-cn, num edge types: 1
# Building blocks:
#     Node 0, Type 0, BuildingBlock: CEKHIL_clean_sbu_0, # of connection points: 4
#     Node 1, Type 0, BuildingBlock: CEKHIL_clean_sbu_0, # of connection points: 4
#     Node 2, Type 0, BuildingBlock: CEKHIL_clean_sbu_0, # of connection points: 4
#     Node 3, Type 0, BuildingBlock: CEKHIL_clean_sbu_0, # of connection points: 4
#     Node 4, Type 0, BuildingBlock: CEKHIL_clean_sbu_0, # of connection points: 4
#     Node 5, Type 0, BuildingBlock: CEKHIL_clean_sbu_0, # of connection points: 4
#     Node 6, Type 0, BuildingBlock: CEKHIL_clean_sbu_0, # of connection points: 4
#     Node 7, Type 0, BuildingBlock: CEKHIL_clean_sbu_0, # of connection points: 4
#     Edge 8, Type (0, 0), BuildingBlock: KIFKEQ_clean_linker_1, # of connection points: 2
#     Edge 9, Type (0, 0), BuildingBlock: KIFKEQ_clean_linker_1, # of connection points: 2
#     Edge 10, Type (0, 0), BuildingBlock: KIFKEQ_clean_linker_1, # of connection points: 2
#     Edge 11, Type (0, 0), BuildingBlock: KIFKEQ_clean_linker_1, # of connection points: 2
#     Edge 12, Type (0, 0), BuildingBlock: KIFKEQ_clean_linker_1, # of connection points: 2
#     Edge 13, Type (0, 0), BuildingBlock: KIFKEQ_clean_linker_1, # of connection points: 2
#     Edge 14, Type (0, 0), BuildingBlock: KIFKEQ_clean_linker_1, # of connection points: 2
#     Edge 15, Type (0, 0), BuildingBlock: KIFKEQ_clean_linker_1, # of connection points: 2
#     Edge 16, Type (0, 0), BuildingBlock: KIFKEQ_clean_linker_1, # of connection points: 2
#     Edge 17, Type (0, 0), BuildingBlock: KIFKEQ_clean_linker_1, # of connection points: 2
#     Edge 18, Type (0, 0), BuildingBlock: KIFKEQ_clean_linker_1, # of connection points: 2
#     Edge 19, Type (0, 0), BuildingBlock: KIFKEQ_clean_linker_1, # of connection points: 2
#     Edge 20, Type (0, 0), BuildingBlock: KIFKEQ_clean_linker_1, # of connection points: 2
#     Edge 21, Type (0, 0), BuildingBlock: KIFKEQ_clean_linker_1, # of connection points: 2
#     Edge 22, Type (0, 0), BuildingBlock: KIFKEQ_clean_linker_1, # of connection points: 2
#     Edge 23, Type (0, 0), BuildingBlock: KIFKEQ_clean_linker_1, # of connection points: 2
# Relax obj value: 0.235
# Max RMSD: 0.138
# Mean RMSD: 0.138
data_MOF--net-upa--node1-CEKHIL_clean_sbu_0--edge1-KIFKEQ_clean_linker_1
_symmetry_space_group_name_H-M    P1
_symmetry_Int_Tables_number       1
_symmetry_cell_setting            triclinic
loop_
_symmetry_equiv_pos_as_xyz
'x, y, z'
_cell_length_a     26.093258
_cell_length_b     26.077085
_cell_length_c     43.360684
_cell_angle_alpha  89.918693
_cell_angle_beta   90.053306
_cell_angle_gamma 89.974607
loop_
_atom_site_label
_atom_site_type_symbol
_atom_site_fract_x
_atom_site_fract_y
_atom_site_fract_z
_atom_type_partial_charge
Co0 Co 0.18959 0.23806 0.33705 0.0
O1 O 0.24717 0.27988 0.324 0.0
O2 O 0.25062 0.19634 0.33196 0.0
C3 C 0.1297 0.26782 0.30328 0.0
O4 O 0.13913 0.18151 0.34852 0.0
Co5 Co 0.09101 0.2859 0.36525 0.0
O6 O 0.06164 0.21776 0.35507 0.0
C7 C 0.18191 0.27122 0.40517 0.0
C8 C 0.27405 0.23791 0.32331 0.0
C9 C 0.0901 0.17849 0.35149 0.0
O10 O 0.20623 0.25001 0.38254 0.0
O11 O 0.13709 0.29067 0.40218 0.0
O12 O 0.16392 0.23465 0.29465 0.0
O13 O 0.13724 0.28705 0.33041 0.0
Co14 Co 0.27352 0.68931 0.83684 0.0
O15 O 0.23211 0.74654 0.82277 0.0
O16 O 0.31554 0.74994 0.83103 0.0
C17 C 0.24445 0.62785 0.80406 0.0
O18 O 0.3293 0.63889 0.84943 0.0
Co19 Co 0.22287 0.59403 0.86734 0.0
O20 O 0.29221 0.56386 0.86207 0.0
C21 C 0.2371 0.68721 0.90457 0.0
C22 C 0.2741 0.77332 0.82207 0.0
C23 C 0.33182 0.59094 0.85647 0.0
O24 O 0.26147 0.70816 0.8819 0.0
O25 O 0.21491 0.64357 0.90242 0.0
O26 O 0.27751 0.66185 0.79496 0.0
O27 O 0.2244 0.63689 0.83083 0.0
Co28 Co 0.81709 0.77386 0.3362 0.0
O29 O 0.7596 0.73209 0.32305 0.0
O30 O 0.75638 0.81582 0.33026 0.0
C31 C 0.87758 0.74333 0.30326 0.0
O32 O 0.86773 0.83006 0.34772 0.0
Co33 Co 0.91385 0.72491 0.36613 0.0
O34 O 0.94427 0.79297 0.35654 0.0
C35 C 0.8215 0.73973 0.40429 0.0
C36 C 0.7329 0.77414 0.32186 0.0
C37 C 0.91654 0.83253 0.35193 0.0
O38 O 0.79938 0.76302 0.38156 0.0
O39 O 0.86547 0.71824 0.40193 0.0
O40 O 0.84363 0.7764 0.29403 0.0
O41 O 0.86924 0.72444 0.33043 0.0
Co42 Co 0.73368 0.31593 0.83768 0.0
O43 O 0.77444 0.25883 0.823 0.0
O44 O 0.69115 0.25564 0.83172 0.0
C45 C 0.76249 0.37762 0.80502 0.0
O46 O 0.67849 0.36642 0.85088 0.0
Co47 Co 0.78523 0.41038 0.86821 0.0
O48 O 0.71616 0.44132 0.863 0.0
C49 C 0.77086 0.31687 0.9053 0.0
C50 C 0.73231 0.2323 0.82233 0.0
C51 C 0.67631 0.41444 0.85767 0.0
O52 O 0.74651 0.29611 0.88256 0.0
O53 O 0.79296 0.36057 0.90326 0.0
O54 O 0.72858 0.34439 0.7961 0.0
O55 O 0.78328 0.368 0.83154 0.0
Co56 Co 0.68983 0.27303 0.19398 0.0
O57 O 0.74715 0.23146 0.20776 0.0
O58 O 0.75049 0.315 0.19971 0.0
C59 C 0.62859 0.24369 0.22683 0.0
O60 O 0.63933 0.329 0.18174 0.0
Co61 Co 0.59435 0.22279 0.16357 0.0
O62 O 0.56412 0.292 0.16952 0.0
C63 C 0.68735 0.23692 0.12619 0.0
C64 C 0.77393 0.27346 0.20848 0.0
C65 C 0.59125 0.33159 0.17513 0.0
O66 O 0.70836 0.26129 0.14883 0.0
O67 O 0.64372 0.21476 0.12841 0.0
O68 O 0.66266 0.27665 0.23595 0.0
O69 O 0.63745 0.22387 0.19998 0.0
Co70 Co 0.2377 0.18911 0.69316 0.0
O71 O 0.27963 0.24659 0.70621 0.0
O72 O 0.19604 0.25009 0.69869 0.0
C73 C 0.26768 0.12871 0.72651 0.0
O74 O 0.18109 0.13865 0.68188 0.0
Co75 Co 0.28595 0.09136 0.6641 0.0
O76 O 0.21687 0.06211 0.67146 0.0
C77 C 0.27092 0.18293 0.62493 0.0
C78 C 0.23769 0.27347 0.7072 0.0
C79 C 0.17775 0.09017 0.67651 0.0
O80 O 0.24904 0.20638 0.64766 0.0
O81 O 0.29123 0.13845 0.62769 0.0
O82 O 0.23477 0.16295 0.73546 0.0
O83 O 0.28676 0.13668 0.69938 0.0
Co84 Co 0.31666 0.73539 0.19337 0.0
O85 O 0.25936 0.77708 0.20688 0.0
O86 O 0.25615 0.69336 0.1996 0.0
C87 C 0.37794 0.76562 0.2259 0.0
O88 O 0.36724 0.67934 0.18154 0.0
Co89 Co 0.41188 0.78537 0.1625 0.0
O90 O 0.44225 0.71629 0.16885 0.0
C91 C 0.31869 0.77031 0.12532 0.0
C92 C 0.23271 0.73502 0.20807 0.0
C93 C 0.41526 0.67674 0.1748 0.0
O94 O 0.29783 0.74621 0.14815 0.0
O95 O 0.36223 0.79268 0.12737 0.0
O96 O 0.34408 0.73268 0.23534 0.0
O97 O 0.36887 0.78484 0.19888 0.0
Co98 Co 0.77253 0.81747 0.694 0.0
O99 O 0.73075 0.75933 0.7062 0.0
O100 O 0.81498 0.75743 0.70091 0.0
C101 C 0.74007 0.87779 0.72633 0.0
O102 O 0.82865 0.86885 0.68357 0.0
Co103 Co 0.72347 0.91324 0.66294 0.0
O104 O 0.792 0.94393 0.67048 0.0
C105 C 0.74018 0.82053 0.62559 0.0
C106 C 0.77314 0.73337 0.7083 0.0
C107 C 0.83134 0.917 0.67705 0.0
O108 O 0.7641 0.79954 0.64847 0.0
O109 O 0.71724 0.86381 0.62769 0.0
O110 O 0.77273 0.84392 0.73615 0.0
O111 O 0.72232 0.86919 0.69891 0.0
H112 H 0.99216 0.15622 0.33471 0.0
H113 H 0.13224 0.08595 0.36692 0.0
H114 H 0.95066 0.07281 0.3338 0.0
H115 H 0.09011 1.00257 0.3676 0.0
H116 H 0.016 0.85352 0.33781 0.0
H117 H 0.05798 0.93675 0.33663 0.0
H118 H 0.91658 0.00891 0.3654 0.0
H119 H 0.87413 0.92576 0.36497 0.0
C120 C 0.0139 0.12289 0.34194 0.0
C121 C 0.06538 0.12757 0.35098 0.0
C122 C 0.99001 0.07502 0.34161 0.0
C123 C 0.01678 0.03072 0.35082 0.0
C124 C 0.06842 0.03557 0.35986 0.0
C125 C 0.09259 0.08341 0.35966 0.0
C126 C 0.99395 0.88724 0.34389 0.0
C127 C 0.9418 0.88318 0.35153 0.0
C128 C 0.0181 0.93501 0.3434 0.0
C129 C 0.99088 0.97981 0.35102 0.0
C130 C 0.93865 0.97552 0.35881 0.0
C131 C 0.91428 0.9278 0.35877 0.0
H132 H 0.42512 0.63107 0.84031 0.0
H133 H 0.35373 0.4935 0.8758 0.0
H134 H 0.50809 0.5882 0.84111 0.0
H135 H 0.43675 0.45128 0.87729 0.0
H136 H 0.65496 0.51277 0.87552 0.0
H137 H 0.57205 0.55539 0.87636 0.0
H138 H 0.50011 0.41736 0.84234 0.0
H139 H 0.58283 0.37418 0.8422 0.0
C140 C 0.42711 0.59188 0.84852 0.0
C141 C 0.38266 0.56575 0.85791 0.0
C142 C 0.47475 0.56737 0.84911 0.0
C143 C 0.47903 0.51626 0.85921 0.0
C144 C 0.43468 0.49037 0.86891 0.0
C145 C 0.38708 0.51476 0.86822 0.0
C146 C 0.62148 0.49135 0.86832 0.0
C147 C 0.62563 0.43994 0.85884 0.0
C148 C 0.57396 0.51597 0.86861 0.0
C149 C 0.52946 0.48985 0.85935 0.0
C150 C 0.53354 0.43838 0.85003 0.0
C151 C 0.58105 0.41368 0.84982 0.0
H152 H 0.49309 0.3536 0.15726 0.0
H153 H 0.63177 0.42482 0.19114 0.0
H154 H 0.45083 0.43667 0.15652 0.0
H155 H 0.58889 0.50782 0.19109 0.0
H156 H 0.37505 0.58361 0.19143 0.0
H157 H 0.41795 0.50061 0.1915 0.0
H158 H 0.55546 0.57161 0.15607 0.0
H159 H 0.5132 0.65467 0.1567 0.0
C160 C 0.51459 0.38692 0.16465 0.0
C161 C 0.56594 0.38245 0.17423 0.0
C162 C 0.49017 0.43455 0.1644 0.0
C163 C 0.51639 0.47888 0.17383 0.0
C164 C 0.56778 0.47451 0.1833 0.0
C165 C 0.59231 0.42685 0.18345 0.0
C166 C 0.41439 0.58154 0.18359 0.0
C167 C 0.44061 0.6259 0.17409 0.0
C168 C 0.43893 0.53389 0.1835 0.0
C169 C 0.49018 0.52947 0.17381 0.0
C170 C 0.51624 0.57376 0.16413 0.0
C171 C 0.49182 0.62139 0.16431 0.0
H172 H 0.15432 0.99176 0.66007 0.0
H173 H 0.08525 0.13244 0.69254 0.0
H174 H 0.07087 0.95056 0.66017 0.0
H175 H 1.00173 0.09058 0.69338 0.0
H176 H 0.85397 0.01519 0.65936 0.0
H177 H 0.93719 0.05704 0.65908 0.0
H178 H 0.00689 0.91923 0.69538 0.0
H179 H 0.9238 0.87674 0.69492 0.0
C180 C 0.12139 0.01392 0.66737 0.0
C181 C 0.12658 0.06553 0.67626 0.0
C182 C 0.07351 0.9901 0.66762 0.0
C183 C 0.02961 0.01716 0.6769 0.0
C184 C 0.0347 0.06881 0.68573 0.0
C185 C 0.08263 0.09276 0.68536 0.0
C186 C 0.88699 0.99368 0.66728 0.0
C187 C 0.88212 0.94245 0.67706 0.0
C188 C 0.93471 0.01788 0.6673 0.0
C189 C 0.97874 0.99155 0.67722 0.0
C190 C 0.97387 0.9404 0.68715 0.0
C191 C 0.92615 0.9161 0.68702 0.0
H192 H 0.13686 0.30276 0.45888 0.0
H193 H 0.2762 0.23432 0.42428 0.0
H194 H 0.1653 0.28849 0.51122 0.0
H195 H 0.3061 0.22214 0.47718 0.0
H196 H 0.30513 0.13999 0.57119 0.0
H197 H 0.2903 0.16845 0.51891 0.0
H198 H 0.21784 0.30608 0.55323 0.0
H199 H 0.23065 0.27605 0.60606 0.0
C200 C 0.17424 0.28561 0.46234 0.0
C201 C 0.20388 0.26921 0.43704 0.0
C202 C 0.19085 0.27775 0.49267 0.0
C203 C 0.23802 0.25369 0.49888 0.0
C204 C 0.26901 0.23975 0.47354 0.0
C205 C 0.25207 0.24715 0.44306 0.0
C206 C 0.28651 0.1767 0.56781 0.0
C207 C 0.2686 0.20534 0.59316 0.0
C208 C 0.27831 0.19335 0.53752 0.0
C209 C 0.25239 0.23956 0.5314 0.0
C210 C 0.23693 0.26969 0.5568 0.0
C211 C 0.24469 0.2527 0.58724 0.0
H212 H 0.17048 0.67454 0.95278 0.0
H213 H 0.30999 0.7526 0.92739 0.0
H214 H 0.1813 0.70241 1.00594 0.0
H215 H 0.32261 0.77822 0.98074 0.0
H216 H 0.33029 0.83703 0.07702 0.0
H217 H 0.30258 0.8257 0.02385 0.0
H218 H 0.22895 0.68322 0.04924 0.0
H219 H 0.25438 0.69635 0.10262 0.0
C220 C 0.20332 0.69808 0.95852 0.0
C221 C 0.23941 0.7112 0.93573 0.0
C222 C 0.20992 0.71366 0.9892 0.0
C223 C 0.25335 0.74205 0.99821 0.0
C224 C 0.28825 0.75705 0.97502 0.0
C225 C 0.28113 0.74221 0.94422 0.0
C226 C 0.30726 0.8038 0.07132 0.0
C227 C 0.29469 0.76755 0.09416 0.0
C228 C 0.29178 0.79692 0.04063 0.0
C229 C 0.26407 0.75301 0.03167 0.0
C230 C 0.24959 0.71792 0.05492 0.0
C231 C 0.26431 0.72534 0.08573 0.0
H232 H 0.67318 0.83146 0.57744 0.0
H233 H 0.81532 0.75784 0.60258 0.0
H234 H 0.68456 0.80422 0.52424 0.0
H235 H 0.82847 0.73287 0.54912 0.0
H236 H 0.83627 0.67385 0.45271 0.0
H237 H 0.8094 0.68474 0.50604 0.0
H238 H 0.73115 0.82494 0.48085 0.0
H239 H 0.75583 0.81221 0.42733 0.0
C240 C 0.70677 0.80907 0.57163 0.0
C241 C 0.74338 0.79696 0.59435 0.0
C242 C 0.71367 0.79385 0.54092 0.0
C243 C 0.75794 0.76688 0.53181 0.0
C244 C 0.79348 0.75293 0.55493 0.0
C245 C 0.78607 0.76739 0.58578 0.0
C246 C 0.81245 0.70648 0.4585 0.0
C247 C 0.79831 0.7422 0.43566 0.0
C248 C 0.79744 0.71311 0.48927 0.0
C249 C 0.76861 0.75624 0.49832 0.0
C250 C 0.75269 0.7908 0.4751 0.0
C251 C 0.76697 0.78363 0.44421 0.0
H252 H 0.83766 0.32867 0.95354 0.0
H253 H 0.69729 0.25221 0.92809 0.0
H254 H 0.82624 0.30132 1.00679 0.0
H255 H 0.68407 0.22717 0.98152 0.0
H256 H 0.67479 0.16986 0.07821 0.0
H257 H 0.70295 0.18008 0.02505 0.0
H258 H 0.77861 0.32174 0.04977 0.0
H259 H 0.75272 0.30969 0.10314 0.0
C260 C 0.80452 0.30555 0.95928 0.0
C261 C 0.76836 0.29276 0.93646 0.0
C262 C 0.79757 0.2903 0.99002 0.0
C263 C 0.75368 0.2626 0.99904 0.0
C264 C 0.71875 0.24782 0.9758 0.0
C265 C 0.72623 0.26231 0.94495 0.0
C266 C 0.69833 0.20267 0.07237 0.0
C267 C 0.71135 0.23901 0.09502 0.0
C268 C 0.71409 0.20891 0.04168 0.0
C269 C 0.74255 0.25226 0.03253 0.0
C270 C 0.7574 0.28743 0.0556 0.0
C271 C 0.7424 0.28065 0.08641 0.0
H272 H 0.59501 0.29719 0.27699 0.0
H273 H 0.54813 0.17939 0.21308 0.0
H274 H 0.51092 0.29433 0.30139 0.0
H275 H 0.4636 0.17646 0.23766 0.0
H276 H 0.33342 0.15422 0.30936 0.0
H277 H 0.41963 0.15311 0.28716 0.0
H278 H 0.42197 0.31861 0.28766 0.0
H279 H 0.3359 0.31974 0.30977 0.0
C280 C 0.56691 0.27029 0.26828 0.0
C281 C 0.57847 0.23847 0.24303 0.0
C282 C 0.51846 0.26895 0.28217 0.0
C283 C 0.48024 0.23538 0.27144 0.0
C284 C 0.49219 0.20253 0.24668 0.0
C285 C 0.54062 0.20427 0.23253 0.0
C286 C 0.35246 0.19039 0.30494 0.0
C287 C 0.32768 0.23709 0.31146 0.0
C288 C 0.40177 0.18972 0.29198 0.0
C289 C 0.42787 0.23574 0.28557 0.0
C290 C 0.40332 0.28241 0.29256 0.0
C291 C 0.35383 0.28307 0.30517 0.0
H292 H 0.35774 0.83307 0.8087 0.0
H293 H 0.19231 0.83505 0.8083 0.0
H294 H 0.35881 0.91982 0.78707 0.0
H295 H 0.19339 0.92162 0.78676 0.0
H296 H 0.33275 0.04892 0.71321 0.0
H297 H 0.33589 0.96426 0.73769 0.0
H298 H 0.21712 0.01058 0.80104 0.0
H299 H 0.21401 0.09493 0.77669 0.0
C300 C 0.32159 0.85209 0.80418 0.0
C301 C 0.27492 0.82703 0.8103 0.0
C302 C 0.32222 0.90172 0.79159 0.0
C303 C 0.2762 0.92782 0.78515 0.0
C304 C 0.22957 0.90297 0.79172 0.0
C305 C 0.22894 0.85318 0.80397 0.0
C306 C 0.30773 0.0412 0.73258 0.0
C307 C 0.27317 0.07881 0.74296 0.0
C308 C 0.3096 0.99269 0.74667 0.0
C309 C 0.27654 0.98041 0.77126 0.0
C310 C 0.24268 0.01842 0.78195 0.0
C311 C 0.24119 0.067 0.7681 0.0
H312 H 0.67104 0.6921 0.30911 0.0
H313 H 0.67359 0.85759 0.30704 0.0
H314 H 0.58485 0.69274 0.28713 0.0
H315 H 0.58719 0.85821 0.28496 0.0
H316 H 0.41187 0.71365 0.27667 0.0
H317 H 0.49611 0.71736 0.30092 0.0
H318 H 0.54276 0.83358 0.23578 0.0
H319 H 0.45807 0.82981 0.21135 0.0
C320 C 0.65311 0.72867 0.30415 0.0
C321 C 0.6793 0.77478 0.30995 0.0
C322 C 0.60354 0.72905 0.29163 0.0
C323 C 0.57894 0.77554 0.28424 0.0
C324 C 0.60509 0.82171 0.29011 0.0
C325 C 0.6545 0.82134 0.30299 0.0
C326 C 0.43985 0.74037 0.26761 0.0
C327 C 0.42808 0.77146 0.24202 0.0
C328 C 0.48838 0.74221 0.28143 0.0
C329 C 0.52645 0.77554 0.27025 0.0
C330 C 0.51427 0.80771 0.24514 0.0
C331 C 0.46576 0.80548 0.23108 0.0
H332 H 0.81372 0.17005 0.80916 0.0
H333 H 0.64834 0.17389 0.80739 0.0
H334 H 0.81242 0.08394 0.78716 0.0
H335 H 0.64708 0.08754 0.78518 0.0
H336 H 0.79022 0.91109 0.77778 0.0
H337 H 0.78634 0.99535 0.8019 0.0
H338 H 0.67245 0.04301 0.73554 0.0
H339 H 0.67648 0.95828 0.71115 0.0
C340 C 0.77704 0.15244 0.80423 0.0
C341 C 0.73114 0.17891 0.81016 0.0
C342 C 0.77628 0.10292 0.7917 0.0
C343 C 0.72963 0.07869 0.7844 0.0
C344 C 0.68367 0.10518 0.79031 0.0
C345 C 0.68441 0.15454 0.80324 0.0
C346 C 0.76394 0.93927 0.76842 0.0
C347 C 0.73366 0.9278 0.74246 0.0
C348 C 0.76201 0.98779 0.78217 0.0
C349 C 0.72935 0.02616 0.77057 0.0
C350 C 0.69782 0.01427 0.74518 0.0
C351 C 0.70019 0.96575 0.73116 0.0
H352 H 0.09546 0.21245 0.25384 0.0
H353 H 0.05048 0.33391 0.3157 0.0
H354 H 0.01105 0.21515 0.2296 0.0
H355 H 0.9658 0.33662 0.29139 0.0
H356 H 0.83425 0.35706 0.22094 0.0
H357 H 0.92114 0.35815 0.2422 0.0
H358 H 0.92208 0.19263 0.24392 0.0
H359 H 0.83536 0.19154 0.22268 0.0
C360 C 0.06776 0.24016 0.26208 0.0
C361 C 0.07988 0.27304 0.28673 0.0
C362 C 0.01914 0.2414 0.24831 0.0
C363 C 0.98139 0.27592 0.25859 0.0
C364 C 0.994 0.30982 0.28269 0.0
C365 C 0.04253 0.30821 0.29669 0.0
C366 C 0.85311 0.32089 0.22568 0.0
C367 C 0.82775 0.2742 0.22004 0.0
C368 C 0.90284 0.32153 0.23807 0.0
C369 C 0.92875 0.2755 0.24481 0.0
C370 C 0.9036 0.22883 0.23871 0.0
C371 C 0.85372 0.2282 0.22664 0.0
H372 H 0.15424 0.33292 0.72147 0.0
H373 H 0.31965 0.33511 0.72068 0.0
H374 H 0.1534 0.41906 0.74382 0.0
H375 H 0.31881 0.42109 0.74294 0.0
H376 H 0.29784 0.5942 0.75388 0.0
H377 H 0.29476 0.51014 0.72944 0.0
H378 H 0.17696 0.46289 0.79325 0.0
H379 H 0.1801 0.54741 0.81787 0.0
C380 C 0.19044 0.35188 0.72585 0.0
C381 C 0.23703 0.32704 0.71917 0.0
C382 C 0.18994 0.40115 0.73889 0.0
C383 C 0.23602 0.42715 0.74523 0.0
C384 C 0.28256 0.40253 0.7381 0.0
C385 C 0.28307 0.35308 0.7254 0.0
C386 C 0.27092 0.56612 0.76261 0.0
C387 C 0.23917 0.57771 0.78788 0.0
C388 C 0.26945 0.51769 0.74869 0.0
C389 C 0.23583 0.47949 0.75942 0.0
C390 C 0.20307 0.49146 0.78422 0.0
C391 C 0.20493 0.53988 0.79839 0.0
H392 H 0.17302 0.65159 0.22215 0.0
H393 H 0.17115 0.81712 0.22128 0.0
H394 H 0.08643 0.65095 0.24383 0.0
H395 H 0.08479 0.81647 0.2429 0.0
H396 H 0.9572 0.6782 0.31718 0.0
H397 H 0.04188 0.67459 0.29292 0.0
H398 H 0.99598 0.79276 0.22877 0.0
H399 H 0.91167 0.79634 0.25291 0.0
C400 C 0.15406 0.68785 0.2264 0.0
C401 C 0.17909 0.73442 0.21989 0.0
C402 C 0.10453 0.68747 0.23904 0.0
C403 C 0.07851 0.73365 0.24514 0.0
C404 C 0.10336 0.78017 0.2382 0.0
C405 C 0.15304 0.78055 0.2259 0.0
C406 C 0.96503 0.70299 0.29768 0.0
C407 C 0.92754 0.73751 0.28701 0.0
C408 C 0.01355 0.70085 0.28372 0.0
C409 C 0.02595 0.7336 0.25896 0.0
C410 C 0.98806 0.76744 0.24801 0.0
C411 C 0.9395 0.76919 0.26173 0.0
H412 H 0.84833 0.43534 0.79371 0.0
H413 H 0.68424 0.43533 0.78309 0.0
H414 H 0.85305 0.51851 0.76803 0.0
H415 H 0.68744 0.52011 0.76037 0.0
H416 H 0.70141 0.6585 0.70002 0.0
H417 H 0.70126 0.57198 0.72083 0.0
H418 H 0.84454 0.60358 0.76768 0.0
H419 H 0.84635 0.68815 0.7441 0.0
C420 C 0.81321 0.45359 0.78611 0.0
C421 C 0.76607 0.42862 0.78997 0.0
C422 C 0.81561 0.50179 0.7716 0.0
C423 C 0.77063 0.52726 0.7616 0.0
C424 C 0.72339 0.50209 0.76641 0.0
C425 C 0.72131 0.45327 0.77983 0.0
C426 C 0.73307 0.64647 0.71451 0.0
C427 C 0.77393 0.68001 0.72032 0.0
C428 C 0.73285 0.59678 0.72694 0.0
C429 C 0.77257 0.57968 0.74666 0.0
C430 C 0.81354 0.61383 0.7523 0.0
C431 C 0.81455 0.66287 0.73892 0.0
loop_
_geom_bond_atom_site_label_1
_geom_bond_atom_site_label_2
_geom_bond_distance
_geom_bond_site_symmetry_2
_ccdc_geom_bond_type
Co0 O1 2.216 . S
Co0 O2 2.091 . S
Co0 O4 2.004 . S
Co0 O10 2.021 . S
Co0 O12 2.137 . S
Co0 O13 2.244 . S
O1 Co0 2.216 . S
O1 C8 1.247 . S
O2 Co0 2.091 . S
O2 C8 1.261 . S
C3 O12 1.247 . S
C3 O13 1.272 . S
O4 Co0 2.004 . S
O4 C9 1.259 . S
Co5 O6 2.061 . S
Co5 O11 2.052 . S
Co5 O13 2.135 . S
O6 Co5 2.061 . S
O6 C9 1.235 . S
C7 O10 1.238 . S
C7 O11 1.241 . S
C8 O1 1.247 . S
C8 O2 1.261 . S
C9 O4 1.259 . S
C9 O6 1.235 . S
O10 Co0 2.021 . S
O10 C7 1.238 . S
O11 Co5 2.052 . S
O11 C7 1.241 . S
O12 Co0 2.137 . S
O12 C3 1.247 . S
O13 Co0 2.244 . S
O13 C3 1.272 . S
O13 Co5 2.135 . S
Co14 O15 2.216 . S
Co14 O16 2.091 . S
Co14 O18 2.004 . S
Co14 O24 2.021 . S
Co14 O26 2.137 . S
Co14 O27 2.244 . S
O15 Co14 2.216 . S
O15 C22 1.247 . S
O16 Co14 2.091 . S
O16 C22 1.261 . S
C17 O26 1.247 . S
C17 O27 1.272 . S
O18 Co14 2.004 . S
O18 C23 1.259 . S
Co19 O20 2.061 . S
Co19 O25 2.052 . S
Co19 O27 2.135 . S
O20 Co19 2.061 . S
O20 C23 1.235 . S
C21 O24 1.238 . S
C21 O25 1.241 . S
C22 O15 1.247 . S
C22 O16 1.261 . S
C23 O18 1.259 . S
C23 O20 1.235 . S
O24 Co14 2.021 . S
O24 C21 1.238 . S
O25 Co19 2.052 . S
O25 C21 1.241 . S
O26 Co14 2.137 . S
O26 C17 1.247 . S
O27 Co14 2.244 . S
O27 C17 1.272 . S
O27 Co19 2.135 . S
Co28 O29 2.216 . S
Co28 O30 2.091 . S
Co28 O32 2.004 . S
Co28 O38 2.021 . S
Co28 O40 2.137 . S
Co28 O41 2.244 . S
O29 Co28 2.216 . S
O29 C36 1.247 . S
O30 Co28 2.091 . S
O30 C36 1.261 . S
C31 O40 1.247 . S
C31 O41 1.272 . S
O32 Co28 2.004 . S
O32 C37 1.259 . S
Co33 O34 2.061 . S
Co33 O39 2.052 . S
Co33 O41 2.135 . S
O34 Co33 2.061 . S
O34 C37 1.235 . S
C35 O38 1.238 . S
C35 O39 1.241 . S
C36 O29 1.247 . S
C36 O30 1.261 . S
C37 O32 1.259 . S
C37 O34 1.235 . S
O38 Co28 2.021 . S
O38 C35 1.238 . S
O39 Co33 2.052 . S
O39 C35 1.241 . S
O40 Co28 2.137 . S
O40 C31 1.247 . S
O41 Co28 2.244 . S
O41 C31 1.272 . S
O41 Co33 2.135 . S
Co42 O43 2.216 . S
Co42 O44 2.091 . S
Co42 O46 2.004 . S
Co42 O52 2.021 . S
Co42 O54 2.137 . S
Co42 O55 2.244 . S
O43 Co42 2.216 . S
O43 C50 1.247 . S
O44 Co42 2.091 . S
O44 C50 1.261 . S
C45 O54 1.247 . S
C45 O55 1.272 . S
O46 Co42 2.004 . S
O46 C51 1.259 . S
Co47 O48 2.061 . S
Co47 O53 2.052 . S
Co47 O55 2.135 . S
O48 Co47 2.061 . S
O48 C51 1.235 . S
C49 O52 1.238 . S
C49 O53 1.241 . S
C50 O43 1.247 . S
C50 O44 1.261 . S
C51 O46 1.259 . S
C51 O48 1.235 . S
O52 Co42 2.021 . S
O52 C49 1.238 . S
O53 Co47 2.052 . S
O53 C49 1.241 . S
O54 Co42 2.137 . S
O54 C45 1.247 . S
O55 Co42 2.244 . S
O55 C45 1.272 . S
O55 Co47 2.135 . S
Co56 O57 2.216 . S
Co56 O58 2.091 . S
Co56 O60 2.004 . S
Co56 O66 2.021 . S
Co56 O68 2.137 . S
Co56 O69 2.244 . S
O57 Co56 2.216 . S
O57 C64 1.247 . S
O58 Co56 2.091 . S
O58 C64 1.261 . S
C59 O68 1.247 . S
C59 O69 1.272 . S
O60 Co56 2.004 . S
O60 C65 1.259 . S
Co61 O62 2.061 . S
Co61 O67 2.052 . S
Co61 O69 2.135 . S
O62 Co61 2.061 . S
O62 C65 1.235 . S
C63 O66 1.238 . S
C63 O67 1.241 . S
C64 O57 1.247 . S
C64 O58 1.261 . S
C65 O60 1.259 . S
C65 O62 1.235 . S
O66 Co56 2.021 . S
O66 C63 1.238 . S
O67 Co61 2.052 . S
O67 C63 1.241 . S
O68 Co56 2.137 . S
O68 C59 1.247 . S
O69 Co56 2.244 . S
O69 C59 1.272 . S
O69 Co61 2.135 . S
Co70 O71 2.216 . S
Co70 O72 2.091 . S
Co70 O74 2.004 . S
Co70 O80 2.021 . S
Co70 O82 2.137 . S
Co70 O83 2.244 . S
O71 Co70 2.216 . S
O71 C78 1.247 . S
O72 Co70 2.091 . S
O72 C78 1.261 . S
C73 O82 1.247 . S
C73 O83 1.272 . S
O74 Co70 2.004 . S
O74 C79 1.259 . S
Co75 O76 2.061 . S
Co75 O81 2.052 . S
Co75 O83 2.135 . S
O76 Co75 2.061 . S
O76 C79 1.235 . S
C77 O80 1.238 . S
C77 O81 1.241 . S
C78 O71 1.247 . S
C78 O72 1.261 . S
C79 O74 1.259 . S
C79 O76 1.235 . S
O80 Co70 2.021 . S
O80 C77 1.238 . S
O81 Co75 2.052 . S
O81 C77 1.241 . S
O82 Co70 2.137 . S
O82 C73 1.247 . S
O83 Co70 2.244 . S
O83 C73 1.272 . S
O83 Co75 2.135 . S
Co84 O85 2.216 . S
Co84 O86 2.091 . S
Co84 O88 2.004 . S
Co84 O94 2.021 . S
Co84 O96 2.137 . S
Co84 O97 2.244 . S
O85 Co84 2.216 . S
O85 C92 1.247 . S
O86 Co84 2.091 . S
O86 C92 1.261 . S
C87 O96 1.247 . S
C87 O97 1.272 . S
O88 Co84 2.004 . S
O88 C93 1.259 . S
Co89 O90 2.061 . S
Co89 O95 2.052 . S
Co89 O97 2.135 . S
O90 Co89 2.061 . S
O90 C93 1.235 . S
C91 O94 1.238 . S
C91 O95 1.241 . S
C92 O85 1.247 . S
C92 O86 1.261 . S
C93 O88 1.259 . S
C93 O90 1.235 . S
O94 Co84 2.021 . S
O94 C91 1.238 . S
O95 Co89 2.052 . S
O95 C91 1.241 . S
O96 Co84 2.137 . S
O96 C87 1.247 . S
O97 Co84 2.244 . S
O97 C87 1.272 . S
O97 Co89 2.135 . S
Co98 O99 2.216 . S
Co98 O100 2.091 . S
Co98 O102 2.004 . S
Co98 O108 2.021 . S
Co98 O110 2.137 . S
Co98 O111 2.244 . S
O99 Co98 2.216 . S
O99 C106 1.247 . S
O100 Co98 2.091 . S
O100 C106 1.261 . S
C101 O110 1.247 . S
C101 O111 1.272 . S
O102 Co98 2.004 . S
O102 C107 1.259 . S
Co103 O104 2.061 . S
Co103 O109 2.052 . S
Co103 O111 2.135 . S
O104 Co103 2.061 . S
O104 C107 1.235 . S
C105 O108 1.238 . S
C105 O109 1.241 . S
C106 O99 1.247 . S
C106 O100 1.261 . S
C107 O102 1.259 . S
C107 O104 1.235 . S
O108 Co98 2.021 . S
O108 C105 1.238 . S
O109 Co103 2.052 . S
O109 C105 1.241 . S
O110 Co98 2.137 . S
O110 C101 1.247 . S
O111 Co98 2.244 . S
O111 C101 1.272 . S
O111 Co103 2.135 . S
H112 C120 0.950 . S
H113 C125 0.950 . S
H114 C122 0.950 1_655 S
H115 C124 0.950 1_565 S
H116 C126 0.950 . S
H117 C128 0.950 1_455 S
H118 C130 0.950 1_545 S
H119 C131 0.950 . S
C120 H112 0.950 . S
C120 C121 1.386 . S
C120 C122 1.391 . S
C121 C120 1.386 . S
C121 C125 1.393 . S
C122 H114 0.950 1_455 S
C122 C120 1.391 . S
C122 C123 1.400 . S
C123 C122 1.400 . S
C123 C124 1.398 . S
C123 C129 1.491 1_445 S
C124 H115 0.950 1_545 S
C124 C123 1.398 . S
C124 C125 1.391 . S
C125 H113 0.950 . S
C125 C121 1.393 . S
C125 C124 1.391 . S
C126 H116 0.950 . S
C126 C127 1.386 . S
C126 C128 1.391 . S
C127 C126 1.386 . S
C127 C131 1.393 . S
C128 H117 0.950 1_655 S
C128 C126 1.391 . S
C128 C129 1.400 . S
C129 C123 1.491 1_665 S
C129 C128 1.400 . S
C129 C130 1.398 . S
C130 H118 0.950 1_565 S
C130 C129 1.398 . S
C130 C131 1.391 . S
C131 H119 0.950 . S
C131 C127 1.393 . S
C131 C130 1.391 . S
H132 C140 0.950 . S
H133 C145 0.950 . S
H134 C142 0.950 . S
H135 C144 0.950 . S
H136 C146 0.950 . S
H137 C148 0.950 . S
H138 C150 0.950 . S
H139 C151 0.950 . S
C140 H132 0.950 . S
C140 C141 1.386 . S
C140 C142 1.391 . S
C141 C140 1.386 . S
C141 C145 1.393 . S
C142 H134 0.950 . S
C142 C140 1.391 . S
C142 C143 1.400 . S
C143 C142 1.400 . S
C143 C144 1.398 . S
C143 C149 1.491 . S
C144 H135 0.950 . S
C144 C143 1.398 . S
C144 C145 1.391 . S
C145 H133 0.950 . S
C145 C141 1.393 . S
C145 C144 1.391 . S
C146 H136 0.950 . S
C146 C147 1.386 . S
C146 C148 1.391 . S
C147 C146 1.386 . S
C147 C151 1.393 . S
C148 H137 0.950 . S
C148 C146 1.391 . S
C148 C149 1.400 . S
C149 C143 1.491 . S
C149 C148 1.400 . S
C149 C150 1.398 . S
C150 H138 0.950 . S
C150 C149 1.398 . S
C150 C151 1.391 . S
C151 H139 0.950 . S
C151 C147 1.393 . S
C151 C150 1.391 . S
H152 C160 0.950 . S
H153 C165 0.950 . S
H154 C162 0.950 . S
H155 C164 0.950 . S
H156 C166 0.950 . S
H157 C168 0.950 . S
H158 C170 0.950 . S
H159 C171 0.950 . S
C160 H152 0.950 . S
C160 C161 1.386 . S
C160 C162 1.391 . S
C161 C160 1.386 . S
C161 C165 1.393 . S
C162 H154 0.950 . S
C162 C160 1.391 . S
C162 C163 1.400 . S
C163 C162 1.400 . S
C163 C164 1.398 . S
C163 C169 1.491 . S
C164 H155 0.950 . S
C164 C163 1.398 . S
C164 C165 1.391 . S
C165 H153 0.950 . S
C165 C161 1.393 . S
C165 C164 1.391 . S
C166 H156 0.950 . S
C166 C167 1.386 . S
C166 C168 1.391 . S
C167 C166 1.386 . S
C167 C171 1.393 . S
C168 H157 0.950 . S
C168 C166 1.391 . S
C168 C169 1.400 . S
C169 C163 1.491 . S
C169 C168 1.400 . S
C169 C170 1.398 . S
C170 H158 0.950 . S
C170 C169 1.398 . S
C170 C171 1.391 . S
C171 H159 0.950 . S
C171 C167 1.393 . S
C171 C170 1.391 . S
H172 C180 0.950 . S
H173 C185 0.950 . S
H174 C182 0.952 . S
H175 C184 0.950 . S
H176 C186 0.950 . S
H177 C188 0.952 . S
H178 C190 0.950 . S
H179 C191 0.950 . S
C180 H172 0.950 . S
C180 C181 1.386 . S
C180 C182 1.391 . S
C181 C180 1.386 . S
C181 C185 1.393 . S
C182 H174 0.952 . S
C182 C180 1.391 . S
C182 C183 1.400 . S
C183 C182 1.400 . S
C183 C184 1.398 . S
C183 C189 1.491 1_445 S
C184 H175 0.950 . S
C184 C183 1.398 . S
C184 C185 1.391 . S
C185 H173 0.950 . S
C185 C181 1.393 . S
C185 C184 1.391 . S
C186 H176 0.950 . S
C186 C187 1.386 . S
C186 C188 1.391 . S
C187 C186 1.386 . S
C187 C191 1.393 . S
C188 H177 0.952 . S
C188 C186 1.391 . S
C188 C189 1.400 . S
C189 C183 1.491 1_665 S
C189 C188 1.400 . S
C189 C190 1.398 . S
C190 H178 0.950 . S
C190 C189 1.398 . S
C190 C191 1.391 . S
C191 H179 0.950 . S
C191 C187 1.393 . S
C191 C190 1.391 . S
H192 C200 0.950 . S
H193 C205 0.950 . S
H194 C202 0.950 . S
H195 C204 0.950 . S
H196 C206 0.950 . S
H197 C208 0.950 . S
H198 C210 0.950 . S
H199 C211 0.950 . S
C200 H192 0.950 . S
C200 C201 1.386 . S
C200 C202 1.391 . S
C201 C200 1.386 . S
C201 C205 1.393 . S
C202 H194 0.950 . S
C202 C200 1.391 . S
C202 C203 1.400 . S
C203 C202 1.400 . S
C203 C204 1.398 . S
C203 C209 1.491 . S
C204 H195 0.950 . S
C204 C203 1.398 . S
C204 C205 1.391 . S
C205 H193 0.950 . S
C205 C201 1.393 . S
C205 C204 1.391 . S
C206 H196 0.950 . S
C206 C207 1.386 . S
C206 C208 1.391 . S
C207 C206 1.386 . S
C207 C211 1.393 . S
C208 H197 0.950 . S
C208 C206 1.391 . S
C208 C209 1.400 . S
C209 C203 1.491 . S
C209 C208 1.400 . S
C209 C210 1.398 . S
C210 H198 0.950 . S
C210 C209 1.398 . S
C210 C211 1.391 . S
C211 H199 0.950 . S
C211 C207 1.393 . S
C211 C210 1.391 . S
H212 C220 0.950 . S
H213 C225 0.950 . S
H214 C222 0.950 . S
H215 C224 0.950 . S
H216 C226 0.950 . S
H217 C228 0.950 . S
H218 C230 0.950 . S
H219 C231 0.950 . S
C220 H212 0.950 . S
C220 C221 1.386 . S
C220 C222 1.391 . S
C221 C220 1.386 . S
C221 C225 1.393 . S
C222 H214 0.950 . S
C222 C220 1.391 . S
C222 C223 1.400 . S
C223 C222 1.400 . S
C223 C224 1.398 . S
C223 C229 1.491 1_556 S
C224 H215 0.950 . S
C224 C223 1.398 . S
C224 C225 1.391 . S
C225 H213 0.950 . S
C225 C221 1.393 . S
C225 C224 1.391 . S
C226 H216 0.950 . S
C226 C227 1.386 . S
C226 C228 1.391 . S
C227 C226 1.386 . S
C227 C231 1.393 . S
C228 H217 0.950 . S
C228 C226 1.391 . S
C228 C229 1.400 . S
C229 C223 1.491 1_554 S
C229 C228 1.400 . S
C229 C230 1.398 . S
C230 H218 0.950 . S
C230 C229 1.398 . S
C230 C231 1.391 . S
C231 H219 0.950 . S
C231 C227 1.393 . S
C231 C230 1.391 . S
H232 C240 0.950 . S
H233 C245 0.950 . S
H234 C242 0.950 . S
H235 C244 0.950 . S
H236 C246 0.950 . S
H237 C248 0.950 . S
H238 C250 0.950 . S
H239 C251 0.950 . S
C240 H232 0.950 . S
C240 C241 1.386 . S
C240 C242 1.391 . S
C241 C240 1.386 . S
C241 C245 1.393 . S
C242 H234 0.950 . S
C242 C240 1.391 . S
C242 C243 1.400 . S
C243 C242 1.400 . S
C243 C244 1.398 . S
C243 C249 1.491 . S
C244 H235 0.950 . S
C244 C243 1.398 . S
C244 C245 1.391 . S
C245 H233 0.950 . S
C245 C241 1.393 . S
C245 C244 1.391 . S
C246 H236 0.950 . S
C246 C247 1.386 . S
C246 C248 1.391 . S
C247 C246 1.386 . S
C247 C251 1.393 . S
C248 H237 0.950 . S
C248 C246 1.391 . S
C248 C249 1.400 . S
C249 C243 1.491 . S
C249 C248 1.400 . S
C249 C250 1.398 . S
C250 H238 0.950 . S
C250 C249 1.398 . S
C250 C251 1.391 . S
C251 H239 0.950 . S
C251 C247 1.393 . S
C251 C250 1.391 . S
H252 C260 0.950 . S
H253 C265 0.950 . S
H254 C262 0.950 . S
H255 C264 0.950 . S
H256 C266 0.950 . S
H257 C268 0.950 . S
H258 C270 0.950 . S
H259 C271 0.950 . S
C260 H252 0.950 . S
C260 C261 1.386 . S
C260 C262 1.391 . S
C261 C260 1.386 . S
C261 C265 1.393 . S
C262 H254 0.950 . S
C262 C260 1.391 . S
C262 C263 1.400 . S
C263 C262 1.400 . S
C263 C264 1.398 . S
C263 C269 1.491 1_556 S
C264 H255 0.950 . S
C264 C263 1.398 . S
C264 C265 1.391 . S
C265 H253 0.950 . S
C265 C261 1.393 . S
C265 C264 1.391 . S
C266 H256 0.950 . S
C266 C267 1.386 . S
C266 C268 1.391 . S
C267 C266 1.386 . S
C267 C271 1.393 . S
C268 H257 0.950 . S
C268 C266 1.391 . S
C268 C269 1.400 . S
C269 C263 1.491 1_554 S
C269 C268 1.400 . S
C269 C270 1.398 . S
C270 H258 0.950 . S
C270 C269 1.398 . S
C270 C271 1.391 . S
C271 H259 0.950 . S
C271 C267 1.393 . S
C271 C270 1.391 . S
H272 C280 0.950 . S
H273 C285 0.950 . S
H274 C282 0.950 . S
H275 C284 0.950 . S
H276 C286 0.950 . S
H277 C288 0.950 . S
H278 C290 0.950 . S
H279 C291 0.950 . S
C280 H272 0.950 . S
C280 C281 1.386 . S
C280 C282 1.391 . S
C281 C280 1.386 . S
C281 C285 1.393 . S
C282 H274 0.950 . S
C282 C280 1.391 . S
C282 C283 1.400 . S
C283 C282 1.400 . S
C283 C284 1.398 . S
C283 C289 1.491 . S
C284 H275 0.950 . S
C284 C283 1.398 . S
C284 C285 1.391 . S
C285 H273 0.950 . S
C285 C281 1.393 . S
C285 C284 1.391 . S
C286 H276 0.950 . S
C286 C287 1.386 . S
C286 C288 1.391 . S
C287 C286 1.386 . S
C287 C291 1.393 . S
C288 H277 0.950 . S
C288 C286 1.391 . S
C288 C289 1.400 . S
C289 C283 1.491 . S
C289 C288 1.400 . S
C289 C290 1.398 . S
C290 H278 0.950 . S
C290 C289 1.398 . S
C290 C291 1.391 . S
C291 H279 0.950 . S
C291 C287 1.393 . S
C291 C290 1.391 . S
H292 C300 0.950 . S
H293 C305 0.950 . S
H294 C302 0.950 . S
H295 C304 0.950 . S
H296 C306 0.950 . S
H297 C308 0.950 . S
H298 C310 0.950 . S
H299 C311 0.950 . S
C300 H292 0.950 . S
C300 C301 1.386 . S
C300 C302 1.391 . S
C301 C300 1.386 . S
C301 C305 1.393 . S
C302 H294 0.950 . S
C302 C300 1.391 . S
C302 C303 1.400 . S
C303 C302 1.400 . S
C303 C304 1.398 . S
C303 C309 1.491 . S
C304 H295 0.950 . S
C304 C303 1.398 . S
C304 C305 1.391 . S
C305 H293 0.950 . S
C305 C301 1.393 . S
C305 C304 1.391 . S
C306 H296 0.950 . S
C306 C307 1.386 1_565 S
C306 C308 1.391 . S
C307 C306 1.386 1_545 S
C307 C311 1.393 . S
C308 H297 0.950 . S
C308 C306 1.391 . S
C308 C309 1.400 . S
C309 C303 1.491 . S
C309 C308 1.400 . S
C309 C310 1.398 . S
C310 H298 0.950 . S
C310 C309 1.398 . S
C310 C311 1.391 1_565 S
C311 H299 0.950 . S
C311 C307 1.393 . S
C311 C310 1.391 1_545 S
H312 C320 0.950 . S
H313 C325 0.950 . S
H314 C322 0.950 . S
H315 C324 0.950 . S
H316 C326 0.950 . S
H317 C328 0.950 . S
H318 C330 0.950 . S
H319 C331 0.950 . S
C320 H312 0.950 . S
C320 C321 1.386 . S
C320 C322 1.391 . S
C321 C320 1.386 . S
C321 C325 1.393 . S
C322 H314 0.950 . S
C322 C320 1.391 . S
C322 C323 1.400 . S
C323 C322 1.400 . S
C323 C324 1.398 . S
C323 C329 1.491 . S
C324 H315 0.950 . S
C324 C323 1.398 . S
C324 C325 1.391 . S
C325 H313 0.950 . S
C325 C321 1.393 . S
C325 C324 1.391 . S
C326 H316 0.950 . S
C326 C327 1.386 . S
C326 C328 1.391 . S
C327 C326 1.386 . S
C327 C331 1.393 . S
C328 H317 0.950 . S
C328 C326 1.391 . S
C328 C329 1.400 . S
C329 C323 1.491 . S
C329 C328 1.400 . S
C329 C330 1.398 . S
C330 H318 0.950 . S
C330 C329 1.398 . S
C330 C331 1.391 . S
C331 H319 0.950 . S
C331 C327 1.393 . S
C331 C330 1.391 . S
H332 C340 0.950 . S
H333 C345 0.950 . S
H334 C342 0.950 . S
H335 C344 0.950 . S
H336 C346 0.950 . S
H337 C348 0.950 . S
H338 C350 0.950 . S
H339 C351 0.950 . S
C340 H332 0.950 . S
C340 C341 1.386 . S
C340 C342 1.391 . S
C341 C340 1.386 . S
C341 C345 1.393 . S
C342 H334 0.950 . S
C342 C340 1.391 . S
C342 C343 1.400 . S
C343 C342 1.400 . S
C343 C344 1.398 . S
C343 C349 1.491 . S
C344 H335 0.950 . S
C344 C343 1.398 . S
C344 C345 1.391 . S
C345 H333 0.950 . S
C345 C341 1.393 . S
C345 C344 1.391 . S
C346 H336 0.950 . S
C346 C347 1.386 . S
C346 C348 1.391 1_565 S
C347 C346 1.386 . S
C347 C351 1.393 1_565 S
C348 H337 0.950 . S
C348 C346 1.391 1_545 S
C348 C349 1.400 . S
C349 C343 1.491 . S
C349 C348 1.400 . S
C349 C350 1.398 . S
C350 H338 0.950 . S
C350 C349 1.398 . S
C350 C351 1.391 . S
C351 H339 0.950 . S
C351 C347 1.393 1_545 S
C351 C350 1.391 . S
H352 C360 0.950 . S
H353 C365 0.950 . S
H354 C362 0.950 . S
H355 C364 0.950 . S
H356 C366 0.950 . S
H357 C368 0.950 . S
H358 C370 0.950 . S
H359 C371 0.950 . S
C360 H352 0.950 . S
C360 C361 1.386 . S
C360 C362 1.391 1_455 S
C361 C360 1.386 . S
C361 C365 1.393 1_455 S
C362 H354 0.950 . S
C362 C360 1.391 1_655 S
C362 C363 1.400 . S
C363 C362 1.400 . S
C363 C364 1.398 . S
C363 C369 1.491 . S
C364 H355 0.950 . S
C364 C363 1.398 . S
C364 C365 1.391 . S
C365 H353 0.950 . S
C365 C361 1.393 1_655 S
C365 C364 1.391 . S
C366 H356 0.950 . S
C366 C367 1.386 . S
C366 C368 1.391 . S
C367 C366 1.386 . S
C367 C371 1.393 . S
C368 H357 0.950 . S
C368 C366 1.391 . S
C368 C369 1.400 . S
C369 C363 1.491 . S
C369 C368 1.400 . S
C369 C370 1.398 . S
C370 H358 0.950 . S
C370 C369 1.398 . S
C370 C371 1.391 . S
C371 H359 0.950 . S
C371 C367 1.393 . S
C371 C370 1.391 . S
H372 C380 0.950 . S
H373 C385 0.950 . S
H374 C382 0.950 . S
H375 C384 0.950 . S
H376 C386 0.950 . S
H377 C388 0.950 . S
H378 C390 0.950 . S
H379 C391 0.950 . S
C380 H372 0.950 . S
C380 C381 1.386 . S
C380 C382 1.391 . S
C381 C380 1.386 . S
C381 C385 1.393 . S
C382 H374 0.950 . S
C382 C380 1.391 . S
C382 C383 1.400 . S
C383 C382 1.400 . S
C383 C384 1.398 . S
C383 C389 1.491 . S
C384 H375 0.950 . S
C384 C383 1.398 . S
C384 C385 1.391 . S
C385 H373 0.950 . S
C385 C381 1.393 . S
C385 C384 1.391 . S
C386 H376 0.950 . S
C386 C387 1.386 . S
C386 C388 1.391 . S
C387 C386 1.386 . S
C387 C391 1.393 . S
C388 H377 0.950 . S
C388 C386 1.391 . S
C388 C389 1.400 . S
C389 C383 1.491 . S
C389 C388 1.400 . S
C389 C390 1.398 . S
C390 H378 0.950 . S
C390 C389 1.398 . S
C390 C391 1.391 . S
C391 H379 0.950 . S
C391 C387 1.393 . S
C391 C390 1.391 . S
H392 C400 0.950 . S
H393 C405 0.950 . S
H394 C402 0.950 . S
H395 C404 0.950 . S
H396 C406 0.950 . S
H397 C408 0.950 . S
H398 C410 0.950 . S
H399 C411 0.950 . S
C400 H392 0.950 . S
C400 C401 1.386 . S
C400 C402 1.391 . S
C401 C400 1.386 . S
C401 C405 1.393 . S
C402 H394 0.950 . S
C402 C400 1.391 . S
C402 C403 1.400 . S
C403 C402 1.400 . S
C403 C404 1.398 . S
C403 C409 1.491 . S
C404 H395 0.950 . S
C404 C403 1.398 . S
C404 C405 1.391 . S
C405 H393 0.950 . S
C405 C401 1.393 . S
C405 C404 1.391 . S
C406 H396 0.950 . S
C406 C407 1.386 1_455 S
C406 C408 1.391 . S
C407 C406 1.386 1_655 S
C407 C411 1.393 . S
C408 H397 0.950 . S
C408 C406 1.391 . S
C408 C409 1.400 . S
C409 C403 1.491 . S
C409 C408 1.400 . S
C409 C410 1.398 . S
C410 H398 0.950 . S
C410 C409 1.398 . S
C410 C411 1.391 1_455 S
C411 H399 0.950 . S
C411 C407 1.393 . S
C411 C410 1.391 1_655 S
H412 C420 0.950 . S
H413 C425 0.950 . S
H414 C422 0.950 . S
H415 C424 0.950 . S
H416 C426 0.950 . S
H417 C428 0.950 . S
H418 C430 0.950 . S
H419 C431 0.950 . S
C420 H412 0.950 . S
C420 C421 1.386 . S
C420 C422 1.391 . S
C421 C420 1.386 . S
C421 C425 1.393 . S
C422 H414 0.950 . S
C422 C420 1.391 . S
C422 C423 1.400 . S
C423 C422 1.400 . S
C423 C424 1.398 . S
C423 C429 1.491 . S
C424 H415 0.950 . S
C424 C423 1.398 . S
C424 C425 1.391 . S
C425 H413 0.950 . S
C425 C421 1.393 . S
C425 C424 1.391 . S
C426 H416 0.950 . S
C426 C427 1.386 . S
C426 C428 1.391 . S
C427 C426 1.386 . S
C427 C431 1.393 . S
C428 H417 0.950 . S
C428 C426 1.391 . S
C428 C429 1.400 . S
C429 C423 1.491 . S
C429 C428 1.400 . S
C429 C430 1.398 . S
C430 H418 0.950 . S
C430 C429 1.398 . S
C430 C431 1.391 . S
C431 H419 0.950 . S
C431 C427 1.393 . S
C431 C430 1.391 . S
C121 C9 0.497 . S
C127 C37 0.490 . S
C141 C23 0.534 . S
C147 C51 0.536 . S
C161 C65 0.476 . S
C167 C93 0.478 . S
C181 C79 0.482 . S
C187 C107 0.478 . S
C201 C7 1.332 . S
C207 C77 1.356 . S
C221 C21 1.328 . S
C227 C91 1.357 . S
C241 C105 1.331 . S
C247 C35 1.357 . S
C261 C49 1.329 . S
C267 C63 1.358 . S
C281 C59 1.722 . S
C287 C8 1.764 . S
C301 C22 1.749 . S
C307 C73 1.705 . S
C321 C36 1.766 . S
C327 C87 1.726 . S
C341 C50 1.767 . S
C347 C101 1.730 . S
C361 C3 1.714 . S
C367 C64 1.758 . S
C381 C78 1.753 . S
C387 C17 1.714 . S
C401 C92 1.749 . S
C407 C31 1.705 . S
C421 C45 1.710 . S
C427 C106 1.751 . S
