# Generated by pormake.
# Topology wkq, (6)-cn, num edge types: 1
# Building blocks:
#     Node 0, Type 0, BuildingBlock: OJICUG_clean_sbu_0, # of connection points: 6
#     Node 1, Type 0, BuildingBlock: OJICUG_clean_sbu_0, # of connection points: 6
#     Node 2, Type 0, BuildingBlock: OJICUG_clean_sbu_0, # of connection points: 6
#     Node 3, Type 0, BuildingBlock: OJICUG_clean_sbu_0, # of connection points: 6
#     Node 4, Type 0, BuildingBlock: OJICUG_clean_sbu_0, # of connection points: 6
#     Node 5, Type 0, BuildingBlock: OJICUG_clean_sbu_0, # of connection points: 6
#     Node 6, Type 0, BuildingBlock: OJICUG_clean_sbu_0, # of connection points: 6
#     Node 7, Type 0, BuildingBlock: OJICUG_clean_sbu_0, # of connection points: 6
#     Node 8, Type 0, BuildingBlock: OJICUG_clean_sbu_0, # of connection points: 6
#     Node 9, Type 0, BuildingBlock: OJICUG_clean_sbu_0, # of connection points: 6
#     Node 10, Type 0, BuildingBlock: OJICUG_clean_sbu_0, # of connection points: 6
#     Node 11, Type 0, BuildingBlock: OJICUG_clean_sbu_0, # of connection points: 6
#     Edge 12, Type (0, 0), BuildingBlock: TEMPAE_clean_linker_10, # of connection points: 2
#     Edge 13, Type (0, 0), BuildingBlock: TEMPAE_clean_linker_10, # of connection points: 2
#     Edge 14, Type (0, 0), BuildingBlock: TEMPAE_clean_linker_10, # of connection points: 2
#     Edge 15, Type (0, 0), BuildingBlock: TEMPAE_clean_linker_10, # of connection points: 2
#     Edge 16, Type (0, 0), BuildingBlock: TEMPAE_clean_linker_10, # of connection points: 2
#     Edge 17, Type (0, 0), BuildingBlock: TEMPAE_clean_linker_10, # of connection points: 2
#     Edge 18, Type (0, 0), BuildingBlock: TEMPAE_clean_linker_10, # of connection points: 2
#     Edge 19, Type (0, 0), BuildingBlock: TEMPAE_clean_linker_10, # of connection points: 2
#     Edge 20, Type (0, 0), BuildingBlock: TEMPAE_clean_linker_10, # of connection points: 2
#     Edge 21, Type (0, 0), BuildingBlock: TEMPAE_clean_linker_10, # of connection points: 2
#     Edge 22, Type (0, 0), BuildingBlock: TEMPAE_clean_linker_10, # of connection points: 2
#     Edge 23, Type (0, 0), BuildingBlock: TEMPAE_clean_linker_10, # of connection points: 2
#     Edge 24, Type (0, 0), BuildingBlock: TEMPAE_clean_linker_10, # of connection points: 2
#     Edge 25, Type (0, 0), BuildingBlock: TEMPAE_clean_linker_10, # of connection points: 2
#     Edge 26, Type (0, 0), BuildingBlock: TEMPAE_clean_linker_10, # of connection points: 2
#     Edge 27, Type (0, 0), BuildingBlock: TEMPAE_clean_linker_10, # of connection points: 2
#     Edge 28, Type (0, 0), BuildingBlock: TEMPAE_clean_linker_10, # of connection points: 2
#     Edge 29, Type (0, 0), BuildingBlock: TEMPAE_clean_linker_10, # of connection points: 2
#     Edge 30, Type (0, 0), BuildingBlock: TEMPAE_clean_linker_10, # of connection points: 2
#     Edge 31, Type (0, 0), BuildingBlock: TEMPAE_clean_linker_10, # of connection points: 2
#     Edge 32, Type (0, 0), BuildingBlock: TEMPAE_clean_linker_10, # of connection points: 2
#     Edge 33, Type (0, 0), BuildingBlock: TEMPAE_clean_linker_10, # of connection points: 2
#     Edge 34, Type (0, 0), BuildingBlock: TEMPAE_clean_linker_10, # of connection points: 2
#     Edge 35, Type (0, 0), BuildingBlock: TEMPAE_clean_linker_10, # of connection points: 2
#     Edge 36, Type (0, 0), BuildingBlock: TEMPAE_clean_linker_10, # of connection points: 2
#     Edge 37, Type (0, 0), BuildingBlock: TEMPAE_clean_linker_10, # of connection points: 2
#     Edge 38, Type (0, 0), BuildingBlock: TEMPAE_clean_linker_10, # of connection points: 2
#     Edge 39, Type (0, 0), BuildingBlock: TEMPAE_clean_linker_10, # of connection points: 2
#     Edge 40, Type (0, 0), BuildingBlock: TEMPAE_clean_linker_10, # of connection points: 2
#     Edge 41, Type (0, 0), BuildingBlock: TEMPAE_clean_linker_10, # of connection points: 2
#     Edge 42, Type (0, 0), BuildingBlock: TEMPAE_clean_linker_10, # of connection points: 2
#     Edge 43, Type (0, 0), BuildingBlock: TEMPAE_clean_linker_10, # of connection points: 2
#     Edge 44, Type (0, 0), BuildingBlock: TEMPAE_clean_linker_10, # of connection points: 2
#     Edge 45, Type (0, 0), BuildingBlock: TEMPAE_clean_linker_10, # of connection points: 2
#     Edge 46, Type (0, 0), BuildingBlock: TEMPAE_clean_linker_10, # of connection points: 2
#     Edge 47, Type (0, 0), BuildingBlock: TEMPAE_clean_linker_10, # of connection points: 2
# Relax obj value: 0.340
# Max RMSD: 0.275
# Mean RMSD: 0.275
data_MOF--net-wkq--node1-OJICUG_clean_sbu_0--edge1-TEMPAE_clean_linker_10
_symmetry_space_group_name_H-M    P1
_symmetry_Int_Tables_number       1
_symmetry_cell_setting            triclinic
loop_
_symmetry_equiv_pos_as_xyz
'x, y, z'
_cell_length_a     39.632893
_cell_length_b     39.622641
_cell_length_c     35.45503
_cell_angle_alpha  89.990576
_cell_angle_beta   89.969789
_cell_angle_gamma 119.95711
loop_
_atom_site_label
_atom_site_type_symbol
_atom_site_fract_x
_atom_site_fract_y
_atom_site_fract_z
_atom_type_partial_charge
Sc0 Sc 0.20597 0.42721 0.9745 0.0
Sc1 Sc 0.2647 0.45056 0.05457 0.0
Sc2 Sc 0.20755 0.35322 0.02849 0.0
O3 O 0.2261 0.41021 0.01899 0.0
C4 C 0.1294 0.35134 0.00393 0.0
C5 C 0.21173 0.48821 0.0348 0.0
C6 C 0.20918 0.38641 0.11095 0.0
C7 C 0.29772 0.4902 0.97653 0.0
C8 C 0.21843 0.36026 0.93901 0.0
C9 C 0.29181 0.38638 0.05872 0.0
O10 O 0.14595 0.38069 0.98203 0.0
O11 O 0.2409 0.48856 0.04992 0.0
O12 O 0.20288 0.3592 0.08805 0.0
O13 O 0.26356 0.47596 0.96268 0.0
O14 O 0.21126 0.34151 0.96984 0.0
O15 O 0.2938 0.41848 0.06706 0.0
O16 O 0.21983 0.393 0.93611 0.0
O17 O 0.30421 0.48042 0.0088 0.0
O18 O 0.26527 0.36151 0.0373 0.0
O19 O 0.1916 0.46387 0.00918 0.0
O20 O 0.1481 0.33924 0.02342 0.0
O21 O 0.22696 0.42232 0.10184 0.0
Sc22 Sc 0.855 0.19968 0.19247 0.0
Sc23 Sc 0.8128 0.25442 0.2233 0.0
Sc24 Sc 0.78093 0.20229 0.13847 0.0
O25 O 0.81641 0.21884 0.18467 0.0
C26 C 0.86395 0.22122 0.10505 0.0
C27 C 0.90366 0.2833 0.23045 0.0
C28 C 0.80669 0.29283 0.14731 0.0
C29 C 0.81863 0.19158 0.27399 0.0
C30 C 0.78169 0.12376 0.15758 0.0
C31 C 0.72287 0.1995 0.20185 0.0
O32 O 0.8763 0.21501 0.13588 0.0
O33 O 0.87404 0.28725 0.23469 0.0
O34 O 0.79049 0.26044 0.12978 0.0
O35 O 0.83747 0.1836 0.25001 0.0
O36 O 0.7664 0.14188 0.14212 0.0
O37 O 0.75078 0.22578 0.22069 0.0
O38 O 0.81333 0.14113 0.17603 0.0
O39 O 0.80633 0.21522 0.26796 0.0
O40 O 0.72821 0.18582 0.17132 0.0
O41 O 0.90224 0.25483 0.21246 0.0
O42 O 0.83051 0.21817 0.10128 0.0
O43 O 0.81914 0.29635 0.181 0.0
Sc44 Sc 0.58397 0.78056 0.30327 0.0
Sc45 Sc 0.55897 0.80576 0.3898 0.0
Sc46 Sc 0.65611 0.85263 0.36181 0.0
O47 O 0.59969 0.81303 0.35147 0.0
C48 C 0.66137 0.78057 0.32773 0.0
C49 C 0.52325 0.71826 0.36022 0.0
C50 C 0.62575 0.81141 0.44132 0.0
C51 C 0.51898 0.80616 0.31336 0.0
C52 C 0.64757 0.866 0.27467 0.0
C53 C 0.61923 0.89669 0.40241 0.0
O54 O 0.63048 0.76669 0.30797 0.0
O55 O 0.52353 0.74478 0.3803 0.0
O56 O 0.65206 0.83407 0.41857 0.0
O57 O 0.53517 0.79017 0.2952 0.0
O58 O 0.66451 0.87583 0.30638 0.0
O59 O 0.58756 0.86522 0.40779 0.0
O60 O 0.61839 0.83231 0.26821 0.0
O61 O 0.52709 0.81729 0.34755 0.0
O62 O 0.64558 0.89855 0.38057 0.0
O63 O 0.54669 0.7256 0.33275 0.0
O64 O 0.6736 0.81113 0.34755 0.0
O65 O 0.58945 0.79433 0.4338 0.0
Sc66 Sc 0.81121 0.65739 0.5211 0.0
Sc67 Sc 0.75781 0.56067 0.55273 0.0
Sc68 Sc 0.80803 0.5806 0.46662 0.0
O69 O 0.79232 0.59966 0.51341 0.0
C70 C 0.78928 0.64516 0.43379 0.0
C71 C 0.728 0.62194 0.56038 0.0
C72 C 0.71777 0.51644 0.47689 0.0
C73 C 0.82089 0.62987 0.60257 0.0
C74 C 0.88674 0.6596 0.48533 0.0
C75 C 0.81169 0.52495 0.52922 0.0
O76 O 0.79512 0.66336 0.4648 0.0
O77 O 0.72467 0.58864 0.56473 0.0
O78 O 0.74954 0.53276 0.45831 0.0
O79 O 0.8282 0.65638 0.57841 0.0
O80 O 0.86855 0.62592 0.47045 0.0
O81 O 0.78677 0.52757 0.54948 0.0
O82 O 0.8696 0.67435 0.50353 0.0
O83 O 0.79757 0.59381 0.59684 0.0
O84 O 0.82406 0.5433 0.49818 0.0
O85 O 0.7561 0.6491 0.54207 0.0
O86 O 0.79268 0.61499 0.42982 0.0
O87 O 0.71528 0.52482 0.51108 0.0
Sc88 Sc 0.22995 0.80759 0.63004 0.0
Sc89 Sc 0.20368 0.75378 0.71446 0.0
Sc90 Sc 0.16174 0.81087 0.69203 0.0
O91 O 0.19847 0.79083 0.6789 0.0
C92 C 0.23242 0.88656 0.65381 0.0
C93 C 0.29169 0.80572 0.68565 0.0
C94 C 0.20415 0.81714 0.76952 0.0
C95 C 0.20263 0.71632 0.63573 0.0
C96 C 0.14368 0.78784 0.60547 0.0
C97 C 0.11467 0.72738 0.73058 0.0
O98 O 0.24644 0.86841 0.63617 0.0
O99 O 0.26484 0.77948 0.70552 0.0
O100 O 0.18491 0.82665 0.74758 0.0
O101 O 0.21862 0.74912 0.61885 0.0
O102 O 0.13511 0.79449 0.6381 0.0
O103 O 0.14378 0.72229 0.73123 0.0
O104 O 0.17727 0.79274 0.59713 0.0
O105 O 0.19203 0.71221 0.67014 0.0
O106 O 0.1157 0.75649 0.71443 0.0
O107 O 0.28484 0.82246 0.65838 0.0
O108 O 0.20195 0.86924 0.67392 0.0
O109 O 0.21511 0.79282 0.76105 0.0
Sc110 Sc 0.35469 0.15537 0.8687 0.0
Sc111 Sc 0.45272 0.20308 0.89464 0.0
Sc112 Sc 0.42528 0.2265 0.80782 0.0
O113 O 0.41097 0.19495 0.85698 0.0
C114 C 0.36117 0.14032 0.78131 0.0
C115 C 0.39533 0.11157 0.90508 0.0
C116 C 0.49294 0.2049 0.81631 0.0
C117 C 0.38528 0.19454 0.94865 0.0
C118 C 0.34804 0.22634 0.83378 0.0
C119 C 0.48315 0.29048 0.8666 0.0
O120 O 0.34558 0.13102 0.81368 0.0
O121 O 0.42799 0.14256 0.9085 0.0
O122 O 0.47369 0.21704 0.7975 0.0
O123 O 0.35835 0.17424 0.92547 0.0
O124 O 0.37891 0.24037 0.81394 0.0
O125 O 0.4823 0.26475 0.88841 0.0
O126 O 0.33616 0.19603 0.85395 0.0
O127 O 0.42132 0.20935 0.94109 0.0
O128 O 0.46369 0.28203 0.83598 0.0
O129 O 0.36671 0.11069 0.88792 0.0
O130 O 0.38967 0.17417 0.77382 0.0
O131 O 0.48758 0.19702 0.85138 0.0
Sc132 Sc 0.65716 0.80692 0.79601 0.0
Sc133 Sc 0.56068 0.75682 0.76485 0.0
Sc134 Sc 0.58289 0.80848 0.85059 0.0
O135 O 0.60026 0.79064 0.80392 0.0
C136 C 0.64454 0.78579 0.88339 0.0
C137 C 0.61973 0.72401 0.75707 0.0
C138 C 0.51691 0.71848 0.84143 0.0
C139 C 0.6307 0.81782 0.71487 0.0
C140 C 0.66221 0.88496 0.82832 0.0
C141 C 0.52769 0.81309 0.78795 0.0
O142 O 0.66194 0.79033 0.85216 0.0
O143 O 0.58725 0.72238 0.75206 0.0
O144 O 0.53402 0.75053 0.85959 0.0
O145 O 0.65669 0.82333 0.73887 0.0
O146 O 0.62956 0.86857 0.8453 0.0
O147 O 0.529 0.78717 0.76819 0.0
O148 O 0.67548 0.86611 0.81087 0.0
O149 O 0.59433 0.79623 0.72063 0.0
O150 O 0.54654 0.82565 0.8187 0.0
O151 O 0.64687 0.75077 0.77651 0.0
O152 O 0.6162 0.79205 0.88795 0.0
O153 O 0.52472 0.71525 0.80719 0.0
Sc154 Sc 0.85758 0.65564 0.96091 0.0
Sc155 Sc 0.81457 0.5579 0.93459 0.0
Sc156 Sc 0.78173 0.58272 0.01572 0.0
O157 O 0.81807 0.59891 0.97055 0.0
C158 C 0.86293 0.64813 0.05008 0.0
C159 C 0.90603 0.61985 0.92823 0.0
C160 C 0.80905 0.5185 0.01274 0.0
C161 C 0.82297 0.62294 0.879 0.0
C162 C 0.78347 0.66073 0.98841 0.0
C163 C 0.72466 0.52195 0.9563 0.0
O164 O 0.87521 0.66618 0.01898 0.0
O165 O 0.87538 0.58798 0.92085 0.0
O166 O 0.79006 0.53348 0.02735 0.0
O167 O 0.84434 0.65013 0.90177 0.0
O168 O 0.76902 0.62986 0.00839 0.0
O169 O 0.75281 0.52114 0.94021 0.0
O170 O 0.81454 0.67255 0.9694 0.0
O171 O 0.80532 0.58694 0.88787 0.0
O172 O 0.72981 0.5464 0.98215 0.0
O173 O 0.90549 0.64569 0.94909 0.0
O174 O 0.83043 0.61664 0.05353 0.0
O175 O 0.82411 0.52748 0.97991 0.0
Sc176 Sc 0.20308 0.85146 0.12706 0.0
Sc177 Sc 0.25823 0.80791 0.10512 0.0
Sc178 Sc 0.20212 0.7806 0.18848 0.0
O179 O 0.2212 0.81335 0.14035 0.0
C180 C 0.21801 0.86436 0.2158 0.0
C181 C 0.28894 0.89939 0.09644 0.0
C182 C 0.29281 0.80615 0.18494 0.0
C183 C 0.20216 0.81469 0.0472 0.0
C184 C 0.12516 0.77815 0.15744 0.0
C185 C 0.20224 0.7193 0.13042 0.0
O186 O 0.21089 0.87286 0.18338 0.0
O187 O 0.29123 0.86885 0.09147 0.0
O188 O 0.25979 0.79049 0.20139 0.0
O189 O 0.19485 0.83566 0.0689 0.0
O190 O 0.14188 0.76622 0.18014 0.0
O191 O 0.22939 0.74612 0.11126 0.0
O192 O 0.14367 0.80767 0.1363 0.0
O193 O 0.22182 0.79885 0.05713 0.0
O194 O 0.18715 0.72623 0.15908 0.0
O195 O 0.26059 0.89887 0.11383 0.0
O196 O 0.21657 0.83205 0.22274 0.0
O197 O 0.2976 0.81674 0.15055 0.0
Sc198 Sc 0.35191 0.18824 0.29976 0.0
Sc199 Sc 0.44874 0.25023 0.27428 0.0
Sc200 Sc 0.4269 0.19849 0.35979 0.0
O201 O 0.40944 0.21234 0.31129 0.0
C202 C 0.35924 0.21761 0.38336 0.0
C203 C 0.38422 0.27056 0.25732 0.0
C204 C 0.48851 0.28953 0.35253 0.0
C205 C 0.38431 0.18064 0.22303 0.0
C206 C 0.35191 0.11747 0.34251 0.0
C207 C 0.48871 0.20107 0.29987 0.0
O208 O 0.34522 0.21294 0.35026 0.0
O209 O 0.41964 0.28285 0.26526 0.0
O210 O 0.47018 0.25805 0.37125 0.0
O211 O 0.35821 0.16435 0.24823 0.0
O212 O 0.38713 0.13685 0.35299 0.0
O213 O 0.48321 0.22288 0.27757 0.0
O214 O 0.33437 0.1334 0.32743 0.0
O215 O 0.41657 0.21209 0.22812 0.0
O216 O 0.47033 0.18861 0.33102 0.0
O217 O 0.35735 0.23702 0.26732 0.0
O218 O 0.38557 0.2092 0.39244 0.0
O219 O 0.48353 0.29159 0.31733 0.0
Sc220 Sc 0.16086 0.34977 0.4678 0.0
Sc221 Sc 0.20506 0.44626 0.43524 0.0
Sc222 Sc 0.23402 0.42678 0.52233 0.0
O223 O 0.19983 0.40751 0.47519 0.0
C224 C 0.14983 0.36325 0.5544 0.0
C225 C 0.11416 0.38559 0.42679 0.0
C226 C 0.209 0.4916 0.51033 0.0
C227 C 0.19924 0.37616 0.38683 0.0
C228 C 0.2332 0.34717 0.50539 0.0
C229 C 0.29422 0.48103 0.45949 0.0
O230 O 0.13775 0.34489 0.52346 0.0
O231 O 0.1441 0.41898 0.42302 0.0
O232 O 0.22367 0.47498 0.52962 0.0
O233 O 0.18004 0.34988 0.41116 0.0
O234 O 0.24893 0.38115 0.51961 0.0
O235 O 0.26707 0.4784 0.43866 0.0
O236 O 0.20141 0.3324 0.48712 0.0
O237 O 0.21136 0.41219 0.39192 0.0
O238 O 0.28777 0.46343 0.49104 0.0
O239 O 0.11483 0.35825 0.44503 0.0
O240 O 0.18362 0.39298 0.55868 0.0
O241 O 0.1988 0.48315 0.47601 0.0
Sc242 Sc 0.8065 0.15447 0.63227 0.0
Sc243 Sc 0.75023 0.19573 0.60636 0.0
Sc244 Sc 0.80795 0.22947 0.68722 0.0
O245 O 0.78822 0.19309 0.64215 0.0
C246 C 0.79425 0.14903 0.72157 0.0
C247 C 0.72236 0.10448 0.60099 0.0
C248 C 0.71624 0.20093 0.68432 0.0
C249 C 0.8066 0.188 0.55034 0.0
C250 C 0.88467 0.23019 0.65794 0.0
C251 C 0.80292 0.28583 0.62784 0.0
O252 O 0.80147 0.13766 0.69064 0.0
O253 O 0.7208 0.13486 0.59297 0.0
O254 O 0.75018 0.22055 0.69876 0.0
O255 O 0.81239 0.16648 0.57294 0.0
O256 O 0.86811 0.24306 0.67977 0.0
O257 O 0.77409 0.25733 0.61205 0.0
O258 O 0.86595 0.19941 0.63847 0.0
O259 O 0.78863 0.20592 0.55952 0.0
O260 O 0.82276 0.28117 0.65347 0.0
O261 O 0.74885 0.10559 0.62212 0.0
O262 O 0.79352 0.1807 0.72486 0.0
O263 O 0.71024 0.18538 0.65175 0.0
C264 C 0.16439 0.51249 0.04671 0.0
C265 C 0.20228 0.51819 0.04812 0.0
C266 C 0.15605 0.54062 0.06162 0.0
C267 C 0.18643 0.57543 0.0776 0.0
C268 C 0.22467 0.58121 0.07878 0.0
C269 C 0.23199 0.5526 0.06431 0.0
C270 C 0.11484 0.53315 0.06032 0.0
C271 C 0.25825 0.61811 0.09473 0.0
C272 C 0.19052 0.67269 0.07846 0.0
C273 C 0.18856 0.67892 0.11721 0.0
C274 C 0.18631 0.63761 0.06481 0.0
C275 C 0.17984 0.60764 0.09049 0.0
C276 C 0.1742 0.6123 0.12931 0.0
C277 C 0.17863 0.64801 0.1423 0.0
C278 C 0.19257 0.63426 0.02325 0.0
C279 C 0.16658 0.58082 0.15755 0.0
H280 H 0.1412 0.48582 0.03465 0.0
H281 H 0.26144 0.55749 0.06534 0.0
H282 H 0.10521 0.53566 0.08906 0.0
H283 H 0.11347 0.55546 0.04252 0.0
H284 H 0.09416 0.50387 0.04885 0.0
H285 H 0.28608 0.61771 0.09429 0.0
H286 H 0.26222 0.64363 0.07819 0.0
H287 H 0.25192 0.62238 0.12426 0.0
H288 H 0.19747 0.69624 0.05877 0.0
H289 H 0.17691 0.65254 0.17222 0.0
H290 H 0.1703 0.60551 0.01213 0.0
H291 H 0.22149 0.63676 0.01904 0.0
H292 H 0.19161 0.65743 0.00643 0.0
H293 H 0.14525 0.55172 0.14627 0.0
H294 H 0.15548 0.58544 0.18471 0.0
H295 H 0.19408 0.58073 0.16318 0.0
C296 C 0.51699 0.15644 0.29354 0.0
C297 C 0.52018 0.19308 0.28895 0.0
C298 C 0.54603 0.14912 0.27922 0.0
C299 C 0.57912 0.17936 0.26064 0.0
C300 C 0.58254 0.21649 0.25675 0.0
C301 C 0.55308 0.22272 0.27068 0.0
C302 C 0.54113 0.10904 0.28344 0.0
C303 C 0.61758 0.24997 0.23805 0.0
C304 C 0.67895 0.1897 0.25607 0.0
C305 C 0.68313 0.18551 0.21725 0.0
C306 C 0.64389 0.18416 0.27123 0.0
C307 C 0.61182 0.17393 0.24709 0.0
C308 C 0.61461 0.16601 0.20849 0.0
C309 C 0.65034 0.17193 0.19394 0.0
C310 C 0.64258 0.19304 0.31247 0.0
C311 C 0.58085 0.15432 0.18193 0.0
H312 H 0.49138 0.13334 0.30721 0.0
H313 H 0.55584 0.2512 0.26728 0.0
H314 H 0.54093 0.09688 0.25519 0.0
H315 H 0.5661 0.11074 0.2992 0.0
H316 H 0.51377 0.08866 0.29839 0.0
H317 H 0.61564 0.27698 0.23718 0.0
H318 H 0.64449 0.25634 0.25347 0.0
H319 H 0.62058 0.24204 0.20873 0.0
H320 H 0.70388 0.19928 0.27456 0.0
H321 H 0.65317 0.16826 0.16402 0.0
H322 H 0.61503 0.17072 0.32568 0.0
H323 H 0.64379 0.22154 0.31512 0.0
H324 H 0.6674 0.19456 0.32849 0.0
H325 H 0.55311 0.13259 0.19537 0.0
H326 H 0.58473 0.14198 0.15522 0.0
H327 H 0.57833 0.18028 0.17495 0.0
C328 C 0.34085 0.50995 0.40617 0.0
C329 C 0.33446 0.50649 0.44531 0.0
C330 C 0.37562 0.53968 0.39071 0.0
C331 C 0.40489 0.56696 0.41493 0.0
C332 C 0.40018 0.56137 0.45459 0.0
C333 C 0.36494 0.53106 0.46939 0.0
C334 C 0.37923 0.54408 0.34835 0.0
C335 C 0.43087 0.58947 0.48143 0.0
C336 C 0.50043 0.64706 0.37189 0.0
C337 C 0.49275 0.67791 0.36964 0.0
C338 C 0.47228 0.61054 0.38669 0.0
C339 C 0.43574 0.60495 0.39907 0.0
C340 C 0.42766 0.6358 0.39551 0.0
C341 C 0.45618 0.6717 0.38104 0.0
C342 C 0.48203 0.57843 0.39017 0.0
C343 C 0.38896 0.6312 0.40751 0.0
H344 H 0.31762 0.49054 0.38737 0.0
H345 H 0.36025 0.52846 0.49963 0.0
H346 H 0.37434 0.5682 0.33961 0.0
H347 H 0.40885 0.55157 0.33891 0.0
H348 H 0.35758 0.51712 0.33364 0.0
H349 H 0.42638 0.57746 0.51048 0.0
H350 H 0.46038 0.59689 0.47165 0.0
H351 H 0.42976 0.6169 0.48237 0.0
H352 H 0.52885 0.65193 0.36359 0.0
H353 H 0.45005 0.69545 0.37919 0.0
H354 H 0.45886 0.55124 0.37712 0.0
H355 H 0.48347 0.57212 0.42042 0.0
H356 H 0.51033 0.58628 0.3767 0.0
H357 H 0.36493 0.60685 0.39181 0.0
H358 H 0.38726 0.658 0.40252 0.0
H359 H 0.38405 0.62394 0.43797 0.0
C360 C 0.8341 0.47619 0.51868 0.0
C361 C 0.8253 0.49843 0.54325 0.0
C362 C 0.83868 0.44531 0.53251 0.0
C363 C 0.83441 0.43669 0.5717 0.0
C364 C 0.8292 0.46149 0.59677 0.0
C365 C 0.82472 0.49192 0.58226 0.0
C366 C 0.84483 0.41996 0.50486 0.0
C367 C 0.82454 0.45372 0.6387 0.0
C368 C 0.78211 0.33033 0.60053 0.0
C369 C 0.8122 0.32537 0.61532 0.0
C370 C 0.78927 0.36617 0.586 0.0
C371 C 0.82772 0.39823 0.58573 0.0
C372 C 0.85843 0.39366 0.60066 0.0
C373 C 0.85027 0.35727 0.61561 0.0
C374 C 0.75538 0.36968 0.57119 0.0
C375 C 0.89984 0.42704 0.60048 0.0
H376 H 0.83479 0.48116 0.48855 0.0
H377 H 0.81871 0.50952 0.60156 0.0
H378 H 0.86647 0.41245 0.51584 0.0
H379 H 0.817 0.39231 0.50079 0.0
H380 H 0.85484 0.43436 0.47696 0.0
H381 H 0.82687 0.47887 0.65477 0.0
H382 H 0.7955 0.42801 0.64438 0.0
H383 H 0.84677 0.44695 0.64944 0.0
H384 H 0.75253 0.30597 0.60045 0.0
H385 H 0.87371 0.35354 0.62661 0.0
H386 H 0.76048 0.37913 0.54127 0.0
H387 H 0.75265 0.39214 0.58743 0.0
H388 H 0.72731 0.34182 0.5731 0.0
H389 H 0.909 0.43729 0.57114 0.0
H390 H 0.92046 0.41877 0.61278 0.0
H391 H 0.90189 0.45195 0.61668 0.0
C392 C 0.49905 0.83012 0.73395 0.0
C393 C 0.50259 0.82809 0.77319 0.0
C394 C 0.46947 0.83513 0.71802 0.0
C395 C 0.4424 0.83802 0.74187 0.0
C396 C 0.44808 0.83977 0.78156 0.0
C397 C 0.47825 0.83484 0.79683 0.0
C398 C 0.46498 0.83334 0.67566 0.0
C399 C 0.42022 0.84334 0.80802 0.0
C400 C 0.36303 0.85366 0.69719 0.0
C401 C 0.33189 0.81525 0.69553 0.0
C402 C 0.39937 0.86192 0.71238 0.0
C403 C 0.40453 0.831 0.72576 0.0
C404 C 0.37339 0.79218 0.72283 0.0
C405 C 0.33768 0.78491 0.70795 0.0
C406 C 0.43178 0.90366 0.71512 0.0
C407 C 0.37752 0.75809 0.73591 0.0
H408 H 0.51825 0.82556 0.71547 0.0
H409 H 0.48088 0.83341 0.82714 0.0
H410 H 0.4406 0.80429 0.66749 0.0
H411 H 0.45781 0.85549 0.66549 0.0
H412 H 0.49177 0.83791 0.66109 0.0
H413 H 0.43231 0.85144 0.83698 0.0
H414 H 0.41306 0.86541 0.79754 0.0
H415 H 0.39265 0.81501 0.80945 0.0
H416 H 0.35852 0.87724 0.68812 0.0
H417 H 0.31375 0.75512 0.70656 0.0
H418 H 0.45878 0.90707 0.70212 0.0
H419 H 0.43832 0.91199 0.74523 0.0
H420 H 0.42416 0.92408 0.70118 0.0
H421 H 0.40169 0.75766 0.72052 0.0
H422 H 0.35053 0.72968 0.73143 0.0
H423 H 0.3848 0.76109 0.76638 0.0
C424 C 0.6536 0.49931 0.94382 0.0
C425 C 0.68487 0.49214 0.94411 0.0
C426 C 0.61687 0.47133 0.92942 0.0
C427 C 0.61125 0.43517 0.91583 0.0
C428 C 0.64273 0.42784 0.91658 0.0
C429 C 0.67898 0.45638 0.93038 0.0
C430 C 0.58422 0.48047 0.92848 0.0
C431 C 0.63809 0.38948 0.9033 0.0
C432 C 0.51639 0.33975 0.91698 0.0
C433 C 0.5093 0.33152 0.87831 0.0
C434 C 0.54748 0.37511 0.92975 0.0
C435 C 0.57218 0.40337 0.90323 0.0
C436 C 0.56278 0.39694 0.86425 0.0
C437 C 0.53139 0.36094 0.85217 0.0
C438 C 0.55615 0.38032 0.97151 0.0
C439 C 0.58785 0.42667 0.83509 0.0
H440 H 0.65809 0.52707 0.95396 0.0
H441 H 0.7029 0.45045 0.93072 0.0
H442 H 0.5732 0.47766 0.89922 0.0
H443 H 0.55954 0.45922 0.94604 0.0
H444 H 0.59356 0.51031 0.93887 0.0
H445 H 0.66558 0.38856 0.90549 0.0
H446 H 0.61545 0.36525 0.92036 0.0
H447 H 0.62832 0.38417 0.8735 0.0
H448 H 0.49895 0.31739 0.93745 0.0
H449 H 0.526 0.3549 0.82228 0.0
H450 H 0.56364 0.40999 0.98075 0.0
H451 H 0.58166 0.37672 0.97749 0.0
H452 H 0.53118 0.35869 0.98863 0.0
H453 H 0.59649 0.45656 0.8447 0.0
H454 H 0.57266 0.42126 0.80753 0.0
H455 H 0.61488 0.42531 0.83081 0.0
C456 C 0.33262 0.39517 0.11546 0.0
C457 C 0.31536 0.37448 0.08207 0.0
C458 C 0.34663 0.38007 0.14315 0.0
C459 C 0.34479 0.34395 0.13699 0.0
C460 C 0.33045 0.3244 0.1021 0.0
C461 C 0.3153 0.33957 0.07529 0.0
C462 C 0.3607 0.40148 0.1802 0.0
C463 C 0.3287 0.28623 0.09383 0.0
C464 C 0.40361 0.31874 0.20452 0.0
C465 C 0.37477 0.29268 0.2295 0.0
C466 C 0.39418 0.33491 0.17382 0.0
C467 C 0.35512 0.32561 0.16834 0.0
C468 C 0.32603 0.30007 0.1939 0.0
C469 C 0.33611 0.28365 0.22392 0.0
C470 C 0.42579 0.36096 0.14651 0.0
C471 C 0.28406 0.28952 0.18913 0.0
H472 H 0.33278 0.42208 0.12138 0.0
H473 H 0.30208 0.32329 0.04972 0.0
H474 H 0.34028 0.38388 0.20305 0.0
H475 H 0.38972 0.40557 0.1875 0.0
H476 H 0.36271 0.43046 0.17965 0.0
H477 H 0.32875 0.28132 0.06298 0.0
H478 H 0.35343 0.28483 0.10683 0.0
H479 H 0.30128 0.26218 0.10563 0.0
H480 H 0.43344 0.32522 0.20793 0.0
H481 H 0.31355 0.26319 0.2427 0.0
H482 H 0.42783 0.38989 0.14503 0.0
H483 H 0.4184 0.34812 0.1178 0.0
H484 H 0.45473 0.36517 0.15453 0.0
H485 H 0.28194 0.31627 0.1861 0.0
H486 H 0.26564 0.27224 0.21327 0.0
H487 H 0.27218 0.27219 0.16298 0.0
C488 C 0.93503 0.32975 0.2841 0.0
C489 C 0.93827 0.30784 0.25451 0.0
C490 C 0.96288 0.34533 0.31301 0.0
C491 C 0.99546 0.33981 0.31206 0.0
C492 C 1.00047 0.32021 0.28097 0.0
C493 C 0.97169 0.30417 0.25275 0.0
C494 C 0.95615 0.36566 0.34575 0.0
C495 C 0.0354 0.31466 0.27837 0.0
C496 C 0.0836 0.40243 0.37359 0.0
C497 C 0.08001 0.37625 0.40228 0.0
C498 C 0.05605 0.39123 0.34448 0.0
C499 C 0.02348 0.35315 0.34428 0.0
C500 C 0.01823 0.3274 0.37439 0.0
C501 C 0.04666 0.33912 0.40285 0.0
C502 C 0.063 0.41951 0.31283 0.0
C503 C 0.98334 0.28686 0.37571 0.0
H504 H 0.90938 0.33278 0.28612 0.0
H505 H 0.97463 0.2874 0.23015 0.0
H506 H 0.95036 0.34786 0.37166 0.0
H507 H 0.98248 0.39428 0.35113 0.0
H508 H 0.93108 0.37031 0.34087 0.0
H509 H 0.03697 0.30214 0.25084 0.0
H510 H 0.06263 0.3429 0.28242 0.0
H511 H 0.03404 0.29484 0.30118 0.0
H512 H 0.10921 0.43118 0.37252 0.0
H513 H 0.04346 0.3186 0.42472 0.0
H514 H 0.0368 0.42226 0.3082 0.0
H515 H 0.06861 0.40834 0.28625 0.0
H516 H 0.08822 0.44893 0.31847 0.0
H517 H 0.95611 0.28802 0.37218 0.0
H518 H 0.98161 0.27168 0.4026 0.0
H519 H 0.98487 0.26935 0.35206 0.0
C520 C 0.70435 0.03746 0.57797 0.0
C521 C 0.69772 0.0691 0.578 0.0
C522 C 0.68829 0.0087 0.54977 0.0
C523 C 0.66548 0.01188 0.52069 0.0
C524 C 0.65668 0.0423 0.52193 0.0
C525 C 0.67248 0.07019 0.55073 0.0
C526 C 0.69748 0.97607 0.54995 0.0
C527 C 0.63247 0.04677 0.49157 0.0
C528 C 0.66407 0.96443 0.42676 0.0
C529 C 0.62838 0.92947 0.42869 0.0
C530 C 0.676 0.99202 0.45605 0.0
C531 C 0.65197 0.98425 0.48826 0.0
C532 C 0.61531 0.94981 0.48969 0.0
C533 C 0.60379 0.92316 0.4598 0.0
C534 C 0.71497 0.02886 0.45315 0.0
C535 C 0.589 0.94013 0.52365 0.0
H536 H 0.7237 0.03618 0.59878 0.0
H537 H 0.66681 0.09427 0.55043 0.0
H538 H 0.6705 0.94756 0.54615 0.0
H539 H 0.7171 0.9799 0.526 0.0
H540 H 0.71188 0.97522 0.57652 0.0
H541 H 0.62593 0.07035 0.49805 0.0
H542 H 0.64832 0.05359 0.46431 0.0
H543 H 0.60459 0.01914 0.48775 0.0
H544 H 0.68332 0.96964 0.40303 0.0
H545 H 0.57619 0.89625 0.46194 0.0
H546 H 0.73436 0.02961 0.47609 0.0
H547 H 0.7114 0.05473 0.45672 0.0
H548 H 0.72945 0.03123 0.42566 0.0
H549 H 0.60322 0.93563 0.54859 0.0
H550 H 0.56033 0.91341 0.51935 0.0
H551 H 0.58404 0.96466 0.53033 0.0
C552 C 0.60442 0.67933 0.70175 0.0
C553 C 0.62895 0.69917 0.7324 0.0
C554 C 0.6165 0.66376 0.67259 0.0
C555 C 0.65375 0.66724 0.67429 0.0
C556 C 0.67759 0.68475 0.70633 0.0
C557 C 0.66507 0.70075 0.73485 0.0
C558 C 0.59027 0.64572 0.63885 0.0
C559 C 0.71717 0.68823 0.70966 0.0
C560 C 0.6784 0.6045 0.61169 0.0
C561 C 0.70279 0.63137 0.58427 0.0
C562 C 0.66155 0.61546 0.64059 0.0
C563 C 0.6685 0.65408 0.6419 0.0
C564 C 0.69077 0.68059 0.61293 0.0
C565 C 0.70782 0.66903 0.58461 0.0
C566 C 0.63812 0.58627 0.6709 0.0
C567 C 0.69808 0.72176 0.6128 0.0
H568 H 0.57652 0.67798 0.69918 0.0
H569 H 0.68432 0.71594 0.75825 0.0
H570 H 0.60339 0.66476 0.61387 0.0
H571 H 0.5873 0.61703 0.6321 0.0
H572 H 0.56077 0.64174 0.64345 0.0
H573 H 0.73083 0.69976 0.73757 0.0
H574 H 0.71485 0.65942 0.70528 0.0
H575 H 0.73672 0.70804 0.6874 0.0
H576 H 0.67414 0.57527 0.61199 0.0
H577 H 0.72649 0.69009 0.56372 0.0
H578 H 0.60961 0.58474 0.67478 0.0
H579 H 0.65389 0.59574 0.69815 0.0
H580 H 0.63287 0.55662 0.66432 0.0
H581 H 0.67012 0.72171 0.61499 0.0
H582 H 0.71355 0.73791 0.58692 0.0
H583 H 0.71592 0.73764 0.63769 0.0
C584 C 0.04763 0.7058 0.75588 0.0
C585 C 0.08157 0.70306 0.75627 0.0
C586 C 0.01984 0.68928 0.78491 0.0
C587 C 0.0264 0.67008 0.81538 0.0
C588 C 0.05976 0.66584 0.81517 0.0
C589 C 0.08668 0.682 0.7855 0.0
C590 C 0.98413 0.69359 0.78366 0.0
C591 C 0.06813 0.64603 0.84727 0.0
C592 C 0.97412 0.66733 0.90649 0.0
C593 C 0.94111 0.63 0.90488 0.0
C594 C 1.00309 0.68012 0.87845 0.0
C595 C 0.99872 0.65525 0.84782 0.0
C596 C 0.96679 0.61681 0.84729 0.0
C597 C 0.93871 0.60453 0.87598 0.0
C598 C 0.03733 0.72099 0.88054 0.0
C599 C 0.96092 0.58936 0.81517 0.0
H600 H 0.04337 0.72198 0.73354 0.0
H601 H 0.11293 0.67996 0.7865 0.0
H602 H 0.95743 0.66458 0.78577 0.0
H603 H 0.98416 0.71107 0.80811 0.0
H604 H 0.98263 0.70802 0.75736 0.0
H605 H 0.09365 0.64235 0.84144 0.0
H606 H 0.07403 0.66362 0.87333 0.0
H607 H 0.04248 0.61698 0.85296 0.0
H608 H 0.97646 0.68727 0.92861 0.0
H609 H 0.91352 0.57554 0.8743 0.0
H610 H 0.03504 0.73892 0.85774 0.0
H611 H 0.06495 0.72079 0.87613 0.0
H612 H 0.03884 0.73512 0.90803 0.0
H613 H 0.95447 0.60034 0.78893 0.0
H614 H 0.93656 0.55938 0.82059 0.0
H615 H 0.98784 0.58801 0.81006 0.0
C616 C 0.35232 0.04278 0.92697 0.0
C617 C 0.38802 0.0777 0.92894 0.0
C618 C 0.34117 0.01429 0.95523 0.0
C619 C 0.36614 0.02094 0.98637 0.0
C620 C 0.4032 0.05494 0.98733 0.0
C621 C 0.41382 0.08273 0.95849 0.0
C622 C 0.30171 0.97801 0.95278 0.0
C623 C 0.43065 0.06329 0.02005 0.0
C624 C 0.31228 0.96814 0.07543 0.0
C625 C 0.31586 0.93466 0.07433 0.0
C626 C 0.33036 0.99756 0.0481 0.0
C627 C 0.3523 0.9933 0.01881 0.0
C628 C 0.35838 0.96106 0.01912 0.0
C629 C 0.34039 0.93233 0.04701 0.0
C630 C 0.32397 0.03204 0.04927 0.0
C631 C 0.38165 0.95546 0.98852 0.0
H632 H 0.33222 0.03847 0.90429 0.0
H633 H 0.44147 0.1096 0.96057 0.0
H634 H 0.30461 0.95169 0.95572 0.0
H635 H 0.28303 0.97764 0.97628 0.0
H636 H 0.28679 0.9762 0.92571 0.0
H637 H 0.46023 0.08813 0.01415 0.0
H638 H 0.41898 0.07049 0.04536 0.0
H639 H 0.43308 0.0373 0.02702 0.0
H640 H 0.29368 0.97047 0.09645 0.0
H641 H 0.34362 0.90676 0.04578 0.0
H642 H 0.30576 0.03071 0.02493 0.0
H643 H 0.35216 0.05964 0.04687 0.0
H644 H 0.30923 0.03282 0.07564 0.0
H645 H 0.36519 0.94828 0.96161 0.0
H646 H 0.38768 0.93159 0.99528 0.0
H647 H 0.40974 0.98268 0.98389 0.0
C648 C 0.46888 0.68759 0.89396 0.0
C649 C 0.48621 0.68353 0.86105 0.0
C650 C 0.43906 0.65496 0.91237 0.0
C651 C 0.42659 0.61727 0.89784 0.0
C652 C 0.44446 0.61284 0.8651 0.0
C653 C 0.47388 0.64605 0.84692 0.0
C654 C 0.42038 0.66091 0.94697 0.0
C655 C 0.43228 0.57305 0.84912 0.0
C656 C 0.36951 0.53325 0.9656 0.0
C657 C 0.33096 0.52082 0.95483 0.0
C658 C 0.40103 0.56382 0.94653 0.0
C659 C 0.39383 0.5827 0.91628 0.0
C660 C 0.35509 0.56977 0.90476 0.0
C661 C 0.32417 0.53888 0.92401 0.0
C662 C 0.44201 0.57649 0.95927 0.0
C663 C 0.34621 0.58937 0.87282 0.0
H664 H 0.47808 0.71641 0.90501 0.0
H665 H 0.48735 0.64261 0.82171 0.0
H666 H 0.38888 0.64936 0.94178 0.0
H667 H 0.42285 0.64453 0.97117 0.0
H668 H 0.43385 0.6921 0.95499 0.0
H669 H 0.45035 0.57448 0.82454 0.0
H670 H 0.43452 0.55434 0.87112 0.0
H671 H 0.40137 0.55869 0.84012 0.0
H672 H 0.3751 0.51932 0.98918 0.0
H673 H 0.29455 0.52962 0.91546 0.0
H674 H 0.45582 0.60658 0.97058 0.0
H675 H 0.45987 0.57688 0.93499 0.0
H676 H 0.44278 0.55709 0.98146 0.0
H677 H 0.35655 0.62023 0.8802 0.0
H678 H 0.31457 0.57489 0.86643 0.0
H679 H 0.36191 0.58936 0.84692 0.0
C680 C 0.78784 0.46984 0.06531 0.0
C681 C 0.81239 0.48822 0.03438 0.0
C682 C 0.78886 0.43944 0.08461 0.0
C683 C 0.81541 0.42739 0.07306 0.0
C684 C 0.84117 0.44664 0.0427 0.0
C685 C 0.83919 0.47665 0.02355 0.0
C686 C 0.76064 0.41937 0.11662 0.0
C687 C 0.87027 0.43498 0.0299 0.0
C688 C 0.83458 0.36522 0.14197 0.0
C689 C 0.8102 0.3276 0.12777 0.0
C690 C 0.83725 0.39811 0.12403 0.0
C691 C 0.81462 0.39321 0.09144 0.0
C692 C 0.79021 0.35539 0.07682 0.0
C693 C 0.78848 0.32312 0.095 0.0
C694 C 0.864 0.43805 0.14012 0.0
C695 C 0.76531 0.3489 0.04234 0.0
H696 H 0.76697 0.47845 0.07387 0.0
H697 H 0.85852 0.49089 -8e-05 0.0
H698 H 0.74069 0.38838 0.10927 0.0
H699 H 0.77661 0.41979 0.14246 0.0
H700 H 0.74289 0.43322 0.1231 0.0
H701 H 0.89009 0.45464 0.00766 0.0
H702 H 0.88804 0.43515 0.05415 0.0
H703 H 0.85467 0.40485 0.01864 0.0
H704 H 0.85168 0.36903 0.1671 0.0
H705 H 0.76943 0.29422 0.08385 0.0
H706 H 0.84676 0.45166 0.14925 0.0
H707 H 0.88465 0.45718 0.11813 0.0
H708 H 0.88094 0.43707 0.16462 0.0
H709 H 0.7448 0.35976 0.04768 0.0
H710 H 0.74822 0.31767 0.0343 0.0
H711 H 0.78387 0.36558 0.01809 0.0
C712 C 0.36484 0.83668 0.19345 0.0
C713 C 0.32699 0.81078 0.2062 0.0
C714 C 0.39746 0.83936 0.21174 0.0
C715 C 0.39204 0.81512 0.24314 0.0
C716 C 0.354 0.78969 0.25678 0.0
C717 C 0.32192 0.78804 0.23831 0.0
C718 C 0.43764 0.86732 0.1968 0.0
C719 C 0.34707 0.76308 0.28997 0.0
C720 C 0.46898 0.78728 0.2627 0.0
C721 C 0.48799 0.81024 0.29431 0.0
C722 C 0.43789 0.78884 0.24567 0.0
C723 C 0.42589 0.81444 0.26022 0.0
C724 C 0.44558 0.83849 0.29146 0.0
C725 C 0.47623 0.83588 0.30836 0.0
C726 C 0.41731 0.76241 0.21263 0.0
C727 C 0.43399 0.86663 0.30727 0.0
H728 H 0.36901 0.85466 0.16889 0.0
H729 H 0.29278 0.76789 0.24827 0.0
H730 H 0.45671 0.88584 0.21997 0.0
H731 H 0.45104 0.85075 0.18519 0.0
H732 H 0.43705 0.88648 0.17424 0.0
H733 H 0.31587 0.74638 0.29819 0.0
H734 H 0.35696 0.74213 0.28284 0.0
H735 H 0.36429 0.78018 0.31465 0.0
H736 H 0.47769 0.7672 0.25181 0.0
H737 H 0.49096 0.85392 0.33261 0.0
H738 H 0.4182 0.77992 0.18784 0.0
H739 H 0.3862 0.74266 0.21973 0.0
H740 H 0.43048 0.74442 0.20454 0.0
H741 H 0.43448 0.88623 0.28466 0.0
H742 H 0.45351 0.88468 0.33046 0.0
H743 H 0.40375 0.85035 0.31823 0.0
C744 C 0.68598 0.46531 0.42728 0.0
C745 C 0.68244 0.48557 0.45806 0.0
C746 C 0.653 0.43471 0.41015 0.0
C747 C 0.61548 0.42458 0.42364 0.0
C748 C 0.61161 0.44567 0.45395 0.0
C749 C 0.64518 0.47567 0.47109 0.0
C750 C 0.65838 0.41249 0.37832 0.0
C751 C 0.57205 0.4362 0.46858 0.0
C752 C 0.53202 0.36196 0.35728 0.0
C753 C 0.51872 0.32463 0.37226 0.0
C754 C 0.56247 0.39506 0.37462 0.0
C755 C 0.58054 0.39056 0.40718 0.0
C756 C 0.5667 0.35305 0.42283 0.0
C757 C 0.53573 0.32062 0.40541 0.0
C758 C 0.5759 0.43471 0.35762 0.0
C759 C 0.58561 0.34694 0.45715 0.0
H760 H 0.71467 0.47265 0.41718 0.0
H761 H 0.64224 0.49148 0.49463 0.0
H762 H 0.64608 0.3815 0.38653 0.0
H763 H 0.64237 0.41312 0.35293 0.0
H764 H 0.6895 0.42452 0.3707 0.0
H765 H 0.57397 0.45714 0.49048 0.0
H766 H 0.55367 0.43637 0.44506 0.0
H767 H 0.55705 0.40649 0.4809 0.0
H768 H 0.51879 0.3653 0.33186 0.0
H769 H 0.5258 0.29187 0.41706 0.0
H770 H 0.60584 0.44676 0.34631 0.0
H771 H 0.57695 0.45517 0.37957 0.0
H772 H 0.55659 0.43364 0.33439 0.0
H773 H 0.61639 0.35598 0.45072 0.0
H774 H 0.57051 0.31607 0.46657 0.0
H775 H 0.5858 0.36532 0.48083 0.0
C776 C 0.22149 0.68709 0.58308 0.0
C777 C 0.19848 0.68195 0.61504 0.0
C778 C 0.22077 0.6552 0.56514 0.0
C779 C 0.19595 0.61715 0.57905 0.0
C780 C 0.17141 0.61156 0.61029 0.0
C781 C 0.17323 0.64407 0.62814 0.0
C782 C 0.24777 0.66242 0.53222 0.0
C783 C 0.14401 0.57133 0.62546 0.0
C784 C 0.17825 0.53357 0.51405 0.0
C785 C 0.20441 0.52272 0.52855 0.0
C786 C 0.17433 0.56355 0.53083 0.0
C787 C 0.19765 0.58359 0.56237 0.0
C788 C 0.22388 0.57258 0.57727 0.0
C789 C 0.22669 0.54208 0.5604 0.0
C790 C 0.14553 0.57402 0.51462 0.0
C791 C 0.24968 0.59363 0.61055 0.0
H792 H 0.24123 0.71624 0.57285 0.0
H793 H 0.15511 0.63982 0.65261 0.0
H794 H 0.26908 0.65312 0.53974 0.0
H795 H 0.23106 0.64487 0.50752 0.0
H796 H 0.26405 0.69359 0.52381 0.0
H797 H 0.1244 0.57166 0.64767 0.0
H798 H 0.12598 0.5518 0.60232 0.0
H799 H 0.16103 0.55866 0.6376 0.0
H800 H 0.16067 0.51849 0.48967 0.0
H801 H 0.24711 0.53402 0.57167 0.0
H802 H 0.16118 0.60425 0.50358 0.0
H803 H 0.12547 0.57298 0.53702 0.0
H804 H 0.12799 0.55416 0.4914 0.0
H805 H 0.26887 0.62486 0.60351 0.0
H806 H 0.26822 0.58119 0.61898 0.0
H807 H 0.23166 0.59223 0.63509 0.0
C808 C 0.53924 0.22026 0.76248 0.0
C809 C 0.52374 0.2008 0.79669 0.0
C810 C 0.56977 0.21834 0.7445 0.0
C811 C 0.58479 0.19594 0.7608 0.0
C812 C 0.56861 0.17536 0.79477 0.0
C813 C 0.53847 0.17829 0.81248 0.0
C814 C 0.58659 0.24107 0.70852 0.0
C815 C 0.58345 0.15067 0.81264 0.0
C816 C 0.64438 0.16956 0.69585 0.0
C817 C 0.68257 0.19777 0.70557 0.0
C818 C 0.61223 0.16782 0.71439 0.0
C819 C 0.61842 0.19532 0.74291 0.0
C820 C 0.65687 0.22341 0.75332 0.0
C821 C 0.68846 0.22411 0.73473 0.0
C822 C 0.57165 0.13703 0.70299 0.0
C823 C 0.66465 0.2535 0.78332 0.0
H824 H 0.52819 0.23787 0.75016 0.0
H825 H 0.52643 0.16289 0.83873 0.0
H826 H 0.6178 0.26286 0.71274 0.0
H827 H 0.58502 0.22126 0.68562 0.0
H828 H 0.57115 0.25652 0.69915 0.0
H829 H 0.56627 0.13476 0.83791 0.0
H830 H 0.58246 0.12919 0.79194 0.0
H831 H 0.61431 0.16934 0.82112 0.0
H832 H 0.63956 0.14889 0.67357 0.0
H833 H 0.71783 0.24612 0.74233 0.0
H834 H 0.55604 0.15105 0.69052 0.0
H835 H 0.55486 0.12047 0.72813 0.0
H836 H 0.57184 0.11623 0.6821 0.0
H837 H 0.65226 0.27194 0.77446 0.0
H838 H 0.69625 0.27268 0.78884 0.0
H839 H 0.65013 0.23901 0.81007 0.0
C840 C 0.21099 0.30554 0.89881 0.0
C841 C 0.23143 0.34536 0.90731 0.0
C842 C 0.22834 0.28839 0.8775 0.0
C843 C 0.2676 0.31139 0.86575 0.0
C844 C 0.28706 0.35228 0.87133 0.0
C845 C 0.26849 0.36888 0.89173 0.0
C846 C 0.206 0.24493 0.87115 0.0
C847 C 0.32904 0.37792 0.85987 0.0
C848 C 0.32418 0.25829 0.87734 0.0
C849 C 0.32895 0.24974 0.84007 0.0
C850 C 0.30565 0.27957 0.88566 0.0
C851 C 0.2903 0.29178 0.85597 0.0
C852 C 0.29538 0.28363 0.81806 0.0
C853 C 0.31527 0.2631 0.81047 0.0
C854 C 0.30199 0.28838 0.92648 0.0
C855 C 0.27867 0.29535 0.78575 0.0
H856 H 0.18229 0.28734 0.91087 0.0
H857 H 0.28451 0.39963 0.89869 0.0
H858 H 0.21164 0.23762 0.84249 0.0
H859 H 0.21569 0.23052 0.89185 0.0
H860 H 0.17414 0.23279 0.87471 0.0
H861 H 0.33733 0.40916 0.85909 0.0
H862 H 0.34805 0.37443 0.88061 0.0
H863 H 0.33477 0.36944 0.83183 0.0
H864 H 0.33531 0.2484 0.9002 0.0
H865 H 0.31899 0.25642 0.78165 0.0
H866 H 0.2709 0.27281 0.93497 0.0
H867 H 0.31315 0.32002 0.93024 0.0
H868 H 0.3182 0.27947 0.94583 0.0
H869 H 0.2464 0.27805 0.78687 0.0
H870 H 0.28846 0.2905 0.75793 0.0
H871 H 0.28701 0.32647 0.78811 0.0
C872 C 0.90966 0.27683 0.06537 0.0
C873 C 0.8924 0.23717 0.07407 0.0
C874 C 0.94547 0.29608 0.04618 0.0
C875 C 0.96382 0.27481 0.03492 0.0
C876 C 0.94404 0.23385 0.03989 0.0
C877 C 0.9089 0.21562 0.06015 0.0
C878 C 0.96565 0.3398 0.04214 0.0
C879 C 0.96189 0.20982 0.02735 0.0
C880 C 0.0605 0.32563 0.98132 0.0
C881 C 0.08696 0.33261 0.01061 0.0
C882 C 0.0201 0.30669 0.9885 0.0
C883 C 1.00627 0.29578 0.02594 0.0
C884 C 0.03321 0.30404 0.05562 0.0
C885 C 0.07301 0.32175 0.04749 0.0
C886 C 0.99225 0.29746 0.95604 0.0
C887 C 0.02006 0.29399 0.09615 0.0
H888 H 0.89713 0.29356 0.07677 0.0
H889 H 0.8956 0.18496 0.06721 0.0
H890 H 0.98835 0.35342 0.06427 0.0
H891 H 0.98034 0.34928 0.01439 0.0
H892 H 0.94499 0.35087 0.04536 0.0
H893 H 0.93989 0.17831 0.02604 0.0
H894 H 0.97574 0.21944 -0.00077 0.0
H895 H 0.98487 0.21373 0.04765 0.0
H896 H 0.0713 0.33398 0.95277 0.0
H897 H 0.09347 0.32769 0.07029 0.0
H898 H 0.97228 0.30891 0.96169 0.0
H899 H 0.97397 0.2654 0.95297 0.0
H900 H 0.00764 0.30981 0.92897 0.0
H901 H 1.00171 0.30671 0.10428 0.0
H902 H 0.04493 0.30477 0.1161 0.0
H903 H 1.00205 0.26194 0.0994 0.0
C904 C 0.66482 0.89375 0.20847 0.0
C905 C 0.65989 0.89804 0.24698 0.0
C906 C 0.68144 0.92658 0.18436 0.0
C907 C 0.693 0.96408 0.19932 0.0
C908 C 0.68565 0.96776 0.23772 0.0
C909 C 0.66931 0.93486 0.26087 0.0
C910 C 0.68832 0.92136 0.1435 0.0
C911 C 0.6969 0.00686 0.25509 0.0
C912 C 0.77865 0.06023 0.17069 0.0
C913 C 0.76001 0.08041 0.15817 0.0
C914 C 0.75727 0.02056 0.18005 0.0
C915 C 0.71617 1.00044 0.17692 0.0
C916 C 0.69765 0.01944 0.16022 0.0
C917 C 0.71979 0.05928 0.15107 0.0
C918 C 0.77841 1.00146 0.19722 0.0
C919 C 0.65402 0.99886 0.15554 0.0
H920 H 0.65737 0.86529 0.19762 0.0
H921 H 0.6647 0.93815 0.2905 0.0
H922 H 0.68205 0.94016 0.12502 0.0
H923 H 0.71937 0.93002 0.13946 0.0
H924 H 0.67017 0.89057 0.13437 0.0
H925 H 0.68721 1.00429 0.28489 0.0
H926 H 0.72902 0.02593 0.25425 0.0
H927 H 0.68401 0.02154 0.23879 0.0
H928 H 0.80983 0.076 0.17548 0.0
H929 H 0.70507 0.07436 0.14093 0.0
H930 H 0.76702 0.97165 0.18584 0.0
H931 H 0.77355 0.9989 0.22818 0.0
H932 H 0.81028 0.01852 0.19194 0.0
H933 H 0.64251 0.96824 0.14646 0.0
H934 H 0.64515 0.01389 0.13468 0.0
H935 H 0.64035 0.99833 0.18302 0.0
C936 C 0.68847 0.75196 0.37169 0.0
C937 C 0.68015 0.7569 0.33437 0.0
C938 C 0.70601 0.72985 0.38037 0.0
C939 C 0.71671 0.71296 0.35087 0.0
C940 C 0.70821 0.71756 0.31295 0.0
C941 C 0.68935 0.73905 0.30513 0.0
C942 C 0.71338 0.72495 0.42133 0.0
C943 C 0.71999 0.70078 0.28075 0.0
C944 C 0.79596 0.69691 0.38987 0.0
C945 C 0.77436 0.65836 0.40244 0.0
C946 C 0.77843 0.71375 0.36838 0.0
C947 C 0.73798 0.69192 0.36071 0.0
C948 C 0.71688 0.65191 0.37062 0.0
C949 C 0.73551 0.63547 0.39114 0.0
C950 C 0.80235 0.75612 0.35746 0.0
C951 C 0.67365 0.62763 0.36365 0.0
H952 H 0.68067 0.76511 0.39442 0.0
H953 H 0.68281 0.74281 0.27627 0.0
H954 H 0.70076 0.6936 0.42818 0.0
H955 H 0.74517 0.73938 0.42662 0.0
H956 H 0.70073 0.73761 0.44087 0.0
H957 H 0.7086 0.70419 0.25324 0.0
H958 H 0.75224 0.71572 0.2791 0.0
H959 H 0.70944 0.66942 0.28561 0.0
H960 H 0.82601 0.71461 0.3988 0.0
H961 H 0.71871 0.60577 0.40136 0.0
H962 H 0.7964 0.77403 0.3775 0.0
H963 H 0.79444 0.76106 0.3288 0.0
H964 H 0.83406 0.76642 0.35818 0.0
H965 H 0.65794 0.63513 0.38499 0.0
H966 H 0.66328 0.59596 0.36589 0.0
H967 H 0.66586 0.63373 0.33544 0.0
C968 C 0.07291 0.74772 0.59296 0.0
C969 C 0.1108 0.76947 0.57832 0.0
C970 C 0.04028 0.73049 0.56954 0.0
C971 C 0.04518 0.73508 0.53 0.0
C972 C 0.08333 0.75606 0.51464 0.0
C973 C 0.11588 0.77289 0.53906 0.0
C974 C 1.00036 0.70793 0.58744 0.0
C975 C 0.08969 0.76167 0.47265 0.0
C976 C 0.95058 0.6607 0.4852 0.0
C977 C 0.92999 0.68101 0.48575 0.0
C978 C 0.99016 0.67925 0.49537 0.0
C979 C 0.00956 0.71905 0.50597 0.0
C980 C 0.99011 0.74065 0.50199 0.0
C981 C 0.95049 0.72132 0.49228 0.0
C982 C 0.00974 0.6551 0.49895 0.0
C983 C 0.0098 0.7833 0.51214 0.0
H984 H 0.06857 0.74399 0.62321 0.0
H985 H 0.14503 0.78944 0.52754 0.0
H986 H 0.98318 0.72236 0.58105 0.0
H987 H 0.98432 0.67803 0.57566 0.0
H988 H 1.0018 0.7057 0.61857 0.0
H989 H 0.12072 0.77331 0.46488 0.0
H990 H 0.07161 0.7338 0.45752 0.0
H991 H 0.08058 0.78246 0.4627 0.0
H992 H 0.93508 0.62959 0.47995 0.0
H993 H 0.93499 0.73742 0.49202 0.0
H994 H 0.00942 0.64701 0.52898 0.0
H995 H 0.04059 0.67182 0.48977 0.0
H996 H 0.99452 0.62787 0.48213 0.0
H997 H 0.01073 0.78634 0.5433 0.0
H998 H 0.99398 0.7975 0.50045 0.0
H999 H 0.04024 0.79895 0.50166 0.0
C1000 C 0.34884 0.11409 0.71425 0.0
C1001 C 0.34727 0.10809 0.75337 0.0
C1002 C 0.33334 0.08213 0.68907 0.0
C1003 C 0.31648 0.0436 0.70348 0.0
C1004 C 0.31641 0.03781 0.74286 0.0
C1005 C 0.33157 0.06988 0.76708 0.0
C1006 C 0.33389 0.08949 0.6473 0.0
C1007 C 0.29939 0.99748 0.75976 0.0
C1008 C 0.23504 0.95027 0.66364 0.0
C1009 C 0.25456 0.9298 0.65539 0.0
C1010 C 0.25554 0.98947 0.67487 0.0
C1011 C 0.29657 0.00854 0.67865 0.0
C1012 C 0.31669 0.98927 0.66653 0.0
C1013 C 0.29542 0.95012 0.65482 0.0
C1014 C 0.23283 0.00898 0.6867 0.0
C1015 C 0.36038 0.00844 0.66985 0.0
H1016 H 0.36111 0.14349 0.70345 0.0
H1017 H 0.33102 0.06486 0.7972 0.0
H1018 H 0.34387 0.07196 0.6314 0.0
H1019 H 0.30391 0.08038 0.63765 0.0
H1020 H 0.35302 0.12074 0.64018 0.0
H1021 H 0.30343 0.9982 0.79082 0.0
H1022 H 0.26772 0.98041 0.75369 0.0
H1023 H 0.31314 0.98176 0.74695 0.0
H1024 H 0.20346 0.93493 0.66355 0.0
H1025 H 0.31078 0.93458 0.6484 0.0
H1026 H 0.24755 0.0397 0.67705 0.0
H1027 H 0.23116 0.00905 0.71795 0.0
H1028 H 0.20267 0.99358 0.67538 0.0
H1029 H 0.37464 0.0396 0.66169 0.0
H1030 H 0.37217 0.99363 0.65206 0.0
H1031 H 0.36819 0.00705 0.69964 0.0
C1032 C 0.7734 0.71097 0.95585 0.0
C1033 C 0.76195 0.68242 0.98408 0.0
C1034 C 0.75118 0.72853 0.94741 0.0
C1035 C 0.71679 0.71803 0.96816 0.0
C1036 C 0.7063 0.69119 -0.00162 0.0
C1037 C 0.72875 0.67332 0.00573 0.0
C1038 C 0.76335 0.75658 0.91458 0.0
C1039 C 0.67049 0.68003 0.02185 0.0
C1040 C 0.67861 0.78606 0.943 0.0
C1041 C 0.65402 0.7657 0.91287 0.0
C1042 C 0.69642 0.76919 0.96436 0.0
C1043 C 0.68997 0.73168 0.95458 0.0
C1044 C 0.66248 0.70999 0.92617 0.0
C1045 C 0.64486 0.72731 0.90575 0.0
C1046 C 0.72461 0.7928 0.99515 0.0
C1047 C 0.65474 0.67009 0.91445 0.0
H1048 H 0.79898 0.71848 0.93891 0.0
H1049 H 0.71977 0.65162 0.02784 0.0
H1050 H 0.74108 0.744 0.89196 0.0
H1051 H 0.76539 0.78435 0.92352 0.0
H1052 H 0.79187 0.76313 0.90252 0.0
H1053 H 0.67076 0.66552 0.04857 0.0
H1054 H 0.668 0.70605 0.02862 0.0
H1055 H 0.64416 0.65963 0.00567 0.0
H1056 H 0.68595 0.81593 0.94822 0.0
H1057 H 0.626 0.71179 0.88217 0.0
H1058 H 0.75484 0.8058 0.98434 0.0
H1059 H 0.72183 0.77408 0.01959 0.0
H1060 H 0.71995 0.81681 0.0049 0.0
H1061 H 0.68072 0.6729 0.89968 0.0
H1062 H 0.62932 0.65535 0.89521 0.0
H1063 H 0.64938 0.65129 0.93947 0.0
C1064 C 0.06999 0.74455 0.11341 0.0
C1065 C 0.08287 0.75403 0.1507 0.0
C1066 C 0.03027 0.72359 0.10474 0.0
C1067 C 1.00244 0.71265 0.13407 0.0
C1068 C 0.01523 0.72142 0.17204 0.0
C1069 C 0.05552 0.74166 0.18 0.0
C1070 C 0.01821 0.71411 0.06392 0.0
C1071 C 0.98654 0.71096 0.20396 0.0
C1072 C 0.91144 0.70234 0.08973 0.0
C1073 C 0.89077 0.66242 0.08175 0.0
C1074 C 0.94573 0.71855 0.11122 0.0
C1075 C 0.96042 0.69441 0.12377 0.0
C1076 C 0.93769 0.65352 0.11869 0.0
C1077 C 0.90278 0.63792 0.09801 0.0
C1078 C 0.96831 0.7621 0.11695 0.0
C1079 C 0.95229 0.62669 0.13116 0.0
H1080 H 0.09123 0.75371 0.09079 0.0
H1081 H 0.06558 0.74913 0.20885 0.0
H1082 H 0.99698 0.68259 0.06069 0.0
H1083 H 1.00371 0.7304 0.05441 0.0
H1084 H 0.04339 0.72174 0.04501 0.0
H1085 H 1.00065 0.71509 0.23196 0.0
H1086 H 0.97306 0.72965 0.20252 0.0
H1087 H 0.9627 0.68029 0.20147 0.0
H1088 H 0.90209 0.72127 0.07714 0.0
H1089 H 0.88702 0.60707 0.09146 0.0
H1090 H 0.99286 0.77532 0.0966 0.0
H1091 H 0.98078 0.76939 0.14578 0.0
H1092 H 0.94979 0.77549 0.11243 0.0
H1093 H 0.9746 0.62884 0.11084 0.0
H1094 H 0.92845 0.59585 0.13223 0.0
H1095 H 0.96626 0.63515 0.1593 0.0
C1096 C 0.35259 0.05593 0.3298 0.0
C1097 C 0.33208 0.07438 0.34171 0.0
C1098 C 0.3327 0.01687 0.31789 0.0
C1099 C 0.29143 0.99558 0.31889 0.0
C1100 C 0.27108 0.01268 0.33563 0.0
C1101 C 0.29157 0.05215 0.3461 0.0
C1102 C 0.35567 1.00008 0.30003 0.0
C1103 C 0.22728 0.99052 0.33891 0.0
C1104 C 0.24309 0.93394 0.23269 0.0
C1105 C 0.2331 0.89617 0.24446 0.0
C1106 C 0.26174 0.966 0.25678 0.0
C1107 C 0.26988 0.9605 0.2944 0.0
C1108 C 0.2584 0.92234 0.3073 0.0
C1109 C 0.24068 0.89062 0.28197 0.0
C1110 C 0.27381 0.00608 0.24133 0.0
C1111 C 0.26561 0.91504 0.34744 0.0
H1112 H 0.38392 0.07302 0.32629 0.0
H1113 H 0.27564 0.06619 0.35577 0.0
H1114 H 0.34476 0.96975 0.30965 0.0
H1115 H 0.35204 0.99936 0.26894 0.0
H1116 H 0.38724 0.01766 0.30658 0.0
H1117 H 0.21682 1.00414 0.3598 0.0
H1118 H 0.21425 0.99022 0.31113 0.0
H1119 H 0.21666 0.95983 0.34727 0.0
H1120 H 0.23768 0.93902 0.20386 0.0
H1121 H 0.23318 0.8617 0.29144 0.0
H1122 H 0.30569 0.02551 0.24466 0.0
H1123 H 0.25917 0.01922 0.2573 0.0
H1124 H 0.26647 0.00543 0.21101 0.0
H1125 H 0.2965 0.92282 0.3506 0.0
H1126 H 0.24704 0.88394 0.35542 0.0
H1127 H 0.26007 0.9333 0.36742 0.0
C1128 C 0.34714 0.23249 0.45008 0.0
C1129 C 0.34539 0.23634 0.41089 0.0
C1130 C 0.33198 0.24953 0.47497 0.0
C1131 C 0.3151 0.271 0.46016 0.0
C1132 C 0.31464 0.27599 0.42069 0.0
C1133 C 0.32964 0.25868 0.39679 0.0
C1134 C 0.333 0.24359 0.51687 0.0
C1135 C 0.29748 0.299 0.40337 0.0
C1136 C 0.23483 0.28518 0.49898 0.0
C1137 C 0.25482 0.3255 0.50541 0.0
C1138 C 0.25488 0.26565 0.48897 0.0
C1139 C 0.29587 0.28708 0.48469 0.0
C1140 C 0.31649 0.32683 0.49542 0.0
C1141 C 0.29569 0.3456 0.50582 0.0
C1142 C 0.23171 0.22306 0.47868 0.0
C1143 C 0.36018 0.35074 0.49168 0.0
H1144 H 0.35942 0.21548 0.46122 0.0
H1145 H 0.32889 0.26271 0.36662 0.0
H1146 H 0.34274 0.27131 0.53228 0.0
H1147 H 0.30321 0.2226 0.52691 0.0
H1148 H 0.35254 0.23198 0.52419 0.0
H1149 H 0.30082 0.30134 0.37221 0.0
H1150 H 0.26597 0.28486 0.41011 0.0
H1151 H 0.31172 0.32886 0.41529 0.0
H1152 H 0.20325 0.26925 0.49937 0.0
H1153 H 0.31144 0.37672 0.51102 0.0
H1154 H 0.24642 0.2072 0.48882 0.0
H1155 H 0.22938 0.22017 0.44752 0.0
H1156 H 0.20179 0.20897 0.4906 0.0
H1157 H 0.37416 0.33374 0.50048 0.0
H1158 H 0.37239 0.37784 0.50873 0.0
H1159 H 0.36786 0.35905 0.46168 0.0
C1160 C 0.10408 0.31287 0.59898 0.0
C1161 C 0.12106 0.35096 0.5851 0.0
C1162 C 0.06909 0.29645 0.61948 0.0
C1163 C 0.04992 0.3182 0.62481 0.0
C1164 C 0.0687 0.3578 0.61345 0.0
C1165 C 0.10435 0.37384 0.59397 0.0
C1166 C 0.05076 0.25454 0.63201 0.0
C1167 C 0.04919 0.38194 0.61789 0.0
C1168 C 0.94046 0.25708 0.61369 0.0
C1169 C 0.92705 0.25394 0.65081 0.0
C1170 C 0.98015 0.2789 0.60502 0.0
C1171 C 0.00757 0.29733 0.63437 0.0
C1172 C 0.99429 0.29451 0.67204 0.0
C1173 C 0.95397 0.27327 0.67979 0.0
C1174 C 0.99267 0.28187 0.56428 0.0
C1175 C 0.02266 0.31294 0.70414 0.0
H1176 H 0.11695 0.29513 0.59182 0.0
H1177 H 0.11723 0.40313 0.58263 0.0
H1178 H 0.03743 0.2506 0.66036 0.0
H1179 H 0.0273 0.23576 0.61201 0.0
H1180 H 0.07234 0.24443 0.63282 0.0
H1181 H 0.07017 0.41355 0.61445 0.0
H1182 H 0.0262 0.37311 0.59609 0.0
H1183 H 0.03494 0.37706 0.64584 0.0
H1184 H 0.91964 0.24271 0.59112 0.0
H1185 H 0.94361 0.27083 0.70851 0.0
H1186 H 0.01028 0.26744 0.56057 0.0
H1187 H 0.01121 0.31288 0.55611 0.0
H1188 H 0.96749 0.26809 0.54466 0.0
H1189 H 0.04053 0.29866 0.70698 0.0
H1190 H 0.00771 0.31032 0.7314 0.0
H1191 H 0.04296 0.34421 0.69826 0.0
C1192 C 0.80092 0.10199 0.76303 0.0
C1193 C 0.78009 0.12054 0.75277 0.0
C1194 C 0.78323 0.06736 0.78418 0.0
C1195 C 0.74326 0.05 0.79377 0.0
C1196 C 0.72306 0.07036 0.78603 0.0
C1197 C 0.74196 0.10574 0.76602 0.0
C1198 C 0.80633 0.04747 0.79295 0.0
C1199 C 0.68028 0.05273 0.79482 0.0
C1200 C 0.68925 0.9401 0.78373 0.0
C1201 C 0.68206 0.92736 0.82125 0.0
C1202 C 0.70798 0.97976 0.7747 0.0
C1203 C 0.72113 0.00779 0.80401 0.0
C1204 C 0.71391 0.99514 0.84214 0.0
C1205 C 0.69376 0.95485 0.85035 0.0
C1206 C 0.71388 0.99157 0.73361 0.0
C1207 C 0.72839 0.02408 0.87412 0.0
H1208 H 0.8304 0.11338 0.75265 0.0
H1209 H 0.72564 0.11977 0.75756 0.0
H1210 H 0.79938 0.03456 0.82165 0.0
H1211 H 0.79857 0.02347 0.77254 0.0
H1212 H 0.83818 0.06796 0.79097 0.0
H1213 H 0.67079 0.07478 0.79366 0.0
H1214 H 0.66314 0.02968 0.7738 0.0
H1215 H 0.67329 0.03889 0.82308 0.0
H1216 H 0.67967 0.91874 0.76121 0.0
H1217 H 0.68818 0.94491 0.87936 0.0
H1218 H 0.74543 0.00758 0.72689 0.0
H1219 H 0.70233 0.01142 0.72774 0.0
H1220 H 0.69932 0.96611 0.71438 0.0
H1221 H 0.7607 0.04072 0.8738 0.0
H1222 H 0.71849 0.00972 0.90204 0.0
H1223 H 0.71829 0.04544 0.87055 0.0
C1224 C 0.23498 0.38509 0.32721 0.0
C1225 C 0.20091 0.3642 0.34831 0.0
C1226 C 0.23406 0.38174 0.28793 0.0
C1227 C 0.1979 0.35819 0.26976 0.0
C1228 C 0.16395 0.33496 0.29121 0.0
C1229 C 0.16603 0.33779 0.33054 0.0
C1230 C 0.27112 0.40582 0.26581 0.0
C1231 C 0.12488 0.31003 0.27264 0.0
C1232 C 0.19372 0.39974 0.17537 0.0
C1233 C 0.20031 0.37599 0.15088 0.0
C1234 C 0.19048 0.39268 0.21424 0.0
C1235 C 0.19503 0.36182 0.22867 0.0
C1236 C 0.19997 0.33674 0.20394 0.0
C1237 C 0.20225 0.34395 0.16517 0.0
C1238 C 0.18387 0.41922 0.23997 0.0
C1239 C 0.2053 0.30389 0.21851 0.0
H1240 H 0.26181 0.40555 0.34128 0.0
H1241 H 0.13962 0.32217 0.34713 0.0
H1242 H 0.27424 0.38799 0.24342 0.0
H1243 H 0.27001 0.43028 0.25179 0.0
H1244 H 0.29733 0.41813 0.28414 0.0
H1245 H 0.10164 0.29247 0.29342 0.0
H1246 H 0.11644 0.32892 0.25696 0.0
H1247 H 0.12656 0.29006 0.25182 0.0
H1248 H 0.19193 0.42428 0.16422 0.0
H1249 H 0.20776 0.32573 0.14625 0.0
H1250 H 0.21038 0.43705 0.2571 0.0
H1251 H 0.1596 0.40181 0.2598 0.0
H1252 H 0.177 0.43918 0.22403 0.0
H1253 H 0.23344 0.31618 0.23375 0.0
H1254 H 0.20509 0.28484 0.19543 0.0
H1255 H 0.18208 0.28575 0.23896 0.0
C1256 C 0.81377 0.15345 0.49546 0.0
C1257 C 0.81622 0.18737 0.5105 0.0
C1258 C 0.81629 0.14934 0.45659 0.0
C1259 C 0.8224 0.18029 0.43257 0.0
C1260 C 0.82764 0.21565 0.44783 0.0
C1261 C 0.82388 0.21856 0.48675 0.0
C1262 C 0.81041 0.11125 0.44113 0.0
C1263 C 0.8354 0.24971 0.42289 0.0
C1264 C 0.85155 0.18623 0.33057 0.0
C1265 C 0.81693 0.17869 0.31282 0.0
C1266 C 0.85349 0.18493 0.36989 0.0
C1267 C 0.81966 0.17476 0.39134 0.0
C1268 C 0.78373 0.16335 0.37317 0.0
C1269 C 0.78297 0.16623 0.33393 0.0
C1270 C 0.89231 0.19777 0.38847 0.0
C1271 C 0.74675 0.1508 0.39528 0.0
H1272 H 0.80759 0.12916 0.51386 0.0
H1273 H 0.82608 0.24484 0.49852 0.0
H1274 H 0.78646 0.09929 0.42016 0.0
H1275 H 0.83707 0.11609 0.42627 0.0
H1276 H 0.80353 0.08922 0.46361 0.0
H1277 H 0.84295 0.27635 0.43947 0.0
H1278 H 0.85958 0.25631 0.40303 0.0
H1279 H 0.80913 0.24219 0.40579 0.0
H1280 H 0.8779 0.19645 0.31399 0.0
H1281 H 0.75632 0.1605 0.31986 0.0
H1282 H 0.88983 0.17585 0.40936 0.0
H1283 H 0.90166 0.22533 0.40405 0.0
H1284 H 0.91525 0.20251 0.36768 0.0
H1285 H 0.74281 0.12884 0.41688 0.0
H1286 H 0.72062 0.13825 0.37681 0.0
H1287 H 0.74868 0.17628 0.41029 0.0
C1288 C 0.67286 0.82471 0.66117 0.0
C1289 C 0.64324 0.83017 0.67622 0.0
C1290 C 0.67778 0.82459 0.62221 0.0
C1291 C 0.65332 0.83145 0.59841 0.0
C1292 C 0.6268 0.8419 0.61372 0.0
C1293 C 0.6214 0.84026 0.65272 0.0
C1294 C 0.70719 0.81462 0.60665 0.0
C1295 C 0.60229 0.85214 0.58883 0.0
C1296 C 0.66963 0.84679 0.49412 0.0
C1297 C 0.63781 0.81229 0.48045 0.0
C1298 C 0.67641 0.85306 0.53271 0.0
C1299 C 0.65177 0.82333 0.55785 0.0
C1300 C 0.62235 0.78679 0.54405 0.0
C1301 C 0.61507 0.78197 0.50528 0.0
C1302 C 0.70859 0.89215 0.54625 0.0
C1303 C 0.59716 0.75366 0.57038 0.0
H1304 H 0.68981 0.81701 0.67961 0.0
H1305 H 0.59889 0.84497 0.66471 0.0
H1306 H 0.69356 0.79132 0.58508 0.0
H1307 H 0.73109 0.84059 0.5927 0.0
H1308 H 0.72014 0.80503 0.62905 0.0
H1309 H 0.58765 0.86513 0.60516 0.0
H1310 H 0.62054 0.87303 0.56657 0.0
H1311 H 0.57959 0.82547 0.57461 0.0
H1312 H 0.68751 0.87031 0.47487 0.0
H1313 H 0.59088 0.75515 0.49455 0.0
H1314 H 0.73436 0.88963 0.55383 0.0
H1315 H 0.69969 0.90218 0.57162 0.0
H1316 H 0.71774 0.91482 0.52401 0.0
H1317 H 0.61549 0.74956 0.59151 0.0
H1318 H 0.57945 0.72581 0.55501 0.0
H1319 H 0.57712 0.76065 0.58595 0.0
C1320 C 0.79276 0.60961 0.81526 0.0
C1321 C 0.82365 0.63336 0.83917 0.0
C1322 C 0.79597 0.61607 0.77629 0.0
C1323 C 0.83134 0.64624 0.76112 0.0
C1324 C 0.86195 0.67136 0.78528 0.0
C1325 C 0.85753 0.66492 0.8242 0.0
C1326 C 0.76225 0.58944 0.75123 0.0
C1327 C 0.90005 0.70364 0.76995 0.0
C1328 C 0.84642 0.62046 0.66288 0.0
C1329 C 0.83374 0.64153 0.64136 0.0
C1330 C 0.84909 0.62445 0.70212 0.0
C1331 C 0.83721 0.64884 0.71989 0.0
C1332 C 0.82678 0.67204 0.69802 0.0
C1333 C 0.82578 0.66854 0.65872 0.0
C1334 C 0.86187 0.60045 0.72468 0.0
C1335 C 0.81342 0.69785 0.71613 0.0
H1336 H 0.76651 0.58543 0.82694 0.0
H1337 H 0.88161 0.6832 0.84269 0.0
H1338 H 0.75556 0.60676 0.73111 0.0
H1339 H 0.77019 0.57082 0.7344 0.0
H1340 H 0.73554 0.57025 0.76768 0.0
H1341 H 0.92187 0.71894 0.79254 0.0
H1342 H 0.91233 0.69171 0.74921 0.0
H1343 H 0.89512 0.72529 0.75487 0.0
H1344 H 0.85247 0.59958 0.64916 0.0
H1345 H 0.8154 0.68435 0.64184 0.0
H1346 H 0.83643 0.57684 0.73966 0.0
H1347 H 0.88357 0.61874 0.74632 0.0
H1348 H 0.87482 0.587 0.70651 0.0
H1349 H 0.78652 0.67973 0.73268 0.0
H1350 H 0.80738 0.71487 0.69501 0.0
H1351 H 0.83573 0.71839 0.73609 0.0
C1352 C 0.17094 0.82204 0.82585 0.0
C1353 C 0.20529 0.82716 0.80924 0.0
C1354 C 0.16701 0.82125 0.86498 0.0
C1355 C 0.19884 0.82741 0.88765 0.0
C1356 C 0.23472 0.83587 0.87096 0.0
C1357 C 0.23725 0.83473 0.83167 0.0
C1358 C 0.12814 0.81142 0.8819 0.0
C1359 C 0.26972 0.84418 0.89461 0.0
C1360 C 0.20051 0.85009 0.99084 0.0
C1361 C 0.19409 0.81512 0.00709 0.0
C1362 C 0.20112 0.85428 0.95174 0.0
C1363 C 0.19397 0.82234 0.92875 0.0
C1364 C 0.18446 0.78601 0.94506 0.0
C1365 C 0.18541 0.78303 0.9843 0.0
C1366 C 0.21178 0.89346 0.9351 0.0
C1367 C 0.17478 0.75082 0.92106 0.0
H1368 H 0.146 0.81553 0.8083 0.0
H1369 H 0.26365 0.83853 0.81855 0.0
H1370 H 0.11834 0.78683 0.90202 0.0
H1371 H 0.13094 0.83667 0.89797 0.0
H1372 H 0.10529 0.80351 0.86009 0.0
H1373 H 0.29643 0.8544 0.87726 0.0
H1374 H 0.27514 0.86664 0.91617 0.0
H1375 H 0.26406 0.81735 0.90977 0.0
H1376 H 0.20773 0.87507 0.00863 0.0
H1377 H 0.18031 0.75603 -0.00287 0.0
H1378 H 0.18823 0.89083 0.91637 0.0
H1379 H 0.23834 0.90413 0.91749 0.0
H1380 H 0.21707 0.9155 0.95712 0.0
H1381 H 0.15202 0.74605 0.90008 0.0
H1382 H 0.16431 0.72395 0.93821 0.0
H1383 H 0.20102 0.75584 0.90518 0.0
C1384 C 0.34316 0.15863 0.00242 0.0
C1385 C 0.37406 0.19342 0.98815 0.0
C1386 C 0.33784 0.15232 0.04123 0.0
C1387 C 0.3632 0.18208 0.06598 0.0
C1388 C 0.39153 0.21887 0.0517 0.0
C1389 C 0.39734 0.22383 0.01271 0.0
C1390 C 0.3066 0.11319 0.05563 0.0
C1391 C 0.41705 0.2522 0.07764 0.0
C1392 C 0.34249 0.17538 0.17029 0.0
C1393 C 0.37252 0.16995 0.18407 0.0
C1394 C 0.33805 0.17833 0.13159 0.0
C1395 C 0.36314 0.17373 0.10646 0.0
C1396 C 0.39076 0.16399 0.12033 0.0
C1397 C 0.39599 0.16343 0.15928 0.0
C1398 C 0.30769 0.18807 0.11834 0.0
C1399 C 0.41615 0.15621 0.09408 0.0
H1400 H 0.32504 0.13507 0.98334 0.0
H1401 H 0.42087 0.25086 0.00151 0.0
H1402 H 0.31882 0.10155 0.07676 0.0
H1403 H 0.28357 0.11661 0.06986 0.0
H1404 H 0.2929 0.09151 0.0326 0.0
H1405 H 0.43269 0.28035 0.06226 0.0
H1406 H 0.39935 0.25491 0.10045 0.0
H1407 H 0.43896 0.24646 0.09111 0.0
H1408 H 0.3247 0.18086 0.18986 0.0
H1409 H 0.41929 0.15946 0.17034 0.0
H1410 H 0.2795 0.16065 0.11501 0.0
H1411 H 0.3153 0.20367 0.09094 0.0
H1412 H 0.30326 0.20618 0.13951 0.0
H1413 H 0.39826 0.13579 0.07138 0.0
H1414 H 0.43193 0.14368 0.10918 0.0
H1415 H 0.43792 0.18382 0.08047 0.0
loop_
_geom_bond_atom_site_label_1
_geom_bond_atom_site_label_2
_geom_bond_distance
_geom_bond_site_symmetry_2
_ccdc_geom_bond_type
Sc0 O3 2.025 1_556 S
Sc0 O10 2.105 1_556 S
Sc0 O13 2.105 . S
Sc0 O16 2.105 . S
Sc0 O19 2.105 1_556 S
Sc1 O3 2.025 . S
Sc1 O11 2.105 . S
Sc1 O15 2.105 . S
Sc1 O17 2.105 . S
Sc1 O21 2.105 . S
Sc2 O3 2.025 . S
Sc2 O12 2.105 . S
Sc2 O14 2.105 . S
Sc2 O18 2.105 . S
Sc2 O20 2.105 . S
O3 Sc0 2.025 1_554 S
O3 Sc1 2.025 . S
O3 Sc2 2.025 . S
C4 O10 1.268 . S
C4 O20 1.268 . S
C5 O11 1.268 . S
C5 O19 1.268 . S
C6 O12 1.268 . S
C6 O21 1.268 . S
C7 O13 1.268 . S
C7 O17 1.268 1_556 S
C8 O14 1.268 1_556 S
C8 O16 1.268 . S
C9 O15 1.268 . S
C9 O18 1.268 . S
O10 Sc0 2.105 1_554 S
O10 C4 1.268 . S
O11 Sc1 2.105 . S
O11 C5 1.268 . S
O12 Sc2 2.105 . S
O12 C6 1.268 . S
O13 Sc0 2.105 . S
O13 C7 1.268 . S
O14 Sc2 2.105 . S
O14 C8 1.268 1_554 S
O15 Sc1 2.105 . S
O15 C9 1.268 . S
O16 Sc0 2.105 . S
O16 C8 1.268 . S
O17 Sc1 2.105 . S
O17 C7 1.268 1_554 S
O18 Sc2 2.105 . S
O18 C9 1.268 . S
O19 Sc0 2.105 1_554 S
O19 C5 1.268 . S
O20 Sc2 2.105 . S
O20 C4 1.268 . S
O21 Sc1 2.105 . S
O21 C6 1.268 . S
Sc22 O25 2.025 . S
Sc22 O32 2.105 . S
Sc22 O35 2.105 . S
Sc22 O38 2.105 . S
Sc22 O41 2.105 . S
Sc23 O25 2.025 . S
Sc23 O33 2.105 . S
Sc23 O37 2.105 . S
Sc23 O39 2.105 . S
Sc23 O43 2.105 . S
Sc24 O25 2.025 . S
Sc24 O34 2.105 . S
Sc24 O36 2.105 . S
Sc24 O40 2.105 . S
Sc24 O42 2.105 . S
O25 Sc22 2.025 . S
O25 Sc23 2.025 . S
O25 Sc24 2.025 . S
C26 O32 1.268 . S
C26 O42 1.268 . S
C27 O33 1.268 . S
C27 O41 1.268 . S
C28 O34 1.268 . S
C28 O43 1.268 . S
C29 O35 1.268 . S
C29 O39 1.268 . S
C30 O36 1.268 . S
C30 O38 1.268 . S
C31 O37 1.268 . S
C31 O40 1.268 . S
O32 Sc22 2.105 . S
O32 C26 1.268 . S
O33 Sc23 2.105 . S
O33 C27 1.268 . S
O34 Sc24 2.105 . S
O34 C28 1.268 . S
O35 Sc22 2.105 . S
O35 C29 1.268 . S
O36 Sc24 2.105 . S
O36 C30 1.268 . S
O37 Sc23 2.105 . S
O37 C31 1.268 . S
O38 Sc22 2.105 . S
O38 C30 1.268 . S
O39 Sc23 2.105 . S
O39 C29 1.268 . S
O40 Sc24 2.105 . S
O40 C31 1.268 . S
O41 Sc22 2.105 . S
O41 C27 1.268 . S
O42 Sc24 2.105 . S
O42 C26 1.268 . S
O43 Sc23 2.105 . S
O43 C28 1.268 . S
Sc44 O47 2.025 . S
Sc44 O54 2.105 . S
Sc44 O57 2.105 . S
Sc44 O60 2.105 . S
Sc44 O63 2.105 . S
Sc45 O47 2.025 . S
Sc45 O55 2.105 . S
Sc45 O59 2.105 . S
Sc45 O61 2.105 . S
Sc45 O65 2.105 . S
Sc46 O47 2.025 . S
Sc46 O56 2.105 . S
Sc46 O58 2.105 . S
Sc46 O62 2.105 . S
Sc46 O64 2.105 . S
O47 Sc44 2.025 . S
O47 Sc45 2.025 . S
O47 Sc46 2.025 . S
C48 O54 1.268 . S
C48 O64 1.268 . S
C49 O55 1.268 . S
C49 O63 1.268 . S
C50 O56 1.268 . S
C50 O65 1.268 . S
C51 O57 1.268 . S
C51 O61 1.268 . S
C52 O58 1.268 . S
C52 O60 1.268 . S
C53 O59 1.268 . S
C53 O62 1.268 . S
O54 Sc44 2.105 . S
O54 C48 1.268 . S
O55 Sc45 2.105 . S
O55 C49 1.268 . S
O56 Sc46 2.105 . S
O56 C50 1.268 . S
O57 Sc44 2.105 . S
O57 C51 1.268 . S
O58 Sc46 2.105 . S
O58 C52 1.268 . S
O59 Sc45 2.105 . S
O59 C53 1.268 . S
O60 Sc44 2.105 . S
O60 C52 1.268 . S
O61 Sc45 2.105 . S
O61 C51 1.268 . S
O62 Sc46 2.105 . S
O62 C53 1.268 . S
O63 Sc44 2.105 . S
O63 C49 1.268 . S
O64 Sc46 2.105 . S
O64 C48 1.268 . S
O65 Sc45 2.105 . S
O65 C50 1.268 . S
Sc66 O69 2.025 . S
Sc66 O76 2.105 . S
Sc66 O79 2.105 . S
Sc66 O82 2.105 . S
Sc66 O85 2.105 . S
Sc67 O69 2.025 . S
Sc67 O77 2.105 . S
Sc67 O81 2.105 . S
Sc67 O83 2.105 . S
Sc67 O87 2.105 . S
Sc68 O69 2.025 . S
Sc68 O78 2.105 . S
Sc68 O80 2.105 . S
Sc68 O84 2.105 . S
Sc68 O86 2.105 . S
O69 Sc66 2.025 . S
O69 Sc67 2.025 . S
O69 Sc68 2.025 . S
C70 O76 1.268 . S
C70 O86 1.268 . S
C71 O77 1.268 . S
C71 O85 1.268 . S
C72 O78 1.268 . S
C72 O87 1.268 . S
C73 O79 1.268 . S
C73 O83 1.268 . S
C74 O80 1.268 . S
C74 O82 1.268 . S
C75 O81 1.268 . S
C75 O84 1.268 . S
O76 Sc66 2.105 . S
O76 C70 1.268 . S
O77 Sc67 2.105 . S
O77 C71 1.268 . S
O78 Sc68 2.105 . S
O78 C72 1.268 . S
O79 Sc66 2.105 . S
O79 C73 1.268 . S
O80 Sc68 2.105 . S
O80 C74 1.268 . S
O81 Sc67 2.105 . S
O81 C75 1.268 . S
O82 Sc66 2.105 . S
O82 C74 1.268 . S
O83 Sc67 2.105 . S
O83 C73 1.268 . S
O84 Sc68 2.105 . S
O84 C75 1.268 . S
O85 Sc66 2.105 . S
O85 C71 1.268 . S
O86 Sc68 2.105 . S
O86 C70 1.268 . S
O87 Sc67 2.105 . S
O87 C72 1.268 . S
Sc88 O91 2.025 . S
Sc88 O98 2.105 . S
Sc88 O101 2.105 . S
Sc88 O104 2.105 . S
Sc88 O107 2.105 . S
Sc89 O91 2.025 . S
Sc89 O99 2.105 . S
Sc89 O103 2.105 . S
Sc89 O105 2.105 . S
Sc89 O109 2.105 . S
Sc90 O91 2.025 . S
Sc90 O100 2.105 . S
Sc90 O102 2.105 . S
Sc90 O106 2.105 . S
Sc90 O108 2.105 . S
O91 Sc88 2.025 . S
O91 Sc89 2.025 . S
O91 Sc90 2.025 . S
C92 O98 1.268 . S
C92 O108 1.268 . S
C93 O99 1.268 . S
C93 O107 1.268 . S
C94 O100 1.268 . S
C94 O109 1.268 . S
C95 O101 1.268 . S
C95 O105 1.268 . S
C96 O102 1.268 . S
C96 O104 1.268 . S
C97 O103 1.268 . S
C97 O106 1.268 . S
O98 Sc88 2.105 . S
O98 C92 1.268 . S
O99 Sc89 2.105 . S
O99 C93 1.268 . S
O100 Sc90 2.105 . S
O100 C94 1.268 . S
O101 Sc88 2.105 . S
O101 C95 1.268 . S
O102 Sc90 2.105 . S
O102 C96 1.268 . S
O103 Sc89 2.105 . S
O103 C97 1.268 . S
O104 Sc88 2.105 . S
O104 C96 1.268 . S
O105 Sc89 2.105 . S
O105 C95 1.268 . S
O106 Sc90 2.105 . S
O106 C97 1.268 . S
O107 Sc88 2.105 . S
O107 C93 1.268 . S
O108 Sc90 2.105 . S
O108 C92 1.268 . S
O109 Sc89 2.105 . S
O109 C94 1.268 . S
Sc110 O113 2.025 . S
Sc110 O120 2.105 . S
Sc110 O123 2.105 . S
Sc110 O126 2.105 . S
Sc110 O129 2.105 . S
Sc111 O113 2.025 . S
Sc111 O121 2.105 . S
Sc111 O125 2.105 . S
Sc111 O127 2.105 . S
Sc111 O131 2.105 . S
Sc112 O113 2.025 . S
Sc112 O122 2.105 . S
Sc112 O124 2.105 . S
Sc112 O128 2.105 . S
Sc112 O130 2.105 . S
O113 Sc110 2.025 . S
O113 Sc111 2.025 . S
O113 Sc112 2.025 . S
C114 O120 1.268 . S
C114 O130 1.268 . S
C115 O121 1.268 . S
C115 O129 1.268 . S
C116 O122 1.268 . S
C116 O131 1.268 . S
C117 O123 1.268 . S
C117 O127 1.268 . S
C118 O124 1.268 . S
C118 O126 1.268 . S
C119 O125 1.268 . S
C119 O128 1.268 . S
O120 Sc110 2.105 . S
O120 C114 1.268 . S
O121 Sc111 2.105 . S
O121 C115 1.268 . S
O122 Sc112 2.105 . S
O122 C116 1.268 . S
O123 Sc110 2.105 . S
O123 C117 1.268 . S
O124 Sc112 2.105 . S
O124 C118 1.268 . S
O125 Sc111 2.105 . S
O125 C119 1.268 . S
O126 Sc110 2.105 . S
O126 C118 1.268 . S
O127 Sc111 2.105 . S
O127 C117 1.268 . S
O128 Sc112 2.105 . S
O128 C119 1.268 . S
O129 Sc110 2.105 . S
O129 C115 1.268 . S
O130 Sc112 2.105 . S
O130 C114 1.268 . S
O131 Sc111 2.105 . S
O131 C116 1.268 . S
Sc132 O135 2.025 . S
Sc132 O142 2.105 . S
Sc132 O145 2.105 . S
Sc132 O148 2.105 . S
Sc132 O151 2.105 . S
Sc133 O135 2.025 . S
Sc133 O143 2.105 . S
Sc133 O147 2.105 . S
Sc133 O149 2.105 . S
Sc133 O153 2.105 . S
Sc134 O135 2.025 . S
Sc134 O144 2.105 . S
Sc134 O146 2.105 . S
Sc134 O150 2.105 . S
Sc134 O152 2.105 . S
O135 Sc132 2.025 . S
O135 Sc133 2.025 . S
O135 Sc134 2.025 . S
C136 O142 1.268 . S
C136 O152 1.268 . S
C137 O143 1.268 . S
C137 O151 1.268 . S
C138 O144 1.268 . S
C138 O153 1.268 . S
C139 O145 1.268 . S
C139 O149 1.268 . S
C140 O146 1.268 . S
C140 O148 1.268 . S
C141 O147 1.268 . S
C141 O150 1.268 . S
O142 Sc132 2.105 . S
O142 C136 1.268 . S
O143 Sc133 2.105 . S
O143 C137 1.268 . S
O144 Sc134 2.105 . S
O144 C138 1.268 . S
O145 Sc132 2.105 . S
O145 C139 1.268 . S
O146 Sc134 2.105 . S
O146 C140 1.268 . S
O147 Sc133 2.105 . S
O147 C141 1.268 . S
O148 Sc132 2.105 . S
O148 C140 1.268 . S
O149 Sc133 2.105 . S
O149 C139 1.268 . S
O150 Sc134 2.105 . S
O150 C141 1.268 . S
O151 Sc132 2.105 . S
O151 C137 1.268 . S
O152 Sc134 2.105 . S
O152 C136 1.268 . S
O153 Sc133 2.105 . S
O153 C138 1.268 . S
Sc154 O157 2.025 . S
Sc154 O164 2.105 . S
Sc154 O167 2.105 . S
Sc154 O170 2.105 . S
Sc154 O173 2.105 . S
Sc155 O157 2.025 . S
Sc155 O165 2.105 . S
Sc155 O169 2.105 . S
Sc155 O171 2.105 . S
Sc155 O175 2.105 . S
Sc156 O157 2.025 1_554 S
Sc156 O166 2.105 . S
Sc156 O168 2.105 1_554 S
Sc156 O172 2.105 1_554 S
Sc156 O174 2.105 . S
O157 Sc154 2.025 . S
O157 Sc155 2.025 . S
O157 Sc156 2.025 1_556 S
C158 O164 1.268 1_554 S
C158 O174 1.268 . S
C159 O165 1.268 . S
C159 O173 1.268 . S
C160 O166 1.268 . S
C160 O175 1.268 1_554 S
C161 O167 1.268 . S
C161 O171 1.268 . S
C162 O168 1.268 . S
C162 O170 1.268 . S
C163 O169 1.268 . S
C163 O172 1.268 . S
O164 Sc154 2.105 . S
O164 C158 1.268 1_556 S
O165 Sc155 2.105 . S
O165 C159 1.268 . S
O166 Sc156 2.105 . S
O166 C160 1.268 . S
O167 Sc154 2.105 . S
O167 C161 1.268 . S
O168 Sc156 2.105 1_556 S
O168 C162 1.268 . S
O169 Sc155 2.105 . S
O169 C163 1.268 . S
O170 Sc154 2.105 . S
O170 C162 1.268 . S
O171 Sc155 2.105 . S
O171 C161 1.268 . S
O172 Sc156 2.105 1_556 S
O172 C163 1.268 . S
O173 Sc154 2.105 . S
O173 C159 1.268 . S
O174 Sc156 2.105 . S
O174 C158 1.268 . S
O175 Sc155 2.105 . S
O175 C160 1.268 1_556 S
Sc176 O179 2.025 . S
Sc176 O186 2.105 . S
Sc176 O189 2.105 . S
Sc176 O192 2.105 . S
Sc176 O195 2.105 . S
Sc177 O179 2.025 . S
Sc177 O187 2.105 . S
Sc177 O191 2.105 . S
Sc177 O193 2.105 . S
Sc177 O197 2.105 . S
Sc178 O179 2.025 . S
Sc178 O188 2.105 . S
Sc178 O190 2.105 . S
Sc178 O194 2.105 . S
Sc178 O196 2.105 . S
O179 Sc176 2.025 . S
O179 Sc177 2.025 . S
O179 Sc178 2.025 . S
C180 O186 1.268 . S
C180 O196 1.268 . S
C181 O187 1.268 . S
C181 O195 1.268 . S
C182 O188 1.268 . S
C182 O197 1.268 . S
C183 O189 1.268 . S
C183 O193 1.268 . S
C184 O190 1.268 . S
C184 O192 1.268 . S
C185 O191 1.268 . S
C185 O194 1.268 . S
O186 Sc176 2.105 . S
O186 C180 1.268 . S
O187 Sc177 2.105 . S
O187 C181 1.268 . S
O188 Sc178 2.105 . S
O188 C182 1.268 . S
O189 Sc176 2.105 . S
O189 C183 1.268 . S
O190 Sc178 2.105 . S
O190 C184 1.268 . S
O191 Sc177 2.105 . S
O191 C185 1.268 . S
O192 Sc176 2.105 . S
O192 C184 1.268 . S
O193 Sc177 2.105 . S
O193 C183 1.268 . S
O194 Sc178 2.105 . S
O194 C185 1.268 . S
O195 Sc176 2.105 . S
O195 C181 1.268 . S
O196 Sc178 2.105 . S
O196 C180 1.268 . S
O197 Sc177 2.105 . S
O197 C182 1.268 . S
Sc198 O201 2.025 . S
Sc198 O208 2.105 . S
Sc198 O211 2.105 . S
Sc198 O214 2.105 . S
Sc198 O217 2.105 . S
Sc199 O201 2.025 . S
Sc199 O209 2.105 . S
Sc199 O213 2.105 . S
Sc199 O215 2.105 . S
Sc199 O219 2.105 . S
Sc200 O201 2.025 . S
Sc200 O210 2.105 . S
Sc200 O212 2.105 . S
Sc200 O216 2.105 . S
Sc200 O218 2.105 . S
O201 Sc198 2.025 . S
O201 Sc199 2.025 . S
O201 Sc200 2.025 . S
C202 O208 1.268 . S
C202 O218 1.268 . S
C203 O209 1.268 . S
C203 O217 1.268 . S
C204 O210 1.268 . S
C204 O219 1.268 . S
C205 O211 1.268 . S
C205 O215 1.268 . S
C206 O212 1.268 . S
C206 O214 1.268 . S
C207 O213 1.268 . S
C207 O216 1.268 . S
O208 Sc198 2.105 . S
O208 C202 1.268 . S
O209 Sc199 2.105 . S
O209 C203 1.268 . S
O210 Sc200 2.105 . S
O210 C204 1.268 . S
O211 Sc198 2.105 . S
O211 C205 1.268 . S
O212 Sc200 2.105 . S
O212 C206 1.268 . S
O213 Sc199 2.105 . S
O213 C207 1.268 . S
O214 Sc198 2.105 . S
O214 C206 1.268 . S
O215 Sc199 2.105 . S
O215 C205 1.268 . S
O216 Sc200 2.105 . S
O216 C207 1.268 . S
O217 Sc198 2.105 . S
O217 C203 1.268 . S
O218 Sc200 2.105 . S
O218 C202 1.268 . S
O219 Sc199 2.105 . S
O219 C204 1.268 . S
Sc220 O223 2.025 . S
Sc220 O230 2.105 . S
Sc220 O233 2.105 . S
Sc220 O236 2.105 . S
Sc220 O239 2.105 . S
Sc221 O223 2.025 . S
Sc221 O231 2.105 . S
Sc221 O235 2.105 . S
Sc221 O237 2.105 . S
Sc221 O241 2.105 . S
Sc222 O223 2.025 . S
Sc222 O232 2.105 . S
Sc222 O234 2.105 . S
Sc222 O238 2.105 . S
Sc222 O240 2.105 . S
O223 Sc220 2.025 . S
O223 Sc221 2.025 . S
O223 Sc222 2.025 . S
C224 O230 1.268 . S
C224 O240 1.268 . S
C225 O231 1.268 . S
C225 O239 1.268 . S
C226 O232 1.268 . S
C226 O241 1.268 . S
C227 O233 1.268 . S
C227 O237 1.268 . S
C228 O234 1.268 . S
C228 O236 1.268 . S
C229 O235 1.268 . S
C229 O238 1.268 . S
O230 Sc220 2.105 . S
O230 C224 1.268 . S
O231 Sc221 2.105 . S
O231 C225 1.268 . S
O232 Sc222 2.105 . S
O232 C226 1.268 . S
O233 Sc220 2.105 . S
O233 C227 1.268 . S
O234 Sc222 2.105 . S
O234 C228 1.268 . S
O235 Sc221 2.105 . S
O235 C229 1.268 . S
O236 Sc220 2.105 . S
O236 C228 1.268 . S
O237 Sc221 2.105 . S
O237 C227 1.268 . S
O238 Sc222 2.105 . S
O238 C229 1.268 . S
O239 Sc220 2.105 . S
O239 C225 1.268 . S
O240 Sc222 2.105 . S
O240 C224 1.268 . S
O241 Sc221 2.105 . S
O241 C226 1.268 . S
Sc242 O245 2.025 . S
Sc242 O252 2.105 . S
Sc242 O255 2.105 . S
Sc242 O258 2.105 . S
Sc242 O261 2.105 . S
Sc243 O245 2.025 . S
Sc243 O253 2.105 . S
Sc243 O257 2.105 . S
Sc243 O259 2.105 . S
Sc243 O263 2.105 . S
Sc244 O245 2.025 . S
Sc244 O254 2.105 . S
Sc244 O256 2.105 . S
Sc244 O260 2.105 . S
Sc244 O262 2.105 . S
O245 Sc242 2.025 . S
O245 Sc243 2.025 . S
O245 Sc244 2.025 . S
C246 O252 1.268 . S
C246 O262 1.268 . S
C247 O253 1.268 . S
C247 O261 1.268 . S
C248 O254 1.268 . S
C248 O263 1.268 . S
C249 O255 1.268 . S
C249 O259 1.268 . S
C250 O256 1.268 . S
C250 O258 1.268 . S
C251 O257 1.268 . S
C251 O260 1.268 . S
O252 Sc242 2.105 . S
O252 C246 1.268 . S
O253 Sc243 2.105 . S
O253 C247 1.268 . S
O254 Sc244 2.105 . S
O254 C248 1.268 . S
O255 Sc242 2.105 . S
O255 C249 1.268 . S
O256 Sc244 2.105 . S
O256 C250 1.268 . S
O257 Sc243 2.105 . S
O257 C251 1.268 . S
O258 Sc242 2.105 . S
O258 C250 1.268 . S
O259 Sc243 2.105 . S
O259 C249 1.268 . S
O260 Sc244 2.105 . S
O260 C251 1.268 . S
O261 Sc242 2.105 . S
O261 C247 1.268 . S
O262 Sc244 2.105 . S
O262 C246 1.268 . S
O263 Sc243 2.105 . S
O263 C248 1.268 . S
C264 C265 1.391 . S
C264 C266 1.394 . S
C264 H280 0.931 . S
C265 C264 1.391 . S
C265 C269 1.376 . S
C266 C264 1.394 . S
C266 C267 1.369 . S
C266 C270 1.531 . S
C267 C266 1.369 . S
C267 C268 1.410 . S
C267 C275 1.503 . S
C268 C267 1.410 . S
C268 C269 1.392 . S
C268 C271 1.511 . S
C269 C265 1.376 . S
C269 C268 1.392 . S
C269 H281 0.929 . S
C270 C266 1.531 . S
C270 H282 0.960 . S
C270 H283 0.962 . S
C270 H284 0.960 . S
C271 C268 1.511 . S
C271 H285 0.961 . S
C271 H286 0.961 . S
C271 H287 0.961 . S
C272 C273 1.370 . S
C272 C274 1.363 . S
C272 H288 0.931 . S
C273 C272 1.370 . S
C273 C277 1.408 . S
C274 C272 1.363 . S
C274 C275 1.370 . S
C274 C278 1.524 . S
C275 C267 1.503 . S
C275 C274 1.370 . S
C275 C276 1.403 . S
C276 C275 1.403 . S
C276 C277 1.404 . S
C276 C279 1.539 . S
C277 C273 1.408 . S
C277 C276 1.404 . S
C277 H289 0.930 . S
C278 C274 1.524 . S
C278 H290 0.956 . S
C278 H291 0.961 . S
C278 H292 0.961 . S
C279 C276 1.539 . S
C279 H293 0.958 . S
C279 H294 0.961 . S
C279 H295 0.960 . S
H280 C264 0.931 . S
H281 C269 0.929 . S
H282 C270 0.960 . S
H283 C270 0.962 . S
H284 C270 0.960 . S
H285 C271 0.961 . S
H286 C271 0.961 . S
H287 C271 0.961 . S
H288 C272 0.931 . S
H289 C277 0.930 . S
H290 C278 0.956 . S
H291 C278 0.961 . S
H292 C278 0.961 . S
H293 C279 0.958 . S
H294 C279 0.961 . S
H295 C279 0.960 . S
C296 C297 1.391 . S
C296 C298 1.394 . S
C296 H312 0.931 . S
C297 C296 1.391 . S
C297 C301 1.376 . S
C298 C296 1.394 . S
C298 C299 1.369 . S
C298 C302 1.531 . S
C299 C298 1.369 . S
C299 C300 1.410 . S
C299 C307 1.503 . S
C300 C299 1.410 . S
C300 C301 1.392 . S
C300 C303 1.511 . S
C301 C297 1.376 . S
C301 C300 1.392 . S
C301 H313 0.929 . S
C302 C298 1.531 . S
C302 H314 0.960 . S
C302 H315 0.962 . S
C302 H316 0.960 . S
C303 C300 1.511 . S
C303 H317 0.961 . S
C303 H318 0.961 . S
C303 H319 0.961 . S
C304 C305 1.370 . S
C304 C306 1.363 . S
C304 H320 0.931 . S
C305 C304 1.370 . S
C305 C309 1.408 . S
C306 C304 1.363 . S
C306 C307 1.370 . S
C306 C310 1.524 . S
C307 C299 1.503 . S
C307 C306 1.370 . S
C307 C308 1.403 . S
C308 C307 1.403 . S
C308 C309 1.404 . S
C308 C311 1.539 . S
C309 C305 1.408 . S
C309 C308 1.404 . S
C309 H321 0.930 . S
C310 C306 1.524 . S
C310 H322 0.956 . S
C310 H323 0.961 . S
C310 H324 0.961 . S
C311 C308 1.539 . S
C311 H325 0.958 . S
C311 H326 0.961 . S
C311 H327 0.960 . S
H312 C296 0.931 . S
H313 C301 0.929 . S
H314 C302 0.960 . S
H315 C302 0.962 . S
H316 C302 0.960 . S
H317 C303 0.961 . S
H318 C303 0.961 . S
H319 C303 0.961 . S
H320 C304 0.931 . S
H321 C309 0.930 . S
H322 C310 0.956 . S
H323 C310 0.961 . S
H324 C310 0.961 . S
H325 C311 0.958 . S
H326 C311 0.961 . S
H327 C311 0.960 . S
C328 C329 1.391 . S
C328 C330 1.394 . S
C328 H344 0.931 . S
C329 C328 1.391 . S
C329 C333 1.376 . S
C330 C328 1.394 . S
C330 C331 1.369 . S
C330 C334 1.531 . S
C331 C330 1.369 . S
C331 C332 1.410 . S
C331 C339 1.503 . S
C332 C331 1.410 . S
C332 C333 1.392 . S
C332 C335 1.511 . S
C333 C329 1.376 . S
C333 C332 1.392 . S
C333 H345 0.929 . S
C334 C330 1.531 . S
C334 H346 0.960 . S
C334 H347 0.962 . S
C334 H348 0.960 . S
C335 C332 1.511 . S
C335 H349 0.961 . S
C335 H350 0.961 . S
C335 H351 0.961 . S
C336 C337 1.370 . S
C336 C338 1.363 . S
C336 H352 0.931 . S
C337 C336 1.370 . S
C337 C341 1.408 . S
C338 C336 1.363 . S
C338 C339 1.370 . S
C338 C342 1.524 . S
C339 C331 1.503 . S
C339 C338 1.370 . S
C339 C340 1.403 . S
C340 C339 1.403 . S
C340 C341 1.404 . S
C340 C343 1.539 . S
C341 C337 1.408 . S
C341 C340 1.404 . S
C341 H353 0.930 . S
C342 C338 1.524 . S
C342 H354 0.956 . S
C342 H355 0.961 . S
C342 H356 0.961 . S
C343 C340 1.539 . S
C343 H357 0.958 . S
C343 H358 0.961 . S
C343 H359 0.960 . S
H344 C328 0.931 . S
H345 C333 0.929 . S
H346 C334 0.960 . S
H347 C334 0.962 . S
H348 C334 0.960 . S
H349 C335 0.961 . S
H350 C335 0.961 . S
H351 C335 0.961 . S
H352 C336 0.931 . S
H353 C341 0.930 . S
H354 C342 0.956 . S
H355 C342 0.961 . S
H356 C342 0.961 . S
H357 C343 0.958 . S
H358 C343 0.961 . S
H359 C343 0.960 . S
C360 C361 1.391 . S
C360 C362 1.394 . S
C360 H376 0.931 . S
C361 C360 1.391 . S
C361 C365 1.376 . S
C362 C360 1.394 . S
C362 C363 1.369 . S
C362 C366 1.531 . S
C363 C362 1.369 . S
C363 C364 1.410 . S
C363 C371 1.503 . S
C364 C363 1.410 . S
C364 C365 1.392 . S
C364 C367 1.511 . S
C365 C361 1.376 . S
C365 C364 1.392 . S
C365 H377 0.929 . S
C366 C362 1.531 . S
C366 H378 0.960 . S
C366 H379 0.962 . S
C366 H380 0.960 . S
C367 C364 1.511 . S
C367 H381 0.961 . S
C367 H382 0.961 . S
C367 H383 0.961 . S
C368 C369 1.370 . S
C368 C370 1.363 . S
C368 H384 0.931 . S
C369 C368 1.370 . S
C369 C373 1.408 . S
C370 C368 1.363 . S
C370 C371 1.370 . S
C370 C374 1.524 . S
C371 C363 1.503 . S
C371 C370 1.370 . S
C371 C372 1.403 . S
C372 C371 1.403 . S
C372 C373 1.404 . S
C372 C375 1.539 . S
C373 C369 1.408 . S
C373 C372 1.404 . S
C373 H385 0.930 . S
C374 C370 1.524 . S
C374 H386 0.956 . S
C374 H387 0.961 . S
C374 H388 0.961 . S
C375 C372 1.539 . S
C375 H389 0.958 . S
C375 H390 0.961 . S
C375 H391 0.960 . S
H376 C360 0.931 . S
H377 C365 0.929 . S
H378 C366 0.960 . S
H379 C366 0.962 . S
H380 C366 0.960 . S
H381 C367 0.961 . S
H382 C367 0.961 . S
H383 C367 0.961 . S
H384 C368 0.931 . S
H385 C373 0.930 . S
H386 C374 0.956 . S
H387 C374 0.961 . S
H388 C374 0.961 . S
H389 C375 0.958 . S
H390 C375 0.961 . S
H391 C375 0.960 . S
C392 C393 1.391 . S
C392 C394 1.394 . S
C392 H408 0.931 . S
C393 C392 1.391 . S
C393 C397 1.376 . S
C394 C392 1.394 . S
C394 C395 1.369 . S
C394 C398 1.531 . S
C395 C394 1.369 . S
C395 C396 1.410 . S
C395 C403 1.503 . S
C396 C395 1.410 . S
C396 C397 1.392 . S
C396 C399 1.511 . S
C397 C393 1.376 . S
C397 C396 1.392 . S
C397 H409 0.929 . S
C398 C394 1.531 . S
C398 H410 0.960 . S
C398 H411 0.962 . S
C398 H412 0.960 . S
C399 C396 1.511 . S
C399 H413 0.961 . S
C399 H414 0.961 . S
C399 H415 0.961 . S
C400 C401 1.370 . S
C400 C402 1.363 . S
C400 H416 0.931 . S
C401 C400 1.370 . S
C401 C405 1.408 . S
C402 C400 1.363 . S
C402 C403 1.370 . S
C402 C406 1.524 . S
C403 C395 1.503 . S
C403 C402 1.370 . S
C403 C404 1.403 . S
C404 C403 1.403 . S
C404 C405 1.404 . S
C404 C407 1.539 . S
C405 C401 1.408 . S
C405 C404 1.404 . S
C405 H417 0.930 . S
C406 C402 1.524 . S
C406 H418 0.956 . S
C406 H419 0.961 . S
C406 H420 0.961 . S
C407 C404 1.539 . S
C407 H421 0.958 . S
C407 H422 0.961 . S
C407 H423 0.960 . S
H408 C392 0.931 . S
H409 C397 0.929 . S
H410 C398 0.960 . S
H411 C398 0.962 . S
H412 C398 0.960 . S
H413 C399 0.961 . S
H414 C399 0.961 . S
H415 C399 0.961 . S
H416 C400 0.931 . S
H417 C405 0.930 . S
H418 C406 0.956 . S
H419 C406 0.961 . S
H420 C406 0.961 . S
H421 C407 0.958 . S
H422 C407 0.961 . S
H423 C407 0.960 . S
C424 C425 1.391 . S
C424 C426 1.394 . S
C424 H440 0.931 . S
C425 C424 1.391 . S
C425 C429 1.376 . S
C426 C424 1.394 . S
C426 C427 1.369 . S
C426 C430 1.531 . S
C427 C426 1.369 . S
C427 C428 1.410 . S
C427 C435 1.503 . S
C428 C427 1.410 . S
C428 C429 1.392 . S
C428 C431 1.511 . S
C429 C425 1.376 . S
C429 C428 1.392 . S
C429 H441 0.929 . S
C430 C426 1.531 . S
C430 H442 0.960 . S
C430 H443 0.962 . S
C430 H444 0.960 . S
C431 C428 1.511 . S
C431 H445 0.961 . S
C431 H446 0.961 . S
C431 H447 0.961 . S
C432 C433 1.370 . S
C432 C434 1.363 . S
C432 H448 0.931 . S
C433 C432 1.370 . S
C433 C437 1.408 . S
C434 C432 1.363 . S
C434 C435 1.370 . S
C434 C438 1.524 . S
C435 C427 1.503 . S
C435 C434 1.370 . S
C435 C436 1.403 . S
C436 C435 1.403 . S
C436 C437 1.404 . S
C436 C439 1.539 . S
C437 C433 1.408 . S
C437 C436 1.404 . S
C437 H449 0.930 . S
C438 C434 1.524 . S
C438 H450 0.956 . S
C438 H451 0.961 . S
C438 H452 0.961 . S
C439 C436 1.539 . S
C439 H453 0.958 . S
C439 H454 0.961 . S
C439 H455 0.960 . S
H440 C424 0.931 . S
H441 C429 0.929 . S
H442 C430 0.960 . S
H443 C430 0.962 . S
H444 C430 0.960 . S
H445 C431 0.961 . S
H446 C431 0.961 . S
H447 C431 0.961 . S
H448 C432 0.931 . S
H449 C437 0.930 . S
H450 C438 0.956 . S
H451 C438 0.961 . S
H452 C438 0.961 . S
H453 C439 0.958 . S
H454 C439 0.961 . S
H455 C439 0.960 . S
C456 C457 1.391 . S
C456 C458 1.394 . S
C456 H472 0.931 . S
C457 C456 1.391 . S
C457 C461 1.376 . S
C458 C456 1.394 . S
C458 C459 1.369 . S
C458 C462 1.531 . S
C459 C458 1.369 . S
C459 C460 1.410 . S
C459 C467 1.503 . S
C460 C459 1.410 . S
C460 C461 1.392 . S
C460 C463 1.511 . S
C461 C457 1.376 . S
C461 C460 1.392 . S
C461 H473 0.929 . S
C462 C458 1.531 . S
C462 H474 0.960 . S
C462 H475 0.962 . S
C462 H476 0.960 . S
C463 C460 1.511 . S
C463 H477 0.961 . S
C463 H478 0.961 . S
C463 H479 0.961 . S
C464 C465 1.370 . S
C464 C466 1.363 . S
C464 H480 0.931 . S
C465 C464 1.370 . S
C465 C469 1.408 . S
C466 C464 1.363 . S
C466 C467 1.370 . S
C466 C470 1.524 . S
C467 C459 1.503 . S
C467 C466 1.370 . S
C467 C468 1.403 . S
C468 C467 1.403 . S
C468 C469 1.404 . S
C468 C471 1.539 . S
C469 C465 1.408 . S
C469 C468 1.404 . S
C469 H481 0.930 . S
C470 C466 1.524 . S
C470 H482 0.956 . S
C470 H483 0.961 . S
C470 H484 0.961 . S
C471 C468 1.539 . S
C471 H485 0.958 . S
C471 H486 0.961 . S
C471 H487 0.960 . S
H472 C456 0.931 . S
H473 C461 0.929 . S
H474 C462 0.960 . S
H475 C462 0.962 . S
H476 C462 0.960 . S
H477 C463 0.961 . S
H478 C463 0.961 . S
H479 C463 0.961 . S
H480 C464 0.931 . S
H481 C469 0.930 . S
H482 C470 0.956 . S
H483 C470 0.961 . S
H484 C470 0.961 . S
H485 C471 0.958 . S
H486 C471 0.961 . S
H487 C471 0.960 . S
C488 C489 1.391 . S
C488 C490 1.394 . S
C488 H504 0.931 . S
C489 C488 1.391 . S
C489 C493 1.376 . S
C490 C488 1.394 . S
C490 C491 1.369 . S
C490 C494 1.531 . S
C491 C490 1.369 . S
C491 C492 1.410 . S
C491 C499 1.503 1_655 S
C492 C491 1.410 . S
C492 C493 1.392 . S
C492 C495 1.511 1_655 S
C493 C489 1.376 . S
C493 C492 1.392 . S
C493 H505 0.929 . S
C494 C490 1.531 . S
C494 H506 0.960 . S
C494 H507 0.962 . S
C494 H508 0.960 . S
C495 C492 1.511 1_455 S
C495 H509 0.961 . S
C495 H510 0.961 . S
C495 H511 0.961 . S
C496 C497 1.370 . S
C496 C498 1.363 . S
C496 H512 0.931 . S
C497 C496 1.370 . S
C497 C501 1.408 . S
C498 C496 1.363 . S
C498 C499 1.370 . S
C498 C502 1.524 . S
C499 C491 1.503 1_455 S
C499 C498 1.370 . S
C499 C500 1.403 . S
C500 C499 1.403 . S
C500 C501 1.404 . S
C500 C503 1.539 . S
C501 C497 1.408 . S
C501 C500 1.404 . S
C501 H513 0.930 . S
C502 C498 1.524 . S
C502 H514 0.956 1_455 S
C502 H515 0.961 . S
C502 H516 0.961 . S
C503 C500 1.539 . S
C503 H517 0.958 1_455 S
C503 H518 0.961 . S
C503 H519 0.960 . S
H504 C488 0.931 . S
H505 C493 0.929 . S
H506 C494 0.960 . S
H507 C494 0.962 . S
H508 C494 0.960 . S
H509 C495 0.961 . S
H510 C495 0.961 . S
H511 C495 0.961 . S
H512 C496 0.931 . S
H513 C501 0.930 . S
H514 C502 0.956 1_655 S
H515 C502 0.961 . S
H516 C502 0.961 . S
H517 C503 0.958 1_655 S
H518 C503 0.961 . S
H519 C503 0.960 . S
C520 C521 1.391 . S
C520 C522 1.394 . S
C520 H536 0.931 . S
C521 C520 1.391 . S
C521 C525 1.376 . S
C522 C520 1.394 . S
C522 C523 1.369 . S
C522 C526 1.531 . S
C523 C522 1.369 . S
C523 C524 1.410 . S
C523 C531 1.503 1_545 S
C524 C523 1.410 . S
C524 C525 1.392 . S
C524 C527 1.511 . S
C525 C521 1.376 . S
C525 C524 1.392 . S
C525 H537 0.929 . S
C526 C522 1.531 . S
C526 H538 0.960 1_545 S
C526 H539 0.962 . S
C526 H540 0.960 . S
C527 C524 1.511 . S
C527 H541 0.961 . S
C527 H542 0.966 . S
C527 H543 0.961 1_545 S
C528 C529 1.370 . S
C528 C530 1.363 . S
C528 H544 0.931 . S
C529 C528 1.370 . S
C529 C533 1.408 . S
C530 C528 1.363 . S
C530 C531 1.370 . S
C530 C534 1.524 1_565 S
C531 C523 1.503 1_565 S
C531 C530 1.370 . S
C531 C532 1.403 . S
C532 C531 1.403 . S
C532 C533 1.404 . S
C532 C535 1.539 . S
C533 C529 1.408 . S
C533 C532 1.404 . S
C533 H545 0.930 . S
C534 C530 1.524 1_545 S
C534 H546 0.956 . S
C534 H547 0.961 . S
C534 H548 0.961 . S
C535 C532 1.539 . S
C535 H549 0.958 . S
C535 H550 0.961 . S
C535 H551 0.960 . S
H536 C520 0.931 . S
H537 C525 0.929 . S
H538 C526 0.960 1_565 S
H539 C526 0.962 . S
H540 C526 0.960 . S
H541 C527 0.961 . S
H542 C527 0.966 . S
H543 C527 0.961 1_565 S
H544 C528 0.931 . S
H545 C533 0.930 . S
H546 C534 0.956 . S
H547 C534 0.961 . S
H548 C534 0.961 . S
H549 C535 0.958 . S
H550 C535 0.961 . S
H551 C535 0.960 . S
C552 C553 1.391 . S
C552 C554 1.394 . S
C552 H568 0.931 . S
C553 C552 1.391 . S
C553 C557 1.376 . S
C554 C552 1.394 . S
C554 C555 1.369 . S
C554 C558 1.531 . S
C555 C554 1.369 . S
C555 C556 1.410 . S
C555 C563 1.503 . S
C556 C555 1.410 . S
C556 C557 1.392 . S
C556 C559 1.511 . S
C557 C553 1.376 . S
C557 C556 1.392 . S
C557 H569 0.929 . S
C558 C554 1.531 . S
C558 H570 0.960 . S
C558 H571 0.962 . S
C558 H572 0.960 . S
C559 C556 1.511 . S
C559 H573 0.961 . S
C559 H574 0.961 . S
C559 H575 0.961 . S
C560 C561 1.370 . S
C560 C562 1.363 . S
C560 H576 0.931 . S
C561 C560 1.370 . S
C561 C565 1.408 . S
C562 C560 1.363 . S
C562 C563 1.370 . S
C562 C566 1.524 . S
C563 C555 1.503 . S
C563 C562 1.370 . S
C563 C564 1.403 . S
C564 C563 1.403 . S
C564 C565 1.404 . S
C564 C567 1.539 . S
C565 C561 1.408 . S
C565 C564 1.404 . S
C565 H577 0.930 . S
C566 C562 1.524 . S
C566 H578 0.956 . S
C566 H579 0.961 . S
C566 H580 0.961 . S
C567 C564 1.539 . S
C567 H581 0.958 . S
C567 H582 0.961 . S
C567 H583 0.960 . S
H568 C552 0.931 . S
H569 C557 0.929 . S
H570 C558 0.960 . S
H571 C558 0.962 . S
H572 C558 0.960 . S
H573 C559 0.961 . S
H574 C559 0.961 . S
H575 C559 0.961 . S
H576 C560 0.931 . S
H577 C565 0.930 . S
H578 C566 0.956 . S
H579 C566 0.961 . S
H580 C566 0.961 . S
H581 C567 0.958 . S
H582 C567 0.961 . S
H583 C567 0.960 . S
C584 C585 1.391 . S
C584 C586 1.394 . S
C584 H600 0.931 . S
C585 C584 1.391 . S
C585 C589 1.376 . S
C586 C584 1.394 . S
C586 C587 1.369 . S
C586 C590 1.531 1_455 S
C587 C586 1.369 . S
C587 C588 1.410 . S
C587 C595 1.503 1_455 S
C588 C587 1.410 . S
C588 C589 1.392 . S
C588 C591 1.511 . S
C589 C585 1.376 . S
C589 C588 1.392 . S
C589 H601 0.929 . S
C590 C586 1.531 1_655 S
C590 H602 0.960 . S
C590 H603 0.962 . S
C590 H604 0.960 . S
C591 C588 1.511 . S
C591 H605 0.961 . S
C591 H606 0.961 . S
C591 H607 0.961 . S
C592 C593 1.370 . S
C592 C594 1.363 . S
C592 H608 0.931 . S
C593 C592 1.370 . S
C593 C597 1.408 . S
C594 C592 1.363 . S
C594 C595 1.370 . S
C594 C598 1.524 1_655 S
C595 C587 1.503 1_655 S
C595 C594 1.370 . S
C595 C596 1.403 . S
C596 C595 1.403 . S
C596 C597 1.404 . S
C596 C599 1.539 . S
C597 C593 1.408 . S
C597 C596 1.404 . S
C597 H609 0.930 . S
C598 C594 1.524 1_455 S
C598 H610 0.956 . S
C598 H611 0.961 . S
C598 H612 0.961 . S
C599 C596 1.539 . S
C599 H613 0.958 . S
C599 H614 0.961 . S
C599 H615 0.960 . S
H600 C584 0.931 . S
H601 C589 0.929 . S
H602 C590 0.960 . S
H603 C590 0.962 . S
H604 C590 0.960 . S
H605 C591 0.961 . S
H606 C591 0.961 . S
H607 C591 0.961 . S
H608 C592 0.931 . S
H609 C597 0.930 . S
H610 C598 0.956 . S
H611 C598 0.961 . S
H612 C598 0.961 . S
H613 C599 0.958 . S
H614 C599 0.961 . S
H615 C599 0.960 . S
C616 C617 1.391 . S
C616 C618 1.394 . S
C616 H632 0.931 . S
C617 C616 1.391 . S
C617 C621 1.376 . S
C618 C616 1.394 . S
C618 C619 1.369 . S
C618 C622 1.531 1_545 S
C619 C618 1.369 . S
C619 C620 1.410 . S
C619 C627 1.503 1_546 S
C620 C619 1.410 . S
C620 C621 1.392 . S
C620 C623 1.511 1_556 S
C621 C617 1.376 . S
C621 C620 1.392 . S
C621 H633 0.929 . S
C622 C618 1.531 1_565 S
C622 H634 0.960 . S
C622 H635 0.962 . S
C622 H636 0.960 . S
C623 C620 1.511 1_554 S
C623 H637 0.961 . S
C623 H638 0.961 . S
C623 H639 0.961 . S
C624 C625 1.370 . S
C624 C626 1.363 . S
C624 H640 0.931 . S
C625 C624 1.370 . S
C625 C629 1.408 . S
C626 C624 1.363 . S
C626 C627 1.370 . S
C626 C630 1.524 1_565 S
C627 C619 1.503 1_564 S
C627 C626 1.370 . S
C627 C628 1.403 . S
C628 C627 1.403 . S
C628 C629 1.404 . S
C628 C631 1.539 1_554 S
C629 C625 1.408 . S
C629 C628 1.404 . S
C629 H641 0.930 . S
C630 C626 1.524 1_545 S
C630 H642 0.956 . S
C630 H643 0.961 . S
C630 H644 0.961 . S
C631 C628 1.539 1_556 S
C631 H645 0.958 . S
C631 H646 0.961 1_556 S
C631 H647 0.960 . S
H632 C616 0.931 . S
H633 C621 0.929 . S
H634 C622 0.960 . S
H635 C622 0.962 . S
H636 C622 0.960 . S
H637 C623 0.961 . S
H638 C623 0.961 . S
H639 C623 0.961 . S
H640 C624 0.931 . S
H641 C629 0.930 . S
H642 C630 0.956 . S
H643 C630 0.961 . S
H644 C630 0.961 . S
H645 C631 0.958 . S
H646 C631 0.961 1_554 S
H647 C631 0.960 . S
C648 C649 1.391 . S
C648 C650 1.394 . S
C648 H664 0.931 . S
C649 C648 1.391 . S
C649 C653 1.376 . S
C650 C648 1.394 . S
C650 C651 1.369 . S
C650 C654 1.531 . S
C651 C650 1.369 . S
C651 C652 1.410 . S
C651 C659 1.503 . S
C652 C651 1.410 . S
C652 C653 1.392 . S
C652 C655 1.511 . S
C653 C649 1.376 . S
C653 C652 1.392 . S
C653 H665 0.929 . S
C654 C650 1.531 . S
C654 H666 0.960 . S
C654 H667 0.962 . S
C654 H668 0.960 . S
C655 C652 1.511 . S
C655 H669 0.961 . S
C655 H670 0.961 . S
C655 H671 0.961 . S
C656 C657 1.370 . S
C656 C658 1.363 . S
C656 H672 0.919 1_556 S
C657 C656 1.370 . S
C657 C661 1.408 . S
C658 C656 1.363 . S
C658 C659 1.370 . S
C658 C662 1.524 . S
C659 C651 1.503 . S
C659 C658 1.370 . S
C659 C660 1.403 . S
C660 C659 1.403 . S
C660 C661 1.404 . S
C660 C663 1.539 . S
C661 C657 1.408 . S
C661 C660 1.404 . S
C661 H673 0.930 . S
C662 C658 1.524 . S
C662 H674 0.956 . S
C662 H675 0.961 . S
C662 H676 0.961 . S
C663 C660 1.539 . S
C663 H677 0.958 . S
C663 H678 0.961 . S
C663 H679 0.960 . S
H664 C648 0.931 . S
H665 C653 0.929 . S
H666 C654 0.960 . S
H667 C654 0.962 . S
H668 C654 0.960 . S
H669 C655 0.961 . S
H670 C655 0.961 . S
H671 C655 0.961 . S
H672 C656 0.919 1_554 S
H673 C661 0.930 . S
H674 C662 0.956 . S
H675 C662 0.961 . S
H676 C662 0.961 . S
H677 C663 0.958 . S
H678 C663 0.961 . S
H679 C663 0.960 . S
C680 C681 1.391 . S
C680 C682 1.394 . S
C680 H696 0.931 . S
C681 C680 1.391 . S
C681 C685 1.376 . S
C682 C680 1.394 . S
C682 C683 1.369 . S
C682 C686 1.531 . S
C683 C682 1.369 . S
C683 C684 1.410 . S
C683 C691 1.503 . S
C684 C683 1.410 . S
C684 C685 1.392 . S
C684 C687 1.511 . S
C685 C681 1.376 . S
C685 C684 1.392 . S
C685 H697 0.929 . S
C686 C682 1.531 . S
C686 H698 0.960 . S
C686 H699 0.962 . S
C686 H700 0.960 . S
C687 C684 1.511 . S
C687 H701 0.961 . S
C687 H702 0.961 . S
C687 H703 0.961 . S
C688 C689 1.370 . S
C688 C690 1.363 . S
C688 H704 0.931 . S
C689 C688 1.370 . S
C689 C693 1.408 . S
C690 C688 1.363 . S
C690 C691 1.370 . S
C690 C694 1.524 . S
C691 C683 1.503 . S
C691 C690 1.370 . S
C691 C692 1.403 . S
C692 C691 1.403 . S
C692 C693 1.404 . S
C692 C695 1.539 . S
C693 C689 1.408 . S
C693 C692 1.404 . S
C693 H705 0.930 . S
C694 C690 1.524 . S
C694 H706 0.956 . S
C694 H707 0.961 . S
C694 H708 0.961 . S
C695 C692 1.539 . S
C695 H709 0.958 . S
C695 H710 0.961 . S
C695 H711 0.960 . S
H696 C680 0.931 . S
H697 C685 0.929 . S
H698 C686 0.960 . S
H699 C686 0.962 . S
H700 C686 0.960 . S
H701 C687 0.961 . S
H702 C687 0.961 . S
H703 C687 0.961 . S
H704 C688 0.931 . S
H705 C693 0.930 . S
H706 C694 0.956 . S
H707 C694 0.961 . S
H708 C694 0.961 . S
H709 C695 0.958 . S
H710 C695 0.961 . S
H711 C695 0.960 . S
C712 C713 1.391 . S
C712 C714 1.394 . S
C712 H728 0.931 . S
C713 C712 1.391 . S
C713 C717 1.376 . S
C714 C712 1.394 . S
C714 C715 1.369 . S
C714 C718 1.531 . S
C715 C714 1.369 . S
C715 C716 1.410 . S
C715 C723 1.503 . S
C716 C715 1.410 . S
C716 C717 1.392 . S
C716 C719 1.511 . S
C717 C713 1.376 . S
C717 C716 1.392 . S
C717 H729 0.929 . S
C718 C714 1.531 . S
C718 H730 0.960 . S
C718 H731 0.962 . S
C718 H732 0.960 . S
C719 C716 1.511 . S
C719 H733 0.961 . S
C719 H734 0.961 . S
C719 H735 0.961 . S
C720 C721 1.370 . S
C720 C722 1.363 . S
C720 H736 0.931 . S
C721 C720 1.370 . S
C721 C725 1.408 . S
C722 C720 1.363 . S
C722 C723 1.370 . S
C722 C726 1.524 . S
C723 C715 1.503 . S
C723 C722 1.370 . S
C723 C724 1.403 . S
C724 C723 1.403 . S
C724 C725 1.404 . S
C724 C727 1.539 . S
C725 C721 1.408 . S
C725 C724 1.404 . S
C725 H737 0.930 . S
C726 C722 1.524 . S
C726 H738 0.956 . S
C726 H739 0.961 . S
C726 H740 0.961 . S
C727 C724 1.539 . S
C727 H741 0.958 . S
C727 H742 0.961 . S
C727 H743 0.960 . S
H728 C712 0.931 . S
H729 C717 0.929 . S
H730 C718 0.960 . S
H731 C718 0.962 . S
H732 C718 0.960 . S
H733 C719 0.961 . S
H734 C719 0.961 . S
H735 C719 0.961 . S
H736 C720 0.931 . S
H737 C725 0.930 . S
H738 C726 0.956 . S
H739 C726 0.961 . S
H740 C726 0.961 . S
H741 C727 0.958 . S
H742 C727 0.961 . S
H743 C727 0.960 . S
C744 C745 1.391 . S
C744 C746 1.394 . S
C744 H760 0.931 . S
C745 C744 1.391 . S
C745 C749 1.376 . S
C746 C744 1.394 . S
C746 C747 1.369 . S
C746 C750 1.531 . S
C747 C746 1.369 . S
C747 C748 1.410 . S
C747 C755 1.503 . S
C748 C747 1.410 . S
C748 C749 1.392 . S
C748 C751 1.511 . S
C749 C745 1.376 . S
C749 C748 1.392 . S
C749 H761 0.929 . S
C750 C746 1.531 . S
C750 H762 0.960 . S
C750 H763 0.962 . S
C750 H764 0.960 . S
C751 C748 1.511 . S
C751 H765 0.961 . S
C751 H766 0.961 . S
C751 H767 0.961 . S
C752 C753 1.370 . S
C752 C754 1.363 . S
C752 H768 0.931 . S
C753 C752 1.370 . S
C753 C757 1.408 . S
C754 C752 1.363 . S
C754 C755 1.370 . S
C754 C758 1.524 . S
C755 C747 1.503 . S
C755 C754 1.370 . S
C755 C756 1.403 . S
C756 C755 1.403 . S
C756 C757 1.404 . S
C756 C759 1.539 . S
C757 C753 1.408 . S
C757 C756 1.404 . S
C757 H769 0.930 . S
C758 C754 1.524 . S
C758 H770 0.956 . S
C758 H771 0.961 . S
C758 H772 0.961 . S
C759 C756 1.539 . S
C759 H773 0.958 . S
C759 H774 0.961 . S
C759 H775 0.960 . S
H760 C744 0.931 . S
H761 C749 0.929 . S
H762 C750 0.960 . S
H763 C750 0.962 . S
H764 C750 0.960 . S
H765 C751 0.961 . S
H766 C751 0.961 . S
H767 C751 0.961 . S
H768 C752 0.931 . S
H769 C757 0.930 . S
H770 C758 0.956 . S
H771 C758 0.961 . S
H772 C758 0.961 . S
H773 C759 0.958 . S
H774 C759 0.961 . S
H775 C759 0.960 . S
C776 C777 1.391 . S
C776 C778 1.394 . S
C776 H792 0.931 . S
C777 C776 1.391 . S
C777 C781 1.376 . S
C778 C776 1.394 . S
C778 C779 1.369 . S
C778 C782 1.531 . S
C779 C778 1.369 . S
C779 C780 1.410 . S
C779 C787 1.503 . S
C780 C779 1.410 . S
C780 C781 1.392 . S
C780 C783 1.511 . S
C781 C777 1.376 . S
C781 C780 1.392 . S
C781 H793 0.929 . S
C782 C778 1.531 . S
C782 H794 0.960 . S
C782 H795 0.962 . S
C782 H796 0.960 . S
C783 C780 1.511 . S
C783 H797 0.961 . S
C783 H798 0.961 . S
C783 H799 0.961 . S
C784 C785 1.370 . S
C784 C786 1.363 . S
C784 H800 0.931 . S
C785 C784 1.370 . S
C785 C789 1.408 . S
C786 C784 1.363 . S
C786 C787 1.370 . S
C786 C790 1.524 . S
C787 C779 1.503 . S
C787 C786 1.370 . S
C787 C788 1.403 . S
C788 C787 1.403 . S
C788 C789 1.404 . S
C788 C791 1.539 . S
C789 C785 1.408 . S
C789 C788 1.404 . S
C789 H801 0.930 . S
C790 C786 1.524 . S
C790 H802 0.956 . S
C790 H803 0.961 . S
C790 H804 0.961 . S
C791 C788 1.539 . S
C791 H805 0.958 . S
C791 H806 0.961 . S
C791 H807 0.960 . S
H792 C776 0.931 . S
H793 C781 0.929 . S
H794 C782 0.960 . S
H795 C782 0.962 . S
H796 C782 0.960 . S
H797 C783 0.961 . S
H798 C783 0.961 . S
H799 C783 0.961 . S
H800 C784 0.931 . S
H801 C789 0.930 . S
H802 C790 0.956 . S
H803 C790 0.961 . S
H804 C790 0.961 . S
H805 C791 0.958 . S
H806 C791 0.961 . S
H807 C791 0.960 . S
C808 C809 1.391 . S
C808 C810 1.394 . S
C808 H824 0.931 . S
C809 C808 1.391 . S
C809 C813 1.376 . S
C810 C808 1.394 . S
C810 C811 1.369 . S
C810 C814 1.531 . S
C811 C810 1.369 . S
C811 C812 1.410 . S
C811 C819 1.503 . S
C812 C811 1.410 . S
C812 C813 1.392 . S
C812 C815 1.511 . S
C813 C809 1.376 . S
C813 C812 1.392 . S
C813 H825 0.929 . S
C814 C810 1.531 . S
C814 H826 0.960 . S
C814 H827 0.962 . S
C814 H828 0.960 . S
C815 C812 1.511 . S
C815 H829 0.961 . S
C815 H830 0.961 . S
C815 H831 0.961 . S
C816 C817 1.370 . S
C816 C818 1.363 . S
C816 H832 0.931 . S
C817 C816 1.370 . S
C817 C821 1.408 . S
C818 C816 1.363 . S
C818 C819 1.370 . S
C818 C822 1.524 . S
C819 C811 1.503 . S
C819 C818 1.370 . S
C819 C820 1.403 . S
C820 C819 1.403 . S
C820 C821 1.404 . S
C820 C823 1.539 . S
C821 C817 1.408 . S
C821 C820 1.404 . S
C821 H833 0.930 . S
C822 C818 1.524 . S
C822 H834 0.956 . S
C822 H835 0.961 . S
C822 H836 0.961 . S
C823 C820 1.539 . S
C823 H837 0.958 . S
C823 H838 0.961 . S
C823 H839 0.960 . S
H824 C808 0.931 . S
H825 C813 0.929 . S
H826 C814 0.960 . S
H827 C814 0.962 . S
H828 C814 0.960 . S
H829 C815 0.961 . S
H830 C815 0.961 . S
H831 C815 0.961 . S
H832 C816 0.931 . S
H833 C821 0.930 . S
H834 C822 0.956 . S
H835 C822 0.961 . S
H836 C822 0.961 . S
H837 C823 0.958 . S
H838 C823 0.961 . S
H839 C823 0.960 . S
C840 C841 1.391 . S
C840 C842 1.394 . S
C840 H856 0.931 . S
C841 C840 1.391 . S
C841 C845 1.376 . S
C842 C840 1.394 . S
C842 C843 1.369 . S
C842 C846 1.531 . S
C843 C842 1.369 . S
C843 C844 1.410 . S
C843 C851 1.503 . S
C844 C843 1.410 . S
C844 C845 1.392 . S
C844 C847 1.511 . S
C845 C841 1.376 . S
C845 C844 1.392 . S
C845 H857 0.929 . S
C846 C842 1.531 . S
C846 H858 0.960 . S
C846 H859 0.962 . S
C846 H860 0.960 . S
C847 C844 1.511 . S
C847 H861 0.961 . S
C847 H862 0.961 . S
C847 H863 0.961 . S
C848 C849 1.370 . S
C848 C850 1.363 . S
C848 H864 0.931 . S
C849 C848 1.370 . S
C849 C853 1.408 . S
C850 C848 1.363 . S
C850 C851 1.370 . S
C850 C854 1.524 . S
C851 C843 1.503 . S
C851 C850 1.370 . S
C851 C852 1.403 . S
C852 C851 1.403 . S
C852 C853 1.404 . S
C852 C855 1.539 . S
C853 C849 1.408 . S
C853 C852 1.404 . S
C853 H865 0.930 . S
C854 C850 1.524 . S
C854 H866 0.956 . S
C854 H867 0.961 . S
C854 H868 0.961 . S
C855 C852 1.539 . S
C855 H869 0.958 . S
C855 H870 0.961 . S
C855 H871 0.960 . S
H856 C840 0.931 . S
H857 C845 0.929 . S
H858 C846 0.960 . S
H859 C846 0.962 . S
H860 C846 0.960 . S
H861 C847 0.961 . S
H862 C847 0.961 . S
H863 C847 0.961 . S
H864 C848 0.931 . S
H865 C853 0.930 . S
H866 C854 0.956 . S
H867 C854 0.961 . S
H868 C854 0.961 . S
H869 C855 0.958 . S
H870 C855 0.961 . S
H871 C855 0.960 . S
C872 C873 1.391 . S
C872 C874 1.394 . S
C872 H888 0.931 . S
C873 C872 1.391 . S
C873 C877 1.376 . S
C874 C872 1.394 . S
C874 C875 1.369 . S
C874 C878 1.531 . S
C875 C874 1.369 . S
C875 C876 1.410 . S
C875 C883 1.503 1_655 S
C876 C875 1.410 . S
C876 C877 1.392 . S
C876 C879 1.511 1_655 S
C877 C873 1.376 . S
C877 C876 1.392 . S
C877 H889 0.929 . S
C878 C874 1.531 . S
C878 H890 0.960 1_655 S
C878 H891 0.962 . S
C878 H892 0.960 . S
C879 C876 1.511 1_455 S
C879 H893 0.961 1_455 S
C879 H894 0.961 . S
C879 H895 0.961 . S
C880 C881 1.370 . S
C880 C882 1.363 . S
C880 H896 0.931 . S
C881 C880 1.370 . S
C881 C885 1.408 . S
C882 C880 1.363 . S
C882 C883 1.370 . S
C882 C886 1.524 . S
C883 C875 1.503 1_455 S
C883 C882 1.370 . S
C883 C884 1.403 . S
C884 C883 1.403 . S
C884 C885 1.404 . S
C884 C887 1.539 . S
C885 C881 1.408 . S
C885 C884 1.404 . S
C885 H897 0.930 . S
C886 C882 1.524 . S
C886 H898 0.956 1_455 S
C886 H899 0.961 1_455 S
C886 H900 0.960 1_554 S
C887 C884 1.539 . S
C887 H901 0.958 . S
C887 H902 0.961 . S
C887 H903 0.960 . S
H888 C872 0.931 . S
H889 C877 0.929 . S
H890 C878 0.960 1_455 S
H891 C878 0.962 . S
H892 C878 0.960 . S
H893 C879 0.961 1_655 S
H894 C879 0.961 . S
H895 C879 0.961 . S
H896 C880 0.931 . S
H897 C885 0.930 . S
H898 C886 0.956 1_655 S
H899 C886 0.961 1_655 S
H900 C886 0.960 1_556 S
H901 C887 0.958 . S
H902 C887 0.961 . S
H903 C887 0.960 . S
C904 C905 1.391 . S
C904 C906 1.394 . S
C904 H920 0.931 . S
C905 C904 1.391 . S
C905 C909 1.376 . S
C906 C904 1.394 . S
C906 C907 1.369 . S
C906 C910 1.531 . S
C907 C906 1.369 . S
C907 C908 1.410 . S
C907 C915 1.503 1_565 S
C908 C907 1.410 . S
C908 C909 1.392 . S
C908 C911 1.511 1_565 S
C909 C905 1.376 . S
C909 C908 1.392 . S
C909 H921 0.929 . S
C910 C906 1.531 . S
C910 H922 0.960 . S
C910 H923 0.962 . S
C910 H924 0.960 . S
C911 C908 1.511 1_545 S
C911 H925 0.961 1_545 S
C911 H926 0.961 . S
C911 H927 0.970 1_545 S
C912 C913 1.370 . S
C912 C914 1.363 . S
C912 H928 0.931 . S
C913 C912 1.370 . S
C913 C917 1.408 . S
C914 C912 1.363 . S
C914 C915 1.370 . S
C914 C918 1.524 . S
C915 C907 1.503 1_545 S
C915 C914 1.370 . S
C915 C916 1.403 . S
C916 C915 1.403 . S
C916 C917 1.404 . S
C916 C919 1.539 . S
C917 C913 1.408 . S
C917 C916 1.404 . S
C917 H929 0.930 . S
C918 C914 1.524 . S
C918 H930 0.956 . S
C918 H931 0.961 . S
C918 H932 0.961 . S
C919 C916 1.539 . S
C919 H933 0.958 1_545 S
C919 H934 0.961 . S
C919 H935 0.960 1_545 S
H920 C904 0.931 . S
H921 C909 0.929 . S
H922 C910 0.960 . S
H923 C910 0.962 . S
H924 C910 0.960 . S
H925 C911 0.961 1_565 S
H926 C911 0.961 . S
H927 C911 0.970 1_565 S
H928 C912 0.931 . S
H929 C917 0.930 . S
H930 C918 0.956 . S
H931 C918 0.961 . S
H932 C918 0.961 . S
H933 C919 0.958 1_565 S
H934 C919 0.961 . S
H935 C919 0.960 1_565 S
C936 C937 1.391 . S
C936 C938 1.394 . S
C936 H952 0.931 . S
C937 C936 1.391 . S
C937 C941 1.376 . S
C938 C936 1.394 . S
C938 C939 1.369 . S
C938 C942 1.531 . S
C939 C938 1.369 . S
C939 C940 1.410 . S
C939 C947 1.503 . S
C940 C939 1.410 . S
C940 C941 1.392 . S
C940 C943 1.511 . S
C941 C937 1.376 . S
C941 C940 1.392 . S
C941 H953 0.929 . S
C942 C938 1.531 . S
C942 H954 0.960 . S
C942 H955 0.962 . S
C942 H956 0.960 . S
C943 C940 1.511 . S
C943 H957 0.961 . S
C943 H958 0.961 . S
C943 H959 0.961 . S
C944 C945 1.370 . S
C944 C946 1.363 . S
C944 H960 0.931 . S
C945 C944 1.370 . S
C945 C949 1.408 . S
C946 C944 1.363 . S
C946 C947 1.370 . S
C946 C950 1.524 . S
C947 C939 1.503 . S
C947 C946 1.370 . S
C947 C948 1.403 . S
C948 C947 1.403 . S
C948 C949 1.404 . S
C948 C951 1.539 . S
C949 C945 1.408 . S
C949 C948 1.404 . S
C949 H961 0.930 . S
C950 C946 1.524 . S
C950 H962 0.956 . S
C950 H963 0.961 . S
C950 H964 0.961 . S
C951 C948 1.539 . S
C951 H965 0.958 . S
C951 H966 0.961 . S
C951 H967 0.960 . S
H952 C936 0.931 . S
H953 C941 0.929 . S
H954 C942 0.960 . S
H955 C942 0.962 . S
H956 C942 0.960 . S
H957 C943 0.961 . S
H958 C943 0.961 . S
H959 C943 0.961 . S
H960 C944 0.931 . S
H961 C949 0.930 . S
H962 C950 0.956 . S
H963 C950 0.961 . S
H964 C950 0.961 . S
H965 C951 0.958 . S
H966 C951 0.961 . S
H967 C951 0.960 . S
C968 C969 1.391 . S
C968 C970 1.394 . S
C968 H984 0.931 . S
C969 C968 1.391 . S
C969 C973 1.376 . S
C970 C968 1.394 . S
C970 C971 1.369 . S
C970 C974 1.531 1_455 S
C971 C970 1.369 . S
C971 C972 1.410 . S
C971 C979 1.503 1_455 S
C972 C971 1.410 . S
C972 C973 1.392 . S
C972 C975 1.511 . S
C973 C969 1.376 . S
C973 C972 1.392 . S
C973 H985 0.929 . S
C974 C970 1.531 1_655 S
C974 H986 0.960 . S
C974 H987 0.962 . S
C974 H988 0.960 . S
C975 C972 1.511 . S
C975 H989 0.961 . S
C975 H990 0.961 . S
C975 H991 0.961 . S
C976 C977 1.370 . S
C976 C978 1.363 . S
C976 H992 0.931 . S
C977 C976 1.370 . S
C977 C981 1.408 . S
C978 C976 1.363 . S
C978 C979 1.370 . S
C978 C982 1.524 . S
C979 C971 1.503 1_655 S
C979 C978 1.370 . S
C979 C980 1.403 . S
C980 C979 1.403 . S
C980 C981 1.404 . S
C980 C983 1.539 . S
C981 C977 1.408 . S
C981 C980 1.404 . S
C981 H993 0.930 . S
C982 C978 1.524 . S
C982 H994 0.956 . S
C982 H995 0.961 . S
C982 H996 0.961 . S
C983 C980 1.539 . S
C983 H997 0.958 . S
C983 H998 0.961 . S
C983 H999 0.959 . S
H984 C968 0.931 . S
H985 C973 0.929 . S
H986 C974 0.960 . S
H987 C974 0.962 . S
H988 C974 0.960 . S
H989 C975 0.961 . S
H990 C975 0.961 . S
H991 C975 0.961 . S
H992 C976 0.931 . S
H993 C981 0.930 . S
H994 C982 0.956 . S
H995 C982 0.961 . S
H996 C982 0.961 . S
H997 C983 0.958 . S
H998 C983 0.961 . S
H999 C983 0.959 . S
C1000 C1001 1.391 . S
C1000 C1002 1.394 . S
C1000 H1016 0.931 . S
C1001 C1000 1.391 . S
C1001 C1005 1.376 . S
C1002 C1000 1.394 . S
C1002 C1003 1.369 . S
C1002 C1006 1.531 . S
C1003 C1002 1.369 . S
C1003 C1004 1.410 . S
C1003 C1011 1.503 1_545 S
C1004 C1003 1.410 . S
C1004 C1005 1.392 . S
C1004 C1007 1.511 1_545 S
C1005 C1001 1.376 . S
C1005 C1004 1.392 . S
C1005 H1017 0.929 . S
C1006 C1002 1.531 . S
C1006 H1018 0.960 . S
C1006 H1019 0.962 . S
C1006 H1020 0.960 . S
C1007 C1004 1.511 1_565 S
C1007 H1021 0.961 . S
C1007 H1022 0.961 . S
C1007 H1023 0.961 . S
C1008 C1009 1.370 . S
C1008 C1010 1.363 . S
C1008 H1024 0.931 . S
C1009 C1008 1.370 . S
C1009 C1013 1.408 . S
C1010 C1008 1.363 . S
C1010 C1011 1.370 . S
C1010 C1014 1.524 . S
C1011 C1003 1.503 1_565 S
C1011 C1010 1.370 . S
C1011 C1012 1.403 . S
C1012 C1011 1.403 . S
C1012 C1013 1.404 . S
C1012 C1015 1.539 . S
C1013 C1009 1.408 . S
C1013 C1012 1.404 . S
C1013 H1025 0.930 . S
C1014 C1010 1.524 . S
C1014 H1026 0.956 . S
C1014 H1027 0.961 . S
C1014 H1028 0.961 . S
C1015 C1012 1.539 . S
C1015 H1029 0.958 1_565 S
C1015 H1030 0.961 . S
C1015 H1031 0.960 1_565 S
H1016 C1000 0.931 . S
H1017 C1005 0.929 . S
H1018 C1006 0.960 . S
H1019 C1006 0.962 . S
H1020 C1006 0.960 . S
H1021 C1007 0.961 . S
H1022 C1007 0.961 . S
H1023 C1007 0.961 . S
H1024 C1008 0.931 . S
H1025 C1013 0.930 . S
H1026 C1014 0.956 . S
H1027 C1014 0.961 . S
H1028 C1014 0.961 . S
H1029 C1015 0.958 1_545 S
H1030 C1015 0.961 . S
H1031 C1015 0.960 1_545 S
C1032 C1033 1.391 . S
C1032 C1034 1.394 . S
C1032 H1048 0.931 . S
C1033 C1032 1.391 . S
C1033 C1037 1.376 . S
C1034 C1032 1.394 . S
C1034 C1035 1.369 . S
C1034 C1038 1.531 . S
C1035 C1034 1.369 . S
C1035 C1036 1.410 . S
C1035 C1043 1.503 . S
C1036 C1035 1.410 . S
C1036 C1037 1.392 . S
C1036 C1039 1.511 . S
C1037 C1033 1.376 . S
C1037 C1036 1.392 . S
C1037 H1049 0.929 . S
C1038 C1034 1.531 . S
C1038 H1050 0.960 . S
C1038 H1051 0.962 . S
C1038 H1052 0.960 . S
C1039 C1036 1.511 . S
C1039 H1053 0.961 . S
C1039 H1054 0.961 . S
C1039 H1055 0.961 . S
C1040 C1041 1.370 . S
C1040 C1042 1.363 . S
C1040 H1056 0.931 . S
C1041 C1040 1.370 . S
C1041 C1045 1.408 . S
C1042 C1040 1.363 . S
C1042 C1043 1.370 . S
C1042 C1046 1.524 . S
C1043 C1035 1.503 . S
C1043 C1042 1.370 . S
C1043 C1044 1.403 . S
C1044 C1043 1.403 . S
C1044 C1045 1.404 . S
C1044 C1047 1.539 . S
C1045 C1041 1.408 . S
C1045 C1044 1.404 . S
C1045 H1057 0.930 . S
C1046 C1042 1.524 . S
C1046 H1058 0.956 . S
C1046 H1059 0.961 . S
C1046 H1060 0.961 . S
C1047 C1044 1.539 . S
C1047 H1061 0.958 . S
C1047 H1062 0.961 . S
C1047 H1063 0.960 . S
H1048 C1032 0.931 . S
H1049 C1037 0.929 . S
H1050 C1038 0.960 . S
H1051 C1038 0.962 . S
H1052 C1038 0.960 . S
H1053 C1039 0.961 . S
H1054 C1039 0.961 . S
H1055 C1039 0.961 . S
H1056 C1040 0.931 . S
H1057 C1045 0.930 . S
H1058 C1046 0.956 . S
H1059 C1046 0.961 . S
H1060 C1046 0.961 . S
H1061 C1047 0.958 . S
H1062 C1047 0.961 . S
H1063 C1047 0.960 . S
C1064 C1065 1.391 . S
C1064 C1066 1.394 . S
C1064 H1080 0.931 . S
C1065 C1064 1.391 . S
C1065 C1069 1.376 . S
C1066 C1064 1.394 . S
C1066 C1067 1.369 . S
C1066 C1070 1.531 . S
C1067 C1066 1.369 . S
C1067 C1068 1.410 . S
C1067 C1075 1.503 1_455 S
C1068 C1067 1.410 . S
C1068 C1069 1.392 . S
C1068 C1071 1.511 . S
C1069 C1065 1.376 . S
C1069 C1068 1.392 . S
C1069 H1081 0.929 . S
C1070 C1066 1.531 . S
C1070 H1082 0.960 . S
C1070 H1083 0.962 . S
C1070 H1084 0.960 . S
C1071 C1068 1.511 . S
C1071 H1085 0.961 . S
C1071 H1086 0.961 1_455 S
C1071 H1087 0.961 1_455 S
C1072 C1073 1.370 . S
C1072 C1074 1.363 . S
C1072 H1088 0.931 . S
C1073 C1072 1.370 . S
C1073 C1077 1.408 . S
C1074 C1072 1.363 . S
C1074 C1075 1.370 . S
C1074 C1078 1.524 . S
C1075 C1067 1.503 1_655 S
C1075 C1074 1.370 . S
C1075 C1076 1.403 . S
C1076 C1075 1.403 . S
C1076 C1077 1.404 . S
C1076 C1079 1.539 . S
C1077 C1073 1.408 . S
C1077 C1076 1.404 . S
C1077 H1089 0.930 . S
C1078 C1074 1.524 . S
C1078 H1090 0.956 1_655 S
C1078 H1091 0.961 1_655 S
C1078 H1092 0.961 . S
C1079 C1076 1.539 . S
C1079 H1093 0.958 1_655 S
C1079 H1094 0.961 . S
C1079 H1095 0.960 1_655 S
H1080 C1064 0.931 . S
H1081 C1069 0.929 . S
H1082 C1070 0.960 . S
H1083 C1070 0.962 . S
H1084 C1070 0.960 . S
H1085 C1071 0.961 . S
H1086 C1071 0.961 1_655 S
H1087 C1071 0.961 1_655 S
H1088 C1072 0.931 . S
H1089 C1077 0.930 . S
H1090 C1078 0.956 1_455 S
H1091 C1078 0.961 1_455 S
H1092 C1078 0.961 . S
H1093 C1079 0.958 1_455 S
H1094 C1079 0.961 . S
H1095 C1079 0.960 1_455 S
C1096 C1097 1.391 . S
C1096 C1098 1.394 . S
C1096 H1112 0.931 . S
C1097 C1096 1.391 . S
C1097 C1101 1.376 . S
C1098 C1096 1.394 . S
C1098 C1099 1.369 . S
C1098 C1102 1.531 . S
C1099 C1098 1.369 . S
C1099 C1100 1.410 . S
C1099 C1107 1.503 1_545 S
C1100 C1099 1.410 . S
C1100 C1101 1.392 . S
C1100 C1103 1.511 . S
C1101 C1097 1.376 . S
C1101 C1100 1.392 . S
C1101 H1113 0.929 . S
C1102 C1098 1.531 . S
C1102 H1114 0.960 . S
C1102 H1115 0.962 . S
C1102 H1116 0.960 . S
C1103 C1100 1.511 . S
C1103 H1117 0.961 . S
C1103 H1118 0.961 1_545 S
C1103 H1119 0.944 1_545 S
C1104 C1105 1.370 . S
C1104 C1106 1.363 . S
C1104 H1120 0.931 . S
C1105 C1104 1.370 . S
C1105 C1109 1.408 . S
C1106 C1104 1.363 . S
C1106 C1107 1.370 . S
C1106 C1110 1.524 1_565 S
C1107 C1099 1.503 1_565 S
C1107 C1106 1.370 . S
C1107 C1108 1.403 . S
C1108 C1107 1.403 . S
C1108 C1109 1.404 . S
C1108 C1111 1.539 . S
C1109 C1105 1.408 . S
C1109 C1108 1.404 . S
C1109 H1121 0.930 . S
C1110 C1106 1.524 1_545 S
C1110 H1122 0.956 . S
C1110 H1123 0.961 . S
C1110 H1124 0.961 . S
C1111 C1108 1.539 . S
C1111 H1125 0.958 . S
C1111 H1126 0.961 . S
C1111 H1127 0.960 . S
H1112 C1096 0.931 . S
H1113 C1101 0.929 . S
H1114 C1102 0.960 . S
H1115 C1102 0.962 . S
H1116 C1102 0.960 . S
H1117 C1103 0.961 . S
H1118 C1103 0.961 1_565 S
H1119 C1103 0.944 1_565 S
H1120 C1104 0.931 . S
H1121 C1109 0.930 . S
H1122 C1110 0.956 . S
H1123 C1110 0.961 . S
H1124 C1110 0.961 . S
H1125 C1111 0.958 . S
H1126 C1111 0.961 . S
H1127 C1111 0.960 . S
C1128 C1129 1.391 . S
C1128 C1130 1.394 . S
C1128 H1144 0.931 . S
C1129 C1128 1.391 . S
C1129 C1133 1.376 . S
C1130 C1128 1.394 . S
C1130 C1131 1.369 . S
C1130 C1134 1.531 . S
C1131 C1130 1.369 . S
C1131 C1132 1.410 . S
C1131 C1139 1.503 . S
C1132 C1131 1.410 . S
C1132 C1133 1.392 . S
C1132 C1135 1.511 . S
C1133 C1129 1.376 . S
C1133 C1132 1.392 . S
C1133 H1145 0.929 . S
C1134 C1130 1.531 . S
C1134 H1146 0.960 . S
C1134 H1147 0.962 . S
C1134 H1148 0.960 . S
C1135 C1132 1.511 . S
C1135 H1149 0.961 . S
C1135 H1150 0.961 . S
C1135 H1151 0.961 . S
C1136 C1137 1.370 . S
C1136 C1138 1.363 . S
C1136 H1152 0.931 . S
C1137 C1136 1.370 . S
C1137 C1141 1.408 . S
C1138 C1136 1.363 . S
C1138 C1139 1.370 . S
C1138 C1142 1.524 . S
C1139 C1131 1.503 . S
C1139 C1138 1.370 . S
C1139 C1140 1.403 . S
C1140 C1139 1.403 . S
C1140 C1141 1.404 . S
C1140 C1143 1.539 . S
C1141 C1137 1.408 . S
C1141 C1140 1.404 . S
C1141 H1153 0.930 . S
C1142 C1138 1.524 . S
C1142 H1154 0.956 . S
C1142 H1155 0.961 . S
C1142 H1156 0.961 . S
C1143 C1140 1.539 . S
C1143 H1157 0.958 . S
C1143 H1158 0.961 . S
C1143 H1159 0.960 . S
H1144 C1128 0.931 . S
H1145 C1133 0.929 . S
H1146 C1134 0.960 . S
H1147 C1134 0.962 . S
H1148 C1134 0.960 . S
H1149 C1135 0.961 . S
H1150 C1135 0.961 . S
H1151 C1135 0.961 . S
H1152 C1136 0.931 . S
H1153 C1141 0.930 . S
H1154 C1142 0.956 . S
H1155 C1142 0.961 . S
H1156 C1142 0.961 . S
H1157 C1143 0.958 . S
H1158 C1143 0.961 . S
H1159 C1143 0.960 . S
C1160 C1161 1.391 . S
C1160 C1162 1.394 . S
C1160 H1176 0.931 . S
C1161 C1160 1.391 . S
C1161 C1165 1.376 . S
C1162 C1160 1.394 . S
C1162 C1163 1.369 . S
C1162 C1166 1.531 . S
C1163 C1162 1.369 . S
C1163 C1164 1.410 . S
C1163 C1171 1.503 1_455 S
C1164 C1163 1.410 . S
C1164 C1165 1.392 . S
C1164 C1167 1.511 . S
C1165 C1161 1.376 . S
C1165 C1164 1.392 . S
C1165 H1177 0.929 . S
C1166 C1162 1.531 . S
C1166 H1178 0.960 1_455 S
C1166 H1179 0.962 1_455 S
C1166 H1180 0.960 . S
C1167 C1164 1.511 . S
C1167 H1181 0.961 . S
C1167 H1182 0.961 1_455 S
C1167 H1183 0.961 . S
C1168 C1169 1.370 . S
C1168 C1170 1.363 . S
C1168 H1184 0.931 . S
C1169 C1168 1.370 . S
C1169 C1173 1.408 . S
C1170 C1168 1.363 . S
C1170 C1171 1.370 . S
C1170 C1174 1.524 . S
C1171 C1163 1.503 1_655 S
C1171 C1170 1.370 . S
C1171 C1172 1.403 . S
C1172 C1171 1.403 . S
C1172 C1173 1.404 . S
C1172 C1175 1.539 . S
C1173 C1169 1.408 . S
C1173 C1172 1.404 . S
C1173 H1185 0.930 . S
C1174 C1170 1.524 . S
C1174 H1186 0.956 . S
C1174 H1187 0.961 . S
C1174 H1188 0.961 . S
C1175 C1172 1.539 . S
C1175 H1189 0.958 1_655 S
C1175 H1190 0.961 . S
C1175 H1191 0.960 1_655 S
H1176 C1160 0.931 . S
H1177 C1165 0.929 . S
H1178 C1166 0.960 1_655 S
H1179 C1166 0.962 1_655 S
H1180 C1166 0.960 . S
H1181 C1167 0.961 . S
H1182 C1167 0.961 1_655 S
H1183 C1167 0.961 . S
H1184 C1168 0.931 . S
H1185 C1173 0.930 . S
H1186 C1174 0.956 . S
H1187 C1174 0.961 . S
H1188 C1174 0.961 . S
H1189 C1175 0.958 1_455 S
H1190 C1175 0.961 . S
H1191 C1175 0.960 1_455 S
C1192 C1193 1.391 . S
C1192 C1194 1.394 . S
C1192 H1208 0.931 . S
C1193 C1192 1.391 . S
C1193 C1197 1.376 . S
C1194 C1192 1.394 . S
C1194 C1195 1.369 . S
C1194 C1198 1.531 . S
C1195 C1194 1.369 . S
C1195 C1196 1.410 . S
C1195 C1203 1.503 1_545 S
C1196 C1195 1.410 . S
C1196 C1197 1.392 . S
C1196 C1199 1.511 . S
C1197 C1193 1.376 . S
C1197 C1196 1.392 . S
C1197 H1209 0.929 . S
C1198 C1194 1.531 . S
C1198 H1210 0.960 . S
C1198 H1211 0.962 . S
C1198 H1212 0.960 . S
C1199 C1196 1.511 . S
C1199 H1213 0.961 . S
C1199 H1214 0.961 1_545 S
C1199 H1215 0.961 . S
C1200 C1201 1.370 . S
C1200 C1202 1.363 . S
C1200 H1216 0.931 . S
C1201 C1200 1.370 . S
C1201 C1205 1.408 . S
C1202 C1200 1.363 . S
C1202 C1203 1.370 . S
C1202 C1206 1.524 . S
C1203 C1195 1.503 1_565 S
C1203 C1202 1.370 . S
C1203 C1204 1.403 . S
C1204 C1203 1.403 . S
C1204 C1205 1.404 . S
C1204 C1207 1.539 . S
C1205 C1201 1.408 . S
C1205 C1204 1.404 . S
C1205 H1217 0.930 . S
C1206 C1202 1.524 . S
C1206 H1218 0.956 . S
C1206 H1219 0.961 . S
C1206 H1220 0.961 . S
C1207 C1204 1.539 . S
C1207 H1221 0.958 1_565 S
C1207 H1222 0.961 . S
C1207 H1223 0.960 1_565 S
H1208 C1192 0.931 . S
H1209 C1197 0.929 . S
H1210 C1198 0.960 . S
H1211 C1198 0.962 . S
H1212 C1198 0.960 . S
H1213 C1199 0.961 . S
H1214 C1199 0.961 1_565 S
H1215 C1199 0.961 . S
H1216 C1200 0.931 . S
H1217 C1205 0.930 . S
H1218 C1206 0.956 . S
H1219 C1206 0.961 . S
H1220 C1206 0.961 . S
H1221 C1207 0.958 1_545 S
H1222 C1207 0.961 . S
H1223 C1207 0.960 1_545 S
C1224 C1225 1.391 . S
C1224 C1226 1.394 . S
C1224 H1240 0.931 . S
C1225 C1224 1.391 . S
C1225 C1229 1.376 . S
C1226 C1224 1.394 . S
C1226 C1227 1.369 . S
C1226 C1230 1.531 . S
C1227 C1226 1.369 . S
C1227 C1228 1.410 . S
C1227 C1235 1.503 . S
C1228 C1227 1.410 . S
C1228 C1229 1.392 . S
C1228 C1231 1.511 . S
C1229 C1225 1.376 . S
C1229 C1228 1.392 . S
C1229 H1241 0.929 . S
C1230 C1226 1.531 . S
C1230 H1242 0.960 . S
C1230 H1243 0.962 . S
C1230 H1244 0.960 . S
C1231 C1228 1.511 . S
C1231 H1245 0.961 . S
C1231 H1246 0.961 . S
C1231 H1247 0.961 . S
C1232 C1233 1.370 . S
C1232 C1234 1.363 . S
C1232 H1248 0.931 . S
C1233 C1232 1.370 . S
C1233 C1237 1.408 . S
C1234 C1232 1.363 . S
C1234 C1235 1.370 . S
C1234 C1238 1.524 . S
C1235 C1227 1.503 . S
C1235 C1234 1.370 . S
C1235 C1236 1.403 . S
C1236 C1235 1.403 . S
C1236 C1237 1.404 . S
C1236 C1239 1.539 . S
C1237 C1233 1.408 . S
C1237 C1236 1.404 . S
C1237 H1249 0.930 . S
C1238 C1234 1.524 . S
C1238 H1250 0.956 . S
C1238 H1251 0.961 . S
C1238 H1252 0.961 . S
C1239 C1236 1.539 . S
C1239 H1253 0.958 . S
C1239 H1254 0.961 . S
C1239 H1255 0.960 . S
H1240 C1224 0.931 . S
H1241 C1229 0.929 . S
H1242 C1230 0.960 . S
H1243 C1230 0.962 . S
H1244 C1230 0.960 . S
H1245 C1231 0.961 . S
H1246 C1231 0.961 . S
H1247 C1231 0.961 . S
H1248 C1232 0.931 . S
H1249 C1237 0.930 . S
H1250 C1238 0.956 . S
H1251 C1238 0.961 . S
H1252 C1238 0.961 . S
H1253 C1239 0.958 . S
H1254 C1239 0.961 . S
H1255 C1239 0.960 . S
C1256 C1257 1.391 . S
C1256 C1258 1.394 . S
C1256 H1272 0.931 . S
C1257 C1256 1.391 . S
C1257 C1261 1.376 . S
C1258 C1256 1.394 . S
C1258 C1259 1.369 . S
C1258 C1262 1.531 . S
C1259 C1258 1.369 . S
C1259 C1260 1.410 . S
C1259 C1267 1.503 . S
C1260 C1259 1.410 . S
C1260 C1261 1.392 . S
C1260 C1263 1.511 . S
C1261 C1257 1.376 . S
C1261 C1260 1.392 . S
C1261 H1273 0.929 . S
C1262 C1258 1.531 . S
C1262 H1274 0.960 . S
C1262 H1275 0.962 . S
C1262 H1276 0.960 . S
C1263 C1260 1.511 . S
C1263 H1277 0.961 . S
C1263 H1278 0.961 . S
C1263 H1279 0.961 . S
C1264 C1265 1.370 . S
C1264 C1266 1.363 . S
C1264 H1280 0.931 . S
C1265 C1264 1.370 . S
C1265 C1269 1.408 . S
C1266 C1264 1.363 . S
C1266 C1267 1.370 . S
C1266 C1270 1.524 . S
C1267 C1259 1.503 . S
C1267 C1266 1.370 . S
C1267 C1268 1.403 . S
C1268 C1267 1.403 . S
C1268 C1269 1.404 . S
C1268 C1271 1.539 . S
C1269 C1265 1.408 . S
C1269 C1268 1.404 . S
C1269 H1281 0.930 . S
C1270 C1266 1.524 . S
C1270 H1282 0.956 . S
C1270 H1283 0.961 . S
C1270 H1284 0.961 . S
C1271 C1268 1.539 . S
C1271 H1285 0.958 . S
C1271 H1286 0.961 . S
C1271 H1287 0.960 . S
H1272 C1256 0.931 . S
H1273 C1261 0.929 . S
H1274 C1262 0.960 . S
H1275 C1262 0.962 . S
H1276 C1262 0.960 . S
H1277 C1263 0.961 . S
H1278 C1263 0.961 . S
H1279 C1263 0.961 . S
H1280 C1264 0.931 . S
H1281 C1269 0.930 . S
H1282 C1270 0.956 . S
H1283 C1270 0.961 . S
H1284 C1270 0.961 . S
H1285 C1271 0.958 . S
H1286 C1271 0.961 . S
H1287 C1271 0.960 . S
C1288 C1289 1.391 . S
C1288 C1290 1.394 . S
C1288 H1304 0.931 . S
C1289 C1288 1.391 . S
C1289 C1293 1.376 . S
C1290 C1288 1.394 . S
C1290 C1291 1.369 . S
C1290 C1294 1.531 . S
C1291 C1290 1.369 . S
C1291 C1292 1.410 . S
C1291 C1299 1.503 . S
C1292 C1291 1.410 . S
C1292 C1293 1.392 . S
C1292 C1295 1.511 . S
C1293 C1289 1.376 . S
C1293 C1292 1.392 . S
C1293 H1305 0.929 . S
C1294 C1290 1.531 . S
C1294 H1306 0.960 . S
C1294 H1307 0.962 . S
C1294 H1308 0.960 . S
C1295 C1292 1.511 . S
C1295 H1309 0.961 . S
C1295 H1310 0.961 . S
C1295 H1311 0.961 . S
C1296 C1297 1.370 . S
C1296 C1298 1.363 . S
C1296 H1312 0.931 . S
C1297 C1296 1.370 . S
C1297 C1301 1.408 . S
C1298 C1296 1.363 . S
C1298 C1299 1.370 . S
C1298 C1302 1.524 . S
C1299 C1291 1.503 . S
C1299 C1298 1.370 . S
C1299 C1300 1.403 . S
C1300 C1299 1.403 . S
C1300 C1301 1.404 . S
C1300 C1303 1.539 . S
C1301 C1297 1.408 . S
C1301 C1300 1.404 . S
C1301 H1313 0.930 . S
C1302 C1298 1.524 . S
C1302 H1314 0.956 . S
C1302 H1315 0.961 . S
C1302 H1316 0.961 . S
C1303 C1300 1.539 . S
C1303 H1317 0.958 . S
C1303 H1318 0.961 . S
C1303 H1319 0.960 . S
H1304 C1288 0.931 . S
H1305 C1293 0.929 . S
H1306 C1294 0.960 . S
H1307 C1294 0.962 . S
H1308 C1294 0.960 . S
H1309 C1295 0.961 . S
H1310 C1295 0.961 . S
H1311 C1295 0.961 . S
H1312 C1296 0.931 . S
H1313 C1301 0.930 . S
H1314 C1302 0.956 . S
H1315 C1302 0.961 . S
H1316 C1302 0.961 . S
H1317 C1303 0.958 . S
H1318 C1303 0.961 . S
H1319 C1303 0.960 . S
C1320 C1321 1.391 . S
C1320 C1322 1.394 . S
C1320 H1336 0.931 . S
C1321 C1320 1.391 . S
C1321 C1325 1.376 . S
C1322 C1320 1.394 . S
C1322 C1323 1.369 . S
C1322 C1326 1.531 . S
C1323 C1322 1.369 . S
C1323 C1324 1.410 . S
C1323 C1331 1.503 . S
C1324 C1323 1.410 . S
C1324 C1325 1.392 . S
C1324 C1327 1.511 . S
C1325 C1321 1.376 . S
C1325 C1324 1.392 . S
C1325 H1337 0.929 . S
C1326 C1322 1.531 . S
C1326 H1338 0.960 . S
C1326 H1339 0.962 . S
C1326 H1340 0.960 . S
C1327 C1324 1.511 . S
C1327 H1341 0.961 . S
C1327 H1342 0.961 . S
C1327 H1343 0.961 . S
C1328 C1329 1.370 . S
C1328 C1330 1.363 . S
C1328 H1344 0.931 . S
C1329 C1328 1.370 . S
C1329 C1333 1.408 . S
C1330 C1328 1.363 . S
C1330 C1331 1.370 . S
C1330 C1334 1.524 . S
C1331 C1323 1.503 . S
C1331 C1330 1.370 . S
C1331 C1332 1.403 . S
C1332 C1331 1.403 . S
C1332 C1333 1.404 . S
C1332 C1335 1.539 . S
C1333 C1329 1.408 . S
C1333 C1332 1.404 . S
C1333 H1345 0.930 . S
C1334 C1330 1.524 . S
C1334 H1346 0.956 . S
C1334 H1347 0.961 . S
C1334 H1348 0.961 . S
C1335 C1332 1.539 . S
C1335 H1349 0.958 . S
C1335 H1350 0.961 . S
C1335 H1351 0.960 . S
H1336 C1320 0.931 . S
H1337 C1325 0.929 . S
H1338 C1326 0.960 . S
H1339 C1326 0.962 . S
H1340 C1326 0.960 . S
H1341 C1327 0.961 . S
H1342 C1327 0.961 . S
H1343 C1327 0.961 . S
H1344 C1328 0.931 . S
H1345 C1333 0.930 . S
H1346 C1334 0.956 . S
H1347 C1334 0.961 . S
H1348 C1334 0.961 . S
H1349 C1335 0.958 . S
H1350 C1335 0.961 . S
H1351 C1335 0.960 . S
C1352 C1353 1.391 . S
C1352 C1354 1.394 . S
C1352 H1368 0.931 . S
C1353 C1352 1.391 . S
C1353 C1357 1.376 . S
C1354 C1352 1.394 . S
C1354 C1355 1.369 . S
C1354 C1358 1.531 . S
C1355 C1354 1.369 . S
C1355 C1356 1.410 . S
C1355 C1363 1.503 . S
C1356 C1355 1.410 . S
C1356 C1357 1.392 . S
C1356 C1359 1.511 . S
C1357 C1353 1.376 . S
C1357 C1356 1.392 . S
C1357 H1369 0.929 . S
C1358 C1354 1.531 . S
C1358 H1370 0.960 . S
C1358 H1371 0.962 . S
C1358 H1372 0.960 . S
C1359 C1356 1.511 . S
C1359 H1373 0.961 . S
C1359 H1374 0.961 . S
C1359 H1375 0.961 . S
C1360 C1361 1.370 1_556 S
C1360 C1362 1.363 . S
C1360 H1376 0.931 1_556 S
C1361 C1360 1.370 1_554 S
C1361 C1365 1.408 . S
C1362 C1360 1.363 . S
C1362 C1363 1.370 . S
C1362 C1366 1.524 . S
C1363 C1355 1.503 . S
C1363 C1362 1.370 . S
C1363 C1364 1.403 . S
C1364 C1363 1.403 . S
C1364 C1365 1.404 1_556 S
C1364 C1367 1.539 . S
C1365 C1361 1.408 . S
C1365 C1364 1.404 1_554 S
C1365 H1377 0.930 . S
C1366 C1362 1.524 . S
C1366 H1378 0.956 . S
C1366 H1379 0.961 . S
C1366 H1380 0.961 . S
C1367 C1364 1.539 . S
C1367 H1381 0.958 . S
C1367 H1382 0.961 . S
C1367 H1383 0.960 . S
H1368 C1352 0.931 . S
H1369 C1357 0.929 . S
H1370 C1358 0.960 . S
H1371 C1358 0.962 . S
H1372 C1358 0.960 . S
H1373 C1359 0.961 . S
H1374 C1359 0.961 . S
H1375 C1359 0.961 . S
H1376 C1360 0.931 1_554 S
H1377 C1365 0.930 . S
H1378 C1366 0.956 . S
H1379 C1366 0.961 . S
H1380 C1366 0.961 . S
H1381 C1367 0.958 . S
H1382 C1367 0.961 . S
H1383 C1367 0.960 . S
C1384 C1385 1.391 1_554 S
C1384 C1386 1.394 . S
C1384 H1400 0.931 1_554 S
C1385 C1384 1.391 1_556 S
C1385 C1389 1.376 1_556 S
C1386 C1384 1.394 . S
C1386 C1387 1.369 . S
C1386 C1390 1.531 . S
C1387 C1386 1.369 . S
C1387 C1388 1.410 . S
C1387 C1395 1.503 . S
C1388 C1387 1.410 . S
C1388 C1389 1.392 . S
C1388 C1391 1.511 . S
C1389 C1385 1.376 1_554 S
C1389 C1388 1.392 . S
C1389 H1401 0.929 1_554 S
C1390 C1386 1.531 . S
C1390 H1402 0.960 . S
C1390 H1403 0.962 . S
C1390 H1404 0.960 . S
C1391 C1388 1.511 . S
C1391 H1405 0.961 . S
C1391 H1406 0.961 . S
C1391 H1407 0.961 . S
C1392 C1393 1.370 . S
C1392 C1394 1.363 . S
C1392 H1408 0.931 . S
C1393 C1392 1.370 . S
C1393 C1397 1.408 . S
C1394 C1392 1.363 . S
C1394 C1395 1.370 . S
C1394 C1398 1.524 . S
C1395 C1387 1.503 . S
C1395 C1394 1.370 . S
C1395 C1396 1.403 . S
C1396 C1395 1.403 . S
C1396 C1397 1.404 . S
C1396 C1399 1.539 . S
C1397 C1393 1.408 . S
C1397 C1396 1.404 . S
C1397 H1409 0.930 . S
C1398 C1394 1.524 . S
C1398 H1410 0.956 . S
C1398 H1411 0.961 . S
C1398 H1412 0.961 . S
C1399 C1396 1.539 . S
C1399 H1413 0.958 . S
C1399 H1414 0.961 . S
C1399 H1415 0.960 . S
H1400 C1384 0.931 1_556 S
H1401 C1389 0.929 1_556 S
H1402 C1390 0.960 . S
H1403 C1390 0.962 . S
H1404 C1390 0.960 . S
H1405 C1391 0.961 . S
H1406 C1391 0.961 . S
H1407 C1391 0.961 . S
H1408 C1392 0.931 . S
H1409 C1397 0.930 . S
H1410 C1398 0.956 . S
H1411 C1398 0.961 . S
H1412 C1398 0.961 . S
H1413 C1399 0.958 . S
H1414 C1399 0.961 . S
H1415 C1399 0.960 . S
C265 C5 1.411 . S
C273 C185 1.430 . S
C297 C207 1.442 . S
C305 C31 1.443 . S
C329 C229 1.415 . S
C337 C49 1.426 . S
C361 C75 1.452 . S
C369 C251 1.441 . S
C393 C141 1.414 . S
C401 C93 1.426 . S
C425 C163 1.412 . S
C433 C119 1.431 . S
C457 C9 0.922 . S
C465 C203 0.893 . S
C489 C27 0.888 . S
C497 C225 0.902 . S
C521 C247 0.980 . S
C529 C53 0.896 . S
C553 C137 0.862 . S
C561 C71 0.914 . S
C585 C97 0.980 . S
C593 C159 0.917 . S
C617 C115 0.973 . S
C625 C181 0.923 . S
C649 C138 1.319 . S
C657 C7 1.323 . S
C681 C160 1.305 . S
C689 C28 1.320 . S
C713 C182 1.341 . S
C721 C51 1.321 . S
C745 C72 1.290 . S
C753 C204 1.314 . S
C777 C95 1.274 . S
C785 C226 1.303 . S
C809 C116 1.272 . S
C817 C248 1.300 . S
C841 C8 1.693 . S
C849 C118 1.686 . S
C873 C26 1.667 . S
C881 C4 1.672 . S
C905 C52 1.687 . S
C913 C30 1.687 . S
C937 C48 1.690 . S
C945 C70 1.683 . S
C969 C96 1.697 . S
C977 C74 1.675 . S
C1001 C114 1.683 . S
C1009 C92 1.687 . S
C1033 C162 1.678 . S
C1041 C136 1.679 . S
C1065 C184 1.688 . S
C1073 C158 1.682 . S
C1097 C206 1.694 . S
C1105 C180 1.689 . S
C1129 C202 1.667 . S
C1137 C228 1.682 . S
C1161 C224 1.693 . S
C1169 C250 1.686 . S
C1193 C246 1.690 . S
C1201 C140 1.686 . S
C1225 C227 0.614 . S
C1233 C6 0.530 . S
C1257 C249 0.492 . S
C1265 C29 0.585 . S
C1289 C139 0.527 . S
C1297 C50 0.573 . S
C1321 C161 0.593 . S
C1329 C73 0.540 . S
C1353 C94 0.511 . S
C1361 C183 0.579 . S
C1385 C117 0.478 . S
C1393 C205 0.588 . S
