# Generated by pormake.
# Topology snk, (6)-cn, num edge types: 1
# Building blocks:
#     Node 0, Type 0, BuildingBlock: PAMTOO_clean_sbu_0, # of connection points: 6
#     Node 1, Type 0, BuildingBlock: PAMTOO_clean_sbu_0, # of connection points: 6
#     Node 2, Type 0, BuildingBlock: PAMTOO_clean_sbu_0, # of connection points: 6
#     Node 3, Type 0, BuildingBlock: PAMTOO_clean_sbu_0, # of connection points: 6
#     Node 4, Type 0, BuildingBlock: PAMTOO_clean_sbu_0, # of connection points: 6
#     Node 5, Type 0, BuildingBlock: PAMTOO_clean_sbu_0, # of connection points: 6
#     Node 6, Type 0, BuildingBlock: PAMTOO_clean_sbu_0, # of connection points: 6
#     Node 7, Type 0, BuildingBlock: PAMTOO_clean_sbu_0, # of connection points: 6
#     Edge 8, Type (0, 0), BuildingBlock: EZIPEK_clean_linker_0, # of connection points: 2
#     Edge 9, Type (0, 0), BuildingBlock: EZIPEK_clean_linker_0, # of connection points: 2
#     Edge 10, Type (0, 0), BuildingBlock: EZIPEK_clean_linker_0, # of connection points: 2
#     Edge 11, Type (0, 0), BuildingBlock: EZIPEK_clean_linker_0, # of connection points: 2
#     Edge 12, Type (0, 0), BuildingBlock: EZIPEK_clean_linker_0, # of connection points: 2
#     Edge 13, Type (0, 0), BuildingBlock: EZIPEK_clean_linker_0, # of connection points: 2
#     Edge 14, Type (0, 0), BuildingBlock: EZIPEK_clean_linker_0, # of connection points: 2
#     Edge 15, Type (0, 0), BuildingBlock: EZIPEK_clean_linker_0, # of connection points: 2
#     Edge 16, Type (0, 0), BuildingBlock: EZIPEK_clean_linker_0, # of connection points: 2
#     Edge 17, Type (0, 0), BuildingBlock: EZIPEK_clean_linker_0, # of connection points: 2
#     Edge 18, Type (0, 0), BuildingBlock: EZIPEK_clean_linker_0, # of connection points: 2
#     Edge 19, Type (0, 0), BuildingBlock: EZIPEK_clean_linker_0, # of connection points: 2
#     Edge 20, Type (0, 0), BuildingBlock: EZIPEK_clean_linker_0, # of connection points: 2
#     Edge 21, Type (0, 0), BuildingBlock: EZIPEK_clean_linker_0, # of connection points: 2
#     Edge 22, Type (0, 0), BuildingBlock: EZIPEK_clean_linker_0, # of connection points: 2
#     Edge 23, Type (0, 0), BuildingBlock: EZIPEK_clean_linker_0, # of connection points: 2
#     Edge 24, Type (0, 0), BuildingBlock: EZIPEK_clean_linker_0, # of connection points: 2
#     Edge 25, Type (0, 0), BuildingBlock: EZIPEK_clean_linker_0, # of connection points: 2
#     Edge 26, Type (0, 0), BuildingBlock: EZIPEK_clean_linker_0, # of connection points: 2
#     Edge 27, Type (0, 0), BuildingBlock: EZIPEK_clean_linker_0, # of connection points: 2
#     Edge 28, Type (0, 0), BuildingBlock: EZIPEK_clean_linker_0, # of connection points: 2
#     Edge 29, Type (0, 0), BuildingBlock: EZIPEK_clean_linker_0, # of connection points: 2
#     Edge 30, Type (0, 0), BuildingBlock: EZIPEK_clean_linker_0, # of connection points: 2
#     Edge 31, Type (0, 0), BuildingBlock: EZIPEK_clean_linker_0, # of connection points: 2
# Relax obj value: 0.105
# Max RMSD: 0.185
# Mean RMSD: 0.146
data_MOF--net-snk--node1-PAMTOO_clean_sbu_0--edge1-EZIPEK_clean_linker_0
_symmetry_space_group_name_H-M    P1
_symmetry_Int_Tables_number       1
_symmetry_cell_setting            triclinic
loop_
_symmetry_equiv_pos_as_xyz
'x, y, z'
_cell_length_a     28.165668
_cell_length_b     27.640006
_cell_length_c     20.967311
_cell_angle_alpha  90.025351
_cell_angle_beta   91.418098
_cell_angle_gamma 90.002309
loop_
_atom_site_label
_atom_site_type_symbol
_atom_site_fract_x
_atom_site_fract_y
_atom_site_fract_z
_atom_type_partial_charge
Dy0 Dy 0.97273 0.00825 0.58382 0.0
Dy1 Dy 0.96802 0.93793 0.45216 0.0
C2 C 0.03541 0.91089 0.57081 0.0
O3 O 0.02713 0.04115 0.52149 0.0
O4 O 0.01162 0.00205 0.42568 0.0
O5 O 0.01196 0.04283 0.66081 0.0
O6 O 0.93506 0.04639 0.65745 0.0
O7 O 0.90535 -0.0132 0.45399 0.0
O8 O 0.93759 0.05159 0.50728 0.0
O9 O 0.93493 0.89536 0.53019 0.0
O10 O 0.9089 0.96045 0.58725 0.0
O11 O 0.9243 0.90513 0.37734 0.0
O12 O 0.00058 0.89753 0.37672 0.0
C13 C 0.03386 0.03529 0.46006 0.0
O14 O 0.01326 0.9414 0.6075 0.0
O15 O 0.02869 0.90822 0.50889 0.0
C16 C 0.97268 0.03751 0.75883 0.0
C17 C 0.96853 0.00564 0.88644 0.0
C18 C -0.009 0.97729 0.84054 0.0
C19 C -0.00671 -0.00681 0.77739 0.0
C20 C 0.95015 0.06584 0.80468 0.0
C21 C 0.94825 0.05013 0.86812 0.0
C22 C -0.02628 0.05372 0.69173 0.0
C23 C 0.90737 0.03326 0.46541 0.0
C24 C 0.90848 0.91392 0.57486 0.0
C25 C 0.96111 0.90803 0.27746 0.0
C26 C 0.96193 0.93903 0.14929 0.0
C27 C -0.02228 0.96994 0.19858 0.0
C28 C -0.02227 0.9544 0.26202 0.0
C29 C 0.94497 0.8772 0.22837 0.0
C30 C 0.94564 0.89247 0.16464 0.0
C31 C 0.96081 0.89189 0.34452 0.0
H32 H 0.00682 0.94288 0.85371 0.0
H33 H 0.01085 0.9706 0.74294 0.0
H34 H 0.93398 0.10006 0.79138 0.0
H35 H 0.93083 0.07253 0.9029 0.0
H36 H -0.00947 0.00592 0.18781 0.0
H37 H -0.00914 0.97859 0.29904 0.0
H38 H 0.93212 0.84127 0.23929 0.0
H39 H 0.93346 0.86805 0.12728 0.0
Dy40 Dy 0.26492 0.73098 0.70646 0.0
Dy41 Dy 0.19567 0.73174 0.83747 0.0
C42 C 0.16327 0.78906 0.71341 0.0
O43 O 0.30358 0.76902 0.78528 0.0
O44 O 0.23864 0.79918 0.83511 0.0
O45 O 0.30299 0.77366 0.63806 0.0
O46 O 0.30458 0.69544 0.63301 0.0
O47 O 0.26487 0.69864 0.86261 0.0
O48 O 0.28731 0.66799 0.76604 0.0
O49 O 0.16502 0.6747 0.77234 0.0
O50 O 0.20552 0.68393 0.67784 0.0
O51 O 0.1647 0.69075 0.91347 0.0
O52 O 0.1605 0.76906 0.91396 0.0
C53 C 0.28429 0.79938 0.82499 0.0
O54 O 0.20523 0.7828 0.68819 0.0
O55 O 0.15062 0.77065 0.76792 0.0
C56 C 0.29959 0.73782 0.53601 0.0
C57 C 0.27122 0.73795 0.40615 0.0
C58 C 0.23721 0.74142 0.45377 0.0
C59 C 0.25128 0.74131 0.51822 0.0
C60 C 0.33365 0.73467 0.48849 0.0
C61 C 0.31956 0.73473 0.42389 0.0
C62 C 0.31403 0.73591 0.60399 0.0
C63 C 0.28895 0.66819 0.82856 0.0
C64 C 0.17188 0.66495 0.71159 0.0
C65 C 0.17256 0.7302 1.01339 0.0
C66 C 0.20642 0.73339 0.14103 0.0
C67 C 0.23239 0.70913 0.09455 0.0
C68 C 0.21568 0.70763 1.03117 0.0
C69 C 0.14677 0.75463 0.05992 0.0
C70 C 0.16358 0.75625 0.12331 0.0
C71 C 0.15477 0.72935 0.94651 0.0
H72 H 0.19978 0.74378 0.44097 0.0
H73 H 0.22444 0.74352 0.55427 0.0
H74 H 0.37103 0.73173 0.50134 0.0
H75 H 0.34624 0.73186 0.38775 0.0
H76 H 0.26556 0.69138 0.10741 0.0
H77 H 0.23651 0.68894 0.99608 0.0
H78 H 0.11363 0.77249 0.04717 0.0
H79 H 0.14314 0.77514 0.15863 0.0
Dy80 Dy 0.46992 0.02609 0.95662 0.0
Dy81 Dy 0.4757 0.95549 0.09029 0.0
C82 C 0.41037 0.92685 0.96507 0.0
O83 O 0.40798 0.04802 1.01405 0.0
O84 O 0.43619 0.02304 0.1125 0.0
O85 O 0.43209 0.06563 0.88246 0.0
O86 O 0.50889 0.06488 0.88511 0.0
O87 O 0.5368 0.0056 0.09695 0.0
O88 O 0.50994 0.06749 1.0318 0.0
O89 O 0.52214 0.91537 1.02441 0.0
O90 O 0.52009 0.96572 0.93564 0.0
O91 O 0.51265 0.91862 0.16759 0.0
O92 O 0.43583 0.92301 0.1661 0.0
C93 C 0.40658 0.04819 0.07651 0.0
O94 O 0.42272 0.96514 0.93272 0.0
O95 O 0.4255 0.91711 1.02355 0.0
C96 C 0.47044 0.06064 0.78423 0.0
C97 C 0.47115 0.03135 0.65542 0.0
C98 C 0.46341 -0.00264 0.7038 0.0
C99 C 0.46317 0.01189 0.76771 0.0
C100 C 0.47805 0.09468 0.73594 0.0
C101 C 0.47846 0.08013 0.67188 0.0
C102 C 0.47059 0.07556 0.85175 0.0
C103 C 0.53796 0.05054 0.0775 0.0
C104 C 0.53482 0.92677 0.96636 0.0
C105 C 0.47503 0.92979 0.26627 0.0
C106 C 0.47395 0.96418 0.39289 0.0
C107 C 0.49719 -0.00944 0.34575 0.0
C108 C 0.49753 0.97364 0.2828 0.0
C109 C 0.45178 0.90349 0.31348 0.0
C110 C 0.45119 0.92058 0.37637 0.0
C111 C 0.474 0.91231 0.19969 0.0
H112 H 0.45781 0.95958 0.69206 0.0
H113 H 0.45743 -0.01491 0.80435 0.0
H114 H 0.48385 0.13241 0.74779 0.0
H115 H 0.4846 0.1068 0.63516 0.0
H116 H 0.5148 0.02433 0.35767 0.0
H117 H 0.51516 -0.0051 0.24699 0.0
H118 H 0.43385 0.86987 0.3016 0.0
H119 H 0.43303 0.89984 0.41219 0.0
Dy120 Dy 0.18404 0.23479 0.21085 0.0
Dy121 Dy 0.25249 0.22568 0.34425 0.0
C122 C 0.27986 0.1708 0.21691 0.0
O123 O 0.14239 0.19436 0.28266 0.0
O124 O 0.20643 0.16012 0.3336 0.0
O125 O 0.14271 0.19823 0.13705 0.0
O126 O 0.15208 0.27593 0.13343 0.0
O127 O 0.1866 0.26382 0.37259 0.0
O128 O 0.15483 0.29086 0.27645 0.0
O129 O 0.28233 0.28928 0.29257 0.0
O130 O 0.24878 0.27806 0.19197 0.0
O131 O 0.2904 0.25839 0.42388 0.0
O132 O 0.28391 0.18057 0.4188 0.0
C133 C 0.16058 0.1618 0.32166 0.0
O134 O 0.23548 0.17426 0.19666 0.0
O135 O 0.2963 0.19297 0.2683 0.0
C136 C 0.15339 0.23344 0.03604 0.0
C137 C 0.18335 0.22663 0.90893 0.0
C138 C 0.21688 0.22867 0.95955 0.0
C139 C 0.20202 0.23198 1.02262 0.0
C140 C 0.11985 0.23117 0.98553 0.0
C141 C 0.13472 0.22778 0.92234 0.0
C142 C 0.13789 0.23731 0.10256 0.0
C143 C 0.15704 0.29108 0.33929 0.0
C144 C 0.2798 0.29857 0.23106 0.0
C145 C 0.27863 0.21702 0.5206 0.0
C146 C 0.24715 0.21757 0.64742 0.0
C147 C 0.22003 0.23987 0.59869 0.0
C148 C 0.23565 0.23966 0.53586 0.0
C149 C 0.30544 0.19413 0.56918 0.0
C150 C 0.28986 0.19445 0.63221 0.0
C151 C 0.29562 0.21758 0.45443 0.0
H152 H 0.25452 0.22786 0.95014 0.0
H153 H 0.22844 0.23357 0.06099 0.0
H154 H 0.08221 0.23218 0.99494 0.0
H155 H 0.10837 0.22631 0.88387 0.0
H156 H 0.18698 0.2578 0.60946 0.0
H157 H 0.2142 0.25741 0.49924 0.0
H158 H 0.33859 0.17634 0.55846 0.0
H159 H 0.31124 0.17704 0.66921 0.0
Dy160 Dy 0.75944 0.24234 0.22173 0.0
Dy161 Dy 0.68831 0.2332 0.35183 0.0
C162 C 0.66581 0.30349 0.2368 0.0
O163 O 0.80321 0.27661 0.29804 0.0
O164 O 0.74421 0.28839 0.37151 0.0
O165 O 0.78989 0.28723 0.14856 0.0
O166 O 0.79811 0.20931 0.14561 0.0
O167 O 0.74143 0.17515 0.36352 0.0
O168 O 0.79727 0.1908 0.28654 0.0
O169 O 0.6515 0.18544 0.28174 0.0
O170 O 0.69909 0.19424 0.19332 0.0
O171 O 0.65615 0.19423 0.42901 0.0
O172 O 0.64875 0.27206 0.42245 0.0
C173 C 0.78756 0.29446 0.35143 0.0
O174 O 0.71134 0.30591 0.22638 0.0
O175 O 0.64797 0.27288 0.27719 0.0
C176 C 0.78684 0.2499 0.0472 0.0
C177 C 0.75665 0.25014 0.91801 0.0
C178 C 0.73201 0.22291 0.96292 0.0
C179 C 0.74686 0.2229 1.02706 0.0
C180 C 0.81125 0.27742 1.00229 0.0
C181 C 0.79624 0.27758 0.93807 0.0
C182 C 0.80278 0.25002 0.11481 0.0
C183 C 0.78245 0.1678 0.33718 0.0
C184 C 0.66219 0.17638 0.2223 0.0
C185 C 0.65965 0.2383 0.52496 0.0
C186 C 0.69182 0.24414 0.65307 0.0
C187 C 0.7228 0.25441 0.60343 0.0
C188 C 0.70684 0.25147 0.53981 0.0
C189 C 0.62861 0.22828 0.57454 0.0
C190 C 0.64458 0.2312 0.63824 0.0
C191 C 0.64329 0.23375 0.45792 0.0
H192 H 0.7013 0.20169 0.94824 0.0
H193 H 0.72712 0.20177 0.06091 0.0
H194 H 0.84193 0.29873 1.0169 0.0
H195 H 0.81558 0.29886 0.90398 0.0
H196 H 0.75937 0.26437 0.61397 0.0
H197 H 0.73138 0.25921 0.50218 0.0
H198 H 0.59217 0.21788 0.56398 0.0
H199 H 0.62025 0.22306 0.67599 0.0
Dy200 Dy 0.69126 0.72644 0.7212 0.0
Dy201 Dy 0.761 0.73537 0.85746 0.0
C202 C 0.79116 0.6662 0.7419 0.0
O203 O 0.65227 0.68473 0.79443 0.0
O204 O 0.70953 0.67583 0.87495 0.0
O205 O 0.65871 0.6815 0.64782 0.0
O206 O 0.65284 0.75944 0.64203 0.0
O207 O 0.69911 0.78431 0.87134 0.0
O208 O 0.65224 0.78007 0.77898 0.0
O209 O 0.79955 0.77853 0.7848 0.0
O210 O 0.74526 0.78229 0.70016 0.0
O211 O 0.79222 0.78034 0.93193 0.0
O212 O 0.80051 0.70249 0.93551 0.0
C213 C 0.66773 0.6663 0.84884 0.0
O214 O 0.75061 0.67352 0.71102 0.0
O215 O 0.80321 0.68722 0.79599 0.0
C216 C 0.66304 0.71772 0.54587 0.0
C217 C 0.69582 0.72323 0.42016 0.0
C218 C 0.72637 0.70784 0.47001 0.0
C219 C 0.7101 0.70511 0.53244 0.0
C220 C 0.63243 0.73275 0.49594 0.0
C221 C 0.64868 0.73543 0.43344 0.0
C222 C 0.64677 0.71848 0.61215 0.0
C223 C 0.66146 0.79643 0.83673 0.0
C224 C 0.78601 0.79376 0.72771 0.0
C225 C 0.79016 0.74278 0.03285 0.0
C226 C 0.76078 0.73847 0.1602 0.0
C227 C 0.72831 0.72921 0.1098 0.0
C228 C 0.7429 0.73138 0.04658 0.0
C229 C 0.82252 0.75257 0.08313 0.0
C230 C 0.80793 0.75043 0.14649 0.0
C231 C 0.8058 0.74323 0.96632 0.0
H232 H 0.76287 0.69839 0.46063 0.0
H233 H 0.7344 0.69372 0.57035 0.0
H234 H 0.59617 0.74305 0.50544 0.0
H235 H 0.62467 0.74744 0.39551 0.0
H236 H 0.69182 0.71994 0.11948 0.0
H237 H 0.71747 0.72369 1.00835 0.0
H238 H 0.85911 0.76144 0.07342 0.0
H239 H 0.83342 0.75769 0.18484 0.0
Dy240 Dy 0.47397 0.52368 0.10667 0.0
Dy241 Dy 0.46744 0.4522 0.97413 0.0
C242 C 0.53383 0.42446 0.09785 0.0
O243 O 0.53649 0.5457 0.05029 0.0
O244 O 0.51253 0.51599 0.95186 0.0
O245 O 0.51131 0.56233 0.18199 0.0
O246 O 0.43447 0.5626 0.17785 0.0
O247 O 0.40758 0.50426 0.97157 0.0
O248 O 0.4402 0.56731 1.02871 0.0
O249 O 0.42509 0.41001 0.04252 0.0
O250 O 0.41985 0.46588 0.12469 0.0
O251 O 0.42693 0.41878 0.8971 0.0
O252 O 0.50378 0.41702 0.89722 0.0
C253 C 0.54034 0.54313 0.9881 0.0
O254 O 0.52209 0.46335 0.1294 0.0
O255 O 0.51756 0.41347 0.04026 0.0
C256 C 0.4718 0.55721 0.27984 0.0
C257 C 0.46877 0.52779 0.40854 0.0
C258 C 0.49192 0.49914 0.36363 0.0
C259 C 0.49328 0.51363 0.29976 0.0
C260 C 0.4486 0.58582 0.32481 0.0
C261 C 0.44705 0.57119 0.38876 0.0
C262 C 0.47258 0.57224 0.21221 0.0
C263 C 0.41119 0.5504 0.98441 0.0
C264 C 0.40892 0.42412 0.09774 0.0
C265 C 0.464 0.42716 0.79806 0.0
C266 C 0.46463 0.46136 0.67138 0.0
C267 C 0.45975 0.49386 0.72233 0.0
C268 C 0.45952 0.47689 0.78525 0.0
C269 C 0.46877 0.39469 0.7472 0.0
C270 C 0.46908 0.41166 0.68425 0.0
C271 C 0.46459 0.40925 0.86431 0.0
H272 H 0.50872 0.46548 0.378 0.0
H273 H 0.51107 0.49074 0.26591 0.0
H274 H 0.43157 0.61936 0.31042 0.0
H275 H 0.42893 0.59365 0.42281 0.0
H276 H 0.45629 0.5323 0.71332 0.0
H277 H 0.45598 0.50255 0.82395 0.0
H278 H 0.47243 0.35626 0.75618 0.0
H279 H 0.47293 0.3861 0.64554 0.0
Dy280 Dy 0.96624 0.5018 0.48721 0.0
Dy281 Dy -0.01843 0.4363 0.62014 0.0
C282 C 0.90175 0.41123 0.51824 0.0
O283 O 0.93517 0.5477 0.56312 0.0
O284 O 0.92283 0.48847 0.6389 0.0
O285 O 0.92134 0.52768 0.40903 0.0
O286 O -0.00404 0.54566 0.41288 0.0
O287 O 0.01645 0.50671 0.63773 0.0
O288 O 0.03493 0.52336 0.5343 0.0
O289 O 0.03746 0.41242 0.55227 0.0
O290 O -0.00101 0.43253 0.45787 0.0
O291 O 0.02717 0.40782 0.69554 0.0
O292 O 0.952 0.39095 0.693 0.0
C293 C 0.9155 0.53218 0.61566 0.0
O294 O 0.90192 0.45674 0.50081 0.0
O295 O 0.93755 0.39353 0.55155 0.0
C296 C 0.96128 0.52887 0.31161 0.0
C297 C 0.96771 0.49647 0.18467 0.0
C298 C -0.00592 0.47364 0.23368 0.0
C299 C -0.00921 0.48961 0.29674 0.0
C300 C 0.93485 0.5516 0.26257 0.0
C301 C 0.93802 0.5355 0.19946 0.0
C302 C 0.95695 0.54534 0.37816 0.0
C303 C 0.04155 0.52964 0.59583 0.0
C304 C 0.0324 0.40935 0.48979 0.0
C305 C -0.01153 0.40419 0.79359 0.0
C306 C -0.01812 0.43256 0.92207 0.0
C307 C -0.02658 0.46617 0.87292 0.0
C308 C -0.02329 0.45209 0.8091 0.0
C309 C -0.00302 0.37058 0.84265 0.0
C310 C -0.00627 0.38468 0.90659 0.0
C311 C -0.00827 0.38946 0.72638 0.0
H312 H 0.01711 0.44344 0.22306 0.0
H313 H 0.01125 0.47125 0.33386 0.0
H314 H 0.91168 0.58169 0.27313 0.0
H315 H 0.91742 0.55346 0.16214 0.0
H316 H 0.96432 0.50325 0.88405 0.0
H317 H 0.97007 0.47854 0.7718 0.0
H318 H 0.00614 0.3335 0.83151 0.0
H319 H 0.00047 0.35835 0.94398 0.0
C320 C 0.0534 0.08571 0.36396 0.0
C321 C 0.06601 0.06936 0.42642 0.0
C322 C 0.13658 0.12101 0.42371 0.0
C323 C 0.12855 0.12925 0.35732 0.0
N324 N 0.08321 0.10885 0.26153 0.0
N325 N 0.12688 0.06501 0.51026 0.0
C326 C 0.08814 0.1084 0.32648 0.0
C327 C 0.10972 0.08506 0.45486 0.0
N328 N 0.00758 0.08261 0.34167 0.0
N329 N 0.16762 0.14918 0.45834 0.0
H330 H 0.10981 0.03729 0.53397 0.0
H331 H 0.16079 0.07249 0.52882 0.0
H332 H 0.18495 0.17888 0.43924 0.0
H333 H 0.17122 0.14694 0.50788 0.0
H334 H -0.00371 0.09708 0.29794 0.0
H335 H -0.02001 0.07209 0.37074 0.0
H336 H 0.05587 0.0905 0.23733 0.0
H337 H 0.10919 0.12249 0.23187 0.0
C338 C 0.05475 0.83056 0.61802 0.0
C339 C 0.06936 0.87792 0.60203 0.0
C340 C 0.14366 0.86801 0.66292 0.0
C341 C 0.12936 0.82038 0.67877 0.0
N342 N 0.06817 0.75876 0.68166 0.0
N343 N 0.13005 0.93882 0.59697 0.0
C344 C 0.08397 0.80227 0.65939 0.0
C345 C 0.11449 0.89589 0.62114 0.0
N346 N 0.01406 0.81183 0.59095 0.0
N347 N 0.18353 0.88762 0.69129 0.0
H348 H 0.10959 0.9592 0.56484 0.0
H349 H 0.16445 0.95196 0.60352 0.0
H350 H 0.20467 0.8691 0.72473 0.0
H351 H 0.19331 0.92374 0.68685 0.0
H352 H 0.0038 0.77581 0.59469 0.0
H353 H -0.00752 0.83122 0.55918 0.0
H354 H 0.03322 0.7469 0.67664 0.0
H355 H 0.08908 0.73486 0.70837 0.0
C356 C 0.31086 0.83749 0.92876 0.0
C357 C 0.31544 0.83253 0.86168 0.0
C358 C 0.38789 0.88034 0.86701 0.0
C359 C 0.37885 0.89214 0.93151 0.0
N360 N 0.32452 0.89002 1.01929 0.0
N361 N 0.35196 0.86018 0.76504 0.0
C362 C 0.33829 0.87304 0.96139 0.0
C363 C 0.3521 0.85717 0.8301 0.0
N364 N 0.28236 0.80705 0.96204 0.0
N365 N 0.43113 0.88946 0.84142 0.0
H366 H 0.32458 0.84631 0.73605 0.0
H367 H 0.37609 0.88146 0.7406 0.0
H368 H 0.45965 0.90368 0.86784 0.0
H369 H 0.44021 0.87757 0.79612 0.0
H370 H 0.28152 0.80692 1.01173 0.0
H371 H 0.2639 0.7783 0.94105 0.0
H372 H 0.29264 0.87989 0.03974 0.0
H373 H 0.34196 0.91799 0.04356 0.0
C374 C 0.34246 0.05896 0.15583 0.0
C375 C 0.37199 0.07953 0.109 0.0
C376 C 0.33752 0.15933 0.12898 0.0
C377 C 0.31216 0.13963 0.18055 0.0
N378 N 0.29479 0.07224 0.24898 0.0
N379 N 0.40349 0.15086 0.05823 0.0
C380 C 0.31596 0.08986 0.1958 0.0
C381 C 0.37096 0.13011 0.09714 0.0
N382 N 0.33811 0.00979 0.16017 0.0
N383 N 0.32915 0.20577 0.10957 0.0
H384 H 0.42911 0.13126 0.03426 0.0
H385 H 0.40807 0.18812 0.05428 0.0
H386 H 0.306 0.22873 0.13272 0.0
H387 H 0.34214 0.22025 0.06759 0.0
H388 H 0.3137 -0.0073 0.18908 0.0
H389 H 0.35549 -0.01404 0.13003 0.0
H390 H 0.30076 0.0375 0.26664 0.0
H391 H 0.27414 0.09362 0.27852 0.0
C392 C 0.85008 0.84516 0.58524 0.0
C393 C 0.87844 0.88186 0.61419 0.0
C394 C 0.84309 0.86373 0.71737 0.0
C395 C 0.81921 0.8234 0.68982 0.0
N396 N 0.81237 0.76784 0.60062 0.0
N397 N 0.9117 0.91562 0.71211 0.0
C398 C 0.82634 0.8117 0.62462 0.0
C399 C 0.87784 0.88817 0.68157 0.0
N400 N 0.84381 0.84328 0.52046 0.0
N401 N 0.83149 0.88023 0.77642 0.0
H402 H 0.93986 0.9314 0.68851 0.0
H403 H 0.91502 0.91763 0.76167 0.0
H404 H 0.80461 0.86498 0.80317 0.0
H405 H 0.84504 0.91232 0.79565 0.0
H406 H 0.81979 0.81974 0.49797 0.0
H407 H 0.85823 0.86868 0.48975 0.0
H408 H 0.82059 0.7563 0.55486 0.0
H409 H 0.79787 0.74075 0.62867 0.0
C410 C 0.86797 0.06377 0.36458 0.0
C411 C 0.87347 0.06554 0.43217 0.0
C412 C 0.82327 0.13714 0.43588 0.0
C413 C 0.81439 0.13295 0.36909 0.0
N414 N 0.81957 0.08582 0.27239 0.0
N415 N 0.8452 0.09494 0.53289 0.0
C416 C 0.83423 0.09443 0.33402 0.0
C417 C 0.84787 0.09962 0.46814 0.0
N418 N 0.89607 0.03437 0.32911 0.0
N419 N 0.80982 0.17763 0.46834 0.0
H420 H 0.86061 0.06621 0.55811 0.0
H421 H 0.82312 0.11627 0.56046 0.0
H422 H 0.79306 0.20711 0.44654 0.0
H423 H 0.81997 0.18428 0.51568 0.0
H424 H 0.89724 0.03615 0.27954 0.0
H425 H 0.92164 0.01139 0.34894 0.0
H426 H 0.82887 0.05486 0.24723 0.0
H427 H 0.79452 0.10712 0.24821 0.0
C428 C 0.64827 0.10046 0.16043 0.0
C429 C 0.63052 0.1446 0.18464 0.0
C430 C 0.55141 0.12544 0.14231 0.0
C431 C 0.57012 0.0839 0.11215 0.0
N432 N 0.63818 0.03646 0.08265 0.0
N433 N 0.56815 0.20464 0.18533 0.0
C434 C 0.61916 0.07268 0.11831 0.0
C435 C 0.58296 0.15881 0.17168 0.0
N436 N 0.69217 0.08418 0.17959 0.0
N437 N 0.50349 0.13181 0.14631 0.0
H438 H 0.59053 0.23067 0.20546 0.0
H439 H 0.53516 0.21821 0.17049 0.0
H440 H 0.47896 0.10688 0.1285 0.0
H441 H 0.48824 0.15905 0.17345 0.0
H442 H 0.7049 0.04986 0.16862 0.0
H443 H 0.71412 0.10317 0.21155 0.0
H444 H 0.67455 0.0301 0.08034 0.0
H445 H 0.61799 0.01562 0.05069 0.0
C446 C 0.58159 0.81477 0.88177 0.0
C447 C 0.62769 0.83076 0.86554 0.0
C448 C 0.61183 0.91063 0.91197 0.0
C449 C 0.56703 0.89351 0.93236 0.0
N450 N 0.5099 0.82871 0.94072 0.0
N451 N 0.68811 0.89252 0.86588 0.0
C452 C 0.55211 0.8454 0.9184 0.0
C453 C 0.64313 0.87838 0.88077 0.0
N454 N 0.56566 0.77047 0.86141 0.0
N455 N 0.62434 0.95791 0.92208 0.0
H456 H 0.71051 0.87173 0.838 0.0
H457 H 0.70432 0.92395 0.88291 0.0
H458 H 0.6044 -0.01817 0.94887 0.0
H459 H 0.65337 0.97455 0.90162 0.0
H460 H 0.53064 0.75891 0.86442 0.0
H461 H 0.58675 0.74574 0.83765 0.0
H462 H 0.49991 0.79247 0.94025 0.0
H463 H 0.48525 0.85064 0.96297 0.0
C464 C 0.60414 0.5543 0.9079 0.0
C465 C 0.57509 0.57452 0.9556 0.0
C466 C 0.61112 0.65392 0.93762 0.0
C467 C 0.6355 0.63479 0.88485 0.0
N468 N 0.64885 0.56867 0.8125 0.0
N469 N 0.54316 0.64644 1.00479 0.0
C470 C 0.62997 0.58554 0.86763 0.0
C471 C 0.57659 0.62509 0.96789 0.0
N472 N 0.60865 0.50521 0.90274 0.0
N473 N 0.62075 0.69968 0.95896 0.0
H474 H 0.51558 0.62751 1.02553 0.0
H475 H 0.53967 0.68382 1.00916 0.0
H476 H 0.64437 0.72278 0.93668 0.0
H477 H 0.608 0.7133 1.00162 0.0
H478 H 0.63274 0.48861 0.87283 0.0
H479 H 0.59209 0.48108 0.93328 0.0
H480 H 0.64182 0.53425 0.7943 0.0
H481 H 0.66795 0.59062 0.7819 0.0
C482 C 0.63559 0.33779 0.13309 0.0
C483 C 0.63307 0.33497 0.20054 0.0
C484 C 0.55973 0.38125 0.19693 0.0
C485 C 0.56655 0.39097 0.13123 0.0
N486 N 0.61828 0.38707 0.04061 0.0
N487 N 0.59887 0.3642 0.2979 0.0
C488 C 0.60649 0.37164 0.10007 0.0
C489 C 0.59692 0.35966 0.23296 0.0
N490 N 0.66398 0.30701 0.10009 0.0
N491 N 0.51738 0.39109 0.22468 0.0
H492 H 0.62711 0.35112 0.32603 0.0
H493 H 0.57528 0.38579 0.32281 0.0
H494 H 0.488 0.40481 0.19953 0.0
H495 H 0.50984 0.38049 0.27106 0.0
H496 H 0.66338 0.30517 0.0504 0.0
H497 H 0.68404 0.2797 0.12185 0.0
H498 H 0.6497 0.37686 1.01901 0.0
H499 H 0.59977 0.41403 1.01583 0.0
C500 C 0.87533 0.32843 0.48128 0.0
C501 C 0.86569 0.37851 0.4878 0.0
C502 C 0.80453 0.37319 0.40313 0.0
C503 C 0.81873 0.32494 0.39149 0.0
N504 N 0.87306 0.25881 0.41175 0.0
N505 N 0.80661 0.44108 0.47585 0.0
C506 C 0.85586 0.30321 0.42809 0.0
C507 C 0.82601 0.39894 0.4546 0.0
N508 N 0.89868 0.30382 0.52902 0.0
N509 N 0.77198 0.39496 0.36303 0.0
H510 H 0.81856 0.45777 0.51776 0.0
H511 H 0.77526 0.45597 0.45734 0.0
H512 H 0.75643 0.37725 0.32381 0.0
H513 H 0.76376 0.43165 0.36475 0.0
H514 H 0.90368 0.26647 0.52848 0.0
H515 H 0.90578 0.31912 0.57367 0.0
H516 H 0.90346 0.24376 0.43299 0.0
H517 H 0.85966 0.23893 0.37314 0.0
C518 C 0.81004 0.5826 0.70491 0.0
C519 C 0.82463 0.6312 0.71416 0.0
C520 C 0.90188 0.61205 0.6694 0.0
C521 C 0.8846 0.56563 0.65131 0.0
N522 N 0.81945 0.50863 0.6452 0.0
N523 N 0.88246 0.69432 0.69811 0.0
C524 C 0.83796 0.55128 0.66749 0.0
C525 C 0.87008 0.64657 0.69462 0.0
N526 N 0.77037 0.56585 0.73398 0.0
N527 N 0.94916 0.62241 0.6656 0.0
H528 H 0.8606 0.72074 0.71713 0.0
H529 H 0.91276 0.70831 0.67736 0.0
H530 H -0.02602 0.59713 0.65082 0.0
H531 H 0.96451 0.65399 0.68377 0.0
H532 H 0.76053 0.52952 0.73429 0.0
H533 H 0.75013 0.58745 0.76367 0.0
H534 H 0.78382 0.49924 0.6492 0.0
H535 H 0.83851 0.48429 0.61797 0.0
C536 C 0.29664 0.37654 0.17485 0.0
C537 C 0.31388 0.33293 0.20269 0.0
C538 C 0.39201 0.3467 0.15624 0.0
C539 C 0.37571 0.39181 0.1317 0.0
N540 N 0.31373 0.45156 0.11997 0.0
N541 N 0.37964 0.27992 0.22875 0.0
C542 C 0.32839 0.40735 0.14204 0.0
C543 C 0.36211 0.31912 0.19615 0.0
N544 N 0.24951 0.38793 0.17868 0.0
N545 N 0.43574 0.32957 0.14039 0.0
H546 H 0.35897 0.25818 0.25748 0.0
H547 H 0.41556 0.27113 0.23191 0.0
H548 H 0.45971 0.3492 0.11367 0.0
H549 H 0.44722 0.29443 0.14972 0.0
H550 H 0.23305 0.4157 0.15299 0.0
H551 H 0.22585 0.36799 0.20568 0.0
H552 H 0.28221 0.46817 0.13275 0.0
H553 H 0.33417 0.47282 0.09025 0.0
C554 C 0.40091 0.6116 0.89759 0.0
C555 C 0.3811 0.58383 0.94724 0.0
C556 C 0.30113 0.60496 0.91046 0.0
C557 C 0.32087 0.63551 0.86372 0.0
N558 N 0.38915 0.67524 0.81976 0.0
N559 N 0.31407 0.56312 1.01065 0.0
C560 C 0.37068 0.64074 0.85879 0.0
C561 C 0.33162 0.58305 0.95647 0.0
N562 N 0.44844 0.60949 0.88665 0.0
N563 N 0.25333 0.59624 0.90998 0.0
H564 H 0.33617 0.54912 0.04675 0.0
H565 H 0.27855 0.56535 1.02302 0.0
H566 H 0.22986 0.61142 0.87633 0.0
H567 H 0.23754 0.57063 0.93907 0.0
H568 H 0.46388 0.62342 0.84593 0.0
H569 H 0.47222 0.59157 0.9169 0.0
H570 H 0.42494 0.68477 0.82047 0.0
H571 H 0.3684 0.69714 0.78981 0.0
C572 C 0.11236 0.64434 0.62517 0.0
C573 C 0.1407 0.62965 0.67883 0.0
C574 C 0.11213 0.54667 0.66571 0.0
C575 C 0.07825 0.56329 0.61964 0.0
N576 N 0.04129 0.62951 0.56161 0.0
N577 N 0.16829 0.56684 0.7508 0.0
C578 C 0.07731 0.6124 0.60035 0.0
C579 C 0.14061 0.58081 0.69956 0.0
N580 N 0.1188 0.68852 0.59735 0.0
N581 N 0.11863 0.49807 0.67471 0.0
H582 H 0.19329 0.58945 0.77297 0.0
H583 H 0.16498 0.53344 0.77321 0.0
H584 H 0.09988 0.47199 0.64839 0.0
H585 H 0.14578 0.48345 0.70324 0.0
H586 H 0.10322 0.69801 0.55352 0.0
H587 H 0.142 0.71476 0.61523 0.0
H588 H 0.03571 0.66624 0.55308 0.0
H589 H 0.01415 0.60784 0.54276 0.0
C590 C 0.09052 0.29904 0.41648 0.0
C591 C 0.1235 0.32154 0.37544 0.0
C592 C 0.09942 0.40151 0.4144 0.0
C593 C 0.06518 0.37893 0.45309 0.0
N594 N 0.02295 0.30761 0.4852 0.0
N595 N 0.15716 0.3939 0.33083 0.0
C596 C 0.0595 0.32805 0.45287 0.0
C597 C 0.12707 0.37277 0.3728 0.0
N598 N 0.08891 0.24974 0.42085 0.0
N599 N 0.10673 0.45032 0.41951 0.0
H600 H 0.18062 0.37427 0.30324 0.0
H601 H 0.15739 0.43072 0.32059 0.0
H602 H 0.08716 0.47241 0.44945 0.0
H603 H 0.13421 0.46878 0.39794 0.0
H604 H 0.07109 0.23113 0.45617 0.0
H605 H 0.10715 0.22707 0.39047 0.0
H606 H 0.01274 0.27157 0.48054 0.0
H607 H 0.00042 0.32749 0.51392 0.0
C608 C 0.009 -0.01406 0.99174 0.0
C609 C 0.9666 -0.01134 0.95386 0.0
C610 C 0.92054 0.9628 0.04573 0.0
C611 C 0.9634 0.95535 0.08151 0.0
N612 N 0.049 0.95044 0.08396 0.0
N613 N 0.88308 0.97065 0.94092 0.0
C614 C 0.00785 0.96427 0.05318 0.0
C615 C 0.9226 0.97452 0.97975 0.0
N616 N 0.05011 0.00551 0.96995 0.0
N617 N 0.87786 0.96047 0.07522 0.0
H618 H 0.88326 0.97837 0.89223 0.0
H619 H 0.8513 0.95556 0.95569 0.0
H620 H 0.87483 0.95273 0.12363 0.0
H621 H 0.84585 0.97057 0.05311 0.0
H622 H 0.08084 0.00917 0.99822 0.0
H623 H 0.05231 0.0223 0.92558 0.0
H624 H 0.08204 0.95143 0.06276 0.0
H625 H 0.04967 0.93354 0.12844 0.0
C626 C 0.26099 0.7782 0.2988 0.0
C627 C 0.25588 0.73652 0.33763 0.0
C628 C 0.21579 0.69393 0.24866 0.0
C629 C 0.22386 0.73436 0.20865 0.0
N630 N 0.26041 0.81201 0.19189 0.0
N631 N 0.23591 0.65206 0.34735 0.0
C632 C 0.24831 0.77569 0.23267 0.0
C633 C 0.23536 0.69359 0.31191 0.0
N634 N 0.27647 0.82064 0.32564 0.0
N635 N 0.18823 0.65642 0.22675 0.0
H636 H 0.24983 0.65042 0.39387 0.0
H637 H 0.22628 0.61834 0.32907 0.0
H638 H 0.1739 0.655 0.18043 0.0
H639 H 0.17647 0.62852 0.25571 0.0
H640 H 0.27603 0.85362 0.30166 0.0
H641 H 0.28644 0.82376 0.37371 0.0
H642 H 0.28274 0.84058 0.20482 0.0
H643 H 0.25114 0.8117 0.1434 0.0
C644 C 0.51249 -0.0101 0.56546 0.0
C645 C 0.47233 0.01545 0.58751 0.0
C646 C 0.43531 0.0114 0.48023 0.0
C647 C 0.47355 -0.01779 0.45984 0.0
N648 N 0.54576 0.93843 0.48407 0.0
N649 N 0.39279 0.04545 0.56903 0.0
C650 C 0.51139 0.96999 0.50279 0.0
C651 C 0.43301 0.02498 0.54566 0.0
N652 N 0.5523 -0.01393 0.60382 0.0
N653 N 0.40169 0.02688 0.4367 0.0
H654 H 0.38988 0.05616 0.61649 0.0
H655 H 0.36104 0.04858 0.54288 0.0
H656 H 0.40156 0.01664 0.3888 0.0
H657 H 0.37595 0.05262 0.44676 0.0
H658 H 0.58453 0.97255 0.58835 0.0
H659 H 0.55443 0.00016 0.64997 0.0
H660 H 0.57119 0.92359 0.51517 0.0
H661 H 0.54687 0.92414 0.43807 0.0
C662 C 0.19844 0.17935 0.80851 0.0
C663 C 0.19934 0.22416 0.84171 0.0
C664 C 0.23569 0.26332 0.74976 0.0
C665 C 0.23116 0.21952 0.71469 0.0
N666 N 0.2017 0.13781 0.70664 0.0
N667 N 0.21157 0.31047 0.84106 0.0
C668 C 0.21074 0.17801 0.74299 0.0
C669 C 0.21596 0.26665 0.81149 0.0
N670 N 0.18709 0.13785 0.84015 0.0
N671 N 0.26021 0.3013 0.72485 0.0
H672 H 0.19764 0.31433 0.88643 0.0
H673 H 0.21799 0.34338 0.81873 0.0
H674 H 0.27511 0.3003 0.67981 0.0
H675 H 0.26929 0.33225 0.75071 0.0
H676 H 0.19086 0.1034 0.82084 0.0
H677 H 0.17735 0.13752 0.88783 0.0
H678 H 0.18218 0.10834 0.72237 0.0
H679 H 0.21046 0.1354 0.65869 0.0
C680 C 0.70969 0.28571 0.82578 0.0
C681 C 0.74103 0.24943 0.84969 0.0
C682 C 0.73782 0.20816 0.74592 0.0
C683 C 0.7091 0.2462 0.72076 0.0
N684 N 0.67363 0.32492 0.73302 0.0
N685 N 0.79077 0.18012 0.83122 0.0
C686 C 0.69665 0.28606 0.75971 0.0
C687 C 0.75683 0.2118 0.80929 0.0
N688 N 0.69148 0.31912 0.86664 0.0
N689 N 0.74552 0.16776 0.70992 0.0
H690 H 0.80477 0.18104 0.87774 0.0
H691 H 0.80775 0.15529 0.80221 0.0
H692 H 0.73245 0.16386 0.66322 0.0
H693 H 0.76165 0.13651 0.72772 0.0
H694 H 0.66435 0.34307 0.85389 0.0
H695 H 0.70109 0.3207 0.91498 0.0
H696 H 0.66805 0.35731 0.75705 0.0
H697 H 0.6633 0.32633 0.68493 0.0
C698 C 0.72467 0.77321 0.32861 0.0
C699 C 0.71338 0.72711 0.35395 0.0
C700 C 0.73861 0.68833 0.25502 0.0
C701 C 0.7454 0.73467 0.22749 0.0
N702 N 0.73883 0.82148 0.23434 0.0
N703 N 0.70319 0.64121 0.33906 0.0
C704 C 0.73685 0.77724 0.26332 0.0
C705 C 0.71865 0.68472 0.31654 0.0
N706 N 0.72508 0.81294 0.36749 0.0
N707 N 0.75256 0.64781 0.22308 0.0
H708 H 0.68878 0.63705 0.38409 0.0
H709 H 0.70109 0.60996 0.31138 0.0
H710 H 0.76721 0.649 0.1779 0.0
H711 H 0.75342 0.61344 0.24337 0.0
H712 H 0.73802 0.84657 0.35386 0.0
H713 H 0.71612 0.81144 0.41544 0.0
H714 H 0.7278 0.85343 0.25574 0.0
H715 H 0.748 0.82591 0.1868 0.0
C716 C 0.42477 0.47293 0.56356 0.0
C717 C 0.4653 0.47937 0.60434 0.0
C718 C 0.50597 0.52221 0.51869 0.0
C719 C 0.46712 0.51197 0.47639 0.0
N720 N 0.39211 0.47239 0.45532 0.0
N721 N 0.54696 0.50404 0.61902 0.0
C722 C 0.42718 0.48588 0.49797 0.0
C723 C 0.50658 0.50249 0.58148 0.0
N724 N 0.38348 0.45581 0.58808 0.0
N725 N 0.54182 0.55164 0.49915 0.0
H726 H 0.54875 0.49021 0.6653 0.0
H727 H 0.57973 0.51552 0.60282 0.0
H728 H 0.543 0.56595 0.45318 0.0
H729 H 0.56845 0.56498 0.52967 0.0
H730 H 0.35125 0.45517 0.56271 0.0
H731 H 0.38042 0.44581 0.63577 0.0
H732 H 0.36485 0.4486 0.46631 0.0
H733 H 0.39209 0.48215 0.40726 0.0
C734 C 0.0159 0.47564 1.01843 0.0
C735 C -0.02135 0.44787 0.98992 0.0
C736 C 0.9363 0.44827 0.09093 0.0
C737 C 0.97148 0.47959 0.11757 0.0
N738 N 0.04144 0.52858 0.10502 0.0
N739 N 0.90048 0.41275 0.99539 0.0
C740 C 0.01042 0.49479 0.08084 0.0
C741 C 0.93804 0.43544 1.02524 0.0
N742 N 0.05713 0.48245 0.98651 0.0
N743 N 0.90192 0.42983 0.12892 0.0
H744 H 0.90063 0.40239 0.94755 0.0
H745 H 0.86781 0.40737 1.01642 0.0
H746 H 0.89909 0.43905 0.17693 0.0
H747 H 0.87843 0.40266 0.11442 0.0
H748 H 0.08757 0.49775 1.0072 0.0
H749 H 0.06237 0.46913 0.94065 0.0
H750 H 0.06737 0.54527 0.07816 0.0
H751 H 0.03901 0.54288 0.15088 0.0
loop_
_geom_bond_atom_site_label_1
_geom_bond_atom_site_label_2
_geom_bond_distance
_geom_bond_site_symmetry_2
_ccdc_geom_bond_type
Dy0 O3 2.307 . S
Dy0 O5 2.395 . S
Dy0 O6 2.379 1_455 S
Dy0 O8 2.339 1_455 S
Dy0 O10 2.298 1_445 S
Dy0 O14 2.275 1_545 S
Dy0 C22 2.738 1_455 S
Dy1 O4 2.298 1_665 S
Dy1 O7 2.275 1_565 S
Dy1 O9 2.307 . S
Dy1 O11 2.395 . S
Dy1 O12 2.379 1_655 S
Dy1 O15 2.339 1_655 S
Dy1 C31 2.738 1_655 S
C2 O14 1.254 . S
C2 O15 1.257 . S
O3 Dy0 2.307 . S
O3 C13 1.266 . S
O4 Dy1 2.298 1_445 S
O4 C13 1.236 . S
O5 Dy0 2.395 . S
O5 C22 1.255 1_455 S
O6 Dy0 2.379 1_655 S
O6 C22 1.249 . S
O7 Dy1 2.275 1_545 S
O7 C23 1.254 . S
O8 Dy0 2.339 1_655 S
O8 C23 1.257 . S
O9 Dy1 2.307 . S
O9 C24 1.266 . S
O10 Dy0 2.298 1_665 S
O10 C24 1.236 . S
O11 Dy1 2.395 . S
O11 C31 1.255 1_655 S
O12 Dy1 2.379 1_455 S
O12 C31 1.249 . S
C13 O3 1.266 . S
C13 O4 1.236 . S
O14 Dy0 2.275 1_565 S
O14 C2 1.254 . S
O15 Dy1 2.339 1_455 S
O15 C2 1.257 . S
C16 C19 1.344 . S
C16 C20 1.328 . S
C16 C22 1.516 . S
C17 C18 1.304 . S
C17 C21 1.323 . S
C18 C17 1.304 . S
C18 C19 1.371 . S
C18 H32 0.930 1_645 S
C19 C16 1.344 . S
C19 C18 1.371 . S
C19 H33 0.931 1_645 S
C20 C16 1.328 . S
C20 C21 1.433 . S
C20 H34 0.931 . S
C21 C17 1.323 . S
C21 C20 1.433 . S
C21 H35 0.933 . S
C22 Dy0 2.738 1_655 S
C22 O5 1.255 1_655 S
C22 O6 1.249 . S
C22 C16 1.516 . S
C23 O7 1.254 . S
C23 O8 1.257 . S
C24 O9 1.266 . S
C24 O10 1.236 . S
C25 C28 1.344 . S
C25 C29 1.328 . S
C25 C31 1.516 . S
C26 C27 1.304 . S
C26 C30 1.323 . S
C27 C26 1.304 . S
C27 C28 1.371 . S
C27 H36 0.930 1_465 S
C28 C25 1.344 . S
C28 C27 1.371 . S
C28 H37 0.931 1_465 S
C29 C25 1.328 . S
C29 C30 1.433 . S
C29 H38 0.931 . S
C30 C26 1.323 . S
C30 C29 1.433 . S
C30 H39 0.933 . S
C31 Dy1 2.738 1_455 S
C31 O11 1.255 1_455 S
C31 O12 1.249 . S
C31 C25 1.516 . S
H32 C18 0.930 1_465 S
H33 C19 0.931 1_465 S
H34 C20 0.931 . S
H35 C21 0.933 . S
H36 C27 0.930 1_645 S
H37 C28 0.931 1_645 S
H38 C29 0.931 . S
H39 C30 0.933 . S
Dy40 O43 2.307 . S
Dy40 O45 2.395 . S
Dy40 O46 2.379 . S
Dy40 O48 2.339 . S
Dy40 O50 2.298 . S
Dy40 O54 2.275 . S
Dy40 C62 2.738 . S
Dy41 O44 2.298 . S
Dy41 O47 2.275 . S
Dy41 O49 2.307 . S
Dy41 O51 2.395 . S
Dy41 O52 2.379 . S
Dy41 O55 2.339 . S
Dy41 C71 2.738 . S
C42 O54 1.254 . S
C42 O55 1.257 . S
O43 Dy40 2.307 . S
O43 C53 1.266 . S
O44 Dy41 2.298 . S
O44 C53 1.236 . S
O45 Dy40 2.395 . S
O45 C62 1.255 . S
O46 Dy40 2.379 . S
O46 C62 1.249 . S
O47 Dy41 2.275 . S
O47 C63 1.254 . S
O48 Dy40 2.339 . S
O48 C63 1.257 . S
O49 Dy41 2.307 . S
O49 C64 1.266 . S
O50 Dy40 2.298 . S
O50 C64 1.236 . S
O51 Dy41 2.395 . S
O51 C71 1.255 . S
O52 Dy41 2.379 . S
O52 C71 1.249 . S
C53 O43 1.266 . S
C53 O44 1.236 . S
O54 Dy40 2.275 . S
O54 C42 1.254 . S
O55 Dy41 2.339 . S
O55 C42 1.257 . S
C56 C59 1.344 . S
C56 C60 1.328 . S
C56 C62 1.516 . S
C57 C58 1.304 . S
C57 C61 1.323 . S
C58 C57 1.304 . S
C58 C59 1.371 . S
C58 H72 0.930 . S
C59 C56 1.344 . S
C59 C58 1.371 . S
C59 H73 0.931 . S
C60 C56 1.328 . S
C60 C61 1.433 . S
C60 H74 0.931 . S
C61 C57 1.323 . S
C61 C60 1.433 . S
C61 H75 0.933 . S
C62 Dy40 2.738 . S
C62 O45 1.255 . S
C62 O46 1.249 . S
C62 C56 1.516 . S
C63 O47 1.254 . S
C63 O48 1.257 . S
C64 O49 1.266 . S
C64 O50 1.236 . S
C65 C68 1.344 . S
C65 C69 1.328 . S
C65 C71 1.516 1_554 S
C66 C67 1.304 . S
C66 C70 1.323 . S
C67 C66 1.304 . S
C67 C68 1.371 . S
C67 H76 0.930 . S
C68 C65 1.344 . S
C68 C67 1.371 . S
C68 H77 0.931 . S
C69 C65 1.328 . S
C69 C70 1.433 . S
C69 H78 0.931 . S
C70 C66 1.323 . S
C70 C69 1.433 . S
C70 H79 0.933 . S
C71 Dy41 2.738 . S
C71 O51 1.255 . S
C71 O52 1.249 . S
C71 C65 1.516 1_556 S
H72 C58 0.930 . S
H73 C59 0.931 . S
H74 C60 0.931 . S
H75 C61 0.933 . S
H76 C67 0.930 . S
H77 C68 0.931 . S
H78 C69 0.931 . S
H79 C70 0.933 . S
Dy80 O83 2.307 1_556 S
Dy80 O85 2.395 . S
Dy80 O86 2.379 . S
Dy80 O88 2.339 . S
Dy80 O90 2.298 1_545 S
Dy80 O94 2.275 1_545 S
Dy80 C102 2.738 . S
Dy81 O84 2.298 1_565 S
Dy81 O87 2.275 1_565 S
Dy81 O89 2.307 1_554 S
Dy81 O91 2.395 . S
Dy81 O92 2.379 . S
Dy81 O95 2.339 . S
Dy81 C111 2.738 . S
C82 O94 1.254 . S
C82 O95 1.257 1_556 S
O83 Dy80 2.307 1_554 S
O83 C93 1.266 . S
O84 Dy81 2.298 1_545 S
O84 C93 1.236 . S
O85 Dy80 2.395 . S
O85 C102 1.255 . S
O86 Dy80 2.379 . S
O86 C102 1.249 . S
O87 Dy81 2.275 1_545 S
O87 C103 1.254 . S
O88 Dy80 2.339 . S
O88 C103 1.257 1_556 S
O89 Dy81 2.307 1_556 S
O89 C104 1.266 . S
O90 Dy80 2.298 1_565 S
O90 C104 1.236 . S
O91 Dy81 2.395 . S
O91 C111 1.255 . S
O92 Dy81 2.379 . S
O92 C111 1.249 . S
C93 O83 1.266 . S
C93 O84 1.236 . S
O94 Dy80 2.275 1_565 S
O94 C82 1.254 . S
O95 Dy81 2.339 . S
O95 C82 1.257 1_554 S
C96 C99 1.344 . S
C96 C100 1.328 . S
C96 C102 1.516 . S
C97 C98 1.304 . S
C97 C101 1.323 . S
C98 C97 1.304 . S
C98 C99 1.371 . S
C98 H112 0.930 1_545 S
C99 C96 1.344 . S
C99 C98 1.371 . S
C99 H113 0.931 1_545 S
C100 C96 1.328 . S
C100 C101 1.433 . S
C100 H114 0.931 . S
C101 C97 1.323 . S
C101 C100 1.433 . S
C101 H115 0.933 . S
C102 Dy80 2.738 . S
C102 O85 1.255 . S
C102 O86 1.249 . S
C102 C96 1.516 . S
C103 O87 1.254 . S
C103 O88 1.257 1_554 S
C104 O89 1.266 . S
C104 O90 1.236 . S
C105 C108 1.344 . S
C105 C109 1.328 . S
C105 C111 1.516 . S
C106 C107 1.304 . S
C106 C110 1.323 . S
C107 C106 1.304 . S
C107 C108 1.371 . S
C107 H116 0.930 1_565 S
C108 C105 1.344 . S
C108 C107 1.371 . S
C108 H117 0.931 1_565 S
C109 C105 1.328 . S
C109 C110 1.433 . S
C109 H118 0.931 . S
C110 C106 1.323 . S
C110 C109 1.433 . S
C110 H119 0.933 . S
C111 Dy81 2.738 . S
C111 O91 1.255 . S
C111 O92 1.249 . S
C111 C105 1.516 . S
H112 C98 0.930 1_565 S
H113 C99 0.931 1_565 S
H114 C100 0.931 . S
H115 C101 0.933 . S
H116 C107 0.930 1_545 S
H117 C108 0.931 1_545 S
H118 C109 0.931 . S
H119 C110 0.933 . S
Dy120 O123 2.307 . S
Dy120 O125 2.395 . S
Dy120 O126 2.379 . S
Dy120 O128 2.339 . S
Dy120 O130 2.298 . S
Dy120 O134 2.275 . S
Dy120 C142 2.738 . S
Dy121 O124 2.298 . S
Dy121 O127 2.275 . S
Dy121 O129 2.307 . S
Dy121 O131 2.395 . S
Dy121 O132 2.379 . S
Dy121 O135 2.339 . S
Dy121 C151 2.738 . S
C122 O134 1.254 . S
C122 O135 1.257 . S
O123 Dy120 2.307 . S
O123 C133 1.266 . S
O124 Dy121 2.298 . S
O124 C133 1.236 . S
O125 Dy120 2.395 . S
O125 C142 1.255 . S
O126 Dy120 2.379 . S
O126 C142 1.249 . S
O127 Dy121 2.275 . S
O127 C143 1.254 . S
O128 Dy120 2.339 . S
O128 C143 1.257 . S
O129 Dy121 2.307 . S
O129 C144 1.266 . S
O130 Dy120 2.298 . S
O130 C144 1.236 . S
O131 Dy121 2.395 . S
O131 C151 1.255 . S
O132 Dy121 2.379 . S
O132 C151 1.249 . S
C133 O123 1.266 . S
C133 O124 1.236 . S
O134 Dy120 2.275 . S
O134 C122 1.254 . S
O135 Dy121 2.339 . S
O135 C122 1.257 . S
C136 C139 1.344 . S
C136 C140 1.328 . S
C136 C142 1.516 1_556 S
C137 C138 1.304 . S
C137 C141 1.323 . S
C138 C137 1.304 . S
C138 C139 1.371 . S
C138 H152 0.930 . S
C139 C136 1.344 . S
C139 C138 1.371 . S
C139 H153 0.931 . S
C140 C136 1.328 . S
C140 C141 1.433 . S
C140 H154 0.931 . S
C141 C137 1.323 . S
C141 C140 1.433 . S
C141 H155 0.933 . S
C142 Dy120 2.738 . S
C142 O125 1.255 . S
C142 O126 1.249 . S
C142 C136 1.516 1_554 S
C143 O127 1.254 . S
C143 O128 1.257 . S
C144 O129 1.266 . S
C144 O130 1.236 . S
C145 C148 1.344 . S
C145 C149 1.328 . S
C145 C151 1.516 . S
C146 C147 1.304 . S
C146 C150 1.323 . S
C147 C146 1.304 . S
C147 C148 1.371 . S
C147 H156 0.930 . S
C148 C145 1.344 . S
C148 C147 1.371 . S
C148 H157 0.931 . S
C149 C145 1.328 . S
C149 C150 1.433 . S
C149 H158 0.931 . S
C150 C146 1.323 . S
C150 C149 1.433 . S
C150 H159 0.933 . S
C151 Dy121 2.738 . S
C151 O131 1.255 . S
C151 O132 1.249 . S
C151 C145 1.516 . S
H152 C138 0.930 . S
H153 C139 0.931 . S
H154 C140 0.931 . S
H155 C141 0.933 . S
H156 C147 0.930 . S
H157 C148 0.931 . S
H158 C149 0.931 . S
H159 C150 0.933 . S
Dy160 O163 2.307 . S
Dy160 O165 2.395 . S
Dy160 O166 2.379 . S
Dy160 O168 2.339 . S
Dy160 O170 2.298 . S
Dy160 O174 2.275 . S
Dy160 C182 2.738 . S
Dy161 O164 2.298 . S
Dy161 O167 2.275 . S
Dy161 O169 2.307 . S
Dy161 O171 2.395 . S
Dy161 O172 2.379 . S
Dy161 O175 2.339 . S
Dy161 C191 2.738 . S
C162 O174 1.254 . S
C162 O175 1.257 . S
O163 Dy160 2.307 . S
O163 C173 1.266 . S
O164 Dy161 2.298 . S
O164 C173 1.236 . S
O165 Dy160 2.395 . S
O165 C182 1.255 . S
O166 Dy160 2.379 . S
O166 C182 1.249 . S
O167 Dy161 2.275 . S
O167 C183 1.254 . S
O168 Dy160 2.339 . S
O168 C183 1.257 . S
O169 Dy161 2.307 . S
O169 C184 1.266 . S
O170 Dy160 2.298 . S
O170 C184 1.236 . S
O171 Dy161 2.395 . S
O171 C191 1.255 . S
O172 Dy161 2.379 . S
O172 C191 1.249 . S
C173 O163 1.266 . S
C173 O164 1.236 . S
O174 Dy160 2.275 . S
O174 C162 1.254 . S
O175 Dy161 2.339 . S
O175 C162 1.257 . S
C176 C179 1.344 . S
C176 C180 1.328 . S
C176 C182 1.516 1_556 S
C177 C178 1.304 . S
C177 C181 1.323 . S
C178 C177 1.304 . S
C178 C179 1.371 . S
C178 H192 0.930 . S
C179 C176 1.344 . S
C179 C178 1.371 . S
C179 H193 0.931 . S
C180 C176 1.328 . S
C180 C181 1.433 . S
C180 H194 0.931 . S
C181 C177 1.323 . S
C181 C180 1.433 . S
C181 H195 0.933 . S
C182 Dy160 2.738 . S
C182 O165 1.255 . S
C182 O166 1.249 . S
C182 C176 1.516 1_554 S
C183 O167 1.254 . S
C183 O168 1.257 . S
C184 O169 1.266 . S
C184 O170 1.236 . S
C185 C188 1.344 . S
C185 C189 1.328 . S
C185 C191 1.516 . S
C186 C187 1.304 . S
C186 C190 1.323 . S
C187 C186 1.304 . S
C187 C188 1.371 . S
C187 H196 0.930 . S
C188 C185 1.344 . S
C188 C187 1.371 . S
C188 H197 0.931 . S
C189 C185 1.328 . S
C189 C190 1.433 . S
C189 H198 0.931 . S
C190 C186 1.323 . S
C190 C189 1.433 . S
C190 H199 0.933 . S
C191 Dy161 2.738 . S
C191 O171 1.255 . S
C191 O172 1.249 . S
C191 C185 1.516 . S
H192 C178 0.930 . S
H193 C179 0.931 . S
H194 C180 0.931 . S
H195 C181 0.933 . S
H196 C187 0.930 . S
H197 C188 0.931 . S
H198 C189 0.931 . S
H199 C190 0.933 . S
Dy200 O203 2.307 . S
Dy200 O205 2.395 . S
Dy200 O206 2.379 . S
Dy200 O208 2.339 . S
Dy200 O210 2.298 . S
Dy200 O214 2.275 . S
Dy200 C222 2.738 . S
Dy201 O204 2.298 . S
Dy201 O207 2.275 . S
Dy201 O209 2.307 . S
Dy201 O211 2.395 . S
Dy201 O212 2.379 . S
Dy201 O215 2.339 . S
Dy201 C231 2.738 . S
C202 O214 1.254 . S
C202 O215 1.257 . S
O203 Dy200 2.307 . S
O203 C213 1.266 . S
O204 Dy201 2.298 . S
O204 C213 1.236 . S
O205 Dy200 2.395 . S
O205 C222 1.255 . S
O206 Dy200 2.379 . S
O206 C222 1.249 . S
O207 Dy201 2.275 . S
O207 C223 1.254 . S
O208 Dy200 2.339 . S
O208 C223 1.257 . S
O209 Dy201 2.307 . S
O209 C224 1.266 . S
O210 Dy200 2.298 . S
O210 C224 1.236 . S
O211 Dy201 2.395 . S
O211 C231 1.255 . S
O212 Dy201 2.379 . S
O212 C231 1.249 . S
C213 O203 1.266 . S
C213 O204 1.236 . S
O214 Dy200 2.275 . S
O214 C202 1.254 . S
O215 Dy201 2.339 . S
O215 C202 1.257 . S
C216 C219 1.344 . S
C216 C220 1.328 . S
C216 C222 1.516 . S
C217 C218 1.304 . S
C217 C221 1.323 . S
C218 C217 1.304 . S
C218 C219 1.371 . S
C218 H232 0.930 . S
C219 C216 1.344 . S
C219 C218 1.371 . S
C219 H233 0.931 . S
C220 C216 1.328 . S
C220 C221 1.433 . S
C220 H234 0.931 . S
C221 C217 1.323 . S
C221 C220 1.433 . S
C221 H235 0.933 . S
C222 Dy200 2.738 . S
C222 O205 1.255 . S
C222 O206 1.249 . S
C222 C216 1.516 . S
C223 O207 1.254 . S
C223 O208 1.257 . S
C224 O209 1.266 . S
C224 O210 1.236 . S
C225 C228 1.344 . S
C225 C229 1.328 . S
C225 C231 1.516 1_554 S
C226 C227 1.304 . S
C226 C230 1.323 . S
C227 C226 1.304 . S
C227 C228 1.371 . S
C227 H236 0.930 . S
C228 C225 1.344 . S
C228 C227 1.371 . S
C228 H237 0.931 . S
C229 C225 1.328 . S
C229 C230 1.433 . S
C229 H238 0.931 . S
C230 C226 1.323 . S
C230 C229 1.433 . S
C230 H239 0.933 . S
C231 Dy201 2.738 . S
C231 O211 1.255 . S
C231 O212 1.249 . S
C231 C225 1.516 1_556 S
H232 C218 0.930 . S
H233 C219 0.931 . S
H234 C220 0.931 . S
H235 C221 0.933 . S
H236 C227 0.930 . S
H237 C228 0.931 . S
H238 C229 0.931 . S
H239 C230 0.933 . S
Dy240 O243 2.307 1_554 S
Dy240 O245 2.395 . S
Dy240 O246 2.379 . S
Dy240 O248 2.339 . S
Dy240 O250 2.298 . S
Dy240 O254 2.275 . S
Dy240 C262 2.738 . S
Dy241 O244 2.298 . S
Dy241 O247 2.275 . S
Dy241 O249 2.307 1_556 S
Dy241 O251 2.395 . S
Dy241 O252 2.379 . S
Dy241 O255 2.339 . S
Dy241 C271 2.738 . S
C242 O254 1.254 . S
C242 O255 1.257 1_554 S
O243 Dy240 2.307 1_556 S
O243 C253 1.266 . S
O244 Dy241 2.298 . S
O244 C253 1.236 . S
O245 Dy240 2.395 . S
O245 C262 1.255 . S
O246 Dy240 2.379 . S
O246 C262 1.249 . S
O247 Dy241 2.275 . S
O247 C263 1.254 . S
O248 Dy240 2.339 . S
O248 C263 1.257 1_554 S
O249 Dy241 2.307 1_554 S
O249 C264 1.266 . S
O250 Dy240 2.298 . S
O250 C264 1.236 . S
O251 Dy241 2.395 . S
O251 C271 1.255 . S
O252 Dy241 2.379 . S
O252 C271 1.249 . S
C253 O243 1.266 . S
C253 O244 1.236 . S
O254 Dy240 2.275 . S
O254 C242 1.254 . S
O255 Dy241 2.339 . S
O255 C242 1.257 1_556 S
C256 C259 1.344 . S
C256 C260 1.328 . S
C256 C262 1.516 . S
C257 C258 1.304 . S
C257 C261 1.323 . S
C258 C257 1.304 . S
C258 C259 1.371 . S
C258 H272 0.930 . S
C259 C256 1.344 . S
C259 C258 1.371 . S
C259 H273 0.931 . S
C260 C256 1.328 . S
C260 C261 1.433 . S
C260 H274 0.931 . S
C261 C257 1.323 . S
C261 C260 1.433 . S
C261 H275 0.933 . S
C262 Dy240 2.738 . S
C262 O245 1.255 . S
C262 O246 1.249 . S
C262 C256 1.516 . S
C263 O247 1.254 . S
C263 O248 1.257 1_556 S
C264 O249 1.266 . S
C264 O250 1.236 . S
C265 C268 1.344 . S
C265 C269 1.328 . S
C265 C271 1.516 . S
C266 C267 1.304 . S
C266 C270 1.323 . S
C267 C266 1.304 . S
C267 C268 1.371 . S
C267 H276 0.930 . S
C268 C265 1.344 . S
C268 C267 1.371 . S
C268 H277 0.931 . S
C269 C265 1.328 . S
C269 C270 1.433 . S
C269 H278 0.931 . S
C270 C266 1.323 . S
C270 C269 1.433 . S
C270 H279 0.933 . S
C271 Dy241 2.738 . S
C271 O251 1.255 . S
C271 O252 1.249 . S
C271 C265 1.516 . S
H272 C258 0.930 . S
H273 C259 0.931 . S
H274 C260 0.931 . S
H275 C261 0.933 . S
H276 C267 0.930 . S
H277 C268 0.931 . S
H278 C269 0.931 . S
H279 C270 0.933 . S
Dy280 O283 2.307 . S
Dy280 O285 2.395 . S
Dy280 O286 2.379 1_655 S
Dy280 O288 2.339 1_655 S
Dy280 O290 2.298 1_655 S
Dy280 O294 2.275 . S
Dy280 C302 2.738 1_655 S
Dy281 O284 2.298 1_455 S
Dy281 O287 2.275 . S
Dy281 O289 2.307 . S
Dy281 O291 2.395 . S
Dy281 O292 2.379 1_455 S
Dy281 O295 2.339 1_455 S
Dy281 C311 2.738 1_455 S
C282 O294 1.254 . S
C282 O295 1.257 . S
O283 Dy280 2.307 . S
O283 C293 1.266 . S
O284 Dy281 2.298 1_655 S
O284 C293 1.236 . S
O285 Dy280 2.395 . S
O285 C302 1.255 1_655 S
O286 Dy280 2.379 1_455 S
O286 C302 1.249 . S
O287 Dy281 2.275 . S
O287 C303 1.254 . S
O288 Dy280 2.339 1_455 S
O288 C303 1.257 . S
O289 Dy281 2.307 . S
O289 C304 1.266 . S
O290 Dy280 2.298 1_455 S
O290 C304 1.236 . S
O291 Dy281 2.395 . S
O291 C311 1.255 1_455 S
O292 Dy281 2.379 1_655 S
O292 C311 1.249 . S
C293 O283 1.266 . S
C293 O284 1.236 . S
O294 Dy280 2.275 . S
O294 C282 1.254 . S
O295 Dy281 2.339 1_655 S
O295 C282 1.257 . S
C296 C299 1.345 . S
C296 C300 1.328 . S
C296 C302 1.516 . S
C297 C298 1.304 . S
C297 C301 1.323 . S
C298 C297 1.304 . S
C298 C299 1.372 . S
C298 H312 0.930 1_455 S
C299 C296 1.345 . S
C299 C298 1.372 . S
C299 H313 0.930 1_455 S
C300 C296 1.328 . S
C300 C301 1.433 . S
C300 H314 0.931 . S
C301 C297 1.323 . S
C301 C300 1.433 . S
C301 H315 0.933 . S
C302 Dy280 2.738 1_455 S
C302 O285 1.255 1_455 S
C302 O286 1.249 . S
C302 C296 1.516 . S
C303 O287 1.254 . S
C303 O288 1.257 . S
C304 O289 1.266 . S
C304 O290 1.236 . S
C305 C308 1.343 . S
C305 C309 1.328 . S
C305 C311 1.516 . S
C306 C307 1.304 . S
C306 C310 1.323 . S
C307 C306 1.304 . S
C307 C308 1.371 . S
C307 H316 0.930 1_655 S
C308 C305 1.343 . S
C308 C307 1.371 . S
C308 H317 0.932 1_655 S
C309 C305 1.328 . S
C309 C310 1.433 . S
C309 H318 0.931 . S
C310 C306 1.323 . S
C310 C309 1.433 . S
C310 H319 0.933 . S
C311 Dy281 2.738 1_655 S
C311 O291 1.255 1_655 S
C311 O292 1.249 . S
C311 C305 1.516 . S
H312 C298 0.930 1_655 S
H313 C299 0.930 1_655 S
H314 C300 0.931 . S
H315 C301 0.933 . S
H316 C307 0.930 1_455 S
H317 C308 0.932 1_455 S
H318 C309 0.931 . S
H319 C310 0.933 . S
C320 C321 1.363 . S
C320 C326 1.379 . S
C320 N328 1.356 . S
C321 C320 1.363 . S
C321 C327 1.363 . S
C322 C323 1.363 . S
C322 C327 1.379 . S
C322 N329 1.356 . S
C323 C322 1.363 . S
C323 C326 1.363 . S
N324 C326 1.356 . S
N324 H336 0.984 . S
N324 H337 0.985 . S
N325 C327 1.356 . S
N325 H330 0.984 . S
N325 H331 0.985 . S
C326 C320 1.379 . S
C326 C323 1.363 . S
C326 N324 1.356 . S
C327 C321 1.363 . S
C327 C322 1.379 . S
C327 N325 1.356 . S
N328 C320 1.356 . S
N328 H334 0.984 . S
N328 H335 0.984 . S
N329 C322 1.356 . S
N329 H332 0.984 . S
N329 H333 0.985 . S
H330 N325 0.984 . S
H331 N325 0.985 . S
H332 N329 0.984 . S
H333 N329 0.985 . S
H334 N328 0.984 . S
H335 N328 0.984 . S
H336 N324 0.984 . S
H337 N324 0.985 . S
C338 C339 1.363 . S
C338 C344 1.379 . S
C338 N346 1.356 . S
C339 C338 1.363 . S
C339 C345 1.363 . S
C340 C341 1.363 . S
C340 C345 1.379 . S
C340 N347 1.356 . S
C341 C340 1.363 . S
C341 C344 1.363 . S
N342 C344 1.356 . S
N342 H354 0.984 . S
N342 H355 0.985 . S
N343 C345 1.356 . S
N343 H348 0.984 . S
N343 H349 0.985 . S
C344 C338 1.379 . S
C344 C341 1.363 . S
C344 N342 1.356 . S
C345 C339 1.363 . S
C345 C340 1.379 . S
C345 N343 1.356 . S
N346 C338 1.356 . S
N346 H352 0.984 . S
N346 H353 0.984 . S
N347 C340 1.356 . S
N347 H350 0.984 . S
N347 H351 0.985 . S
H348 N343 0.984 . S
H349 N343 0.985 . S
H350 N347 0.984 . S
H351 N347 0.985 . S
H352 N346 0.984 . S
H353 N346 0.984 . S
H354 N342 0.984 . S
H355 N342 0.985 . S
C356 C357 1.363 . S
C356 C362 1.379 . S
C356 N364 1.356 . S
C357 C356 1.363 . S
C357 C363 1.363 . S
C358 C359 1.363 . S
C358 C363 1.379 . S
C358 N365 1.356 . S
C359 C358 1.363 . S
C359 C362 1.363 . S
N360 C362 1.356 1_554 S
N360 H372 0.984 . S
N360 H373 0.985 . S
N361 C363 1.356 . S
N361 H366 0.984 . S
N361 H367 0.985 . S
C362 C356 1.379 . S
C362 C359 1.363 . S
C362 N360 1.356 1_556 S
C363 C357 1.363 . S
C363 C358 1.379 . S
C363 N361 1.356 . S
N364 C356 1.356 . S
N364 H370 0.984 . S
N364 H371 0.984 . S
N365 C358 1.356 . S
N365 H368 0.984 . S
N365 H369 0.985 . S
H366 N361 0.984 . S
H367 N361 0.985 . S
H368 N365 0.984 . S
H369 N365 0.985 . S
H370 N364 0.984 . S
H371 N364 0.984 . S
H372 N360 0.984 . S
H373 N360 0.985 . S
C374 C375 1.363 . S
C374 C380 1.379 . S
C374 N382 1.356 . S
C375 C374 1.363 . S
C375 C381 1.363 . S
C376 C377 1.363 . S
C376 C381 1.379 . S
C376 N383 1.356 . S
C377 C376 1.363 . S
C377 C380 1.363 . S
N378 C380 1.356 . S
N378 H390 0.984 . S
N378 H391 0.985 . S
N379 C381 1.356 . S
N379 H384 0.984 . S
N379 H385 0.985 . S
C380 C374 1.379 . S
C380 C377 1.363 . S
C380 N378 1.356 . S
C381 C375 1.363 . S
C381 C376 1.379 . S
C381 N379 1.356 . S
N382 C374 1.356 . S
N382 H388 0.984 1_545 S
N382 H389 0.984 . S
N383 C376 1.356 . S
N383 H386 0.984 . S
N383 H387 0.985 . S
H384 N379 0.984 . S
H385 N379 0.985 . S
H386 N383 0.984 . S
H387 N383 0.985 . S
H388 N382 0.984 1_565 S
H389 N382 0.984 . S
H390 N378 0.984 . S
H391 N378 0.985 . S
C392 C393 1.363 . S
C392 C398 1.379 . S
C392 N400 1.356 . S
C393 C392 1.363 . S
C393 C399 1.363 . S
C394 C395 1.363 . S
C394 C399 1.379 . S
C394 N401 1.356 . S
C395 C394 1.363 . S
C395 C398 1.363 . S
N396 C398 1.356 . S
N396 H408 0.984 . S
N396 H409 0.985 . S
N397 C399 1.356 . S
N397 H402 0.984 . S
N397 H403 0.985 . S
C398 C392 1.379 . S
C398 C395 1.363 . S
C398 N396 1.356 . S
C399 C393 1.363 . S
C399 C394 1.379 . S
C399 N397 1.356 . S
N400 C392 1.356 . S
N400 H406 0.984 . S
N400 H407 0.984 . S
N401 C394 1.356 . S
N401 H404 0.984 . S
N401 H405 0.985 . S
H402 N397 0.984 . S
H403 N397 0.985 . S
H404 N401 0.984 . S
H405 N401 0.985 . S
H406 N400 0.984 . S
H407 N400 0.984 . S
H408 N396 0.984 . S
H409 N396 0.985 . S
C410 C411 1.363 . S
C410 C416 1.379 . S
C410 N418 1.356 . S
C411 C410 1.363 . S
C411 C417 1.363 . S
C412 C413 1.363 . S
C412 C417 1.379 . S
C412 N419 1.356 . S
C413 C412 1.363 . S
C413 C416 1.363 . S
N414 C416 1.356 . S
N414 H426 0.984 . S
N414 H427 0.985 . S
N415 C417 1.356 . S
N415 H420 0.984 . S
N415 H421 0.985 . S
C416 C410 1.379 . S
C416 C413 1.363 . S
C416 N414 1.356 . S
C417 C411 1.363 . S
C417 C412 1.379 . S
C417 N415 1.356 . S
N418 C410 1.356 . S
N418 H424 0.984 . S
N418 H425 0.984 . S
N419 C412 1.356 . S
N419 H422 0.984 . S
N419 H423 0.985 . S
H420 N415 0.984 . S
H421 N415 0.985 . S
H422 N419 0.984 . S
H423 N419 0.985 . S
H424 N418 0.984 . S
H425 N418 0.984 . S
H426 N414 0.984 . S
H427 N414 0.985 . S
C428 C429 1.363 . S
C428 C434 1.379 . S
C428 N436 1.356 . S
C429 C428 1.363 . S
C429 C435 1.363 . S
C430 C431 1.363 . S
C430 C435 1.379 . S
C430 N437 1.356 . S
C431 C430 1.363 . S
C431 C434 1.363 . S
N432 C434 1.356 . S
N432 H444 0.984 . S
N432 H445 0.985 . S
N433 C435 1.356 . S
N433 H438 0.984 . S
N433 H439 0.985 . S
C434 C428 1.379 . S
C434 C431 1.363 . S
C434 N432 1.356 . S
C435 C429 1.363 . S
C435 C430 1.379 . S
C435 N433 1.356 . S
N436 C428 1.356 . S
N436 H442 0.984 . S
N436 H443 0.984 . S
N437 C430 1.356 . S
N437 H440 0.984 . S
N437 H441 0.985 . S
H438 N433 0.984 . S
H439 N433 0.985 . S
H440 N437 0.984 . S
H441 N437 0.985 . S
H442 N436 0.984 . S
H443 N436 0.984 . S
H444 N432 0.984 . S
H445 N432 0.985 . S
C446 C447 1.363 . S
C446 C452 1.379 . S
C446 N454 1.356 . S
C447 C446 1.363 . S
C447 C453 1.363 . S
C448 C449 1.363 . S
C448 C453 1.379 . S
C448 N455 1.356 . S
C449 C448 1.363 . S
C449 C452 1.363 . S
N450 C452 1.356 . S
N450 H462 0.984 . S
N450 H463 0.985 . S
N451 C453 1.356 . S
N451 H456 0.984 . S
N451 H457 0.985 . S
C452 C446 1.379 . S
C452 C449 1.363 . S
C452 N450 1.356 . S
C453 C447 1.363 . S
C453 C448 1.379 . S
C453 N451 1.356 . S
N454 C446 1.356 . S
N454 H460 0.984 . S
N454 H461 0.984 . S
N455 C448 1.356 . S
N455 H458 0.984 . S
N455 H459 0.985 1_565 S
H456 N451 0.984 . S
H457 N451 0.985 . S
H458 N455 0.984 . S
H459 N455 0.985 1_545 S
H460 N454 0.984 . S
H461 N454 0.984 . S
H462 N450 0.984 . S
H463 N450 0.985 . S
C464 C465 1.363 . S
C464 C470 1.379 . S
C464 N472 1.356 . S
C465 C464 1.363 . S
C465 C471 1.363 . S
C466 C467 1.363 . S
C466 C471 1.379 . S
C466 N473 1.356 . S
C467 C466 1.363 . S
C467 C470 1.363 . S
N468 C470 1.356 . S
N468 H480 0.984 . S
N468 H481 0.985 . S
N469 C471 1.356 . S
N469 H474 0.984 . S
N469 H475 0.985 . S
C470 C464 1.379 . S
C470 C467 1.363 . S
C470 N468 1.356 . S
C471 C465 1.363 . S
C471 C466 1.379 . S
C471 N469 1.356 . S
N472 C464 1.356 . S
N472 H478 0.984 . S
N472 H479 0.984 . S
N473 C466 1.356 . S
N473 H476 0.984 . S
N473 H477 0.985 . S
H474 N469 0.984 . S
H475 N469 0.985 . S
H476 N473 0.984 . S
H477 N473 0.985 . S
H478 N472 0.984 . S
H479 N472 0.984 . S
H480 N468 0.984 . S
H481 N468 0.985 . S
C482 C483 1.363 . S
C482 C488 1.379 . S
C482 N490 1.356 . S
C483 C482 1.363 . S
C483 C489 1.363 . S
C484 C485 1.363 . S
C484 C489 1.379 . S
C484 N491 1.356 . S
C485 C484 1.363 . S
C485 C488 1.363 . S
N486 C488 1.356 . S
N486 H498 0.984 1_554 S
N486 H499 0.985 1_554 S
N487 C489 1.356 . S
N487 H492 0.984 . S
N487 H493 0.985 . S
C488 C482 1.379 . S
C488 C485 1.363 . S
C488 N486 1.356 . S
C489 C483 1.363 . S
C489 C484 1.379 . S
C489 N487 1.356 . S
N490 C482 1.356 . S
N490 H496 0.984 . S
N490 H497 0.984 . S
N491 C484 1.356 . S
N491 H494 0.984 . S
N491 H495 0.985 . S
H492 N487 0.984 . S
H493 N487 0.985 . S
H494 N491 0.984 . S
H495 N491 0.985 . S
H496 N490 0.984 . S
H497 N490 0.984 . S
H498 N486 0.984 1_556 S
H499 N486 0.985 1_556 S
C500 C501 1.363 . S
C500 C506 1.379 . S
C500 N508 1.356 . S
C501 C500 1.363 . S
C501 C507 1.363 . S
C502 C503 1.363 . S
C502 C507 1.379 . S
C502 N509 1.356 . S
C503 C502 1.363 . S
C503 C506 1.363 . S
N504 C506 1.356 . S
N504 H516 0.984 . S
N504 H517 0.985 . S
N505 C507 1.356 . S
N505 H510 0.984 . S
N505 H511 0.985 . S
C506 C500 1.379 . S
C506 C503 1.363 . S
C506 N504 1.356 . S
C507 C501 1.363 . S
C507 C502 1.379 . S
C507 N505 1.356 . S
N508 C500 1.356 . S
N508 H514 0.984 . S
N508 H515 0.984 . S
N509 C502 1.356 . S
N509 H512 0.984 . S
N509 H513 0.985 . S
H510 N505 0.984 . S
H511 N505 0.985 . S
H512 N509 0.984 . S
H513 N509 0.985 . S
H514 N508 0.984 . S
H515 N508 0.984 . S
H516 N504 0.984 . S
H517 N504 0.985 . S
C518 C519 1.363 . S
C518 C524 1.379 . S
C518 N526 1.356 . S
C519 C518 1.363 . S
C519 C525 1.363 . S
C520 C521 1.363 . S
C520 C525 1.379 . S
C520 N527 1.356 . S
C521 C520 1.363 . S
C521 C524 1.363 . S
N522 C524 1.356 . S
N522 H534 0.984 . S
N522 H535 0.985 . S
N523 C525 1.356 . S
N523 H528 0.984 . S
N523 H529 0.985 . S
C524 C518 1.379 . S
C524 C521 1.363 . S
C524 N522 1.356 . S
C525 C519 1.363 . S
C525 C520 1.379 . S
C525 N523 1.356 . S
N526 C518 1.356 . S
N526 H532 0.984 . S
N526 H533 0.984 . S
N527 C520 1.356 . S
N527 H530 0.984 . S
N527 H531 0.985 . S
H528 N523 0.984 . S
H529 N523 0.985 . S
H530 N527 0.984 . S
H531 N527 0.985 . S
H532 N526 0.984 . S
H533 N526 0.984 . S
H534 N522 0.984 . S
H535 N522 0.985 . S
C536 C537 1.363 . S
C536 C542 1.379 . S
C536 N544 1.356 . S
C537 C536 1.363 . S
C537 C543 1.363 . S
C538 C539 1.363 . S
C538 C543 1.379 . S
C538 N545 1.356 . S
C539 C538 1.363 . S
C539 C542 1.363 . S
N540 C542 1.356 . S
N540 H552 0.984 . S
N540 H553 0.985 . S
N541 C543 1.356 . S
N541 H546 0.984 . S
N541 H547 0.985 . S
C542 C536 1.379 . S
C542 C539 1.363 . S
C542 N540 1.356 . S
C543 C537 1.363 . S
C543 C538 1.379 . S
C543 N541 1.356 . S
N544 C536 1.356 . S
N544 H550 0.984 . S
N544 H551 0.984 . S
N545 C538 1.356 . S
N545 H548 0.984 . S
N545 H549 0.985 . S
H546 N541 0.984 . S
H547 N541 0.985 . S
H548 N545 0.984 . S
H549 N545 0.985 . S
H550 N544 0.984 . S
H551 N544 0.984 . S
H552 N540 0.984 . S
H553 N540 0.985 . S
C554 C555 1.363 . S
C554 C560 1.379 . S
C554 N562 1.356 . S
C555 C554 1.363 . S
C555 C561 1.363 . S
C556 C557 1.363 . S
C556 C561 1.379 . S
C556 N563 1.356 . S
C557 C556 1.363 . S
C557 C560 1.363 . S
N558 C560 1.356 . S
N558 H570 0.984 . S
N558 H571 0.985 . S
N559 C561 1.356 . S
N559 H564 0.984 . S
N559 H565 0.985 . S
C560 C554 1.379 . S
C560 C557 1.363 . S
C560 N558 1.356 . S
C561 C555 1.363 . S
C561 C556 1.379 . S
C561 N559 1.356 . S
N562 C554 1.356 . S
N562 H568 0.984 . S
N562 H569 0.984 . S
N563 C556 1.356 . S
N563 H566 0.984 . S
N563 H567 0.985 . S
H564 N559 0.984 . S
H565 N559 0.985 . S
H566 N563 0.984 . S
H567 N563 0.985 . S
H568 N562 0.984 . S
H569 N562 0.984 . S
H570 N558 0.984 . S
H571 N558 0.985 . S
C572 C573 1.363 . S
C572 C578 1.379 . S
C572 N580 1.356 . S
C573 C572 1.363 . S
C573 C579 1.363 . S
C574 C575 1.363 . S
C574 C579 1.379 . S
C574 N581 1.356 . S
C575 C574 1.363 . S
C575 C578 1.363 . S
N576 C578 1.356 . S
N576 H588 0.984 . S
N576 H589 0.985 . S
N577 C579 1.356 . S
N577 H582 0.984 . S
N577 H583 0.985 . S
C578 C572 1.379 . S
C578 C575 1.363 . S
C578 N576 1.356 . S
C579 C573 1.363 . S
C579 C574 1.379 . S
C579 N577 1.356 . S
N580 C572 1.356 . S
N580 H586 0.984 . S
N580 H587 0.984 . S
N581 C574 1.356 . S
N581 H584 0.984 . S
N581 H585 0.985 . S
H582 N577 0.984 . S
H583 N577 0.985 . S
H584 N581 0.984 . S
H585 N581 0.985 . S
H586 N580 0.984 . S
H587 N580 0.984 . S
H588 N576 0.984 . S
H589 N576 0.985 . S
C590 C591 1.363 . S
C590 C596 1.379 . S
C590 N598 1.356 . S
C591 C590 1.363 . S
C591 C597 1.363 . S
C592 C593 1.363 . S
C592 C597 1.379 . S
C592 N599 1.356 . S
C593 C592 1.363 . S
C593 C596 1.363 . S
N594 C596 1.356 . S
N594 H606 0.984 . S
N594 H607 0.985 . S
N595 C597 1.356 . S
N595 H600 0.984 . S
N595 H601 0.985 . S
C596 C590 1.379 . S
C596 C593 1.363 . S
C596 N594 1.356 . S
C597 C591 1.363 . S
C597 C592 1.379 . S
C597 N595 1.356 . S
N598 C590 1.356 . S
N598 H604 0.984 . S
N598 H605 0.984 . S
N599 C592 1.356 . S
N599 H602 0.984 . S
N599 H603 0.985 . S
H600 N595 0.984 . S
H601 N595 0.985 . S
H602 N599 0.984 . S
H603 N599 0.985 . S
H604 N598 0.984 . S
H605 N598 0.984 . S
H606 N594 0.984 . S
H607 N594 0.985 . S
C608 C609 1.363 1_455 S
C608 C614 1.379 1_556 S
C608 N616 1.356 . S
C609 C608 1.363 1_655 S
C609 C615 1.363 1_545 S
C610 C611 1.363 1_655 S
C610 C615 1.379 1_554 S
C610 N617 1.356 . S
C611 C610 1.363 1_455 S
C611 C614 1.363 1_565 S
N612 C614 1.356 . S
N612 H624 0.984 . S
N612 H625 0.985 . S
N613 C615 1.356 . S
N613 H618 0.984 . S
N613 H619 0.985 . S
C614 C608 1.379 1_554 S
C614 C611 1.363 1_545 S
C614 N612 1.356 . S
C615 C609 1.363 1_565 S
C615 C610 1.379 1_556 S
C615 N613 1.356 . S
N616 C608 1.356 . S
N616 H622 0.984 1_556 S
N616 H623 0.984 1_455 S
N617 C610 1.356 . S
N617 H620 0.984 1_655 S
N617 H621 0.985 1_554 S
H618 N613 0.984 . S
H619 N613 0.985 . S
H620 N617 0.984 1_455 S
H621 N617 0.985 1_556 S
H622 N616 0.984 1_554 S
H623 N616 0.984 1_655 S
H624 N612 0.984 . S
H625 N612 0.985 . S
C626 C627 1.363 . S
C626 C632 1.379 . S
C626 N634 1.356 . S
C627 C626 1.363 . S
C627 C633 1.363 . S
C628 C629 1.363 . S
C628 C633 1.379 . S
C628 N635 1.356 . S
C629 C628 1.363 . S
C629 C632 1.363 . S
N630 C632 1.356 . S
N630 H642 0.984 . S
N630 H643 0.985 . S
N631 C633 1.356 . S
N631 H636 0.984 . S
N631 H637 0.985 . S
C632 C626 1.379 . S
C632 C629 1.363 . S
C632 N630 1.356 . S
C633 C627 1.363 . S
C633 C628 1.379 . S
C633 N631 1.356 . S
N634 C626 1.356 . S
N634 H640 0.984 . S
N634 H641 0.984 . S
N635 C628 1.356 . S
N635 H638 0.984 . S
N635 H639 0.985 . S
H636 N631 0.984 . S
H637 N631 0.985 . S
H638 N635 0.984 . S
H639 N635 0.985 . S
H640 N634 0.984 . S
H641 N634 0.984 . S
H642 N630 0.984 . S
H643 N630 0.985 . S
C644 C645 1.363 1_565 S
C644 C650 1.379 . S
C644 N652 1.356 . S
C645 C644 1.363 1_545 S
C645 C651 1.363 . S
C646 C647 1.363 1_545 S
C646 C651 1.379 . S
C646 N653 1.356 . S
C647 C646 1.363 1_565 S
C647 C650 1.363 . S
N648 C650 1.356 . S
N648 H660 0.984 . S
N648 H661 0.985 . S
N649 C651 1.356 . S
N649 H654 0.984 . S
N649 H655 0.985 . S
C650 C644 1.379 . S
C650 C647 1.363 . S
C650 N648 1.356 . S
C651 C645 1.363 . S
C651 C646 1.379 . S
C651 N649 1.356 . S
N652 C644 1.356 . S
N652 H658 0.984 . S
N652 H659 0.984 . S
N653 C646 1.356 . S
N653 H656 0.984 . S
N653 H657 0.985 . S
H654 N649 0.984 . S
H655 N649 0.985 . S
H656 N653 0.984 . S
H657 N653 0.985 . S
H658 N652 0.984 . S
H659 N652 0.984 . S
H660 N648 0.984 . S
H661 N648 0.985 . S
C662 C663 1.363 . S
C662 C668 1.379 . S
C662 N670 1.356 . S
C663 C662 1.363 . S
C663 C669 1.363 . S
C664 C665 1.363 . S
C664 C669 1.379 . S
C664 N671 1.356 . S
C665 C664 1.363 . S
C665 C668 1.363 . S
N666 C668 1.356 . S
N666 H678 0.984 . S
N666 H679 0.985 . S
N667 C669 1.356 . S
N667 H672 0.984 . S
N667 H673 0.985 . S
C668 C662 1.379 . S
C668 C665 1.363 . S
C668 N666 1.356 . S
C669 C663 1.363 . S
C669 C664 1.379 . S
C669 N667 1.356 . S
N670 C662 1.356 . S
N670 H676 0.984 . S
N670 H677 0.984 . S
N671 C664 1.356 . S
N671 H674 0.984 . S
N671 H675 0.985 . S
H672 N667 0.984 . S
H673 N667 0.985 . S
H674 N671 0.984 . S
H675 N671 0.985 . S
H676 N670 0.984 . S
H677 N670 0.984 . S
H678 N666 0.984 . S
H679 N666 0.985 . S
C680 C681 1.363 . S
C680 C686 1.379 . S
C680 N688 1.356 . S
C681 C680 1.363 . S
C681 C687 1.363 . S
C682 C683 1.363 . S
C682 C687 1.379 . S
C682 N689 1.356 . S
C683 C682 1.363 . S
C683 C686 1.363 . S
N684 C686 1.356 . S
N684 H696 0.984 . S
N684 H697 0.985 . S
N685 C687 1.356 . S
N685 H690 0.984 . S
N685 H691 0.985 . S
C686 C680 1.379 . S
C686 C683 1.363 . S
C686 N684 1.356 . S
C687 C681 1.363 . S
C687 C682 1.379 . S
C687 N685 1.356 . S
N688 C680 1.356 . S
N688 H694 0.984 . S
N688 H695 0.984 . S
N689 C682 1.356 . S
N689 H692 0.984 . S
N689 H693 0.985 . S
H690 N685 0.984 . S
H691 N685 0.985 . S
H692 N689 0.984 . S
H693 N689 0.985 . S
H694 N688 0.984 . S
H695 N688 0.984 . S
H696 N684 0.984 . S
H697 N684 0.985 . S
C698 C699 1.363 . S
C698 C704 1.379 . S
C698 N706 1.356 . S
C699 C698 1.363 . S
C699 C705 1.363 . S
C700 C701 1.363 . S
C700 C705 1.379 . S
C700 N707 1.356 . S
C701 C700 1.363 . S
C701 C704 1.363 . S
N702 C704 1.356 . S
N702 H714 0.984 . S
N702 H715 0.985 . S
N703 C705 1.356 . S
N703 H708 0.984 . S
N703 H709 0.985 . S
C704 C698 1.379 . S
C704 C701 1.363 . S
C704 N702 1.356 . S
C705 C699 1.363 . S
C705 C700 1.379 . S
C705 N703 1.356 . S
N706 C698 1.356 . S
N706 H712 0.984 . S
N706 H713 0.984 . S
N707 C700 1.356 . S
N707 H710 0.984 . S
N707 H711 0.985 . S
H708 N703 0.984 . S
H709 N703 0.985 . S
H710 N707 0.984 . S
H711 N707 0.985 . S
H712 N706 0.984 . S
H713 N706 0.984 . S
H714 N702 0.984 . S
H715 N702 0.985 . S
C716 C717 1.363 . S
C716 C722 1.379 . S
C716 N724 1.356 . S
C717 C716 1.363 . S
C717 C723 1.363 . S
C718 C719 1.363 . S
C718 C723 1.379 . S
C718 N725 1.356 . S
C719 C718 1.363 . S
C719 C722 1.363 . S
N720 C722 1.356 . S
N720 H732 0.984 . S
N720 H733 0.985 . S
N721 C723 1.356 . S
N721 H726 0.984 . S
N721 H727 0.985 . S
C722 C716 1.379 . S
C722 C719 1.363 . S
C722 N720 1.356 . S
C723 C717 1.363 . S
C723 C718 1.379 . S
C723 N721 1.356 . S
N724 C716 1.356 . S
N724 H730 0.984 . S
N724 H731 0.984 . S
N725 C718 1.356 . S
N725 H728 0.984 . S
N725 H729 0.985 . S
H726 N721 0.984 . S
H727 N721 0.985 . S
H728 N725 0.984 . S
H729 N725 0.985 . S
H730 N724 0.984 . S
H731 N724 0.984 . S
H732 N720 0.984 . S
H733 N720 0.985 . S
C734 C735 1.363 1_455 S
C734 C740 1.379 . S
C734 N742 1.356 . S
C735 C734 1.363 1_655 S
C735 C741 1.363 1_556 S
C736 C737 1.363 1_655 S
C736 C741 1.379 . S
C736 N743 1.356 . S
C737 C736 1.363 1_455 S
C737 C740 1.363 1_554 S
N738 C740 1.356 1_554 S
N738 H750 0.984 1_554 S
N738 H751 0.985 . S
N739 C741 1.356 1_556 S
N739 H744 0.984 . S
N739 H745 0.985 1_556 S
C740 C734 1.379 . S
C740 C737 1.363 1_556 S
C740 N738 1.356 1_556 S
C741 C735 1.363 1_554 S
C741 C736 1.379 . S
C741 N739 1.356 1_554 S
N742 C734 1.356 . S
N742 H748 0.984 . S
N742 H749 0.984 . S
N743 C736 1.356 . S
N743 H746 0.984 . S
N743 H747 0.985 . S
H744 N739 0.984 . S
H745 N739 0.985 1_554 S
H746 N743 0.984 . S
H747 N743 0.985 . S
H748 N742 0.984 . S
H749 N742 0.984 . S
H750 N738 0.984 1_556 S
H751 N738 0.985 . S
C321 C13 1.665 . S
C323 C133 1.663 . S
C339 C2 1.446 . S
C341 C42 1.448 . S
C357 C53 1.367 . S
C359 C82 1.366 . S
C375 C93 1.733 . S
C377 C122 1.737 . S
C393 C24 1.665 . S
C395 C224 1.668 . S
C411 C23 1.446 . S
C413 C183 1.447 . S
C429 C184 1.367 . S
C431 C103 1.361 . S
C447 C223 1.739 . S
C449 C104 1.735 . S
C465 C253 1.665 . S
C467 C213 1.667 . S
C483 C162 1.448 . S
C485 C242 1.445 . S
C501 C282 1.363 . S
C503 C173 1.368 . S
C519 C202 1.739 . S
C521 C293 1.734 . S
C537 C144 1.666 . S
C539 C264 1.664 . S
C555 C263 1.446 . S
C557 C63 1.449 . S
C573 C64 1.367 . S
C575 C303 1.362 . S
C591 C143 1.739 . S
C593 C304 1.732 . S
C609 C17 1.612 . S
C611 C26 1.612 . S
C627 C57 1.625 . S
C629 C66 1.625 . S
C645 C97 1.593 . S
C647 C106 1.593 . S
C663 C137 1.923 . S
C665 C146 1.923 . S
C681 C177 1.625 . S
C683 C186 1.625 . S
C699 C217 1.923 . S
C701 C226 1.923 . S
C717 C266 1.612 . S
C719 C257 1.612 . S
C735 C306 1.593 . S
C737 C297 1.593 . S
