# Generated by pormake.
# Topology umk, (4)-cn, num edge types: 1
# Building blocks:
#     Node 0, Type 0, BuildingBlock: CEKHIL_clean_sbu_0, # of connection points: 4
#     Node 1, Type 0, BuildingBlock: CEKHIL_clean_sbu_0, # of connection points: 4
#     Node 2, Type 0, BuildingBlock: CEKHIL_clean_sbu_0, # of connection points: 4
#     Node 3, Type 0, BuildingBlock: CEKHIL_clean_sbu_0, # of connection points: 4
#     Node 4, Type 0, BuildingBlock: CEKHIL_clean_sbu_0, # of connection points: 4
#     Node 5, Type 0, BuildingBlock: CEKHIL_clean_sbu_0, # of connection points: 4
#     Node 6, Type 0, BuildingBlock: CEKHIL_clean_sbu_0, # of connection points: 4
#     Node 7, Type 0, BuildingBlock: CEKHIL_clean_sbu_0, # of connection points: 4
#     Node 8, Type 0, BuildingBlock: CEKHIL_clean_sbu_0, # of connection points: 4
#     Node 9, Type 0, BuildingBlock: CEKHIL_clean_sbu_0, # of connection points: 4
#     Node 10, Type 0, BuildingBlock: CEKHIL_clean_sbu_0, # of connection points: 4
#     Node 11, Type 0, BuildingBlock: CEKHIL_clean_sbu_0, # of connection points: 4
#     Node 12, Type 0, BuildingBlock: CEKHIL_clean_sbu_0, # of connection points: 4
#     Node 13, Type 0, BuildingBlock: CEKHIL_clean_sbu_0, # of connection points: 4
#     Node 14, Type 0, BuildingBlock: CEKHIL_clean_sbu_0, # of connection points: 4
#     Node 15, Type 0, BuildingBlock: CEKHIL_clean_sbu_0, # of connection points: 4
#     Node 16, Type 0, BuildingBlock: CEKHIL_clean_sbu_0, # of connection points: 4
#     Node 17, Type 0, BuildingBlock: CEKHIL_clean_sbu_0, # of connection points: 4
#     Node 18, Type 0, BuildingBlock: CEKHIL_clean_sbu_0, # of connection points: 4
#     Node 19, Type 0, BuildingBlock: CEKHIL_clean_sbu_0, # of connection points: 4
#     Node 20, Type 0, BuildingBlock: CEKHIL_clean_sbu_0, # of connection points: 4
#     Node 21, Type 0, BuildingBlock: CEKHIL_clean_sbu_0, # of connection points: 4
#     Node 22, Type 0, BuildingBlock: CEKHIL_clean_sbu_0, # of connection points: 4
#     Node 23, Type 0, BuildingBlock: CEKHIL_clean_sbu_0, # of connection points: 4
#     Edge 24, Type (0, 0), BuildingBlock: XIVTED_clean_linker_0, # of connection points: 2
#     Edge 25, Type (0, 0), BuildingBlock: XIVTED_clean_linker_0, # of connection points: 2
#     Edge 26, Type (0, 0), BuildingBlock: XIVTED_clean_linker_0, # of connection points: 2
#     Edge 27, Type (0, 0), BuildingBlock: XIVTED_clean_linker_0, # of connection points: 2
#     Edge 28, Type (0, 0), BuildingBlock: XIVTED_clean_linker_0, # of connection points: 2
#     Edge 29, Type (0, 0), BuildingBlock: XIVTED_clean_linker_0, # of connection points: 2
#     Edge 30, Type (0, 0), BuildingBlock: XIVTED_clean_linker_0, # of connection points: 2
#     Edge 31, Type (0, 0), BuildingBlock: XIVTED_clean_linker_0, # of connection points: 2
#     Edge 32, Type (0, 0), BuildingBlock: XIVTED_clean_linker_0, # of connection points: 2
#     Edge 33, Type (0, 0), BuildingBlock: XIVTED_clean_linker_0, # of connection points: 2
#     Edge 34, Type (0, 0), BuildingBlock: XIVTED_clean_linker_0, # of connection points: 2
#     Edge 35, Type (0, 0), BuildingBlock: XIVTED_clean_linker_0, # of connection points: 2
#     Edge 36, Type (0, 0), BuildingBlock: XIVTED_clean_linker_0, # of connection points: 2
#     Edge 37, Type (0, 0), BuildingBlock: XIVTED_clean_linker_0, # of connection points: 2
#     Edge 38, Type (0, 0), BuildingBlock: XIVTED_clean_linker_0, # of connection points: 2
#     Edge 39, Type (0, 0), BuildingBlock: XIVTED_clean_linker_0, # of connection points: 2
#     Edge 40, Type (0, 0), BuildingBlock: XIVTED_clean_linker_0, # of connection points: 2
#     Edge 41, Type (0, 0), BuildingBlock: XIVTED_clean_linker_0, # of connection points: 2
#     Edge 42, Type (0, 0), BuildingBlock: XIVTED_clean_linker_0, # of connection points: 2
#     Edge 43, Type (0, 0), BuildingBlock: XIVTED_clean_linker_0, # of connection points: 2
#     Edge 44, Type (0, 0), BuildingBlock: XIVTED_clean_linker_0, # of connection points: 2
#     Edge 45, Type (0, 0), BuildingBlock: XIVTED_clean_linker_0, # of connection points: 2
#     Edge 46, Type (0, 0), BuildingBlock: XIVTED_clean_linker_0, # of connection points: 2
#     Edge 47, Type (0, 0), BuildingBlock: XIVTED_clean_linker_0, # of connection points: 2
#     Edge 48, Type (0, 0), BuildingBlock: XIVTED_clean_linker_0, # of connection points: 2
#     Edge 49, Type (0, 0), BuildingBlock: XIVTED_clean_linker_0, # of connection points: 2
#     Edge 50, Type (0, 0), BuildingBlock: XIVTED_clean_linker_0, # of connection points: 2
#     Edge 51, Type (0, 0), BuildingBlock: XIVTED_clean_linker_0, # of connection points: 2
#     Edge 52, Type (0, 0), BuildingBlock: XIVTED_clean_linker_0, # of connection points: 2
#     Edge 53, Type (0, 0), BuildingBlock: XIVTED_clean_linker_0, # of connection points: 2
#     Edge 54, Type (0, 0), BuildingBlock: XIVTED_clean_linker_0, # of connection points: 2
#     Edge 55, Type (0, 0), BuildingBlock: XIVTED_clean_linker_0, # of connection points: 2
#     Edge 56, Type (0, 0), BuildingBlock: XIVTED_clean_linker_0, # of connection points: 2
#     Edge 57, Type (0, 0), BuildingBlock: XIVTED_clean_linker_0, # of connection points: 2
#     Edge 58, Type (0, 0), BuildingBlock: XIVTED_clean_linker_0, # of connection points: 2
#     Edge 59, Type (0, 0), BuildingBlock: XIVTED_clean_linker_0, # of connection points: 2
#     Edge 60, Type (0, 0), BuildingBlock: XIVTED_clean_linker_0, # of connection points: 2
#     Edge 61, Type (0, 0), BuildingBlock: XIVTED_clean_linker_0, # of connection points: 2
#     Edge 62, Type (0, 0), BuildingBlock: XIVTED_clean_linker_0, # of connection points: 2
#     Edge 63, Type (0, 0), BuildingBlock: XIVTED_clean_linker_0, # of connection points: 2
#     Edge 64, Type (0, 0), BuildingBlock: XIVTED_clean_linker_0, # of connection points: 2
#     Edge 65, Type (0, 0), BuildingBlock: XIVTED_clean_linker_0, # of connection points: 2
#     Edge 66, Type (0, 0), BuildingBlock: XIVTED_clean_linker_0, # of connection points: 2
#     Edge 67, Type (0, 0), BuildingBlock: XIVTED_clean_linker_0, # of connection points: 2
#     Edge 68, Type (0, 0), BuildingBlock: XIVTED_clean_linker_0, # of connection points: 2
#     Edge 69, Type (0, 0), BuildingBlock: XIVTED_clean_linker_0, # of connection points: 2
#     Edge 70, Type (0, 0), BuildingBlock: XIVTED_clean_linker_0, # of connection points: 2
#     Edge 71, Type (0, 0), BuildingBlock: XIVTED_clean_linker_0, # of connection points: 2
# Relax obj value: 0.068
# Max RMSD: 0.047
# Mean RMSD: 0.047
data_MOF--net-umk--node1-CEKHIL_clean_sbu_0--edge1-XIVTED_clean_linker_0
_symmetry_space_group_name_H-M    P1
_symmetry_Int_Tables_number       1
_symmetry_cell_setting            triclinic
loop_
_symmetry_equiv_pos_as_xyz
'x, y, z'
_cell_length_a     66.070335
_cell_length_b     66.106025
_cell_length_c     43.362746
_cell_angle_alpha  90.022507
_cell_angle_beta   89.984617
_cell_angle_gamma 120.03408
loop_
_atom_site_label
_atom_site_type_symbol
_atom_site_fract_x
_atom_site_fract_y
_atom_site_fract_z
_atom_type_partial_charge
Co0 Co 0.33167 0.46796 0.08382 0.0
O1 O 0.31259 0.48219 0.07855 0.0
O2 O 0.31238 0.4557 0.04716 0.0
C3 C 0.32427 0.46011 0.1346 0.0
O4 O 0.34829 0.44869 0.08272 0.0
Co5 Co 0.37429 0.4899 0.12875 0.0
O6 O 0.37163 0.45882 0.12451 0.0
C7 C 0.37692 0.51278 0.06929 0.0
C8 C 0.30398 0.46919 0.05427 0.0
C9 C 0.3614 0.44536 0.1017 0.0
O10 O 0.35798 0.4946 0.05989 0.0
O11 O 0.38483 0.51488 0.09675 0.0
O12 O 0.30943 0.44598 0.11434 0.0
O13 O 0.34146 0.47899 0.12359 0.0
Co14 Co 0.86826 0.33152 0.58352 0.0
O15 O 0.83497 0.31101 0.5806 0.0
O16 O 0.86054 0.31317 0.54589 0.0
C17 C 0.87126 0.32376 0.63347 0.0
O18 O 0.90411 0.34964 0.57999 0.0
Co19 Co 0.88844 0.37367 0.62922 0.0
O20 O 0.91779 0.37325 0.62153 0.0
C21 C 0.86584 0.37579 0.57184 0.0
C22 C 0.83888 0.30342 0.55499 0.0
C23 C 0.92088 0.3634 0.59817 0.0
O24 O 0.86557 0.35728 0.56167 0.0
O25 O 0.87225 0.38365 0.5992 0.0
O26 O 0.87037 0.30948 0.61219 0.0
O27 O 0.86815 0.34048 0.62408 0.0
Co28 Co 0.53843 0.86251 0.08188 0.0
O29 O 0.52555 0.82924 0.07831 0.0
O30 O 0.54985 0.85518 0.04464 0.0
C31 C 0.5473 0.86385 0.13242 0.0
O32 O 0.55627 0.8983 0.07869 0.0
Co33 Co 0.51781 0.88396 0.12776 0.0
O34 O 0.54807 0.91298 0.12068 0.0
C35 C 0.49283 0.86169 0.06969 0.0
C36 C 0.53767 0.83344 0.05321 0.0
C37 C 0.56012 0.91546 0.09657 0.0
O38 O 0.5105 0.86038 0.0594 0.0
O39 O 0.4919 0.86861 0.09698 0.0
O40 O 0.5617 0.86397 0.11185 0.0
O41 O 0.52822 0.86176 0.12177 0.0
Co42 Co 0.67718 0.5398 0.58393 0.0
O43 O 0.69769 0.52704 0.58113 0.0
O44 O 0.69598 0.55088 0.54675 0.0
C45 C 0.68434 0.54988 0.63413 0.0
O46 O 0.65921 0.55764 0.58031 0.0
Co47 Co 0.63441 0.51765 0.6286 0.0
O48 O 0.63547 0.54779 0.62169 0.0
C49 C 0.63297 0.49332 0.57101 0.0
C50 C 0.7056 0.53886 0.55581 0.0
C51 C 0.64553 0.56077 0.59846 0.0
O52 O 0.65169 0.51159 0.56132 0.0
O53 O 0.62467 0.49175 0.59814 0.0
O54 O 0.69889 0.56356 0.61329 0.0
O55 O 0.66763 0.53021 0.6242 0.0
Co56 Co 0.14294 0.67734 0.08635 0.0
O57 O 0.17612 0.6978 0.08157 0.0
O58 O 0.14946 0.69532 0.04853 0.0
C59 C 0.14175 0.68577 0.13656 0.0
O60 O 0.10701 0.65925 0.08485 0.0
Co61 Co 0.12382 0.63588 0.1329 0.0
O62 O 0.09467 0.63712 0.12776 0.0
C63 C 0.14409 0.63244 0.07399 0.0
C64 C 0.17138 0.70522 0.05644 0.0
C65 C 0.09085 0.64631 0.10428 0.0
O66 O 0.14475 0.6512 0.06406 0.0
O67 O 0.13827 0.62486 0.10157 0.0
O68 O 0.14182 0.69973 0.1154 0.0
O69 O 0.14444 0.66888 0.12675 0.0
Co70 Co 0.47044 0.14139 0.58412 0.0
O71 O 0.48456 0.1745 0.57733 0.0
O72 O 0.45672 0.14737 0.54811 0.0
C73 C 0.46501 0.14284 0.63535 0.0
O74 O 0.4512 0.10551 0.58485 0.0
Co75 Co 0.49392 0.12191 0.62844 0.0
O76 O 0.46284 0.09324 0.62611 0.0
C77 C 0.51469 0.14078 0.56735 0.0
C78 C 0.47067 0.16944 0.5539 0.0
C79 C 0.44865 0.08946 0.60403 0.0
O80 O 0.49611 0.14106 0.55872 0.0
O81 O 0.51773 0.13576 0.59485 0.0
O82 O 0.44983 0.14266 0.61612 0.0
O83 O 0.48321 0.14391 0.62296 0.0
Co84 Co 0.54007 0.67369 0.91051 0.0
O85 O 0.52655 0.69354 0.91379 0.0
O86 O 0.55101 0.69249 0.94772 0.0
C87 C 0.54983 0.68111 0.86021 0.0
O88 O 0.55879 0.65659 0.91365 0.0
Co89 Co 0.51872 0.63105 0.86565 0.0
O90 O 0.54941 0.63314 0.87204 0.0
C91 C 0.49432 0.62868 0.92351 0.0
C92 C 0.53854 0.70168 0.93896 0.0
C93 C 0.56239 0.64339 0.8952 0.0
O94 O 0.51232 0.64763 0.93325 0.0
O95 O 0.49285 0.62061 0.89627 0.0
O96 O 0.56337 0.69582 0.88102 0.0
O97 O 0.53041 0.66409 0.87026 0.0
Co98 Co 0.86624 0.53783 0.41376 0.0
O99 O 0.83298 0.52511 0.41708 0.0
O100 O 0.85892 0.54945 0.45076 0.0
C101 C 0.86859 0.54716 0.3633 0.0
O102 O 0.90208 0.55569 0.41683 0.0
Co103 Co 0.88653 0.51532 0.36926 0.0
O104 O 0.91567 0.5456 0.3754 0.0
C105 C 0.86414 0.49161 0.42737 0.0
C106 C 0.83718 0.53733 0.44209 0.0
C107 C 0.91879 0.55873 0.39855 0.0
O108 O 0.86382 0.50997 0.43692 0.0
O109 O 0.87049 0.48973 0.40014 0.0
O110 O 0.86801 0.56117 0.38386 0.0
O111 O 0.86575 0.52768 0.37372 0.0
Co112 Co 0.33218 0.86597 0.91323 0.0
O113 O 0.3113 0.83287 0.91778 0.0
O114 O 0.31349 0.85964 0.95039 0.0
C115 C 0.32489 0.86717 0.86259 0.0
O116 O 0.35068 0.90191 0.91476 0.0
Co117 Co 0.37456 0.88465 0.8681 0.0
O118 O 0.37362 0.91399 0.87251 0.0
C119 C 0.37584 0.8631 0.92696 0.0
C120 C 0.30357 0.83771 0.94256 0.0
C121 C 0.3641 0.91798 0.8955 0.0
O122 O 0.35757 0.86358 0.93662 0.0
O123 O 0.38379 0.86872 0.8995 0.0
O124 O 0.31059 0.86742 0.883 0.0
O125 O 0.34141 0.8643 0.87339 0.0
Co126 Co 0.47157 0.33119 0.41315 0.0
O127 O 0.48273 0.3094 0.41632 0.0
O128 O 0.45902 0.31216 0.44996 0.0
C129 C 0.46165 0.32485 0.36283 0.0
O130 O 0.45608 0.35136 0.41664 0.0
Co131 Co 0.49758 0.37386 0.36855 0.0
O132 O 0.47277 0.3805 0.38163 0.0
C133 C 0.51961 0.37308 0.42701 0.0
C134 C 0.47056 0.3019 0.44145 0.0
C135 C 0.4579 0.36951 0.40286 0.0
O136 O 0.5002 0.35549 0.43638 0.0
O137 O 0.52269 0.38101 0.39946 0.0
O138 O 0.44735 0.31062 0.38346 0.0
O139 O 0.48181 0.34043 0.37298 0.0
Co140 Co 0.14352 0.47058 0.91295 0.0
O141 O 0.1767 0.48492 0.91976 0.0
O142 O 0.14968 0.45771 0.94971 0.0
C143 C 0.1448 0.46393 0.86205 0.0
O144 O 0.10759 0.45116 0.91236 0.0
Co145 Co 0.12381 0.49293 0.86718 0.0
O146 O 0.09526 0.46181 0.87021 0.0
C147 C 0.14255 0.51501 0.92768 0.0
C148 C 0.17175 0.47149 0.94367 0.0
C149 C 0.09153 0.44808 0.89284 0.0
O150 O 0.14312 0.49675 0.93711 0.0
O151 O 0.13739 0.5174 0.89998 0.0
O152 O 0.1448 0.4493 0.88208 0.0
O153 O 0.1459 0.48241 0.87349 0.0
Co154 Co 0.67874 0.14307 0.41036 0.0
O155 O 0.69864 0.1764 0.41413 0.0
O156 O 0.69686 0.15062 0.44814 0.0
C157 C 0.6871 0.14102 0.36036 0.0
O158 O 0.66139 0.10726 0.4131 0.0
Co159 Co 0.63699 0.12215 0.36413 0.0
O160 O 0.63935 0.09369 0.37022 0.0
C161 C 0.63307 0.14288 0.4224 0.0
C162 C 0.70632 0.17235 0.43956 0.0
C163 C 0.64882 0.09067 0.39403 0.0
O164 O 0.65232 0.14458 0.43225 0.0
O165 O 0.62525 0.13622 0.39507 0.0
O166 O 0.70132 0.14196 0.38175 0.0
O167 O 0.66996 0.14349 0.36973 0.0
Co168 Co 0.679 0.53742 0.91221 0.0
O169 O 0.69804 0.52322 0.91807 0.0
O170 O 0.69778 0.54962 0.94924 0.0
C171 C 0.68706 0.54536 0.86157 0.0
O172 O 0.66229 0.55657 0.91282 0.0
Co173 Co 0.63703 0.51574 0.86623 0.0
O174 O 0.63948 0.54672 0.87054 0.0
C175 C 0.63339 0.49275 0.92596 0.0
C176 C 0.70632 0.53618 0.94246 0.0
C177 C 0.64934 0.55996 0.89366 0.0
O178 O 0.65241 0.51072 0.93561 0.0
O179 O 0.62579 0.49079 0.89834 0.0
O180 O 0.70162 0.5595 0.88207 0.0
O181 O 0.66973 0.52647 0.87232 0.0
Co182 Co 0.14218 0.67743 0.4132 0.0
O183 O 0.17552 0.69796 0.41605 0.0
O184 O 0.14996 0.69561 0.45091 0.0
C185 C 0.13899 0.68528 0.36334 0.0
O186 O 0.10637 0.65948 0.4171 0.0
Co187 Co 0.12136 0.63533 0.36741 0.0
O188 O 0.09205 0.63564 0.37587 0.0
C189 C 0.14441 0.63299 0.42425 0.0
C190 C 0.1716 0.70544 0.44176 0.0
C191 C 0.08936 0.64566 0.39932 0.0
O192 O 0.14488 0.65153 0.43472 0.0
O193 O 0.13775 0.62522 0.39691 0.0
O194 O 0.14003 0.69956 0.38473 0.0
O195 O 0.14203 0.66848 0.37253 0.0
Co196 Co 0.47358 0.14163 0.91673 0.0
O197 O 0.48724 0.17478 0.9231 0.0
O198 O 0.46005 0.14764 0.95294 0.0
C199 C 0.46741 0.14247 0.86561 0.0
O200 O 0.45474 0.10568 0.91645 0.0
Co201 Co 0.49709 0.12237 0.87212 0.0
O202 O 0.46623 0.0935 0.87491 0.0
C203 C 0.51866 0.1424 0.93242 0.0
C204 C 0.47353 0.16972 0.94674 0.0
C205 C 0.45216 0.08964 0.89719 0.0
O206 O 0.49989 0.14208 0.94162 0.0
O207 O 0.52144 0.13728 0.90486 0.0
O208 O 0.45237 0.14224 0.88514 0.0
O209 O 0.48592 0.144 0.87761 0.0
Co210 Co 0.33292 0.46834 0.41149 0.0
O211 O 0.3101 0.47828 0.41379 0.0
O212 O 0.31472 0.45679 0.44914 0.0
C213 C 0.32629 0.45693 0.36172 0.0
O214 O 0.35395 0.45387 0.41584 0.0
Co215 Co 0.37501 0.49405 0.36597 0.0
O216 O 0.3823 0.46983 0.37969 0.0
C217 C 0.37444 0.51718 0.4235 0.0
C218 C 0.30341 0.46707 0.43971 0.0
C219 C 0.3719 0.45551 0.40168 0.0
O220 O 0.35688 0.49794 0.43334 0.0
O221 O 0.38242 0.51973 0.39603 0.0
O222 O 0.31252 0.44298 0.38299 0.0
O223 O 0.34155 0.47753 0.3709 0.0
Co224 Co 0.86797 0.32889 0.91134 0.0
O225 O 0.83478 0.30871 0.9163 0.0
O226 O 0.86138 0.3104 0.94878 0.0
C227 C 0.86874 0.32103 0.86078 0.0
O228 O 0.90395 0.34669 0.91244 0.0
Co229 Co 0.88717 0.3709 0.86558 0.0
O230 O 0.91613 0.36919 0.8698 0.0
C231 C 0.86707 0.37369 0.92497 0.0
C232 C 0.83943 0.3009 0.94114 0.0
C233 C 0.92001 0.35971 0.89291 0.0
O234 O 0.86655 0.35491 0.93448 0.0
O235 O 0.87273 0.38149 0.89745 0.0
O236 O 0.86866 0.30672 0.88141 0.0
O237 O 0.86634 0.3379 0.87135 0.0
Co238 Co 0.5423 0.86787 0.41103 0.0
O239 O 0.52913 0.83462 0.41464 0.0
O240 O 0.55342 0.86047 0.44845 0.0
C241 C 0.55205 0.86984 0.36079 0.0
O242 O 0.56049 0.90371 0.41372 0.0
Co243 Co 0.52044 0.88821 0.36556 0.0
O244 O 0.55107 0.917 0.37139 0.0
C245 C 0.49641 0.86693 0.42396 0.0
C246 C 0.54113 0.83873 0.43983 0.0
C247 C 0.56397 0.92024 0.39485 0.0
O248 O 0.51442 0.86596 0.43361 0.0
O249 O 0.49482 0.87335 0.39666 0.0
O250 O 0.56578 0.86917 0.38172 0.0
O251 O 0.53254 0.86727 0.37077 0.0
Co252 Co 0.46924 0.33031 0.08394 0.0
O253 O 0.48421 0.31189 0.07898 0.0
O254 O 0.45713 0.31055 0.04765 0.0
C255 C 0.46191 0.32334 0.13487 0.0
O256 O 0.44924 0.34616 0.08261 0.0
Co257 Co 0.49047 0.37336 0.12822 0.0
O258 O 0.45898 0.36975 0.12413 0.0
C259 C 0.51342 0.37588 0.06878 0.0
C260 C 0.47113 0.30277 0.05488 0.0
C261 C 0.44557 0.35913 0.10144 0.0
O262 O 0.49543 0.35669 0.05958 0.0
O263 O 0.51539 0.38397 0.09611 0.0
O264 O 0.44779 0.30811 0.11494 0.0
O265 O 0.48044 0.34072 0.12346 0.0
Co266 Co 0.1442 0.47066 0.58214 0.0
O267 O 0.17737 0.48291 0.57783 0.0
O268 O 0.15061 0.45812 0.54533 0.0
C269 C 0.14261 0.46232 0.63293 0.0
O270 O 0.10832 0.45304 0.58007 0.0
Co271 Co 0.12479 0.49414 0.62639 0.0
O272 O 0.09547 0.46381 0.62161 0.0
C273 C 0.14672 0.51691 0.56761 0.0
C274 C 0.17253 0.47016 0.5532 0.0
C275 C 0.09194 0.45032 0.59875 0.0
O276 O 0.14658 0.49827 0.5583 0.0
O277 O 0.1408 0.51924 0.59491 0.0
O278 O 0.14266 0.4478 0.61273 0.0
O279 O 0.14548 0.48166 0.62192 0.0
Co280 Co 0.67998 0.13917 0.08557 0.0
O281 O 0.70124 0.17247 0.08409 0.0
O282 O 0.69818 0.14754 0.04784 0.0
C283 C 0.68738 0.13419 0.13486 0.0
O284 O 0.66122 0.10359 0.07991 0.0
Co285 Co 0.6376 0.11804 0.13108 0.0
O286 O 0.63345 0.08771 0.1168 0.0
C287 C 0.63632 0.14303 0.07574 0.0
C288 C 0.70848 0.16895 0.0579 0.0
C289 C 0.6446 0.08587 0.09404 0.0
O290 O 0.65457 0.14311 0.06487 0.0
O291 O 0.62856 0.13616 0.10302 0.0
O292 O 0.70164 0.13557 0.11322 0.0
O293 O 0.67094 0.13805 0.12642 0.0
Co294 Co 0.53834 0.67664 0.58244 0.0
O295 O 0.52617 0.69759 0.57899 0.0
O296 O 0.55028 0.69547 0.5454 0.0
C297 C 0.54772 0.68366 0.63287 0.0
O298 O 0.55566 0.65813 0.57964 0.0
Co299 Co 0.51508 0.63397 0.627 0.0
O300 O 0.54535 0.63497 0.62159 0.0
C301 C 0.49182 0.63273 0.56847 0.0
C302 C 0.53847 0.70543 0.55401 0.0
C303 C 0.55856 0.64462 0.59838 0.0
O304 O 0.51027 0.65146 0.55922 0.0
O305 O 0.48977 0.62433 0.59562 0.0
O306 O 0.56189 0.69801 0.61222 0.0
O307 O 0.52804 0.66722 0.62252 0.0
Co308 Co 0.86758 0.53665 0.08385 0.0
O309 O 0.83431 0.52196 0.07765 0.0
O310 O 0.8609 0.5492 0.04724 0.0
C311 C 0.86692 0.54358 0.13473 0.0
O312 O 0.90347 0.55641 0.08378 0.0
Co313 Co 0.88822 0.51482 0.12894 0.0
O314 O 0.91637 0.54621 0.1258 0.0
C315 C 0.86897 0.49246 0.06884 0.0
C316 C 0.83893 0.53527 0.05365 0.0
C317 C 0.91971 0.55982 0.10316 0.0
O318 O 0.86804 0.51056 0.05959 0.0
O319 O 0.87453 0.49022 0.09638 0.0
O320 O 0.86637 0.55793 0.11473 0.0
O321 O 0.86584 0.52508 0.12335 0.0
Co322 Co 0.33354 0.86632 0.58328 0.0
O323 O 0.31335 0.83313 0.57845 0.0
O324 O 0.31464 0.85974 0.54631 0.0
C325 C 0.32633 0.86724 0.63402 0.0
O326 O 0.35115 0.90224 0.58216 0.0
Co327 Co 0.37625 0.88564 0.62786 0.0
O328 O 0.37432 0.9145 0.62417 0.0
C329 C 0.37812 0.86527 0.56831 0.0
C330 C 0.30526 0.83781 0.5539 0.0
C331 C 0.36434 0.91829 0.60157 0.0
O332 O 0.3593 0.86493 0.55932 0.0
O333 O 0.38629 0.87093 0.59567 0.0
O334 O 0.31169 0.86696 0.61376 0.0
O335 O 0.34311 0.86483 0.62304 0.0
H336 H 0.28763 0.42574 0.16843 0.0
H337 H 0.36293 0.47045 0.32336 0.0
H338 H 0.35901 0.48199 0.17632 0.0
H339 H 0.28775 0.42862 0.32613 0.0
H340 H 0.36189 0.46596 0.26784 0.0
H341 H 0.28729 0.41925 0.22461 0.0
C342 C 0.30323 0.43651 0.18183 0.0
C343 C 0.32335 0.4545 0.1677 0.0
C344 C 0.34554 0.45756 0.28044 0.0
C345 C 0.32319 0.44697 0.2312 0.0
C346 C 0.34616 0.46009 0.31222 0.0
C347 C 0.32539 0.45023 0.32919 0.0
C348 C 0.32393 0.44549 0.26523 0.0
C349 C 0.30414 0.43658 0.31365 0.0
C350 C 0.30301 0.4328 0.21375 0.0
C351 C 0.34308 0.46797 0.18603 0.0
N352 N 0.30387 0.43495 0.28226 0.0
N353 N 0.34246 0.46392 0.21665 0.0
H354 H 0.89426 0.35978 0.67287 0.0
H355 H 0.86502 0.28379 0.82663 0.0
H356 H 0.86041 0.28463 0.6684 0.0
H357 H 0.88253 0.35587 0.81929 0.0
H358 H 0.87011 0.28317 0.77012 0.0
H359 H 0.89876 0.35821 0.72775 0.0
C360 C 0.88794 0.34287 0.68341 0.0
C361 C 0.87671 0.32231 0.66605 0.0
C362 C 0.87306 0.29911 0.78121 0.0
C363 C 0.88093 0.32022 0.7298 0.0
C364 C 0.87021 0.29949 0.81331 0.0
C365 C 0.87326 0.31989 0.82768 0.0
C366 C 0.87937 0.3194 0.7639 0.0
C367 C 0.87989 0.33971 0.80946 0.0
C368 C 0.89041 0.34194 0.71497 0.0
C369 C 0.86908 0.30088 0.68115 0.0
N370 N 0.88268 0.33892 0.77875 0.0
N371 N 0.87089 0.3003 0.71247 0.0
H372 H 0.58197 0.86062 0.32655 0.0
H373 H 0.5184 0.86441 0.1755 0.0
H374 H 0.53519 0.8882 0.31963 0.0
H375 H 0.58591 0.86952 0.16594 0.0
H376 H 0.52394 0.86894 0.23026 0.0
H377 H 0.58488 0.86157 0.26955 0.0
C378 C 0.57276 0.86731 0.31317 0.0
C379 C 0.55792 0.87389 0.32773 0.0
C380 C 0.5378 0.86938 0.21639 0.0
C381 C 0.5611 0.87494 0.26348 0.0
C382 C 0.53462 0.86671 0.18488 0.0
C383 C 0.55186 0.86686 0.16592 0.0
C384 C 0.55837 0.87216 0.22963 0.0
C385 C 0.57227 0.86949 0.17982 0.0
C386 C 0.57442 0.86782 0.28081 0.0
C387 C 0.54642 0.88248 0.30952 0.0
N388 N 0.575 0.87197 0.21112 0.0
N389 N 0.54809 0.88254 0.27851 0.0
H390 H 0.72367 0.58038 0.8282 0.0
H391 H 0.64822 0.53599 0.67363 0.0
H392 H 0.65305 0.52276 0.81927 0.0
H393 H 0.72343 0.57741 0.66954 0.0
H394 H 0.64981 0.54031 0.72895 0.0
H395 H 0.72421 0.58704 0.77196 0.0
C396 C 0.70829 0.56933 0.81457 0.0
C397 C 0.68829 0.55097 0.82844 0.0
C398 C 0.66607 0.54864 0.71613 0.0
C399 C 0.68867 0.55869 0.76498 0.0
C400 C 0.66514 0.54624 0.68437 0.0
C401 C 0.68573 0.55607 0.66699 0.0
C402 C 0.6878 0.56046 0.73103 0.0
C403 C 0.70716 0.56946 0.6823 0.0
C404 C 0.70862 0.57313 0.78263 0.0
C405 C 0.66886 0.53713 0.80983 0.0
N406 N 0.70773 0.57092 0.71373 0.0
N407 N 0.66957 0.5413 0.77927 0.0
H408 H 0.11413 0.64917 0.32471 0.0
H409 H 0.14679 0.72393 0.16963 0.0
H410 H 0.1513 0.72448 0.32781 0.0
H411 H 0.126 0.65105 0.17857 0.0
H412 H 0.14148 0.72536 0.22596 0.0
H413 H 0.10946 0.65044 0.26985 0.0
C414 C 0.12112 0.66607 0.31389 0.0
C415 C 0.13333 0.68673 0.33086 0.0
C416 C 0.13784 0.70908 0.21526 0.0
C417 C 0.12897 0.68842 0.26708 0.0
C418 C 0.14081 0.70823 0.18327 0.0
C419 C 0.13696 0.68736 0.16944 0.0
C420 C 0.13057 0.68878 0.23299 0.0
C421 C 0.12932 0.66755 0.18802 0.0
C422 C 0.11855 0.66681 0.28232 0.0
C423 C 0.14184 0.70814 0.31537 0.0
N424 N 0.12643 0.6688 0.21863 0.0
N425 N 0.13996 0.7085 0.28403 0.0
H426 H 0.49308 0.13424 0.82452 0.0
H427 H 0.43044 0.14319 0.67153 0.0
H428 H 0.43357 0.14449 0.82985 0.0
H429 H 0.49254 0.13726 0.67622 0.0
H430 H 0.42799 0.14081 0.72847 0.0
H431 H 0.48949 0.13171 0.76938 0.0
C432 C 0.47909 0.13587 0.81408 0.0
C433 C 0.46366 0.13969 0.83194 0.0
C434 C 0.44199 0.1399 0.71679 0.0
C435 C 0.45964 0.13723 0.76772 0.0
C436 C 0.44339 0.14123 0.68443 0.0
C437 C 0.46175 0.14047 0.66911 0.0
C438 C 0.45902 0.13767 0.73353 0.0
C439 C 0.47808 0.13795 0.68681 0.0
C440 C 0.47706 0.13447 0.78231 0.0
C441 C 0.44586 0.14159 0.81683 0.0
N442 N 0.4763 0.13668 0.71784 0.0
N443 N 0.44442 0.14054 0.78537 0.0
H444 H 0.58112 0.72089 0.6669 0.0
H445 H 0.53597 0.64489 0.82084 0.0
H446 H 0.52771 0.64831 0.67391 0.0
H447 H 0.57775 0.72005 0.82472 0.0
H448 H 0.54131 0.64623 0.76581 0.0
H449 H 0.58726 0.72141 0.72323 0.0
C450 C 0.57097 0.70506 0.68014 0.0
C451 C 0.55376 0.68456 0.66577 0.0
C452 C 0.54949 0.66255 0.77849 0.0
C453 C 0.56083 0.68495 0.7294 0.0
C454 C 0.54649 0.66176 0.81014 0.0
C455 C 0.55618 0.6824 0.8274 0.0
C456 C 0.56173 0.6842 0.76349 0.0
C457 C 0.56989 0.70374 0.81208 0.0
C458 C 0.57444 0.70538 0.71215 0.0
C459 C 0.54104 0.66455 0.68384 0.0
N460 N 0.57193 0.70417 0.78071 0.0
N461 N 0.54482 0.6653 0.71453 0.0
H462 H 0.85951 0.57649 0.3277 0.0
H463 H 0.87979 0.52157 0.17596 0.0
H464 H 0.88808 0.53046 0.32354 0.0
H465 H 0.86256 0.57638 0.16967 0.0
H466 H 0.88452 0.52729 0.23069 0.0
H467 H 0.86236 0.57989 0.27086 0.0
C468 C 0.86677 0.5675 0.31495 0.0
C469 C 0.87324 0.55287 0.33027 0.0
C470 C 0.87987 0.53832 0.21762 0.0
C471 C 0.87653 0.55665 0.26602 0.0
C472 C 0.87713 0.53501 0.18607 0.0
C473 C 0.87075 0.54849 0.16809 0.0
C474 C 0.87576 0.55499 0.23189 0.0
C475 C 0.86751 0.56561 0.18281 0.0
C476 C 0.86833 0.5694 0.28264 0.0
C477 C 0.88251 0.54161 0.31285 0.0
N478 N 0.86977 0.56822 0.2141 0.0
N479 N 0.88373 0.54364 0.28184 0.0
H480 H 0.36244 0.88442 0.67402 0.0
H481 H 0.28789 0.86337 0.82773 0.0
H482 H 0.28859 0.86047 0.66964 0.0
H483 H 0.3599 0.88034 0.82153 0.0
H484 H 0.28736 0.86714 0.77098 0.0
H485 H 0.36169 0.88899 0.72883 0.0
C486 C 0.34597 0.8802 0.68458 0.0
C487 C 0.32551 0.87184 0.66715 0.0
C488 C 0.30327 0.87027 0.78233 0.0
C489 C 0.32428 0.87637 0.73105 0.0
C490 C 0.3036 0.86819 0.81458 0.0
C491 C 0.32393 0.87139 0.82935 0.0
C492 C 0.3235 0.87585 0.76523 0.0
C493 C 0.34378 0.87754 0.81137 0.0
C494 C 0.34551 0.88277 0.71618 0.0
C495 C 0.30474 0.86688 0.68238 0.0
N496 N 0.343 0.87949 0.78049 0.0
N497 N 0.30453 0.86886 0.71373 0.0
H498 H 0.47736 0.36163 0.32417 0.0
H499 H 0.42888 0.28637 0.16966 0.0
H500 H 0.43236 0.28683 0.327 0.0
H501 H 0.48363 0.35851 0.17598 0.0
H502 H 0.42372 0.28605 0.22615 0.0
H503 H 0.47257 0.36087 0.26883 0.0
C504 C 0.46633 0.34499 0.31308 0.0
C505 C 0.45558 0.32423 0.33006 0.0
C506 C 0.43664 0.30194 0.2149 0.0
C507 C 0.45033 0.32306 0.26615 0.0
C508 C 0.43957 0.30214 0.1828 0.0
C509 C 0.4568 0.32246 0.16813 0.0
C510 C 0.45086 0.3223 0.23202 0.0
C511 C 0.47021 0.3424 0.18611 0.0
C512 C 0.46357 0.34453 0.28136 0.0
C513 C 0.44104 0.30321 0.31453 0.0
N514 N 0.46696 0.34177 0.21693 0.0
N515 N 0.43912 0.30306 0.28318 0.0
H516 H 0.12501 0.48103 0.6726 0.0
H517 H 0.14561 0.4288 0.82784 0.0
H518 H 0.15037 0.43229 0.66914 0.0
H519 H 0.13733 0.48935 0.81971 0.0
H520 H 0.14166 0.42404 0.77115 0.0
H521 H 0.12198 0.47721 0.7278 0.0
C522 C 0.12985 0.46935 0.68344 0.0
C523 C 0.13824 0.45721 0.66617 0.0
C524 C 0.14059 0.43821 0.78206 0.0
C525 C 0.13544 0.45318 0.73033 0.0
C526 C 0.1428 0.44092 0.81426 0.0
C527 C 0.14179 0.4595 0.82852 0.0
C528 C 0.13705 0.45404 0.76445 0.0
C529 C 0.1382 0.47475 0.80995 0.0
C530 C 0.12819 0.46721 0.71521 0.0
C531 C 0.14392 0.44206 0.68175 0.0
N532 N 0.13597 0.47164 0.77911 0.0
N533 N 0.14276 0.44071 0.7132 0.0
H534 H 0.72541 0.1456 0.32842 0.0
H535 H 0.65149 0.1064 0.1722 0.0
H536 H 0.65236 0.1239 0.31807 0.0
H537 H 0.72664 0.14872 0.17078 0.0
H538 H 0.6526 0.10278 0.22771 0.0
H539 H 0.72708 0.1387 0.27267 0.0
C540 C 0.70972 0.1391 0.31459 0.0
C541 C 0.68874 0.13545 0.32783 0.0
C542 C 0.66895 0.11268 0.21537 0.0
C543 C 0.69042 0.12718 0.2649 0.0
C544 C 0.6683 0.11468 0.18361 0.0
C545 C 0.68896 0.12818 0.16706 0.0
C546 C 0.69039 0.12476 0.23097 0.0
C547 C 0.71032 0.13824 0.18294 0.0
C548 C 0.7107 0.13521 0.28293 0.0
C549 C 0.66893 0.12709 0.30901 0.0
N550 N 0.71051 0.13676 0.21432 0.0
N551 N 0.67029 0.12327 0.27866 0.0
H552 H 0.21559 0.50796 0.95344 0.0
H553 H 0.26948 0.43372 0.02009 0.0
H554 H 0.1711 0.43491 0.97454 0.0
H555 H 0.29472 0.50481 0.04905 0.0
H556 H 0.23629 0.43384 0.99439 0.0
H557 H 0.2479 0.50731 0.98031 0.0
C558 C 0.21262 0.49181 0.96388 0.0
C559 C 0.19064 0.47149 0.96198 0.0
C560 C 0.24917 0.44938 0.00635 0.0
C561 C 0.22767 0.47049 0.99188 0.0
C562 C 0.26817 0.4494 0.02074 0.0
C563 C 0.28485 0.4693 0.03665 0.0
C564 C 0.24726 0.4696 0.00725 0.0
C565 C 0.28221 0.48909 0.03707 0.0
C566 C 0.23103 0.49147 0.97918 0.0
C567 C 0.18773 0.451 0.97581 0.0
N568 N 0.2639 0.48882 0.02237 0.0
N569 N 0.20615 0.45093 0.98987 0.0
H570 H 0.73877 0.21494 0.41731 0.0
H571 H 0.79681 0.2704 0.57797 0.0
H572 H 0.71842 0.17363 0.50051 0.0
H573 H 0.83677 0.29198 0.49363 0.0
H574 H 0.76467 0.23798 0.55017 0.0
H575 H 0.77159 0.24663 0.44515 0.0
C576 C 0.74113 0.21258 0.4415 0.0
C577 C 0.72583 0.19163 0.45667 0.0
C578 C 0.78049 0.24979 0.5378 0.0
C579 C 0.76319 0.22792 0.48862 0.0
C580 C 0.79879 0.26836 0.55355 0.0
C581 C 0.81948 0.28391 0.53803 0.0
C582 C 0.78265 0.24704 0.50613 0.0
C583 C 0.82114 0.28035 0.50645 0.0
C584 C 0.75995 0.23061 0.45726 0.0
C585 C 0.72984 0.18948 0.48796 0.0
N586 N 0.80285 0.26241 0.49143 0.0
N587 N 0.74802 0.20751 0.50302 0.0
H588 H 0.52862 0.7914 0.07609 0.0
H589 H 0.52835 0.73393 0.91607 0.0
H590 H 0.54805 0.83179 0.99213 0.0
H591 H 0.54922 0.71416 -0.0002 0.0
H592 H 0.52907 0.76669 0.94354 0.0
H593 H 0.52969 0.75962 0.0485 0.0
C594 C 0.53302 0.79354 0.05179 0.0
C595 C 0.53822 0.81425 0.03632 0.0
C596 C 0.53352 0.75519 0.95584 0.0
C597 C 0.53917 0.77782 0.00463 0.0
C598 C 0.53298 0.73642 0.94029 0.0
C599 C 0.5387 0.72128 0.95574 0.0
C600 C 0.53926 0.75853 0.98726 0.0
C601 C 0.54474 0.72544 0.98705 0.0
C602 C 0.53376 0.77545 0.03616 0.0
C603 C 0.54398 0.81613 0.0049 0.0
N604 N 0.54462 0.74355 0.0019 0.0
N605 N 0.54405 0.79802 0.98996 0.0
H606 H 0.73844 0.52971 0.57908 0.0
H607 H 0.79498 0.5279 0.41918 0.0
H608 H 0.71764 0.54882 0.49473 0.0
H609 H 0.83577 0.54845 0.50285 0.0
H610 H 0.76327 0.52928 0.4466 0.0
H611 H 0.77115 0.53031 0.55165 0.0
C612 C 0.74071 0.53395 0.55474 0.0
C613 C 0.72529 0.53919 0.5391 0.0
C614 C 0.77919 0.53353 0.4589 0.0
C615 C 0.76248 0.53961 0.50761 0.0
C616 C 0.79722 0.53261 0.44338 0.0
C617 C 0.81802 0.53803 0.45882 0.0
C618 C 0.78171 0.53935 0.4903 0.0
C619 C 0.82004 0.54419 0.4901 0.0
C620 C 0.75945 0.53442 0.5392 0.0
C621 C 0.72916 0.54473 0.50763 0.0
N622 N 0.80199 0.54445 0.50494 0.0
N623 N 0.74725 0.54455 0.4928 0.0
H624 H 0.29192 0.8374 0.00352 0.0
H625 H 0.17175 0.71651 0.99533 0.0
H626 H 0.27007 0.7954 0.92092 0.0
H627 H 0.21367 0.73887 0.07799 0.0
H628 H 0.20372 0.74944 0.96743 0.0
H629 H 0.25909 0.80528 0.03139 0.0
C630 C 0.28017 0.8215 0.99126 0.0
C631 C 0.28378 0.81897 0.95996 0.0
C632 C 0.20582 0.74707 0.99169 0.0
C633 C 0.24613 0.78255 0.99136 0.0
C634 C 0.18762 0.72837 0.00759 0.0
C635 C 0.19016 0.72488 0.03892 0.0
C636 C 0.22639 0.76268 0.00748 0.0
C637 C 0.21109 0.74079 0.05375 0.0
C638 C 0.26154 0.80321 0.00714 0.0
C639 C 0.26804 0.79799 0.94513 0.0
N640 N 0.22832 0.75909 0.03799 0.0
N641 N 0.24981 0.78065 0.96088 0.0
H642 H 0.50746 0.21271 0.54264 0.0
H643 H 0.43524 0.26913 0.47776 0.0
H644 H 0.43376 0.16919 0.52436 0.0
H645 H 0.50457 0.29031 0.4445 0.0
H646 H 0.43454 0.23569 0.50407 0.0
H647 H 0.50707 0.24492 0.51523 0.0
C648 C 0.49121 0.20993 0.53273 0.0
C649 C 0.47064 0.18826 0.53554 0.0
C650 C 0.44985 0.24774 0.49099 0.0
C651 C 0.46997 0.22518 0.50501 0.0
C652 C 0.45035 0.26685 0.47625 0.0
C653 C 0.47 0.28245 0.45899 0.0
C654 C 0.46939 0.24471 0.48909 0.0
C655 C 0.48905 0.27864 0.4575 0.0
C656 C 0.49102 0.22828 0.51712 0.0
C657 C 0.45003 0.1856 0.52237 0.0
N658 N 0.48838 0.2603 0.47259 0.0
N659 N 0.45012 0.20397 0.50795 0.0
H660 H 0.795 0.49862 0.04497 0.0
H661 H 0.74055 0.57187 0.97657 0.0
H662 H 0.83919 0.57142 0.02224 0.0
H663 H 0.71553 0.50059 0.94862 0.0
H664 H 0.77373 0.57201 0.00271 0.0
H665 H 0.76243 0.49885 0.01818 0.0
C666 C 0.79785 0.51462 0.03421 0.0
C667 C 0.81982 0.535 0.03561 0.0
C668 C 0.76088 0.55637 0.99089 0.0
C669 C 0.78253 0.53553 0.00582 0.0
C670 C 0.7419 0.55619 0.97627 0.0
C671 C 0.72531 0.53617 0.96049 0.0
C672 C 0.76286 0.53618 0.99036 0.0
C673 C 0.72798 0.5164 0.96049 0.0
C674 C 0.7793 0.51473 0.01897 0.0
C675 C 0.82257 0.55529 0.02138 0.0
N676 N 0.74628 0.51683 0.97541 0.0
N677 N 0.80403 0.55515 0.00736 0.0
H678 H 0.17341 0.7164 0.50313 0.0
H679 H 0.29282 0.83761 0.49332 0.0
H680 H 0.21357 0.73906 0.41903 0.0
H681 H 0.27272 0.79503 0.57536 0.0
H682 H 0.25988 0.80538 0.46572 0.0
H683 H 0.20595 0.74913 0.53046 0.0
C684 C 0.18903 0.72829 0.49044 0.0
C685 C 0.19089 0.72496 0.45885 0.0
C686 C 0.26276 0.80319 0.48978 0.0
C687 C 0.22779 0.76254 0.48969 0.0
C688 C 0.28145 0.82154 0.5055 0.0
C689 C 0.28556 0.8189 0.53658 0.0
C690 C 0.24778 0.78236 0.50551 0.0
C691 C 0.27029 0.79771 0.55132 0.0
C692 C 0.20756 0.74687 0.50601 0.0
C693 C 0.21151 0.74089 0.44346 0.0
N694 N 0.25198 0.78034 0.53575 0.0
N695 N 0.2291 0.7591 0.45896 0.0
H696 H 0.43664 0.16786 0.97847 0.0
H697 H 0.50794 0.29544 0.04874 0.0
H698 H 0.50889 0.21441 0.95488 0.0
H699 H 0.43571 0.26665 0.02256 0.0
H700 H 0.5084 0.26264 0.02304 0.0
H701 H 0.43562 0.20063 0.00408 0.0
C702 C 0.45233 0.18487 0.97903 0.0
C703 C 0.47289 0.18847 0.9646 0.0
C704 C 0.49249 0.26357 0.02284 0.0
C705 C 0.47188 0.22573 0.99388 0.0
C706 C 0.4922 0.28224 0.03747 0.0
C707 C 0.4718 0.28381 0.03757 0.0
C708 C 0.47204 0.24596 0.00895 0.0
C709 C 0.45186 0.26618 0.02271 0.0
C710 C 0.45167 0.20355 0.99335 0.0
C711 C 0.49267 0.21092 0.96568 0.0
N712 N 0.45238 0.24779 0.00926 0.0
N713 N 0.49174 0.22864 0.98027 0.0
H714 H 0.17184 0.45661 0.49315 0.0
H715 H 0.29364 0.45907 0.5016 0.0
H716 H 0.21551 0.48034 0.5742 0.0
H717 H 0.26809 0.47266 0.41711 0.0
H718 H 0.26116 0.45899 0.52952 0.0
H719 H 0.20334 0.45471 0.46548 0.0
C720 C 0.188 0.46135 0.50511 0.0
C721 C 0.19115 0.4688 0.53592 0.0
C722 C 0.26271 0.46192 0.50485 0.0
C723 C 0.22691 0.4662 0.50472 0.0
C724 C 0.28113 0.46187 0.48893 0.0
C725 C 0.2836 0.466 0.45706 0.0
C726 C 0.24639 0.46557 0.48861 0.0
C727 C 0.26692 0.46959 0.44174 0.0
C728 C 0.20594 0.46031 0.48933 0.0
C729 C 0.21245 0.47471 0.55036 0.0
N730 N 0.24896 0.46915 0.4576 0.0
N731 N 0.22945 0.47314 0.53473 0.0
H732 H 0.79653 0.26854 0.91987 0.0
H733 H 0.74237 0.21067 0.08122 0.0
H734 H 0.83905 0.28867 0.002 0.0
H735 H 0.71932 0.17148 0.99641 0.0
H736 H 0.77501 0.24264 0.05329 0.0
H737 H 0.76502 0.23606 0.94825 0.0
C738 C 0.79921 0.26618 0.94394 0.0
C739 C 0.82045 0.28136 0.95863 0.0
C740 C 0.76281 0.22702 0.04087 0.0
C741 C 0.78429 0.24433 0.99129 0.0
C742 C 0.74412 0.20883 0.05669 0.0
C743 C 0.72808 0.1884 0.04107 0.0
C744 C 0.76517 0.225 0.00904 0.0
C745 C 0.73129 0.1869 0.00934 0.0
C746 C 0.78126 0.24756 0.96003 0.0
C747 C 0.82298 0.27734 0.98981 0.0
N748 N 0.74934 0.20506 0.99429 0.0
N749 N 0.805 0.25933 0.00523 0.0
H750 H 0.53152 0.79654 0.41695 0.0
H751 H 0.52992 0.73875 0.57697 0.0
H752 H 0.55153 0.83703 0.50087 0.0
H753 H 0.54964 0.71778 0.49323 0.0
H754 H 0.53176 0.772 0.54951 0.0
H755 H 0.53206 0.7645 0.44454 0.0
C756 C 0.53595 0.79865 0.44124 0.0
C757 C 0.54144 0.81945 0.45671 0.0
C758 C 0.53575 0.76015 0.53721 0.0
C759 C 0.5418 0.78276 0.48837 0.0
C760 C 0.53456 0.7411 0.55275 0.0
C761 C 0.53959 0.72546 0.53729 0.0
C762 C 0.54144 0.76328 0.50577 0.0
C763 C 0.54568 0.72945 0.50599 0.0
C764 C 0.53639 0.78043 0.45686 0.0
C765 C 0.54723 0.8213 0.4881 0.0
N766 N 0.54618 0.74785 0.49112 0.0
N767 N 0.547 0.80306 0.50304 0.0
H768 H 0.37074 0.42931 0.04776 0.0
H769 H 0.41465 0.35566 0.14459 0.0
H770 H 0.36297 0.41741 0.14586 0.0
H771 H 0.43203 0.37253 0.04874 0.0
H772 H 0.3876 0.3705 0.14141 0.0
H773 H 0.38567 0.40182 0.04393 0.0
C774 C 0.37161 0.42046 0.0683 0.0
C775 C 0.36585 0.42574 0.09722 0.0
C776 C 0.39699 0.37071 0.12083 0.0
C777 C 0.38282 0.39453 0.0931 0.0
C778 C 0.41235 0.3621 0.12265 0.0
C779 C 0.42561 0.363 0.09695 0.0
C780 C 0.39522 0.3809 0.09327 0.0
C781 C 0.422 0.37148 0.06903 0.0
C782 C 0.38025 0.40492 0.06616 0.0
C783 C 0.36747 0.41401 0.12318 0.0
N784 N 0.40743 0.38056 0.06804 0.0
N785 N 0.37592 0.39915 0.12052 0.0
H786 H 0.06368 0.42057 0.64228 0.0
H787 H 0.94683 0.37673 0.54437 0.0
H788 H 0.06516 0.4367 0.54577 0.0
H789 H 0.95001 0.36236 0.64061 0.0
H790 H 0.98952 0.39298 0.54073 0.0
H791 H 0.02191 0.39328 0.63854 0.0
C792 C 0.05515 0.41804 0.62012 0.0
C793 C 0.06777 0.43095 0.59437 0.0
C794 C 0.98075 0.3858 0.56244 0.0
C795 C 0.01956 0.40015 0.58993 0.0
C796 C 0.95642 0.37641 0.56444 0.0
C797 C 0.94504 0.36841 0.5929 0.0
C798 C 0.9935 0.38698 0.58907 0.0
C799 C 0.95819 0.36857 0.61832 0.0
C800 C 0.03124 0.40249 0.61795 0.0
C801 C 0.05595 0.42697 0.56614 0.0
N802 N 0.98164 0.37787 0.61586 0.0
N803 N 0.03234 0.4122 0.56476 0.0
H804 H 0.56057 0.93997 0.04579 0.0
H805 H 0.66564 0.06104 0.10956 0.0
H806 H 0.59857 0.94583 0.12915 0.0
H807 H 0.60735 0.05627 0.05893 0.0
H808 H 0.64885 0.01856 0.10394 0.0
H809 H 0.58525 0.98242 0.038 0.0
C810 C 0.57461 0.95012 0.06187 0.0
C811 C 0.57774 0.93954 0.08803 0.0
C812 C 0.64004 0.02692 0.09343 0.0
C813 C 0.60584 0.98776 0.07936 0.0
C814 C 0.6497 0.05109 0.09639 0.0
C815 C 0.63793 0.06201 0.08435 0.0
C816 C 0.61852 0.01368 0.07825 0.0
C817 C 0.61704 0.0484 0.06815 0.0
C818 C 0.58851 0.97429 0.05758 0.0
C819 C 0.59576 0.95343 0.10863 0.0
N820 N 0.6079 0.02489 0.06567 0.0
N821 N 0.60914 0.97685 0.10389 0.0
H822 H 0.6499 0.59285 0.6401 0.0
H823 H 0.57323 0.63382 0.54427 0.0
H824 H 0.62967 0.5719 0.54584 0.0
H825 H 0.58682 0.64306 0.64196 0.0
H826 H 0.60045 0.61855 0.54013 0.0
H827 H 0.63447 0.61937 0.63647 0.0
C828 C 0.64256 0.59424 0.61838 0.0
C829 C 0.64093 0.58016 0.59329 0.0
C830 C 0.59774 0.62432 0.56232 0.0
C831 C 0.62238 0.60995 0.58915 0.0
C832 C 0.58236 0.63315 0.56464 0.0
C833 C 0.57767 0.63947 0.59356 0.0
C834 C 0.60861 0.62219 0.58907 0.0
C835 C 0.58975 0.63812 0.6193 0.0
C836 C 0.63362 0.60928 0.61632 0.0
C837 C 0.6313 0.58259 0.56564 0.0
N838 N 0.60449 0.62954 0.61646 0.0
N839 N 0.62195 0.59691 0.56444 0.0
H840 H 0.94729 0.58929 0.14754 0.0
H841 H 0.06517 0.63599 0.05036 0.0
H842 H 0.94689 0.57468 0.05063 0.0
H843 H 0.06096 0.64398 0.14841 0.0
H844 H 0.02257 0.6202 0.04666 0.0
H845 H 0.98916 0.61648 0.1448 0.0
C846 C 0.95606 0.59219 0.12549 0.0
C847 C 0.94371 0.57967 0.09934 0.0
C848 C 0.0311 0.62582 0.06885 0.0
C849 C 0.99202 0.6103 0.09609 0.0
C850 C 0.05538 0.63494 0.07092 0.0
C851 C 0.06648 0.64102 0.09979 0.0
C852 C 0.01808 0.62307 0.09582 0.0
C853 C 0.05303 0.63919 0.12576 0.0
C854 C 0.98002 0.60765 0.12391 0.0
C855 C 0.95586 0.5841 0.0713 0.0
N856 N 0.02964 0.63027 0.12318 0.0
N857 N 0.9795 0.59877 0.07049 0.0
H858 H 0.43073 0.06416 0.55037 0.0
H859 H 0.36352 0.94558 0.64708 0.0
H860 H 0.42329 0.0592 0.64928 0.0
H861 H 0.37582 0.94597 0.54943 0.0
H862 H 0.37797 0.98738 0.64528 0.0
H863 H 0.40408 0.02156 0.54677 0.0
C864 C 0.42303 0.0542 0.57121 0.0
C865 C 0.42935 0.06511 0.6002 0.0
C866 C 0.37732 0.97844 0.62405 0.0
C867 C 0.3991 0.01669 0.59631 0.0
C868 C 0.36898 0.95451 0.6251 0.0
C869 C 0.3687 0.94241 0.59844 0.0
C870 C 0.38601 0.99065 0.59623 0.0
C871 C 0.37578 0.95475 0.57049 0.0
C872 C 0.40798 0.02992 0.56916 0.0
C873 C 0.41909 0.05144 0.6265 0.0
N874 N 0.38459 0.97837 0.57018 0.0
N875 N 0.40467 0.02803 0.62392 0.0
H876 H 0.59441 0.64857 0.85292 0.0
H877 H 0.63899 0.57471 0.94789 0.0
H878 H 0.57494 0.6286 0.94761 0.0
H879 H 0.6476 0.58828 0.85017 0.0
H880 H 0.62314 0.60139 0.95237 0.0
H881 H 0.62207 0.63448 0.85606 0.0
C882 C 0.59635 0.64158 0.87462 0.0
C883 C 0.58235 0.63959 0.89997 0.0
C884 C 0.62895 0.59884 0.9301 0.0
C885 C 0.61347 0.6226 0.90356 0.0
C886 C 0.63812 0.58378 0.92758 0.0
C887 C 0.64439 0.5792 0.89856 0.0
C888 C 0.62637 0.60948 0.90343 0.0
C889 C 0.64273 0.59116 0.87291 0.0
C890 C 0.61206 0.63341 0.8764 0.0
C891 C 0.58553 0.63046 0.92759 0.0
N892 N 0.63377 0.60557 0.87593 0.0
N893 N 0.60049 0.62185 0.92852 0.0
H894 H 0.94389 0.57251 0.45292 0.0
H895 H 0.06198 0.65161 0.3589 0.0
H896 H 0.94867 0.58802 0.35578 0.0
H897 H 0.06222 0.62838 0.45162 0.0
H898 H 0.02 0.63629 0.3627 0.0
H899 H 0.98636 0.5998 0.45768 0.0
C900 C 0.95378 0.5821 0.43283 0.0
C901 C 0.94292 0.57795 0.40386 0.0
C902 C 0.02915 0.63477 0.3825 0.0
C903 C 0.99109 0.60894 0.40905 0.0
C904 C 0.05314 0.64366 0.38035 0.0
C905 C 0.06544 0.64115 0.40493 0.0
C906 C 0.01711 0.62271 0.4092 0.0
C907 C 0.05326 0.6307 0.43223 0.0
C908 C 0.97797 0.59751 0.43549 0.0
C909 C 0.95645 0.59057 0.37847 0.0
N910 N 0.02959 0.62143 0.43348 0.0
N911 N 0.97975 0.60533 0.38162 0.0
H912 H 0.43438 0.06361 0.95046 0.0
H913 H 0.36447 0.94654 0.85097 0.0
H914 H 0.42638 0.0601 0.85162 0.0
H915 H 0.37656 0.94505 0.94838 0.0
H916 H 0.38024 0.98853 0.85397 0.0
H917 H 0.40721 0.02103 0.95316 0.0
C918 C 0.42648 0.05398 0.92947 0.0
C919 C 0.43275 0.06529 0.90073 0.0
C920 C 0.37928 0.97915 0.87489 0.0
C921 C 0.40191 0.01691 0.90359 0.0
C922 C 0.37017 0.95511 0.87317 0.0
C923 C 0.3694 0.94238 0.8994 0.0
C924 C 0.38824 0.99086 0.90298 0.0
C925 C 0.37685 0.9543 0.92763 0.0
C926 C 0.41113 0.02971 0.93099 0.0
C927 C 0.42222 0.05203 0.87421 0.0
N928 N 0.38639 0.97802 0.92862 0.0
N929 N 0.40751 0.02865 0.87629 0.0
H930 H 0.35012 0.40809 0.41397 0.0
H931 H 0.47421 0.41414 0.41937 0.0
H932 H 0.41757 0.47082 0.41105 0.0
H933 H 0.40984 0.34885 0.40861 0.0
H934 H 0.45203 0.43395 0.42746 0.0
H935 H 0.36986 0.3851 0.42197 0.0
C936 C 0.369 0.41702 0.41571 0.0
C937 C 0.38231 0.44133 0.41165 0.0
C938 C 0.44257 0.41525 0.42366 0.0
C939 C 0.40483 0.41541 0.42074 0.0
C940 C 0.45528 0.40393 0.41916 0.0
C941 C 0.44381 0.37991 0.41314 0.0
C942 C 0.41806 0.40261 0.42149 0.0
C943 C 0.41926 0.36743 0.41326 0.0
C944 C 0.38024 0.40393 0.42006 0.0
C945 C 0.40668 0.45209 0.41378 0.0
N946 N 0.40712 0.37902 0.41684 0.0
N947 N 0.41708 0.4391 0.41803 0.0
H948 H 0.06585 0.43051 0.94639 0.0
H949 H 0.94819 0.3591 0.84845 0.0
H950 H 0.06177 0.42184 0.84764 0.0
H951 H 0.94735 0.37267 0.94551 0.0
H952 H 0.99023 0.37491 0.8511 0.0
H953 H 0.02334 0.40311 0.94963 0.0
C954 C 0.05612 0.42241 0.92553 0.0
C955 C 0.06725 0.42857 0.89666 0.0
C956 C 0.98097 0.37424 0.87202 0.0
C957 C 0.01892 0.39745 0.90014 0.0
C958 C 0.9569 0.3651 0.87051 0.0
C959 C 0.94435 0.36475 0.89673 0.0
C960 C 0.99287 0.38365 0.89988 0.0
C961 C 0.95645 0.37261 0.92478 0.0
C962 C 0.03189 0.40693 0.92736 0.0
C963 C 0.05385 0.41778 0.87033 0.0
N964 N 0.98019 0.38217 0.92554 0.0
N965 N 0.03049 0.40294 0.8727 0.0
H966 H 0.5776 0.94583 0.44884 0.0
H967 H 0.65335 0.06305 0.35229 0.0
H968 H 0.59356 0.94959 0.35192 0.0
H969 H 0.63372 0.06386 0.44684 0.0
H970 H 0.63887 0.0213 0.35634 0.0
H971 H 0.60457 0.98837 0.45287 0.0
C972 C 0.58725 0.95552 0.42866 0.0
C973 C 0.58327 0.94435 0.39994 0.0
C974 C 0.63793 0.03051 0.37645 0.0
C975 C 0.61384 0.99263 0.40426 0.0
C976 C 0.6463 0.05439 0.37413 0.0
C977 C 0.64454 0.06678 0.39918 0.0
C978 C 0.62711 0.01865 0.40384 0.0
C979 C 0.63538 0.05482 0.42703 0.0
C980 C 0.60248 0.97975 0.4309 0.0
C981 C 0.59597 0.95762 0.37442 0.0
N982 N 0.62655 0.03123 0.42848 0.0
N983 N 0.61049 0.98098 0.37714 0.0
H984 H 0.45135 0.59199 0.90863 0.0
H985 H 0.41267 0.55639 0.08348 0.0
H986 H 0.49208 0.63255 0.98667 0.0
H987 H 0.37418 0.51345 0.00575 0.0
H988 H 0.43908 0.5867 0.0482 0.0
H989 H 0.42055 0.56576 0.94356 0.0
C990 C 0.45381 0.59552 0.93314 0.0
C991 C 0.4746 0.61441 0.94472 0.0
C992 C 0.4248 0.57074 0.03879 0.0
C993 C 0.43912 0.58417 0.98497 0.0
C994 C 0.40964 0.55332 0.05894 0.0
C995 C 0.39128 0.53208 0.0476 0.0
C996 C 0.42175 0.56702 0.00691 0.0
C997 C 0.38814 0.52943 0.01556 0.0
C998 C 0.43613 0.58047 0.95308 0.0
C999 C 0.47648 0.61817 0.97669 0.0
N1000 N 0.40338 0.54661 0.99632 0.0
N1001 N 0.45906 0.60304 0.99572 0.0
H1002 H 0.85895 0.41199 0.58726 0.0
H1003 H 0.85492 0.44763 0.41276 0.0
H1004 H 0.85921 0.37183 0.50881 0.0
H1005 H 0.86035 0.49069 0.49081 0.0
H1006 H 0.85062 0.41706 0.44787 0.0
H1007 H 0.8537 0.43794 0.55265 0.0
C1008 C 0.85774 0.40848 0.56273 0.0
C1009 C 0.85989 0.38981 0.55094 0.0
C1010 C 0.85255 0.43309 0.45738 0.0
C1011 C 0.85388 0.4197 0.51106 0.0
C1012 C 0.85504 0.45064 0.43733 0.0
C1013 C 0.85839 0.47201 0.44883 0.0
C1014 C 0.8535 0.43683 0.48928 0.0
C1015 C 0.85797 0.4746 0.48089 0.0
C1016 C 0.85472 0.42336 0.54297 0.0
C1017 C 0.85782 0.38605 0.51897 0.0
N1018 N 0.85585 0.45732 0.50001 0.0
N1019 N 0.85517 0.40102 0.50012 0.0
H1020 H 0.40902 0.85171 0.91211 0.0
H1021 H 0.45057 0.85666 0.08582 0.0
H1022 H 0.37409 0.86086 0.99056 0.0
H1023 H 0.4892 0.85444 0.00674 0.0
H1024 H 0.41945 0.85235 0.05179 0.0
H1025 H 0.43505 0.84675 0.94689 0.0
C1026 C 0.40668 0.85253 0.93672 0.0
C1027 C 0.38951 0.8571 0.9484 0.0
C1028 C 0.43462 0.85262 0.04185 0.0
C1029 C 0.41951 0.85143 0.98846 0.0
C1030 C 0.4525 0.8551 0.06127 0.0
C1031 C 0.47281 0.85628 0.04912 0.0
C1032 C 0.43694 0.85132 0.00992 0.0
C1033 C 0.47399 0.85379 0.01715 0.0
C1034 C 0.42161 0.84966 0.95656 0.0
C1035 C 0.38715 0.85753 0.9805 0.0
N1036 N 0.4564 0.85166 -0.00138 0.0
N1037 N 0.40217 0.85499 -0.00057 0.0
H1038 H 0.51857 0.37005 0.49044 0.0
H1039 H 0.63973 0.48987 0.50883 0.0
H1040 H 0.56442 0.40726 0.41435 0.0
H1041 H 0.59512 0.4509 0.58511 0.0
H1042 H 0.6145 0.45764 0.47433 0.0
H1043 H 0.54868 0.39707 0.52615 0.0
C1044 C 0.53506 0.38363 0.48124 0.0
C1045 C 0.53876 0.38657 0.4493 0.0
C1046 C 0.61038 0.4561 0.49869 0.0
C1047 C 0.57322 0.41774 0.48999 0.0
C1048 C 0.6248 0.47452 0.51839 0.0
C1049 C 0.61942 0.47333 0.54988 0.0
C1050 C 0.59043 0.43638 0.51057 0.0
C1051 C 0.59986 0.45285 0.56096 0.0
C1052 C 0.55223 0.39914 0.50163 0.0
C1053 C 0.56057 0.4045 0.43875 0.0
N1054 N 0.58602 0.43535 0.54132 0.0
N1055 N 0.57681 0.41953 0.45899 0.0
H1056 H 0.14982 0.55839 0.91363 0.0
H1057 H 0.14996 0.59548 0.08865 0.0
H1058 H 0.14605 0.51571 0.99128 0.0
H1059 H 0.14888 0.63555 0.01065 0.0
H1060 H 0.15325 0.56858 0.05355 0.0
H1061 H 0.1541 0.5888 0.94893 0.0
C1062 C 0.14997 0.55537 0.93816 0.0
C1063 C 0.14723 0.53419 0.94946 0.0
C1064 C 0.15246 0.58332 0.04407 0.0
C1065 C 0.15218 0.5693 0.99019 0.0
C1066 C 0.15057 0.59878 0.06411 0.0
C1067 C 0.14883 0.61775 0.05262 0.0
C1068 C 0.15257 0.58673 0.01218 0.0
C1069 C 0.15004 0.62115 0.02059 0.0
C1070 C 0.15246 0.57286 0.95832 0.0
C1071 C 0.14795 0.53163 0.98149 0.0
N1072 N 0.15163 0.60566 0.00148 0.0
N1073 N 0.15016 0.54891 0.00076 0.0
H1074 H 0.5137 0.14308 0.50377 0.0
H1075 H 0.63844 0.15153 0.48494 0.0
H1076 H 0.55886 0.1497 0.57979 0.0
H1077 H 0.59356 0.14455 0.40838 0.0
H1078 H 0.61116 0.15498 0.51971 0.0
H1079 H 0.54443 0.14761 0.46791 0.0
C1080 C 0.53008 0.14569 0.51293 0.0
C1081 C 0.53351 0.14566 0.54485 0.0
C1082 C 0.60739 0.15286 0.49525 0.0
C1083 C 0.56868 0.1508 0.50407 0.0
C1084 C 0.62302 0.15094 0.47538 0.0
C1085 C 0.61822 0.14744 0.4437 0.0
C1086 C 0.5868 0.15125 0.48337 0.0
C1087 C 0.59792 0.14692 0.43266 0.0
C1088 C 0.54761 0.14823 0.49247 0.0
C1089 C 0.5552 0.14921 0.55539 0.0
N1090 N 0.58291 0.1486 0.45246 0.0
N1091 N 0.57182 0.15147 0.53511 0.0
H1092 H 0.51482 0.37168 0.00552 0.0
H1093 H 0.637 0.49134 0.98925 0.0
H1094 H 0.55636 0.41283 0.08273 0.0
H1095 H 0.59573 0.45024 0.91183 0.0
H1096 H 0.60951 0.46063 0.02399 0.0
H1097 H 0.54616 0.39824 0.97069 0.0
C1098 C 0.53055 0.38612 0.01518 0.0
C1099 C 0.53274 0.39016 0.04708 0.0
C1100 C 0.6066 0.4583 -0.00064 0.0
C1101 C 0.56863 0.42063 0.00747 0.0
C1102 C 0.62234 0.47582 0.97952 0.0
C1103 C 0.61856 0.47359 0.94757 0.0
C1104 C 0.58696 0.43843 0.98714 0.0
C1105 C 0.59925 0.45298 0.93631 0.0
C1106 C 0.54843 0.40131 0.99531 0.0
C1107 C 0.55363 0.40915 0.05828 0.0
N1108 N 0.58412 0.43634 0.95604 0.0
N1109 N 0.57062 0.42372 0.03853 0.0
H1110 H 0.15023 0.59623 0.40812 0.0
H1111 H 0.15806 0.56154 0.58193 0.0
H1112 H 0.1523 0.63711 0.48706 0.0
H1113 H 0.14849 0.51693 0.50397 0.0
H1114 H 0.1622 0.59206 0.54685 0.0
H1115 H 0.15564 0.5701 0.44216 0.0
C1116 C 0.15198 0.59987 0.43263 0.0
C1117 C 0.15043 0.61881 0.44475 0.0
C1118 C 0.15938 0.5757 0.53734 0.0
C1119 C 0.15667 0.5887 0.48396 0.0
C1120 C 0.157 0.55818 0.55736 0.0
C1121 C 0.15252 0.5364 0.54592 0.0
C1122 C 0.15722 0.57153 0.50551 0.0
C1123 C 0.15177 0.53335 0.51385 0.0
C1124 C 0.15509 0.58487 0.45206 0.0
C1125 C 0.1532 0.62269 0.47667 0.0
N1126 N 0.15382 0.55063 0.49475 0.0
N1127 N 0.15596 0.60762 0.49519 0.0
H1128 H 0.5997 0.14909 0.09222 0.0
H1129 H 0.5633 0.15374 0.91828 0.0
H1130 H 0.64016 0.15077 0.01299 0.0
H1131 H 0.51859 0.14409 0.99619 0.0
H1132 H 0.59413 0.15885 0.95334 0.0
H1133 H 0.57289 0.15353 0.05817 0.0
C1134 C 0.60313 0.15062 0.06766 0.0
C1135 C 0.62211 0.14918 0.05545 0.0
C1136 C 0.57767 0.15577 0.96286 0.0
C1137 C 0.59123 0.15423 0.01628 0.0
C1138 C 0.55994 0.1528 0.94283 0.0
C1139 C 0.53807 0.14806 0.95425 0.0
C1140 C 0.57364 0.15396 0.99472 0.0
C1141 C 0.53507 0.14752 0.98633 0.0
C1142 C 0.58773 0.15314 0.04824 0.0
C1143 C 0.62572 0.15161 0.02347 0.0
N1144 N 0.5526 0.15018 0.00547 0.0
N1145 N 0.61028 0.15378 0.00498 0.0
H1146 H 0.49019 0.6384 0.50561 0.0
H1147 H 0.36981 0.51784 0.48661 0.0
H1148 H 0.44858 0.59588 0.58187 0.0
H1149 H 0.40982 0.56134 0.41008 0.0
H1150 H 0.39613 0.54861 0.52205 0.0
H1151 H 0.45879 0.61269 0.47032 0.0
C1152 C 0.47441 0.62386 0.51499 0.0
C1153 C 0.47225 0.61916 0.54675 0.0
C1154 C 0.39898 0.55151 0.49747 0.0
C1155 C 0.43628 0.58961 0.50653 0.0
C1156 C 0.38388 0.53394 0.47721 0.0
C1157 C 0.38775 0.53678 0.44529 0.0
C1158 C 0.41813 0.57203 0.48574 0.0
C1159 C 0.40629 0.55814 0.43451 0.0
C1160 C 0.45648 0.60915 0.49483 0.0
C1161 C 0.45128 0.60007 0.55755 0.0
N1162 N 0.42091 0.57479 0.45466 0.0
N1163 N 0.43427 0.58593 0.53751 0.0
H1164 H 0.8625 0.37001 0.98828 0.0
H1165 H 0.86323 0.49112 0.00561 0.0
H1166 H 0.86089 0.41057 0.9112 0.0
H1167 H 0.86382 0.44982 0.08243 0.0
H1168 H 0.85863 0.45998 0.97057 0.0
H1169 H 0.85906 0.39719 0.02332 0.0
C1170 C 0.86118 0.38443 0.9787 0.0
C1171 C 0.86232 0.38813 0.94674 0.0
C1172 C 0.85961 0.45772 0.99515 0.0
C1173 C 0.85854 0.41941 0.98665 0.0
C1174 C 0.86222 0.4755 0.01514 0.0
C1175 C 0.86425 0.47331 0.047 0.0
C1176 C 0.85903 0.43764 0.00713 0.0
C1177 C 0.86269 0.45254 0.05803 0.0
C1178 C 0.85928 0.40001 -0.0013 0.0
C1179 C 0.86044 0.40714 0.93567 0.0
N1180 N 0.86035 0.43566 0.03816 0.0
N1181 N 0.85885 0.42213 0.95556 0.0
H1182 H 0.49373 0.85884 0.48668 0.0
H1183 H 0.3746 0.86197 0.50484 0.0
H1184 H 0.45422 0.86299 0.41 0.0
H1185 H 0.41386 0.85716 0.58131 0.0
H1186 H 0.40133 0.85812 0.4693 0.0
H1187 H 0.46243 0.85405 0.52148 0.0
C1188 C 0.47844 0.85853 0.4771 0.0
C1189 C 0.47684 0.86165 0.44538 0.0
C1190 C 0.40394 0.85771 0.49389 0.0
C1191 C 0.44097 0.85627 0.48505 0.0
C1192 C 0.38863 0.85984 0.51418 0.0
C1193 C 0.39214 0.86024 0.54613 0.0
C1194 C 0.42287 0.85596 0.50567 0.0
C1195 C 0.41063 0.85734 0.55688 0.0
C1196 C 0.46057 0.85583 0.49698 0.0
C1197 C 0.45648 0.86098 0.43431 0.0
N1198 N 0.42536 0.85552 0.53674 0.0
N1199 N 0.43949 0.85856 0.45411 0.0
loop_
_geom_bond_atom_site_label_1
_geom_bond_atom_site_label_2
_geom_bond_distance
_geom_bond_site_symmetry_2
_ccdc_geom_bond_type
Co0 O1 2.216 . S
Co0 O2 2.091 . S
Co0 O4 2.004 . S
Co0 O10 2.021 . S
Co0 O12 2.137 . S
Co0 O13 2.244 . S
O1 Co0 2.216 . S
O1 C8 1.247 . S
O2 Co0 2.091 . S
O2 C8 1.261 . S
C3 O12 1.247 . S
C3 O13 1.272 . S
O4 Co0 2.004 . S
O4 C9 1.259 . S
Co5 O6 2.061 . S
Co5 O11 2.052 . S
Co5 O13 2.135 . S
O6 Co5 2.061 . S
O6 C9 1.235 . S
C7 O10 1.238 . S
C7 O11 1.241 . S
C8 O1 1.247 . S
C8 O2 1.261 . S
C9 O4 1.259 . S
C9 O6 1.235 . S
O10 Co0 2.021 . S
O10 C7 1.238 . S
O11 Co5 2.052 . S
O11 C7 1.241 . S
O12 Co0 2.137 . S
O12 C3 1.247 . S
O13 Co0 2.244 . S
O13 C3 1.272 . S
O13 Co5 2.135 . S
Co14 O15 2.216 . S
Co14 O16 2.091 . S
Co14 O18 2.004 . S
Co14 O24 2.021 . S
Co14 O26 2.137 . S
Co14 O27 2.244 . S
O15 Co14 2.216 . S
O15 C22 1.247 . S
O16 Co14 2.091 . S
O16 C22 1.261 . S
C17 O26 1.247 . S
C17 O27 1.272 . S
O18 Co14 2.004 . S
O18 C23 1.259 . S
Co19 O20 2.061 . S
Co19 O25 2.052 . S
Co19 O27 2.135 . S
O20 Co19 2.061 . S
O20 C23 1.235 . S
C21 O24 1.238 . S
C21 O25 1.241 . S
C22 O15 1.247 . S
C22 O16 1.261 . S
C23 O18 1.259 . S
C23 O20 1.235 . S
O24 Co14 2.021 . S
O24 C21 1.238 . S
O25 Co19 2.052 . S
O25 C21 1.241 . S
O26 Co14 2.137 . S
O26 C17 1.247 . S
O27 Co14 2.244 . S
O27 C17 1.272 . S
O27 Co19 2.135 . S
Co28 O29 2.216 . S
Co28 O30 2.091 . S
Co28 O32 2.004 . S
Co28 O38 2.021 . S
Co28 O40 2.137 . S
Co28 O41 2.244 . S
O29 Co28 2.216 . S
O29 C36 1.247 . S
O30 Co28 2.091 . S
O30 C36 1.261 . S
C31 O40 1.247 . S
C31 O41 1.272 . S
O32 Co28 2.004 . S
O32 C37 1.259 . S
Co33 O34 2.061 . S
Co33 O39 2.052 . S
Co33 O41 2.135 . S
O34 Co33 2.061 . S
O34 C37 1.235 . S
C35 O38 1.238 . S
C35 O39 1.241 . S
C36 O29 1.247 . S
C36 O30 1.261 . S
C37 O32 1.259 . S
C37 O34 1.235 . S
O38 Co28 2.021 . S
O38 C35 1.238 . S
O39 Co33 2.052 . S
O39 C35 1.241 . S
O40 Co28 2.137 . S
O40 C31 1.247 . S
O41 Co28 2.244 . S
O41 C31 1.272 . S
O41 Co33 2.135 . S
Co42 O43 2.216 . S
Co42 O44 2.091 . S
Co42 O46 2.004 . S
Co42 O52 2.021 . S
Co42 O54 2.137 . S
Co42 O55 2.244 . S
O43 Co42 2.216 . S
O43 C50 1.247 . S
O44 Co42 2.091 . S
O44 C50 1.261 . S
C45 O54 1.247 . S
C45 O55 1.272 . S
O46 Co42 2.004 . S
O46 C51 1.259 . S
Co47 O48 2.061 . S
Co47 O53 2.052 . S
Co47 O55 2.135 . S
O48 Co47 2.061 . S
O48 C51 1.235 . S
C49 O52 1.238 . S
C49 O53 1.241 . S
C50 O43 1.247 . S
C50 O44 1.261 . S
C51 O46 1.259 . S
C51 O48 1.235 . S
O52 Co42 2.021 . S
O52 C49 1.238 . S
O53 Co47 2.052 . S
O53 C49 1.241 . S
O54 Co42 2.137 . S
O54 C45 1.247 . S
O55 Co42 2.244 . S
O55 C45 1.272 . S
O55 Co47 2.135 . S
Co56 O57 2.216 . S
Co56 O58 2.091 . S
Co56 O60 2.004 . S
Co56 O66 2.021 . S
Co56 O68 2.137 . S
Co56 O69 2.244 . S
O57 Co56 2.216 . S
O57 C64 1.247 . S
O58 Co56 2.091 . S
O58 C64 1.261 . S
C59 O68 1.247 . S
C59 O69 1.272 . S
O60 Co56 2.004 . S
O60 C65 1.259 . S
Co61 O62 2.061 . S
Co61 O67 2.052 . S
Co61 O69 2.135 . S
O62 Co61 2.061 . S
O62 C65 1.235 . S
C63 O66 1.238 . S
C63 O67 1.241 . S
C64 O57 1.247 . S
C64 O58 1.261 . S
C65 O60 1.259 . S
C65 O62 1.235 . S
O66 Co56 2.021 . S
O66 C63 1.238 . S
O67 Co61 2.052 . S
O67 C63 1.241 . S
O68 Co56 2.137 . S
O68 C59 1.247 . S
O69 Co56 2.244 . S
O69 C59 1.272 . S
O69 Co61 2.135 . S
Co70 O71 2.216 . S
Co70 O72 2.091 . S
Co70 O74 2.004 . S
Co70 O80 2.021 . S
Co70 O82 2.137 . S
Co70 O83 2.244 . S
O71 Co70 2.216 . S
O71 C78 1.247 . S
O72 Co70 2.091 . S
O72 C78 1.261 . S
C73 O82 1.247 . S
C73 O83 1.272 . S
O74 Co70 2.004 . S
O74 C79 1.259 . S
Co75 O76 2.061 . S
Co75 O81 2.052 . S
Co75 O83 2.135 . S
O76 Co75 2.061 . S
O76 C79 1.235 . S
C77 O80 1.238 . S
C77 O81 1.241 . S
C78 O71 1.247 . S
C78 O72 1.261 . S
C79 O74 1.259 . S
C79 O76 1.235 . S
O80 Co70 2.021 . S
O80 C77 1.238 . S
O81 Co75 2.052 . S
O81 C77 1.241 . S
O82 Co70 2.137 . S
O82 C73 1.247 . S
O83 Co70 2.244 . S
O83 C73 1.272 . S
O83 Co75 2.135 . S
Co84 O85 2.216 . S
Co84 O86 2.091 . S
Co84 O88 2.004 . S
Co84 O94 2.021 . S
Co84 O96 2.137 . S
Co84 O97 2.244 . S
O85 Co84 2.216 . S
O85 C92 1.247 . S
O86 Co84 2.091 . S
O86 C92 1.261 . S
C87 O96 1.247 . S
C87 O97 1.272 . S
O88 Co84 2.004 . S
O88 C93 1.259 . S
Co89 O90 2.061 . S
Co89 O95 2.052 . S
Co89 O97 2.135 . S
O90 Co89 2.061 . S
O90 C93 1.235 . S
C91 O94 1.238 . S
C91 O95 1.241 . S
C92 O85 1.247 . S
C92 O86 1.261 . S
C93 O88 1.259 . S
C93 O90 1.235 . S
O94 Co84 2.021 . S
O94 C91 1.238 . S
O95 Co89 2.052 . S
O95 C91 1.241 . S
O96 Co84 2.137 . S
O96 C87 1.247 . S
O97 Co84 2.244 . S
O97 C87 1.272 . S
O97 Co89 2.135 . S
Co98 O99 2.216 . S
Co98 O100 2.091 . S
Co98 O102 2.004 . S
Co98 O108 2.021 . S
Co98 O110 2.137 . S
Co98 O111 2.244 . S
O99 Co98 2.216 . S
O99 C106 1.247 . S
O100 Co98 2.091 . S
O100 C106 1.261 . S
C101 O110 1.247 . S
C101 O111 1.272 . S
O102 Co98 2.004 . S
O102 C107 1.259 . S
Co103 O104 2.061 . S
Co103 O109 2.052 . S
Co103 O111 2.135 . S
O104 Co103 2.061 . S
O104 C107 1.235 . S
C105 O108 1.238 . S
C105 O109 1.241 . S
C106 O99 1.247 . S
C106 O100 1.261 . S
C107 O102 1.259 . S
C107 O104 1.235 . S
O108 Co98 2.021 . S
O108 C105 1.238 . S
O109 Co103 2.052 . S
O109 C105 1.241 . S
O110 Co98 2.137 . S
O110 C101 1.247 . S
O111 Co98 2.244 . S
O111 C101 1.272 . S
O111 Co103 2.135 . S
Co112 O113 2.216 . S
Co112 O114 2.091 . S
Co112 O116 2.004 . S
Co112 O122 2.021 . S
Co112 O124 2.137 . S
Co112 O125 2.244 . S
O113 Co112 2.216 . S
O113 C120 1.247 . S
O114 Co112 2.091 . S
O114 C120 1.261 . S
C115 O124 1.247 . S
C115 O125 1.272 . S
O116 Co112 2.004 . S
O116 C121 1.259 . S
Co117 O118 2.061 . S
Co117 O123 2.052 . S
Co117 O125 2.135 . S
O118 Co117 2.061 . S
O118 C121 1.235 . S
C119 O122 1.238 . S
C119 O123 1.241 . S
C120 O113 1.247 . S
C120 O114 1.261 . S
C121 O116 1.259 . S
C121 O118 1.235 . S
O122 Co112 2.021 . S
O122 C119 1.238 . S
O123 Co117 2.052 . S
O123 C119 1.241 . S
O124 Co112 2.137 . S
O124 C115 1.247 . S
O125 Co112 2.244 . S
O125 C115 1.272 . S
O125 Co117 2.135 . S
Co126 O127 2.216 . S
Co126 O128 2.091 . S
Co126 O130 2.004 . S
Co126 O136 2.021 . S
Co126 O138 2.137 . S
Co126 O139 2.244 . S
O127 Co126 2.216 . S
O127 C134 1.247 . S
O128 Co126 2.091 . S
O128 C134 1.261 . S
C129 O138 1.247 . S
C129 O139 1.272 . S
O130 Co126 2.004 . S
O130 C135 1.259 . S
Co131 O132 2.061 . S
Co131 O137 2.052 . S
Co131 O139 2.135 . S
O132 Co131 2.061 . S
O132 C135 1.235 . S
C133 O136 1.238 . S
C133 O137 1.241 . S
C134 O127 1.247 . S
C134 O128 1.261 . S
C135 O130 1.259 . S
C135 O132 1.235 . S
O136 Co126 2.021 . S
O136 C133 1.238 . S
O137 Co131 2.052 . S
O137 C133 1.241 . S
O138 Co126 2.137 . S
O138 C129 1.247 . S
O139 Co126 2.244 . S
O139 C129 1.272 . S
O139 Co131 2.135 . S
Co140 O141 2.216 . S
Co140 O142 2.091 . S
Co140 O144 2.004 . S
Co140 O150 2.021 . S
Co140 O152 2.137 . S
Co140 O153 2.244 . S
O141 Co140 2.216 . S
O141 C148 1.247 . S
O142 Co140 2.091 . S
O142 C148 1.261 . S
C143 O152 1.247 . S
C143 O153 1.272 . S
O144 Co140 2.004 . S
O144 C149 1.259 . S
Co145 O146 2.061 . S
Co145 O151 2.052 . S
Co145 O153 2.135 . S
O146 Co145 2.061 . S
O146 C149 1.235 . S
C147 O150 1.238 . S
C147 O151 1.241 . S
C148 O141 1.247 . S
C148 O142 1.261 . S
C149 O144 1.259 . S
C149 O146 1.235 . S
O150 Co140 2.021 . S
O150 C147 1.238 . S
O151 Co145 2.052 . S
O151 C147 1.241 . S
O152 Co140 2.137 . S
O152 C143 1.247 . S
O153 Co140 2.244 . S
O153 C143 1.272 . S
O153 Co145 2.135 . S
Co154 O155 2.216 . S
Co154 O156 2.091 . S
Co154 O158 2.004 . S
Co154 O164 2.021 . S
Co154 O166 2.137 . S
Co154 O167 2.244 . S
O155 Co154 2.216 . S
O155 C162 1.247 . S
O156 Co154 2.091 . S
O156 C162 1.261 . S
C157 O166 1.247 . S
C157 O167 1.272 . S
O158 Co154 2.004 . S
O158 C163 1.259 . S
Co159 O160 2.061 . S
Co159 O165 2.052 . S
Co159 O167 2.135 . S
O160 Co159 2.061 . S
O160 C163 1.235 . S
C161 O164 1.238 . S
C161 O165 1.241 . S
C162 O155 1.247 . S
C162 O156 1.261 . S
C163 O158 1.259 . S
C163 O160 1.235 . S
O164 Co154 2.021 . S
O164 C161 1.238 . S
O165 Co159 2.052 . S
O165 C161 1.241 . S
O166 Co154 2.137 . S
O166 C157 1.247 . S
O167 Co154 2.244 . S
O167 C157 1.272 . S
O167 Co159 2.135 . S
Co168 O169 2.216 . S
Co168 O170 2.091 . S
Co168 O172 2.004 . S
Co168 O178 2.021 . S
Co168 O180 2.137 . S
Co168 O181 2.244 . S
O169 Co168 2.216 . S
O169 C176 1.247 . S
O170 Co168 2.091 . S
O170 C176 1.261 . S
C171 O180 1.247 . S
C171 O181 1.272 . S
O172 Co168 2.004 . S
O172 C177 1.259 . S
Co173 O174 2.061 . S
Co173 O179 2.052 . S
Co173 O181 2.135 . S
O174 Co173 2.061 . S
O174 C177 1.235 . S
C175 O178 1.238 . S
C175 O179 1.241 . S
C176 O169 1.247 . S
C176 O170 1.261 . S
C177 O172 1.259 . S
C177 O174 1.235 . S
O178 Co168 2.021 . S
O178 C175 1.238 . S
O179 Co173 2.052 . S
O179 C175 1.241 . S
O180 Co168 2.137 . S
O180 C171 1.247 . S
O181 Co168 2.244 . S
O181 C171 1.272 . S
O181 Co173 2.135 . S
Co182 O183 2.216 . S
Co182 O184 2.091 . S
Co182 O186 2.004 . S
Co182 O192 2.021 . S
Co182 O194 2.137 . S
Co182 O195 2.244 . S
O183 Co182 2.216 . S
O183 C190 1.247 . S
O184 Co182 2.091 . S
O184 C190 1.261 . S
C185 O194 1.247 . S
C185 O195 1.272 . S
O186 Co182 2.004 . S
O186 C191 1.259 . S
Co187 O188 2.061 . S
Co187 O193 2.052 . S
Co187 O195 2.135 . S
O188 Co187 2.061 . S
O188 C191 1.235 . S
C189 O192 1.238 . S
C189 O193 1.241 . S
C190 O183 1.247 . S
C190 O184 1.261 . S
C191 O186 1.259 . S
C191 O188 1.235 . S
O192 Co182 2.021 . S
O192 C189 1.238 . S
O193 Co187 2.052 . S
O193 C189 1.241 . S
O194 Co182 2.137 . S
O194 C185 1.247 . S
O195 Co182 2.244 . S
O195 C185 1.272 . S
O195 Co187 2.135 . S
Co196 O197 2.216 . S
Co196 O198 2.091 . S
Co196 O200 2.004 . S
Co196 O206 2.021 . S
Co196 O208 2.137 . S
Co196 O209 2.244 . S
O197 Co196 2.216 . S
O197 C204 1.247 . S
O198 Co196 2.091 . S
O198 C204 1.261 . S
C199 O208 1.247 . S
C199 O209 1.272 . S
O200 Co196 2.004 . S
O200 C205 1.259 . S
Co201 O202 2.061 . S
Co201 O207 2.052 . S
Co201 O209 2.135 . S
O202 Co201 2.061 . S
O202 C205 1.235 . S
C203 O206 1.238 . S
C203 O207 1.241 . S
C204 O197 1.247 . S
C204 O198 1.261 . S
C205 O200 1.259 . S
C205 O202 1.235 . S
O206 Co196 2.021 . S
O206 C203 1.238 . S
O207 Co201 2.052 . S
O207 C203 1.241 . S
O208 Co196 2.137 . S
O208 C199 1.247 . S
O209 Co196 2.244 . S
O209 C199 1.272 . S
O209 Co201 2.135 . S
Co210 O211 2.216 . S
Co210 O212 2.091 . S
Co210 O214 2.004 . S
Co210 O220 2.021 . S
Co210 O222 2.137 . S
Co210 O223 2.244 . S
O211 Co210 2.216 . S
O211 C218 1.247 . S
O212 Co210 2.091 . S
O212 C218 1.261 . S
C213 O222 1.247 . S
C213 O223 1.272 . S
O214 Co210 2.004 . S
O214 C219 1.259 . S
Co215 O216 2.061 . S
Co215 O221 2.052 . S
Co215 O223 2.135 . S
O216 Co215 2.061 . S
O216 C219 1.235 . S
C217 O220 1.238 . S
C217 O221 1.241 . S
C218 O211 1.247 . S
C218 O212 1.261 . S
C219 O214 1.259 . S
C219 O216 1.235 . S
O220 Co210 2.021 . S
O220 C217 1.238 . S
O221 Co215 2.052 . S
O221 C217 1.241 . S
O222 Co210 2.137 . S
O222 C213 1.247 . S
O223 Co210 2.244 . S
O223 C213 1.272 . S
O223 Co215 2.135 . S
Co224 O225 2.216 . S
Co224 O226 2.091 . S
Co224 O228 2.004 . S
Co224 O234 2.021 . S
Co224 O236 2.137 . S
Co224 O237 2.244 . S
O225 Co224 2.216 . S
O225 C232 1.247 . S
O226 Co224 2.091 . S
O226 C232 1.261 . S
C227 O236 1.247 . S
C227 O237 1.272 . S
O228 Co224 2.004 . S
O228 C233 1.259 . S
Co229 O230 2.061 . S
Co229 O235 2.052 . S
Co229 O237 2.135 . S
O230 Co229 2.061 . S
O230 C233 1.235 . S
C231 O234 1.238 . S
C231 O235 1.241 . S
C232 O225 1.247 . S
C232 O226 1.261 . S
C233 O228 1.259 . S
C233 O230 1.235 . S
O234 Co224 2.021 . S
O234 C231 1.238 . S
O235 Co229 2.052 . S
O235 C231 1.241 . S
O236 Co224 2.137 . S
O236 C227 1.247 . S
O237 Co224 2.244 . S
O237 C227 1.272 . S
O237 Co229 2.135 . S
Co238 O239 2.216 . S
Co238 O240 2.091 . S
Co238 O242 2.004 . S
Co238 O248 2.021 . S
Co238 O250 2.137 . S
Co238 O251 2.244 . S
O239 Co238 2.216 . S
O239 C246 1.247 . S
O240 Co238 2.091 . S
O240 C246 1.261 . S
C241 O250 1.247 . S
C241 O251 1.272 . S
O242 Co238 2.004 . S
O242 C247 1.259 . S
Co243 O244 2.061 . S
Co243 O249 2.052 . S
Co243 O251 2.135 . S
O244 Co243 2.061 . S
O244 C247 1.235 . S
C245 O248 1.238 . S
C245 O249 1.241 . S
C246 O239 1.247 . S
C246 O240 1.261 . S
C247 O242 1.259 . S
C247 O244 1.235 . S
O248 Co238 2.021 . S
O248 C245 1.238 . S
O249 Co243 2.052 . S
O249 C245 1.241 . S
O250 Co238 2.137 . S
O250 C241 1.247 . S
O251 Co238 2.244 . S
O251 C241 1.272 . S
O251 Co243 2.135 . S
Co252 O253 2.216 . S
Co252 O254 2.091 . S
Co252 O256 2.004 . S
Co252 O262 2.021 . S
Co252 O264 2.137 . S
Co252 O265 2.244 . S
O253 Co252 2.216 . S
O253 C260 1.247 . S
O254 Co252 2.091 . S
O254 C260 1.261 . S
C255 O264 1.247 . S
C255 O265 1.272 . S
O256 Co252 2.004 . S
O256 C261 1.259 . S
Co257 O258 2.061 . S
Co257 O263 2.052 . S
Co257 O265 2.135 . S
O258 Co257 2.061 . S
O258 C261 1.235 . S
C259 O262 1.238 . S
C259 O263 1.241 . S
C260 O253 1.247 . S
C260 O254 1.261 . S
C261 O256 1.259 . S
C261 O258 1.235 . S
O262 Co252 2.021 . S
O262 C259 1.238 . S
O263 Co257 2.052 . S
O263 C259 1.241 . S
O264 Co252 2.137 . S
O264 C255 1.247 . S
O265 Co252 2.244 . S
O265 C255 1.272 . S
O265 Co257 2.135 . S
Co266 O267 2.216 . S
Co266 O268 2.091 . S
Co266 O270 2.004 . S
Co266 O276 2.021 . S
Co266 O278 2.137 . S
Co266 O279 2.244 . S
O267 Co266 2.216 . S
O267 C274 1.247 . S
O268 Co266 2.091 . S
O268 C274 1.261 . S
C269 O278 1.247 . S
C269 O279 1.272 . S
O270 Co266 2.004 . S
O270 C275 1.259 . S
Co271 O272 2.061 . S
Co271 O277 2.052 . S
Co271 O279 2.135 . S
O272 Co271 2.061 . S
O272 C275 1.235 . S
C273 O276 1.238 . S
C273 O277 1.241 . S
C274 O267 1.247 . S
C274 O268 1.261 . S
C275 O270 1.259 . S
C275 O272 1.235 . S
O276 Co266 2.021 . S
O276 C273 1.238 . S
O277 Co271 2.052 . S
O277 C273 1.241 . S
O278 Co266 2.137 . S
O278 C269 1.247 . S
O279 Co266 2.244 . S
O279 C269 1.272 . S
O279 Co271 2.135 . S
Co280 O281 2.216 . S
Co280 O282 2.091 . S
Co280 O284 2.004 . S
Co280 O290 2.021 . S
Co280 O292 2.137 . S
Co280 O293 2.244 . S
O281 Co280 2.216 . S
O281 C288 1.247 . S
O282 Co280 2.091 . S
O282 C288 1.261 . S
C283 O292 1.247 . S
C283 O293 1.272 . S
O284 Co280 2.004 . S
O284 C289 1.259 . S
Co285 O286 2.061 . S
Co285 O291 2.052 . S
Co285 O293 2.135 . S
O286 Co285 2.061 . S
O286 C289 1.235 . S
C287 O290 1.238 . S
C287 O291 1.241 . S
C288 O281 1.247 . S
C288 O282 1.261 . S
C289 O284 1.259 . S
C289 O286 1.235 . S
O290 Co280 2.021 . S
O290 C287 1.238 . S
O291 Co285 2.052 . S
O291 C287 1.241 . S
O292 Co280 2.137 . S
O292 C283 1.247 . S
O293 Co280 2.244 . S
O293 C283 1.272 . S
O293 Co285 2.135 . S
Co294 O295 2.216 . S
Co294 O296 2.091 . S
Co294 O298 2.004 . S
Co294 O304 2.021 . S
Co294 O306 2.137 . S
Co294 O307 2.244 . S
O295 Co294 2.216 . S
O295 C302 1.247 . S
O296 Co294 2.091 . S
O296 C302 1.261 . S
C297 O306 1.247 . S
C297 O307 1.272 . S
O298 Co294 2.004 . S
O298 C303 1.259 . S
Co299 O300 2.061 . S
Co299 O305 2.052 . S
Co299 O307 2.135 . S
O300 Co299 2.061 . S
O300 C303 1.235 . S
C301 O304 1.238 . S
C301 O305 1.241 . S
C302 O295 1.247 . S
C302 O296 1.261 . S
C303 O298 1.259 . S
C303 O300 1.235 . S
O304 Co294 2.021 . S
O304 C301 1.238 . S
O305 Co299 2.052 . S
O305 C301 1.241 . S
O306 Co294 2.137 . S
O306 C297 1.247 . S
O307 Co294 2.244 . S
O307 C297 1.272 . S
O307 Co299 2.135 . S
Co308 O309 2.216 . S
Co308 O310 2.091 . S
Co308 O312 2.004 . S
Co308 O318 2.021 . S
Co308 O320 2.137 . S
Co308 O321 2.244 . S
O309 Co308 2.216 . S
O309 C316 1.247 . S
O310 Co308 2.091 . S
O310 C316 1.261 . S
C311 O320 1.247 . S
C311 O321 1.272 . S
O312 Co308 2.004 . S
O312 C317 1.259 . S
Co313 O314 2.061 . S
Co313 O319 2.052 . S
Co313 O321 2.135 . S
O314 Co313 2.061 . S
O314 C317 1.235 . S
C315 O318 1.238 . S
C315 O319 1.241 . S
C316 O309 1.247 . S
C316 O310 1.261 . S
C317 O312 1.259 . S
C317 O314 1.235 . S
O318 Co308 2.021 . S
O318 C315 1.238 . S
O319 Co313 2.052 . S
O319 C315 1.241 . S
O320 Co308 2.137 . S
O320 C311 1.247 . S
O321 Co308 2.244 . S
O321 C311 1.272 . S
O321 Co313 2.135 . S
Co322 O323 2.216 . S
Co322 O324 2.091 . S
Co322 O326 2.004 . S
Co322 O332 2.021 . S
Co322 O334 2.137 . S
Co322 O335 2.244 . S
O323 Co322 2.216 . S
O323 C330 1.247 . S
O324 Co322 2.091 . S
O324 C330 1.261 . S
C325 O334 1.247 . S
C325 O335 1.272 . S
O326 Co322 2.004 . S
O326 C331 1.259 . S
Co327 O328 2.061 . S
Co327 O333 2.052 . S
Co327 O335 2.135 . S
O328 Co327 2.061 . S
O328 C331 1.235 . S
C329 O332 1.238 . S
C329 O333 1.241 . S
C330 O323 1.247 . S
C330 O324 1.261 . S
C331 O326 1.259 . S
C331 O328 1.235 . S
O332 Co322 2.021 . S
O332 C329 1.238 . S
O333 Co327 2.052 . S
O333 C329 1.241 . S
O334 Co322 2.137 . S
O334 C325 1.247 . S
O335 Co322 2.244 . S
O335 C325 1.272 . S
O335 Co327 2.135 . S
H336 C342 0.930 . S
H337 C346 0.930 . S
H338 C351 0.929 . S
H339 C349 0.929 . S
H340 C344 0.929 . S
H341 C350 0.929 . S
C342 H336 0.930 . S
C342 C343 1.367 . S
C342 C350 1.378 . S
C343 C342 1.367 . S
C343 C351 1.433 . S
C344 H340 0.929 . S
C344 C346 1.378 . S
C344 C348 1.350 . S
C345 C348 1.463 . S
C345 C350 1.350 . S
C345 N353 1.427 . S
C346 H337 0.930 . S
C346 C344 1.378 . S
C346 C347 1.367 . S
C347 C346 1.367 . S
C347 C349 1.433 . S
C348 C344 1.350 . S
C348 C345 1.463 . S
C348 N352 1.427 . S
C349 H339 0.929 . S
C349 C347 1.433 . S
C349 N352 1.384 . S
C350 H341 0.929 . S
C350 C342 1.378 . S
C350 C345 1.350 . S
C351 H338 0.929 . S
C351 C343 1.433 . S
C351 N353 1.384 . S
N352 C348 1.427 . S
N352 C349 1.384 . S
N353 C345 1.427 . S
N353 C351 1.384 . S
H354 C360 0.930 . S
H355 C364 0.930 . S
H356 C369 0.929 . S
H357 C367 0.929 . S
H358 C362 0.929 . S
H359 C368 0.929 . S
C360 H354 0.930 . S
C360 C361 1.367 . S
C360 C368 1.378 . S
C361 C360 1.367 . S
C361 C369 1.433 . S
C362 H358 0.929 . S
C362 C364 1.378 . S
C362 C366 1.350 . S
C363 C366 1.463 . S
C363 C368 1.350 . S
C363 N371 1.427 . S
C364 H355 0.930 . S
C364 C362 1.378 . S
C364 C365 1.367 . S
C365 C364 1.367 . S
C365 C367 1.433 . S
C366 C362 1.350 . S
C366 C363 1.463 . S
C366 N370 1.427 . S
C367 H357 0.929 . S
C367 C365 1.433 . S
C367 N370 1.384 . S
C368 H359 0.929 . S
C368 C360 1.378 . S
C368 C363 1.350 . S
C369 H356 0.929 . S
C369 C361 1.433 . S
C369 N371 1.384 . S
N370 C366 1.427 . S
N370 C367 1.384 . S
N371 C363 1.427 . S
N371 C369 1.384 . S
H372 C378 0.930 . S
H373 C382 0.930 . S
H374 C387 0.929 . S
H375 C385 0.929 . S
H376 C380 0.929 . S
H377 C386 0.929 . S
C378 H372 0.930 . S
C378 C379 1.367 . S
C378 C386 1.378 . S
C379 C378 1.367 . S
C379 C387 1.433 . S
C380 H376 0.929 . S
C380 C382 1.378 . S
C380 C384 1.350 . S
C381 C384 1.463 . S
C381 C386 1.350 . S
C381 N389 1.427 . S
C382 H373 0.930 . S
C382 C380 1.378 . S
C382 C383 1.367 . S
C383 C382 1.367 . S
C383 C385 1.433 . S
C384 C380 1.350 . S
C384 C381 1.463 . S
C384 N388 1.427 . S
C385 H375 0.929 . S
C385 C383 1.433 . S
C385 N388 1.384 . S
C386 H377 0.929 . S
C386 C378 1.378 . S
C386 C381 1.350 . S
C387 H374 0.929 . S
C387 C379 1.433 . S
C387 N389 1.384 . S
N388 C384 1.427 . S
N388 C385 1.384 . S
N389 C381 1.427 . S
N389 C387 1.384 . S
H390 C396 0.930 . S
H391 C400 0.930 . S
H392 C405 0.929 . S
H393 C403 0.929 . S
H394 C398 0.929 . S
H395 C404 0.929 . S
C396 H390 0.930 . S
C396 C397 1.367 . S
C396 C404 1.378 . S
C397 C396 1.367 . S
C397 C405 1.433 . S
C398 H394 0.929 . S
C398 C400 1.378 . S
C398 C402 1.350 . S
C399 C402 1.463 . S
C399 C404 1.350 . S
C399 N407 1.427 . S
C400 H391 0.930 . S
C400 C398 1.378 . S
C400 C401 1.367 . S
C401 C400 1.367 . S
C401 C403 1.433 . S
C402 C398 1.350 . S
C402 C399 1.463 . S
C402 N406 1.427 . S
C403 H393 0.929 . S
C403 C401 1.433 . S
C403 N406 1.384 . S
C404 H395 0.929 . S
C404 C396 1.378 . S
C404 C399 1.350 . S
C405 H392 0.929 . S
C405 C397 1.433 . S
C405 N407 1.384 . S
N406 C402 1.427 . S
N406 C403 1.384 . S
N407 C399 1.427 . S
N407 C405 1.384 . S
H408 C414 0.930 . S
H409 C418 0.930 . S
H410 C423 0.929 . S
H411 C421 0.929 . S
H412 C416 0.929 . S
H413 C422 0.929 . S
C414 H408 0.930 . S
C414 C415 1.367 . S
C414 C422 1.378 . S
C415 C414 1.367 . S
C415 C423 1.433 . S
C416 H412 0.929 . S
C416 C418 1.378 . S
C416 C420 1.350 . S
C417 C420 1.463 . S
C417 C422 1.350 . S
C417 N425 1.427 . S
C418 H409 0.930 . S
C418 C416 1.378 . S
C418 C419 1.367 . S
C419 C418 1.367 . S
C419 C421 1.433 . S
C420 C416 1.350 . S
C420 C417 1.463 . S
C420 N424 1.427 . S
C421 H411 0.929 . S
C421 C419 1.433 . S
C421 N424 1.384 . S
C422 H413 0.929 . S
C422 C414 1.378 . S
C422 C417 1.350 . S
C423 H410 0.929 . S
C423 C415 1.433 . S
C423 N425 1.384 . S
N424 C420 1.427 . S
N424 C421 1.384 . S
N425 C417 1.427 . S
N425 C423 1.384 . S
H426 C432 0.930 . S
H427 C436 0.930 . S
H428 C441 0.929 . S
H429 C439 0.929 . S
H430 C434 0.929 . S
H431 C440 0.929 . S
C432 H426 0.930 . S
C432 C433 1.367 . S
C432 C440 1.378 . S
C433 C432 1.367 . S
C433 C441 1.433 . S
C434 H430 0.929 . S
C434 C436 1.378 . S
C434 C438 1.350 . S
C435 C438 1.463 . S
C435 C440 1.350 . S
C435 N443 1.427 . S
C436 H427 0.930 . S
C436 C434 1.378 . S
C436 C437 1.367 . S
C437 C436 1.367 . S
C437 C439 1.433 . S
C438 C434 1.350 . S
C438 C435 1.463 . S
C438 N442 1.427 . S
C439 H429 0.929 . S
C439 C437 1.433 . S
C439 N442 1.384 . S
C440 H431 0.929 . S
C440 C432 1.378 . S
C440 C435 1.350 . S
C441 H428 0.929 . S
C441 C433 1.433 . S
C441 N443 1.384 . S
N442 C438 1.427 . S
N442 C439 1.384 . S
N443 C435 1.427 . S
N443 C441 1.384 . S
H444 C450 0.930 . S
H445 C454 0.930 . S
H446 C459 0.929 . S
H447 C457 0.929 . S
H448 C452 0.929 . S
H449 C458 0.929 . S
C450 H444 0.930 . S
C450 C451 1.367 . S
C450 C458 1.378 . S
C451 C450 1.367 . S
C451 C459 1.433 . S
C452 H448 0.929 . S
C452 C454 1.378 . S
C452 C456 1.350 . S
C453 C456 1.463 . S
C453 C458 1.350 . S
C453 N461 1.427 . S
C454 H445 0.930 . S
C454 C452 1.378 . S
C454 C455 1.367 . S
C455 C454 1.367 . S
C455 C457 1.433 . S
C456 C452 1.350 . S
C456 C453 1.463 . S
C456 N460 1.427 . S
C457 H447 0.929 . S
C457 C455 1.433 . S
C457 N460 1.384 . S
C458 H449 0.929 . S
C458 C450 1.378 . S
C458 C453 1.350 . S
C459 H446 0.929 . S
C459 C451 1.433 . S
C459 N461 1.384 . S
N460 C456 1.427 . S
N460 C457 1.384 . S
N461 C453 1.427 . S
N461 C459 1.384 . S
H462 C468 0.930 . S
H463 C472 0.930 . S
H464 C477 0.929 . S
H465 C475 0.929 . S
H466 C470 0.929 . S
H467 C476 0.929 . S
C468 H462 0.930 . S
C468 C469 1.367 . S
C468 C476 1.378 . S
C469 C468 1.367 . S
C469 C477 1.433 . S
C470 H466 0.929 . S
C470 C472 1.378 . S
C470 C474 1.350 . S
C471 C474 1.463 . S
C471 C476 1.350 . S
C471 N479 1.427 . S
C472 H463 0.930 . S
C472 C470 1.378 . S
C472 C473 1.367 . S
C473 C472 1.367 . S
C473 C475 1.433 . S
C474 C470 1.350 . S
C474 C471 1.463 . S
C474 N478 1.427 . S
C475 H465 0.929 . S
C475 C473 1.433 . S
C475 N478 1.384 . S
C476 H467 0.929 . S
C476 C468 1.378 . S
C476 C471 1.350 . S
C477 H464 0.929 . S
C477 C469 1.433 . S
C477 N479 1.384 . S
N478 C474 1.427 . S
N478 C475 1.384 . S
N479 C471 1.427 . S
N479 C477 1.384 . S
H480 C486 0.930 . S
H481 C490 0.930 . S
H482 C495 0.929 . S
H483 C493 0.929 . S
H484 C488 0.929 . S
H485 C494 0.929 . S
C486 H480 0.930 . S
C486 C487 1.367 . S
C486 C494 1.378 . S
C487 C486 1.367 . S
C487 C495 1.433 . S
C488 H484 0.929 . S
C488 C490 1.378 . S
C488 C492 1.350 . S
C489 C492 1.463 . S
C489 C494 1.350 . S
C489 N497 1.427 . S
C490 H481 0.930 . S
C490 C488 1.378 . S
C490 C491 1.367 . S
C491 C490 1.367 . S
C491 C493 1.433 . S
C492 C488 1.350 . S
C492 C489 1.463 . S
C492 N496 1.427 . S
C493 H483 0.929 . S
C493 C491 1.433 . S
C493 N496 1.384 . S
C494 H485 0.929 . S
C494 C486 1.378 . S
C494 C489 1.350 . S
C495 H482 0.929 . S
C495 C487 1.433 . S
C495 N497 1.384 . S
N496 C492 1.427 . S
N496 C493 1.384 . S
N497 C489 1.427 . S
N497 C495 1.384 . S
H498 C504 0.930 . S
H499 C508 0.930 . S
H500 C513 0.929 . S
H501 C511 0.929 . S
H502 C506 0.929 . S
H503 C512 0.929 . S
C504 H498 0.930 . S
C504 C505 1.367 . S
C504 C512 1.378 . S
C505 C504 1.367 . S
C505 C513 1.433 . S
C506 H502 0.929 . S
C506 C508 1.378 . S
C506 C510 1.350 . S
C507 C510 1.463 . S
C507 C512 1.350 . S
C507 N515 1.427 . S
C508 H499 0.930 . S
C508 C506 1.378 . S
C508 C509 1.367 . S
C509 C508 1.367 . S
C509 C511 1.433 . S
C510 C506 1.350 . S
C510 C507 1.463 . S
C510 N514 1.427 . S
C511 H501 0.929 . S
C511 C509 1.433 . S
C511 N514 1.384 . S
C512 H503 0.929 . S
C512 C504 1.378 . S
C512 C507 1.350 . S
C513 H500 0.929 . S
C513 C505 1.433 . S
C513 N515 1.384 . S
N514 C510 1.427 . S
N514 C511 1.384 . S
N515 C507 1.427 . S
N515 C513 1.384 . S
H516 C522 0.930 . S
H517 C526 0.930 . S
H518 C531 0.929 . S
H519 C529 0.929 . S
H520 C524 0.929 . S
H521 C530 0.929 . S
C522 H516 0.930 . S
C522 C523 1.367 . S
C522 C530 1.378 . S
C523 C522 1.367 . S
C523 C531 1.433 . S
C524 H520 0.929 . S
C524 C526 1.378 . S
C524 C528 1.350 . S
C525 C528 1.463 . S
C525 C530 1.350 . S
C525 N533 1.427 . S
C526 H517 0.930 . S
C526 C524 1.378 . S
C526 C527 1.367 . S
C527 C526 1.367 . S
C527 C529 1.433 . S
C528 C524 1.350 . S
C528 C525 1.463 . S
C528 N532 1.427 . S
C529 H519 0.929 . S
C529 C527 1.433 . S
C529 N532 1.384 . S
C530 H521 0.929 . S
C530 C522 1.378 . S
C530 C525 1.350 . S
C531 H518 0.929 . S
C531 C523 1.433 . S
C531 N533 1.384 . S
N532 C528 1.427 . S
N532 C529 1.384 . S
N533 C525 1.427 . S
N533 C531 1.384 . S
H534 C540 0.930 . S
H535 C544 0.930 . S
H536 C549 0.929 . S
H537 C547 0.929 . S
H538 C542 0.929 . S
H539 C548 0.929 . S
C540 H534 0.930 . S
C540 C541 1.367 . S
C540 C548 1.378 . S
C541 C540 1.367 . S
C541 C549 1.433 . S
C542 H538 0.929 . S
C542 C544 1.378 . S
C542 C546 1.350 . S
C543 C546 1.463 . S
C543 C548 1.350 . S
C543 N551 1.427 . S
C544 H535 0.930 . S
C544 C542 1.378 . S
C544 C545 1.367 . S
C545 C544 1.367 . S
C545 C547 1.433 . S
C546 C542 1.350 . S
C546 C543 1.463 . S
C546 N550 1.427 . S
C547 H537 0.929 . S
C547 C545 1.433 . S
C547 N550 1.384 . S
C548 H539 0.929 . S
C548 C540 1.378 . S
C548 C543 1.350 . S
C549 H536 0.929 . S
C549 C541 1.433 . S
C549 N551 1.384 . S
N550 C546 1.427 . S
N550 C547 1.384 . S
N551 C543 1.427 . S
N551 C549 1.384 . S
H552 C558 0.930 . S
H553 C562 0.930 . S
H554 C567 0.929 . S
H555 C565 0.929 . S
H556 C560 0.929 1_556 S
H557 C566 0.929 1_554 S
C558 H552 0.930 . S
C558 C559 1.367 . S
C558 C566 1.378 . S
C559 C558 1.367 . S
C559 C567 1.433 . S
C560 H556 0.929 1_554 S
C560 C562 1.378 . S
C560 C564 1.350 . S
C561 C564 1.463 1_556 S
C561 C566 1.350 . S
C561 N569 1.427 . S
C562 H553 0.930 . S
C562 C560 1.378 . S
C562 C563 1.367 . S
C563 C562 1.367 . S
C563 C565 1.433 . S
C564 C560 1.350 . S
C564 C561 1.463 1_554 S
C564 N568 1.427 . S
C565 H555 0.929 . S
C565 C563 1.433 . S
C565 N568 1.384 . S
C566 H557 0.929 1_556 S
C566 C558 1.378 . S
C566 C561 1.350 . S
C567 H554 0.929 . S
C567 C559 1.433 . S
C567 N569 1.384 . S
N568 C564 1.427 . S
N568 C565 1.384 . S
N569 C561 1.427 . S
N569 C567 1.384 . S
H570 C576 0.930 . S
H571 C580 0.930 . S
H572 C585 0.929 . S
H573 C583 0.929 . S
H574 C578 0.929 . S
H575 C584 0.929 . S
C576 H570 0.930 . S
C576 C577 1.367 . S
C576 C584 1.378 . S
C577 C576 1.367 . S
C577 C585 1.433 . S
C578 H574 0.929 . S
C578 C580 1.378 . S
C578 C582 1.350 . S
C579 C582 1.463 . S
C579 C584 1.350 . S
C579 N587 1.427 . S
C580 H571 0.930 . S
C580 C578 1.378 . S
C580 C581 1.367 . S
C581 C580 1.367 . S
C581 C583 1.433 . S
C582 C578 1.350 . S
C582 C579 1.463 . S
C582 N586 1.427 . S
C583 H573 0.929 . S
C583 C581 1.433 . S
C583 N586 1.384 . S
C584 H575 0.929 . S
C584 C576 1.378 . S
C584 C579 1.350 . S
C585 H572 0.929 . S
C585 C577 1.433 . S
C585 N587 1.384 . S
N586 C582 1.427 . S
N586 C583 1.384 . S
N587 C579 1.427 . S
N587 C585 1.384 . S
H588 C594 0.930 . S
H589 C598 0.930 . S
H590 C603 0.929 . S
H591 C601 0.929 . S
H592 C596 0.929 . S
H593 C602 0.929 . S
C594 H588 0.930 . S
C594 C595 1.367 . S
C594 C602 1.378 . S
C595 C594 1.367 . S
C595 C603 1.433 . S
C596 H592 0.929 . S
C596 C598 1.378 . S
C596 C600 1.350 . S
C597 C600 1.463 1_554 S
C597 C602 1.350 . S
C597 N605 1.427 1_554 S
C598 H589 0.930 . S
C598 C596 1.378 . S
C598 C599 1.367 . S
C599 C598 1.367 . S
C599 C601 1.433 . S
C600 C596 1.350 . S
C600 C597 1.463 1_556 S
C600 N604 1.427 1_556 S
C601 H591 0.929 . S
C601 C599 1.433 . S
C601 N604 1.384 1_556 S
C602 H593 0.929 . S
C602 C594 1.378 . S
C602 C597 1.350 . S
C603 H590 0.929 . S
C603 C595 1.433 . S
C603 N605 1.384 1_554 S
N604 C600 1.427 1_554 S
N604 C601 1.384 1_554 S
N605 C597 1.427 1_556 S
N605 C603 1.384 1_556 S
H606 C612 0.930 . S
H607 C616 0.930 . S
H608 C621 0.929 . S
H609 C619 0.929 . S
H610 C614 0.929 . S
H611 C620 0.929 . S
C612 H606 0.930 . S
C612 C613 1.367 . S
C612 C620 1.378 . S
C613 C612 1.367 . S
C613 C621 1.433 . S
C614 H610 0.929 . S
C614 C616 1.378 . S
C614 C618 1.350 . S
C615 C618 1.463 . S
C615 C620 1.350 . S
C615 N623 1.427 . S
C616 H607 0.930 . S
C616 C614 1.378 . S
C616 C617 1.367 . S
C617 C616 1.367 . S
C617 C619 1.433 . S
C618 C614 1.350 . S
C618 C615 1.463 . S
C618 N622 1.427 . S
C619 H609 0.929 . S
C619 C617 1.433 . S
C619 N622 1.384 . S
C620 H611 0.929 . S
C620 C612 1.378 . S
C620 C615 1.350 . S
C621 H608 0.929 . S
C621 C613 1.433 . S
C621 N623 1.384 . S
N622 C618 1.427 . S
N622 C619 1.384 . S
N623 C615 1.427 . S
N623 C621 1.384 . S
H624 C630 0.930 . S
H625 C634 0.930 . S
H626 C639 0.929 . S
H627 C637 0.929 . S
H628 C632 0.929 . S
H629 C638 0.929 . S
C630 H624 0.930 . S
C630 C631 1.367 . S
C630 C638 1.378 1_556 S
C631 C630 1.367 . S
C631 C639 1.433 . S
C632 H628 0.929 . S
C632 C634 1.378 1_556 S
C632 C636 1.350 1_556 S
C633 C636 1.463 1_556 S
C633 C638 1.350 1_556 S
C633 N641 1.427 . S
C634 H625 0.930 . S
C634 C632 1.378 1_554 S
C634 C635 1.367 . S
C635 C634 1.367 . S
C635 C637 1.433 . S
C636 C632 1.350 1_554 S
C636 C633 1.463 1_554 S
C636 N640 1.427 . S
C637 H627 0.929 . S
C637 C635 1.433 . S
C637 N640 1.384 . S
C638 H629 0.929 . S
C638 C630 1.378 1_554 S
C638 C633 1.350 1_554 S
C639 H626 0.929 . S
C639 C631 1.433 . S
C639 N641 1.384 . S
N640 C636 1.427 . S
N640 C637 1.384 . S
N641 C633 1.427 . S
N641 C639 1.384 . S
H642 C648 0.930 . S
H643 C652 0.930 . S
H644 C657 0.929 . S
H645 C655 0.929 . S
H646 C650 0.929 . S
H647 C656 0.929 . S
C648 H642 0.930 . S
C648 C649 1.367 . S
C648 C656 1.378 . S
C649 C648 1.367 . S
C649 C657 1.433 . S
C650 H646 0.929 . S
C650 C652 1.378 . S
C650 C654 1.350 . S
C651 C654 1.463 . S
C651 C656 1.350 . S
C651 N659 1.427 . S
C652 H643 0.930 . S
C652 C650 1.378 . S
C652 C653 1.367 . S
C653 C652 1.367 . S
C653 C655 1.433 . S
C654 C650 1.350 . S
C654 C651 1.463 . S
C654 N658 1.427 . S
C655 H645 0.929 . S
C655 C653 1.433 . S
C655 N658 1.384 . S
C656 H647 0.929 . S
C656 C648 1.378 . S
C656 C651 1.350 . S
C657 H644 0.929 . S
C657 C649 1.433 . S
C657 N659 1.384 . S
N658 C654 1.427 . S
N658 C655 1.384 . S
N659 C651 1.427 . S
N659 C657 1.384 . S
H660 C666 0.930 . S
H661 C670 0.930 . S
H662 C675 0.929 . S
H663 C673 0.929 . S
H664 C668 0.929 . S
H665 C674 0.929 . S
C666 H660 0.930 . S
C666 C667 1.367 . S
C666 C674 1.378 . S
C667 C666 1.367 . S
C667 C675 1.433 . S
C668 H664 0.929 . S
C668 C670 1.378 . S
C668 C672 1.350 . S
C669 C672 1.463 1_554 S
C669 C674 1.350 . S
C669 N677 1.427 . S
C670 H661 0.930 . S
C670 C668 1.378 . S
C670 C671 1.367 . S
C671 C670 1.367 . S
C671 C673 1.433 . S
C672 C668 1.350 . S
C672 C669 1.463 1_556 S
C672 N676 1.427 . S
C673 H663 0.929 . S
C673 C671 1.433 . S
C673 N676 1.384 . S
C674 H665 0.929 . S
C674 C666 1.378 . S
C674 C669 1.350 . S
C675 H662 0.929 . S
C675 C667 1.433 . S
C675 N677 1.384 . S
N676 C672 1.427 . S
N676 C673 1.384 . S
N677 C669 1.427 . S
N677 C675 1.384 . S
H678 C684 0.930 . S
H679 C688 0.930 . S
H680 C693 0.929 . S
H681 C691 0.929 . S
H682 C686 0.929 . S
H683 C692 0.929 . S
C684 H678 0.930 . S
C684 C685 1.367 . S
C684 C692 1.378 . S
C685 C684 1.367 . S
C685 C693 1.433 . S
C686 H682 0.929 . S
C686 C688 1.378 . S
C686 C690 1.350 . S
C687 C690 1.463 . S
C687 C692 1.350 . S
C687 N695 1.427 . S
C688 H679 0.930 . S
C688 C686 1.378 . S
C688 C689 1.367 . S
C689 C688 1.367 . S
C689 C691 1.433 . S
C690 C686 1.350 . S
C690 C687 1.463 . S
C690 N694 1.427 . S
C691 H681 0.929 . S
C691 C689 1.433 . S
C691 N694 1.384 . S
C692 H683 0.929 . S
C692 C684 1.378 . S
C692 C687 1.350 . S
C693 H680 0.929 . S
C693 C685 1.433 . S
C693 N695 1.384 . S
N694 C690 1.427 . S
N694 C691 1.384 . S
N695 C687 1.427 . S
N695 C693 1.384 . S
H696 C702 0.930 . S
H697 C706 0.930 . S
H698 C711 0.929 . S
H699 C709 0.929 . S
H700 C704 0.929 1_556 S
H701 C710 0.929 1_554 S
C702 H696 0.930 . S
C702 C703 1.367 . S
C702 C710 1.378 . S
C703 C702 1.367 . S
C703 C711 1.433 . S
C704 H700 0.929 1_554 S
C704 C706 1.378 . S
C704 C708 1.350 . S
C705 C708 1.463 1_556 S
C705 C710 1.350 . S
C705 N713 1.427 . S
C706 H697 0.930 . S
C706 C704 1.378 . S
C706 C707 1.367 . S
C707 C706 1.367 . S
C707 C709 1.433 . S
C708 C704 1.350 . S
C708 C705 1.463 1_554 S
C708 N712 1.427 . S
C709 H699 0.929 . S
C709 C707 1.433 . S
C709 N712 1.384 . S
C710 H701 0.929 1_556 S
C710 C702 1.378 . S
C710 C705 1.350 . S
C711 H698 0.929 . S
C711 C703 1.433 . S
C711 N713 1.384 . S
N712 C708 1.427 . S
N712 C709 1.384 . S
N713 C705 1.427 . S
N713 C711 1.384 . S
H714 C720 0.930 . S
H715 C724 0.930 . S
H716 C729 0.929 . S
H717 C727 0.929 . S
H718 C722 0.929 . S
H719 C728 0.929 . S
C720 H714 0.930 . S
C720 C721 1.367 . S
C720 C728 1.378 . S
C721 C720 1.367 . S
C721 C729 1.433 . S
C722 H718 0.929 . S
C722 C724 1.378 . S
C722 C726 1.350 . S
C723 C726 1.463 . S
C723 C728 1.350 . S
C723 N731 1.427 . S
C724 H715 0.930 . S
C724 C722 1.378 . S
C724 C725 1.367 . S
C725 C724 1.367 . S
C725 C727 1.433 . S
C726 C722 1.350 . S
C726 C723 1.463 . S
C726 N730 1.427 . S
C727 H717 0.929 . S
C727 C725 1.433 . S
C727 N730 1.384 . S
C728 H719 0.929 . S
C728 C720 1.378 . S
C728 C723 1.350 . S
C729 H716 0.929 . S
C729 C721 1.433 . S
C729 N731 1.384 . S
N730 C726 1.427 . S
N730 C727 1.384 . S
N731 C723 1.427 . S
N731 C729 1.384 . S
H732 C738 0.930 . S
H733 C742 0.930 . S
H734 C747 0.929 . S
H735 C745 0.929 . S
H736 C740 0.929 . S
H737 C746 0.929 . S
C738 H732 0.930 . S
C738 C739 1.367 . S
C738 C746 1.378 . S
C739 C738 1.367 . S
C739 C747 1.433 . S
C740 H736 0.929 . S
C740 C742 1.378 . S
C740 C744 1.350 . S
C741 C744 1.463 1_556 S
C741 C746 1.350 . S
C741 N749 1.427 1_556 S
C742 H733 0.930 . S
C742 C740 1.378 . S
C742 C743 1.367 . S
C743 C742 1.367 . S
C743 C745 1.433 . S
C744 C740 1.350 . S
C744 C741 1.463 1_554 S
C744 N748 1.427 1_554 S
C745 H735 0.929 . S
C745 C743 1.433 . S
C745 N748 1.384 1_554 S
C746 H737 0.929 . S
C746 C738 1.378 . S
C746 C741 1.350 . S
C747 H734 0.929 . S
C747 C739 1.433 . S
C747 N749 1.384 1_556 S
N748 C744 1.427 1_556 S
N748 C745 1.384 1_556 S
N749 C741 1.427 1_554 S
N749 C747 1.384 1_554 S
H750 C756 0.930 . S
H751 C760 0.930 . S
H752 C765 0.929 . S
H753 C763 0.929 . S
H754 C758 0.929 . S
H755 C764 0.929 . S
C756 H750 0.930 . S
C756 C757 1.367 . S
C756 C764 1.378 . S
C757 C756 1.367 . S
C757 C765 1.433 . S
C758 H754 0.929 . S
C758 C760 1.378 . S
C758 C762 1.350 . S
C759 C762 1.463 . S
C759 C764 1.350 . S
C759 N767 1.427 . S
C760 H751 0.930 . S
C760 C758 1.378 . S
C760 C761 1.367 . S
C761 C760 1.367 . S
C761 C763 1.433 . S
C762 C758 1.350 . S
C762 C759 1.463 . S
C762 N766 1.427 . S
C763 H753 0.929 . S
C763 C761 1.433 . S
C763 N766 1.384 . S
C764 H755 0.929 . S
C764 C756 1.378 . S
C764 C759 1.350 . S
C765 H752 0.929 . S
C765 C757 1.433 . S
C765 N767 1.384 . S
N766 C762 1.427 . S
N766 C763 1.384 . S
N767 C759 1.427 . S
N767 C765 1.384 . S
H768 C774 0.930 . S
H769 C778 0.930 . S
H770 C783 0.929 . S
H771 C781 0.929 . S
H772 C776 0.929 . S
H773 C782 0.929 . S
C774 H768 0.930 . S
C774 C775 1.367 . S
C774 C782 1.378 . S
C775 C774 1.367 . S
C775 C783 1.433 . S
C776 H772 0.929 . S
C776 C778 1.378 . S
C776 C780 1.350 . S
C777 C780 1.463 . S
C777 C782 1.350 . S
C777 N785 1.427 . S
C778 H769 0.930 . S
C778 C776 1.378 . S
C778 C779 1.367 . S
C779 C778 1.367 . S
C779 C781 1.433 . S
C780 C776 1.350 . S
C780 C777 1.463 . S
C780 N784 1.427 . S
C781 H771 0.929 . S
C781 C779 1.433 . S
C781 N784 1.384 . S
C782 H773 0.929 . S
C782 C774 1.378 . S
C782 C777 1.350 . S
C783 H770 0.929 . S
C783 C775 1.433 . S
C783 N785 1.384 . S
N784 C780 1.427 . S
N784 C781 1.384 . S
N785 C777 1.427 . S
N785 C783 1.384 . S
H786 C792 0.930 . S
H787 C796 0.930 . S
H788 C801 0.929 . S
H789 C799 0.929 . S
H790 C794 0.929 . S
H791 C800 0.929 . S
C792 H786 0.930 . S
C792 C793 1.367 . S
C792 C800 1.378 . S
C793 C792 1.367 . S
C793 C801 1.433 . S
C794 H790 0.929 . S
C794 C796 1.378 . S
C794 C798 1.350 . S
C795 C798 1.463 1_455 S
C795 C800 1.350 . S
C795 N803 1.427 . S
C796 H787 0.930 . S
C796 C794 1.378 . S
C796 C797 1.367 . S
C797 C796 1.367 . S
C797 C799 1.433 . S
C798 C794 1.350 . S
C798 C795 1.463 1_655 S
C798 N802 1.427 . S
C799 H789 0.929 . S
C799 C797 1.433 . S
C799 N802 1.384 . S
C800 H791 0.929 . S
C800 C792 1.378 . S
C800 C795 1.350 . S
C801 H788 0.929 . S
C801 C793 1.433 . S
C801 N803 1.384 . S
N802 C798 1.427 . S
N802 C799 1.384 . S
N803 C795 1.427 . S
N803 C801 1.384 . S
H804 C810 0.930 . S
H805 C814 0.930 . S
H806 C819 0.929 . S
H807 C817 0.929 . S
H808 C812 0.929 . S
H809 C818 0.929 . S
C810 H804 0.930 . S
C810 C811 1.367 . S
C810 C818 1.378 . S
C811 C810 1.367 . S
C811 C819 1.433 . S
C812 H808 0.929 . S
C812 C814 1.378 . S
C812 C816 1.350 . S
C813 C816 1.463 1_565 S
C813 C818 1.350 . S
C813 N821 1.427 . S
C814 H805 0.930 . S
C814 C812 1.378 . S
C814 C815 1.367 . S
C815 C814 1.367 . S
C815 C817 1.433 . S
C816 C812 1.350 . S
C816 C813 1.463 1_545 S
C816 N820 1.427 . S
C817 H807 0.929 . S
C817 C815 1.433 . S
C817 N820 1.384 . S
C818 H809 0.929 . S
C818 C810 1.378 . S
C818 C813 1.350 . S
C819 H806 0.929 . S
C819 C811 1.433 . S
C819 N821 1.384 . S
N820 C816 1.427 . S
N820 C817 1.384 . S
N821 C813 1.427 . S
N821 C819 1.384 . S
H822 C828 0.930 . S
H823 C832 0.930 . S
H824 C837 0.929 . S
H825 C835 0.929 . S
H826 C830 0.929 . S
H827 C836 0.929 . S
C828 H822 0.930 . S
C828 C829 1.367 . S
C828 C836 1.378 . S
C829 C828 1.367 . S
C829 C837 1.433 . S
C830 H826 0.929 . S
C830 C832 1.378 . S
C830 C834 1.350 . S
C831 C834 1.463 . S
C831 C836 1.350 . S
C831 N839 1.427 . S
C832 H823 0.930 . S
C832 C830 1.378 . S
C832 C833 1.367 . S
C833 C832 1.367 . S
C833 C835 1.433 . S
C834 C830 1.350 . S
C834 C831 1.463 . S
C834 N838 1.427 . S
C835 H825 0.929 . S
C835 C833 1.433 . S
C835 N838 1.384 . S
C836 H827 0.929 . S
C836 C828 1.378 . S
C836 C831 1.350 . S
C837 H824 0.929 . S
C837 C829 1.433 . S
C837 N839 1.384 . S
N838 C834 1.427 . S
N838 C835 1.384 . S
N839 C831 1.427 . S
N839 C837 1.384 . S
H840 C846 0.930 . S
H841 C850 0.930 . S
H842 C855 0.929 . S
H843 C853 0.929 . S
H844 C848 0.929 . S
H845 C854 0.929 . S
C846 H840 0.930 . S
C846 C847 1.367 . S
C846 C854 1.378 . S
C847 C846 1.367 . S
C847 C855 1.433 . S
C848 H844 0.929 . S
C848 C850 1.378 . S
C848 C852 1.350 . S
C849 C852 1.463 1_655 S
C849 C854 1.350 . S
C849 N857 1.427 . S
C850 H841 0.930 . S
C850 C848 1.378 . S
C850 C851 1.367 . S
C851 C850 1.367 . S
C851 C853 1.433 . S
C852 C848 1.350 . S
C852 C849 1.463 1_455 S
C852 N856 1.427 . S
C853 H843 0.929 . S
C853 C851 1.433 . S
C853 N856 1.384 . S
C854 H845 0.929 . S
C854 C846 1.378 . S
C854 C849 1.350 . S
C855 H842 0.929 . S
C855 C847 1.433 . S
C855 N857 1.384 . S
N856 C852 1.427 . S
N856 C853 1.384 . S
N857 C849 1.427 . S
N857 C855 1.384 . S
H858 C864 0.930 . S
H859 C868 0.930 . S
H860 C873 0.929 . S
H861 C871 0.929 . S
H862 C866 0.929 . S
H863 C872 0.929 . S
C864 H858 0.930 . S
C864 C865 1.367 . S
C864 C872 1.378 . S
C865 C864 1.367 . S
C865 C873 1.433 . S
C866 H862 0.929 . S
C866 C868 1.378 . S
C866 C870 1.350 . S
C867 C870 1.463 1_545 S
C867 C872 1.350 . S
C867 N875 1.427 . S
C868 H859 0.930 . S
C868 C866 1.378 . S
C868 C869 1.367 . S
C869 C868 1.367 . S
C869 C871 1.433 . S
C870 C866 1.350 . S
C870 C867 1.463 1_565 S
C870 N874 1.427 . S
C871 H861 0.929 . S
C871 C869 1.433 . S
C871 N874 1.384 . S
C872 H863 0.929 . S
C872 C864 1.378 . S
C872 C867 1.350 . S
C873 H860 0.929 . S
C873 C865 1.433 . S
C873 N875 1.384 . S
N874 C870 1.427 . S
N874 C871 1.384 . S
N875 C867 1.427 . S
N875 C873 1.384 . S
H876 C882 0.930 . S
H877 C886 0.930 . S
H878 C891 0.929 . S
H879 C889 0.929 . S
H880 C884 0.929 . S
H881 C890 0.929 . S
C882 H876 0.930 . S
C882 C883 1.367 . S
C882 C890 1.378 . S
C883 C882 1.367 . S
C883 C891 1.433 . S
C884 H880 0.929 . S
C884 C886 1.378 . S
C884 C888 1.350 . S
C885 C888 1.463 . S
C885 C890 1.350 . S
C885 N893 1.427 . S
C886 H877 0.930 . S
C886 C884 1.378 . S
C886 C887 1.367 . S
C887 C886 1.367 . S
C887 C889 1.433 . S
C888 C884 1.350 . S
C888 C885 1.463 . S
C888 N892 1.427 . S
C889 H879 0.929 . S
C889 C887 1.433 . S
C889 N892 1.384 . S
C890 H881 0.929 . S
C890 C882 1.378 . S
C890 C885 1.350 . S
C891 H878 0.929 . S
C891 C883 1.433 . S
C891 N893 1.384 . S
N892 C888 1.427 . S
N892 C889 1.384 . S
N893 C885 1.427 . S
N893 C891 1.384 . S
H894 C900 0.930 . S
H895 C904 0.930 . S
H896 C909 0.929 . S
H897 C907 0.929 . S
H898 C902 0.929 . S
H899 C908 0.929 . S
C900 H894 0.930 . S
C900 C901 1.367 . S
C900 C908 1.378 . S
C901 C900 1.367 . S
C901 C909 1.433 . S
C902 H898 0.929 . S
C902 C904 1.378 . S
C902 C906 1.350 . S
C903 C906 1.463 1_655 S
C903 C908 1.350 . S
C903 N911 1.427 . S
C904 H895 0.930 . S
C904 C902 1.378 . S
C904 C905 1.367 . S
C905 C904 1.367 . S
C905 C907 1.433 . S
C906 C902 1.350 . S
C906 C903 1.463 1_455 S
C906 N910 1.427 . S
C907 H897 0.929 . S
C907 C905 1.433 . S
C907 N910 1.384 . S
C908 H899 0.929 . S
C908 C900 1.378 . S
C908 C903 1.350 . S
C909 H896 0.929 . S
C909 C901 1.433 . S
C909 N911 1.384 . S
N910 C906 1.427 . S
N910 C907 1.384 . S
N911 C903 1.427 . S
N911 C909 1.384 . S
H912 C918 0.930 . S
H913 C922 0.930 . S
H914 C927 0.929 . S
H915 C925 0.929 . S
H916 C920 0.929 . S
H917 C926 0.929 . S
C918 H912 0.930 . S
C918 C919 1.367 . S
C918 C926 1.378 . S
C919 C918 1.367 . S
C919 C927 1.433 . S
C920 H916 0.929 . S
C920 C922 1.378 . S
C920 C924 1.350 . S
C921 C924 1.463 1_545 S
C921 C926 1.350 . S
C921 N929 1.427 . S
C922 H913 0.930 . S
C922 C920 1.378 . S
C922 C923 1.367 . S
C923 C922 1.367 . S
C923 C925 1.433 . S
C924 C920 1.350 . S
C924 C921 1.463 1_565 S
C924 N928 1.427 . S
C925 H915 0.929 . S
C925 C923 1.433 . S
C925 N928 1.384 . S
C926 H917 0.929 . S
C926 C918 1.378 . S
C926 C921 1.350 . S
C927 H914 0.929 . S
C927 C919 1.433 . S
C927 N929 1.384 . S
N928 C924 1.427 . S
N928 C925 1.384 . S
N929 C921 1.427 . S
N929 C927 1.384 . S
H930 C936 0.930 . S
H931 C940 0.930 . S
H932 C945 0.929 . S
H933 C943 0.929 . S
H934 C938 0.929 . S
H935 C944 0.929 . S
C936 H930 0.930 . S
C936 C937 1.367 . S
C936 C944 1.378 . S
C937 C936 1.367 . S
C937 C945 1.433 . S
C938 H934 0.929 . S
C938 C940 1.378 . S
C938 C942 1.350 . S
C939 C942 1.463 . S
C939 C944 1.350 . S
C939 N947 1.427 . S
C940 H931 0.930 . S
C940 C938 1.378 . S
C940 C941 1.367 . S
C941 C940 1.367 . S
C941 C943 1.433 . S
C942 C938 1.350 . S
C942 C939 1.463 . S
C942 N946 1.427 . S
C943 H933 0.929 . S
C943 C941 1.433 . S
C943 N946 1.384 . S
C944 H935 0.929 . S
C944 C936 1.378 . S
C944 C939 1.350 . S
C945 H932 0.929 . S
C945 C937 1.433 . S
C945 N947 1.384 . S
N946 C942 1.427 . S
N946 C943 1.384 . S
N947 C939 1.427 . S
N947 C945 1.384 . S
H948 C954 0.930 . S
H949 C958 0.930 . S
H950 C963 0.929 . S
H951 C961 0.929 . S
H952 C956 0.929 . S
H953 C962 0.929 . S
C954 H948 0.930 . S
C954 C955 1.367 . S
C954 C962 1.378 . S
C955 C954 1.367 . S
C955 C963 1.433 . S
C956 H952 0.929 . S
C956 C958 1.378 . S
C956 C960 1.350 . S
C957 C960 1.463 1_455 S
C957 C962 1.350 . S
C957 N965 1.427 . S
C958 H949 0.930 . S
C958 C956 1.378 . S
C958 C959 1.367 . S
C959 C958 1.367 . S
C959 C961 1.433 . S
C960 C956 1.350 . S
C960 C957 1.463 1_655 S
C960 N964 1.427 . S
C961 H951 0.929 . S
C961 C959 1.433 . S
C961 N964 1.384 . S
C962 H953 0.929 . S
C962 C954 1.378 . S
C962 C957 1.350 . S
C963 H950 0.929 . S
C963 C955 1.433 . S
C963 N965 1.384 . S
N964 C960 1.427 . S
N964 C961 1.384 . S
N965 C957 1.427 . S
N965 C963 1.384 . S
H966 C972 0.930 . S
H967 C976 0.930 . S
H968 C981 0.929 . S
H969 C979 0.929 . S
H970 C974 0.929 . S
H971 C980 0.929 . S
C972 H966 0.930 . S
C972 C973 1.367 . S
C972 C980 1.378 . S
C973 C972 1.367 . S
C973 C981 1.433 . S
C974 H970 0.929 . S
C974 C976 1.378 . S
C974 C978 1.350 . S
C975 C978 1.463 1_565 S
C975 C980 1.350 . S
C975 N983 1.427 . S
C976 H967 0.930 . S
C976 C974 1.378 . S
C976 C977 1.367 . S
C977 C976 1.367 . S
C977 C979 1.433 . S
C978 C974 1.350 . S
C978 C975 1.463 1_545 S
C978 N982 1.427 . S
C979 H969 0.929 . S
C979 C977 1.433 . S
C979 N982 1.384 . S
C980 H971 0.929 . S
C980 C972 1.378 . S
C980 C975 1.350 . S
C981 H968 0.929 . S
C981 C973 1.433 . S
C981 N983 1.384 . S
N982 C978 1.427 . S
N982 C979 1.384 . S
N983 C975 1.427 . S
N983 C981 1.384 . S
H984 C990 0.930 . S
H985 C994 0.930 . S
H986 C999 0.929 . S
H987 C997 0.929 . S
H988 C992 0.929 . S
H989 C998 0.929 . S
C990 H984 0.930 . S
C990 C991 1.367 . S
C990 C998 1.378 . S
C991 C990 1.367 . S
C991 C999 1.433 . S
C992 H988 0.929 . S
C992 C994 1.378 . S
C992 C996 1.350 . S
C993 C996 1.463 1_556 S
C993 C998 1.350 . S
C993 N1001 1.427 . S
C994 H985 0.930 . S
C994 C992 1.378 . S
C994 C995 1.367 . S
C995 C994 1.367 . S
C995 C997 1.433 . S
C996 C992 1.350 . S
C996 C993 1.463 1_554 S
C996 N1000 1.427 . S
C997 H987 0.929 . S
C997 C995 1.433 . S
C997 N1000 1.384 . S
C998 H989 0.929 . S
C998 C990 1.378 . S
C998 C993 1.350 . S
C999 H986 0.929 . S
C999 C991 1.433 . S
C999 N1001 1.384 . S
N1000 C996 1.427 . S
N1000 C997 1.384 . S
N1001 C993 1.427 . S
N1001 C999 1.384 . S
H1002 C1008 0.930 . S
H1003 C1012 0.930 . S
H1004 C1017 0.929 . S
H1005 C1015 0.929 . S
H1006 C1010 0.929 . S
H1007 C1016 0.929 . S
C1008 H1002 0.930 . S
C1008 C1009 1.367 . S
C1008 C1016 1.378 . S
C1009 C1008 1.367 . S
C1009 C1017 1.433 . S
C1010 H1006 0.929 . S
C1010 C1012 1.378 . S
C1010 C1014 1.350 . S
C1011 C1014 1.463 . S
C1011 C1016 1.350 . S
C1011 N1019 1.427 . S
C1012 H1003 0.930 . S
C1012 C1010 1.378 . S
C1012 C1013 1.367 . S
C1013 C1012 1.367 . S
C1013 C1015 1.433 . S
C1014 C1010 1.350 . S
C1014 C1011 1.463 . S
C1014 N1018 1.427 . S
C1015 H1005 0.929 . S
C1015 C1013 1.433 . S
C1015 N1018 1.384 . S
C1016 H1007 0.929 . S
C1016 C1008 1.378 . S
C1016 C1011 1.350 . S
C1017 H1004 0.929 . S
C1017 C1009 1.433 . S
C1017 N1019 1.384 . S
N1018 C1014 1.427 . S
N1018 C1015 1.384 . S
N1019 C1011 1.427 . S
N1019 C1017 1.384 . S
H1020 C1026 0.930 . S
H1021 C1030 0.930 . S
H1022 C1035 0.917 1_554 S
H1023 C1033 0.917 1_556 S
H1024 C1028 0.929 . S
H1025 C1034 0.929 . S
C1026 H1020 0.930 . S
C1026 C1027 1.367 . S
C1026 C1034 1.378 . S
C1027 C1026 1.367 . S
C1027 C1035 1.455 . S
C1028 H1024 0.929 . S
C1028 C1030 1.378 . S
C1028 C1032 1.350 . S
C1029 C1032 1.463 1_556 S
C1029 C1034 1.350 . S
C1029 N1037 1.427 1_556 S
C1030 H1021 0.930 . S
C1030 C1028 1.378 . S
C1030 C1031 1.367 . S
C1031 C1030 1.367 . S
C1031 C1033 1.455 . S
C1032 C1028 1.350 . S
C1032 C1029 1.463 1_554 S
C1032 N1036 1.427 1_554 S
C1033 H1023 0.917 1_554 S
C1033 C1031 1.455 . S
C1033 N1036 1.375 1_554 S
C1034 H1025 0.929 . S
C1034 C1026 1.378 . S
C1034 C1029 1.350 . S
C1035 H1022 0.917 1_556 S
C1035 C1027 1.455 . S
C1035 N1037 1.375 1_556 S
N1036 C1032 1.427 1_556 S
N1036 C1033 1.375 1_556 S
N1037 C1029 1.427 1_554 S
N1037 C1035 1.375 1_554 S
H1038 C1044 0.930 . S
H1039 C1048 0.930 . S
H1040 C1053 0.929 . S
H1041 C1051 0.929 . S
H1042 C1046 0.929 . S
H1043 C1052 0.929 . S
C1044 H1038 0.930 . S
C1044 C1045 1.367 . S
C1044 C1052 1.378 . S
C1045 C1044 1.367 . S
C1045 C1053 1.433 . S
C1046 H1042 0.929 . S
C1046 C1048 1.378 . S
C1046 C1050 1.350 . S
C1047 C1050 1.463 . S
C1047 C1052 1.350 . S
C1047 N1055 1.427 . S
C1048 H1039 0.930 . S
C1048 C1046 1.378 . S
C1048 C1049 1.367 . S
C1049 C1048 1.367 . S
C1049 C1051 1.433 . S
C1050 C1046 1.350 . S
C1050 C1047 1.463 . S
C1050 N1054 1.427 . S
C1051 H1041 0.929 . S
C1051 C1049 1.433 . S
C1051 N1054 1.384 . S
C1052 H1043 0.929 . S
C1052 C1044 1.378 . S
C1052 C1047 1.350 . S
C1053 H1040 0.929 . S
C1053 C1045 1.433 . S
C1053 N1055 1.384 . S
N1054 C1050 1.427 . S
N1054 C1051 1.384 . S
N1055 C1047 1.427 . S
N1055 C1053 1.384 . S
H1056 C1062 0.930 . S
H1057 C1066 0.930 . S
H1058 C1071 0.930 1_554 S
H1059 C1069 0.930 1_556 S
H1060 C1064 0.929 . S
H1061 C1070 0.929 . S
C1062 H1056 0.930 . S
C1062 C1063 1.367 . S
C1062 C1070 1.378 . S
C1063 C1062 1.367 . S
C1063 C1071 1.432 . S
C1064 H1060 0.929 . S
C1064 C1066 1.378 . S
C1064 C1068 1.350 . S
C1065 C1068 1.463 1_556 S
C1065 C1070 1.350 . S
C1065 N1073 1.427 1_556 S
C1066 H1057 0.930 . S
C1066 C1064 1.378 . S
C1066 C1067 1.367 . S
C1067 C1066 1.367 . S
C1067 C1069 1.432 . S
C1068 C1064 1.350 . S
C1068 C1065 1.463 1_554 S
C1068 N1072 1.427 1_554 S
C1069 H1059 0.930 1_554 S
C1069 C1067 1.432 . S
C1069 N1072 1.384 1_554 S
C1070 H1061 0.929 . S
C1070 C1062 1.378 . S
C1070 C1065 1.350 . S
C1071 H1058 0.930 1_556 S
C1071 C1063 1.432 . S
C1071 N1073 1.384 1_556 S
N1072 C1068 1.427 1_556 S
N1072 C1069 1.384 1_556 S
N1073 C1065 1.427 1_554 S
N1073 C1071 1.384 1_554 S
H1074 C1080 0.930 . S
H1075 C1084 0.930 . S
H1076 C1089 0.929 . S
H1077 C1087 0.929 . S
H1078 C1082 0.929 . S
H1079 C1088 0.929 . S
C1080 H1074 0.930 . S
C1080 C1081 1.367 . S
C1080 C1088 1.378 . S
C1081 C1080 1.367 . S
C1081 C1089 1.433 . S
C1082 H1078 0.929 . S
C1082 C1084 1.378 . S
C1082 C1086 1.350 . S
C1083 C1086 1.463 . S
C1083 C1088 1.350 . S
C1083 N1091 1.427 . S
C1084 H1075 0.930 . S
C1084 C1082 1.378 . S
C1084 C1085 1.367 . S
C1085 C1084 1.367 . S
C1085 C1087 1.433 . S
C1086 C1082 1.350 . S
C1086 C1083 1.463 . S
C1086 N1090 1.427 . S
C1087 H1077 0.929 . S
C1087 C1085 1.433 . S
C1087 N1090 1.384 . S
C1088 H1079 0.929 . S
C1088 C1080 1.378 . S
C1088 C1083 1.350 . S
C1089 H1076 0.929 . S
C1089 C1081 1.433 . S
C1089 N1091 1.384 . S
N1090 C1086 1.427 . S
N1090 C1087 1.384 . S
N1091 C1083 1.427 . S
N1091 C1089 1.384 . S
H1092 C1098 0.923 1_556 S
H1093 C1102 0.923 1_554 S
H1094 C1107 0.929 . S
H1095 C1105 0.929 . S
H1096 C1100 0.929 . S
H1097 C1106 0.929 . S
C1098 H1092 0.923 1_554 S
C1098 C1099 1.380 . S
C1098 C1106 1.372 1_554 S
C1099 C1098 1.380 . S
C1099 C1107 1.433 . S
C1100 H1096 0.929 . S
C1100 C1102 1.372 1_554 S
C1100 C1104 1.350 1_554 S
C1101 C1104 1.463 1_554 S
C1101 C1106 1.350 1_554 S
C1101 N1109 1.427 . S
C1102 H1093 0.923 1_556 S
C1102 C1100 1.372 1_556 S
C1102 C1103 1.380 . S
C1103 C1102 1.380 . S
C1103 C1105 1.433 . S
C1104 C1100 1.350 1_556 S
C1104 C1101 1.463 1_556 S
C1104 N1108 1.427 . S
C1105 H1095 0.929 . S
C1105 C1103 1.433 . S
C1105 N1108 1.384 . S
C1106 H1097 0.929 . S
C1106 C1098 1.372 1_556 S
C1106 C1101 1.350 1_556 S
C1107 H1094 0.929 . S
C1107 C1099 1.433 . S
C1107 N1109 1.384 . S
N1108 C1104 1.427 . S
N1108 C1105 1.384 . S
N1109 C1101 1.427 . S
N1109 C1107 1.384 . S
H1110 C1116 0.930 . S
H1111 C1120 0.930 . S
H1112 C1125 0.929 . S
H1113 C1123 0.929 . S
H1114 C1118 0.929 . S
H1115 C1124 0.929 . S
C1116 H1110 0.930 . S
C1116 C1117 1.367 . S
C1116 C1124 1.378 . S
C1117 C1116 1.367 . S
C1117 C1125 1.433 . S
C1118 H1114 0.929 . S
C1118 C1120 1.378 . S
C1118 C1122 1.350 . S
C1119 C1122 1.463 . S
C1119 C1124 1.350 . S
C1119 N1127 1.427 . S
C1120 H1111 0.930 . S
C1120 C1118 1.378 . S
C1120 C1121 1.367 . S
C1121 C1120 1.367 . S
C1121 C1123 1.433 . S
C1122 C1118 1.350 . S
C1122 C1119 1.463 . S
C1122 N1126 1.427 . S
C1123 H1113 0.929 . S
C1123 C1121 1.433 . S
C1123 N1126 1.384 . S
C1124 H1115 0.929 . S
C1124 C1116 1.378 . S
C1124 C1119 1.350 . S
C1125 H1112 0.929 . S
C1125 C1117 1.433 . S
C1125 N1127 1.384 . S
N1126 C1122 1.427 . S
N1126 C1123 1.384 . S
N1127 C1119 1.427 . S
N1127 C1125 1.384 . S
H1128 C1134 0.930 . S
H1129 C1138 0.930 . S
H1130 C1143 0.929 1_556 S
H1131 C1141 0.929 1_554 S
H1132 C1136 0.929 . S
H1133 C1142 0.929 . S
C1134 H1128 0.930 . S
C1134 C1135 1.367 . S
C1134 C1142 1.378 . S
C1135 C1134 1.367 . S
C1135 C1143 1.433 . S
C1136 H1132 0.929 . S
C1136 C1138 1.378 . S
C1136 C1140 1.350 . S
C1137 C1140 1.463 1_554 S
C1137 C1142 1.350 . S
C1137 N1145 1.427 1_554 S
C1138 H1129 0.930 . S
C1138 C1136 1.378 . S
C1138 C1139 1.367 . S
C1139 C1138 1.367 . S
C1139 C1141 1.433 . S
C1140 C1136 1.350 . S
C1140 C1137 1.463 1_556 S
C1140 N1144 1.427 1_556 S
C1141 H1131 0.929 1_556 S
C1141 C1139 1.433 . S
C1141 N1144 1.384 1_556 S
C1142 H1133 0.929 . S
C1142 C1134 1.378 . S
C1142 C1137 1.350 . S
C1143 H1130 0.929 1_554 S
C1143 C1135 1.433 . S
C1143 N1145 1.384 1_554 S
N1144 C1140 1.427 1_554 S
N1144 C1141 1.384 1_554 S
N1145 C1137 1.427 1_556 S
N1145 C1143 1.384 1_556 S
H1146 C1152 0.930 . S
H1147 C1156 0.930 . S
H1148 C1161 0.929 . S
H1149 C1159 0.929 . S
H1150 C1154 0.929 . S
H1151 C1160 0.929 . S
C1152 H1146 0.930 . S
C1152 C1153 1.367 . S
C1152 C1160 1.378 . S
C1153 C1152 1.367 . S
C1153 C1161 1.433 . S
C1154 H1150 0.929 . S
C1154 C1156 1.378 . S
C1154 C1158 1.350 . S
C1155 C1158 1.463 . S
C1155 C1160 1.350 . S
C1155 N1163 1.427 . S
C1156 H1147 0.930 . S
C1156 C1154 1.378 . S
C1156 C1157 1.367 . S
C1157 C1156 1.367 . S
C1157 C1159 1.433 . S
C1158 C1154 1.350 . S
C1158 C1155 1.463 . S
C1158 N1162 1.427 . S
C1159 H1149 0.929 . S
C1159 C1157 1.433 . S
C1159 N1162 1.384 . S
C1160 H1151 0.929 . S
C1160 C1152 1.378 . S
C1160 C1155 1.350 . S
C1161 H1148 0.929 . S
C1161 C1153 1.433 . S
C1161 N1163 1.384 . S
N1162 C1158 1.427 . S
N1162 C1159 1.384 . S
N1163 C1155 1.427 . S
N1163 C1161 1.384 . S
H1164 C1170 0.930 1_554 S
H1165 C1174 0.930 1_556 S
H1166 C1179 0.929 . S
H1167 C1177 0.929 . S
H1168 C1172 0.929 . S
H1169 C1178 0.929 . S
C1170 H1164 0.930 1_556 S
C1170 C1171 1.367 . S
C1170 C1178 1.378 1_556 S
C1171 C1170 1.367 . S
C1171 C1179 1.433 . S
C1172 H1168 0.929 . S
C1172 C1174 1.378 1_556 S
C1172 C1176 1.350 1_556 S
C1173 C1176 1.463 1_556 S
C1173 C1178 1.350 1_556 S
C1173 N1181 1.427 . S
C1174 H1165 0.930 1_554 S
C1174 C1172 1.378 1_554 S
C1174 C1175 1.367 . S
C1175 C1174 1.367 . S
C1175 C1177 1.433 . S
C1176 C1172 1.350 1_554 S
C1176 C1173 1.463 1_554 S
C1176 N1180 1.427 . S
C1177 H1167 0.929 . S
C1177 C1175 1.433 . S
C1177 N1180 1.384 . S
C1178 H1169 0.929 . S
C1178 C1170 1.378 1_554 S
C1178 C1173 1.350 1_554 S
C1179 H1166 0.929 . S
C1179 C1171 1.433 . S
C1179 N1181 1.384 . S
N1180 C1176 1.427 . S
N1180 C1177 1.384 . S
N1181 C1173 1.427 . S
N1181 C1179 1.384 . S
H1182 C1188 0.930 . S
H1183 C1192 0.930 . S
H1184 C1197 0.929 . S
H1185 C1195 0.929 . S
H1186 C1190 0.929 . S
H1187 C1196 0.929 . S
C1188 H1182 0.930 . S
C1188 C1189 1.367 . S
C1188 C1196 1.378 . S
C1189 C1188 1.367 . S
C1189 C1197 1.433 . S
C1190 H1186 0.929 . S
C1190 C1192 1.378 . S
C1190 C1194 1.350 . S
C1191 C1194 1.463 . S
C1191 C1196 1.350 . S
C1191 N1199 1.427 . S
C1192 H1183 0.930 . S
C1192 C1190 1.378 . S
C1192 C1193 1.367 . S
C1193 C1192 1.367 . S
C1193 C1195 1.433 . S
C1194 C1190 1.350 . S
C1194 C1191 1.463 . S
C1194 N1198 1.427 . S
C1195 H1185 0.929 . S
C1195 C1193 1.433 . S
C1195 N1198 1.384 . S
C1196 H1187 0.929 . S
C1196 C1188 1.378 . S
C1196 C1191 1.350 . S
C1197 H1184 0.929 . S
C1197 C1189 1.433 . S
C1197 N1199 1.384 . S
N1198 C1194 1.427 . S
N1198 C1195 1.384 . S
N1199 C1191 1.427 . S
N1199 C1197 1.384 . S
C343 C3 1.497 . S
C347 C213 1.494 . S
C361 C17 1.496 . S
C365 C227 1.496 . S
C379 C241 1.495 . S
C383 C31 1.497 . S
C397 C171 1.496 . S
C401 C45 1.495 . S
C415 C185 1.494 . S
C419 C59 1.497 . S
C433 C199 1.497 . S
C437 C73 1.494 . S
C451 C297 1.497 . S
C455 C87 1.494 . S
C469 C101 1.494 . S
C473 C311 1.497 . S
C487 C325 1.497 . S
C491 C115 1.495 . S
C505 C129 1.496 . S
C509 C255 1.496 . S
C523 C269 1.497 . S
C527 C143 1.494 . S
C541 C157 1.497 . S
C545 C283 1.494 . S
C559 C148 1.378 . S
C563 C8 1.377 . S
C577 C162 1.380 . S
C581 C22 1.380 . S
C595 C36 1.380 . S
C599 C92 1.380 . S
C613 C50 1.380 . S
C617 C106 1.380 . S
C631 C120 1.377 . S
C635 C64 1.377 . S
C649 C78 1.379 . S
C653 C134 1.378 . S
C667 C316 1.379 . S
C671 C176 1.379 . S
C685 C190 1.377 . S
C689 C330 1.377 . S
C703 C204 1.377 . S
C707 C260 1.378 . S
C721 C274 1.377 . S
C725 C218 1.377 . S
C739 C232 1.380 . S
C743 C288 1.380 . S
C757 C246 1.380 . S
C761 C302 1.380 . S
C775 C9 1.402 . S
C779 C261 1.402 . S
C793 C275 1.407 . S
C797 C23 1.397 . S
C811 C37 1.396 . S
C815 C289 1.407 . S
C829 C51 1.397 . S
C833 C303 1.407 . S
C847 C317 1.398 . S
C851 C65 1.406 . S
C865 C79 1.403 . S
C869 C331 1.401 . S
C883 C93 1.401 . S
C887 C177 1.403 . S
C901 C107 1.399 . S
C905 C191 1.404 . S
C919 C205 1.407 . S
C923 C121 1.397 . S
C937 C219 1.408 . S
C941 C135 1.396 . S
C955 C149 1.407 . S
C959 C233 1.397 . S
C973 C247 1.402 . S
C977 C163 1.402 . S
C991 C91 1.444 . S
C995 C7 1.453 . S
C1009 C21 1.442 . S
C1013 C105 1.450 . S
C1027 C119 1.445 . S
C1031 C35 1.443 . S
C1045 C133 1.457 . S
C1049 C49 1.454 . S
C1063 C147 1.444 . S
C1067 C63 1.443 . S
C1081 C77 1.445 . S
C1085 C161 1.454 . S
C1099 C259 1.456 . S
C1103 C175 1.456 . S
C1117 C189 1.451 . S
C1121 C273 1.443 . S
C1135 C287 1.447 . S
C1139 C203 1.442 . S
C1153 C301 1.454 . S
C1157 C217 1.445 . S
C1171 C231 1.452 . S
C1175 C315 1.457 . S
C1189 C245 1.456 . S
C1193 C329 1.447 . S
