# Generated by pormake.
# Topology uot, (4)-cn, num edge types: 1
# Building blocks:
#     Node 0, Type 0, BuildingBlock: ESEHIV_clean_sbu_0, # of connection points: 4
#     Node 1, Type 0, BuildingBlock: ESEHIV_clean_sbu_0, # of connection points: 4
#     Node 2, Type 0, BuildingBlock: ESEHIV_clean_sbu_0, # of connection points: 4
#     Node 3, Type 0, BuildingBlock: ESEHIV_clean_sbu_0, # of connection points: 4
#     Node 4, Type 0, BuildingBlock: ESEHIV_clean_sbu_0, # of connection points: 4
#     Node 5, Type 0, BuildingBlock: ESEHIV_clean_sbu_0, # of connection points: 4
#     Node 6, Type 0, BuildingBlock: ESEHIV_clean_sbu_0, # of connection points: 4
#     Node 7, Type 0, BuildingBlock: ESEHIV_clean_sbu_0, # of connection points: 4
#     Node 8, Type 0, BuildingBlock: ESEHIV_clean_sbu_0, # of connection points: 4
#     Node 9, Type 0, BuildingBlock: ESEHIV_clean_sbu_0, # of connection points: 4
#     Node 10, Type 0, BuildingBlock: ESEHIV_clean_sbu_0, # of connection points: 4
#     Node 11, Type 0, BuildingBlock: ESEHIV_clean_sbu_0, # of connection points: 4
#     Node 12, Type 0, BuildingBlock: ESEHIV_clean_sbu_0, # of connection points: 4
#     Node 13, Type 0, BuildingBlock: ESEHIV_clean_sbu_0, # of connection points: 4
#     Node 14, Type 0, BuildingBlock: ESEHIV_clean_sbu_0, # of connection points: 4
#     Node 15, Type 0, BuildingBlock: ESEHIV_clean_sbu_0, # of connection points: 4
#     Edge 16, Type (0, 0), BuildingBlock: AJUNOK_clean_linker_0, # of connection points: 2
#     Edge 17, Type (0, 0), BuildingBlock: AJUNOK_clean_linker_0, # of connection points: 2
#     Edge 18, Type (0, 0), BuildingBlock: AJUNOK_clean_linker_0, # of connection points: 2
#     Edge 19, Type (0, 0), BuildingBlock: AJUNOK_clean_linker_0, # of connection points: 2
#     Edge 20, Type (0, 0), BuildingBlock: AJUNOK_clean_linker_0, # of connection points: 2
#     Edge 21, Type (0, 0), BuildingBlock: AJUNOK_clean_linker_0, # of connection points: 2
#     Edge 22, Type (0, 0), BuildingBlock: AJUNOK_clean_linker_0, # of connection points: 2
#     Edge 23, Type (0, 0), BuildingBlock: AJUNOK_clean_linker_0, # of connection points: 2
#     Edge 24, Type (0, 0), BuildingBlock: AJUNOK_clean_linker_0, # of connection points: 2
#     Edge 25, Type (0, 0), BuildingBlock: AJUNOK_clean_linker_0, # of connection points: 2
#     Edge 26, Type (0, 0), BuildingBlock: AJUNOK_clean_linker_0, # of connection points: 2
#     Edge 27, Type (0, 0), BuildingBlock: AJUNOK_clean_linker_0, # of connection points: 2
#     Edge 28, Type (0, 0), BuildingBlock: AJUNOK_clean_linker_0, # of connection points: 2
#     Edge 29, Type (0, 0), BuildingBlock: AJUNOK_clean_linker_0, # of connection points: 2
#     Edge 30, Type (0, 0), BuildingBlock: AJUNOK_clean_linker_0, # of connection points: 2
#     Edge 31, Type (0, 0), BuildingBlock: AJUNOK_clean_linker_0, # of connection points: 2
#     Edge 32, Type (0, 0), BuildingBlock: AJUNOK_clean_linker_0, # of connection points: 2
#     Edge 33, Type (0, 0), BuildingBlock: AJUNOK_clean_linker_0, # of connection points: 2
#     Edge 34, Type (0, 0), BuildingBlock: AJUNOK_clean_linker_0, # of connection points: 2
#     Edge 35, Type (0, 0), BuildingBlock: AJUNOK_clean_linker_0, # of connection points: 2
#     Edge 36, Type (0, 0), BuildingBlock: AJUNOK_clean_linker_0, # of connection points: 2
#     Edge 37, Type (0, 0), BuildingBlock: AJUNOK_clean_linker_0, # of connection points: 2
#     Edge 38, Type (0, 0), BuildingBlock: AJUNOK_clean_linker_0, # of connection points: 2
#     Edge 39, Type (0, 0), BuildingBlock: AJUNOK_clean_linker_0, # of connection points: 2
#     Edge 40, Type (0, 0), BuildingBlock: AJUNOK_clean_linker_0, # of connection points: 2
#     Edge 41, Type (0, 0), BuildingBlock: AJUNOK_clean_linker_0, # of connection points: 2
#     Edge 42, Type (0, 0), BuildingBlock: AJUNOK_clean_linker_0, # of connection points: 2
#     Edge 43, Type (0, 0), BuildingBlock: AJUNOK_clean_linker_0, # of connection points: 2
#     Edge 44, Type (0, 0), BuildingBlock: AJUNOK_clean_linker_0, # of connection points: 2
#     Edge 45, Type (0, 0), BuildingBlock: AJUNOK_clean_linker_0, # of connection points: 2
#     Edge 46, Type (0, 0), BuildingBlock: AJUNOK_clean_linker_0, # of connection points: 2
#     Edge 47, Type (0, 0), BuildingBlock: AJUNOK_clean_linker_0, # of connection points: 2
# Relax obj value: 0.098
# Max RMSD: 0.251
# Mean RMSD: 0.251
data_MOF--net-uot--node1-ESEHIV_clean_sbu_0--edge1-AJUNOK_clean_linker_0
_symmetry_space_group_name_H-M    P1
_symmetry_Int_Tables_number       1
_symmetry_cell_setting            triclinic
loop_
_symmetry_equiv_pos_as_xyz
'x, y, z'
_cell_length_a     37.020727
_cell_length_b     37.041968
_cell_length_c     33.94578
_cell_angle_alpha  90.479349
_cell_angle_beta   90.519815
_cell_angle_gamma 90.063772
loop_
_atom_site_label
_atom_site_type_symbol
_atom_site_fract_x
_atom_site_fract_y
_atom_site_fract_z
_atom_type_partial_charge
Cu0 Cu 0.19783 0.44697 0.37221 0.0
N1 N 0.1908 0.49126 0.3471 0.0
N2 N 0.17103 0.53441 0.30655 0.0
C3 C 0.1703 0.49882 0.31515 0.0
C4 C 0.19323 0.54953 0.33382 0.0
C5 C 0.20533 0.52293 0.35868 0.0
O6 O 0.16337 0.41178 0.35134 0.0
C7 C 0.17435 0.47848 0.44487 0.0
O8 O 0.15176 0.49635 0.42228 0.0
H9 H 0.15541 0.4786 0.29852 0.0
H10 H 0.22308 0.52643 0.38392 0.0
N11 N 0.24458 0.43111 0.36074 0.0
N12 N 0.29555 0.39883 0.35773 0.0
C13 C 0.26088 0.39965 0.37005 0.0
C14 C 0.26968 0.45057 0.3419 0.0
C15 C 0.30106 0.43085 0.34011 0.0
C16 C 0.12967 0.41813 0.34851 0.0
O17 O 0.11704 0.44853 0.36303 0.0
H18 H 0.24792 0.37831 0.38631 0.0
H19 H 0.26553 0.47743 0.33051 0.0
O20 O 0.19469 0.45467 0.4292 0.0
H21 H 0.19951 0.57801 0.33627 0.0
H22 H 0.32608 0.43936 0.32675 0.0
Cu23 Cu 0.4631 0.83508 0.67589 0.0
N24 N 0.49489 0.82672 0.71788 0.0
N25 N 0.53594 0.83932 0.76478 0.0
C26 C 0.51447 0.85265 0.73612 0.0
C27 C 0.52958 0.80341 0.76474 0.0
C28 C 0.50416 0.79571 0.73569 0.0
O29 O 0.4294 0.87183 0.69308 0.0
C30 C 0.47863 0.86401 0.60045 0.0
O31 O 0.44381 0.87075 0.59899 0.0
H32 H 0.51355 0.8808 0.72803 0.0
H33 H 0.49328 0.76942 0.72806 0.0
N34 N 0.43759 0.79354 0.66013 0.0
N35 N 0.39824 0.74788 0.65619 0.0
C36 C 0.41386 0.77293 0.68003 0.0
C37 C 0.43694 0.78065 0.62291 0.0
C38 C 0.41268 0.7526 0.62039 0.0
C39 C 0.43804 0.90502 0.69572 0.0
O40 O 0.46946 0.91555 0.6823 0.0
H41 H 0.40742 0.77683 0.71082 0.0
H42 H 0.45251 0.79142 0.59892 0.0
O43 O 0.49197 0.85038 0.6316 0.0
H44 H 0.54196 0.78421 0.78454 0.0
H45 H 0.40595 0.73691 0.59427 0.0
Cu46 Cu 0.81914 0.56523 0.36937 0.0
N47 N 0.82061 0.52185 0.34061 0.0
N48 N 0.83867 0.47738 0.30036 0.0
C49 C 0.84799 0.50847 0.31901 0.0
C50 C 0.80399 0.47129 0.31029 0.0
C51 C 0.79304 0.49859 0.33515 0.0
O52 O 0.85431 0.59801 0.34744 0.0
C53 C 0.80969 0.53193 0.44299 0.0
O54 O 0.78326 0.51585 0.42366 0.0
H55 H 0.87412 0.52136 0.31675 0.0
H56 H 0.76639 0.50185 0.34744 0.0
N57 N 0.77399 0.58672 0.36073 0.0
N58 N 0.72765 0.62548 0.36154 0.0
C59 C 0.75791 0.61408 0.3804 0.0
C60 C 0.75335 0.58097 0.32845 0.0
C61 C 0.72481 0.60462 0.32893 0.0
C62 C 0.88846 0.59549 0.35039 0.0
O63 O 0.90255 0.56969 0.37195 0.0
H64 H 0.76914 0.62652 0.40675 0.0
H65 H 0.75948 0.5619 0.30518 0.0
O66 O 0.82826 0.55568 0.42522 0.0
H67 H 0.78722 0.44943 0.29929 0.0
H68 H 0.70388 0.6068 0.3066 0.0
Cu69 Cu 0.56922 0.20676 0.68274 0.0
N70 N 0.52416 0.20162 0.7066 0.0
N71 N 0.47986 0.18515 0.74706 0.0
C72 C 0.51562 0.18349 0.73951 0.0
C73 C 0.4655 0.20514 0.71778 0.0
C74 C 0.49289 0.21545 0.69313 0.0
O75 O 0.60195 0.16883 0.70051 0.0
C76 C 0.53918 0.1864 0.60811 0.0
O77 O 0.52292 0.1611 0.62827 0.0
H78 H 0.53513 0.16905 0.75731 0.0
H79 H 0.49013 0.23119 0.66658 0.0
N80 N 0.58793 0.25168 0.69851 0.0
N81 N 0.61955 0.3031 0.70251 0.0
C82 C 0.61647 0.27041 0.6847 0.0
C83 C 0.57302 0.27309 0.72612 0.0
C84 C 0.59239 0.30471 0.72866 0.0
C85 C 0.59263 0.13603 0.70532 0.0
O86 O 0.55974 0.12587 0.69548 0.0
H87 H 0.63395 0.26076 0.66151 0.0
H88 H 0.54934 0.26628 0.74296 0.0
O89 O 0.56163 0.20717 0.6258 0.0
H90 H 0.43705 0.2106 0.71341 0.0
H91 H 0.58698 0.32722 0.74828 0.0
Cu92 Cu 0.21066 0.56897 0.67421 0.0
N93 N 0.2127 0.53013 0.70896 0.0
N94 N 0.19501 0.48679 0.74992 0.0
C95 C 0.18441 0.51187 0.72361 0.0
C96 C 0.2313 0.48961 0.75219 0.0
C97 C 0.24211 0.51639 0.72698 0.0
O98 O 0.17943 0.60457 0.69858 0.0
C99 C 0.205 0.52329 0.60761 0.0
O100 O 0.22845 0.50427 0.62794 0.0
H101 H 0.15659 0.51713 0.71548 0.0
H102 H 0.26944 0.52586 0.72307 0.0
N103 N 0.25693 0.58893 0.66909 0.0
N104 N 0.3033 0.62773 0.66951 0.0
C105 C 0.26731 0.62362 0.67439 0.0
C106 C 0.2873 0.57078 0.66021 0.0
C107 C 0.31592 0.59454 0.66072 0.0
C108 C 0.14509 0.60317 0.69841 0.0
O109 O 0.12852 0.5786 0.67672 0.0
H110 H 0.24898 0.64525 0.68211 0.0
H111 H 0.28857 0.54214 0.65399 0.0
O112 O 0.19309 0.55258 0.62259 0.0
H113 H 0.24865 0.4744 0.77177 0.0
H114 H 0.3438 0.5881 0.6544 0.0
Cu115 Cu 0.56686 0.82745 0.3775 0.0
N116 N 0.52877 0.82169 0.34166 0.0
N117 N 0.4872 0.83604 0.29604 0.0
C118 C 0.51996 0.84397 0.31193 0.0
C119 C 0.47513 0.80757 0.31687 0.0
C120 C 0.50083 0.79877 0.3448 0.0
O121 O 0.60353 0.85731 0.35378 0.0
C122 C 0.56295 0.85021 0.4575 0.0
O123 O 0.59617 0.83787 0.45979 0.0
H124 H 0.53655 0.86661 0.30343 0.0
H125 H 0.49828 0.77866 0.36754 0.0
N126 N 0.58614 0.78255 0.39102 0.0
N127 N 0.62284 0.73489 0.39643 0.0
C128 C 0.61694 0.76692 0.37862 0.0
C129 C 0.572 0.75958 0.41721 0.0
C130 C 0.59446 0.73013 0.42052 0.0
C131 C 0.60056 0.89145 0.35213 0.0
O132 O 0.57291 0.90711 0.36921 0.0
H133 H 0.63478 0.77888 0.35726 0.0
H134 H 0.547 0.76402 0.43277 0.0
O135 O 0.54665 0.84947 0.42439 0.0
H136 H 0.44856 0.79557 0.31434 0.0
H137 H 0.58972 0.70661 0.43846 0.0
Cu138 Cu 0.81953 0.46825 0.68364 0.0
N139 N 0.82646 0.51321 0.70836 0.0
N140 N 0.84872 0.55743 0.74701 0.0
C141 C 0.85277 0.523 0.73408 0.0
C142 C 0.81882 0.56965 0.72832 0.0
C143 C 0.80522 0.54242 0.70462 0.0
O144 O 0.85375 0.43437 0.70618 0.0
C145 C 0.83788 0.49918 0.60907 0.0
O146 O 0.85668 0.52253 0.6302 0.0
H147 H 0.87474 0.50539 0.74243 0.0
H148 H 0.78133 0.54365 0.6861 0.0
N149 N 0.77326 0.45134 0.69593 0.0
N150 N 0.72313 0.41762 0.69906 0.0
C151 C 0.75651 0.42078 0.68351 0.0
C152 C 0.74992 0.46753 0.72053 0.0
C153 C 0.71911 0.4469 0.72251 0.0
C154 C 0.88799 0.4358 0.70375 0.0
O155 O 0.90295 0.45975 0.68066 0.0
H156 H 0.76846 0.40137 0.6635 0.0
H157 H 0.75515 0.49238 0.73651 0.0
O158 O 0.82213 0.47321 0.62642 0.0
H159 H 0.8073 0.59631 0.73183 0.0
H160 H 0.69588 0.45251 0.74069 0.0
Cu161 Cu 0.4596 0.19628 0.37229 0.0
N162 N 0.50229 0.18954 0.34394 0.0
N163 N 0.54326 0.16883 0.30128 0.0
C164 C 0.50823 0.16807 0.31232 0.0
C165 C 0.5597 0.19187 0.32669 0.0
C166 C 0.53451 0.20445 0.35289 0.0
O167 O 0.42374 0.16182 0.35333 0.0
C168 C 0.48825 0.21372 0.44731 0.0
O169 O 0.49459 0.2447 0.43016 0.0
H170 H 0.48735 0.15228 0.29782 0.0
H171 H 0.53956 0.2228 0.37721 0.0
N172 N 0.44262 0.24317 0.36344 0.0
N173 N 0.40815 0.29272 0.36058 0.0
C174 C 0.41011 0.25776 0.37178 0.0
C175 C 0.46162 0.26966 0.34638 0.0
C176 C 0.44058 0.30015 0.34471 0.0
C177 C 0.43012 0.12809 0.35265 0.0
O178 O 0.46091 0.11634 0.36721 0.0
H179 H 0.38867 0.24322 0.38623 0.0
H180 H 0.48895 0.26696 0.3358 0.0
O181 O 0.47131 0.18928 0.42797 0.0
H182 H 0.58824 0.19829 0.32708 0.0
H183 H 0.44838 0.32579 0.33225 0.0
Cu184 Cu 0.70423 0.95931 0.87399 0.0
N185 N 0.69995 1.00246 0.84567 0.0
N186 N 0.68192 0.04598 0.80452 0.0
C187 C 0.67812 1.01099 0.81504 0.0
C188 C 0.70676 0.05986 0.82976 0.0
C189 C 0.71783 0.03306 0.85487 0.0
O190 O 0.66876 0.92403 0.85503 0.0
C191 C 0.67884 0.99697 0.94171 0.0
O192 O 0.65817 1.01335 0.91581 0.0
H193 H 0.65945 0.9922 0.80118 0.0
H194 H 0.73683 0.03586 0.8791 0.0
N195 N 0.7509 0.94105 0.86591 0.0
N196 N 0.8011 0.90742 0.86737 0.0
C197 C 0.76566 0.90916 0.87673 0.0
C198 C 0.77785 0.95958 0.84902 0.0
C199 C 0.80872 0.93908 0.85004 0.0
C200 C 0.63503 0.93059 0.85349 0.0
O201 O 0.62326 0.96176 0.86683 0.0
H202 H 0.75113 0.88826 0.89209 0.0
H203 H 0.77542 0.98646 0.8372 0.0
O204 O 0.69926 0.97138 0.93002 0.0
H205 H 0.71512 0.08784 0.8313 0.0
H206 H 0.83493 0.94688 0.83904 0.0
Cu207 Cu 0.95774 0.3277 0.16457 0.0
N208 N 0.99404 0.31931 0.20201 0.0
N209 N 0.03608 0.33107 0.2481 0.0
C210 C 1.01316 0.34507 0.22114 0.0
C211 C 0.0311 0.29498 0.24592 0.0
C212 C 1.00509 0.28782 0.21744 0.0
O213 O 0.92313 0.35969 0.18932 0.0
C214 C 1.00649 0.33278 0.10262 0.0
O215 O 0.02111 0.30572 0.12176 0.0
H216 H 1.01016 0.37362 0.21556 0.0
H217 H 0.99441 0.26161 0.20918 0.0
N218 N 0.93383 0.28506 0.14978 0.0
N219 N 0.89679 0.23732 0.14932 0.0
C220 C 0.91314 0.26309 0.17168 0.0
C221 C 0.93034 0.27273 0.11251 0.0
C222 C 0.90747 0.2434 0.11212 0.0
C223 C 0.92806 0.3934 0.19437 0.0
O224 O 0.95636 0.40882 0.17856 0.0
H225 H 0.9089 0.26687 0.20296 0.0
H226 H 0.94262 0.28501 0.08713 0.0
O227 O 0.9786 0.34787 0.11705 0.0
H228 H 0.04432 0.27526 0.26444 0.0
H229 H 0.8989 0.228 0.08643 0.0
Cu230 Cu 0.32926 0.0704 0.87948 0.0
N231 N 0.3335 0.02821 0.84925 0.0
N232 N 0.35239 0.98792 0.80464 0.0
C233 C 0.35292 0.02289 0.81633 0.0
C234 C 0.33124 0.97087 0.8308 0.0
C235 C 0.31971 0.99573 0.85825 0.0
O236 O 0.36248 0.10635 0.85914 0.0
C237 C 0.36072 0.03326 0.94417 0.0
O238 O 0.37968 0.01738 0.91651 0.0
H239 H 0.36743 0.04416 0.80162 0.0
H240 H 0.30345 0.99034 0.88386 0.0
N241 N 0.28164 0.08674 0.87404 0.0
N242 N 0.23163 0.12069 0.87134 0.0
C243 C 0.26764 0.12016 0.87897 0.0
C244 C 0.25367 0.0657 0.863 0.0
C245 C 0.22299 0.0864 0.86133 0.0
C246 C 0.39596 0.09977 0.85469 0.0
O247 O 0.40899 0.06887 0.86701 0.0
H248 H 0.28346 0.14331 0.88837 0.0
H249 H 0.25546 0.03721 0.85625 0.0
O250 O 0.33868 0.05821 0.9346 0.0
H251 H 0.32584 0.94215 0.8311 0.0
H252 H 0.19638 0.07699 0.85262 0.0
Cu253 Cu 0.06874 0.69797 0.18486 0.0
N254 N 0.0273 0.69983 0.21604 0.0
N255 N 0.98201 0.685 0.25595 0.0
C256 C 1.0127 0.67379 0.23844 0.0
C257 C 0.97759 0.7196 0.24473 0.0
C258 C 1.00542 0.72856 0.22002 0.0
O259 O 0.0983 0.65734 0.20121 0.0
C260 C 0.02409 0.68331 0.11797 0.0
O261 O 1.00287 0.66903 0.14443 0.0
H262 H 0.02382 0.64697 0.24131 0.0
H263 H 1.00953 0.75428 0.20587 0.0
N264 N 0.09556 0.7397 0.19659 0.0
N265 N 0.13609 0.78465 0.19642 0.0
C266 C 0.12159 0.7565 0.17593 0.0
C267 C 0.0938 0.75767 0.23111 0.0
C268 C 0.11857 0.78531 0.23107 0.0
C269 C 0.08893 0.62427 0.2004 0.0
O270 O 0.05801 0.61505 0.18389 0.0
H271 H 0.13042 0.74754 0.14717 0.0
H272 H 0.07608 0.75071 0.25503 0.0
O273 O 0.05454 0.69629 0.12901 0.0
H274 H 0.95603 0.73736 0.25397 0.0
H275 H 0.1233 0.80452 0.25478 0.0
Cu276 Cu 0.70587 0.06471 0.1822 0.0
N277 N 0.70747 0.02322 0.21306 0.0
N278 N 0.69254 0.97873 0.25395 0.0
C279 C 0.68182 1.00968 0.23668 0.0
C280 C 0.72653 0.97298 0.24127 0.0
C281 C 0.73558 1.00041 0.21601 0.0
O282 O 0.66394 0.09335 0.19681 0.0
C283 C 0.68355 0.05885 0.10108 0.0
O284 O 0.65891 0.08278 0.11059 0.0
H285 H 0.65569 0.02196 0.24095 0.0
H286 H 0.76096 1.00365 0.20089 0.0
N287 N 0.74623 0.09256 0.1962 0.0
N288 N 0.79314 0.13086 0.19698 0.0
C289 C 0.76916 0.11217 0.17423 0.0
C290 C 0.75578 0.09933 0.23382 0.0
C291 C 0.78441 0.12295 0.23446 0.0
C292 C 0.6311 0.0831 0.19727 0.0
O293 O 0.62238 0.05111 0.18315 0.0
H294 H 0.76789 0.11318 0.14239 0.0
H295 H 0.74189 0.08872 0.25914 0.0
O296 O 0.70656 0.04927 0.12704 0.0
H297 H 0.74387 0.95091 0.25001 0.0
H298 H 0.79659 0.13468 0.26068 0.0
Cu299 Cu 0.07244 0.32729 0.86513 0.0
N300 N 0.02649 0.33114 0.84192 0.0
N301 N 0.97859 0.35004 0.80712 0.0
C302 C 1.01396 0.35541 0.81569 0.0
C303 C 0.96883 0.32096 0.82825 0.0
C304 C 0.99825 0.30963 0.84984 0.0
O305 O 0.10563 0.3611 0.84149 0.0
C306 C 0.0442 0.35355 0.93801 0.0
O307 O 0.02223 0.37226 0.91548 0.0
H308 H 0.03014 0.37697 0.80375 0.0
H309 H 0.99908 0.28721 0.87004 0.0
N310 N 0.09013 0.2807 0.85582 0.0
N311 N 0.1244 0.23107 0.85698 0.0
C312 C 0.12165 0.26608 0.86812 0.0
C313 C 0.07276 0.25413 0.83606 0.0
C314 C 0.09368 0.2235 0.83696 0.0
C315 C 0.10145 0.39516 0.84138 0.0
O316 O 0.07357 0.40933 0.85947 0.0
H317 H 0.14166 0.28047 0.88563 0.0
H318 H 0.04654 0.25671 0.82212 0.0
O319 O 0.06839 0.33407 0.92194 0.0
H320 H 0.94241 0.30843 0.82791 0.0
H321 H 0.08691 0.19757 0.82388 0.0
Cu322 Cu 0.33039 0.95497 0.17577 0.0
N323 N 0.32509 0.9882 0.21703 0.0
N324 N 0.33918 0.02977 0.26279 0.0
C325 C 0.35143 1.00882 0.2331 0.0
C326 C 0.30367 0.02205 0.2656 0.0
C327 C 0.29505 0.99636 0.23729 0.0
O328 O 0.36541 0.91888 0.19226 0.0
C329 C 0.35465 0.96489 0.09801 0.0
O330 O 0.35761 0.92955 0.09834 0.0
H331 H 0.37906 1.00879 0.22308 0.0
H332 H 0.26884 0.9842 0.23208 0.0
N333 N 0.28607 0.93308 0.16377 0.0
N334 N 0.23992 0.89413 0.15922 0.0
C335 C 0.27276 0.90104 0.17552 0.0
C336 C 0.2608 0.94693 0.13957 0.0
C337 C 0.23229 0.92314 0.13685 0.0
C338 C 0.39881 0.92643 0.196 0.0
O339 O 0.41038 0.95832 0.18513 0.0
H340 H 0.28688 0.88312 0.19543 0.0
H341 H 0.26296 0.97275 0.12512 0.0
O342 O 0.34511 0.98117 0.12932 0.0
H343 H 0.28546 0.03345 0.28713 0.0
H344 H 0.20739 0.92747 0.12063 0.0
Cu345 Cu 0.97304 0.71071 0.87366 0.0
N346 N 0.01606 0.70917 0.84509 0.0
N347 N 0.06131 0.69067 0.80653 0.0
C348 C 0.02654 0.68536 0.81712 0.0
C349 C 0.07279 0.71916 0.82833 0.0
C350 C 0.04516 0.73002 0.85241 0.0
O351 O 0.9387 0.67715 0.84965 0.0
C352 C 0.967 0.6993 0.95759 0.0
O353 O 0.93228 0.70546 0.95299 0.0
H354 H 1.00962 0.66363 0.80603 0.0
H355 H 0.04656 0.75102 0.87469 0.0
N356 N 0.95358 0.75761 0.8716 0.0
N357 N 0.91606 0.80509 0.87398 0.0
C358 C 0.9196 0.76902 0.87929 0.0
C359 C 0.9717 0.78739 0.86084 0.0
C360 C 0.94886 0.8165 0.86243 0.0
C361 C 0.94154 0.64292 0.85049 0.0
O362 O 0.96801 0.62836 0.87087 0.0
H363 H 0.89815 0.75137 0.88887 0.0
H364 H 0.99953 0.78809 0.85181 0.0
O365 O 0.98725 0.69918 0.92755 0.0
H366 H 0.09939 0.73122 0.82733 0.0
H367 H 0.95569 0.84398 0.85481 0.0
C368 C 0.35835 0.38048 0.37112 0.0
C369 C 0.3223 0.37089 0.36286 0.0
C370 C 0.38582 0.35455 0.37189 0.0
C371 C 0.37852 0.31785 0.36431 0.0
H372 H 0.36547 0.40847 0.37642 0.0
H373 H 0.41323 0.36342 0.37782 0.0
S374 S 0.28844 0.27844 0.34163 0.0
N375 N 0.28049 0.322 0.34778 0.0
N376 N 0.33229 0.2731 0.34897 0.0
C377 C 0.34237 0.30759 0.35732 0.0
C378 C 0.31424 0.33414 0.35665 0.0
C379 C 0.38179 0.69052 0.68734 0.0
C380 C 0.37174 0.72104 0.66563 0.0
C381 C 0.3586 0.66057 0.68983 0.0
C382 C 0.32441 0.66045 0.67122 0.0
H383 H 0.40848 0.68911 0.70055 0.0
H384 H 0.36781 0.63689 0.70544 0.0
S385 S 0.28515 0.7349 0.61257 0.0
N386 N 0.32533 0.75008 0.6264 0.0
N387 N 0.28131 0.69424 0.63178 0.0
C388 C 0.31348 0.69161 0.65108 0.0
C389 C 0.33732 0.72178 0.64804 0.0
C390 C 0.66396 0.70391 0.35038 0.0
C391 C 0.65167 0.70959 0.38898 0.0
C392 C 0.68945 0.67703 0.34189 0.0
C393 C 0.70403 0.65504 0.37172 0.0
H394 H 0.65281 0.71949 0.32633 0.0
H395 H 0.69754 0.67312 0.31158 0.0
S396 S 0.68316 0.66112 0.47815 0.0
N397 N 0.65785 0.69269 0.45778 0.0
N398 N 0.70558 0.64199 0.44169 0.0
C399 C 0.69311 0.66142 0.41068 0.0
C400 C 0.66692 0.68865 0.41932 0.0
C401 C 0.68288 0.32396 0.69581 0.0
C402 C 0.64557 0.33128 0.69553 0.0
C403 C 0.70842 0.35223 0.69506 0.0
C404 C 0.69735 0.38861 0.69396 0.0
H405 H 0.69226 0.29642 0.6986 0.0
H406 H 0.73686 0.34573 0.6973 0.0
S407 S 0.60297 0.42124 0.68543 0.0
N408 N 0.59908 0.37698 0.68898 0.0
N409 N 0.64674 0.42981 0.68724 0.0
C410 C 0.66019 0.39589 0.69095 0.0
C411 C 0.63439 0.3673 0.69182 0.0
C412 C 0.86121 0.88878 0.89063 0.0
C413 C 0.82704 0.87935 0.8754 0.0
C414 C 0.88935 0.86364 0.89233 0.0
C415 C 0.88472 0.82798 0.87851 0.0
H416 H 0.86652 0.9163 0.90006 0.0
H417 H 0.91547 0.87256 0.90326 0.0
S418 S 0.79967 0.78911 0.83787 0.0
N419 N 0.78928 0.83149 0.84833 0.0
N420 N 0.84248 0.78403 0.85093 0.0
C421 C 0.85007 0.81757 0.86516 0.0
C422 C 0.82118 0.84332 0.8637 0.0
C423 C 0.81459 0.17738 0.15057 0.0
C424 C 0.82022 0.15648 0.18453 0.0
C425 C 0.83972 0.20368 0.13922 0.0
C426 C 0.87126 0.21035 0.16159 0.0
H427 H 0.79024 0.17396 0.13306 0.0
H428 H 0.83415 0.21941 0.11313 0.0
S429 S 0.90098 0.1607 0.25032 0.0
N430 N 0.86166 0.14235 0.23838 0.0
N431 N 0.90804 0.19254 0.21751 0.0
C432 C 0.87761 0.18934 0.19508 0.0
C433 C 0.85235 0.16222 0.20641 0.0
C434 C 0.14389 0.171 0.8786 0.0
C435 C 0.15281 0.20572 0.8656 0.0
C436 C 0.17019 0.14412 0.88234 0.0
C437 C 0.20654 0.1506 0.87266 0.0
H438 H 0.11609 0.16441 0.88516 0.0
H439 H 0.16177 0.11767 0.89203 0.0
S440 S 0.24393 0.23772 0.83813 0.0
N441 N 0.2005 0.24594 0.84449 0.0
N442 N 0.25014 0.19511 0.8505 0.0
C443 C 0.21612 0.18575 0.86101 0.0
C444 C 0.18919 0.21336 0.85767 0.0
C445 C 0.21428 0.84945 0.20484 0.0
C446 C 0.21633 0.8639 0.16678 0.0
C447 C 0.1888 0.82277 0.21387 0.0
C448 C 0.1645 0.80919 0.18514 0.0
H449 H 0.23154 0.85983 0.22823 0.0
H450 H 0.18773 0.81306 0.24382 0.0
S451 S 0.16115 0.83557 0.08002 0.0
N452 N 0.19388 0.86056 0.0993 0.0
N453 N 0.14557 0.81093 0.11647 0.0
C454 C 0.16735 0.82224 0.14653 0.0
C455 C 0.19327 0.84952 0.13734 0.0
C456 C 0.16663 0.58428 0.25904 0.0
C457 C 0.15133 0.55348 0.27624 0.0
C458 C 0.14674 0.60597 0.23312 0.0
C459 C 0.11068 0.59773 0.22308 0.0
H460 H 0.19407 0.59215 0.26635 0.0
H461 H 0.15954 0.62995 0.22164 0.0
S462 S 0.05815 0.51931 0.25903 0.0
N463 N 0.09806 0.51531 0.28065 0.0
N464 N 0.06081 0.55567 0.23138 0.0
C465 C 0.09545 0.56609 0.2387 0.0
C466 C 0.11573 0.54407 0.26539 0.0
C467 C 0.55013 0.89461 0.80285 0.0
C468 C 0.56027 0.86003 0.78963 0.0
C469 C 0.57411 0.91659 0.82445 0.0
C470 C 0.6095 0.90513 0.83342 0.0
H471 H 0.52343 0.9049 0.79614 0.0
H472 H 0.56495 0.94318 0.8333 0.0
S473 S 0.64915 0.81635 0.8062 0.0
N474 N 0.60778 0.81493 0.78761 0.0
N475 N 0.65304 0.85613 0.82819 0.0
C476 C 0.61976 0.8702 0.82106 0.0
C477 C 0.59512 0.84768 0.79925 0.0
C478 C 0.90678 0.45236 0.22293 0.0
C479 C 0.9039 0.41446 0.22079 0.0
C480 C 0.88553 0.4727 0.24901 0.0
C481 C 0.86057 0.456 0.27402 0.0
H482 H 0.92563 0.46653 0.20436 0.0
H483 H 0.88841 0.50179 0.24927 0.0
S484 S 0.84419 0.35747 0.28208 0.0
N485 N 0.87472 0.361 0.24721 0.0
N486 N 0.83553 0.3992 0.29649 0.0
C487 C 0.85764 0.41815 0.27251 0.0
C488 C 0.8791 0.39742 0.24586 0.0
C489 C 0.47162 0.13122 0.78834 0.0
C490 C 0.46042 0.16591 0.77702 0.0
C491 C 0.45127 0.11064 0.81461 0.0
C492 C 0.41881 0.12388 0.83056 0.0
H493 H 0.49557 0.11926 0.77566 0.0
H494 H 0.46051 0.08363 0.8213 0.0
S495 S 0.38023 0.21506 0.81434 0.0
N496 N 0.4168 0.21407 0.78687 0.0
N497 N 0.37816 0.17523 0.83569 0.0
C498 C 0.40814 0.15917 0.82081 0.0
C499 C 0.429 0.18019 0.79417 0.0
C500 C 0.13956 0.4766 0.78817 0.0
C501 C 0.17219 0.46354 0.77273 0.0
C502 C 0.11723 0.45453 0.81092 0.0
C503 C 0.12646 0.41837 0.81871 0.0
H504 H 0.13147 0.50425 0.78301 0.0
H505 H 0.09234 0.46586 0.82207 0.0
S506 S 0.20884 0.37104 0.78386 0.0
N507 N 0.21241 0.4122 0.76603 0.0
N508 N 0.17073 0.3706 0.80873 0.0
C509 C 0.15909 0.405 0.80326 0.0
C510 C 0.18188 0.4276 0.78033 0.0
C511 C 0.45187 0.91658 0.24056 0.0
C512 C 0.4232 0.90198 0.2181 0.0
C513 C 0.47311 0.8948 0.26513 0.0
C514 C 0.46692 0.85736 0.26792 0.0
H515 H 0.45709 0.94537 0.24047 0.0
H516 H 0.49367 0.90781 0.28311 0.0
S517 S 0.39837 0.80516 0.21055 0.0
N518 N 0.39147 0.84748 0.19758 0.0
N519 N 0.43232 0.8062 0.24243 0.0
C520 C 0.43946 0.84216 0.24396 0.0
C521 C 0.41742 0.86451 0.2194 0.0
C522 C 0.87506 0.61552 0.7695 0.0
C523 C 0.87178 0.57788 0.77373 0.0
C524 C 0.89709 0.63618 0.79481 0.0
C525 C 0.91716 0.62016 0.82545 0.0
H526 H 0.86091 0.6292 0.74593 0.0
H527 H 0.89886 0.66496 0.78975 0.0
S528 S 0.91642 0.52291 0.85116 0.0
N529 N 0.88903 0.52569 0.81266 0.0
N530 N 0.93123 0.56436 0.85957 0.0
C531 C 0.91394 0.58258 0.83039 0.0
C532 C 0.89115 0.5615 0.80472 0.0
C533 C 0.61181 0.14233 0.22563 0.0
C534 C 0.6044 0.10553 0.21884 0.0
C535 C 0.59054 0.16317 0.25101 0.0
C536 C 0.561 0.14813 0.27086 0.0
H537 H 0.63498 0.15499 0.21217 0.0
H538 H 0.5979 0.19113 0.25602 0.0
S539 S 0.5289 0.05342 0.26201 0.0
N540 N 0.56413 0.05528 0.23259 0.0
N541 N 0.5245 0.09441 0.28082 0.0
C542 C 0.55215 0.1118 0.26298 0.0
C543 C 0.57377 0.09052 0.23686 0.0
C544 C 0.62401 0.05866 0.7703 0.0
C545 C 0.66103 0.06591 0.77587 0.0
C546 C 0.60238 0.08063 0.74616 0.0
C547 C 0.61692 0.11078 0.72675 0.0
H548 H 0.61132 0.03681 0.78603 0.0
H549 H 0.57377 0.07472 0.74404 0.0
S550 S 0.71346 0.13789 0.72676 0.0
N551 N 0.71209 0.10268 0.75621 0.0
N552 N 0.67148 0.14431 0.71157 0.0
C553 C 0.65427 0.11714 0.73047 0.0
C554 C 0.67628 0.09465 0.75482 0.0
C555 C 0.0703 0.40517 0.31522 0.0
C556 C 0.10554 0.39378 0.32501 0.0
C557 C 0.04778 0.38437 0.29054 0.0
C558 C 0.05933 0.35113 0.2748 0.0
H559 H 0.06014 0.43078 0.32599 0.0
H560 H 0.02103 0.39443 0.28368 0.0
S561 S 0.14873 0.30852 0.2915 0.0
N562 N 0.15061 0.34645 0.31733 0.0
N563 N 0.10819 0.3076 0.27083 0.0
C564 C 0.09415 0.33898 0.28486 0.0
C565 C 0.11726 0.36024 0.30991 0.0
C566 C 0.35842 0.9405 0.75376 0.0
C567 C 0.37276 0.97084 0.77361 0.0
C568 C 0.37919 0.92042 0.72716 0.0
C569 C 0.41518 0.92993 0.71917 0.0
H570 H 0.3311 0.93169 0.75957 0.0
H571 H 0.36719 0.89665 0.71358 0.0
S572 S 0.46535 1.00782 0.7625 0.0
N573 N 0.42505 1.00993 0.78279 0.0
N574 N 0.46391 0.97271 0.73224 0.0
C575 C 0.42942 0.9612 0.73748 0.0
C576 C 0.40827 0.98153 0.76483 0.0
C577 C 0.94989 0.61655 0.32934 0.0
C578 C 0.91201 0.61991 0.3272 0.0
C579 C 0.97257 0.638 0.30622 0.0
C580 C 0.95832 0.66381 0.28018 0.0
H581 H 0.96224 0.59697 0.34876 0.0
H582 H 1.00151 0.63448 0.30884 0.0
S583 S 0.86115 0.68259 0.26213 0.0
N584 N 0.86138 0.65106 0.29616 0.0
N585 N 0.904 0.69067 0.25255 0.0
C586 C 0.92058 0.66752 0.27772 0.0
C587 C 0.89746 0.64576 0.30123 0.0
C588 C 0.64659 0.97226 0.30575 0.0
C589 C 0.67138 0.95639 0.27967 0.0
C590 C 0.62445 0.95109 0.32964 0.0
C591 C 0.62616 0.91312 0.32846 0.0
H592 H 0.64424 1.00135 0.30767 0.0
H593 H 0.6056 0.9647 0.34893 0.0
S594 S 0.68588 0.85817 0.2642 0.0
N595 N 0.69575 0.90036 0.25334 0.0
N596 N 0.65474 0.86052 0.29861 0.0
C597 C 0.65118 0.89687 0.30278 0.0
C598 C 0.67363 0.91849 0.27833 0.0
C599 C 0.94748 0.40724 0.7218 0.0
C600 C 0.91072 0.41308 0.73007 0.0
C601 C 0.96954 0.38672 0.74706 0.0
C602 C 0.95572 0.3714 0.78164 0.0
H603 H 0.95931 0.41841 0.6955 0.0
H604 H 0.99751 0.38248 0.73926 0.0
S605 S 0.86239 0.38198 0.81909 0.0
N606 N 0.86218 0.4036 0.77679 0.0
N607 N 0.9037 0.36596 0.82434 0.0
C608 C 0.91926 0.37774 0.79069 0.0
C609 C 0.89677 0.39833 0.76492 0.0
C610 C 0.4175 0.06816 0.32072 0.0
C611 C 0.40517 0.10272 0.3318 0.0
C612 C 0.39567 0.04448 0.29856 0.0
C613 C 0.36044 0.05411 0.28697 0.0
H614 H 0.44459 0.05952 0.3284 0.0
H615 H 0.40646 0.01833 0.29038 0.0
S616 S 0.31477 0.14097 0.30873 0.0
N617 N 0.35495 0.1451 0.32983 0.0
N618 N 0.31403 0.10037 0.28827 0.0
C619 C 0.34741 0.08821 0.29841 0.0
C620 C 0.36976 0.11256 0.32072 0.0
C621 C 0.08709 0.63275 0.71923 0.0
C622 C 0.1242 0.62659 0.72573 0.0
C623 C 0.06668 0.65367 0.74568 0.0
C624 C 0.08255 0.66904 0.77974 0.0
H625 H 0.07369 0.62147 0.69343 0.0
H626 H 0.03834 0.65812 0.73927 0.0
S627 S 0.17781 0.65766 0.81264 0.0
N628 N 0.17542 0.63588 0.77011 0.0
N629 N 0.13701 0.67409 0.82003 0.0
C630 C 0.11945 0.66238 0.78699 0.0
C631 C 0.14026 0.64146 0.75995 0.0
C632 C 0.21204 0.48141 0.5497 0.0
C633 C 0.19453 0.51131 0.56697 0.0
C634 C 0.20459 0.47045 0.51078 0.0
C635 C 0.17914 0.48876 0.48726 0.0
H636 H 0.23233 0.46658 0.56605 0.0
H637 H 0.21949 0.44776 0.49889 0.0
S638 S 0.1238 0.56732 0.51914 0.0
N639 N 0.14916 0.558 0.55798 0.0
N640 N 0.13498 0.53745 0.48503 0.0
C641 C 0.16052 0.51804 0.50454 0.0
C642 C 0.16825 0.5293 0.54424 0.0
C643 C 0.55744 0.85039 0.53097 0.0
C644 C 0.54279 0.85939 0.49395 0.0
C645 C 0.53707 0.85371 0.56542 0.0
C646 C 0.50114 0.86624 0.56441 0.0
H647 H 0.58439 0.83921 0.53334 0.0
H648 H 0.54928 0.84501 0.59286 0.0
S649 S 0.4519 0.89858 0.47566 0.0
N650 N 0.49144 0.88518 0.4589 0.0
N651 N 0.45319 0.89144 0.52358 0.0
C652 C 0.48695 0.87759 0.52793 0.0
C653 C 0.50773 0.87414 0.49276 0.0
C654 C 0.84105 0.54365 0.50804 0.0
C655 C 0.8177 0.52215 0.48476 0.0
C656 C 0.84803 0.53552 0.54778 0.0
C657 C 0.83217 0.50538 0.56601 0.0
H658 H 0.85362 0.56739 0.49572 0.0
H659 H 0.86567 0.55344 0.56445 0.0
S660 S 0.77097 0.43876 0.51729 0.0
N661 N 0.78009 0.46818 0.48252 0.0
N662 N 0.79327 0.45294 0.55678 0.0
C663 C 0.80955 0.48305 0.54273 0.0
C664 C 0.8023 0.49143 0.50232 0.0
C665 C 0.49071 0.17649 0.50894 0.0
C666 C 0.50223 0.20693 0.48792 0.0
C667 C 0.50337 0.16973 0.54733 0.0
C668 C 0.52834 0.19295 0.56633 0.0
H669 H 0.47137 0.15786 0.49587 0.0
H670 H 0.49311 0.1462 0.56233 0.0
S671 S 0.5687 0.27548 0.52338 0.0
N672 N 0.54129 0.25989 0.48861 0.0
N673 N 0.56508 0.24712 0.56036 0.0
C674 C 0.54072 0.22309 0.5453 0.0
C675 C 0.52766 0.2301 0.5063 0.0
C676 C 0.65749 0.05329 0.03285 0.0
C677 C 0.68329 0.04211 0.0609 0.0
C678 C 0.65598 0.038 0.99495 0.0
C679 C 0.68014 1.01069 0.98316 0.0
H680 H 0.63817 0.07422 0.04006 0.0
H681 H 0.63567 0.048 0.97464 0.0
S682 S 0.75268 0.97104 0.04545 0.0
N683 N 0.73347 1.00142 0.07427 0.0
N684 N 0.7306 0.97274 1.00304 0.0
C685 C 0.70591 0.99887 1.01099 0.0
C686 C 0.70752 0.01456 0.04973 0.0
C687 C 1.00655 0.36749 0.9974 0.0
C688 C 0.0378 0.35171 0.98125 0.0
C689 C 0.99745 0.36264 0.03708 0.0
C690 C 0.01919 0.34178 0.06236 0.0
H691 H 0.98816 0.38275 0.97898 0.0
H692 H 0.97243 0.37424 0.04754 0.0
S693 S 0.10643 0.29859 0.03624 0.0
N694 N 0.09232 0.3172 0.99488 0.0
N695 N 0.07533 0.30816 0.06924 0.0
C696 C 0.05155 0.32751 0.04718 0.0
C697 C 0.06082 0.33245 1.00675 0.0
C698 C 0.37755 0.98457 0.99152 0.0
C699 C 0.36176 0.01861 0.98485 0.0
C700 C 0.37596 0.968 0.02842 0.0
C701 C 0.35894 0.98488 0.06052 0.0
H702 H 0.39031 0.96988 0.9677 0.0
H703 H 0.3877 0.94139 0.03156 0.0
S704 S 0.3158 0.07542 0.05971 0.0
N705 N 0.33018 0.06953 1.01421 0.0
N706 N 0.32756 0.03863 0.08375 0.0
C707 C 0.34434 0.01962 0.05482 0.0
C708 C 0.34562 0.03638 1.01699 0.0
C709 C 0.96001 0.68635 0.0296 0.0
C710 C 0.98275 0.69405 0.99777 0.0
C711 C 0.97383 0.68235 0.06797 0.0
C712 C 1.01098 0.68637 0.07645 0.0
H713 H 0.93117 0.68339 1.02495 0.0
H714 H 0.95495 0.67666 0.09131 0.0
S715 S 0.08239 0.70618 1.00367 0.0
N716 N 0.04469 0.705 0.97733 0.0
N717 N 0.07042 0.69799 0.04948 0.0
C718 C 0.03414 0.69389 0.04491 0.0
C719 C 0.02012 0.69754 1.00564 0.0
loop_
_geom_bond_atom_site_label_1
_geom_bond_atom_site_label_2
_geom_bond_distance
_geom_bond_site_symmetry_2
_ccdc_geom_bond_type
Cu0 N1 1.999 . S
Cu0 O6 1.974 . S
Cu0 N11 1.985 . S
Cu0 O20 1.959 . S
N1 Cu0 1.999 . S
N1 C3 1.263 . S
N1 C5 1.389 . S
N2 C3 1.358 . S
N2 C4 1.400 . S
C3 N1 1.263 . S
C3 N2 1.358 . S
C3 H9 0.930 . S
C4 N2 1.400 . S
C4 C5 1.351 . S
C4 H21 0.930 . S
C5 N1 1.389 . S
C5 C4 1.351 . S
C5 H10 0.930 . S
O6 Cu0 1.974 . S
O6 C16 1.282 . S
C7 O8 1.261 . S
C7 O20 1.251 . S
O8 C7 1.261 . S
H9 C3 0.930 . S
H10 C5 0.930 . S
N11 Cu0 1.985 . S
N11 C13 1.335 . S
N11 C14 1.390 . S
N12 C13 1.345 . S
N12 C15 1.336 . S
C13 N11 1.335 . S
C13 N12 1.345 . S
C13 H18 0.930 . S
C14 N11 1.390 . S
C14 C15 1.346 . S
C14 H19 0.930 . S
C15 N12 1.336 . S
C15 C14 1.346 . S
C15 H22 0.929 . S
C16 O6 1.282 . S
C16 O17 1.216 . S
O17 C16 1.216 . S
H18 C13 0.930 . S
H19 C14 0.930 . S
O20 Cu0 1.959 . S
O20 C7 1.251 . S
H21 C4 0.930 . S
H22 C15 0.929 . S
Cu23 N24 1.999 . S
Cu23 O29 1.974 . S
Cu23 N34 1.985 . S
Cu23 O43 1.959 . S
N24 Cu23 1.999 . S
N24 C26 1.263 . S
N24 C28 1.389 . S
N25 C26 1.358 . S
N25 C27 1.400 . S
C26 N24 1.263 . S
C26 N25 1.358 . S
C26 H32 0.930 . S
C27 N25 1.400 . S
C27 C28 1.351 . S
C27 H44 0.930 . S
C28 N24 1.389 . S
C28 C27 1.351 . S
C28 H33 0.930 . S
O29 Cu23 1.974 . S
O29 C39 1.282 . S
C30 O31 1.261 . S
C30 O43 1.251 . S
O31 C30 1.261 . S
H32 C26 0.930 . S
H33 C28 0.930 . S
N34 Cu23 1.985 . S
N34 C36 1.335 . S
N34 C37 1.390 . S
N35 C36 1.345 . S
N35 C38 1.336 . S
C36 N34 1.335 . S
C36 N35 1.345 . S
C36 H41 0.930 . S
C37 N34 1.390 . S
C37 C38 1.346 . S
C37 H42 0.930 . S
C38 N35 1.336 . S
C38 C37 1.346 . S
C38 H45 0.929 . S
C39 O29 1.282 . S
C39 O40 1.216 . S
O40 C39 1.216 . S
H41 C36 0.930 . S
H42 C37 0.930 . S
O43 Cu23 1.959 . S
O43 C30 1.251 . S
H44 C27 0.930 . S
H45 C38 0.929 . S
Cu46 N47 1.999 . S
Cu46 O52 1.974 . S
Cu46 N57 1.985 . S
Cu46 O66 1.959 . S
N47 Cu46 1.999 . S
N47 C49 1.263 . S
N47 C51 1.389 . S
N48 C49 1.358 . S
N48 C50 1.400 . S
C49 N47 1.263 . S
C49 N48 1.358 . S
C49 H55 0.930 . S
C50 N48 1.400 . S
C50 C51 1.351 . S
C50 H67 0.930 . S
C51 N47 1.389 . S
C51 C50 1.351 . S
C51 H56 0.930 . S
O52 Cu46 1.974 . S
O52 C62 1.282 . S
C53 O54 1.261 . S
C53 O66 1.251 . S
O54 C53 1.261 . S
H55 C49 0.930 . S
H56 C51 0.930 . S
N57 Cu46 1.985 . S
N57 C59 1.335 . S
N57 C60 1.390 . S
N58 C59 1.345 . S
N58 C61 1.336 . S
C59 N57 1.335 . S
C59 N58 1.345 . S
C59 H64 0.930 . S
C60 N57 1.390 . S
C60 C61 1.346 . S
C60 H65 0.930 . S
C61 N58 1.336 . S
C61 C60 1.346 . S
C61 H68 0.929 . S
C62 O52 1.282 . S
C62 O63 1.216 . S
O63 C62 1.216 . S
H64 C59 0.930 . S
H65 C60 0.930 . S
O66 Cu46 1.959 . S
O66 C53 1.251 . S
H67 C50 0.930 . S
H68 C61 0.929 . S
Cu69 N70 1.999 . S
Cu69 O75 1.974 . S
Cu69 N80 1.985 . S
Cu69 O89 1.959 . S
N70 Cu69 1.999 . S
N70 C72 1.263 . S
N70 C74 1.389 . S
N71 C72 1.358 . S
N71 C73 1.400 . S
C72 N70 1.263 . S
C72 N71 1.358 . S
C72 H78 0.930 . S
C73 N71 1.400 . S
C73 C74 1.351 . S
C73 H90 0.930 . S
C74 N70 1.389 . S
C74 C73 1.351 . S
C74 H79 0.930 . S
O75 Cu69 1.974 . S
O75 C85 1.282 . S
C76 O77 1.261 . S
C76 O89 1.251 . S
O77 C76 1.261 . S
H78 C72 0.930 . S
H79 C74 0.930 . S
N80 Cu69 1.985 . S
N80 C82 1.335 . S
N80 C83 1.390 . S
N81 C82 1.345 . S
N81 C84 1.336 . S
C82 N80 1.335 . S
C82 N81 1.345 . S
C82 H87 0.930 . S
C83 N80 1.390 . S
C83 C84 1.346 . S
C83 H88 0.930 . S
C84 N81 1.336 . S
C84 C83 1.346 . S
C84 H91 0.929 . S
C85 O75 1.282 . S
C85 O86 1.216 . S
O86 C85 1.216 . S
H87 C82 0.930 . S
H88 C83 0.930 . S
O89 Cu69 1.959 . S
O89 C76 1.251 . S
H90 C73 0.930 . S
H91 C84 0.929 . S
Cu92 N93 1.999 . S
Cu92 O98 1.974 . S
Cu92 N103 1.985 . S
Cu92 O112 1.959 . S
N93 Cu92 1.999 . S
N93 C95 1.263 . S
N93 C97 1.389 . S
N94 C95 1.358 . S
N94 C96 1.400 . S
C95 N93 1.263 . S
C95 N94 1.358 . S
C95 H101 0.930 . S
C96 N94 1.400 . S
C96 C97 1.351 . S
C96 H113 0.930 . S
C97 N93 1.389 . S
C97 C96 1.351 . S
C97 H102 0.930 . S
O98 Cu92 1.974 . S
O98 C108 1.282 . S
C99 O100 1.261 . S
C99 O112 1.251 . S
O100 C99 1.261 . S
H101 C95 0.930 . S
H102 C97 0.930 . S
N103 Cu92 1.985 . S
N103 C105 1.335 . S
N103 C106 1.390 . S
N104 C105 1.345 . S
N104 C107 1.336 . S
C105 N103 1.335 . S
C105 N104 1.345 . S
C105 H110 0.930 . S
C106 N103 1.390 . S
C106 C107 1.346 . S
C106 H111 0.930 . S
C107 N104 1.336 . S
C107 C106 1.346 . S
C107 H114 0.929 . S
C108 O98 1.282 . S
C108 O109 1.216 . S
O109 C108 1.216 . S
H110 C105 0.930 . S
H111 C106 0.930 . S
O112 Cu92 1.959 . S
O112 C99 1.251 . S
H113 C96 0.930 . S
H114 C107 0.929 . S
Cu115 N116 1.999 . S
Cu115 O121 1.974 . S
Cu115 N126 1.985 . S
Cu115 O135 1.959 . S
N116 Cu115 1.999 . S
N116 C118 1.263 . S
N116 C120 1.389 . S
N117 C118 1.358 . S
N117 C119 1.400 . S
C118 N116 1.263 . S
C118 N117 1.358 . S
C118 H124 0.930 . S
C119 N117 1.400 . S
C119 C120 1.351 . S
C119 H136 0.930 . S
C120 N116 1.389 . S
C120 C119 1.351 . S
C120 H125 0.930 . S
O121 Cu115 1.974 . S
O121 C131 1.282 . S
C122 O123 1.261 . S
C122 O135 1.251 . S
O123 C122 1.261 . S
H124 C118 0.930 . S
H125 C120 0.930 . S
N126 Cu115 1.985 . S
N126 C128 1.335 . S
N126 C129 1.390 . S
N127 C128 1.345 . S
N127 C130 1.336 . S
C128 N126 1.335 . S
C128 N127 1.345 . S
C128 H133 0.930 . S
C129 N126 1.390 . S
C129 C130 1.346 . S
C129 H134 0.930 . S
C130 N127 1.336 . S
C130 C129 1.346 . S
C130 H137 0.929 . S
C131 O121 1.282 . S
C131 O132 1.216 . S
O132 C131 1.216 . S
H133 C128 0.930 . S
H134 C129 0.930 . S
O135 Cu115 1.959 . S
O135 C122 1.251 . S
H136 C119 0.930 . S
H137 C130 0.929 . S
Cu138 N139 1.999 . S
Cu138 O144 1.974 . S
Cu138 N149 1.985 . S
Cu138 O158 1.959 . S
N139 Cu138 1.999 . S
N139 C141 1.263 . S
N139 C143 1.389 . S
N140 C141 1.358 . S
N140 C142 1.400 . S
C141 N139 1.263 . S
C141 N140 1.358 . S
C141 H147 0.930 . S
C142 N140 1.400 . S
C142 C143 1.351 . S
C142 H159 0.930 . S
C143 N139 1.389 . S
C143 C142 1.351 . S
C143 H148 0.930 . S
O144 Cu138 1.974 . S
O144 C154 1.282 . S
C145 O146 1.261 . S
C145 O158 1.251 . S
O146 C145 1.261 . S
H147 C141 0.930 . S
H148 C143 0.930 . S
N149 Cu138 1.985 . S
N149 C151 1.335 . S
N149 C152 1.390 . S
N150 C151 1.345 . S
N150 C153 1.336 . S
C151 N149 1.335 . S
C151 N150 1.345 . S
C151 H156 0.930 . S
C152 N149 1.390 . S
C152 C153 1.346 . S
C152 H157 0.930 . S
C153 N150 1.336 . S
C153 C152 1.346 . S
C153 H160 0.929 . S
C154 O144 1.282 . S
C154 O155 1.216 . S
O155 C154 1.216 . S
H156 C151 0.930 . S
H157 C152 0.930 . S
O158 Cu138 1.959 . S
O158 C145 1.251 . S
H159 C142 0.930 . S
H160 C153 0.929 . S
Cu161 N162 1.999 . S
Cu161 O167 1.974 . S
Cu161 N172 1.985 . S
Cu161 O181 1.959 . S
N162 Cu161 1.999 . S
N162 C164 1.263 . S
N162 C166 1.389 . S
N163 C164 1.358 . S
N163 C165 1.400 . S
C164 N162 1.263 . S
C164 N163 1.358 . S
C164 H170 0.930 . S
C165 N163 1.400 . S
C165 C166 1.351 . S
C165 H182 0.930 . S
C166 N162 1.389 . S
C166 C165 1.351 . S
C166 H171 0.930 . S
O167 Cu161 1.974 . S
O167 C177 1.282 . S
C168 O169 1.261 . S
C168 O181 1.251 . S
O169 C168 1.261 . S
H170 C164 0.930 . S
H171 C166 0.930 . S
N172 Cu161 1.985 . S
N172 C174 1.335 . S
N172 C175 1.390 . S
N173 C174 1.345 . S
N173 C176 1.336 . S
C174 N172 1.335 . S
C174 N173 1.345 . S
C174 H179 0.930 . S
C175 N172 1.390 . S
C175 C176 1.346 . S
C175 H180 0.930 . S
C176 N173 1.336 . S
C176 C175 1.346 . S
C176 H183 0.929 . S
C177 O167 1.282 . S
C177 O178 1.216 . S
O178 C177 1.216 . S
H179 C174 0.930 . S
H180 C175 0.930 . S
O181 Cu161 1.959 . S
O181 C168 1.251 . S
H182 C165 0.930 . S
H183 C176 0.929 . S
Cu184 N185 1.999 1_565 S
Cu184 O190 1.974 . S
Cu184 N195 1.985 . S
Cu184 O204 1.959 . S
N185 Cu184 1.999 1_545 S
N185 C187 1.263 . S
N185 C189 1.389 . S
N186 C187 1.358 . S
N186 C188 1.400 . S
C187 N185 1.263 . S
C187 N186 1.358 . S
C187 H193 0.930 . S
C188 N186 1.400 . S
C188 C189 1.351 . S
C188 H205 0.930 . S
C189 N185 1.389 . S
C189 C188 1.351 . S
C189 H194 0.930 . S
O190 Cu184 1.974 . S
O190 C200 1.282 . S
C191 O192 1.261 . S
C191 O204 1.251 . S
O192 C191 1.261 . S
H193 C187 0.930 . S
H194 C189 0.930 . S
N195 Cu184 1.985 . S
N195 C197 1.335 . S
N195 C198 1.390 . S
N196 C197 1.345 . S
N196 C199 1.336 . S
C197 N195 1.335 . S
C197 N196 1.345 . S
C197 H202 0.930 . S
C198 N195 1.390 . S
C198 C199 1.346 . S
C198 H203 0.930 . S
C199 N196 1.336 . S
C199 C198 1.346 . S
C199 H206 0.929 . S
C200 O190 1.282 . S
C200 O201 1.216 . S
O201 C200 1.216 . S
H202 C197 0.930 . S
H203 C198 0.930 . S
O204 Cu184 1.959 . S
O204 C191 1.251 . S
H205 C188 0.930 . S
H206 C199 0.929 . S
Cu207 N208 1.999 1_655 S
Cu207 O213 1.974 . S
Cu207 N218 1.985 . S
Cu207 O227 1.959 . S
N208 Cu207 1.999 1_455 S
N208 C210 1.263 . S
N208 C212 1.389 . S
N209 C210 1.358 . S
N209 C211 1.400 . S
C210 N208 1.263 . S
C210 N209 1.358 . S
C210 H216 0.930 . S
C211 N209 1.400 . S
C211 C212 1.351 . S
C211 H228 0.930 . S
C212 N208 1.389 . S
C212 C211 1.351 . S
C212 H217 0.930 . S
O213 Cu207 1.974 . S
O213 C223 1.282 . S
C214 O215 1.261 . S
C214 O227 1.251 . S
O215 C214 1.261 . S
H216 C210 0.930 . S
H217 C212 0.930 . S
N218 Cu207 1.985 . S
N218 C220 1.335 . S
N218 C221 1.390 . S
N219 C220 1.345 . S
N219 C222 1.336 . S
C220 N218 1.335 . S
C220 N219 1.345 . S
C220 H225 0.930 . S
C221 N218 1.390 . S
C221 C222 1.346 . S
C221 H226 0.930 . S
C222 N219 1.336 . S
C222 C221 1.346 . S
C222 H229 0.929 . S
C223 O213 1.282 . S
C223 O224 1.216 . S
O224 C223 1.216 . S
H225 C220 0.930 . S
H226 C221 0.930 . S
O227 Cu207 1.959 . S
O227 C214 1.251 . S
H228 C211 0.930 . S
H229 C222 0.929 . S
Cu230 N231 1.999 1_545 S
Cu230 O236 1.974 . S
Cu230 N241 1.985 . S
Cu230 O250 1.959 . S
N231 Cu230 1.999 1_565 S
N231 C233 1.263 . S
N231 C235 1.389 . S
N232 C233 1.358 . S
N232 C234 1.400 . S
C233 N231 1.263 . S
C233 N232 1.358 . S
C233 H239 0.930 . S
C234 N232 1.400 . S
C234 C235 1.351 . S
C234 H251 0.930 . S
C235 N231 1.389 . S
C235 C234 1.351 . S
C235 H240 0.930 . S
O236 Cu230 1.974 . S
O236 C246 1.282 . S
C237 O238 1.261 . S
C237 O250 1.251 . S
O238 C237 1.261 . S
H239 C233 0.930 . S
H240 C235 0.930 . S
N241 Cu230 1.985 . S
N241 C243 1.335 . S
N241 C244 1.390 . S
N242 C243 1.345 . S
N242 C245 1.336 . S
C243 N241 1.335 . S
C243 N242 1.345 . S
C243 H248 0.930 . S
C244 N241 1.390 . S
C244 C245 1.346 . S
C244 H249 0.930 . S
C245 N242 1.336 . S
C245 C244 1.346 . S
C245 H252 0.929 . S
C246 O236 1.282 . S
C246 O247 1.216 . S
O247 C246 1.216 . S
H248 C243 0.930 . S
H249 C244 0.930 . S
O250 Cu230 1.959 . S
O250 C237 1.251 . S
H251 C234 0.930 . S
H252 C245 0.929 . S
Cu253 N254 1.999 1_455 S
Cu253 O259 1.974 . S
Cu253 N264 1.985 . S
Cu253 O273 1.959 . S
N254 Cu253 1.999 1_655 S
N254 C256 1.263 . S
N254 C258 1.389 . S
N255 C256 1.358 . S
N255 C257 1.400 . S
C256 N254 1.263 . S
C256 N255 1.358 . S
C256 H262 0.930 . S
C257 N255 1.400 . S
C257 C258 1.351 . S
C257 H274 0.930 . S
C258 N254 1.389 . S
C258 C257 1.351 . S
C258 H263 0.930 . S
O259 Cu253 1.974 . S
O259 C269 1.282 . S
C260 O261 1.261 . S
C260 O273 1.251 . S
O261 C260 1.261 . S
H262 C256 0.930 . S
H263 C258 0.930 . S
N264 Cu253 1.985 . S
N264 C266 1.335 . S
N264 C267 1.390 . S
N265 C266 1.345 . S
N265 C268 1.336 . S
C266 N264 1.335 . S
C266 N265 1.345 . S
C266 H271 0.930 . S
C267 N264 1.390 . S
C267 C268 1.346 . S
C267 H272 0.930 . S
C268 N265 1.336 . S
C268 C267 1.346 . S
C268 H275 0.929 . S
C269 O259 1.282 . S
C269 O270 1.216 . S
O270 C269 1.216 . S
H271 C266 0.930 . S
H272 C267 0.930 . S
O273 Cu253 1.959 . S
O273 C260 1.251 . S
H274 C257 0.930 . S
H275 C268 0.929 . S
Cu276 N277 1.999 1_545 S
Cu276 O282 1.974 . S
Cu276 N287 1.985 . S
Cu276 O296 1.959 . S
N277 Cu276 1.999 1_565 S
N277 C279 1.263 . S
N277 C281 1.389 . S
N278 C279 1.358 . S
N278 C280 1.400 . S
C279 N277 1.263 . S
C279 N278 1.358 . S
C279 H285 0.930 . S
C280 N278 1.400 . S
C280 C281 1.351 . S
C280 H297 0.930 . S
C281 N277 1.389 . S
C281 C280 1.351 . S
C281 H286 0.930 . S
O282 Cu276 1.974 . S
O282 C292 1.282 . S
C283 O284 1.261 . S
C283 O296 1.251 . S
O284 C283 1.261 . S
H285 C279 0.930 . S
H286 C281 0.930 . S
N287 Cu276 1.985 . S
N287 C289 1.335 . S
N287 C290 1.390 . S
N288 C289 1.345 . S
N288 C291 1.336 . S
C289 N287 1.335 . S
C289 N288 1.345 . S
C289 H294 0.930 . S
C290 N287 1.390 . S
C290 C291 1.346 . S
C290 H295 0.930 . S
C291 N288 1.336 . S
C291 C290 1.346 . S
C291 H298 0.929 . S
C292 O282 1.282 . S
C292 O293 1.216 . S
O293 C292 1.216 . S
H294 C289 0.930 . S
H295 C290 0.930 . S
O296 Cu276 1.959 . S
O296 C283 1.251 . S
H297 C280 0.930 . S
H298 C291 0.929 . S
Cu299 N300 1.999 1_455 S
Cu299 O305 1.974 . S
Cu299 N310 1.985 . S
Cu299 O319 1.959 . S
N300 Cu299 1.999 1_655 S
N300 C302 1.263 . S
N300 C304 1.389 . S
N301 C302 1.358 . S
N301 C303 1.400 . S
C302 N300 1.263 . S
C302 N301 1.358 . S
C302 H308 0.930 . S
C303 N301 1.400 . S
C303 C304 1.351 . S
C303 H320 0.930 . S
C304 N300 1.389 . S
C304 C303 1.351 . S
C304 H309 0.930 . S
O305 Cu299 1.974 . S
O305 C315 1.282 . S
C306 O307 1.261 . S
C306 O319 1.251 . S
O307 C306 1.261 . S
H308 C302 0.930 . S
H309 C304 0.930 . S
N310 Cu299 1.985 . S
N310 C312 1.335 . S
N310 C313 1.390 . S
N311 C312 1.345 . S
N311 C314 1.336 . S
C312 N310 1.335 . S
C312 N311 1.345 . S
C312 H317 0.930 . S
C313 N310 1.390 . S
C313 C314 1.346 . S
C313 H318 0.930 . S
C314 N311 1.336 . S
C314 C313 1.346 . S
C314 H321 0.929 . S
C315 O305 1.282 . S
C315 O316 1.216 . S
O316 C315 1.216 . S
H317 C312 0.930 . S
H318 C313 0.930 . S
O319 Cu299 1.959 . S
O319 C306 1.251 . S
H320 C303 0.930 . S
H321 C314 0.929 . S
Cu322 N323 1.999 1_565 S
Cu322 O328 1.974 . S
Cu322 N333 1.985 . S
Cu322 O342 1.959 . S
N323 Cu322 1.999 1_545 S
N323 C325 1.263 . S
N323 C327 1.389 . S
N324 C325 1.358 . S
N324 C326 1.400 . S
C325 N323 1.263 . S
C325 N324 1.358 . S
C325 H331 0.930 . S
C326 N324 1.400 . S
C326 C327 1.351 . S
C326 H343 0.930 . S
C327 N323 1.389 . S
C327 C326 1.351 . S
C327 H332 0.930 . S
O328 Cu322 1.974 . S
O328 C338 1.282 . S
C329 O330 1.261 . S
C329 O342 1.251 . S
O330 C329 1.261 . S
H331 C325 0.930 . S
H332 C327 0.930 . S
N333 Cu322 1.985 . S
N333 C335 1.335 . S
N333 C336 1.390 . S
N334 C335 1.345 . S
N334 C337 1.336 . S
C335 N333 1.335 . S
C335 N334 1.345 . S
C335 H340 0.930 . S
C336 N333 1.390 . S
C336 C337 1.346 . S
C336 H341 0.930 . S
C337 N334 1.336 . S
C337 C336 1.346 . S
C337 H344 0.929 . S
C338 O328 1.282 . S
C338 O339 1.216 . S
O339 C338 1.216 . S
H340 C335 0.930 . S
H341 C336 0.930 . S
O342 Cu322 1.959 . S
O342 C329 1.251 . S
H343 C326 0.930 . S
H344 C337 0.929 . S
Cu345 N346 1.999 1_655 S
Cu345 O351 1.974 . S
Cu345 N356 1.985 . S
Cu345 O365 1.959 . S
N346 Cu345 1.999 1_455 S
N346 C348 1.263 . S
N346 C350 1.389 . S
N347 C348 1.358 . S
N347 C349 1.400 . S
C348 N346 1.263 . S
C348 N347 1.358 . S
C348 H354 0.930 . S
C349 N347 1.400 . S
C349 C350 1.351 . S
C349 H366 0.930 . S
C350 N346 1.389 . S
C350 C349 1.351 . S
C350 H355 0.930 . S
O351 Cu345 1.974 . S
O351 C361 1.282 . S
C352 O353 1.261 . S
C352 O365 1.251 . S
O353 C352 1.261 . S
H354 C348 0.930 . S
H355 C350 0.930 . S
N356 Cu345 1.985 . S
N356 C358 1.335 . S
N356 C359 1.390 . S
N357 C358 1.345 . S
N357 C360 1.336 . S
C358 N356 1.335 . S
C358 N357 1.345 . S
C358 H363 0.930 . S
C359 N356 1.390 . S
C359 C360 1.346 . S
C359 H364 0.930 . S
C360 N357 1.336 . S
C360 C359 1.346 . S
C360 H367 0.929 . S
C361 O351 1.282 . S
C361 O362 1.216 . S
O362 C361 1.216 . S
H363 C358 0.930 . S
H364 C359 0.930 . S
O365 Cu345 1.959 . S
O365 C352 1.251 . S
H366 C349 0.930 . S
H367 C360 0.929 . S
C368 C369 1.369 . S
C368 C370 1.419 . S
C368 H372 0.930 . S
C369 C368 1.369 . S
C369 C378 1.429 . S
C370 C368 1.419 . S
C370 C371 1.363 . S
C370 H373 0.929 . S
C371 C370 1.363 . S
C371 C377 1.428 . S
H372 C368 0.930 . S
H373 C370 0.929 . S
S374 N375 1.613 . S
S374 N376 1.610 . S
N375 S374 1.613 . S
N375 C378 1.350 . S
N376 S374 1.610 . S
N376 C377 1.351 . S
C377 C371 1.428 . S
C377 N376 1.351 . S
C377 C378 1.434 . S
C378 C369 1.429 . S
C378 N375 1.350 . S
C378 C377 1.434 . S
C379 C380 1.369 . S
C379 C381 1.419 . S
C379 H383 0.930 . S
C380 C379 1.369 . S
C380 C389 1.429 . S
C381 C379 1.419 . S
C381 C382 1.363 . S
C381 H384 0.929 . S
C382 C381 1.363 . S
C382 C388 1.428 . S
H383 C379 0.930 . S
H384 C381 0.929 . S
S385 N386 1.613 . S
S385 N387 1.610 . S
N386 S385 1.613 . S
N386 C389 1.350 . S
N387 S385 1.610 . S
N387 C388 1.351 . S
C388 C382 1.428 . S
C388 N387 1.351 . S
C388 C389 1.434 . S
C389 C380 1.429 . S
C389 N386 1.350 . S
C389 C388 1.434 . S
C390 C391 1.369 . S
C390 C392 1.419 . S
C390 H394 0.930 . S
C391 C390 1.369 . S
C391 C400 1.429 . S
C392 C390 1.419 . S
C392 C393 1.363 . S
C392 H395 0.929 . S
C393 C392 1.363 . S
C393 C399 1.428 . S
H394 C390 0.930 . S
H395 C392 0.929 . S
S396 N397 1.613 . S
S396 N398 1.610 . S
N397 S396 1.613 . S
N397 C400 1.350 . S
N398 S396 1.610 . S
N398 C399 1.351 . S
C399 C393 1.428 . S
C399 N398 1.351 . S
C399 C400 1.434 . S
C400 C391 1.429 . S
C400 N397 1.350 . S
C400 C399 1.434 . S
C401 C402 1.369 . S
C401 C403 1.419 . S
C401 H405 0.930 . S
C402 C401 1.369 . S
C402 C411 1.429 . S
C403 C401 1.419 . S
C403 C404 1.363 . S
C403 H406 0.929 . S
C404 C403 1.363 . S
C404 C410 1.428 . S
H405 C401 0.930 . S
H406 C403 0.929 . S
S407 N408 1.613 . S
S407 N409 1.610 . S
N408 S407 1.613 . S
N408 C411 1.350 . S
N409 S407 1.610 . S
N409 C410 1.351 . S
C410 C404 1.428 . S
C410 N409 1.351 . S
C410 C411 1.434 . S
C411 C402 1.429 . S
C411 N408 1.350 . S
C411 C410 1.434 . S
C412 C413 1.369 . S
C412 C414 1.419 . S
C412 H416 0.930 . S
C413 C412 1.369 . S
C413 C422 1.429 . S
C414 C412 1.419 . S
C414 C415 1.363 . S
C414 H417 0.929 . S
C415 C414 1.363 . S
C415 C421 1.428 . S
H416 C412 0.930 . S
H417 C414 0.929 . S
S418 N419 1.613 . S
S418 N420 1.610 . S
N419 S418 1.613 . S
N419 C422 1.350 . S
N420 S418 1.610 . S
N420 C421 1.351 . S
C421 C415 1.428 . S
C421 N420 1.351 . S
C421 C422 1.434 . S
C422 C413 1.429 . S
C422 N419 1.350 . S
C422 C421 1.434 . S
C423 C424 1.369 . S
C423 C425 1.419 . S
C423 H427 0.930 . S
C424 C423 1.369 . S
C424 C433 1.429 . S
C425 C423 1.419 . S
C425 C426 1.363 . S
C425 H428 0.929 . S
C426 C425 1.363 . S
C426 C432 1.428 . S
H427 C423 0.930 . S
H428 C425 0.929 . S
S429 N430 1.613 . S
S429 N431 1.610 . S
N430 S429 1.613 . S
N430 C433 1.350 . S
N431 S429 1.610 . S
N431 C432 1.351 . S
C432 C426 1.428 . S
C432 N431 1.351 . S
C432 C433 1.434 . S
C433 C424 1.429 . S
C433 N430 1.350 . S
C433 C432 1.434 . S
C434 C435 1.369 . S
C434 C436 1.419 . S
C434 H438 0.930 . S
C435 C434 1.369 . S
C435 C444 1.429 . S
C436 C434 1.419 . S
C436 C437 1.363 . S
C436 H439 0.929 . S
C437 C436 1.363 . S
C437 C443 1.428 . S
H438 C434 0.930 . S
H439 C436 0.929 . S
S440 N441 1.613 . S
S440 N442 1.610 . S
N441 S440 1.613 . S
N441 C444 1.350 . S
N442 S440 1.610 . S
N442 C443 1.351 . S
C443 C437 1.428 . S
C443 N442 1.351 . S
C443 C444 1.434 . S
C444 C435 1.429 . S
C444 N441 1.350 . S
C444 C443 1.434 . S
C445 C446 1.369 . S
C445 C447 1.419 . S
C445 H449 0.930 . S
C446 C445 1.369 . S
C446 C455 1.429 . S
C447 C445 1.419 . S
C447 C448 1.363 . S
C447 H450 0.929 . S
C448 C447 1.363 . S
C448 C454 1.428 . S
H449 C445 0.930 . S
H450 C447 0.929 . S
S451 N452 1.613 . S
S451 N453 1.610 . S
N452 S451 1.613 . S
N452 C455 1.350 . S
N453 S451 1.610 . S
N453 C454 1.351 . S
C454 C448 1.428 . S
C454 N453 1.351 . S
C454 C455 1.434 . S
C455 C446 1.429 . S
C455 N452 1.350 . S
C455 C454 1.434 . S
C456 C457 1.369 . S
C456 C458 1.419 . S
C456 H460 0.930 . S
C457 C456 1.369 . S
C457 C466 1.429 . S
C458 C456 1.419 . S
C458 C459 1.363 . S
C458 H461 0.929 . S
C459 C458 1.363 . S
C459 C465 1.428 . S
H460 C456 0.930 . S
H461 C458 0.929 . S
S462 N463 1.613 . S
S462 N464 1.610 . S
N463 S462 1.613 . S
N463 C466 1.350 . S
N464 S462 1.610 . S
N464 C465 1.351 . S
C465 C459 1.428 . S
C465 N464 1.351 . S
C465 C466 1.434 . S
C466 C457 1.429 . S
C466 N463 1.350 . S
C466 C465 1.434 . S
C467 C468 1.369 . S
C467 C469 1.419 . S
C467 H471 0.930 . S
C468 C467 1.369 . S
C468 C477 1.429 . S
C469 C467 1.419 . S
C469 C470 1.363 . S
C469 H472 0.929 . S
C470 C469 1.363 . S
C470 C476 1.428 . S
H471 C467 0.930 . S
H472 C469 0.929 . S
S473 N474 1.613 . S
S473 N475 1.610 . S
N474 S473 1.613 . S
N474 C477 1.350 . S
N475 S473 1.610 . S
N475 C476 1.351 . S
C476 C470 1.428 . S
C476 N475 1.351 . S
C476 C477 1.434 . S
C477 C468 1.429 . S
C477 N474 1.350 . S
C477 C476 1.434 . S
C478 C479 1.369 . S
C478 C480 1.419 . S
C478 H482 0.930 . S
C479 C478 1.369 . S
C479 C488 1.429 . S
C480 C478 1.419 . S
C480 C481 1.363 . S
C480 H483 0.929 . S
C481 C480 1.363 . S
C481 C487 1.428 . S
H482 C478 0.930 . S
H483 C480 0.929 . S
S484 N485 1.613 . S
S484 N486 1.610 . S
N485 S484 1.613 . S
N485 C488 1.350 . S
N486 S484 1.610 . S
N486 C487 1.351 . S
C487 C481 1.428 . S
C487 N486 1.351 . S
C487 C488 1.434 . S
C488 C479 1.429 . S
C488 N485 1.350 . S
C488 C487 1.434 . S
C489 C490 1.369 . S
C489 C491 1.419 . S
C489 H493 0.930 . S
C490 C489 1.369 . S
C490 C499 1.429 . S
C491 C489 1.419 . S
C491 C492 1.363 . S
C491 H494 0.929 . S
C492 C491 1.363 . S
C492 C498 1.428 . S
H493 C489 0.930 . S
H494 C491 0.929 . S
S495 N496 1.613 . S
S495 N497 1.610 . S
N496 S495 1.613 . S
N496 C499 1.350 . S
N497 S495 1.610 . S
N497 C498 1.351 . S
C498 C492 1.428 . S
C498 N497 1.351 . S
C498 C499 1.434 . S
C499 C490 1.429 . S
C499 N496 1.350 . S
C499 C498 1.434 . S
C500 C501 1.369 . S
C500 C502 1.419 . S
C500 H504 0.930 . S
C501 C500 1.369 . S
C501 C510 1.429 . S
C502 C500 1.419 . S
C502 C503 1.363 . S
C502 H505 0.929 . S
C503 C502 1.363 . S
C503 C509 1.428 . S
H504 C500 0.930 . S
H505 C502 0.929 . S
S506 N507 1.613 . S
S506 N508 1.610 . S
N507 S506 1.613 . S
N507 C510 1.350 . S
N508 S506 1.610 . S
N508 C509 1.351 . S
C509 C503 1.428 . S
C509 N508 1.351 . S
C509 C510 1.434 . S
C510 C501 1.429 . S
C510 N507 1.350 . S
C510 C509 1.434 . S
C511 C512 1.369 . S
C511 C513 1.419 . S
C511 H515 0.930 . S
C512 C511 1.369 . S
C512 C521 1.429 . S
C513 C511 1.419 . S
C513 C514 1.363 . S
C513 H516 0.929 . S
C514 C513 1.363 . S
C514 C520 1.428 . S
H515 C511 0.930 . S
H516 C513 0.929 . S
S517 N518 1.613 . S
S517 N519 1.610 . S
N518 S517 1.613 . S
N518 C521 1.350 . S
N519 S517 1.610 . S
N519 C520 1.351 . S
C520 C514 1.428 . S
C520 N519 1.351 . S
C520 C521 1.434 . S
C521 C512 1.429 . S
C521 N518 1.350 . S
C521 C520 1.434 . S
C522 C523 1.369 . S
C522 C524 1.419 . S
C522 H526 0.930 . S
C523 C522 1.369 . S
C523 C532 1.429 . S
C524 C522 1.419 . S
C524 C525 1.363 . S
C524 H527 0.929 . S
C525 C524 1.363 . S
C525 C531 1.428 . S
H526 C522 0.930 . S
H527 C524 0.929 . S
S528 N529 1.613 . S
S528 N530 1.610 . S
N529 S528 1.613 . S
N529 C532 1.350 . S
N530 S528 1.610 . S
N530 C531 1.351 . S
C531 C525 1.428 . S
C531 N530 1.351 . S
C531 C532 1.434 . S
C532 C523 1.429 . S
C532 N529 1.350 . S
C532 C531 1.434 . S
C533 C534 1.369 . S
C533 C535 1.419 . S
C533 H537 0.930 . S
C534 C533 1.369 . S
C534 C543 1.429 . S
C535 C533 1.419 . S
C535 C536 1.363 . S
C535 H538 0.929 . S
C536 C535 1.363 . S
C536 C542 1.428 . S
H537 C533 0.930 . S
H538 C535 0.929 . S
S539 N540 1.613 . S
S539 N541 1.610 . S
N540 S539 1.613 . S
N540 C543 1.350 . S
N541 S539 1.610 . S
N541 C542 1.351 . S
C542 C536 1.428 . S
C542 N541 1.351 . S
C542 C543 1.434 . S
C543 C534 1.429 . S
C543 N540 1.350 . S
C543 C542 1.434 . S
C544 C545 1.369 . S
C544 C546 1.419 . S
C544 H548 0.930 . S
C545 C544 1.369 . S
C545 C554 1.429 . S
C546 C544 1.419 . S
C546 C547 1.363 . S
C546 H549 0.929 . S
C547 C546 1.363 . S
C547 C553 1.428 . S
H548 C544 0.930 . S
H549 C546 0.929 . S
S550 N551 1.613 . S
S550 N552 1.610 . S
N551 S550 1.613 . S
N551 C554 1.350 . S
N552 S550 1.610 . S
N552 C553 1.351 . S
C553 C547 1.428 . S
C553 N552 1.351 . S
C553 C554 1.434 . S
C554 C545 1.429 . S
C554 N551 1.350 . S
C554 C553 1.434 . S
C555 C556 1.369 . S
C555 C557 1.419 . S
C555 H559 0.930 . S
C556 C555 1.369 . S
C556 C565 1.429 . S
C557 C555 1.419 . S
C557 C558 1.363 . S
C557 H560 0.929 . S
C558 C557 1.363 . S
C558 C564 1.428 . S
H559 C555 0.930 . S
H560 C557 0.929 . S
S561 N562 1.613 . S
S561 N563 1.610 . S
N562 S561 1.613 . S
N562 C565 1.350 . S
N563 S561 1.610 . S
N563 C564 1.351 . S
C564 C558 1.428 . S
C564 N563 1.351 . S
C564 C565 1.434 . S
C565 C556 1.429 . S
C565 N562 1.350 . S
C565 C564 1.434 . S
C566 C567 1.369 . S
C566 C568 1.419 . S
C566 H570 0.930 . S
C567 C566 1.369 . S
C567 C576 1.429 . S
C568 C566 1.419 . S
C568 C569 1.363 . S
C568 H571 0.929 . S
C569 C568 1.363 . S
C569 C575 1.428 . S
H570 C566 0.930 . S
H571 C568 0.929 . S
S572 N573 1.613 . S
S572 N574 1.610 . S
N573 S572 1.613 . S
N573 C576 1.350 . S
N574 S572 1.610 . S
N574 C575 1.351 . S
C575 C569 1.428 . S
C575 N574 1.351 . S
C575 C576 1.434 . S
C576 C567 1.429 . S
C576 N573 1.350 . S
C576 C575 1.434 . S
C577 C578 1.369 . S
C577 C579 1.419 . S
C577 H581 0.930 . S
C578 C577 1.369 . S
C578 C587 1.429 . S
C579 C577 1.419 . S
C579 C580 1.363 . S
C579 H582 0.929 . S
C580 C579 1.363 . S
C580 C586 1.428 . S
H581 C577 0.930 . S
H582 C579 0.929 . S
S583 N584 1.613 . S
S583 N585 1.610 . S
N584 S583 1.613 . S
N584 C587 1.350 . S
N585 S583 1.610 . S
N585 C586 1.351 . S
C586 C580 1.428 . S
C586 N585 1.351 . S
C586 C587 1.434 . S
C587 C578 1.429 . S
C587 N584 1.350 . S
C587 C586 1.434 . S
C588 C589 1.369 . S
C588 C590 1.419 . S
C588 H592 0.930 . S
C589 C588 1.369 . S
C589 C598 1.429 . S
C590 C588 1.419 . S
C590 C591 1.363 . S
C590 H593 0.929 . S
C591 C590 1.363 . S
C591 C597 1.428 . S
H592 C588 0.930 . S
H593 C590 0.929 . S
S594 N595 1.613 . S
S594 N596 1.610 . S
N595 S594 1.613 . S
N595 C598 1.350 . S
N596 S594 1.610 . S
N596 C597 1.351 . S
C597 C591 1.428 . S
C597 N596 1.351 . S
C597 C598 1.434 . S
C598 C589 1.429 . S
C598 N595 1.350 . S
C598 C597 1.434 . S
C599 C600 1.369 . S
C599 C601 1.419 . S
C599 H603 0.930 . S
C600 C599 1.369 . S
C600 C609 1.429 . S
C601 C599 1.419 . S
C601 C602 1.363 . S
C601 H604 0.929 . S
C602 C601 1.363 . S
C602 C608 1.428 . S
H603 C599 0.930 . S
H604 C601 0.929 . S
S605 N606 1.613 . S
S605 N607 1.610 . S
N606 S605 1.613 . S
N606 C609 1.350 . S
N607 S605 1.610 . S
N607 C608 1.351 . S
C608 C602 1.428 . S
C608 N607 1.351 . S
C608 C609 1.434 . S
C609 C600 1.429 . S
C609 N606 1.350 . S
C609 C608 1.434 . S
C610 C611 1.369 . S
C610 C612 1.419 . S
C610 H614 0.930 . S
C611 C610 1.369 . S
C611 C620 1.429 . S
C612 C610 1.419 . S
C612 C613 1.363 . S
C612 H615 0.929 . S
C613 C612 1.363 . S
C613 C619 1.428 . S
H614 C610 0.930 . S
H615 C612 0.929 . S
S616 N617 1.613 . S
S616 N618 1.610 . S
N617 S616 1.613 . S
N617 C620 1.350 . S
N618 S616 1.610 . S
N618 C619 1.351 . S
C619 C613 1.428 . S
C619 N618 1.351 . S
C619 C620 1.434 . S
C620 C611 1.429 . S
C620 N617 1.350 . S
C620 C619 1.434 . S
C621 C622 1.369 . S
C621 C623 1.419 . S
C621 H625 0.930 . S
C622 C621 1.369 . S
C622 C631 1.429 . S
C623 C621 1.419 . S
C623 C624 1.363 . S
C623 H626 0.929 . S
C624 C623 1.363 . S
C624 C630 1.428 . S
H625 C621 0.930 . S
H626 C623 0.929 . S
S627 N628 1.613 . S
S627 N629 1.610 . S
N628 S627 1.613 . S
N628 C631 1.350 . S
N629 S627 1.610 . S
N629 C630 1.351 . S
C630 C624 1.428 . S
C630 N629 1.351 . S
C630 C631 1.434 . S
C631 C622 1.429 . S
C631 N628 1.350 . S
C631 C630 1.434 . S
C632 C633 1.369 . S
C632 C634 1.419 . S
C632 H636 0.930 . S
C633 C632 1.369 . S
C633 C642 1.429 . S
C634 C632 1.419 . S
C634 C635 1.363 . S
C634 H637 0.929 . S
C635 C634 1.363 . S
C635 C641 1.428 . S
H636 C632 0.930 . S
H637 C634 0.929 . S
S638 N639 1.613 . S
S638 N640 1.610 . S
N639 S638 1.613 . S
N639 C642 1.350 . S
N640 S638 1.610 . S
N640 C641 1.351 . S
C641 C635 1.428 . S
C641 N640 1.351 . S
C641 C642 1.434 . S
C642 C633 1.429 . S
C642 N639 1.350 . S
C642 C641 1.434 . S
C643 C644 1.369 . S
C643 C645 1.419 . S
C643 H647 0.930 . S
C644 C643 1.369 . S
C644 C653 1.429 . S
C645 C643 1.419 . S
C645 C646 1.363 . S
C645 H648 0.929 . S
C646 C645 1.363 . S
C646 C652 1.428 . S
H647 C643 0.930 . S
H648 C645 0.929 . S
S649 N650 1.613 . S
S649 N651 1.610 . S
N650 S649 1.613 . S
N650 C653 1.350 . S
N651 S649 1.610 . S
N651 C652 1.351 . S
C652 C646 1.428 . S
C652 N651 1.351 . S
C652 C653 1.434 . S
C653 C644 1.429 . S
C653 N650 1.350 . S
C653 C652 1.434 . S
C654 C655 1.369 . S
C654 C656 1.419 . S
C654 H658 0.930 . S
C655 C654 1.369 . S
C655 C664 1.429 . S
C656 C654 1.419 . S
C656 C657 1.363 . S
C656 H659 0.929 . S
C657 C656 1.363 . S
C657 C663 1.428 . S
H658 C654 0.930 . S
H659 C656 0.929 . S
S660 N661 1.613 . S
S660 N662 1.610 . S
N661 S660 1.613 . S
N661 C664 1.350 . S
N662 S660 1.610 . S
N662 C663 1.351 . S
C663 C657 1.428 . S
C663 N662 1.351 . S
C663 C664 1.434 . S
C664 C655 1.429 . S
C664 N661 1.350 . S
C664 C663 1.434 . S
C665 C666 1.369 . S
C665 C667 1.419 . S
C665 H669 0.930 . S
C666 C665 1.369 . S
C666 C675 1.429 . S
C667 C665 1.419 . S
C667 C668 1.363 . S
C667 H670 0.929 . S
C668 C667 1.363 . S
C668 C674 1.428 . S
H669 C665 0.930 . S
H670 C667 0.929 . S
S671 N672 1.613 . S
S671 N673 1.610 . S
N672 S671 1.613 . S
N672 C675 1.350 . S
N673 S671 1.610 . S
N673 C674 1.351 . S
C674 C668 1.428 . S
C674 N673 1.351 . S
C674 C675 1.434 . S
C675 C666 1.429 . S
C675 N672 1.350 . S
C675 C674 1.434 . S
C676 C677 1.368 1_545 S
C676 C678 1.419 1_554 S
C676 H680 0.930 . S
C677 C676 1.368 1_565 S
C677 C686 1.430 . S
C678 C676 1.419 1_556 S
C678 C679 1.350 1_545 S
C678 H681 0.929 . S
C679 C678 1.350 1_565 S
C679 C685 1.442 . S
H680 C676 0.930 . S
H681 C678 0.929 . S
S682 N683 1.626 . S
S682 N684 1.597 1_554 S
N683 S682 1.626 . S
N683 C686 1.350 . S
N684 S682 1.597 1_556 S
N684 C685 1.351 . S
C685 C679 1.442 . S
C685 N684 1.351 . S
C685 C686 1.434 1_556 S
C686 C677 1.430 . S
C686 N683 1.350 . S
C686 C685 1.434 1_554 S
C687 C688 1.369 1_455 S
C687 C689 1.419 1_556 S
C687 H691 0.930 . S
C688 C687 1.369 1_655 S
C688 C697 1.429 . S
C689 C687 1.419 1_554 S
C689 C690 1.355 1_455 S
C689 H692 0.929 . S
C690 C689 1.355 1_655 S
C690 C696 1.437 . S
H691 C687 0.930 . S
H692 C689 0.929 . S
S693 N694 1.622 . S
S693 N695 1.601 1_556 S
N694 S693 1.622 . S
N694 C697 1.350 . S
N695 S693 1.601 1_554 S
N695 C696 1.351 . S
C696 C690 1.437 . S
C696 N695 1.351 . S
C696 C697 1.434 1_554 S
C697 C688 1.429 . S
C697 N694 1.350 . S
C697 C696 1.434 1_556 S
C698 C699 1.355 1_565 S
C698 C700 1.419 1_556 S
C698 H702 0.930 . S
C699 C698 1.355 1_545 S
C699 C708 1.443 . S
C700 C698 1.419 1_554 S
C700 C701 1.362 . S
C700 H703 0.929 . S
C701 C700 1.362 . S
C701 C707 1.430 1_565 S
H702 C698 0.930 . S
H703 C700 0.929 . S
S704 N705 1.597 1_554 S
S704 N706 1.626 . S
N705 S704 1.597 1_556 S
N705 C708 1.350 . S
N706 S704 1.626 . S
N706 C707 1.351 . S
C707 C701 1.430 1_545 S
C707 N706 1.351 . S
C707 C708 1.434 1_554 S
C708 C699 1.443 . S
C708 N705 1.350 . S
C708 C707 1.434 1_556 S
C709 C710 1.369 1_655 S
C709 C711 1.419 1_556 S
C709 H713 0.930 . S
C710 C709 1.369 1_455 S
C710 C719 1.428 . S
C711 C709 1.419 1_554 S
C711 C712 1.347 1_655 S
C711 H714 0.929 . S
C712 C711 1.347 1_455 S
C712 C718 1.445 . S
H713 C709 0.930 . S
H714 C711 0.929 . S
S715 N716 1.630 . S
S715 N717 1.593 1_556 S
N716 S715 1.630 . S
N716 C719 1.350 . S
N717 S715 1.593 1_554 S
N717 C718 1.351 . S
C718 C712 1.445 . S
C718 N717 1.351 . S
C718 C719 1.434 1_554 S
C719 C710 1.428 . S
C719 N716 1.350 . S
C719 C718 1.434 1_556 S
C369 N12 1.675 . S
C371 N173 1.674 . S
C380 N35 1.670 . S
C382 N104 1.671 . S
C391 N127 1.679 . S
C393 N58 1.678 . S
C402 N81 1.678 . S
C404 N150 1.677 . S
C413 N196 1.678 . S
C415 N357 1.677 . S
C424 N288 1.670 . S
C426 N219 1.671 . S
C435 N311 1.671 . S
C437 N242 1.672 . S
C446 N334 1.675 . S
C448 N265 1.675 . S
C457 N2 1.718 . S
C459 C269 1.712 . S
C468 N25 1.713 . S
C470 C200 1.715 . S
C479 C223 1.713 . S
C481 N48 1.711 . S
C490 N71 1.711 . S
C492 C246 1.709 . S
C501 N94 1.712 . S
C503 C315 1.714 . S
C512 C338 1.709 . S
C514 N117 1.711 . S
C523 N140 1.713 . S
C525 C361 1.709 . S
C534 C292 1.712 . S
C536 N163 1.717 . S
C545 N186 1.710 . S
C547 C85 1.712 . S
C556 C16 1.716 . S
C558 N209 1.714 . S
C567 N232 1.718 . S
C569 C39 1.712 . S
C578 C62 1.715 . S
C580 N255 1.717 . S
C589 N278 1.715 . S
C591 C131 1.715 . S
C600 C154 1.715 . S
C602 N301 1.713 . S
C611 C177 1.716 . S
C613 N324 1.715 . S
C622 C108 1.715 . S
C624 N347 1.716 . S
C633 C99 1.925 . S
C635 C7 1.929 . S
C644 C122 1.927 . S
C646 C30 1.925 . S
C655 C53 1.927 . S
C657 C145 1.930 . S
C666 C168 1.929 . S
C668 C76 1.931 . S
C677 C283 1.929 1_565 S
C679 C191 1.928 . S
C688 C306 1.931 1_655 S
C690 C214 1.930 . S
C699 C237 1.926 . S
C701 C329 1.927 . S
C710 C352 1.928 1_455 S
C712 C260 1.928 . S
