# Generated by pormake.
# Topology vmp, (7)-cn, num edge types: 1
# Building blocks:
#     Node 0, Type 0, BuildingBlock: HICVOG_clean_sbu_0, # of connection points: 7
#     Node 1, Type 0, BuildingBlock: HICVOG_clean_sbu_0, # of connection points: 7
#     Node 2, Type 0, BuildingBlock: HICVOG_clean_sbu_0, # of connection points: 7
#     Node 3, Type 0, BuildingBlock: HICVOG_clean_sbu_0, # of connection points: 7
#     Node 4, Type 0, BuildingBlock: HICVOG_clean_sbu_0, # of connection points: 7
#     Node 5, Type 0, BuildingBlock: HICVOG_clean_sbu_0, # of connection points: 7
#     Node 6, Type 0, BuildingBlock: HICVOG_clean_sbu_0, # of connection points: 7
#     Node 7, Type 0, BuildingBlock: HICVOG_clean_sbu_0, # of connection points: 7
#     Edge 8, Type (0, 0), BuildingBlock: CIFDUS_clean_linker_0, # of connection points: 2
#     Edge 9, Type (0, 0), BuildingBlock: CIFDUS_clean_linker_0, # of connection points: 2
#     Edge 10, Type (0, 0), BuildingBlock: CIFDUS_clean_linker_0, # of connection points: 2
#     Edge 11, Type (0, 0), BuildingBlock: CIFDUS_clean_linker_0, # of connection points: 2
#     Edge 12, Type (0, 0), BuildingBlock: CIFDUS_clean_linker_0, # of connection points: 2
#     Edge 13, Type (0, 0), BuildingBlock: CIFDUS_clean_linker_0, # of connection points: 2
#     Edge 14, Type (0, 0), BuildingBlock: CIFDUS_clean_linker_0, # of connection points: 2
#     Edge 15, Type (0, 0), BuildingBlock: CIFDUS_clean_linker_0, # of connection points: 2
#     Edge 16, Type (0, 0), BuildingBlock: CIFDUS_clean_linker_0, # of connection points: 2
#     Edge 17, Type (0, 0), BuildingBlock: CIFDUS_clean_linker_0, # of connection points: 2
#     Edge 18, Type (0, 0), BuildingBlock: CIFDUS_clean_linker_0, # of connection points: 2
#     Edge 19, Type (0, 0), BuildingBlock: CIFDUS_clean_linker_0, # of connection points: 2
#     Edge 20, Type (0, 0), BuildingBlock: CIFDUS_clean_linker_0, # of connection points: 2
#     Edge 21, Type (0, 0), BuildingBlock: CIFDUS_clean_linker_0, # of connection points: 2
#     Edge 22, Type (0, 0), BuildingBlock: CIFDUS_clean_linker_0, # of connection points: 2
#     Edge 23, Type (0, 0), BuildingBlock: CIFDUS_clean_linker_0, # of connection points: 2
#     Edge 24, Type (0, 0), BuildingBlock: CIFDUS_clean_linker_0, # of connection points: 2
#     Edge 25, Type (0, 0), BuildingBlock: CIFDUS_clean_linker_0, # of connection points: 2
#     Edge 26, Type (0, 0), BuildingBlock: CIFDUS_clean_linker_0, # of connection points: 2
#     Edge 27, Type (0, 0), BuildingBlock: CIFDUS_clean_linker_0, # of connection points: 2
#     Edge 28, Type (0, 0), BuildingBlock: CIFDUS_clean_linker_0, # of connection points: 2
#     Edge 29, Type (0, 0), BuildingBlock: CIFDUS_clean_linker_0, # of connection points: 2
#     Edge 30, Type (0, 0), BuildingBlock: CIFDUS_clean_linker_0, # of connection points: 2
#     Edge 31, Type (0, 0), BuildingBlock: CIFDUS_clean_linker_0, # of connection points: 2
#     Edge 32, Type (0, 0), BuildingBlock: CIFDUS_clean_linker_0, # of connection points: 2
#     Edge 33, Type (0, 0), BuildingBlock: CIFDUS_clean_linker_0, # of connection points: 2
#     Edge 34, Type (0, 0), BuildingBlock: CIFDUS_clean_linker_0, # of connection points: 2
#     Edge 35, Type (0, 0), BuildingBlock: CIFDUS_clean_linker_0, # of connection points: 2
# Relax obj value: 0.163
# Max RMSD: 0.208
# Mean RMSD: 0.208
data_MOF--net-vmp--node1-HICVOG_clean_sbu_0--edge1-CIFDUS_clean_linker_0
_symmetry_space_group_name_H-M    P1
_symmetry_Int_Tables_number       1
_symmetry_cell_setting            triclinic
loop_
_symmetry_equiv_pos_as_xyz
'x, y, z'
_cell_length_a     16.233747
_cell_length_b     71.783428
_cell_length_c     24.517007
_cell_angle_alpha  90.002575
_cell_angle_beta   111.63446
_cell_angle_gamma 90.203531
loop_
_atom_site_label
_atom_site_type_symbol
_atom_site_fract_x
_atom_site_fract_y
_atom_site_fract_z
_atom_type_partial_charge
Zn0 Zn 0.34241 0.15376 0.3019 0.0
C1 C 0.42799 0.12577 0.19144 0.0
N2 N 0.34939 0.12991 0.1504 0.0
C3 C 0.30567 0.13807 0.18086 0.0
N4 N 0.35536 0.13884 0.23903 0.0
N5 N 0.43103 0.13051 0.2454 0.0
C6 C 0.70097 0.13426 0.32609 0.0
O7 O 0.68526 0.14918 0.35167 0.0
O8 O 0.21566 0.15663 0.29455 0.0
Zn9 Zn 0.52481 0.1236 0.31866 0.0
N10 N 0.39754 0.17791 0.30135 0.0
C11 C 0.52644 0.19311 0.29858 0.0
C12 C 0.47791 0.17694 0.29624 0.0
C13 C 0.36326 0.19462 0.30882 0.0
N14 N 0.49303 0.20972 0.30652 0.0
C15 C 0.4126 0.2111 0.31172 0.0
O16 O 0.54166 0.14124 0.38645 0.0
C17 C 0.4876 0.14393 0.4122 0.0
O18 O 0.40433 0.14346 0.38394 0.0
H19 H 0.50482 0.16361 0.29157 0.0
H20 H 0.30001 0.19495 0.31415 0.0
C21 C 0.48274 0.08402 0.30444 0.0
C22 C 0.47275 0.06602 0.32466 0.0
C23 C 0.4994 0.07872 0.41919 0.0
C24 C 0.51038 0.09633 0.39923 0.0
N25 N 0.50117 0.09876 0.34227 0.0
N26 N 0.4813 0.06406 0.38174 0.0
H27 H 0.47894 0.08627 0.25995 0.0
C28 C 0.16489 0.14254 0.2859 0.0
O29 O 0.19495 0.1261 0.27888 0.0
O30 O 0.64207 0.1216 0.30847 0.0
H31 H 0.52815 0.10785 0.42955 0.0
H32 H 0.59072 0.19247 0.29483 0.0
H33 H 0.50653 0.07664 0.46441 0.0
Zn34 Zn 0.76793 0.16482 0.86064 0.0
C35 C 0.69987 0.14592 0.99299 0.0
N36 N 0.77961 0.15325 1.02402 0.0
C37 C 0.81306 0.1573 0.98314 0.0
N38 N 0.7557 0.15294 0.92894 0.0
N39 N 0.68436 0.14539 0.93468 0.0
C40 C 0.44362 0.14837 0.89624 0.0
O41 O 0.5018 0.16175 0.91832 0.0
O42 O 0.89842 0.16438 0.86561 0.0
Zn43 Zn 0.59432 0.13022 0.8745 0.0
N44 N 0.72004 0.18998 0.85836 0.0
C45 C 0.59404 0.20531 0.8646 0.0
C46 C 0.64181 0.18918 0.86662 0.0
C47 C 0.75205 0.20656 0.84672 0.0
N48 N 0.62516 0.22173 0.85291 0.0
C49 C 0.70254 0.22306 0.84345 0.0
O50 O 0.58257 0.13579 0.79072 0.0
C51 C 0.62138 0.14377 0.76031 0.0
O52 O 0.69086 0.1536 0.78375 0.0
H53 H 0.61581 0.17594 0.8737 0.0
H54 H 0.81298 0.20676 0.83837 0.0
C55 C 0.58901 0.08895 0.85927 0.0
C56 C 0.62663 0.0709 0.87234 0.0
C57 C 0.75543 0.08427 0.9438 0.0
C58 C 0.71904 0.10192 0.93001 0.0
N59 N 0.6362 0.10407 0.88871 0.0
N60 N 0.70884 0.06932 0.91474 0.0
H61 H 0.52353 0.09103 0.82651 0.0
C62 C 0.92238 0.15081 0.84121 0.0
O63 O 0.86269 0.13825 0.81319 0.0
O64 O 0.46772 0.13377 0.87633 0.0
H65 H 0.75738 0.11378 0.95248 0.0
H66 H 0.53185 0.20478 0.87132 0.0
H67 H 0.82089 0.08247 0.97695 0.0
Zn68 Zn 0.70515 0.88524 0.75285 0.0
C69 C 0.61663 0.90934 0.8675 0.0
N70 N 0.69994 0.90696 0.90557 0.0
C71 C 0.74238 0.9014 0.87081 0.0
N72 N 0.68802 0.90014 0.81402 0.0
N73 N 0.60952 0.90577 0.81188 0.0
C74 C 0.34832 0.89088 0.74311 0.0
O75 O 0.37787 0.87695 0.72087 0.0
O76 O 0.83324 0.88525 0.7623 0.0
Zn77 Zn 0.50581 0.90986 0.74146 0.0
N78 N 0.66578 0.85982 0.75863 0.0
C79 C 0.54923 0.84151 0.76783 0.0
C80 C 0.58656 0.85878 0.76522 0.0
C81 C 0.70952 0.84406 0.75379 0.0
N82 N 0.59222 0.82583 0.76291 0.0
C83 C 0.67156 0.8264 0.75581 0.0
O84 O 0.49815 0.89372 0.67158 0.0
C85 C 0.55061 0.89289 0.64379 0.0
O86 O 0.63428 0.89404 0.67024 0.0
H87 H 0.55212 0.87137 0.76737 0.0
H88 H 0.77133 0.84536 0.74687 0.0
C89 C 0.52206 0.9506 0.75394 0.0
C90 C 0.51367 0.96899 0.73154 0.0
C91 C 0.46703 0.95653 0.63492 0.0
C92 C 0.47505 0.93854 0.65722 0.0
N93 N 0.50293 0.93582 0.71613 0.0
N94 N 0.48632 0.97121 0.67233 0.0
H95 H 0.5413 0.94795 0.80039 0.0
C96 C 0.86547 0.90044 0.75231 0.0
O97 O 0.8146 0.91524 0.73768 0.0
O98 O 0.3929 0.90593 0.7563 0.0
H99 H 0.45761 0.92683 0.62747 0.0
H100 H 0.48604 0.84056 0.77308 0.0
H101 H 0.44491 0.95884 0.58811 0.0
Zn102 Zn 0.4262 0.90714 0.18019 0.0
C103 C 0.23097 0.87478 0.07105 0.0
N104 N 0.2775 0.87628 0.03616 0.0
C105 C 0.3502 0.88576 0.06859 0.0
N106 N 0.35036 0.88961 0.12258 0.0
N107 N 0.27609 0.88231 0.12427 0.0
C108 C 0.08693 0.88492 0.17764 0.0
O109 O 0.1222 0.90127 0.17546 0.0
O110 O 0.55124 0.90772 0.17895 0.0
Zn111 Zn 0.26317 0.87124 0.19274 0.0
N112 N 0.37237 0.93182 0.16097 0.0
C113 C 0.25503 0.9506 0.0983 0.0
C114 C 0.2949 0.93328 0.11403 0.0
C115 C 0.41105 0.94711 0.19345 0.0
N116 N 0.29329 0.96581 0.13065 0.0
C117 C 0.37021 0.96471 0.17829 0.0
O118 O 0.336 0.88281 0.27091 0.0
C119 C 0.40346 0.89325 0.29435 0.0
O120 O 0.44048 0.90172 0.26384 0.0
H121 H 0.26449 0.92112 0.08852 0.0
H122 H 0.4731 0.94548 0.23011 0.0
C123 C 0.2643 0.83043 0.20346 0.0
C124 C 0.30379 0.81273 0.20605 0.0
C125 C 0.42802 0.82747 0.19469 0.0
C126 C 0.3888 0.84478 0.19226 0.0
N127 N 0.3079 0.84598 0.19644 0.0
N128 N 0.38489 0.81197 0.20153 0.0
H129 H 0.20096 0.83201 0.20798 0.0
C130 C 0.59396 0.89319 0.17571 0.0
O131 O 0.55712 0.87677 0.17389 0.0
O132 O 0.1344 0.8704 0.18449 0.0
H133 H 0.42269 0.85728 0.18735 0.0
H134 H 0.19378 0.95195 0.06078 0.0
H135 H 0.49243 0.82633 0.19138 0.0
Zn136 Zn 0.75657 0.66365 0.69905 0.0
C137 C 0.8259 0.64281 0.56964 0.0
N138 N 0.74847 0.65087 0.53803 0.0
C139 C 0.71549 0.65584 0.57823 0.0
N140 N 0.77118 0.6515 0.63258 0.0
N141 N 0.84017 0.64269 0.62799 0.0
C142 C 0.08358 0.64203 0.68001 0.0
O143 O 0.03464 0.65645 0.65497 0.0
O144 O 0.62574 0.66627 0.68761 0.0
Zn145 Zn 0.91936 0.62645 0.69027 0.0
N146 N 0.8108 0.68822 0.70629 0.0
C147 C 0.93909 0.70544 0.71202 0.0
C148 C 0.89495 0.68851 0.7073 0.0
C149 C 0.76863 0.7043 0.71014 0.0
N150 N 0.89723 0.72146 0.7155 0.0
C151 C 0.8128 0.72161 0.71463 0.0
O152 O 0.91986 0.63071 0.77323 0.0
C153 C 0.87702 0.63916 0.80011 0.0
O154 O 0.81582 0.65065 0.77463 0.0
H155 H 0.92742 0.67561 0.70457 0.0
H156 H 0.70241 0.70339 0.71046 0.0
C157 C 0.92245 0.58548 0.69777 0.0
C158 C 0.88467 0.56745 0.68301 0.0
C159 C 0.75525 0.58124 0.61383 0.0
C160 C 0.79209 0.59888 0.62936 0.0
N161 N 0.8751 0.60076 0.67056 0.0
N162 N 0.80195 0.56607 0.64093 0.0
H163 H 0.98835 0.58748 0.73013 0.0
C164 C 0.58939 0.65421 0.70977 0.0
O165 O 0.63742 0.64033 0.7398 0.0
O166 O 0.04837 0.62843 0.69696 0.0
H167 H 0.75416 0.61098 0.60874 0.0
H168 H 1.00617 0.70586 0.71289 0.0
H169 H 0.68946 0.5796 0.58085 0.0
Zn170 Zn 0.19674 0.65116 0.26549 0.0
C171 C 0.0999 0.62404 0.37298 0.0
N172 N 0.17649 0.62914 0.41467 0.0
C173 C 0.22124 0.63701 0.38437 0.0
N174 N 0.17437 0.63675 0.3259 0.0
N175 N 0.0984 0.62824 0.31885 0.0
C176 C 0.83468 0.62655 0.23342 0.0
O177 O 0.8531 0.64158 0.20941 0.0
O178 O 0.32604 0.65149 0.27339 0.0
Zn179 Zn 0.0154 0.6167 0.24756 0.0
N180 N 0.15376 0.67631 0.26868 0.0
C181 C 0.03952 0.69476 0.27973 0.0
C182 C 0.0765 0.67743 0.27804 0.0
C183 C 0.19566 0.69195 0.26048 0.0
N184 N 0.08114 0.71036 0.27181 0.0
C185 C 0.15861 0.70963 0.26228 0.0
O186 O 1.00224 0.62869 0.16949 0.0
C187 C 0.05725 0.6359 0.14952 0.0
O188 O 0.13113 0.64259 0.18308 0.0
H189 H 0.04344 0.66488 0.28361 0.0
H190 H 0.25589 0.6905 0.25172 0.0
C191 C 0.03721 0.57637 0.26519 0.0
C192 C 0.07164 0.55893 0.25768 0.0
C193 C 0.15222 0.57384 0.2064 0.0
C194 C 0.11905 0.591 0.21457 0.0
N195 N 0.06125 0.59198 0.24289 0.0
N196 N 0.12784 0.55828 0.228 0.0
H197 H 0.99142 0.57754 0.28779 0.0
C198 C 0.37116 0.63682 0.27609 0.0
O199 O 0.33502 0.62051 0.2774 0.0
O200 O 0.8933 0.61394 0.25223 0.0
H201 H 0.13912 0.60347 0.19818 0.0
H202 H 0.97796 0.69584 0.28707 0.0
H203 H 0.19754 0.57287 0.1834 0.0
Zn204 Zn 0.0765 0.39753 0.37006 0.0
C205 C 0.29524 0.37205 0.47766 0.0
N206 N 0.25546 0.37349 0.51675 0.0
C207 C 0.17296 0.37876 0.48345 0.0
N208 N 0.16275 0.38108 0.42664 0.0
N209 N 0.2391 0.37632 0.42293 0.0
C210 C 0.4107 0.37885 0.34328 0.0
O211 O 0.35615 0.39254 0.31863 0.0
O212 O 0.95144 0.39277 0.36817 0.0
Zn213 Zn 0.25097 0.36589 0.35338 0.0
N214 N 0.10971 0.4234 0.39595 0.0
C215 C 0.18995 0.4441 0.47363 0.0
C216 C 0.16794 0.42614 0.45182 0.0
C217 C 0.07603 0.43825 0.35985 0.0
N218 N 0.15543 0.45881 0.43814 0.0
C219 C 0.09956 0.45654 0.38143 0.0
O220 O 0.18231 0.37913 0.27734 0.0
C221 C 0.11287 0.38897 0.25479 0.0
O222 O 0.07051 0.39526 0.2855 0.0
H223 H 0.19806 0.41457 0.47958 0.0
H224 H 0.03146 0.43586 0.31515 0.0
C225 C 0.23153 0.32478 0.33719 0.0
C226 C 0.17949 0.30835 0.3278 0.0
C227 C 0.05919 0.3263 0.33209 0.0
C228 C 0.1102 0.34238 0.34065 0.0
N229 N 0.19524 0.3414 0.34344 0.0
N230 N 0.09474 0.30979 0.32573 0.0
H231 H 0.29855 0.32452 0.33797 0.0
C232 C 0.88664 0.40053 0.32832 0.0
O233 O 0.90283 0.41101 0.28947 0.0
O234 O 0.38142 0.36494 0.36301 0.0
H235 H 0.08176 0.35569 0.34434 0.0
H236 H 0.23522 0.44634 0.51829 0.0
H237 H 0.99146 0.32693 0.32987 0.0
Zn238 Zn 0.83482 0.37878 0.79536 0.0
C239 C 0.9032 0.40962 0.67954 0.0
N240 N 0.81705 0.40837 0.64641 0.0
C241 C 0.7818 0.39917 0.68005 0.0
N242 N 0.84345 0.39557 0.73398 0.0
N243 N 0.91892 0.40287 0.73393 0.0
C244 C 0.18719 0.38091 0.81111 0.0
O245 O 0.17373 0.3731 0.85558 0.0
O246 O 0.7067 0.3764 0.79144 0.0
Zn247 Zn 0.03272 0.40508 0.79905 0.0
N248 N 0.88498 0.3547 0.78618 0.0
C249 C 1.00252 0.33998 0.76667 0.0
C250 C 0.95685 0.35597 0.77047 0.0
C251 C 0.85675 0.33781 0.7984 0.0
N252 N 0.97527 0.32324 0.77935 0.0
C253 C 0.90354 0.3215 0.79516 0.0
O254 O 0.03563 0.39689 0.8791 0.0
C255 C 0.98565 0.3919 0.90618 0.0
O256 O 0.9054 0.38701 0.87887 0.0
H257 H 0.97989 0.36937 0.76209 0.0
H258 H 0.80079 0.33719 0.81228 0.0
C259 C 0.02076 0.44646 0.78392 0.0
C260 C 0.05862 0.4645 0.79787 0.0
C261 C 0.1876 0.45095 0.86838 0.0
C262 C 0.15053 0.4333 0.85393 0.0
N263 N 0.06826 0.4313 0.81215 0.0
N264 N 0.1412 0.466 0.8401 0.0
H265 H 0.95499 0.44438 0.7515 0.0
C266 C 0.65885 0.39096 0.78181 0.0
O267 O 0.69357 0.40698 0.77542 0.0
O268 O 0.13296 0.39311 0.78074 0.0
H269 H 0.18712 0.42115 0.8758 0.0
H270 H 0.06008 0.34089 0.75452 0.0
H271 H 0.25307 0.45271 0.90163 0.0
H272 H 0.69997 0.15318 0.68371 0.0
H273 H 0.45679 0.13088 0.69082 0.0
H274 H 0.39241 0.12968 0.58365 0.0
H275 H 0.40524 0.13505 0.48767 0.0
H276 H 0.65103 0.15621 0.48184 0.0
H277 H 0.71391 0.15792 0.58877 0.0
C278 C 0.63283 0.14805 0.66195 0.0
C279 C 0.58328 0.1422 0.69541 0.0
C280 C 0.59644 0.14729 0.60045 0.0
C281 C 0.49663 0.13543 0.66627 0.0
C282 C 0.45958 0.13481 0.60493 0.0
C283 C 0.47228 0.14018 0.50987 0.0
C284 C 0.52321 0.14562 0.47688 0.0
C285 C 0.50877 0.14077 0.57155 0.0
C286 C 0.61048 0.15194 0.50624 0.0
C287 C 0.64653 0.15291 0.56738 0.0
H288 H 0.33062 0.88233 0.3732 0.0
H289 H 0.56498 0.90783 0.36171 0.0
H290 H 0.63243 0.90935 0.46853 0.0
H291 H 0.6254 0.90334 0.56559 0.0
H292 H 0.38849 0.87906 0.57663 0.0
H293 H 0.32203 0.87707 0.46981 0.0
C294 C 0.39642 0.88824 0.39397 0.0
C295 C 0.44256 0.8949 0.35926 0.0
C296 C 0.43471 0.88921 0.4555 0.0
C297 C 0.52762 0.90264 0.38715 0.0
C298 C 0.56652 0.90346 0.44835 0.0
C299 C 0.55949 0.89749 0.54458 0.0
C300 C 0.51226 0.89124 0.57905 0.0
C301 C 0.52085 0.89672 0.48299 0.0
C302 C 0.42632 0.88397 0.55114 0.0
C303 C 0.3882 0.88283 0.49003 0.0
H304 H 0.03939 0.63729 0.88737 0.0
H305 H 0.75968 0.63434 0.85361 0.0
H306 H 0.79016 0.63217 0.95868 0.0
H307 H 0.89605 0.63282 0.06064 0.0
H308 H 0.17553 0.6383 0.09478 0.0
H309 H 0.14566 0.63788 0.98975 0.0
C310 C 0.98549 0.63587 0.90322 0.0
C311 C 0.89761 0.63583 0.86308 0.0
C312 C 1.0034 0.63535 0.9639 0.0
C313 C 0.82795 0.63437 0.88391 0.0
C314 C 0.84529 0.63319 0.94394 0.0
C315 C 0.95036 0.63386 0.04506 0.0
C316 C 0.03771 0.63568 0.08554 0.0
C317 C 0.93269 0.63397 0.98444 0.0
C318 C 0.10742 0.63709 0.06458 0.0
C319 C 0.09054 0.63676 1.00446 0.0
H320 H 0.89751 0.39628 0.98133 0.0
H321 H 0.1581 0.38728 0.97775 0.0
H322 H 0.22077 0.38607 0.08482 0.0
H323 H 0.20137 0.38668 0.17967 0.0
H324 H 0.94259 0.39743 0.18412 0.0
H325 H 0.87993 0.39907 0.077 0.0
C326 C 0.96799 0.39405 1.00404 0.0
C327 C 0.02283 0.3917 0.97143 0.0
C328 C 1.00411 0.39376 0.06592 0.0
C329 C 0.11429 0.38912 1.00164 0.0
C330 C 0.15025 0.38841 0.06294 0.0
C331 C 0.13133 0.38949 0.15725 0.0
C332 C 0.07681 0.39181 0.1901 0.0
C333 C 0.09579 0.3906 0.09557 0.0
C334 C 0.98632 0.39565 0.16017 0.0
C335 C 0.95025 0.39648 0.09877 0.0
H336 H 0.34528 1.00045 0.13925 0.0
H337 H 0.47373 0.96804 0.29614 0.0
H338 H 0.52088 0.99653 0.35305 0.0
H339 H 0.51832 0.03053 0.35998 0.0
H340 H 0.38495 0.0631 0.20435 0.0
H341 H 0.34775 0.03467 0.14558 0.0
C342 C 0.38405 0.99957 0.18587 0.0
C343 C 0.4062 0.98197 0.2129 0.0
C344 C 0.40991 0.01608 0.2188 0.0
C345 C 0.4569 0.98122 0.27342 0.0
C346 C 0.48327 0.99758 0.30633 0.0
C347 C 0.48129 0.03149 0.31313 0.0
C348 C 0.45483 0.04906 0.28691 0.0
C349 C 0.45907 1.01506 0.27965 0.0
C350 C 0.40761 0.04992 0.22595 0.0
C351 C 0.38557 0.03359 0.19226 0.0
H352 H 0.4528 1.00411 0.69922 0.0
H353 H 0.62191 0.97276 0.84897 0.0
H354 H 0.66243 1.00133 0.90619 0.0
H355 H 0.65956 0.03536 0.9119 0.0
H356 H 0.49826 0.06701 0.76045 0.0
H357 H 0.44463 0.03814 0.70645 0.0
C358 C 0.4983 1.00342 0.74449 0.0
C359 C 0.53371 0.98606 0.7693 0.0
C360 C 0.52303 0.02003 0.77707 0.0
C361 C 0.59197 0.98564 0.82835 0.0
C362 C 0.616 1.0021 0.8612 0.0
C363 C 0.61212 0.03605 0.86716 0.0
C364 C 0.58337 0.05355 0.84071 0.0
C365 C 0.58318 0.01938 0.83569 0.0
C366 C 0.52111 0.05394 0.78278 0.0
C367 C 0.49095 0.03736 0.75146 0.0
H368 H 0.84814 0.53198 0.6414 0.0
H369 H 0.02115 0.56296 0.79141 0.0
H370 H 0.08747 0.53403 0.83861 0.0
H371 H 0.09507 0.49996 0.83892 0.0
H372 H 0.9223 0.46886 0.68917 0.0
H373 H 0.85596 0.49781 0.64165 0.0
C374 C 0.90044 0.53252 0.68445 0.0
C375 C 0.92978 0.54992 0.71197 0.0
C376 C 0.93767 0.51572 0.71211 0.0
C377 C 0.99789 0.55007 0.76788 0.0
C378 C 0.03549 0.53341 0.79546 0.0
C379 C 0.04287 0.49939 0.79582 0.0
C380 C 0.01357 0.48197 0.76845 0.0
C381 C 1.0057 0.51617 0.76809 0.0
C382 C 0.94552 0.48178 0.71252 0.0
C383 C 0.90793 0.49845 0.6848 0.0
H384 H 0.05578 0.52433 0.21104 0.0
H385 H 0.04879 0.55398 0.36241 0.0
H386 H 0.04536 0.52445 0.411 0.0
H387 H 0.06357 0.49042 0.41532 0.0
H388 H 0.07421 0.4608 0.26488 0.0
H389 H 0.05561 0.49005 0.21085 0.0
C390 C 0.05208 0.52432 0.25433 0.0
C391 C 0.05298 0.54137 0.28308 0.0
C392 C 0.05133 0.50728 0.28234 0.0
C393 C 0.04727 0.54113 0.33892 0.0
C394 C 0.04617 0.52421 0.367 0.0
C395 C 0.06029 0.49033 0.37032 0.0
C396 C 0.07069 0.47343 0.34436 0.0
C397 C 0.05097 0.50724 0.33983 0.0
C398 C 0.06548 0.47352 0.28585 0.0
C399 C 0.05576 0.4903 0.25508 0.0
H400 H 0.934 0.17764 0.06902 0.0
H401 H 0.90532 0.13453 0.94079 0.0
H402 H 0.05868 0.12546 0.99098 0.0
H403 H 0.19005 0.12611 0.0792 0.0
H404 H 0.22973 0.16988 0.2065 0.0
H405 H 0.08007 0.18176 0.15109 0.0
C406 C 0.96297 0.16682 0.05095 0.0
C407 C 0.90956 0.15719 1.00007 0.0
C408 C 0.05048 0.16105 0.08195 0.0
C409 C 0.94633 0.14277 0.97794 0.0
C410 C 0.03331 0.13721 1.00769 0.0
C411 C 0.16646 0.13834 0.09496 0.0
C412 C 0.21782 0.1463 0.14929 0.0
C413 C 0.08415 0.14567 0.06099 0.0
C414 C 0.18779 0.16251 0.16774 0.0
C415 C 0.10357 0.16962 0.13498 0.0
H416 H 0.15162 0.90073 0.99393 0.0
H417 H 0.09612 0.85283 0.08087 0.0
H418 H 0.93651 0.85612 1.02214 0.0
H419 H 0.81425 0.87301 0.94505 0.0
H420 H 0.87709 0.91983 0.85732 0.0
H421 H 0.03466 0.9159 0.91488 0.0
C422 C 0.10455 0.89094 0.99999 0.0
C423 C 0.13453 0.87675 0.0421 0.0
C424 C 0.01544 0.89235 0.96438 0.0
C425 C 0.07366 0.86412 0.04963 0.0
C426 C 0.98306 0.86586 1.01548 0.0
C427 C 0.86324 0.88192 0.93768 0.0
C428 C 0.83562 0.89616 0.89535 0.0
C429 C 0.95346 0.87985 0.97232 0.0
C430 C 0.89805 0.90821 0.88741 0.0
C431 C 0.98757 0.90622 0.92124 0.0
H432 H 0.59608 0.67579 0.49127 0.0
H433 H 0.62272 0.6336 0.62178 0.0
H434 H 0.46777 0.62521 0.57421 0.0
H435 H 0.33457 0.62606 0.48774 0.0
H436 H 0.30086 0.66768 0.35499 0.0
H437 H 0.45077 0.67955 0.40914 0.0
C438 C 0.5664 0.66533 0.51032 0.0
C439 C 0.61931 0.65588 0.56135 0.0
C440 C 0.4782 0.65976 0.48048 0.0
C441 C 0.58195 0.64176 0.58449 0.0
C442 C 0.49399 0.6366 0.55638 0.0
C443 C 0.35946 0.63785 0.47061 0.0
C444 C 0.30908 0.6453 0.41555 0.0
C445 C 0.44309 0.64493 0.50313 0.0
C446 C 0.34118 0.66084 0.39494 0.0
C447 C 0.42592 0.66791 0.42678 0.0
H448 H 0.42508 0.35347 0.56359 0.0
H449 H 0.37754 0.39911 0.44143 0.0
H450 H 0.52199 0.41229 0.49818 0.0
H451 H 0.65188 0.41295 0.58789 0.0
H452 H 0.71926 0.3648 0.70023 0.0
H453 H 0.57375 0.35093 0.64453 0.0
C454 C 0.4482 0.36589 0.54835 0.0
C455 C 0.3913 0.37522 0.49808 0.0
C456 C 0.5318 0.37347 0.58147 0.0
C457 C 0.42099 0.39142 0.479 0.0
C458 C 0.50274 0.39921 0.51222 0.0
C459 C 0.63494 0.39942 0.60061 0.0
C460 C 0.69324 0.39061 0.65134 0.0
C461 C 0.55673 0.39074 0.56461 0.0
C462 C 0.672 0.37269 0.66509 0.0
C463 C 0.59018 0.36449 0.63184 0.0
H464 H 0.70351 0.15672 0.0974 0.0
H465 H 0.57723 0.11675 0.96087 0.0
H466 H 0.49417 0.10414 1.01745 0.0
H467 H 0.44952 0.10633 0.10353 0.0
H468 H 0.56726 0.14886 0.23282 0.0
H469 H 0.66734 0.15757 0.18439 0.0
C470 C 0.6583 0.14513 0.0799 0.0
C471 C 0.64513 0.138 1.02396 0.0
C472 C 0.61211 0.13789 0.1131 0.0
C473 C 0.58673 0.12296 1.00251 0.0
C474 C 0.54011 0.11554 0.03551 0.0
C475 C 0.49993 0.11692 0.1222 0.0
C476 C 0.5052 0.12611 0.17406 0.0
C477 C 0.55164 0.12307 0.09069 0.0
C478 C 0.56685 0.14057 0.19599 0.0
C479 C 0.62193 0.14602 0.16695 0.0
H480 H 0.57909 0.9292 0.94955 0.0
H481 H 0.50421 0.88062 0.83879 0.0
H482 H 0.4196 0.8687 0.89439 0.0
H483 H 0.38089 0.87027 0.98022 0.0
H484 H 0.43925 0.91971 0.08729 0.0
H485 H 0.52202 0.93263 0.03051 0.0
C486 C 0.54113 0.9164 0.9365 0.0
C487 C 0.54443 0.90617 0.88849 0.0
C488 C 0.49465 0.90929 0.97026 0.0
C489 C 0.49848 0.88922 0.87329 0.0
C490 C 0.45214 0.88213 0.9062 0.0
C491 C 0.41189 0.88389 0.99144 0.0
C492 C 0.40822 0.89357 0.04014 0.0
C493 C 0.45236 0.89175 0.95576 0.0
C494 C 0.44632 0.91139 0.05281 0.0
C495 C 0.49146 0.91901 1.01913 0.0
H496 H 0.08222 0.60435 0.46195 0.0
H497 H 0.95275 0.64441 0.32712 0.0
H498 H 0.85021 0.65211 0.37476 0.0
H499 H 0.81721 0.65193 0.46265 0.0
H500 H 0.95078 0.61407 0.60379 0.0
H501 H 0.03671 0.60186 0.54807 0.0
C502 C 0.02874 0.61412 0.4419 0.0
C503 C 0.02141 0.623 0.38901 0.0
C504 C 0.97523 0.61975 0.47275 0.0
C505 C 0.95511 0.63633 0.3649 0.0
C506 C 0.89871 0.64126 0.39353 0.0
C507 C 0.86436 0.64083 0.4815 0.0
C508 C 0.87976 0.6344 0.53868 0.0
C509 C 0.9112 0.63371 0.44865 0.0
C510 C 0.94054 0.61994 0.56148 0.0
C511 C 0.9884 0.61271 0.52891 0.0
H512 H 0.20657 0.40125 0.57744 0.0
H513 H 1.00165 0.3683 0.4513 0.0
H514 H 0.89954 0.37607 0.50047 0.0
H515 H 0.87266 0.39047 0.58106 0.0
H516 H 0.07458 0.42375 0.70877 0.0
H517 H 0.17515 0.41767 0.65662 0.0
C518 C 0.13894 0.39607 0.56036 0.0
C519 C 0.10983 0.38474 0.50981 0.0
C520 C 0.08136 0.40048 0.58923 0.0
C521 C 0.02347 0.37767 0.4886 0.0
C522 C 0.96588 0.38192 0.5171 0.0
C523 C 0.93826 0.39671 0.59751 0.0
C524 C 0.96626 0.40754 0.64918 0.0
C525 C 0.99458 0.39315 0.56756 0.0
C526 C 0.0518 0.41519 0.66984 0.0
C527 C 0.10907 0.41172 0.63991 0.0
H528 H 0.24273 0.22465 0.27232 0.0
H529 H 0.51417 0.23997 0.37184 0.0
H530 H 0.46807 0.27144 0.38482 0.0
H531 H 0.35059 0.29468 0.36857 0.0
H532 H 0.07941 0.27938 0.26717 0.0
H533 H 0.12563 0.24797 0.25511 0.0
C534 C 0.29167 0.23477 0.29757 0.0
C535 C 0.38171 0.22984 0.32153 0.0
C536 C 0.2649 0.25298 0.3044 0.0
C537 C 0.44434 0.24336 0.35285 0.0
C538 C 0.4181 0.26139 0.36034 0.0
C539 C 0.30162 0.28463 0.34304 0.0
C540 C 0.21152 0.2896 0.31862 0.0
C541 C 0.32855 0.26642 0.33607 0.0
C542 C 0.14923 0.27605 0.28683 0.0
C543 C 0.1755 0.25801 0.27976 0.0
H544 H 0.87003 0.23743 0.8638 0.0
H545 H 0.59194 0.25132 0.7899 0.0
H546 H 0.62816 0.2829 0.77081 0.0
H547 H 0.73809 0.30694 0.77477 0.0
H548 H 0.01603 0.29319 0.84648 0.0
H549 H 0.98038 0.26145 0.86609 0.0
C550 C 0.81726 0.24724 0.84273 0.0
C551 C 0.72827 0.24181 0.82838 0.0
C552 C 0.8384 0.26561 0.83174 0.0
C553 C 0.66118 0.255 0.80198 0.0
C554 C 0.68167 0.27316 0.7909 0.0
C555 C 0.79093 0.2971 0.79544 0.0
C556 C 0.87965 0.30258 0.80965 0.0
C557 C 0.77001 0.27871 0.80599 0.0
C558 C 0.94703 0.2894 0.83506 0.0
C559 C 0.92677 0.27119 0.8463 0.0
H560 H 0.58767 0.79366 0.71502 0.0
H561 H 0.84931 0.81823 0.78367 0.0
H562 H 0.91418 0.78813 0.77654 0.0
H563 H 0.89719 0.7547 0.75324 0.0
H564 H 0.6344 0.73049 0.68303 0.0
H565 H 0.57053 0.76049 0.68993 0.0
C566 C 0.65903 0.79252 0.72853 0.0
C567 C 0.71307 0.80839 0.74946 0.0
C568 C 0.69611 0.77511 0.72484 0.0
C569 C 0.80541 0.80649 0.7663 0.0
C570 C 0.84279 0.78918 0.76276 0.0
C571 C 0.82581 0.75588 0.73926 0.0
C572 C 0.77156 0.73996 0.71867 0.0
C573 C 0.78878 0.77338 0.74233 0.0
C574 C 0.67906 0.74206 0.70073 0.0
C575 C 0.64194 0.75939 0.70403 0.0
H576 H 0.38583 0.77987 0.24669 0.0
H577 H 0.12582 0.80497 0.18195 0.0
H578 H 0.06033 0.77548 0.19416 0.0
H579 H 0.07575 0.74242 0.22169 0.0
H580 H 0.33557 0.71732 0.28552 0.0
H581 H 0.40118 0.74686 0.27356 0.0
C582 C 0.31469 0.77899 0.23505 0.0
C583 C 0.26161 0.79493 0.21415 0.0
C584 C 0.27692 0.76186 0.24127 0.0
C585 C 0.16945 0.79329 0.19953 0.0
C586 C 0.13149 0.77629 0.20593 0.0
C587 C 0.14684 0.74335 0.23308 0.0
C588 C 0.20005 0.72743 0.25376 0.0
C589 C 0.18456 0.76049 0.22669 0.0
C590 C 0.29211 0.72904 0.26812 0.0
C591 C 0.33004 0.74605 0.26186 0.0
H592 H 0.81816 0.16194 0.33207 0.0
H593 H 0.76574 0.10368 0.28936 0.0
H594 H 0.90234 0.10133 0.2697 0.0
H595 H 0.03996 0.1155 0.26908 0.0
H596 H 0.09051 0.17393 0.31029 0.0
H597 H 0.95077 0.17654 0.32543 0.0
C598 C 0.83671 0.14871 0.31862 0.0
C599 C 0.78269 0.13294 0.31314 0.0
C600 C 0.91484 0.14749 0.30693 0.0
C601 C 0.80668 0.11599 0.29446 0.0
C602 C 0.8847 0.11464 0.28313 0.0
C603 C 0.02017 0.12884 0.28099 0.0
C604 C 0.07618 0.14443 0.28921 0.0
C605 C 0.93977 0.13025 0.28986 0.0
C606 C 0.04902 0.16166 0.30404 0.0
C607 C 0.96917 0.16317 0.31288 0.0
H608 H 0.29643 0.12732 0.8362 0.0
H609 H 0.3816 0.17485 0.95129 0.0
H610 H 0.22989 0.1799 0.9453 0.0
H611 H 0.07079 0.17126 0.90568 0.0
H612 H 0.9865 0.12398 0.78922 0.0
H613 H 0.13846 0.11856 0.79745 0.0
C614 C 0.28196 0.13873 0.8602 0.0
C615 C 0.35092 0.15068 0.894 0.0
C616 C 0.19387 0.14174 0.85607 0.0
C617 C 0.33026 0.16544 0.92462 0.0
C618 C 0.24318 0.16837 0.92123 0.0
C619 C 0.0856 0.15983 0.8819 0.0
C620 C 0.01642 0.14816 0.84659 0.0
C621 C 0.17406 0.15672 0.88668 0.0
C622 C 0.03766 0.13329 0.81663 0.0
C623 C 0.12497 0.13012 0.82131 0.0
H624 H 0.24904 0.91899 0.75997 0.0
H625 H 0.25529 0.8592 0.74363 0.0
H626 H 0.10857 0.85676 0.74949 0.0
H627 H 0.97471 0.87179 0.75293 0.0
H628 H 0.96576 0.93171 0.76357 0.0
H629 H 0.11749 0.93391 0.76658 0.0
C630 C 0.21864 0.90541 0.75821 0.0
C631 C 0.26263 0.88931 0.75096 0.0
C632 C 0.13355 0.90414 0.76023 0.0
C633 C 0.22235 0.87182 0.74864 0.0
C634 C 0.13852 0.87041 0.75203 0.0
C635 C 1.00627 0.88531 0.75633 0.0
C636 C 0.9589 0.90157 0.7575 0.0
C637 C 0.09287 0.8865 0.75678 0.0
C638 C 1.00051 0.919 0.76189 0.0
C639 C 0.08731 0.92027 0.76374 0.0
H640 H 0.70412 0.86505 0.17207 0.0
H641 H 0.68586 0.92502 0.17344 0.0
H642 H 0.83501 0.92774 0.172 0.0
H643 H 0.97262 0.91314 0.17337 0.0
H644 H 0.99101 0.85317 0.17263 0.0
H645 H 0.83993 0.85046 0.17048 0.0
C646 C 0.7326 0.87873 0.17196 0.0
C647 C 0.68385 0.89479 0.17337 0.0
C648 C 0.81867 0.88022 0.1713 0.0
C649 C 0.72191 0.9124 0.17284 0.0
C650 C 0.8073 0.91398 0.17194 0.0
C651 C 0.94355 0.89947 0.17253 0.0
C652 C 0.99362 0.88339 0.17365 0.0
C653 C 0.8566 0.89799 0.17165 0.0
C654 C 0.95448 0.8658 0.17228 0.0
C655 C 0.86793 0.86422 0.17102 0.0
H656 H 0.17762 0.66725 0.64217 0.0
H657 H 0.20505 0.61569 0.73796 0.0
H658 H 0.36279 0.61504 0.75533 0.0
H659 H 0.49345 0.62916 0.74487 0.0
H660 H 0.46788 0.68041 0.64804 0.0
H661 H 0.30909 0.68109 0.62958 0.0
C662 C 0.21806 0.65586 0.66683 0.0
C663 C 0.17922 0.64159 0.68896 0.0
C664 C 0.30922 0.65553 0.67664 0.0
C665 C 0.23281 0.62689 0.72047 0.0
C666 C 0.32325 0.6265 0.73052 0.0
C667 C 0.4534 0.64053 0.7198 0.0
C668 C 0.49297 0.65481 0.69837 0.0
C669 C 0.36222 0.64078 0.7091 0.0
C670 C 0.43948 0.66931 0.6655 0.0
C671 C 0.34856 0.66969 0.65483 0.0
H672 H 0.4874 0.60859 0.28383 0.0
H673 H 0.45497 0.66804 0.25864 0.0
H674 H 0.59472 0.67003 0.24309 0.0
H675 H 0.72347 0.65483 0.2328 0.0
H676 H 0.75932 0.59561 0.261 0.0
H677 H 0.62105 0.59361 0.27909 0.0
C678 C 0.51109 0.622 0.27527 0.0
C679 C 0.46003 0.63811 0.2719 0.0
C680 C 0.59188 0.62308 0.2664 0.0
C681 C 0.49242 0.65539 0.26128 0.0
C682 C 0.57236 0.65655 0.25218 0.0
C683 C 0.70085 0.64146 0.24261 0.0
C684 C 0.75098 0.62534 0.24458 0.0
C685 C 0.622 0.64046 0.2538 0.0
C686 C 0.72165 0.6082 0.25869 0.0
C687 C 0.64262 0.60706 0.26913 0.0
H688 H 0.47911 0.4026 0.2855 0.0
H689 H 0.55313 0.35791 0.41173 0.0
H690 H 0.70774 0.36072 0.41933 0.0
H691 H 0.82186 0.37597 0.38904 0.0
H692 H 0.74285 0.42031 0.26129 0.0
H693 H 0.59051 0.41746 0.25532 0.0
C694 C 0.52889 0.39345 0.3148 0.0
C695 C 0.50442 0.38005 0.34793 0.0
C696 C 0.61701 0.39507 0.31858 0.0
C697 C 0.57 0.36827 0.3854 0.0
C698 C 0.65846 0.36991 0.38986 0.0
C699 C 0.77133 0.38505 0.36017 0.0
C700 C 0.79423 0.39838 0.32582 0.0
C701 C 0.68282 0.38327 0.35655 0.0
C702 C 0.72754 0.40989 0.28814 0.0
C703 C 0.64014 0.40831 0.2847 0.0
H704 H 0.5769 0.36436 0.82437 0.0
H705 H 0.52888 0.41561 0.72572 0.0
H706 H 0.37615 0.4159 0.72089 0.0
H707 H 0.26025 0.40318 0.7516 0.0
H708 H 0.30787 0.35284 0.85431 0.0
H709 H 0.4563 0.35059 0.85068 0.0
C710 C 0.53268 0.37548 0.80142 0.0
C711 C 0.56465 0.39005 0.77603 0.0
C712 C 0.44494 0.3758 0.79984 0.0
C713 C 0.50649 0.40437 0.74642 0.0
C714 C 0.41897 0.40454 0.74348 0.0
C715 C 0.30217 0.39148 0.7721 0.0
C716 C 0.27259 0.37816 0.80292 0.0
C717 C 0.38799 0.39054 0.771 0.0
C718 C 0.32888 0.3633 0.83031 0.0
C719 C 0.41391 0.36204 0.82836 0.0
loop_
_geom_bond_atom_site_label_1
_geom_bond_atom_site_label_2
_geom_bond_distance
_geom_bond_site_symmetry_2
_ccdc_geom_bond_type
Zn0 N4 2.020 . S
Zn0 O8 2.019 . S
Zn0 N10 2.119 . S
Zn0 O18 1.975 . S
C1 N2 1.334 . S
C1 N5 1.336 . S
N2 C1 1.334 . S
N2 C3 1.334 . S
C3 N2 1.334 . S
C3 N4 1.336 . S
N4 Zn0 2.020 . S
N4 C3 1.336 . S
N4 N5 1.354 . S
N5 C1 1.336 . S
N5 N4 1.354 . S
N5 Zn9 2.020 . S
C6 O7 1.244 . S
C6 O30 1.257 . S
O7 C6 1.244 . S
O8 Zn0 2.019 . S
O8 C28 1.257 . S
Zn9 N5 2.020 . S
Zn9 O16 1.975 . S
Zn9 N25 2.119 . S
Zn9 O30 2.019 . S
N10 Zn0 2.119 . S
N10 C12 1.334 . S
N10 C13 1.328 . S
C11 C12 1.391 . S
C11 N14 1.329 . S
C11 H32 0.930 . S
C12 N10 1.334 . S
C12 C11 1.391 . S
C12 H19 0.930 . S
C13 N10 1.328 . S
C13 C15 1.392 . S
C13 H20 0.930 . S
N14 C11 1.329 . S
N14 C15 1.331 . S
C15 C13 1.392 . S
C15 N14 1.331 . S
O16 Zn9 1.975 . S
O16 C17 1.252 . S
C17 O16 1.252 . S
C17 O18 1.252 . S
O18 Zn0 1.975 . S
O18 C17 1.252 . S
H19 C12 0.930 . S
H20 C13 0.930 . S
C21 C22 1.392 . S
C21 N25 1.328 . S
C21 H27 0.930 . S
C22 C21 1.392 . S
C22 N26 1.331 . S
C23 C24 1.391 . S
C23 N26 1.329 . S
C23 H33 0.930 . S
C24 C23 1.391 . S
C24 N25 1.334 . S
C24 H31 0.930 . S
N25 Zn9 2.119 . S
N25 C21 1.328 . S
N25 C24 1.334 . S
N26 C22 1.331 . S
N26 C23 1.329 . S
H27 C21 0.930 . S
C28 O8 1.257 . S
C28 O29 1.244 . S
O29 C28 1.244 . S
O30 C6 1.257 . S
O30 Zn9 2.019 . S
H31 C24 0.930 . S
H32 C11 0.930 . S
H33 C23 0.930 . S
Zn34 N38 2.020 . S
Zn34 O42 2.019 . S
Zn34 N44 2.119 . S
Zn34 O52 1.975 . S
C35 N36 1.334 . S
C35 N39 1.336 . S
N36 C35 1.334 . S
N36 C37 1.334 . S
C37 N36 1.334 . S
C37 N38 1.336 . S
N38 Zn34 2.020 . S
N38 C37 1.336 . S
N38 N39 1.354 . S
N39 C35 1.336 . S
N39 N38 1.354 . S
N39 Zn43 2.020 . S
C40 O41 1.244 . S
C40 O64 1.257 . S
O41 C40 1.244 . S
O42 Zn34 2.019 . S
O42 C62 1.257 . S
Zn43 N39 2.020 . S
Zn43 O50 1.975 . S
Zn43 N59 2.119 . S
Zn43 O64 2.019 . S
N44 Zn34 2.119 . S
N44 C46 1.334 . S
N44 C47 1.328 . S
C45 C46 1.391 . S
C45 N48 1.329 . S
C45 H66 0.930 . S
C46 N44 1.334 . S
C46 C45 1.391 . S
C46 H53 0.930 . S
C47 N44 1.328 . S
C47 C49 1.392 . S
C47 H54 0.930 . S
N48 C45 1.329 . S
N48 C49 1.331 . S
C49 C47 1.392 . S
C49 N48 1.331 . S
O50 Zn43 1.975 . S
O50 C51 1.252 . S
C51 O50 1.252 . S
C51 O52 1.252 . S
O52 Zn34 1.975 . S
O52 C51 1.252 . S
H53 C46 0.930 . S
H54 C47 0.930 . S
C55 C56 1.392 . S
C55 N59 1.328 . S
C55 H61 0.930 . S
C56 C55 1.392 . S
C56 N60 1.331 . S
C57 C58 1.391 . S
C57 N60 1.329 . S
C57 H67 0.930 . S
C58 C57 1.391 . S
C58 N59 1.334 . S
C58 H65 0.930 . S
N59 Zn43 2.119 . S
N59 C55 1.328 . S
N59 C58 1.334 . S
N60 C56 1.331 . S
N60 C57 1.329 . S
H61 C55 0.930 . S
C62 O42 1.257 . S
C62 O63 1.244 . S
O63 C62 1.244 . S
O64 C40 1.257 . S
O64 Zn43 2.019 . S
H65 C58 0.930 . S
H66 C45 0.930 . S
H67 C57 0.930 . S
Zn68 N72 2.020 . S
Zn68 O76 2.019 . S
Zn68 N78 2.119 . S
Zn68 O86 1.975 . S
C69 N70 1.334 . S
C69 N73 1.336 . S
N70 C69 1.334 . S
N70 C71 1.334 . S
C71 N70 1.334 . S
C71 N72 1.336 . S
N72 Zn68 2.020 . S
N72 C71 1.336 . S
N72 N73 1.354 . S
N73 C69 1.336 . S
N73 N72 1.354 . S
N73 Zn77 2.020 . S
C74 O75 1.244 . S
C74 O98 1.257 . S
O75 C74 1.244 . S
O76 Zn68 2.019 . S
O76 C96 1.257 . S
Zn77 N73 2.020 . S
Zn77 O84 1.975 . S
Zn77 N93 2.119 . S
Zn77 O98 2.019 . S
N78 Zn68 2.119 . S
N78 C80 1.334 . S
N78 C81 1.328 . S
C79 C80 1.391 . S
C79 N82 1.329 . S
C79 H100 0.930 . S
C80 N78 1.334 . S
C80 C79 1.391 . S
C80 H87 0.930 . S
C81 N78 1.328 . S
C81 C83 1.392 . S
C81 H88 0.930 . S
N82 C79 1.329 . S
N82 C83 1.331 . S
C83 C81 1.392 . S
C83 N82 1.331 . S
O84 Zn77 1.975 . S
O84 C85 1.252 . S
C85 O84 1.252 . S
C85 O86 1.252 . S
O86 Zn68 1.975 . S
O86 C85 1.252 . S
H87 C80 0.930 . S
H88 C81 0.930 . S
C89 C90 1.392 . S
C89 N93 1.328 . S
C89 H95 0.930 . S
C90 C89 1.392 . S
C90 N94 1.331 . S
C91 C92 1.391 . S
C91 N94 1.329 . S
C91 H101 0.930 . S
C92 C91 1.391 . S
C92 N93 1.334 . S
C92 H99 0.930 . S
N93 Zn77 2.119 . S
N93 C89 1.328 . S
N93 C92 1.334 . S
N94 C90 1.331 . S
N94 C91 1.329 . S
H95 C89 0.930 . S
C96 O76 1.257 . S
C96 O97 1.244 . S
O97 C96 1.244 . S
O98 C74 1.257 . S
O98 Zn77 2.019 . S
H99 C92 0.930 . S
H100 C79 0.930 . S
H101 C91 0.930 . S
Zn102 N106 2.020 . S
Zn102 O110 2.019 . S
Zn102 N112 2.119 . S
Zn102 O120 1.975 . S
C103 N104 1.334 . S
C103 N107 1.336 . S
N104 C103 1.334 . S
N104 C105 1.334 . S
C105 N104 1.334 . S
C105 N106 1.336 . S
N106 Zn102 2.020 . S
N106 C105 1.336 . S
N106 N107 1.354 . S
N107 C103 1.336 . S
N107 N106 1.354 . S
N107 Zn111 2.020 . S
C108 O109 1.244 . S
C108 O132 1.257 . S
O109 C108 1.244 . S
O110 Zn102 2.019 . S
O110 C130 1.257 . S
Zn111 N107 2.020 . S
Zn111 O118 1.975 . S
Zn111 N127 2.119 . S
Zn111 O132 2.019 . S
N112 Zn102 2.119 . S
N112 C114 1.334 . S
N112 C115 1.328 . S
C113 C114 1.391 . S
C113 N116 1.329 . S
C113 H134 0.930 . S
C114 N112 1.334 . S
C114 C113 1.391 . S
C114 H121 0.930 . S
C115 N112 1.328 . S
C115 C117 1.392 . S
C115 H122 0.930 . S
N116 C113 1.329 . S
N116 C117 1.331 . S
C117 C115 1.392 . S
C117 N116 1.331 . S
O118 Zn111 1.975 . S
O118 C119 1.252 . S
C119 O118 1.252 . S
C119 O120 1.252 . S
O120 Zn102 1.975 . S
O120 C119 1.252 . S
H121 C114 0.930 . S
H122 C115 0.930 . S
C123 C124 1.392 . S
C123 N127 1.328 . S
C123 H129 0.930 . S
C124 C123 1.392 . S
C124 N128 1.331 . S
C125 C126 1.391 . S
C125 N128 1.329 . S
C125 H135 0.930 . S
C126 C125 1.391 . S
C126 N127 1.334 . S
C126 H133 0.930 . S
N127 Zn111 2.119 . S
N127 C123 1.328 . S
N127 C126 1.334 . S
N128 C124 1.331 . S
N128 C125 1.329 . S
H129 C123 0.930 . S
C130 O110 1.257 . S
C130 O131 1.244 . S
O131 C130 1.244 . S
O132 C108 1.257 . S
O132 Zn111 2.019 . S
H133 C126 0.930 . S
H134 C113 0.930 . S
H135 C125 0.930 . S
Zn136 N140 2.020 . S
Zn136 O144 2.019 . S
Zn136 N146 2.119 . S
Zn136 O154 1.975 . S
C137 N138 1.334 . S
C137 N141 1.336 . S
N138 C137 1.334 . S
N138 C139 1.334 . S
C139 N138 1.334 . S
C139 N140 1.336 . S
N140 Zn136 2.020 . S
N140 C139 1.336 . S
N140 N141 1.354 . S
N141 C137 1.336 . S
N141 N140 1.354 . S
N141 Zn145 2.020 1_655 S
C142 O143 1.244 . S
C142 O166 1.257 . S
O143 C142 1.244 . S
O144 Zn136 2.019 . S
O144 C164 1.257 . S
Zn145 N141 2.020 1_455 S
Zn145 O152 1.975 . S
Zn145 N161 2.119 1_455 S
Zn145 O166 2.019 . S
N146 Zn136 2.119 . S
N146 C148 1.334 . S
N146 C149 1.328 . S
C147 C148 1.391 . S
C147 N150 1.329 . S
C147 H168 0.930 1_655 S
C148 N146 1.334 . S
C148 C147 1.391 . S
C148 H155 0.930 . S
C149 N146 1.328 . S
C149 C151 1.392 . S
C149 H156 0.930 . S
N150 C147 1.329 . S
N150 C151 1.331 . S
C151 C149 1.392 . S
C151 N150 1.331 . S
O152 Zn145 1.975 . S
O152 C153 1.252 1_455 S
C153 O152 1.252 1_655 S
C153 O154 1.252 . S
O154 Zn136 1.975 . S
O154 C153 1.252 . S
H155 C148 0.930 . S
H156 C149 0.930 . S
C157 C158 1.392 . S
C157 N161 1.328 1_455 S
C157 H163 0.930 . S
C158 C157 1.392 . S
C158 N162 1.331 1_455 S
C159 C160 1.391 . S
C159 N162 1.329 . S
C159 H169 0.930 . S
C160 C159 1.391 . S
C160 N161 1.334 . S
C160 H167 0.930 . S
N161 Zn145 2.119 1_655 S
N161 C157 1.328 1_655 S
N161 C160 1.334 . S
N162 C158 1.331 1_655 S
N162 C159 1.329 . S
H163 C157 0.930 . S
C164 O144 1.257 . S
C164 O165 1.244 . S
O165 C164 1.244 . S
O166 C142 1.257 . S
O166 Zn145 2.019 . S
H167 C160 0.930 . S
H168 C147 0.930 1_455 S
H169 C159 0.930 . S
Zn170 N174 2.020 . S
Zn170 O178 2.019 . S
Zn170 N180 2.119 . S
Zn170 O188 1.975 . S
C171 N172 1.334 . S
C171 N175 1.336 . S
N172 C171 1.334 . S
N172 C173 1.334 . S
C173 N172 1.334 . S
C173 N174 1.336 . S
N174 Zn170 2.020 . S
N174 C173 1.336 . S
N174 N175 1.354 . S
N175 C171 1.336 . S
N175 N174 1.354 . S
N175 Zn179 2.020 1_455 S
C176 O177 1.244 . S
C176 O200 1.257 . S
O177 C176 1.244 . S
O178 Zn170 2.019 . S
O178 C198 1.257 . S
Zn179 N175 2.020 1_655 S
Zn179 O186 1.975 . S
Zn179 N195 2.119 1_655 S
Zn179 O200 2.019 . S
N180 Zn170 2.119 . S
N180 C182 1.334 . S
N180 C183 1.328 . S
C181 C182 1.391 . S
C181 N184 1.329 . S
C181 H202 0.930 1_455 S
C182 N180 1.334 . S
C182 C181 1.391 . S
C182 H189 0.930 . S
C183 N180 1.328 . S
C183 C185 1.392 . S
C183 H190 0.930 . S
N184 C181 1.329 . S
N184 C185 1.331 . S
C185 C183 1.392 . S
C185 N184 1.331 . S
O186 Zn179 1.975 . S
O186 C187 1.252 1_655 S
C187 O186 1.252 1_455 S
C187 O188 1.252 . S
O188 Zn170 1.975 . S
O188 C187 1.252 . S
H189 C182 0.930 . S
H190 C183 0.930 . S
C191 C192 1.392 . S
C191 N195 1.328 1_655 S
C191 H197 0.930 . S
C192 C191 1.392 . S
C192 N196 1.331 1_655 S
C193 C194 1.391 . S
C193 N196 1.329 . S
C193 H203 0.930 . S
C194 C193 1.391 . S
C194 N195 1.334 . S
C194 H201 0.930 . S
N195 Zn179 2.119 1_455 S
N195 C191 1.328 1_455 S
N195 C194 1.334 . S
N196 C192 1.331 1_455 S
N196 C193 1.329 . S
H197 C191 0.930 . S
C198 O178 1.257 . S
C198 O199 1.244 . S
O199 C198 1.244 . S
O200 C176 1.257 . S
O200 Zn179 2.019 . S
H201 C194 0.930 . S
H202 C181 0.930 1_655 S
H203 C193 0.930 . S
Zn204 N208 2.020 1_655 S
Zn204 O212 2.019 . S
Zn204 N214 2.119 1_655 S
Zn204 O222 1.975 . S
C205 N206 1.334 . S
C205 N209 1.336 . S
N206 C205 1.334 . S
N206 C207 1.334 . S
C207 N206 1.334 . S
C207 N208 1.336 . S
N208 Zn204 2.020 1_455 S
N208 C207 1.336 . S
N208 N209 1.354 . S
N209 C205 1.336 . S
N209 N208 1.354 . S
N209 Zn213 2.020 . S
C210 O211 1.244 . S
C210 O234 1.257 . S
O211 C210 1.244 . S
O212 Zn204 2.019 . S
O212 C232 1.257 . S
Zn213 N209 2.020 . S
Zn213 O220 1.975 . S
Zn213 N229 2.119 . S
Zn213 O234 2.019 . S
N214 Zn204 2.119 1_455 S
N214 C216 1.334 . S
N214 C217 1.328 1_455 S
C215 C216 1.391 . S
C215 N218 1.329 . S
C215 H236 0.930 . S
C216 N214 1.334 . S
C216 C215 1.391 . S
C216 H223 0.930 . S
C217 N214 1.328 1_655 S
C217 C219 1.392 . S
C217 H224 0.930 . S
N218 C215 1.329 . S
N218 C219 1.331 1_455 S
C219 C217 1.392 . S
C219 N218 1.331 1_655 S
O220 Zn213 1.975 . S
O220 C221 1.252 . S
C221 O220 1.252 . S
C221 O222 1.252 1_455 S
O222 Zn204 1.975 . S
O222 C221 1.252 1_655 S
H223 C216 0.930 . S
H224 C217 0.930 . S
C225 C226 1.392 . S
C225 N229 1.328 . S
C225 H231 0.930 . S
C226 C225 1.392 . S
C226 N230 1.331 . S
C227 C228 1.391 . S
C227 N230 1.329 . S
C227 H237 0.930 1_455 S
C228 C227 1.391 . S
C228 N229 1.334 . S
C228 H235 0.930 . S
N229 Zn213 2.119 . S
N229 C225 1.328 . S
N229 C228 1.334 . S
N230 C226 1.331 . S
N230 C227 1.329 . S
H231 C225 0.930 . S
C232 O212 1.257 . S
C232 O233 1.244 . S
O233 C232 1.244 . S
O234 C210 1.257 . S
O234 Zn213 2.019 . S
H235 C228 0.930 . S
H236 C215 0.930 . S
H237 C227 0.930 1_655 S
Zn238 N242 2.020 . S
Zn238 O246 2.019 . S
Zn238 N248 2.119 . S
Zn238 O256 1.975 . S
C239 N240 1.334 . S
C239 N243 1.336 . S
N240 C239 1.334 . S
N240 C241 1.334 . S
C241 N240 1.334 . S
C241 N242 1.336 . S
N242 Zn238 2.020 . S
N242 C241 1.336 . S
N242 N243 1.354 . S
N243 C239 1.336 . S
N243 N242 1.354 . S
N243 Zn247 2.020 1_655 S
C244 O245 1.244 . S
C244 O268 1.257 . S
O245 C244 1.244 . S
O246 Zn238 2.019 . S
O246 C266 1.257 . S
Zn247 N243 2.020 1_455 S
Zn247 O254 1.975 . S
Zn247 N263 2.119 1_455 S
Zn247 O268 2.019 . S
N248 Zn238 2.119 . S
N248 C250 1.334 . S
N248 C251 1.328 . S
C249 C250 1.391 . S
C249 N252 1.329 . S
C249 H270 0.930 1_655 S
C250 N248 1.334 . S
C250 C249 1.391 . S
C250 H257 0.930 . S
C251 N248 1.328 . S
C251 C253 1.392 . S
C251 H258 0.930 . S
N252 C249 1.329 . S
N252 C253 1.331 . S
C253 C251 1.392 . S
C253 N252 1.331 . S
O254 Zn247 1.975 . S
O254 C255 1.252 1_455 S
C255 O254 1.252 1_655 S
C255 O256 1.252 . S
O256 Zn238 1.975 . S
O256 C255 1.252 . S
H257 C250 0.930 . S
H258 C251 0.930 . S
C259 C260 1.392 . S
C259 N263 1.328 1_455 S
C259 H265 0.930 . S
C260 C259 1.392 . S
C260 N264 1.331 1_455 S
C261 C262 1.391 . S
C261 N264 1.329 . S
C261 H271 0.930 . S
C262 C261 1.391 . S
C262 N263 1.334 . S
C262 H269 0.930 . S
N263 Zn247 2.119 1_655 S
N263 C259 1.328 1_655 S
N263 C262 1.334 . S
N264 C260 1.331 1_655 S
N264 C261 1.329 . S
H265 C259 0.930 . S
C266 O246 1.257 . S
C266 O267 1.244 . S
O267 C266 1.244 . S
O268 C244 1.257 . S
O268 Zn247 2.019 . S
H269 C262 0.930 . S
H270 C249 0.930 1_455 S
H271 C261 0.930 . S
H272 C278 0.930 . S
H273 C281 0.930 . S
H274 C282 0.930 . S
H275 C283 0.930 . S
H276 C286 0.930 . S
H277 C287 0.930 . S
C278 H272 0.930 . S
C278 C279 1.355 . S
C278 C280 1.415 . S
C279 C278 1.355 . S
C279 C281 1.419 . S
C280 C278 1.415 . S
C280 C285 1.425 . S
C280 C287 1.409 . S
C281 H273 0.930 . S
C281 C279 1.419 . S
C281 C282 1.362 . S
C282 H274 0.930 . S
C282 C281 1.362 . S
C282 C285 1.409 . S
C283 H275 0.930 . S
C283 C284 1.355 . S
C283 C285 1.415 . S
C284 C283 1.355 . S
C284 C286 1.419 . S
C285 C280 1.425 . S
C285 C282 1.409 . S
C285 C283 1.415 . S
C286 H276 0.930 . S
C286 C284 1.419 . S
C286 C287 1.362 . S
C287 H277 0.930 . S
C287 C280 1.409 . S
C287 C286 1.362 . S
H288 C294 0.930 . S
H289 C297 0.930 . S
H290 C298 0.930 . S
H291 C299 0.930 . S
H292 C302 0.930 . S
H293 C303 0.930 . S
C294 H288 0.930 . S
C294 C295 1.355 . S
C294 C296 1.415 . S
C295 C294 1.355 . S
C295 C297 1.419 . S
C296 C294 1.415 . S
C296 C301 1.425 . S
C296 C303 1.409 . S
C297 H289 0.930 . S
C297 C295 1.419 . S
C297 C298 1.362 . S
C298 H290 0.930 . S
C298 C297 1.362 . S
C298 C301 1.409 . S
C299 H291 0.930 . S
C299 C300 1.355 . S
C299 C301 1.415 . S
C300 C299 1.355 . S
C300 C302 1.419 . S
C301 C296 1.425 . S
C301 C298 1.409 . S
C301 C299 1.415 . S
C302 H292 0.930 . S
C302 C300 1.419 . S
C302 C303 1.362 . S
C303 H293 0.930 . S
C303 C296 1.409 . S
C303 C302 1.362 . S
H304 C310 0.930 . S
H305 C313 0.930 . S
H306 C314 0.930 . S
H307 C315 0.930 . S
H308 C318 0.930 . S
H309 C319 0.930 . S
C310 H304 0.930 . S
C310 C311 1.355 1_455 S
C310 C312 1.415 . S
C311 C310 1.355 1_655 S
C311 C313 1.419 . S
C312 C310 1.415 . S
C312 C317 1.425 1_456 S
C312 C319 1.409 1_556 S
C313 H305 0.930 . S
C313 C311 1.419 . S
C313 C314 1.362 . S
C314 H306 0.930 . S
C314 C313 1.362 . S
C314 C317 1.409 1_556 S
C315 H307 0.930 . S
C315 C316 1.355 1_655 S
C315 C317 1.415 . S
C316 C315 1.355 1_455 S
C316 C318 1.419 . S
C317 C312 1.425 1_654 S
C317 C314 1.409 1_554 S
C317 C315 1.415 . S
C318 H308 0.930 . S
C318 C316 1.419 . S
C318 C319 1.362 . S
C319 H309 0.930 . S
C319 C312 1.409 1_554 S
C319 C318 1.362 . S
H320 C326 0.930 . S
H321 C329 0.930 . S
H322 C330 0.930 1_554 S
H323 C331 0.930 . S
H324 C334 0.930 . S
H325 C335 0.930 1_556 S
C326 H320 0.930 . S
C326 C327 1.355 . S
C326 C328 1.415 . S
C327 C326 1.355 . S
C327 C329 1.419 1_655 S
C328 C326 1.415 . S
C328 C333 1.425 1_656 S
C328 C335 1.409 1_556 S
C329 H321 0.930 . S
C329 C327 1.419 1_455 S
C329 C330 1.362 . S
C330 H322 0.930 1_556 S
C330 C329 1.362 . S
C330 C333 1.409 1_556 S
C331 H323 0.930 . S
C331 C332 1.355 . S
C331 C333 1.415 . S
C332 C331 1.355 . S
C332 C334 1.419 1_455 S
C333 C328 1.425 1_454 S
C333 C330 1.409 1_554 S
C333 C331 1.415 . S
C334 H324 0.930 . S
C334 C332 1.419 1_655 S
C334 C335 1.362 . S
C335 H325 0.930 1_554 S
C335 C328 1.409 1_554 S
C335 C334 1.362 . S
H336 C342 0.930 . S
H337 C345 0.930 . S
H338 C346 0.930 . S
H339 C347 0.930 . S
H340 C350 0.930 . S
H341 C351 0.930 . S
C342 H336 0.930 . S
C342 C343 1.355 . S
C342 C344 1.415 . S
C343 C342 1.355 . S
C343 C345 1.419 . S
C344 C342 1.415 . S
C344 C349 1.425 1_565 S
C344 C351 1.409 1_565 S
C345 H337 0.930 . S
C345 C343 1.419 . S
C345 C346 1.362 . S
C346 H338 0.930 . S
C346 C345 1.362 . S
C346 C349 1.409 1_565 S
C347 H339 0.930 . S
C347 C348 1.355 . S
C347 C349 1.415 . S
C348 C347 1.355 . S
C348 C350 1.419 . S
C349 C344 1.425 1_545 S
C349 C346 1.409 1_545 S
C349 C347 1.415 . S
C350 H340 0.930 . S
C350 C348 1.419 . S
C350 C351 1.362 . S
C351 H341 0.930 . S
C351 C344 1.409 1_545 S
C351 C350 1.362 . S
H352 C358 0.930 . S
H353 C361 0.930 . S
H354 C362 0.930 . S
H355 C363 0.930 . S
H356 C366 0.930 . S
H357 C367 0.930 . S
C358 H352 0.930 . S
C358 C359 1.355 . S
C358 C360 1.415 . S
C359 C358 1.355 . S
C359 C361 1.419 . S
C360 C358 1.415 . S
C360 C365 1.425 1_565 S
C360 C367 1.409 1_565 S
C361 H353 0.930 . S
C361 C359 1.419 . S
C361 C362 1.362 . S
C362 H354 0.930 . S
C362 C361 1.362 . S
C362 C365 1.409 1_565 S
C363 H355 0.930 . S
C363 C364 1.355 . S
C363 C365 1.415 . S
C364 C363 1.355 . S
C364 C366 1.419 . S
C365 C360 1.425 1_545 S
C365 C362 1.409 1_545 S
C365 C363 1.415 . S
C366 H356 0.930 . S
C366 C364 1.419 . S
C366 C367 1.362 . S
C367 H357 0.930 . S
C367 C360 1.409 1_545 S
C367 C366 1.362 . S
H368 C374 0.930 . S
H369 C377 0.930 . S
H370 C378 0.930 1_655 S
H371 C379 0.930 . S
H372 C382 0.930 . S
H373 C383 0.930 . S
C374 H368 0.930 . S
C374 C375 1.355 . S
C374 C376 1.415 . S
C375 C374 1.355 . S
C375 C377 1.419 . S
C376 C374 1.415 . S
C376 C381 1.425 . S
C376 C383 1.409 . S
C377 H369 0.930 . S
C377 C375 1.419 . S
C377 C378 1.362 . S
C378 H370 0.930 1_455 S
C378 C377 1.362 . S
C378 C381 1.409 . S
C379 H371 0.930 . S
C379 C380 1.355 . S
C379 C381 1.415 . S
C380 C379 1.355 . S
C380 C382 1.419 . S
C381 C376 1.425 . S
C381 C378 1.409 . S
C381 C379 1.415 . S
C382 H372 0.930 . S
C382 C380 1.419 . S
C382 C383 1.362 . S
C383 H373 0.930 . S
C383 C376 1.409 . S
C383 C382 1.362 . S
H384 C390 0.930 . S
H385 C393 0.930 . S
H386 C394 0.930 . S
H387 C395 0.930 . S
H388 C398 0.930 . S
H389 C399 0.930 . S
C390 H384 0.930 . S
C390 C391 1.355 . S
C390 C392 1.415 . S
C391 C390 1.355 . S
C391 C393 1.419 1_655 S
C392 C390 1.415 . S
C392 C397 1.425 . S
C392 C399 1.409 . S
C393 H385 0.930 . S
C393 C391 1.419 1_455 S
C393 C394 1.362 . S
C394 H386 0.930 . S
C394 C393 1.362 . S
C394 C397 1.409 1_455 S
C395 H387 0.930 . S
C395 C396 1.355 1_455 S
C395 C397 1.415 1_455 S
C396 C395 1.355 1_655 S
C396 C398 1.419 . S
C397 C392 1.425 . S
C397 C394 1.409 1_655 S
C397 C395 1.415 1_655 S
C398 H388 0.930 . S
C398 C396 1.419 . S
C398 C399 1.362 . S
C399 H389 0.930 . S
C399 C392 1.409 . S
C399 C398 1.362 . S
H400 C406 0.930 . S
H401 C409 0.930 . S
H402 C410 0.930 1_455 S
H403 C411 0.930 . S
H404 C414 0.930 . S
H405 C415 0.930 1_655 S
C406 H400 0.930 . S
C406 C407 1.355 . S
C406 C408 1.415 1_556 S
C407 C406 1.355 . S
C407 C409 1.419 . S
C408 C406 1.415 1_554 S
C408 C413 1.425 1_654 S
C408 C415 1.409 1_655 S
C409 H401 0.930 . S
C409 C407 1.419 . S
C409 C410 1.362 . S
C410 H402 0.930 1_655 S
C410 C409 1.362 . S
C410 C413 1.409 1_655 S
C411 H403 0.930 . S
C411 C412 1.355 . S
C411 C413 1.415 1_554 S
C412 C411 1.355 . S
C412 C414 1.419 . S
C413 C408 1.425 1_456 S
C413 C410 1.409 1_455 S
C413 C411 1.415 1_556 S
C414 H404 0.930 . S
C414 C412 1.419 . S
C414 C415 1.362 . S
C415 H405 0.930 1_455 S
C415 C408 1.409 1_455 S
C415 C414 1.362 . S
H416 C422 0.930 . S
H417 C425 0.930 . S
H418 C426 0.930 . S
H419 C427 0.930 . S
H420 C430 0.930 . S
H421 C431 0.930 . S
C422 H416 0.930 . S
C422 C423 1.355 . S
C422 C424 1.415 . S
C423 C422 1.355 . S
C423 C425 1.419 . S
C424 C422 1.415 . S
C424 C429 1.425 1_454 S
C424 C431 1.409 1_455 S
C425 H417 0.930 . S
C425 C423 1.419 . S
C425 C426 1.362 1_554 S
C426 H418 0.930 . S
C426 C425 1.362 1_556 S
C426 C429 1.409 1_455 S
C427 H419 0.930 . S
C427 C428 1.355 . S
C427 C429 1.415 . S
C428 C427 1.355 . S
C428 C430 1.419 . S
C429 C424 1.425 1_656 S
C429 C426 1.409 1_655 S
C429 C427 1.415 . S
C430 H420 0.930 . S
C430 C428 1.419 . S
C430 C431 1.362 1_556 S
C431 H421 0.930 . S
C431 C424 1.409 1_655 S
C431 C430 1.362 1_554 S
H432 C438 0.930 . S
H433 C441 0.930 . S
H434 C442 0.930 . S
H435 C443 0.930 . S
H436 C446 0.930 . S
H437 C447 0.930 . S
C438 H432 0.930 . S
C438 C439 1.355 . S
C438 C440 1.415 . S
C439 C438 1.355 . S
C439 C441 1.419 . S
C440 C438 1.415 . S
C440 C445 1.425 . S
C440 C447 1.409 . S
C441 H433 0.930 . S
C441 C439 1.419 . S
C441 C442 1.362 . S
C442 H434 0.930 . S
C442 C441 1.362 . S
C442 C445 1.409 . S
C443 H435 0.930 . S
C443 C444 1.355 . S
C443 C445 1.415 . S
C444 C443 1.355 . S
C444 C446 1.419 . S
C445 C440 1.425 . S
C445 C442 1.409 . S
C445 C443 1.415 . S
C446 H436 0.930 . S
C446 C444 1.419 . S
C446 C447 1.362 . S
C447 H437 0.930 . S
C447 C440 1.409 . S
C447 C446 1.362 . S
H448 C454 0.930 . S
H449 C457 0.930 . S
H450 C458 0.930 . S
H451 C459 0.930 . S
H452 C462 0.930 . S
H453 C463 0.930 . S
C454 H448 0.930 . S
C454 C455 1.355 . S
C454 C456 1.415 . S
C455 C454 1.355 . S
C455 C457 1.419 . S
C456 C454 1.415 . S
C456 C461 1.425 . S
C456 C463 1.409 . S
C457 H449 0.930 . S
C457 C455 1.419 . S
C457 C458 1.362 . S
C458 H450 0.930 . S
C458 C457 1.362 . S
C458 C461 1.409 . S
C459 H451 0.930 . S
C459 C460 1.355 . S
C459 C461 1.415 . S
C460 C459 1.355 . S
C460 C462 1.419 . S
C461 C456 1.425 . S
C461 C458 1.409 . S
C461 C459 1.415 . S
C462 H452 0.930 . S
C462 C460 1.419 . S
C462 C463 1.362 . S
C463 H453 0.930 . S
C463 C456 1.409 . S
C463 C462 1.362 . S
H464 C470 0.930 . S
H465 C473 0.930 . S
H466 C474 0.930 . S
H467 C475 0.930 . S
H468 C478 0.930 . S
H469 C479 0.930 . S
C470 H464 0.930 . S
C470 C471 1.355 . S
C470 C472 1.415 1_556 S
C471 C470 1.355 . S
C471 C473 1.419 . S
C472 C470 1.415 1_554 S
C472 C477 1.425 1_554 S
C472 C479 1.409 . S
C473 H465 0.930 . S
C473 C471 1.419 . S
C473 C474 1.362 . S
C474 H466 0.930 . S
C474 C473 1.362 . S
C474 C477 1.409 . S
C475 H467 0.930 . S
C475 C476 1.355 . S
C475 C477 1.415 1_554 S
C476 C475 1.355 . S
C476 C478 1.419 . S
C477 C472 1.425 1_556 S
C477 C474 1.409 . S
C477 C475 1.415 1_556 S
C478 H468 0.930 . S
C478 C476 1.419 . S
C478 C479 1.362 . S
C479 H469 0.930 . S
C479 C472 1.409 . S
C479 C478 1.362 . S
H480 C486 0.930 . S
H481 C489 0.930 . S
H482 C490 0.930 . S
H483 C491 0.930 . S
H484 C494 0.930 . S
H485 C495 0.930 . S
C486 H480 0.930 . S
C486 C487 1.355 . S
C486 C488 1.415 1_556 S
C487 C486 1.355 . S
C487 C489 1.419 . S
C488 C486 1.415 1_554 S
C488 C493 1.425 1_554 S
C488 C495 1.409 . S
C489 H481 0.930 . S
C489 C487 1.419 . S
C489 C490 1.362 . S
C490 H482 0.930 . S
C490 C489 1.362 . S
C490 C493 1.409 . S
C491 H483 0.930 . S
C491 C492 1.355 . S
C491 C493 1.415 1_554 S
C492 C491 1.355 . S
C492 C494 1.419 . S
C493 C488 1.425 1_556 S
C493 C490 1.409 . S
C493 C491 1.415 1_556 S
C494 H484 0.930 . S
C494 C492 1.419 . S
C494 C495 1.362 . S
C495 H485 0.930 . S
C495 C488 1.409 . S
C495 C494 1.362 . S
H496 C502 0.930 . S
H497 C505 0.930 . S
H498 C506 0.930 . S
H499 C507 0.930 . S
H500 C510 0.930 . S
H501 C511 0.930 . S
C502 H496 0.930 . S
C502 C503 1.355 . S
C502 C504 1.415 . S
C503 C502 1.355 . S
C503 C505 1.419 1_455 S
C504 C502 1.415 . S
C504 C509 1.425 1_455 S
C504 C511 1.409 . S
C505 H497 0.930 . S
C505 C503 1.419 1_655 S
C505 C506 1.362 . S
C506 H498 0.930 . S
C506 C505 1.362 . S
C506 C509 1.409 . S
C507 H499 0.930 . S
C507 C508 1.355 . S
C507 C509 1.415 . S
C508 C507 1.355 . S
C508 C510 1.419 1_655 S
C509 C504 1.425 1_655 S
C509 C506 1.409 . S
C509 C507 1.415 . S
C510 H500 0.930 . S
C510 C508 1.419 1_455 S
C510 C511 1.362 . S
C511 H501 0.930 . S
C511 C504 1.409 . S
C511 C510 1.362 . S
H512 C518 0.930 . S
H513 C521 0.930 . S
H514 C522 0.930 . S
H515 C523 0.930 . S
H516 C526 0.930 . S
H517 C527 0.930 . S
C518 H512 0.930 . S
C518 C519 1.355 . S
C518 C520 1.415 . S
C519 C518 1.355 . S
C519 C521 1.419 1_455 S
C520 C518 1.415 . S
C520 C525 1.425 1_455 S
C520 C527 1.409 . S
C521 H513 0.930 . S
C521 C519 1.419 1_655 S
C521 C522 1.362 . S
C522 H514 0.930 . S
C522 C521 1.362 . S
C522 C525 1.409 . S
C523 H515 0.930 . S
C523 C524 1.355 . S
C523 C525 1.415 . S
C524 C523 1.355 . S
C524 C526 1.419 1_655 S
C525 C520 1.425 1_655 S
C525 C522 1.409 . S
C525 C523 1.415 . S
C526 H516 0.930 . S
C526 C524 1.419 1_455 S
C526 C527 1.362 . S
C527 H517 0.930 . S
C527 C520 1.409 . S
C527 C526 1.362 . S
H528 C534 0.930 . S
H529 C537 0.930 . S
H530 C538 0.930 . S
H531 C539 0.930 . S
H532 C542 0.930 . S
H533 C543 0.930 . S
C534 H528 0.930 . S
C534 C535 1.355 . S
C534 C536 1.415 . S
C535 C534 1.355 . S
C535 C537 1.419 . S
C536 C534 1.415 . S
C536 C541 1.425 . S
C536 C543 1.409 . S
C537 H529 0.930 . S
C537 C535 1.419 . S
C537 C538 1.362 . S
C538 H530 0.930 . S
C538 C537 1.362 . S
C538 C541 1.409 . S
C539 H531 0.930 . S
C539 C540 1.355 . S
C539 C541 1.415 . S
C540 C539 1.355 . S
C540 C542 1.419 . S
C541 C536 1.425 . S
C541 C538 1.409 . S
C541 C539 1.415 . S
C542 H532 0.930 . S
C542 C540 1.419 . S
C542 C543 1.362 . S
C543 H533 0.930 . S
C543 C536 1.409 . S
C543 C542 1.362 . S
H544 C550 0.930 . S
H545 C553 0.930 . S
H546 C554 0.930 . S
H547 C555 0.930 . S
H548 C558 0.930 . S
H549 C559 0.930 . S
C550 H544 0.930 . S
C550 C551 1.355 . S
C550 C552 1.415 . S
C551 C550 1.355 . S
C551 C553 1.419 . S
C552 C550 1.415 . S
C552 C557 1.425 . S
C552 C559 1.409 . S
C553 H545 0.930 . S
C553 C551 1.419 . S
C553 C554 1.362 . S
C554 H546 0.930 . S
C554 C553 1.362 . S
C554 C557 1.409 . S
C555 H547 0.930 . S
C555 C556 1.355 . S
C555 C557 1.415 . S
C556 C555 1.355 . S
C556 C558 1.419 . S
C557 C552 1.425 . S
C557 C554 1.409 . S
C557 C555 1.415 . S
C558 H548 0.930 . S
C558 C556 1.419 . S
C558 C559 1.362 . S
C559 H549 0.930 . S
C559 C552 1.409 . S
C559 C558 1.362 . S
H560 C566 0.930 . S
H561 C569 0.930 . S
H562 C570 0.930 . S
H563 C571 0.930 . S
H564 C574 0.930 . S
H565 C575 0.930 . S
C566 H560 0.930 . S
C566 C567 1.355 . S
C566 C568 1.415 . S
C567 C566 1.355 . S
C567 C569 1.419 . S
C568 C566 1.415 . S
C568 C573 1.425 . S
C568 C575 1.409 . S
C569 H561 0.930 . S
C569 C567 1.419 . S
C569 C570 1.362 . S
C570 H562 0.930 . S
C570 C569 1.362 . S
C570 C573 1.409 . S
C571 H563 0.930 . S
C571 C572 1.355 . S
C571 C573 1.415 . S
C572 C571 1.355 . S
C572 C574 1.419 . S
C573 C568 1.425 . S
C573 C570 1.409 . S
C573 C571 1.415 . S
C574 H564 0.930 . S
C574 C572 1.419 . S
C574 C575 1.362 . S
C575 H565 0.930 . S
C575 C568 1.409 . S
C575 C574 1.362 . S
H576 C582 0.930 . S
H577 C585 0.930 . S
H578 C586 0.930 . S
H579 C587 0.930 . S
H580 C590 0.930 . S
H581 C591 0.930 . S
C582 H576 0.930 . S
C582 C583 1.355 . S
C582 C584 1.415 . S
C583 C582 1.355 . S
C583 C585 1.419 . S
C584 C582 1.415 . S
C584 C589 1.425 . S
C584 C591 1.409 . S
C585 H577 0.930 . S
C585 C583 1.419 . S
C585 C586 1.362 . S
C586 H578 0.930 . S
C586 C585 1.362 . S
C586 C589 1.409 . S
C587 H579 0.930 . S
C587 C588 1.355 . S
C587 C589 1.415 . S
C588 C587 1.355 . S
C588 C590 1.419 . S
C589 C584 1.425 . S
C589 C586 1.409 . S
C589 C587 1.415 . S
C590 H580 0.930 . S
C590 C588 1.419 . S
C590 C591 1.362 . S
C591 H581 0.930 . S
C591 C584 1.409 . S
C591 C590 1.362 . S
H592 C598 0.930 . S
H593 C601 0.930 . S
H594 C602 0.930 . S
H595 C603 0.930 . S
H596 C606 0.930 1_455 S
H597 C607 0.930 . S
C598 H592 0.930 . S
C598 C599 1.355 . S
C598 C600 1.415 . S
C599 C598 1.355 . S
C599 C601 1.419 . S
C600 C598 1.415 . S
C600 C605 1.425 . S
C600 C607 1.409 . S
C601 H593 0.930 . S
C601 C599 1.419 . S
C601 C602 1.362 . S
C602 H594 0.930 . S
C602 C601 1.362 . S
C602 C605 1.409 . S
C603 H595 0.930 . S
C603 C604 1.355 . S
C603 C605 1.415 1_455 S
C604 C603 1.355 . S
C604 C606 1.419 1_455 S
C605 C600 1.425 . S
C605 C602 1.409 . S
C605 C603 1.415 1_655 S
C606 H596 0.930 1_655 S
C606 C604 1.419 1_655 S
C606 C607 1.362 . S
C607 H597 0.930 . S
C607 C600 1.409 . S
C607 C606 1.362 . S
H608 C614 0.930 . S
H609 C617 0.930 . S
H610 C618 0.930 . S
H611 C619 0.930 . S
H612 C622 0.930 . S
H613 C623 0.930 1_655 S
C614 H608 0.930 . S
C614 C615 1.355 . S
C614 C616 1.415 . S
C615 C614 1.355 . S
C615 C617 1.419 . S
C616 C614 1.415 . S
C616 C621 1.425 . S
C616 C623 1.409 . S
C617 H609 0.930 . S
C617 C615 1.419 . S
C617 C618 1.362 . S
C618 H610 0.930 . S
C618 C617 1.362 . S
C618 C621 1.409 . S
C619 H611 0.930 . S
C619 C620 1.355 1_455 S
C619 C621 1.415 . S
C620 C619 1.355 1_655 S
C620 C622 1.419 . S
C621 C616 1.425 . S
C621 C618 1.409 . S
C621 C619 1.415 . S
C622 H612 0.930 . S
C622 C620 1.419 . S
C622 C623 1.362 1_655 S
C623 H613 0.930 1_455 S
C623 C616 1.409 . S
C623 C622 1.362 1_455 S
H624 C630 0.930 . S
H625 C633 0.930 . S
H626 C634 0.930 . S
H627 C635 0.930 . S
H628 C638 0.930 . S
H629 C639 0.930 . S
C630 H624 0.930 . S
C630 C631 1.355 . S
C630 C632 1.415 . S
C631 C630 1.355 . S
C631 C633 1.419 . S
C632 C630 1.415 . S
C632 C637 1.425 . S
C632 C639 1.409 . S
C633 H625 0.930 . S
C633 C631 1.419 . S
C633 C634 1.362 . S
C634 H626 0.930 . S
C634 C633 1.362 . S
C634 C637 1.409 . S
C635 H627 0.930 . S
C635 C636 1.355 1_455 S
C635 C637 1.415 . S
C636 C635 1.355 1_655 S
C636 C638 1.419 . S
C637 C632 1.425 . S
C637 C634 1.409 . S
C637 C635 1.415 . S
C638 H628 0.930 . S
C638 C636 1.419 . S
C638 C639 1.362 1_655 S
C639 H629 0.930 . S
C639 C632 1.409 . S
C639 C638 1.362 1_455 S
H640 C646 0.930 . S
H641 C649 0.930 . S
H642 C650 0.930 . S
H643 C651 0.930 . S
H644 C654 0.930 1_455 S
H645 C655 0.930 . S
C646 H640 0.930 . S
C646 C647 1.355 . S
C646 C648 1.415 . S
C647 C646 1.355 . S
C647 C649 1.419 . S
C648 C646 1.415 . S
C648 C653 1.425 . S
C648 C655 1.409 . S
C649 H641 0.930 . S
C649 C647 1.419 . S
C649 C650 1.362 . S
C650 H642 0.930 . S
C650 C649 1.362 . S
C650 C653 1.409 . S
C651 H643 0.930 . S
C651 C652 1.355 . S
C651 C653 1.415 1_455 S
C652 C651 1.355 . S
C652 C654 1.419 1_455 S
C653 C648 1.425 . S
C653 C650 1.409 . S
C653 C651 1.415 1_655 S
C654 H644 0.930 1_655 S
C654 C652 1.419 1_655 S
C654 C655 1.362 . S
C655 H645 0.930 . S
C655 C648 1.409 . S
C655 C654 1.362 . S
H656 C662 0.930 . S
H657 C665 0.930 . S
H658 C666 0.930 . S
H659 C667 0.930 . S
H660 C670 0.930 . S
H661 C671 0.930 . S
C662 H656 0.930 . S
C662 C663 1.355 . S
C662 C664 1.415 . S
C663 C662 1.355 . S
C663 C665 1.419 . S
C664 C662 1.415 . S
C664 C669 1.425 . S
C664 C671 1.409 . S
C665 H657 0.930 . S
C665 C663 1.419 . S
C665 C666 1.362 . S
C666 H658 0.930 . S
C666 C665 1.362 . S
C666 C669 1.409 . S
C667 H659 0.930 . S
C667 C668 1.355 . S
C667 C669 1.415 . S
C668 C667 1.355 . S
C668 C670 1.419 . S
C669 C664 1.425 . S
C669 C666 1.409 . S
C669 C667 1.415 . S
C670 H660 0.930 . S
C670 C668 1.419 . S
C670 C671 1.362 . S
C671 H661 0.930 . S
C671 C664 1.409 . S
C671 C670 1.362 . S
H672 C678 0.930 . S
H673 C681 0.930 . S
H674 C682 0.930 . S
H675 C683 0.930 . S
H676 C686 0.930 . S
H677 C687 0.930 . S
C678 H672 0.930 . S
C678 C679 1.355 . S
C678 C680 1.415 . S
C679 C678 1.355 . S
C679 C681 1.419 . S
C680 C678 1.415 . S
C680 C685 1.425 . S
C680 C687 1.409 . S
C681 H673 0.930 . S
C681 C679 1.419 . S
C681 C682 1.362 . S
C682 H674 0.930 . S
C682 C681 1.362 . S
C682 C685 1.409 . S
C683 H675 0.930 . S
C683 C684 1.355 . S
C683 C685 1.415 . S
C684 C683 1.355 . S
C684 C686 1.419 . S
C685 C680 1.425 . S
C685 C682 1.409 . S
C685 C683 1.415 . S
C686 H676 0.930 . S
C686 C684 1.419 . S
C686 C687 1.362 . S
C687 H677 0.930 . S
C687 C680 1.409 . S
C687 C686 1.362 . S
H688 C694 0.930 . S
H689 C697 0.930 . S
H690 C698 0.930 . S
H691 C699 0.930 . S
H692 C702 0.930 . S
H693 C703 0.930 . S
C694 H688 0.930 . S
C694 C695 1.355 . S
C694 C696 1.415 . S
C695 C694 1.355 . S
C695 C697 1.419 . S
C696 C694 1.415 . S
C696 C701 1.425 . S
C696 C703 1.409 . S
C697 H689 0.930 . S
C697 C695 1.419 . S
C697 C698 1.362 . S
C698 H690 0.930 . S
C698 C697 1.362 . S
C698 C701 1.409 . S
C699 H691 0.930 . S
C699 C700 1.355 . S
C699 C701 1.415 . S
C700 C699 1.355 . S
C700 C702 1.419 . S
C701 C696 1.425 . S
C701 C698 1.409 . S
C701 C699 1.415 . S
C702 H692 0.930 . S
C702 C700 1.419 . S
C702 C703 1.362 . S
C703 H693 0.930 . S
C703 C696 1.409 . S
C703 C702 1.362 . S
H704 C710 0.930 . S
H705 C713 0.930 . S
H706 C714 0.930 . S
H707 C715 0.930 . S
H708 C718 0.930 . S
H709 C719 0.930 . S
C710 H704 0.930 . S
C710 C711 1.355 . S
C710 C712 1.415 . S
C711 C710 1.355 . S
C711 C713 1.419 . S
C712 C710 1.415 . S
C712 C717 1.425 . S
C712 C719 1.409 . S
C713 H705 0.930 . S
C713 C711 1.419 . S
C713 C714 1.362 . S
C714 H706 0.930 . S
C714 C713 1.362 . S
C714 C717 1.409 . S
C715 H707 0.930 . S
C715 C716 1.355 . S
C715 C717 1.415 . S
C716 C715 1.355 . S
C716 C718 1.419 . S
C717 C712 1.425 . S
C717 C714 1.409 . S
C717 C715 1.415 . S
C718 H708 0.930 . S
C718 C716 1.419 . S
C718 C719 1.362 . S
C719 H709 0.930 . S
C719 C712 1.409 . S
C719 C718 1.362 . S
C279 C51 1.732 . S
C284 C17 1.731 . S
C295 C119 1.729 . S
C300 C85 1.730 . S
C311 C153 1.709 . S
C316 C187 1.708 . S
C327 C255 1.733 . S
C332 C221 1.732 . S
C343 C117 1.801 . S
C348 C22 1.787 . S
C359 C90 1.779 . S
C364 C56 1.808 . S
C375 C158 1.762 . S
C380 C260 1.825 . S
C391 C192 1.767 . S
C396 C219 1.820 . S
C407 C37 2.000 . S
C412 C3 1.997 . S
C423 C103 1.988 . S
C428 C71 1.952 . S
C439 C139 1.990 . S
C444 C173 2.005 . S
C455 C205 1.976 . S
C460 C241 2.009 . S
C471 C35 1.544 . S
C476 C1 1.530 . S
C487 C69 1.525 . S
C492 C105 1.546 . S
C503 C171 1.536 . S
C508 C137 1.540 . S
C519 C207 1.522 . S
C524 C239 1.547 . S
C535 C15 1.487 . S
C540 C226 1.487 . S
C551 C49 1.498 . S
C556 C253 1.498 . S
C567 C83 1.564 . S
C572 C151 1.564 . S
C583 C124 1.506 . S
C588 C185 1.506 . S
C599 C6 1.382 . S
C604 C28 1.374 . S
C615 C40 1.357 . S
C620 C62 1.374 . S
C631 C74 1.357 . S
C636 C96 1.373 . S
C647 C130 1.381 . S
C652 C108 1.369 . S
C663 C142 1.383 . S
C668 C164 1.373 . S
C679 C198 1.371 . S
C684 C176 1.382 . S
C695 C210 1.371 . S
C700 C232 1.382 . S
C711 C266 1.370 . S
C716 C244 1.381 . S
