# Generated by pormake.
# Topology uoz, (4)-cn, num edge types: 1
# Building blocks:
#     Node 0, Type 0, BuildingBlock: AZAVOO_clean_sbu_0, # of connection points: 4
#     Node 1, Type 0, BuildingBlock: AZAVOO_clean_sbu_0, # of connection points: 4
#     Node 2, Type 0, BuildingBlock: AZAVOO_clean_sbu_0, # of connection points: 4
#     Node 3, Type 0, BuildingBlock: AZAVOO_clean_sbu_0, # of connection points: 4
#     Node 4, Type 0, BuildingBlock: AZAVOO_clean_sbu_0, # of connection points: 4
#     Node 5, Type 0, BuildingBlock: AZAVOO_clean_sbu_0, # of connection points: 4
#     Node 6, Type 0, BuildingBlock: AZAVOO_clean_sbu_0, # of connection points: 4
#     Node 7, Type 0, BuildingBlock: AZAVOO_clean_sbu_0, # of connection points: 4
#     Node 8, Type 0, BuildingBlock: AZAVOO_clean_sbu_0, # of connection points: 4
#     Node 9, Type 0, BuildingBlock: AZAVOO_clean_sbu_0, # of connection points: 4
#     Node 10, Type 0, BuildingBlock: AZAVOO_clean_sbu_0, # of connection points: 4
#     Node 11, Type 0, BuildingBlock: AZAVOO_clean_sbu_0, # of connection points: 4
#     Node 12, Type 0, BuildingBlock: AZAVOO_clean_sbu_0, # of connection points: 4
#     Node 13, Type 0, BuildingBlock: AZAVOO_clean_sbu_0, # of connection points: 4
#     Node 14, Type 0, BuildingBlock: AZAVOO_clean_sbu_0, # of connection points: 4
#     Node 15, Type 0, BuildingBlock: AZAVOO_clean_sbu_0, # of connection points: 4
#     Edge 16, Type (0, 0), BuildingBlock: EZIPEK_clean_linker_0, # of connection points: 2
#     Edge 17, Type (0, 0), BuildingBlock: EZIPEK_clean_linker_0, # of connection points: 2
#     Edge 18, Type (0, 0), BuildingBlock: EZIPEK_clean_linker_0, # of connection points: 2
#     Edge 19, Type (0, 0), BuildingBlock: EZIPEK_clean_linker_0, # of connection points: 2
#     Edge 20, Type (0, 0), BuildingBlock: EZIPEK_clean_linker_0, # of connection points: 2
#     Edge 21, Type (0, 0), BuildingBlock: EZIPEK_clean_linker_0, # of connection points: 2
#     Edge 22, Type (0, 0), BuildingBlock: EZIPEK_clean_linker_0, # of connection points: 2
#     Edge 23, Type (0, 0), BuildingBlock: EZIPEK_clean_linker_0, # of connection points: 2
#     Edge 24, Type (0, 0), BuildingBlock: EZIPEK_clean_linker_0, # of connection points: 2
#     Edge 25, Type (0, 0), BuildingBlock: EZIPEK_clean_linker_0, # of connection points: 2
#     Edge 26, Type (0, 0), BuildingBlock: EZIPEK_clean_linker_0, # of connection points: 2
#     Edge 27, Type (0, 0), BuildingBlock: EZIPEK_clean_linker_0, # of connection points: 2
#     Edge 28, Type (0, 0), BuildingBlock: EZIPEK_clean_linker_0, # of connection points: 2
#     Edge 29, Type (0, 0), BuildingBlock: EZIPEK_clean_linker_0, # of connection points: 2
#     Edge 30, Type (0, 0), BuildingBlock: EZIPEK_clean_linker_0, # of connection points: 2
#     Edge 31, Type (0, 0), BuildingBlock: EZIPEK_clean_linker_0, # of connection points: 2
#     Edge 32, Type (0, 0), BuildingBlock: EZIPEK_clean_linker_0, # of connection points: 2
#     Edge 33, Type (0, 0), BuildingBlock: EZIPEK_clean_linker_0, # of connection points: 2
#     Edge 34, Type (0, 0), BuildingBlock: EZIPEK_clean_linker_0, # of connection points: 2
#     Edge 35, Type (0, 0), BuildingBlock: EZIPEK_clean_linker_0, # of connection points: 2
#     Edge 36, Type (0, 0), BuildingBlock: EZIPEK_clean_linker_0, # of connection points: 2
#     Edge 37, Type (0, 0), BuildingBlock: EZIPEK_clean_linker_0, # of connection points: 2
#     Edge 38, Type (0, 0), BuildingBlock: EZIPEK_clean_linker_0, # of connection points: 2
#     Edge 39, Type (0, 0), BuildingBlock: EZIPEK_clean_linker_0, # of connection points: 2
#     Edge 40, Type (0, 0), BuildingBlock: EZIPEK_clean_linker_0, # of connection points: 2
#     Edge 41, Type (0, 0), BuildingBlock: EZIPEK_clean_linker_0, # of connection points: 2
#     Edge 42, Type (0, 0), BuildingBlock: EZIPEK_clean_linker_0, # of connection points: 2
#     Edge 43, Type (0, 0), BuildingBlock: EZIPEK_clean_linker_0, # of connection points: 2
#     Edge 44, Type (0, 0), BuildingBlock: EZIPEK_clean_linker_0, # of connection points: 2
#     Edge 45, Type (0, 0), BuildingBlock: EZIPEK_clean_linker_0, # of connection points: 2
#     Edge 46, Type (0, 0), BuildingBlock: EZIPEK_clean_linker_0, # of connection points: 2
#     Edge 47, Type (0, 0), BuildingBlock: EZIPEK_clean_linker_0, # of connection points: 2
# Relax obj value: 0.103
# Max RMSD: 0.100
# Mean RMSD: 0.100
data_MOF--net-uoz--node1-AZAVOO_clean_sbu_0--edge1-EZIPEK_clean_linker_0
_symmetry_space_group_name_H-M    P1
_symmetry_Int_Tables_number       1
_symmetry_cell_setting            triclinic
loop_
_symmetry_equiv_pos_as_xyz
'x, y, z'
_cell_length_a     43.899327
_cell_length_b     43.78286
_cell_length_c     16.69265
_cell_angle_alpha  90.234424
_cell_angle_beta   90.228544
_cell_angle_gamma 89.7004
loop_
_atom_site_label
_atom_site_type_symbol
_atom_site_fract_x
_atom_site_fract_y
_atom_site_fract_z
_atom_type_partial_charge
Mg0 Mg 0.00855 0.59217 0.28443 0.0
O1 O 0.00909 0.55689 0.18435 0.0
O2 O 0.0178 0.58075 0.06797 0.0
Mg3 Mg 0.01876 0.63197 0.09329 0.0
C4 C 0.01352 0.55665 0.10893 0.0
C5 C 0.03031 0.5573 0.43889 0.0
O6 O 0.04565 0.58269 0.44944 0.0
O7 O 0.06017 0.59512 0.2705 0.0
O8 O 0.0639 0.62067 0.15569 0.0
O9 O 0.95824 0.59905 0.27066 0.0
O10 O 0.99258 0.62535 0.20424 0.0
C11 C 0.07615 0.6069 0.2151 0.0
C12 C 0.96429 0.61971 0.21788 0.0
O13 O 0.01356 0.55418 0.37711 0.0
Mg14 Mg 0.66317 0.75014 0.5216 0.0
O15 O 0.69531 0.74072 0.41878 0.0
O16 O 0.66923 0.74245 0.30312 0.0
Mg17 Mg 0.61894 0.74832 0.33435 0.0
C18 C 0.69393 0.73923 0.3427 0.0
C19 C 0.70418 0.74943 0.6742 0.0
O20 O 0.67946 0.7364 0.70165 0.0
O21 O 0.66078 0.80023 0.48254 0.0
O22 O 0.63175 0.79688 0.37289 0.0
O23 O 0.65415 0.70018 0.5345 0.0
O24 O 0.62727 0.73072 0.45607 0.0
C25 C 0.64715 0.81266 0.42318 0.0
C26 C 0.63247 0.70358 0.48243 0.0
O27 O 0.7046 0.75884 0.60229 0.0
Mg28 Mg 0.53783 0.39461 0.86114 0.0
O29 O 0.53373 0.43158 0.76731 0.0
O30 O 0.54301 0.41285 0.6447 0.0
Mg31 Mg 0.55278 0.362 0.65982 0.0
C32 C 0.53605 0.43478 0.69183 0.0
C33 C 0.5087 0.42408 0.02228 0.0
O34 O 0.50468 0.3957 0.04501 0.0
O35 O 0.49059 0.37767 0.81968 0.0
O36 O 0.50362 0.3582 0.69988 0.0
O37 O 0.58905 0.40059 0.86871 0.0
O38 O 0.56596 0.36918 0.78493 0.0
C39 C 0.48386 0.36414 0.75369 0.0
C40 C 0.5908 0.38104 0.8106 0.0
O41 O 0.51946 0.42951 0.95315 0.0
Mg42 Mg 0.88085 0.25831 0.07409 0.0
O43 O 0.84383 0.25708 0.97949 0.0
O44 O 0.86536 0.24891 0.85979 0.0
Mg45 Mg 0.91724 0.25061 0.87711 0.0
C46 C 0.84207 0.25256 0.90432 0.0
C47 C 0.8472 0.24273 0.23876 0.0
O48 O 0.87366 0.23106 0.25975 0.0
O49 O 0.88741 0.20636 0.05783 0.0
O50 O 0.91335 0.2055 0.94285 0.0
O51 O 0.88526 0.30918 0.06026 0.0
O52 O 0.91196 0.27558 0.99086 0.0
C53 C 0.90204 0.19192 0.00326 0.0
C54 C 0.90534 0.30372 0.00545 0.0
O55 O 0.84362 0.25355 0.16882 0.0
Mg56 Mg 0.03502 0.40279 0.77628 0.0
O57 O 0.03494 0.4392 0.87691 0.0
O58 O 0.02424 0.41776 0.99606 0.0
Mg59 Mg 0.03595 0.36822 0.97555 0.0
C60 C 0.02816 0.44103 0.95132 0.0
C61 C 0.02575 0.4597 0.67083 0.0
O62 O -0.00015 0.45829 0.70969 0.0
O63 O 0.08578 0.38827 0.79296 0.0
O64 O 0.07422 0.39354 0.91727 0.0
O65 O 0.98386 0.40242 0.78346 0.0
O66 O 0.01314 0.37198 0.85627 0.0
C67 C 0.09142 0.38168 0.86555 0.0
C68 C 0.98637 0.382 0.83886 0.0
O69 O 0.04635 0.43985 0.68479 0.0
Mg70 Mg 0.8515 0.75117 0.02931 0.0
O71 O 0.81345 0.73876 0.11434 0.0
O72 O 0.83239 0.73477 0.23866 0.0
Mg73 Mg 0.88407 0.73938 0.23086 0.0
C74 C 0.81018 0.73461 0.18921 0.0
C75 C 0.8131 0.74829 0.87232 0.0
O76 O 0.83482 0.72855 0.85558 0.0
O77 O 0.85133 0.79938 0.08586 0.0
O78 O 0.87359 0.78913 0.20345 0.0
O79 O 0.86258 0.70137 0.00633 0.0
O80 O 0.8833 0.72916 0.1024 0.0
C81 C 0.86158 0.80797 0.1542 0.0
C82 C 0.88072 0.70316 0.06742 0.0
O83 O 0.81431 0.76319 0.93777 0.0
Mg84 Mg 0.49813 0.57966 0.36242 0.0
O85 O 0.51047 0.54922 0.46886 0.0
O86 O 0.51162 0.577 0.58159 0.0
Mg87 Mg 0.5063 0.62708 0.54408 0.0
C88 C 0.5137 0.55151 0.54468 0.0
C89 C 0.50187 0.53182 0.22326 0.0
O90 O 0.52134 0.55239 0.19869 0.0
O91 O 0.44902 0.5845 0.41047 0.0
O92 O 0.45692 0.61613 0.51387 0.0
O93 O 0.54767 0.58953 0.33739 0.0
O94 O 0.51898 0.61684 0.41908 0.0
C95 C 0.43905 0.60074 0.46881 0.0
C96 C 0.54512 0.61227 0.38669 0.0
O97 O 0.48724 0.53647 0.28795 0.0
Mg98 Mg 0.69077 0.25994 0.5693 0.0
O99 O 0.72556 0.25467 0.66865 0.0
O100 O 0.70165 0.25444 0.78687 0.0
Mg101 Mg 0.6506 0.2601 0.76248 0.0
C102 C 0.72583 0.25314 0.74477 0.0
C103 C 0.74682 0.26592 0.45544 0.0
O104 O 0.74434 0.29422 0.48103 0.0
O105 O 0.67702 0.21001 0.58684 0.0
O106 O 0.65025 0.2134 0.70029 0.0
O107 O 0.69279 0.31155 0.58139 0.0
O108 O 0.66113 0.28242 0.64845 0.0
C109 C 0.6603 0.19807 0.64064 0.0
C110 C 0.67175 0.30918 0.63501 0.0
O111 O 0.72787 0.24612 0.4795 0.0
Mg112 Mg 0.35197 0.25457 0.60665 0.0
O113 O 0.31574 0.25389 0.70639 0.0
O114 O 0.33799 0.25602 0.82789 0.0
Mg115 Mg 0.38579 0.27218 0.80169 0.0
C116 C 0.31475 0.25232 0.78285 0.0
C117 C 0.31255 0.27075 0.45015 0.0
O118 O 0.33313 0.29199 0.43936 0.0
O119 O 0.35778 0.30752 0.60003 0.0
O120 O 0.3561 0.30242 0.7272 0.0
O121 O 0.35966 0.20541 0.6333 0.0
O122 O 0.38706 0.24115 0.69282 0.0
C123 C 0.36594 0.31723 0.66839 0.0
C124 C 0.38117 0.21248 0.68312 0.0
O125 O 0.31393 0.25387 0.51191 0.0
Mg126 Mg 0.16576 0.74326 0.10338 0.0
O127 O 0.2011 0.75726 0.19653 0.0
O128 O 0.17928 0.75677 0.31762 0.0
Mg129 Mg 0.12924 0.74485 0.30229 0.0
C130 C 0.20224 0.76067 0.27232 0.0
C131 C 0.21812 0.75838 0.98253 0.0
O132 O 0.21011 0.78628 0.003 0.0
O133 O 0.16952 0.69396 0.14773 0.0
O134 O 0.14478 0.6972 0.26424 0.0
O135 O 0.1483 0.79204 0.09076 0.0
O136 O 0.13135 0.75838 0.17717 0.0
C137 C 0.15917 0.68166 0.2114 0.0
C138 C 0.13023 0.7855 0.14935 0.0
O139 O 0.20408 0.73584 0.01246 0.0
Mg140 Mg 0.16596 0.21938 0.11305 0.0
O141 O 0.20191 0.22368 0.01652 0.0
O142 O 0.1827 0.20811 0.89847 0.0
Mg143 Mg 0.1335 0.19436 0.91893 0.0
C144 C 0.20426 0.21882 0.94148 0.0
C145 C 0.22236 0.23281 0.21737 0.0
O146 O 0.22957 0.20677 0.18285 0.0
O147 O 0.145 0.26322 0.06073 0.0
O148 O 0.12691 0.24485 0.9443 0.0
O149 O 0.17807 0.1695 0.13203 0.0
O150 O 0.14412 0.18647 0.0448 0.0
C151 C 0.13173 0.26687 0.99293 0.0
C152 C 0.15924 0.16398 0.07408 0.0
O153 O 0.197 0.24546 0.20033 0.0
Mg154 Mg 0.35465 0.75381 0.6012 0.0
O155 O 0.32012 0.76248 0.50193 0.0
O156 O 0.34318 0.75894 0.38261 0.0
Mg157 Mg 0.39342 0.74909 0.40584 0.0
C158 C 0.3196 0.76332 0.4256 0.0
C159 C 0.31974 0.74384 0.76411 0.0
O160 O 0.34725 0.73666 0.78921 0.0
O161 O 0.35348 0.70243 0.56977 0.0
O162 O 0.37897 0.70258 0.45412 0.0
O163 O 0.36803 0.80361 0.60261 0.0
O164 O 0.38875 0.76818 0.52584 0.0
C165 C 0.36487 0.68837 0.5094 0.0
C166 C 0.38677 0.79643 0.54579 0.0
O167 O 0.31551 0.7506 0.69092 0.0
Mg168 Mg 0.5215 0.09911 0.81675 0.0
O169 O 0.50813 0.0626 0.72511 0.0
O170 O 0.49777 0.08541 0.60811 0.0
Mg171 Mg 0.50212 0.13685 0.62604 0.0
C172 C 0.50051 0.0616 0.65139 0.0
C173 C 0.51817 0.04208 0.92323 0.0
O174 O 0.4906 0.04381 0.89268 0.0
O175 O 0.56762 0.10363 0.75253 0.0
O176 O 0.55318 0.12848 0.64211 0.0
O177 O 0.4726 0.10733 0.85242 0.0
O178 O 0.49616 0.13159 0.75513 0.0
C179 C 0.57392 0.11622 0.6855 0.0
C180 C 0.47173 0.12712 0.79511 0.0
O181 O 0.53806 0.06151 0.90226 0.0
Mg182 Mg -0.00163 0.89805 0.34317 0.0
O183 O 0.01024 0.92221 0.22673 0.0
O184 O 0.01083 0.88886 0.12399 0.0
Mg185 Mg -0.00373 0.84327 0.17485 0.0
C186 C 0.0144 0.91559 0.15299 0.0
C187 C 0.00606 0.94341 0.47981 0.0
O188 O 0.01649 0.91756 0.50906 0.0
O189 O 0.94802 0.89916 0.30487 0.0
O190 O 0.94999 0.86498 0.2049 0.0
O191 O 0.04751 0.88478 0.3598 0.0
O192 O 0.01403 0.85806 0.29069 0.0
C193 C 0.93525 0.88391 0.24872 0.0
C194 C 0.04195 0.86247 0.311 0.0
O195 O -0.00502 0.94368 0.40938 0.0
Mg196 Mg 0.50638 0.91054 0.31163 0.0
O197 O 0.49899 0.94554 0.41157 0.0
O198 O 0.50141 0.92175 0.53026 0.0
Mg199 Mg 0.51013 0.87127 0.507 0.0
C200 C 0.49798 0.94572 0.48799 0.0
C201 C 0.52914 0.94643 0.15959 0.0
O202 O 0.54598 0.92175 0.15111 0.0
O203 O 0.55734 0.91012 0.34242 0.0
O204 O 0.55667 0.88442 0.45787 0.0
O205 O 0.45635 0.89744 0.31034 0.0
O206 O 0.49162 0.87663 0.38691 0.0
C207 C 0.5711 0.89819 0.40242 0.0
C208 C 0.46358 0.87827 0.36622 0.0
O209 O 0.51145 0.94889 0.21949 0.0
Mg210 Mg 0.03595 0.07729 0.85209 0.0
O211 O 0.03504 0.03518 0.92931 0.0
O212 O 0.04191 0.04884 0.0576 0.0
Mg213 Mg 0.04979 0.10026 0.06105 0.0
C214 C 0.03742 0.02879 0.00327 0.0
C215 C 0.02889 0.04825 0.6825 0.0
O216 O 0.05054 0.06806 0.66796 0.0
O217 O 0.98841 0.09019 0.90001 0.0
O218 O -0.00015 0.10487 0.0244 0.0
O219 O 0.0869 0.07229 0.84013 0.0
O220 O 0.06402 0.0989 0.93518 0.0
C221 C 0.98027 0.09996 0.96911 0.0
C222 C 0.08889 0.08848 0.90495 0.0
O223 O 0.01657 0.04785 0.75119 0.0
C224 C 0.14856 0.63574 0.29321 0.0
C225 C 0.15773 0.64784 0.21862 0.0
C226 C 0.12667 0.61079 0.14834 0.0
C227 C 0.11001 0.6073 0.22033 0.0
N228 N 0.11522 0.60034 0.36269 0.0
N229 N 0.1706 0.63395 0.08385 0.0
C230 C 0.12455 0.61411 0.29399 0.0
C231 C 0.15218 0.63057 0.14869 0.0
N232 N 0.16139 0.64691 0.36173 0.0
N233 N 0.11676 0.59663 0.08023 0.0
H234 H 0.19014 0.64742 0.08699 0.0
H235 H 0.16823 0.62159 0.0309 0.0
H236 H 0.09877 0.58112 0.08153 0.0
H237 H 0.12609 0.60014 0.02379 0.0
H238 H 0.15437 0.64122 0.41922 0.0
H239 H 0.1795 0.66227 0.35937 0.0
H240 H 0.12495 0.60428 0.41862 0.0
H241 H 0.09967 0.58242 0.36159 0.0
C242 C 0.61902 0.88896 0.47823 0.0
C243 C 0.60482 0.89474 0.40344 0.0
C244 C 0.63906 0.85893 0.33807 0.0
C245 C 0.64567 0.84657 0.41477 0.0
N246 N 0.65755 0.86004 0.55139 0.0
N247 N 0.61404 0.89956 0.26254 0.0
C248 C 0.64113 0.86521 0.48324 0.0
C249 C 0.61946 0.88477 0.33291 0.0
N250 N 0.60942 0.90477 0.54409 0.0
N251 N 0.6503 0.84484 0.27135 0.0
H252 H 0.60121 0.91968 0.26071 0.0
H253 H 0.6246 0.89395 0.20873 0.0
H254 H 0.66596 0.82689 0.27559 0.0
H255 H 0.64412 0.85062 0.21308 0.0
H256 H 0.61635 0.89995 0.6024 0.0
H257 H 0.59384 0.92279 0.53885 0.0
H258 H 0.65572 0.87335 0.60294 0.0
H259 H 0.67563 0.84451 0.55276 0.0
C260 C 0.44957 0.3223 0.71094 0.0
C261 C 0.45266 0.35289 0.73769 0.0
C262 C 0.39814 0.36124 0.71335 0.0
C263 C 0.39617 0.33167 0.67831 0.0
N264 N 0.4229 0.28813 0.62227 0.0
N265 N 0.43095 0.40348 0.75031 0.0
C266 C 0.42276 0.31347 0.67017 0.0
C267 C 0.42722 0.37303 0.73533 0.0
N268 N 0.47193 0.3013 0.72679 0.0
N269 N 0.37223 0.37794 0.72617 0.0
H270 H 0.45187 0.41302 0.76579 0.0
H271 H 0.4138 0.41964 0.74106 0.0
H272 H 0.3508 0.37074 0.70668 0.0
H273 H 0.37185 0.39804 0.75976 0.0
H274 H 0.46941 0.27804 0.71508 0.0
H275 H 0.49141 0.30656 0.76003 0.0
H276 H 0.44266 0.27575 0.60959 0.0
H277 H 0.40429 0.28146 0.58779 0.0
C278 C 0.92153 0.14496 0.0755 0.0
C279 C 0.90757 0.15837 0.00726 0.0
C280 C 0.92758 0.11699 0.9224 0.0
C281 C 0.9481 0.10988 0.98522 0.0
N282 N 0.95056 0.10185 0.1272 0.0
N283 N 0.88714 0.15091 0.87494 0.0
C284 C 0.94029 0.11882 0.06415 0.0
C285 C 0.90687 0.1418 0.93375 0.0
N286 N 0.91871 0.1581 0.14939 0.0
N287 N 0.92762 0.09976 0.85409 0.0
H288 H 0.87111 0.16819 0.88495 0.0
H289 H 0.88598 0.1413 0.81798 0.0
H290 H 0.93962 0.07918 0.85041 0.0
H291 H 0.91403 0.10405 0.80424 0.0
H292 H 0.93207 0.15184 0.19841 0.0
H293 H 0.90303 0.17533 0.16195 0.0
H294 H 0.94405 0.10574 0.18631 0.0
H295 H 0.96291 0.08166 0.11827 0.0
C296 C 0.08545 0.3257 0.88311 0.0
C297 C 0.10463 0.35157 0.88553 0.0
C298 C 0.14322 0.3217 0.95794 0.0
C299 C 0.12195 0.2975 0.96561 0.0
N300 N 0.07024 0.27977 0.95125 0.0
N301 N 0.15065 0.37564 0.93234 0.0
C302 C 0.09227 0.30052 0.93284 0.0
C303 C 0.13322 0.35001 0.9252 0.0
N304 N 0.06103 0.32484 0.8323 0.0
N305 N 0.17315 0.31735 0.97781 0.0
H306 H 0.14477 0.39628 0.90511 0.0
H307 H 0.16995 0.37678 0.96872 0.0
H308 H 0.18168 0.29691 1.0007 0.0
H309 H 0.19007 0.33317 0.965 0.0
H310 H 0.04773 0.30543 0.82396 0.0
H311 H 0.05635 0.34213 0.79139 0.0
H312 H 0.04746 0.28254 0.93484 0.0
H313 H 0.07406 0.26164 0.99052 0.0
C314 C 0.89125 0.88695 0.15826 0.0
C315 C 0.90178 0.88432 0.23783 0.0
C316 C 0.86257 0.84669 0.26267 0.0
C317 C 0.86201 0.84069 0.17907 0.0
N318 N 0.86555 0.86217 0.04658 0.0
N319 N 0.89042 0.87025 0.37292 0.0
C320 C 0.87242 0.86356 0.12619 0.0
C321 C 0.88424 0.86777 0.29308 0.0
N322 N 0.90012 0.91149 0.11471 0.0
N323 N 0.84369 0.83076 0.31169 0.0
H324 H 0.9055 0.88662 0.39499 0.0
H325 H 0.88082 0.85636 0.41643 0.0
H326 H 0.82808 0.81512 0.28839 0.0
H327 H 0.84188 0.83468 0.37303 0.0
H328 H 0.89288 0.91586 0.05639 0.0
H329 H 0.91246 0.92898 0.14217 0.0
H330 H 0.87545 0.87619 0.00384 0.0
H331 H 0.84911 0.84736 0.0239 0.0
C332 C 0.36769 0.64078 0.42725 0.0
C333 C 0.36553 0.65431 0.50444 0.0
C334 C 0.3962 0.61312 0.56041 0.0
C335 C 0.40583 0.60598 0.48149 0.0
N336 N 0.38956 0.60018 0.34477 0.0
N337 N 0.36291 0.64383 0.64551 0.0
C338 C 0.38746 0.61525 0.41618 0.0
C339 C 0.37458 0.63705 0.57194 0.0
N340 N 0.35213 0.65373 0.36502 0.0
N341 N 0.40953 0.59825 0.6232 0.0
H342 H 0.34529 0.65966 0.65272 0.0
H343 H 0.36814 0.63174 0.69733 0.0
H344 H 0.42456 0.58001 0.61373 0.0
H345 H 0.40606 0.60391 0.68307 0.0
H346 H 0.35438 0.64706 0.30545 0.0
H347 H 0.3367 0.67161 0.37452 0.0
H348 H 0.37653 0.60547 0.29447 0.0
H349 H 0.40238 0.5802 0.33874 0.0
C350 C 0.63211 0.156 0.56904 0.0
C351 C 0.65034 0.16576 0.63463 0.0
C352 C 0.62973 0.12462 0.71752 0.0
C353 C 0.60616 0.12139 0.66025 0.0
N354 N 0.59575 0.11871 0.51933 0.0
N355 N 0.67432 0.15352 0.7599 0.0
C356 C 0.61126 0.13185 0.58137 0.0
C357 C 0.65203 0.14761 0.70491 0.0
N358 N 0.63266 0.17125 0.49788 0.0
N359 N 0.63094 0.10546 0.78172 0.0
H360 H 0.69171 0.16894 0.74761 0.0
H361 H 0.67604 0.14321 0.81575 0.0
H362 H 0.61692 0.08637 0.78552 0.0
H363 H 0.64739 0.10644 0.82658 0.0
H364 H 0.61672 0.16789 0.4524 0.0
H365 H 0.64876 0.18777 0.48439 0.0
H366 H 0.59983 0.12356 0.4593 0.0
H367 H 0.58096 0.1005 0.52867 0.0
C368 C 0.94426 0.34398 0.83443 0.0
C369 C 0.95945 0.36774 0.87546 0.0
C370 C 0.93579 0.35266 1.00133 0.0
C371 C 0.92044 0.32868 0.96043 0.0
N372 N 0.90096 0.31046 0.83424 0.0
N373 N 0.95956 0.40211 0.98766 0.0
C374 C 0.92192 0.32702 0.87561 0.0
C375 C 0.95201 0.37447 0.95587 0.0
N376 N 0.95167 0.33696 0.75708 0.0
N377 N 0.93653 0.35382 0.08309 0.0
H378 H 0.96886 0.41918 0.95216 0.0
H379 H 0.95288 0.40926 0.0446 0.0
H380 H 0.92581 0.3379 0.11942 0.0
H381 H 0.95011 0.36918 0.11477 0.0
H382 H 0.94368 0.3175 0.72778 0.0
H383 H 0.96721 0.34959 0.72386 0.0
H384 H 0.89927 0.31026 0.77195 0.0
H385 H 0.88293 0.3003 0.86362 0.0
C386 C 0.43116 0.14116 0.69765 0.0
C387 C 0.44391 0.14462 0.77484 0.0
C388 C 0.41016 0.18823 0.79879 0.0
C389 C 0.40169 0.18829 0.71638 0.0
N390 N 0.41039 0.16745 0.58333 0.0
N391 N 0.44764 0.17325 0.89814 0.0
C392 C 0.41364 0.16529 0.66459 0.0
C393 C 0.43387 0.16854 0.8256 0.0
N394 N 0.43555 0.11459 0.65632 0.0
N395 N 0.39477 0.20597 0.85223 0.0
H396 H 0.46449 0.15881 0.92098 0.0
H397 H 0.44375 0.19264 0.93312 0.0
H398 H 0.37626 0.21905 0.83487 0.0
H399 H 0.39796 0.2048 0.91402 0.0
H400 H 0.4248 0.10981 0.60193 0.0
H401 H 0.44689 0.09607 0.68197 0.0
H402 H 0.42118 0.15253 0.54359 0.0
H403 H 0.40021 0.18603 0.5549 0.0
C404 C 0.58609 0.64998 0.34996 0.0
C405 C 0.57138 0.63198 0.40841 0.0
C406 C 0.59723 0.66041 0.51518 0.0
C407 C 0.61322 0.67741 0.45699 0.0
N408 N 0.62995 0.68097 0.32026 0.0
N409 N 0.57182 0.613 0.54275 0.0
C410 C 0.60972 0.67006 0.37452 0.0
C411 C 0.57962 0.63513 0.48997 0.0
N412 N 0.57695 0.64882 0.27171 0.0
N413 N 0.5976 0.669 0.59399 0.0
H414 H 0.56153 0.593 0.5228 0.0
H415 H 0.57924 0.61277 0.60212 0.0
H416 H 0.60947 0.68792 0.61537 0.0
H417 H 0.58367 0.65899 0.63687 0.0
H418 H 0.5848 0.66396 0.22853 0.0
H419 H 0.55981 0.63433 0.25118 0.0
H420 H 0.63011 0.67449 0.26013 0.0
H421 H 0.64892 0.69327 0.33846 0.0
C422 C 0.07847 0.79651 0.20154 0.0
C423 C 0.10813 0.80737 0.18482 0.0
C424 C 0.09446 0.85639 0.24682 0.0
C425 C 0.06644 0.8436 0.27357 0.0
N426 N 0.03746 0.79761 0.2966 0.0
N427 N 0.14654 0.84581 0.20724 0.0
C428 C 0.06014 0.81249 0.25697 0.0
C429 C 0.11686 0.83682 0.21186 0.0
N430 N 0.06737 0.77128 0.16304 0.0
N431 N 0.09941 0.88714 0.25068 0.0
H432 H 0.16371 0.83206 0.18334 0.0
H433 H 0.15455 0.86577 0.2341 0.0
H434 H 0.08325 0.90286 0.27046 0.0
H435 H 0.11834 0.89745 0.22503 0.0
H436 H 0.04487 0.76412 0.16897 0.0
H437 H 0.07939 0.75981 0.11817 0.0
H438 H 0.03381 0.7742 0.29049 0.0
H439 H 0.02505 0.80766 0.34297 0.0
C440 C 0.93978 0.63999 0.09158 0.0
C441 C 0.93957 0.63699 0.1763 0.0
C442 C 0.89311 0.66788 0.17997 0.0
C443 C 0.89759 0.67638 0.09927 0.0
N444 N 0.92684 0.6716 0.97773 0.0
N445 N 0.91718 0.65201 0.30308 0.0
C446 C 0.92125 0.66256 0.05447 0.0
C447 C 0.91635 0.65174 0.22124 0.0
N448 N 0.95644 0.62019 0.04635 0.0
N449 N 0.86613 0.67441 0.21623 0.0
H450 H 0.93448 0.64178 0.33655 0.0
H451 H 0.90222 0.6651 0.33753 0.0
H452 H 0.84816 0.68391 0.18391 0.0
H453 H 0.8605 0.6668 0.27334 0.0
H454 H 0.9557 0.6196 0.98396 0.0
H455 H 0.96767 0.60186 0.0725 0.0
H456 H 0.94604 0.66458 0.94589 0.0
H457 H 0.91345 0.68769 0.94786 0.0
C458 C 0.12034 0.09064 0.02881 0.0
C459 C 0.11828 0.09536 0.94515 0.0
C460 C 0.16112 0.13023 0.95547 0.0
C461 C 0.15519 0.1334 0.03813 0.0
N462 N 0.13252 0.11332 0.15759 0.0
N463 N 0.14026 0.11693 0.82569 0.0
C464 C 0.13643 0.11199 0.07665 0.0
C465 C 0.14038 0.11363 0.90692 0.0
N466 N 0.10713 0.06561 0.06135 0.0
N467 N 0.18643 0.14338 0.92436 0.0
H468 H 0.12606 0.10438 0.78801 0.0
H469 H 0.15358 0.13296 0.79621 0.0
H470 H 0.20204 0.15442 0.96159 0.0
H471 H 0.19332 0.14045 0.86515 0.0
H472 H 0.1091 0.05978 0.12161 0.0
H473 H 0.09748 0.04899 0.02455 0.0
H474 H 0.1163 0.10046 0.18769 0.0
H475 H 0.14502 0.12818 0.19386 0.0
C476 C 0.64138 0.35811 0.64204 0.0
C477 C 0.65979 0.33586 0.68059 0.0
C478 C 0.63997 0.35169 0.81134 0.0
C479 C 0.61991 0.3722 0.77221 0.0
N480 N 0.61058 0.40391 0.65804 0.0
N481 N 0.68595 0.32117 0.80092 0.0
C482 C 0.62371 0.37841 0.68979 0.0
C483 C 0.6621 0.33581 0.76524 0.0
N484 N 0.63932 0.35874 0.56043 0.0
N485 N 0.63686 0.34613 0.8913 0.0
H486 H 0.70342 0.3117 0.76684 0.0
H487 H 0.69026 0.32187 0.86231 0.0
H488 H 0.62155 0.35819 0.92726 0.0
H489 H 0.64845 0.32865 0.92087 0.0
H490 H 0.62348 0.37212 0.52969 0.0
H491 H 0.6524 0.34467 0.52346 0.0
H492 H 0.61404 0.41107 0.59935 0.0
H493 H 0.59915 0.41965 0.69425 0.0
C494 C 0.43569 0.81075 0.4817 0.0
C495 C 0.40553 0.81918 0.50266 0.0
C496 C 0.41306 0.86853 0.43632 0.0
C497 C 0.44144 0.85787 0.40612 0.0
N498 N 0.47416 0.81432 0.38012 0.0
N499 N 0.36304 0.85388 0.48259 0.0
C500 C 0.45099 0.82755 0.42255 0.0
C501 C 0.39338 0.84749 0.47523 0.0
N502 N 0.45038 0.78745 0.52035 0.0
N503 N 0.40532 0.8987 0.43138 0.0
H504 H 0.34752 0.83864 0.50696 0.0
H505 H 0.35286 0.873 0.45658 0.0
H506 H 0.41939 0.91506 0.4059 0.0
H507 H 0.38621 0.90787 0.45971 0.0
H508 H 0.4733 0.78229 0.51068 0.0
H509 H 0.441 0.77597 0.56894 0.0
H510 H 0.48016 0.79137 0.38642 0.0
H511 H 0.48468 0.82506 0.33196 0.0
C512 C -0.00545 0.51693 0.01412 0.0
C513 C 0.01712 0.52704 0.06872 0.0
C514 C 0.04699 0.48055 0.04652 0.0
C515 C 0.0253 0.47135 0.98813 0.0
N516 N 0.98125 0.48257 0.90581 0.0
N517 N 0.06694 0.52152 0.12896 0.0
C518 C 1e-05 0.49018 0.96829 0.0
C519 C 0.04393 0.50966 0.08301 0.0
N520 N 0.96726 0.532 0.00921 0.0
N521 N 0.07047 0.46142 0.06713 0.0
H522 H 0.06543 0.54262 0.15781 0.0
H523 H 0.08846 0.51161 0.13395 0.0
H524 H 0.07504 0.44095 0.03724 0.0
H525 H 0.08459 0.465 0.11649 0.0
H526 H 0.94865 0.52398 0.97667 0.0
H527 H 0.96215 0.5511 0.04412 0.0
H528 H 0.9647 0.49724 0.88272 0.0
H529 H 0.98362 0.4625 0.87264 0.0
C530 C 0.76428 0.7075 0.24046 0.0
C531 C 0.77915 0.73515 0.2215 0.0
C532 C 0.73716 0.76514 0.27743 0.0
C533 C 0.72267 0.73751 0.29871 0.0
N534 N 0.72273 0.68266 0.30988 0.0
N535 N 0.77775 0.78991 0.20516 0.0
C536 C 0.7362 0.70868 0.28236 0.0
C537 C 0.76497 0.7639 0.23502 0.0
N538 N 0.77645 0.68035 0.21512 0.0
N539 N 0.7251 0.79252 0.30192 0.0
H540 H 0.79843 0.79007 0.17482 0.0
H541 H 0.76695 0.81111 0.20466 0.0
H542 H 0.70462 0.7944 0.33298 0.0
H543 H 0.73628 0.81333 0.29714 0.0
H544 H 0.76572 0.65935 0.22075 0.0
H545 H 0.79642 0.67907 0.18177 0.0
H546 H 0.73274 0.6611 0.30747 0.0
H547 H 0.70202 0.68281 0.3402 0.0
C548 C 0.5442 0.51854 0.63995 0.0
C549 C 0.51793 0.523 0.59111 0.0
C550 C 0.5034 0.46951 0.60952 0.0
C551 C 0.5297 0.46513 0.6579 0.0
N552 N 0.57228 0.48603 0.73149 0.0
N553 N 0.46852 0.50559 0.54774 0.0
C554 C 0.54915 0.48985 0.67712 0.0
C555 C 0.49639 0.49923 0.58095 0.0
N556 N 0.56519 0.54122 0.64827 0.0
N557 N 0.48502 0.44529 0.59123 0.0
H558 H 0.46209 0.52747 0.52948 0.0
H559 H 0.45061 0.49013 0.54557 0.0
H560 H 0.48782 0.42366 0.61621 0.0
H561 H 0.46786 0.44613 0.54805 0.0
H562 H 0.58701 0.53792 0.67137 0.0
H563 H 0.56126 0.56339 0.62952 0.0
H564 H 0.58452 0.50403 0.75648 0.0
H565 H 0.57822 0.46499 0.7561 0.0
C566 C 0.79393 0.22589 0.86683 0.0
C567 C 0.81176 0.25273 0.86693 0.0
C568 C 0.77465 0.27865 0.78172 0.0
C569 C 0.75555 0.25261 0.78601 0.0
N570 N 0.74472 0.20296 0.84118 0.0
N571 N 0.81523 0.30696 0.84526 0.0
C572 C 0.76445 0.22667 0.83146 0.0
C573 C 0.80108 0.27979 0.8302 0.0
N574 N 0.80543 0.19958 0.89921 0.0
N575 N 0.76777 0.30233 0.73145 0.0
H576 H 0.83339 0.30894 0.88526 0.0
H577 H 0.80671 0.32796 0.82617 0.0
H578 H 0.74812 0.30339 0.6965 0.0
H579 H 0.78294 0.31993 0.71941 0.0
H580 H 0.79511 0.17835 0.8929 0.0
H581 H 0.82643 0.19862 0.92858 0.0
H582 H 0.74852 0.18497 0.88062 0.0
H583 H 0.72343 0.20224 0.81362 0.0
C584 C 0.25939 0.2104 0.91408 0.0
C585 C 0.23253 0.2278 0.90171 0.0
C586 C 0.26014 0.26298 0.81491 0.0
C587 C 0.286 0.24364 0.82087 0.0
N588 N 0.30811 0.19529 0.85982 0.0
N589 N 0.20588 0.26918 0.83576 0.0
C590 C 0.28509 0.21632 0.86603 0.0
C591 C 0.2324 0.25359 0.85029 0.0
N592 N 0.26058 0.18851 0.97218 0.0
N593 N 0.26247 0.29085 0.77878 0.0
H594 H 0.18545 0.26435 0.8646 0.0
H595 H 0.20364 0.28583 0.79176 0.0
H596 H 0.28252 0.29857 0.75257 0.0
H597 H 0.24536 0.30739 0.78027 0.0
H598 H 0.28068 0.17749 0.98905 0.0
H599 H 0.24221 0.18335 0.00894 0.0
H600 H 0.30718 0.17365 0.88542 0.0
H601 H 0.32662 0.19807 0.82168 0.0
C602 C 0.27846 0.79019 0.34817 0.0
C603 C 0.2897 0.76338 0.38577 0.0
C604 C 0.24504 0.73474 0.34165 0.0
C605 C 0.23246 0.7621 0.31028 0.0
N606 N 0.23513 0.81624 0.28737 0.0
N607 N 0.28282 0.71099 0.42694 0.0
C608 C 0.24864 0.78999 0.31422 0.0
C609 C 0.27269 0.73592 0.38518 0.0
N610 N 0.29641 0.81556 0.34454 0.0
N611 N 0.23119 0.70735 0.3267 0.0
H612 H 0.30386 0.71006 0.45597 0.0
H613 H 0.26954 0.6918 0.43754 0.0
H614 H 0.21082 0.70538 0.29494 0.0
H615 H 0.24109 0.68626 0.33946 0.0
H616 H 0.29092 0.83492 0.31144 0.0
H617 H 0.31792 0.81661 0.37121 0.0
H618 H 0.24433 0.8379 0.29527 0.0
H619 H 0.21352 0.81655 0.26108 0.0
C620 C 0.47203 0.9853 0.57263 0.0
C621 C 0.49804 0.97541 0.52951 0.0
C622 C 0.52514 0.02219 0.56548 0.0
C623 C 0.4996 0.03159 0.61138 0.0
N624 N 0.45079 0.02081 0.66999 0.0
N625 N 0.55115 0.98112 0.49584 0.0
C626 C 0.4736 0.01272 0.61848 0.0
C627 C 0.52508 0.993 0.52861 0.0
N628 N 0.44565 0.96892 0.56766 0.0
N629 N 0.54951 0.04126 0.55719 0.0
H630 H 0.55215 0.95982 0.46783 0.0
H631 H 0.57249 0.99115 0.5017 0.0
H632 H 0.55166 0.06169 0.58887 0.0
H633 H 0.56691 0.0377 0.51597 0.0
H634 H 0.42493 0.97638 0.59087 0.0
H635 H 0.44393 0.94861 0.53504 0.0
H636 H 0.43262 0.00666 0.68413 0.0
H637 H 0.45114 0.04096 0.70349 0.0
C638 C 0.05549 0.97613 0.035 0.0
C639 C 0.03124 -0.00257 0.02785 0.0
C640 C -0.00472 0.9596 0.07556 0.0
C641 C 0.02014 0.94087 0.09797 0.0
N642 N 0.07365 0.92896 0.09495 0.0
N643 N 0.97784 0.01018 0.03933 0.0
C644 C 0.05025 0.94827 0.07572 0.0
C645 C 0.00095 0.98928 0.04669 0.0
N646 N 0.08308 0.98233 1.00133 0.0
N647 N 0.96635 0.9485 0.0801 0.0
H648 H 0.98091 0.0319 0.01528 0.0
H649 H 0.95597 0.00666 0.06128 0.0
H650 H 0.96199 0.92623 0.09859 0.0
H651 H 0.94734 0.95993 0.05748 0.0
H652 H 0.10112 0.96683 0.99944 0.0
H653 H 0.08695 0.00207 0.96827 0.0
H654 H 0.09656 0.93455 0.08923 0.0
H655 H 0.06993 0.90738 0.11915 0.0
C656 C 0.02631 0.5154 0.63837 0.0
C657 C 0.03058 0.48475 0.61273 0.0
C658 C 0.04053 0.50267 0.47629 0.0
C659 C 0.0318 0.53267 0.49965 0.0
N660 N 0.01171 0.56675 0.60098 0.0
N661 N 0.03768 0.44858 0.50461 0.0
C662 C 0.02363 0.53891 0.58034 0.0
C663 C 0.03684 0.47816 0.53103 0.0
N664 N 0.02555 0.52216 0.71841 0.0
N665 N 0.05314 0.49772 0.40259 0.0
H666 H 0.03471 0.4299 0.54223 0.0
H667 H 0.03867 0.44261 0.44419 0.0
H668 H 0.05675 0.51519 0.36144 0.0
H669 H 0.06277 0.47692 0.38539 0.0
H670 H 0.02553 0.54441 0.74071 0.0
H671 H 0.02816 0.50561 0.76276 0.0
H672 H 0.00228 0.57135 0.65694 0.0
H673 H 0.00847 0.58443 0.56014 0.0
C674 C 0.76843 0.72191 0.80947 0.0
C675 C 0.7851 0.74922 0.82208 0.0
C676 C 0.74712 0.77756 0.74286 0.0
C677 C 0.73241 0.74963 0.72361 0.0
N678 N 0.73338 0.69447 0.72387 0.0
N679 N 0.79293 0.8024 0.79183 0.0
C680 C 0.74428 0.72158 0.75279 0.0
C681 C 0.77515 0.77694 0.78641 0.0
N682 N 0.7747 0.69655 0.8543 0.0
N683 N 0.73378 0.8047 0.72217 0.0
H684 H 0.81355 0.80276 0.82309 0.0
H685 H 0.78856 0.82236 0.75999 0.0
H686 H 0.71326 0.80606 0.69067 0.0
H687 H 0.74168 0.82582 0.74194 0.0
H688 H 0.76112 0.67709 0.85338 0.0
H689 H 0.79143 0.69601 0.8988 0.0
H690 H 0.74345 0.67345 0.73683 0.0
H691 H 0.71635 0.69309 0.68028 0.0
C692 C 0.51506 0.47636 0.20606 0.0
C693 C 0.49916 0.50256 0.17827 0.0
C694 C 0.48406 0.47451 0.05666 0.0
C695 C 0.50352 0.44995 0.07918 0.0
N696 N 0.54115 0.42939 0.17066 0.0
N697 N 0.4696 0.52766 0.07579 0.0
C698 C 0.51966 0.45113 0.15322 0.0
C699 C 0.48386 0.50189 0.10322 0.0
N700 N 0.52616 0.47571 0.28269 0.0
N701 N 0.46509 0.47125 0.99206 0.0
H702 H 0.46754 0.54751 0.11017 0.0
H703 H 0.46127 0.52994 0.01763 0.0
H704 H 0.46425 0.45132 0.95768 0.0
H705 H 0.44825 0.48705 0.97686 0.0
H706 H 0.53492 0.45605 0.30934 0.0
H707 H 0.52423 0.49411 0.32224 0.0
H708 H 0.5561 0.43099 0.21906 0.0
H709 H 0.54618 0.41106 0.13291 0.0
C710 C 0.82688 0.26226 0.37046 0.0
C711 C 0.82212 0.24587 0.29791 0.0
C712 C 0.76749 0.2426 0.32781 0.0
C713 C 0.77272 0.25706 0.40293 0.0
N714 N 0.80868 0.27304 0.50434 0.0
N715 N 0.78928 0.21447 0.21625 0.0
C716 C 0.80283 0.26457 0.42688 0.0
C717 C 0.79281 0.23419 0.27926 0.0
N718 N 0.85371 0.27719 0.38387 0.0
N719 N 0.7384 0.23828 0.30072 0.0
H720 H 0.8074 0.20742 0.18026 0.0
H721 H 0.76911 0.20282 0.20462 0.0
H722 H 0.71919 0.24463 0.33343 0.0
H723 H 0.73331 0.23095 0.24278 0.0
H724 H 0.85698 0.29221 0.43168 0.0
H725 H 0.8717 0.27707 0.34334 0.0
H726 H 0.83066 0.27586 0.52694 0.0
H727 H 0.79188 0.274 0.54831 0.0
C728 C 0.25767 0.26448 0.41009 0.0
C729 C 0.28888 0.26477 0.38812 0.0
C730 C 0.27457 0.25194 0.24981 0.0
C731 C 0.24415 0.24695 0.27469 0.0
N732 N 0.20728 0.24487 0.38159 0.0
N733 N 0.32758 0.25403 0.28904 0.0
C734 C 0.2357 0.25254 0.35553 0.0
C735 C 0.29752 0.25752 0.30828 0.0
N736 N 0.24892 0.27624 0.48248 0.0
N737 N 0.28145 0.2519 0.16999 0.0
H738 H 0.34526 0.25683 0.33022 0.0
H739 H 0.33491 0.24543 0.23407 0.0
H740 H 0.26507 0.24851 0.12536 0.0
H741 H 0.3026 0.25836 0.14787 0.0
H742 H 0.22623 0.27945 0.49855 0.0
H743 H 0.26433 0.28561 0.52337 0.0
H744 H 0.2011 0.24513 0.44177 0.0
H745 H 0.19056 0.23575 0.34418 0.0
C746 C 0.29663 0.76604 0.88933 0.0
C747 C 0.29412 0.74638 0.82175 0.0
C748 C 0.24092 0.7359 0.8567 0.0
C749 C 0.24441 0.75331 0.92813 0.0
N750 N 0.27799 0.77872 0.02163 0.0
N751 N 0.26591 0.70775 0.75 0.0
C752 C 0.27298 0.76657 0.94717 0.0
C753 C 0.26682 0.72988 0.80796 0.0
N754 N 0.32082 0.78541 0.89655 0.0
N755 N 0.21267 0.72625 0.83334 0.0
H756 H 0.28457 0.7023 0.71408 0.0
H757 H 0.24769 0.69283 0.74278 0.0
H758 H 0.193 0.73067 0.86633 0.0
H759 H 0.2083 0.71636 0.77764 0.0
H760 H 0.32204 0.80247 0.94013 0.0
H761 H 0.33821 0.78663 0.85436 0.0
H762 H 0.29936 0.78585 0.04132 0.0
H763 H 0.26162 0.7787 0.06675 0.0
C764 C 0.53748 0.00093 0.11851 0.0
C765 C 0.52938 0.9706 0.09733 0.0
C766 C 0.52143 0.98667 0.95805 0.0
C767 C 0.52533 0.01756 0.98165 0.0
N768 N 0.53372 0.05477 0.08649 0.0
N769 N 0.50952 0.93516 0.9991 0.0
C770 C 0.53275 0.02491 0.06235 0.0
C771 C 0.5205 0.96352 0.01746 0.0
N772 N 0.55041 0.00669 0.19163 0.0
N773 N 0.51922 0.97942 0.87849 0.0
H774 H 0.5078 0.91764 0.04092 0.0
H775 H 0.49952 0.92977 0.94419 0.0
H776 H 0.52021 -0.00421 0.83332 0.0
H777 H 0.51946 0.95706 0.85694 0.0
H778 H 0.55971 0.02772 0.20745 0.0
H779 H 0.55446 0.98966 0.23394 0.0
H780 H 0.53541 0.06144 0.14629 0.0
H781 H 0.53043 0.07304 0.0475 0.0
C782 C 0.99319 0.01811 0.59451 0.0
C783 C 0.02298 0.02292 0.62535 0.0
C784 C 0.04191 0.97964 0.54625 0.0
C785 C 0.0116 0.97226 0.52425 0.0
N786 N 0.9577 0.98264 0.53289 0.0
N787 N 0.07464 0.00451 0.64273 0.0
C788 C 0.98699 0.99114 0.54927 0.0
C789 C 0.04713 0.00279 0.60421 0.0
N790 N 0.97105 0.03966 0.60695 0.0
N791 N 0.06584 0.96509 0.51004 0.0
H792 H 0.07933 0.02033 0.6879 0.0
H793 H 0.09181 0.98821 0.6357 0.0
H794 H 0.06299 0.94856 0.46546 0.0
H795 H 0.08842 0.97173 0.5179 0.0
H796 H 0.94976 0.03904 0.57929 0.0
H797 H 0.97488 0.05963 0.63968 0.0
H798 H 0.93872 0.99359 0.55711 0.0
H799 H 0.95232 0.96318 0.49964 0.0
loop_
_geom_bond_atom_site_label_1
_geom_bond_atom_site_label_2
_geom_bond_distance
_geom_bond_site_symmetry_2
_ccdc_geom_bond_type
Mg0 O1 2.028 . S
Mg0 O7 1.986 . S
Mg0 O9 2.114 1_455 S
Mg0 O10 2.251 1_455 S
Mg0 O13 2.010 . S
O1 Mg0 2.028 . S
O1 C4 1.250 . S
O2 Mg3 2.028 . S
O2 C4 1.248 . S
Mg3 O2 2.028 . S
Mg3 O8 2.032 . S
Mg3 O10 2.079 1_455 S
C4 O1 1.250 . S
C4 O2 1.248 . S
C5 O6 1.264 . S
C5 O13 1.249 . S
O6 C5 1.264 . S
O7 Mg0 1.986 . S
O7 C11 1.246 . S
O8 Mg3 2.032 . S
O8 C11 1.259 . S
O9 Mg0 2.114 1_655 S
O9 C12 1.252 . S
O10 Mg0 2.251 1_655 S
O10 Mg3 2.079 1_655 S
O10 C12 1.273 . S
C11 O7 1.246 . S
C11 O8 1.259 . S
C12 O9 1.252 . S
C12 O10 1.273 . S
O13 Mg0 2.010 . S
O13 C5 1.249 . S
Mg14 O15 2.028 . S
Mg14 O21 1.986 . S
Mg14 O23 2.114 . S
Mg14 O24 2.251 . S
Mg14 O27 2.010 . S
O15 Mg14 2.028 . S
O15 C18 1.250 . S
O16 Mg17 2.028 . S
O16 C18 1.248 . S
Mg17 O16 2.028 . S
Mg17 O22 2.032 . S
Mg17 O24 2.079 . S
C18 O15 1.250 . S
C18 O16 1.248 . S
C19 O20 1.264 . S
C19 O27 1.249 . S
O20 C19 1.264 . S
O21 Mg14 1.986 . S
O21 C25 1.246 . S
O22 Mg17 2.032 . S
O22 C25 1.259 . S
O23 Mg14 2.114 . S
O23 C26 1.252 . S
O24 Mg14 2.251 . S
O24 Mg17 2.079 . S
O24 C26 1.273 . S
C25 O21 1.246 . S
C25 O22 1.259 . S
C26 O23 1.252 . S
C26 O24 1.273 . S
O27 Mg14 2.010 . S
O27 C19 1.249 . S
Mg28 O29 2.028 . S
Mg28 O35 1.986 . S
Mg28 O37 2.114 . S
Mg28 O38 2.251 . S
Mg28 O41 2.010 . S
O29 Mg28 2.028 . S
O29 C32 1.250 . S
O30 Mg31 2.028 . S
O30 C32 1.248 . S
Mg31 O30 2.028 . S
Mg31 O36 2.032 . S
Mg31 O38 2.079 . S
C32 O29 1.250 . S
C32 O30 1.248 . S
C33 O34 1.264 1_556 S
C33 O41 1.249 . S
O34 C33 1.264 1_554 S
O35 Mg28 1.986 . S
O35 C39 1.246 . S
O36 Mg31 2.032 . S
O36 C39 1.259 . S
O37 Mg28 2.114 . S
O37 C40 1.252 . S
O38 Mg28 2.251 . S
O38 Mg31 2.079 . S
O38 C40 1.273 . S
C39 O35 1.246 . S
C39 O36 1.259 . S
C40 O37 1.252 . S
C40 O38 1.273 . S
O41 Mg28 2.010 . S
O41 C33 1.249 . S
Mg42 O43 2.028 1_554 S
Mg42 O49 1.986 . S
Mg42 O51 2.114 . S
Mg42 O52 2.251 1_554 S
Mg42 O55 2.010 . S
O43 Mg42 2.028 1_556 S
O43 C46 1.250 . S
O44 Mg45 2.028 . S
O44 C46 1.248 . S
Mg45 O44 2.028 . S
Mg45 O50 2.032 . S
Mg45 O52 2.079 . S
C46 O43 1.250 . S
C46 O44 1.248 . S
C47 O48 1.264 . S
C47 O55 1.249 . S
O48 C47 1.264 . S
O49 Mg42 1.986 . S
O49 C53 1.246 1_554 S
O50 Mg45 2.032 . S
O50 C53 1.259 . S
O51 Mg42 2.114 . S
O51 C54 1.252 1_554 S
O52 Mg42 2.251 1_556 S
O52 Mg45 2.079 . S
O52 C54 1.273 . S
C53 O49 1.246 1_556 S
C53 O50 1.259 . S
C54 O51 1.252 1_556 S
C54 O52 1.273 . S
O55 Mg42 2.010 . S
O55 C47 1.249 . S
Mg56 O57 2.028 . S
Mg56 O63 1.986 . S
Mg56 O65 2.114 1_455 S
Mg56 O66 2.251 1_455 S
Mg56 O69 2.010 . S
O57 Mg56 2.028 . S
O57 C60 1.250 . S
O58 Mg59 2.028 . S
O58 C60 1.248 1_554 S
Mg59 O58 2.028 . S
Mg59 O64 2.032 1_554 S
Mg59 O66 2.079 1_454 S
C60 O57 1.250 . S
C60 O58 1.248 1_556 S
C61 O62 1.264 . S
C61 O69 1.249 . S
O62 C61 1.264 . S
O63 Mg56 1.986 . S
O63 C67 1.246 . S
O64 Mg59 2.032 1_556 S
O64 C67 1.259 . S
O65 Mg56 2.114 1_655 S
O65 C68 1.252 . S
O66 Mg56 2.251 1_655 S
O66 Mg59 2.079 1_656 S
O66 C68 1.273 . S
C67 O63 1.246 . S
C67 O64 1.259 . S
C68 O65 1.252 . S
C68 O66 1.273 . S
O69 Mg56 2.010 . S
O69 C61 1.249 . S
Mg70 O71 2.028 . S
Mg70 O77 1.986 . S
Mg70 O79 2.114 . S
Mg70 O80 2.251 . S
Mg70 O83 2.010 1_554 S
O71 Mg70 2.028 . S
O71 C74 1.250 . S
O72 Mg73 2.028 . S
O72 C74 1.248 . S
Mg73 O72 2.028 . S
Mg73 O78 2.032 . S
Mg73 O80 2.079 . S
C74 O71 1.250 . S
C74 O72 1.248 . S
C75 O76 1.264 . S
C75 O83 1.249 . S
O76 C75 1.264 . S
O77 Mg70 1.986 . S
O77 C81 1.246 . S
O78 Mg73 2.032 . S
O78 C81 1.259 . S
O79 Mg70 2.114 . S
O79 C82 1.252 . S
O80 Mg70 2.251 . S
O80 Mg73 2.079 . S
O80 C82 1.273 . S
C81 O77 1.246 . S
C81 O78 1.259 . S
C82 O79 1.252 . S
C82 O80 1.273 . S
O83 Mg70 2.010 1_556 S
O83 C75 1.249 . S
Mg84 O85 2.028 . S
Mg84 O91 1.986 . S
Mg84 O93 2.114 . S
Mg84 O94 2.251 . S
Mg84 O97 2.010 . S
O85 Mg84 2.028 . S
O85 C88 1.250 . S
O86 Mg87 2.028 . S
O86 C88 1.248 . S
Mg87 O86 2.028 . S
Mg87 O92 2.032 . S
Mg87 O94 2.079 . S
C88 O85 1.250 . S
C88 O86 1.248 . S
C89 O90 1.264 . S
C89 O97 1.249 . S
O90 C89 1.264 . S
O91 Mg84 1.986 . S
O91 C95 1.246 . S
O92 Mg87 2.032 . S
O92 C95 1.259 . S
O93 Mg84 2.114 . S
O93 C96 1.252 . S
O94 Mg84 2.251 . S
O94 Mg87 2.079 . S
O94 C96 1.273 . S
C95 O91 1.246 . S
C95 O92 1.259 . S
C96 O93 1.252 . S
C96 O94 1.273 . S
O97 Mg84 2.010 . S
O97 C89 1.249 . S
Mg98 O99 2.028 . S
Mg98 O105 1.986 . S
Mg98 O107 2.114 . S
Mg98 O108 2.251 . S
Mg98 O111 2.010 . S
O99 Mg98 2.028 . S
O99 C102 1.250 . S
O100 Mg101 2.028 . S
O100 C102 1.248 . S
Mg101 O100 2.028 . S
Mg101 O106 2.032 . S
Mg101 O108 2.079 . S
C102 O99 1.250 . S
C102 O100 1.248 . S
C103 O104 1.264 . S
C103 O111 1.249 . S
O104 C103 1.264 . S
O105 Mg98 1.986 . S
O105 C109 1.246 . S
O106 Mg101 2.032 . S
O106 C109 1.259 . S
O107 Mg98 2.114 . S
O107 C110 1.252 . S
O108 Mg98 2.251 . S
O108 Mg101 2.079 . S
O108 C110 1.273 . S
C109 O105 1.246 . S
C109 O106 1.259 . S
C110 O107 1.252 . S
C110 O108 1.273 . S
O111 Mg98 2.010 . S
O111 C103 1.249 . S
Mg112 O113 2.028 . S
Mg112 O119 1.986 . S
Mg112 O121 2.114 . S
Mg112 O122 2.251 . S
Mg112 O125 2.010 . S
O113 Mg112 2.028 . S
O113 C116 1.250 . S
O114 Mg115 2.028 . S
O114 C116 1.248 . S
Mg115 O114 2.028 . S
Mg115 O120 2.032 . S
Mg115 O122 2.079 . S
C116 O113 1.250 . S
C116 O114 1.248 . S
C117 O118 1.264 . S
C117 O125 1.249 . S
O118 C117 1.264 . S
O119 Mg112 1.986 . S
O119 C123 1.246 . S
O120 Mg115 2.032 . S
O120 C123 1.259 . S
O121 Mg112 2.114 . S
O121 C124 1.252 . S
O122 Mg112 2.251 . S
O122 Mg115 2.079 . S
O122 C124 1.273 . S
C123 O119 1.246 . S
C123 O120 1.259 . S
C124 O121 1.252 . S
C124 O122 1.273 . S
O125 Mg112 2.010 . S
O125 C117 1.249 . S
Mg126 O127 2.028 . S
Mg126 O133 1.986 . S
Mg126 O135 2.114 . S
Mg126 O136 2.251 . S
Mg126 O139 2.010 1_554 S
O127 Mg126 2.028 . S
O127 C130 1.250 . S
O128 Mg129 2.028 . S
O128 C130 1.248 . S
Mg129 O128 2.028 . S
Mg129 O134 2.032 . S
Mg129 O136 2.079 . S
C130 O127 1.250 . S
C130 O128 1.248 . S
C131 O132 1.264 . S
C131 O139 1.249 . S
O132 C131 1.264 . S
O133 Mg126 1.986 . S
O133 C137 1.246 . S
O134 Mg129 2.032 . S
O134 C137 1.259 . S
O135 Mg126 2.114 . S
O135 C138 1.252 . S
O136 Mg126 2.251 . S
O136 Mg129 2.079 . S
O136 C138 1.273 . S
C137 O133 1.246 . S
C137 O134 1.259 . S
C138 O135 1.252 . S
C138 O136 1.273 . S
O139 Mg126 2.010 1_556 S
O139 C131 1.249 . S
Mg140 O141 2.028 1_554 S
Mg140 O147 1.986 . S
Mg140 O149 2.114 . S
Mg140 O150 2.251 1_554 S
Mg140 O153 2.010 . S
O141 Mg140 2.028 1_556 S
O141 C144 1.250 . S
O142 Mg143 2.028 . S
O142 C144 1.248 . S
Mg143 O142 2.028 . S
Mg143 O148 2.032 . S
Mg143 O150 2.079 . S
C144 O141 1.250 . S
C144 O142 1.248 . S
C145 O146 1.264 . S
C145 O153 1.249 . S
O146 C145 1.264 . S
O147 Mg140 1.986 . S
O147 C151 1.246 1_554 S
O148 Mg143 2.032 . S
O148 C151 1.259 . S
O149 Mg140 2.114 . S
O149 C152 1.252 1_554 S
O150 Mg140 2.251 1_556 S
O150 Mg143 2.079 . S
O150 C152 1.273 . S
C151 O147 1.246 1_556 S
C151 O148 1.259 . S
C152 O149 1.252 1_556 S
C152 O150 1.273 . S
O153 Mg140 2.010 . S
O153 C145 1.249 . S
Mg154 O155 2.028 . S
Mg154 O161 1.986 . S
Mg154 O163 2.114 . S
Mg154 O164 2.251 . S
Mg154 O167 2.010 . S
O155 Mg154 2.028 . S
O155 C158 1.250 . S
O156 Mg157 2.028 . S
O156 C158 1.248 . S
Mg157 O156 2.028 . S
Mg157 O162 2.032 . S
Mg157 O164 2.079 . S
C158 O155 1.250 . S
C158 O156 1.248 . S
C159 O160 1.264 . S
C159 O167 1.249 . S
O160 C159 1.264 . S
O161 Mg154 1.986 . S
O161 C165 1.246 . S
O162 Mg157 2.032 . S
O162 C165 1.259 . S
O163 Mg154 2.114 . S
O163 C166 1.252 . S
O164 Mg154 2.251 . S
O164 Mg157 2.079 . S
O164 C166 1.273 . S
C165 O161 1.246 . S
C165 O162 1.259 . S
C166 O163 1.252 . S
C166 O164 1.273 . S
O167 Mg154 2.010 . S
O167 C159 1.249 . S
Mg168 O169 2.028 . S
Mg168 O175 1.986 . S
Mg168 O177 2.114 . S
Mg168 O178 2.251 . S
Mg168 O181 2.010 . S
O169 Mg168 2.028 . S
O169 C172 1.250 . S
O170 Mg171 2.028 . S
O170 C172 1.248 . S
Mg171 O170 2.028 . S
Mg171 O176 2.032 . S
Mg171 O178 2.079 . S
C172 O169 1.250 . S
C172 O170 1.248 . S
C173 O174 1.264 1_556 S
C173 O181 1.249 . S
O174 C173 1.264 1_554 S
O175 Mg168 1.986 . S
O175 C179 1.246 . S
O176 Mg171 2.032 . S
O176 C179 1.259 . S
O177 Mg168 2.114 . S
O177 C180 1.252 . S
O178 Mg168 2.251 . S
O178 Mg171 2.079 . S
O178 C180 1.273 . S
C179 O175 1.246 . S
C179 O176 1.259 . S
C180 O177 1.252 . S
C180 O178 1.273 . S
O181 Mg168 2.010 . S
O181 C173 1.249 . S
Mg182 O183 2.028 . S
Mg182 O189 1.986 1_455 S
Mg182 O191 2.114 . S
Mg182 O192 2.251 . S
Mg182 O195 2.010 . S
O183 Mg182 2.028 . S
O183 C186 1.250 . S
O184 Mg185 2.028 . S
O184 C186 1.248 . S
Mg185 O184 2.028 . S
Mg185 O190 2.032 1_455 S
Mg185 O192 2.079 . S
C186 O183 1.250 . S
C186 O184 1.248 . S
C187 O188 1.264 . S
C187 O195 1.249 . S
O188 C187 1.264 . S
O189 Mg182 1.986 1_655 S
O189 C193 1.246 . S
O190 Mg185 2.032 1_655 S
O190 C193 1.259 . S
O191 Mg182 2.114 . S
O191 C194 1.252 . S
O192 Mg182 2.251 . S
O192 Mg185 2.079 . S
O192 C194 1.273 . S
C193 O189 1.246 . S
C193 O190 1.259 . S
C194 O191 1.252 . S
C194 O192 1.273 . S
O195 Mg182 2.010 . S
O195 C187 1.249 . S
Mg196 O197 2.028 . S
Mg196 O203 1.986 . S
Mg196 O205 2.114 . S
Mg196 O206 2.251 . S
Mg196 O209 2.010 . S
O197 Mg196 2.028 . S
O197 C200 1.250 . S
O198 Mg199 2.028 . S
O198 C200 1.248 . S
Mg199 O198 2.028 . S
Mg199 O204 2.032 . S
Mg199 O206 2.079 . S
C200 O197 1.250 . S
C200 O198 1.248 . S
C201 O202 1.264 . S
C201 O209 1.249 . S
O202 C201 1.264 . S
O203 Mg196 1.986 . S
O203 C207 1.246 . S
O204 Mg199 2.032 . S
O204 C207 1.259 . S
O205 Mg196 2.114 . S
O205 C208 1.252 . S
O206 Mg196 2.251 . S
O206 Mg199 2.079 . S
O206 C208 1.273 . S
C207 O203 1.246 . S
C207 O204 1.259 . S
C208 O205 1.252 . S
C208 O206 1.273 . S
O209 Mg196 2.010 . S
O209 C201 1.249 . S
Mg210 O211 2.028 . S
Mg210 O217 1.986 1_455 S
Mg210 O219 2.114 . S
Mg210 O220 2.251 . S
Mg210 O223 2.010 . S
O211 Mg210 2.028 . S
O211 C214 1.250 . S
O212 Mg213 2.028 . S
O212 C214 1.248 1_554 S
Mg213 O212 2.028 . S
Mg213 O218 2.032 1_454 S
Mg213 O220 2.079 1_554 S
C214 O211 1.250 . S
C214 O212 1.248 1_556 S
C215 O216 1.264 . S
C215 O223 1.249 . S
O216 C215 1.264 . S
O217 Mg210 1.986 1_655 S
O217 C221 1.246 . S
O218 Mg213 2.032 1_656 S
O218 C221 1.259 . S
O219 Mg210 2.114 . S
O219 C222 1.252 . S
O220 Mg210 2.251 . S
O220 Mg213 2.079 1_556 S
O220 C222 1.273 . S
C221 O217 1.246 . S
C221 O218 1.259 . S
C222 O219 1.252 . S
C222 O220 1.273 . S
O223 Mg210 2.010 . S
O223 C215 1.249 . S
C224 C225 1.363 . S
C224 C230 1.379 . S
C224 N232 1.356 . S
C225 C224 1.363 . S
C225 C231 1.363 . S
C226 C227 1.363 . S
C226 C231 1.379 . S
C226 N233 1.356 . S
C227 C226 1.363 . S
C227 C230 1.363 . S
N228 C230 1.356 . S
N228 H240 0.984 . S
N228 H241 0.985 . S
N229 C231 1.356 . S
N229 H234 0.984 . S
N229 H235 0.985 . S
C230 C224 1.379 . S
C230 C227 1.363 . S
C230 N228 1.356 . S
C231 C225 1.363 . S
C231 C226 1.379 . S
C231 N229 1.356 . S
N232 C224 1.356 . S
N232 H238 0.984 . S
N232 H239 0.984 . S
N233 C226 1.356 . S
N233 H236 0.984 . S
N233 H237 0.985 . S
H234 N229 0.984 . S
H235 N229 0.985 . S
H236 N233 0.984 . S
H237 N233 0.985 . S
H238 N232 0.984 . S
H239 N232 0.984 . S
H240 N228 0.984 . S
H241 N228 0.985 . S
C242 C243 1.363 . S
C242 C248 1.379 . S
C242 N250 1.356 . S
C243 C242 1.363 . S
C243 C249 1.363 . S
C244 C245 1.363 . S
C244 C249 1.379 . S
C244 N251 1.356 . S
C245 C244 1.363 . S
C245 C248 1.363 . S
N246 C248 1.356 . S
N246 H258 0.984 . S
N246 H259 0.985 . S
N247 C249 1.356 . S
N247 H252 0.984 . S
N247 H253 0.985 . S
C248 C242 1.379 . S
C248 C245 1.363 . S
C248 N246 1.356 . S
C249 C243 1.363 . S
C249 C244 1.379 . S
C249 N247 1.356 . S
N250 C242 1.356 . S
N250 H256 0.984 . S
N250 H257 0.984 . S
N251 C244 1.356 . S
N251 H254 0.984 . S
N251 H255 0.985 . S
H252 N247 0.984 . S
H253 N247 0.985 . S
H254 N251 0.984 . S
H255 N251 0.985 . S
H256 N250 0.984 . S
H257 N250 0.984 . S
H258 N246 0.984 . S
H259 N246 0.985 . S
C260 C261 1.363 . S
C260 C266 1.379 . S
C260 N268 1.356 . S
C261 C260 1.363 . S
C261 C267 1.363 . S
C262 C263 1.363 . S
C262 C267 1.379 . S
C262 N269 1.356 . S
C263 C262 1.363 . S
C263 C266 1.363 . S
N264 C266 1.356 . S
N264 H276 0.984 . S
N264 H277 0.985 . S
N265 C267 1.356 . S
N265 H270 0.984 . S
N265 H271 0.985 . S
C266 C260 1.379 . S
C266 C263 1.363 . S
C266 N264 1.356 . S
C267 C261 1.363 . S
C267 C262 1.379 . S
C267 N265 1.356 . S
N268 C260 1.356 . S
N268 H274 0.984 . S
N268 H275 0.984 . S
N269 C262 1.356 . S
N269 H272 0.984 . S
N269 H273 0.985 . S
H270 N265 0.984 . S
H271 N265 0.985 . S
H272 N269 0.984 . S
H273 N269 0.985 . S
H274 N268 0.984 . S
H275 N268 0.984 . S
H276 N264 0.984 . S
H277 N264 0.985 . S
C278 C279 1.363 1_554 S
C278 C284 1.379 . S
C278 N286 1.356 . S
C279 C278 1.363 1_556 S
C279 C285 1.363 . S
C280 C281 1.363 . S
C280 C285 1.379 . S
C280 N287 1.356 . S
C281 C280 1.363 . S
C281 C284 1.363 1_556 S
N282 C284 1.356 . S
N282 H294 0.984 . S
N282 H295 0.985 . S
N283 C285 1.356 . S
N283 H288 0.984 . S
N283 H289 0.985 . S
C284 C278 1.379 . S
C284 C281 1.363 1_554 S
C284 N282 1.356 . S
C285 C279 1.363 . S
C285 C280 1.379 . S
C285 N283 1.356 . S
N286 C278 1.356 . S
N286 H292 0.984 . S
N286 H293 0.984 . S
N287 C280 1.356 . S
N287 H290 0.984 . S
N287 H291 0.985 . S
H288 N283 0.984 . S
H289 N283 0.985 . S
H290 N287 0.984 . S
H291 N287 0.985 . S
H292 N286 0.984 . S
H293 N286 0.984 . S
H294 N282 0.984 . S
H295 N282 0.985 . S
C296 C297 1.363 . S
C296 C302 1.379 . S
C296 N304 1.356 . S
C297 C296 1.363 . S
C297 C303 1.363 . S
C298 C299 1.363 . S
C298 C303 1.379 . S
C298 N305 1.356 . S
C299 C298 1.363 . S
C299 C302 1.363 . S
N300 C302 1.356 1_554 S
N300 H312 0.984 . S
N300 H313 0.985 . S
N301 C303 1.356 . S
N301 H306 0.984 . S
N301 H307 0.985 . S
C302 C296 1.379 . S
C302 C299 1.363 . S
C302 N300 1.356 1_556 S
C303 C297 1.363 . S
C303 C298 1.379 . S
C303 N301 1.356 . S
N304 C296 1.356 . S
N304 H310 0.984 . S
N304 H311 0.984 . S
N305 C298 1.356 . S
N305 H308 0.984 . S
N305 H309 0.985 . S
H306 N301 0.984 . S
H307 N301 0.985 . S
H308 N305 0.984 . S
H309 N305 0.985 . S
H310 N304 0.984 . S
H311 N304 0.984 . S
H312 N300 0.984 . S
H313 N300 0.985 . S
C314 C315 1.363 . S
C314 C320 1.379 . S
C314 N322 1.356 . S
C315 C314 1.363 . S
C315 C321 1.363 . S
C316 C317 1.363 . S
C316 C321 1.379 . S
C316 N323 1.356 . S
C317 C316 1.363 . S
C317 C320 1.363 . S
N318 C320 1.356 . S
N318 H330 0.984 . S
N318 H331 0.985 . S
N319 C321 1.356 . S
N319 H324 0.984 . S
N319 H325 0.985 . S
C320 C314 1.379 . S
C320 C317 1.363 . S
C320 N318 1.356 . S
C321 C315 1.363 . S
C321 C316 1.379 . S
C321 N319 1.356 . S
N322 C314 1.356 . S
N322 H328 0.984 . S
N322 H329 0.984 . S
N323 C316 1.356 . S
N323 H326 0.984 . S
N323 H327 0.985 . S
H324 N319 0.984 . S
H325 N319 0.985 . S
H326 N323 0.984 . S
H327 N323 0.985 . S
H328 N322 0.984 . S
H329 N322 0.984 . S
H330 N318 0.984 . S
H331 N318 0.985 . S
C332 C333 1.363 . S
C332 C338 1.379 . S
C332 N340 1.356 . S
C333 C332 1.363 . S
C333 C339 1.363 . S
C334 C335 1.363 . S
C334 C339 1.379 . S
C334 N341 1.356 . S
C335 C334 1.363 . S
C335 C338 1.363 . S
N336 C338 1.356 . S
N336 H348 0.984 . S
N336 H349 0.985 . S
N337 C339 1.356 . S
N337 H342 0.984 . S
N337 H343 0.985 . S
C338 C332 1.379 . S
C338 C335 1.363 . S
C338 N336 1.356 . S
C339 C333 1.363 . S
C339 C334 1.379 . S
C339 N337 1.356 . S
N340 C332 1.356 . S
N340 H346 0.984 . S
N340 H347 0.984 . S
N341 C334 1.356 . S
N341 H344 0.984 . S
N341 H345 0.985 . S
H342 N337 0.984 . S
H343 N337 0.985 . S
H344 N341 0.984 . S
H345 N341 0.985 . S
H346 N340 0.984 . S
H347 N340 0.984 . S
H348 N336 0.984 . S
H349 N336 0.985 . S
C350 C351 1.363 . S
C350 C356 1.379 . S
C350 N358 1.356 . S
C351 C350 1.363 . S
C351 C357 1.363 . S
C352 C353 1.363 . S
C352 C357 1.379 . S
C352 N359 1.356 . S
C353 C352 1.363 . S
C353 C356 1.363 . S
N354 C356 1.356 . S
N354 H366 0.984 . S
N354 H367 0.985 . S
N355 C357 1.356 . S
N355 H360 0.984 . S
N355 H361 0.985 . S
C356 C350 1.379 . S
C356 C353 1.363 . S
C356 N354 1.356 . S
C357 C351 1.363 . S
C357 C352 1.379 . S
C357 N355 1.356 . S
N358 C350 1.356 . S
N358 H364 0.984 . S
N358 H365 0.984 . S
N359 C352 1.356 . S
N359 H362 0.984 . S
N359 H363 0.985 . S
H360 N355 0.984 . S
H361 N355 0.985 . S
H362 N359 0.984 . S
H363 N359 0.985 . S
H364 N358 0.984 . S
H365 N358 0.984 . S
H366 N354 0.984 . S
H367 N354 0.985 . S
C368 C369 1.363 . S
C368 C374 1.379 . S
C368 N376 1.356 . S
C369 C368 1.363 . S
C369 C375 1.363 1_556 S
C370 C371 1.363 1_554 S
C370 C375 1.379 . S
C370 N377 1.356 . S
C371 C370 1.363 1_556 S
C371 C374 1.363 . S
N372 C374 1.356 . S
N372 H384 0.984 . S
N372 H385 0.985 . S
N373 C375 1.356 . S
N373 H378 0.984 . S
N373 H379 0.985 . S
C374 C368 1.379 . S
C374 C371 1.363 . S
C374 N372 1.356 . S
C375 C369 1.363 1_554 S
C375 C370 1.379 . S
C375 N373 1.356 . S
N376 C368 1.356 . S
N376 H382 0.984 . S
N376 H383 0.984 . S
N377 C370 1.356 . S
N377 H380 0.984 . S
N377 H381 0.985 . S
H378 N373 0.984 . S
H379 N373 0.985 . S
H380 N377 0.984 . S
H381 N377 0.985 . S
H382 N376 0.984 . S
H383 N376 0.984 . S
H384 N372 0.984 . S
H385 N372 0.985 . S
C386 C387 1.363 . S
C386 C392 1.379 . S
C386 N394 1.356 . S
C387 C386 1.363 . S
C387 C393 1.363 . S
C388 C389 1.363 . S
C388 C393 1.379 . S
C388 N395 1.356 . S
C389 C388 1.363 . S
C389 C392 1.363 . S
N390 C392 1.356 . S
N390 H402 0.984 . S
N390 H403 0.985 . S
N391 C393 1.356 . S
N391 H396 0.984 . S
N391 H397 0.985 . S
C392 C386 1.379 . S
C392 C389 1.363 . S
C392 N390 1.356 . S
C393 C387 1.363 . S
C393 C388 1.379 . S
C393 N391 1.356 . S
N394 C386 1.356 . S
N394 H400 0.984 . S
N394 H401 0.984 . S
N395 C388 1.356 . S
N395 H398 0.984 . S
N395 H399 0.985 . S
H396 N391 0.984 . S
H397 N391 0.985 . S
H398 N395 0.984 . S
H399 N395 0.985 . S
H400 N394 0.984 . S
H401 N394 0.984 . S
H402 N390 0.984 . S
H403 N390 0.985 . S
C404 C405 1.363 . S
C404 C410 1.379 . S
C404 N412 1.356 . S
C405 C404 1.363 . S
C405 C411 1.363 . S
C406 C407 1.363 . S
C406 C411 1.379 . S
C406 N413 1.356 . S
C407 C406 1.363 . S
C407 C410 1.363 . S
N408 C410 1.356 . S
N408 H420 0.984 . S
N408 H421 0.985 . S
N409 C411 1.356 . S
N409 H414 0.984 . S
N409 H415 0.985 . S
C410 C404 1.379 . S
C410 C407 1.363 . S
C410 N408 1.356 . S
C411 C405 1.363 . S
C411 C406 1.379 . S
C411 N409 1.356 . S
N412 C404 1.356 . S
N412 H418 0.984 . S
N412 H419 0.984 . S
N413 C406 1.356 . S
N413 H416 0.984 . S
N413 H417 0.985 . S
H414 N409 0.984 . S
H415 N409 0.985 . S
H416 N413 0.984 . S
H417 N413 0.985 . S
H418 N412 0.984 . S
H419 N412 0.984 . S
H420 N408 0.984 . S
H421 N408 0.985 . S
C422 C423 1.363 . S
C422 C428 1.379 . S
C422 N430 1.356 . S
C423 C422 1.363 . S
C423 C429 1.363 . S
C424 C425 1.363 . S
C424 C429 1.379 . S
C424 N431 1.356 . S
C425 C424 1.363 . S
C425 C428 1.363 . S
N426 C428 1.356 . S
N426 H438 0.984 . S
N426 H439 0.985 . S
N427 C429 1.356 . S
N427 H432 0.984 . S
N427 H433 0.985 . S
C428 C422 1.379 . S
C428 C425 1.363 . S
C428 N426 1.356 . S
C429 C423 1.363 . S
C429 C424 1.379 . S
C429 N427 1.356 . S
N430 C422 1.356 . S
N430 H436 0.984 . S
N430 H437 0.984 . S
N431 C424 1.356 . S
N431 H434 0.984 . S
N431 H435 0.985 . S
H432 N427 0.984 . S
H433 N427 0.985 . S
H434 N431 0.984 . S
H435 N431 0.985 . S
H436 N430 0.984 . S
H437 N430 0.984 . S
H438 N426 0.984 . S
H439 N426 0.985 . S
C440 C441 1.363 . S
C440 C446 1.379 . S
C440 N448 1.356 . S
C441 C440 1.363 . S
C441 C447 1.363 . S
C442 C443 1.363 . S
C442 C447 1.379 . S
C442 N449 1.356 . S
C443 C442 1.363 . S
C443 C446 1.363 . S
N444 C446 1.356 . S
N444 H456 0.984 . S
N444 H457 0.985 . S
N445 C447 1.356 . S
N445 H450 0.984 . S
N445 H451 0.985 . S
C446 C440 1.379 . S
C446 C443 1.363 . S
C446 N444 1.356 . S
C447 C441 1.363 . S
C447 C442 1.379 . S
C447 N445 1.356 . S
N448 C440 1.356 . S
N448 H454 0.984 . S
N448 H455 0.984 . S
N449 C442 1.356 . S
N449 H452 0.984 . S
N449 H453 0.985 . S
H450 N445 0.984 . S
H451 N445 0.985 . S
H452 N449 0.984 . S
H453 N449 0.985 . S
H454 N448 0.984 . S
H455 N448 0.984 . S
H456 N444 0.984 . S
H457 N444 0.985 . S
C458 C459 1.363 1_554 S
C458 C464 1.379 . S
C458 N466 1.356 . S
C459 C458 1.363 1_556 S
C459 C465 1.363 . S
C460 C461 1.363 . S
C460 C465 1.379 . S
C460 N467 1.356 . S
C461 C460 1.363 . S
C461 C464 1.363 1_556 S
N462 C464 1.356 . S
N462 H474 0.984 . S
N462 H475 0.985 . S
N463 C465 1.356 . S
N463 H468 0.984 . S
N463 H469 0.985 . S
C464 C458 1.379 . S
C464 C461 1.363 1_554 S
C464 N462 1.356 . S
C465 C459 1.363 . S
C465 C460 1.379 . S
C465 N463 1.356 . S
N466 C458 1.356 . S
N466 H472 0.984 . S
N466 H473 0.984 . S
N467 C460 1.356 . S
N467 H470 0.984 . S
N467 H471 0.985 . S
H468 N463 0.984 . S
H469 N463 0.985 . S
H470 N467 0.984 . S
H471 N467 0.985 . S
H472 N466 0.984 . S
H473 N466 0.984 . S
H474 N462 0.984 . S
H475 N462 0.985 . S
C476 C477 1.363 . S
C476 C482 1.379 . S
C476 N484 1.356 . S
C477 C476 1.363 . S
C477 C483 1.363 . S
C478 C479 1.363 . S
C478 C483 1.379 . S
C478 N485 1.356 . S
C479 C478 1.363 . S
C479 C482 1.363 . S
N480 C482 1.356 . S
N480 H492 0.984 . S
N480 H493 0.985 . S
N481 C483 1.356 . S
N481 H486 0.984 . S
N481 H487 0.985 . S
C482 C476 1.379 . S
C482 C479 1.363 . S
C482 N480 1.356 . S
C483 C477 1.363 . S
C483 C478 1.379 . S
C483 N481 1.356 . S
N484 C476 1.356 . S
N484 H490 0.984 . S
N484 H491 0.984 . S
N485 C478 1.356 . S
N485 H488 0.984 . S
N485 H489 0.985 . S
H486 N481 0.984 . S
H487 N481 0.985 . S
H488 N485 0.984 . S
H489 N485 0.985 . S
H490 N484 0.984 . S
H491 N484 0.984 . S
H492 N480 0.984 . S
H493 N480 0.985 . S
C494 C495 1.363 . S
C494 C500 1.379 . S
C494 N502 1.356 . S
C495 C494 1.363 . S
C495 C501 1.363 . S
C496 C497 1.363 . S
C496 C501 1.379 . S
C496 N503 1.356 . S
C497 C496 1.363 . S
C497 C500 1.363 . S
N498 C500 1.356 . S
N498 H510 0.984 . S
N498 H511 0.985 . S
N499 C501 1.356 . S
N499 H504 0.984 . S
N499 H505 0.985 . S
C500 C494 1.379 . S
C500 C497 1.363 . S
C500 N498 1.356 . S
C501 C495 1.363 . S
C501 C496 1.379 . S
C501 N499 1.356 . S
N502 C494 1.356 . S
N502 H508 0.984 . S
N502 H509 0.984 . S
N503 C496 1.356 . S
N503 H506 0.984 . S
N503 H507 0.985 . S
H504 N499 0.984 . S
H505 N499 0.985 . S
H506 N503 0.984 . S
H507 N503 0.985 . S
H508 N502 0.984 . S
H509 N502 0.984 . S
H510 N498 0.984 . S
H511 N498 0.985 . S
C512 C513 1.363 1_655 S
C512 C518 1.379 . S
C512 N520 1.356 . S
C513 C512 1.363 1_455 S
C513 C519 1.363 . S
C514 C515 1.363 . S
C514 C519 1.379 . S
C514 N521 1.356 . S
C515 C514 1.363 . S
C515 C518 1.363 1_455 S
N516 C518 1.356 1_556 S
N516 H528 0.984 . S
N516 H529 0.985 . S
N517 C519 1.356 . S
N517 H522 0.984 . S
N517 H523 0.985 . S
C518 C512 1.379 . S
C518 C515 1.363 1_655 S
C518 N516 1.356 1_554 S
C519 C513 1.363 . S
C519 C514 1.379 . S
C519 N517 1.356 . S
N520 C512 1.356 . S
N520 H526 0.984 . S
N520 H527 0.984 . S
N521 C514 1.356 . S
N521 H524 0.984 1_554 S
N521 H525 0.985 . S
H522 N517 0.984 . S
H523 N517 0.985 . S
H524 N521 0.984 1_556 S
H525 N521 0.985 . S
H526 N520 0.984 . S
H527 N520 0.984 . S
H528 N516 0.984 . S
H529 N516 0.985 . S
C530 C531 1.363 . S
C530 C536 1.379 . S
C530 N538 1.356 . S
C531 C530 1.363 . S
C531 C537 1.363 . S
C532 C533 1.363 . S
C532 C537 1.379 . S
C532 N539 1.356 . S
C533 C532 1.363 . S
C533 C536 1.363 . S
N534 C536 1.356 . S
N534 H546 0.984 . S
N534 H547 0.985 . S
N535 C537 1.356 . S
N535 H540 0.984 . S
N535 H541 0.985 . S
C536 C530 1.379 . S
C536 C533 1.363 . S
C536 N534 1.356 . S
C537 C531 1.363 . S
C537 C532 1.379 . S
C537 N535 1.356 . S
N538 C530 1.356 . S
N538 H544 0.984 . S
N538 H545 0.984 . S
N539 C532 1.356 . S
N539 H542 0.984 . S
N539 H543 0.985 . S
H540 N535 0.984 . S
H541 N535 0.985 . S
H542 N539 0.984 . S
H543 N539 0.985 . S
H544 N538 0.984 . S
H545 N538 0.984 . S
H546 N534 0.984 . S
H547 N534 0.985 . S
C548 C549 1.363 . S
C548 C554 1.379 . S
C548 N556 1.356 . S
C549 C548 1.363 . S
C549 C555 1.363 . S
C550 C551 1.363 . S
C550 C555 1.379 . S
C550 N557 1.356 . S
C551 C550 1.363 . S
C551 C554 1.363 . S
N552 C554 1.356 . S
N552 H564 0.984 . S
N552 H565 0.985 . S
N553 C555 1.356 . S
N553 H558 0.984 . S
N553 H559 0.985 . S
C554 C548 1.379 . S
C554 C551 1.363 . S
C554 N552 1.356 . S
C555 C549 1.363 . S
C555 C550 1.379 . S
C555 N553 1.356 . S
N556 C548 1.356 . S
N556 H562 0.984 . S
N556 H563 0.984 . S
N557 C550 1.356 . S
N557 H560 0.984 . S
N557 H561 0.985 . S
H558 N553 0.984 . S
H559 N553 0.985 . S
H560 N557 0.984 . S
H561 N557 0.985 . S
H562 N556 0.984 . S
H563 N556 0.984 . S
H564 N552 0.984 . S
H565 N552 0.985 . S
C566 C567 1.363 . S
C566 C572 1.379 . S
C566 N574 1.356 . S
C567 C566 1.363 . S
C567 C573 1.363 . S
C568 C569 1.363 . S
C568 C573 1.379 . S
C568 N575 1.356 . S
C569 C568 1.363 . S
C569 C572 1.363 . S
N570 C572 1.356 . S
N570 H582 0.984 . S
N570 H583 0.985 . S
N571 C573 1.356 . S
N571 H576 0.984 . S
N571 H577 0.985 . S
C572 C566 1.379 . S
C572 C569 1.363 . S
C572 N570 1.356 . S
C573 C567 1.363 . S
C573 C568 1.379 . S
C573 N571 1.356 . S
N574 C566 1.356 . S
N574 H580 0.984 . S
N574 H581 0.984 . S
N575 C568 1.356 . S
N575 H578 0.984 . S
N575 H579 0.985 . S
H576 N571 0.984 . S
H577 N571 0.985 . S
H578 N575 0.984 . S
H579 N575 0.985 . S
H580 N574 0.984 . S
H581 N574 0.984 . S
H582 N570 0.984 . S
H583 N570 0.985 . S
C584 C585 1.363 . S
C584 C590 1.379 . S
C584 N592 1.356 . S
C585 C584 1.363 . S
C585 C591 1.363 . S
C586 C587 1.363 . S
C586 C591 1.379 . S
C586 N593 1.356 . S
C587 C586 1.363 . S
C587 C590 1.363 . S
N588 C590 1.356 . S
N588 H600 0.984 . S
N588 H601 0.985 . S
N589 C591 1.356 . S
N589 H594 0.984 . S
N589 H595 0.985 . S
C590 C584 1.379 . S
C590 C587 1.363 . S
C590 N588 1.356 . S
C591 C585 1.363 . S
C591 C586 1.379 . S
C591 N589 1.356 . S
N592 C584 1.356 . S
N592 H598 0.984 . S
N592 H599 0.984 . S
N593 C586 1.356 . S
N593 H596 0.984 . S
N593 H597 0.985 . S
H594 N589 0.984 . S
H595 N589 0.985 . S
H596 N593 0.984 . S
H597 N593 0.985 . S
H598 N592 0.984 . S
H599 N592 0.984 . S
H600 N588 0.984 . S
H601 N588 0.985 . S
C602 C603 1.363 . S
C602 C608 1.379 . S
C602 N610 1.356 . S
C603 C602 1.363 . S
C603 C609 1.363 . S
C604 C605 1.363 . S
C604 C609 1.379 . S
C604 N611 1.356 . S
C605 C604 1.363 . S
C605 C608 1.363 . S
N606 C608 1.356 . S
N606 H618 0.984 . S
N606 H619 0.985 . S
N607 C609 1.356 . S
N607 H612 0.984 . S
N607 H613 0.985 . S
C608 C602 1.379 . S
C608 C605 1.363 . S
C608 N606 1.356 . S
C609 C603 1.363 . S
C609 C604 1.379 . S
C609 N607 1.356 . S
N610 C602 1.356 . S
N610 H616 0.984 . S
N610 H617 0.984 . S
N611 C604 1.356 . S
N611 H614 0.984 . S
N611 H615 0.985 . S
H612 N607 0.984 . S
H613 N607 0.985 . S
H614 N611 0.984 . S
H615 N611 0.985 . S
H616 N610 0.984 . S
H617 N610 0.984 . S
H618 N606 0.984 . S
H619 N606 0.985 . S
C620 C621 1.363 . S
C620 C626 1.379 . S
C620 N628 1.356 . S
C621 C620 1.363 . S
C621 C627 1.363 1_565 S
C622 C623 1.363 . S
C622 C627 1.379 . S
C622 N629 1.356 . S
C623 C622 1.363 . S
C623 C626 1.363 1_545 S
N624 C626 1.356 . S
N624 H636 0.984 . S
N624 H637 0.985 1_565 S
N625 C627 1.356 . S
N625 H630 0.984 1_545 S
N625 H631 0.985 . S
C626 C620 1.379 . S
C626 C623 1.363 1_565 S
C626 N624 1.356 . S
C627 C621 1.363 1_545 S
C627 C622 1.379 . S
C627 N625 1.356 . S
N628 C620 1.356 . S
N628 H634 0.984 . S
N628 H635 0.984 . S
N629 C622 1.356 . S
N629 H632 0.984 . S
N629 H633 0.985 . S
H630 N625 0.984 1_565 S
H631 N625 0.985 . S
H632 N629 0.984 . S
H633 N629 0.985 . S
H634 N628 0.984 . S
H635 N628 0.984 . S
H636 N624 0.984 . S
H637 N624 0.985 1_545 S
C638 C639 1.363 . S
C638 C644 1.379 . S
C638 N646 1.356 . S
C639 C638 1.363 . S
C639 C645 1.363 1_545 S
C640 C641 1.363 . S
C640 C645 1.379 . S
C640 N647 1.356 1_455 S
C641 C640 1.363 . S
C641 C644 1.363 1_565 S
N642 C644 1.356 . S
N642 H654 0.984 . S
N642 H655 0.985 1_545 S
N643 C645 1.356 1_656 S
N643 H648 0.984 1_665 S
N643 H649 0.985 . S
C644 C638 1.379 . S
C644 C641 1.363 1_545 S
C644 N642 1.356 . S
C645 C639 1.363 1_565 S
C645 C640 1.379 . S
C645 N643 1.356 1_454 S
N646 C638 1.356 . S
N646 H652 0.984 . S
N646 H653 0.984 . S
N647 C640 1.356 1_655 S
N647 H650 0.984 1_655 S
N647 H651 0.985 . S
H648 N643 0.984 1_445 S
H649 N643 0.985 . S
H650 N647 0.984 1_455 S
H651 N647 0.985 . S
H652 N646 0.984 . S
H653 N646 0.984 . S
H654 N642 0.984 . S
H655 N642 0.985 1_565 S
C656 C657 1.363 . S
C656 C662 1.379 . S
C656 N664 1.356 1_455 S
C657 C656 1.363 . S
C657 C663 1.363 . S
C658 C659 1.363 . S
C658 C663 1.379 . S
C658 N665 1.356 . S
C659 C658 1.363 . S
C659 C662 1.363 . S
N660 C662 1.356 1_655 S
N660 H672 0.984 . S
N660 H673 0.985 . S
N661 C663 1.356 . S
N661 H666 0.984 . S
N661 H667 0.985 . S
C662 C656 1.379 . S
C662 C659 1.363 . S
C662 N660 1.356 1_455 S
C663 C657 1.363 . S
C663 C658 1.379 . S
C663 N661 1.356 . S
N664 C656 1.356 1_655 S
N664 H670 0.984 . S
N664 H671 0.985 . S
N665 C658 1.356 . S
N665 H668 0.984 . S
N665 H669 0.985 . S
H666 N661 0.984 . S
H667 N661 0.985 . S
H668 N665 0.984 . S
H669 N665 0.985 . S
H670 N664 0.984 . S
H671 N664 0.985 . S
H672 N660 0.984 . S
H673 N660 0.985 . S
C674 C675 1.363 . S
C674 C680 1.379 . S
C674 N682 1.356 . S
C675 C674 1.363 . S
C675 C681 1.363 . S
C676 C677 1.363 . S
C676 C681 1.379 . S
C676 N683 1.356 . S
C677 C676 1.363 . S
C677 C680 1.363 . S
N678 C680 1.356 . S
N678 H690 0.984 . S
N678 H691 0.985 . S
N679 C681 1.356 . S
N679 H684 0.984 . S
N679 H685 0.985 . S
C680 C674 1.379 . S
C680 C677 1.363 . S
C680 N678 1.356 . S
C681 C675 1.363 . S
C681 C676 1.379 . S
C681 N679 1.356 . S
N682 C674 1.356 . S
N682 H688 0.984 . S
N682 H689 0.984 . S
N683 C676 1.356 . S
N683 H686 0.984 . S
N683 H687 0.985 . S
H684 N679 0.984 . S
H685 N679 0.985 . S
H686 N683 0.984 . S
H687 N683 0.985 . S
H688 N682 0.984 . S
H689 N682 0.984 . S
H690 N678 0.984 . S
H691 N678 0.985 . S
C692 C693 1.363 . S
C692 C698 1.379 . S
C692 N700 1.356 . S
C693 C692 1.363 . S
C693 C699 1.363 . S
C694 C695 1.363 . S
C694 C699 1.379 . S
C694 N701 1.356 1_554 S
C695 C694 1.363 . S
C695 C698 1.363 . S
N696 C698 1.356 . S
N696 H708 0.984 . S
N696 H709 0.985 1_554 S
N697 C699 1.356 . S
N697 H702 0.984 . S
N697 H703 0.985 . S
C698 C692 1.379 . S
C698 C695 1.363 . S
C698 N696 1.356 . S
C699 C693 1.363 . S
C699 C694 1.379 . S
C699 N697 1.356 . S
N700 C692 1.356 . S
N700 H706 0.984 . S
N700 H707 0.984 . S
N701 C694 1.356 1_556 S
N701 H704 0.984 . S
N701 H705 0.985 . S
H702 N697 0.984 . S
H703 N697 0.985 . S
H704 N701 0.984 . S
H705 N701 0.985 . S
H706 N700 0.984 . S
H707 N700 0.984 . S
H708 N696 0.984 . S
H709 N696 0.985 1_556 S
C710 C711 1.363 . S
C710 C716 1.379 . S
C710 N718 1.356 . S
C711 C710 1.363 . S
C711 C717 1.363 . S
C712 C713 1.363 . S
C712 C717 1.379 . S
C712 N719 1.356 . S
C713 C712 1.363 . S
C713 C716 1.363 . S
N714 C716 1.356 . S
N714 H726 0.984 . S
N714 H727 0.985 . S
N715 C717 1.356 . S
N715 H720 0.984 . S
N715 H721 0.985 . S
C716 C710 1.379 . S
C716 C713 1.363 . S
C716 N714 1.356 . S
C717 C711 1.363 . S
C717 C712 1.379 . S
C717 N715 1.356 . S
N718 C710 1.356 . S
N718 H724 0.984 . S
N718 H725 0.984 . S
N719 C712 1.356 . S
N719 H722 0.984 . S
N719 H723 0.985 . S
H720 N715 0.984 . S
H721 N715 0.985 . S
H722 N719 0.984 . S
H723 N719 0.985 . S
H724 N718 0.984 . S
H725 N718 0.984 . S
H726 N714 0.984 . S
H727 N714 0.985 . S
C728 C729 1.363 . S
C728 C734 1.379 . S
C728 N736 1.356 . S
C729 C728 1.363 . S
C729 C735 1.363 . S
C730 C731 1.363 . S
C730 C735 1.379 . S
C730 N737 1.356 . S
C731 C730 1.363 . S
C731 C734 1.363 . S
N732 C734 1.356 . S
N732 H744 0.984 . S
N732 H745 0.985 . S
N733 C735 1.356 . S
N733 H738 0.984 . S
N733 H739 0.985 . S
C734 C728 1.379 . S
C734 C731 1.363 . S
C734 N732 1.356 . S
C735 C729 1.363 . S
C735 C730 1.379 . S
C735 N733 1.356 . S
N736 C728 1.356 . S
N736 H742 0.984 . S
N736 H743 0.984 . S
N737 C730 1.356 . S
N737 H740 0.984 . S
N737 H741 0.985 . S
H738 N733 0.984 . S
H739 N733 0.985 . S
H740 N737 0.984 . S
H741 N737 0.985 . S
H742 N736 0.984 . S
H743 N736 0.984 . S
H744 N732 0.984 . S
H745 N732 0.985 . S
C746 C747 1.363 . S
C746 C752 1.379 . S
C746 N754 1.356 . S
C747 C746 1.363 . S
C747 C753 1.363 . S
C748 C749 1.363 . S
C748 C753 1.379 . S
C748 N755 1.356 . S
C749 C748 1.363 . S
C749 C752 1.363 . S
N750 C752 1.356 . S
N750 H762 0.984 . S
N750 H763 0.985 . S
N751 C753 1.356 . S
N751 H756 0.984 . S
N751 H757 0.985 . S
C752 C746 1.379 . S
C752 C749 1.363 . S
C752 N750 1.356 . S
C753 C747 1.363 . S
C753 C748 1.379 . S
C753 N751 1.356 . S
N754 C746 1.356 . S
N754 H760 0.984 . S
N754 H761 0.984 . S
N755 C748 1.356 . S
N755 H758 0.984 . S
N755 H759 0.985 . S
H756 N751 0.984 . S
H757 N751 0.985 . S
H758 N755 0.984 . S
H759 N755 0.985 . S
H760 N754 0.984 . S
H761 N754 0.984 . S
H762 N750 0.984 . S
H763 N750 0.985 . S
C764 C765 1.363 1_545 S
C764 C770 1.379 . S
C764 N772 1.356 . S
C765 C764 1.363 1_565 S
C765 C771 1.363 . S
C766 C767 1.363 1_565 S
C766 C771 1.379 . S
C766 N773 1.356 1_554 S
C767 C766 1.363 1_545 S
C767 C770 1.363 . S
N768 C770 1.356 . S
N768 H780 0.984 . S
N768 H781 0.985 1_554 S
N769 C771 1.356 . S
N769 H774 0.984 . S
N769 H775 0.985 . S
C770 C764 1.379 . S
C770 C767 1.363 . S
C770 N768 1.356 . S
C771 C765 1.363 . S
C771 C766 1.379 . S
C771 N769 1.356 . S
N772 C764 1.356 . S
N772 H778 0.984 . S
N772 H779 1.012 . S
N773 C766 1.356 1_556 S
N773 H776 1.013 . S
N773 H777 0.985 . S
H774 N769 0.984 . S
H775 N769 0.985 . S
H776 N773 1.013 . S
H777 N773 0.985 . S
H778 N772 0.984 . S
H779 N772 1.012 . S
H780 N768 0.984 . S
H781 N768 0.985 1_556 S
C782 C783 1.363 . S
C782 C788 1.379 . S
C782 N790 1.356 1_455 S
C783 C782 1.363 . S
C783 C789 1.363 1_545 S
C784 C785 1.363 . S
C784 C789 1.379 . S
C784 N791 1.356 . S
C785 C784 1.363 . S
C785 C788 1.363 1_565 S
N786 C788 1.356 1_655 S
N786 H798 0.984 . S
N786 H799 0.985 1_545 S
N787 C789 1.356 . S
N787 H792 0.984 1_565 S
N787 H793 0.985 . S
C788 C782 1.379 . S
C788 C785 1.363 1_545 S
C788 N786 1.356 1_455 S
C789 C783 1.363 1_565 S
C789 C784 1.379 . S
C789 N787 1.356 . S
N790 C782 1.356 1_655 S
N790 H796 0.984 . S
N790 H797 0.984 . S
N791 C784 1.356 . S
N791 H794 0.984 . S
N791 H795 0.985 . S
H792 N787 0.984 1_545 S
H793 N787 0.985 . S
H794 N791 0.984 . S
H795 N791 0.985 . S
H796 N790 0.984 . S
H797 N790 0.984 . S
H798 N786 0.984 . S
H799 N786 0.985 1_565 S
C225 C137 1.454 . S
C227 C11 1.454 . S
C243 C207 1.454 . S
C245 C25 1.454 . S
C261 C39 1.454 . S
C263 C123 1.454 . S
C279 C53 1.454 . S
C281 C221 1.454 . S
C297 C67 1.454 . S
C299 C151 1.454 . S
C315 C193 1.454 . S
C317 C81 1.454 . S
C333 C165 1.454 . S
C335 C95 1.454 . S
C351 C109 1.454 . S
C353 C179 1.454 . S
C369 C68 1.477 . S
C371 C54 1.477 . S
C387 C180 1.477 . S
C389 C124 1.477 . S
C405 C96 1.477 . S
C407 C26 1.477 . S
C423 C138 1.477 . S
C425 C194 1.477 . S
C441 C12 1.477 . S
C443 C82 1.477 . S
C459 C222 1.477 . S
C461 C152 1.477 . S
C477 C110 1.477 . S
C479 C40 1.477 . S
C495 C166 1.477 . S
C497 C208 1.477 . S
C513 C4 0.837 . S
C515 C60 0.837 1_554 S
C531 C74 0.837 . S
C533 C18 0.837 . S
C549 C88 0.837 . S
C551 C32 0.837 . S
C567 C46 0.837 . S
C569 C102 0.837 . S
C585 C144 0.837 . S
C587 C116 0.837 . S
C603 C158 0.837 . S
C605 C130 0.837 . S
C621 C200 0.837 . S
C623 C172 0.837 . S
C639 C214 0.837 1_554 S
C641 C186 0.837 . S
C657 C61 1.339 . S
C659 C5 1.339 . S
C675 C75 1.339 . S
C677 C19 1.339 . S
C693 C89 1.339 . S
C695 C33 1.339 1_554 S
C711 C47 1.339 . S
C713 C103 1.339 . S
C729 C117 1.339 . S
C731 C145 1.339 . S
C747 C159 1.339 . S
C749 C131 1.339 . S
C765 C201 1.339 . S
C767 C173 1.339 1_554 S
C783 C215 1.339 . S
C785 C187 1.339 . S
