# Generated by pormake.
# Topology wjl, (5)-cn, num edge types: 1
# Building blocks:
#     Node 0, Type 0, BuildingBlock: XOMCOT_clean_sbu_1, # of connection points: 5
#     Node 1, Type 0, BuildingBlock: XOMCOT_clean_sbu_1, # of connection points: 5
#     Node 2, Type 0, BuildingBlock: XOMCOT_clean_sbu_1, # of connection points: 5
#     Node 3, Type 0, BuildingBlock: XOMCOT_clean_sbu_1, # of connection points: 5
#     Node 4, Type 0, BuildingBlock: XOMCOT_clean_sbu_1, # of connection points: 5
#     Node 5, Type 0, BuildingBlock: XOMCOT_clean_sbu_1, # of connection points: 5
#     Node 6, Type 0, BuildingBlock: XOMCOT_clean_sbu_1, # of connection points: 5
#     Node 7, Type 0, BuildingBlock: XOMCOT_clean_sbu_1, # of connection points: 5
#     Node 8, Type 0, BuildingBlock: XOMCOT_clean_sbu_1, # of connection points: 5
#     Node 9, Type 0, BuildingBlock: XOMCOT_clean_sbu_1, # of connection points: 5
#     Node 10, Type 0, BuildingBlock: XOMCOT_clean_sbu_1, # of connection points: 5
#     Node 11, Type 0, BuildingBlock: XOMCOT_clean_sbu_1, # of connection points: 5
#     Edge 12, Type (0, 0), BuildingBlock: UVAHIK_clean_linker_0, # of connection points: 2
#     Edge 13, Type (0, 0), BuildingBlock: UVAHIK_clean_linker_0, # of connection points: 2
#     Edge 14, Type (0, 0), BuildingBlock: UVAHIK_clean_linker_0, # of connection points: 2
#     Edge 15, Type (0, 0), BuildingBlock: UVAHIK_clean_linker_0, # of connection points: 2
#     Edge 16, Type (0, 0), BuildingBlock: UVAHIK_clean_linker_0, # of connection points: 2
#     Edge 17, Type (0, 0), BuildingBlock: UVAHIK_clean_linker_0, # of connection points: 2
#     Edge 18, Type (0, 0), BuildingBlock: UVAHIK_clean_linker_0, # of connection points: 2
#     Edge 19, Type (0, 0), BuildingBlock: UVAHIK_clean_linker_0, # of connection points: 2
#     Edge 20, Type (0, 0), BuildingBlock: UVAHIK_clean_linker_0, # of connection points: 2
#     Edge 21, Type (0, 0), BuildingBlock: UVAHIK_clean_linker_0, # of connection points: 2
#     Edge 22, Type (0, 0), BuildingBlock: UVAHIK_clean_linker_0, # of connection points: 2
#     Edge 23, Type (0, 0), BuildingBlock: UVAHIK_clean_linker_0, # of connection points: 2
#     Edge 24, Type (0, 0), BuildingBlock: UVAHIK_clean_linker_0, # of connection points: 2
#     Edge 25, Type (0, 0), BuildingBlock: UVAHIK_clean_linker_0, # of connection points: 2
#     Edge 26, Type (0, 0), BuildingBlock: UVAHIK_clean_linker_0, # of connection points: 2
#     Edge 27, Type (0, 0), BuildingBlock: UVAHIK_clean_linker_0, # of connection points: 2
#     Edge 28, Type (0, 0), BuildingBlock: UVAHIK_clean_linker_0, # of connection points: 2
#     Edge 29, Type (0, 0), BuildingBlock: UVAHIK_clean_linker_0, # of connection points: 2
#     Edge 30, Type (0, 0), BuildingBlock: UVAHIK_clean_linker_0, # of connection points: 2
#     Edge 31, Type (0, 0), BuildingBlock: UVAHIK_clean_linker_0, # of connection points: 2
#     Edge 32, Type (0, 0), BuildingBlock: UVAHIK_clean_linker_0, # of connection points: 2
#     Edge 33, Type (0, 0), BuildingBlock: UVAHIK_clean_linker_0, # of connection points: 2
#     Edge 34, Type (0, 0), BuildingBlock: UVAHIK_clean_linker_0, # of connection points: 2
#     Edge 35, Type (0, 0), BuildingBlock: UVAHIK_clean_linker_0, # of connection points: 2
#     Edge 36, Type (0, 0), BuildingBlock: UVAHIK_clean_linker_0, # of connection points: 2
#     Edge 37, Type (0, 0), BuildingBlock: UVAHIK_clean_linker_0, # of connection points: 2
#     Edge 38, Type (0, 0), BuildingBlock: UVAHIK_clean_linker_0, # of connection points: 2
#     Edge 39, Type (0, 0), BuildingBlock: UVAHIK_clean_linker_0, # of connection points: 2
#     Edge 40, Type (0, 0), BuildingBlock: UVAHIK_clean_linker_0, # of connection points: 2
#     Edge 41, Type (0, 0), BuildingBlock: UVAHIK_clean_linker_0, # of connection points: 2
# Relax obj value: 0.421
# Max RMSD: 0.220
# Mean RMSD: 0.220
data_MOF--net-wjl--node1-XOMCOT_clean_sbu_1--edge1-UVAHIK_clean_linker_0
_symmetry_space_group_name_H-M    P1
_symmetry_Int_Tables_number       1
_symmetry_cell_setting            triclinic
loop_
_symmetry_equiv_pos_as_xyz
'x, y, z'
_cell_length_a     33.483065
_cell_length_b     33.478928
_cell_length_c     106.06713
_cell_angle_alpha  90.066242
_cell_angle_beta   89.950061
_cell_angle_gamma 120.06316
loop_
_atom_site_label
_atom_site_type_symbol
_atom_site_fract_x
_atom_site_fract_y
_atom_site_fract_z
_atom_type_partial_charge
C0 C 0.30199 0.26024 0.3544 0.0
C1 C 0.32314 0.2715 0.36605 0.0
N2 N 0.36243 0.31248 0.36504 0.0
N3 N 0.32755 0.29441 0.3462 0.0
C4 C 0.36431 0.32539 0.35292 0.0
H5 H 0.26996 0.22933 0.35209 0.0
Co6 Co 0.31621 0.29864 0.32929 0.0
C7 C 0.33608 0.39453 0.32601 0.0
O8 O 0.29806 0.37825 0.3193 0.0
N9 N 0.30658 0.30317 0.31191 0.0
C10 C 0.3269 0.32579 0.29208 0.0
C11 C 0.34053 0.33426 0.30441 0.0
C12 C 0.27278 0.27542 0.30377 0.0
N13 N 0.28424 0.28856 0.2916 0.0
O14 O 0.37274 0.30041 0.32533 0.0
H15 H 0.37436 0.36019 0.30765 0.0
H16 H 0.24144 0.24485 0.30655 0.0
O17 O 0.34773 0.36657 0.33069 0.0
C18 C 0.36407 0.26077 0.32149 0.0
O19 O 0.32075 0.22861 0.31988 0.0
N20 N 0.25858 0.29144 0.33378 0.0
C21 C 0.17464 0.26027 0.34628 0.0
C22 C 0.21104 0.30554 0.34799 0.0
C23 C 0.25312 0.32007 0.34192 0.0
C24 C 0.223 0.24771 0.33178 0.0
C25 C 0.18058 0.23156 0.33781 0.0
H26 H 0.28216 0.35248 0.34485 0.0
H27 H 0.22899 0.22345 0.32658 0.0
H28 H 0.39168 0.35729 0.34903 0.0
H29 H 0.31073 0.25101 0.37455 0.0
H30 H 0.34838 0.34378 0.28405 0.0
H31 H 0.20855 0.3281 0.35488 0.0
H32 H 0.15378 0.19595 0.33652 0.0
C33 C 0.01923 0.30256 0.52131 0.0
C34 C 0.0255 0.32308 0.53295 0.0
N35 N 0.03167 0.36587 0.53137 0.0
N36 N 0.02089 0.33194 0.51241 0.0
C37 C 0.02897 0.3702 0.51876 0.0
H38 H 0.01357 0.26833 0.51946 0.0
Co39 Co 0.01459 0.32278 0.4951 0.0
C40 C 0.9514 0.35499 0.48712 0.0
O41 O 0.93173 0.31877 0.47966 0.0
N42 N 0.01013 0.31521 0.47739 0.0
C43 C 0.01968 0.33832 0.4574 0.0
C44 C 0.02508 0.35218 0.4697 0.0
C45 C 0.99676 0.27908 0.46938 0.0
N46 N 0.00176 0.29232 0.45716 0.0
O47 O 0.07508 0.37502 0.49303 0.0
H48 H 0.03936 0.38745 0.47287 0.0
H49 H 0.98401 0.24389 0.4723 0.0
O50 O 0.98584 0.36173 0.49395 0.0
C51 C 0.10457 0.36203 0.49143 0.0
O52 O 0.08983 0.31752 0.4911 0.0
N53 N 0.95705 0.2691 0.49788 0.0
C54 C 0.88634 0.18809 0.50853 0.0
C55 C 0.88552 0.22942 0.50928 0.0
C56 C 0.92175 0.26971 0.50422 0.0
C57 C 0.95768 0.22883 0.49677 0.0
C58 C 0.92241 0.18778 0.5019 0.0
H59 H 0.92331 0.30175 0.50662 0.0
H60 H 0.98786 0.22931 0.49295 0.0
H61 H 0.03331 0.40078 0.51409 0.0
H62 H 0.02512 0.30717 0.54185 0.0
H63 H 0.0298 0.36072 0.44924 0.0
H64 H 0.85959 0.23171 0.51484 0.0
H65 H 0.92501 0.15683 0.50143 0.0
C66 C 0.75587 0.13526 0.68331 0.0
C67 C 0.73819 0.14289 0.69418 0.0
N68 N 0.69613 0.10586 0.69629 0.0
N69 N 0.72505 0.09379 0.67854 0.0
C70 C 0.68926 0.07656 0.68668 0.0
H71 H 0.78886 0.15867 0.67907 0.0
Co72 Co 0.73184 0.06816 0.66377 0.0
C73 C 0.63691 0.99266 0.6569 0.0
O74 O 0.65362 0.96947 0.65112 0.0
N75 N 0.73958 0.04276 0.64863 0.0
C76 C 0.75715 0.00526 0.63429 0.0
C77 C 0.75779 0.01504 0.6469 0.0
C78 C 0.72848 0.04943 0.63685 0.0
N79 N 0.73884 0.02707 0.628 0.0
O80 O 0.73299 0.11816 0.65471 0.0
H81 H 0.77106 0.0025 0.65421 0.0
H82 H 0.71275 0.0701 0.63477 0.0
O83 O 0.66436 0.03137 0.66214 0.0
C84 C 0.7738 0.14863 0.65151 0.0
O85 O 0.8071 0.139 0.65285 0.0
N86 N 0.73574 0.02373 0.67341 0.0
C87 C 0.75887 0.97526 0.6904 0.0
C88 C 0.71264 0.95872 0.68705 0.0
C89 C 0.70162 0.98391 0.67865 0.0
C90 C 0.78072 0.04012 0.67658 0.0
C91 C 0.79314 0.01626 0.68494 0.0
H92 H 0.66576 0.97229 0.67697 0.0
H93 H 0.80709 0.07252 0.67265 0.0
H94 H 0.65892 0.04288 0.68564 0.0
H95 H 0.75478 0.17377 0.69991 0.0
H96 H 0.77056 0.98494 0.63005 0.0
H97 H 0.68508 0.92788 0.69137 0.0
H98 H 0.82922 0.03023 0.68728 0.0
C99 C 0.69788 0.73249 0.85784 0.0
C100 C 0.67289 0.71828 0.86889 0.0
N101 N 0.6343 0.67738 0.86678 0.0
N102 N 0.67534 0.70044 0.84886 0.0
C103 C 0.63659 0.66785 0.85452 0.0
H104 H 0.73067 0.76375 0.8565 0.0
Co105 Co 0.69209 0.6991 0.83228 0.0
C106 C 0.67537 0.60418 0.82877 0.0
O107 O 0.71535 0.62165 0.82296 0.0
N108 N 0.70729 0.69733 0.81522 0.0
C109 C 0.69399 0.67831 0.79494 0.0
C110 C 0.67699 0.66637 0.80693 0.0
C111 C 0.74223 0.7284 0.80792 0.0
N112 N 0.735 0.71767 0.79551 0.0
O113 O 0.63624 0.69641 0.82698 0.0
H114 H 0.64299 0.63844 0.80934 0.0
H115 H 0.77085 0.75991 0.81145 0.0
O116 O 0.66178 0.63118 0.83305 0.0
C117 C 0.6453 0.73624 0.82322 0.0
O118 O 0.6887 0.76923 0.82264 0.0
N119 N 0.74879 0.70727 0.83804 0.0
C120 C 0.83017 0.73895 0.85182 0.0
C121 C 0.79437 0.69306 0.85289 0.0
C122 C 0.75346 0.6782 0.84617 0.0
C123 C 0.78372 0.75175 0.83676 0.0
C124 C 0.82493 0.76814 0.8434 0.0
H125 H 0.72444 0.64493 0.84851 0.0
H126 H 0.77787 0.77616 0.83162 0.0
H127 H 0.61037 0.63779 0.84962 0.0
H128 H 0.68309 0.73628 0.87782 0.0
H129 H 0.67541 0.66141 0.78642 0.0
H130 H 0.79623 0.67005 0.85973 0.0
H131 H 0.85119 0.80418 0.84259 0.0
C132 C 0.94573 0.6859 0.02713 0.0
C133 C 0.93738 0.66481 0.03876 0.0
N134 N 0.9409 0.62657 0.03761 0.0
N135 N 0.95503 0.66133 0.01876 0.0
C136 C 0.95135 0.62524 0.02538 0.0
H137 H 0.9453 0.71721 0.02493 0.0
Co138 Co 0.96943 0.67376 0.00178 0.0
C139 C 0.04435 0.65351 0.99722 0.0
O140 O 0.06558 0.69204 0.99071 0.0
N141 N 0.98269 0.6845 0.98436 0.0
C142 C 0.98576 0.66546 0.96443 0.0
C143 C 0.97655 0.64989 0.97658 0.0
C144 C 0.99492 0.72086 0.97655 0.0
N145 N 0.99738 0.71017 0.96436 0.0
O146 O 0.91363 0.61803 0.99773 0.0
H147 H 0.96509 0.61488 0.97954 0.0
H148 H 1.00102 0.75422 0.97956 0.0
O149 O 0.00527 0.6416 0.00235 0.0
C150 C 0.88371 0.62909 0.99456 0.0
O151 O 0.89639 0.67313 0.9942 0.0
N152 N 0.02062 0.73063 0.00633 0.0
C153 C 0.07618 0.81452 0.01855 0.0
C154 C 0.08418 0.7775 0.02005 0.0
C155 C 0.05528 0.73546 0.01412 0.0
C156 C 0.01303 0.76664 0.0046 0.0
C157 C 0.04076 0.80908 0.01046 0.0
H158 H 0.05835 0.70604 0.01679 0.0
H159 H 0.98262 0.76118 -0.00042 0.0
H160 H 0.9569 0.59876 0.02134 0.0
H161 H 0.92896 0.67651 0.04734 0.0
H162 H 0.9819 0.64465 0.95621 0.0
H163 H 0.10981 0.77961 0.02666 0.0
H164 H 0.03268 0.83641 0.00932 0.0
C165 C 0.24992 0.90709 0.18949 0.0
C166 C 0.26081 0.90095 0.2016 0.0
N167 N 0.30712 0.92207 0.20253 0.0
N168 N 0.2892 0.93172 0.18287 0.0
C169 C 0.32335 0.9402 0.19106 0.0
H170 H 0.21563 0.89408 0.18568 0.0
Co171 Co 0.29341 0.94707 0.16596 0.0
C172 C 0.39036 0.02007 0.16188 0.0
O173 O 0.37524 0.04234 0.15498 0.0
N174 N 0.29753 0.96118 0.14862 0.0
C175 C 0.31939 0.9643 0.12868 0.0
C176 C 0.325 0.95384 0.14077 0.0
C177 C 0.27492 0.97556 0.14095 0.0
N178 N 0.28785 0.97802 0.12875 0.0
O179 O 0.29245 0.8908 0.16198 0.0
H180 H 0.3473 0.94078 0.14365 0.0
H181 H 0.24887 0.98322 0.14411 0.0
O182 O 0.36141 0.98138 0.16689 0.0
C183 C 0.25189 0.86058 0.15852 0.0
O184 O 0.22079 0.87331 0.15728 0.0
N185 N 0.28882 0.99877 0.17055 0.0
C186 C 0.26163 0.05462 0.18309 0.0
C187 C 0.30686 0.06291 0.18421 0.0
C188 C 0.31943 0.03383 0.17815 0.0
C189 C 0.24501 0.99098 0.16916 0.0
C190 C 0.23078 0.01875 0.17523 0.0
H191 H 0.35219 0.03718 0.18061 0.0
H192 H 0.21972 0.96058 0.16417 0.0
H193 H 0.35955 0.95834 0.18863 0.0
H194 H 0.23664 0.88262 0.20913 0.0
H195 H 0.33573 0.95987 0.12041 0.0
H196 H 0.33107 0.08896 0.19064 0.0
H197 H 0.19522 0.01053 0.17439 0.0
C198 C 0.72607 0.67889 0.46893 0.0
C199 C 0.71133 0.65597 0.45758 0.0
N200 N 0.67014 0.6174 0.4594 0.0
N201 N 0.6941 0.65506 0.47782 0.0
C202 C 0.66104 0.61759 0.47179 0.0
H203 H 0.75754 0.71126 0.47053 0.0
Co204 Co 0.69257 0.66895 0.4947 0.0
C205 C 0.59779 0.652 0.49861 0.0
O206 O 0.61485 0.69079 0.50501 0.0
N207 N 0.69005 0.68111 0.51198 0.0
C208 C 0.66933 0.66505 0.53208 0.0
C209 C 0.66021 0.64847 0.52 0.0
C210 C 0.71737 0.71724 0.51952 0.0
N211 N 0.70552 0.70842 0.53183 0.0
O212 O 0.68889 0.61187 0.49905 0.0
H213 H 0.63442 0.61384 0.51728 0.0
H214 H 0.74656 0.74871 0.51621 0.0
O215 O 0.62501 0.63954 0.49387 0.0
C216 C 0.72809 0.61954 0.50297 0.0
O217 O 0.76131 0.66257 0.50434 0.0
N218 N 0.70187 0.72685 0.48991 0.0
C219 C 0.73535 0.81266 0.47838 0.0
C220 C 0.68928 0.77773 0.47673 0.0
C221 C 0.67346 0.73463 0.48234 0.0
C222 C 0.74666 0.76051 0.49158 0.0
C223 C 0.76389 0.80389 0.48613 0.0
H224 H 0.63983 0.70684 0.47969 0.0
H225 H 0.77028 0.75246 0.49634 0.0
H226 H 0.63081 0.59081 0.47649 0.0
H227 H 0.72905 0.66762 0.44864 0.0
H228 H 0.65235 0.64529 0.54043 0.0
H229 H 0.66672 0.7824 0.47034 0.0
H230 H 0.79995 0.82946 0.4874 0.0
C231 C 0.11467 0.76037 0.63771 0.0
C232 C 0.12153 0.74319 0.62661 0.0
N233 N 0.0965 0.69678 0.62708 0.0
N234 N 0.08528 0.72494 0.64506 0.0
C235 C 0.0749 0.68666 0.63834 0.0
H236 H 0.12959 0.79639 0.64021 0.0
Co237 Co 0.06351 0.73117 0.6606 0.0
C238 C 0.98873 0.6368 0.66772 0.0
O239 O 0.96605 0.65434 0.67335 0.0
N240 N 0.04187 0.73855 0.67658 0.0
C241 C 0.00598 0.75331 0.69208 0.0
C242 C 0.01073 0.75198 0.67927 0.0
C243 C 0.05527 0.73193 0.68807 0.0
N244 N 0.0342 0.74093 0.6976 0.0
O245 O 0.11635 0.73345 0.66825 0.0
H246 H 0.99187 0.76012 0.67251 0.0
H247 H 0.08018 0.7208 0.6895 0.0
O248 O 0.02755 0.66363 0.66245 0.0
C249 C 0.14687 0.77514 0.67064 0.0
O250 O 0.13599 0.80749 0.66912 0.0
N251 N 0.01636 0.73424 0.65221 0.0
C252 C 0.96323 0.75635 0.6367 0.0
C253 C 0.95138 0.71014 0.63851 0.0
C254 C 0.979 0.69978 0.64614 0.0
C255 C 0.02859 0.77923 0.6504 0.0
C256 C 0.00212 0.79105 0.64288 0.0
H257 H 0.97163 0.66456 0.64652 0.0
H258 H 0.05966 0.80617 0.65477 0.0
H259 H 0.05078 0.65198 0.64139 0.0
H260 H 0.14324 0.76324 0.61883 0.0
H261 H 0.98464 0.76422 0.69697 0.0
H262 H 0.9226 0.68248 0.6335 0.0
H263 H 0.01266 0.82713 0.64168 0.0
C264 C 0.33235 0.04588 0.80925 0.0
C265 C 0.3508 0.05386 0.79729 0.0
N266 N 0.3874 0.04738 0.79744 0.0
N267 N 0.35723 0.03439 0.81686 0.0
C268 C 0.39063 0.03582 0.80942 0.0
H269 H 0.30291 0.04854 0.81226 0.0
Co270 Co 0.34751 0.02268 0.83395 0.0
C271 C 0.3786 0.95661 0.83989 0.0
O272 O 0.34197 0.93484 0.84713 0.0
N273 N 0.33873 0.01278 0.85148 0.0
C274 C 0.35892 0.01713 0.87162 0.0
C275 C 0.3744 0.02447 0.85944 0.0
C276 C 0.30183 0.99919 0.85917 0.0
N277 N 0.31318 0.00122 0.87149 0.0
O278 O 0.40028 0.08192 0.83715 0.0
H279 H 0.40995 0.03859 0.85656 0.0
H280 H 0.26757 0.98914 0.85595 0.0
O281 O 0.38577 0.99297 0.83394 0.0
C282 C 0.38867 0.112 0.83958 0.0
O283 O 0.34448 0.09848 0.84026 0.0
N284 N 0.29358 0.96674 0.83004 0.0
C285 C 0.21325 0.90066 0.81793 0.0
C286 C 0.25413 0.89899 0.81708 0.0
C287 C 0.29409 0.93296 0.82289 0.0
C288 C 0.25376 0.96819 0.83122 0.0
C289 C 0.21301 0.9351 0.82541 0.0
H290 H 0.326 0.93437 0.82043 0.0
H291 H 0.25454 0.99764 0.83566 0.0
H292 H 0.41762 0.02978 0.81278 0.0
H293 H 0.3381 0.06342 0.78912 0.0
H294 H 0.38031 0.02532 0.87994 0.0
H295 H 0.25659 0.87454 0.8109 0.0
H296 H 0.18252 0.93844 0.82602 0.0
C297 C 0.2583 0.31736 0.96946 0.0
C298 C 0.27031 0.33895 0.95789 0.0
N299 N 0.31203 0.37728 0.95901 0.0
N300 N 0.2927 0.34167 0.97772 0.0
C301 C 0.32461 0.37819 0.97113 0.0
H302 H 0.22678 0.28577 0.97168 0.0
Co303 Co 0.29576 0.32821 0.99448 0.0
C304 C 0.3911 0.3482 -0.00149 0.0
O305 O 0.37385 0.3092 0.0048 0.0
N306 N 0.29911 0.31618 0.01171 0.0
C307 C 0.32052 0.33259 0.03176 0.0
C308 C 0.32747 0.34975 0.01976 0.0
C309 C 0.27474 0.27886 0.01916 0.0
N310 N 0.28723 0.28788 0.03142 0.0
O311 O 0.2963 0.3838 -0.00094 0.0
H312 H 0.35106 0.38515 0.01711 0.0
H313 H 0.24744 0.24608 0.01583 0.0
O314 O 0.36385 0.36043 0.99363 0.0
C315 C 0.2559 0.37341 0.00267 0.0
O316 O 0.22408 0.32955 0.00328 0.0
N317 N 0.28964 0.27161 0.98943 0.0
C318 C 0.26203 0.18759 0.97738 0.0
C319 C 0.30685 0.22497 0.97577 0.0
C320 C 0.31958 0.26709 0.98159 0.0
C321 C 0.24594 0.23552 0.99105 0.0
C322 C 0.23159 0.19301 0.98528 0.0
H323 H 0.35202 0.29664 0.97891 0.0
H324 H 0.22084 0.24081 0.99606 0.0
H325 H 0.357 0.40452 0.97507 0.0
H326 H 0.24995 0.32742 0.94935 0.0
H327 H 0.33696 0.35247 0.04015 0.0
H328 H 0.33063 0.22285 0.96924 0.0
H329 H 0.19626 0.16542 0.98646 0.0
C330 C 0.9033 0.24544 0.1422 0.0
C331 C 0.89401 0.26259 0.1315 0.0
N332 N 0.92151 0.30885 0.13147 0.0
N333 N 0.93652 0.28066 0.14887 0.0
C334 C 0.94702 0.31881 0.14208 0.0
H335 H 0.88668 0.20961 0.14503 0.0
Co336 Co 0.95963 0.27428 0.16417 0.0
C337 C 0.03656 0.36793 0.17078 0.0
O338 O 0.05984 0.34986 0.17572 0.0
N339 N 0.98251 0.26688 0.17994 0.0
C340 C 0.01765 0.25034 0.19525 0.0
C341 C 0.01308 0.25259 0.18245 0.0
C342 C 0.96962 0.27349 0.19151 0.0
N343 N 0.98995 0.26313 0.20093 0.0
O344 O 0.9083 0.27359 0.1723 0.0
H345 H 0.03133 0.24408 0.17556 0.0
H346 H 0.94521 0.28516 0.1931 0.0
O347 O 0.99684 0.34164 0.1659 0.0
C348 C 0.87756 0.23226 0.17495 0.0
O349 O 0.88731 0.19918 0.17324 0.0
N350 N 0.00504 0.26954 0.15536 0.0
C351 C 0.05428 0.24414 0.13929 0.0
C352 C 0.06746 0.29084 0.14088 0.0
C353 C 0.04178 0.30286 0.14883 0.0
C354 C 0.99158 0.22414 0.15378 0.0
C355 C 0.01617 0.2107 0.14601 0.0
H356 H 0.04999 0.33837 0.1491 0.0
H357 H 0.96095 0.19813 0.15855 0.0
H358 H 0.97328 0.35324 0.14474 0.0
H359 H 0.86833 0.2426 0.12444 0.0
H360 H 0.03814 0.23816 0.2 0.0
H361 H 0.09567 0.31755 0.13549 0.0
H362 H 0.00468 0.17431 0.14503 0.0
C363 C 0.67308 0.95559 0.31062 0.0
C364 C 0.65099 0.9474 0.29914 0.0
N365 N 0.61114 0.94752 0.30086 0.0
N366 N 0.64729 0.9611 0.31946 0.0
C367 C 0.60964 0.95536 0.31327 0.0
H368 H 0.70601 0.95799 0.31238 0.0
Co369 Co 0.65976 0.97354 0.33646 0.0
C370 C 0.63045 0.04105 0.3427 0.0
O371 O 0.66766 0.06317 0.3497 0.0
N372 N 0.67083 0.98454 0.35389 0.0
C373 C 0.65304 0.98295 0.37415 0.0
C374 C 0.63602 0.97334 0.36214 0.0
C375 C 0.70882 1.00026 0.36125 0.0
N376 N 0.69892 0.99998 0.37363 0.0
O377 O 0.60681 0.91486 0.3401 0.0
H378 H 0.60009 0.95846 0.35957 0.0
H379 H 0.74297 0.01104 0.35776 0.0
O380 O 0.62256 0.00425 0.33687 0.0
C381 C 0.61802 0.88448 0.3425 0.0
O382 O 0.6621 0.8975 0.34307 0.0
N383 N 0.71372 0.02872 0.33211 0.0
C384 C 0.79375 0.09336 0.31962 0.0
C385 C 0.7533 0.09592 0.31899 0.0
C386 C 0.71342 0.06268 0.32502 0.0
C387 C 0.75309 0.02635 0.33303 0.0
C388 C 0.79371 0.05874 0.32705 0.0
H389 H 0.68164 0.06195 0.32283 0.0
H390 H 0.75198 0.99677 0.33748 0.0
H391 H 0.58128 0.95636 0.31784 0.0
H392 H 0.66383 0.94283 0.2902 0.0
H393 H 0.63271 0.97586 0.38266 0.0
H394 H 0.75106 0.12061 0.31287 0.0
H395 H 0.82386 0.05479 0.32753 0.0
C396 C 0.43932 0.26849 0.32835 0.0
C397 C 0.40002 0.2477 0.32061 0.0
C398 C 0.4677 0.24897 0.32941 0.0
C399 C 0.45886 0.13514 0.326 0.0
H400 H 0.59128 0.20327 0.33098 0.0
C401 C 0.56737 0.04509 0.33094 0.0
C402 C 0.60235 0.06299 0.34011 0.0
C403 C 0.54368 0.06835 0.3279 0.0
C404 C 0.55422 0.18378 0.3297 0.0
H405 H 0.36174 0.19287 0.30713 0.0
H406 H 0.41179 0.15983 0.30867 0.0
H407 H 0.55055 0.24493 0.32623 0.0
H408 H 0.63899 0.11877 0.35352 0.0
H409 H 0.59735 0.15874 0.34835 0.0
H410 H 0.46236 0.07408 0.32958 0.0
C411 C 0.42 0.19013 0.31424 0.0
C412 C 0.53092 0.20767 0.32697 0.0
C413 C 0.39156 0.2093 0.31328 0.0
C414 C 0.61241 0.10408 0.34635 0.0
C415 C 0.58881 0.12728 0.34332 0.0
C416 C 0.48212 0.1113 0.32871 0.0
C417 C 0.45735 0.20858 0.32268 0.0
C418 C 0.48292 0.18362 0.32512 0.0
C419 C 0.55449 0.10999 0.33397 0.0
C420 C 0.53003 0.13532 0.33067 0.0
H421 H 0.4464 0.2979 0.33418 0.0
H422 H 0.49614 0.26399 0.33602 0.0
H423 H 0.42172 0.11551 0.3249 0.0
H424 H 0.55889 0.01364 0.32592 0.0
H425 H 0.51759 0.05425 0.3206 0.0
C426 C 0.18409 0.37983 0.48589 0.0
C427 C 0.15459 0.39521 0.49036 0.0
C428 C 0.23177 0.40924 0.48577 0.0
C429 C 0.32433 0.53186 0.48814 0.0
H430 H 0.39778 0.47738 0.49837 0.0
C431 C 0.51801 0.63968 0.50101 0.0
C432 C 0.54729 0.62375 0.49669 0.0
C433 C 0.47026 0.61294 0.49945 0.0
C434 C 0.37784 0.49301 0.49534 0.0
H435 H 0.15185 0.45396 0.49789 0.0
H436 H 0.23567 0.50546 0.49793 0.0
H437 H 0.31426 0.42948 0.49721 0.0
H438 H 0.54931 0.56741 0.48716 0.0
H439 H 0.46577 0.52059 0.48448 0.0
H440 H 0.38827 0.5957 0.48653 0.0
C441 C 0.22175 0.4707 0.49435 0.0
C442 C 0.32989 0.46555 0.49466 0.0
C443 C 0.17376 0.44122 0.49436 0.0
C444 C 0.52773 0.58062 0.49064 0.0
C445 C 0.47988 0.55373 0.48915 0.0
C446 C 0.37239 0.55944 0.4889 0.0
C447 C 0.25136 0.45474 0.49025 0.0
C448 C 0.30247 0.48453 0.49101 0.0
C449 C 0.4506 0.56952 0.4936 0.0
C450 C 0.39966 0.54027 0.49249 0.0
H451 H 0.17039 0.34473 0.48258 0.0
H452 H 0.25333 0.39608 0.48224 0.0
H453 H 0.30438 0.54751 0.48515 0.0
H454 H 0.5319 0.67278 0.50568 0.0
H455 H 0.44863 0.62585 0.50309 0.0
C456 C 0.91975 0.55777 0.6699 0.0
C457 C 0.9654 0.58613 0.66573 0.0
C458 C 0.896 0.51053 0.66728 0.0
C459 C 0.89587 0.42336 0.64573 0.0
H460 H 0.81692 0.33699 0.67127 0.0
C461 C 0.82969 0.2278 0.64398 0.0
C462 C 0.78634 0.1971 0.64919 0.0
C463 C 0.84697 0.27537 0.64433 0.0
C464 C 0.83809 0.36065 0.66394 0.0
H465 H 0.02228 0.58648 0.65583 0.0
H466 H 0.98092 0.50377 0.65137 0.0
H467 H 0.85809 0.41931 0.67582 0.0
H468 H 0.72575 0.192 0.65814 0.0
H469 H 0.75577 0.27536 0.65865 0.0
H470 H 0.87643 0.36441 0.63394 0.0
C471 C 0.96321 0.5184 0.65647 0.0
C472 C 0.8619 0.40793 0.66657 0.0
C473 C 0.98705 0.5658 0.65909 0.0
C474 C 0.75919 0.21478 0.65399 0.0
C475 C 0.77664 0.26254 0.65442 0.0
C476 C 0.87207 0.37601 0.6431 0.0
C477 C 0.91725 0.49023 0.66046 0.0
C478 C 0.8914 0.4399 0.65754 0.0
C479 C 0.82139 0.29344 0.64997 0.0
C480 C 0.84319 0.34403 0.65222 0.0
H481 H 0.90182 0.57215 0.675 0.0
H482 H 0.86052 0.49008 0.67039 0.0
H483 H 0.91761 0.44705 0.63848 0.0
H484 H 0.85139 0.21518 0.64019 0.0
H485 H 0.8816 0.29803 0.64087 0.0
C486 C 0.39677 0.89383 0.84363 0.0
C487 C 0.40661 0.93458 0.83726 0.0
C488 C 0.42017 0.87041 0.84062 0.0
C489 C 0.52652 0.88543 0.82619 0.0
H490 H 0.45792 0.75165 0.82435 0.0
C491 C 0.61874 0.78625 0.81353 0.0
C492 C 0.60915 0.74848 0.82126 0.0
C493 C 0.59006 0.80532 0.81363 0.0
C494 C 0.4776 0.78896 0.8249 0.0
H495 H 0.44955 0.98316 0.82286 0.0
H496 H 0.49073 0.94218 0.81762 0.0
H497 H 0.41715 0.79381 0.82839 0.0
H498 H 0.56065 0.69917 0.83462 0.0
H499 H 0.51056 0.73294 0.835 0.0
H500 H 0.58705 0.8808 0.82301 0.0
C501 C 0.46482 0.92849 0.82498 0.0
C502 C 0.45427 0.81313 0.82722 0.0
C503 C 0.44123 0.95196 0.82797 0.0
C504 C 0.56857 0.72806 0.82849 0.0
C505 C 0.53999 0.74753 0.82871 0.0
C506 C 0.54984 0.86131 0.82392 0.0
C507 C 0.45415 0.88715 0.83118 0.0
C508 C 0.47855 0.86163 0.82801 0.0
C509 C 0.55141 0.78745 0.82162 0.0
C510 C 0.52574 0.81275 0.82332 0.0
H511 H 0.37049 0.87953 0.85088 0.0
H512 H 0.4118 0.83923 0.84576 0.0
H513 H 0.54631 0.9227 0.82693 0.0
H514 H 0.64963 0.80239 0.80777 0.0
H515 H 0.59918 0.8352 0.80779 0.0
C516 C 0.80759 0.60804 0.98529 0.0
C517 C 0.83491 0.59458 0.99208 0.0
C518 C 0.76001 0.57894 0.9844 0.0
C519 C 0.66406 0.45944 0.98939 0.0
H520 H 0.59356 0.52111 0.99498 0.0
C521 C 0.47046 0.36097 0.00196 0.0
C522 C 0.44169 0.3759 0.99665 0.0
C523 C 0.51819 0.3864 0.00031 0.0
C524 C 0.61262 0.50339 0.99321 0.0
H525 H 0.83422 0.53914 0.00275 0.0
H526 H 0.75037 0.48803 0.00135 0.0
H527 H 0.67729 0.56629 0.99393 0.0
H528 H 0.44066 0.42925 0.98533 0.0
H529 H 0.52436 0.47383 0.98241 0.0
H530 H 0.59911 0.39639 0.98887 0.0
C531 C 0.76599 0.52109 0.99661 0.0
C532 C 0.66071 0.52929 0.99261 0.0
C533 C 0.81396 0.55028 0.99742 0.0
C534 C 0.46185 0.41691 0.98959 0.0
C535 C 0.5098 0.44249 0.98795 0.0
C536 C 0.61584 0.43348 0.99 0.0
C537 C 0.73836 0.53573 0.99039 0.0
C538 C 0.68707 0.50768 0.99072 0.0
C539 C 0.53851 0.42751 0.99331 0.0
C540 C 0.58958 0.45515 0.99199 0.0
H541 H 0.82285 0.64177 0.98092 0.0
H542 H 0.74001 0.59081 0.97925 0.0
H543 H 0.68327 0.44178 0.98779 0.0
H544 H 0.45619 0.32959 0.00748 0.0
H545 H 0.53926 0.37425 0.00474 0.0
C546 C 0.26126 0.79214 0.16342 0.0
C547 C 0.23717 0.81104 0.15739 0.0
C548 C 0.24216 0.74409 0.16405 0.0
C549 C 0.12792 0.63853 0.16341 0.0
H550 H 0.19647 0.57401 0.16024 0.0
C551 C 0.03726 0.43942 0.16314 0.0
C552 C 0.05915 0.41881 0.16949 0.0
C553 C 0.05999 0.48727 0.16139 0.0
C554 C 0.17692 0.59158 0.16129 0.0
H555 H 0.17605 0.79477 0.14649 0.0
H556 H 0.14342 0.71165 0.14741 0.0
H557 H 0.23605 0.65762 0.15726 0.0
H558 H 0.12188 0.43266 0.1792 0.0
H559 H 0.16093 0.51588 0.17638 0.0
H560 H 0.06898 0.57295 0.16758 0.0
C561 C 0.1763 0.73356 0.15195 0.0
C562 C 0.19964 0.63948 0.15956 0.0
C563 C 0.1952 0.78126 0.15136 0.0
C564 C 0.10397 0.44727 0.17422 0.0
C565 C 0.12661 0.49506 0.1725 0.0
C566 C 0.1053 0.5908 0.16517 0.0
C567 C 0.19874 0.7143 0.15865 0.0
C568 C 0.1753 0.66346 0.16053 0.0
C569 C 0.10507 0.51569 0.166 0.0
C570 C 0.12941 0.56663 0.1641 0.0
H571 H 0.29358 0.81426 0.1682 0.0
H572 H 0.26031 0.73029 0.16929 0.0
H573 H 0.10833 0.65605 0.1645 0.0
H574 H 0.00274 0.41863 0.1594 0.0
H575 H 0.04248 0.5019 0.15623 0.0
C576 C 0.88966 0.37294 0.4817 0.0
C577 C 0.92863 0.38272 0.48896 0.0
C578 C 0.86508 0.39566 0.48398 0.0
C579 C 0.84388 0.46163 0.50846 0.0
H580 H 0.79317 0.49578 0.48035 0.0
C581 C 0.77734 0.59029 0.51171 0.0
C582 C 0.7394 0.58248 0.50428 0.0
C583 C 0.79496 0.5604 0.5111 0.0
C584 C 0.80636 0.4857 0.48831 0.0
H585 H 0.97298 0.42496 0.50417 0.0
H586 H 0.93053 0.46572 0.50798 0.0
H587 H 0.83835 0.45851 0.47633 0.0
H588 H 0.6883 0.53587 0.49093 0.0
H589 H 0.71927 0.48332 0.4898 0.0
H590 H 0.81277 0.4902 0.5204 0.0
C591 C 0.91852 0.43967 0.50066 0.0
C592 C 0.83245 0.46447 0.48602 0.0
C593 C 0.94315 0.41669 0.49839 0.0
C594 C 0.71746 0.54254 0.4968 0.0
C595 C 0.73546 0.5128 0.49607 0.0
C596 C 0.81798 0.48318 0.51075 0.0
C597 C 0.87893 0.42909 0.49353 0.0
C598 C 0.85166 0.45226 0.49605 0.0
C599 C 0.77526 0.52226 0.50293 0.0
C600 C 0.79909 0.49559 0.50069 0.0
H601 H 0.87736 0.34689 0.47437 0.0
H602 H 0.83445 0.38611 0.47843 0.0
H603 H 0.85745 0.45197 0.51642 0.0
H604 H 0.79483 0.62079 0.51759 0.0
H605 H 0.82575 0.5688 0.51644 0.0
C606 C 0.21573 0.76515 0.66772 0.0
C607 C 0.19556 0.78915 0.67312 0.0
C608 C 0.26386 0.78477 0.66764 0.0
C609 C 0.36811 0.90063 0.66876 0.0
H610 H 0.43369 0.83273 0.67012 0.0
C611 C 0.56753 0.99139 0.66652 0.0
C612 C 0.58639 0.97024 0.65903 0.0
C613 C 0.52014 0.9686 0.6691 0.0
C614 C 0.41579 0.85212 0.66963 0.0
H615 H 0.20924 0.85027 0.68361 0.0
H616 H 0.29264 0.88359 0.68389 0.0
H617 H 0.3505 0.79244 0.67388 0.0
H618 H 0.56991 0.90872 0.64823 0.0
H619 H 0.48752 0.86947 0.6526 0.0
H620 H 0.43314 0.96015 0.66441 0.0
C621 C 0.27179 0.85053 0.67932 0.0
C622 C 0.36811 0.82901 0.67179 0.0
C623 C 0.22394 0.83123 0.67927 0.0
C624 C 0.55667 0.92607 0.65406 0.0
C625 C 0.5094 0.90331 0.65666 0.0
C626 C 0.41569 0.92369 0.66664 0.0
C627 C 0.29253 0.82854 0.67305 0.0
C628 C 0.34361 0.85296 0.67134 0.0
C629 C 0.49054 0.92414 0.66426 0.0
C630 C 0.44011 0.89972 0.66697 0.0
H631 H 0.19465 0.73285 0.66281 0.0
H632 H 0.2786 0.76688 0.6627 0.0
H633 H 0.35034 0.92008 0.66804 0.0
H634 H 0.5894 0.02529 0.67054 0.0
H635 H 0.5068 0.9855 0.67507 0.0
C636 C 0.60467 0.5335 0.8369 0.0
C637 C 0.64774 0.55365 0.83081 0.0
C638 C 0.57905 0.48567 0.83876 0.0
C639 C 0.56734 0.3761 0.82677 0.0
H640 H 0.49797 0.325 0.85759 0.0
C641 C 0.46866 0.1796 0.83644 0.0
C642 C 0.42307 0.16175 0.84067 0.0
C643 C 0.49915 0.22739 0.83626 0.0
C644 C 0.51705 0.33876 0.84891 0.0
H645 H 0.69789 0.5393 0.82208 0.0
H646 H 0.65375 0.4565 0.82547 0.0
H647 H 0.54417 0.40858 0.85507 0.0
H648 H 0.37437 0.17983 0.84855 0.0
H649 H 0.42727 0.26262 0.84825 0.0
H650 H 0.53998 0.30631 0.82058 0.0
C651 C 0.63924 0.47734 0.82861 0.0
C652 C 0.54337 0.38667 0.84744 0.0
C653 C 0.6647 0.52499 0.82672 0.0
C654 C 0.40922 0.19244 0.84519 0.0
C655 C 0.43967 0.23999 0.8451 0.0
C656 C 0.54116 0.32823 0.82826 0.0
C657 C 0.59599 0.45697 0.83459 0.0
C658 C 0.5686 0.40597 0.83631 0.0
C659 C 0.48473 0.25814 0.84042 0.0
C660 C 0.51538 0.30897 0.8393 0.0
H661 H 0.59061 0.55459 0.84017 0.0
H662 H 0.54563 0.47112 0.84328 0.0
H663 H 0.58572 0.38968 0.81799 0.0
H664 H 0.48032 0.15682 0.83289 0.0
H665 H 0.53384 0.24032 0.83272 0.0
C666 C 0.20264 0.39629 0.01226 0.0
C667 C 0.24246 0.40854 0.0051 0.0
C668 C 0.18445 0.42564 0.013 0.0
C669 C 0.20739 0.54419 0.00664 0.0
H670 H 0.07455 0.48143 0.00216 0.0
C671 C 0.11051 0.64027 0.99346 0.0
C672 C 0.06743 0.62606 -0.00088 0.0
C673 C 0.13307 0.61518 0.99523 0.0
C674 C 0.11154 0.4995 0.00362 0.0
H675 H 0.29596 0.46221 0.99365 0.0
H676 H 0.26373 0.51369 0.9948 0.0
H677 H 0.11329 0.43661 0.00363 0.0
H678 H 0.0144 0.57436 0.01116 0.0
H679 H 0.05397 0.53046 0.01429 0.0
H680 H 0.20549 0.60721 0.00643 0.0
C681 C 0.24682 0.48143 -6e-05 0.0
C682 C 0.13384 0.47379 0.00446 0.0
C683 C 0.26533 0.45203 -0.00072 0.0
C684 C 0.04743 0.58612 0.00662 0.0
C685 C 0.07006 0.56091 0.00838 0.0
C686 C 0.18503 0.56996 0.00579 0.0
C687 C 0.20534 0.46785 0.00651 0.0
C688 C 0.18204 0.49577 0.00596 0.0
C689 C 0.11317 0.57518 0.00269 0.0
C690 C 0.13684 0.54789 0.0042 0.0
H691 H 0.18459 0.36321 0.01699 0.0
H692 H 0.15321 0.41464 0.01842 0.0
H693 H 0.24445 0.56216 0.00792 0.0
H694 H 0.12694 0.67082 0.98759 0.0
H695 H 0.16581 0.62673 0.99054 0.0
C696 C 0.8093 0.2435 0.17292 0.0
C697 C 0.8297 0.21945 0.17811 0.0
C698 C 0.76132 0.2246 0.17345 0.0
C699 C 0.6568 0.10969 0.17568 0.0
H700 H 0.59278 0.17912 0.17706 0.0
C701 C 0.45769 0.02113 0.17275 0.0
C702 C 0.44022 0.04259 0.16489 0.0
C703 C 0.5047 0.04357 0.1758 0.0
C704 C 0.61023 0.15929 0.1766 0.0
H705 H 0.81694 0.15929 0.1889 0.0
H706 H 0.73381 0.12726 0.19024 0.0
H707 H 0.67609 0.21866 0.18054 0.0
H708 H 0.45862 0.10447 0.15406 0.0
H709 H 0.54023 0.14308 0.15926 0.0
H710 H 0.59124 0.05053 0.17156 0.0
C711 C 0.75428 0.15973 0.18537 0.0
C712 C 0.65796 0.18196 0.1786 0.0
C713 C 0.80196 0.17829 0.18471 0.0
C714 C 0.47079 0.08686 0.16015 0.0
C715 C 0.51762 0.10927 0.16323 0.0
C716 C 0.60916 0.08706 0.17373 0.0
C717 C 0.73311 0.18158 0.17928 0.0
C718 C 0.68192 0.15749 0.17805 0.0
C719 C 0.53518 0.08798 0.17109 0.0
C720 C 0.58536 0.11164 0.17402 0.0
H721 H 0.8299 0.2751 0.16768 0.0
H722 H 0.74621 0.24233 0.16863 0.0
H723 H 0.67414 0.08982 0.17491 0.0
H724 H 0.4351 0.9871 0.17658 0.0
H725 H 0.5171 0.02633 0.18195 0.0
C726 C 0.4046 0.46389 0.33556 0.0
C727 C 0.36311 0.44468 0.32872 0.0
C728 C 0.42955 0.51139 0.33805 0.0
C729 C 0.44327 0.62263 0.32683 0.0
H730 H 0.50556 0.66907 0.35881 0.0
C731 C 0.53839 0.81732 0.33865 0.0
C732 C 0.58328 0.83479 0.34338 0.0
C733 C 0.50806 0.76956 0.33801 0.0
C734 C 0.48843 0.65661 0.34982 0.0
H735 H 0.315 0.46032 0.31931 0.0
H736 H 0.35784 0.54241 0.32381 0.0
H737 H 0.46056 0.58592 0.3552 0.0
H738 H 0.63073 0.81608 0.35176 0.0
H739 H 0.57803 0.73328 0.3507 0.0
H740 H 0.47134 0.69327 0.32142 0.0
C741 C 0.37175 0.52118 0.32704 0.0
C742 C 0.46282 0.60895 0.34773 0.0
C743 C 0.34701 0.47392 0.32452 0.0
C744 C 0.59641 0.80373 0.34802 0.0
C745 C 0.56608 0.75619 0.34748 0.0
C746 C 0.46868 0.67022 0.32894 0.0
C747 C 0.41347 0.54065 0.33378 0.0
C748 C 0.44017 0.59135 0.33616 0.0
C749 C 0.52191 0.73846 0.34222 0.0
C750 C 0.49189 0.68781 0.34042 0.0
H751 H 0.41797 0.44233 0.33893 0.0
H752 H 0.46182 0.52525 0.34314 0.0
H753 H 0.42695 0.61043 0.31773 0.0
H754 H 0.52732 0.8404 0.33498 0.0
H755 H 0.47403 0.75694 0.33403 0.0
C756 C 0.65796 0.58059 0.43833 0.0
C757 C 0.64046 0.58431 0.45007 0.0
C758 C 0.62872 0.5493 0.42922 0.0
C759 C 0.50489 0.48171 0.42046 0.0
H760 H 0.54505 0.41462 0.39901 0.0
C761 C 0.3795 0.33622 0.38736 0.0
C762 C 0.39467 0.3386 0.37488 0.0
C763 C 0.41021 0.36416 0.39672 0.0
C764 C 0.5335 0.43332 0.4049 0.0
H765 H 0.57783 0.55756 0.46128 0.0
H766 H 0.52783 0.50232 0.44574 0.0
H767 H 0.59751 0.46765 0.41496 0.0
H768 H 0.45431 0.37057 0.36256 0.0
H769 H 0.50796 0.41941 0.37891 0.0
H770 H 0.4408 0.44707 0.41048 0.0
C771 C 0.56399 0.52414 0.44344 0.0
C772 C 0.56358 0.46384 0.414 0.0
C773 C 0.59304 0.55554 0.45248 0.0
C774 C 0.44151 0.36842 0.37206 0.0
C775 C 0.4723 0.39604 0.38144 0.0
C776 C 0.47478 0.45097 0.41145 0.0
C777 C 0.58129 0.52086 0.43165 0.0
C778 C 0.54962 0.48842 0.4219 0.0
C779 C 0.45682 0.39473 0.39382 0.0
C780 C 0.48873 0.42647 0.40357 0.0
H781 H 0.69425 0.60176 0.43615 0.0
H782 H 0.6432 0.54803 0.4202 0.0
H783 H 0.49325 0.50074 0.42617 0.0
H784 H 0.3436 0.31381 0.3898 0.0
H785 H 0.39741 0.3621 0.40622 0.0
C786 C 0.03927 0.44068 0.53802 0.0
C787 C 0.03922 0.39965 0.54103 0.0
C788 C 0.04654 0.47323 0.54732 0.0
C789 C 0.09137 0.50889 0.57994 0.0
H790 H 0.0246 0.57565 0.57805 0.0
C791 C 0.0847 0.62059 0.62073 0.0
C792 C 0.09213 0.66447 0.61745 0.0
C793 C 0.07951 0.58883 0.6114 0.0
C794 C 0.04376 0.55752 0.57864 0.0
H795 H 0.047 0.36161 0.55654 0.0
H796 H 0.05783 0.41727 0.57267 0.0
H797 H 0.01221 0.51857 0.56195 0.0
H798 H 0.09959 0.70931 0.60182 0.0
H799 H 0.09011 0.65359 0.58548 0.0
H800 H 0.12194 0.54727 0.59685 0.0
C801 C 0.05329 0.42472 0.56302 0.0
C802 C 0.03682 0.52489 0.56939 0.0
C803 C 0.04648 0.39232 0.5537 0.0
C804 C 0.09432 0.67594 0.60463 0.0
C805 C 0.0885 0.64394 0.59529 0.0
C806 C 0.09786 0.54114 0.58927 0.0
C807 C 0.05347 0.46565 0.55995 0.0
C808 C 0.06065 0.50021 0.56988 0.0
C809 C 0.08102 0.60006 0.59859 0.0
C810 C 0.07423 0.56588 0.58869 0.0
H811 H 0.03354 0.44805 0.5285 0.0
H812 H 0.04713 0.50463 0.54453 0.0
H813 H 0.11097 0.49124 0.58054 0.0
H814 H 0.08322 0.61095 0.63053 0.0
H815 H 0.07351 0.55516 0.61421 0.0
C816 C 0.68079 0.12527 0.71765 0.0
C817 C 0.66469 0.09935 0.70646 0.0
C818 C 0.65028 0.11941 0.72741 0.0
C819 C 0.57318 0.11965 0.74273 0.0
H820 H 0.4811 0.99624 0.75319 0.0
C821 C 0.42565 0.08431 0.77738 0.0
C822 C 0.41743 0.0525 0.78707 0.0
C823 C 0.45547 0.08984 0.76745 0.0
C824 C 0.50674 0.03089 0.75039 0.0
H825 H 0.60323 0.04718 0.69685 0.0
H826 H 0.55043 0.03652 0.71396 0.0
H827 H 0.5344 0.00633 0.7361 0.0
H828 H 0.43326 1.0009 0.79381 0.0
H829 H 0.48535 0.01055 0.77646 0.0
H830 H 0.54565 0.14421 0.75705 0.0
C831 C 0.58681 0.06113 0.71517 0.0
C832 C 0.53697 0.03667 0.74055 0.0
C833 C 0.61723 0.06722 0.70536 0.0
C834 C 0.43928 0.026 0.78655 0.0
C835 C 0.46874 0.03121 0.77656 0.0
C836 C 0.54267 0.11388 0.75249 0.0
C837 C 0.60299 0.08727 0.72628 0.0
C838 C 0.57062 0.08111 0.73665 0.0
C839 C 0.47732 0.06335 0.76694 0.0
C840 C 0.50924 0.06944 0.75645 0.0
H841 H 0.71706 0.14979 0.71896 0.0
H842 H 0.66383 0.13962 0.73594 0.0
H843 H 0.5985 0.15431 0.73985 0.0
H844 H 0.40963 0.10548 0.77758 0.0
H845 H 0.46116 0.11462 0.76011 0.0
C846 C 0.5942 0.6666 0.88727 0.0
C847 C 0.59908 0.64852 0.87576 0.0
C848 C 0.56088 0.63815 0.89606 0.0
C849 C 0.48816 0.5147 0.90466 0.0
H850 H 0.42179 0.55897 0.92492 0.0
C851 C 0.33692 0.3937 0.93679 0.0
C852 C 0.3393 0.4091 0.94923 0.0
C853 C 0.36621 0.42376 0.92752 0.0
C854 C 0.44024 0.54627 0.91935 0.0
H855 H 0.57208 0.58567 0.86462 0.0
H856 H 0.51331 0.53711 0.87958 0.0
H857 H 0.47784 0.60999 0.9093 0.0
H858 H 0.37256 0.46852 0.96161 0.0
H859 H 0.42372 0.52114 0.9454 0.0
H860 H 0.45022 0.45089 0.91462 0.0
C861 C 0.53583 0.57309 0.88196 0.0
C862 C 0.47248 0.57551 0.91045 0.0
C863 C 0.56931 0.60134 0.87324 0.0
C864 C 0.37038 0.45559 0.95212 0.0
C865 C 0.39934 0.48578 0.94283 0.0
C866 C 0.45567 0.48542 0.91345 0.0
C867 C 0.53144 0.59095 0.89354 0.0
C868 C 0.4969 0.56008 0.903 0.0
C869 C 0.39809 0.46995 0.93049 0.0
C870 C 0.43145 0.5009 0.9209 0.0
H871 H 0.61605 0.70274 0.88952 0.0
H872 H 0.5588 0.65303 0.90494 0.0
H873 H 0.50699 0.5019 0.89931 0.0
H874 H 0.31355 0.35802 0.93431 0.0
H875 H 0.36426 0.41076 0.91805 0.0
C876 C 0.90945 0.32706 0.10967 0.0
C877 C 0.92276 0.34103 0.12221 0.0
C878 C 0.91038 0.35816 0.10072 0.0
C879 C 0.89026 0.42273 0.08547 0.0
H880 H 0.99153 0.54918 0.08536 0.0
C881 C 0.92231 0.5484 0.04437 0.0
C882 C 0.936 0.59443 0.04738 0.0
C883 C 0.91917 0.51762 0.05373 0.0
C884 C 0.96271 0.51414 0.08536 0.0
H885 H 0.94679 0.39869 0.13518 0.0
H886 H 0.94821 0.45279 0.11962 0.0
H887 H 0.98958 0.49534 0.10114 0.0
H888 H 0.95691 0.64402 0.06264 0.0
H889 H 0.95094 0.59013 0.07903 0.0
H890 H 0.86369 0.44148 0.0696 0.0
C891 C 0.93784 0.41798 0.11664 0.0
C892 C 0.96157 0.48325 0.09441 0.0
C893 C 0.93703 0.38691 0.12557 0.0
C894 C 0.94592 0.60876 0.06002 0.0
C895 C 0.94299 0.578 0.06938 0.0
C896 C 0.89148 0.45359 0.0764 0.0
C897 C 0.92451 0.404 0.10409 0.0
C898 C 0.92542 0.43709 0.09456 0.0
C899 C 0.92977 0.53211 0.06634 0.0
C900 C 0.9278 0.49962 0.07621 0.0
H901 H 0.89894 0.29222 0.10671 0.0
H902 H 0.90066 0.3464 0.09111 0.0
H903 H 0.86146 0.38769 0.08544 0.0
H904 H 0.91386 0.53603 0.03477 0.0
H905 H 0.90926 0.48264 0.05105 0.0
C906 C 0.55022 0.9627 0.29332 0.0
C907 C 0.57798 0.94266 0.29144 0.0
C908 C 0.51851 0.95873 0.28418 0.0
C909 C 0.47771 0.97117 0.26009 0.0
H910 H 0.40298 0.85674 0.24192 0.0
C911 C 0.37905 0.96204 0.21486 0.0
C912 C 0.33434 0.9242 0.21328 0.0
C913 C 0.40662 0.9634 0.22489 0.0
C914 C 0.42331 0.88879 0.247 0.0
H915 H 0.59362 0.90217 0.27851 0.0
H916 H 0.53866 0.8959 0.26239 0.0
H917 H 0.45506 0.85997 0.25854 0.0
H918 H 0.28329 0.85828 0.22105 0.0
H919 H 0.3315 0.86077 0.23872 0.0
H920 H 0.44588 0.99997 0.24865 0.0
C921 C 0.5412 0.91428 0.27104 0.0
C922 C 0.4535 0.89079 0.25641 0.0
C923 C 0.57305 0.91831 0.2802 0.0
C924 C 0.31748 0.88801 0.22208 0.0
C925 C 0.34523 0.88923 0.2321 0.0
C926 C 0.44768 0.96921 0.25068 0.0
C927 C 0.51378 0.93471 0.2729 0.0
C928 C 0.48115 0.93207 0.26303 0.0
C929 C 0.39018 0.92689 0.23357 0.0
C930 C 0.42036 0.92811 0.24398 0.0
H931 H 0.55347 0.98224 0.30177 0.0
H932 H 0.49759 0.97446 0.28596 0.0
H933 H 0.49885 0.00362 0.26493 0.0
H934 H 0.39282 0.99072 0.20833 0.0
H935 H 0.44123 0.9927 0.22568 0.0
C936 C 0.20603 0.0519 0.19924 0.0
C937 C 0.24518 0.0782 0.1917 0.0
C938 C 0.19502 0.07264 0.20902 0.0
C939 C 0.21592 0.18232 0.22271 0.0
H940 H 0.21887 0.12781 0.25467 0.0
C941 C 0.27307 0.28646 0.26854 0.0
C942 C 0.26075 0.26399 0.28028 0.0
C943 C 0.25734 0.2615 0.25734 0.0
C944 C 0.21652 0.143 0.2459 0.0
H945 H 0.30168 0.14709 0.18791 0.0
H946 H 0.28193 0.18362 0.20495 0.0
H947 H 0.21593 0.08856 0.23518 0.0
H948 H 0.21782 0.19777 0.28935 0.0
H949 H 0.18843 0.15468 0.26987 0.0
H950 H 0.21666 0.23691 0.23338 0.0
C951 C 0.25991 0.14697 0.20328 0.0
C952 C 0.21511 0.12047 0.23469 0.0
C953 C 0.27136 0.1261 0.1936 0.0
C954 C 0.2286 0.21642 0.28054 0.0
C955 C 0.21215 0.19148 0.26931 0.0
C956 C 0.2164 0.2045 0.23394 0.0
C957 C 0.22257 0.12014 0.21134 0.0
C958 C 0.21626 0.1406 0.22301 0.0
C959 C 0.22793 0.21336 0.25755 0.0
C960 C 0.21842 0.18596 0.2457 0.0
H961 H 0.18554 0.01481 0.19808 0.0
H962 H 0.16605 0.05127 0.21511 0.0
H963 H 0.21639 0.19828 0.21379 0.0
H964 H 0.29659 0.32326 0.26793 0.0
H965 H 0.27059 0.27987 0.24855 0.0
C966 C 0.12206 0.20064 0.36171 0.0
C967 C 0.13449 0.2413 0.35492 0.0
C968 C 0.09081 0.18742 0.37171 0.0
C969 C 0.06564 0.20192 0.39829 0.0
H970 H 0.95652 0.21401 0.39972 0.0
C971 C 0.98429 0.27917 0.43451 0.0
C972 C 0.99436 0.26509 0.44596 0.0
C973 C 0.98598 0.25909 0.42317 0.0
C974 C 0.98692 0.21045 0.3995 0.0
H975 H 0.12149 0.29806 0.35265 0.0
H976 H 0.06643 0.27473 0.37007 0.0
H977 H 0.98901 0.21173 0.37928 0.0
H978 H 0.00964 0.21572 0.45463 0.0
H979 H 0.01133 0.17941 0.43477 0.0
H980 H 0.06629 0.2045 0.41837 0.0
C981 C 0.08085 0.25309 0.36765 0.0
C982 C 0.00532 0.20893 0.38779 0.0
C983 C 0.11256 0.26664 0.35775 0.0
C984 C 0.00199 0.22748 0.44594 0.0
C985 C 0.00341 0.20704 0.43454 0.0
C986 C 0.04773 0.20416 0.40998 0.0
C987 C 0.07101 0.21432 0.37502 0.0
C988 C 0.04579 0.20629 0.38709 0.0
C989 C 0.99737 0.22397 0.42296 0.0
C990 C 0.00924 0.21038 0.41075 0.0
H991 H 0.13879 0.18069 0.35984 0.0
H992 H 0.08371 0.15734 0.37722 0.0
H993 H 0.09713 0.20026 0.39804 0.0
H994 H 0.97724 0.30738 0.43426 0.0
H995 H 0.98142 0.27348 0.41452 0.0
C996 C 0.72775 0.9921 0.60686 0.0
C997 C 0.73566 0.02961 0.61453 0.0
C998 C 0.7294 0.99618 0.59373 0.0
C999 C 0.77121 0.02581 0.56774 0.0
H1000 H 0.74519 0.11238 0.5506 0.0
C1001 C 0.87401 0.1302 0.52508 0.0
C1002 C 0.85518 0.14902 0.51678 0.0
C1003 C 0.84781 0.10208 0.53505 0.0
C1004 C 0.75176 0.08719 0.55508 0.0
H1005 H 0.75032 0.10035 0.61449 0.0
H1006 H 0.75461 0.10817 0.59169 0.0
H1007 H 0.71778 0.08879 0.57198 0.0
H1008 H 0.79291 0.14962 0.51163 0.0
H1009 H 0.74644 0.09915 0.52883 0.0
H1010 H 0.80492 0.02398 0.5508 0.0
C1011 C 0.7458 0.07504 0.5957 0.0
C1012 C 0.73667 0.07427 0.56747 0.0
C1013 C 0.74355 0.07072 0.60881 0.0
C1014 C 0.80838 0.13587 0.51798 0.0
C1015 C 0.78193 0.10727 0.52789 0.0
C1016 C 0.78575 0.03824 0.55528 0.0
C1017 C 0.73962 0.03811 0.58798 0.0
C1018 C 0.7479 0.04496 0.57414 0.0
C1019 C 0.80197 0.09177 0.53689 0.0
C1020 C 0.77795 0.07063 0.54897 0.0
H1021 H 0.72089 0.95979 0.61105 0.0
H1022 H 0.72353 0.96672 0.5881 0.0
H1023 H 0.78066 0.00321 0.57253 0.0
H1024 H 0.91015 0.14021 0.52452 0.0
H1025 H 0.8648 0.09143 0.54182 0.0
C1026 C 0.75149 0.72802 0.77266 0.0
C1027 C 0.75928 0.74677 0.78489 0.0
C1028 C 0.76644 0.75672 0.76211 0.0
C1029 C 0.79078 0.87332 0.75384 0.0
H1030 H 0.80967 0.83773 0.72053 0.0
C1031 C 0.80196 0.97815 0.70992 0.0
C1032 C 0.7711 0.952 0.70027 0.0
C1033 C 0.81142 0.95644 0.71973 0.0
C1034 C 0.80459 0.84809 0.7298 0.0
H1035 H 0.79412 0.81087 0.79552 0.0
H1036 H 0.82206 0.86057 0.77719 0.0
H1037 H 0.81144 0.79497 0.73899 0.0
H1038 H 0.7273 0.88285 0.69304 0.0
H1039 H 0.74377 0.8447 0.71029 0.0
H1040 H 0.78344 0.92602 0.74464 0.0
C1041 C 0.80243 0.82359 0.77575 0.0
C1042 C 0.80549 0.82362 0.74037 0.0
C1043 C 0.78681 0.79488 0.78631 0.0
C1044 C 0.75096 0.90376 0.70042 0.0
C1045 C 0.76076 0.88203 0.71019 0.0
C1046 C 0.7905 0.89806 0.74332 0.0
C1047 C 0.7904 0.80496 0.76353 0.0
C1048 C 0.79735 0.83518 0.7525 0.0
C1049 C 0.79044 0.90817 0.72005 0.0
C1050 C 0.79628 0.88501 0.73118 0.0
H1051 H 0.73172 0.69111 0.77119 0.0
H1052 H 0.75649 0.74091 0.75289 0.0
H1053 H 0.78337 0.88277 0.76294 0.0
H1054 H 0.81766 0.01538 0.71013 0.0
H1055 H 0.83452 0.97737 0.7272 0.0
C1056 C 0.99257 0.77243 0.95307 0.0
C1057 C 0.00442 0.73767 0.95324 0.0
C1058 C 0.99112 0.79265 0.94167 0.0
C1059 C 0.01326 0.79286 0.90678 0.0
H1060 H 0.8987 0.7947 0.90444 0.0
C1061 C 0.89142 0.73353 0.86401 0.0
C1062 C 0.86866 0.75788 0.861 0.0
C1063 C 0.92195 0.74733 0.8742 0.0
C1064 C 0.93132 0.79532 0.90494 0.0
H1065 H 0.02936 0.70099 0.9418 0.0
H1066 H 0.02449 0.7339 0.92202 0.0
H1067 H 0.92836 0.79135 0.92498 0.0
H1068 H 0.86148 0.81691 0.86592 0.0
H1069 H 0.91437 0.84057 0.8838 0.0
H1070 H 0.01347 0.79275 0.88654 0.0
C1071 C 0.0167 0.74629 0.93057 0.0
C1072 C 0.9486 0.79364 0.91677 0.0
C1073 C 0.01872 0.72664 0.94195 0.0
C1074 C 0.87891 0.79774 0.86793 0.0
C1075 C 0.90894 0.81117 0.87821 0.0
C1076 C 0.99543 0.79366 0.89493 0.0
C1077 C 1.00103 0.77817 0.93019 0.0
C1078 C 0.9889 0.79061 0.91785 0.0
C1079 C 0.92967 0.78531 0.88165 0.0
C1080 C 0.95354 0.79344 0.89392 0.0
H1081 H 0.98172 0.78208 0.9616 0.0
H1082 H 0.98008 0.81801 0.94179 0.0
H1083 H 0.04503 0.79183 0.90723 0.0
H1084 H 0.88416 0.70276 0.8588 0.0
H1085 H 0.93716 0.72652 0.87674 0.0
C1086 C 0.29279 0.99918 0.10629 0.0
C1087 C 0.26829 0.98697 0.11773 0.0
C1088 C 0.27119 0.99904 0.09506 0.0
C1089 C 0.15382 0.93923 0.08198 0.0
H1090 H 0.22002 0.99919 0.05135 0.0
C1091 C 0.07258 0.86904 0.03398 0.0
C1092 C 0.09925 0.85502 0.02704 0.0
C1093 C 0.0922 0.90042 0.0439 0.0
C1094 C 0.20096 0.98261 0.05985 0.0
H1095 H 0.20311 0.97024 0.12647 0.0
H1096 H 0.16599 0.97208 0.10695 0.0
H1097 H 0.25586 0.0297 0.07183 0.0
H1098 H 0.168 0.86562 0.02432 0.0
H1099 H 0.20247 0.92079 0.04165 0.0
H1100 H 0.09941 0.89168 0.07 0.0
C1101 C 0.20149 0.97985 0.10659 0.0
C1102 C 0.2215 0.99981 0.07159 0.0
C1103 C 0.22299 0.97931 0.11784 0.0
C1104 C 0.14668 0.87571 0.02957 0.0
C1105 C 0.16642 0.90752 0.03941 0.0
C1106 C 0.13305 0.92264 0.07029 0.0
C1107 C 0.22461 0.98749 0.09497 0.0
C1108 C 0.19906 0.97697 0.08279 0.0
C1109 C 0.13892 0.91869 0.04698 0.0
C1110 C 0.15716 0.94296 0.05911 0.0
H1111 H 0.3282 0.00675 0.1059 0.0
H1112 H 0.29037 0.005 0.08638 0.0
H1113 H 0.13547 0.92016 0.0903 0.0
H1114 H 0.03582 0.85335 0.03234 0.0
H1115 H 0.07032 0.90859 0.04958 0.0
C1116 C 0.71098 0.72393 0.55475 0.0
C1117 C 0.73089 0.73538 0.54266 0.0
C1118 C 0.73794 0.74305 0.5655 0.0
C1119 C 0.8589 0.78914 0.5745 0.0
H1120 H 0.81184 0.79215 0.60769 0.0
C1121 C 0.96245 0.80452 0.61883 0.0
C1122 C 0.93792 0.76864 0.6275 0.0
C1123 C 0.93925 0.81361 0.60937 0.0
C1124 C 0.82547 0.79173 0.59846 0.0
H1125 H 0.79409 0.78095 0.5325 0.0
H1126 H 0.84024 0.81573 0.55115 0.0
H1127 H 0.76763 0.78871 0.58897 0.0
H1128 H 0.86978 0.71574 0.63348 0.0
H1129 H 0.82906 0.73139 0.6168 0.0
H1130 H 0.91616 0.79124 0.58396 0.0
C1131 C 0.80414 0.79017 0.55234 0.0
C1132 C 0.80019 0.78963 0.58774 0.0
C1133 C 0.77735 0.77042 0.54158 0.0
C1134 C 0.88953 0.74331 0.62685 0.0
C1135 C 0.86625 0.75263 0.61741 0.0
C1136 C 0.88435 0.79187 0.58517 0.0
C1137 C 0.78537 0.77489 0.56442 0.0
C1138 C 0.81586 0.78667 0.57564 0.0
C1139 C 0.89103 0.78713 0.60841 0.0
C1140 C 0.86722 0.79173 0.59725 0.0
H1141 H 0.67497 0.69842 0.55601 0.0
H1142 H 0.72203 0.73036 0.57461 0.0
H1143 H 0.87184 0.78603 0.56541 0.0
H1144 H 0.9998 0.82436 0.61901 0.0
H1145 H 0.95911 0.84047 0.60256 0.0
C1146 C 0.16261 0.82707 0.80619 0.0
C1147 C 0.17522 0.87301 0.80897 0.0
C1148 C 0.13647 0.80532 0.79544 0.0
C1149 C 0.07056 0.76607 0.77236 0.0
H1150 H 0.13329 0.84657 0.74399 0.0
C1151 C 0.00977 0.73421 0.71982 0.0
C1152 C 0.04429 0.74353 0.71085 0.0
C1153 C 0.02088 0.74295 0.73261 0.0
C1154 C 0.11554 0.82367 0.75182 0.0
H1155 H 0.16687 0.93066 0.80328 0.0
H1156 H 0.12109 0.89257 0.78465 0.0
H1157 H 0.15632 0.87531 0.76539 0.0
H1158 H 0.11701 0.76745 0.70823 0.0
H1159 H 0.13654 0.78322 0.73056 0.0
H1160 H 0.02962 0.71444 0.75859 0.0
C1161 C 0.13169 0.87356 0.79073 0.0
C1162 C 0.12829 0.84026 0.76406 0.0
C1163 C 0.15753 0.89517 0.80148 0.0
C1164 C 0.0897 0.75964 0.71495 0.0
C1165 C 0.1009 0.76897 0.72769 0.0
C1166 C 0.05719 0.74962 0.76004 0.0
C1167 C 0.12284 0.82934 0.7873 0.0
C1168 C 0.10614 0.81164 0.77445 0.0
C1169 C 0.0668 0.76178 0.73658 0.0
C1170 C 0.08003 0.77822 0.74968 0.0
H1171 H 0.17548 0.80906 0.81187 0.0
H1172 H 0.13006 0.77118 0.793 0.0
H1173 H 0.05313 0.74334 0.78024 0.0
H1174 H 0.97444 0.72137 0.71689 0.0
H1175 H 0.99403 0.73725 0.73929 0.0
C1176 C 0.24617 1.00051 0.88171 0.0
C1177 C 0.28482 0.99459 0.88242 0.0
C1178 C 0.22401 0.00231 0.8927 0.0
C1179 C 0.22508 0.99214 0.92806 0.0
H1180 H 0.20839 0.09855 0.9268 0.0
C1181 C 0.27286 0.12565 0.96751 0.0
C1182 C 0.2455 0.14606 0.96934 0.0
C1183 C 0.26122 0.09189 0.95824 0.0
C1184 C 0.21182 0.06809 0.92731 0.0
H1185 H 0.32692 0.98051 0.89515 0.0
H1186 H 0.29041 0.98617 0.91419 0.0
H1187 H 0.2164 0.06538 0.90734 0.0
H1188 H 0.18324 0.14553 0.96342 0.0
H1189 H 0.16324 0.08686 0.94714 0.0
H1190 H 0.22444 0.99795 0.9482 0.0
C1191 C 0.27652 0.98896 0.90523 0.0
C1192 C 0.21625 0.0488 0.91611 0.0
C1193 C 0.29818 0.98655 0.89427 0.0
C1194 C 0.20478 0.13011 0.96228 0.0
C1195 C 0.19343 0.09675 0.95292 0.0
C1196 C 0.22141 0.01199 0.93929 0.0
C1197 C 0.24033 0.99874 0.90464 0.0
C1198 C 0.22482 0.01172 0.91633 0.0
C1199 C 0.22233 0.07841 0.95055 0.0
C1200 C 0.21636 0.05114 0.939 0.0
H1201 H 0.2346 0.00645 0.87276 0.0
H1202 H 0.19547 0.00871 0.89185 0.0
H1203 H 0.2304 0.96284 0.92861 0.0
H1204 H 0.30431 0.13723 0.97287 0.0
H1205 H 0.28436 0.07865 0.95653 0.0
C1206 C 0.287 0.27041 0.05403 0.0
C1207 C 0.26485 0.25919 0.04224 0.0
C1208 C 0.2624 0.24982 0.06501 0.0
C1209 C 0.14306 0.20102 0.07571 0.0
H1210 H 0.19769 0.20179 0.108 0.0
C1211 C 0.05035 0.19277 0.12163 0.0
C1212 C 0.07714 0.22989 0.12978 0.0
C1213 C 0.07105 0.18165 0.11189 0.0
C1214 C 0.18192 0.20108 0.09903 0.0
H1215 H 0.20068 0.21261 0.03268 0.0
H1216 H 0.15848 0.17519 0.05174 0.0
H1217 H 0.23785 0.20382 0.08854 0.0
H1218 H 0.1468 0.2829 0.13453 0.0
H1219 H 0.18309 0.26383 0.11732 0.0
H1220 H 0.08782 0.19946 0.08616 0.0
C1221 C 0.19444 0.2016 0.05255 0.0
C1222 C 0.20487 0.20235 0.08788 0.0
C1223 C 0.2189 0.22282 0.04156 0.0
C1224 C 0.12531 0.25442 0.12831 0.0
C1225 C 0.14608 0.24312 0.11858 0.0
C1226 C 0.11994 0.19912 0.08681 0.0
C1227 C 0.21516 0.21677 0.06446 0.0
C1228 C 0.1866 0.20428 0.07609 0.0
C1229 C 0.11898 0.20735 0.1101 0.0
C1230 C 0.1399 0.20085 0.09856 0.0
H1231 H 0.32282 0.29704 0.05489 0.0
H1232 H 0.27979 0.26249 0.07396 0.0
H1233 H 0.12808 0.20325 0.06688 0.0
H1234 H 0.01309 0.17347 0.12242 0.0
H1235 H 0.04942 0.15385 0.10551 0.0
C1236 C 0.93283 0.24313 0.21791 0.0
C1237 C 0.97846 0.25852 0.21411 0.0
C1238 C 0.92 0.23218 0.2305 0.0
C1239 C 0.95885 0.24644 0.26313 0.0
H1240 H 0.8568 0.12132 0.26703 0.0
C1241 C 0.84947 0.09823 0.30319 0.0
C1242 C 0.83184 0.12066 0.31063 0.0
C1243 C 0.87668 0.12013 0.29267 0.0
C1244 C 0.88561 0.15618 0.26611 0.0
H1245 H 0.04702 0.27738 0.22059 0.0
H1246 H 0.02454 0.25865 0.24277 0.0
H1247 H 0.88409 0.15191 0.24599 0.0
H1248 H 0.83257 0.1851 0.31358 0.0
H1249 H 0.8804 0.22349 0.2951 0.0
H1250 H 0.95932 0.25076 0.28336 0.0
C1251 C 0.99883 0.25484 0.23594 0.0
C1252 C 0.90085 0.17381 0.25407 0.0
C1253 C 0.01157 0.26523 0.22328 0.0
C1254 C 0.84539 0.16689 0.30795 0.0
C1255 C 0.87294 0.18893 0.29744 0.0
C1256 C 0.94298 0.22897 0.27524 0.0
C1257 C 0.95265 0.23694 0.23956 0.0
C1258 C 0.9374 0.2191 0.25246 0.0
C1259 C 0.88701 0.16493 0.2894 0.0
C1260 C 0.90626 0.1836 0.27681 0.0
H1261 H 0.90648 0.23718 0.21105 0.0
H1262 H 0.8842 0.21864 0.23311 0.0
H1263 H 0.98715 0.28149 0.26208 0.0
H1264 H 0.83938 0.06251 0.3049 0.0
H1265 H 0.88751 0.10107 0.28667 0.0
C1266 C 0.71679 0.01956 0.39609 0.0
C1267 C 0.7289 0.00941 0.38432 0.0
C1268 C 0.73944 0.01883 0.40702 0.0
C1269 C 0.79748 0.95747 0.41802 0.0
H1270 H 0.78818 0.00841 0.45002 0.0
C1271 C 0.7965 0.86934 0.46394 0.0
C1272 C 0.75508 0.85496 0.47056 0.0
C1273 C 0.81134 0.90411 0.45488 0.0
C1274 C 0.79158 0.99436 0.44114 0.0
H1275 H 0.77834 0.99635 0.37465 0.0
H1276 H 0.81923 0.99696 0.39368 0.0
H1277 H 0.78598 0.04531 0.43038 0.0
H1278 H 0.69868 0.86806 0.47361 0.0
H1279 H 0.72451 0.92882 0.45771 0.0
H1280 H 0.80165 0.9058 0.42876 0.0
C1281 C 0.79086 0.00364 0.39452 0.0
C1282 C 0.7901 0.01527 0.42989 0.0
C1283 C 0.76768 0.00374 0.38357 0.0
C1284 C 0.73052 0.87825 0.46857 0.0
C1285 C 0.7456 0.91333 0.45958 0.0
C1286 C 0.79973 0.93711 0.42925 0.0
C1287 C 0.77535 0.00863 0.40645 0.0
C1288 C 0.79042 0.99552 0.41818 0.0
C1289 C 0.78521 0.92536 0.45232 0.0
C1290 C 0.79451 0.95399 0.44089 0.0
H1291 H 0.68802 0.02558 0.39696 0.0
H1292 H 0.72621 0.02281 0.41596 0.0
H1293 H 0.79738 0.94077 0.40927 0.0
H1294 H 0.81599 0.85178 0.46516 0.0
H1295 H 0.84202 0.91282 0.44943 0.0
loop_
_geom_bond_atom_site_label_1
_geom_bond_atom_site_label_2
_geom_bond_distance
_geom_bond_site_symmetry_2
_ccdc_geom_bond_type
C0 C1 1.351 . S
C0 N3 1.368 . S
C0 H5 0.931 . S
C1 C0 1.351 . S
C1 N2 1.373 . S
C1 H29 0.930 . S
N2 C1 1.373 . S
N2 C4 1.340 . S
N3 C0 1.368 . S
N3 C4 1.321 . S
N3 Co6 2.135 . S
C4 N2 1.340 . S
C4 N3 1.321 . S
C4 H28 0.930 . S
H5 C0 0.931 . S
Co6 N3 2.135 . S
Co6 N9 2.121 . S
Co6 O14 2.055 . S
Co6 O17 2.039 . S
Co6 N20 2.140 . S
C7 O8 1.227 . S
C7 O17 1.265 . S
O8 C7 1.227 . S
N9 Co6 2.121 . S
N9 C11 1.375 . S
N9 C12 1.313 . S
C10 C11 1.338 . S
C10 N13 1.377 . S
C10 H30 0.930 . S
C11 N9 1.375 . S
C11 C10 1.338 . S
C11 H15 0.931 . S
C12 N9 1.313 . S
C12 N13 1.344 . S
C12 H16 0.930 . S
N13 C10 1.377 . S
N13 C12 1.344 . S
O14 Co6 2.055 . S
O14 C18 1.253 . S
H15 C11 0.931 . S
H16 C12 0.930 . S
O17 Co6 2.039 . S
O17 C7 1.265 . S
C18 O14 1.253 . S
C18 O19 1.227 . S
O19 C18 1.227 . S
N20 Co6 2.140 . S
N20 C23 1.346 . S
N20 C24 1.345 . S
C21 C22 1.387 . S
C21 C25 1.391 . S
C22 C21 1.387 . S
C22 C23 1.369 . S
C22 H31 0.929 . S
C23 N20 1.346 . S
C23 C22 1.369 . S
C23 H26 0.928 . S
C24 N20 1.345 . S
C24 C25 1.371 . S
C24 H27 0.931 . S
C25 C21 1.391 . S
C25 C24 1.371 . S
C25 H32 0.930 . S
H26 C23 0.928 . S
H27 C24 0.931 . S
H28 C4 0.930 . S
H29 C1 0.930 . S
H30 C10 0.930 . S
H31 C22 0.929 . S
H32 C25 0.930 . S
C33 C34 1.351 . S
C33 N36 1.368 . S
C33 H38 0.931 . S
C34 C33 1.351 . S
C34 N35 1.373 . S
C34 H62 0.930 . S
N35 C34 1.373 . S
N35 C37 1.340 . S
N36 C33 1.368 . S
N36 C37 1.321 . S
N36 Co39 2.135 . S
C37 N35 1.340 . S
C37 N36 1.321 . S
C37 H61 0.930 1_455 S
H38 C33 0.931 . S
Co39 N36 2.135 . S
Co39 N42 2.121 . S
Co39 O47 2.055 . S
Co39 O50 2.039 1_455 S
Co39 N53 2.140 1_455 S
C40 O41 1.227 . S
C40 O50 1.265 . S
O41 C40 1.227 . S
N42 Co39 2.121 . S
N42 C44 1.375 1_455 S
N42 C45 1.313 . S
C43 C44 1.338 . S
C43 N46 1.377 1_655 S
C43 H63 0.930 . S
C44 N42 1.375 1_655 S
C44 C43 1.338 . S
C44 H48 0.931 . S
C45 N42 1.313 . S
C45 N46 1.344 . S
C45 H49 0.930 . S
N46 C43 1.377 1_455 S
N46 C45 1.344 . S
O47 Co39 2.055 . S
O47 C51 1.253 . S
H48 C44 0.931 . S
H49 C45 0.930 . S
O50 Co39 2.039 1_655 S
O50 C40 1.265 . S
C51 O47 1.253 . S
C51 O52 1.227 . S
O52 C51 1.227 . S
N53 Co39 2.140 1_655 S
N53 C56 1.346 . S
N53 C57 1.345 . S
C54 C55 1.387 . S
C54 C58 1.391 . S
C55 C54 1.387 . S
C55 C56 1.369 . S
C55 H64 0.929 . S
C56 N53 1.346 . S
C56 C55 1.369 . S
C56 H59 0.928 . S
C57 N53 1.345 . S
C57 C58 1.371 . S
C57 H60 0.931 1_655 S
C58 C54 1.391 . S
C58 C57 1.371 . S
C58 H65 0.930 . S
H59 C56 0.928 . S
H60 C57 0.931 1_455 S
H61 C37 0.930 1_655 S
H62 C34 0.930 . S
H63 C43 0.930 . S
H64 C55 0.929 . S
H65 C58 0.930 . S
C66 C67 1.351 . S
C66 N69 1.368 . S
C66 H71 0.931 . S
C67 C66 1.351 . S
C67 N68 1.373 . S
C67 H95 0.930 . S
N68 C67 1.373 . S
N68 C70 1.340 . S
N69 C66 1.368 . S
N69 C70 1.321 . S
N69 Co72 2.135 . S
C70 N68 1.340 . S
C70 N69 1.321 . S
C70 H94 0.930 1_545 S
H71 C66 0.931 . S
Co72 N69 2.135 . S
Co72 N75 2.121 . S
Co72 O80 2.055 . S
Co72 O83 2.039 1_545 S
Co72 N86 2.140 1_545 S
C73 O74 1.227 . S
C73 O83 1.265 . S
O74 C73 1.227 . S
N75 Co72 2.121 . S
N75 C77 1.375 1_545 S
N75 C78 1.313 . S
C76 C77 1.338 . S
C76 N79 1.377 1_565 S
C76 H96 0.930 . S
C77 N75 1.375 1_565 S
C77 C76 1.338 . S
C77 H81 0.931 . S
C78 N75 1.313 . S
C78 N79 1.344 . S
C78 H82 0.930 . S
N79 C76 1.377 1_545 S
N79 C78 1.344 . S
O80 Co72 2.055 . S
O80 C84 1.253 . S
H81 C77 0.931 . S
H82 C78 0.930 . S
O83 Co72 2.039 1_565 S
O83 C73 1.265 . S
C84 O80 1.253 . S
C84 O85 1.227 . S
O85 C84 1.227 . S
N86 Co72 2.140 1_565 S
N86 C89 1.346 . S
N86 C90 1.345 . S
C87 C88 1.387 . S
C87 C91 1.391 . S
C88 C87 1.387 . S
C88 C89 1.369 . S
C88 H97 0.929 . S
C89 N86 1.346 . S
C89 C88 1.369 . S
C89 H92 0.928 . S
C90 N86 1.345 . S
C90 C91 1.371 . S
C90 H93 0.931 1_565 S
C91 C87 1.391 . S
C91 C90 1.371 . S
C91 H98 0.930 . S
H92 C89 0.928 . S
H93 C90 0.931 1_545 S
H94 C70 0.930 1_565 S
H95 C67 0.930 . S
H96 C76 0.930 . S
H97 C88 0.929 . S
H98 C91 0.930 . S
C99 C100 1.351 . S
C99 N102 1.368 . S
C99 H104 0.931 . S
C100 C99 1.351 . S
C100 N101 1.373 . S
C100 H128 0.930 . S
N101 C100 1.373 . S
N101 C103 1.340 . S
N102 C99 1.368 . S
N102 C103 1.321 . S
N102 Co105 2.135 . S
C103 N101 1.340 . S
C103 N102 1.321 . S
C103 H127 0.930 . S
H104 C99 0.931 . S
Co105 N102 2.135 . S
Co105 N108 2.121 . S
Co105 O113 2.055 . S
Co105 O116 2.039 . S
Co105 N119 2.140 . S
C106 O107 1.227 . S
C106 O116 1.265 . S
O107 C106 1.227 . S
N108 Co105 2.121 . S
N108 C110 1.375 . S
N108 C111 1.313 . S
C109 C110 1.338 . S
C109 N112 1.377 . S
C109 H129 0.930 . S
C110 N108 1.375 . S
C110 C109 1.338 . S
C110 H114 0.931 . S
C111 N108 1.313 . S
C111 N112 1.344 . S
C111 H115 0.930 . S
N112 C109 1.377 . S
N112 C111 1.344 . S
O113 Co105 2.055 . S
O113 C117 1.253 . S
H114 C110 0.931 . S
H115 C111 0.930 . S
O116 Co105 2.039 . S
O116 C106 1.265 . S
C117 O113 1.253 . S
C117 O118 1.227 . S
O118 C117 1.227 . S
N119 Co105 2.140 . S
N119 C122 1.346 . S
N119 C123 1.345 . S
C120 C121 1.387 . S
C120 C124 1.391 . S
C121 C120 1.387 . S
C121 C122 1.369 . S
C121 H130 0.929 . S
C122 N119 1.346 . S
C122 C121 1.369 . S
C122 H125 0.928 . S
C123 N119 1.345 . S
C123 C124 1.371 . S
C123 H126 0.931 . S
C124 C120 1.391 . S
C124 C123 1.371 . S
C124 H131 0.930 . S
H125 C122 0.928 . S
H126 C123 0.931 . S
H127 C103 0.930 . S
H128 C100 0.930 . S
H129 C109 0.930 . S
H130 C121 0.929 . S
H131 C124 0.930 . S
C132 C133 1.351 . S
C132 N135 1.368 . S
C132 H137 0.931 . S
C133 C132 1.351 . S
C133 N134 1.373 . S
C133 H161 0.930 . S
N134 C133 1.373 . S
N134 C136 1.340 . S
N135 C132 1.368 . S
N135 C136 1.321 . S
N135 Co138 2.135 . S
C136 N134 1.340 . S
C136 N135 1.321 . S
C136 H160 0.930 1_655 S
H137 C132 0.931 . S
Co138 N135 2.135 . S
Co138 N141 2.121 1_554 S
Co138 O146 2.055 . S
Co138 O149 2.039 1_655 S
Co138 N152 2.140 1_655 S
C139 O140 1.227 . S
C139 O149 1.265 . S
O140 C139 1.227 . S
N141 Co138 2.121 1_556 S
N141 C143 1.375 1_655 S
N141 C144 1.313 . S
C142 C143 1.338 . S
C142 N145 1.377 1_455 S
C142 H162 0.930 . S
C143 N141 1.375 1_455 S
C143 C142 1.338 . S
C143 H147 0.931 . S
C144 N141 1.313 . S
C144 N145 1.344 . S
C144 H148 0.930 . S
N145 C142 1.377 1_655 S
N145 C144 1.344 . S
O146 Co138 2.055 . S
O146 C150 1.253 . S
H147 C143 0.931 . S
H148 C144 0.930 . S
O149 Co138 2.039 1_455 S
O149 C139 1.265 . S
C150 O146 1.253 . S
C150 O151 1.227 . S
O151 C150 1.227 . S
N152 Co138 2.140 1_455 S
N152 C155 1.346 . S
N152 C156 1.345 . S
C153 C154 1.387 . S
C153 C157 1.391 . S
C154 C153 1.387 . S
C154 C155 1.369 . S
C154 H163 0.929 . S
C155 N152 1.346 . S
C155 C154 1.369 . S
C155 H158 0.928 . S
C156 N152 1.345 . S
C156 C157 1.371 . S
C156 H159 0.931 1_455 S
C157 C153 1.391 . S
C157 C156 1.371 . S
C157 H164 0.930 . S
H158 C155 0.928 . S
H159 C156 0.931 1_655 S
H160 C136 0.930 1_455 S
H161 C133 0.930 . S
H162 C142 0.930 . S
H163 C154 0.929 . S
H164 C157 0.930 . S
C165 C166 1.351 . S
C165 N168 1.368 . S
C165 H170 0.931 . S
C166 C165 1.351 . S
C166 N167 1.373 . S
C166 H194 0.930 . S
N167 C166 1.373 . S
N167 C169 1.340 . S
N168 C165 1.368 . S
N168 C169 1.321 . S
N168 Co171 2.135 . S
C169 N167 1.340 . S
C169 N168 1.321 . S
C169 H193 0.930 1_565 S
H170 C165 0.931 . S
Co171 N168 2.135 . S
Co171 N174 2.121 . S
Co171 O179 2.055 . S
Co171 O182 2.039 1_565 S
Co171 N185 2.140 1_565 S
C172 O173 1.227 . S
C172 O182 1.265 . S
O173 C172 1.227 . S
N174 Co171 2.121 . S
N174 C176 1.375 1_565 S
N174 C177 1.313 . S
C175 C176 1.338 . S
C175 N178 1.377 1_545 S
C175 H195 0.930 . S
C176 N174 1.375 1_545 S
C176 C175 1.338 . S
C176 H180 0.931 . S
C177 N174 1.313 . S
C177 N178 1.344 . S
C177 H181 0.930 . S
N178 C175 1.377 1_565 S
N178 C177 1.344 . S
O179 Co171 2.055 . S
O179 C183 1.253 . S
H180 C176 0.931 . S
H181 C177 0.930 . S
O182 Co171 2.039 1_545 S
O182 C172 1.265 . S
C183 O179 1.253 . S
C183 O184 1.227 . S
O184 C183 1.227 . S
N185 Co171 2.140 1_545 S
N185 C188 1.346 . S
N185 C189 1.345 . S
C186 C187 1.387 . S
C186 C190 1.391 . S
C187 C186 1.387 . S
C187 C188 1.369 . S
C187 H196 0.929 . S
C188 N185 1.346 . S
C188 C187 1.369 . S
C188 H191 0.928 . S
C189 N185 1.345 . S
C189 C190 1.371 . S
C189 H192 0.931 1_545 S
C190 C186 1.391 . S
C190 C189 1.371 . S
C190 H197 0.930 . S
H191 C188 0.928 . S
H192 C189 0.931 1_565 S
H193 C169 0.930 1_545 S
H194 C166 0.930 . S
H195 C175 0.930 . S
H196 C187 0.929 . S
H197 C190 0.930 . S
C198 C199 1.351 . S
C198 N201 1.368 . S
C198 H203 0.931 . S
C199 C198 1.351 . S
C199 N200 1.373 . S
C199 H227 0.930 . S
N200 C199 1.373 . S
N200 C202 1.340 . S
N201 C198 1.368 . S
N201 C202 1.321 . S
N201 Co204 2.135 . S
C202 N200 1.340 . S
C202 N201 1.321 . S
C202 H226 0.930 . S
H203 C198 0.931 . S
Co204 N201 2.135 . S
Co204 N207 2.121 . S
Co204 O212 2.055 . S
Co204 O215 2.039 . S
Co204 N218 2.140 . S
C205 O206 1.227 . S
C205 O215 1.265 . S
O206 C205 1.227 . S
N207 Co204 2.121 . S
N207 C209 1.375 . S
N207 C210 1.313 . S
C208 C209 1.338 . S
C208 N211 1.377 . S
C208 H228 0.930 . S
C209 N207 1.375 . S
C209 C208 1.338 . S
C209 H213 0.931 . S
C210 N207 1.313 . S
C210 N211 1.344 . S
C210 H214 0.930 . S
N211 C208 1.377 . S
N211 C210 1.344 . S
O212 Co204 2.055 . S
O212 C216 1.253 . S
H213 C209 0.931 . S
H214 C210 0.930 . S
O215 Co204 2.039 . S
O215 C205 1.265 . S
C216 O212 1.253 . S
C216 O217 1.227 . S
O217 C216 1.227 . S
N218 Co204 2.140 . S
N218 C221 1.346 . S
N218 C222 1.345 . S
C219 C220 1.387 . S
C219 C223 1.391 . S
C220 C219 1.387 . S
C220 C221 1.369 . S
C220 H229 0.929 . S
C221 N218 1.346 . S
C221 C220 1.369 . S
C221 H224 0.928 . S
C222 N218 1.345 . S
C222 C223 1.371 . S
C222 H225 0.931 . S
C223 C219 1.391 . S
C223 C222 1.371 . S
C223 H230 0.930 . S
H224 C221 0.928 . S
H225 C222 0.931 . S
H226 C202 0.930 . S
H227 C199 0.930 . S
H228 C208 0.930 . S
H229 C220 0.929 . S
H230 C223 0.930 . S
C231 C232 1.351 . S
C231 N234 1.368 . S
C231 H236 0.931 . S
C232 C231 1.351 . S
C232 N233 1.373 . S
C232 H260 0.930 . S
N233 C232 1.373 . S
N233 C235 1.340 . S
N234 C231 1.368 . S
N234 C235 1.321 . S
N234 Co237 2.135 . S
C235 N233 1.340 . S
C235 N234 1.321 . S
C235 H259 0.930 1_455 S
H236 C231 0.931 . S
Co237 N234 2.135 . S
Co237 N240 2.121 . S
Co237 O245 2.055 . S
Co237 O248 2.039 1_455 S
Co237 N251 2.140 1_455 S
C238 O239 1.227 . S
C238 O248 1.265 . S
O239 C238 1.227 . S
N240 Co237 2.121 . S
N240 C242 1.375 1_455 S
N240 C243 1.313 . S
C241 C242 1.338 . S
C241 N244 1.377 1_655 S
C241 H261 0.930 . S
C242 N240 1.375 1_655 S
C242 C241 1.338 . S
C242 H246 0.931 . S
C243 N240 1.313 . S
C243 N244 1.344 . S
C243 H247 0.930 . S
N244 C241 1.377 1_455 S
N244 C243 1.344 . S
O245 Co237 2.055 . S
O245 C249 1.253 . S
H246 C242 0.931 . S
H247 C243 0.930 . S
O248 Co237 2.039 1_655 S
O248 C238 1.265 . S
C249 O245 1.253 . S
C249 O250 1.227 . S
O250 C249 1.227 . S
N251 Co237 2.140 1_655 S
N251 C254 1.346 . S
N251 C255 1.345 . S
C252 C253 1.387 . S
C252 C256 1.391 . S
C253 C252 1.387 . S
C253 C254 1.369 . S
C253 H262 0.929 . S
C254 N251 1.346 . S
C254 C253 1.369 . S
C254 H257 0.928 . S
C255 N251 1.345 . S
C255 C256 1.371 . S
C255 H258 0.931 1_655 S
C256 C252 1.391 . S
C256 C255 1.371 . S
C256 H263 0.930 . S
H257 C254 0.928 . S
H258 C255 0.931 1_455 S
H259 C235 0.930 1_655 S
H260 C232 0.930 . S
H261 C241 0.930 . S
H262 C253 0.929 . S
H263 C256 0.930 . S
C264 C265 1.351 . S
C264 N267 1.368 . S
C264 H269 0.931 . S
C265 C264 1.351 . S
C265 N266 1.373 . S
C265 H293 0.930 . S
N266 C265 1.373 . S
N266 C268 1.340 . S
N267 C264 1.368 . S
N267 C268 1.321 . S
N267 Co270 2.135 . S
C268 N266 1.340 . S
C268 N267 1.321 . S
C268 H292 0.930 1_545 S
H269 C264 0.931 . S
Co270 N267 2.135 . S
Co270 N273 2.121 . S
Co270 O278 2.055 . S
Co270 O281 2.039 1_545 S
Co270 N284 2.140 1_545 S
C271 O272 1.227 . S
C271 O281 1.265 . S
O272 C271 1.227 . S
N273 Co270 2.121 . S
N273 C275 1.375 1_545 S
N273 C276 1.313 . S
C274 C275 1.338 . S
C274 N277 1.377 1_565 S
C274 H294 0.930 . S
C275 N273 1.375 1_565 S
C275 C274 1.338 . S
C275 H279 0.931 . S
C276 N273 1.313 . S
C276 N277 1.344 . S
C276 H280 0.930 . S
N277 C274 1.377 1_545 S
N277 C276 1.344 . S
O278 Co270 2.055 . S
O278 C282 1.253 . S
H279 C275 0.931 . S
H280 C276 0.930 . S
O281 Co270 2.039 1_565 S
O281 C271 1.265 . S
C282 O278 1.253 . S
C282 O283 1.227 . S
O283 C282 1.227 . S
N284 Co270 2.140 1_565 S
N284 C287 1.346 . S
N284 C288 1.345 . S
C285 C286 1.387 . S
C285 C289 1.391 . S
C286 C285 1.387 . S
C286 C287 1.369 . S
C286 H295 0.929 . S
C287 N284 1.346 . S
C287 C286 1.369 . S
C287 H290 0.928 . S
C288 N284 1.345 . S
C288 C289 1.371 . S
C288 H291 0.931 1_565 S
C289 C285 1.391 . S
C289 C288 1.371 . S
C289 H296 0.930 . S
H290 C287 0.928 . S
H291 C288 0.931 1_545 S
H292 C268 0.930 1_565 S
H293 C265 0.930 . S
H294 C274 0.930 . S
H295 C286 0.929 . S
H296 C289 0.930 . S
C297 C298 1.351 . S
C297 N300 1.368 . S
C297 H302 0.931 . S
C298 C297 1.351 . S
C298 N299 1.373 . S
C298 H326 0.930 . S
N299 C298 1.373 . S
N299 C301 1.340 . S
N300 C297 1.368 . S
N300 C301 1.321 . S
N300 Co303 2.135 . S
C301 N299 1.340 . S
C301 N300 1.321 . S
C301 H325 0.930 . S
H302 C297 0.931 . S
Co303 N300 2.135 . S
Co303 N306 2.121 1_556 S
Co303 O311 2.055 . S
Co303 O314 2.039 . S
Co303 N317 2.140 . S
C304 O305 1.227 . S
C304 O314 1.265 . S
O305 C304 1.227 . S
N306 Co303 2.121 1_554 S
N306 C308 1.375 . S
N306 C309 1.313 . S
C307 C308 1.338 . S
C307 N310 1.377 . S
C307 H327 0.930 . S
C308 N306 1.375 . S
C308 C307 1.338 . S
C308 H312 0.931 . S
C309 N306 1.313 . S
C309 N310 1.344 . S
C309 H313 0.930 . S
N310 C307 1.377 . S
N310 C309 1.344 . S
O311 Co303 2.055 . S
O311 C315 1.253 . S
H312 C308 0.931 . S
H313 C309 0.930 . S
O314 Co303 2.039 . S
O314 C304 1.265 . S
C315 O311 1.253 . S
C315 O316 1.227 . S
O316 C315 1.227 . S
N317 Co303 2.140 . S
N317 C320 1.346 . S
N317 C321 1.345 . S
C318 C319 1.387 . S
C318 C322 1.391 . S
C319 C318 1.387 . S
C319 C320 1.369 . S
C319 H328 0.929 . S
C320 N317 1.346 . S
C320 C319 1.369 . S
C320 H323 0.928 . S
C321 N317 1.345 . S
C321 C322 1.371 . S
C321 H324 0.931 . S
C322 C318 1.391 . S
C322 C321 1.371 . S
C322 H329 0.930 . S
H323 C320 0.928 . S
H324 C321 0.931 . S
H325 C301 0.930 . S
H326 C298 0.930 . S
H327 C307 0.930 . S
H328 C319 0.929 . S
H329 C322 0.930 . S
C330 C331 1.351 . S
C330 N333 1.368 . S
C330 H335 0.931 . S
C331 C330 1.351 . S
C331 N332 1.373 . S
C331 H359 0.930 . S
N332 C331 1.373 . S
N332 C334 1.340 . S
N333 C330 1.368 . S
N333 C334 1.321 . S
N333 Co336 2.135 . S
C334 N332 1.340 . S
C334 N333 1.321 . S
C334 H358 0.930 1_655 S
H335 C330 0.931 . S
Co336 N333 2.135 . S
Co336 N339 2.121 . S
Co336 O344 2.055 . S
Co336 O347 2.039 1_655 S
Co336 N350 2.140 1_655 S
C337 O338 1.227 . S
C337 O347 1.265 . S
O338 C337 1.227 . S
N339 Co336 2.121 . S
N339 C341 1.375 1_655 S
N339 C342 1.313 . S
C340 C341 1.338 . S
C340 N343 1.377 1_455 S
C340 H360 0.930 . S
C341 N339 1.375 1_455 S
C341 C340 1.338 . S
C341 H345 0.931 . S
C342 N339 1.313 . S
C342 N343 1.344 . S
C342 H346 0.930 . S
N343 C340 1.377 1_655 S
N343 C342 1.344 . S
O344 Co336 2.055 . S
O344 C348 1.253 . S
H345 C341 0.931 . S
H346 C342 0.930 . S
O347 Co336 2.039 1_455 S
O347 C337 1.265 . S
C348 O344 1.253 . S
C348 O349 1.227 . S
O349 C348 1.227 . S
N350 Co336 2.140 1_455 S
N350 C353 1.346 . S
N350 C354 1.345 . S
C351 C352 1.387 . S
C351 C355 1.391 . S
C352 C351 1.387 . S
C352 C353 1.369 . S
C352 H361 0.929 . S
C353 N350 1.346 . S
C353 C352 1.369 . S
C353 H356 0.928 . S
C354 N350 1.345 . S
C354 C355 1.371 . S
C354 H357 0.931 1_455 S
C355 C351 1.391 . S
C355 C354 1.371 . S
C355 H362 0.930 . S
H356 C353 0.928 . S
H357 C354 0.931 1_655 S
H358 C334 0.930 1_455 S
H359 C331 0.930 . S
H360 C340 0.930 . S
H361 C352 0.929 . S
H362 C355 0.930 . S
C363 C364 1.351 . S
C363 N366 1.368 . S
C363 H368 0.931 . S
C364 C363 1.351 . S
C364 N365 1.373 . S
C364 H392 0.930 . S
N365 C364 1.373 . S
N365 C367 1.340 . S
N366 C363 1.368 . S
N366 C367 1.321 . S
N366 Co369 2.135 . S
C367 N365 1.340 . S
C367 N366 1.321 . S
C367 H391 0.930 1_565 S
H368 C363 0.931 . S
Co369 N366 2.135 . S
Co369 N372 2.121 . S
Co369 O377 2.055 . S
Co369 O380 2.039 1_565 S
Co369 N383 2.140 1_565 S
C370 O371 1.227 . S
C370 O380 1.265 . S
O371 C370 1.227 . S
N372 Co369 2.121 . S
N372 C374 1.375 1_565 S
N372 C375 1.313 . S
C373 C374 1.338 . S
C373 N376 1.377 1_545 S
C373 H393 0.930 . S
C374 N372 1.375 1_545 S
C374 C373 1.338 . S
C374 H378 0.931 . S
C375 N372 1.313 . S
C375 N376 1.344 . S
C375 H379 0.930 . S
N376 C373 1.377 1_565 S
N376 C375 1.344 . S
O377 Co369 2.055 . S
O377 C381 1.253 . S
H378 C374 0.931 . S
H379 C375 0.930 . S
O380 Co369 2.039 1_545 S
O380 C370 1.265 . S
C381 O377 1.253 . S
C381 O382 1.227 . S
O382 C381 1.227 . S
N383 Co369 2.140 1_545 S
N383 C386 1.346 . S
N383 C387 1.345 . S
C384 C385 1.387 . S
C384 C388 1.391 . S
C385 C384 1.387 . S
C385 C386 1.369 . S
C385 H394 0.929 . S
C386 N383 1.346 . S
C386 C385 1.369 . S
C386 H389 0.928 . S
C387 N383 1.345 . S
C387 C388 1.371 . S
C387 H390 0.931 1_545 S
C388 C384 1.391 . S
C388 C387 1.371 . S
C388 H395 0.930 . S
H389 C386 0.928 . S
H390 C387 0.931 1_565 S
H391 C367 0.930 1_545 S
H392 C364 0.930 . S
H393 C373 0.930 . S
H394 C385 0.929 . S
H395 C388 0.930 . S
C396 C397 1.349 . S
C396 C398 1.327 . S
C396 H421 0.950 . S
C397 C396 1.349 . S
C397 C413 1.349 . S
C398 C396 1.327 . S
C398 C417 1.429 . S
C398 H422 0.950 . S
C399 C416 1.574 . S
C399 C418 1.368 . S
C399 H423 0.949 . S
H400 C404 0.949 . S
C401 C402 1.349 . S
C401 C403 1.327 . S
C401 H424 0.950 . S
C402 C401 1.349 . S
C402 C414 1.349 . S
C403 C401 1.327 . S
C403 C419 1.429 . S
C403 H425 0.950 . S
C404 H400 0.949 . S
C404 C412 1.574 . S
C404 C420 1.368 . S
H405 C413 0.950 . S
H406 C411 0.950 . S
H407 C412 0.949 . S
H408 C414 0.950 . S
H409 C415 0.950 . S
H410 C416 0.949 . S
C411 H406 0.950 . S
C411 C413 1.327 . S
C411 C417 1.429 . S
C412 C404 1.574 . S
C412 H407 0.949 . S
C412 C418 1.368 . S
C413 C397 1.349 . S
C413 H405 0.950 . S
C413 C411 1.327 . S
C414 C402 1.349 . S
C414 H408 0.950 . S
C414 C415 1.327 . S
C415 H409 0.950 . S
C415 C414 1.327 . S
C415 C419 1.429 . S
C416 C399 1.574 . S
C416 H410 0.949 . S
C416 C420 1.368 . S
C417 C398 1.429 . S
C417 C411 1.429 . S
C417 C418 1.523 . S
C418 C399 1.368 . S
C418 C412 1.368 . S
C418 C417 1.523 . S
C419 C403 1.429 . S
C419 C415 1.429 . S
C419 C420 1.523 . S
C420 C404 1.368 . S
C420 C416 1.368 . S
C420 C419 1.523 . S
H421 C396 0.950 . S
H422 C398 0.950 . S
H423 C399 0.949 . S
H424 C401 0.950 . S
H425 C403 0.950 . S
C426 C427 1.349 . S
C426 C428 1.327 . S
C426 H451 0.950 . S
C427 C426 1.349 . S
C427 C443 1.349 . S
C428 C426 1.327 . S
C428 C447 1.429 . S
C428 H452 0.950 . S
C429 C446 1.574 . S
C429 C448 1.368 . S
C429 H453 0.949 . S
H430 C434 0.949 . S
C431 C432 1.349 . S
C431 C433 1.327 . S
C431 H454 0.950 . S
C432 C431 1.349 . S
C432 C444 1.349 . S
C433 C431 1.327 . S
C433 C449 1.429 . S
C433 H455 0.950 . S
C434 H430 0.949 . S
C434 C442 1.574 . S
C434 C450 1.368 . S
H435 C443 0.950 . S
H436 C441 0.950 . S
H437 C442 0.949 . S
H438 C444 0.950 . S
H439 C445 0.950 . S
H440 C446 0.949 . S
C441 H436 0.950 . S
C441 C443 1.327 . S
C441 C447 1.429 . S
C442 C434 1.574 . S
C442 H437 0.949 . S
C442 C448 1.368 . S
C443 C427 1.349 . S
C443 H435 0.950 . S
C443 C441 1.327 . S
C444 C432 1.349 . S
C444 H438 0.950 . S
C444 C445 1.327 . S
C445 H439 0.950 . S
C445 C444 1.327 . S
C445 C449 1.429 . S
C446 C429 1.574 . S
C446 H440 0.949 . S
C446 C450 1.368 . S
C447 C428 1.429 . S
C447 C441 1.429 . S
C447 C448 1.523 . S
C448 C429 1.368 . S
C448 C442 1.368 . S
C448 C447 1.523 . S
C449 C433 1.429 . S
C449 C445 1.429 . S
C449 C450 1.523 . S
C450 C434 1.368 . S
C450 C446 1.368 . S
C450 C449 1.523 . S
H451 C426 0.950 . S
H452 C428 0.950 . S
H453 C429 0.949 . S
H454 C431 0.950 . S
H455 C433 0.950 . S
C456 C457 1.349 . S
C456 C458 1.327 . S
C456 H481 0.950 . S
C457 C456 1.349 . S
C457 C473 1.349 . S
C458 C456 1.327 . S
C458 C477 1.429 . S
C458 H482 0.950 . S
C459 C476 1.574 . S
C459 C478 1.368 . S
C459 H483 0.949 . S
H460 C464 0.949 . S
C461 C462 1.349 . S
C461 C463 1.327 . S
C461 H484 0.950 . S
C462 C461 1.349 . S
C462 C474 1.349 . S
C463 C461 1.327 . S
C463 C479 1.429 . S
C463 H485 0.950 . S
C464 H460 0.949 . S
C464 C472 1.574 . S
C464 C480 1.368 . S
H465 C473 0.950 . S
H466 C471 0.950 . S
H467 C472 0.949 . S
H468 C474 0.950 . S
H469 C475 0.950 . S
H470 C476 0.949 . S
C471 H466 0.950 . S
C471 C473 1.327 . S
C471 C477 1.429 . S
C472 C464 1.574 . S
C472 H467 0.949 . S
C472 C478 1.368 . S
C473 C457 1.349 . S
C473 H465 0.950 . S
C473 C471 1.327 . S
C474 C462 1.349 . S
C474 H468 0.950 . S
C474 C475 1.327 . S
C475 H469 0.950 . S
C475 C474 1.327 . S
C475 C479 1.429 . S
C476 C459 1.574 . S
C476 H470 0.949 . S
C476 C480 1.368 . S
C477 C458 1.429 . S
C477 C471 1.429 . S
C477 C478 1.523 . S
C478 C459 1.368 . S
C478 C472 1.368 . S
C478 C477 1.523 . S
C479 C463 1.429 . S
C479 C475 1.429 . S
C479 C480 1.523 . S
C480 C464 1.368 . S
C480 C476 1.368 . S
C480 C479 1.523 . S
H481 C456 0.950 . S
H482 C458 0.950 . S
H483 C459 0.949 . S
H484 C461 0.950 . S
H485 C463 0.950 . S
C486 C487 1.349 . S
C486 C488 1.327 . S
C486 H511 0.950 . S
C487 C486 1.349 . S
C487 C503 1.349 . S
C488 C486 1.327 . S
C488 C507 1.429 . S
C488 H512 0.950 . S
C489 C506 1.574 . S
C489 C508 1.368 . S
C489 H513 0.949 . S
H490 C494 0.949 . S
C491 C492 1.349 . S
C491 C493 1.327 . S
C491 H514 0.950 . S
C492 C491 1.349 . S
C492 C504 1.349 . S
C493 C491 1.327 . S
C493 C509 1.429 . S
C493 H515 0.950 . S
C494 H490 0.949 . S
C494 C502 1.574 . S
C494 C510 1.368 . S
H495 C503 0.950 . S
H496 C501 0.950 . S
H497 C502 0.949 . S
H498 C504 0.950 . S
H499 C505 0.950 . S
H500 C506 0.949 . S
C501 H496 0.950 . S
C501 C503 1.327 . S
C501 C507 1.429 . S
C502 C494 1.574 . S
C502 H497 0.949 . S
C502 C508 1.368 . S
C503 C487 1.349 . S
C503 H495 0.950 . S
C503 C501 1.327 . S
C504 C492 1.349 . S
C504 H498 0.950 . S
C504 C505 1.327 . S
C505 H499 0.950 . S
C505 C504 1.327 . S
C505 C509 1.429 . S
C506 C489 1.574 . S
C506 H500 0.949 . S
C506 C510 1.368 . S
C507 C488 1.429 . S
C507 C501 1.429 . S
C507 C508 1.523 . S
C508 C489 1.368 . S
C508 C502 1.368 . S
C508 C507 1.523 . S
C509 C493 1.429 . S
C509 C505 1.429 . S
C509 C510 1.523 . S
C510 C494 1.368 . S
C510 C506 1.368 . S
C510 C509 1.523 . S
H511 C486 0.950 . S
H512 C488 0.950 . S
H513 C489 0.949 . S
H514 C491 0.950 . S
H515 C493 0.950 . S
C516 C517 1.349 . S
C516 C518 1.327 . S
C516 H541 0.950 . S
C517 C516 1.349 . S
C517 C533 1.349 1_554 S
C518 C516 1.327 . S
C518 C537 1.429 . S
C518 H542 0.950 . S
C519 C536 1.574 . S
C519 C538 1.368 1_556 S
C519 H543 0.949 . S
H520 C524 0.949 . S
C521 C522 1.393 . S
C521 C523 1.327 . S
C521 H544 0.950 . S
C522 C521 1.393 . S
C522 C534 1.300 1_556 S
C523 C521 1.327 . S
C523 C539 1.429 1_556 S
C523 H545 0.950 . S
C524 H520 0.949 . S
C524 C532 1.574 . S
C524 C540 1.368 . S
H525 C533 0.950 . S
H526 C531 0.950 . S
H527 C532 0.949 . S
H528 C534 0.950 . S
H529 C535 0.950 . S
H530 C536 0.949 . S
C531 H526 0.950 . S
C531 C533 1.327 . S
C531 C537 1.429 1_556 S
C532 C524 1.574 . S
C532 H527 0.949 . S
C532 C538 1.368 . S
C533 C517 1.349 1_556 S
C533 H525 0.950 . S
C533 C531 1.327 . S
C534 C522 1.300 1_554 S
C534 H528 0.950 . S
C534 C535 1.327 . S
C535 H529 0.950 . S
C535 C534 1.327 . S
C535 C539 1.429 . S
C536 C519 1.574 . S
C536 H530 0.949 . S
C536 C540 1.368 1_556 S
C537 C518 1.429 . S
C537 C531 1.429 1_554 S
C537 C538 1.523 . S
C538 C519 1.368 1_554 S
C538 C532 1.368 . S
C538 C537 1.523 . S
C539 C523 1.429 1_554 S
C539 C535 1.429 . S
C539 C540 1.523 . S
C540 C524 1.368 . S
C540 C536 1.368 1_554 S
C540 C539 1.523 . S
H541 C516 0.950 . S
H542 C518 0.950 . S
H543 C519 0.949 . S
H544 C521 0.950 . S
H545 C523 0.950 . S
C546 C547 1.349 . S
C546 C548 1.327 . S
C546 H571 0.950 . S
C547 C546 1.349 . S
C547 C563 1.349 . S
C548 C546 1.327 . S
C548 C567 1.429 . S
C548 H572 0.950 . S
C549 C566 1.574 . S
C549 C568 1.368 . S
C549 H573 0.949 . S
H550 C554 0.949 . S
C551 C552 1.349 . S
C551 C553 1.327 . S
C551 H574 0.950 . S
C552 C551 1.349 . S
C552 C564 1.349 . S
C553 C551 1.327 . S
C553 C569 1.429 . S
C553 H575 0.950 . S
C554 H550 0.949 . S
C554 C562 1.574 . S
C554 C570 1.368 . S
H555 C563 0.950 . S
H556 C561 0.950 . S
H557 C562 0.949 . S
H558 C564 0.950 . S
H559 C565 0.950 . S
H560 C566 0.949 . S
C561 H556 0.950 . S
C561 C563 1.327 . S
C561 C567 1.429 . S
C562 C554 1.574 . S
C562 H557 0.949 . S
C562 C568 1.368 . S
C563 C547 1.349 . S
C563 H555 0.950 . S
C563 C561 1.327 . S
C564 C552 1.349 . S
C564 H558 0.950 . S
C564 C565 1.327 . S
C565 H559 0.950 . S
C565 C564 1.327 . S
C565 C569 1.429 . S
C566 C549 1.574 . S
C566 H560 0.949 . S
C566 C570 1.368 . S
C567 C548 1.429 . S
C567 C561 1.429 . S
C567 C568 1.523 . S
C568 C549 1.368 . S
C568 C562 1.368 . S
C568 C567 1.523 . S
C569 C553 1.429 . S
C569 C565 1.429 . S
C569 C570 1.523 . S
C570 C554 1.368 . S
C570 C566 1.368 . S
C570 C569 1.523 . S
H571 C546 0.950 . S
H572 C548 0.950 . S
H573 C549 0.949 . S
H574 C551 0.950 . S
H575 C553 0.950 . S
C576 C577 1.349 . S
C576 C578 1.327 . S
C576 H601 0.950 . S
C577 C576 1.349 . S
C577 C593 1.349 . S
C578 C576 1.327 . S
C578 C597 1.429 . S
C578 H602 0.950 . S
C579 C596 1.574 . S
C579 C598 1.368 . S
C579 H603 0.949 . S
H580 C584 0.949 . S
C581 C582 1.349 . S
C581 C583 1.327 . S
C581 H604 0.950 . S
C582 C581 1.349 . S
C582 C594 1.349 . S
C583 C581 1.327 . S
C583 C599 1.429 . S
C583 H605 0.950 . S
C584 H580 0.949 . S
C584 C592 1.574 . S
C584 C600 1.368 . S
H585 C593 0.950 . S
H586 C591 0.950 . S
H587 C592 0.949 . S
H588 C594 0.950 . S
H589 C595 0.950 . S
H590 C596 0.949 . S
C591 H586 0.950 . S
C591 C593 1.327 . S
C591 C597 1.429 . S
C592 C584 1.574 . S
C592 H587 0.949 . S
C592 C598 1.368 . S
C593 C577 1.349 . S
C593 H585 0.950 . S
C593 C591 1.327 . S
C594 C582 1.349 . S
C594 H588 0.950 . S
C594 C595 1.327 . S
C595 H589 0.950 . S
C595 C594 1.327 . S
C595 C599 1.429 . S
C596 C579 1.574 . S
C596 H590 0.949 . S
C596 C600 1.368 . S
C597 C578 1.429 . S
C597 C591 1.429 . S
C597 C598 1.523 . S
C598 C579 1.368 . S
C598 C592 1.368 . S
C598 C597 1.523 . S
C599 C583 1.429 . S
C599 C595 1.429 . S
C599 C600 1.523 . S
C600 C584 1.368 . S
C600 C596 1.368 . S
C600 C599 1.523 . S
H601 C576 0.950 . S
H602 C578 0.950 . S
H603 C579 0.949 . S
H604 C581 0.950 . S
H605 C583 0.950 . S
C606 C607 1.349 . S
C606 C608 1.327 . S
C606 H631 0.950 . S
C607 C606 1.349 . S
C607 C623 1.349 . S
C608 C606 1.327 . S
C608 C627 1.429 . S
C608 H632 0.950 . S
C609 C626 1.574 . S
C609 C628 1.368 . S
C609 H633 0.949 . S
H610 C614 0.949 . S
C611 C612 1.349 . S
C611 C613 1.327 . S
C611 H634 0.950 . S
C612 C611 1.349 . S
C612 C624 1.349 . S
C613 C611 1.327 . S
C613 C629 1.429 . S
C613 H635 0.950 . S
C614 H610 0.949 . S
C614 C622 1.574 . S
C614 C630 1.368 . S
H615 C623 0.950 . S
H616 C621 0.950 . S
H617 C622 0.949 . S
H618 C624 0.950 . S
H619 C625 0.950 . S
H620 C626 0.949 . S
C621 H616 0.950 . S
C621 C623 1.327 . S
C621 C627 1.429 . S
C622 C614 1.574 . S
C622 H617 0.949 . S
C622 C628 1.368 . S
C623 C607 1.349 . S
C623 H615 0.950 . S
C623 C621 1.327 . S
C624 C612 1.349 . S
C624 H618 0.950 . S
C624 C625 1.327 . S
C625 H619 0.950 . S
C625 C624 1.327 . S
C625 C629 1.429 . S
C626 C609 1.574 . S
C626 H620 0.949 . S
C626 C630 1.368 . S
C627 C608 1.429 . S
C627 C621 1.429 . S
C627 C628 1.523 . S
C628 C609 1.368 . S
C628 C622 1.368 . S
C628 C627 1.523 . S
C629 C613 1.429 . S
C629 C625 1.429 . S
C629 C630 1.523 . S
C630 C614 1.368 . S
C630 C626 1.368 . S
C630 C629 1.523 . S
H631 C606 0.950 . S
H632 C608 0.950 . S
H633 C609 0.949 . S
H634 C611 0.950 . S
H635 C613 0.950 . S
C636 C637 1.349 . S
C636 C638 1.327 . S
C636 H661 0.950 . S
C637 C636 1.349 . S
C637 C653 1.349 . S
C638 C636 1.327 . S
C638 C657 1.429 . S
C638 H662 0.950 . S
C639 C656 1.574 . S
C639 C658 1.368 . S
C639 H663 0.949 . S
H640 C644 0.949 . S
C641 C642 1.349 . S
C641 C643 1.327 . S
C641 H664 0.950 . S
C642 C641 1.349 . S
C642 C654 1.349 . S
C643 C641 1.327 . S
C643 C659 1.429 . S
C643 H665 0.950 . S
C644 H640 0.949 . S
C644 C652 1.574 . S
C644 C660 1.368 . S
H645 C653 0.950 . S
H646 C651 0.950 . S
H647 C652 0.949 . S
H648 C654 0.950 . S
H649 C655 0.950 . S
H650 C656 0.949 . S
C651 H646 0.950 . S
C651 C653 1.327 . S
C651 C657 1.429 . S
C652 C644 1.574 . S
C652 H647 0.949 . S
C652 C658 1.368 . S
C653 C637 1.349 . S
C653 H645 0.950 . S
C653 C651 1.327 . S
C654 C642 1.349 . S
C654 H648 0.950 . S
C654 C655 1.327 . S
C655 H649 0.950 . S
C655 C654 1.327 . S
C655 C659 1.429 . S
C656 C639 1.574 . S
C656 H650 0.949 . S
C656 C660 1.368 . S
C657 C638 1.429 . S
C657 C651 1.429 . S
C657 C658 1.523 . S
C658 C639 1.368 . S
C658 C652 1.368 . S
C658 C657 1.523 . S
C659 C643 1.429 . S
C659 C655 1.429 . S
C659 C660 1.523 . S
C660 C644 1.368 . S
C660 C656 1.368 . S
C660 C659 1.523 . S
H661 C636 0.950 . S
H662 C638 0.950 . S
H663 C639 0.949 . S
H664 C641 0.950 . S
H665 C643 0.950 . S
C666 C667 1.349 . S
C666 C668 1.327 . S
C666 H691 0.950 . S
C667 C666 1.349 . S
C667 C683 1.347 1_556 S
C668 C666 1.327 . S
C668 C687 1.429 . S
C668 H692 0.950 . S
C669 C686 1.574 . S
C669 C688 1.368 1_554 S
C669 H693 0.949 . S
H670 C674 0.949 . S
C671 C672 1.385 . S
C671 C673 1.327 . S
C671 H694 0.950 . S
C672 C671 1.385 . S
C672 C684 1.309 1_554 S
C673 C671 1.327 . S
C673 C689 1.429 1_554 S
C673 H695 0.950 . S
C674 H670 0.949 . S
C674 C682 1.574 . S
C674 C690 1.368 . S
H675 C683 0.951 . S
H676 C681 0.950 . S
H677 C682 0.949 . S
H678 C684 0.950 . S
H679 C685 0.950 . S
H680 C686 0.949 . S
C681 H676 0.950 . S
C681 C683 1.327 . S
C681 C687 1.429 1_554 S
C682 C674 1.574 . S
C682 H677 0.949 . S
C682 C688 1.368 . S
C683 C667 1.347 1_554 S
C683 H675 0.951 . S
C683 C681 1.327 . S
C684 C672 1.309 1_556 S
C684 H678 0.950 . S
C684 C685 1.327 . S
C685 H679 0.950 . S
C685 C684 1.327 . S
C685 C689 1.429 . S
C686 C669 1.574 . S
C686 H680 0.949 . S
C686 C690 1.368 1_554 S
C687 C668 1.429 . S
C687 C681 1.429 1_556 S
C687 C688 1.523 . S
C688 C669 1.368 1_556 S
C688 C682 1.368 . S
C688 C687 1.523 . S
C689 C673 1.429 1_556 S
C689 C685 1.429 . S
C689 C690 1.523 . S
C690 C674 1.368 . S
C690 C686 1.368 1_556 S
C690 C689 1.523 . S
H691 C666 0.950 . S
H692 C668 0.950 . S
H693 C669 0.949 . S
H694 C671 0.950 . S
H695 C673 0.950 . S
C696 C697 1.349 . S
C696 C698 1.327 . S
C696 H721 0.950 . S
C697 C696 1.349 . S
C697 C713 1.349 . S
C698 C696 1.327 . S
C698 C717 1.429 . S
C698 H722 0.950 . S
C699 C716 1.574 . S
C699 C718 1.368 . S
C699 H723 0.949 . S
H700 C704 0.949 . S
C701 C702 1.349 . S
C701 C703 1.327 . S
C701 H724 0.950 . S
C702 C701 1.349 . S
C702 C714 1.349 . S
C703 C701 1.327 . S
C703 C719 1.429 . S
C703 H725 0.950 . S
C704 H700 0.949 . S
C704 C712 1.574 . S
C704 C720 1.368 . S
H705 C713 0.950 . S
H706 C711 0.950 . S
H707 C712 0.949 . S
H708 C714 0.950 . S
H709 C715 0.950 . S
H710 C716 0.949 . S
C711 H706 0.950 . S
C711 C713 1.327 . S
C711 C717 1.429 . S
C712 C704 1.574 . S
C712 H707 0.949 . S
C712 C718 1.368 . S
C713 C697 1.349 . S
C713 H705 0.950 . S
C713 C711 1.327 . S
C714 C702 1.349 . S
C714 H708 0.950 . S
C714 C715 1.327 . S
C715 H709 0.950 . S
C715 C714 1.327 . S
C715 C719 1.429 . S
C716 C699 1.574 . S
C716 H710 0.949 . S
C716 C720 1.368 . S
C717 C698 1.429 . S
C717 C711 1.429 . S
C717 C718 1.523 . S
C718 C699 1.368 . S
C718 C712 1.368 . S
C718 C717 1.523 . S
C719 C703 1.429 . S
C719 C715 1.429 . S
C719 C720 1.523 . S
C720 C704 1.368 . S
C720 C716 1.368 . S
C720 C719 1.523 . S
H721 C696 0.950 . S
H722 C698 0.950 . S
H723 C699 0.949 . S
H724 C701 0.950 . S
H725 C703 0.950 . S
C726 C727 1.349 . S
C726 C728 1.327 . S
C726 H751 0.950 . S
C727 C726 1.349 . S
C727 C743 1.349 . S
C728 C726 1.327 . S
C728 C747 1.429 . S
C728 H752 0.950 . S
C729 C746 1.574 . S
C729 C748 1.368 . S
C729 H753 0.949 . S
H730 C734 0.949 . S
C731 C732 1.349 . S
C731 C733 1.327 . S
C731 H754 0.950 . S
C732 C731 1.349 . S
C732 C744 1.349 . S
C733 C731 1.327 . S
C733 C749 1.429 . S
C733 H755 0.950 . S
C734 H730 0.949 . S
C734 C742 1.574 . S
C734 C750 1.368 . S
H735 C743 0.950 . S
H736 C741 0.950 . S
H737 C742 0.949 . S
H738 C744 0.950 . S
H739 C745 0.950 . S
H740 C746 0.949 . S
C741 H736 0.950 . S
C741 C743 1.327 . S
C741 C747 1.429 . S
C742 C734 1.574 . S
C742 H737 0.949 . S
C742 C748 1.368 . S
C743 C727 1.349 . S
C743 H735 0.950 . S
C743 C741 1.327 . S
C744 C732 1.349 . S
C744 H738 0.950 . S
C744 C745 1.327 . S
C745 H739 0.950 . S
C745 C744 1.327 . S
C745 C749 1.429 . S
C746 C729 1.574 . S
C746 H740 0.949 . S
C746 C750 1.368 . S
C747 C728 1.429 . S
C747 C741 1.429 . S
C747 C748 1.523 . S
C748 C729 1.368 . S
C748 C742 1.368 . S
C748 C747 1.523 . S
C749 C733 1.429 . S
C749 C745 1.429 . S
C749 C750 1.523 . S
C750 C734 1.368 . S
C750 C746 1.368 . S
C750 C749 1.523 . S
H751 C726 0.950 . S
H752 C728 0.950 . S
H753 C729 0.949 . S
H754 C731 0.950 . S
H755 C733 0.950 . S
C756 C757 1.349 . S
C756 C758 1.327 . S
C756 H781 0.950 . S
C757 C756 1.349 . S
C757 C773 1.349 . S
C758 C756 1.327 . S
C758 C777 1.429 . S
C758 H782 0.950 . S
C759 C776 1.574 . S
C759 C778 1.368 . S
C759 H783 0.949 . S
H760 C764 0.949 . S
C761 C762 1.349 . S
C761 C763 1.327 . S
C761 H784 0.950 . S
C762 C761 1.349 . S
C762 C774 1.349 . S
C763 C761 1.327 . S
C763 C779 1.429 . S
C763 H785 0.950 . S
C764 H760 0.949 . S
C764 C772 1.574 . S
C764 C780 1.368 . S
H765 C773 0.950 . S
H766 C771 0.950 . S
H767 C772 0.949 . S
H768 C774 0.950 . S
H769 C775 0.950 . S
H770 C776 0.949 . S
C771 H766 0.950 . S
C771 C773 1.327 . S
C771 C777 1.429 . S
C772 C764 1.574 . S
C772 H767 0.949 . S
C772 C778 1.368 . S
C773 C757 1.349 . S
C773 H765 0.950 . S
C773 C771 1.327 . S
C774 C762 1.349 . S
C774 H768 0.950 . S
C774 C775 1.327 . S
C775 H769 0.950 . S
C775 C774 1.327 . S
C775 C779 1.429 . S
C776 C759 1.574 . S
C776 H770 0.949 . S
C776 C780 1.368 . S
C777 C758 1.429 . S
C777 C771 1.429 . S
C777 C778 1.523 . S
C778 C759 1.368 . S
C778 C772 1.368 . S
C778 C777 1.523 . S
C779 C763 1.429 . S
C779 C775 1.429 . S
C779 C780 1.523 . S
C780 C764 1.368 . S
C780 C776 1.368 . S
C780 C779 1.523 . S
H781 C756 0.950 . S
H782 C758 0.950 . S
H783 C759 0.949 . S
H784 C761 0.950 . S
H785 C763 0.950 . S
C786 C787 1.349 1_655 S
C786 C788 1.327 . S
C786 H811 0.950 . S
C787 C786 1.349 1_455 S
C787 C803 1.349 . S
C788 C786 1.327 . S
C788 C807 1.429 1_655 S
C788 H812 0.950 . S
C789 C806 1.574 . S
C789 C808 1.368 . S
C789 H813 0.949 . S
H790 C794 0.949 . S
C791 C792 1.349 . S
C791 C793 1.327 . S
C791 H814 0.950 . S
C792 C791 1.349 . S
C792 C804 1.349 1_455 S
C793 C791 1.327 . S
C793 C809 1.429 . S
C793 H815 0.950 . S
C794 H790 0.949 . S
C794 C802 1.574 . S
C794 C810 1.368 1_655 S
H795 C803 0.950 . S
H796 C801 0.950 . S
H797 C802 0.949 . S
H798 C804 0.950 . S
H799 C805 0.950 . S
H800 C806 0.949 . S
C801 H796 0.950 . S
C801 C803 1.327 . S
C801 C807 1.429 . S
C802 C794 1.574 . S
C802 H797 0.949 . S
C802 C808 1.368 1_655 S
C803 C787 1.349 . S
C803 H795 0.950 . S
C803 C801 1.327 . S
C804 C792 1.349 1_655 S
C804 H798 0.950 . S
C804 C805 1.327 . S
C805 H799 0.950 . S
C805 C804 1.327 . S
C805 C809 1.429 1_655 S
C806 C789 1.574 . S
C806 H800 0.949 . S
C806 C810 1.368 . S
C807 C788 1.429 1_455 S
C807 C801 1.429 . S
C807 C808 1.523 . S
C808 C789 1.368 . S
C808 C802 1.368 1_455 S
C808 C807 1.523 . S
C809 C793 1.429 . S
C809 C805 1.429 1_455 S
C809 C810 1.523 . S
C810 C794 1.368 1_455 S
C810 C806 1.368 . S
C810 C809 1.523 . S
H811 C786 0.950 . S
H812 C788 0.950 . S
H813 C789 0.949 . S
H814 C791 0.950 . S
H815 C793 0.950 . S
C816 C817 1.349 1_565 S
C816 C818 1.327 . S
C816 H841 0.950 . S
C817 C816 1.349 1_545 S
C817 C833 1.349 . S
C818 C816 1.327 . S
C818 C837 1.429 1_565 S
C818 H842 0.950 . S
C819 C836 1.574 . S
C819 C838 1.368 . S
C819 H843 0.949 . S
H820 C824 0.949 . S
C821 C822 1.349 . S
C821 C823 1.327 . S
C821 H844 0.950 . S
C822 C821 1.349 . S
C822 C834 1.349 1_545 S
C823 C821 1.327 . S
C823 C839 1.429 . S
C823 H845 0.950 . S
C824 H820 0.949 . S
C824 C832 1.574 . S
C824 C840 1.368 1_565 S
H825 C833 0.950 . S
H826 C831 0.950 . S
H827 C832 0.949 . S
H828 C834 0.950 . S
H829 C835 0.950 . S
H830 C836 0.949 . S
C831 H826 0.950 . S
C831 C833 1.327 . S
C831 C837 1.429 . S
C832 C824 1.574 . S
C832 H827 0.949 . S
C832 C838 1.368 1_565 S
C833 C817 1.349 . S
C833 H825 0.950 . S
C833 C831 1.327 . S
C834 C822 1.349 1_565 S
C834 H828 0.950 . S
C834 C835 1.327 . S
C835 H829 0.950 . S
C835 C834 1.327 . S
C835 C839 1.429 1_565 S
C836 C819 1.574 . S
C836 H830 0.949 . S
C836 C840 1.368 . S
C837 C818 1.429 1_545 S
C837 C831 1.429 . S
C837 C838 1.523 . S
C838 C819 1.368 . S
C838 C832 1.368 1_545 S
C838 C837 1.523 . S
C839 C823 1.429 . S
C839 C835 1.429 1_545 S
C839 C840 1.523 . S
C840 C824 1.368 1_545 S
C840 C836 1.368 . S
C840 C839 1.523 . S
H841 C816 0.950 . S
H842 C818 0.950 . S
H843 C819 0.949 . S
H844 C821 0.950 . S
H845 C823 0.950 . S
C846 C847 1.349 . S
C846 C848 1.327 . S
C846 H871 0.950 . S
C847 C846 1.349 . S
C847 C863 1.349 . S
C848 C846 1.327 . S
C848 C867 1.429 . S
C848 H872 0.950 . S
C849 C866 1.574 . S
C849 C868 1.368 . S
C849 H873 0.949 . S
H850 C854 0.949 . S
C851 C852 1.349 . S
C851 C853 1.327 . S
C851 H874 0.950 . S
C852 C851 1.349 . S
C852 C864 1.349 . S
C853 C851 1.327 . S
C853 C869 1.429 . S
C853 H875 0.950 . S
C854 H850 0.949 . S
C854 C862 1.574 . S
C854 C870 1.368 . S
H855 C863 0.950 . S
H856 C861 0.950 . S
H857 C862 0.949 . S
H858 C864 0.950 . S
H859 C865 0.950 . S
H860 C866 0.949 . S
C861 H856 0.950 . S
C861 C863 1.327 . S
C861 C867 1.429 . S
C862 C854 1.574 . S
C862 H857 0.949 . S
C862 C868 1.368 . S
C863 C847 1.349 . S
C863 H855 0.950 . S
C863 C861 1.327 . S
C864 C852 1.349 . S
C864 H858 0.950 . S
C864 C865 1.327 . S
C865 H859 0.950 . S
C865 C864 1.327 . S
C865 C869 1.429 . S
C866 C849 1.574 . S
C866 H860 0.949 . S
C866 C870 1.368 . S
C867 C848 1.429 . S
C867 C861 1.429 . S
C867 C868 1.523 . S
C868 C849 1.368 . S
C868 C862 1.368 . S
C868 C867 1.523 . S
C869 C853 1.429 . S
C869 C865 1.429 . S
C869 C870 1.523 . S
C870 C854 1.368 . S
C870 C866 1.368 . S
C870 C869 1.523 . S
H871 C846 0.950 . S
H872 C848 0.950 . S
H873 C849 0.949 . S
H874 C851 0.950 . S
H875 C853 0.950 . S
C876 C877 1.349 1_455 S
C876 C878 1.327 . S
C876 H901 0.950 . S
C877 C876 1.349 1_655 S
C877 C893 1.349 . S
C878 C876 1.327 . S
C878 C897 1.429 1_455 S
C878 H902 0.950 . S
C879 C896 1.574 . S
C879 C898 1.368 . S
C879 H903 0.949 . S
H880 C884 0.949 . S
C881 C882 1.349 . S
C881 C883 1.327 . S
C881 H904 0.950 . S
C882 C881 1.349 . S
C882 C894 1.349 1_655 S
C883 C881 1.327 . S
C883 C899 1.429 . S
C883 H905 0.950 . S
C884 H880 0.949 . S
C884 C892 1.574 . S
C884 C900 1.368 1_455 S
H885 C893 0.950 . S
H886 C891 0.950 . S
H887 C892 0.949 . S
H888 C894 0.950 . S
H889 C895 0.950 . S
H890 C896 0.949 . S
C891 H886 0.950 . S
C891 C893 1.327 . S
C891 C897 1.429 . S
C892 C884 1.574 . S
C892 H887 0.949 . S
C892 C898 1.368 1_455 S
C893 C877 1.349 . S
C893 H885 0.950 . S
C893 C891 1.327 . S
C894 C882 1.349 1_455 S
C894 H888 0.950 . S
C894 C895 1.327 . S
C895 H889 0.950 . S
C895 C894 1.327 . S
C895 C899 1.429 1_455 S
C896 C879 1.574 . S
C896 H890 0.949 . S
C896 C900 1.368 . S
C897 C878 1.429 1_655 S
C897 C891 1.429 . S
C897 C898 1.523 . S
C898 C879 1.368 . S
C898 C892 1.368 1_655 S
C898 C897 1.523 . S
C899 C883 1.429 . S
C899 C895 1.429 1_655 S
C899 C900 1.523 . S
C900 C884 1.368 1_655 S
C900 C896 1.368 . S
C900 C899 1.523 . S
H901 C876 0.950 . S
H902 C878 0.950 . S
H903 C879 0.949 . S
H904 C881 0.950 . S
H905 C883 0.950 . S
C906 C907 1.349 . S
C906 C908 1.327 . S
C906 H931 0.950 . S
C907 C906 1.349 . S
C907 C923 1.349 1_565 S
C908 C906 1.327 . S
C908 C927 1.429 . S
C908 H932 0.950 . S
C909 C926 1.574 . S
C909 C928 1.368 1_545 S
C909 H933 0.949 . S
H910 C914 0.949 . S
C911 C912 1.349 1_545 S
C911 C913 1.327 . S
C911 H934 0.950 . S
C912 C911 1.349 1_565 S
C912 C924 1.349 . S
C913 C911 1.327 . S
C913 C929 1.429 1_545 S
C913 H935 0.950 . S
C914 H910 0.949 . S
C914 C922 1.574 . S
C914 C930 1.368 . S
H915 C923 0.950 . S
H916 C921 0.950 . S
H917 C922 0.949 . S
H918 C924 0.950 . S
H919 C925 0.950 . S
H920 C926 0.949 . S
C921 H916 0.950 . S
C921 C923 1.327 . S
C921 C927 1.429 1_545 S
C922 C914 1.574 . S
C922 H917 0.949 . S
C922 C928 1.368 . S
C923 C907 1.349 1_545 S
C923 H915 0.950 . S
C923 C921 1.327 . S
C924 C912 1.349 . S
C924 H918 0.950 . S
C924 C925 1.327 . S
C925 H919 0.950 . S
C925 C924 1.327 . S
C925 C929 1.429 . S
C926 C909 1.574 . S
C926 H920 0.949 . S
C926 C930 1.368 1_545 S
C927 C908 1.429 . S
C927 C921 1.429 1_565 S
C927 C928 1.523 . S
C928 C909 1.368 1_565 S
C928 C922 1.368 . S
C928 C927 1.523 . S
C929 C913 1.429 1_565 S
C929 C925 1.429 . S
C929 C930 1.523 . S
C930 C914 1.368 . S
C930 C926 1.368 1_565 S
C930 C929 1.523 . S
H931 C906 0.950 . S
H932 C908 0.950 . S
H933 C909 0.949 . S
H934 C911 0.950 . S
H935 C913 0.950 . S
C936 C937 1.349 . S
C936 C938 1.327 . S
C936 H961 0.950 . S
C937 C936 1.349 . S
C937 C953 1.349 . S
C938 C936 1.327 . S
C938 C957 1.429 . S
C938 H962 0.950 . S
C939 C956 1.574 . S
C939 C958 1.368 . S
C939 H963 0.949 . S
H940 C944 0.949 . S
C941 C942 1.349 . S
C941 C943 1.327 . S
C941 H964 0.950 . S
C942 C941 1.349 . S
C942 C954 1.349 . S
C943 C941 1.327 . S
C943 C959 1.429 . S
C943 H965 0.950 . S
C944 H940 0.949 . S
C944 C952 1.574 . S
C944 C960 1.368 . S
H945 C953 0.950 . S
H946 C951 0.950 . S
H947 C952 0.949 . S
H948 C954 0.950 . S
H949 C955 0.950 . S
H950 C956 0.949 . S
C951 H946 0.950 . S
C951 C953 1.327 . S
C951 C957 1.429 . S
C952 C944 1.574 . S
C952 H947 0.949 . S
C952 C958 1.368 . S
C953 C937 1.349 . S
C953 H945 0.950 . S
C953 C951 1.327 . S
C954 C942 1.349 . S
C954 H948 0.950 . S
C954 C955 1.327 . S
C955 H949 0.950 . S
C955 C954 1.327 . S
C955 C959 1.429 . S
C956 C939 1.574 . S
C956 H950 0.949 . S
C956 C960 1.368 . S
C957 C938 1.429 . S
C957 C951 1.429 . S
C957 C958 1.523 . S
C958 C939 1.368 . S
C958 C952 1.368 . S
C958 C957 1.523 . S
C959 C943 1.429 . S
C959 C955 1.429 . S
C959 C960 1.523 . S
C960 C944 1.368 . S
C960 C956 1.368 . S
C960 C959 1.523 . S
H961 C936 0.950 . S
H962 C938 0.950 . S
H963 C939 0.949 . S
H964 C941 0.950 . S
H965 C943 0.950 . S
C966 C967 1.349 . S
C966 C968 1.327 . S
C966 H991 0.950 . S
C967 C966 1.349 . S
C967 C983 1.349 . S
C968 C966 1.327 . S
C968 C987 1.429 . S
C968 H992 0.950 . S
C969 C986 1.574 . S
C969 C988 1.368 . S
C969 H993 0.949 . S
H970 C974 0.949 . S
C971 C972 1.349 . S
C971 C973 1.327 . S
C971 H994 0.950 . S
C972 C971 1.349 . S
C972 C984 1.349 . S
C973 C971 1.327 . S
C973 C989 1.429 . S
C973 H995 0.950 . S
C974 H970 0.949 . S
C974 C982 1.574 . S
C974 C990 1.368 . S
H975 C983 0.950 . S
H976 C981 0.950 . S
H977 C982 0.949 . S
H978 C984 0.950 . S
H979 C985 0.950 . S
H980 C986 0.949 . S
C981 H976 0.950 . S
C981 C983 1.327 . S
C981 C987 1.429 . S
C982 C974 1.574 . S
C982 H977 0.949 . S
C982 C988 1.368 . S
C983 C967 1.349 . S
C983 H975 0.950 . S
C983 C981 1.327 . S
C984 C972 1.349 . S
C984 H978 0.950 . S
C984 C985 1.327 . S
C985 H979 0.950 . S
C985 C984 1.327 . S
C985 C989 1.429 . S
C986 C969 1.574 . S
C986 H980 0.949 . S
C986 C990 1.368 . S
C987 C968 1.429 . S
C987 C981 1.429 . S
C987 C988 1.523 . S
C988 C969 1.368 . S
C988 C982 1.368 . S
C988 C987 1.523 . S
C989 C973 1.429 . S
C989 C985 1.429 . S
C989 C990 1.523 . S
C990 C974 1.368 . S
C990 C986 1.368 . S
C990 C989 1.523 . S
H991 C966 0.950 . S
H992 C968 0.950 . S
H993 C969 0.949 . S
H994 C971 0.950 . S
H995 C973 0.950 . S
C996 C997 1.349 . S
C996 C998 1.327 . S
C996 H1021 0.950 . S
C997 C996 1.349 . S
C997 C1013 1.349 . S
C998 C996 1.327 . S
C998 C1017 1.429 . S
C998 H1022 0.950 . S
C999 C1016 1.574 . S
C999 C1018 1.368 . S
C999 H1023 0.949 . S
H1000 C1004 0.949 . S
C1001 C1002 1.349 . S
C1001 C1003 1.327 . S
C1001 H1024 0.950 . S
C1002 C1001 1.349 . S
C1002 C1014 1.349 . S
C1003 C1001 1.327 . S
C1003 C1019 1.429 . S
C1003 H1025 0.950 . S
C1004 H1000 0.949 . S
C1004 C1012 1.574 . S
C1004 C1020 1.368 . S
H1005 C1013 0.950 . S
H1006 C1011 0.950 . S
H1007 C1012 0.949 . S
H1008 C1014 0.950 . S
H1009 C1015 0.950 . S
H1010 C1016 0.949 . S
C1011 H1006 0.950 . S
C1011 C1013 1.327 . S
C1011 C1017 1.429 . S
C1012 C1004 1.574 . S
C1012 H1007 0.949 . S
C1012 C1018 1.368 . S
C1013 C997 1.349 . S
C1013 H1005 0.950 . S
C1013 C1011 1.327 . S
C1014 C1002 1.349 . S
C1014 H1008 0.950 . S
C1014 C1015 1.327 . S
C1015 H1009 0.950 . S
C1015 C1014 1.327 . S
C1015 C1019 1.429 . S
C1016 C999 1.574 . S
C1016 H1010 0.949 . S
C1016 C1020 1.368 . S
C1017 C998 1.429 . S
C1017 C1011 1.429 . S
C1017 C1018 1.523 . S
C1018 C999 1.368 . S
C1018 C1012 1.368 . S
C1018 C1017 1.523 . S
C1019 C1003 1.429 . S
C1019 C1015 1.429 . S
C1019 C1020 1.523 . S
C1020 C1004 1.368 . S
C1020 C1016 1.368 . S
C1020 C1019 1.523 . S
H1021 C996 0.950 . S
H1022 C998 0.950 . S
H1023 C999 0.949 . S
H1024 C1001 0.950 . S
H1025 C1003 0.950 . S
C1026 C1027 1.349 . S
C1026 C1028 1.327 . S
C1026 H1051 0.950 . S
C1027 C1026 1.349 . S
C1027 C1043 1.349 . S
C1028 C1026 1.327 . S
C1028 C1047 1.429 . S
C1028 H1052 0.950 . S
C1029 C1046 1.574 . S
C1029 C1048 1.368 . S
C1029 H1053 0.949 . S
H1030 C1034 0.949 . S
C1031 C1032 1.349 . S
C1031 C1033 1.327 . S
C1031 H1054 0.950 . S
C1032 C1031 1.349 . S
C1032 C1044 1.349 . S
C1033 C1031 1.327 . S
C1033 C1049 1.429 . S
C1033 H1055 0.950 . S
C1034 H1030 0.949 . S
C1034 C1042 1.574 . S
C1034 C1050 1.368 . S
H1035 C1043 0.950 . S
H1036 C1041 0.950 . S
H1037 C1042 0.949 . S
H1038 C1044 0.950 . S
H1039 C1045 0.950 . S
H1040 C1046 0.949 . S
C1041 H1036 0.950 . S
C1041 C1043 1.327 . S
C1041 C1047 1.429 . S
C1042 C1034 1.574 . S
C1042 H1037 0.949 . S
C1042 C1048 1.368 . S
C1043 C1027 1.349 . S
C1043 H1035 0.950 . S
C1043 C1041 1.327 . S
C1044 C1032 1.349 . S
C1044 H1038 0.950 . S
C1044 C1045 1.327 . S
C1045 H1039 0.950 . S
C1045 C1044 1.327 . S
C1045 C1049 1.429 . S
C1046 C1029 1.574 . S
C1046 H1040 0.949 . S
C1046 C1050 1.368 . S
C1047 C1028 1.429 . S
C1047 C1041 1.429 . S
C1047 C1048 1.523 . S
C1048 C1029 1.368 . S
C1048 C1042 1.368 . S
C1048 C1047 1.523 . S
C1049 C1033 1.429 . S
C1049 C1045 1.429 . S
C1049 C1050 1.523 . S
C1050 C1034 1.368 . S
C1050 C1046 1.368 . S
C1050 C1049 1.523 . S
H1051 C1026 0.950 . S
H1052 C1028 0.950 . S
H1053 C1029 0.949 . S
H1054 C1031 0.950 . S
H1055 C1033 0.950 . S
C1056 C1057 1.349 . S
C1056 C1058 1.327 . S
C1056 H1081 0.950 . S
C1057 C1056 1.349 . S
C1057 C1073 1.345 1_655 S
C1058 C1056 1.327 . S
C1058 C1077 1.429 . S
C1058 H1082 0.950 . S
C1059 C1076 1.574 . S
C1059 C1078 1.368 . S
C1059 H1083 0.949 . S
H1060 C1064 0.949 . S
C1061 C1062 1.349 . S
C1061 C1063 1.327 . S
C1061 H1084 0.950 . S
C1062 C1061 1.349 . S
C1062 C1074 1.349 . S
C1063 C1061 1.327 . S
C1063 C1079 1.429 . S
C1063 H1085 0.950 . S
C1064 H1060 0.949 . S
C1064 C1072 1.574 . S
C1064 C1080 1.368 . S
H1065 C1073 0.960 . S
H1066 C1071 0.950 1_455 S
H1067 C1072 0.949 . S
H1068 C1074 0.950 . S
H1069 C1075 0.950 . S
H1070 C1076 0.949 . S
C1071 H1066 0.950 1_655 S
C1071 C1073 1.321 1_655 S
C1071 C1077 1.429 . S
C1072 C1064 1.574 . S
C1072 H1067 0.949 . S
C1072 C1078 1.368 . S
C1073 C1057 1.345 1_455 S
C1073 H1065 0.960 . S
C1073 C1071 1.321 1_455 S
C1074 C1062 1.349 . S
C1074 H1068 0.950 . S
C1074 C1075 1.327 . S
C1075 H1069 0.950 . S
C1075 C1074 1.327 . S
C1075 C1079 1.429 . S
C1076 C1059 1.574 . S
C1076 H1070 0.949 . S
C1076 C1080 1.368 . S
C1077 C1058 1.429 . S
C1077 C1071 1.429 . S
C1077 C1078 1.523 . S
C1078 C1059 1.368 . S
C1078 C1072 1.368 . S
C1078 C1077 1.523 . S
C1079 C1063 1.429 . S
C1079 C1075 1.429 . S
C1079 C1080 1.523 . S
C1080 C1064 1.368 . S
C1080 C1076 1.368 . S
C1080 C1079 1.523 . S
H1081 C1056 0.950 . S
H1082 C1058 0.950 . S
H1083 C1059 0.949 . S
H1084 C1061 0.950 . S
H1085 C1063 0.950 . S
C1086 C1087 1.349 1_545 S
C1086 C1088 1.327 1_545 S
C1086 H1111 0.950 . S
C1087 C1086 1.349 1_565 S
C1087 C1103 1.349 . S
C1088 C1086 1.327 1_565 S
C1088 C1107 1.429 . S
C1088 H1112 0.950 1_565 S
C1089 C1106 1.574 . S
C1089 C1108 1.368 . S
C1089 H1113 0.949 . S
H1090 C1094 0.949 . S
C1091 C1092 1.349 . S
C1091 C1093 1.327 . S
C1091 H1114 0.950 . S
C1092 C1091 1.349 . S
C1092 C1104 1.349 . S
C1093 C1091 1.327 . S
C1093 C1109 1.429 . S
C1093 H1115 0.950 . S
C1094 H1090 0.949 . S
C1094 C1102 1.574 . S
C1094 C1110 1.368 . S
H1095 C1103 0.950 . S
H1096 C1101 0.950 . S
H1097 C1102 0.949 . S
H1098 C1104 0.950 . S
H1099 C1105 0.950 . S
H1100 C1106 0.949 . S
C1101 H1096 0.950 . S
C1101 C1103 1.327 . S
C1101 C1107 1.429 . S
C1102 C1094 1.574 . S
C1102 H1097 0.949 . S
C1102 C1108 1.368 . S
C1103 C1087 1.349 . S
C1103 H1095 0.950 . S
C1103 C1101 1.327 . S
C1104 C1092 1.349 . S
C1104 H1098 0.950 . S
C1104 C1105 1.327 . S
C1105 H1099 0.950 . S
C1105 C1104 1.327 . S
C1105 C1109 1.429 . S
C1106 C1089 1.574 . S
C1106 H1100 0.949 . S
C1106 C1110 1.368 . S
C1107 C1088 1.429 . S
C1107 C1101 1.429 . S
C1107 C1108 1.523 . S
C1108 C1089 1.368 . S
C1108 C1102 1.368 . S
C1108 C1107 1.523 . S
C1109 C1093 1.429 . S
C1109 C1105 1.429 . S
C1109 C1110 1.523 . S
C1110 C1094 1.368 . S
C1110 C1106 1.368 . S
C1110 C1109 1.523 . S
H1111 C1086 0.950 . S
H1112 C1088 0.950 1_545 S
H1113 C1089 0.949 . S
H1114 C1091 0.950 . S
H1115 C1093 0.950 . S
C1116 C1117 1.349 . S
C1116 C1118 1.327 . S
C1116 H1141 0.950 . S
C1117 C1116 1.349 . S
C1117 C1133 1.349 . S
C1118 C1116 1.327 . S
C1118 C1137 1.429 . S
C1118 H1142 0.950 . S
C1119 C1136 1.574 . S
C1119 C1138 1.368 . S
C1119 H1143 0.949 . S
H1120 C1124 0.949 . S
C1121 C1122 1.349 . S
C1121 C1123 1.327 . S
C1121 H1144 0.950 . S
C1122 C1121 1.349 . S
C1122 C1134 1.349 . S
C1123 C1121 1.327 . S
C1123 C1139 1.429 . S
C1123 H1145 0.950 . S
C1124 H1120 0.949 . S
C1124 C1132 1.574 . S
C1124 C1140 1.368 . S
H1125 C1133 0.950 . S
H1126 C1131 0.950 . S
H1127 C1132 0.949 . S
H1128 C1134 0.950 . S
H1129 C1135 0.950 . S
H1130 C1136 0.949 . S
C1131 H1126 0.950 . S
C1131 C1133 1.327 . S
C1131 C1137 1.429 . S
C1132 C1124 1.574 . S
C1132 H1127 0.949 . S
C1132 C1138 1.368 . S
C1133 C1117 1.349 . S
C1133 H1125 0.950 . S
C1133 C1131 1.327 . S
C1134 C1122 1.349 . S
C1134 H1128 0.950 . S
C1134 C1135 1.327 . S
C1135 H1129 0.950 . S
C1135 C1134 1.327 . S
C1135 C1139 1.429 . S
C1136 C1119 1.574 . S
C1136 H1130 0.949 . S
C1136 C1140 1.368 . S
C1137 C1118 1.429 . S
C1137 C1131 1.429 . S
C1137 C1138 1.523 . S
C1138 C1119 1.368 . S
C1138 C1132 1.368 . S
C1138 C1137 1.523 . S
C1139 C1123 1.429 . S
C1139 C1135 1.429 . S
C1139 C1140 1.523 . S
C1140 C1124 1.368 . S
C1140 C1136 1.368 . S
C1140 C1139 1.523 . S
H1141 C1116 0.950 . S
H1142 C1118 0.950 . S
H1143 C1119 0.949 . S
H1144 C1121 0.950 . S
H1145 C1123 0.950 . S
C1146 C1147 1.349 . S
C1146 C1148 1.327 . S
C1146 H1171 0.950 . S
C1147 C1146 1.349 . S
C1147 C1163 1.349 . S
C1148 C1146 1.327 . S
C1148 C1167 1.429 . S
C1148 H1172 0.950 . S
C1149 C1166 1.574 . S
C1149 C1168 1.368 . S
C1149 H1173 0.949 . S
H1150 C1154 0.949 . S
C1151 C1152 1.349 . S
C1151 C1153 1.327 . S
C1151 H1174 0.950 . S
C1152 C1151 1.349 . S
C1152 C1164 1.349 . S
C1153 C1151 1.327 . S
C1153 C1169 1.429 . S
C1153 H1175 0.950 . S
C1154 H1150 0.949 . S
C1154 C1162 1.574 . S
C1154 C1170 1.368 . S
H1155 C1163 0.950 . S
H1156 C1161 0.950 . S
H1157 C1162 0.949 . S
H1158 C1164 0.950 . S
H1159 C1165 0.950 . S
H1160 C1166 0.949 . S
C1161 H1156 0.950 . S
C1161 C1163 1.327 . S
C1161 C1167 1.429 . S
C1162 C1154 1.574 . S
C1162 H1157 0.949 . S
C1162 C1168 1.368 . S
C1163 C1147 1.349 . S
C1163 H1155 0.950 . S
C1163 C1161 1.327 . S
C1164 C1152 1.349 . S
C1164 H1158 0.950 . S
C1164 C1165 1.327 . S
C1165 H1159 0.950 . S
C1165 C1164 1.327 . S
C1165 C1169 1.429 . S
C1166 C1149 1.574 . S
C1166 H1160 0.949 . S
C1166 C1170 1.368 . S
C1167 C1148 1.429 . S
C1167 C1161 1.429 . S
C1167 C1168 1.523 . S
C1168 C1149 1.368 . S
C1168 C1162 1.368 . S
C1168 C1167 1.523 . S
C1169 C1153 1.429 . S
C1169 C1165 1.429 . S
C1169 C1170 1.523 . S
C1170 C1154 1.368 . S
C1170 C1166 1.368 . S
C1170 C1169 1.523 . S
H1171 C1146 0.950 . S
H1172 C1148 0.950 . S
H1173 C1149 0.949 . S
H1174 C1151 0.950 . S
H1175 C1153 0.950 . S
C1176 C1177 1.349 . S
C1176 C1178 1.327 . S
C1176 H1201 0.950 . S
C1177 C1176 1.349 . S
C1177 C1193 1.349 . S
C1178 C1176 1.327 . S
C1178 C1197 1.429 . S
C1178 H1202 0.950 . S
C1179 C1196 1.574 . S
C1179 C1198 1.368 . S
C1179 H1203 0.949 . S
H1180 C1184 0.949 . S
C1181 C1182 1.349 . S
C1181 C1183 1.327 . S
C1181 H1204 0.950 . S
C1182 C1181 1.349 . S
C1182 C1194 1.349 . S
C1183 C1181 1.327 . S
C1183 C1199 1.429 . S
C1183 H1205 0.950 . S
C1184 H1180 0.949 . S
C1184 C1192 1.574 . S
C1184 C1200 1.368 . S
H1185 C1193 0.950 1_565 S
H1186 C1191 0.950 1_565 S
H1187 C1192 0.949 . S
H1188 C1194 0.950 . S
H1189 C1195 0.950 . S
H1190 C1196 0.949 . S
C1191 H1186 0.950 1_545 S
C1191 C1193 1.327 . S
C1191 C1197 1.429 . S
C1192 C1184 1.574 . S
C1192 H1187 0.949 . S
C1192 C1198 1.368 . S
C1193 C1177 1.349 . S
C1193 H1185 0.950 1_545 S
C1193 C1191 1.327 . S
C1194 C1182 1.349 . S
C1194 H1188 0.950 . S
C1194 C1195 1.327 . S
C1195 H1189 0.950 . S
C1195 C1194 1.327 . S
C1195 C1199 1.429 . S
C1196 C1179 1.574 . S
C1196 H1190 0.949 . S
C1196 C1200 1.368 . S
C1197 C1178 1.429 . S
C1197 C1191 1.429 . S
C1197 C1198 1.523 . S
C1198 C1179 1.368 . S
C1198 C1192 1.368 . S
C1198 C1197 1.523 . S
C1199 C1183 1.429 . S
C1199 C1195 1.429 . S
C1199 C1200 1.523 . S
C1200 C1184 1.368 . S
C1200 C1196 1.368 . S
C1200 C1199 1.523 . S
H1201 C1176 0.950 . S
H1202 C1178 0.950 . S
H1203 C1179 0.949 . S
H1204 C1181 0.950 . S
H1205 C1183 0.950 . S
C1206 C1207 1.349 . S
C1206 C1208 1.327 . S
C1206 H1231 0.950 . S
C1207 C1206 1.349 . S
C1207 C1223 1.349 . S
C1208 C1206 1.327 . S
C1208 C1227 1.429 . S
C1208 H1232 0.950 . S
C1209 C1226 1.574 . S
C1209 C1228 1.368 . S
C1209 H1233 0.949 . S
H1210 C1214 0.949 . S
C1211 C1212 1.349 . S
C1211 C1213 1.327 . S
C1211 H1234 0.950 . S
C1212 C1211 1.349 . S
C1212 C1224 1.349 . S
C1213 C1211 1.327 . S
C1213 C1229 1.429 . S
C1213 H1235 0.950 . S
C1214 H1210 0.949 . S
C1214 C1222 1.574 . S
C1214 C1230 1.368 . S
H1215 C1223 0.950 . S
H1216 C1221 0.950 . S
H1217 C1222 0.949 . S
H1218 C1224 0.950 . S
H1219 C1225 0.950 . S
H1220 C1226 0.949 . S
C1221 H1216 0.950 . S
C1221 C1223 1.327 . S
C1221 C1227 1.429 . S
C1222 C1214 1.574 . S
C1222 H1217 0.949 . S
C1222 C1228 1.368 . S
C1223 C1207 1.349 . S
C1223 H1215 0.950 . S
C1223 C1221 1.327 . S
C1224 C1212 1.349 . S
C1224 H1218 0.950 . S
C1224 C1225 1.327 . S
C1225 H1219 0.950 . S
C1225 C1224 1.327 . S
C1225 C1229 1.429 . S
C1226 C1209 1.574 . S
C1226 H1220 0.949 . S
C1226 C1230 1.368 . S
C1227 C1208 1.429 . S
C1227 C1221 1.429 . S
C1227 C1228 1.523 . S
C1228 C1209 1.368 . S
C1228 C1222 1.368 . S
C1228 C1227 1.523 . S
C1229 C1213 1.429 . S
C1229 C1225 1.429 . S
C1229 C1230 1.523 . S
C1230 C1214 1.368 . S
C1230 C1226 1.368 . S
C1230 C1229 1.523 . S
H1231 C1206 0.950 . S
H1232 C1208 0.950 . S
H1233 C1209 0.949 . S
H1234 C1211 0.950 . S
H1235 C1213 0.950 . S
C1236 C1237 1.349 . S
C1236 C1238 1.327 . S
C1236 H1261 0.950 . S
C1237 C1236 1.349 . S
C1237 C1253 1.349 . S
C1238 C1236 1.327 . S
C1238 C1257 1.429 . S
C1238 H1262 0.950 . S
C1239 C1256 1.574 . S
C1239 C1258 1.368 . S
C1239 H1263 0.949 . S
H1240 C1244 0.949 . S
C1241 C1242 1.349 . S
C1241 C1243 1.327 . S
C1241 H1264 0.950 . S
C1242 C1241 1.349 . S
C1242 C1254 1.349 . S
C1243 C1241 1.327 . S
C1243 C1259 1.429 . S
C1243 H1265 0.950 . S
C1244 H1240 0.949 . S
C1244 C1252 1.574 . S
C1244 C1260 1.368 . S
H1245 C1253 0.950 . S
H1246 C1251 0.950 . S
H1247 C1252 0.949 . S
H1248 C1254 0.950 . S
H1249 C1255 0.950 . S
H1250 C1256 0.949 . S
C1251 H1246 0.950 . S
C1251 C1253 1.327 . S
C1251 C1257 1.429 . S
C1252 C1244 1.574 . S
C1252 H1247 0.949 . S
C1252 C1258 1.368 . S
C1253 C1237 1.349 . S
C1253 H1245 0.950 . S
C1253 C1251 1.327 . S
C1254 C1242 1.349 . S
C1254 H1248 0.950 . S
C1254 C1255 1.327 . S
C1255 H1249 0.950 . S
C1255 C1254 1.327 . S
C1255 C1259 1.429 . S
C1256 C1239 1.574 . S
C1256 H1250 0.949 . S
C1256 C1260 1.368 . S
C1257 C1238 1.429 . S
C1257 C1251 1.429 . S
C1257 C1258 1.523 . S
C1258 C1239 1.368 . S
C1258 C1252 1.368 . S
C1258 C1257 1.523 . S
C1259 C1243 1.429 . S
C1259 C1255 1.429 . S
C1259 C1260 1.523 . S
C1260 C1244 1.368 . S
C1260 C1256 1.368 . S
C1260 C1259 1.523 . S
H1261 C1236 0.950 . S
H1262 C1238 0.950 . S
H1263 C1239 0.949 . S
H1264 C1241 0.950 . S
H1265 C1243 0.950 . S
C1266 C1267 1.349 1_545 S
C1266 C1268 1.327 1_545 S
C1266 H1291 0.950 . S
C1267 C1266 1.349 1_565 S
C1267 C1283 1.349 . S
C1268 C1266 1.327 1_565 S
C1268 C1287 1.429 . S
C1268 H1292 0.950 1_565 S
C1269 C1286 1.574 . S
C1269 C1288 1.368 . S
C1269 H1293 0.949 . S
H1270 C1274 0.949 . S
C1271 C1272 1.349 . S
C1271 C1273 1.327 . S
C1271 H1294 0.950 . S
C1272 C1271 1.349 . S
C1272 C1284 1.349 . S
C1273 C1271 1.327 . S
C1273 C1289 1.429 . S
C1273 H1295 0.950 . S
C1274 H1270 0.949 . S
C1274 C1282 1.574 . S
C1274 C1290 1.368 . S
H1275 C1283 0.950 . S
H1276 C1281 0.950 . S
H1277 C1282 0.949 . S
H1278 C1284 0.950 . S
H1279 C1285 0.950 . S
H1280 C1286 0.949 . S
C1281 H1276 0.950 . S
C1281 C1283 1.327 . S
C1281 C1287 1.429 . S
C1282 C1274 1.574 . S
C1282 H1277 0.949 . S
C1282 C1288 1.368 . S
C1283 C1267 1.349 . S
C1283 H1275 0.950 . S
C1283 C1281 1.327 . S
C1284 C1272 1.349 . S
C1284 H1278 0.950 . S
C1284 C1285 1.327 . S
C1285 H1279 0.950 . S
C1285 C1284 1.327 . S
C1285 C1289 1.429 . S
C1286 C1269 1.574 . S
C1286 H1280 0.949 . S
C1286 C1290 1.368 . S
C1287 C1268 1.429 . S
C1287 C1281 1.429 . S
C1287 C1288 1.523 . S
C1288 C1269 1.368 . S
C1288 C1282 1.368 . S
C1288 C1287 1.523 . S
C1289 C1273 1.429 . S
C1289 C1285 1.429 . S
C1289 C1290 1.523 . S
C1290 C1274 1.368 . S
C1290 C1286 1.368 . S
C1290 C1289 1.523 . S
H1291 C1266 0.950 . S
H1292 C1268 0.950 1_545 S
H1293 C1269 0.949 . S
H1294 C1271 0.950 . S
H1295 C1273 0.950 . S
C397 C18 1.811 . S
C402 C370 1.753 . S
C427 C51 1.812 . S
C432 C205 1.754 . S
C457 C238 1.754 . S
C462 C84 1.811 . S
C487 C271 1.754 . S
C492 C117 1.811 . S
C517 C150 1.812 . S
C522 C304 1.771 . S
C547 C183 1.811 . S
C552 C337 1.754 . S
C577 C40 1.753 . S
C582 C216 1.811 . S
C607 C249 1.812 . S
C612 C73 1.754 . S
C637 C106 1.754 . S
C642 C282 1.812 . S
C667 C315 1.811 . S
C672 C139 1.771 . S
C697 C348 1.812 . S
C702 C172 1.754 . S
C727 C7 1.754 . S
C732 C381 1.812 . S
C757 N200 0.320 . S
C762 N2 0.320 . S
C787 N35 0.320 . S
C792 N233 0.320 . S
C817 N68 0.320 . S
C822 N266 0.320 . S
C847 N101 0.320 . S
C852 N299 0.320 . S
C877 N332 0.320 . S
C882 N134 0.320 . S
C907 N365 0.320 . S
C912 N167 0.320 . S
C937 C186 0.890 . S
C942 N13 0.901 . S
C967 C21 0.890 . S
C972 N46 0.901 . S
C997 N79 0.901 . S
C1002 C54 0.891 . S
C1027 N112 0.901 . S
C1032 C87 0.890 . S
C1057 N145 0.901 . S
C1062 C120 0.890 . S
C1087 N178 0.901 . S
C1092 C153 0.891 . S
C1117 N211 0.900 . S
C1122 C252 0.890 . S
C1147 C285 0.891 . S
C1152 N244 0.901 . S
C1177 N277 0.901 . S
C1182 C318 0.891 . S
C1207 N310 0.901 . S
C1212 C351 0.890 . S
C1237 N343 0.901 . S
C1242 C384 0.890 . S
C1267 N376 0.901 . S
C1272 C219 0.891 . S
