# Generated by pormake.
# Topology wiv, (6)-cn, num edge types: 1
# Building blocks:
#     Node 0, Type 0, BuildingBlock: HISSIN_clean_sbu_0, # of connection points: 6
#     Node 1, Type 0, BuildingBlock: HISSIN_clean_sbu_0, # of connection points: 6
#     Node 2, Type 0, BuildingBlock: HISSIN_clean_sbu_0, # of connection points: 6
#     Node 3, Type 0, BuildingBlock: HISSIN_clean_sbu_0, # of connection points: 6
#     Node 4, Type 0, BuildingBlock: HISSIN_clean_sbu_0, # of connection points: 6
#     Node 5, Type 0, BuildingBlock: HISSIN_clean_sbu_0, # of connection points: 6
#     Node 6, Type 0, BuildingBlock: HISSIN_clean_sbu_0, # of connection points: 6
#     Node 7, Type 0, BuildingBlock: HISSIN_clean_sbu_0, # of connection points: 6
#     Node 8, Type 0, BuildingBlock: HISSIN_clean_sbu_0, # of connection points: 6
#     Node 9, Type 0, BuildingBlock: HISSIN_clean_sbu_0, # of connection points: 6
#     Node 10, Type 0, BuildingBlock: HISSIN_clean_sbu_0, # of connection points: 6
#     Node 11, Type 0, BuildingBlock: HISSIN_clean_sbu_0, # of connection points: 6
#     Node 12, Type 0, BuildingBlock: HISSIN_clean_sbu_0, # of connection points: 6
#     Node 13, Type 0, BuildingBlock: HISSIN_clean_sbu_0, # of connection points: 6
#     Node 14, Type 0, BuildingBlock: HISSIN_clean_sbu_0, # of connection points: 6
#     Node 15, Type 0, BuildingBlock: HISSIN_clean_sbu_0, # of connection points: 6
#     Edge 16, Type (0, 0), BuildingBlock: XIVTED_clean_linker_0, # of connection points: 2
#     Edge 17, Type (0, 0), BuildingBlock: XIVTED_clean_linker_0, # of connection points: 2
#     Edge 18, Type (0, 0), BuildingBlock: XIVTED_clean_linker_0, # of connection points: 2
#     Edge 19, Type (0, 0), BuildingBlock: XIVTED_clean_linker_0, # of connection points: 2
#     Edge 20, Type (0, 0), BuildingBlock: XIVTED_clean_linker_0, # of connection points: 2
#     Edge 21, Type (0, 0), BuildingBlock: XIVTED_clean_linker_0, # of connection points: 2
#     Edge 22, Type (0, 0), BuildingBlock: XIVTED_clean_linker_0, # of connection points: 2
#     Edge 23, Type (0, 0), BuildingBlock: XIVTED_clean_linker_0, # of connection points: 2
#     Edge 24, Type (0, 0), BuildingBlock: XIVTED_clean_linker_0, # of connection points: 2
#     Edge 25, Type (0, 0), BuildingBlock: XIVTED_clean_linker_0, # of connection points: 2
#     Edge 26, Type (0, 0), BuildingBlock: XIVTED_clean_linker_0, # of connection points: 2
#     Edge 27, Type (0, 0), BuildingBlock: XIVTED_clean_linker_0, # of connection points: 2
#     Edge 28, Type (0, 0), BuildingBlock: XIVTED_clean_linker_0, # of connection points: 2
#     Edge 29, Type (0, 0), BuildingBlock: XIVTED_clean_linker_0, # of connection points: 2
#     Edge 30, Type (0, 0), BuildingBlock: XIVTED_clean_linker_0, # of connection points: 2
#     Edge 31, Type (0, 0), BuildingBlock: XIVTED_clean_linker_0, # of connection points: 2
#     Edge 32, Type (0, 0), BuildingBlock: XIVTED_clean_linker_0, # of connection points: 2
#     Edge 33, Type (0, 0), BuildingBlock: XIVTED_clean_linker_0, # of connection points: 2
#     Edge 34, Type (0, 0), BuildingBlock: XIVTED_clean_linker_0, # of connection points: 2
#     Edge 35, Type (0, 0), BuildingBlock: XIVTED_clean_linker_0, # of connection points: 2
#     Edge 36, Type (0, 0), BuildingBlock: XIVTED_clean_linker_0, # of connection points: 2
#     Edge 37, Type (0, 0), BuildingBlock: XIVTED_clean_linker_0, # of connection points: 2
#     Edge 38, Type (0, 0), BuildingBlock: XIVTED_clean_linker_0, # of connection points: 2
#     Edge 39, Type (0, 0), BuildingBlock: XIVTED_clean_linker_0, # of connection points: 2
#     Edge 40, Type (0, 0), BuildingBlock: XIVTED_clean_linker_0, # of connection points: 2
#     Edge 41, Type (0, 0), BuildingBlock: XIVTED_clean_linker_0, # of connection points: 2
#     Edge 42, Type (0, 0), BuildingBlock: XIVTED_clean_linker_0, # of connection points: 2
#     Edge 43, Type (0, 0), BuildingBlock: XIVTED_clean_linker_0, # of connection points: 2
#     Edge 44, Type (0, 0), BuildingBlock: XIVTED_clean_linker_0, # of connection points: 2
#     Edge 45, Type (0, 0), BuildingBlock: XIVTED_clean_linker_0, # of connection points: 2
#     Edge 46, Type (0, 0), BuildingBlock: XIVTED_clean_linker_0, # of connection points: 2
#     Edge 47, Type (0, 0), BuildingBlock: XIVTED_clean_linker_0, # of connection points: 2
#     Edge 48, Type (0, 0), BuildingBlock: XIVTED_clean_linker_0, # of connection points: 2
#     Edge 49, Type (0, 0), BuildingBlock: XIVTED_clean_linker_0, # of connection points: 2
#     Edge 50, Type (0, 0), BuildingBlock: XIVTED_clean_linker_0, # of connection points: 2
#     Edge 51, Type (0, 0), BuildingBlock: XIVTED_clean_linker_0, # of connection points: 2
#     Edge 52, Type (0, 0), BuildingBlock: XIVTED_clean_linker_0, # of connection points: 2
#     Edge 53, Type (0, 0), BuildingBlock: XIVTED_clean_linker_0, # of connection points: 2
#     Edge 54, Type (0, 0), BuildingBlock: XIVTED_clean_linker_0, # of connection points: 2
#     Edge 55, Type (0, 0), BuildingBlock: XIVTED_clean_linker_0, # of connection points: 2
#     Edge 56, Type (0, 0), BuildingBlock: XIVTED_clean_linker_0, # of connection points: 2
#     Edge 57, Type (0, 0), BuildingBlock: XIVTED_clean_linker_0, # of connection points: 2
#     Edge 58, Type (0, 0), BuildingBlock: XIVTED_clean_linker_0, # of connection points: 2
#     Edge 59, Type (0, 0), BuildingBlock: XIVTED_clean_linker_0, # of connection points: 2
#     Edge 60, Type (0, 0), BuildingBlock: XIVTED_clean_linker_0, # of connection points: 2
#     Edge 61, Type (0, 0), BuildingBlock: XIVTED_clean_linker_0, # of connection points: 2
#     Edge 62, Type (0, 0), BuildingBlock: XIVTED_clean_linker_0, # of connection points: 2
#     Edge 63, Type (0, 0), BuildingBlock: XIVTED_clean_linker_0, # of connection points: 2
# Relax obj value: 0.123
# Max RMSD: 0.183
# Mean RMSD: 0.183
data_MOF--net-wiv--node1-HISSIN_clean_sbu_0--edge1-XIVTED_clean_linker_0
_symmetry_space_group_name_H-M    P1
_symmetry_Int_Tables_number       1
_symmetry_cell_setting            triclinic
loop_
_symmetry_equiv_pos_as_xyz
'x, y, z'
_cell_length_a     51.753931
_cell_length_b     51.664903
_cell_length_c     24.938112
_cell_angle_alpha  89.976102
_cell_angle_beta   90.064246
_cell_angle_gamma 89.852533
loop_
_atom_site_label
_atom_site_type_symbol
_atom_site_fract_x
_atom_site_fract_y
_atom_site_fract_z
_atom_type_partial_charge
Eu0 Eu 0.33525 0.11478 0.17126 0.0
Eu1 Eu 0.37627 0.1059 0.06967 0.0
C2 C 0.3585 0.05856 0.1463 0.0
C3 C 0.31331 0.11935 0.31479 0.0
C4 C 0.33686 0.1082 0.33069 0.0
C5 C 0.3027 0.12661 0.4087 0.0
C6 C 0.34338 0.10641 0.38507 0.0
C7 C 0.29619 0.12837 0.35415 0.0
C8 C 0.32653 0.11585 0.42493 0.0
C9 C 0.30743 0.12285 0.25725 0.0
O10 O 0.33788 0.11735 0.03593 0.0
O11 O 0.31026 0.10254 0.10057 0.0
C12 C 0.31497 0.10946 0.05068 0.0
O13 O 0.33679 0.15129 0.12302 0.0
O14 O 0.38996 0.08168 1.00378 0.0
O15 O 0.40395 0.12081 1.01091 0.0
O16 O 0.37907 0.14749 0.09857 0.0
C17 C 0.3588 0.16189 0.10973 0.0
O18 O 0.37576 0.1218 0.20263 0.0
O19 O 0.40174 0.10046 0.14164 0.0
O20 O 0.36472 0.06563 0.0973 0.0
O21 O 0.32075 0.14084 0.23323 0.0
O22 O 0.30597 0.10179 0.22844 0.0
O23 O 0.35142 0.07525 0.1829 0.0
C24 C 0.39619 0.10451 0.92337 0.0
C25 C 0.37361 0.11787 0.90865 0.0
C26 C 0.40453 0.09573 0.82906 0.0
C27 C 0.36638 0.11993 0.85464 0.0
C28 C 0.41165 0.09357 0.88317 0.0
C29 C 0.38167 0.10874 0.81404 0.0
C30 C 0.40259 0.10031 0.98052 0.0
C31 C 0.39801 0.11126 0.18877 0.0
H32 H 0.35039 0.10114 0.30091 0.0
H33 H 0.28933 0.13433 0.43801 0.0
H34 H 0.36166 0.09759 0.39581 0.0
H35 H 0.27799 0.1372 0.3427 0.0
H36 H 0.36141 0.12645 0.93905 0.0
H37 H 0.41662 0.08659 0.7991 0.0
H38 H 0.34885 0.13038 0.84471 0.0
H39 H 0.429 0.08294 0.89367 0.0
Eu40 Eu 0.10521 0.62715 0.98135 0.0
Eu41 Eu 0.10272 0.66787 0.87846 0.0
C42 C 0.15623 0.64786 0.92396 0.0
C43 C 0.10943 0.60737 0.12677 0.0
C44 C 0.12128 0.63088 0.14047 0.0
C45 C 0.10057 0.59968 0.22119 0.0
C46 C 0.12243 0.63893 0.19403 0.0
C47 C 0.09922 0.59177 0.16752 0.0
C48 C 0.11195 0.6235 0.23509 0.0
C49 C 0.10598 0.60005 0.07001 0.0
O50 O 0.09823 0.62759 0.84348 0.0
O51 O 0.11533 0.60209 0.91088 0.0
C52 C 0.10801 0.60553 0.86082 0.0
O53 O 0.06698 0.62212 0.93827 0.0
O54 O 0.1199 0.69486 0.82079 0.0
O55 O 0.07925 0.68555 0.8157 0.0
O56 O 0.06399 0.66467 0.91771 0.0
C57 C 0.05306 0.64201 0.92256 0.0
O58 O 0.09374 0.66589 1.0132 0.0
O59 O 0.11173 0.69307 0.95105 0.0
O60 O 0.1425 0.65098 0.88032 0.0
O61 O 0.08484 0.60856 0.04758 0.0
O62 O 0.12601 0.60281 0.03877 0.0
O63 O 0.14498 0.64486 0.97085 0.0
C64 C 0.10187 0.68958 0.73421 0.0
C65 C 0.09823 0.66403 0.7167 0.0
C66 C 0.11084 0.70232 0.64206 0.0
C67 C 0.10071 0.65767 0.6625 0.0
C68 C 0.10823 0.70869 0.69652 0.0
C69 C 0.10713 0.67667 0.6243 0.0
C70 C 0.09897 0.69609 0.79161 0.0
C71 C 0.10348 0.68837 1.00013 0.0
H72 H 0.12929 0.64323 0.10958 0.0
H73 H 0.09205 0.58746 0.25167 0.0
H74 H 0.13158 0.65723 0.20329 0.0
H75 H 0.08978 0.57368 0.15774 0.0
H76 H 0.09326 0.64893 0.74495 0.0
H77 H 0.11608 0.71743 0.61404 0.0
H78 H 0.0972 0.63784 0.65054 0.0
H79 H 0.11121 0.72852 0.70918 0.0
Eu80 Eu 0.67529 0.89055 0.18023 0.0
Eu81 Eu 0.63446 0.89777 0.07758 0.0
C82 C 0.65138 0.94573 0.15271 0.0
C83 C 0.69828 0.88804 0.32311 0.0
C84 C 0.67383 0.89702 0.33886 0.0
C85 C 0.70986 0.88258 0.41706 0.0
C86 C 0.66731 0.89849 0.39316 0.0
C87 C 0.71635 0.88109 0.36252 0.0
C88 C 0.68508 0.89094 0.43307 0.0
C89 C 0.70409 0.88453 0.26569 0.0
O90 O 0.6727 0.88458 0.04623 0.0
O91 O 0.69961 0.90246 0.10839 0.0
C92 C 0.69525 0.89386 0.05955 0.0
O93 O 0.67258 0.85255 0.13786 0.0
O94 O 0.62067 0.92205 1.01182 0.0
O95 O 0.6076 0.88256 1.01742 0.0
O96 O 0.63105 0.85651 0.10743 0.0
C97 C 0.65051 0.84215 0.124 0.0
O98 O 0.63493 0.88356 0.21243 0.0
O99 O 0.60848 0.90279 0.14891 0.0
O100 O 0.64653 0.93817 0.10337 0.0
O101 O 0.69162 0.86572 0.24246 0.0
O102 O 0.70415 0.90548 0.23639 0.0
O103 O 0.65745 0.92936 0.19065 0.0
C104 C 0.61588 0.89948 0.93084 0.0
C105 C 0.64003 0.88893 0.91743 0.0
C106 C 0.60712 0.90616 0.83597 0.0
C107 C 0.64782 0.88722 0.86382 0.0
C108 C 0.59942 0.90797 0.88975 0.0
C109 C 0.63154 0.89598 0.82232 0.0
C110 C 0.6087 0.90326 0.98759 0.0
C111 C 0.61233 0.89282 0.19689 0.0
H112 H 0.6596 0.90252 0.30903 0.0
H113 H 0.72398 0.87645 0.44654 0.0
H114 H 0.64826 0.9055 0.40384 0.0
H115 H 0.73529 0.87401 0.35112 0.0
H116 H 0.653 0.88229 0.94854 0.0
H117 H 0.59419 0.91337 0.8052 0.0
H118 H 0.66658 0.87895 0.85492 0.0
H119 H 0.58079 0.9164 0.89927 0.0
Eu120 Eu 0.90251 0.37848 0.97493 0.0
Eu121 Eu 0.90346 0.33767 0.87168 0.0
C122 C 0.85087 0.36013 0.91505 0.0
C123 C 0.89824 0.39585 0.12166 0.0
C124 C 0.89085 0.37036 0.13362 0.0
C125 C 0.90152 0.40478 0.21713 0.0
C126 C 0.88914 0.36201 0.18694 0.0
C127 C 0.90345 0.41302 0.16374 0.0
C128 C 0.89453 0.37911 0.22943 0.0
C129 C 0.90194 0.40404 0.06553 0.0
O130 O 0.9054 0.37767 0.8348 0.0
O131 O 0.89636 0.40549 0.90552 0.0
C132 C 0.90016 0.40085 0.85417 0.0
O133 O 0.9402 0.38422 0.93104 0.0
O134 O 0.8859 0.30952 0.81699 0.0
O135 O 0.92612 0.31989 0.80795 0.0
O136 O 0.9432 0.34198 0.90659 0.0
C137 C 0.9539 0.36474 0.91272 0.0
O138 O 0.91587 0.33966 1.00299 0.0
O139 O 0.89372 0.31365 0.94544 0.0
O140 O 0.8646 0.35633 0.8718 0.0
O141 O 0.92296 0.3955 0.04281 0.0
O142 O 0.88191 0.40207 0.03394 0.0
O143 O 0.86204 0.36251 0.96225 0.0
C144 C 0.90226 0.31373 0.72876 0.0
C145 C 0.9014 0.33939 0.71042 0.0
C146 C 0.8973 0.29889 0.63665 0.0
C147 C 0.89876 0.34481 0.65578 0.0
C148 C 0.90006 0.2935 0.69156 0.0
C149 C 0.89673 0.32467 0.61797 0.0
C150 C 0.90631 0.30832 0.78632 0.0
C151 C 0.90416 0.31785 0.99282 0.0
H152 H 0.88667 0.35684 0.1016 0.0
H153 H 0.90612 0.41837 0.24877 0.0
H154 H 0.88343 0.34223 0.19489 0.0
H155 H 0.90938 0.4327 0.15532 0.0
H156 H 0.90321 0.35531 0.73833 0.0
H157 H 0.89549 0.28287 0.60895 0.0
H158 H 0.8989 0.36486 0.64318 0.0
H159 H 0.90065 0.27355 0.7049 0.0
Eu160 Eu 0.34384 0.40769 0.13093 0.0
Eu161 Eu 0.38483 0.40359 0.23404 0.0
C162 C 0.37054 0.45619 0.17677 0.0
C163 C 0.32247 0.41173 0.98666 0.0
C164 C 0.34805 0.41539 0.96955 0.0
C165 C 0.30965 0.40486 0.89375 0.0
C166 C 0.35433 0.41414 0.91514 0.0
C167 C 0.30333 0.40629 0.94841 0.0
C168 C 0.33522 0.40903 0.87644 0.0
C169 C 0.31596 0.41374 0.04421 0.0
O170 O 0.34596 0.41387 0.26707 0.0
O171 O 0.3184 0.39837 0.20244 0.0
C172 C 0.3232 0.40538 0.25229 0.0
O173 O 0.35828 0.36695 0.13175 0.0
O174 O 0.40444 0.42407 0.29894 0.0
O175 O 0.40861 0.38258 0.29214 0.0
O176 O 0.36886 0.36325 0.22098 0.0
C177 C 0.36334 0.35283 0.17415 0.0
O178 O 0.38416 0.41101 0.09623 0.0
O179 O 0.40936 0.3931 0.16325 0.0
O180 O 0.39032 0.44184 0.1911 0.0
O181 O 0.31658 0.39224 0.07171 0.0
O182 O 0.32692 0.43276 0.06995 0.0
O183 O 0.34773 0.44554 0.17362 0.0
C184 C 0.40513 0.40037 0.37932 0.0
C185 C 0.38114 0.38995 0.39402 0.0
C186 C 0.41378 0.40985 0.47313 0.0
C187 C 0.37333 0.38983 0.44777 0.0
C188 C 0.42147 0.41012 0.41928 0.0
C189 C 0.38943 0.40003 0.4881 0.0
C190 C 0.41227 0.40288 0.32228 0.0
C191 C 0.4059 0.40051 0.11328 0.0
H192 H 0.36321 0.41941 0.99827 0.0
H193 H 0.29445 0.40102 0.86497 0.0
H194 H 0.37426 0.417 0.9034 0.0
H195 H 0.28349 0.40333 0.96075 0.0
H196 H 0.36819 0.38238 0.36371 0.0
H197 H 0.42693 0.41744 0.50299 0.0
H198 H 0.35434 0.38241 0.45739 0.0
H199 H 0.44004 0.41829 0.40876 0.0
Eu200 Eu 0.39973 0.63074 0.81762 0.0
Eu201 Eu 0.40318 0.67137 0.92118 0.0
C202 C 0.349 0.65141 0.87785 0.0
C203 C 0.39882 0.61153 0.67186 0.0
C204 C 0.4081 0.63594 0.65654 0.0
C205 C 0.38834 0.6026 0.57855 0.0
C206 C 0.40734 0.64373 0.60288 0.0
C207 C 0.38892 0.59491 0.6325 0.0
C208 C 0.39754 0.62715 0.563 0.0
C209 C 0.39914 0.60373 0.72885 0.0
O210 O 0.40642 0.6309 0.95581 0.0
O211 O 0.38911 0.6058 0.88798 0.0
C212 C 0.39645 0.60904 0.9381 0.0
O213 O 0.43763 0.62464 0.86108 0.0
O214 O 0.38739 0.70008 0.97678 0.0
O215 O 0.42695 0.68713 0.98549 0.0
O216 O 0.44185 0.66698 0.8819 0.0
C217 C 0.45206 0.64389 0.87758 0.0
O218 O 0.41075 0.66948 0.78517 0.0
O219 O 0.39444 0.69695 0.84921 0.0
O220 O 0.36299 0.6555 0.92081 0.0
O221 O 0.42014 0.60932 0.75531 0.0
O222 O 0.3784 0.60912 0.75638 0.0
O223 O 0.35979 0.64771 0.83068 0.0
C224 C 0.40368 0.69456 0.06465 0.0
C225 C 0.39549 0.66996 0.08128 0.0
C226 C 0.40694 0.70766 0.15804 0.0
C227 C 0.39328 0.66415 0.13586 0.0
C228 C 0.40916 0.71345 0.10332 0.0
C229 C 0.39922 0.68283 0.17504 0.0
C230 C 0.40791 0.69991 1.00729 0.0
C231 C 0.40168 0.6921 0.79958 0.0
H232 H 0.41591 0.64907 0.68615 0.0
H233 H 0.38098 0.58916 0.54899 0.0
H234 H 0.41418 0.66292 0.59286 0.0
H235 H 0.3817 0.57597 0.64345 0.0
H236 H 0.39131 0.65506 0.05199 0.0
H237 H 0.41133 0.72262 0.18703 0.0
H238 H 0.38765 0.64475 0.1473 0.0
H239 H 0.41553 0.73253 0.09124 0.0
Eu240 Eu 0.66183 0.59846 0.13928 0.0
Eu241 Eu 0.62162 0.59992 0.24301 0.0
C242 C 0.63717 0.54847 0.18291 0.0
C243 C 0.68445 0.59931 0.99575 0.0
C244 C 0.66065 0.61006 0.98037 0.0
C245 C 0.69533 0.59325 0.90178 0.0
C246 C 0.65411 0.61217 0.92612 0.0
C247 C 0.70186 0.59116 0.95617 0.0
C248 C 0.6712 0.60345 0.88606 0.0
C249 C 0.69015 0.59479 0.05286 0.0
O250 O 0.66082 0.59039 0.27552 0.0
O251 O 0.68725 0.60779 0.21095 0.0
C252 C 0.68306 0.60007 0.26056 0.0
O253 O 0.64435 0.63808 0.14104 0.0
O254 O 0.60122 0.57837 0.30498 0.0
O255 O 0.59875 0.62016 0.30394 0.0
O256 O 0.63786 0.64026 0.23171 0.0
C257 C 0.64034 0.65154 0.18471 0.0
O258 O 0.62148 0.59454 0.1047 0.0
O259 O 0.59642 0.61108 0.17327 0.0
O260 O 0.61713 0.56207 0.1985 0.0
O261 O 0.69001 0.61514 0.08396 0.0
O262 O 0.67788 0.57534 0.07424 0.0
O263 O 0.65963 0.55981 0.17939 0.0
C264 C 0.60168 0.59978 0.38859 0.0
C265 C 0.62513 0.58887 0.406 0.0
C266 C 0.59271 0.61306 0.48029 0.0
C267 C 0.63238 0.59015 0.45995 0.0
C268 C 0.58554 0.61189 0.42613 0.0
C269 C 0.61628 0.60226 0.49785 0.0
C270 C 0.59441 0.5991 0.33132 0.0
C271 C 0.59964 0.6044 0.12277 0.0
H272 H 0.6469 0.61639 1.0104 0.0
H273 H 0.70887 0.58609 0.87217 0.0
H274 H 0.63557 0.62052 0.91562 0.0
H275 H 0.72023 0.58261 0.96733 0.0
H276 H 0.63788 0.57931 0.37784 0.0
H277 H 0.57998 0.62277 0.50827 0.0
H278 H 0.65046 0.58131 0.47206 0.0
H279 H 0.56744 0.62055 0.41351 0.0
Eu280 Eu 0.60789 0.37863 0.81337 0.0
Eu281 Eu 0.60341 0.33771 0.91613 0.0
C282 C 0.65788 0.3567 0.87339 0.0
C283 C 0.61238 0.39862 0.66797 0.0
C284 C 0.6219 0.37414 0.65345 0.0
C285 C 0.60361 0.40765 0.57398 0.0
C286 C 0.62191 0.36629 0.59969 0.0
C287 C 0.60345 0.41538 0.62783 0.0
C288 C 0.6125 0.38284 0.55917 0.0
C289 C 0.60991 0.4059 0.72497 0.0
O290 O 0.59974 0.37803 0.95087 0.0
O291 O 0.61817 0.40318 0.88459 0.0
C292 C 0.61029 0.39978 0.93427 0.0
O293 O 0.56981 0.38532 0.85566 0.0
O294 O 0.61932 0.31034 0.97484 0.0
O295 O 0.57881 0.32061 0.97745 0.0
O296 O 0.56506 0.34291 0.87578 0.0
C297 C 0.55509 0.3661 0.87128 0.0
O298 O 0.5952 0.34038 0.7811 0.0
O299 O 0.6117 0.31231 0.84372 0.0
O300 O 0.64371 0.35322 0.91621 0.0
O301 O 0.58841 0.39891 0.74789 0.0
O302 O 0.62993 0.40147 0.75554 0.0
O303 O 0.64719 0.36013 0.826 0.0
C304 C 0.60021 0.31607 0.06028 0.0
C305 C 0.59764 0.34185 0.07728 0.0
C306 C 0.60608 0.30299 0.15337 0.0
C307 C 0.59893 0.34813 0.1317 0.0
C308 C 0.60461 0.29668 0.09868 0.0
C309 C 0.60299 0.32879 0.17055 0.0
C310 C 0.598 0.30961 1.00272 0.0
C311 C 0.6037 0.31738 0.79458 0.0
H312 H 0.62882 0.36086 0.6839 0.0
H313 H 0.59666 0.42114 0.54398 0.0
H314 H 0.6286 0.34696 0.59021 0.0
H315 H 0.59597 0.43433 0.6382 0.0
H316 H 0.59442 0.35719 0.04844 0.0
H317 H 0.60908 0.28761 0.18226 0.0
H318 H 0.59691 0.36823 0.14333 0.0
H319 H 0.60668 0.27666 0.08644 0.0
Eu320 Eu 0.83508 0.6035 0.67877 0.0
Eu321 Eu 0.87426 0.61144 0.57538 0.0
C322 C 0.86789 0.55772 0.63405 0.0
C323 C 0.81259 0.60064 0.82231 0.0
C324 C 0.83807 0.60463 0.83965 0.0
C325 C 0.79805 0.60397 0.91482 0.0
C326 C 0.84356 0.60806 0.89403 0.0
C327 C 0.79259 0.60043 0.86019 0.0
C328 C 0.82366 0.60778 0.93248 0.0
C329 C 0.80716 0.59635 0.76493 0.0
O330 O 0.83739 0.59448 0.54456 0.0
O331 O 0.80898 0.61012 0.6067 0.0
C332 C 0.81407 0.60182 0.55791 0.0
O333 O 0.84744 0.64505 0.67909 0.0
O334 O 0.89533 0.59385 0.50893 0.0
O335 O 0.89461 0.63551 0.51705 0.0
O336 O 0.8525 0.64894 0.58857 0.0
C337 C 0.84917 0.65947 0.63606 0.0
O338 O 0.87557 0.60389 0.71344 0.0
O339 O 0.89883 0.62338 0.6455 0.0
O340 O 0.88518 0.57461 0.61845 0.0
O341 O 0.80554 0.61704 0.73507 0.0
O342 O 0.82086 0.57822 0.74215 0.0
O343 O 0.84385 0.56497 0.6408 0.0
C344 C 0.89189 0.61807 0.4297 0.0
C345 C 0.8657 0.62201 0.4173 0.0
C346 C 0.90137 0.61489 0.33451 0.0
C347 C 0.85734 0.62208 0.36393 0.0
C348 C 0.90967 0.61463 0.388 0.0
C349 C 0.87505 0.61839 0.32183 0.0
C350 C 0.90027 0.61597 0.48601 0.0
C351 C 0.89648 0.61554 0.69551 0.0
H352 H 0.85382 0.60482 0.81113 0.0
H353 H 0.78219 0.60395 0.9431 0.0
H354 H 0.86353 0.61044 0.90596 0.0
H355 H 0.77278 0.59746 0.84757 0.0
H356 H 0.85168 0.62475 0.44903 0.0
H357 H 0.91547 0.61169 0.30314 0.0
H358 H 0.83701 0.62513 0.35564 0.0
H359 H 0.92992 0.61135 0.39682 0.0
Eu360 Eu 0.6067 0.12749 0.4767 0.0
Eu361 Eu 0.60111 0.16717 0.37322 0.0
C362 C 0.65613 0.15232 0.42049 0.0
C363 C 0.61125 0.10829 0.62218 0.0
C364 C 0.61813 0.1337 0.63589 0.0
C365 C 0.60475 0.09868 0.71655 0.0
C366 C 0.61795 0.14169 0.6895 0.0
C367 C 0.60476 0.09079 0.66284 0.0
C368 C 0.61101 0.12435 0.73059 0.0
C369 C 0.60914 0.10061 0.56547 0.0
O370 O 0.60233 0.12667 0.33776 0.0
O371 O 0.62035 0.10345 0.40763 0.0
C372 C 0.61404 0.1059 0.35677 0.0
O373 O 0.57033 0.11779 0.43073 0.0
O374 O 0.61574 0.19561 0.31557 0.0
O375 O 0.57602 0.18293 0.31104 0.0
O376 O 0.56244 0.15978 0.41085 0.0
C377 C 0.55418 0.13601 0.41579 0.0
O378 O 0.59113 0.1651 0.50713 0.0
O379 O 0.60806 0.19305 0.44545 0.0
O380 O 0.6425 0.15476 0.3765 0.0
O381 O 0.58752 0.10703 0.54203 0.0
O382 O 0.62915 0.10541 0.5353 0.0
O383 O 0.64488 0.14833 0.46707 0.0
C384 C 0.5977 0.18928 0.22943 0.0
C385 C 0.5981 0.16342 0.21225 0.0
C386 C 0.60141 0.20318 0.13649 0.0
C387 C 0.59972 0.15746 0.15777 0.0
C388 C 0.59962 0.20914 0.19126 0.0
C389 C 0.60112 0.17723 0.11913 0.0
C390 C 0.59463 0.19527 0.2869 0.0
C391 C 0.5995 0.18813 0.49413 0.0
H392 H 0.62315 0.14752 0.60494 0.0
H393 H 0.59976 0.08465 0.74705 0.0
H394 H 0.62257 0.16166 0.69849 0.0
H395 H 0.59936 0.07111 0.65301 0.0
H396 H 0.59683 0.14777 0.24098 0.0
H397 H 0.60238 0.21885 0.1077 0.0
H398 H 0.59991 0.13729 0.14589 0.0
H399 H 0.59939 0.22923 0.20373 0.0
Eu400 Eu 0.1707 0.40431 0.66903 0.0
Eu401 Eu 0.13057 0.40078 0.56565 0.0
C402 C 0.14283 0.45315 0.62568 0.0
C403 C 0.19244 0.40686 0.81311 0.0
C404 C 0.16659 0.40823 0.8299 0.0
C405 C 0.20574 0.40225 0.90629 0.0
C406 C 0.16037 0.407 0.88431 0.0
C407 C 0.21197 0.40366 0.85161 0.0
C408 C 0.17985 0.40422 0.92327 0.0
C409 C 0.1988 0.40932 0.75568 0.0
O410 O 0.16893 0.4134 0.53413 0.0
O411 O 0.19627 0.39604 0.59697 0.0
C412 C 0.19166 0.40442 0.54792 0.0
O413 O 0.15572 0.36379 0.6669 0.0
O414 O 0.11085 0.42087 0.50029 0.0
O415 O 0.10734 0.37933 0.50753 0.0
O416 O 0.14919 0.36126 0.5764 0.0
C417 C 0.15275 0.35003 0.62327 0.0
O418 O 0.13028 0.40713 0.70362 0.0
O419 O 0.10592 0.38928 0.63549 0.0
O420 O 0.12361 0.43855 0.60961 0.0
O421 O 0.19798 0.38808 0.72741 0.0
O422 O 0.18772 0.42864 0.73094 0.0
O423 O 0.16591 0.443 0.62975 0.0
C424 C 0.11071 0.39696 0.42035 0.0
C425 C 0.13556 0.38842 0.40628 0.0
C426 C 0.10126 0.40434 0.32611 0.0
C427 C 0.14337 0.38821 0.35257 0.0
C428 C 0.09356 0.40471 0.37992 0.0
C429 C 0.12641 0.39641 0.31172 0.0
C430 C 0.10338 0.39954 0.47718 0.0
C431 C 0.10882 0.39651 0.68568 0.0
H432 H 0.15117 0.41053 0.80093 0.0
H433 H 0.22119 0.40022 0.93531 0.0
H434 H 0.14023 0.40814 0.89587 0.0
H435 H 0.23204 0.40253 0.83946 0.0
H436 H 0.14911 0.38242 0.43703 0.0
H437 H 0.0875 0.41034 0.29581 0.0
H438 H 0.16295 0.3823 0.34334 0.0
H439 H 0.07431 0.41141 0.39002 0.0
Eu440 Eu 0.39896 0.87434 0.46972 0.0
Eu441 Eu 0.40412 0.83483 0.3664 0.0
C442 C 0.34918 0.85106 0.41124 0.0
C443 C 0.3952 0.89259 0.61597 0.0
C444 C 0.39535 0.86623 0.62952 0.0
C445 C 0.39496 0.90343 0.71074 0.0
C446 C 0.39574 0.85848 0.68327 0.0
C447 C 0.39484 0.91113 0.65687 0.0
C448 C 0.3957 0.87698 0.72475 0.0
C449 C 0.39624 0.90061 0.55932 0.0
O450 O 0.40247 0.87526 0.33025 0.0
O451 O 0.38621 0.89918 0.40102 0.0
C452 C 0.39184 0.89649 0.34986 0.0
O453 O 0.43518 0.88452 0.42389 0.0
O454 O 0.38969 0.80507 0.31163 0.0
O455 O 0.42852 0.81974 0.3024 0.0
O456 O 0.4433 0.84275 0.40168 0.0
C457 C 0.45135 0.86657 0.40771 0.0
O458 O 0.41606 0.8371 0.49864 0.0
O459 O 0.39715 0.80938 0.43957 0.0
O460 O 0.363 0.84817 0.36771 0.0
O461 O 0.41782 0.89545 0.5346 0.0
O462 O 0.37615 0.89479 0.53016 0.0
O463 O 0.36033 0.85438 0.45821 0.0
C464 C 0.40548 0.81104 0.2236 0.0
C465 C 0.39622 0.83531 0.20699 0.0
C466 C 0.40961 0.79823 0.13015 0.0
C467 C 0.3941 0.84117 0.15246 0.0
C468 C 0.41189 0.79242 0.18491 0.0
C469 C 0.40112 0.82285 0.11332 0.0
C470 C 0.41009 0.80602 0.28097 0.0
C471 C 0.40704 0.81417 0.48721 0.0
H472 H 0.39545 0.85166 0.59838 0.0
H473 H 0.39439 0.91826 0.74137 0.0
H474 H 0.39663 0.83798 0.69215 0.0
H475 H 0.39459 0.93158 0.64717 0.0
H476 H 0.39112 0.84993 0.23626 0.0
H477 H 0.41533 0.78376 0.10105 0.0
H478 H 0.38711 0.86015 0.14093 0.0
H479 H 0.4192 0.77364 0.19699 0.0
Eu480 Eu 0.83508 0.90694 0.62348 0.0
Eu481 Eu 0.87481 0.90413 0.72702 0.0
C482 C 0.86308 0.95621 0.66534 0.0
C483 C 0.81134 0.90633 0.48022 0.0
C484 C 0.83682 0.90307 0.46227 0.0
C485 C 0.79636 0.90338 0.38791 0.0
C486 C 0.8421 0.9003 0.40763 0.0
C487 C 0.79111 0.90625 0.44278 0.0
C488 C 0.82198 0.90056 0.36957 0.0
C489 C 0.80617 0.91079 0.53761 0.0
O490 O 0.83688 0.91935 0.75585 0.0
O491 O 0.80999 0.89918 0.69672 0.0
C492 C 0.81435 0.90951 0.74417 0.0
O493 O 0.85071 0.8667 0.62633 0.0
O494 O 0.89412 0.92408 0.79292 0.0
O495 O 0.89694 0.88246 0.78688 0.0
O496 O 0.85569 0.86482 0.71711 0.0
C497 C 0.85289 0.85321 0.67048 0.0
O498 O 0.8755 0.90875 0.58828 0.0
O499 O 0.90022 0.89272 0.65813 0.0
O500 O 0.88219 0.94157 0.68234 0.0
O501 O 0.8065 0.89039 0.56852 0.0
O502 O 0.81861 0.93016 0.55893 0.0
O503 O 0.84003 0.94622 0.65989 0.0
C504 C 0.89243 0.90045 0.87328 0.0
C505 C 0.86612 0.89756 0.88556 0.0
C506 C 0.9023 0.90066 0.96857 0.0
C507 C 0.85792 0.89643 0.93895 0.0
C508 C 0.91046 0.90193 0.91508 0.0
C509 C 0.8759 0.89802 0.9812 0.0
C510 C 0.90082 0.90271 0.81703 0.0
C511 C 0.89724 0.89897 0.60732 0.0
H512 H 0.85274 0.90312 0.49049 0.0
H513 H 0.78034 0.90333 0.35994 0.0
H514 H 0.86207 0.89861 0.39521 0.0
H515 H 0.77129 0.90867 0.45588 0.0
H516 H 0.85191 0.89628 0.85377 0.0
H517 H 0.91663 0.90226 1.00005 0.0
H518 H 0.8375 0.89407 0.94709 0.0
H519 H 0.93082 0.9043 0.90638 0.0
Eu520 Eu 0.90038 0.13372 0.32034 0.0
Eu521 Eu 0.90271 0.17408 0.42412 0.0
C522 C 0.8491 0.15359 0.37979 0.0
C523 C 0.90061 0.11455 0.17464 0.0
C524 C 0.91048 0.13875 0.15945 0.0
C525 C 0.88984 0.10601 0.08133 0.0
C526 C 0.90994 0.14659 0.10583 0.0
C527 C 0.89026 0.09824 0.13522 0.0
C528 C 0.89969 0.13031 0.06592 0.0
C529 C 0.90062 0.10672 0.23159 0.0
O530 O 0.907 0.13357 0.45827 0.0
O531 O 0.88981 0.10859 0.39021 0.0
C532 C 0.89717 0.1117 0.44032 0.0
O533 O 0.93866 0.12921 0.36322 0.0
O534 O 0.8864 0.20257 0.47948 0.0
O535 O 0.92609 0.19007 0.48879 0.0
O536 O 0.94118 0.17172 0.38353 0.0
C537 C 0.95241 0.14916 0.37861 0.0
O538 O 0.9101 0.17281 0.2881 0.0
O539 O 0.89279 0.19942 0.35254 0.0
O540 O 0.86285 0.15748 0.42314 0.0
O541 O 0.9214 0.11245 0.25868 0.0
O542 O 0.87966 0.11192 0.25851 0.0
O543 O 0.86016 0.15012 0.33281 0.0
C544 C 0.90247 0.19726 0.56752 0.0
C545 C 0.89306 0.17304 0.58371 0.0
C546 C 0.90705 0.20958 0.66108 0.0
C547 C 0.89084 0.16704 0.6382 0.0
C548 C 0.90923 0.21557 0.60647 0.0
C549 C 0.89808 0.18512 0.67764 0.0
C550 C 0.90682 0.20264 0.51026 0.0
C551 C 0.90009 0.19498 0.30279 0.0
H552 H 0.91856 0.15169 0.18914 0.0
H553 H 0.88209 0.09283 0.05169 0.0
H554 H 0.91727 0.1656 0.09584 0.0
H555 H 0.88253 0.07949 0.1461 0.0
H556 H 0.88794 0.15856 0.55416 0.0
H557 H 0.9125 0.22406 0.69033 0.0
H558 H 0.88422 0.14791 0.64935 0.0
H559 H 0.9166 0.23434 0.59469 0.0
Eu560 Eu 0.16734 0.10096 0.62658 0.0
Eu561 Eu 0.1276 0.10833 0.72914 0.0
C562 C 0.13455 0.05498 0.6695 0.0
C563 C 0.18992 0.09804 0.48324 0.0
C564 C 0.16466 0.10392 0.46665 0.0
C565 C 0.2034 0.09733 0.38979 0.0
C566 C 0.1587 0.10608 0.41217 0.0
C567 C 0.20932 0.09502 0.44452 0.0
C568 C 0.1779 0.10251 0.37295 0.0
C569 C 0.19553 0.09403 0.54066 0.0
O570 O 0.1642 0.09047 0.7597 0.0
O571 O 0.19283 0.10733 0.69961 0.0
C572 C 0.18755 0.0981 0.74759 0.0
O573 O 0.15487 0.14248 0.62665 0.0
O574 O 0.1055 0.09046 0.79373 0.0
O575 O 0.10788 0.13214 0.78903 0.0
O576 O 0.14912 0.14604 0.71706 0.0
C577 C 0.15279 0.15675 0.6698 0.0
O578 O 0.127 0.10169 0.59123 0.0
O579 O 0.1034 0.12105 0.65892 0.0
O580 O 0.117 0.0718 0.68468 0.0
O581 O 0.19669 0.11481 0.5703 0.0
O582 O 0.1822 0.07575 0.56364 0.0
O583 O 0.15857 0.06231 0.66372 0.0
C584 C 0.10914 0.11307 0.87505 0.0
C585 C 0.13544 0.11294 0.88889 0.0
C586 C 0.09812 0.1122 0.96973 0.0
C587 C 0.14306 0.11217 0.94274 0.0
C588 C 0.09055 0.11284 0.91578 0.0
C589 C 0.12449 0.11162 0.98398 0.0
C590 C 0.10122 0.11232 0.81828 0.0
C591 C 0.10608 0.11355 0.60875 0.0
H592 H 0.14941 0.10651 0.49585 0.0
H593 H 0.21863 0.09435 0.36067 0.0
H594 H 0.13898 0.11055 0.40076 0.0
H595 H 0.22894 0.09046 0.45655 0.0
H596 H 0.1501 0.1131 0.85794 0.0
H597 H 0.08326 0.11223 1.00026 0.0
H598 H 0.1635 0.1114 0.95191 0.0
H599 H 0.07016 0.11295 0.90588 0.0
Eu600 Eu 0.10404 0.87908 0.31788 0.0
Eu601 Eu 0.1032 0.83813 0.42117 0.0
C602 C 0.15582 0.85977 0.37633 0.0
C603 C 0.10858 0.898 0.17166 0.0
C604 C 0.11951 0.87392 0.15862 0.0
C605 C 0.10195 0.90647 0.07671 0.0
C606 C 0.12131 0.86598 0.10504 0.0
C607 C 0.09995 0.91426 0.13035 0.0
C608 C 0.11242 0.88211 0.06337 0.0
C609 C 0.10443 0.90538 0.22816 0.0
O610 O 0.10039 0.87804 0.45796 0.0
O611 O 0.11033 0.90577 0.38776 0.0
C612 C 0.10593 0.90118 0.43891 0.0
O613 O 0.06622 0.88468 0.36177 0.0
O614 O 0.12128 0.8108 0.47724 0.0
O615 O 0.08059 0.81981 0.48424 0.0
O616 O 0.06339 0.84248 0.38649 0.0
C617 C 0.05262 0.86528 0.38053 0.0
O618 O 0.09153 0.84028 0.28837 0.0
O619 O 0.11238 0.81371 0.3476 0.0
O620 O 0.14222 0.85638 0.41991 0.0
O621 O 0.08352 0.89613 0.24998 0.0
O622 O 0.12435 0.90355 0.26015 0.0
O623 O 0.14444 0.86253 0.32943 0.0
C624 C 0.10399 0.81523 0.5647 0.0
C625 C 0.10102 0.84077 0.58291 0.0
C626 C 0.11242 0.8016 0.6566 0.0
C627 C 0.10356 0.84668 0.63733 0.0
C628 C 0.10979 0.79568 0.6019 0.0
C629 C 0.1093 0.82722 0.67508 0.0
C630 C 0.10066 0.80918 0.50717 0.0
C631 C 0.10268 0.8182 0.29959 0.0
H632 H 0.12631 0.86108 0.19 0.0
H633 H 0.09464 0.91925 0.04575 0.0
H634 H 0.12971 0.84724 0.09625 0.0
H635 H 0.09123 0.93282 0.13961 0.0
H636 H 0.09642 0.85618 0.55507 0.0
H637 H 0.11713 0.78612 0.68426 0.0
H638 H 0.1005 0.86652 0.64983 0.0
H639 H 0.11221 0.77585 0.58871 0.0
H640 H 0.35768 0.93528 0.36869 0.0
H641 H 0.39234 0.02031 0.11267 0.0
H642 H 0.41046 0.90696 0.24815 0.0
H643 H 0.32879 0.03501 0.2203 0.0
H644 H 0.39901 0.97796 0.15653 0.0
H645 H 0.34713 0.97165 0.31153 0.0
C646 C 0.36714 0.93673 0.33008 0.0
C647 C 0.38521 0.91816 0.3135 0.0
C648 C 0.38337 0.99035 0.16977 0.0
C649 C 0.3731 0.96015 0.24709 0.0
C650 C 0.37947 0.01438 0.1446 0.0
C651 C 0.36021 0.03125 0.16344 0.0
C652 C 0.36785 0.98343 0.21379 0.0
C653 C 0.34415 0.02279 0.20507 0.0
C654 C 0.36096 0.95751 0.29712 0.0
C655 C 0.39649 0.92095 0.26255 0.0
N656 N 0.34849 0.99968 0.22904 0.0
N657 N 0.39046 0.94178 0.23123 0.0
H658 H 0.93395 0.65229 0.68869 0.0
H659 H 0.02354 0.59766 0.91927 0.0
H660 H 0.90839 0.58861 0.78718 0.0
H661 H 0.02342 0.678 0.87128 0.0
H662 H 0.98345 0.59135 0.86792 0.0
H663 H 0.96998 0.65922 0.75029 0.0
C664 C 0.93597 0.63972 0.72324 0.0
C665 C 0.91821 0.61983 0.73283 0.0
C666 C 0.99213 0.61038 0.86941 0.0
C667 C 0.95947 0.62757 0.80332 0.0
C668 C 0.01494 0.61402 0.89869 0.0
C669 C 0.02699 0.63834 0.89931 0.0
C670 C 0.9817 0.6311 0.83992 0.0
C671 C 0.01498 0.65886 0.87183 0.0
C672 C 0.95642 0.6438 0.75857 0.0
C673 C 0.92165 0.60423 0.7785 0.0
N674 N 0.99326 0.65467 0.84269 0.0
N675 N 0.94208 0.60826 0.81188 0.0
H676 H 0.61633 0.98278 0.11908 0.0
H677 H 0.65044 0.06897 0.37344 0.0
H678 H 0.68157 0.97052 0.22384 0.0
H679 H 0.59459 0.09468 0.2561 0.0
H680 H 0.66223 0.03343 0.31519 0.0
H681 H 0.60874 0.025 0.1627 0.0
C682 C 0.62941 0.98929 0.15019 0.0
C683 C 0.64941 0.97314 0.16845 0.0
C684 C 0.64746 0.04682 0.30172 0.0
C685 C 0.64073 0.02073 0.2186 0.0
C686 C 0.64056 0.06709 0.33532 0.0
C687 C 0.62127 0.08467 0.31995 0.0
C688 C 0.63482 0.04367 0.2523 0.0
C689 C 0.60949 0.08144 0.26956 0.0
C690 C 0.62498 0.01322 0.17527 0.0
C691 C 0.6657 0.98225 0.20911 0.0
N692 N 0.61625 0.06109 0.23763 0.0
N693 N 0.66084 0.00524 0.23306 0.0
H694 H 0.98309 0.40931 0.91347 0.0
H695 H 0.07093 0.36054 0.67647 0.0
H696 H 0.9839 0.32993 0.85915 0.0
H697 H 0.09812 0.42138 0.7807 0.0
H698 H 0.03563 0.3522 0.73863 0.0
H699 H 0.02306 0.41698 0.86272 0.0
C700 C 0.99183 0.39342 0.89167 0.0
C701 C 0.97997 0.369 0.8902 0.0
C702 C 0.04937 0.36732 0.74806 0.0
C703 C 0.02511 0.3778 0.8316 0.0
C704 C 0.0694 0.37224 0.71238 0.0
C705 C 0.08739 0.39175 0.72336 0.0
C706 C 0.04696 0.38231 0.79467 0.0
C707 C 0.08461 0.40613 0.77085 0.0
C708 C 0.01458 0.39783 0.86277 0.0
C709 C 0.99217 0.34912 0.86127 0.0
N710 N 0.06454 0.40131 0.80466 0.0
N711 N 0.0138 0.35408 0.83251 0.0
H712 H 0.41517 0.48509 0.17028 0.0
H713 H 0.3618 0.56965 0.9313 0.0
H714 H 0.33476 0.48532 0.12371 0.0
H715 H 0.42279 0.59951 0.03177 0.0
H716 H 0.35529 0.53446 0.99526 0.0
H717 H 0.42176 0.52412 0.1154 0.0
C718 C 0.39887 0.4935 0.14925 0.0
C719 C 0.37443 0.48178 0.15134 0.0
C720 C 0.37007 0.54876 1.00335 0.0
C721 C 0.38199 0.52576 0.08791 0.0
C722 C 0.37392 0.56871 0.9667 0.0
C723 C 0.39289 0.58747 0.97623 0.0
C724 C 0.38561 0.5472 0.0494 0.0
C725 C 0.40791 0.58543 1.02306 0.0
C726 C 0.40266 0.51569 0.11798 0.0
C727 C 0.35398 0.49352 0.1232 0.0
N728 N 0.40412 0.56546 0.0578 0.0
N729 N 0.35832 0.51457 0.09206 0.0
H730 H 0.56047 0.6393 0.13319 0.0
H731 H 0.48076 0.59896 0.87691 0.0
H732 H 0.59108 0.58199 1.02435 0.0
H733 H 0.48007 0.67669 0.94055 0.0
H734 H 0.51837 0.58911 0.93373 0.0
H735 H 0.52679 0.64954 0.06793 0.0
C736 C 0.55998 0.6287 0.09574 0.0
C737 C 0.57853 0.60967 0.08429 0.0
C738 C 0.5101 0.60838 0.93451 0.0
C739 C 0.54 0.62135 1.00942 0.0
C740 C 0.48871 0.61404 0.90212 0.0
C741 C 0.47713 0.63865 0.90415 0.0
C742 C 0.5195 0.62729 0.96985 0.0
C743 C 0.48824 0.65744 0.93764 0.0
C744 C 0.54089 0.63473 0.05833 0.0
C745 C 0.57711 0.59678 0.03474 0.0
N746 N 0.50851 0.65124 0.96974 0.0
N747 N 0.55799 0.6027 0.99918 0.0
H748 H 0.5933 0.51857 0.1774 0.0
H749 H 0.64515 0.43911 0.9294 0.0
H750 H 0.67285 0.5212 0.12554 0.0
H751 H 0.58413 0.40826 0.02833 0.0
H752 H 0.65226 0.47311 0.99576 0.0
H753 H 0.58662 0.4806 0.1197 0.0
C754 C 0.60942 0.51097 0.15461 0.0
C755 C 0.63361 0.52321 0.15603 0.0
C756 C 0.63735 0.45885 1.00298 0.0
C757 C 0.62592 0.48044 0.08939 0.0
C758 C 0.63313 0.43959 0.96493 0.0
C759 C 0.614 0.42089 0.97335 0.0
C760 C 0.62202 0.45973 0.04934 0.0
C761 C 0.59915 0.4223 1.02042 0.0
C762 C 0.60558 0.48939 0.1217 0.0
C763 C 0.65383 0.51254 0.12562 0.0
N764 N 0.60332 0.44157 0.05657 0.0
N765 N 0.64942 0.49204 0.09297 0.0
H766 H 0.44414 0.36451 0.11969 0.0
H767 H 0.52782 0.41195 0.87583 0.0
H768 H 0.41525 0.42588 1.01833 0.0
H769 H 0.5247 0.33185 0.92512 0.0
H770 H 0.48947 0.42073 0.9312 0.0
H771 H 0.47809 0.35589 0.05426 0.0
C772 C 0.44506 0.3763 0.08381 0.0
C773 C 0.42692 0.39599 0.07446 0.0
C774 C 0.49709 0.40121 0.92903 0.0
C775 C 0.46575 0.38621 0.99949 0.0
C776 C 0.51888 0.39616 0.89748 0.0
C777 C 0.52965 0.37118 0.89617 0.0
C778 C 0.48647 0.38124 0.96011 0.0
C779 C 0.51726 0.35146 0.92507 0.0
C780 C 0.46428 0.37121 0.04629 0.0
C781 C 0.42887 0.41049 0.02694 0.0
N782 N 0.49663 0.357 0.95649 0.0
N783 N 0.44815 0.40548 0.99127 0.0
H784 H 0.88059 0.39996 0.75262 0.0
H785 H 0.913 0.54662 0.6854 0.0
H786 H 0.91478 0.451 0.86957 0.0
H787 H 0.84104 0.51228 0.63517 0.0
H788 H 0.92334 0.50692 0.73518 0.0
H789 H 0.87509 0.43698 0.69166 0.0
C790 C 0.88722 0.4189 0.76512 0.0
C791 C 0.89803 0.42258 0.81616 0.0
C792 C 0.90551 0.50801 0.71246 0.0
C793 C 0.8923 0.46452 0.74665 0.0
C794 C 0.89971 0.53047 0.68372 0.0
C795 C 0.87616 0.53259 0.65616 0.0
C796 C 0.88791 0.48742 0.71249 0.0
C797 C 0.85938 0.51132 0.65603 0.0
C798 C 0.88398 0.43991 0.73052 0.0
C799 C 0.90615 0.44748 0.83069 0.0
N800 N 0.8656 0.48951 0.68378 0.0
N801 N 0.90325 0.46754 0.79593 0.0
H802 H 0.51181 0.1672 0.41035 0.0
H803 H 0.443 0.08309 0.18796 0.0
H804 H 0.53874 0.09068 0.36913 0.0
H805 H 0.40244 0.14195 0.27768 0.0
H806 H 0.47916 0.08641 0.25101 0.0
H807 H 0.472 0.15907 0.3603 0.0
C808 C 0.50912 0.14852 0.39147 0.0
C809 C 0.52852 0.12957 0.39385 0.0
C810 C 0.46223 0.09842 0.25706 0.0
C811 C 0.48339 0.12038 0.33544 0.0
C812 C 0.44168 0.09669 0.22089 0.0
C813 C 0.41975 0.11243 0.22726 0.0
C814 C 0.46102 0.11632 0.29934 0.0
C815 C 0.41898 0.1295 0.27105 0.0
C816 C 0.48642 0.1439 0.3629 0.0
C817 C 0.52413 0.10572 0.36857 0.0
N818 N 0.43944 0.1312 0.30505 0.0
N819 N 0.50217 0.10194 0.3396 0.0
H820 H 0.08245 0.59649 0.76583 0.0
H821 H 0.17749 0.48323 0.67915 0.0
H822 H 0.14289 0.56623 0.86768 0.0
H823 H 0.09735 0.48115 0.63075 0.0
H824 H 0.16848 0.52154 0.73269 0.0
H825 H 0.09066 0.56098 0.70206 0.0
C826 C 0.0974 0.58241 0.77476 0.0
C827 C 0.11192 0.58417 0.82228 0.0
C828 C 0.15293 0.51283 0.70994 0.0
C829 C 0.12169 0.54425 0.74933 0.0
C830 C 0.15803 0.49101 0.67901 0.0
C831 C 0.13806 0.47872 0.65073 0.0
C832 C 0.12775 0.52278 0.7122 0.0
C833 C 0.11328 0.48991 0.65218 0.0
C834 C 0.10199 0.56223 0.7385 0.0
C835 C 0.13107 0.56548 0.83188 0.0
N836 N 0.10876 0.51135 0.68267 0.0
N837 N 0.13553 0.54645 0.79555 0.0
H838 H 0.60759 0.86153 0.28486 0.0
H839 H 0.46733 0.91299 0.36675 0.0
H840 H 0.56689 0.92022 0.19467 0.0
H841 H 0.49384 0.83546 0.40083 0.0
H842 H 0.50824 0.92158 0.32035 0.0
H843 H 0.57008 0.8574 0.34391 0.0
C844 C 0.59085 0.87369 0.27767 0.0
C845 C 0.59026 0.89106 0.23437 0.0
C846 C 0.50516 0.90283 0.33864 0.0
C847 C 0.5475 0.88664 0.30225 0.0
C848 C 0.48197 0.89798 0.36549 0.0
C849 C 0.47723 0.87345 0.38747 0.0
C850 C 0.52382 0.88314 0.33467 0.0
C851 C 0.49672 0.85459 0.38415 0.0
C852 C 0.56947 0.87127 0.31134 0.0
C853 C 0.56805 0.90636 0.22714 0.0
N854 N 0.51916 0.85981 0.35815 0.0
N855 N 0.54754 0.9038 0.26077 0.0
H856 H 0.82814 0.98793 0.6167 0.0
H857 H 0.92336 0.10125 0.53397 0.0
H858 H 0.90876 0.98371 0.6611 0.0
H859 H 0.86161 0.07331 0.43309 0.0
H860 H 0.91537 0.06502 0.59614 0.0
H861 H 0.83689 0.02727 0.56652 0.0
C862 C 0.84766 0.99544 0.61665 0.0
C863 C 0.86784 0.98224 0.64269 0.0
C864 C 0.90369 0.06696 0.56029 0.0
C865 C 0.87785 0.02748 0.58509 0.0
C866 C 0.90815 0.08754 0.52498 0.0
C867 C 0.89322 0.09011 0.47818 0.0
C868 C 0.88371 0.04944 0.54922 0.0
C869 C 0.87375 0.07191 0.46837 0.0
C870 C 0.85262 0.01786 0.58768 0.0
C871 C 0.89268 0.99316 0.64129 0.0
N872 N 0.86944 0.05248 0.50378 0.0
N873 N 0.89707 0.01518 0.6126 0.0
H874 H 0.09556 0.08854 0.51425 0.0
H875 H 0.98094 0.18437 0.43461 0.0
H876 H 0.06865 0.15063 0.61581 0.0
H877 H 0.9826 0.10522 0.37897 0.0
H878 H 0.01993 0.17609 0.48673 0.0
H879 H 0.06015 0.09795 0.45142 0.0
C880 C 0.08226 0.10417 0.52325 0.0
C881 C 0.0849 0.11874 0.57048 0.0
C882 C 0.01188 0.16062 0.46271 0.0
C883 C 0.04491 0.12979 0.49857 0.0
C884 C 0.9897 0.16533 0.43258 0.0
C885 C 0.97829 0.14536 0.40271 0.0
C886 C 0.023 0.13585 0.46255 0.0
C887 C 0.99065 0.12112 0.40171 0.0
C888 C 0.06211 0.10946 0.48748 0.0
C889 C 0.06717 0.13875 0.58019 0.0
N890 N 0.01235 0.11698 0.43147 0.0
N891 N 0.04801 0.14377 0.5444 0.0
H892 H 0.09261 0.95161 0.42121 0.0
H893 H 0.16111 0.00937 0.67221 0.0
H894 H 0.12239 0.90014 0.54288 0.0
H895 H 0.09117 0.04442 0.6118 0.0
H896 H 0.15131 0.97012 0.62049 0.0
H897 H 0.09618 0.98776 0.48463 0.0
C898 C 0.09987 0.94796 0.46127 0.0
C899 C 0.10727 0.92296 0.47695 0.0
C900 C 0.13793 0.98627 0.61942 0.0
C901 C 0.11171 0.96404 0.54896 0.0
C902 C 0.14347 0.00856 0.64883 0.0
C903 C 0.1268 0.02996 0.64645 0.0
C904 C 0.11607 0.98583 0.58611 0.0
C905 C 0.10432 0.02815 0.61519 0.0
C906 C 0.10171 0.96848 0.49743 0.0
C907 C 0.11639 0.91916 0.52941 0.0
N908 N 0.09985 0.00662 0.5853 0.0
N909 N 0.11876 0.9396 0.5634 0.0
H910 H 0.0226 0.90945 0.37711 0.0
H911 H 0.93635 0.8643 0.62008 0.0
H912 H 0.02388 0.8314 0.43916 0.0
H913 H 0.9074 0.92201 0.50999 0.0
H914 H 0.972 0.85553 0.55889 0.0
H915 H 0.9828 0.91763 0.42835 0.0
C916 C 0.01436 0.89395 0.40077 0.0
C917 C 0.02671 0.86974 0.40403 0.0
C918 C 0.95781 0.87007 0.54799 0.0
C919 C 0.98177 0.87917 0.46329 0.0
C920 C 0.93756 0.87523 0.5831 0.0
C921 C 0.91893 0.89398 0.5702 0.0
C922 C 0.95982 0.88405 0.49995 0.0
C923 C 0.92137 0.90737 0.52138 0.0
C924 C 0.99171 0.89865 0.42995 0.0
C925 C 0.01518 0.85039 0.43543 0.0
N926 N 0.94165 0.90233 0.48812 0.0
N927 N 0.99363 0.85564 0.46437 0.0
H928 H 0.32156 0.19729 0.08756 0.0
H929 H 0.39157 0.31578 0.22809 0.0
H930 H 0.40029 0.19067 0.14284 0.0
H931 H 0.33426 0.32553 0.10385 0.0
H932 H 0.39202 0.26888 0.20961 0.0
H933 H 0.32305 0.24388 0.10422 0.0
C934 C 0.33926 0.20576 0.1027 0.0
C935 C 0.3609 0.19026 0.11346 0.0
C936 C 0.3794 0.28141 0.18657 0.0
C937 C 0.36251 0.24334 0.13404 0.0
C938 C 0.37894 0.30802 0.19742 0.0
C939 C 0.36285 0.32446 0.16744 0.0
C940 C 0.36323 0.27133 0.14639 0.0
C941 C 0.34704 0.31354 0.12774 0.0
C942 C 0.34009 0.23228 0.11228 0.0
C943 C 0.38333 0.20211 0.13337 0.0
N944 N 0.34751 0.28768 0.11862 0.0
N945 N 0.38348 0.228 0.1437 0.0
H946 H 0.31219 0.6467 0.79888 0.0
H947 H 0.19286 0.6467 1.00425 0.0
H948 H 0.32087 0.65401 0.97047 0.0
H949 H 0.18463 0.64862 0.83193 0.0
H950 H 0.23995 0.64711 0.99323 0.0
H951 H 0.26529 0.64518 0.81063 0.0
C952 C 0.30427 0.648 0.83898 0.0
C953 C 0.32053 0.65057 0.88367 0.0
C954 C 0.22778 0.64744 0.95789 0.0
C955 C 0.26687 0.64875 0.8975 0.0
C956 C 0.20091 0.64717 0.96419 0.0
C957 C 0.18474 0.64772 0.91903 0.0
C958 C 0.2385 0.64814 0.90608 0.0
C959 C 0.19627 0.6483 0.86802 0.0
C960 C 0.27749 0.64714 0.8457 0.0
C961 C 0.30913 0.65212 0.93474 0.0
N962 N 0.22237 0.64848 0.86298 0.0
N963 N 0.28305 0.65117 0.94024 0.0
H964 H 0.61585 0.80933 0.0757 0.0
H965 H 0.65276 0.68823 0.25976 0.0
H966 H 0.67699 0.81147 0.19349 0.0
H967 H 0.62428 0.6792 0.09816 0.0
H968 H 0.65322 0.73537 0.24651 0.0
H969 H 0.61069 0.76276 0.09337 0.0
C970 C 0.62813 0.80001 0.10519 0.0
C971 C 0.64707 0.81413 0.13268 0.0
C972 C 0.64673 0.72298 0.21419 0.0
C973 C 0.64086 0.76145 0.15391 0.0
C974 C 0.64634 0.6962 0.22182 0.0
C975 C 0.63875 0.67991 0.17979 0.0
C976 C 0.63895 0.73342 0.16465 0.0
C977 C 0.63061 0.69114 0.13132 0.0
C978 C 0.62519 0.77355 0.11523 0.0
C979 C 0.66241 0.80122 0.17078 0.0
N980 N 0.63089 0.71724 0.12504 0.0
N981 N 0.65888 0.77564 0.18047 0.0
H982 H 0.82299 0.36165 0.8223 0.0
H983 H 0.68557 0.35358 0.96654 0.0
H984 H 0.81378 0.3604 0.99438 0.0
H985 H 0.6951 0.36175 0.79534 0.0
H986 H 0.73229 0.35541 0.97749 0.0
H987 H 0.77629 0.36132 0.81205 0.0
C988 C 0.81115 0.36132 0.85809 0.0
C989 C 0.8224 0.36092 0.90941 0.0
C990 C 0.7242 0.35682 0.93753 0.0
C991 C 0.7686 0.36051 0.89767 0.0
C992 C 0.69747 0.3557 0.93112 0.0
C993 C 0.68632 0.35744 0.8798 0.0
C994 C 0.74004 0.35961 0.89234 0.0
C995 C 0.7028 0.36029 0.83561 0.0
C996 C 0.78441 0.36118 0.85209 0.0
C997 C 0.80597 0.3607 0.9541 0.0
N998 N 0.72884 0.36123 0.8429 0.0
N999 N 0.77987 0.36039 0.94718 0.0
H1000 H 0.84584 0.68761 0.72888 0.0
H1001 H 0.85101 0.82432 0.57919 0.0
H1002 H 0.85129 0.69645 0.55706 0.0
H1003 H 0.85286 0.81679 0.75165 0.0
H1004 H 0.84941 0.77754 0.57115 0.0
H1005 H 0.8465 0.73463 0.73844 0.0
C1006 C 0.84706 0.69941 0.69307 0.0
C1007 C 0.8485 0.68799 0.64198 0.0
C1008 C 0.85017 0.78603 0.61081 0.0
C1009 C 0.84934 0.74195 0.65287 0.0
C1010 C 0.85106 0.81285 0.61555 0.0
C1011 C 0.85205 0.82462 0.66631 0.0
C1012 C 0.85019 0.77062 0.6571 0.0
C1013 C 0.85213 0.80858 0.71175 0.0
C1014 C 0.84751 0.72629 0.69867 0.0
C1015 C 0.85013 0.70434 0.5972 0.0
N1016 N 0.85118 0.78237 0.70608 0.0
N1017 N 0.85051 0.73046 0.60372 0.0
H1018 H 0.81277 0.15086 0.29951 0.0
H1019 H 0.69227 0.15001 0.5015 0.0
H1020 H 0.82047 0.15532 0.47173 0.0
H1021 H 0.68503 0.15602 0.32937 0.0
H1022 H 0.73937 0.15012 0.4917 0.0
H1023 H 0.76576 0.15067 0.30982 0.0
C1024 C 0.80461 0.15178 0.33945 0.0
C1025 C 0.82061 0.15319 0.38475 0.0
C1026 C 0.72742 0.15148 0.45613 0.0
C1027 C 0.76685 0.15293 0.39691 0.0
C1028 C 0.70054 0.15143 0.46173 0.0
C1029 C 0.68464 0.15307 0.41626 0.0
C1030 C 0.73844 0.15303 0.40469 0.0
C1031 C 0.69646 0.1548 0.36566 0.0
C1032 C 0.77776 0.15171 0.34534 0.0
C1033 C 0.80892 0.15432 0.43557 0.0
N1034 N 0.72259 0.15467 0.36127 0.0
N1035 N 0.78279 0.15414 0.44026 0.0
H1036 H 0.15078 0.31328 0.54319 0.0
H1037 H 0.15107 0.19377 0.74897 0.0
H1038 H 0.15531 0.32153 0.71527 0.0
H1039 H 0.15612 0.18485 0.57712 0.0
H1040 H 0.15122 0.24079 0.73716 0.0
H1041 H 0.15121 0.26611 0.55438 0.0
C1042 C 0.15188 0.30522 0.58323 0.0
C1043 C 0.15307 0.32144 0.62827 0.0
C1044 C 0.15237 0.22852 0.70205 0.0
C1045 C 0.15348 0.26756 0.64143 0.0
C1046 C 0.15229 0.20166 0.70881 0.0
C1047 C 0.15363 0.18528 0.66405 0.0
C1048 C 0.15366 0.23911 0.65013 0.0
C1049 C 0.15513 0.19666 0.6129 0.0
C1050 C 0.15215 0.2783 0.58963 0.0
C1051 C 0.15444 0.30988 0.67926 0.0
N1052 N 0.15503 0.22282 0.60735 0.0
N1053 N 0.15457 0.28372 0.6844 0.0
H1054 H 0.32055 0.84769 0.31934 0.0
H1055 H 0.18444 0.85991 0.46827 0.0
H1056 H 0.31267 0.85629 0.49079 0.0
H1057 H 0.19238 0.8589 0.29593 0.0
H1058 H 0.23121 0.85772 0.47704 0.0
H1059 H 0.27376 0.85047 0.31016 0.0
C1060 C 0.309 0.85005 0.35521 0.0
C1061 C 0.32065 0.85171 0.40605 0.0
C1062 C 0.22279 0.85803 0.43727 0.0
C1063 C 0.26683 0.85502 0.39554 0.0
C1064 C 0.196 0.85927 0.43212 0.0
C1065 C 0.18437 0.85951 0.38116 0.0
C1066 C 0.23824 0.85691 0.39118 0.0
C1067 C 0.20047 0.85877 0.33597 0.0
C1068 C 0.28223 0.85173 0.3498 0.0
C1069 C 0.30458 0.85487 0.45085 0.0
N1070 N 0.2266 0.8574 0.34205 0.0
N1071 N 0.2785 0.85641 0.44454 0.0
H1072 H 0.18389 0.07463 0.8455 0.0
H1073 H 0.3156 0.13476 0.95521 0.0
H1074 H 0.23568 0.12075 0.74943 0.0
H1075 H 0.26836 0.08314 0.04926 0.0
H1076 H 0.28557 0.13075 0.88111 0.0
H1077 H 0.21384 0.07779 0.92061 0.0
C1078 C 0.20169 0.08527 0.83992 0.0
C1079 C 0.20721 0.09755 0.79087 0.0
C1080 C 0.28164 0.12028 0.91784 0.0
C1081 C 0.24163 0.10128 0.87739 0.0
C1082 C 0.29885 0.12253 0.96043 0.0
C1083 C 0.29472 0.10898 1.00857 0.0
C1084 C 0.25986 0.10445 0.92304 0.0
C1085 C 0.27231 0.09392 1.01298 0.0
C1086 C 0.21877 0.08708 0.88306 0.0
C1087 C 0.23063 0.11093 0.78629 0.0
N1088 N 0.25574 0.09197 0.97058 0.0
N1089 N 0.2469 0.11254 0.82909 0.0
H1090 H 0.09869 0.67997 0.10723 0.0
H1091 H 0.09324 0.82628 0.19347 0.0
H1092 H 0.11228 0.74124 0.99297 0.0
H1093 H 0.11617 0.76631 0.30457 0.0
H1094 H 0.09646 0.79552 0.12008 0.0
H1095 H 0.10138 0.71109 0.17981 0.0
C1096 C 0.10237 0.7 0.0972 0.0
C1097 C 0.10532 0.70793 0.04355 0.0
C1098 C 0.10095 0.78911 0.16041 0.0
C1099 C 0.1079 0.74392 0.12735 0.0
C1100 C 0.09906 0.80663 0.20262 0.0
C1101 C 0.1045 0.79893 0.25561 0.0
C1102 C 0.1077 0.76339 0.17106 0.0
C1103 C 0.11178 0.77312 0.26452 0.0
C1104 C 0.10396 0.71775 0.13897 0.0
C1105 C 0.10989 0.73424 0.03357 0.0
N1106 N 0.11288 0.75617 0.22268 0.0
N1107 N 0.11074 0.75139 0.07512 0.0
H1108 H 0.73893 0.92437 0.05338 0.0
H1109 H 0.76921 0.88131 0.74984 0.0
H1110 H 0.69641 0.86574 0.96755 0.0
H1111 H 0.81569 0.9357 0.83892 0.0
H1112 H 0.74094 0.87689 0.82823 0.0
H1113 H 0.76746 0.92907 0.97525 0.0
C1114 C 0.73577 0.91232 1.01846 0.0
C1115 C 0.71508 0.8949 1.01681 0.0
C1116 C 0.75731 0.88986 0.83045 0.0
C1117 C 0.74716 0.90044 0.9271 0.0
C1118 C 0.77329 0.89254 0.78551 0.0
C1119 C 0.7949 0.90879 0.78775 0.0
C1120 C 0.76302 0.90355 0.87787 0.0
C1121 C 0.79935 0.92278 0.83531 0.0
C1122 C 0.75188 0.91514 0.97369 0.0
C1123 C 0.7118 0.87981 0.97034 0.0
N1124 N 0.78367 0.91975 0.87842 0.0
N1125 N 0.72751 0.88305 0.92737 0.0
H1126 H 0.88063 0.26978 0.99395 0.0
H1127 H 0.90668 0.24787 0.30858 0.0
H1128 H 0.92307 0.32305 0.09418 0.0
H1129 H 0.88547 0.18638 0.20046 0.0
H1130 H 0.90567 0.27833 0.23261 0.0
H1131 H 0.87639 0.24066 0.07147 0.0
C1132 C 0.88909 0.27533 0.03198 0.0
C1133 C 0.90223 0.2989 0.03733 0.0
C1134 C 0.90115 0.25814 0.22567 0.0
C1135 C 0.89702 0.26609 0.12617 0.0
C1136 C 0.90156 0.24089 0.26902 0.0
C1137 C 0.89667 0.21459 0.26036 0.0
C1138 C 0.89546 0.24895 0.17377 0.0
C1139 C 0.89005 0.20644 0.20841 0.0
C1140 C 0.88658 0.2588 0.07624 0.0
C1141 C 0.91269 0.30515 0.08784 0.0
N1142 N 0.88973 0.2235 0.16705 0.0
N1143 N 0.90977 0.28895 0.13016 0.0
H1144 H 0.27065 0.39699 0.24134 0.0
H1145 H 0.24375 0.39322 0.55755 0.0
H1146 H 0.32993 0.41044 0.36005 0.0
H1147 H 0.18526 0.41352 0.4411 0.0
H1148 H 0.27571 0.39175 0.48468 0.0
H1149 H 0.23855 0.39521 0.31398 0.0
C1150 C 0.27695 0.39944 0.28244 0.0
C1151 C 0.30304 0.40391 0.29443 0.0
C1152 C 0.25579 0.39643 0.47536 0.0
C1153 C 0.26669 0.40149 0.37741 0.0
C1154 C 0.2376 0.39728 0.51688 0.0
C1155 C 0.21177 0.40352 0.50562 0.0
C1156 C 0.24796 0.40143 0.42227 0.0
C1157 C 0.20489 0.40855 0.45195 0.0
C1158 C 0.25868 0.39845 0.32382 0.0
C1159 C 0.3101 0.40692 0.34863 0.0
N1160 N 0.2228 0.40729 0.41237 0.0
N1161 N 0.2921 0.40555 0.38798 0.0
H1162 H 0.41336 0.74417 0.80299 0.0
H1163 H 0.38287 0.76653 0.49013 0.0
H1164 H 0.38446 0.68433 0.69876 0.0
H1165 H 0.43004 0.81783 0.58537 0.0
H1166 H 0.37929 0.73759 0.56796 0.0
H1167 H 0.41415 0.77402 0.72591 0.0
C1168 C 0.40692 0.73746 0.76407 0.0
C1169 C 0.39925 0.71173 0.75682 0.0
C1170 C 0.39044 0.75521 0.57161 0.0
C1171 C 0.4002 0.74539 0.66887 0.0
C1172 C 0.39262 0.77162 0.52708 0.0
C1173 C 0.40665 0.79474 0.5311 0.0
C1174 C 0.40218 0.7621 0.62054 0.0
C1175 C 0.41878 0.80038 0.58029 0.0
C1176 C 0.40757 0.75434 0.72004 0.0
C1177 C 0.39111 0.7039 0.7056 0.0
N1178 N 0.41612 0.78433 0.62301 0.0
N1179 N 0.39185 0.72058 0.6636 0.0
H1180 H 0.73614 0.59848 0.24945 0.0
H1181 H 0.76269 0.61601 0.56484 0.0
H1182 H 0.67572 0.60753 0.36694 0.0
H1183 H 0.81974 0.58726 0.4533 0.0
H1184 H 0.73111 0.61734 0.4914 0.0
H1185 H 0.76822 0.59961 0.32237 0.0
C1186 C 0.72966 0.60082 0.29045 0.0
C1187 C 0.70325 0.60244 0.30231 0.0
C1188 C 0.75058 0.61074 0.48318 0.0
C1189 C 0.73957 0.60386 0.38559 0.0
C1190 C 0.76857 0.60991 0.52514 0.0
C1191 C 0.79394 0.60154 0.51544 0.0
C1192 C 0.7581 0.6034 0.4311 0.0
C1193 C 0.80047 0.59396 0.46292 0.0
C1194 C 0.74789 0.60133 0.33205 0.0
C1195 C 0.69585 0.60555 0.35614 0.0
N1196 N 0.78275 0.59518 0.42282 0.0
N1197 N 0.71386 0.60614 0.3957 0.0
H1198 H 0.61189 0.24 0.48662 0.0
H1199 H 0.6107 0.26436 0.80344 0.0
H1200 H 0.58888 0.18132 0.60029 0.0
H1201 H 0.59755 0.32511 0.68749 0.0
H1202 H 0.61056 0.23272 0.72955 0.0
H1203 H 0.61432 0.27125 0.56075 0.0
C1204 C 0.60735 0.23367 0.52693 0.0
C1205 C 0.60018 0.20798 0.53706 0.0
C1206 C 0.60781 0.25307 0.72063 0.0
C1207 C 0.60346 0.24333 0.62189 0.0
C1208 C 0.60793 0.27107 0.76269 0.0
C1209 C 0.60412 0.29744 0.75182 0.0
C1210 C 0.60436 0.26164 0.66749 0.0
C1211 C 0.60062 0.30504 0.69805 0.0
C1212 C 0.60879 0.25146 0.56918 0.0
C1213 C 0.5946 0.20086 0.59034 0.0
N1214 N 0.60095 0.28731 0.65803 0.0
N1215 N 0.59652 0.21835 0.6307 0.0
H1216 H 0.29585 0.10602 0.51315 0.0
H1217 H 0.41218 0.11675 0.72526 0.0
H1218 H 0.37456 0.12371 0.46957 0.0
H1219 H 0.33279 0.10425 0.77107 0.0
H1220 H 0.39876 0.11845 0.63134 0.0
H1221 H 0.30889 0.10485 0.60749 0.0
C1222 C 0.31584 0.10979 0.52326 0.0
C1223 C 0.33409 0.11491 0.4829 0.0
C1224 C 0.38424 0.11537 0.6619 0.0
C1225 C 0.34925 0.11331 0.59134 0.0
C1226 C 0.39193 0.11424 0.71566 0.0
C1227 C 0.37364 0.11031 0.75646 0.0
C1228 C 0.35803 0.11244 0.6484 0.0
C1229 C 0.34759 0.10763 0.74125 0.0
C1230 C 0.3233 0.10898 0.57726 0.0
C1231 C 0.35981 0.11924 0.49886 0.0
N1232 N 0.3406 0.10867 0.6886 0.0
N1233 N 0.36657 0.11833 0.55159 0.0
H1234 H 0.12735 0.63203 0.58103 0.0
H1235 H 0.10244 0.67226 0.27483 0.0
H1236 H 0.09302 0.70499 0.53486 0.0
H1237 H 0.12267 0.59493 0.32535 0.0
H1238 H 0.10264 0.68605 0.36881 0.0
H1239 H 0.12926 0.6196 0.48685 0.0
C1240 C 0.12008 0.64545 0.55122 0.0
C1241 C 0.10974 0.66956 0.5664 0.0
C1242 C 0.10706 0.66607 0.35932 0.0
C1243 C 0.11233 0.65547 0.45764 0.0
C1244 C 0.1071 0.65821 0.30561 0.0
C1245 C 0.11251 0.63234 0.29203 0.0
C1246 C 0.11265 0.64803 0.3999 0.0
C1247 C 0.11809 0.61496 0.33384 0.0
C1248 C 0.12132 0.63835 0.49726 0.0
C1249 C 0.10134 0.68631 0.52538 0.0
N1250 N 0.11805 0.62312 0.38571 0.0
N1251 N 0.10276 0.67893 0.47301 0.0
H1252 H 0.6384 0.87729 0.4768 0.0
H1253 H 0.67974 0.90624 0.78088 0.0
H1254 H 0.71415 0.90468 0.5215 0.0
H1255 H 0.60301 0.8831 0.73315 0.0
H1256 H 0.69326 0.90443 0.68698 0.0
H1257 H 0.62565 0.87835 0.57084 0.0
C1258 C 0.65235 0.88373 0.50629 0.0
C1259 C 0.67738 0.89112 0.49081 0.0
C1260 C 0.67347 0.89974 0.69704 0.0
C1261 C 0.66289 0.892 0.59941 0.0
C1262 C 0.66574 0.90061 0.75077 0.0
C1263 C 0.64013 0.89482 0.7652 0.0
C1264 C 0.65552 0.89294 0.65718 0.0
C1265 C 0.62284 0.88806 0.72407 0.0
C1266 C 0.64507 0.88416 0.56019 0.0
C1267 C 0.69472 0.89863 0.53136 0.0
N1268 N 0.63084 0.88729 0.67214 0.0
N1269 N 0.68714 0.89893 0.58367 0.0
H1270 H 0.87454 0.40494 0.31619 0.0
H1271 H 0.91824 0.29866 0.53212 0.0
H1272 H 0.91142 0.33298 0.27256 0.0
H1273 H 0.87028 0.3647 0.56974 0.0
H1274 H 0.91626 0.31064 0.43725 0.0
H1275 H 0.87372 0.39071 0.4096 0.0
C1276 C 0.88254 0.38616 0.32624 0.0
C1277 C 0.89317 0.37022 0.28631 0.0
C1278 C 0.90611 0.32244 0.4663 0.0
C1279 C 0.89218 0.35366 0.39363 0.0
C1280 C 0.90708 0.31552 0.52057 0.0
C1281 C 0.89457 0.33076 0.55947 0.0
C1282 C 0.89263 0.34485 0.45057 0.0
C1283 C 0.88072 0.35261 0.54169 0.0
C1284 C 0.88192 0.37796 0.37963 0.0
C1285 C 0.90286 0.34586 0.30182 0.0
N1286 N 0.88025 0.35903 0.4888 0.0
N1287 N 0.90228 0.33841 0.35421 0.0
H1288 H 0.36046 0.36427 0.54413 0.0
H1289 H 0.3668 0.44219 0.82151 0.0
H1290 H 0.39806 0.43824 0.56281 0.0
H1291 H 0.31942 0.37447 0.79894 0.0
H1292 H 0.37946 0.44007 0.72736 0.0
H1293 H 0.34604 0.36682 0.63737 0.0
C1294 C 0.36561 0.38112 0.56758 0.0
C1295 C 0.38065 0.40103 0.54521 0.0
C1296 C 0.36624 0.42568 0.74284 0.0
C1297 C 0.36438 0.40387 0.65262 0.0
C1298 C 0.3591 0.4268 0.79677 0.0
C1299 C 0.34212 0.40838 0.8184 0.0
C1300 C 0.35651 0.40589 0.70996 0.0
C1301 C 0.33243 0.38917 0.78399 0.0
C1302 C 0.35744 0.38249 0.621 0.0
C1303 C 0.38697 0.42215 0.57823 0.0
N1304 N 0.33987 0.38833 0.7316 0.0
N1305 N 0.37887 0.42297 0.63007 0.0
H1306 H 0.43294 0.69704 0.25494 0.0
H1307 H 0.3604 0.61754 0.48623 0.0
H1308 H 0.36338 0.65297 0.22803 0.0
H1309 H 0.43364 0.65594 0.50835 0.0
H1310 H 0.36017 0.63161 0.39262 0.0
H1311 H 0.43201 0.68426 0.34922 0.0
C1312 C 0.41731 0.68488 0.26887 0.0
C1313 C 0.39823 0.67607 0.23321 0.0
C1314 C 0.37628 0.63698 0.41801 0.0
C1315 C 0.39727 0.66099 0.34143 0.0
C1316 C 0.37652 0.62879 0.47149 0.0
C1317 C 0.39708 0.6355 0.50561 0.0
C1318 C 0.39671 0.65207 0.39824 0.0
C1319 C 0.41716 0.65056 0.48409 0.0
C1320 C 0.41692 0.6774 0.32274 0.0
C1321 C 0.37872 0.65997 0.25371 0.0
N1322 N 0.41646 0.65831 0.43197 0.0
N1323 N 0.37876 0.65295 0.30633 0.0
H1324 H 0.70117 0.61499 0.79792 0.0
H1325 H 0.58582 0.59517 0.58675 0.0
H1326 H 0.62355 0.59337 0.84229 0.0
H1327 H 0.66438 0.61176 0.54042 0.0
H1328 H 0.59903 0.59628 0.68081 0.0
H1329 H 0.68796 0.61519 0.70368 0.0
C1330 C 0.68138 0.61021 0.78795 0.0
C1331 C 0.66347 0.6042 0.82839 0.0
C1332 C 0.6134 0.59971 0.65011 0.0
C1333 C 0.64813 0.60464 0.7203 0.0
C1334 C 0.60582 0.59924 0.59632 0.0
C1335 C 0.62399 0.60336 0.55543 0.0
C1336 C 0.63937 0.60441 0.66341 0.0
C1337 C 0.64974 0.60815 0.57045 0.0
C1338 C 0.67381 0.61046 0.73407 0.0
C1339 C 0.63798 0.59854 0.81281 0.0
N1340 N 0.65664 0.60855 0.62312 0.0
N1341 N 0.63112 0.59888 0.76017 0.0
H1342 H 0.6472 0.35216 0.50386 0.0
H1343 H 0.5711 0.36214 0.22465 0.0
H1344 H 0.57508 0.39325 0.48359 0.0
H1345 H 0.63634 0.31132 0.24893 0.0
H1346 H 0.57332 0.37477 0.31884 0.0
H1347 H 0.64446 0.33782 0.41056 0.0
C1348 C 0.63071 0.3581 0.48005 0.0
C1349 C 0.61139 0.37409 0.50202 0.0
C1350 C 0.58714 0.36081 0.30372 0.0
C1351 C 0.60835 0.3579 0.3945 0.0
C1352 C 0.58597 0.35367 0.24977 0.0
C1353 C 0.60366 0.33573 0.22861 0.0
C1354 C 0.60626 0.35009 0.33711 0.0
C1355 C 0.62221 0.32509 0.26351 0.0
C1356 C 0.62924 0.34996 0.42659 0.0
C1357 C 0.59073 0.38139 0.46852 0.0
N1358 N 0.62312 0.33254 0.3159 0.0
N1359 N 0.58981 0.37331 0.41665 0.0
H1360 H 0.85985 0.63978 0.9783 0.0
H1361 H 0.83171 0.59508 0.28034 0.0
H1362 H 0.80164 0.58351 1.01972 0.0
H1363 H 0.89793 0.64036 0.23361 0.0
H1364 H 0.81787 0.59374 0.18648 0.0
H1365 H 0.87159 0.64309 0.07276 0.0
C1366 C 0.84956 0.62802 1.00714 0.0
C1367 C 0.82985 0.61113 0.99059 0.0
C1368 C 0.83542 0.60398 0.19678 0.0
C1369 C 0.84304 0.61518 0.09956 0.0
C1370 C 0.84326 0.6049 0.25043 0.0
C1371 C 0.86609 0.61781 0.265 0.0
C1372 C 0.85038 0.61621 0.15726 0.0
C1373 C 0.88041 0.62989 0.22427 0.0
C1374 C 0.85622 0.63004 0.06124 0.0
C1375 C 0.81681 0.59695 0.03036 0.0
N1376 N 0.87231 0.62882 0.17241 0.0
N1377 N 0.82368 0.59923 0.08288 0.0
H1378 H 0.64306 0.15841 0.7838 0.0
H1379 H 0.57196 0.14121 0.06649 0.0
H1380 H 0.57576 0.11056 0.80779 0.0
H1381 H 0.63151 0.198 0.03942 0.0
H1382 H 0.57416 0.12898 0.97214 0.0
H1383 H 0.64005 0.17259 0.87717 0.0
C1384 C 0.62757 0.15095 0.80847 0.0
C1385 C 0.6097 0.13311 0.7876 0.0
C1386 C 0.58674 0.14417 0.98666 0.0
C1387 C 0.60638 0.14911 0.89504 0.0
C1388 C 0.58559 0.15107 0.04068 0.0
C1389 C 0.60172 0.17055 0.06107 0.0
C1390 C 0.60427 0.15667 0.95246 0.0
C1391 C 0.61864 0.18297 0.0254 0.0
C1392 C 0.62595 0.159 0.86193 0.0
C1393 C 0.5903 0.12391 0.82206 0.0
N1394 N 0.61959 0.17572 0.97291 0.0
N1395 N 0.58921 0.13195 0.8739 0.0
H1396 H 0.1583 0.3623 0.25796 0.0
H1397 H 0.14537 0.43535 0.97591 0.0
H1398 H 0.11455 0.43272 0.2348 0.0
H1399 H 0.19861 0.37227 1.0028 0.0
H1400 H 0.13287 0.43356 0.07017 0.0
H1401 H 0.1725 0.36467 0.16458 0.0
C1402 C 0.15174 0.37834 0.23347 0.0
C1403 C 0.13507 0.39729 0.25461 0.0
C1404 C 0.14733 0.42012 0.05561 0.0
C1405 C 0.15108 0.39991 0.14711 0.0
C1406 C 0.15439 0.42104 1.00165 0.0
C1407 C 0.17297 0.40382 0.98124 0.0
C1408 C 0.15878 0.40173 0.08972 0.0
C1409 C 0.18432 0.38601 1.01683 0.0
C1410 C 0.1598 0.3796 0.18 0.0
C1411 C 0.12698 0.41736 0.22034 0.0
N1412 N 0.17694 0.38532 0.06924 0.0
N1413 N 0.13501 0.4181 0.16847 0.0
H1414 H 0.38394 0.79372 0.02798 0.0
H1415 H 0.42108 0.90056 0.80847 0.0
H1416 H 0.41704 0.868 0.06655 0.0
H1417 H 0.37317 0.83443 0.7727 0.0
H1418 H 0.42245 0.88716 0.90212 0.0
H1419 H 0.38292 0.80629 0.93309 0.0
C1420 C 0.39106 0.81262 1.0165 0.0
C1421 C 0.40043 0.82989 0.0554 0.0
C1422 C 0.4116 0.87559 0.8738 0.0
C1423 C 0.39933 0.84439 0.94695 0.0
C1424 C 0.41064 0.88334 0.82019 0.0
C1425 C 0.39682 0.86878 0.78222 0.0
C1426 C 0.39882 0.85294 0.88996 0.0
C1427 C 0.38432 0.84619 0.8001 0.0
C1428 C 0.39035 0.81984 0.96239 0.0
C1429 C 0.40927 0.8542 0.03817 0.0
N1430 N 0.38562 0.83899 0.85257 0.0
N1431 N 0.40855 0.86068 0.98536 0.0
H1432 H 0.79874 0.92609 0.28518 0.0
H1433 H 0.89852 0.87259 0.06591 0.0
H1434 H 0.85903 0.87067 0.32014 0.0
H1435 H 0.8333 0.92125 0.02655 0.0
H1436 H 0.88443 0.87204 0.15936 0.0
H1437 H 0.81064 0.92434 0.19039 0.0
C1438 C 0.8143 0.91334 0.27301 0.0
C1439 C 0.82797 0.89862 0.31111 0.0
C1440 C 0.87313 0.88279 0.1303 0.0
C1441 C 0.842 0.89688 0.20233 0.0
C1442 C 0.88128 0.88325 0.07691 0.0
C1443 C 0.86717 0.89707 0.03816 0.0
C1444 C 0.85073 0.89636 0.14543 0.0
C1445 C 0.8447 0.91014 0.05482 0.0
C1446 C 0.8212 0.9125 0.2188 0.0
C1447 C 0.84822 0.88276 0.29264 0.0
N1448 N 0.83726 0.90956 0.10716 0.0
N1449 N 0.85466 0.88242 0.2398 0.0
H1450 H 0.93681 0.15762 1.01123 0.0
H1451 H 0.86081 0.15733 0.73105 0.0
H1452 H 0.86202 0.12229 0.98951 0.0
H1453 H 0.93333 0.19654 0.75654 0.0
H1454 H 0.86089 0.14414 0.82524 0.0
H1455 H 0.93574 0.17198 0.91809 0.0
C1456 C 0.92006 0.15299 0.98706 0.0
C1457 C 0.89943 0.13874 1.00863 0.0
C1458 C 0.87674 0.1557 0.81028 0.0
C1459 C 0.89827 0.15491 0.9011 0.0
C1460 C 0.87677 0.16316 0.75639 0.0
C1461 C 0.89713 0.17806 0.7356 0.0
C1462 C 0.89726 0.16307 0.84385 0.0
C1463 C 0.91707 0.18534 0.77075 0.0
C1464 C 0.91954 0.1611 0.93365 0.0
C1465 C 0.87852 0.13293 0.97468 0.0
N1466 N 0.91668 0.1777 0.82295 0.0
N1467 N 0.87849 0.14103 0.92272 0.0
H1468 H 0.10171 0.08413 0.06559 0.0
H1469 H 0.20486 0.12519 0.29013 0.0
H1470 H 0.16588 0.13511 0.03388 0.0
H1471 H 0.13532 0.08217 0.32319 0.0
H1472 H 0.19248 0.12714 0.19527 0.0
H1473 H 0.11498 0.08176 0.15931 0.0
C1474 C 0.11848 0.09502 0.07828 0.0
C1475 C 0.13256 0.10998 0.04146 0.0
C1476 C 0.17993 0.1173 0.22333 0.0
C1477 C 0.1482 0.10696 0.14925 0.0
C1478 C 0.18706 0.11605 0.27746 0.0
C1479 C 0.17105 0.10363 0.31488 0.0
C1480 C 0.1567 0.10587 0.20631 0.0
C1481 C 0.14809 0.09232 0.29608 0.0
C1482 C 0.12617 0.0935 0.1319 0.0
C1483 C 0.15453 0.12311 0.06045 0.0
N1484 N 0.14165 0.0937 0.24329 0.0
N1485 N 0.16165 0.12131 0.11292 0.0
H1486 H 0.09367 0.79868 0.76288 0.0
H1487 H 0.12618 0.91048 0.97483 0.0
H1488 H 0.13025 0.8709 0.72075 0.0
H1489 H 0.10139 0.83407 1.0216 0.0
H1490 H 0.12671 0.89646 0.88127 0.0
H1491 H 0.09589 0.81108 0.85747 0.0
C1492 C 0.10239 0.81703 0.77336 0.0
C1493 C 0.11162 0.8338 0.73332 0.0
C1494 C 0.12124 0.8827 0.91196 0.0
C1495 C 0.11382 0.84832 0.84194 0.0
C1496 C 0.12079 0.89076 0.96545 0.0
C1497 C 0.11365 0.87349 1.0063 0.0
C1498 C 0.11432 0.85718 0.89883 0.0
C1499 C 0.10724 0.84801 0.9916 0.0
C1500 C 0.1035 0.82416 0.82749 0.0
C1501 C 0.12237 0.8575 0.74977 0.0
N1502 N 0.10759 0.84069 0.93913 0.0
N1503 N 0.12305 0.86406 0.80256 0.0
loop_
_geom_bond_atom_site_label_1
_geom_bond_atom_site_label_2
_geom_bond_distance
_geom_bond_site_symmetry_2
_ccdc_geom_bond_type
Eu0 C9 2.828 . S
Eu0 O11 2.392 . S
Eu0 O13 2.418 . S
Eu0 O18 2.373 . S
Eu0 O21 2.488 . S
Eu0 O22 2.471 . S
Eu0 O23 2.349 . S
Eu1 O10 2.373 . S
Eu1 O14 2.488 1_554 S
Eu1 O15 2.471 1_554 S
Eu1 O16 2.349 . S
Eu1 O19 2.392 . S
Eu1 O20 2.418 . S
Eu1 C30 2.828 1_554 S
C2 O20 1.244 . S
C2 O23 1.265 . S
C3 C4 1.379 . S
C3 C7 1.373 . S
C3 C9 1.505 . S
C4 C3 1.379 . S
C4 C6 1.369 . S
C4 H32 0.930 . S
C5 C7 1.383 . S
C5 C8 1.382 . S
C5 H33 0.930 . S
C6 C4 1.369 . S
C6 C8 1.392 . S
C6 H34 0.930 . S
C7 C3 1.373 . S
C7 C5 1.383 . S
C7 H35 0.931 . S
C8 C5 1.382 . S
C8 C6 1.392 . S
C9 Eu0 2.828 . S
C9 C3 1.505 . S
C9 O21 1.249 . S
C9 O22 1.244 . S
O10 Eu1 2.373 . S
O10 C12 1.258 . S
O11 Eu0 2.392 . S
O11 C12 1.242 . S
C12 O10 1.258 . S
C12 O11 1.242 . S
O13 Eu0 2.418 . S
O13 C17 1.244 . S
O14 Eu1 2.488 1_556 S
O14 C30 1.249 . S
O15 Eu1 2.471 1_556 S
O15 C30 1.244 . S
O16 Eu1 2.349 . S
O16 C17 1.265 . S
C17 O13 1.244 . S
C17 O16 1.265 . S
O18 Eu0 2.373 . S
O18 C31 1.258 . S
O19 Eu1 2.392 . S
O19 C31 1.242 . S
O20 Eu1 2.418 . S
O20 C2 1.244 . S
O21 Eu0 2.488 . S
O21 C9 1.249 . S
O22 Eu0 2.471 . S
O22 C9 1.244 . S
O23 Eu0 2.349 . S
O23 C2 1.265 . S
C24 C25 1.379 . S
C24 C28 1.373 . S
C24 C30 1.505 . S
C25 C24 1.379 . S
C25 C27 1.369 . S
C25 H36 0.930 . S
C26 C28 1.383 . S
C26 C29 1.382 . S
C26 H37 0.930 . S
C27 C25 1.369 . S
C27 C29 1.392 . S
C27 H38 0.930 . S
C28 C24 1.373 . S
C28 C26 1.383 . S
C28 H39 0.931 . S
C29 C26 1.382 . S
C29 C27 1.392 . S
C30 Eu1 2.828 1_556 S
C30 O14 1.249 . S
C30 O15 1.244 . S
C30 C24 1.505 . S
C31 O18 1.258 . S
C31 O19 1.242 . S
H32 C4 0.930 . S
H33 C5 0.930 . S
H34 C6 0.930 . S
H35 C7 0.931 . S
H36 C25 0.930 . S
H37 C26 0.930 . S
H38 C27 0.930 . S
H39 C28 0.931 . S
Eu40 C49 2.828 1_556 S
Eu40 O51 2.392 . S
Eu40 O53 2.418 . S
Eu40 O58 2.373 . S
Eu40 O61 2.488 1_556 S
Eu40 O62 2.471 1_556 S
Eu40 O63 2.349 . S
Eu41 O50 2.373 . S
Eu41 O54 2.488 . S
Eu41 O55 2.471 . S
Eu41 O56 2.349 . S
Eu41 O59 2.392 . S
Eu41 O60 2.418 . S
Eu41 C70 2.828 . S
C42 O60 1.244 . S
C42 O63 1.265 . S
C43 C44 1.379 . S
C43 C47 1.373 . S
C43 C49 1.505 . S
C44 C43 1.379 . S
C44 C46 1.369 . S
C44 H72 0.930 . S
C45 C47 1.383 . S
C45 C48 1.382 . S
C45 H73 0.930 . S
C46 C44 1.369 . S
C46 C48 1.392 . S
C46 H74 0.930 . S
C47 C43 1.373 . S
C47 C45 1.383 . S
C47 H75 0.931 . S
C48 C45 1.382 . S
C48 C46 1.392 . S
C49 Eu40 2.828 1_554 S
C49 C43 1.505 . S
C49 O61 1.249 . S
C49 O62 1.244 . S
O50 Eu41 2.373 . S
O50 C52 1.258 . S
O51 Eu40 2.392 . S
O51 C52 1.242 . S
C52 O50 1.258 . S
C52 O51 1.242 . S
O53 Eu40 2.418 . S
O53 C57 1.244 . S
O54 Eu41 2.488 . S
O54 C70 1.249 . S
O55 Eu41 2.471 . S
O55 C70 1.244 . S
O56 Eu41 2.349 . S
O56 C57 1.265 . S
C57 O53 1.244 . S
C57 O56 1.265 . S
O58 Eu40 2.373 . S
O58 C71 1.258 . S
O59 Eu41 2.392 . S
O59 C71 1.242 . S
O60 Eu41 2.418 . S
O60 C42 1.244 . S
O61 Eu40 2.488 1_554 S
O61 C49 1.249 . S
O62 Eu40 2.471 1_554 S
O62 C49 1.244 . S
O63 Eu40 2.349 . S
O63 C42 1.265 . S
C64 C65 1.379 . S
C64 C68 1.373 . S
C64 C70 1.505 . S
C65 C64 1.379 . S
C65 C67 1.369 . S
C65 H76 0.930 . S
C66 C68 1.383 . S
C66 C69 1.382 . S
C66 H77 0.930 . S
C67 C65 1.369 . S
C67 C69 1.392 . S
C67 H78 0.930 . S
C68 C64 1.373 . S
C68 C66 1.383 . S
C68 H79 0.931 . S
C69 C66 1.382 . S
C69 C67 1.392 . S
C70 Eu41 2.828 . S
C70 O54 1.249 . S
C70 O55 1.244 . S
C70 C64 1.505 . S
C71 O58 1.258 . S
C71 O59 1.242 . S
H72 C44 0.930 . S
H73 C45 0.930 . S
H74 C46 0.930 . S
H75 C47 0.931 . S
H76 C65 0.930 . S
H77 C66 0.930 . S
H78 C67 0.930 . S
H79 C68 0.931 . S
Eu80 C89 2.828 . S
Eu80 O91 2.392 . S
Eu80 O93 2.418 . S
Eu80 O98 2.373 . S
Eu80 O101 2.488 . S
Eu80 O102 2.471 . S
Eu80 O103 2.349 . S
Eu81 O90 2.373 . S
Eu81 O94 2.488 1_554 S
Eu81 O95 2.471 1_554 S
Eu81 O96 2.349 . S
Eu81 O99 2.392 . S
Eu81 O100 2.418 . S
Eu81 C110 2.828 1_554 S
C82 O100 1.244 . S
C82 O103 1.265 . S
C83 C84 1.379 . S
C83 C87 1.373 . S
C83 C89 1.505 . S
C84 C83 1.379 . S
C84 C86 1.369 . S
C84 H112 0.930 . S
C85 C87 1.383 . S
C85 C88 1.382 . S
C85 H113 0.930 . S
C86 C84 1.369 . S
C86 C88 1.392 . S
C86 H114 0.930 . S
C87 C83 1.373 . S
C87 C85 1.383 . S
C87 H115 0.931 . S
C88 C85 1.382 . S
C88 C86 1.392 . S
C89 Eu80 2.828 . S
C89 C83 1.505 . S
C89 O101 1.249 . S
C89 O102 1.244 . S
O90 Eu81 2.373 . S
O90 C92 1.258 . S
O91 Eu80 2.392 . S
O91 C92 1.242 . S
C92 O90 1.258 . S
C92 O91 1.242 . S
O93 Eu80 2.418 . S
O93 C97 1.244 . S
O94 Eu81 2.488 1_556 S
O94 C110 1.249 . S
O95 Eu81 2.471 1_556 S
O95 C110 1.244 . S
O96 Eu81 2.349 . S
O96 C97 1.265 . S
C97 O93 1.244 . S
C97 O96 1.265 . S
O98 Eu80 2.373 . S
O98 C111 1.258 . S
O99 Eu81 2.392 . S
O99 C111 1.242 . S
O100 Eu81 2.418 . S
O100 C82 1.244 . S
O101 Eu80 2.488 . S
O101 C89 1.249 . S
O102 Eu80 2.471 . S
O102 C89 1.244 . S
O103 Eu80 2.349 . S
O103 C82 1.265 . S
C104 C105 1.379 . S
C104 C108 1.373 . S
C104 C110 1.505 . S
C105 C104 1.379 . S
C105 C107 1.369 . S
C105 H116 0.930 . S
C106 C108 1.383 . S
C106 C109 1.382 . S
C106 H117 0.930 . S
C107 C105 1.369 . S
C107 C109 1.392 . S
C107 H118 0.930 . S
C108 C104 1.373 . S
C108 C106 1.383 . S
C108 H119 0.931 . S
C109 C106 1.382 . S
C109 C107 1.392 . S
C110 Eu81 2.828 1_556 S
C110 O94 1.249 . S
C110 O95 1.244 . S
C110 C104 1.505 . S
C111 O98 1.258 . S
C111 O99 1.242 . S
H112 C84 0.930 . S
H113 C85 0.930 . S
H114 C86 0.930 . S
H115 C87 0.931 . S
H116 C105 0.930 . S
H117 C106 0.930 . S
H118 C107 0.930 . S
H119 C108 0.931 . S
Eu120 C129 2.828 1_556 S
Eu120 O131 2.392 . S
Eu120 O133 2.418 . S
Eu120 O138 2.373 . S
Eu120 O141 2.488 1_556 S
Eu120 O142 2.471 1_556 S
Eu120 O143 2.349 . S
Eu121 O130 2.373 . S
Eu121 O134 2.488 . S
Eu121 O135 2.471 . S
Eu121 O136 2.349 . S
Eu121 O139 2.392 . S
Eu121 O140 2.418 . S
Eu121 C150 2.828 . S
C122 O140 1.244 . S
C122 O143 1.265 . S
C123 C124 1.379 . S
C123 C127 1.373 . S
C123 C129 1.505 . S
C124 C123 1.379 . S
C124 C126 1.369 . S
C124 H152 0.930 . S
C125 C127 1.383 . S
C125 C128 1.382 . S
C125 H153 0.930 . S
C126 C124 1.369 . S
C126 C128 1.392 . S
C126 H154 0.930 . S
C127 C123 1.373 . S
C127 C125 1.383 . S
C127 H155 0.931 . S
C128 C125 1.382 . S
C128 C126 1.392 . S
C129 Eu120 2.828 1_554 S
C129 C123 1.505 . S
C129 O141 1.249 . S
C129 O142 1.244 . S
O130 Eu121 2.373 . S
O130 C132 1.258 . S
O131 Eu120 2.392 . S
O131 C132 1.242 . S
C132 O130 1.258 . S
C132 O131 1.242 . S
O133 Eu120 2.418 . S
O133 C137 1.244 . S
O134 Eu121 2.488 . S
O134 C150 1.249 . S
O135 Eu121 2.471 . S
O135 C150 1.244 . S
O136 Eu121 2.349 . S
O136 C137 1.265 . S
C137 O133 1.244 . S
C137 O136 1.265 . S
O138 Eu120 2.373 . S
O138 C151 1.258 . S
O139 Eu121 2.392 . S
O139 C151 1.242 . S
O140 Eu121 2.418 . S
O140 C122 1.244 . S
O141 Eu120 2.488 1_554 S
O141 C129 1.249 . S
O142 Eu120 2.471 1_554 S
O142 C129 1.244 . S
O143 Eu120 2.349 . S
O143 C122 1.265 . S
C144 C145 1.379 . S
C144 C148 1.373 . S
C144 C150 1.505 . S
C145 C144 1.379 . S
C145 C147 1.369 . S
C145 H156 0.930 . S
C146 C148 1.383 . S
C146 C149 1.382 . S
C146 H157 0.930 . S
C147 C145 1.369 . S
C147 C149 1.392 . S
C147 H158 0.930 . S
C148 C144 1.373 . S
C148 C146 1.383 . S
C148 H159 0.931 . S
C149 C146 1.382 . S
C149 C147 1.392 . S
C150 Eu121 2.828 . S
C150 O134 1.249 . S
C150 O135 1.244 . S
C150 C144 1.505 . S
C151 O138 1.258 . S
C151 O139 1.242 . S
H152 C124 0.930 . S
H153 C125 0.930 . S
H154 C126 0.930 . S
H155 C127 0.931 . S
H156 C145 0.930 . S
H157 C146 0.930 . S
H158 C147 0.930 . S
H159 C148 0.931 . S
Eu160 C169 2.828 1_554 S
Eu160 O171 2.392 . S
Eu160 O173 2.418 . S
Eu160 O178 2.373 . S
Eu160 O181 2.488 1_554 S
Eu160 O182 2.471 1_554 S
Eu160 O183 2.349 . S
Eu161 O170 2.373 . S
Eu161 O174 2.488 . S
Eu161 O175 2.471 . S
Eu161 O176 2.349 . S
Eu161 O179 2.392 . S
Eu161 O180 2.418 . S
Eu161 C190 2.828 . S
C162 O180 1.244 . S
C162 O183 1.265 . S
C163 C164 1.379 . S
C163 C167 1.373 . S
C163 C169 1.505 . S
C164 C163 1.379 . S
C164 C166 1.369 . S
C164 H192 0.930 . S
C165 C167 1.383 . S
C165 C168 1.382 . S
C165 H193 0.930 . S
C166 C164 1.369 . S
C166 C168 1.392 . S
C166 H194 0.930 . S
C167 C163 1.373 . S
C167 C165 1.383 . S
C167 H195 0.931 . S
C168 C165 1.382 . S
C168 C166 1.392 . S
C169 Eu160 2.828 1_556 S
C169 C163 1.505 . S
C169 O181 1.249 . S
C169 O182 1.244 . S
O170 Eu161 2.373 . S
O170 C172 1.258 . S
O171 Eu160 2.392 . S
O171 C172 1.242 . S
C172 O170 1.258 . S
C172 O171 1.242 . S
O173 Eu160 2.418 . S
O173 C177 1.244 . S
O174 Eu161 2.488 . S
O174 C190 1.249 . S
O175 Eu161 2.471 . S
O175 C190 1.244 . S
O176 Eu161 2.349 . S
O176 C177 1.265 . S
C177 O173 1.244 . S
C177 O176 1.265 . S
O178 Eu160 2.373 . S
O178 C191 1.258 . S
O179 Eu161 2.392 . S
O179 C191 1.242 . S
O180 Eu161 2.418 . S
O180 C162 1.244 . S
O181 Eu160 2.488 1_556 S
O181 C169 1.249 . S
O182 Eu160 2.471 1_556 S
O182 C169 1.244 . S
O183 Eu160 2.349 . S
O183 C162 1.265 . S
C184 C185 1.379 . S
C184 C188 1.373 . S
C184 C190 1.505 . S
C185 C184 1.379 . S
C185 C187 1.369 . S
C185 H196 0.930 . S
C186 C188 1.383 . S
C186 C189 1.382 . S
C186 H197 0.930 . S
C187 C185 1.369 . S
C187 C189 1.392 . S
C187 H198 0.930 . S
C188 C184 1.373 . S
C188 C186 1.383 . S
C188 H199 0.931 . S
C189 C186 1.382 . S
C189 C187 1.392 . S
C190 Eu161 2.828 . S
C190 O174 1.249 . S
C190 O175 1.244 . S
C190 C184 1.505 . S
C191 O178 1.258 . S
C191 O179 1.242 . S
H192 C164 0.930 . S
H193 C165 0.930 . S
H194 C166 0.930 . S
H195 C167 0.931 . S
H196 C185 0.930 . S
H197 C186 0.930 . S
H198 C187 0.930 . S
H199 C188 0.931 . S
Eu200 C209 2.828 . S
Eu200 O211 2.392 . S
Eu200 O213 2.418 . S
Eu200 O218 2.373 . S
Eu200 O221 2.488 . S
Eu200 O222 2.471 . S
Eu200 O223 2.349 . S
Eu201 O210 2.373 . S
Eu201 O214 2.488 1_556 S
Eu201 O215 2.471 1_556 S
Eu201 O216 2.349 . S
Eu201 O219 2.392 . S
Eu201 O220 2.418 . S
Eu201 C230 2.828 1_556 S
C202 O220 1.244 . S
C202 O223 1.265 . S
C203 C204 1.379 . S
C203 C207 1.373 . S
C203 C209 1.505 . S
C204 C203 1.379 . S
C204 C206 1.369 . S
C204 H232 0.930 . S
C205 C207 1.383 . S
C205 C208 1.382 . S
C205 H233 0.930 . S
C206 C204 1.369 . S
C206 C208 1.392 . S
C206 H234 0.930 . S
C207 C203 1.373 . S
C207 C205 1.383 . S
C207 H235 0.931 . S
C208 C205 1.382 . S
C208 C206 1.392 . S
C209 Eu200 2.828 . S
C209 C203 1.505 . S
C209 O221 1.249 . S
C209 O222 1.244 . S
O210 Eu201 2.373 . S
O210 C212 1.258 . S
O211 Eu200 2.392 . S
O211 C212 1.242 . S
C212 O210 1.258 . S
C212 O211 1.242 . S
O213 Eu200 2.418 . S
O213 C217 1.244 . S
O214 Eu201 2.488 1_554 S
O214 C230 1.249 . S
O215 Eu201 2.471 1_554 S
O215 C230 1.244 . S
O216 Eu201 2.349 . S
O216 C217 1.265 . S
C217 O213 1.244 . S
C217 O216 1.265 . S
O218 Eu200 2.373 . S
O218 C231 1.258 . S
O219 Eu201 2.392 . S
O219 C231 1.242 . S
O220 Eu201 2.418 . S
O220 C202 1.244 . S
O221 Eu200 2.488 . S
O221 C209 1.249 . S
O222 Eu200 2.471 . S
O222 C209 1.244 . S
O223 Eu200 2.349 . S
O223 C202 1.265 . S
C224 C225 1.379 . S
C224 C228 1.373 . S
C224 C230 1.505 . S
C225 C224 1.379 . S
C225 C227 1.369 . S
C225 H236 0.930 . S
C226 C228 1.383 . S
C226 C229 1.382 . S
C226 H237 0.930 . S
C227 C225 1.369 . S
C227 C229 1.392 . S
C227 H238 0.930 . S
C228 C224 1.373 . S
C228 C226 1.383 . S
C228 H239 0.931 . S
C229 C226 1.382 . S
C229 C227 1.392 . S
C230 Eu201 2.828 1_554 S
C230 O214 1.249 . S
C230 O215 1.244 . S
C230 C224 1.505 . S
C231 O218 1.258 . S
C231 O219 1.242 . S
H232 C204 0.930 . S
H233 C205 0.930 . S
H234 C206 0.930 . S
H235 C207 0.931 . S
H236 C225 0.930 . S
H237 C226 0.930 . S
H238 C227 0.930 . S
H239 C228 0.931 . S
Eu240 C249 2.828 1_554 S
Eu240 O251 2.392 . S
Eu240 O253 2.418 . S
Eu240 O258 2.373 . S
Eu240 O261 2.488 1_554 S
Eu240 O262 2.471 1_554 S
Eu240 O263 2.349 . S
Eu241 O250 2.373 . S
Eu241 O254 2.488 . S
Eu241 O255 2.471 . S
Eu241 O256 2.349 . S
Eu241 O259 2.392 . S
Eu241 O260 2.418 . S
Eu241 C270 2.828 . S
C242 O260 1.244 . S
C242 O263 1.265 . S
C243 C244 1.379 . S
C243 C247 1.373 . S
C243 C249 1.505 . S
C244 C243 1.379 . S
C244 C246 1.369 . S
C244 H272 0.930 . S
C245 C247 1.383 . S
C245 C248 1.382 . S
C245 H273 0.930 . S
C246 C244 1.369 . S
C246 C248 1.392 . S
C246 H274 0.930 . S
C247 C243 1.373 . S
C247 C245 1.383 . S
C247 H275 0.931 . S
C248 C245 1.382 . S
C248 C246 1.392 . S
C249 Eu240 2.828 1_556 S
C249 C243 1.505 . S
C249 O261 1.249 . S
C249 O262 1.244 . S
O250 Eu241 2.373 . S
O250 C252 1.258 . S
O251 Eu240 2.392 . S
O251 C252 1.242 . S
C252 O250 1.258 . S
C252 O251 1.242 . S
O253 Eu240 2.418 . S
O253 C257 1.244 . S
O254 Eu241 2.488 . S
O254 C270 1.249 . S
O255 Eu241 2.471 . S
O255 C270 1.244 . S
O256 Eu241 2.349 . S
O256 C257 1.265 . S
C257 O253 1.244 . S
C257 O256 1.265 . S
O258 Eu240 2.373 . S
O258 C271 1.258 . S
O259 Eu241 2.392 . S
O259 C271 1.242 . S
O260 Eu241 2.418 . S
O260 C242 1.244 . S
O261 Eu240 2.488 1_556 S
O261 C249 1.249 . S
O262 Eu240 2.471 1_556 S
O262 C249 1.244 . S
O263 Eu240 2.349 . S
O263 C242 1.265 . S
C264 C265 1.379 . S
C264 C268 1.373 . S
C264 C270 1.505 . S
C265 C264 1.379 . S
C265 C267 1.369 . S
C265 H276 0.930 . S
C266 C268 1.383 . S
C266 C269 1.382 . S
C266 H277 0.930 . S
C267 C265 1.369 . S
C267 C269 1.392 . S
C267 H278 0.930 . S
C268 C264 1.373 . S
C268 C266 1.383 . S
C268 H279 0.931 . S
C269 C266 1.382 . S
C269 C267 1.392 . S
C270 Eu241 2.828 . S
C270 O254 1.249 . S
C270 O255 1.244 . S
C270 C264 1.505 . S
C271 O258 1.258 . S
C271 O259 1.242 . S
H272 C244 0.930 . S
H273 C245 0.930 . S
H274 C246 0.930 . S
H275 C247 0.931 . S
H276 C265 0.930 . S
H277 C266 0.930 . S
H278 C267 0.930 . S
H279 C268 0.931 . S
Eu280 C289 2.828 . S
Eu280 O291 2.392 . S
Eu280 O293 2.418 . S
Eu280 O298 2.373 . S
Eu280 O301 2.488 . S
Eu280 O302 2.471 . S
Eu280 O303 2.349 . S
Eu281 O290 2.373 . S
Eu281 O294 2.488 1_556 S
Eu281 O295 2.471 1_556 S
Eu281 O296 2.349 . S
Eu281 O299 2.392 . S
Eu281 O300 2.418 . S
Eu281 C310 2.828 1_556 S
C282 O300 1.244 . S
C282 O303 1.265 . S
C283 C284 1.379 . S
C283 C287 1.373 . S
C283 C289 1.505 . S
C284 C283 1.379 . S
C284 C286 1.369 . S
C284 H312 0.930 . S
C285 C287 1.383 . S
C285 C288 1.382 . S
C285 H313 0.930 . S
C286 C284 1.369 . S
C286 C288 1.392 . S
C286 H314 0.930 . S
C287 C283 1.373 . S
C287 C285 1.383 . S
C287 H315 0.931 . S
C288 C285 1.382 . S
C288 C286 1.392 . S
C289 Eu280 2.828 . S
C289 C283 1.505 . S
C289 O301 1.249 . S
C289 O302 1.244 . S
O290 Eu281 2.373 . S
O290 C292 1.258 . S
O291 Eu280 2.392 . S
O291 C292 1.242 . S
C292 O290 1.258 . S
C292 O291 1.242 . S
O293 Eu280 2.418 . S
O293 C297 1.244 . S
O294 Eu281 2.488 1_554 S
O294 C310 1.249 . S
O295 Eu281 2.471 1_554 S
O295 C310 1.244 . S
O296 Eu281 2.349 . S
O296 C297 1.265 . S
C297 O293 1.244 . S
C297 O296 1.265 . S
O298 Eu280 2.373 . S
O298 C311 1.258 . S
O299 Eu281 2.392 . S
O299 C311 1.242 . S
O300 Eu281 2.418 . S
O300 C282 1.244 . S
O301 Eu280 2.488 . S
O301 C289 1.249 . S
O302 Eu280 2.471 . S
O302 C289 1.244 . S
O303 Eu280 2.349 . S
O303 C282 1.265 . S
C304 C305 1.379 . S
C304 C308 1.373 . S
C304 C310 1.505 . S
C305 C304 1.379 . S
C305 C307 1.369 . S
C305 H316 0.930 . S
C306 C308 1.383 . S
C306 C309 1.382 . S
C306 H317 0.930 . S
C307 C305 1.369 . S
C307 C309 1.392 . S
C307 H318 0.930 . S
C308 C304 1.373 . S
C308 C306 1.383 . S
C308 H319 0.931 . S
C309 C306 1.382 . S
C309 C307 1.392 . S
C310 Eu281 2.828 1_554 S
C310 O294 1.249 . S
C310 O295 1.244 . S
C310 C304 1.505 . S
C311 O298 1.258 . S
C311 O299 1.242 . S
H312 C284 0.930 . S
H313 C285 0.930 . S
H314 C286 0.930 . S
H315 C287 0.931 . S
H316 C305 0.930 . S
H317 C306 0.930 . S
H318 C307 0.930 . S
H319 C308 0.931 . S
Eu320 C329 2.828 . S
Eu320 O331 2.392 . S
Eu320 O333 2.418 . S
Eu320 O338 2.373 . S
Eu320 O341 2.488 . S
Eu320 O342 2.471 . S
Eu320 O343 2.349 . S
Eu321 O330 2.373 . S
Eu321 O334 2.488 . S
Eu321 O335 2.471 . S
Eu321 O336 2.349 . S
Eu321 O339 2.392 . S
Eu321 O340 2.418 . S
Eu321 C350 2.828 . S
C322 O340 1.244 . S
C322 O343 1.265 . S
C323 C324 1.379 . S
C323 C327 1.373 . S
C323 C329 1.505 . S
C324 C323 1.379 . S
C324 C326 1.369 . S
C324 H352 0.930 . S
C325 C327 1.383 . S
C325 C328 1.382 . S
C325 H353 0.930 . S
C326 C324 1.369 . S
C326 C328 1.392 . S
C326 H354 0.930 . S
C327 C323 1.373 . S
C327 C325 1.383 . S
C327 H355 0.931 . S
C328 C325 1.382 . S
C328 C326 1.392 . S
C329 Eu320 2.828 . S
C329 C323 1.505 . S
C329 O341 1.249 . S
C329 O342 1.244 . S
O330 Eu321 2.373 . S
O330 C332 1.258 . S
O331 Eu320 2.392 . S
O331 C332 1.242 . S
C332 O330 1.258 . S
C332 O331 1.242 . S
O333 Eu320 2.418 . S
O333 C337 1.244 . S
O334 Eu321 2.488 . S
O334 C350 1.249 . S
O335 Eu321 2.471 . S
O335 C350 1.244 . S
O336 Eu321 2.349 . S
O336 C337 1.265 . S
C337 O333 1.244 . S
C337 O336 1.265 . S
O338 Eu320 2.373 . S
O338 C351 1.258 . S
O339 Eu321 2.392 . S
O339 C351 1.242 . S
O340 Eu321 2.418 . S
O340 C322 1.244 . S
O341 Eu320 2.488 . S
O341 C329 1.249 . S
O342 Eu320 2.471 . S
O342 C329 1.244 . S
O343 Eu320 2.349 . S
O343 C322 1.265 . S
C344 C345 1.379 . S
C344 C348 1.373 . S
C344 C350 1.505 . S
C345 C344 1.379 . S
C345 C347 1.369 . S
C345 H356 0.930 . S
C346 C348 1.383 . S
C346 C349 1.382 . S
C346 H357 0.930 . S
C347 C345 1.369 . S
C347 C349 1.392 . S
C347 H358 0.930 . S
C348 C344 1.373 . S
C348 C346 1.383 . S
C348 H359 0.931 . S
C349 C346 1.382 . S
C349 C347 1.392 . S
C350 Eu321 2.828 . S
C350 O334 1.249 . S
C350 O335 1.244 . S
C350 C344 1.505 . S
C351 O338 1.258 . S
C351 O339 1.242 . S
H352 C324 0.930 . S
H353 C325 0.930 . S
H354 C326 0.930 . S
H355 C327 0.931 . S
H356 C345 0.930 . S
H357 C346 0.930 . S
H358 C347 0.930 . S
H359 C348 0.931 . S
Eu360 C369 2.828 . S
Eu360 O371 2.392 . S
Eu360 O373 2.418 . S
Eu360 O378 2.373 . S
Eu360 O381 2.488 . S
Eu360 O382 2.471 . S
Eu360 O383 2.349 . S
Eu361 O370 2.373 . S
Eu361 O374 2.488 . S
Eu361 O375 2.471 . S
Eu361 O376 2.349 . S
Eu361 O379 2.392 . S
Eu361 O380 2.418 . S
Eu361 C390 2.828 . S
C362 O380 1.244 . S
C362 O383 1.265 . S
C363 C364 1.379 . S
C363 C367 1.373 . S
C363 C369 1.505 . S
C364 C363 1.379 . S
C364 C366 1.369 . S
C364 H392 0.930 . S
C365 C367 1.383 . S
C365 C368 1.382 . S
C365 H393 0.930 . S
C366 C364 1.369 . S
C366 C368 1.392 . S
C366 H394 0.930 . S
C367 C363 1.373 . S
C367 C365 1.383 . S
C367 H395 0.931 . S
C368 C365 1.382 . S
C368 C366 1.392 . S
C369 Eu360 2.828 . S
C369 C363 1.505 . S
C369 O381 1.249 . S
C369 O382 1.244 . S
O370 Eu361 2.373 . S
O370 C372 1.258 . S
O371 Eu360 2.392 . S
O371 C372 1.242 . S
C372 O370 1.258 . S
C372 O371 1.242 . S
O373 Eu360 2.418 . S
O373 C377 1.244 . S
O374 Eu361 2.488 . S
O374 C390 1.249 . S
O375 Eu361 2.471 . S
O375 C390 1.244 . S
O376 Eu361 2.349 . S
O376 C377 1.265 . S
C377 O373 1.244 . S
C377 O376 1.265 . S
O378 Eu360 2.373 . S
O378 C391 1.258 . S
O379 Eu361 2.392 . S
O379 C391 1.242 . S
O380 Eu361 2.418 . S
O380 C362 1.244 . S
O381 Eu360 2.488 . S
O381 C369 1.249 . S
O382 Eu360 2.471 . S
O382 C369 1.244 . S
O383 Eu360 2.349 . S
O383 C362 1.265 . S
C384 C385 1.379 . S
C384 C388 1.373 . S
C384 C390 1.505 . S
C385 C384 1.379 . S
C385 C387 1.369 . S
C385 H396 0.930 . S
C386 C388 1.383 . S
C386 C389 1.382 . S
C386 H397 0.930 . S
C387 C385 1.369 . S
C387 C389 1.392 . S
C387 H398 0.930 . S
C388 C384 1.373 . S
C388 C386 1.383 . S
C388 H399 0.931 . S
C389 C386 1.382 . S
C389 C387 1.392 . S
C390 Eu361 2.828 . S
C390 O374 1.249 . S
C390 O375 1.244 . S
C390 C384 1.505 . S
C391 O378 1.258 . S
C391 O379 1.242 . S
H392 C364 0.930 . S
H393 C365 0.930 . S
H394 C366 0.930 . S
H395 C367 0.931 . S
H396 C385 0.930 . S
H397 C386 0.930 . S
H398 C387 0.930 . S
H399 C388 0.931 . S
Eu400 C409 2.828 . S
Eu400 O411 2.392 . S
Eu400 O413 2.418 . S
Eu400 O418 2.373 . S
Eu400 O421 2.488 . S
Eu400 O422 2.471 . S
Eu400 O423 2.349 . S
Eu401 O410 2.373 . S
Eu401 O414 2.488 . S
Eu401 O415 2.471 . S
Eu401 O416 2.349 . S
Eu401 O419 2.392 . S
Eu401 O420 2.418 . S
Eu401 C430 2.828 . S
C402 O420 1.244 . S
C402 O423 1.265 . S
C403 C404 1.379 . S
C403 C407 1.373 . S
C403 C409 1.505 . S
C404 C403 1.379 . S
C404 C406 1.369 . S
C404 H432 0.930 . S
C405 C407 1.383 . S
C405 C408 1.382 . S
C405 H433 0.930 . S
C406 C404 1.369 . S
C406 C408 1.392 . S
C406 H434 0.930 . S
C407 C403 1.373 . S
C407 C405 1.383 . S
C407 H435 0.931 . S
C408 C405 1.382 . S
C408 C406 1.392 . S
C409 Eu400 2.828 . S
C409 C403 1.505 . S
C409 O421 1.249 . S
C409 O422 1.244 . S
O410 Eu401 2.373 . S
O410 C412 1.258 . S
O411 Eu400 2.392 . S
O411 C412 1.242 . S
C412 O410 1.258 . S
C412 O411 1.242 . S
O413 Eu400 2.418 . S
O413 C417 1.244 . S
O414 Eu401 2.488 . S
O414 C430 1.249 . S
O415 Eu401 2.471 . S
O415 C430 1.244 . S
O416 Eu401 2.349 . S
O416 C417 1.265 . S
C417 O413 1.244 . S
C417 O416 1.265 . S
O418 Eu400 2.373 . S
O418 C431 1.258 . S
O419 Eu401 2.392 . S
O419 C431 1.242 . S
O420 Eu401 2.418 . S
O420 C402 1.244 . S
O421 Eu400 2.488 . S
O421 C409 1.249 . S
O422 Eu400 2.471 . S
O422 C409 1.244 . S
O423 Eu400 2.349 . S
O423 C402 1.265 . S
C424 C425 1.379 . S
C424 C428 1.373 . S
C424 C430 1.505 . S
C425 C424 1.379 . S
C425 C427 1.369 . S
C425 H436 0.930 . S
C426 C428 1.383 . S
C426 C429 1.382 . S
C426 H437 0.930 . S
C427 C425 1.369 . S
C427 C429 1.392 . S
C427 H438 0.930 . S
C428 C424 1.373 . S
C428 C426 1.383 . S
C428 H439 0.931 . S
C429 C426 1.382 . S
C429 C427 1.392 . S
C430 Eu401 2.828 . S
C430 O414 1.249 . S
C430 O415 1.244 . S
C430 C424 1.505 . S
C431 O418 1.258 . S
C431 O419 1.242 . S
H432 C404 0.930 . S
H433 C405 0.930 . S
H434 C406 0.930 . S
H435 C407 0.931 . S
H436 C425 0.930 . S
H437 C426 0.930 . S
H438 C427 0.930 . S
H439 C428 0.931 . S
Eu440 C449 2.828 . S
Eu440 O451 2.392 . S
Eu440 O453 2.418 . S
Eu440 O458 2.373 . S
Eu440 O461 2.488 . S
Eu440 O462 2.471 . S
Eu440 O463 2.349 . S
Eu441 O450 2.373 . S
Eu441 O454 2.488 . S
Eu441 O455 2.471 . S
Eu441 O456 2.349 . S
Eu441 O459 2.392 . S
Eu441 O460 2.418 . S
Eu441 C470 2.828 . S
C442 O460 1.244 . S
C442 O463 1.265 . S
C443 C444 1.379 . S
C443 C447 1.373 . S
C443 C449 1.505 . S
C444 C443 1.379 . S
C444 C446 1.369 . S
C444 H472 0.930 . S
C445 C447 1.383 . S
C445 C448 1.382 . S
C445 H473 0.930 . S
C446 C444 1.369 . S
C446 C448 1.392 . S
C446 H474 0.930 . S
C447 C443 1.373 . S
C447 C445 1.383 . S
C447 H475 0.931 . S
C448 C445 1.382 . S
C448 C446 1.392 . S
C449 Eu440 2.828 . S
C449 C443 1.505 . S
C449 O461 1.249 . S
C449 O462 1.244 . S
O450 Eu441 2.373 . S
O450 C452 1.258 . S
O451 Eu440 2.392 . S
O451 C452 1.242 . S
C452 O450 1.258 . S
C452 O451 1.242 . S
O453 Eu440 2.418 . S
O453 C457 1.244 . S
O454 Eu441 2.488 . S
O454 C470 1.249 . S
O455 Eu441 2.471 . S
O455 C470 1.244 . S
O456 Eu441 2.349 . S
O456 C457 1.265 . S
C457 O453 1.244 . S
C457 O456 1.265 . S
O458 Eu440 2.373 . S
O458 C471 1.258 . S
O459 Eu441 2.392 . S
O459 C471 1.242 . S
O460 Eu441 2.418 . S
O460 C442 1.244 . S
O461 Eu440 2.488 . S
O461 C449 1.249 . S
O462 Eu440 2.471 . S
O462 C449 1.244 . S
O463 Eu440 2.349 . S
O463 C442 1.265 . S
C464 C465 1.379 . S
C464 C468 1.373 . S
C464 C470 1.505 . S
C465 C464 1.379 . S
C465 C467 1.369 . S
C465 H476 0.930 . S
C466 C468 1.383 . S
C466 C469 1.382 . S
C466 H477 0.930 . S
C467 C465 1.369 . S
C467 C469 1.392 . S
C467 H478 0.930 . S
C468 C464 1.373 . S
C468 C466 1.383 . S
C468 H479 0.931 . S
C469 C466 1.382 . S
C469 C467 1.392 . S
C470 Eu441 2.828 . S
C470 O454 1.249 . S
C470 O455 1.244 . S
C470 C464 1.505 . S
C471 O458 1.258 . S
C471 O459 1.242 . S
H472 C444 0.930 . S
H473 C445 0.930 . S
H474 C446 0.930 . S
H475 C447 0.931 . S
H476 C465 0.930 . S
H477 C466 0.930 . S
H478 C467 0.930 . S
H479 C468 0.931 . S
Eu480 C489 2.828 . S
Eu480 O491 2.392 . S
Eu480 O493 2.418 . S
Eu480 O498 2.373 . S
Eu480 O501 2.488 . S
Eu480 O502 2.471 . S
Eu480 O503 2.349 . S
Eu481 O490 2.373 . S
Eu481 O494 2.488 . S
Eu481 O495 2.471 . S
Eu481 O496 2.349 . S
Eu481 O499 2.392 . S
Eu481 O500 2.418 . S
Eu481 C510 2.828 . S
C482 O500 1.244 . S
C482 O503 1.265 . S
C483 C484 1.379 . S
C483 C487 1.373 . S
C483 C489 1.505 . S
C484 C483 1.379 . S
C484 C486 1.369 . S
C484 H512 0.930 . S
C485 C487 1.383 . S
C485 C488 1.382 . S
C485 H513 0.930 . S
C486 C484 1.369 . S
C486 C488 1.392 . S
C486 H514 0.930 . S
C487 C483 1.373 . S
C487 C485 1.383 . S
C487 H515 0.931 . S
C488 C485 1.382 . S
C488 C486 1.392 . S
C489 Eu480 2.828 . S
C489 C483 1.505 . S
C489 O501 1.249 . S
C489 O502 1.244 . S
O490 Eu481 2.373 . S
O490 C492 1.258 . S
O491 Eu480 2.392 . S
O491 C492 1.242 . S
C492 O490 1.258 . S
C492 O491 1.242 . S
O493 Eu480 2.418 . S
O493 C497 1.244 . S
O494 Eu481 2.488 . S
O494 C510 1.249 . S
O495 Eu481 2.471 . S
O495 C510 1.244 . S
O496 Eu481 2.349 . S
O496 C497 1.265 . S
C497 O493 1.244 . S
C497 O496 1.265 . S
O498 Eu480 2.373 . S
O498 C511 1.258 . S
O499 Eu481 2.392 . S
O499 C511 1.242 . S
O500 Eu481 2.418 . S
O500 C482 1.244 . S
O501 Eu480 2.488 . S
O501 C489 1.249 . S
O502 Eu480 2.471 . S
O502 C489 1.244 . S
O503 Eu480 2.349 . S
O503 C482 1.265 . S
C504 C505 1.379 . S
C504 C508 1.373 . S
C504 C510 1.505 . S
C505 C504 1.379 . S
C505 C507 1.369 . S
C505 H516 0.930 . S
C506 C508 1.383 . S
C506 C509 1.382 . S
C506 H517 0.930 . S
C507 C505 1.369 . S
C507 C509 1.392 . S
C507 H518 0.930 . S
C508 C504 1.373 . S
C508 C506 1.383 . S
C508 H519 0.931 . S
C509 C506 1.382 . S
C509 C507 1.392 . S
C510 Eu481 2.828 . S
C510 O494 1.249 . S
C510 O495 1.244 . S
C510 C504 1.505 . S
C511 O498 1.258 . S
C511 O499 1.242 . S
H512 C484 0.930 . S
H513 C485 0.930 . S
H514 C486 0.930 . S
H515 C487 0.931 . S
H516 C505 0.930 . S
H517 C506 0.930 . S
H518 C507 0.930 . S
H519 C508 0.931 . S
Eu520 C529 2.828 . S
Eu520 O531 2.392 . S
Eu520 O533 2.418 . S
Eu520 O538 2.373 . S
Eu520 O541 2.488 . S
Eu520 O542 2.471 . S
Eu520 O543 2.349 . S
Eu521 O530 2.373 . S
Eu521 O534 2.488 . S
Eu521 O535 2.471 . S
Eu521 O536 2.349 . S
Eu521 O539 2.392 . S
Eu521 O540 2.418 . S
Eu521 C550 2.828 . S
C522 O540 1.244 . S
C522 O543 1.265 . S
C523 C524 1.379 . S
C523 C527 1.373 . S
C523 C529 1.505 . S
C524 C523 1.379 . S
C524 C526 1.369 . S
C524 H552 0.930 . S
C525 C527 1.383 . S
C525 C528 1.382 . S
C525 H553 0.930 . S
C526 C524 1.369 . S
C526 C528 1.392 . S
C526 H554 0.930 . S
C527 C523 1.373 . S
C527 C525 1.383 . S
C527 H555 0.931 . S
C528 C525 1.382 . S
C528 C526 1.392 . S
C529 Eu520 2.828 . S
C529 C523 1.505 . S
C529 O541 1.249 . S
C529 O542 1.244 . S
O530 Eu521 2.373 . S
O530 C532 1.258 . S
O531 Eu520 2.392 . S
O531 C532 1.242 . S
C532 O530 1.258 . S
C532 O531 1.242 . S
O533 Eu520 2.418 . S
O533 C537 1.244 . S
O534 Eu521 2.488 . S
O534 C550 1.249 . S
O535 Eu521 2.471 . S
O535 C550 1.244 . S
O536 Eu521 2.349 . S
O536 C537 1.265 . S
C537 O533 1.244 . S
C537 O536 1.265 . S
O538 Eu520 2.373 . S
O538 C551 1.258 . S
O539 Eu521 2.392 . S
O539 C551 1.242 . S
O540 Eu521 2.418 . S
O540 C522 1.244 . S
O541 Eu520 2.488 . S
O541 C529 1.249 . S
O542 Eu520 2.471 . S
O542 C529 1.244 . S
O543 Eu520 2.349 . S
O543 C522 1.265 . S
C544 C545 1.379 . S
C544 C548 1.373 . S
C544 C550 1.505 . S
C545 C544 1.379 . S
C545 C547 1.369 . S
C545 H556 0.930 . S
C546 C548 1.383 . S
C546 C549 1.382 . S
C546 H557 0.930 . S
C547 C545 1.369 . S
C547 C549 1.392 . S
C547 H558 0.930 . S
C548 C544 1.373 . S
C548 C546 1.383 . S
C548 H559 0.931 . S
C549 C546 1.382 . S
C549 C547 1.392 . S
C550 Eu521 2.828 . S
C550 O534 1.249 . S
C550 O535 1.244 . S
C550 C544 1.505 . S
C551 O538 1.258 . S
C551 O539 1.242 . S
H552 C524 0.930 . S
H553 C525 0.930 . S
H554 C526 0.930 . S
H555 C527 0.931 . S
H556 C545 0.930 . S
H557 C546 0.930 . S
H558 C547 0.930 . S
H559 C548 0.931 . S
Eu560 C569 2.828 . S
Eu560 O571 2.392 . S
Eu560 O573 2.418 . S
Eu560 O578 2.373 . S
Eu560 O581 2.488 . S
Eu560 O582 2.471 . S
Eu560 O583 2.349 . S
Eu561 O570 2.373 . S
Eu561 O574 2.488 . S
Eu561 O575 2.471 . S
Eu561 O576 2.349 . S
Eu561 O579 2.392 . S
Eu561 O580 2.418 . S
Eu561 C590 2.828 . S
C562 O580 1.244 . S
C562 O583 1.265 . S
C563 C564 1.379 . S
C563 C567 1.373 . S
C563 C569 1.505 . S
C564 C563 1.379 . S
C564 C566 1.369 . S
C564 H592 0.930 . S
C565 C567 1.383 . S
C565 C568 1.382 . S
C565 H593 0.930 . S
C566 C564 1.369 . S
C566 C568 1.392 . S
C566 H594 0.930 . S
C567 C563 1.373 . S
C567 C565 1.383 . S
C567 H595 0.931 . S
C568 C565 1.382 . S
C568 C566 1.392 . S
C569 Eu560 2.828 . S
C569 C563 1.505 . S
C569 O581 1.249 . S
C569 O582 1.244 . S
O570 Eu561 2.373 . S
O570 C572 1.258 . S
O571 Eu560 2.392 . S
O571 C572 1.242 . S
C572 O570 1.258 . S
C572 O571 1.242 . S
O573 Eu560 2.418 . S
O573 C577 1.244 . S
O574 Eu561 2.488 . S
O574 C590 1.249 . S
O575 Eu561 2.471 . S
O575 C590 1.244 . S
O576 Eu561 2.349 . S
O576 C577 1.265 . S
C577 O573 1.244 . S
C577 O576 1.265 . S
O578 Eu560 2.373 . S
O578 C591 1.258 . S
O579 Eu561 2.392 . S
O579 C591 1.242 . S
O580 Eu561 2.418 . S
O580 C562 1.244 . S
O581 Eu560 2.488 . S
O581 C569 1.249 . S
O582 Eu560 2.471 . S
O582 C569 1.244 . S
O583 Eu560 2.349 . S
O583 C562 1.265 . S
C584 C585 1.379 . S
C584 C588 1.373 . S
C584 C590 1.505 . S
C585 C584 1.379 . S
C585 C587 1.369 . S
C585 H596 0.930 . S
C586 C588 1.383 . S
C586 C589 1.382 . S
C586 H597 0.930 . S
C587 C585 1.369 . S
C587 C589 1.392 . S
C587 H598 0.930 . S
C588 C584 1.373 . S
C588 C586 1.383 . S
C588 H599 0.931 . S
C589 C586 1.382 . S
C589 C587 1.392 . S
C590 Eu561 2.828 . S
C590 O574 1.249 . S
C590 O575 1.244 . S
C590 C584 1.505 . S
C591 O578 1.258 . S
C591 O579 1.242 . S
H592 C564 0.930 . S
H593 C565 0.930 . S
H594 C566 0.930 . S
H595 C567 0.931 . S
H596 C585 0.930 . S
H597 C586 0.930 . S
H598 C587 0.930 . S
H599 C588 0.931 . S
Eu600 C609 2.828 . S
Eu600 O611 2.392 . S
Eu600 O613 2.418 . S
Eu600 O618 2.373 . S
Eu600 O621 2.488 . S
Eu600 O622 2.471 . S
Eu600 O623 2.349 . S
Eu601 O610 2.373 . S
Eu601 O614 2.488 . S
Eu601 O615 2.471 . S
Eu601 O616 2.349 . S
Eu601 O619 2.392 . S
Eu601 O620 2.418 . S
Eu601 C630 2.828 . S
C602 O620 1.244 . S
C602 O623 1.265 . S
C603 C604 1.379 . S
C603 C607 1.373 . S
C603 C609 1.505 . S
C604 C603 1.379 . S
C604 C606 1.369 . S
C604 H632 0.930 . S
C605 C607 1.383 . S
C605 C608 1.382 . S
C605 H633 0.930 . S
C606 C604 1.369 . S
C606 C608 1.392 . S
C606 H634 0.930 . S
C607 C603 1.373 . S
C607 C605 1.383 . S
C607 H635 0.931 . S
C608 C605 1.382 . S
C608 C606 1.392 . S
C609 Eu600 2.828 . S
C609 C603 1.505 . S
C609 O621 1.249 . S
C609 O622 1.244 . S
O610 Eu601 2.373 . S
O610 C612 1.258 . S
O611 Eu600 2.392 . S
O611 C612 1.242 . S
C612 O610 1.258 . S
C612 O611 1.242 . S
O613 Eu600 2.418 . S
O613 C617 1.244 . S
O614 Eu601 2.488 . S
O614 C630 1.249 . S
O615 Eu601 2.471 . S
O615 C630 1.244 . S
O616 Eu601 2.349 . S
O616 C617 1.265 . S
C617 O613 1.244 . S
C617 O616 1.265 . S
O618 Eu600 2.373 . S
O618 C631 1.258 . S
O619 Eu601 2.392 . S
O619 C631 1.242 . S
O620 Eu601 2.418 . S
O620 C602 1.244 . S
O621 Eu600 2.488 . S
O621 C609 1.249 . S
O622 Eu600 2.471 . S
O622 C609 1.244 . S
O623 Eu600 2.349 . S
O623 C602 1.265 . S
C624 C625 1.379 . S
C624 C628 1.373 . S
C624 C630 1.505 . S
C625 C624 1.379 . S
C625 C627 1.369 . S
C625 H636 0.930 . S
C626 C628 1.383 . S
C626 C629 1.382 . S
C626 H637 0.930 . S
C627 C625 1.369 . S
C627 C629 1.392 . S
C627 H638 0.930 . S
C628 C624 1.373 . S
C628 C626 1.383 . S
C628 H639 0.931 . S
C629 C626 1.382 . S
C629 C627 1.392 . S
C630 Eu601 2.828 . S
C630 O614 1.249 . S
C630 O615 1.244 . S
C630 C624 1.505 . S
C631 O618 1.258 . S
C631 O619 1.242 . S
H632 C604 0.930 . S
H633 C605 0.930 . S
H634 C606 0.930 . S
H635 C607 0.931 . S
H636 C625 0.930 . S
H637 C626 0.930 . S
H638 C627 0.930 . S
H639 C628 0.931 . S
H640 C646 0.930 . S
H641 C650 0.930 . S
H642 C655 0.929 . S
H643 C653 0.929 . S
H644 C648 0.929 . S
H645 C654 0.929 . S
C646 H640 0.930 . S
C646 C647 1.367 . S
C646 C654 1.378 . S
C647 C646 1.367 . S
C647 C655 1.433 . S
C648 H644 0.929 . S
C648 C650 1.378 1_565 S
C648 C652 1.350 . S
C649 C652 1.463 . S
C649 C654 1.350 . S
C649 N657 1.427 . S
C650 H641 0.930 . S
C650 C648 1.378 1_545 S
C650 C651 1.367 . S
C651 C650 1.367 . S
C651 C653 1.433 . S
C652 C648 1.350 . S
C652 C649 1.463 . S
C652 N656 1.427 1_565 S
C653 H643 0.929 . S
C653 C651 1.433 . S
C653 N656 1.384 . S
C654 H645 0.929 . S
C654 C646 1.378 . S
C654 C649 1.350 . S
C655 H642 0.929 . S
C655 C647 1.433 . S
C655 N657 1.384 . S
N656 C652 1.427 1_545 S
N656 C653 1.384 . S
N657 C649 1.427 . S
N657 C655 1.384 . S
H658 C664 0.930 . S
H659 C668 0.930 . S
H660 C673 0.929 . S
H661 C671 0.929 . S
H662 C666 0.929 . S
H663 C672 0.929 . S
C664 H658 0.930 . S
C664 C665 1.367 . S
C664 C672 1.378 . S
C665 C664 1.367 . S
C665 C673 1.433 . S
C666 H662 0.929 . S
C666 C668 1.378 1_655 S
C666 C670 1.350 . S
C667 C670 1.463 . S
C667 C672 1.350 . S
C667 N675 1.427 . S
C668 H659 0.930 . S
C668 C666 1.378 1_455 S
C668 C669 1.367 . S
C669 C668 1.367 . S
C669 C671 1.433 . S
C670 C666 1.350 . S
C670 C667 1.463 . S
C670 N674 1.427 1_655 S
C671 H661 0.929 . S
C671 C669 1.433 . S
C671 N674 1.384 . S
C672 H663 0.929 . S
C672 C664 1.378 . S
C672 C667 1.350 . S
C673 H660 0.929 . S
C673 C665 1.433 . S
C673 N675 1.384 . S
N674 C670 1.427 1_455 S
N674 C671 1.384 . S
N675 C667 1.427 . S
N675 C673 1.384 . S
H676 C682 0.930 . S
H677 C686 0.930 . S
H678 C691 0.929 . S
H679 C689 0.929 . S
H680 C684 0.929 . S
H681 C690 0.929 . S
C682 H676 0.930 . S
C682 C683 1.367 . S
C682 C690 1.378 1_565 S
C683 C682 1.367 . S
C683 C691 1.433 . S
C684 H680 0.929 . S
C684 C686 1.378 . S
C684 C688 1.350 . S
C685 C688 1.463 . S
C685 C690 1.350 . S
C685 N693 1.427 1_545 S
C686 H677 0.930 . S
C686 C684 1.378 . S
C686 C687 1.367 . S
C687 C686 1.367 . S
C687 C689 1.433 . S
C688 C684 1.350 . S
C688 C685 1.463 . S
C688 N692 1.427 . S
C689 H679 0.929 . S
C689 C687 1.433 . S
C689 N692 1.384 . S
C690 H681 0.929 . S
C690 C682 1.378 1_545 S
C690 C685 1.350 . S
C691 H678 0.929 . S
C691 C683 1.433 . S
C691 N693 1.384 . S
N692 C688 1.427 . S
N692 C689 1.384 . S
N693 C685 1.427 1_565 S
N693 C691 1.384 . S
H694 C700 0.930 . S
H695 C704 0.930 . S
H696 C709 0.929 . S
H697 C707 0.929 . S
H698 C702 0.929 . S
H699 C708 0.929 . S
C700 H694 0.930 . S
C700 C701 1.367 . S
C700 C708 1.378 1_655 S
C701 C700 1.367 . S
C701 C709 1.433 . S
C702 H698 0.929 . S
C702 C704 1.378 . S
C702 C706 1.350 . S
C703 C706 1.463 . S
C703 C708 1.350 . S
C703 N711 1.427 1_455 S
C704 H695 0.930 . S
C704 C702 1.378 . S
C704 C705 1.367 . S
C705 C704 1.367 . S
C705 C707 1.433 . S
C706 C702 1.350 . S
C706 C703 1.463 . S
C706 N710 1.427 . S
C707 H697 0.929 . S
C707 C705 1.433 . S
C707 N710 1.384 . S
C708 H699 0.929 . S
C708 C700 1.378 1_455 S
C708 C703 1.350 . S
C709 H696 0.929 . S
C709 C701 1.433 . S
C709 N711 1.384 . S
N710 C706 1.427 . S
N710 C707 1.384 . S
N711 C703 1.427 1_655 S
N711 C709 1.384 . S
H712 C718 0.930 . S
H713 C722 0.930 . S
H714 C727 0.929 . S
H715 C725 0.929 . S
H716 C720 0.929 . S
H717 C726 0.929 . S
C718 H712 0.930 . S
C718 C719 1.367 . S
C718 C726 1.378 . S
C719 C718 1.367 . S
C719 C727 1.433 . S
C720 H716 0.929 . S
C720 C722 1.378 . S
C720 C724 1.350 1_556 S
C721 C724 1.463 . S
C721 C726 1.350 . S
C721 N729 1.427 . S
C722 H713 0.930 . S
C722 C720 1.378 . S
C722 C723 1.367 . S
C723 C722 1.367 . S
C723 C725 1.433 1_556 S
C724 C720 1.350 1_554 S
C724 C721 1.463 . S
C724 N728 1.427 . S
C725 H715 0.929 . S
C725 C723 1.433 1_554 S
C725 N728 1.384 . S
C726 H717 0.929 . S
C726 C718 1.378 . S
C726 C721 1.350 . S
C727 H714 0.929 . S
C727 C719 1.433 . S
C727 N729 1.384 . S
N728 C724 1.427 . S
N728 C725 1.384 . S
N729 C721 1.427 . S
N729 C727 1.384 . S
H730 C736 0.930 . S
H731 C740 0.930 . S
H732 C745 0.929 . S
H733 C743 0.929 . S
H734 C738 0.929 . S
H735 C744 0.929 . S
C736 H730 0.930 . S
C736 C737 1.367 . S
C736 C744 1.378 . S
C737 C736 1.367 . S
C737 C745 1.433 1_554 S
C738 H734 0.929 . S
C738 C740 1.378 . S
C738 C742 1.350 . S
C739 C742 1.463 . S
C739 C744 1.350 1_556 S
C739 N747 1.427 . S
C740 H731 0.930 . S
C740 C738 1.378 . S
C740 C741 1.367 . S
C741 C740 1.367 . S
C741 C743 1.433 . S
C742 C738 1.350 . S
C742 C739 1.463 . S
C742 N746 1.427 . S
C743 H733 0.929 . S
C743 C741 1.433 . S
C743 N746 1.384 . S
C744 H735 0.929 . S
C744 C736 1.378 . S
C744 C739 1.350 1_554 S
C745 H732 0.929 . S
C745 C737 1.433 1_556 S
C745 N747 1.384 . S
N746 C742 1.427 . S
N746 C743 1.384 . S
N747 C739 1.427 . S
N747 C745 1.384 . S
H748 C754 0.930 . S
H749 C758 0.930 . S
H750 C763 0.929 . S
H751 C761 0.929 . S
H752 C756 0.929 . S
H753 C762 0.929 . S
C754 H748 0.930 . S
C754 C755 1.367 . S
C754 C762 1.378 . S
C755 C754 1.367 . S
C755 C763 1.433 . S
C756 H752 0.929 . S
C756 C758 1.378 . S
C756 C760 1.350 1_556 S
C757 C760 1.463 . S
C757 C762 1.350 . S
C757 N765 1.427 . S
C758 H749 0.930 . S
C758 C756 1.378 . S
C758 C759 1.367 . S
C759 C758 1.367 . S
C759 C761 1.433 1_556 S
C760 C756 1.350 1_554 S
C760 C757 1.463 . S
C760 N764 1.427 . S
C761 H751 0.929 . S
C761 C759 1.433 1_554 S
C761 N764 1.384 . S
C762 H753 0.929 . S
C762 C754 1.378 . S
C762 C757 1.350 . S
C763 H750 0.929 . S
C763 C755 1.433 . S
C763 N765 1.384 . S
N764 C760 1.427 . S
N764 C761 1.384 . S
N765 C757 1.427 . S
N765 C763 1.384 . S
H766 C772 0.930 . S
H767 C776 0.930 . S
H768 C781 0.929 . S
H769 C779 0.929 . S
H770 C774 0.929 . S
H771 C780 0.929 . S
C772 H766 0.930 . S
C772 C773 1.367 . S
C772 C780 1.378 . S
C773 C772 1.367 . S
C773 C781 1.433 1_554 S
C774 H770 0.929 . S
C774 C776 1.378 . S
C774 C778 1.350 . S
C775 C778 1.463 . S
C775 C780 1.350 1_556 S
C775 N783 1.427 . S
C776 H767 0.930 . S
C776 C774 1.378 . S
C776 C777 1.367 . S
C777 C776 1.367 . S
C777 C779 1.433 . S
C778 C774 1.350 . S
C778 C775 1.463 . S
C778 N782 1.427 . S
C779 H769 0.929 . S
C779 C777 1.433 . S
C779 N782 1.384 . S
C780 H771 0.929 . S
C780 C772 1.378 . S
C780 C775 1.350 1_554 S
C781 H768 0.929 . S
C781 C773 1.433 1_556 S
C781 N783 1.384 . S
N782 C778 1.427 . S
N782 C779 1.384 . S
N783 C775 1.427 . S
N783 C781 1.384 . S
H784 C790 0.930 . S
H785 C794 0.930 . S
H786 C799 0.929 . S
H787 C797 0.929 . S
H788 C792 0.929 . S
H789 C798 0.929 . S
C790 H784 0.930 . S
C790 C791 1.367 . S
C790 C798 1.378 . S
C791 C790 1.367 . S
C791 C799 1.433 . S
C792 H788 0.929 . S
C792 C794 1.378 . S
C792 C796 1.350 . S
C793 C796 1.463 . S
C793 C798 1.350 . S
C793 N801 1.427 . S
C794 H785 0.930 . S
C794 C792 1.378 . S
C794 C795 1.367 . S
C795 C794 1.367 . S
C795 C797 1.433 . S
C796 C792 1.350 . S
C796 C793 1.463 . S
C796 N800 1.427 . S
C797 H787 0.929 . S
C797 C795 1.433 . S
C797 N800 1.384 . S
C798 H789 0.929 . S
C798 C790 1.378 . S
C798 C793 1.350 . S
C799 H786 0.929 . S
C799 C791 1.433 . S
C799 N801 1.384 . S
N800 C796 1.427 . S
N800 C797 1.384 . S
N801 C793 1.427 . S
N801 C799 1.384 . S
H802 C808 0.930 . S
H803 C812 0.930 . S
H804 C817 0.929 . S
H805 C815 0.929 . S
H806 C810 0.929 . S
H807 C816 0.929 . S
C808 H802 0.930 . S
C808 C809 1.367 . S
C808 C816 1.378 . S
C809 C808 1.367 . S
C809 C817 1.433 . S
C810 H806 0.929 . S
C810 C812 1.378 . S
C810 C814 1.350 . S
C811 C814 1.463 . S
C811 C816 1.350 . S
C811 N819 1.427 . S
C812 H803 0.930 . S
C812 C810 1.378 . S
C812 C813 1.367 . S
C813 C812 1.367 . S
C813 C815 1.433 . S
C814 C810 1.350 . S
C814 C811 1.463 . S
C814 N818 1.427 . S
C815 H805 0.929 . S
C815 C813 1.433 . S
C815 N818 1.384 . S
C816 H807 0.929 . S
C816 C808 1.378 . S
C816 C811 1.350 . S
C817 H804 0.929 . S
C817 C809 1.433 . S
C817 N819 1.384 . S
N818 C814 1.427 . S
N818 C815 1.384 . S
N819 C811 1.427 . S
N819 C817 1.384 . S
H820 C826 0.930 . S
H821 C830 0.930 . S
H822 C835 0.929 . S
H823 C833 0.929 . S
H824 C828 0.929 . S
H825 C834 0.929 . S
C826 H820 0.930 . S
C826 C827 1.367 . S
C826 C834 1.378 . S
C827 C826 1.367 . S
C827 C835 1.433 . S
C828 H824 0.929 . S
C828 C830 1.378 . S
C828 C832 1.350 . S
C829 C832 1.463 . S
C829 C834 1.350 . S
C829 N837 1.427 . S
C830 H821 0.930 . S
C830 C828 1.378 . S
C830 C831 1.367 . S
C831 C830 1.367 . S
C831 C833 1.433 . S
C832 C828 1.350 . S
C832 C829 1.463 . S
C832 N836 1.427 . S
C833 H823 0.929 . S
C833 C831 1.433 . S
C833 N836 1.384 . S
C834 H825 0.929 . S
C834 C826 1.378 . S
C834 C829 1.350 . S
C835 H822 0.929 . S
C835 C827 1.433 . S
C835 N837 1.384 . S
N836 C832 1.427 . S
N836 C833 1.384 . S
N837 C829 1.427 . S
N837 C835 1.384 . S
H838 C844 0.930 . S
H839 C848 0.930 . S
H840 C853 0.929 . S
H841 C851 0.929 . S
H842 C846 0.929 . S
H843 C852 0.929 . S
C844 H838 0.930 . S
C844 C845 1.367 . S
C844 C852 1.378 . S
C845 C844 1.367 . S
C845 C853 1.433 . S
C846 H842 0.929 . S
C846 C848 1.378 . S
C846 C850 1.350 . S
C847 C850 1.463 . S
C847 C852 1.350 . S
C847 N855 1.427 . S
C848 H839 0.930 . S
C848 C846 1.378 . S
C848 C849 1.367 . S
C849 C848 1.367 . S
C849 C851 1.433 . S
C850 C846 1.350 . S
C850 C847 1.463 . S
C850 N854 1.427 . S
C851 H841 0.929 . S
C851 C849 1.433 . S
C851 N854 1.384 . S
C852 H843 0.929 . S
C852 C844 1.378 . S
C852 C847 1.350 . S
C853 H840 0.929 . S
C853 C845 1.433 . S
C853 N855 1.384 . S
N854 C850 1.427 . S
N854 C851 1.384 . S
N855 C847 1.427 . S
N855 C853 1.384 . S
H856 C862 0.930 . S
H857 C866 0.930 . S
H858 C871 0.929 . S
H859 C869 0.929 . S
H860 C864 0.929 . S
H861 C870 0.929 . S
C862 H856 0.930 . S
C862 C863 1.367 . S
C862 C870 1.378 . S
C863 C862 1.367 . S
C863 C871 1.433 . S
C864 H860 0.929 . S
C864 C866 1.378 . S
C864 C868 1.350 . S
C865 C868 1.463 . S
C865 C870 1.350 1_545 S
C865 N873 1.427 . S
C866 H857 0.930 . S
C866 C864 1.378 . S
C866 C867 1.367 . S
C867 C866 1.367 . S
C867 C869 1.433 . S
C868 C864 1.350 . S
C868 C865 1.463 . S
C868 N872 1.427 . S
C869 H859 0.929 . S
C869 C867 1.433 . S
C869 N872 1.384 . S
C870 H861 0.929 . S
C870 C862 1.378 . S
C870 C865 1.350 1_565 S
C871 H858 0.929 . S
C871 C863 1.433 . S
C871 N873 1.384 1_565 S
N872 C868 1.427 . S
N872 C869 1.384 . S
N873 C865 1.427 . S
N873 C871 1.384 1_545 S
H874 C880 0.930 . S
H875 C884 0.930 . S
H876 C889 0.929 . S
H877 C887 0.929 . S
H878 C882 0.929 . S
H879 C888 0.929 . S
C880 H874 0.930 . S
C880 C881 1.367 . S
C880 C888 1.378 . S
C881 C880 1.367 . S
C881 C889 1.433 . S
C882 H878 0.929 . S
C882 C884 1.378 . S
C882 C886 1.350 1_655 S
C883 C886 1.463 . S
C883 C888 1.350 . S
C883 N891 1.427 . S
C884 H875 0.930 . S
C884 C882 1.378 . S
C884 C885 1.367 . S
C885 C884 1.367 . S
C885 C887 1.433 . S
C886 C882 1.350 1_455 S
C886 C883 1.463 . S
C886 N890 1.427 . S
C887 H877 0.929 . S
C887 C885 1.433 . S
C887 N890 1.384 1_655 S
C888 H879 0.929 . S
C888 C880 1.378 . S
C888 C883 1.350 . S
C889 H876 0.929 . S
C889 C881 1.433 . S
C889 N891 1.384 . S
N890 C886 1.427 . S
N890 C887 1.384 1_455 S
N891 C883 1.427 . S
N891 C889 1.384 . S
H892 C898 0.930 . S
H893 C902 0.930 . S
H894 C907 0.929 . S
H895 C905 0.929 . S
H896 C900 0.929 . S
H897 C906 0.929 . S
C898 H892 0.930 . S
C898 C899 1.367 . S
C898 C906 1.378 . S
C899 C898 1.367 . S
C899 C907 1.433 . S
C900 H896 0.929 . S
C900 C902 1.378 1_565 S
C900 C904 1.350 . S
C901 C904 1.463 . S
C901 C906 1.350 . S
C901 N909 1.427 . S
C902 H893 0.930 . S
C902 C900 1.378 1_545 S
C902 C903 1.367 . S
C903 C902 1.367 . S
C903 C905 1.433 . S
C904 C900 1.350 . S
C904 C901 1.463 . S
C904 N908 1.427 1_565 S
C905 H895 0.929 . S
C905 C903 1.433 . S
C905 N908 1.384 . S
C906 H897 0.929 . S
C906 C898 1.378 . S
C906 C901 1.350 . S
C907 H894 0.929 . S
C907 C899 1.433 . S
C907 N909 1.384 . S
N908 C904 1.427 1_545 S
N908 C905 1.384 . S
N909 C901 1.427 . S
N909 C907 1.384 . S
H910 C916 0.930 . S
H911 C920 0.930 . S
H912 C925 0.929 . S
H913 C923 0.929 . S
H914 C918 0.929 . S
H915 C924 0.929 . S
C916 H910 0.930 . S
C916 C917 1.367 . S
C916 C924 1.378 1_455 S
C917 C916 1.367 . S
C917 C925 1.433 . S
C918 H914 0.929 . S
C918 C920 1.378 . S
C918 C922 1.350 . S
C919 C922 1.463 . S
C919 C924 1.350 . S
C919 N927 1.427 1_655 S
C920 H911 0.930 . S
C920 C918 1.378 . S
C920 C921 1.367 . S
C921 C920 1.367 . S
C921 C923 1.433 . S
C922 C918 1.350 . S
C922 C919 1.463 . S
C922 N926 1.427 . S
C923 H913 0.929 . S
C923 C921 1.433 . S
C923 N926 1.384 . S
C924 H915 0.929 . S
C924 C916 1.378 1_655 S
C924 C919 1.350 . S
C925 H912 0.929 . S
C925 C917 1.433 . S
C925 N927 1.384 . S
N926 C922 1.427 . S
N926 C923 1.384 . S
N927 C919 1.427 1_455 S
N927 C925 1.384 . S
H928 C934 0.930 . S
H929 C938 0.930 . S
H930 C943 0.929 . S
H931 C941 0.929 . S
H932 C936 0.929 . S
H933 C942 0.929 . S
C934 H928 0.930 . S
C934 C935 1.367 . S
C934 C942 1.378 . S
C935 C934 1.367 . S
C935 C943 1.433 . S
C936 H932 0.929 . S
C936 C938 1.378 . S
C936 C940 1.350 . S
C937 C940 1.463 . S
C937 C942 1.350 . S
C937 N945 1.427 . S
C938 H929 0.930 . S
C938 C936 1.378 . S
C938 C939 1.367 . S
C939 C938 1.367 . S
C939 C941 1.433 . S
C940 C936 1.350 . S
C940 C937 1.463 . S
C940 N944 1.427 . S
C941 H931 0.929 . S
C941 C939 1.433 . S
C941 N944 1.384 . S
C942 H933 0.929 . S
C942 C934 1.378 . S
C942 C937 1.350 . S
C943 H930 0.929 . S
C943 C935 1.433 . S
C943 N945 1.384 . S
N944 C940 1.427 . S
N944 C941 1.384 . S
N945 C937 1.427 . S
N945 C943 1.384 . S
H946 C952 0.930 . S
H947 C956 0.930 . S
H948 C961 0.929 . S
H949 C959 0.929 . S
H950 C954 0.929 . S
H951 C960 0.929 . S
C952 H946 0.930 . S
C952 C953 1.367 . S
C952 C960 1.378 . S
C953 C952 1.367 . S
C953 C961 1.433 . S
C954 H950 0.929 . S
C954 C956 1.378 . S
C954 C958 1.350 . S
C955 C958 1.463 . S
C955 C960 1.350 . S
C955 N963 1.427 . S
C956 H947 0.930 . S
C956 C954 1.378 . S
C956 C957 1.367 . S
C957 C956 1.367 . S
C957 C959 1.433 . S
C958 C954 1.350 . S
C958 C955 1.463 . S
C958 N962 1.427 . S
C959 H949 0.929 . S
C959 C957 1.433 . S
C959 N962 1.384 . S
C960 H951 0.929 . S
C960 C952 1.378 . S
C960 C955 1.350 . S
C961 H948 0.929 . S
C961 C953 1.433 . S
C961 N963 1.384 . S
N962 C958 1.427 . S
N962 C959 1.384 . S
N963 C955 1.427 . S
N963 C961 1.384 . S
H964 C970 0.930 . S
H965 C974 0.930 . S
H966 C979 0.929 . S
H967 C977 0.929 . S
H968 C972 0.929 . S
H969 C978 0.929 . S
C970 H964 0.930 . S
C970 C971 1.367 . S
C970 C978 1.378 . S
C971 C970 1.367 . S
C971 C979 1.433 . S
C972 H968 0.929 . S
C972 C974 1.378 . S
C972 C976 1.350 . S
C973 C976 1.463 . S
C973 C978 1.350 . S
C973 N981 1.427 . S
C974 H965 0.930 . S
C974 C972 1.378 . S
C974 C975 1.367 . S
C975 C974 1.367 . S
C975 C977 1.433 . S
C976 C972 1.350 . S
C976 C973 1.463 . S
C976 N980 1.427 . S
C977 H967 0.929 . S
C977 C975 1.433 . S
C977 N980 1.384 . S
C978 H969 0.929 . S
C978 C970 1.378 . S
C978 C973 1.350 . S
C979 H966 0.929 . S
C979 C971 1.433 . S
C979 N981 1.384 . S
N980 C976 1.427 . S
N980 C977 1.384 . S
N981 C973 1.427 . S
N981 C979 1.384 . S
H982 C988 0.930 . S
H983 C992 0.930 . S
H984 C997 0.929 . S
H985 C995 0.929 . S
H986 C990 0.929 . S
H987 C996 0.929 . S
C988 H982 0.930 . S
C988 C989 1.367 . S
C988 C996 1.378 . S
C989 C988 1.367 . S
C989 C997 1.433 . S
C990 H986 0.929 . S
C990 C992 1.378 . S
C990 C994 1.350 . S
C991 C994 1.463 . S
C991 C996 1.350 . S
C991 N999 1.427 . S
C992 H983 0.930 . S
C992 C990 1.378 . S
C992 C993 1.367 . S
C993 C992 1.367 . S
C993 C995 1.433 . S
C994 C990 1.350 . S
C994 C991 1.463 . S
C994 N998 1.427 . S
C995 H985 0.929 . S
C995 C993 1.433 . S
C995 N998 1.384 . S
C996 H987 0.929 . S
C996 C988 1.378 . S
C996 C991 1.350 . S
C997 H984 0.929 . S
C997 C989 1.433 . S
C997 N999 1.384 . S
N998 C994 1.427 . S
N998 C995 1.384 . S
N999 C991 1.427 . S
N999 C997 1.384 . S
H1000 C1006 0.930 . S
H1001 C1010 0.930 . S
H1002 C1015 0.929 . S
H1003 C1013 0.929 . S
H1004 C1008 0.929 . S
H1005 C1014 0.929 . S
C1006 H1000 0.930 . S
C1006 C1007 1.367 . S
C1006 C1014 1.378 . S
C1007 C1006 1.367 . S
C1007 C1015 1.433 . S
C1008 H1004 0.929 . S
C1008 C1010 1.378 . S
C1008 C1012 1.350 . S
C1009 C1012 1.463 . S
C1009 C1014 1.350 . S
C1009 N1017 1.427 . S
C1010 H1001 0.930 . S
C1010 C1008 1.378 . S
C1010 C1011 1.367 . S
C1011 C1010 1.367 . S
C1011 C1013 1.433 . S
C1012 C1008 1.350 . S
C1012 C1009 1.463 . S
C1012 N1016 1.427 . S
C1013 H1003 0.929 . S
C1013 C1011 1.433 . S
C1013 N1016 1.384 . S
C1014 H1005 0.929 . S
C1014 C1006 1.378 . S
C1014 C1009 1.350 . S
C1015 H1002 0.929 . S
C1015 C1007 1.433 . S
C1015 N1017 1.384 . S
N1016 C1012 1.427 . S
N1016 C1013 1.384 . S
N1017 C1009 1.427 . S
N1017 C1015 1.384 . S
H1018 C1024 0.930 . S
H1019 C1028 0.930 . S
H1020 C1033 0.929 . S
H1021 C1031 0.929 . S
H1022 C1026 0.929 . S
H1023 C1032 0.929 . S
C1024 H1018 0.930 . S
C1024 C1025 1.367 . S
C1024 C1032 1.378 . S
C1025 C1024 1.367 . S
C1025 C1033 1.433 . S
C1026 H1022 0.929 . S
C1026 C1028 1.378 . S
C1026 C1030 1.350 . S
C1027 C1030 1.463 . S
C1027 C1032 1.350 . S
C1027 N1035 1.427 . S
C1028 H1019 0.930 . S
C1028 C1026 1.378 . S
C1028 C1029 1.367 . S
C1029 C1028 1.367 . S
C1029 C1031 1.433 . S
C1030 C1026 1.350 . S
C1030 C1027 1.463 . S
C1030 N1034 1.427 . S
C1031 H1021 0.929 . S
C1031 C1029 1.433 . S
C1031 N1034 1.384 . S
C1032 H1023 0.929 . S
C1032 C1024 1.378 . S
C1032 C1027 1.350 . S
C1033 H1020 0.929 . S
C1033 C1025 1.433 . S
C1033 N1035 1.384 . S
N1034 C1030 1.427 . S
N1034 C1031 1.384 . S
N1035 C1027 1.427 . S
N1035 C1033 1.384 . S
H1036 C1042 0.930 . S
H1037 C1046 0.930 . S
H1038 C1051 0.929 . S
H1039 C1049 0.929 . S
H1040 C1044 0.929 . S
H1041 C1050 0.929 . S
C1042 H1036 0.930 . S
C1042 C1043 1.367 . S
C1042 C1050 1.378 . S
C1043 C1042 1.367 . S
C1043 C1051 1.433 . S
C1044 H1040 0.929 . S
C1044 C1046 1.378 . S
C1044 C1048 1.350 . S
C1045 C1048 1.463 . S
C1045 C1050 1.350 . S
C1045 N1053 1.427 . S
C1046 H1037 0.930 . S
C1046 C1044 1.378 . S
C1046 C1047 1.367 . S
C1047 C1046 1.367 . S
C1047 C1049 1.433 . S
C1048 C1044 1.350 . S
C1048 C1045 1.463 . S
C1048 N1052 1.427 . S
C1049 H1039 0.929 . S
C1049 C1047 1.433 . S
C1049 N1052 1.384 . S
C1050 H1041 0.929 . S
C1050 C1042 1.378 . S
C1050 C1045 1.350 . S
C1051 H1038 0.929 . S
C1051 C1043 1.433 . S
C1051 N1053 1.384 . S
N1052 C1048 1.427 . S
N1052 C1049 1.384 . S
N1053 C1045 1.427 . S
N1053 C1051 1.384 . S
H1054 C1060 0.930 . S
H1055 C1064 0.930 . S
H1056 C1069 0.929 . S
H1057 C1067 0.929 . S
H1058 C1062 0.929 . S
H1059 C1068 0.929 . S
C1060 H1054 0.930 . S
C1060 C1061 1.367 . S
C1060 C1068 1.378 . S
C1061 C1060 1.367 . S
C1061 C1069 1.433 . S
C1062 H1058 0.929 . S
C1062 C1064 1.378 . S
C1062 C1066 1.350 . S
C1063 C1066 1.463 . S
C1063 C1068 1.350 . S
C1063 N1071 1.427 . S
C1064 H1055 0.930 . S
C1064 C1062 1.378 . S
C1064 C1065 1.367 . S
C1065 C1064 1.367 . S
C1065 C1067 1.433 . S
C1066 C1062 1.350 . S
C1066 C1063 1.463 . S
C1066 N1070 1.427 . S
C1067 H1057 0.929 . S
C1067 C1065 1.433 . S
C1067 N1070 1.384 . S
C1068 H1059 0.929 . S
C1068 C1060 1.378 . S
C1068 C1063 1.350 . S
C1069 H1056 0.929 . S
C1069 C1061 1.433 . S
C1069 N1071 1.384 . S
N1070 C1066 1.427 . S
N1070 C1067 1.384 . S
N1071 C1063 1.427 . S
N1071 C1069 1.384 . S
H1072 C1078 0.930 . S
H1073 C1082 0.930 . S
H1074 C1087 0.929 . S
H1075 C1085 0.929 1_554 S
H1076 C1080 0.929 . S
H1077 C1086 0.929 . S
C1078 H1072 0.930 . S
C1078 C1079 1.367 . S
C1078 C1086 1.378 . S
C1079 C1078 1.367 . S
C1079 C1087 1.433 . S
C1080 H1076 0.929 . S
C1080 C1082 1.378 . S
C1080 C1084 1.350 . S
C1081 C1084 1.463 . S
C1081 C1086 1.350 . S
C1081 N1089 1.427 . S
C1082 H1073 0.930 . S
C1082 C1080 1.378 . S
C1082 C1083 1.367 . S
C1083 C1082 1.367 . S
C1083 C1085 1.433 . S
C1084 C1080 1.350 . S
C1084 C1081 1.463 . S
C1084 N1088 1.427 . S
C1085 H1075 0.929 1_556 S
C1085 C1083 1.433 . S
C1085 N1088 1.384 . S
C1086 H1077 0.929 . S
C1086 C1078 1.378 . S
C1086 C1081 1.350 . S
C1087 H1074 0.929 . S
C1087 C1079 1.433 . S
C1087 N1089 1.384 . S
N1088 C1084 1.427 . S
N1088 C1085 1.384 . S
N1089 C1081 1.427 . S
N1089 C1087 1.384 . S
H1090 C1096 0.930 . S
H1091 C1100 0.930 . S
H1092 C1105 0.929 1_556 S
H1093 C1103 0.929 . S
H1094 C1098 0.929 . S
H1095 C1104 0.929 . S
C1096 H1090 0.930 . S
C1096 C1097 1.367 . S
C1096 C1104 1.378 . S
C1097 C1096 1.367 . S
C1097 C1105 1.433 . S
C1098 H1094 0.929 . S
C1098 C1100 1.378 . S
C1098 C1102 1.350 . S
C1099 C1102 1.463 . S
C1099 C1104 1.350 . S
C1099 N1107 1.427 . S
C1100 H1091 0.930 . S
C1100 C1098 1.378 . S
C1100 C1101 1.367 . S
C1101 C1100 1.367 . S
C1101 C1103 1.433 . S
C1102 C1098 1.350 . S
C1102 C1099 1.463 . S
C1102 N1106 1.427 . S
C1103 H1093 0.929 . S
C1103 C1101 1.433 . S
C1103 N1106 1.384 . S
C1104 H1095 0.929 . S
C1104 C1096 1.378 . S
C1104 C1099 1.350 . S
C1105 H1092 0.929 1_554 S
C1105 C1097 1.433 . S
C1105 N1107 1.384 . S
N1106 C1102 1.427 . S
N1106 C1103 1.384 . S
N1107 C1099 1.427 . S
N1107 C1105 1.384 . S
H1108 C1114 0.930 1_554 S
H1109 C1118 0.930 . S
H1110 C1123 0.929 . S
H1111 C1121 0.929 . S
H1112 C1116 0.929 . S
H1113 C1122 0.929 . S
C1114 H1108 0.930 1_556 S
C1114 C1115 1.367 . S
C1114 C1122 1.378 . S
C1115 C1114 1.367 . S
C1115 C1123 1.433 . S
C1116 H1112 0.929 . S
C1116 C1118 1.378 . S
C1116 C1120 1.350 . S
C1117 C1120 1.463 . S
C1117 C1122 1.350 . S
C1117 N1125 1.427 . S
C1118 H1109 0.930 . S
C1118 C1116 1.378 . S
C1118 C1119 1.367 . S
C1119 C1118 1.367 . S
C1119 C1121 1.433 . S
C1120 C1116 1.350 . S
C1120 C1117 1.463 . S
C1120 N1124 1.427 . S
C1121 H1111 0.929 . S
C1121 C1119 1.433 . S
C1121 N1124 1.384 . S
C1122 H1113 0.929 . S
C1122 C1114 1.378 . S
C1122 C1117 1.350 . S
C1123 H1110 0.929 . S
C1123 C1115 1.433 . S
C1123 N1125 1.384 . S
N1124 C1120 1.427 . S
N1124 C1121 1.384 . S
N1125 C1117 1.427 . S
N1125 C1123 1.384 . S
H1126 C1132 0.930 . S
H1127 C1136 0.930 . S
H1128 C1141 0.929 . S
H1129 C1139 0.929 . S
H1130 C1134 0.929 . S
H1131 C1140 0.929 . S
C1132 H1126 0.930 . S
C1132 C1133 1.367 . S
C1132 C1140 1.378 . S
C1133 C1132 1.367 . S
C1133 C1141 1.433 . S
C1134 H1130 0.929 . S
C1134 C1136 1.378 . S
C1134 C1138 1.350 . S
C1135 C1138 1.463 . S
C1135 C1140 1.350 . S
C1135 N1143 1.427 . S
C1136 H1127 0.930 . S
C1136 C1134 1.378 . S
C1136 C1137 1.367 . S
C1137 C1136 1.367 . S
C1137 C1139 1.433 . S
C1138 C1134 1.350 . S
C1138 C1135 1.463 . S
C1138 N1142 1.427 . S
C1139 H1129 0.929 . S
C1139 C1137 1.433 . S
C1139 N1142 1.384 . S
C1140 H1131 0.929 . S
C1140 C1132 1.378 . S
C1140 C1135 1.350 . S
C1141 H1128 0.929 . S
C1141 C1133 1.433 . S
C1141 N1143 1.384 . S
N1142 C1138 1.427 . S
N1142 C1139 1.384 . S
N1143 C1135 1.427 . S
N1143 C1141 1.384 . S
H1144 C1150 0.930 . S
H1145 C1154 0.930 . S
H1146 C1159 0.929 . S
H1147 C1157 0.929 . S
H1148 C1152 0.929 . S
H1149 C1158 0.929 . S
C1150 H1144 0.930 . S
C1150 C1151 1.367 . S
C1150 C1158 1.378 . S
C1151 C1150 1.367 . S
C1151 C1159 1.433 . S
C1152 H1148 0.929 . S
C1152 C1154 1.378 . S
C1152 C1156 1.350 . S
C1153 C1156 1.463 . S
C1153 C1158 1.350 . S
C1153 N1161 1.427 . S
C1154 H1145 0.930 . S
C1154 C1152 1.378 . S
C1154 C1155 1.367 . S
C1155 C1154 1.367 . S
C1155 C1157 1.433 . S
C1156 C1152 1.350 . S
C1156 C1153 1.463 . S
C1156 N1160 1.427 . S
C1157 H1147 0.929 . S
C1157 C1155 1.433 . S
C1157 N1160 1.384 . S
C1158 H1149 0.929 . S
C1158 C1150 1.378 . S
C1158 C1153 1.350 . S
C1159 H1146 0.929 . S
C1159 C1151 1.433 . S
C1159 N1161 1.384 . S
N1160 C1156 1.427 . S
N1160 C1157 1.384 . S
N1161 C1153 1.427 . S
N1161 C1159 1.384 . S
H1162 C1168 0.930 . S
H1163 C1172 0.930 . S
H1164 C1177 0.929 . S
H1165 C1175 0.929 . S
H1166 C1170 0.929 . S
H1167 C1176 0.929 . S
C1168 H1162 0.930 . S
C1168 C1169 1.367 . S
C1168 C1176 1.378 . S
C1169 C1168 1.367 . S
C1169 C1177 1.433 . S
C1170 H1166 0.929 . S
C1170 C1172 1.378 . S
C1170 C1174 1.350 . S
C1171 C1174 1.463 . S
C1171 C1176 1.350 . S
C1171 N1179 1.427 . S
C1172 H1163 0.930 . S
C1172 C1170 1.378 . S
C1172 C1173 1.367 . S
C1173 C1172 1.367 . S
C1173 C1175 1.433 . S
C1174 C1170 1.350 . S
C1174 C1171 1.463 . S
C1174 N1178 1.427 . S
C1175 H1165 0.929 . S
C1175 C1173 1.433 . S
C1175 N1178 1.384 . S
C1176 H1167 0.929 . S
C1176 C1168 1.378 . S
C1176 C1171 1.350 . S
C1177 H1164 0.929 . S
C1177 C1169 1.433 . S
C1177 N1179 1.384 . S
N1178 C1174 1.427 . S
N1178 C1175 1.384 . S
N1179 C1171 1.427 . S
N1179 C1177 1.384 . S
H1180 C1186 0.930 . S
H1181 C1190 0.930 . S
H1182 C1195 0.929 . S
H1183 C1193 0.929 . S
H1184 C1188 0.929 . S
H1185 C1194 0.929 . S
C1186 H1180 0.930 . S
C1186 C1187 1.367 . S
C1186 C1194 1.378 . S
C1187 C1186 1.367 . S
C1187 C1195 1.433 . S
C1188 H1184 0.929 . S
C1188 C1190 1.378 . S
C1188 C1192 1.350 . S
C1189 C1192 1.463 . S
C1189 C1194 1.350 . S
C1189 N1197 1.427 . S
C1190 H1181 0.930 . S
C1190 C1188 1.378 . S
C1190 C1191 1.367 . S
C1191 C1190 1.367 . S
C1191 C1193 1.433 . S
C1192 C1188 1.350 . S
C1192 C1189 1.463 . S
C1192 N1196 1.427 . S
C1193 H1183 0.929 . S
C1193 C1191 1.433 . S
C1193 N1196 1.384 . S
C1194 H1185 0.929 . S
C1194 C1186 1.378 . S
C1194 C1189 1.350 . S
C1195 H1182 0.929 . S
C1195 C1187 1.433 . S
C1195 N1197 1.384 . S
N1196 C1192 1.427 . S
N1196 C1193 1.384 . S
N1197 C1189 1.427 . S
N1197 C1195 1.384 . S
H1198 C1204 0.930 . S
H1199 C1208 0.930 . S
H1200 C1213 0.929 . S
H1201 C1211 0.929 . S
H1202 C1206 0.929 . S
H1203 C1212 0.929 . S
C1204 H1198 0.930 . S
C1204 C1205 1.367 . S
C1204 C1212 1.378 . S
C1205 C1204 1.367 . S
C1205 C1213 1.433 . S
C1206 H1202 0.929 . S
C1206 C1208 1.378 . S
C1206 C1210 1.350 . S
C1207 C1210 1.463 . S
C1207 C1212 1.350 . S
C1207 N1215 1.427 . S
C1208 H1199 0.930 . S
C1208 C1206 1.378 . S
C1208 C1209 1.367 . S
C1209 C1208 1.367 . S
C1209 C1211 1.433 . S
C1210 C1206 1.350 . S
C1210 C1207 1.463 . S
C1210 N1214 1.427 . S
C1211 H1201 0.929 . S
C1211 C1209 1.433 . S
C1211 N1214 1.384 . S
C1212 H1203 0.929 . S
C1212 C1204 1.378 . S
C1212 C1207 1.350 . S
C1213 H1200 0.929 . S
C1213 C1205 1.433 . S
C1213 N1215 1.384 . S
N1214 C1210 1.427 . S
N1214 C1211 1.384 . S
N1215 C1207 1.427 . S
N1215 C1213 1.384 . S
H1216 C1222 0.930 . S
H1217 C1226 0.930 . S
H1218 C1231 0.929 . S
H1219 C1229 0.929 . S
H1220 C1224 0.929 . S
H1221 C1230 0.929 . S
C1222 H1216 0.930 . S
C1222 C1223 1.367 . S
C1222 C1230 1.378 . S
C1223 C1222 1.367 . S
C1223 C1231 1.433 . S
C1224 H1220 0.929 . S
C1224 C1226 1.378 . S
C1224 C1228 1.350 . S
C1225 C1228 1.463 . S
C1225 C1230 1.350 . S
C1225 N1233 1.427 . S
C1226 H1217 0.930 . S
C1226 C1224 1.378 . S
C1226 C1227 1.367 . S
C1227 C1226 1.367 . S
C1227 C1229 1.433 . S
C1228 C1224 1.350 . S
C1228 C1225 1.463 . S
C1228 N1232 1.427 . S
C1229 H1219 0.929 . S
C1229 C1227 1.433 . S
C1229 N1232 1.384 . S
C1230 H1221 0.929 . S
C1230 C1222 1.378 . S
C1230 C1225 1.350 . S
C1231 H1218 0.929 . S
C1231 C1223 1.433 . S
C1231 N1233 1.384 . S
N1232 C1228 1.427 . S
N1232 C1229 1.384 . S
N1233 C1225 1.427 . S
N1233 C1231 1.384 . S
H1234 C1240 0.930 . S
H1235 C1244 0.930 . S
H1236 C1249 0.929 . S
H1237 C1247 0.929 . S
H1238 C1242 0.929 . S
H1239 C1248 0.929 . S
C1240 H1234 0.930 . S
C1240 C1241 1.367 . S
C1240 C1248 1.378 . S
C1241 C1240 1.367 . S
C1241 C1249 1.433 . S
C1242 H1238 0.929 . S
C1242 C1244 1.378 . S
C1242 C1246 1.350 . S
C1243 C1246 1.463 . S
C1243 C1248 1.350 . S
C1243 N1251 1.427 . S
C1244 H1235 0.930 . S
C1244 C1242 1.378 . S
C1244 C1245 1.367 . S
C1245 C1244 1.367 . S
C1245 C1247 1.433 . S
C1246 C1242 1.350 . S
C1246 C1243 1.463 . S
C1246 N1250 1.427 . S
C1247 H1237 0.929 . S
C1247 C1245 1.433 . S
C1247 N1250 1.384 . S
C1248 H1239 0.929 . S
C1248 C1240 1.378 . S
C1248 C1243 1.350 . S
C1249 H1236 0.929 . S
C1249 C1241 1.433 . S
C1249 N1251 1.384 . S
N1250 C1246 1.427 . S
N1250 C1247 1.384 . S
N1251 C1243 1.427 . S
N1251 C1249 1.384 . S
H1252 C1258 0.930 . S
H1253 C1262 0.930 . S
H1254 C1267 0.929 . S
H1255 C1265 0.929 . S
H1256 C1260 0.929 . S
H1257 C1266 0.929 . S
C1258 H1252 0.930 . S
C1258 C1259 1.367 . S
C1258 C1266 1.378 . S
C1259 C1258 1.367 . S
C1259 C1267 1.433 . S
C1260 H1256 0.929 . S
C1260 C1262 1.378 . S
C1260 C1264 1.350 . S
C1261 C1264 1.463 . S
C1261 C1266 1.350 . S
C1261 N1269 1.427 . S
C1262 H1253 0.930 . S
C1262 C1260 1.378 . S
C1262 C1263 1.367 . S
C1263 C1262 1.367 . S
C1263 C1265 1.433 . S
C1264 C1260 1.350 . S
C1264 C1261 1.463 . S
C1264 N1268 1.427 . S
C1265 H1255 0.929 . S
C1265 C1263 1.433 . S
C1265 N1268 1.384 . S
C1266 H1257 0.929 . S
C1266 C1258 1.378 . S
C1266 C1261 1.350 . S
C1267 H1254 0.929 . S
C1267 C1259 1.433 . S
C1267 N1269 1.384 . S
N1268 C1264 1.427 . S
N1268 C1265 1.384 . S
N1269 C1261 1.427 . S
N1269 C1267 1.384 . S
H1270 C1276 0.930 . S
H1271 C1280 0.930 . S
H1272 C1285 0.929 . S
H1273 C1283 0.929 . S
H1274 C1278 0.929 . S
H1275 C1284 0.929 . S
C1276 H1270 0.930 . S
C1276 C1277 1.367 . S
C1276 C1284 1.378 . S
C1277 C1276 1.367 . S
C1277 C1285 1.433 . S
C1278 H1274 0.929 . S
C1278 C1280 1.378 . S
C1278 C1282 1.350 . S
C1279 C1282 1.463 . S
C1279 C1284 1.350 . S
C1279 N1287 1.427 . S
C1280 H1271 0.930 . S
C1280 C1278 1.378 . S
C1280 C1281 1.367 . S
C1281 C1280 1.367 . S
C1281 C1283 1.433 . S
C1282 C1278 1.350 . S
C1282 C1279 1.463 . S
C1282 N1286 1.427 . S
C1283 H1273 0.929 . S
C1283 C1281 1.433 . S
C1283 N1286 1.384 . S
C1284 H1275 0.929 . S
C1284 C1276 1.378 . S
C1284 C1279 1.350 . S
C1285 H1272 0.929 . S
C1285 C1277 1.433 . S
C1285 N1287 1.384 . S
N1286 C1282 1.427 . S
N1286 C1283 1.384 . S
N1287 C1279 1.427 . S
N1287 C1285 1.384 . S
H1288 C1294 0.930 . S
H1289 C1298 0.930 . S
H1290 C1303 0.929 . S
H1291 C1301 0.929 . S
H1292 C1296 0.929 . S
H1293 C1302 0.929 . S
C1294 H1288 0.930 . S
C1294 C1295 1.367 . S
C1294 C1302 1.378 . S
C1295 C1294 1.367 . S
C1295 C1303 1.433 . S
C1296 H1292 0.929 . S
C1296 C1298 1.378 . S
C1296 C1300 1.350 . S
C1297 C1300 1.463 . S
C1297 C1302 1.350 . S
C1297 N1305 1.427 . S
C1298 H1289 0.930 . S
C1298 C1296 1.378 . S
C1298 C1299 1.367 . S
C1299 C1298 1.367 . S
C1299 C1301 1.433 . S
C1300 C1296 1.350 . S
C1300 C1297 1.463 . S
C1300 N1304 1.427 . S
C1301 H1291 0.929 . S
C1301 C1299 1.433 . S
C1301 N1304 1.384 . S
C1302 H1293 0.929 . S
C1302 C1294 1.378 . S
C1302 C1297 1.350 . S
C1303 H1290 0.929 . S
C1303 C1295 1.433 . S
C1303 N1305 1.384 . S
N1304 C1300 1.427 . S
N1304 C1301 1.384 . S
N1305 C1297 1.427 . S
N1305 C1303 1.384 . S
H1306 C1312 0.930 . S
H1307 C1316 0.930 . S
H1308 C1321 0.929 . S
H1309 C1319 0.929 . S
H1310 C1314 0.929 . S
H1311 C1320 0.929 . S
C1312 H1306 0.930 . S
C1312 C1313 1.367 . S
C1312 C1320 1.378 . S
C1313 C1312 1.367 . S
C1313 C1321 1.433 . S
C1314 H1310 0.929 . S
C1314 C1316 1.378 . S
C1314 C1318 1.350 . S
C1315 C1318 1.463 . S
C1315 C1320 1.350 . S
C1315 N1323 1.427 . S
C1316 H1307 0.930 . S
C1316 C1314 1.378 . S
C1316 C1317 1.367 . S
C1317 C1316 1.367 . S
C1317 C1319 1.433 . S
C1318 C1314 1.350 . S
C1318 C1315 1.463 . S
C1318 N1322 1.427 . S
C1319 H1309 0.929 . S
C1319 C1317 1.433 . S
C1319 N1322 1.384 . S
C1320 H1311 0.929 . S
C1320 C1312 1.378 . S
C1320 C1315 1.350 . S
C1321 H1308 0.929 . S
C1321 C1313 1.433 . S
C1321 N1323 1.384 . S
N1322 C1318 1.427 . S
N1322 C1319 1.384 . S
N1323 C1315 1.427 . S
N1323 C1321 1.384 . S
H1324 C1330 0.930 . S
H1325 C1334 0.930 . S
H1326 C1339 0.929 . S
H1327 C1337 0.929 . S
H1328 C1332 0.929 . S
H1329 C1338 0.929 . S
C1330 H1324 0.930 . S
C1330 C1331 1.367 . S
C1330 C1338 1.378 . S
C1331 C1330 1.367 . S
C1331 C1339 1.433 . S
C1332 H1328 0.929 . S
C1332 C1334 1.378 . S
C1332 C1336 1.350 . S
C1333 C1336 1.463 . S
C1333 C1338 1.350 . S
C1333 N1341 1.427 . S
C1334 H1325 0.930 . S
C1334 C1332 1.378 . S
C1334 C1335 1.367 . S
C1335 C1334 1.367 . S
C1335 C1337 1.433 . S
C1336 C1332 1.350 . S
C1336 C1333 1.463 . S
C1336 N1340 1.427 . S
C1337 H1327 0.929 . S
C1337 C1335 1.433 . S
C1337 N1340 1.384 . S
C1338 H1329 0.929 . S
C1338 C1330 1.378 . S
C1338 C1333 1.350 . S
C1339 H1326 0.929 . S
C1339 C1331 1.433 . S
C1339 N1341 1.384 . S
N1340 C1336 1.427 . S
N1340 C1337 1.384 . S
N1341 C1333 1.427 . S
N1341 C1339 1.384 . S
H1342 C1348 0.930 . S
H1343 C1352 0.930 . S
H1344 C1357 0.929 . S
H1345 C1355 0.929 . S
H1346 C1350 0.929 . S
H1347 C1356 0.929 . S
C1348 H1342 0.930 . S
C1348 C1349 1.367 . S
C1348 C1356 1.378 . S
C1349 C1348 1.367 . S
C1349 C1357 1.433 . S
C1350 H1346 0.929 . S
C1350 C1352 1.378 . S
C1350 C1354 1.350 . S
C1351 C1354 1.463 . S
C1351 C1356 1.350 . S
C1351 N1359 1.427 . S
C1352 H1343 0.930 . S
C1352 C1350 1.378 . S
C1352 C1353 1.367 . S
C1353 C1352 1.367 . S
C1353 C1355 1.433 . S
C1354 C1350 1.350 . S
C1354 C1351 1.463 . S
C1354 N1358 1.427 . S
C1355 H1345 0.929 . S
C1355 C1353 1.433 . S
C1355 N1358 1.384 . S
C1356 H1347 0.929 . S
C1356 C1348 1.378 . S
C1356 C1351 1.350 . S
C1357 H1344 0.929 . S
C1357 C1349 1.433 . S
C1357 N1359 1.384 . S
N1358 C1354 1.427 . S
N1358 C1355 1.384 . S
N1359 C1351 1.427 . S
N1359 C1357 1.384 . S
H1360 C1366 0.930 1_556 S
H1361 C1370 0.930 . S
H1362 C1375 0.929 . S
H1363 C1373 0.929 . S
H1364 C1368 0.929 . S
H1365 C1374 0.929 . S
C1366 H1360 0.930 1_554 S
C1366 C1367 1.367 1_554 S
C1366 C1374 1.378 . S
C1367 C1366 1.367 1_556 S
C1367 C1375 1.433 1_556 S
C1368 H1364 0.929 . S
C1368 C1370 1.378 . S
C1368 C1372 1.350 . S
C1369 C1372 1.463 . S
C1369 C1374 1.350 . S
C1369 N1377 1.427 . S
C1370 H1361 0.930 . S
C1370 C1368 1.378 . S
C1370 C1371 1.367 . S
C1371 C1370 1.367 . S
C1371 C1373 1.433 . S
C1372 C1368 1.350 . S
C1372 C1369 1.463 . S
C1372 N1376 1.427 . S
C1373 H1363 0.929 . S
C1373 C1371 1.433 . S
C1373 N1376 1.384 . S
C1374 H1365 0.929 . S
C1374 C1366 1.378 . S
C1374 C1369 1.350 . S
C1375 H1362 0.929 . S
C1375 C1367 1.433 1_554 S
C1375 N1377 1.384 . S
N1376 C1372 1.427 . S
N1376 C1373 1.384 . S
N1377 C1369 1.427 . S
N1377 C1375 1.384 . S
H1378 C1384 0.930 . S
H1379 C1388 0.930 . S
H1380 C1393 0.929 . S
H1381 C1391 0.929 . S
H1382 C1386 0.929 . S
H1383 C1392 0.929 . S
C1384 H1378 0.930 . S
C1384 C1385 1.367 . S
C1384 C1392 1.378 . S
C1385 C1384 1.367 . S
C1385 C1393 1.433 . S
C1386 H1382 0.929 . S
C1386 C1388 1.378 . S
C1386 C1390 1.350 . S
C1387 C1390 1.463 . S
C1387 C1392 1.350 . S
C1387 N1395 1.427 . S
C1388 H1379 0.930 . S
C1388 C1386 1.378 . S
C1388 C1389 1.367 1_556 S
C1389 C1388 1.367 1_554 S
C1389 C1391 1.433 1_554 S
C1390 C1386 1.350 . S
C1390 C1387 1.463 . S
C1390 N1394 1.427 . S
C1391 H1381 0.929 . S
C1391 C1389 1.433 1_556 S
C1391 N1394 1.384 . S
C1392 H1383 0.929 . S
C1392 C1384 1.378 . S
C1392 C1387 1.350 . S
C1393 H1380 0.929 . S
C1393 C1385 1.433 . S
C1393 N1395 1.384 . S
N1394 C1390 1.427 . S
N1394 C1391 1.384 . S
N1395 C1387 1.427 . S
N1395 C1393 1.384 . S
H1396 C1402 0.930 . S
H1397 C1406 0.930 . S
H1398 C1411 0.929 . S
H1399 C1409 0.929 . S
H1400 C1404 0.929 . S
H1401 C1410 0.929 . S
C1402 H1396 0.930 . S
C1402 C1403 1.367 . S
C1402 C1410 1.378 . S
C1403 C1402 1.367 . S
C1403 C1411 1.433 . S
C1404 H1400 0.929 . S
C1404 C1406 1.378 . S
C1404 C1408 1.350 . S
C1405 C1408 1.463 . S
C1405 C1410 1.350 . S
C1405 N1413 1.427 . S
C1406 H1397 0.930 . S
C1406 C1404 1.378 . S
C1406 C1407 1.367 1_554 S
C1407 C1406 1.367 1_556 S
C1407 C1409 1.433 1_556 S
C1408 C1404 1.350 . S
C1408 C1405 1.463 . S
C1408 N1412 1.427 . S
C1409 H1399 0.929 . S
C1409 C1407 1.433 1_554 S
C1409 N1412 1.384 . S
C1410 H1401 0.929 . S
C1410 C1402 1.378 . S
C1410 C1405 1.350 . S
C1411 H1398 0.929 . S
C1411 C1403 1.433 . S
C1411 N1413 1.384 . S
N1412 C1408 1.427 . S
N1412 C1409 1.384 . S
N1413 C1405 1.427 . S
N1413 C1411 1.384 . S
H1414 C1420 0.930 . S
H1415 C1424 0.930 . S
H1416 C1429 0.929 . S
H1417 C1427 0.929 . S
H1418 C1422 0.929 . S
H1419 C1428 0.929 . S
C1420 H1414 0.930 . S
C1420 C1421 1.367 1_556 S
C1420 C1428 1.378 . S
C1421 C1420 1.367 1_554 S
C1421 C1429 1.433 1_554 S
C1422 H1418 0.929 . S
C1422 C1424 1.378 . S
C1422 C1426 1.350 . S
C1423 C1426 1.463 . S
C1423 C1428 1.350 . S
C1423 N1431 1.427 . S
C1424 H1415 0.930 . S
C1424 C1422 1.378 . S
C1424 C1425 1.367 . S
C1425 C1424 1.367 . S
C1425 C1427 1.433 . S
C1426 C1422 1.350 . S
C1426 C1423 1.463 . S
C1426 N1430 1.427 . S
C1427 H1417 0.929 . S
C1427 C1425 1.433 . S
C1427 N1430 1.384 . S
C1428 H1419 0.929 . S
C1428 C1420 1.378 . S
C1428 C1423 1.350 . S
C1429 H1416 0.929 . S
C1429 C1421 1.433 1_556 S
C1429 N1431 1.384 . S
N1430 C1426 1.427 . S
N1430 C1427 1.384 . S
N1431 C1423 1.427 . S
N1431 C1429 1.384 . S
H1432 C1438 0.930 . S
H1433 C1442 0.930 . S
H1434 C1447 0.929 . S
H1435 C1445 0.929 1_556 S
H1436 C1440 0.929 . S
H1437 C1446 0.929 . S
C1438 H1432 0.930 . S
C1438 C1439 1.367 . S
C1438 C1446 1.378 . S
C1439 C1438 1.367 . S
C1439 C1447 1.433 . S
C1440 H1436 0.929 . S
C1440 C1442 1.378 . S
C1440 C1444 1.350 . S
C1441 C1444 1.463 . S
C1441 C1446 1.350 . S
C1441 N1449 1.427 . S
C1442 H1433 0.930 . S
C1442 C1440 1.378 . S
C1442 C1443 1.367 1_554 S
C1443 C1442 1.367 1_556 S
C1443 C1445 1.433 1_556 S
C1444 C1440 1.350 . S
C1444 C1441 1.463 . S
C1444 N1448 1.427 . S
C1445 H1435 0.929 1_554 S
C1445 C1443 1.433 1_554 S
C1445 N1448 1.384 . S
C1446 H1437 0.929 . S
C1446 C1438 1.378 . S
C1446 C1441 1.350 . S
C1447 H1434 0.929 . S
C1447 C1439 1.433 . S
C1447 N1449 1.384 . S
N1448 C1444 1.427 . S
N1448 C1445 1.384 . S
N1449 C1441 1.427 . S
N1449 C1447 1.384 . S
H1450 C1456 0.930 1_554 S
H1451 C1460 0.930 . S
H1452 C1465 0.940 . S
H1453 C1463 0.929 . S
H1454 C1458 0.929 . S
H1455 C1464 0.929 . S
C1456 H1450 0.930 1_556 S
C1456 C1457 1.367 1_556 S
C1456 C1464 1.378 . S
C1457 C1456 1.367 1_554 S
C1457 C1465 1.433 1_554 S
C1458 H1454 0.929 . S
C1458 C1460 1.378 . S
C1458 C1462 1.350 . S
C1459 C1462 1.463 . S
C1459 C1464 1.350 . S
C1459 N1467 1.427 . S
C1460 H1451 0.930 . S
C1460 C1458 1.378 . S
C1460 C1461 1.367 . S
C1461 C1460 1.367 . S
C1461 C1463 1.433 . S
C1462 C1458 1.350 . S
C1462 C1459 1.463 . S
C1462 N1466 1.427 . S
C1463 H1453 0.929 . S
C1463 C1461 1.433 . S
C1463 N1466 1.384 . S
C1464 H1455 0.929 . S
C1464 C1456 1.378 . S
C1464 C1459 1.350 . S
C1465 H1452 0.940 . S
C1465 C1457 1.433 1_556 S
C1465 N1467 1.384 . S
N1466 C1462 1.427 . S
N1466 C1463 1.384 . S
N1467 C1459 1.427 . S
N1467 C1465 1.384 . S
H1468 C1474 0.930 1_556 S
H1469 C1478 0.930 . S
H1470 C1483 0.929 1_556 S
H1471 C1481 0.929 . S
H1472 C1476 0.929 . S
H1473 C1482 0.929 . S
C1474 H1468 0.930 1_554 S
C1474 C1475 1.367 1_554 S
C1474 C1482 1.378 . S
C1475 C1474 1.367 1_556 S
C1475 C1483 1.433 1_556 S
C1476 H1472 0.929 . S
C1476 C1478 1.378 . S
C1476 C1480 1.350 . S
C1477 C1480 1.463 . S
C1477 C1482 1.350 . S
C1477 N1485 1.427 . S
C1478 H1469 0.930 . S
C1478 C1476 1.378 . S
C1478 C1479 1.367 . S
C1479 C1478 1.367 . S
C1479 C1481 1.433 . S
C1480 C1476 1.350 . S
C1480 C1477 1.463 . S
C1480 N1484 1.427 . S
C1481 H1471 0.929 . S
C1481 C1479 1.433 . S
C1481 N1484 1.384 . S
C1482 H1473 0.929 . S
C1482 C1474 1.378 . S
C1482 C1477 1.350 . S
C1483 H1470 0.929 1_554 S
C1483 C1475 1.433 1_554 S
C1483 N1485 1.384 . S
N1484 C1480 1.427 . S
N1484 C1481 1.384 . S
N1485 C1477 1.427 . S
N1485 C1483 1.384 . S
H1486 C1492 0.930 . S
H1487 C1496 0.930 . S
H1488 C1501 0.929 . S
H1489 C1499 0.929 1_554 S
H1490 C1494 0.929 . S
H1491 C1500 0.929 . S
C1492 H1486 0.930 . S
C1492 C1493 1.367 . S
C1492 C1500 1.378 . S
C1493 C1492 1.367 . S
C1493 C1501 1.433 . S
C1494 H1490 0.929 . S
C1494 C1496 1.378 . S
C1494 C1498 1.350 . S
C1495 C1498 1.463 . S
C1495 C1500 1.350 . S
C1495 N1503 1.427 . S
C1496 H1487 0.930 . S
C1496 C1494 1.378 . S
C1496 C1497 1.367 1_556 S
C1497 C1496 1.367 1_554 S
C1497 C1499 1.433 1_554 S
C1498 C1494 1.350 . S
C1498 C1495 1.463 . S
C1498 N1502 1.427 . S
C1499 H1489 0.929 1_556 S
C1499 C1497 1.433 1_556 S
C1499 N1502 1.384 . S
C1500 H1491 0.929 . S
C1500 C1492 1.378 . S
C1500 C1495 1.350 . S
C1501 H1488 0.929 . S
C1501 C1493 1.433 . S
C1501 N1503 1.384 . S
N1502 C1498 1.427 . S
N1502 C1499 1.384 . S
N1503 C1495 1.427 . S
N1503 C1501 1.384 . S
C647 C452 1.744 . S
C651 C2 1.725 . S
C665 C351 1.743 . S
C669 C57 1.723 . S
C683 C82 1.721 . S
C687 C372 1.744 . S
C701 C137 1.723 . S
C705 C431 1.743 . S
C719 C162 1.721 . S
C723 C212 1.744 . S
C737 C271 1.743 . S
C741 C217 1.722 . S
C755 C242 1.722 . S
C759 C292 1.743 . S
C773 C191 1.744 . S
C777 C297 1.721 . S
C791 C132 1.747 . S
C795 C322 1.721 . S
C809 C377 1.729 . S
C813 C31 1.747 . S
C827 C52 1.748 . S
C831 C402 1.729 . S
C845 C111 1.745 . S
C849 C457 1.720 . S
C863 C482 1.726 . S
C867 C532 1.749 . S
C881 C591 1.749 . S
C885 C537 1.725 . S
C899 C612 1.745 . S
C903 C562 1.728 . S
C917 C617 1.721 . S
C921 C511 1.744 . S
C935 C17 1.215 . S
C939 C177 1.220 . S
C953 C202 1.221 . S
C957 C42 1.217 . S
C971 C97 1.214 . S
C975 C257 1.207 . S
C989 C122 1.201 . S
C993 C282 1.202 . S
C1007 C337 1.201 . S
C1011 C497 1.203 . S
C1025 C522 1.220 . S
C1029 C362 1.215 . S
C1043 C417 1.216 . S
C1047 C577 1.221 . S
C1061 C442 1.208 . S
C1065 C602 1.203 . S
C1079 C572 2.276 . S
C1083 C12 2.277 1_556 S
C1097 C71 2.276 1_554 S
C1101 C631 2.277 . S
C1115 C92 2.284 1_556 S
C1119 C492 2.282 . S
C1133 C151 2.280 1_554 S
C1137 C551 2.282 . S
C1151 C172 2.284 . S
C1155 C412 2.282 . S
C1169 C231 2.281 . S
C1173 C471 2.279 . S
C1187 C252 2.283 . S
C1191 C332 2.280 . S
C1205 C391 2.284 . S
C1209 C311 2.283 . S
C1223 C8 1.034 . S
C1227 C29 1.034 . S
C1241 C69 1.037 . S
C1245 C48 1.037 . S
C1259 C88 1.037 . S
C1263 C109 1.037 . S
C1277 C128 1.034 . S
C1281 C149 1.034 . S
C1295 C189 1.035 . S
C1299 C168 1.035 . S
C1313 C229 1.034 . S
C1317 C208 1.034 . S
C1331 C248 1.037 . S
C1335 C269 1.037 . S
C1349 C288 1.034 . S
C1353 C309 1.034 . S
C1367 C328 1.037 . S
C1371 C349 1.037 . S
C1385 C368 1.034 . S
C1389 C389 1.034 . S
C1403 C429 1.035 . S
C1407 C408 1.035 . S
C1421 C469 1.037 . S
C1425 C448 1.037 . S
C1439 C488 1.035 . S
C1443 C509 1.035 . S
C1457 C528 1.038 . S
C1461 C549 1.038 . S
C1475 C589 1.037 . S
C1479 C568 1.037 . S
C1493 C629 1.034 . S
C1497 C608 1.034 . S
