# Generated by pormake.
# Topology umo, (4)-cn, num edge types: 1
# Building blocks:
#     Node 0, Type 0, BuildingBlock: NAWXER_clean_sbu_0, # of connection points: 4
#     Node 1, Type 0, BuildingBlock: NAWXER_clean_sbu_0, # of connection points: 4
#     Node 2, Type 0, BuildingBlock: NAWXER_clean_sbu_0, # of connection points: 4
#     Node 3, Type 0, BuildingBlock: NAWXER_clean_sbu_0, # of connection points: 4
#     Node 4, Type 0, BuildingBlock: NAWXER_clean_sbu_0, # of connection points: 4
#     Node 5, Type 0, BuildingBlock: NAWXER_clean_sbu_0, # of connection points: 4
#     Node 6, Type 0, BuildingBlock: NAWXER_clean_sbu_0, # of connection points: 4
#     Node 7, Type 0, BuildingBlock: NAWXER_clean_sbu_0, # of connection points: 4
#     Node 8, Type 0, BuildingBlock: NAWXER_clean_sbu_0, # of connection points: 4
#     Node 9, Type 0, BuildingBlock: NAWXER_clean_sbu_0, # of connection points: 4
#     Node 10, Type 0, BuildingBlock: NAWXER_clean_sbu_0, # of connection points: 4
#     Node 11, Type 0, BuildingBlock: NAWXER_clean_sbu_0, # of connection points: 4
#     Edge 12, Type (0, 0), BuildingBlock: TEMPAE_clean_linker_10, # of connection points: 2
#     Edge 13, Type (0, 0), BuildingBlock: TEMPAE_clean_linker_10, # of connection points: 2
#     Edge 14, Type (0, 0), BuildingBlock: TEMPAE_clean_linker_10, # of connection points: 2
#     Edge 15, Type (0, 0), BuildingBlock: TEMPAE_clean_linker_10, # of connection points: 2
#     Edge 16, Type (0, 0), BuildingBlock: TEMPAE_clean_linker_10, # of connection points: 2
#     Edge 17, Type (0, 0), BuildingBlock: TEMPAE_clean_linker_10, # of connection points: 2
#     Edge 18, Type (0, 0), BuildingBlock: TEMPAE_clean_linker_10, # of connection points: 2
#     Edge 19, Type (0, 0), BuildingBlock: TEMPAE_clean_linker_10, # of connection points: 2
#     Edge 20, Type (0, 0), BuildingBlock: TEMPAE_clean_linker_10, # of connection points: 2
#     Edge 21, Type (0, 0), BuildingBlock: TEMPAE_clean_linker_10, # of connection points: 2
#     Edge 22, Type (0, 0), BuildingBlock: TEMPAE_clean_linker_10, # of connection points: 2
#     Edge 23, Type (0, 0), BuildingBlock: TEMPAE_clean_linker_10, # of connection points: 2
#     Edge 24, Type (0, 0), BuildingBlock: TEMPAE_clean_linker_10, # of connection points: 2
#     Edge 25, Type (0, 0), BuildingBlock: TEMPAE_clean_linker_10, # of connection points: 2
#     Edge 26, Type (0, 0), BuildingBlock: TEMPAE_clean_linker_10, # of connection points: 2
#     Edge 27, Type (0, 0), BuildingBlock: TEMPAE_clean_linker_10, # of connection points: 2
#     Edge 28, Type (0, 0), BuildingBlock: TEMPAE_clean_linker_10, # of connection points: 2
#     Edge 29, Type (0, 0), BuildingBlock: TEMPAE_clean_linker_10, # of connection points: 2
#     Edge 30, Type (0, 0), BuildingBlock: TEMPAE_clean_linker_10, # of connection points: 2
#     Edge 31, Type (0, 0), BuildingBlock: TEMPAE_clean_linker_10, # of connection points: 2
#     Edge 32, Type (0, 0), BuildingBlock: TEMPAE_clean_linker_10, # of connection points: 2
#     Edge 33, Type (0, 0), BuildingBlock: TEMPAE_clean_linker_10, # of connection points: 2
#     Edge 34, Type (0, 0), BuildingBlock: TEMPAE_clean_linker_10, # of connection points: 2
#     Edge 35, Type (0, 0), BuildingBlock: TEMPAE_clean_linker_10, # of connection points: 2
# Relax obj value: 0.169
# Max RMSD: 0.217
# Mean RMSD: 0.217
data_MOF--net-umo--node1-NAWXER_clean_sbu_0--edge1-TEMPAE_clean_linker_10
_symmetry_space_group_name_H-M    P1
_symmetry_Int_Tables_number       1
_symmetry_cell_setting            triclinic
loop_
_symmetry_equiv_pos_as_xyz
'x, y, z'
_cell_length_a     50.283819
_cell_length_b     50.346546
_cell_length_c     37.474201
_cell_angle_alpha  90.013068
_cell_angle_beta   89.98696
_cell_angle_gamma 120.00016
loop_
_atom_site_label
_atom_site_type_symbol
_atom_site_fract_x
_atom_site_fract_y
_atom_site_fract_z
_atom_type_partial_charge
C0 C 0.19763 0.58149 0.40605 0.0
C1 C 0.09441 0.50071 0.38161 0.0
O2 O 0.19245 0.5558 0.4192 0.0
Zn3 Zn 0.1547 0.50921 0.42139 0.0
O4 O 0.17668 0.58295 0.38878 0.0
Zn5 Zn 0.14624 0.54091 0.39409 0.0
O6 O 0.13726 0.53782 0.45053 0.0
O7 O 0.14857 0.50402 0.47261 0.0
O8 O 0.10783 0.52873 0.37262 0.0
O9 O 0.10887 0.49047 0.40009 0.0
O10 O 0.17107 0.48686 0.39553 0.0
O11 O 0.16463 0.51897 0.36174 0.0
C12 C 0.13957 0.5233 0.47738 0.0
C13 C 0.17317 0.49902 0.36516 0.0
C14 C 0.5873 0.09743 0.55092 0.0
C15 C 0.60514 0.19877 0.57666 0.0
O16 O 0.61165 0.11232 0.56989 0.0
Zn17 Zn 0.63688 0.15795 0.59215 0.0
O18 O 0.5718 0.10998 0.54218 0.0
Zn19 Zn 0.59656 0.14832 0.56431 0.0
O20 O 0.63738 0.16846 0.5327 0.0
O21 O 0.67611 0.17601 0.56698 0.0
O22 O 0.58338 0.17753 0.55894 0.0
O23 O 0.62619 0.19447 0.59004 0.0
O24 O 0.63548 0.15147 0.64336 0.0
O25 O 0.59025 0.13903 0.62061 0.0
C26 C 0.66608 0.17801 0.53653 0.0
C27 C 0.60699 0.14177 0.64772 0.0
C28 C 0.47676 0.66887 0.70043 0.0
C29 C 0.45217 0.60945 0.8115 0.0
O30 O 0.45725 0.64032 0.69647 0.0
Zn31 Zn 0.43558 0.59954 0.72796 0.0
O32 O 0.4885 0.67873 0.73104 0.0
Zn33 Zn 0.46652 0.63957 0.75612 0.0
O34 O 0.48638 0.61371 0.7342 0.0
O35 O 0.44873 0.57431 0.70609 0.0
O36 O 0.47121 0.63787 0.80738 0.0
O37 O 0.43816 0.59296 0.78425 0.0
O38 O 0.39337 0.5872 0.72216 0.0
O39 O 0.41957 0.62975 0.75352 0.0
C40 C 0.47673 0.58936 0.71522 0.0
C41 C 0.39416 0.60908 0.73987 0.0
C42 C 0.7717 0.39756 0.90942 0.0
C43 C 0.87451 0.47891 0.88439 0.0
O44 O 0.77658 0.42326 0.92226 0.0
Zn45 Zn 0.81402 0.47005 0.92405 0.0
O46 O 0.7928 0.39625 0.8923 0.0
Zn47 Zn 0.8229 0.43842 0.89729 0.0
O48 O 0.83176 0.44194 0.95375 0.0
O49 O 0.82004 0.47562 0.97526 0.0
O50 O 0.86135 0.45078 0.87591 0.0
O51 O 0.8599 0.48911 0.90265 0.0
O52 O 0.79724 0.49183 0.89778 0.0
O53 O 0.80415 0.45974 0.8645 0.0
C54 C 0.82921 0.45652 0.98037 0.0
C55 C 0.79531 0.47948 0.86756 0.0
C56 C 0.38464 0.87791 0.04852 0.0
C57 C 0.36601 0.77621 0.07371 0.0
O58 O 0.36034 0.86311 0.0676 0.0
Zn59 Zn 0.33486 0.81747 0.08969 0.0
O60 O 0.39989 0.86519 0.03939 0.0
Zn61 Zn 0.37498 0.82684 0.06151 0.0
O62 O 0.33402 0.80702 0.03014 0.0
O63 O 0.29556 0.79974 0.06477 0.0
O64 O 0.38781 0.79735 0.05592 0.0
O65 O 0.34517 0.78073 0.08729 0.0
O66 O 0.33651 0.82397 0.1409 0.0
O67 O 0.38158 0.83619 0.11781 0.0
C68 C 0.30538 0.79768 0.0342 0.0
C69 C 0.36501 0.83359 0.14505 0.0
C70 C 0.48894 0.30402 0.20294 0.0
C71 C 0.51221 0.3629 0.31436 0.0
O72 O 0.50833 0.33263 0.19928 0.0
Zn73 Zn 0.52945 0.37326 0.23103 0.0
O74 O 0.47689 0.29394 0.23338 0.0
Zn75 Zn 0.49839 0.33303 0.25876 0.0
O76 O 0.47845 0.3587 0.23646 0.0
O77 O 0.5163 0.3984 0.20898 0.0
O78 O 0.49324 0.33448 0.31 0.0
O79 O 0.52638 0.37954 0.28727 0.0
O80 O 0.57175 0.38588 0.22575 0.0
O81 O 0.54548 0.34316 0.25678 0.0
C82 C 0.48819 0.38311 0.21758 0.0
C83 C 0.57096 0.364 0.24346 0.0
C84 C 0.47768 0.79726 0.49587 0.0
C85 C 0.45487 0.83352 0.38471 0.0
O86 O 0.45825 0.80645 0.49963 0.0
Zn87 Zn 0.43728 0.82621 0.46798 0.0
O88 O 0.48984 0.79943 0.46545 0.0
Zn89 Zn 0.46837 0.81712 0.44022 0.0
O90 O 0.48825 0.86264 0.46276 0.0
O91 O 0.45035 0.86435 0.49036 0.0
O92 O 0.47377 0.82396 0.38909 0.0
O93 O 0.44058 0.83589 0.41176 0.0
O94 O 0.39496 0.79664 0.47305 0.0
O95 O 0.42123 0.7802 0.4419 0.0
C96 C 0.47846 0.87721 0.48177 0.0
C97 C 0.39574 0.7756 0.45521 0.0
C98 C 0.60537 0.45321 0.55273 0.0
C99 C 0.6662 0.47721 0.66273 0.0
O100 O 0.58912 0.43941 0.58022 0.0
Zn101 Zn 0.59635 0.43683 0.63635 0.0
O102 O 0.63394 0.47199 0.55641 0.0
Zn103 Zn 0.6362 0.46736 0.6076 0.0
O104 O 0.62578 0.42027 0.60999 0.0
O105 O 0.58349 0.39455 0.64201 0.0
O106 O 0.67577 0.48895 0.63205 0.0
O107 O 0.6376 0.458 0.66711 0.0
O108 O 0.57177 0.45045 0.65894 0.0
O109 O 0.61103 0.48771 0.63018 0.0
C110 C 0.60503 0.39502 0.62383 0.0
C111 C 0.58696 0.47837 0.64966 0.0
C112 C 0.17583 0.66849 0.83074 0.0
C113 C 0.13966 0.6101 0.71919 0.0
O114 O 0.16677 0.63991 0.83433 0.0
Zn115 Zn 0.147 0.59933 0.80235 0.0
O116 O 0.17344 0.67849 0.80045 0.0
Zn117 Zn 0.15586 0.63953 0.77498 0.0
O118 O 0.11029 0.61351 0.79736 0.0
O119 O 0.10881 0.57396 0.82469 0.0
O120 O 0.14907 0.63846 0.72392 0.0
O121 O 0.13734 0.59327 0.74603 0.0
O122 O 0.17676 0.58675 0.80703 0.0
O123 O 0.19296 0.62957 0.77627 0.0
C124 C 0.09577 0.58904 0.81619 0.0
C125 C 0.19772 0.60872 0.78927 0.0
C126 C 0.49345 0.09931 0.9834 0.0
C127 C 0.57507 0.2019 0.95845 0.0
O128 O 0.48351 0.1137 0.96432 0.0
Zn129 Zn 0.50279 0.15932 0.94232 0.0
O130 O 0.52145 0.11259 0.9926 0.0
Zn131 Zn 0.53409 0.15079 0.97056 0.0
O132 O 0.51198 0.1695 1.00196 0.0
O133 O 0.48034 0.17607 0.96737 0.0
O134 O 0.57616 0.18101 0.97625 0.0
O135 O 0.54955 0.19683 0.94477 0.0
O136 O 0.49808 0.15274 0.89109 0.0
O137 O 0.53149 0.14138 0.91432 0.0
C138 C 0.49217 0.17817 0.99798 0.0
C139 C 0.51731 0.14356 0.88704 0.0
C140 C 0.37914 0.49406 0.14784 0.0
C141 C 0.36299 0.57843 0.12092 0.0
O142 O 0.35502 0.48487 0.12851 0.0
Zn143 Zn 0.33046 0.5058 0.10566 0.0
O144 O 0.39483 0.52208 0.15659 0.0
Zn145 Zn 0.37067 0.53609 0.13387 0.0
O146 O 0.32959 0.51595 0.16501 0.0
O147 O 0.291 0.4851 0.13038 0.0
O148 O 0.38439 0.57857 0.13906 0.0
O149 O 0.34181 0.55324 0.10742 0.0
O150 O 0.33219 0.50054 0.05454 0.0
O151 O 0.37738 0.5329 0.07769 0.0
C152 C 0.30086 0.49709 0.16088 0.0
C153 C 0.36078 0.51901 0.05045 0.0
C154 C 0.79316 0.30883 0.33296 0.0
C155 C 0.82729 0.36819 0.22181 0.0
O156 O 0.80158 0.33724 0.33689 0.0
Zn157 Zn 0.82006 0.37796 0.30532 0.0
O158 O 0.79549 0.29918 0.30241 0.0
Zn159 Zn 0.81191 0.33822 0.27726 0.0
O160 O 0.85757 0.36507 0.29905 0.0
O161 O 0.85832 0.40394 0.32725 0.0
O162 O 0.81843 0.3399 0.22606 0.0
O163 O 0.82934 0.3846 0.24898 0.0
O164 O 0.78949 0.38938 0.31088 0.0
O165 O 0.77407 0.34695 0.2796 0.0
C166 C 0.87186 0.3895 0.31799 0.0
C167 C 0.76871 0.36723 0.29315 0.0
C168 C 0.23525 0.63649 0.39369 0.0
C169 C 0.22752 0.60935 0.4121 0.0
C170 C 0.26316 0.66336 0.40021 0.0
C171 C 0.28355 0.66303 0.42597 0.0
C172 C 0.27603 0.63565 0.4444 0.0
C173 C 0.24812 0.60905 0.43711 0.0
C174 C 0.27069 0.69217 0.37981 0.0
C175 C 0.29722 0.63461 0.47223 0.0
C176 C 0.36677 0.72594 0.42279 0.0
C177 C 0.36731 0.74633 0.44867 0.0
C178 C 0.33961 0.69864 0.41515 0.0
C179 C 0.31254 0.69152 0.43412 0.0
C180 C 0.31303 0.71173 0.46067 0.0
C181 C 0.34043 0.73903 0.46752 0.0
C182 C 0.33978 0.67763 0.38646 0.0
C183 C 0.28456 0.70462 0.48165 0.0
H184 H 0.21946 0.63678 0.37421 0.0
H185 H 0.2422 0.58815 0.45154 0.0
H186 H 0.27313 0.71028 0.39862 0.0
H187 H 0.29298 0.70101 0.36579 0.0
H188 H 0.25276 0.6883 0.35986 0.0
H189 H 0.28813 0.61132 0.48377 0.0
H190 H 0.32009 0.64197 0.46039 0.0
H191 H 0.30065 0.65083 0.49417 0.0
H192 H 0.38746 0.73156 0.408 0.0
H193 H 0.34078 0.75467 0.48766 0.0
H194 H 0.32336 0.67485 0.36502 0.0
H195 H 0.33211 0.65453 0.39771 0.0
H196 H 0.36287 0.68644 0.3744 0.0
H197 H 0.2664 0.70279 0.4633 0.0
H198 H 0.28903 0.72243 0.502 0.0
H199 H 0.27542 0.68216 0.4953 0.0
C200 C 0.58587 0.23488 0.56432 0.0
C201 C 0.60585 0.228 0.5829 0.0
C202 C 0.58589 0.2623 0.57073 0.0
C203 C 0.60619 0.28303 0.59654 0.0
C204 C 0.62646 0.27626 0.61531 0.0
C205 C 0.62615 0.24884 0.60814 0.0
C206 C 0.56417 0.26903 0.55001 0.0
C207 C 0.64826 0.29784 0.6432 0.0
C208 C 0.62569 0.36584 0.59186 0.0
C209 C 0.6058 0.36653 0.61759 0.0
C210 C 0.62602 0.33873 0.58468 0.0
C211 C 0.60618 0.31185 0.60396 0.0
C212 C 0.58631 0.31245 0.63026 0.0
C213 C 0.58625 0.33982 0.63667 0.0
C214 C 0.64736 0.33878 0.55626 0.0
C215 C 0.56507 0.28418 0.65153 0.0
H216 H 0.57021 0.21888 0.5447 0.0
H217 H 0.64154 0.24354 0.62272 0.0
H218 H 0.54843 0.27158 0.56862 0.0
H219 H 0.57731 0.29105 0.53544 0.0
H220 H 0.55019 0.25069 0.53047 0.0
H221 H 0.66252 0.2891 0.65544 0.0
H222 H 0.66374 0.32058 0.63111 0.0
H223 H 0.63512 0.3014 0.66463 0.0
H224 H 0.64074 0.38639 0.57689 0.0
H225 H 0.57091 0.34029 0.65667 0.0
H226 H 0.63388 0.32189 0.53516 0.0
H227 H 0.66313 0.3317 0.56795 0.0
H228 H 0.66131 0.36166 0.54367 0.0
H229 H 0.54904 0.2657 0.63332 0.0
H230 H 0.55139 0.28866 0.67142 0.0
H231 H 0.57855 0.2755 0.66576 0.0
C232 C 0.23461 0.59027 0.80099 0.0
C233 C 0.22713 0.60985 0.78252 0.0
C234 C 0.26214 0.59061 0.79407 0.0
C235 C 0.28239 0.61079 0.76783 0.0
C236 C 0.27504 0.63068 0.74918 0.0
C237 C 0.24751 0.63008 0.75689 0.0
C238 C 0.2695 0.56931 0.81469 0.0
C239 C 0.29608 0.65233 0.72084 0.0
C240 C 0.36543 0.63052 0.77135 0.0
C241 C 0.36583 0.61027 0.74594 0.0
C242 C 0.3384 0.63103 0.77865 0.0
C243 C 0.31128 0.611 0.75982 0.0
C244 C 0.31162 0.59089 0.7337 0.0
C245 C 0.33893 0.59066 0.72717 0.0
C246 C 0.33873 0.65262 0.80687 0.0
C247 C 0.2831 0.56945 0.7129 0.0
H248 H 0.21897 0.57468 0.82092 0.0
H249 H 0.24175 0.64515 0.74239 0.0
H250 H 0.27191 0.5535 0.79606 0.0
H251 H 0.29177 0.58273 0.82874 0.0
H252 H 0.25153 0.55542 0.83466 0.0
H253 H 0.28695 0.66633 0.70882 0.0
H254 H 0.31901 0.66802 0.73242 0.0
H255 H 0.29942 0.63914 0.69931 0.0
H256 H 0.38614 0.64565 0.78606 0.0
H257 H 0.33917 0.57506 0.7074 0.0
H258 H 0.32234 0.63933 0.82848 0.0
H259 H 0.33112 0.66798 0.79524 0.0
H260 H 0.36186 0.66696 0.8188 0.0
H261 H 0.26495 0.55336 0.7314 0.0
H262 H 0.28748 0.55586 0.69279 0.0
H263 H 0.274 0.5827 0.69899 0.0
C264 C 0.72136 0.36966 0.94079 0.0
C265 C 0.742 0.36953 0.9157 0.0
C266 C 0.69364 0.3429 0.94827 0.0
C267 C 0.68636 0.31553 0.92995 0.0
C268 C 0.70681 0.31535 0.90414 0.0
C269 C 0.73452 0.34238 0.89743 0.0
C270 C 0.6724 0.34377 0.97616 0.0
C271 C 0.69953 0.28656 0.88386 0.0
C272 C 0.6301 0.23919 0.97131 0.0
C273 C 0.60321 0.23153 0.9523 0.0
C274 C 0.65729 0.26677 0.96467 0.0
C275 C 0.65753 0.28689 0.93817 0.0
C276 C 0.63041 0.27945 0.91913 0.0
C277 C 0.60348 0.25187 0.92656 0.0
C278 C 0.6858 0.27423 0.98573 0.0
C279 C 0.62998 0.30036 0.8905 0.0
H280 H 0.7271 0.39056 0.95511 0.0
H281 H 0.75034 0.34222 0.8779 0.0
H282 H 0.64946 0.33619 0.96438 0.0
H283 H 0.66915 0.32764 0.99812 0.0
H284 H 0.68132 0.36705 0.98765 0.0
H285 H 0.7175 0.29054 0.86392 0.0
H286 H 0.69726 0.26857 0.90273 0.0
H287 H 0.67722 0.27751 0.86984 0.0
H288 H 0.62996 0.2236 0.99136 0.0
H289 H 0.58277 0.24599 0.91166 0.0
H290 H 0.69476 0.29672 0.99925 0.0
H291 H 0.70404 0.27615 0.96744 0.0
H292 H 0.68148 0.25655 1.00619 0.0
H293 H 0.63753 0.32344 0.90175 0.0
H294 H 0.60682 0.29139 0.87855 0.0
H295 H 0.64637 0.30324 0.86898 0.0
C296 C 0.3446 0.72604 0.105 0.0
C297 C 0.36499 0.74681 0.07979 0.0
C298 C 0.34394 0.69843 0.112 0.0
C299 C 0.36396 0.69139 0.09307 0.0
C300 C 0.38435 0.71206 0.06728 0.0
C301 C 0.38473 0.73967 0.06105 0.0
C302 C 0.32205 0.67693 0.13988 0.0
C303 C 0.40581 0.70504 0.0464 0.0
C304 C 0.38283 0.63388 0.13328 0.0
C305 C 0.36289 0.60721 0.11437 0.0
C306 C 0.38333 0.6615 0.12669 0.0
C307 C 0.36362 0.66239 0.10039 0.0
C308 C 0.34346 0.63557 0.0812 0.0
C309 C 0.34323 0.60821 0.08856 0.0
C310 C 0.40491 0.6897 0.14786 0.0
C311 C 0.32229 0.63584 0.05277 0.0
H312 H 0.32939 0.73152 0.11971 0.0
H313 H 0.40045 0.75562 0.04144 0.0
H314 H 0.30637 0.65427 0.12775 0.0
H315 H 0.33509 0.67315 0.16123 0.0
H316 H 0.30801 0.68588 0.15224 0.0
H317 H 0.41988 0.72335 0.02687 0.0
H318 H 0.42147 0.70227 0.06491 0.0
H319 H 0.39246 0.68307 0.03181 0.0
H320 H 0.398 0.63318 0.15333 0.0
H321 H 0.3279 0.58769 0.07371 0.0
H322 H 0.39169 0.6986 0.16227 0.0
H323 H 0.42096 0.70809 0.12958 0.0
H324 H 0.41856 0.68504 0.1676 0.0
H325 H 0.30665 0.64306 0.06451 0.0
H326 H 0.30821 0.61301 0.04008 0.0
H327 H 0.3359 0.65274 0.03175 0.0
C328 C 0.73093 0.38441 0.30569 0.0
C329 C 0.73887 0.36529 0.28694 0.0
C330 C 0.70309 0.3835 0.29901 0.0
C331 C 0.68299 0.3632 0.27275 0.0
C332 C 0.69072 0.34365 0.25397 0.0
C333 C 0.71856 0.34482 0.26143 0.0
C334 C 0.69532 0.40445 0.31977 0.0
C335 C 0.66984 0.32186 0.22562 0.0
C336 C 0.59972 0.34283 0.27539 0.0
C337 C 0.59936 0.36305 0.24992 0.0
C338 C 0.62683 0.34256 0.28305 0.0
C339 C 0.65404 0.3628 0.26451 0.0
C340 C 0.65374 0.3829 0.23835 0.0
C341 C 0.62637 0.38289 0.23147 0.0
C342 C 0.62646 0.32098 0.31129 0.0
C343 C 0.68237 0.40457 0.21786 0.0
H344 H 0.7465 0.40016 0.32555 0.0
H345 H 0.72464 0.33007 0.24675 0.0
H346 H 0.693 0.42037 0.30126 0.0
H347 H 0.67291 0.39079 0.33349 0.0
H348 H 0.71305 0.41821 0.34004 0.0
H349 H 0.67909 0.30788 0.21382 0.0
H350 H 0.64686 0.30617 0.23708 0.0
H351 H 0.66658 0.33498 0.20394 0.0
H352 H 0.57893 0.32754 0.28987 0.0
H353 H 0.62616 0.39846 0.21166 0.0
H354 H 0.64265 0.33428 0.33305 0.0
H355 H 0.6343 0.30577 0.29976 0.0
H356 H 0.60326 0.30648 0.323 0.0
H357 H 0.70034 0.42063 0.23657 0.0
H358 H 0.67804 0.41818 0.19775 0.0
H359 H 0.69169 0.39149 0.20399 0.0
C360 C 0.15189 0.6149 0.65401 0.0
C361 C 0.13449 0.59685 0.68284 0.0
C362 C 0.15066 0.60163 0.62058 0.0
C363 C 0.1309 0.56968 0.61561 0.0
C364 C 0.11211 0.55166 0.64419 0.0
C365 C 0.11449 0.56537 0.6776 0.0
C366 C 0.17154 0.62158 0.59105 0.0
C367 C 0.09007 0.51775 0.63974 0.0
C368 C 0.11449 0.54295 0.519 0.0
C369 C 0.13454 0.5315 0.51372 0.0
C370 C 0.11209 0.55425 0.55243 0.0
C371 C 0.13091 0.55502 0.58098 0.0
C372 C 0.15074 0.54289 0.57597 0.0
C373 C 0.15199 0.53088 0.54252 0.0
C374 C 0.08998 0.56605 0.55692 0.0
C375 C 0.17165 0.54384 0.60546 0.0
H376 H 0.16766 0.63916 0.65805 0.0
H377 H 0.10093 0.55135 0.69983 0.0
H378 H 0.18766 0.61351 0.58348 0.0
H379 H 0.1579 0.61977 0.56698 0.0
H380 H 0.18511 0.64609 0.59896 0.0
H381 H 0.07506 0.50759 0.66345 0.0
H382 H 0.07538 0.51358 0.61592 0.0
H383 H 0.10309 0.5056 0.63536 0.0
H384 H 0.10088 0.54337 0.4968 0.0
H385 H 0.16778 0.5224 0.53844 0.0
H386 H 0.10294 0.5912 0.56133 0.0
H387 H 0.0753 0.5555 0.58074 0.0
H388 H 0.07496 0.56119 0.53322 0.0
H389 H 0.18773 0.56802 0.61305 0.0
H390 H 0.18528 0.53295 0.59752 0.0
H391 H 0.15804 0.532 0.62954 0.0
C392 C 0.56187 0.11671 0.68883 0.0
C393 C 0.59341 0.13679 0.6839 0.0
C394 C 0.54776 0.11462 0.7219 0.0
C395 C 0.56543 0.13376 0.75043 0.0
C396 C 0.59745 0.15357 0.74582 0.0
C397 C 0.61113 0.15454 0.71274 0.0
C398 C 0.51378 0.09253 0.726 0.0
C399 C 0.61704 0.17479 0.77531 0.0
C400 C 0.52554 0.15531 0.82175 0.0
C401 C 0.52589 0.13819 0.85105 0.0
C402 C 0.538 0.1538 0.78871 0.0
C403 C 0.55033 0.13406 0.78463 0.0
C404 C 0.54928 0.11557 0.81367 0.0
C405 C 0.53751 0.11821 0.84666 0.0
C406 C 0.53919 0.17433 0.75865 0.0
C407 C 0.56131 0.09357 0.81016 0.0
H408 H 0.5481 0.10289 0.66661 0.0
H409 H 0.63543 0.17038 0.70892 0.0
H410 H 0.50941 0.07816 0.75014 0.0
H411 H 0.50148 0.10549 0.72961 0.0
H412 H 0.50394 0.07725 0.70246 0.0
H413 H 0.64167 0.18832 0.76775 0.0
H414 H 0.60882 0.19093 0.78212 0.0
H415 H 0.61499 0.16147 0.79974 0.0
H416 H 0.51693 0.17106 0.82515 0.0
H417 H 0.53774 0.10486 0.86924 0.0
H418 H 0.52767 0.16047 0.73461 0.0
H419 H 0.56346 0.19042 0.75136 0.0
H420 H 0.52807 0.1879 0.76586 0.0
H421 H 0.55106 0.07865 0.78647 0.0
H422 H 0.55625 0.07884 0.83414 0.0
H423 H 0.58653 0.10659 0.80612 0.0
C424 C 0.40623 0.53869 1.00987 0.0
C425 C 0.37466 0.5274 1.0144 0.0
C426 C 0.42063 0.55055 0.97689 0.0
C427 C 0.40323 0.55202 0.94803 0.0
C428 C 0.37119 0.53996 0.95224 0.0
C429 C 0.35722 0.52742 0.98524 0.0
C430 C 0.45462 0.56228 0.97324 0.0
C431 C 0.35189 0.54158 0.92238 0.0
C432 C 0.4437 0.6132 0.87667 0.0
C433 C 0.4435 0.59564 0.84754 0.0
C434 C 0.43104 0.59935 0.90969 0.0
C435 C 0.41865 0.5673 0.91393 0.0
C436 C 0.41988 0.54977 0.8851 0.0
C437 C 0.43186 0.56406 0.85211 0.0
C438 C 0.42968 0.61879 0.93953 0.0
C439 C 0.40779 0.51576 0.88878 0.0
H440 H 0.41979 0.53865 0.03233 0.0
H441 H 0.33291 0.51908 0.98874 0.0
H442 H 0.45916 0.5522 0.94928 0.0
H443 H 0.46702 0.58752 0.96958 0.0
H444 H 0.46422 0.55684 0.99701 0.0
H445 H 0.3272 0.53057 0.92963 0.0
H446 H 0.36022 0.56592 0.91542 0.0
H447 H 0.35412 0.53022 0.89813 0.0
H448 H 0.45232 0.63753 0.87315 0.0
H449 H 0.43175 0.55041 0.82967 0.0
H450 H 0.44095 0.61642 0.96379 0.0
H451 H 0.40536 0.61074 0.9465 0.0
H452 H 0.44094 0.64346 0.93225 0.0
H453 H 0.41778 0.5111 0.91273 0.0
H454 H 0.41307 0.50602 0.86502 0.0
H455 H 0.38252 0.50361 0.89246 0.0
C456 C 0.81599 0.36396 0.15635 0.0
C457 C 0.8325 0.38189 0.1857 0.0
C458 C 0.81743 0.3775 0.12305 0.0
C459 C 0.8365 0.40963 0.11875 0.0
C460 C 0.85435 0.4276 0.14789 0.0
C461 C 0.85179 0.41359 0.18113 0.0
C462 C 0.79756 0.35757 0.09288 0.0
C463 C 0.87562 0.46174 0.14419 0.0
C464 C 0.85455 0.43773 0.02273 0.0
C465 C 0.83393 0.44838 0.01687 0.0
C466 C 0.85658 0.42628 0.0562 0.0
C467 C 0.8368 0.42449 0.08415 0.0
C468 C 0.81636 0.43581 0.07856 0.0
C469 C 0.8155 0.44804 0.04513 0.0
C470 C 0.87936 0.41538 0.06135 0.0
C471 C 0.79441 0.43374 0.10738 0.0
H472 H 0.80078 0.33952 0.15986 0.0
H473 H 0.86469 0.42754 0.20373 0.0
H474 H 0.78111 0.36508 0.0848 0.0
H475 H 0.81191 0.36008 0.06924 0.0
H476 H 0.78438 0.33294 0.10035 0.0
H477 H 0.8899 0.47196 0.1684 0.0
H478 H 0.89104 0.46667 0.1209 0.0
H479 H 0.86203 0.47322 0.13932 0.0
H480 H 0.86888 0.43802 1.00093 0.0
H481 H 0.79924 0.45587 0.04055 0.0
H482 H 0.86695 0.39017 0.06528 0.0
H483 H 0.89334 0.42591 0.08565 0.0
H484 H 0.89504 0.421 0.03814 0.0
H485 H 0.77868 0.40933 0.11434 0.0
H486 H 0.78041 0.44412 0.09906 0.0
H487 H 0.80723 0.44545 0.13193 0.0
C488 C 0.36119 0.82138 0.2102 0.0
C489 C 0.37879 0.8388 0.18112 0.0
C490 C 0.37499 0.82267 0.24328 0.0
C491 C 0.40704 0.8425 0.24765 0.0
C492 C 0.42461 0.8613 0.21884 0.0
C493 C 0.41037 0.85888 0.18579 0.0
C494 C 0.35551 0.80181 0.27307 0.0
C495 C 0.45861 0.8834 0.22266 0.0
C496 C 0.43512 0.85891 0.34377 0.0
C497 C 0.44659 0.83885 0.34854 0.0
C498 C 0.4234 0.86134 0.31065 0.0
C499 C 0.42226 0.84256 0.28188 0.0
C500 C 0.43451 0.82279 0.28633 0.0
C501 C 0.44691 0.82149 0.31948 0.0
C502 C 0.41147 0.88339 0.30674 0.0
C503 C 0.43323 0.80195 0.25657 0.0
H504 H 0.33685 0.80555 0.2066 0.0
H505 H 0.42405 0.87246 0.16338 0.0
H506 H 0.36376 0.78577 0.28022 0.0
H507 H 0.35764 0.81543 0.29726 0.0
H508 H 0.33086 0.78818 0.26565 0.0
H509 H 0.46839 0.89839 0.19888 0.0
H510 H 0.4631 0.89807 0.24656 0.0
H511 H 0.4709 0.87045 0.22654 0.0
H512 H 0.43491 0.87245 0.36616 0.0
H513 H 0.4554 0.80567 0.32317 0.0
H514 H 0.38622 0.87039 0.30294 0.0
H515 H 0.4216 0.89799 0.28279 0.0
H516 H 0.41673 0.89845 0.33046 0.0
H517 H 0.40892 0.78576 0.24948 0.0
H518 H 0.4444 0.78848 0.264 0.0
H519 H 0.44462 0.81555 0.23234 0.0
C520 C 0.52084 0.35884 0.37941 0.0
C521 C 0.52082 0.3765 0.35051 0.0
C522 C 0.53371 0.37258 0.41241 0.0
C523 C 0.54609 0.40461 0.41688 0.0
C524 C 0.54459 0.42222 0.38831 0.0
C525 C 0.5324 0.40804 0.35534 0.0
C526 C 0.53535 0.35305 0.44194 0.0
C527 C 0.55666 0.4562 0.39226 0.0
C528 C 0.55945 0.43314 0.51288 0.0
C529 C 0.59108 0.44455 0.5169 0.0
C530 C 0.54471 0.42121 0.48008 0.0
C531 C 0.56183 0.41981 0.45088 0.0
C532 C 0.59393 0.43193 0.45458 0.0
C533 C 0.60823 0.44454 0.48743 0.0
C534 C 0.51067 0.40941 0.47698 0.0
C535 C 0.61295 0.43038 0.42433 0.0
H536 H 0.51228 0.33454 0.37567 0.0
H537 H 0.53235 0.42176 0.33307 0.0
H538 H 0.55974 0.36105 0.44846 0.0
H539 H 0.52438 0.35541 0.46648 0.0
H540 H 0.52397 0.3284 0.43457 0.0
H541 H 0.55108 0.46599 0.36878 0.0
H542 H 0.54692 0.46077 0.41651 0.0
H543 H 0.58197 0.46838 0.39553 0.0
H544 H 0.54612 0.43319 0.53559 0.0
H545 H 0.63261 0.45298 0.49053 0.0
H546 H 0.49829 0.38419 0.47315 0.0
H547 H 0.50587 0.41957 0.45329 0.0
H548 H 0.50126 0.41471 0.50104 0.0
H549 H 0.60452 0.40606 0.41717 0.0
H550 H 0.6377 0.44133 0.43126 0.0
H551 H 0.61052 0.44184 0.40029 0.0
C552 C 0.91669 0.42281 0.3563 0.0
C553 C 0.90396 0.40109 0.32886 0.0
C554 C 0.94762 0.43565 0.36568 0.0
C555 C 0.96632 0.42679 0.34684 0.0
C556 C 0.95339 0.40404 0.31997 0.0
C557 C 0.9222 0.39129 0.31139 0.0
C558 C 0.96054 0.4596 0.3948 0.0
C559 C 0.97277 0.39423 0.29923 0.0
C560 C 0.04936 0.48938 0.34379 0.0
C561 C 0.06226 0.48025 0.3709 0.0
C562 C 0.01842 0.47131 0.33452 0.0
C563 C -0.00013 0.44361 0.35313 0.0
C564 C 0.01294 0.43368 0.37969 0.0
C565 C 0.04415 0.45211 0.38816 0.0
C566 C 0.00533 0.48247 0.30572 0.0
C567 C -0.00628 0.40434 0.40019 0.0
H568 H 0.90256 0.43013 0.37023 0.0
H569 H 0.91239 0.37443 0.29021 0.0
H570 H 0.97321 0.45378 0.41462 0.0
H571 H 0.9771 0.48219 0.38312 0.0
H572 H 0.94237 0.4619 0.40893 0.0
H573 H 0.95866 0.37411 0.28187 0.0
H574 H -0.01073 0.41349 0.2822 0.0
H575 H -0.0136 0.38845 0.31765 0.0
H576 H 0.06339 0.51093 0.33001 0.0
H577 H 0.0541 0.44496 0.4091 0.0
H578 H -0.01136 0.48822 0.31767 0.0
H579 H -0.00724 0.46415 0.28569 0.0
H580 H 0.02339 0.50313 0.29179 0.0
H581 H 0.97714 0.40687 0.41737 0.0
H582 H 0.00793 0.39832 0.41737 0.0
H583 H 0.98017 0.38505 0.38161 0.0
C584 C 0.49067 0.92128 0.5216 0.0
C585 C 0.49952 0.90884 0.49368 0.0
C586 C 0.50905 0.95191 0.53178 0.0
C587 C 0.53681 0.97063 0.5133 0.0
C588 C 0.54664 0.9579 0.48619 0.0
C589 C 0.52786 0.92697 0.47677 0.0
C590 C 0.49797 0.96458 0.56115 0.0
C591 C 0.57609 0.97728 0.46591 0.0
C592 C 0.55573 0.05306 0.51135 0.0
C593 C 0.57706 0.06583 0.53919 0.0
C594 C 0.54386 0.02246 0.50126 0.0
C595 C 0.55332 0.00411 0.51977 0.0
C596 C 0.57589 0.01719 0.54684 0.0
C597 C 0.58765 0.04807 0.55616 0.0
C598 C 0.52007 0.00942 0.47195 0.0
C599 C 0.5864 -0.0018 0.56715 0.0
H600 H 0.46901 0.90719 0.53517 0.0
H601 H 0.53483 0.91736 0.45528 0.0
H602 H 0.51644 0.9771 0.58105 0.0
H603 H 0.4919 0.98119 0.5497 0.0
H604 H 0.47749 0.94632 0.57514 0.0
H605 H 0.58249 0.96315 0.44912 0.0
H606 H 0.57336 -0.00652 0.44832 0.0
H607 H 0.59523 -0.00882 0.48455 0.0
H608 H 0.54785 0.06686 0.49773 0.0
H609 H 0.60427 0.05795 0.5776 0.0
H610 H 0.4975 -0.00749 0.48343 0.0
H611 H 0.52632 -0.00284 0.45202 0.0
H612 H 0.51745 0.02743 0.45798 0.0
H613 H 0.56756 0.98179 0.58473 0.0
H614 H 0.60686 0.0126 0.58395 0.0
H615 H 0.59197 0.98454 0.54852 0.0
C616 C 0.52623 0.58925 0.72099 0.0
C617 C 0.49783 0.57859 0.70403 0.0
C618 C 0.54517 0.57713 0.71219 0.0
C619 C 0.53543 0.55409 0.6857 0.0
C620 C 0.50755 0.54448 0.66723 0.0
C621 C 0.48901 0.55675 0.67676 0.0
C622 C 0.57476 0.58782 0.73243 0.0
C623 C 0.49655 0.52017 0.63851 0.0
C624 C 0.58676 0.52773 0.64359 0.0
C625 C 0.57659 0.49969 0.66114 0.0
C626 C 0.57472 0.54671 0.6525 0.0
C627 C 0.55231 0.5374 0.67974 0.0
C628 C 0.54334 0.50999 0.69887 0.0
C629 C 0.55547 0.49138 0.68919 0.0
C630 C 0.58474 0.5758 0.63155 0.0
C631 C 0.51974 0.49948 0.72839 0.0
H632 H 0.53318 0.60626 0.74199 0.0
H633 H 0.4673 0.54879 0.66316 0.0
H634 H 0.57236 0.56925 0.75043 0.0
H635 H 0.5939 0.59302 0.71379 0.0
H636 H 0.58096 0.60853 0.74879 0.0
H637 H 0.47581 0.51735 0.62454 0.0
H638 H 0.51492 0.526 0.6185 0.0
H639 H 0.49093 0.49784 0.65057 0.0
H640 H 0.60321 0.53428 0.62198 0.0
H641 H 0.54794 0.46996 0.70325 0.0
H642 H 0.59012 0.59524 0.64973 0.0
H643 H 0.5657 0.57283 0.61393 0.0
H644 H 0.60518 0.58185 0.61471 0.0
H645 H 0.52584 0.51827 0.74785 0.0
H646 H 0.51757 0.47924 0.74288 0.0
H647 H 0.49699 0.49328 0.71698 0.0
C648 C 0.05165 0.557 0.85598 0.0
C649 C 0.06401 0.57817 0.82795 0.0
C650 C 0.02095 0.54461 0.86612 0.0
C651 C 0.00207 0.55333 0.84745 0.0
C652 C 0.01469 0.57565 0.82009 0.0
C653 C 0.04569 0.58799 0.81076 0.0
C654 C 0.00839 0.52113 0.89576 0.0
C655 C -0.00488 0.58531 0.79953 0.0
C656 C 0.91921 0.49031 0.84589 0.0
C657 C 0.90648 0.49953 0.87313 0.0
C658 C 0.94998 0.50852 0.83604 0.0
C659 C 0.96858 0.53647 0.85417 0.0
C660 C 0.95565 0.54652 0.88081 0.0
C661 C 0.92458 0.52793 0.88988 0.0
C662 C 0.96289 0.4972 0.80718 0.0
C663 C 0.97492 0.57614 0.90079 0.0
H664 H 0.06589 0.54971 0.86973 0.0
H665 H 0.05524 0.60445 0.78915 0.0
H666 H -0.00411 0.5272 0.91554 0.0
H667 H -0.00823 0.49834 0.88458 0.0
H668 H 0.02676 0.51912 0.90983 0.0
H669 H 0.0091 0.60541 0.78208 0.0
H670 H 0.9786 0.56599 0.78258 0.0
H671 H 0.98152 0.59106 0.81804 0.0
H672 H 0.90517 0.46857 0.83249 0.0
H673 H 0.91476 0.53516 0.91088 0.0
H674 H 0.97979 0.49168 0.81899 0.0
H675 H 0.97517 0.51534 0.78688 0.0
H676 H 0.94476 0.47637 0.7936 0.0
H677 H -0.0084 0.57388 0.91807 0.0
H678 H 0.96074 0.58232 0.91783 0.0
H679 H -0.01166 0.5952 0.8819 0.0
C680 C 0.44454 0.04925 0.97728 0.0
C681 C 0.4727 0.06738 0.99455 0.0
C682 C 0.42598 0.01815 0.98604 0.0
C683 C 0.43584 0.00522 1.01285 0.0
C684 C 0.46345 0.02385 0.03161 0.0
C685 C 0.48164 0.05468 0.02209 0.0
C686 C 0.39668 -0.00114 0.96545 0.0
C687 C 0.47455 0.01093 0.06067 0.0
C688 C 0.38462 0.92737 0.05456 0.0
C689 C 0.39517 0.90969 0.03729 0.0
C690 C 0.39659 0.95838 0.04576 0.0
C691 C 0.41934 0.97168 0.01891 0.0
C692 C 0.42881 0.95346 1.00013 0.0
C693 C 0.41673 0.92272 1.0097 0.0
C694 C 0.38607 0.97723 0.06637 0.0
C695 C 0.45279 0.96677 0.97103 0.0
H696 H 0.43751 0.05906 0.95606 0.0
H697 H 0.50317 0.06874 0.03592 0.0
H698 H 0.39956 0.98275 0.94783 0.0
H699 H 0.37742 0.98485 0.9839 0.0
H700 H 0.39037 0.01306 0.94866 0.0
H701 H 0.49499 0.02908 0.07483 0.0
H702 H 0.45606 -0.00181 0.08047 0.0
H703 H 0.48067 -0.00553 0.04889 0.0
H704 H 0.36785 0.91731 0.07582 0.0
H705 H 0.42459 0.90899 0.99587 0.0
H706 H 0.38044 -0.00905 0.04793 0.0
H707 H 0.40492 -0.00641 0.08397 0.0
H708 H 0.36565 0.96274 0.08318 0.0
H709 H 0.44668 0.97924 0.95125 0.0
H710 H 0.45548 0.94888 0.95684 0.0
H711 H 0.47529 0.98355 0.98276 0.0
C712 C 0.4096 0.48063 0.18847 0.0
C713 C 0.38897 0.47247 0.15993 0.0
C714 C 0.42137 0.46185 0.19874 0.0
C715 C 0.41255 0.43442 0.17969 0.0
C716 C 0.39055 0.42524 0.152 0.0
C717 C 0.37885 0.44439 0.14251 0.0
C718 C 0.44451 0.47224 0.22875 0.0
C719 C 0.3807 0.39613 0.13113 0.0
C720 C 0.47608 0.4154 0.17836 0.0
C721 C 0.46705 0.39363 0.20574 0.0
C722 C 0.45752 0.42746 0.16819 0.0
C723 C 0.42937 0.41773 0.18612 0.0
C724 C 0.4194 0.39473 0.21268 0.0
C725 C 0.43838 0.3828 0.22213 0.0
C726 C 0.46879 0.45174 0.13943 0.0
C727 C 0.38952 0.3839 0.23234 0.0
H728 H 0.41706 0.50208 0.20245 0.0
H729 H 0.36276 0.43797 0.12054 0.0
H730 H 0.43811 0.45338 0.24819 0.0
H731 H 0.46742 0.47846 0.21783 0.0
H732 H 0.44648 0.49244 0.24314 0.0
H733 H 0.36038 0.39007 0.11407 0.0
H734 H 0.39986 0.39912 0.11373 0.0
H735 H 0.3752 0.3767 0.14937 0.0
H736 H 0.49799 0.42346 0.16518 0.0
H737 H 0.43126 0.36584 0.24319 0.0
H738 H 0.47424 0.47408 0.15137 0.0
H739 H 0.45064 0.44587 0.11911 0.0
H740 H 0.48969 0.45459 0.12584 0.0
H741 H 0.39166 0.40235 0.25037 0.0
H742 H 0.38311 0.3631 0.2486 0.0
H743 H 0.37065 0.3788 0.21334 0.0
C744 C 0.19201 0.50871 0.30226 0.0
C745 C 0.18705 0.49213 0.33407 0.0
C746 C 0.20786 0.50521 0.27356 0.0
C747 C 0.21882 0.48432 0.27639 0.0
C748 C 0.21247 0.46623 0.30761 0.0
C749 C 0.19682 0.47049 0.33623 0.0
C750 C 0.21436 0.52521 0.24096 0.0
C751 C 0.22334 0.44334 0.31137 0.0
C752 C 0.24821 0.46982 0.18896 0.0
C753 C 0.27972 0.4911 0.19139 0.0
C754 C 0.22815 0.46605 0.21724 0.0
C755 C 0.23985 0.48429 0.24836 0.0
C756 C 0.27176 0.50502 0.25136 0.0
C757 C 0.29125 0.50801 0.22303 0.0
C758 C 0.19432 0.44335 0.21333 0.0
C759 C 0.28524 0.52519 0.28385 0.0
H760 H 0.18445 0.52538 0.30012 0.0
H761 H 0.19288 0.45739 0.36055 0.0
H762 H 0.23942 0.54142 0.23887 0.0
H763 H 0.20721 0.51101 0.21641 0.0
H764 H 0.20237 0.53869 0.24186 0.0
H765 H 0.213 0.42817 0.3349 0.0
H766 H 0.21765 0.42892 0.28705 0.0
H767 H 0.24868 0.45569 0.31438 0.0
H768 H 0.23913 0.4565 0.16476 0.0
H769 H 0.31555 0.52446 0.22535 0.0
H770 H 0.18149 0.45585 0.21045 0.0
H771 H 0.18547 0.42884 0.23756 0.0
H772 H 0.18942 0.42827 0.1897 0.0
H773 H 0.2762 0.54123 0.2859 0.0
H774 H 0.31071 0.53886 0.28288 0.0
H775 H 0.27834 0.51107 0.30845 0.0
C776 C 0.7738 0.29883 0.39564 0.0
C777 C 0.77921 0.28768 0.36371 0.0
C778 C 0.75799 0.27914 0.42408 0.0
C779 C 0.74754 0.24742 0.42087 0.0
C780 C 0.7543 0.23616 0.38952 0.0
C781 C 0.76989 0.25641 0.36115 0.0
C782 C 0.75104 0.29213 0.45682 0.0
C783 C 0.74399 0.20257 0.38537 0.0
C784 C 0.71861 0.20333 0.50817 0.0
C785 C 0.68704 0.19286 0.5058 0.0
C786 C 0.73855 0.21966 0.47982 0.0
C787 C 0.72665 0.22599 0.44871 0.0
C788 C 0.69467 0.21443 0.44572 0.0
C789 C 0.67531 0.1979 0.47412 0.0
C790 C 0.77246 0.23116 0.48372 0.0
C791 C 0.68098 0.22088 0.41325 0.0
H792 H 0.781 0.32295 0.39808 0.0
H793 H 0.77418 0.24762 0.33673 0.0
H794 H 0.72589 0.28279 0.45891 0.0
H795 H 0.75843 0.2852 0.48128 0.0
H796 H 0.76254 0.31756 0.45614 0.0
H797 H 0.75462 0.19817 0.36179 0.0
H798 H 0.7498 0.19383 0.40959 0.0
H799 H 0.71868 0.18928 0.38222 0.0
H800 H 0.72786 0.19935 0.5324 0.0
H801 H 0.65096 0.18982 0.47183 0.0
H802 H 0.78496 0.25644 0.48704 0.0
H803 H 0.78155 0.22598 0.45933 0.0
H804 H 0.7775 0.22086 0.50712 0.0
H805 H 0.68951 0.24587 0.41138 0.0
H806 H 0.65548 0.20862 0.41411 0.0
H807 H 0.68822 0.21404 0.3886 0.0
C808 C 0.46757 0.67827 0.63747 0.0
C809 C 0.48368 0.68986 0.66958 0.0
C810 C 0.47109 0.69769 0.60888 0.0
C811 C 0.49155 0.72959 0.61213 0.0
C812 C 0.50919 0.74134 0.64368 0.0
C813 C 0.50489 0.72135 0.67219 0.0
C814 C 0.45157 0.68415 0.57593 0.0
C815 C 0.53163 0.77517 0.64787 0.0
C816 C 0.50598 0.7733 0.52468 0.0
C817 C 0.48409 0.78277 0.52669 0.0
C818 C 0.51007 0.75746 0.55321 0.0
C819 C 0.49151 0.75059 0.58412 0.0
C820 C 0.47023 0.7611 0.58674 0.0
C821 C 0.46694 0.77717 0.55818 0.0
C822 C 0.53339 0.7471 0.54972 0.0
C823 C 0.44969 0.754 0.61898 0.0
H824 H 0.45123 0.65398 0.63498 0.0
H825 H 0.51764 0.73049 0.69675 0.0
H826 H 0.43511 0.69267 0.5735 0.0
H827 H 0.46612 0.6915 0.55165 0.0
H828 H 0.43834 0.65869 0.57661 0.0
H829 H 0.54661 0.78006 0.67162 0.0
H830 H 0.5463 0.78428 0.62378 0.0
H831 H 0.51887 0.78774 0.65078 0.0
H832 H 0.51951 0.77774 0.50061 0.0
H833 H 0.45003 0.78446 0.56018 0.0
H834 H 0.52137 0.72182 0.54648 0.0
H835 H 0.54756 0.7528 0.57426 0.0
H836 H 0.54879 0.75776 0.52643 0.0
H837 H 0.43389 0.72887 0.62086 0.0
H838 H 0.43571 0.76545 0.61782 0.0
H839 H 0.4636 0.76133 0.64376 0.0
C840 C 0.7766 0.46917 0.80463 0.0
C841 C 0.78128 0.48591 0.83626 0.0
C842 C 0.76059 0.47216 0.77577 0.0
C843 C 0.74917 0.49271 0.77824 0.0
C844 C 0.75527 0.51099 0.80925 0.0
C845 C 0.7711 0.50724 0.83805 0.0
C846 C 0.75438 0.45196 0.74341 0.0
C847 C 0.74393 0.53354 0.81262 0.0
C848 C 0.71894 0.50556 0.6905 0.0
C849 C 0.68755 0.4839 0.69319 0.0
C850 C 0.73922 0.51 0.71878 0.0
C851 C 0.72786 0.49205 0.75016 0.0
C852 C 0.69606 0.47094 0.75339 0.0
C853 C 0.67635 0.46729 0.72506 0.0
C854 C 0.77291 0.5331 0.71462 0.0
C855 C 0.68295 0.45105 0.78615 0.0
H856 H 0.7845 0.45274 0.80277 0.0
H857 H 0.77482 0.52047 0.86222 0.0
H858 H 0.72939 0.43539 0.74145 0.0
H859 H 0.76126 0.46594 0.7187 0.0
H860 H 0.76676 0.43887 0.74453 0.0
H861 H 0.75421 0.54902 0.83593 0.0
H862 H 0.74931 0.54765 0.78809 0.0
H863 H 0.71861 0.52089 0.8158 0.0
H864 H 0.72777 0.51867 0.66611 0.0
H865 H 0.65215 0.45056 0.72758 0.0
H866 H 0.7861 0.52095 0.71191 0.0
H867 H 0.78165 0.54787 0.73867 0.0
H868 H 0.77747 0.54791 0.6908 0.0
H869 H 0.69242 0.43538 0.7885 0.0
H870 H 0.6575 0.43699 0.78532 0.0
H871 H 0.6897 0.46543 0.81055 0.0
C872 C 0.25268 0.77254 1.00634 0.0
C873 C 0.28423 0.78301 1.00359 0.0
C874 C 0.23254 0.75638 0.97809 0.0
C875 C 0.24421 0.75026 0.94663 0.0
C876 C 0.27617 0.76181 0.94326 0.0
C877 C 0.29573 0.77814 0.9716 0.0
C878 C 0.19866 0.74486 0.98242 0.0
C879 C 0.28962 0.75557 0.9104 0.0
C880 C 0.19625 0.67793 0.89295 0.0
C881 C 0.19049 0.68941 0.86153 0.0
C882 C 0.21253 0.69736 0.9214 0.0
C883 C 0.22311 0.72914 0.91872 0.0
C884 C 0.2161 0.74074 0.88786 0.0
C885 C 0.20004 0.72075 0.85947 0.0
C886 C 0.21975 0.68401 0.95361 0.0
C887 C 0.22658 0.77441 0.88428 0.0
H888 H 0.2436 0.77638 0.03081 0.0
H889 H 0.32006 0.78621 0.96902 0.0
H890 H 0.18945 0.75039 0.9584 0.0
H891 H 0.18614 0.71954 0.98525 0.0
H892 H 0.19375 0.75486 1.00623 0.0
H893 H 0.31512 0.7678 0.91101 0.0
H894 H 0.28104 0.7306 0.90819 0.0
H895 H 0.28223 0.76262 0.88604 0.0
H896 H 0.18892 0.65375 0.89498 0.0
H897 H 0.1955 0.7298 0.83543 0.0
H898 H 0.2126 0.69072 0.97843 0.0
H899 H 0.24491 0.6933 0.9553 0.0
H900 H 0.2082 0.65859 0.95255 0.0
H901 H 0.22087 0.78294 0.90876 0.0
H902 H 0.21597 0.77914 0.86094 0.0
H903 H 0.25189 0.78763 0.88109 0.0
C904 C 0.49906 0.29511 0.14017 0.0
C905 C 0.48252 0.28325 0.17198 0.0
C906 C 0.49602 0.27593 0.11151 0.0
C907 C 0.4756 0.24399 0.11434 0.0
C908 C 0.45753 0.23196 0.14555 0.0
C909 C 0.46135 0.25172 0.17417 0.0
C910 C 0.51601 0.28976 0.07894 0.0
C911 C 0.43509 0.19809 0.14928 0.0
C912 C 0.46289 0.20127 0.02643 0.0
C913 C 0.48494 0.19202 0.02881 0.0
C914 C 0.45814 0.21664 0.05498 0.0
C915 C 0.47616 0.22326 0.08632 0.0
C916 C 0.49753 0.21289 0.08932 0.0
C917 C 0.50149 0.19729 0.06072 0.0
C918 C 0.43472 0.22684 0.05107 0.0
C919 C 0.51751 0.21972 0.12202 0.0
H920 H 0.51537 0.31944 0.138 0.0
H921 H 0.44827 0.24237 0.19848 0.0
H922 H 0.53254 0.28132 0.07679 0.0
H923 H 0.50181 0.28259 0.05438 0.0
H924 H 0.52917 0.31523 0.07991 0.0
H925 H 0.41972 0.19298 0.17269 0.0
H926 H 0.42084 0.18911 0.12487 0.0
H927 H 0.44788 0.18556 0.15251 0.0
H928 H 0.4498 0.19708 1.00204 0.0
H929 H 0.51849 0.19014 0.06303 0.0
H930 H 0.44665 0.25213 0.04799 0.0
H931 H 0.42022 0.22094 0.07535 0.0
H932 H 0.41964 0.21624 0.02752 0.0
H933 H 0.53323 0.24484 0.1243 0.0
H934 H 0.53157 0.20833 0.12114 0.0
H935 H 0.50318 0.21213 0.14648 0.0
loop_
_geom_bond_atom_site_label_1
_geom_bond_atom_site_label_2
_geom_bond_distance
_geom_bond_site_symmetry_2
_ccdc_geom_bond_type
C0 O2 1.247 . S
C0 O4 1.258 . S
C1 O8 1.247 . S
C1 O9 1.258 . S
O2 C0 1.247 . S
O2 Zn3 2.028 . S
Zn3 O2 2.028 . S
Zn3 O7 2.035 . S
Zn3 O9 2.035 . S
Zn3 O10 2.028 . S
O4 C0 1.258 . S
O4 Zn5 2.035 . S
Zn5 O4 2.035 . S
Zn5 O6 2.028 . S
Zn5 O8 2.028 . S
Zn5 O11 2.035 . S
O6 Zn5 2.028 . S
O6 C12 1.247 . S
O7 Zn3 2.035 . S
O7 C12 1.258 . S
O8 C1 1.247 . S
O8 Zn5 2.028 . S
O9 C1 1.258 . S
O9 Zn3 2.035 . S
O10 Zn3 2.028 . S
O10 C13 1.247 . S
O11 Zn5 2.035 . S
O11 C13 1.258 . S
C12 O6 1.247 . S
C12 O7 1.258 . S
C13 O10 1.247 . S
C13 O11 1.258 . S
C14 O16 1.247 . S
C14 O18 1.258 . S
C15 O22 1.247 . S
C15 O23 1.258 . S
O16 C14 1.247 . S
O16 Zn17 2.028 . S
Zn17 O16 2.028 . S
Zn17 O21 2.035 . S
Zn17 O23 2.035 . S
Zn17 O24 2.028 . S
O18 C14 1.258 . S
O18 Zn19 2.035 . S
Zn19 O18 2.035 . S
Zn19 O20 2.028 . S
Zn19 O22 2.028 . S
Zn19 O25 2.035 . S
O20 Zn19 2.028 . S
O20 C26 1.247 . S
O21 Zn17 2.035 . S
O21 C26 1.258 . S
O22 C15 1.247 . S
O22 Zn19 2.028 . S
O23 C15 1.258 . S
O23 Zn17 2.035 . S
O24 Zn17 2.028 . S
O24 C27 1.247 . S
O25 Zn19 2.035 . S
O25 C27 1.258 . S
C26 O20 1.247 . S
C26 O21 1.258 . S
C27 O24 1.247 . S
C27 O25 1.258 . S
C28 O30 1.247 . S
C28 O32 1.258 . S
C29 O36 1.247 . S
C29 O37 1.258 . S
O30 C28 1.247 . S
O30 Zn31 2.028 . S
Zn31 O30 2.028 . S
Zn31 O35 2.035 . S
Zn31 O37 2.035 . S
Zn31 O38 2.028 . S
O32 C28 1.258 . S
O32 Zn33 2.035 . S
Zn33 O32 2.035 . S
Zn33 O34 2.028 . S
Zn33 O36 2.028 . S
Zn33 O39 2.035 . S
O34 Zn33 2.028 . S
O34 C40 1.247 . S
O35 Zn31 2.035 . S
O35 C40 1.258 . S
O36 C29 1.247 . S
O36 Zn33 2.028 . S
O37 C29 1.258 . S
O37 Zn31 2.035 . S
O38 Zn31 2.028 . S
O38 C41 1.247 . S
O39 Zn33 2.035 . S
O39 C41 1.258 . S
C40 O34 1.247 . S
C40 O35 1.258 . S
C41 O38 1.247 . S
C41 O39 1.258 . S
C42 O44 1.247 . S
C42 O46 1.258 . S
C43 O50 1.247 . S
C43 O51 1.258 . S
O44 C42 1.247 . S
O44 Zn45 2.028 . S
Zn45 O44 2.028 . S
Zn45 O49 2.035 . S
Zn45 O51 2.035 . S
Zn45 O52 2.028 . S
O46 C42 1.258 . S
O46 Zn47 2.035 . S
Zn47 O46 2.035 . S
Zn47 O48 2.028 . S
Zn47 O50 2.028 . S
Zn47 O53 2.035 . S
O48 Zn47 2.028 . S
O48 C54 1.247 . S
O49 Zn45 2.035 . S
O49 C54 1.258 . S
O50 C43 1.247 . S
O50 Zn47 2.028 . S
O51 C43 1.258 . S
O51 Zn45 2.035 . S
O52 Zn45 2.028 . S
O52 C55 1.247 . S
O53 Zn47 2.035 . S
O53 C55 1.258 . S
C54 O48 1.247 . S
C54 O49 1.258 . S
C55 O52 1.247 . S
C55 O53 1.258 . S
C56 O58 1.247 . S
C56 O60 1.258 . S
C57 O64 1.247 . S
C57 O65 1.258 . S
O58 C56 1.247 . S
O58 Zn59 2.028 . S
Zn59 O58 2.028 . S
Zn59 O63 2.035 . S
Zn59 O65 2.035 . S
Zn59 O66 2.028 . S
O60 C56 1.258 . S
O60 Zn61 2.035 . S
Zn61 O60 2.035 . S
Zn61 O62 2.028 . S
Zn61 O64 2.028 . S
Zn61 O67 2.035 . S
O62 Zn61 2.028 . S
O62 C68 1.247 . S
O63 Zn59 2.035 . S
O63 C68 1.258 . S
O64 C57 1.247 . S
O64 Zn61 2.028 . S
O65 C57 1.258 . S
O65 Zn59 2.035 . S
O66 Zn59 2.028 . S
O66 C69 1.247 . S
O67 Zn61 2.035 . S
O67 C69 1.258 . S
C68 O62 1.247 . S
C68 O63 1.258 . S
C69 O66 1.247 . S
C69 O67 1.258 . S
C70 O72 1.247 . S
C70 O74 1.258 . S
C71 O78 1.247 . S
C71 O79 1.258 . S
O72 C70 1.247 . S
O72 Zn73 2.028 . S
Zn73 O72 2.028 . S
Zn73 O77 2.035 . S
Zn73 O79 2.035 . S
Zn73 O80 2.028 . S
O74 C70 1.258 . S
O74 Zn75 2.035 . S
Zn75 O74 2.035 . S
Zn75 O76 2.028 . S
Zn75 O78 2.028 . S
Zn75 O81 2.035 . S
O76 Zn75 2.028 . S
O76 C82 1.247 . S
O77 Zn73 2.035 . S
O77 C82 1.258 . S
O78 C71 1.247 . S
O78 Zn75 2.028 . S
O79 C71 1.258 . S
O79 Zn73 2.035 . S
O80 Zn73 2.028 . S
O80 C83 1.247 . S
O81 Zn75 2.035 . S
O81 C83 1.258 . S
C82 O76 1.247 . S
C82 O77 1.258 . S
C83 O80 1.247 . S
C83 O81 1.258 . S
C84 O86 1.247 . S
C84 O88 1.258 . S
C85 O92 1.247 . S
C85 O93 1.258 . S
O86 C84 1.247 . S
O86 Zn87 2.028 . S
Zn87 O86 2.028 . S
Zn87 O91 2.035 . S
Zn87 O93 2.035 . S
Zn87 O94 2.028 . S
O88 C84 1.258 . S
O88 Zn89 2.035 . S
Zn89 O88 2.035 . S
Zn89 O90 2.028 . S
Zn89 O92 2.028 . S
Zn89 O95 2.035 . S
O90 Zn89 2.028 . S
O90 C96 1.247 . S
O91 Zn87 2.035 . S
O91 C96 1.258 . S
O92 C85 1.247 . S
O92 Zn89 2.028 . S
O93 C85 1.258 . S
O93 Zn87 2.035 . S
O94 Zn87 2.028 . S
O94 C97 1.247 . S
O95 Zn89 2.035 . S
O95 C97 1.258 . S
C96 O90 1.247 . S
C96 O91 1.258 . S
C97 O94 1.247 . S
C97 O95 1.258 . S
C98 O100 1.247 . S
C98 O102 1.258 . S
C99 O106 1.247 . S
C99 O107 1.258 . S
O100 C98 1.247 . S
O100 Zn101 2.028 . S
Zn101 O100 2.028 . S
Zn101 O105 2.035 . S
Zn101 O107 2.035 . S
Zn101 O108 2.028 . S
O102 C98 1.258 . S
O102 Zn103 2.035 . S
Zn103 O102 2.035 . S
Zn103 O104 2.028 . S
Zn103 O106 2.028 . S
Zn103 O109 2.035 . S
O104 Zn103 2.028 . S
O104 C110 1.247 . S
O105 Zn101 2.035 . S
O105 C110 1.258 . S
O106 C99 1.247 . S
O106 Zn103 2.028 . S
O107 C99 1.258 . S
O107 Zn101 2.035 . S
O108 Zn101 2.028 . S
O108 C111 1.247 . S
O109 Zn103 2.035 . S
O109 C111 1.258 . S
C110 O104 1.247 . S
C110 O105 1.258 . S
C111 O108 1.247 . S
C111 O109 1.258 . S
C112 O114 1.247 . S
C112 O116 1.258 . S
C113 O120 1.247 . S
C113 O121 1.258 . S
O114 C112 1.247 . S
O114 Zn115 2.028 . S
Zn115 O114 2.028 . S
Zn115 O119 2.035 . S
Zn115 O121 2.035 . S
Zn115 O122 2.028 . S
O116 C112 1.258 . S
O116 Zn117 2.035 . S
Zn117 O116 2.035 . S
Zn117 O118 2.028 . S
Zn117 O120 2.028 . S
Zn117 O123 2.035 . S
O118 Zn117 2.028 . S
O118 C124 1.247 . S
O119 Zn115 2.035 . S
O119 C124 1.258 . S
O120 C113 1.247 . S
O120 Zn117 2.028 . S
O121 C113 1.258 . S
O121 Zn115 2.035 . S
O122 Zn115 2.028 . S
O122 C125 1.247 . S
O123 Zn117 2.035 . S
O123 C125 1.258 . S
C124 O118 1.247 . S
C124 O119 1.258 . S
C125 O122 1.247 . S
C125 O123 1.258 . S
C126 O128 1.247 . S
C126 O130 1.258 . S
C127 O134 1.247 . S
C127 O135 1.258 . S
O128 C126 1.247 . S
O128 Zn129 2.028 . S
Zn129 O128 2.028 . S
Zn129 O133 2.035 . S
Zn129 O135 2.035 . S
Zn129 O136 2.028 . S
O130 C126 1.258 . S
O130 Zn131 2.035 . S
Zn131 O130 2.035 . S
Zn131 O132 2.028 . S
Zn131 O134 2.028 . S
Zn131 O137 2.035 . S
O132 Zn131 2.028 . S
O132 C138 1.247 . S
O133 Zn129 2.035 . S
O133 C138 1.258 . S
O134 C127 1.247 . S
O134 Zn131 2.028 . S
O135 C127 1.258 . S
O135 Zn129 2.035 . S
O136 Zn129 2.028 . S
O136 C139 1.247 . S
O137 Zn131 2.035 . S
O137 C139 1.258 . S
C138 O132 1.247 . S
C138 O133 1.258 . S
C139 O136 1.247 . S
C139 O137 1.258 . S
C140 O142 1.247 . S
C140 O144 1.258 . S
C141 O148 1.247 . S
C141 O149 1.258 . S
O142 C140 1.247 . S
O142 Zn143 2.028 . S
Zn143 O142 2.028 . S
Zn143 O147 2.035 . S
Zn143 O149 2.035 . S
Zn143 O150 2.028 . S
O144 C140 1.258 . S
O144 Zn145 2.035 . S
Zn145 O144 2.035 . S
Zn145 O146 2.028 . S
Zn145 O148 2.028 . S
Zn145 O151 2.035 . S
O146 Zn145 2.028 . S
O146 C152 1.247 . S
O147 Zn143 2.035 . S
O147 C152 1.258 . S
O148 C141 1.247 . S
O148 Zn145 2.028 . S
O149 C141 1.258 . S
O149 Zn143 2.035 . S
O150 Zn143 2.028 . S
O150 C153 1.247 . S
O151 Zn145 2.035 . S
O151 C153 1.258 . S
C152 O146 1.247 . S
C152 O147 1.258 . S
C153 O150 1.247 . S
C153 O151 1.258 . S
C154 O156 1.247 . S
C154 O158 1.258 . S
C155 O162 1.247 . S
C155 O163 1.258 . S
O156 C154 1.247 . S
O156 Zn157 2.028 . S
Zn157 O156 2.028 . S
Zn157 O161 2.035 . S
Zn157 O163 2.035 . S
Zn157 O164 2.028 . S
O158 C154 1.258 . S
O158 Zn159 2.035 . S
Zn159 O158 2.035 . S
Zn159 O160 2.028 . S
Zn159 O162 2.028 . S
Zn159 O165 2.035 . S
O160 Zn159 2.028 . S
O160 C166 1.247 . S
O161 Zn157 2.035 . S
O161 C166 1.258 . S
O162 C155 1.247 . S
O162 Zn159 2.028 . S
O163 C155 1.258 . S
O163 Zn157 2.035 . S
O164 Zn157 2.028 . S
O164 C167 1.247 . S
O165 Zn159 2.035 . S
O165 C167 1.258 . S
C166 O160 1.247 . S
C166 O161 1.258 . S
C167 O164 1.247 . S
C167 O165 1.258 . S
C168 C169 1.391 . S
C168 C170 1.394 . S
C168 H184 0.931 . S
C169 C168 1.391 . S
C169 C173 1.376 . S
C170 C168 1.394 . S
C170 C171 1.369 . S
C170 C174 1.531 . S
C171 C170 1.369 . S
C171 C172 1.410 . S
C171 C179 1.503 . S
C172 C171 1.410 . S
C172 C173 1.392 . S
C172 C175 1.511 . S
C173 C169 1.376 . S
C173 C172 1.392 . S
C173 H185 0.929 . S
C174 C170 1.531 . S
C174 H186 0.960 . S
C174 H187 0.962 . S
C174 H188 0.960 . S
C175 C172 1.511 . S
C175 H189 0.961 . S
C175 H190 0.961 . S
C175 H191 0.961 . S
C176 C177 1.370 . S
C176 C178 1.363 . S
C176 H192 0.931 . S
C177 C176 1.370 . S
C177 C181 1.408 . S
C178 C176 1.363 . S
C178 C179 1.370 . S
C178 C182 1.524 . S
C179 C171 1.503 . S
C179 C178 1.370 . S
C179 C180 1.403 . S
C180 C179 1.403 . S
C180 C181 1.404 . S
C180 C183 1.539 . S
C181 C177 1.408 . S
C181 C180 1.404 . S
C181 H193 0.930 . S
C182 C178 1.524 . S
C182 H194 0.956 . S
C182 H195 0.961 . S
C182 H196 0.961 . S
C183 C180 1.539 . S
C183 H197 0.958 . S
C183 H198 0.961 . S
C183 H199 0.960 . S
H184 C168 0.931 . S
H185 C173 0.929 . S
H186 C174 0.960 . S
H187 C174 0.962 . S
H188 C174 0.960 . S
H189 C175 0.961 . S
H190 C175 0.961 . S
H191 C175 0.961 . S
H192 C176 0.931 . S
H193 C181 0.930 . S
H194 C182 0.956 . S
H195 C182 0.961 . S
H196 C182 0.961 . S
H197 C183 0.958 . S
H198 C183 0.961 . S
H199 C183 0.960 . S
C200 C201 1.391 . S
C200 C202 1.394 . S
C200 H216 0.931 . S
C201 C200 1.391 . S
C201 C205 1.376 . S
C202 C200 1.394 . S
C202 C203 1.369 . S
C202 C206 1.531 . S
C203 C202 1.369 . S
C203 C204 1.410 . S
C203 C211 1.503 . S
C204 C203 1.410 . S
C204 C205 1.392 . S
C204 C207 1.511 . S
C205 C201 1.376 . S
C205 C204 1.392 . S
C205 H217 0.929 . S
C206 C202 1.531 . S
C206 H218 0.960 . S
C206 H219 0.962 . S
C206 H220 0.960 . S
C207 C204 1.511 . S
C207 H221 0.961 . S
C207 H222 0.961 . S
C207 H223 0.961 . S
C208 C209 1.370 . S
C208 C210 1.363 . S
C208 H224 0.931 . S
C209 C208 1.370 . S
C209 C213 1.408 . S
C210 C208 1.363 . S
C210 C211 1.370 . S
C210 C214 1.524 . S
C211 C203 1.503 . S
C211 C210 1.370 . S
C211 C212 1.403 . S
C212 C211 1.403 . S
C212 C213 1.404 . S
C212 C215 1.539 . S
C213 C209 1.408 . S
C213 C212 1.404 . S
C213 H225 0.930 . S
C214 C210 1.524 . S
C214 H226 0.956 . S
C214 H227 0.961 . S
C214 H228 0.961 . S
C215 C212 1.539 . S
C215 H229 0.958 . S
C215 H230 0.961 . S
C215 H231 0.960 . S
H216 C200 0.931 . S
H217 C205 0.929 . S
H218 C206 0.960 . S
H219 C206 0.962 . S
H220 C206 0.960 . S
H221 C207 0.961 . S
H222 C207 0.961 . S
H223 C207 0.961 . S
H224 C208 0.931 . S
H225 C213 0.930 . S
H226 C214 0.956 . S
H227 C214 0.961 . S
H228 C214 0.961 . S
H229 C215 0.958 . S
H230 C215 0.961 . S
H231 C215 0.960 . S
C232 C233 1.391 . S
C232 C234 1.394 . S
C232 H248 0.931 . S
C233 C232 1.391 . S
C233 C237 1.376 . S
C234 C232 1.394 . S
C234 C235 1.369 . S
C234 C238 1.531 . S
C235 C234 1.369 . S
C235 C236 1.410 . S
C235 C243 1.503 . S
C236 C235 1.410 . S
C236 C237 1.392 . S
C236 C239 1.511 . S
C237 C233 1.376 . S
C237 C236 1.392 . S
C237 H249 0.929 . S
C238 C234 1.531 . S
C238 H250 0.960 . S
C238 H251 0.962 . S
C238 H252 0.960 . S
C239 C236 1.511 . S
C239 H253 0.961 . S
C239 H254 0.961 . S
C239 H255 0.961 . S
C240 C241 1.370 . S
C240 C242 1.363 . S
C240 H256 0.931 . S
C241 C240 1.370 . S
C241 C245 1.408 . S
C242 C240 1.363 . S
C242 C243 1.370 . S
C242 C246 1.524 . S
C243 C235 1.503 . S
C243 C242 1.370 . S
C243 C244 1.403 . S
C244 C243 1.403 . S
C244 C245 1.404 . S
C244 C247 1.539 . S
C245 C241 1.408 . S
C245 C244 1.404 . S
C245 H257 0.930 . S
C246 C242 1.524 . S
C246 H258 0.956 . S
C246 H259 0.961 . S
C246 H260 0.961 . S
C247 C244 1.539 . S
C247 H261 0.958 . S
C247 H262 0.961 . S
C247 H263 0.960 . S
H248 C232 0.931 . S
H249 C237 0.929 . S
H250 C238 0.960 . S
H251 C238 0.962 . S
H252 C238 0.960 . S
H253 C239 0.961 . S
H254 C239 0.961 . S
H255 C239 0.961 . S
H256 C240 0.931 . S
H257 C245 0.930 . S
H258 C246 0.956 . S
H259 C246 0.961 . S
H260 C246 0.961 . S
H261 C247 0.958 . S
H262 C247 0.961 . S
H263 C247 0.960 . S
C264 C265 1.391 . S
C264 C266 1.394 . S
C264 H280 0.931 . S
C265 C264 1.391 . S
C265 C269 1.376 . S
C266 C264 1.394 . S
C266 C267 1.369 . S
C266 C270 1.531 . S
C267 C266 1.369 . S
C267 C268 1.410 . S
C267 C275 1.503 . S
C268 C267 1.410 . S
C268 C269 1.392 . S
C268 C271 1.511 . S
C269 C265 1.376 . S
C269 C268 1.392 . S
C269 H281 0.929 . S
C270 C266 1.531 . S
C270 H282 0.960 . S
C270 H283 0.962 . S
C270 H284 0.960 . S
C271 C268 1.511 . S
C271 H285 0.961 . S
C271 H286 0.961 . S
C271 H287 0.961 . S
C272 C273 1.370 . S
C272 C274 1.363 . S
C272 H288 0.931 . S
C273 C272 1.370 . S
C273 C277 1.408 . S
C274 C272 1.363 . S
C274 C275 1.370 . S
C274 C278 1.524 . S
C275 C267 1.503 . S
C275 C274 1.370 . S
C275 C276 1.403 . S
C276 C275 1.403 . S
C276 C277 1.404 . S
C276 C279 1.539 . S
C277 C273 1.408 . S
C277 C276 1.404 . S
C277 H289 0.930 . S
C278 C274 1.524 . S
C278 H290 0.956 . S
C278 H291 0.961 . S
C278 H292 0.961 . S
C279 C276 1.539 . S
C279 H293 0.958 . S
C279 H294 0.961 . S
C279 H295 0.960 . S
H280 C264 0.931 . S
H281 C269 0.929 . S
H282 C270 0.960 . S
H283 C270 0.962 . S
H284 C270 0.960 . S
H285 C271 0.961 . S
H286 C271 0.961 . S
H287 C271 0.961 . S
H288 C272 0.931 . S
H289 C277 0.930 . S
H290 C278 0.956 . S
H291 C278 0.961 . S
H292 C278 0.961 . S
H293 C279 0.958 . S
H294 C279 0.961 . S
H295 C279 0.960 . S
C296 C297 1.391 . S
C296 C298 1.394 . S
C296 H312 0.931 . S
C297 C296 1.391 . S
C297 C301 1.376 . S
C298 C296 1.394 . S
C298 C299 1.369 . S
C298 C302 1.531 . S
C299 C298 1.369 . S
C299 C300 1.410 . S
C299 C307 1.503 . S
C300 C299 1.410 . S
C300 C301 1.392 . S
C300 C303 1.511 . S
C301 C297 1.376 . S
C301 C300 1.392 . S
C301 H313 0.929 . S
C302 C298 1.531 . S
C302 H314 0.960 . S
C302 H315 0.962 . S
C302 H316 0.960 . S
C303 C300 1.511 . S
C303 H317 0.961 . S
C303 H318 0.961 . S
C303 H319 0.961 . S
C304 C305 1.370 . S
C304 C306 1.363 . S
C304 H320 0.931 . S
C305 C304 1.370 . S
C305 C309 1.408 . S
C306 C304 1.363 . S
C306 C307 1.370 . S
C306 C310 1.524 . S
C307 C299 1.503 . S
C307 C306 1.370 . S
C307 C308 1.403 . S
C308 C307 1.403 . S
C308 C309 1.404 . S
C308 C311 1.539 . S
C309 C305 1.408 . S
C309 C308 1.404 . S
C309 H321 0.930 . S
C310 C306 1.524 . S
C310 H322 0.956 . S
C310 H323 0.961 . S
C310 H324 0.961 . S
C311 C308 1.539 . S
C311 H325 0.958 . S
C311 H326 0.961 . S
C311 H327 0.960 . S
H312 C296 0.931 . S
H313 C301 0.929 . S
H314 C302 0.960 . S
H315 C302 0.962 . S
H316 C302 0.960 . S
H317 C303 0.961 . S
H318 C303 0.961 . S
H319 C303 0.961 . S
H320 C304 0.931 . S
H321 C309 0.930 . S
H322 C310 0.956 . S
H323 C310 0.961 . S
H324 C310 0.961 . S
H325 C311 0.958 . S
H326 C311 0.961 . S
H327 C311 0.960 . S
C328 C329 1.391 . S
C328 C330 1.394 . S
C328 H344 0.931 . S
C329 C328 1.391 . S
C329 C333 1.376 . S
C330 C328 1.394 . S
C330 C331 1.369 . S
C330 C334 1.531 . S
C331 C330 1.369 . S
C331 C332 1.410 . S
C331 C339 1.503 . S
C332 C331 1.410 . S
C332 C333 1.392 . S
C332 C335 1.511 . S
C333 C329 1.376 . S
C333 C332 1.392 . S
C333 H345 0.929 . S
C334 C330 1.531 . S
C334 H346 0.960 . S
C334 H347 0.962 . S
C334 H348 0.960 . S
C335 C332 1.511 . S
C335 H349 0.961 . S
C335 H350 0.961 . S
C335 H351 0.961 . S
C336 C337 1.370 . S
C336 C338 1.363 . S
C336 H352 0.931 . S
C337 C336 1.370 . S
C337 C341 1.408 . S
C338 C336 1.363 . S
C338 C339 1.370 . S
C338 C342 1.524 . S
C339 C331 1.503 . S
C339 C338 1.370 . S
C339 C340 1.403 . S
C340 C339 1.403 . S
C340 C341 1.404 . S
C340 C343 1.539 . S
C341 C337 1.408 . S
C341 C340 1.404 . S
C341 H353 0.930 . S
C342 C338 1.524 . S
C342 H354 0.956 . S
C342 H355 0.961 . S
C342 H356 0.961 . S
C343 C340 1.539 . S
C343 H357 0.958 . S
C343 H358 0.961 . S
C343 H359 0.960 . S
H344 C328 0.931 . S
H345 C333 0.929 . S
H346 C334 0.960 . S
H347 C334 0.962 . S
H348 C334 0.960 . S
H349 C335 0.961 . S
H350 C335 0.961 . S
H351 C335 0.961 . S
H352 C336 0.931 . S
H353 C341 0.930 . S
H354 C342 0.956 . S
H355 C342 0.961 . S
H356 C342 0.961 . S
H357 C343 0.958 . S
H358 C343 0.961 . S
H359 C343 0.960 . S
C360 C361 1.391 . S
C360 C362 1.394 . S
C360 H376 0.931 . S
C361 C360 1.391 . S
C361 C365 1.376 . S
C362 C360 1.394 . S
C362 C363 1.369 . S
C362 C366 1.531 . S
C363 C362 1.369 . S
C363 C364 1.410 . S
C363 C371 1.503 . S
C364 C363 1.410 . S
C364 C365 1.392 . S
C364 C367 1.511 . S
C365 C361 1.376 . S
C365 C364 1.392 . S
C365 H377 0.929 . S
C366 C362 1.531 . S
C366 H378 0.960 . S
C366 H379 0.962 . S
C366 H380 0.960 . S
C367 C364 1.511 . S
C367 H381 0.961 . S
C367 H382 0.961 . S
C367 H383 0.961 . S
C368 C369 1.370 . S
C368 C370 1.363 . S
C368 H384 0.931 . S
C369 C368 1.370 . S
C369 C373 1.408 . S
C370 C368 1.363 . S
C370 C371 1.370 . S
C370 C374 1.524 . S
C371 C363 1.503 . S
C371 C370 1.370 . S
C371 C372 1.403 . S
C372 C371 1.403 . S
C372 C373 1.404 . S
C372 C375 1.539 . S
C373 C369 1.408 . S
C373 C372 1.404 . S
C373 H385 0.930 . S
C374 C370 1.524 . S
C374 H386 0.956 . S
C374 H387 0.961 . S
C374 H388 0.961 . S
C375 C372 1.539 . S
C375 H389 0.958 . S
C375 H390 0.961 . S
C375 H391 0.960 . S
H376 C360 0.931 . S
H377 C365 0.929 . S
H378 C366 0.960 . S
H379 C366 0.962 . S
H380 C366 0.960 . S
H381 C367 0.961 . S
H382 C367 0.961 . S
H383 C367 0.961 . S
H384 C368 0.931 . S
H385 C373 0.930 . S
H386 C374 0.956 . S
H387 C374 0.961 . S
H388 C374 0.961 . S
H389 C375 0.958 . S
H390 C375 0.961 . S
H391 C375 0.960 . S
C392 C393 1.391 . S
C392 C394 1.394 . S
C392 H408 0.931 . S
C393 C392 1.391 . S
C393 C397 1.376 . S
C394 C392 1.394 . S
C394 C395 1.369 . S
C394 C398 1.531 . S
C395 C394 1.369 . S
C395 C396 1.410 . S
C395 C403 1.503 . S
C396 C395 1.410 . S
C396 C397 1.392 . S
C396 C399 1.511 . S
C397 C393 1.376 . S
C397 C396 1.392 . S
C397 H409 0.929 . S
C398 C394 1.531 . S
C398 H410 0.960 . S
C398 H411 0.962 . S
C398 H412 0.960 . S
C399 C396 1.511 . S
C399 H413 0.961 . S
C399 H414 0.961 . S
C399 H415 0.961 . S
C400 C401 1.370 . S
C400 C402 1.363 . S
C400 H416 0.931 . S
C401 C400 1.370 . S
C401 C405 1.408 . S
C402 C400 1.363 . S
C402 C403 1.370 . S
C402 C406 1.524 . S
C403 C395 1.503 . S
C403 C402 1.370 . S
C403 C404 1.403 . S
C404 C403 1.403 . S
C404 C405 1.404 . S
C404 C407 1.539 . S
C405 C401 1.408 . S
C405 C404 1.404 . S
C405 H417 0.930 . S
C406 C402 1.524 . S
C406 H418 0.956 . S
C406 H419 0.961 . S
C406 H420 0.961 . S
C407 C404 1.539 . S
C407 H421 0.958 . S
C407 H422 0.961 . S
C407 H423 0.960 . S
H408 C392 0.931 . S
H409 C397 0.929 . S
H410 C398 0.960 . S
H411 C398 0.962 . S
H412 C398 0.960 . S
H413 C399 0.961 . S
H414 C399 0.961 . S
H415 C399 0.961 . S
H416 C400 0.931 . S
H417 C405 0.930 . S
H418 C406 0.956 . S
H419 C406 0.961 . S
H420 C406 0.961 . S
H421 C407 0.958 . S
H422 C407 0.961 . S
H423 C407 0.960 . S
C424 C425 1.395 . S
C424 C426 1.394 . S
C424 H440 0.931 . S
C425 C424 1.395 . S
C425 C429 1.379 . S
C426 C424 1.394 . S
C426 C427 1.369 . S
C426 C430 1.531 . S
C427 C426 1.369 . S
C427 C428 1.410 . S
C427 C435 1.503 . S
C428 C427 1.410 . S
C428 C429 1.392 . S
C428 C431 1.511 . S
C429 C425 1.379 . S
C429 C428 1.392 . S
C429 H441 0.929 . S
C430 C426 1.531 . S
C430 H442 0.960 . S
C430 H443 0.962 . S
C430 H444 0.960 . S
C431 C428 1.511 . S
C431 H445 0.961 . S
C431 H446 0.961 . S
C431 H447 0.961 . S
C432 C433 1.370 . S
C432 C434 1.363 . S
C432 H448 0.931 . S
C433 C432 1.370 . S
C433 C437 1.408 . S
C434 C432 1.363 . S
C434 C435 1.370 . S
C434 C438 1.524 . S
C435 C427 1.503 . S
C435 C434 1.370 . S
C435 C436 1.403 . S
C436 C435 1.403 . S
C436 C437 1.404 . S
C436 C439 1.539 . S
C437 C433 1.408 . S
C437 C436 1.404 . S
C437 H449 0.930 . S
C438 C434 1.524 . S
C438 H450 0.956 . S
C438 H451 0.961 . S
C438 H452 0.961 . S
C439 C436 1.539 . S
C439 H453 0.958 . S
C439 H454 0.961 . S
C439 H455 0.960 . S
H440 C424 0.931 . S
H441 C429 0.929 . S
H442 C430 0.960 . S
H443 C430 0.962 . S
H444 C430 0.960 . S
H445 C431 0.961 . S
H446 C431 0.961 . S
H447 C431 0.961 . S
H448 C432 0.931 . S
H449 C437 0.930 . S
H450 C438 0.956 . S
H451 C438 0.961 . S
H452 C438 0.961 . S
H453 C439 0.958 . S
H454 C439 0.961 . S
H455 C439 0.960 . S
C456 C457 1.391 . S
C456 C458 1.394 . S
C456 H472 0.931 . S
C457 C456 1.391 . S
C457 C461 1.376 . S
C458 C456 1.394 . S
C458 C459 1.369 . S
C458 C462 1.531 . S
C459 C458 1.369 . S
C459 C460 1.410 . S
C459 C467 1.503 . S
C460 C459 1.410 . S
C460 C461 1.392 . S
C460 C463 1.511 . S
C461 C457 1.376 . S
C461 C460 1.392 . S
C461 H473 0.929 . S
C462 C458 1.531 . S
C462 H474 0.960 . S
C462 H475 0.962 . S
C462 H476 0.960 . S
C463 C460 1.511 . S
C463 H477 0.961 . S
C463 H478 0.961 . S
C463 H479 0.961 . S
C464 C465 1.349 1_554 S
C464 C466 1.363 . S
C464 H480 0.931 . S
C465 C464 1.349 1_556 S
C465 C469 1.403 1_556 S
C466 C464 1.363 . S
C466 C467 1.370 . S
C466 C470 1.524 . S
C467 C459 1.503 . S
C467 C466 1.370 . S
C467 C468 1.403 . S
C468 C467 1.403 . S
C468 C469 1.404 . S
C468 C471 1.539 . S
C469 C465 1.403 1_554 S
C469 C468 1.404 . S
C469 H481 0.930 1_554 S
C470 C466 1.524 . S
C470 H482 0.956 . S
C470 H483 0.961 . S
C470 H484 0.961 . S
C471 C468 1.539 . S
C471 H485 0.958 . S
C471 H486 0.961 . S
C471 H487 0.960 . S
H472 C456 0.931 . S
H473 C461 0.929 . S
H474 C462 0.960 . S
H475 C462 0.962 . S
H476 C462 0.960 . S
H477 C463 0.961 . S
H478 C463 0.961 . S
H479 C463 0.961 . S
H480 C464 0.931 . S
H481 C469 0.930 1_556 S
H482 C470 0.956 . S
H483 C470 0.961 . S
H484 C470 0.961 . S
H485 C471 0.958 . S
H486 C471 0.961 . S
H487 C471 0.960 . S
C488 C489 1.391 . S
C488 C490 1.394 . S
C488 H504 0.931 . S
C489 C488 1.391 . S
C489 C493 1.376 . S
C490 C488 1.394 . S
C490 C491 1.369 . S
C490 C494 1.531 . S
C491 C490 1.369 . S
C491 C492 1.410 . S
C491 C499 1.503 . S
C492 C491 1.410 . S
C492 C493 1.392 . S
C492 C495 1.511 . S
C493 C489 1.376 . S
C493 C492 1.392 . S
C493 H505 0.929 . S
C494 C490 1.531 . S
C494 H506 0.960 . S
C494 H507 0.962 . S
C494 H508 0.960 . S
C495 C492 1.511 . S
C495 H509 0.961 . S
C495 H510 0.961 . S
C495 H511 0.961 . S
C496 C497 1.370 . S
C496 C498 1.363 . S
C496 H512 0.931 . S
C497 C496 1.370 . S
C497 C501 1.408 . S
C498 C496 1.363 . S
C498 C499 1.370 . S
C498 C502 1.524 . S
C499 C491 1.503 . S
C499 C498 1.370 . S
C499 C500 1.403 . S
C500 C499 1.403 . S
C500 C501 1.404 . S
C500 C503 1.539 . S
C501 C497 1.408 . S
C501 C500 1.404 . S
C501 H513 0.930 . S
C502 C498 1.524 . S
C502 H514 0.956 . S
C502 H515 0.961 . S
C502 H516 0.961 . S
C503 C500 1.539 . S
C503 H517 0.958 . S
C503 H518 0.961 . S
C503 H519 0.960 . S
H504 C488 0.931 . S
H505 C493 0.929 . S
H506 C494 0.960 . S
H507 C494 0.962 . S
H508 C494 0.960 . S
H509 C495 0.961 . S
H510 C495 0.961 . S
H511 C495 0.961 . S
H512 C496 0.931 . S
H513 C501 0.930 . S
H514 C502 0.956 . S
H515 C502 0.961 . S
H516 C502 0.961 . S
H517 C503 0.958 . S
H518 C503 0.961 . S
H519 C503 0.960 . S
C520 C521 1.391 . S
C520 C522 1.394 . S
C520 H536 0.931 . S
C521 C520 1.391 . S
C521 C525 1.376 . S
C522 C520 1.394 . S
C522 C523 1.369 . S
C522 C526 1.531 . S
C523 C522 1.369 . S
C523 C524 1.410 . S
C523 C531 1.503 . S
C524 C523 1.410 . S
C524 C525 1.392 . S
C524 C527 1.511 . S
C525 C521 1.376 . S
C525 C524 1.392 . S
C525 H537 0.929 . S
C526 C522 1.531 . S
C526 H538 0.960 . S
C526 H539 0.962 . S
C526 H540 0.960 . S
C527 C524 1.511 . S
C527 H541 0.961 . S
C527 H542 0.961 . S
C527 H543 0.961 . S
C528 C529 1.370 . S
C528 C530 1.363 . S
C528 H544 0.931 . S
C529 C528 1.370 . S
C529 C533 1.408 . S
C530 C528 1.363 . S
C530 C531 1.370 . S
C530 C534 1.524 . S
C531 C523 1.503 . S
C531 C530 1.370 . S
C531 C532 1.403 . S
C532 C531 1.403 . S
C532 C533 1.404 . S
C532 C535 1.539 . S
C533 C529 1.408 . S
C533 C532 1.404 . S
C533 H545 0.930 . S
C534 C530 1.524 . S
C534 H546 0.956 . S
C534 H547 0.961 . S
C534 H548 0.961 . S
C535 C532 1.539 . S
C535 H549 0.958 . S
C535 H550 0.961 . S
C535 H551 0.960 . S
H536 C520 0.931 . S
H537 C525 0.929 . S
H538 C526 0.960 . S
H539 C526 0.962 . S
H540 C526 0.960 . S
H541 C527 0.961 . S
H542 C527 0.961 . S
H543 C527 0.961 . S
H544 C528 0.931 . S
H545 C533 0.930 . S
H546 C534 0.956 . S
H547 C534 0.961 . S
H548 C534 0.961 . S
H549 C535 0.958 . S
H550 C535 0.961 . S
H551 C535 0.960 . S
C552 C553 1.391 . S
C552 C554 1.394 . S
C552 H568 0.931 . S
C553 C552 1.391 . S
C553 C557 1.376 . S
C554 C552 1.394 . S
C554 C555 1.369 . S
C554 C558 1.531 . S
C555 C554 1.369 . S
C555 C556 1.410 . S
C555 C563 1.503 1_655 S
C556 C555 1.410 . S
C556 C557 1.392 . S
C556 C559 1.511 1_655 S
C557 C553 1.376 . S
C557 C556 1.392 . S
C557 H569 0.929 . S
C558 C554 1.531 . S
C558 H570 0.960 . S
C558 H571 0.962 . S
C558 H572 0.960 . S
C559 C556 1.511 1_455 S
C559 H573 0.961 . S
C559 H574 0.961 . S
C559 H575 0.961 . S
C560 C561 1.370 . S
C560 C562 1.363 . S
C560 H576 0.931 . S
C561 C560 1.370 . S
C561 C565 1.408 . S
C562 C560 1.363 . S
C562 C563 1.370 . S
C562 C566 1.524 . S
C563 C555 1.503 1_455 S
C563 C562 1.370 . S
C563 C564 1.403 . S
C564 C563 1.403 . S
C564 C565 1.404 . S
C564 C567 1.539 . S
C565 C561 1.408 . S
C565 C564 1.404 . S
C565 H577 0.930 . S
C566 C562 1.524 . S
C566 H578 0.956 1_455 S
C566 H579 0.961 . S
C566 H580 0.961 . S
C567 C564 1.539 . S
C567 H581 0.958 . S
C567 H582 0.961 . S
C567 H583 0.960 . S
H568 C552 0.931 . S
H569 C557 0.929 . S
H570 C558 0.960 . S
H571 C558 0.962 . S
H572 C558 0.960 . S
H573 C559 0.961 . S
H574 C559 0.961 . S
H575 C559 0.961 . S
H576 C560 0.931 . S
H577 C565 0.930 . S
H578 C566 0.956 1_655 S
H579 C566 0.961 . S
H580 C566 0.961 . S
H581 C567 0.958 . S
H582 C567 0.961 . S
H583 C567 0.960 . S
C584 C585 1.391 . S
C584 C586 1.394 . S
C584 H600 0.931 . S
C585 C584 1.391 . S
C585 C589 1.376 . S
C586 C584 1.394 . S
C586 C587 1.369 . S
C586 C590 1.531 . S
C587 C586 1.369 . S
C587 C588 1.410 . S
C587 C595 1.503 1_565 S
C588 C587 1.410 . S
C588 C589 1.392 . S
C588 C591 1.509 1_565 S
C589 C585 1.376 . S
C589 C588 1.392 . S
C589 H601 0.929 . S
C590 C586 1.531 . S
C590 H602 0.960 . S
C590 H603 0.962 . S
C590 H604 0.960 . S
C591 C588 1.509 1_545 S
C591 H605 0.958 1_545 S
C591 H606 0.973 . S
C591 H607 0.954 1_545 S
C592 C593 1.370 . S
C592 C594 1.363 . S
C592 H608 0.931 . S
C593 C592 1.370 . S
C593 C597 1.408 . S
C594 C592 1.363 . S
C594 C595 1.370 . S
C594 C598 1.524 . S
C595 C587 1.503 1_545 S
C595 C594 1.370 . S
C595 C596 1.403 . S
C596 C595 1.403 . S
C596 C597 1.404 . S
C596 C599 1.539 1_545 S
C597 C593 1.408 . S
C597 C596 1.404 . S
C597 H609 0.930 . S
C598 C594 1.524 . S
C598 H610 0.956 . S
C598 H611 0.961 . S
C598 H612 0.961 . S
C599 C596 1.539 1_565 S
C599 H613 0.958 . S
C599 H614 0.961 1_565 S
C599 H615 0.960 . S
H600 C584 0.931 . S
H601 C589 0.929 . S
H602 C590 0.960 . S
H603 C590 0.962 . S
H604 C590 0.960 . S
H605 C591 0.958 1_565 S
H606 C591 0.973 . S
H607 C591 0.954 1_565 S
H608 C592 0.931 . S
H609 C597 0.930 . S
H610 C598 0.956 . S
H611 C598 0.961 . S
H612 C598 0.961 . S
H613 C599 0.958 . S
H614 C599 0.961 1_545 S
H615 C599 0.960 . S
C616 C617 1.391 . S
C616 C618 1.394 . S
C616 H632 0.931 . S
C617 C616 1.391 . S
C617 C621 1.376 . S
C618 C616 1.394 . S
C618 C619 1.369 . S
C618 C622 1.531 . S
C619 C618 1.369 . S
C619 C620 1.410 . S
C619 C627 1.503 . S
C620 C619 1.410 . S
C620 C621 1.392 . S
C620 C623 1.511 . S
C621 C617 1.376 . S
C621 C620 1.392 . S
C621 H633 0.929 . S
C622 C618 1.531 . S
C622 H634 0.960 . S
C622 H635 0.962 . S
C622 H636 0.960 . S
C623 C620 1.511 . S
C623 H637 0.961 . S
C623 H638 0.961 . S
C623 H639 0.961 . S
C624 C625 1.370 . S
C624 C626 1.363 . S
C624 H640 0.931 . S
C625 C624 1.370 . S
C625 C629 1.408 . S
C626 C624 1.363 . S
C626 C627 1.370 . S
C626 C630 1.524 . S
C627 C619 1.503 . S
C627 C626 1.370 . S
C627 C628 1.403 . S
C628 C627 1.403 . S
C628 C629 1.404 . S
C628 C631 1.539 . S
C629 C625 1.408 . S
C629 C628 1.404 . S
C629 H641 0.930 . S
C630 C626 1.524 . S
C630 H642 0.956 . S
C630 H643 0.961 . S
C630 H644 0.961 . S
C631 C628 1.539 . S
C631 H645 0.958 . S
C631 H646 0.961 . S
C631 H647 0.960 . S
H632 C616 0.931 . S
H633 C621 0.929 . S
H634 C622 0.960 . S
H635 C622 0.962 . S
H636 C622 0.960 . S
H637 C623 0.961 . S
H638 C623 0.961 . S
H639 C623 0.961 . S
H640 C624 0.931 . S
H641 C629 0.930 . S
H642 C630 0.956 . S
H643 C630 0.961 . S
H644 C630 0.961 . S
H645 C631 0.958 . S
H646 C631 0.961 . S
H647 C631 0.960 . S
C648 C649 1.391 . S
C648 C650 1.394 . S
C648 H664 0.931 . S
C649 C648 1.391 . S
C649 C653 1.376 . S
C650 C648 1.394 . S
C650 C651 1.369 . S
C650 C654 1.531 . S
C651 C650 1.369 . S
C651 C652 1.410 . S
C651 C659 1.503 1_455 S
C652 C651 1.410 . S
C652 C653 1.392 . S
C652 C655 1.511 1_455 S
C653 C649 1.376 . S
C653 C652 1.392 . S
C653 H665 0.929 . S
C654 C650 1.531 . S
C654 H666 0.960 . S
C654 H667 0.962 . S
C654 H668 0.960 . S
C655 C652 1.511 1_655 S
C655 H669 0.961 . S
C655 H670 0.961 . S
C655 H671 0.961 . S
C656 C657 1.370 . S
C656 C658 1.363 . S
C656 H672 0.931 . S
C657 C656 1.370 . S
C657 C661 1.408 . S
C658 C656 1.363 . S
C658 C659 1.370 . S
C658 C662 1.524 . S
C659 C651 1.503 1_655 S
C659 C658 1.370 . S
C659 C660 1.403 . S
C660 C659 1.403 . S
C660 C661 1.404 . S
C660 C663 1.539 . S
C661 C657 1.408 . S
C661 C660 1.404 . S
C661 H673 0.930 . S
C662 C658 1.524 . S
C662 H674 0.956 . S
C662 H675 0.961 . S
C662 H676 0.961 . S
C663 C660 1.539 . S
C663 H677 0.958 1_655 S
C663 H678 0.961 . S
C663 H679 0.960 1_655 S
H664 C648 0.931 . S
H665 C653 0.929 . S
H666 C654 0.960 . S
H667 C654 0.962 . S
H668 C654 0.960 . S
H669 C655 0.961 . S
H670 C655 0.961 . S
H671 C655 0.961 . S
H672 C656 0.931 . S
H673 C661 0.930 . S
H674 C662 0.956 . S
H675 C662 0.961 . S
H676 C662 0.961 . S
H677 C663 0.958 1_455 S
H678 C663 0.961 . S
H679 C663 0.960 1_455 S
C680 C681 1.391 . S
C680 C682 1.394 . S
C680 H696 0.931 . S
C681 C680 1.391 . S
C681 C685 1.376 . S
C682 C680 1.394 . S
C682 C683 1.369 . S
C682 C686 1.531 1_545 S
C683 C682 1.369 . S
C683 C684 1.410 1_556 S
C683 C691 1.503 1_546 S
C684 C683 1.410 1_554 S
C684 C685 1.392 1_554 S
C684 C687 1.511 . S
C685 C681 1.376 . S
C685 C684 1.392 1_556 S
C685 H697 0.929 1_556 S
C686 C682 1.531 1_565 S
C686 H698 0.960 . S
C686 H699 0.962 . S
C686 H700 0.960 . S
C687 C684 1.511 . S
C687 H701 0.961 . S
C687 H702 0.961 . S
C687 H703 0.961 . S
C688 C689 1.370 . S
C688 C690 1.363 . S
C688 H704 0.931 . S
C689 C688 1.370 . S
C689 C693 1.408 . S
C690 C688 1.363 . S
C690 C691 1.370 . S
C690 C694 1.524 . S
C691 C683 1.503 1_564 S
C691 C690 1.370 . S
C691 C692 1.403 . S
C692 C691 1.403 . S
C692 C693 1.404 . S
C692 C695 1.539 1_554 S
C693 C689 1.408 . S
C693 C692 1.404 . S
C693 H705 0.930 . S
C694 C690 1.524 . S
C694 H706 0.956 1_554 S
C694 H707 0.961 1_565 S
C694 H708 0.961 . S
C695 C692 1.539 1_556 S
C695 H709 0.958 . S
C695 H710 0.961 1_556 S
C695 H711 0.960 . S
H696 C680 0.931 . S
H697 C685 0.929 1_554 S
H698 C686 0.960 . S
H699 C686 0.962 . S
H700 C686 0.960 . S
H701 C687 0.961 . S
H702 C687 0.961 . S
H703 C687 0.961 . S
H704 C688 0.931 . S
H705 C693 0.930 . S
H706 C694 0.956 1_556 S
H707 C694 0.961 1_545 S
H708 C694 0.961 . S
H709 C695 0.958 . S
H710 C695 0.961 1_554 S
H711 C695 0.960 . S
C712 C713 1.391 . S
C712 C714 1.394 . S
C712 H728 0.931 . S
C713 C712 1.391 . S
C713 C717 1.376 . S
C714 C712 1.394 . S
C714 C715 1.369 . S
C714 C718 1.531 . S
C715 C714 1.369 . S
C715 C716 1.410 . S
C715 C723 1.503 . S
C716 C715 1.410 . S
C716 C717 1.392 . S
C716 C719 1.511 . S
C717 C713 1.376 . S
C717 C716 1.392 . S
C717 H729 0.929 . S
C718 C714 1.531 . S
C718 H730 0.960 . S
C718 H731 0.962 . S
C718 H732 0.960 . S
C719 C716 1.511 . S
C719 H733 0.961 . S
C719 H734 0.961 . S
C719 H735 0.961 . S
C720 C721 1.370 . S
C720 C722 1.363 . S
C720 H736 0.931 . S
C721 C720 1.370 . S
C721 C725 1.408 . S
C722 C720 1.363 . S
C722 C723 1.370 . S
C722 C726 1.524 . S
C723 C715 1.503 . S
C723 C722 1.370 . S
C723 C724 1.403 . S
C724 C723 1.403 . S
C724 C725 1.404 . S
C724 C727 1.539 . S
C725 C721 1.408 . S
C725 C724 1.404 . S
C725 H737 0.930 . S
C726 C722 1.524 . S
C726 H738 0.956 . S
C726 H739 0.961 . S
C726 H740 0.961 . S
C727 C724 1.539 . S
C727 H741 0.958 . S
C727 H742 0.961 . S
C727 H743 0.960 . S
H728 C712 0.931 . S
H729 C717 0.929 . S
H730 C718 0.960 . S
H731 C718 0.962 . S
H732 C718 0.960 . S
H733 C719 0.961 . S
H734 C719 0.961 . S
H735 C719 0.961 . S
H736 C720 0.931 . S
H737 C725 0.930 . S
H738 C726 0.956 . S
H739 C726 0.961 . S
H740 C726 0.961 . S
H741 C727 0.958 . S
H742 C727 0.961 . S
H743 C727 0.960 . S
C744 C745 1.391 . S
C744 C746 1.394 . S
C744 H760 0.931 . S
C745 C744 1.391 . S
C745 C749 1.376 . S
C746 C744 1.394 . S
C746 C747 1.369 . S
C746 C750 1.531 . S
C747 C746 1.369 . S
C747 C748 1.410 . S
C747 C755 1.503 . S
C748 C747 1.410 . S
C748 C749 1.392 . S
C748 C751 1.511 . S
C749 C745 1.376 . S
C749 C748 1.392 . S
C749 H761 0.929 . S
C750 C746 1.531 . S
C750 H762 0.960 . S
C750 H763 0.962 . S
C750 H764 0.960 . S
C751 C748 1.511 . S
C751 H765 0.961 . S
C751 H766 0.961 . S
C751 H767 0.961 . S
C752 C753 1.370 . S
C752 C754 1.363 . S
C752 H768 0.931 . S
C753 C752 1.370 . S
C753 C757 1.408 . S
C754 C752 1.363 . S
C754 C755 1.370 . S
C754 C758 1.524 . S
C755 C747 1.503 . S
C755 C754 1.370 . S
C755 C756 1.403 . S
C756 C755 1.403 . S
C756 C757 1.404 . S
C756 C759 1.539 . S
C757 C753 1.408 . S
C757 C756 1.404 . S
C757 H769 0.930 . S
C758 C754 1.524 . S
C758 H770 0.956 . S
C758 H771 0.961 . S
C758 H772 0.961 . S
C759 C756 1.539 . S
C759 H773 0.958 . S
C759 H774 0.961 . S
C759 H775 0.960 . S
H760 C744 0.931 . S
H761 C749 0.929 . S
H762 C750 0.960 . S
H763 C750 0.962 . S
H764 C750 0.960 . S
H765 C751 0.961 . S
H766 C751 0.961 . S
H767 C751 0.961 . S
H768 C752 0.931 . S
H769 C757 0.930 . S
H770 C758 0.956 . S
H771 C758 0.961 . S
H772 C758 0.961 . S
H773 C759 0.958 . S
H774 C759 0.961 . S
H775 C759 0.960 . S
C776 C777 1.391 . S
C776 C778 1.394 . S
C776 H792 0.931 . S
C777 C776 1.391 . S
C777 C781 1.376 . S
C778 C776 1.394 . S
C778 C779 1.369 . S
C778 C782 1.531 . S
C779 C778 1.369 . S
C779 C780 1.410 . S
C779 C787 1.503 . S
C780 C779 1.410 . S
C780 C781 1.392 . S
C780 C783 1.511 . S
C781 C777 1.376 . S
C781 C780 1.392 . S
C781 H793 0.929 . S
C782 C778 1.531 . S
C782 H794 0.960 . S
C782 H795 0.962 . S
C782 H796 0.960 . S
C783 C780 1.511 . S
C783 H797 0.961 . S
C783 H798 0.961 . S
C783 H799 0.961 . S
C784 C785 1.370 . S
C784 C786 1.363 . S
C784 H800 0.931 . S
C785 C784 1.370 . S
C785 C789 1.408 . S
C786 C784 1.363 . S
C786 C787 1.370 . S
C786 C790 1.524 . S
C787 C779 1.503 . S
C787 C786 1.370 . S
C787 C788 1.403 . S
C788 C787 1.403 . S
C788 C789 1.404 . S
C788 C791 1.539 . S
C789 C785 1.408 . S
C789 C788 1.404 . S
C789 H801 0.930 . S
C790 C786 1.524 . S
C790 H802 0.956 . S
C790 H803 0.961 . S
C790 H804 0.961 . S
C791 C788 1.539 . S
C791 H805 0.958 . S
C791 H806 0.961 . S
C791 H807 0.960 . S
H792 C776 0.931 . S
H793 C781 0.929 . S
H794 C782 0.960 . S
H795 C782 0.962 . S
H796 C782 0.960 . S
H797 C783 0.961 . S
H798 C783 0.961 . S
H799 C783 0.961 . S
H800 C784 0.931 . S
H801 C789 0.930 . S
H802 C790 0.956 . S
H803 C790 0.961 . S
H804 C790 0.961 . S
H805 C791 0.958 . S
H806 C791 0.961 . S
H807 C791 0.960 . S
C808 C809 1.391 . S
C808 C810 1.394 . S
C808 H824 0.931 . S
C809 C808 1.391 . S
C809 C813 1.376 . S
C810 C808 1.394 . S
C810 C811 1.369 . S
C810 C814 1.531 . S
C811 C810 1.369 . S
C811 C812 1.410 . S
C811 C819 1.503 . S
C812 C811 1.410 . S
C812 C813 1.392 . S
C812 C815 1.511 . S
C813 C809 1.376 . S
C813 C812 1.392 . S
C813 H825 0.929 . S
C814 C810 1.531 . S
C814 H826 0.960 . S
C814 H827 0.962 . S
C814 H828 0.960 . S
C815 C812 1.511 . S
C815 H829 0.961 . S
C815 H830 0.961 . S
C815 H831 0.961 . S
C816 C817 1.370 . S
C816 C818 1.363 . S
C816 H832 0.931 . S
C817 C816 1.370 . S
C817 C821 1.408 . S
C818 C816 1.363 . S
C818 C819 1.370 . S
C818 C822 1.524 . S
C819 C811 1.503 . S
C819 C818 1.370 . S
C819 C820 1.403 . S
C820 C819 1.403 . S
C820 C821 1.404 . S
C820 C823 1.539 . S
C821 C817 1.408 . S
C821 C820 1.404 . S
C821 H833 0.930 . S
C822 C818 1.524 . S
C822 H834 0.956 . S
C822 H835 0.961 . S
C822 H836 0.961 . S
C823 C820 1.539 . S
C823 H837 0.958 . S
C823 H838 0.961 . S
C823 H839 0.960 . S
H824 C808 0.931 . S
H825 C813 0.929 . S
H826 C814 0.960 . S
H827 C814 0.962 . S
H828 C814 0.960 . S
H829 C815 0.961 . S
H830 C815 0.961 . S
H831 C815 0.961 . S
H832 C816 0.931 . S
H833 C821 0.930 . S
H834 C822 0.956 . S
H835 C822 0.961 . S
H836 C822 0.961 . S
H837 C823 0.958 . S
H838 C823 0.961 . S
H839 C823 0.960 . S
C840 C841 1.391 . S
C840 C842 1.394 . S
C840 H856 0.931 . S
C841 C840 1.391 . S
C841 C845 1.376 . S
C842 C840 1.394 . S
C842 C843 1.369 . S
C842 C846 1.531 . S
C843 C842 1.369 . S
C843 C844 1.410 . S
C843 C851 1.503 . S
C844 C843 1.410 . S
C844 C845 1.392 . S
C844 C847 1.511 . S
C845 C841 1.376 . S
C845 C844 1.392 . S
C845 H857 0.929 . S
C846 C842 1.531 . S
C846 H858 0.960 . S
C846 H859 0.962 . S
C846 H860 0.960 . S
C847 C844 1.511 . S
C847 H861 0.961 . S
C847 H862 0.961 . S
C847 H863 0.961 . S
C848 C849 1.370 . S
C848 C850 1.363 . S
C848 H864 0.931 . S
C849 C848 1.370 . S
C849 C853 1.408 . S
C850 C848 1.363 . S
C850 C851 1.370 . S
C850 C854 1.524 . S
C851 C843 1.503 . S
C851 C850 1.370 . S
C851 C852 1.403 . S
C852 C851 1.403 . S
C852 C853 1.404 . S
C852 C855 1.539 . S
C853 C849 1.408 . S
C853 C852 1.404 . S
C853 H865 0.930 . S
C854 C850 1.524 . S
C854 H866 0.956 . S
C854 H867 0.961 . S
C854 H868 0.961 . S
C855 C852 1.539 . S
C855 H869 0.958 . S
C855 H870 0.961 . S
C855 H871 0.960 . S
H856 C840 0.931 . S
H857 C845 0.929 . S
H858 C846 0.960 . S
H859 C846 0.962 . S
H860 C846 0.960 . S
H861 C847 0.961 . S
H862 C847 0.961 . S
H863 C847 0.961 . S
H864 C848 0.931 . S
H865 C853 0.930 . S
H866 C854 0.956 . S
H867 C854 0.961 . S
H868 C854 0.961 . S
H869 C855 0.958 . S
H870 C855 0.961 . S
H871 C855 0.960 . S
C872 C873 1.391 . S
C872 C874 1.394 . S
C872 H888 0.931 . S
C873 C872 1.391 . S
C873 C877 1.376 . S
C874 C872 1.394 . S
C874 C875 1.369 . S
C874 C878 1.531 . S
C875 C874 1.369 . S
C875 C876 1.410 . S
C875 C883 1.503 . S
C876 C875 1.410 . S
C876 C877 1.392 . S
C876 C879 1.511 . S
C877 C873 1.376 . S
C877 C876 1.392 . S
C877 H889 0.929 . S
C878 C874 1.531 . S
C878 H890 0.960 . S
C878 H891 0.962 . S
C878 H892 0.960 . S
C879 C876 1.511 . S
C879 H893 0.961 . S
C879 H894 0.961 . S
C879 H895 0.961 . S
C880 C881 1.370 . S
C880 C882 1.363 . S
C880 H896 0.931 . S
C881 C880 1.370 . S
C881 C885 1.408 . S
C882 C880 1.363 . S
C882 C883 1.370 . S
C882 C886 1.524 . S
C883 C875 1.503 . S
C883 C882 1.370 . S
C883 C884 1.403 . S
C884 C883 1.403 . S
C884 C885 1.404 . S
C884 C887 1.539 . S
C885 C881 1.408 . S
C885 C884 1.404 . S
C885 H897 0.930 . S
C886 C882 1.524 . S
C886 H898 0.956 . S
C886 H899 0.961 . S
C886 H900 0.961 . S
C887 C884 1.539 . S
C887 H901 0.958 . S
C887 H902 0.961 . S
C887 H903 0.960 . S
H888 C872 0.931 . S
H889 C877 0.929 . S
H890 C878 0.960 . S
H891 C878 0.962 . S
H892 C878 0.960 . S
H893 C879 0.961 . S
H894 C879 0.961 . S
H895 C879 0.961 . S
H896 C880 0.931 . S
H897 C885 0.930 . S
H898 C886 0.956 . S
H899 C886 0.961 . S
H900 C886 0.961 . S
H901 C887 0.958 . S
H902 C887 0.961 . S
H903 C887 0.960 . S
C904 C905 1.391 . S
C904 C906 1.394 . S
C904 H920 0.931 . S
C905 C904 1.391 . S
C905 C909 1.376 . S
C906 C904 1.394 . S
C906 C907 1.369 . S
C906 C910 1.531 . S
C907 C906 1.369 . S
C907 C908 1.410 . S
C907 C915 1.503 . S
C908 C907 1.410 . S
C908 C909 1.392 . S
C908 C911 1.511 . S
C909 C905 1.376 . S
C909 C908 1.392 . S
C909 H921 0.929 . S
C910 C906 1.531 . S
C910 H922 0.960 . S
C910 H923 0.962 . S
C910 H924 0.960 . S
C911 C908 1.511 . S
C911 H925 0.961 . S
C911 H926 0.961 . S
C911 H927 0.961 . S
C912 C913 1.370 . S
C912 C914 1.363 . S
C912 H928 0.931 1_554 S
C913 C912 1.370 . S
C913 C917 1.408 . S
C914 C912 1.363 . S
C914 C915 1.370 . S
C914 C918 1.524 . S
C915 C907 1.503 . S
C915 C914 1.370 . S
C915 C916 1.403 . S
C916 C915 1.403 . S
C916 C917 1.404 . S
C916 C919 1.539 . S
C917 C913 1.408 . S
C917 C916 1.404 . S
C917 H929 0.930 . S
C918 C914 1.524 . S
C918 H930 0.956 . S
C918 H931 0.961 . S
C918 H932 0.961 . S
C919 C916 1.539 . S
C919 H933 0.958 . S
C919 H934 0.961 . S
C919 H935 0.960 . S
H920 C904 0.931 . S
H921 C909 0.929 . S
H922 C910 0.960 . S
H923 C910 0.962 . S
H924 C910 0.960 . S
H925 C911 0.961 . S
H926 C911 0.961 . S
H927 C911 0.961 . S
H928 C912 0.931 1_556 S
H929 C917 0.930 . S
H930 C918 0.956 . S
H931 C918 0.961 . S
H932 C918 0.961 . S
H933 C919 0.958 . S
H934 C919 0.961 . S
H935 C919 0.960 . S
C169 C0 1.480 . S
C177 C97 1.475 . S
C201 C15 1.478 . S
C209 C110 1.476 . S
C233 C125 1.450 . S
C241 C41 1.464 . S
C265 C42 1.456 . S
C273 C127 1.467 . S
C297 C57 1.454 . S
C305 C141 1.467 . S
C329 C167 1.452 . S
C337 C83 1.464 . S
C361 C113 1.531 . S
C369 C12 1.547 . S
C393 C27 1.575 . S
C401 C139 1.564 . S
C425 C153 1.544 1_556 S
C433 C29 1.553 . S
C457 C155 1.534 . S
C465 C54 1.575 . S
C489 C69 1.530 . S
C497 C85 1.549 . S
C521 C71 1.530 . S
C529 C98 1.547 . S
C553 C166 1.858 . S
C561 C1 1.852 . S
C585 C96 1.838 . S
C593 C14 1.860 . S
C617 C40 1.832 . S
C625 C111 1.849 . S
C649 C124 1.846 . S
C657 C43 1.856 . S
C681 C126 1.842 . S
C689 C56 1.847 . S
C713 C140 1.868 . S
C721 C82 1.847 . S
C745 C13 1.578 . S
C753 C152 1.600 . S
C777 C154 1.584 . S
C785 C26 1.598 . S
C809 C28 1.597 . S
C817 C84 1.592 . S
C841 C55 1.586 . S
C849 C99 1.596 . S
C873 C68 1.604 1_556 S
C881 C112 1.591 . S
C905 C70 1.579 . S
C913 C138 1.601 1_554 S
