# Generated by pormake.
# Topology kag, (6)-cn, num edge types: 1
# Building blocks:
#     Node 0, Type 0, BuildingBlock: VOLQOD_clean_sbu_1, # of connection points: 6
#     Node 1, Type 0, BuildingBlock: VOLQOD_clean_sbu_1, # of connection points: 6
#     Node 2, Type 0, BuildingBlock: VOLQOD_clean_sbu_1, # of connection points: 6
#     Edge 3, Type (0, 0), BuildingBlock: UVAHIK_clean_linker_0, # of connection points: 2
#     Edge 4, Type (0, 0), BuildingBlock: UVAHIK_clean_linker_0, # of connection points: 2
#     Edge 5, Type (0, 0), BuildingBlock: UVAHIK_clean_linker_0, # of connection points: 2
#     Edge 6, Type (0, 0), BuildingBlock: UVAHIK_clean_linker_0, # of connection points: 2
#     Edge 7, Type (0, 0), BuildingBlock: UVAHIK_clean_linker_0, # of connection points: 2
#     Edge 8, Type (0, 0), BuildingBlock: UVAHIK_clean_linker_0, # of connection points: 2
#     Edge 9, Type (0, 0), BuildingBlock: UVAHIK_clean_linker_0, # of connection points: 2
#     Edge 10, Type (0, 0), BuildingBlock: UVAHIK_clean_linker_0, # of connection points: 2
#     Edge 11, Type (0, 0), BuildingBlock: UVAHIK_clean_linker_0, # of connection points: 2
# Relax obj value: 0.314
# Max RMSD: 0.246
# Mean RMSD: 0.245
data_MOF--net-kag--node1-VOLQOD_clean_sbu_1--edge1-UVAHIK_clean_linker_0
_symmetry_space_group_name_H-M    P1
_symmetry_Int_Tables_number       1
_symmetry_cell_setting            triclinic
loop_
_symmetry_equiv_pos_as_xyz
'x, y, z'
_cell_length_a     39.652236
_cell_length_b     39.575988
_cell_length_c     21.759514
_cell_angle_alpha  90.222232
_cell_angle_beta   90.299176
_cell_angle_gamma 120.03242
loop_
_atom_site_label
_atom_site_type_symbol
_atom_site_fract_x
_atom_site_fract_y
_atom_site_fract_z
_atom_type_partial_charge
O0 O -0.00341 0.44396 0.98115 0.0
Zn1 Zn 0.00273 0.43894 0.07235 0.0
O2 O -0.00579 0.47605 0.11959 0.0
Zn3 Zn 0.03976 0.50857 0.17092 0.0
Zn4 Zn 0.98643 0.50923 0.06315 0.0
Zn5 Zn 0.94848 0.44844 0.17135 0.0
O6 O 0.02797 0.49462 0.26051 0.0
O7 O 0.96313 0.46129 0.26069 0.0
O8 O 0.05761 0.45064 0.08269 0.0
O9 O 0.08525 0.5028 0.14396 0.0
O10 O 0.05685 0.56571 0.16142 0.0
O11 O 0.02504 0.56531 0.07699 0.0
O12 O 0.93497 0.50462 0.07599 0.0
O13 O 0.9654 0.38348 0.09654 0.0
O14 O 0.90555 0.46004 0.14841 0.0
O15 O 0.92687 0.39084 0.16236 0.0
C16 C -0.00844 0.4681 0.94955 0.0
C17 C -0.00427 0.47759 0.28917 0.0
C18 C 0.04962 0.58371 0.11962 0.0
C19 C 0.08749 0.47783 0.10971 0.0
C20 C 0.90578 0.48426 0.10979 0.0
C21 C 0.93637 0.36912 0.13261 0.0
O22 O 0.98791 0.49506 0.97504 0.0
O23 O 0.48326 -0.00085 0.19182 0.0
Zn24 Zn 0.49607 -0.00254 0.10305 0.0
O25 O 0.46687 0.01303 0.04969 0.0
Zn26 Zn 0.43349 0.97088 -0.00564 0.0
Zn27 Zn 0.43499 0.02683 0.09982 0.0
Zn28 Zn 0.50272 0.05681 0.00025 0.0
O29 O 0.44033 0.98774 0.90652 0.0
O30 O 0.49613 0.04381 0.91006 0.0
O31 O 0.48812 0.9451 0.07825 0.0
O32 O 0.44796 0.92929 -0.00184 0.0
O33 O 0.37744 0.94811 0.01631 0.0
O34 O 0.37854 0.98494 0.09461 0.0
O35 O 0.43959 0.07726 0.07047 0.0
O36 O 0.55355 0.03409 0.09504 0.0
O37 O 0.49043 0.09952 0.00817 0.0
O38 O 0.55839 0.07607 0.02358 0.0
C39 C 0.467 0.01577 0.21904 0.0
C40 C 0.4683 0.01649 0.8796 0.0
C41 C 0.36013 0.95631 0.05777 0.0
C42 C 0.46944 0.92241 0.03355 0.0
C43 C 0.46394 0.10332 0.03453 0.0
C44 C 0.57408 0.06365 0.06169 0.0
O45 O 0.44998 0.03065 0.18902 0.0
O46 O 0.55994 0.57504 0.95102 0.0
Zn47 Zn 0.57216 0.5836 0.86087 0.0
O48 O 0.52784 0.54605 0.811 0.0
Zn49 Zn 0.54311 0.51506 0.76087 0.0
Zn50 Zn 0.4862 0.51129 0.8648 0.0
Zn51 Zn 0.5095 0.57353 0.75863 0.0
O52 O 0.54359 0.52771 0.67123 0.0
O53 O 0.51584 0.56458 0.66948 0.0
O54 O 0.61816 0.57612 0.85032 0.0
O55 O 0.59574 0.52457 0.78811 0.0
O56 O 0.50665 0.45728 0.77183 0.0
O57 O 0.46983 0.45587 0.84914 0.0
O58 O 0.43927 0.51561 0.85145 0.0
O59 O 0.5858 0.6389 0.84434 0.0
O60 O 0.45343 0.55863 0.77667 0.0
O61 O 0.541 0.6308 0.77514 0.0
C62 C 0.53102 0.54945 0.98106 0.0
C63 C 0.53081 0.54685 0.64178 0.0
C64 C 0.47951 0.4384 0.81014 0.0
C65 C 0.62237 0.55002 0.82285 0.0
C66 C 0.42977 0.53479 0.81575 0.0
C67 C 0.56992 0.65282 0.8095 0.0
O68 O 0.50099 0.52278 0.95368 0.0
C69 C 0.01134 0.45034 0.85095 0.0
C70 C -0.0094 0.4654 0.88181 0.0
C71 C 0.01203 0.44983 0.78669 0.0
C72 C 0.95784 0.4438 0.65025 0.0
H73 H 0.05669 0.50538 0.56824 0.0
C74 C 0.96406 0.4722 0.3904 0.0
C75 C -0.00406 0.47601 0.35697 0.0
C76 C 0.96378 0.47001 0.45444 0.0
C77 C 0.02887 0.48736 0.59006 0.0
H78 H 0.95343 0.49061 0.86995 0.0
H79 H 0.95354 0.48831 0.75752 0.0
H80 H 0.05492 0.50097 0.68007 0.0
H81 H 0.05232 0.47996 0.36412 0.0
H82 H 0.05116 0.47424 0.47557 0.0
H83 H 0.93161 0.42884 0.56106 0.0
C84 C 0.9697 0.47756 0.78319 0.0
C85 C 0.02795 0.48509 0.65418 0.0
C86 C 0.96978 0.47899 0.84733 0.0
C87 C 0.02751 0.47742 0.38881 0.0
C88 C 0.02688 0.47435 0.45284 0.0
C89 C 0.95878 0.44531 0.58612 0.0
C90 C -0.00882 0.4634 0.75245 0.0
C91 C -0.00761 0.46371 0.68468 0.0
C92 C -0.005 0.47065 0.48665 0.0
C93 C -0.00574 0.4676 0.55504 0.0
H94 H 0.0278 0.43988 0.87644 0.0
H95 H 0.02873 0.43873 0.7637 0.0
H96 H 0.93011 0.4269 0.67303 0.0
H97 H 0.93946 0.47141 0.36708 0.0
H98 H 0.93915 0.46824 0.47858 0.0
C99 C 0.48756 0.00277 0.32109 0.0
C100 C 0.46783 0.01775 0.28696 0.0
C101 C 0.48816 0.00441 0.38518 0.0
C102 C 0.4349 0.01238 0.51675 0.0
H103 H 0.5301 0.03967 0.60639 0.0
C104 C 0.4992 0.04935 0.78067 0.0
C105 C 0.46841 0.01817 0.81172 0.0
C106 C 0.49933 0.05074 0.71656 0.0
C107 C 0.50338 0.03232 0.582 0.0
H108 H 0.43341 0.04638 0.29353 0.0
H109 H 0.43469 0.04936 0.40545 0.0
H110 H 0.53042 0.04025 0.4943 0.0
H111 H 0.41351 0.96406 0.79964 0.0
H112 H 0.41397 0.96643 0.68788 0.0
H113 H 0.40795 0.00477 0.60446 0.0
C114 C 0.44936 0.03604 0.38251 0.0
C115 C 0.50346 0.03225 0.51786 0.0
C116 C 0.44881 0.03449 0.31838 0.0
C117 C 0.43766 0.98854 0.77724 0.0
C118 C 0.43777 0.98999 0.71318 0.0
C119 C 0.4348 0.01235 0.58088 0.0
C120 C 0.46901 0.02098 0.41654 0.0
C121 C 0.46918 0.02209 0.48459 0.0
C122 C 0.46864 0.02105 0.68219 0.0
C123 C 0.46899 0.02214 0.61415 0.0
H124 H 0.50247 0.98963 0.2984 0.0
H125 H 0.50313 0.99212 0.41022 0.0
H126 H 0.40796 0.00411 0.49234 0.0
H127 H 0.52328 0.07273 0.80581 0.0
H128 H 0.52329 0.07527 0.69391 0.0
C129 C 0.54788 0.52772 0.54175 0.0
C130 C 0.53328 0.54848 0.57393 0.0
C131 C 0.54966 0.52886 0.47766 0.0
C132 C 0.55025 0.58622 0.34417 0.0
H133 H 0.51533 0.48927 0.25449 0.0
C134 C 0.56488 0.58 0.08071 0.0
C135 C 0.53247 0.55036 0.04903 0.0
C136 C 0.56634 0.58044 0.14489 0.0
C137 C 0.52501 0.51654 0.27891 0.0
H138 H 0.50947 0.58708 0.56387 0.0
H139 H 0.51235 0.58878 0.45213 0.0
H140 H 0.51541 0.48903 0.36655 0.0
H141 H 0.4761 0.49806 0.06009 0.0
H142 H 0.47864 0.49907 0.17188 0.0
H143 H 0.55909 0.61357 0.25644 0.0
C144 C 0.52275 0.57193 0.47655 0.0
C145 C 0.52546 0.51648 0.34304 0.0
C146 C 0.52087 0.57072 0.5406 0.0
C147 C 0.50155 0.52128 0.08296 0.0
C148 C 0.50308 0.52168 0.14704 0.0
C149 C 0.54992 0.5863 0.28 0.0
C150 C 0.53699 0.55088 0.44441 0.0
C151 C 0.53784 0.55126 0.37634 0.0
C152 C 0.53551 0.5512 0.17867 0.0
C153 C 0.53703 0.55141 0.24673 0.0
H154 H 0.55782 0.5104 0.56596 0.0
H155 H 0.56118 0.51268 0.45413 0.0
H156 H 0.5603 0.61354 0.36863 0.0
H157 H 0.58923 0.60282 0.05601 0.0
H158 H 0.59187 0.60336 0.16804 0.0
C159 C 0.12896 0.4529 0.06607 0.0
C160 C 0.12601 0.48372 0.09262 0.0
C161 C 0.16344 0.45995 0.03815 0.0
C162 C 0.2451 0.53619 0.95558 0.0
H163 H 0.28901 0.46849 0.97226 0.0
C164 C 0.38864 0.56405 0.84015 0.0
C165 C 0.39152 0.53107 0.82542 0.0
C166 C 0.35502 0.55962 0.86836 0.0
C167 C 0.27671 0.4873 0.9662 0.0
H168 H 0.15746 0.54573 0.11364 0.0
H169 H 0.21782 0.55802 0.06434 0.0
H170 H 0.23524 0.45852 0.03757 0.0
H171 H 0.36095 0.46795 0.82253 0.0
H172 H 0.30153 0.46007 0.86825 0.0
H173 H 0.28607 0.56449 0.88322 0.0
C174 C 0.19331 0.5285 0.06508 0.0
C175 C 0.24616 0.48176 0.0041 0.0
C176 C 0.15894 0.52135 0.09384 0.0
C177 C 0.35924 0.49376 0.83367 0.0
C178 C 0.32552 0.48932 0.86069 0.0
C179 C 0.27554 0.54156 0.91716 0.0
C180 C 0.19547 0.49801 0.03565 0.0
C181 C 0.22989 0.50594 -0.00112 0.0
C182 C 0.32383 0.52212 0.88147 0.0
C183 C 0.29139 0.51686 0.9216 0.0
H184 H 0.10407 0.4236 0.06449 0.0
H185 H 0.16431 0.43593 0.01566 0.0
H186 H 0.23268 0.55495 0.95016 0.0
H187 H 0.41352 0.59309 0.83494 0.0
H188 H 0.35468 0.58549 0.88377 0.0
C189 C 0.63529 0.07008 0.10729 0.0
C190 C 0.617 0.08386 0.06712 0.0
C191 C 0.67583 0.09006 0.11369 0.0
C192 C 0.76676 0.1682 0.04303 0.0
H193 H 0.80385 0.19236 0.2115 0.0
C194 C 0.88008 0.31044 0.1783 0.0
C195 C 0.91086 0.32633 0.13619 0.0
C196 C 0.85157 0.27118 0.17475 0.0
C197 C 0.79409 0.18558 0.16415 0.0
H198 H 0.62705 0.12877 0.00089 0.0
H199 H 0.69731 0.16394 0.01307 0.0
H200 H 0.73724 0.14101 0.19055 0.0
H201 H 0.93804 0.31262 0.06128 0.0
H202 H 0.88811 0.24372 0.0553 0.0
H203 H 0.8223 0.21505 0.01684 0.0
C204 C 0.68054 0.13731 0.03879 0.0
C205 C 0.75599 0.15588 0.15207 0.0
C206 C 0.64014 0.11738 0.03233 0.0
C207 C 0.9144 0.30135 0.09392 0.0
C208 C 0.88576 0.26191 0.09036 0.0
C209 C 0.8047 0.19808 0.05512 0.0
C210 C 0.69885 0.12416 0.08001 0.0
C211 C 0.74134 0.14832 0.09157 0.0
C212 C 0.85319 0.24683 0.12907 0.0
C213 C 0.81807 0.20847 0.11603 0.0
H214 H 0.61831 0.04412 0.1344 0.0
H215 H 0.68911 0.07909 0.14552 0.0
H216 H 0.75655 0.16233 -0.00419 0.0
H217 H 0.87675 0.32875 0.21202 0.0
H218 H 0.82678 0.26079 0.205 0.0
C219 C 0.50488 0.88558 0.04999 0.0
C220 C 0.47784 0.89127 0.01613 0.0
C221 C 0.51855 0.86172 0.02684 0.0
C222 C 0.49893 0.78672 0.90773 0.0
H223 H 0.60994 0.8251 0.9222 0.0
C224 C 0.56284 0.70936 0.77827 0.0
C225 C 0.57909 0.69353 0.81845 0.0
C226 C 0.55866 0.74073 0.79707 0.0
C227 C 0.57896 0.81425 0.91774 0.0
H228 H 0.44226 0.8745 0.93315 0.0
H229 H 0.4664 0.83363 0.89264 0.0
H230 H 0.58199 0.86124 0.97116 0.0
H231 H 0.60918 0.70188 0.90572 0.0
H232 H 0.60173 0.75673 0.93844 0.0
H233 H 0.49586 0.74002 0.85408 0.0
C234 C 0.47689 0.84721 0.93727 0.0
C235 C 0.56285 0.83459 0.94623 0.0
C236 C 0.46305 0.87078 0.96053 0.0
C237 C 0.59616 0.71318 0.87396 0.0
C238 C 0.5919 0.74462 0.89279 0.0
C239 C 0.51506 0.76677 0.8788 0.0
C240 C 0.5055 0.84318 0.96938 0.0
C241 C 0.52261 0.82099 0.94147 0.0
C242 C 0.57077 0.75679 0.85615 0.0
C243 C 0.55519 0.78036 0.88336 0.0
H244 H 0.51673 0.90079 0.09316 0.0
H245 H 0.53994 0.85846 0.05332 0.0
H246 H 0.46777 0.775 0.90416 0.0
H247 H 0.55014 0.69532 0.73465 0.0
H248 H 0.54308 0.75033 0.76744 0.0
C249 C 0.87603 0.52536 0.09238 0.0
C250 C 0.87119 0.48801 0.09999 0.0
C251 C 0.84572 0.52978 0.06902 0.0
C252 C 0.76837 0.48408 0.95872 0.0
H253 H 0.73749 0.55706 0.01786 0.0
C254 C 0.65207 0.50786 0.83645 0.0
C255 C 0.6554 0.54484 0.84125 0.0
C256 C 0.67844 0.50007 0.86709 0.0
C257 C 0.74628 0.53705 0.00013 0.0
H258 H 0.83083 0.42594 0.09198 0.0
H259 H 0.77755 0.43368 0.04938 0.0
H260 H 0.77977 0.54295 0.08121 0.0
H261 H 0.69099 0.60364 0.87699 0.0
H262 H 0.7381 0.59063 0.92796 0.0
H263 H 0.73646 0.47934 0.87654 0.0
C264 C 0.80471 0.45942 0.06236 0.0
C265 C 0.77005 0.52863 0.03687 0.0
C266 C 0.8349 0.45499 0.08715 0.0
C267 C 0.68746 0.57474 0.87296 0.0
C268 C 0.71414 0.56711 0.90285 0.0
C269 C 0.74503 0.4929 0.92154 0.0
C270 C 0.81034 0.49691 0.05159 0.0
C271 C 0.78149 0.50229 0.0163 0.0
C272 C 0.70902 0.52927 0.90242 0.0
C273 C 0.73398 0.51979 0.94155 0.0
H274 H 0.90395 0.55118 0.10168 0.0
H275 H 0.85085 0.55896 0.06076 0.0
H276 H 0.77744 0.46419 0.94141 0.0
H277 H 0.62755 0.48408 0.81267 0.0
H278 H 0.67344 0.47056 0.86583 0.0
C279 C 0.09705 0.64866 0.16638 0.0
C280 C 0.071 0.62682 0.11874 0.0
C281 C 0.11955 0.68927 0.16231 0.0
C282 C 0.16634 0.76128 0.04585 0.0
H283 H 0.18962 0.83765 0.17525 0.0
C284 C 0.29371 0.91399 0.01499 0.0
C285 C 0.31834 0.9296 0.06629 0.0
C286 C 0.25578 0.88309 0.02188 0.0
C287 C 0.18359 0.81669 0.13872 0.0
H288 H 0.04656 0.63071 0.03116 0.0
H289 H 0.08637 0.70133 0.02385 0.0
H290 H 0.13722 0.77023 0.18908 0.0
H291 H 0.32257 0.92735 0.1652 0.0
H292 H 0.2573 0.87174 0.17721 0.0
H293 H 0.21397 0.80588 -0.00289 0.0
C294 C 0.08928 0.68699 0.0642 0.0
C295 C 0.15349 0.77822 0.14664 0.0
C296 C 0.06659 0.64655 0.06845 0.0
C297 C 0.30386 0.91571 0.12504 0.0
C298 C 0.2663 0.88393 0.1318 0.0
C299 C 0.19674 0.79932 0.03838 0.0
C300 C 0.11656 0.70857 0.11035 0.0
C301 C 0.14509 0.75015 0.10054 0.0
C302 C 0.24234 0.86618 0.07992 0.0
C303 C 0.2063 0.82747 0.08508 0.0
H304 H 0.10087 0.63436 0.20595 0.0
H305 H 0.14069 0.70535 0.19823 0.0
H306 H 0.1608 0.73999 0.01 0.0
H307 H 0.30427 0.92476 0.96931 0.0
H308 H 0.23773 0.87119 0.98115 0.0
C309 C 0.42849 0.37435 0.85113 0.0
C310 C 0.46176 0.39571 0.81485 0.0
C311 C 0.41636 0.33583 0.86679 0.0
C312 C 0.43488 0.25367 0.83931 0.0
H313 H 0.42428 0.24237 0.01645 0.0
C314 C 0.48421 0.16324 0.97298 0.0
C315 C 0.45856 0.13614 0.01574 0.0
C316 C 0.47613 0.19038 0.94666 0.0
C317 C 0.42642 0.24474 0.96686 0.0
H318 H 0.50622 0.39245 0.76185 0.0
H319 H 0.48562 0.32559 0.7901 0.0
H320 H 0.42213 0.29638 0.96691 0.0
H321 H 0.40539 0.11782 0.06702 0.0
H322 H 0.39184 0.16642 0.02158 0.0
H323 H 0.44154 0.20326 0.8401 0.0
C324 C 0.46859 0.33833 0.80607 0.0
C325 C 0.42502 0.27552 0.93832 0.0
C326 C 0.48057 0.37679 0.79005 0.0
C327 C 0.42572 0.13829 0.03419 0.0
C328 C 0.41782 0.16587 0.00807 0.0
C329 C 0.43657 0.2231 0.86792 0.0
C330 C 0.43739 0.31805 0.84673 0.0
C331 C 0.43064 0.2811 0.8745 0.0
C332 C 0.44245 0.19133 0.96281 0.0
C333 C 0.43377 0.21928 0.93211 0.0
H334 H 0.41296 0.38799 0.87005 0.0
H335 H 0.3917 0.32064 0.89708 0.0
H336 H 0.43855 0.25679 0.78998 0.0
H337 H 0.50996 0.16272 0.95803 0.0
H338 H 0.49611 0.21044 0.91303 0.0
loop_
_geom_bond_atom_site_label_1
_geom_bond_atom_site_label_2
_geom_bond_distance
_geom_bond_site_symmetry_2
_ccdc_geom_bond_type
O0 Zn1 1.953 . S
O0 C16 1.225 . S
Zn1 O0 1.953 . S
Zn1 O2 1.949 1_556 S
Zn1 O8 1.919 . S
Zn1 O13 1.924 1_455 S
O2 Zn1 1.949 1_554 S
O2 Zn3 1.923 . S
O2 Zn4 1.950 1_454 S
O2 Zn5 1.945 1_455 S
Zn3 O2 1.923 . S
Zn3 O6 1.933 . S
Zn3 O9 1.941 . S
Zn3 O10 1.965 . S
Zn4 O2 1.950 1_656 S
Zn4 O11 1.938 1_655 S
Zn4 O12 1.906 . S
Zn4 O22 1.953 . S
Zn5 O2 1.945 1_655 S
Zn5 O7 1.932 . S
Zn5 O14 1.977 . S
Zn5 O15 1.910 . S
O6 Zn3 1.933 . S
O6 C17 1.226 . S
O7 Zn5 1.932 . S
O7 C17 1.307 1_655 S
O8 Zn1 1.919 . S
O8 C19 1.253 1_556 S
O9 Zn3 1.941 . S
O9 C19 1.283 . S
O10 Zn3 1.965 . S
O10 C18 1.303 1_554 S
O11 Zn4 1.938 1_455 S
O11 C18 1.247 . S
O12 Zn4 1.906 . S
O12 C20 1.304 1_556 S
O13 Zn1 1.924 1_655 S
O13 C21 1.311 . S
O14 Zn5 1.977 . S
O14 C20 1.272 . S
O15 Zn5 1.910 . S
O15 C21 1.231 1_554 S
C16 O0 1.225 . S
C16 O22 1.298 1_455 S
C17 O6 1.226 . S
C17 O7 1.307 1_455 S
C18 O10 1.303 1_556 S
C18 O11 1.247 . S
C19 O8 1.253 1_554 S
C19 O9 1.283 . S
C20 O12 1.304 1_554 S
C20 O14 1.272 . S
C21 O13 1.311 . S
C21 O15 1.231 1_556 S
O22 Zn4 1.953 . S
O22 C16 1.298 1_655 S
O23 Zn24 1.953 . S
O23 C39 1.225 . S
Zn24 O23 1.953 . S
Zn24 O25 1.946 1_554 S
Zn24 O31 1.919 1_545 S
Zn24 O36 1.924 . S
O25 Zn24 1.946 1_556 S
O25 Zn26 1.925 1_545 S
O25 Zn27 1.947 1_556 S
O25 Zn28 1.947 . S
Zn26 O25 1.925 1_565 S
Zn26 O29 1.933 . S
Zn26 O32 1.941 . S
Zn26 O33 1.965 . S
Zn27 O25 1.947 1_554 S
Zn27 O34 1.938 1_545 S
Zn27 O35 1.906 . S
Zn27 O45 1.953 . S
Zn28 O25 1.947 . S
Zn28 O30 1.932 . S
Zn28 O37 1.977 . S
Zn28 O38 1.910 . S
O29 Zn26 1.933 . S
O29 C40 1.226 1_565 S
O30 Zn28 1.932 . S
O30 C40 1.307 . S
O31 Zn24 1.919 1_565 S
O31 C42 1.253 1_554 S
O32 Zn26 1.941 . S
O32 C42 1.283 . S
O33 Zn26 1.965 . S
O33 C41 1.303 1_556 S
O34 Zn27 1.938 1_565 S
O34 C41 1.247 . S
O35 Zn27 1.906 . S
O35 C43 1.304 1_554 S
O36 Zn24 1.924 . S
O36 C44 1.311 . S
O37 Zn28 1.977 . S
O37 C43 1.272 . S
O38 Zn28 1.910 . S
O38 C44 1.231 1_556 S
C39 O23 1.225 . S
C39 O45 1.298 . S
C40 O29 1.226 1_545 S
C40 O30 1.307 . S
C41 O33 1.303 1_554 S
C41 O34 1.247 . S
C42 O31 1.253 1_556 S
C42 O32 1.283 . S
C43 O35 1.304 1_556 S
C43 O37 1.272 . S
C44 O36 1.311 . S
C44 O38 1.231 1_554 S
O45 Zn27 1.953 . S
O45 C39 1.298 . S
O46 Zn47 1.953 . S
O46 C62 1.225 . S
Zn47 O46 1.953 . S
Zn47 O48 1.946 1_554 S
Zn47 O54 1.919 . S
Zn47 O59 1.924 . S
O48 Zn47 1.946 1_556 S
O48 Zn49 1.926 . S
O48 Zn50 1.947 1_556 S
O48 Zn51 1.947 . S
Zn49 O48 1.926 . S
Zn49 O52 1.933 . S
Zn49 O55 1.941 . S
Zn49 O56 1.965 . S
Zn50 O48 1.947 1_554 S
Zn50 O57 1.938 . S
Zn50 O58 1.906 . S
Zn50 O68 1.953 . S
Zn51 O48 1.947 . S
Zn51 O53 1.932 . S
Zn51 O60 1.977 . S
Zn51 O61 1.910 . S
O52 Zn49 1.933 . S
O52 C63 1.226 . S
O53 Zn51 1.932 . S
O53 C63 1.307 . S
O54 Zn47 1.919 . S
O54 C65 1.253 1_554 S
O55 Zn49 1.941 . S
O55 C65 1.283 . S
O56 Zn49 1.965 . S
O56 C64 1.303 1_556 S
O57 Zn50 1.938 . S
O57 C64 1.247 . S
O58 Zn50 1.906 . S
O58 C66 1.304 1_554 S
O59 Zn47 1.924 . S
O59 C67 1.311 . S
O60 Zn51 1.977 . S
O60 C66 1.272 . S
O61 Zn51 1.910 . S
O61 C67 1.231 1_556 S
C62 O46 1.225 . S
C62 O68 1.298 . S
C63 O52 1.226 . S
C63 O53 1.307 . S
C64 O56 1.303 1_554 S
C64 O57 1.247 . S
C65 O54 1.253 1_556 S
C65 O55 1.283 . S
C66 O58 1.304 1_556 S
C66 O60 1.272 . S
C67 O59 1.311 . S
C67 O61 1.231 1_554 S
O68 Zn50 1.953 . S
O68 C62 1.298 . S
C69 C70 1.349 . S
C69 C71 1.327 . S
C69 H94 0.950 . S
C70 C69 1.349 . S
C70 C86 1.349 1_455 S
C71 C69 1.327 . S
C71 C90 1.429 . S
C71 H95 0.950 . S
C72 C89 1.574 . S
C72 C91 1.368 1_655 S
C72 H96 0.949 . S
H73 C77 0.949 . S
C74 C75 1.349 1_655 S
C74 C76 1.327 . S
C74 H97 0.950 . S
C75 C74 1.349 1_455 S
C75 C87 1.349 . S
C76 C74 1.327 . S
C76 C92 1.429 1_655 S
C76 H98 0.950 . S
C77 H73 0.949 . S
C77 C85 1.574 . S
C77 C93 1.368 . S
H78 C86 0.950 . S
H79 C84 0.950 . S
H80 C85 0.949 . S
H81 C87 0.950 . S
H82 C88 0.950 . S
H83 C89 0.949 . S
C84 H79 0.950 . S
C84 C86 1.327 . S
C84 C90 1.429 1_655 S
C85 C77 1.574 . S
C85 H80 0.949 . S
C85 C91 1.368 . S
C86 C70 1.349 1_655 S
C86 H78 0.950 . S
C86 C84 1.327 . S
C87 C75 1.349 . S
C87 H81 0.950 . S
C87 C88 1.327 . S
C88 H82 0.950 . S
C88 C87 1.327 . S
C88 C92 1.429 . S
C89 C72 1.574 . S
C89 H83 0.949 . S
C89 C93 1.368 1_655 S
C90 C71 1.429 . S
C90 C84 1.429 1_455 S
C90 C91 1.523 . S
C91 C72 1.368 1_455 S
C91 C85 1.368 . S
C91 C90 1.523 . S
C92 C76 1.429 1_455 S
C92 C88 1.429 . S
C92 C93 1.523 . S
C93 C77 1.368 . S
C93 C89 1.368 1_455 S
C93 C92 1.523 . S
H94 C69 0.950 . S
H95 C71 0.950 . S
H96 C72 0.949 . S
H97 C74 0.950 . S
H98 C76 0.950 . S
C99 C100 1.349 1_565 S
C99 C101 1.327 . S
C99 H124 0.950 . S
C100 C99 1.349 1_545 S
C100 C116 1.349 . S
C101 C99 1.327 . S
C101 C120 1.429 1_565 S
C101 H125 0.950 . S
C102 C119 1.574 . S
C102 C121 1.368 . S
C102 H126 0.949 . S
H103 C107 0.949 . S
C104 C105 1.349 . S
C104 C106 1.327 . S
C104 H127 0.950 . S
C105 C104 1.349 . S
C105 C117 1.349 1_545 S
C106 C104 1.327 . S
C106 C122 1.429 . S
C106 H128 0.950 . S
C107 H103 0.949 . S
C107 C115 1.574 . S
C107 C123 1.368 1_565 S
H108 C116 0.950 . S
H109 C114 0.950 . S
H110 C115 0.949 . S
H111 C117 0.950 . S
H112 C118 0.950 . S
H113 C119 0.949 . S
C114 H109 0.950 . S
C114 C116 1.327 . S
C114 C120 1.429 . S
C115 C107 1.574 . S
C115 H110 0.949 . S
C115 C121 1.368 1_565 S
C116 C100 1.349 . S
C116 H108 0.950 . S
C116 C114 1.327 . S
C117 C105 1.349 1_565 S
C117 H111 0.950 . S
C117 C118 1.327 . S
C118 H112 0.950 . S
C118 C117 1.327 . S
C118 C122 1.429 1_565 S
C119 C102 1.574 . S
C119 H113 0.949 . S
C119 C123 1.368 . S
C120 C101 1.429 1_545 S
C120 C114 1.429 . S
C120 C121 1.523 . S
C121 C102 1.368 . S
C121 C115 1.368 1_545 S
C121 C120 1.523 . S
C122 C106 1.429 . S
C122 C118 1.429 1_545 S
C122 C123 1.523 . S
C123 C107 1.368 1_545 S
C123 C119 1.368 . S
C123 C122 1.523 . S
H124 C99 0.950 . S
H125 C101 0.950 . S
H126 C102 0.949 . S
H127 C104 0.950 . S
H128 C106 0.950 . S
C129 C130 1.349 . S
C129 C131 1.327 . S
C129 H154 0.950 . S
C130 C129 1.349 . S
C130 C146 1.349 . S
C131 C129 1.327 . S
C131 C150 1.429 . S
C131 H155 0.950 . S
C132 C149 1.574 . S
C132 C151 1.368 . S
C132 H156 0.949 . S
H133 C137 0.949 . S
C134 C135 1.349 . S
C134 C136 1.327 . S
C134 H157 0.950 . S
C135 C134 1.349 . S
C135 C147 1.349 . S
C136 C134 1.327 . S
C136 C152 1.429 . S
C136 H158 0.950 . S
C137 H133 0.949 . S
C137 C145 1.574 . S
C137 C153 1.368 . S
H138 C146 0.950 . S
H139 C144 0.950 . S
H140 C145 0.949 . S
H141 C147 0.950 . S
H142 C148 0.950 . S
H143 C149 0.949 . S
C144 H139 0.950 . S
C144 C146 1.327 . S
C144 C150 1.429 . S
C145 C137 1.574 . S
C145 H140 0.949 . S
C145 C151 1.368 . S
C146 C130 1.349 . S
C146 H138 0.950 . S
C146 C144 1.327 . S
C147 C135 1.349 . S
C147 H141 0.950 . S
C147 C148 1.327 . S
C148 H142 0.950 . S
C148 C147 1.327 . S
C148 C152 1.429 . S
C149 C132 1.574 . S
C149 H143 0.949 . S
C149 C153 1.368 . S
C150 C131 1.429 . S
C150 C144 1.429 . S
C150 C151 1.523 . S
C151 C132 1.368 . S
C151 C145 1.368 . S
C151 C150 1.523 . S
C152 C136 1.429 . S
C152 C148 1.429 . S
C152 C153 1.523 . S
C153 C137 1.368 . S
C153 C149 1.368 . S
C153 C152 1.523 . S
H154 C129 0.950 . S
H155 C131 0.950 . S
H156 C132 0.949 . S
H157 C134 0.950 . S
H158 C136 0.950 . S
C159 C160 1.349 . S
C159 C161 1.328 . S
C159 H184 0.950 1_554 S
C160 C159 1.349 . S
C160 C176 1.349 . S
C161 C159 1.328 . S
C161 C180 1.430 . S
C161 H185 0.947 1_554 S
C162 C179 1.574 . S
C162 C181 1.368 . S
C162 H186 0.949 . S
H163 C167 0.949 . S
C164 C165 1.349 . S
C164 C166 1.327 1_556 S
C164 H187 0.950 1_556 S
C165 C164 1.349 . S
C165 C177 1.349 . S
C166 C164 1.327 1_554 S
C166 C182 1.429 1_554 S
C166 H188 0.950 . S
C167 H163 0.949 . S
C167 C175 1.574 . S
C167 C183 1.368 . S
H168 C176 0.950 . S
H169 C174 0.950 . S
H170 C175 0.949 . S
H171 C177 0.950 . S
H172 C178 0.950 . S
H173 C179 0.949 . S
C174 H169 0.950 . S
C174 C176 1.327 . S
C174 C180 1.429 . S
C175 C167 1.574 . S
C175 H170 0.949 . S
C175 C181 1.368 1_556 S
C176 C160 1.349 . S
C176 H168 0.950 . S
C176 C174 1.327 . S
C177 C165 1.349 . S
C177 H171 0.950 . S
C177 C178 1.327 . S
C178 H172 0.950 . S
C178 C177 1.327 . S
C178 C182 1.429 . S
C179 C162 1.574 . S
C179 H173 0.949 . S
C179 C183 1.368 1_554 S
C180 C161 1.430 . S
C180 C174 1.429 . S
C180 C181 1.523 . S
C181 C162 1.368 . S
C181 C175 1.368 1_554 S
C181 C180 1.523 . S
C182 C166 1.429 1_556 S
C182 C178 1.429 . S
C182 C183 1.523 . S
C183 C167 1.368 . S
C183 C179 1.368 1_556 S
C183 C182 1.523 . S
H184 C159 0.950 1_556 S
H185 C161 0.947 1_556 S
H186 C162 0.949 . S
H187 C164 0.950 1_554 S
H188 C166 0.950 . S
C189 C190 1.349 . S
C189 C191 1.327 . S
C189 H214 0.950 . S
C190 C189 1.349 . S
C190 C206 1.349 1_554 S
C191 C189 1.327 . S
C191 C210 1.429 . S
C191 H215 0.950 . S
C192 C209 1.574 . S
C192 C211 1.368 1_556 S
C192 H216 0.949 . S
H193 C197 0.949 . S
C194 C195 1.349 . S
C194 C196 1.327 . S
C194 H217 0.950 . S
C195 C194 1.349 . S
C195 C207 1.349 1_556 S
C196 C194 1.327 . S
C196 C212 1.429 . S
C196 H218 0.950 . S
C197 H193 0.949 . S
C197 C205 1.574 . S
C197 C213 1.368 1_554 S
H198 C206 0.950 . S
H199 C204 0.950 . S
H200 C205 0.949 . S
H201 C207 0.950 . S
H202 C208 0.950 . S
H203 C209 0.949 . S
C204 H199 0.950 . S
C204 C206 1.327 . S
C204 C210 1.429 1_556 S
C205 C197 1.574 . S
C205 H200 0.949 . S
C205 C211 1.368 . S
C206 C190 1.349 1_556 S
C206 H198 0.950 . S
C206 C204 1.327 . S
C207 C195 1.349 1_554 S
C207 H201 0.950 . S
C207 C208 1.327 . S
C208 H202 0.950 . S
C208 C207 1.327 . S
C208 C212 1.429 1_554 S
C209 C192 1.574 . S
C209 H203 0.949 . S
C209 C213 1.368 . S
C210 C191 1.429 . S
C210 C204 1.429 1_554 S
C210 C211 1.523 . S
C211 C192 1.368 1_554 S
C211 C205 1.368 . S
C211 C210 1.523 . S
C212 C196 1.429 . S
C212 C208 1.429 1_556 S
C212 C213 1.523 . S
C213 C197 1.368 1_556 S
C213 C209 1.368 . S
C213 C212 1.523 . S
H214 C189 0.950 . S
H215 C191 0.950 . S
H216 C192 0.949 . S
H217 C194 0.950 . S
H218 C196 0.950 . S
C219 C220 1.349 1_554 S
C219 C221 1.327 . S
C219 H244 0.950 . S
C220 C219 1.349 1_556 S
C220 C236 1.349 . S
C221 C219 1.327 . S
C221 C240 1.429 1_554 S
C221 H245 0.950 . S
C222 C239 1.574 . S
C222 C241 1.368 . S
C222 H246 0.949 . S
H223 C227 0.949 . S
C224 C225 1.349 1_556 S
C224 C226 1.327 . S
C224 H247 0.950 . S
C225 C224 1.349 1_554 S
C225 C237 1.349 . S
C226 C224 1.327 . S
C226 C242 1.429 1_556 S
C226 H248 0.950 . S
C227 H223 0.949 . S
C227 C235 1.574 . S
C227 C243 1.368 . S
H228 C236 0.950 . S
H229 C234 0.950 . S
H230 C235 0.949 . S
H231 C237 0.950 . S
H232 C238 0.950 . S
H233 C239 0.949 . S
C234 H229 0.950 . S
C234 C236 1.327 . S
C234 C240 1.429 . S
C235 C227 1.574 . S
C235 H230 0.949 . S
C235 C241 1.368 1_554 S
C236 C220 1.349 . S
C236 H228 0.950 . S
C236 C234 1.327 . S
C237 C225 1.349 . S
C237 H231 0.950 . S
C237 C238 1.327 . S
C238 H232 0.950 . S
C238 C237 1.327 . S
C238 C242 1.429 . S
C239 C222 1.574 . S
C239 H233 0.949 . S
C239 C243 1.368 1_556 S
C240 C221 1.429 1_556 S
C240 C234 1.429 . S
C240 C241 1.523 . S
C241 C222 1.368 . S
C241 C235 1.368 1_556 S
C241 C240 1.523 . S
C242 C226 1.429 1_554 S
C242 C238 1.429 . S
C242 C243 1.523 . S
C243 C227 1.368 . S
C243 C239 1.368 1_554 S
C243 C242 1.523 . S
H244 C219 0.950 . S
H245 C221 0.950 . S
H246 C222 0.949 . S
H247 C224 0.950 . S
H248 C226 0.950 . S
C249 C250 1.349 . S
C249 C251 1.327 . S
C249 H274 0.950 . S
C250 C249 1.349 . S
C250 C266 1.349 . S
C251 C249 1.327 . S
C251 C270 1.429 . S
C251 H275 0.950 . S
C252 C269 1.574 . S
C252 C271 1.368 1_556 S
C252 H276 0.949 . S
H253 C257 0.949 . S
C254 C255 1.349 . S
C254 C256 1.327 . S
C254 H277 0.950 . S
C255 C254 1.349 . S
C255 C267 1.349 1_556 S
C256 C254 1.327 . S
C256 C272 1.429 . S
C256 H278 0.950 . S
C257 H253 0.949 . S
C257 C265 1.574 . S
C257 C273 1.368 1_554 S
H258 C266 0.950 1_556 S
H259 C264 0.950 . S
H260 C265 0.949 . S
H261 C267 0.950 . S
H262 C268 0.950 . S
H263 C269 0.949 . S
C264 H259 0.950 . S
C264 C266 1.327 1_556 S
C264 C270 1.429 1_556 S
C265 C257 1.574 . S
C265 H260 0.949 . S
C265 C271 1.368 . S
C266 C250 1.349 . S
C266 H258 0.950 1_554 S
C266 C264 1.327 1_554 S
C267 C255 1.349 1_554 S
C267 H261 0.950 . S
C267 C268 1.327 . S
C268 H262 0.950 . S
C268 C267 1.327 . S
C268 C272 1.429 1_554 S
C269 C252 1.574 . S
C269 H263 0.949 . S
C269 C273 1.368 . S
C270 C251 1.429 . S
C270 C264 1.429 1_554 S
C270 C271 1.523 . S
C271 C252 1.368 1_554 S
C271 C265 1.368 . S
C271 C270 1.523 . S
C272 C256 1.429 . S
C272 C268 1.429 1_556 S
C272 C273 1.523 . S
C273 C257 1.368 1_556 S
C273 C269 1.368 . S
C273 C272 1.523 . S
H274 C249 0.950 . S
H275 C251 0.950 . S
H276 C252 0.949 . S
H277 C254 0.950 . S
H278 C256 0.950 . S
C279 C280 1.349 1_554 S
C279 C281 1.327 . S
C279 H304 0.950 . S
C280 C279 1.349 1_556 S
C280 C296 1.349 . S
C281 C279 1.327 . S
C281 C300 1.429 1_554 S
C281 H305 0.950 . S
C282 C299 1.574 . S
C282 C301 1.368 . S
C282 H306 0.949 . S
H283 C287 0.949 . S
C284 C285 1.349 1_556 S
C284 C286 1.327 . S
C284 H307 0.950 . S
C285 C284 1.349 1_554 S
C285 C297 1.349 . S
C286 C284 1.327 . S
C286 C302 1.429 1_556 S
C286 H308 0.950 . S
C287 H283 0.949 . S
C287 C295 1.574 . S
C287 C303 1.368 . S
H288 C296 0.950 . S
H289 C294 0.950 . S
H290 C295 0.949 . S
H291 C297 0.950 . S
H292 C298 0.950 . S
H293 C299 0.949 . S
C294 H289 0.950 . S
C294 C296 1.327 . S
C294 C300 1.429 . S
C295 C287 1.574 . S
C295 H290 0.949 . S
C295 C301 1.368 1_554 S
C296 C280 1.349 . S
C296 H288 0.950 . S
C296 C294 1.327 . S
C297 C285 1.349 . S
C297 H291 0.950 . S
C297 C298 1.327 . S
C298 H292 0.950 . S
C298 C297 1.327 . S
C298 C302 1.429 . S
C299 C282 1.574 . S
C299 H293 0.949 . S
C299 C303 1.368 1_556 S
C300 C281 1.429 1_556 S
C300 C294 1.429 . S
C300 C301 1.523 . S
C301 C282 1.368 . S
C301 C295 1.368 1_556 S
C301 C300 1.523 . S
C302 C286 1.429 1_554 S
C302 C298 1.429 . S
C302 C303 1.523 . S
C303 C287 1.368 . S
C303 C299 1.368 1_554 S
C303 C302 1.523 . S
H304 C279 0.950 . S
H305 C281 0.950 . S
H306 C282 0.949 . S
H307 C284 0.950 . S
H308 C286 0.950 . S
C309 C310 1.349 . S
C309 C311 1.327 . S
C309 H334 0.950 . S
C310 C309 1.349 . S
C310 C326 1.349 1_554 S
C311 C309 1.327 . S
C311 C330 1.429 . S
C311 H335 0.950 . S
C312 C329 1.574 . S
C312 C331 1.368 1_556 S
C312 H336 0.949 . S
H313 C317 0.949 . S
C314 C315 1.349 . S
C314 C316 1.327 . S
C314 H337 0.950 . S
C315 C314 1.349 . S
C315 C327 1.349 1_556 S
C316 C314 1.327 . S
C316 C332 1.429 . S
C316 H338 0.950 . S
C317 H313 0.949 . S
C317 C325 1.574 . S
C317 C333 1.368 1_554 S
H318 C326 0.950 . S
H319 C324 0.950 . S
H320 C325 0.949 . S
H321 C327 0.950 . S
H322 C328 0.950 . S
H323 C329 0.949 . S
C324 H319 0.950 . S
C324 C326 1.327 . S
C324 C330 1.429 1_556 S
C325 C317 1.574 . S
C325 H320 0.949 . S
C325 C331 1.368 . S
C326 C310 1.349 1_556 S
C326 H318 0.950 . S
C326 C324 1.327 . S
C327 C315 1.349 1_554 S
C327 H321 0.950 . S
C327 C328 1.327 . S
C328 H322 0.950 . S
C328 C327 1.327 . S
C328 C332 1.429 1_554 S
C329 C312 1.574 . S
C329 H323 0.949 . S
C329 C333 1.368 . S
C330 C311 1.429 . S
C330 C324 1.429 1_554 S
C330 C331 1.523 . S
C331 C312 1.368 1_554 S
C331 C325 1.368 . S
C331 C330 1.523 . S
C332 C316 1.429 . S
C332 C328 1.429 1_556 S
C332 C333 1.523 . S
C333 C317 1.368 1_556 S
C333 C329 1.368 . S
C333 C332 1.523 . S
H334 C309 0.950 . S
H335 C311 0.950 . S
H336 C312 0.949 . S
H337 C314 0.950 . S
H338 C316 0.950 . S
C70 C16 1.499 . S
C75 C17 1.499 . S
C100 C39 1.499 . S
C105 C40 1.499 . S
C130 C63 1.499 . S
C135 C62 1.500 . S
C160 C19 0.855 . S
C165 C66 0.857 . S
C190 C44 0.827 . S
C195 C21 0.827 . S
C220 C42 0.853 . S
C225 C67 0.862 . S
C250 C20 0.894 . S
C255 C65 0.890 . S
C280 C18 0.945 . S
C285 C41 0.945 . S
C310 C64 0.909 . S
C315 C43 0.896 . S
