# Generated by pormake.
# Topology ure, (4)-cn, num edge types: 1
# Building blocks:
#     Node 0, Type 0, BuildingBlock: QUQFOY_clean_sbu_1, # of connection points: 4
#     Node 1, Type 0, BuildingBlock: QUQFOY_clean_sbu_1, # of connection points: 4
#     Node 2, Type 0, BuildingBlock: QUQFOY_clean_sbu_1, # of connection points: 4
#     Node 3, Type 0, BuildingBlock: QUQFOY_clean_sbu_1, # of connection points: 4
#     Node 4, Type 0, BuildingBlock: QUQFOY_clean_sbu_1, # of connection points: 4
#     Node 5, Type 0, BuildingBlock: QUQFOY_clean_sbu_1, # of connection points: 4
#     Node 6, Type 0, BuildingBlock: QUQFOY_clean_sbu_1, # of connection points: 4
#     Node 7, Type 0, BuildingBlock: QUQFOY_clean_sbu_1, # of connection points: 4
#     Node 8, Type 0, BuildingBlock: QUQFOY_clean_sbu_1, # of connection points: 4
#     Node 9, Type 0, BuildingBlock: QUQFOY_clean_sbu_1, # of connection points: 4
#     Node 10, Type 0, BuildingBlock: QUQFOY_clean_sbu_1, # of connection points: 4
#     Node 11, Type 0, BuildingBlock: QUQFOY_clean_sbu_1, # of connection points: 4
#     Node 12, Type 0, BuildingBlock: QUQFOY_clean_sbu_1, # of connection points: 4
#     Node 13, Type 0, BuildingBlock: QUQFOY_clean_sbu_1, # of connection points: 4
#     Node 14, Type 0, BuildingBlock: QUQFOY_clean_sbu_1, # of connection points: 4
#     Node 15, Type 0, BuildingBlock: QUQFOY_clean_sbu_1, # of connection points: 4
#     Edge 16, Type (0, 0), BuildingBlock: KIFKEQ_clean_linker_1, # of connection points: 2
#     Edge 17, Type (0, 0), BuildingBlock: KIFKEQ_clean_linker_1, # of connection points: 2
#     Edge 18, Type (0, 0), BuildingBlock: KIFKEQ_clean_linker_1, # of connection points: 2
#     Edge 19, Type (0, 0), BuildingBlock: KIFKEQ_clean_linker_1, # of connection points: 2
#     Edge 20, Type (0, 0), BuildingBlock: KIFKEQ_clean_linker_1, # of connection points: 2
#     Edge 21, Type (0, 0), BuildingBlock: KIFKEQ_clean_linker_1, # of connection points: 2
#     Edge 22, Type (0, 0), BuildingBlock: KIFKEQ_clean_linker_1, # of connection points: 2
#     Edge 23, Type (0, 0), BuildingBlock: KIFKEQ_clean_linker_1, # of connection points: 2
#     Edge 24, Type (0, 0), BuildingBlock: KIFKEQ_clean_linker_1, # of connection points: 2
#     Edge 25, Type (0, 0), BuildingBlock: KIFKEQ_clean_linker_1, # of connection points: 2
#     Edge 26, Type (0, 0), BuildingBlock: KIFKEQ_clean_linker_1, # of connection points: 2
#     Edge 27, Type (0, 0), BuildingBlock: KIFKEQ_clean_linker_1, # of connection points: 2
#     Edge 28, Type (0, 0), BuildingBlock: KIFKEQ_clean_linker_1, # of connection points: 2
#     Edge 29, Type (0, 0), BuildingBlock: KIFKEQ_clean_linker_1, # of connection points: 2
#     Edge 30, Type (0, 0), BuildingBlock: KIFKEQ_clean_linker_1, # of connection points: 2
#     Edge 31, Type (0, 0), BuildingBlock: KIFKEQ_clean_linker_1, # of connection points: 2
#     Edge 32, Type (0, 0), BuildingBlock: KIFKEQ_clean_linker_1, # of connection points: 2
#     Edge 33, Type (0, 0), BuildingBlock: KIFKEQ_clean_linker_1, # of connection points: 2
#     Edge 34, Type (0, 0), BuildingBlock: KIFKEQ_clean_linker_1, # of connection points: 2
#     Edge 35, Type (0, 0), BuildingBlock: KIFKEQ_clean_linker_1, # of connection points: 2
#     Edge 36, Type (0, 0), BuildingBlock: KIFKEQ_clean_linker_1, # of connection points: 2
#     Edge 37, Type (0, 0), BuildingBlock: KIFKEQ_clean_linker_1, # of connection points: 2
#     Edge 38, Type (0, 0), BuildingBlock: KIFKEQ_clean_linker_1, # of connection points: 2
#     Edge 39, Type (0, 0), BuildingBlock: KIFKEQ_clean_linker_1, # of connection points: 2
#     Edge 40, Type (0, 0), BuildingBlock: KIFKEQ_clean_linker_1, # of connection points: 2
#     Edge 41, Type (0, 0), BuildingBlock: KIFKEQ_clean_linker_1, # of connection points: 2
#     Edge 42, Type (0, 0), BuildingBlock: KIFKEQ_clean_linker_1, # of connection points: 2
#     Edge 43, Type (0, 0), BuildingBlock: KIFKEQ_clean_linker_1, # of connection points: 2
#     Edge 44, Type (0, 0), BuildingBlock: KIFKEQ_clean_linker_1, # of connection points: 2
#     Edge 45, Type (0, 0), BuildingBlock: KIFKEQ_clean_linker_1, # of connection points: 2
#     Edge 46, Type (0, 0), BuildingBlock: KIFKEQ_clean_linker_1, # of connection points: 2
#     Edge 47, Type (0, 0), BuildingBlock: KIFKEQ_clean_linker_1, # of connection points: 2
# Relax obj value: 0.280
# Max RMSD: 0.317
# Mean RMSD: 0.224
data_MOF--net-ure--node1-QUQFOY_clean_sbu_1--edge1-KIFKEQ_clean_linker_1
_symmetry_space_group_name_H-M    P1
_symmetry_Int_Tables_number       1
_symmetry_cell_setting            triclinic
loop_
_symmetry_equiv_pos_as_xyz
'x, y, z'
_cell_length_a     31.778442
_cell_length_b     34.884375
_cell_length_c     32.943198
_cell_angle_alpha  94.038785
_cell_angle_beta   94.271993
_cell_angle_gamma 97.473697
loop_
_atom_site_label
_atom_site_type_symbol
_atom_site_fract_x
_atom_site_fract_y
_atom_site_fract_z
_atom_type_partial_charge
O0 O 0.36037 0.23944 0.27048 0.0
Cd1 Cd 0.29896 0.23382 0.28816 0.0
Cd2 Cd 0.32312 0.31397 0.30802 0.0
O3 O 0.37392 0.30338 0.27554 0.0
O4 O 0.27079 0.18309 0.26088 0.0
O5 O 0.24953 0.2392 0.24787 0.0
C6 C 0.24523 0.20194 0.2405 0.0
C7 C 0.30072 0.37545 0.30532 0.0
C8 C 0.38481 0.2704 0.26578 0.0
C9 C 0.30692 0.2604 0.37629 0.0
O10 O 0.32145 0.29328 0.36503 0.0
O11 O 0.29257 0.2324 0.35005 0.0
O12 O 0.3366 0.37074 0.32368 0.0
O13 O 0.27736 0.34509 0.28731 0.0
O14 O 0.00451 0.96796 0.55417 0.0
Cd15 Cd 0.98728 0.96313 0.49183 0.0
Cd16 Cd 0.98361 0.04365 0.51182 0.0
O17 O 0.01877 0.03184 0.56354 0.0
O18 O 0.00532 0.91391 0.46907 0.0
O19 O 0.03377 0.97194 0.45378 0.0
C20 C 0.03272 0.93468 0.44991 0.0
C21 C 0.98517 0.10882 0.49671 0.0
C22 C 0.0189 0.99855 0.57698 0.0
C23 C 0.90215 0.98633 0.48676 0.0
O24 O 0.92141 0.01814 0.50385 0.0
O25 O 0.923 0.95988 0.4741 0.0
O26 O 0.97026 0.09626 0.52915 0.0
O27 O 0.00238 0.085 0.47353 0.0
O28 O 0.21221 0.79053 0.77811 0.0
Cd29 Cd 0.27669 0.79425 0.79543 0.0
Cd30 Cd 0.25051 0.71731 0.8032 0.0
O31 O 0.19864 0.72701 0.76608 0.0
O32 O 0.30236 0.84268 0.77296 0.0
O33 O 0.3162 0.78429 0.75203 0.0
C34 C 0.32099 0.82124 0.74841 0.0
C35 C 0.27211 0.65539 0.79936 0.0
C36 C 0.18697 0.76036 0.76427 0.0
C37 C 0.27624 0.77231 0.87918 0.0
O38 O 0.25461 0.74132 0.86248 0.0
O39 O 0.29445 0.79721 0.85755 0.0
O40 O 0.23672 0.66167 0.81336 0.0
O41 O 0.29497 0.68416 0.78554 0.0
O42 O 0.55925 0.97716 0.92806 0.0
Cd43 Cd 0.49454 0.96202 0.92412 0.0
Cd44 Cd 0.50709 0.95714 0.00756 0.0
O45 O 0.56752 0.98177 0.99546 0.0
O46 O 0.46708 0.98988 0.88096 0.0
O47 O 0.46119 1.00184 0.94729 0.0
C48 C 0.45319 0.01029 0.91011 0.0
C49 C 0.48931 0.96738 0.07512 0.0
C50 C 0.58293 0.98538 0.96114 0.0
C51 C 0.47405 0.88388 0.95018 0.0
O52 O 0.48601 0.90052 0.98544 0.0
O53 O 0.47354 0.90327 0.919 0.0
O54 O 0.51831 0.94675 0.06565 0.0
O55 O 0.47099 0.98405 0.04626 0.0
O56 O 0.27386 0.67664 0.32218 0.0
Cd57 Cd 0.29411 0.73559 0.32113 0.0
Cd58 Cd 0.30066 0.71421 0.24165 0.0
O59 O 0.26722 0.66284 0.2554 0.0
O60 O 0.27015 0.76525 0.36574 0.0
O61 O 0.25263 0.7698 0.29997 0.0
C62 C 0.24828 0.78013 0.33775 0.0
C63 C 0.2923 0.73432 0.17545 0.0
C64 C 0.26323 0.65233 0.29126 0.0
C65 C 0.38144 0.74067 0.29757 0.0
O66 O 0.36333 0.72399 0.26417 0.0
O67 O 0.35934 0.75206 0.32544 0.0
O68 O 0.31002 0.70422 0.183 0.0
O69 O 0.27686 0.75229 0.2053 0.0
O70 O 0.46317 0.95821 0.39386 0.0
Cd71 Cd 0.49228 0.95529 0.4516 0.0
Cd72 Cd 0.51382 0.0353 0.44875 0.0
O73 O 0.48532 0.02046 0.39055 0.0
O74 O 0.46531 0.90879 0.47658 0.0
O75 O 0.46595 0.96903 0.50324 0.0
C76 C 0.4559 0.93216 0.50566 0.0
C77 C 0.50848 0.09944 0.47268 0.0
C78 C 0.46623 0.98827 0.37396 0.0
C79 C 0.58442 0.98449 0.46058 0.0
O80 O 0.57258 0.01795 0.46169 0.0
O81 O 0.55711 0.95422 0.45524 0.0
O82 O 0.5335 0.09149 0.44536 0.0
O83 O 0.48616 0.07084 0.48726 0.0
O84 O 0.31132 0.3581 0.82508 0.0
Cd85 Cd 0.2864 0.3003 0.82434 0.0
Cd86 Cd 0.2729 0.30344 0.74159 0.0
O87 O 0.29781 0.36049 0.75864 0.0
O88 O 0.31192 0.27325 0.86928 0.0
O89 O 0.31791 0.25789 0.80359 0.0
C90 C 0.32508 0.25088 0.84136 0.0
C91 C 0.28426 0.28065 0.67518 0.0
C92 C 0.31135 0.37724 0.79359 0.0
C93 C 0.19695 0.28229 0.79098 0.0
O94 O 0.21226 0.28496 0.75662 0.0
O95 O 0.22128 0.28859 0.82374 0.0
O96 O 0.25835 0.30521 0.68207 0.0
O97 O 0.30508 0.26917 0.70612 0.0
O98 O 0.01131 0.02602 0.90056 0.0
Cd99 Cd 0.99098 0.03163 0.9587 0.0
Cd100 Cd 0.97076 0.94991 0.94411 0.0
O101 O -0.00085 0.96208 0.89126 0.0
O102 O 0.02034 0.08194 0.9859 0.0
O103 O 0.02921 0.02496 0.00843 0.0
C104 C 0.0381 0.06235 0.01253 0.0
C105 C 0.97715 0.88831 0.96636 0.0
C106 C 0.01236 0.99472 0.8786 0.0
C107 C 0.8996 0.99963 0.95871 0.0
O108 O 0.91183 0.96678 0.95133 0.0
O109 O 0.92639 0.03031 0.96343 0.0
O110 O 0.95309 0.89292 0.93447 0.0
O111 O 0.99854 0.9189 0.98592 0.0
O112 O 0.77419 0.17885 0.81747 0.0
Cd113 Cd 0.79165 0.23709 0.81009 0.0
Cd114 Cd 0.79347 0.2094 0.73366 0.0
O115 O 0.7567 0.16167 0.75215 0.0
O116 O 0.77056 0.26966 0.85414 0.0
O117 O 0.74777 0.2688 0.78871 0.0
C118 C 0.74622 0.28201 0.82619 0.0
C119 C 0.78392 0.22691 0.66665 0.0
C120 C 0.75848 0.15324 0.78907 0.0
C121 C 0.87685 0.23751 0.78311 0.0
O122 O 0.85721 0.21592 0.75318 0.0
O123 O 0.85607 0.25407 0.80901 0.0
O124 O 0.79599 0.1943 0.6747 0.0
O125 O 0.77464 0.2492 0.6967 0.0
O126 O 0.97605 0.47057 0.89188 0.0
Cd127 Cd 0.00208 0.46836 0.95086 0.0
Cd128 Cd 0.02313 0.54859 0.94864 0.0
O129 O 0.99697 0.53322 0.88959 0.0
O130 O 0.97721 0.42029 0.97439 0.0
O131 O 0.97054 0.47948 0.99999 0.0
C132 C 0.96373 0.44235 0.00232 0.0
C133 C 0.01542 0.61209 0.97274 0.0
C134 C 0.97936 0.5008 0.87222 0.0
C135 C 0.09409 0.49941 0.96423 0.0
O136 O 0.08211 0.53275 0.96418 0.0
O137 O 0.06703 0.46903 0.95804 0.0
O138 O 0.0413 0.60508 0.9459 0.0
O139 O 0.99334 0.58285 0.9865 0.0
O140 O 0.81672 0.86067 0.31735 0.0
Cd141 Cd 0.79122 0.80345 0.321 0.0
Cd142 Cd 0.77116 0.80328 0.2387 0.0
O143 O 0.79678 0.86064 0.25173 0.0
O144 O 0.82255 0.77717 0.3632 0.0
O145 O 0.81733 0.75884 0.2969 0.0
C146 C 0.8303 0.75312 0.33389 0.0
C147 C 0.77772 0.7785 0.17167 0.0
C148 C 0.81365 0.87855 0.28512 0.0
C149 C 0.70006 0.78567 0.29519 0.0
O150 O 0.71268 0.78605 0.2595 0.0
O151 O 0.72665 0.79342 0.32633 0.0
O152 O 0.75181 0.80276 0.17976 0.0
O153 O 0.80077 0.76803 0.20175 0.0
O154 O 0.06491 0.47734 0.42036 0.0
Cd155 Cd -0.0001 0.4645 0.42025 0.0
Cd156 Cd 0.01863 0.46716 0.50414 0.0
O157 O 0.07746 0.49025 0.48703 0.0
O158 O 0.97259 0.49051 0.37537 0.0
O159 O 0.96807 0.50665 0.44114 0.0
C160 C 0.95973 0.51305 0.40334 0.0
C161 C 0.00522 0.48095 0.57252 0.0
C162 C 0.09059 0.48905 0.45148 0.0
C163 C 0.98091 0.39001 0.45441 0.0
O164 O 0.99707 0.40961 0.48709 0.0
O165 O 0.97639 0.40647 0.42146 0.0
O166 O 0.03417 0.46048 0.56255 0.0
O167 O 0.98473 0.4958 0.54361 0.0
O168 O 0.51275 0.46691 0.0488 0.0
Cd169 Cd 0.4938 0.46764 0.98736 0.0
Cd170 Cd 0.49626 0.54454 0.01253 0.0
O171 O 0.53544 0.52947 0.0598 0.0
O172 O 0.50764 0.4188 0.95968 0.0
O173 O 0.53955 0.47707 0.94879 0.0
C174 C 0.53598 0.4398 0.94177 0.0
C175 C 0.50363 0.609 0.99498 0.0
C176 C 0.53221 0.4955 0.0719 0.0
C177 C 0.41113 0.49499 0.99054 0.0
O178 O 0.43263 0.52384 0.01151 0.0
O179 O 0.42995 0.46978 0.97218 0.0
O180 O 0.49364 0.59978 0.03044 0.0
O181 O 0.51228 0.58177 0.96964 0.0
O182 O 0.85197 0.73847 0.76684 0.0
Cd183 Cd 0.79014 0.73293 0.78361 0.0
Cd184 Cd 0.81431 0.81285 0.80388 0.0
O185 O 0.86588 0.80245 0.77254 0.0
O186 O 0.76143 0.68203 0.75732 0.0
O187 O 0.74279 0.73834 0.74111 0.0
C188 C 0.73744 0.70093 0.73521 0.0
C189 C 0.79118 0.87376 0.80075 0.0
C190 C 0.87662 0.76945 0.76254 0.0
C191 C 0.79615 0.75921 0.87166 0.0
O192 O 0.81134 0.79199 0.8607 0.0
O193 O 0.78192 0.73142 0.84519 0.0
O194 O 0.82596 0.86933 0.82131 0.0
O195 O 0.76955 0.84366 0.7805 0.0
O196 O 0.72248 0.30037 0.27968 0.0
Cd197 Cd 0.78693 0.30717 0.29444 0.0
Cd198 Cd 0.77082 0.22466 0.29867 0.0
O199 O 0.71229 0.23623 0.27323 0.0
O200 O 0.813 0.3541 0.26977 0.0
O201 O 0.82324 0.29422 0.2496 0.0
C202 C 0.8295 0.33101 0.24504 0.0
C203 C 0.785 0.16012 0.28985 0.0
C204 C 0.69819 0.26858 0.27041 0.0
C205 C 0.8049 0.27997 0.37533 0.0
O206 O 0.79194 0.24662 0.35749 0.0
O207 O 0.80658 0.3101 0.35575 0.0
O208 O 0.75539 0.16983 0.31132 0.0
O209 O 0.80569 0.18686 0.27112 0.0
O210 O 0.52107 0.51467 0.39238 0.0
Cd211 Cd 0.49783 0.51969 0.44924 0.0
Cd212 Cd 0.47476 0.43801 0.43176 0.0
O213 O 0.50728 0.45086 0.38144 0.0
O214 O 0.52355 0.57104 0.47681 0.0
O215 O 0.53566 0.5151 0.49997 0.0
C216 C 0.54196 0.55259 0.50405 0.0
C217 C 0.47887 0.37625 0.45453 0.0
C218 C 0.52243 0.48358 0.37016 0.0
C219 C 0.40492 0.48911 0.44356 0.0
O220 O 0.41573 0.45582 0.43535 0.0
O221 O 0.43296 0.5187 0.4511 0.0
O222 O 0.45722 0.38105 0.42118 0.0
O223 O 0.49909 0.40676 0.47527 0.0
H224 H 0.23843 0.12655 0.20973 0.0
H225 H 0.1795 0.23059 0.19923 0.0
H226 H 0.18827 0.09304 0.15541 0.0
H227 H 0.12793 0.19659 0.14587 0.0
H228 H 0.07313 0.13846 0.02144 0.0
H229 H 0.12195 0.17176 0.07699 0.0
H230 H 0.1172 0.06548 0.13759 0.0
H231 H 0.06967 0.03185 0.08099 0.0
C232 C 0.21436 0.14216 0.19615 0.0
C233 C 0.21305 0.1813 0.20877 0.0
C234 C 0.18533 0.12282 0.16508 0.0
C235 C 0.15385 0.14196 0.14603 0.0
C236 C 0.15213 0.18101 0.15922 0.0
C237 C 0.18152 0.2005 0.19006 0.0
C238 C 0.08254 0.12218 0.04661 0.0
C239 C 0.0676 0.08245 0.04671 0.0
C240 C 0.11034 0.14139 0.07873 0.0
C241 C 0.12362 0.12149 0.11206 0.0
C242 C 0.10833 0.08172 0.11222 0.0
C243 C 0.08086 0.06241 0.07984 0.0
H244 H 0.02202 0.86129 0.4132 0.0
H245 H 0.11275 0.96559 0.43397 0.0
H246 H 0.07518 0.82776 0.38053 0.0
H247 H 0.16638 0.9315 0.40227 0.0
H248 H 0.25232 0.82709 0.40789 0.0
H249 H 0.20031 0.86871 0.42918 0.0
H250 H 0.12371 0.83524 0.31545 0.0
H251 H 0.17648 0.79435 0.29345 0.0
C252 C 0.05318 0.87714 0.41036 0.0
C253 C 0.06331 0.91601 0.42617 0.0
C254 C 0.08347 0.85801 0.39153 0.0
C255 C 0.12477 0.87709 0.38899 0.0
C256 C 0.13469 0.91623 0.4039 0.0
C257 C 0.10401 0.9357 0.42185 0.0
C258 C 0.22467 0.829 0.3872 0.0
C259 C 0.21835 0.80741 0.34907 0.0
C260 C 0.19509 0.85296 0.39929 0.0
C261 C 0.15813 0.85513 0.3739 0.0
C262 C 0.15204 0.83403 0.3355 0.0
C263 C 0.18221 0.81077 0.32294 0.0
H264 H 0.41869 0.85824 0.51332 0.0
H265 H 0.44837 0.97115 0.57922 0.0
H266 H 0.38799 0.83217 0.57279 0.0
H267 H 0.41937 0.94482 0.63944 0.0
H268 H 0.37063 0.78639 0.69628 0.0
H269 H 0.40471 0.81383 0.63889 0.0
H270 H 0.35589 0.92181 0.66702 0.0
H271 H 0.32363 0.89493 0.72517 0.0
C272 C 0.4188 0.87749 0.54062 0.0
C273 C 0.43581 0.91682 0.54147 0.0
C274 C 0.40155 0.86243 0.57495 0.0
C275 C 0.40133 0.88622 0.61126 0.0
C276 C 0.41833 0.92566 0.61197 0.0
C277 C 0.43512 0.9408 0.57743 0.0
C278 C 0.36764 0.81612 0.69042 0.0
C279 C 0.34445 0.83845 0.71535 0.0
C280 C 0.38683 0.8318 0.65725 0.0
C281 C 0.38288 0.87006 0.6479 0.0
C282 C 0.36027 0.8925 0.67342 0.0
C283 C 0.34153 0.87698 0.70679 0.0
H284 H 0.41546 0.02579 0.837 0.0
H285 H 0.44256 0.0716 0.96274 0.0
H286 H 0.38419 0.08362 0.82102 0.0
H287 H 0.41349 0.13041 0.94657 0.0
H288 H 0.32433 0.21711 0.91345 0.0
H289 H 0.35258 0.15817 0.93017 0.0
H290 H 0.40149 0.14913 0.81128 0.0
H291 H 0.37102 0.20708 0.79393 0.0
C292 C 0.41474 0.0483 0.86123 0.0
C293 C 0.43134 0.04409 0.90114 0.0
C294 C 0.39723 0.08173 0.85201 0.0
C295 C 0.39656 0.11215 0.88233 0.0
C296 C 0.41274 0.10754 0.92243 0.0
C297 C 0.42958 0.0738 0.93177 0.0
C298 C 0.34133 0.20263 0.89096 0.0
C299 C 0.34545 0.21676 0.85235 0.0
C300 C 0.35775 0.16881 0.90061 0.0
C301 C 0.37937 0.14853 0.87213 0.0
C302 C 0.38426 0.1633 0.83377 0.0
C303 C 0.36718 0.19681 0.82388 0.0
H304 H 0.67282 0.29463 0.78332 0.0
H305 H 0.75299 0.33187 0.89443 0.0
H306 H 0.62121 0.33674 0.80522 0.0
H307 H 0.702 0.37441 0.9157 0.0
H308 H 0.61587 0.4698 0.92456 0.0
H309 H 0.66792 0.43514 0.89118 0.0
H310 H 0.57427 0.33311 0.8686 0.0
H311 H 0.52258 0.36731 0.90265 0.0
C312 C 0.67972 0.31224 0.81205 0.0
C313 C 0.71677 0.30981 0.8373 0.0
C314 C 0.65019 0.33621 0.82457 0.0
C315 C 0.65776 0.35884 0.86205 0.0
C316 C 0.69561 0.35754 0.88648 0.0
C317 C 0.72461 0.333 0.87442 0.0
C318 C 0.60621 0.44021 0.9118 0.0
C319 C 0.56528 0.42116 0.91638 0.0
C320 C 0.63601 0.42038 0.8929 0.0
C321 C 0.62505 0.38148 0.87744 0.0
C322 C 0.58341 0.36316 0.88001 0.0
C323 C 0.55394 0.38269 0.89965 0.0
H324 H 0.96596 0.36984 0.02739 0.0
H325 H 0.91573 0.47676 0.05617 0.0
H326 H 0.93649 0.34296 0.08688 0.0
H327 H 0.88396 0.44921 0.11457 0.0
H328 H 0.86577 0.40534 0.23843 0.0
H329 H 0.89897 0.43171 0.1803 0.0
H330 H 0.87513 0.31797 0.11499 0.0
H331 H 0.84419 0.29145 0.17415 0.0
C332 C 0.94796 0.3874 0.04612 0.0
C333 C 0.94316 0.42544 0.03708 0.0
C334 C 0.93082 0.37189 0.08025 0.0
C335 C 0.90773 0.39377 0.1059 0.0
C336 C 0.90229 0.43166 0.09624 0.0
C337 C 0.92013 0.44742 0.06247 0.0
C338 C 0.86811 0.38595 0.21177 0.0
C339 C 0.85249 0.34632 0.21089 0.0
C340 C 0.88674 0.40113 0.17817 0.0
C341 C 0.88949 0.3772 0.14247 0.0
C342 C 0.8743 0.33735 0.14198 0.0
C343 C 0.85638 0.32206 0.17591 0.0
H344 H 0.91814 0.55943 0.45259 0.0
H345 H 0.95397 0.5433 0.32929 0.0
H346 H 0.88675 0.6169 0.43511 0.0
H347 H 0.92453 0.60161 0.31222 0.0
H348 H 0.83339 0.68829 0.28315 0.0
H349 H 0.86233 0.62946 0.29964 0.0
H350 H 0.90457 0.68177 0.42121 0.0
H351 H 0.87377 0.73982 0.40513 0.0
C352 C 0.91934 0.56819 0.42175 0.0
C353 C 0.93843 0.54671 0.39232 0.0
C354 C 0.90171 0.60142 0.41177 0.0
C355 C 0.90325 0.61432 0.37224 0.0
C356 C 0.92203 0.59244 0.34277 0.0
C357 C 0.93913 0.55897 0.35261 0.0
C358 C 0.8491 0.68729 0.31331 0.0
C359 C 0.85124 0.71872 0.34283 0.0
C360 C 0.86588 0.65353 0.32279 0.0
C361 C 0.88575 0.65053 0.36191 0.0
C362 C 0.88871 0.68248 0.39108 0.0
C363 C 0.87142 0.71602 0.38174 0.0
H364 H 0.60292 0.52609 0.55363 0.0
H365 H 0.54244 0.62769 0.53318 0.0
H366 H 0.64914 0.56234 0.60954 0.0
H367 H 0.58668 0.66344 0.59047 0.0
H368 H 0.70171 0.72954 0.66764 0.0
H369 H 0.65458 0.69369 0.61213 0.0
H370 H 0.6535 0.58947 0.67613 0.0
H371 H 0.70256 0.62501 0.73022 0.0
C372 C 0.59918 0.55607 0.56146 0.0
C373 C 0.5692 0.57407 0.53891 0.0
C374 C 0.62548 0.57689 0.59378 0.0
C375 C 0.62186 0.61605 0.60488 0.0
C376 C 0.59124 0.63372 0.58251 0.0
C377 C 0.56557 0.61311 0.54974 0.0
C378 C 0.69116 0.69901 0.66984 0.0
C379 C 0.70595 0.68007 0.70317 0.0
C380 C 0.6639 0.67837 0.63807 0.0
C381 C 0.65011 0.6384 0.63926 0.0
C382 C 0.66409 0.61987 0.6734 0.0
C383 C 0.69197 0.64035 0.70471 0.0
H384 H 0.26031 0.20381 0.4145 0.0
H385 H 0.35413 0.30586 0.43812 0.0
H386 H 0.25756 0.19952 0.48834 0.0
H387 H 0.35265 0.30044 0.51128 0.0
H388 H 0.3569 0.26362 0.64214 0.0
H389 H 0.36591 0.25057 0.56911 0.0
H390 H 0.2316 0.25319 0.54048 0.0
H391 H 0.22289 0.26733 0.61275 0.0
C392 C 0.28093 0.22478 0.43534 0.0
C393 C 0.30732 0.25527 0.42051 0.0
C394 C 0.27945 0.22222 0.47745 0.0
C395 C 0.30519 0.24945 0.50528 0.0
C396 C 0.33298 0.27876 0.49043 0.0
C397 C 0.33361 0.28194 0.44853 0.0
C398 C 0.3293 0.2606 0.62021 0.0
C399 C 0.28931 0.26676 0.6328 0.0
C400 C 0.33443 0.25322 0.57862 0.0
C401 C 0.29936 0.25078 0.54941 0.0
C402 C 0.25899 0.25452 0.56245 0.0
C403 C 0.2541 0.26287 0.6037 0.0
H404 H 0.03532 0.93576 0.82944 0.0
H405 H 0.01829 0.05671 0.83209 0.0
H406 H 0.04805 0.93594 0.75747 0.0
H407 H 0.02886 0.05656 0.75983 0.0
H408 H 0.06324 0.05468 0.63195 0.0
H409 H 0.07238 0.05349 0.70592 0.0
H410 H 0.00739 0.93589 0.69556 0.0
H411 H 0.00025 0.93657 0.62181 0.0
C412 C 0.03456 0.96248 0.81469 0.0
C413 C 0.02547 0.99615 0.83643 0.0
C414 C 0.04157 0.96254 0.77328 0.0
C415 C 0.03897 0.99611 0.75239 0.0
C416 C 0.03175 0.03024 0.77475 0.0
C417 C 0.02539 0.03032 0.81629 0.0
C418 C 0.05171 0.02832 0.64549 0.0
C419 C 0.03069 0.99584 0.62098 0.0
C420 C 0.05661 0.02773 0.68799 0.0
C421 C 0.04002 0.99484 0.70707 0.0
C422 C 0.02107 0.96165 0.68224 0.0
C423 C 0.01675 0.96207 0.63974 0.0
H424 H 0.21287 0.7556 0.92776 0.0
H425 H 0.34606 0.80167 0.93146 0.0
H426 H 0.21837 0.75552 0.00196 0.0
H427 H 0.35185 0.80075 0.00627 0.0
H428 H 0.34537 0.71966 0.1173 0.0
H429 H 0.34355 0.73938 0.04778 0.0
H430 H 0.23612 0.79964 0.06997 0.0
H431 H 0.23843 0.78047 0.14038 0.0
C432 C 0.24317 0.76638 0.94465 0.0
C433 C 0.27909 0.7785 0.92405 0.0
C434 C 0.24622 0.76657 0.98709 0.0
C435 C 0.28551 0.77809 0.00977 0.0
C436 C 0.32119 0.79176 0.98936 0.0
C437 C 0.31788 0.79243 0.94674 0.0
C438 C 0.32154 0.7374 0.10753 0.0
C439 C 0.29167 0.74815 0.13407 0.0
C440 C 0.32088 0.74906 0.06787 0.0
C441 C 0.28984 0.77115 0.05362 0.0
C442 C 0.26044 0.78266 0.08035 0.0
C443 C 0.26168 0.77164 0.12048 0.0
H444 H 0.43951 0.92222 0.32374 0.0
H445 H 0.46471 0.04699 0.32331 0.0
H446 H 0.43489 0.91637 0.24928 0.0
H447 H 0.46071 0.04097 0.24901 0.0
H448 H 0.43785 0.01597 0.11007 0.0
H449 H 0.4197 0.01994 0.18132 0.0
H450 H 0.49503 0.92847 0.20639 0.0
H451 H 0.5129 0.92447 0.13616 0.0
C452 C 0.44302 0.94844 0.30784 0.0
C453 C 0.45332 0.98502 0.32954 0.0
C454 C 0.44062 0.94507 0.26516 0.0
C455 C 0.44828 0.97819 0.24335 0.0
C456 C 0.45463 0.01493 0.2649 0.0
C457 C 0.45717 0.01831 0.30756 0.0
C458 C 0.45025 0.99665 0.13086 0.0
C459 C 0.47706 0.97014 0.11758 0.0
C460 C 0.43985 0.99888 0.17155 0.0
C461 C 0.45558 0.97423 0.19934 0.0
C462 C 0.48166 0.94733 0.18562 0.0
C463 C 0.49235 0.94539 0.14538 0.0
H464 H 0.42865 0.20827 0.26743 0.0
H465 H 0.43984 0.32761 0.23771 0.0
H466 H 0.50398 0.20786 0.26029 0.0
H467 H 0.51503 0.32673 0.22832 0.0
H468 H 0.65326 0.32937 0.28153 0.0
H469 H 0.5769 0.3288 0.27129 0.0
H470 H 0.56267 0.20918 0.2218 0.0
H471 H 0.63931 0.20932 0.23417 0.0
C472 C 0.44697 0.23411 0.25817 0.0
C473 C 0.42839 0.26813 0.25367 0.0
C474 C 0.49032 0.23385 0.25383 0.0
C475 C 0.51603 0.26744 0.24423 0.0
C476 C 0.4966 0.30062 0.23682 0.0
C477 C 0.45337 0.30107 0.24186 0.0
C478 C 0.63393 0.30305 0.26802 0.0
C479 C 0.65233 0.26925 0.25912 0.0
C480 C 0.58997 0.30278 0.26179 0.0
C481 C 0.56325 0.26885 0.24589 0.0
C482 C 0.58202 0.2356 0.23495 0.0
C483 C 0.62602 0.23571 0.2418 0.0
H484 H 0.96673 0.35088 0.52115 0.0
H485 H 0.97369 0.33291 0.39088 0.0
H486 H 0.96372 0.28206 0.52723 0.0
H487 H 0.96932 0.26273 0.39678 0.0
H488 H 0.02401 0.15121 0.4389 0.0
H489 H 0.01536 0.21777 0.42396 0.0
H490 H 0.92314 0.22088 0.51374 0.0
H491 H 0.93288 0.15573 0.52949 0.0
C492 C 0.96674 0.33204 0.49356 0.0
C493 C 0.97089 0.34745 0.45558 0.0
C494 C 0.9647 0.29233 0.49701 0.0
C495 C 0.96654 0.26667 0.46252 0.0
C496 C 0.96848 0.28178 0.42404 0.0
C497 C 0.97047 0.32187 0.42056 0.0
C498 C 0.00195 0.16626 0.45533 0.0
C499 C 0.97986 0.14853 0.48596 0.0
C500 C 0.99659 0.20421 0.44648 0.0
C501 C 0.96874 0.22488 0.46785 0.0
C502 C 0.94545 0.20627 0.4972 0.0
C503 C 0.95115 0.1688 0.50632 0.0
H504 H 0.93194 0.82725 0.73583 0.0
H505 H 0.9194 0.70654 0.76075 0.0
H506 H 0.00649 0.82567 0.72404 0.0
H507 H 0.99411 0.70533 0.75103 0.0
H508 H 0.14511 0.82313 0.77619 0.0
H509 H 0.06917 0.82508 0.76573 0.0
H510 H 0.05127 0.70743 0.71002 0.0
H511 H 0.1274 0.70495 0.72246 0.0
C512 C 0.94503 0.80028 0.73846 0.0
C513 C 0.91989 0.76714 0.74966 0.0
C514 C 0.98787 0.79941 0.73195 0.0
C515 C 0.00672 0.76554 0.73715 0.0
C516 C 0.98082 0.73185 0.7462 0.0
C517 C 0.93786 0.73258 0.75208 0.0
C518 C 0.12512 0.79788 0.76106 0.0
C519 C 0.14223 0.76368 0.75075 0.0
C520 C 0.08139 0.79905 0.75477 0.0
C521 C 0.05374 0.76622 0.73746 0.0
C522 C 0.07138 0.73294 0.72439 0.0
C523 C 0.1151 0.73159 0.73124 0.0
H524 H 0.49428 0.63423 0.91804 0.0
H525 H 0.50613 0.67368 0.04609 0.0
H526 H 0.47931 0.6986 0.90064 0.0
H527 H 0.49267 0.73767 0.02899 0.0
H528 H 0.43045 0.83712 0.99927 0.0
H529 H 0.43435 0.76842 0.0049 0.0
H530 H 0.50891 0.76631 0.9004 0.0
H531 H 0.50281 0.83484 0.89367 0.0
C532 C 0.49451 0.65684 0.94237 0.0
C533 C 0.50118 0.6489 0.98343 0.0
C534 C 0.48574 0.69364 0.93244 0.0
C535 C 0.48371 0.72311 0.96343 0.0
C536 C 0.49243 0.71539 0.00432 0.0
C537 C 0.50076 0.67877 0.01417 0.0
C538 C 0.44641 0.82156 0.97672 0.0
C539 C 0.46649 0.84116 0.9462 0.0
C540 C 0.44924 0.78236 0.98024 0.0
C541 C 0.47328 0.76214 0.95399 0.0
C542 C 0.4903 0.78097 0.92124 0.0
C543 C 0.48668 0.82019 0.91724 0.0
H544 H 0.63663 0.77013 0.23411 0.0
H545 H 0.65848 0.78409 0.3658 0.0
H546 H 0.56068 0.75926 0.23942 0.0
H547 H 0.58128 0.77214 0.37105 0.0
H548 H 0.43576 0.79194 0.35144 0.0
H549 H 0.51402 0.80188 0.35487 0.0
H550 H 0.51032 0.70822 0.26105 0.0
H551 H 0.43328 0.69914 0.25682 0.0
C552 C 0.62528 0.77053 0.26432 0.0
C553 C 0.65378 0.7777 0.29956 0.0
C554 C 0.58158 0.76412 0.26734 0.0
C555 C 0.56498 0.76437 0.30567 0.0
C556 C 0.59323 0.77188 0.34111 0.0
C557 C 0.63735 0.77842 0.33808 0.0
C558 C 0.45188 0.77342 0.33184 0.0
C559 C 0.42843 0.74533 0.30329 0.0
C560 C 0.49656 0.77895 0.33394 0.0
C561 C 0.51822 0.75626 0.30769 0.0
C562 C 0.49458 0.72686 0.2809 0.0
C563 C 0.45035 0.72164 0.27854 0.0
H564 H 0.43788 0.12956 0.49617 0.0
H565 H 0.5696 0.16142 0.47419 0.0
H566 H 0.42835 0.19845 0.5019 0.0
H567 H 0.56038 0.22984 0.48073 0.0
H568 H 0.42767 0.31026 0.42506 0.0
H569 H 0.43258 0.24419 0.4422 0.0
H570 H 0.54 0.28597 0.52909 0.0
H571 H 0.53409 0.3528 0.51297 0.0
C572 C 0.46503 0.1513 0.49383 0.0
C573 C 0.50436 0.1403 0.48442 0.0
C574 C 0.45956 0.19059 0.49695 0.0
C575 C 0.49364 0.21936 0.49167 0.0
C576 C 0.5337 0.20832 0.4853 0.0
C577 C 0.53889 0.16917 0.48131 0.0
C578 C 0.45169 0.30556 0.44856 0.0
C579 C 0.48048 0.33675 0.46768 0.0
C580 C 0.45435 0.2677 0.4585 0.0
C581 C 0.48657 0.26002 0.48707 0.0
C582 C 0.51479 0.29121 0.50703 0.0
C583 C 0.51146 0.32935 0.49775 0.0
H584 H 0.15081 0.27754 0.85826 0.0
H585 H 0.13733 0.26782 0.72619 0.0
H586 H 0.07323 0.26542 0.85894 0.0
H587 H 0.06058 0.2567 0.727 0.0
H588 H 0.92882 0.19834 0.73887 0.0
H589 H 0.00601 0.20698 0.74382 0.0
H590 H 0.00936 0.29704 0.84147 0.0
H591 H 0.93141 0.28772 0.83723 0.0
C592 C 0.13139 0.27273 0.82945 0.0
C593 C 0.15028 0.27349 0.79219 0.0
C594 C 0.08702 0.26609 0.82986 0.0
C595 C 0.06084 0.25996 0.79303 0.0
C596 C 0.07985 0.26064 0.7559 0.0
C597 C 0.12396 0.26721 0.75548 0.0
C598 C 0.94586 0.21999 0.76151 0.0
C599 C 0.92393 0.24263 0.78741 0.0
C600 C 0.99018 0.22499 0.76424 0.0
C601 C 0.01378 0.25296 0.79273 0.0
C602 C 0.992 0.27506 0.81939 0.0
C603 C 0.94741 0.2699 0.81678 0.0
H604 H 0.03913 0.86451 0.01754 0.0
H605 H 0.92238 0.82293 0.94303 0.0
H606 H 0.04768 0.79752 0.03083 0.0
H607 H 0.93041 0.75653 0.95678 0.0
H608 H 0.9457 0.64004 0.00178 0.0
H609 H 0.93471 0.70837 0.01117 0.0
H610 H 0.06322 0.74336 0.98082 0.0
H611 H 0.07395 0.67561 0.97112 0.0
C612 C 0.01491 0.84119 0.0047 0.0
C613 C 0.9803 0.84885 0.97891 0.0
C614 C 0.01979 0.80293 0.01228 0.0
C615 C 0.98972 0.77184 0.99481 0.0
C616 C 0.95387 0.77984 0.97104 0.0
C617 C 0.94943 0.81788 0.96291 0.0
C618 C 0.9718 0.66243 0.99806 0.0
C619 C 0.0105 0.65261 0.98531 0.0
C620 C 0.9655 0.70144 0.00328 0.0
C621 C 0.9981 0.73113 0.99662 0.0
C622 C 0.03767 0.72118 0.98657 0.0
C623 C 0.04368 0.68236 0.98069 0.0
H624 H 0.22741 0.39693 0.26905 0.0
H625 H 0.34378 0.44264 0.34258 0.0
H626 H 0.20711 0.46246 0.26947 0.0
H627 H 0.32339 0.50731 0.34337 0.0
H628 H 0.26934 0.61647 0.36241 0.0
H629 H 0.26984 0.54734 0.36882 0.0
H630 H 0.23617 0.52396 0.23927 0.0
H631 H 0.2354 0.59301 0.23269 0.0
C632 C 0.24848 0.42082 0.28547 0.0
C633 C 0.28724 0.41457 0.30571 0.0
C634 C 0.23683 0.45826 0.28576 0.0
C635 C 0.26348 0.48997 0.30672 0.0
C636 C 0.30178 0.48345 0.32751 0.0
C637 C 0.31361 0.44632 0.32679 0.0
C638 C 0.26086 0.59656 0.33544 0.0
C639 C 0.25307 0.61041 0.2969 0.0
C640 C 0.26139 0.55694 0.33912 0.0
C641 C 0.25379 0.53032 0.30445 0.0
C642 C 0.24213 0.54374 0.26656 0.0
C643 C 0.24187 0.58339 0.2628 0.0
H644 H 0.70387 0.09416 0.74668 0.0
H645 H 0.79788 0.11909 0.84972 0.0
H646 H 0.70256 0.0249 0.7533 0.0
H647 H 0.80002 0.05085 0.85431 0.0
H648 H 0.79654 0.92593 0.86588 0.0
H649 H 0.77819 0.99124 0.86815 0.0
H650 H 0.73827 0.97478 0.73879 0.0
H651 H 0.75359 0.9081 0.73799 0.0
C652 C 0.72392 0.08473 0.77104 0.0
C653 C 0.75092 0.11201 0.79769 0.0
C654 C 0.72381 0.04492 0.7745 0.0
C655 C 0.75185 0.03144 0.80379 0.0
C656 C 0.77725 0.05918 0.83167 0.0
C657 C 0.77625 0.09879 0.82902 0.0
C658 C 0.78323 0.9363 0.83815 0.0
C659 C 0.77672 0.91225 0.80173 0.0
C660 C 0.77295 0.97401 0.83925 0.0
C661 C 0.75715 0.98928 0.8036 0.0
C662 C 0.74956 0.96445 0.76725 0.0
C663 C 0.75868 0.92616 0.76652 0.0
H664 H 0.36331 0.53553 0.03796 0.0
H665 H 0.35269 0.44709 0.9376 0.0
H666 H 0.28664 0.53374 0.0326 0.0
H667 H 0.27512 0.44599 0.93161 0.0
H668 H 0.13306 0.4335 0.96175 0.0
H669 H 0.2096 0.42962 0.96834 0.0
H670 H 0.23534 0.5547 0.98352 0.0
H671 H 0.15956 0.55866 0.97779 0.0
C672 C 0.34459 0.5157 0.01462 0.0
C673 C 0.36415 0.4917 0.98791 0.0
C674 C 0.30058 0.51481 0.01148 0.0
C675 C 0.27489 0.49011 0.98137 0.0
C676 C 0.29415 0.46518 0.95528 0.0
C677 C 0.33849 0.46592 0.95858 0.0
C678 C 0.15512 0.46012 0.96678 0.0
C679 C 0.14016 0.49639 0.96955 0.0
C680 C 0.19889 0.45788 0.9702 0.0
C681 C 0.22843 0.49183 0.97665 0.0
C682 C 0.21338 0.52797 0.97926 0.0
C683 C 0.16985 0.53023 0.97583 0.0
H684 H 0.84198 0.12706 0.24405 0.0
H685 H 0.7527 0.10253 0.33463 0.0
H686 H 0.85961 0.06066 0.24488 0.0
H687 H 0.7701 0.03691 0.33534 0.0
H688 H 0.82763 0.92985 0.35323 0.0
H689 H 0.82859 1.00005 0.35543 0.0
H690 H 0.82198 0.99423 0.22367 0.0
H691 H 0.82151 0.92426 0.22141 0.0
C692 C 0.82616 0.10759 0.26407 0.0
C693 C 0.79575 0.12001 0.28904 0.0
C694 C 0.83629 0.06965 0.26461 0.0
C695 C 0.81658 0.04367 0.29051 0.0
C696 C 0.78651 0.05637 0.31565 0.0
C697 C 0.77616 0.09394 0.31484 0.0
C698 C 0.82757 0.94364 0.32479 0.0
C699 C 0.82391 0.92137 0.28713 0.0
C700 C 0.82777 0.98384 0.32603 0.0
C701 C 0.82463 0.00259 0.28966 0.0
C702 C 0.82451 0.98072 0.2522 0.0
C703 C 0.82403 0.94053 0.25094 0.0
H704 H 0.85993 0.06313 0.97903 0.0
H705 H 0.8346 0.94036 0.94173 0.0
H706 H 0.78297 0.06532 0.97921 0.0
H707 H 0.75852 0.943 0.94154 0.0
H708 H 0.62928 0.97545 0.89579 0.0
H709 H 0.70654 0.9832 0.89557 0.0
H710 H 0.71955 0.02622 0.02249 0.0
H711 H 0.64181 0.01776 0.02327 0.0
C712 C 0.83811 0.03671 0.97095 0.0
C713 C 0.85346 1.0016 0.96028 0.0
C714 C 0.79423 0.03802 0.97111 0.0
C715 C 0.76515 0.0044 0.96002 0.0
C716 C 0.78043 0.96936 0.94983 0.0
C717 C 0.82404 0.96792 0.95008 0.0
C718 C 0.64846 0.98719 0.92352 0.0
C719 C 0.62941 0.99564 0.95967 0.0
C720 C 0.69269 0.99153 0.92335 0.0
C721 C 0.71876 0.00512 0.95904 0.0
C722 C 0.69995 0.01582 0.99458 0.0
C723 C 0.65557 0.01081 0.99501 0.0
H724 H 0.33791 0.6274 0.76213 0.0
H725 H 0.23807 0.59577 0.84056 0.0
H726 H 0.35897 0.56228 0.76444 0.0
H727 H 0.25898 0.53142 0.84286 0.0
H728 H 0.31783 0.42583 0.86347 0.0
H729 H 0.31741 0.49595 0.86787 0.0
H730 H 0.32476 0.49564 0.73749 0.0
H731 H 0.32561 0.42578 0.73306 0.0
C732 C 0.32065 0.60669 0.77997 0.0
C733 C 0.28609 0.6166 0.80081 0.0
C734 C 0.33271 0.56949 0.78133 0.0
C735 C 0.31083 0.54182 0.80408 0.0
C736 C 0.27697 0.55221 0.82563 0.0
C737 C 0.26465 0.58902 0.82387 0.0
C738 C 0.32061 0.44086 0.83593 0.0
C739 C 0.32114 0.42012 0.79784 0.0
C740 C 0.32005 0.48099 0.83841 0.0
C741 C 0.32035 0.50119 0.80291 0.0
C742 C 0.32459 0.48096 0.76538 0.0
C743 C 0.32485 0.44083 0.76285 0.0
H744 H 0.15343 0.5239 0.5086 0.0
H745 H 0.1324 0.47278 0.38411 0.0
H746 H 0.23031 0.52861 0.50418 0.0
H747 H 0.20924 0.47727 0.38007 0.0
H748 H 0.3373 0.43324 0.42113 0.0
H749 H 0.2619 0.43952 0.4194 0.0
H750 H 0.2926 0.55994 0.46423 0.0
H751 H 0.36867 0.55408 0.46528 0.0
C752 C 0.16516 0.51426 0.48011 0.0
C753 C 0.13678 0.49756 0.44687 0.0
C754 C 0.20915 0.51714 0.47757 0.0
C755 C 0.22553 0.50292 0.44195 0.0
C756 C 0.19729 0.48807 0.40801 0.0
C757 C 0.15334 0.48567 0.41033 0.0
C758 C 0.32818 0.46116 0.43052 0.0
C759 C 0.3591 0.49318 0.44331 0.0
C760 C 0.28494 0.46476 0.42927 0.0
C761 C 0.27155 0.50025 0.44148 0.0
C762 C 0.30224 0.53226 0.45469 0.0
C763 C 0.34568 0.52886 0.45526 0.0
H764 H 0.84742 0.80072 0.93326 0.0
H765 H 0.74484 0.70581 0.90968 0.0
H766 H 0.84565 0.79536 0.00648 0.0
H767 H 0.74213 0.70132 0.98353 0.0
H768 H 0.71488 0.76784 0.11029 0.0
H769 H 0.72158 0.75422 0.03757 0.0
H770 H 0.85516 0.74598 0.0632 0.0
H771 H 0.84819 0.75874 0.13658 0.0
C772 C 0.82476 0.77846 0.94376 0.0
C773 C 0.79612 0.75384 0.91578 0.0
C774 C 0.82398 0.77521 0.98565 0.0
C775 C 0.79385 0.74785 1.00055 0.0
C776 C 0.76574 0.72257 0.97267 0.0
C777 C 0.76724 0.72519 0.93055 0.0
C778 C 0.74548 0.76228 0.10048 0.0
C779 C 0.7811 0.76455 0.1289 0.0
C780 C 0.74921 0.75423 0.05894 0.0
C781 C 0.78885 0.7491 0.04489 0.0
C782 C 0.82423 0.74982 0.07341 0.0
C783 C 0.82025 0.75699 0.11525 0.0
H784 H 0.53502 0.54698 0.32615 0.0
H785 H 0.54424 0.42429 0.32064 0.0
H786 H 0.54827 0.54793 0.2546 0.0
H787 H 0.55948 0.42546 0.24934 0.0
H788 H 0.51075 0.43239 0.11433 0.0
H789 H 0.51902 0.42907 0.18768 0.0
H790 H 0.59254 0.54328 0.20102 0.0
H791 H 0.58247 0.54722 0.12744 0.0
C792 C 0.54104 0.5204 0.30994 0.0
C793 C 0.53795 0.48547 0.32895 0.0
C794 C 0.54896 0.52094 0.26881 0.0
C795 C 0.55454 0.48665 0.2458 0.0
C796 C 0.55435 0.45225 0.26572 0.0
C797 C 0.54586 0.45161 0.30672 0.0
C798 C 0.52943 0.4565 0.13277 0.0
C799 C 0.54535 0.49032 0.11506 0.0
C800 C 0.53441 0.45454 0.17503 0.0
C801 C 0.55593 0.48618 0.20061 0.0
C802 C 0.5748 0.51877 0.18246 0.0
C803 C 0.56934 0.52092 0.1402 0.0
H804 H 0.85045 0.23512 0.41995 0.0
H805 H 0.77576 0.3295 0.431 0.0
H806 H 0.84768 0.22692 0.49249 0.0
H807 H 0.77123 0.32037 0.50364 0.0
H808 H 0.78998 0.30074 0.64164 0.0
H809 H 0.80234 0.32011 0.57294 0.0
H810 H 0.79134 0.19929 0.52861 0.0
H811 H 0.78065 0.18034 0.59687 0.0
C812 C 0.83425 0.25469 0.43827 0.0
C813 C 0.81313 0.28277 0.42005 0.0
C814 C 0.83217 0.24974 0.47972 0.0
C815 C 0.80806 0.27216 0.50368 0.0
C816 C 0.78995 0.30252 0.48612 0.0
C817 C 0.79267 0.3079 0.44458 0.0
C818 C 0.78972 0.27846 0.61697 0.0
C819 C 0.7846 0.23905 0.62461 0.0
C820 C 0.79696 0.28952 0.57768 0.0
C821 C 0.79893 0.26132 0.54539 0.0
C822 C 0.79162 0.22191 0.55294 0.0
C823 C 0.78488 0.21096 0.59203 0.0
H824 H 0.03492 0.44241 0.63483 0.0
H825 H 0.95168 0.5275 0.6075 0.0
H826 H 0.01774 0.44629 0.7053 0.0
H827 H 0.93445 0.53146 0.67907 0.0
H828 H 0.97686 0.5598 0.822 0.0
H829 H 0.97519 0.55466 0.74771 0.0
H830 H 0.95596 0.42977 0.74655 0.0
H831 H 0.958 0.43473 0.82092 0.0
C832 C 0.01288 0.46202 0.64385 0.0
C833 C 0.99481 0.48482 0.61554 0.0
C834 C 0.00265 0.46386 0.68424 0.0
C835 C 0.9743 0.48877 0.6976 0.0
C836 C 0.95631 0.5119 0.66951 0.0
C837 C 0.96622 0.5097 0.62867 0.0
C838 C 0.97129 0.53121 0.8059 0.0
C839 C 0.96836 0.49765 0.82748 0.0
C840 C 0.97012 0.52832 0.76328 0.0
C841 C 0.9662 0.49184 0.74142 0.0
C842 C 0.95975 0.4583 0.76274 0.0
C843 C 0.96067 0.46116 0.80533 0.0
H844 H 0.84606 0.93439 0.43488 0.0
H845 H 0.8518 0.02613 0.53127 0.0
H846 H 0.76795 0.93081 0.42738 0.0
H847 H 0.77507 0.02196 0.52447 0.0
H848 H 0.64965 0.04383 0.46717 0.0
H849 H 0.72538 0.0403 0.47141 0.0
H850 H 0.70074 0.91524 0.46522 0.0
H851 H 0.62387 0.91859 0.46006 0.0
C852 C 0.8307 0.95339 0.45466 0.0
C853 C 0.85508 0.98095 0.48318 0.0
C854 C 0.78612 0.95127 0.45049 0.0
C855 C 0.76555 0.97656 0.47493 0.0
C856 C 0.79003 0.00277 0.5045 0.0
C857 C 0.8341 0.00506 0.50843 0.0
C858 C 0.66009 0.01546 0.46679 0.0
C859 C 0.63059 0.98149 0.46379 0.0
C860 C 0.70362 0.01347 0.46928 0.0
C861 C 0.719 0.97751 0.46914 0.0
C862 C 0.68972 0.94334 0.46527 0.0
C863 C 0.64581 0.94531 0.46268 0.0
loop_
_geom_bond_atom_site_label_1
_geom_bond_atom_site_label_2
_geom_bond_distance
_geom_bond_site_symmetry_2
_ccdc_geom_bond_type
O0 Cd1 2.223 . S
O0 C8 1.315 . S
Cd1 O0 2.223 . S
Cd1 O4 2.297 . S
Cd1 O5 2.439 . S
Cd1 O11 2.240 . S
Cd2 O3 2.240 . S
Cd2 O10 2.223 . S
Cd2 O12 2.297 . S
Cd2 O13 2.439 . S
O3 Cd2 2.240 . S
O3 C8 1.279 . S
O4 Cd1 2.297 . S
O4 C6 1.247 . S
O5 Cd1 2.439 . S
O5 C6 1.208 . S
C6 O4 1.247 . S
C6 O5 1.208 . S
C7 O12 1.247 . S
C7 O13 1.208 . S
C8 O0 1.315 . S
C8 O3 1.279 . S
C9 O10 1.315 . S
C9 O11 1.279 . S
O10 Cd2 2.223 . S
O10 C9 1.315 . S
O11 Cd1 2.240 . S
O11 C9 1.279 . S
O12 Cd2 2.297 . S
O12 C7 1.247 . S
O13 Cd2 2.439 . S
O13 C7 1.208 . S
O14 Cd15 2.223 . S
O14 C22 1.315 . S
Cd15 O14 2.223 . S
Cd15 O18 2.297 1_655 S
Cd15 O19 2.439 1_665 S
Cd15 O25 2.240 1_565 S
Cd16 O17 2.240 1_655 S
Cd16 O24 2.223 . S
Cd16 O26 2.297 . S
Cd16 O27 2.439 1_655 S
O17 Cd16 2.240 1_455 S
O17 C22 1.279 1_445 S
O18 Cd15 2.297 1_455 S
O18 C20 1.247 . S
O19 Cd15 2.439 1_445 S
O19 C20 1.208 1_545 S
C20 O18 1.247 . S
C20 O19 1.208 1_565 S
C21 O26 1.247 . S
C21 O27 1.208 1_655 S
C22 O14 1.315 . S
C22 O17 1.279 1_665 S
C23 O24 1.315 . S
C23 O25 1.279 . S
O24 Cd16 2.223 . S
O24 C23 1.315 . S
O25 Cd15 2.240 1_545 S
O25 C23 1.279 . S
O26 Cd16 2.297 . S
O26 C21 1.247 . S
O27 Cd16 2.439 1_455 S
O27 C21 1.208 1_455 S
O28 Cd29 2.223 . S
O28 C36 1.315 . S
Cd29 O28 2.223 . S
Cd29 O32 2.297 . S
Cd29 O33 2.439 . S
Cd29 O39 2.240 . S
Cd30 O31 2.240 . S
Cd30 O38 2.223 . S
Cd30 O40 2.297 . S
Cd30 O41 2.439 . S
O31 Cd30 2.240 . S
O31 C36 1.279 . S
O32 Cd29 2.297 . S
O32 C34 1.247 . S
O33 Cd29 2.439 . S
O33 C34 1.208 . S
C34 O32 1.247 . S
C34 O33 1.208 . S
C35 O40 1.247 . S
C35 O41 1.208 . S
C36 O28 1.315 . S
C36 O31 1.279 . S
C37 O38 1.315 . S
C37 O39 1.279 . S
O38 Cd30 2.223 . S
O38 C37 1.315 . S
O39 Cd29 2.240 . S
O39 C37 1.279 . S
O40 Cd30 2.297 . S
O40 C35 1.247 . S
O41 Cd30 2.439 . S
O41 C35 1.208 . S
O42 Cd43 2.223 . S
O42 C50 1.315 . S
Cd43 O42 2.223 . S
Cd43 O46 2.297 . S
Cd43 O47 2.439 1_565 S
Cd43 O53 2.240 . S
Cd44 O45 2.240 1_554 S
Cd44 O52 2.223 . S
Cd44 O54 2.297 . S
Cd44 O55 2.439 . S
O45 Cd44 2.240 1_556 S
O45 C50 1.279 . S
O46 Cd43 2.297 . S
O46 C48 1.247 1_565 S
O47 Cd43 2.439 1_545 S
O47 C48 1.208 . S
C48 O46 1.247 1_545 S
C48 O47 1.208 . S
C49 O54 1.247 . S
C49 O55 1.208 . S
C50 O42 1.315 . S
C50 O45 1.279 . S
C51 O52 1.315 . S
C51 O53 1.279 1_554 S
O52 Cd44 2.223 . S
O52 C51 1.315 . S
O53 Cd43 2.240 . S
O53 C51 1.279 1_556 S
O54 Cd44 2.297 . S
O54 C49 1.247 . S
O55 Cd44 2.439 . S
O55 C49 1.208 . S
O56 Cd57 2.223 . S
O56 C64 1.315 . S
Cd57 O56 2.223 . S
Cd57 O60 2.297 . S
Cd57 O61 2.439 . S
Cd57 O67 2.240 . S
Cd58 O59 2.240 . S
Cd58 O66 2.223 . S
Cd58 O68 2.297 . S
Cd58 O69 2.439 . S
O59 Cd58 2.240 . S
O59 C64 1.279 . S
O60 Cd57 2.297 . S
O60 C62 1.247 . S
O61 Cd57 2.439 . S
O61 C62 1.208 . S
C62 O60 1.247 . S
C62 O61 1.208 . S
C63 O68 1.247 . S
C63 O69 1.208 . S
C64 O56 1.315 . S
C64 O59 1.279 . S
C65 O66 1.315 . S
C65 O67 1.279 . S
O66 Cd58 2.223 . S
O66 C65 1.315 . S
O67 Cd57 2.240 . S
O67 C65 1.279 . S
O68 Cd58 2.297 . S
O68 C63 1.247 . S
O69 Cd58 2.439 . S
O69 C63 1.208 . S
O70 Cd71 2.223 . S
O70 C78 1.315 . S
Cd71 O70 2.223 . S
Cd71 O74 2.297 . S
Cd71 O75 2.439 . S
Cd71 O81 2.240 1_565 S
Cd72 O73 2.240 1_545 S
Cd72 O80 2.223 . S
Cd72 O82 2.297 . S
Cd72 O83 2.439 . S
O73 Cd72 2.240 1_565 S
O73 C78 1.279 . S
O74 Cd71 2.297 . S
O74 C76 1.247 . S
O75 Cd71 2.439 . S
O75 C76 1.208 . S
C76 O74 1.247 . S
C76 O75 1.208 . S
C77 O82 1.247 . S
C77 O83 1.208 . S
C78 O70 1.315 . S
C78 O73 1.279 . S
C79 O80 1.315 . S
C79 O81 1.279 . S
O80 Cd72 2.223 . S
O80 C79 1.315 . S
O81 Cd71 2.240 1_545 S
O81 C79 1.279 . S
O82 Cd72 2.297 . S
O82 C77 1.247 . S
O83 Cd72 2.439 . S
O83 C77 1.208 . S
O84 Cd85 2.223 . S
O84 C92 1.315 . S
Cd85 O84 2.223 . S
Cd85 O88 2.297 . S
Cd85 O89 2.439 . S
Cd85 O95 2.240 . S
Cd86 O87 2.240 . S
Cd86 O94 2.223 . S
Cd86 O96 2.297 . S
Cd86 O97 2.439 . S
O87 Cd86 2.240 . S
O87 C92 1.279 . S
O88 Cd85 2.297 . S
O88 C90 1.247 . S
O89 Cd85 2.439 . S
O89 C90 1.208 . S
C90 O88 1.247 . S
C90 O89 1.208 . S
C91 O96 1.247 . S
C91 O97 1.208 . S
C92 O84 1.315 . S
C92 O87 1.279 . S
C93 O94 1.315 . S
C93 O95 1.279 . S
O94 Cd86 2.223 . S
O94 C93 1.315 . S
O95 Cd85 2.240 . S
O95 C93 1.279 . S
O96 Cd86 2.297 . S
O96 C91 1.247 . S
O97 Cd86 2.439 . S
O97 C91 1.208 . S
O98 Cd99 2.223 . S
O98 C106 1.315 1_545 S
Cd99 O98 2.223 . S
Cd99 O102 2.297 1_655 S
Cd99 O103 2.442 1_645 S
Cd99 O109 2.240 1_545 S
Cd100 O101 2.240 1_655 S
Cd100 O108 2.223 . S
Cd100 O110 2.297 . S
Cd100 O111 2.439 1_655 S
O101 Cd100 2.240 1_455 S
O101 C106 1.279 1_455 S
O102 Cd99 2.297 1_455 S
O102 C104 1.247 1_556 S
O103 Cd99 2.442 1_465 S
O103 C104 1.209 1_566 S
C104 O102 1.247 1_554 S
C104 O103 1.209 1_544 S
C105 O110 1.247 . S
C105 O111 1.208 1_655 S
C106 O98 1.315 1_565 S
C106 O101 1.279 1_655 S
C107 O108 1.315 . S
C107 O109 1.279 . S
O108 Cd100 2.223 . S
O108 C107 1.315 . S
O109 Cd99 2.240 1_565 S
O109 C107 1.279 . S
O110 Cd100 2.297 . S
O110 C105 1.247 . S
O111 Cd100 2.439 1_455 S
O111 C105 1.208 1_455 S
O112 Cd113 2.223 . S
O112 C120 1.315 . S
Cd113 O112 2.223 . S
Cd113 O116 2.297 . S
Cd113 O117 2.439 . S
Cd113 O123 2.240 . S
Cd114 O115 2.240 . S
Cd114 O122 2.223 . S
Cd114 O124 2.297 . S
Cd114 O125 2.439 . S
O115 Cd114 2.240 . S
O115 C120 1.279 . S
O116 Cd113 2.297 . S
O116 C118 1.247 . S
O117 Cd113 2.439 . S
O117 C118 1.208 . S
C118 O116 1.247 . S
C118 O117 1.208 . S
C119 O124 1.247 . S
C119 O125 1.208 . S
C120 O112 1.315 . S
C120 O115 1.279 . S
C121 O122 1.315 . S
C121 O123 1.279 . S
O122 Cd114 2.223 . S
O122 C121 1.315 . S
O123 Cd113 2.240 . S
O123 C121 1.279 . S
O124 Cd114 2.297 . S
O124 C119 1.247 . S
O125 Cd114 2.439 . S
O125 C119 1.208 . S
O126 Cd127 2.223 1_556 S
O126 C134 1.315 1_455 S
Cd127 O126 2.223 1_554 S
Cd127 O130 2.297 1_455 S
Cd127 O131 2.439 1_455 S
Cd127 O137 2.240 . S
Cd128 O129 2.240 1_455 S
Cd128 O136 2.223 . S
Cd128 O138 2.297 . S
Cd128 O139 2.439 1_456 S
O129 Cd128 2.240 1_655 S
O129 C134 1.279 . S
O130 Cd127 2.297 1_655 S
O130 C132 1.247 . S
O131 Cd127 2.439 1_655 S
O131 C132 1.208 . S
C132 O130 1.247 . S
C132 O131 1.208 . S
C133 O138 1.247 1_654 S
C133 O139 1.208 . S
C134 O126 1.315 1_655 S
C134 O129 1.279 . S
C135 O136 1.315 . S
C135 O137 1.279 1_556 S
O136 Cd128 2.223 . S
O136 C135 1.315 . S
O137 Cd127 2.240 . S
O137 C135 1.279 1_554 S
O138 Cd128 2.297 . S
O138 C133 1.247 1_456 S
O139 Cd128 2.439 1_654 S
O139 C133 1.208 . S
O140 Cd141 2.223 . S
O140 C148 1.315 . S
Cd141 O140 2.223 . S
Cd141 O144 2.297 . S
Cd141 O145 2.439 . S
Cd141 O151 2.240 . S
Cd142 O143 2.240 . S
Cd142 O150 2.223 . S
Cd142 O152 2.297 . S
Cd142 O153 2.439 . S
O143 Cd142 2.240 . S
O143 C148 1.279 . S
O144 Cd141 2.297 . S
O144 C146 1.247 . S
O145 Cd141 2.439 . S
O145 C146 1.208 . S
C146 O144 1.247 . S
C146 O145 1.208 . S
C147 O152 1.247 . S
C147 O153 1.208 . S
C148 O140 1.315 . S
C148 O143 1.279 . S
C149 O150 1.315 . S
C149 O151 1.279 . S
O150 Cd142 2.223 . S
O150 C149 1.315 . S
O151 Cd141 2.240 . S
O151 C149 1.279 . S
O152 Cd142 2.297 . S
O152 C147 1.247 . S
O153 Cd142 2.439 . S
O153 C147 1.208 . S
O154 Cd155 2.223 1_455 S
O154 C162 1.315 . S
Cd155 O154 2.223 1_655 S
Cd155 O158 2.297 . S
Cd155 O159 2.439 . S
Cd155 O165 2.240 . S
Cd156 O157 2.240 . S
Cd156 O164 2.223 . S
Cd156 O166 2.297 . S
Cd156 O167 2.439 1_455 S
O157 Cd156 2.240 . S
O157 C162 1.279 . S
O158 Cd155 2.297 . S
O158 C160 1.247 . S
O159 Cd155 2.439 . S
O159 C160 1.208 . S
C160 O158 1.247 . S
C160 O159 1.208 . S
C161 O166 1.247 . S
C161 O167 1.208 1_455 S
C162 O154 1.315 . S
C162 O157 1.279 . S
C163 O164 1.315 . S
C163 O165 1.279 1_455 S
O164 Cd156 2.223 . S
O164 C163 1.315 . S
O165 Cd155 2.240 . S
O165 C163 1.279 1_655 S
O166 Cd156 2.297 . S
O166 C161 1.247 . S
O167 Cd156 2.439 1_655 S
O167 C161 1.208 1_655 S
O168 Cd169 2.223 1_554 S
O168 C176 1.315 . S
Cd169 O168 2.223 1_556 S
Cd169 O172 2.297 . S
Cd169 O173 2.439 . S
Cd169 O179 2.240 . S
Cd170 O171 2.240 . S
Cd170 O178 2.223 . S
Cd170 O180 2.297 . S
Cd170 O181 2.439 1_554 S
O171 Cd170 2.240 . S
O171 C176 1.279 . S
O172 Cd169 2.297 . S
O172 C174 1.247 . S
O173 Cd169 2.439 . S
O173 C174 1.208 . S
C174 O172 1.247 . S
C174 O173 1.208 . S
C175 O180 1.247 1_556 S
C175 O181 1.208 . S
C176 O168 1.315 . S
C176 O171 1.279 . S
C177 O178 1.315 . S
C177 O179 1.279 1_554 S
O178 Cd170 2.223 . S
O178 C177 1.315 . S
O179 Cd169 2.240 . S
O179 C177 1.279 1_556 S
O180 Cd170 2.297 . S
O180 C175 1.247 1_554 S
O181 Cd170 2.439 1_556 S
O181 C175 1.208 . S
O182 Cd183 2.223 . S
O182 C190 1.315 . S
Cd183 O182 2.223 . S
Cd183 O186 2.297 . S
Cd183 O187 2.439 . S
Cd183 O193 2.240 . S
Cd184 O185 2.240 . S
Cd184 O192 2.223 . S
Cd184 O194 2.297 . S
Cd184 O195 2.439 . S
O185 Cd184 2.240 . S
O185 C190 1.279 . S
O186 Cd183 2.297 . S
O186 C188 1.247 . S
O187 Cd183 2.439 . S
O187 C188 1.208 . S
C188 O186 1.247 . S
C188 O187 1.208 . S
C189 O194 1.247 . S
C189 O195 1.208 . S
C190 O182 1.315 . S
C190 O185 1.279 . S
C191 O192 1.315 . S
C191 O193 1.279 . S
O192 Cd184 2.223 . S
O192 C191 1.315 . S
O193 Cd183 2.240 . S
O193 C191 1.279 . S
O194 Cd184 2.297 . S
O194 C189 1.247 . S
O195 Cd184 2.439 . S
O195 C189 1.208 . S
O196 Cd197 2.223 . S
O196 C204 1.315 . S
Cd197 O196 2.223 . S
Cd197 O200 2.297 . S
Cd197 O201 2.439 . S
Cd197 O207 2.240 . S
Cd198 O199 2.240 . S
Cd198 O206 2.223 . S
Cd198 O208 2.297 . S
Cd198 O209 2.439 . S
O199 Cd198 2.240 . S
O199 C204 1.279 . S
O200 Cd197 2.297 . S
O200 C202 1.247 . S
O201 Cd197 2.439 . S
O201 C202 1.208 . S
C202 O200 1.247 . S
C202 O201 1.208 . S
C203 O208 1.247 . S
C203 O209 1.208 . S
C204 O196 1.315 . S
C204 O199 1.279 . S
C205 O206 1.315 . S
C205 O207 1.279 . S
O206 Cd198 2.223 . S
O206 C205 1.315 . S
O207 Cd197 2.240 . S
O207 C205 1.279 . S
O208 Cd198 2.297 . S
O208 C203 1.247 . S
O209 Cd198 2.439 . S
O209 C203 1.208 . S
O210 Cd211 2.223 . S
O210 C218 1.315 . S
Cd211 O210 2.223 . S
Cd211 O214 2.297 . S
Cd211 O215 2.439 . S
Cd211 O221 2.240 . S
Cd212 O213 2.240 . S
Cd212 O220 2.223 . S
Cd212 O222 2.297 . S
Cd212 O223 2.439 . S
O213 Cd212 2.240 . S
O213 C218 1.279 . S
O214 Cd211 2.297 . S
O214 C216 1.247 . S
O215 Cd211 2.439 . S
O215 C216 1.208 . S
C216 O214 1.247 . S
C216 O215 1.208 . S
C217 O222 1.247 . S
C217 O223 1.208 . S
C218 O210 1.315 . S
C218 O213 1.279 . S
C219 O220 1.315 . S
C219 O221 1.279 . S
O220 Cd212 2.223 . S
O220 C219 1.315 . S
O221 Cd211 2.240 . S
O221 C219 1.279 . S
O222 Cd212 2.297 . S
O222 C217 1.247 . S
O223 Cd212 2.439 . S
O223 C217 1.208 . S
H224 C232 0.950 . S
H225 C237 0.950 . S
H226 C234 0.950 . S
H227 C236 0.950 . S
H228 C238 0.950 . S
H229 C240 0.950 . S
H230 C242 0.950 . S
H231 C243 0.950 . S
C232 H224 0.950 . S
C232 C233 1.386 . S
C232 C234 1.391 . S
C233 C232 1.386 . S
C233 C237 1.393 . S
C234 H226 0.950 . S
C234 C232 1.391 . S
C234 C235 1.400 . S
C235 C234 1.400 . S
C235 C236 1.398 . S
C235 C241 1.491 . S
C236 H227 0.950 . S
C236 C235 1.398 . S
C236 C237 1.391 . S
C237 H225 0.950 . S
C237 C233 1.393 . S
C237 C236 1.391 . S
C238 H228 0.950 . S
C238 C239 1.386 . S
C238 C240 1.391 . S
C239 C238 1.386 . S
C239 C243 1.393 . S
C240 H229 0.950 . S
C240 C238 1.391 . S
C240 C241 1.400 . S
C241 C235 1.491 . S
C241 C240 1.400 . S
C241 C242 1.398 . S
C242 H230 0.950 . S
C242 C241 1.398 . S
C242 C243 1.391 . S
C243 H231 0.950 . S
C243 C239 1.393 . S
C243 C242 1.391 . S
H244 C252 0.950 . S
H245 C257 0.950 . S
H246 C254 0.950 . S
H247 C256 0.950 . S
H248 C258 0.950 . S
H249 C260 0.950 . S
H250 C262 0.950 . S
H251 C263 0.950 . S
C252 H244 0.950 . S
C252 C253 1.386 . S
C252 C254 1.391 . S
C253 C252 1.386 . S
C253 C257 1.393 . S
C254 H246 0.950 . S
C254 C252 1.391 . S
C254 C255 1.400 . S
C255 C254 1.400 . S
C255 C256 1.398 . S
C255 C261 1.491 . S
C256 H247 0.950 . S
C256 C255 1.398 . S
C256 C257 1.391 . S
C257 H245 0.950 . S
C257 C253 1.393 . S
C257 C256 1.391 . S
C258 H248 0.950 . S
C258 C259 1.386 . S
C258 C260 1.391 . S
C259 C258 1.386 . S
C259 C263 1.393 . S
C260 H249 0.950 . S
C260 C258 1.391 . S
C260 C261 1.400 . S
C261 C255 1.491 . S
C261 C260 1.400 . S
C261 C262 1.398 . S
C262 H250 0.950 . S
C262 C261 1.398 . S
C262 C263 1.391 . S
C263 H251 0.950 . S
C263 C259 1.393 . S
C263 C262 1.391 . S
H264 C272 0.950 . S
H265 C277 0.950 . S
H266 C274 0.950 . S
H267 C276 0.950 . S
H268 C278 0.950 . S
H269 C280 0.950 . S
H270 C282 0.950 . S
H271 C283 0.950 . S
C272 H264 0.950 . S
C272 C273 1.386 . S
C272 C274 1.391 . S
C273 C272 1.386 . S
C273 C277 1.393 . S
C274 H266 0.950 . S
C274 C272 1.391 . S
C274 C275 1.400 . S
C275 C274 1.400 . S
C275 C276 1.398 . S
C275 C281 1.491 . S
C276 H267 0.950 . S
C276 C275 1.398 . S
C276 C277 1.391 . S
C277 H265 0.950 . S
C277 C273 1.393 . S
C277 C276 1.391 . S
C278 H268 0.950 . S
C278 C279 1.386 . S
C278 C280 1.391 . S
C279 C278 1.386 . S
C279 C283 1.393 . S
C280 H269 0.950 . S
C280 C278 1.391 . S
C280 C281 1.400 . S
C281 C275 1.491 . S
C281 C280 1.400 . S
C281 C282 1.398 . S
C282 H270 0.950 . S
C282 C281 1.398 . S
C282 C283 1.391 . S
C283 H271 0.950 . S
C283 C279 1.393 . S
C283 C282 1.391 . S
H284 C292 0.950 . S
H285 C297 0.950 . S
H286 C294 0.950 . S
H287 C296 0.950 . S
H288 C298 0.950 . S
H289 C300 0.950 . S
H290 C302 0.950 . S
H291 C303 0.950 . S
C292 H284 0.950 . S
C292 C293 1.386 . S
C292 C294 1.391 . S
C293 C292 1.386 . S
C293 C297 1.393 . S
C294 H286 0.950 . S
C294 C292 1.391 . S
C294 C295 1.400 . S
C295 C294 1.400 . S
C295 C296 1.398 . S
C295 C301 1.491 . S
C296 H287 0.950 . S
C296 C295 1.398 . S
C296 C297 1.391 . S
C297 H285 0.950 . S
C297 C293 1.393 . S
C297 C296 1.391 . S
C298 H288 0.950 . S
C298 C299 1.386 . S
C298 C300 1.391 . S
C299 C298 1.386 . S
C299 C303 1.393 . S
C300 H289 0.950 . S
C300 C298 1.391 . S
C300 C301 1.400 . S
C301 C295 1.491 . S
C301 C300 1.400 . S
C301 C302 1.398 . S
C302 H290 0.950 . S
C302 C301 1.398 . S
C302 C303 1.391 . S
C303 H291 0.950 . S
C303 C299 1.393 . S
C303 C302 1.391 . S
H304 C312 0.950 . S
H305 C317 0.950 . S
H306 C314 0.950 . S
H307 C316 0.950 . S
H308 C318 0.950 . S
H309 C320 0.950 . S
H310 C322 0.950 . S
H311 C323 0.950 . S
C312 H304 0.950 . S
C312 C313 1.386 . S
C312 C314 1.391 . S
C313 C312 1.386 . S
C313 C317 1.393 . S
C314 H306 0.950 . S
C314 C312 1.391 . S
C314 C315 1.400 . S
C315 C314 1.400 . S
C315 C316 1.398 . S
C315 C321 1.491 . S
C316 H307 0.950 . S
C316 C315 1.398 . S
C316 C317 1.391 . S
C317 H305 0.950 . S
C317 C313 1.393 . S
C317 C316 1.391 . S
C318 H308 0.950 . S
C318 C319 1.386 . S
C318 C320 1.391 . S
C319 C318 1.386 . S
C319 C323 1.393 . S
C320 H309 0.950 . S
C320 C318 1.391 . S
C320 C321 1.400 . S
C321 C315 1.491 . S
C321 C320 1.400 . S
C321 C322 1.398 . S
C322 H310 0.950 . S
C322 C321 1.398 . S
C322 C323 1.391 . S
C323 H311 0.950 . S
C323 C319 1.393 . S
C323 C322 1.391 . S
H324 C332 0.950 . S
H325 C337 0.950 . S
H326 C334 0.950 . S
H327 C336 0.950 . S
H328 C338 0.950 . S
H329 C340 0.950 . S
H330 C342 0.950 . S
H331 C343 0.950 . S
C332 H324 0.950 . S
C332 C333 1.386 . S
C332 C334 1.391 . S
C333 C332 1.386 . S
C333 C337 1.393 . S
C334 H326 0.950 . S
C334 C332 1.391 . S
C334 C335 1.400 . S
C335 C334 1.400 . S
C335 C336 1.398 . S
C335 C341 1.491 . S
C336 H327 0.950 . S
C336 C335 1.398 . S
C336 C337 1.391 . S
C337 H325 0.950 . S
C337 C333 1.393 . S
C337 C336 1.391 . S
C338 H328 0.950 . S
C338 C339 1.386 . S
C338 C340 1.391 . S
C339 C338 1.386 . S
C339 C343 1.393 . S
C340 H329 0.950 . S
C340 C338 1.391 . S
C340 C341 1.400 . S
C341 C335 1.491 . S
C341 C340 1.400 . S
C341 C342 1.398 . S
C342 H330 0.950 . S
C342 C341 1.398 . S
C342 C343 1.391 . S
C343 H331 0.950 . S
C343 C339 1.393 . S
C343 C342 1.391 . S
H344 C352 0.950 . S
H345 C357 0.950 . S
H346 C354 0.950 . S
H347 C356 0.950 . S
H348 C358 0.950 . S
H349 C360 0.950 . S
H350 C362 0.950 . S
H351 C363 0.950 . S
C352 H344 0.950 . S
C352 C353 1.386 . S
C352 C354 1.391 . S
C353 C352 1.386 . S
C353 C357 1.393 . S
C354 H346 0.950 . S
C354 C352 1.391 . S
C354 C355 1.400 . S
C355 C354 1.400 . S
C355 C356 1.398 . S
C355 C361 1.491 . S
C356 H347 0.950 . S
C356 C355 1.398 . S
C356 C357 1.391 . S
C357 H345 0.950 . S
C357 C353 1.393 . S
C357 C356 1.391 . S
C358 H348 0.950 . S
C358 C359 1.386 . S
C358 C360 1.391 . S
C359 C358 1.386 . S
C359 C363 1.393 . S
C360 H349 0.950 . S
C360 C358 1.391 . S
C360 C361 1.400 . S
C361 C355 1.491 . S
C361 C360 1.400 . S
C361 C362 1.398 . S
C362 H350 0.950 . S
C362 C361 1.398 . S
C362 C363 1.391 . S
C363 H351 0.950 . S
C363 C359 1.393 . S
C363 C362 1.391 . S
H364 C372 0.950 . S
H365 C377 0.950 . S
H366 C374 0.950 . S
H367 C376 0.950 . S
H368 C378 0.950 . S
H369 C380 0.950 . S
H370 C382 0.950 . S
H371 C383 0.950 . S
C372 H364 0.950 . S
C372 C373 1.386 . S
C372 C374 1.391 . S
C373 C372 1.386 . S
C373 C377 1.393 . S
C374 H366 0.950 . S
C374 C372 1.391 . S
C374 C375 1.400 . S
C375 C374 1.400 . S
C375 C376 1.398 . S
C375 C381 1.491 . S
C376 H367 0.950 . S
C376 C375 1.398 . S
C376 C377 1.391 . S
C377 H365 0.950 . S
C377 C373 1.393 . S
C377 C376 1.391 . S
C378 H368 0.950 . S
C378 C379 1.386 . S
C378 C380 1.391 . S
C379 C378 1.386 . S
C379 C383 1.393 . S
C380 H369 0.950 . S
C380 C378 1.391 . S
C380 C381 1.400 . S
C381 C375 1.491 . S
C381 C380 1.400 . S
C381 C382 1.398 . S
C382 H370 0.950 . S
C382 C381 1.398 . S
C382 C383 1.391 . S
C383 H371 0.950 . S
C383 C379 1.393 . S
C383 C382 1.391 . S
H384 C392 0.950 . S
H385 C397 0.950 . S
H386 C394 0.950 . S
H387 C396 0.950 . S
H388 C398 0.950 . S
H389 C400 0.950 . S
H390 C402 0.950 . S
H391 C403 0.950 . S
C392 H384 0.950 . S
C392 C393 1.386 . S
C392 C394 1.391 . S
C393 C392 1.386 . S
C393 C397 1.393 . S
C394 H386 0.950 . S
C394 C392 1.391 . S
C394 C395 1.400 . S
C395 C394 1.400 . S
C395 C396 1.398 . S
C395 C401 1.491 . S
C396 H387 0.950 . S
C396 C395 1.398 . S
C396 C397 1.391 . S
C397 H385 0.950 . S
C397 C393 1.393 . S
C397 C396 1.391 . S
C398 H388 0.950 . S
C398 C399 1.386 . S
C398 C400 1.391 . S
C399 C398 1.386 . S
C399 C403 1.393 . S
C400 H389 0.950 . S
C400 C398 1.391 . S
C400 C401 1.400 . S
C401 C395 1.491 . S
C401 C400 1.400 . S
C401 C402 1.398 . S
C402 H390 0.950 . S
C402 C401 1.398 . S
C402 C403 1.391 . S
C403 H391 0.950 . S
C403 C399 1.393 . S
C403 C402 1.391 . S
H404 C412 0.950 . S
H405 C417 0.950 . S
H406 C414 0.950 . S
H407 C416 0.950 . S
H408 C418 0.950 . S
H409 C420 0.950 . S
H410 C422 0.950 . S
H411 C423 0.950 . S
C412 H404 0.950 . S
C412 C413 1.386 1_455 S
C412 C414 1.391 . S
C413 C412 1.386 1_655 S
C413 C417 1.393 1_565 S
C414 H406 0.950 . S
C414 C412 1.391 . S
C414 C415 1.400 1_455 S
C415 C414 1.400 1_655 S
C415 C416 1.398 1_565 S
C415 C421 1.491 . S
C416 H407 0.950 . S
C416 C415 1.398 1_545 S
C416 C417 1.391 . S
C417 H405 0.950 . S
C417 C413 1.393 1_545 S
C417 C416 1.391 . S
C418 H408 0.950 . S
C418 C419 1.386 1_545 S
C418 C420 1.391 . S
C419 C418 1.386 1_565 S
C419 C423 1.393 1_655 S
C420 H409 0.950 . S
C420 C418 1.391 . S
C420 C421 1.400 1_545 S
C421 C415 1.491 . S
C421 C420 1.400 1_565 S
C421 C422 1.398 1_655 S
C422 H410 0.950 . S
C422 C421 1.398 1_455 S
C422 C423 1.391 . S
C423 H411 0.950 . S
C423 C419 1.393 1_455 S
C423 C422 1.391 . S
H424 C432 0.950 . S
H425 C437 0.950 . S
H426 C434 0.950 . S
H427 C436 0.950 . S
H428 C438 0.950 . S
H429 C440 0.950 . S
H430 C442 0.950 . S
H431 C443 0.950 . S
C432 H424 0.950 . S
C432 C433 1.386 . S
C432 C434 1.391 . S
C433 C432 1.386 . S
C433 C437 1.393 . S
C434 H426 0.950 . S
C434 C432 1.391 . S
C434 C435 1.400 . S
C435 C434 1.400 . S
C435 C436 1.398 . S
C435 C441 1.491 1_556 S
C436 H427 0.950 . S
C436 C435 1.398 . S
C436 C437 1.391 . S
C437 H425 0.950 . S
C437 C433 1.393 . S
C437 C436 1.391 . S
C438 H428 0.950 . S
C438 C439 1.386 . S
C438 C440 1.391 . S
C439 C438 1.386 . S
C439 C443 1.393 . S
C440 H429 0.950 . S
C440 C438 1.391 . S
C440 C441 1.400 . S
C441 C435 1.491 1_554 S
C441 C440 1.400 . S
C441 C442 1.398 . S
C442 H430 0.950 . S
C442 C441 1.398 . S
C442 C443 1.391 . S
C443 H431 0.950 . S
C443 C439 1.393 . S
C443 C442 1.391 . S
H444 C452 0.950 . S
H445 C457 0.949 1_545 S
H446 C454 0.950 . S
H447 C456 0.950 1_545 S
H448 C458 0.950 1_545 S
H449 C460 0.950 1_545 S
H450 C462 0.950 . S
H451 C463 0.950 . S
C452 H444 0.950 . S
C452 C453 1.386 . S
C452 C454 1.391 . S
C453 C452 1.386 . S
C453 C457 1.394 . S
C454 H446 0.950 . S
C454 C452 1.391 . S
C454 C455 1.400 . S
C455 C454 1.400 . S
C455 C456 1.398 . S
C455 C461 1.491 . S
C456 H447 0.950 1_565 S
C456 C455 1.398 . S
C456 C457 1.391 . S
C457 H445 0.949 1_565 S
C457 C453 1.394 . S
C457 C456 1.391 . S
C458 H448 0.950 1_565 S
C458 C459 1.386 . S
C458 C460 1.391 . S
C459 C458 1.386 . S
C459 C463 1.393 . S
C460 H449 0.950 1_565 S
C460 C458 1.391 . S
C460 C461 1.400 . S
C461 C455 1.491 . S
C461 C460 1.400 . S
C461 C462 1.398 . S
C462 H450 0.950 . S
C462 C461 1.398 . S
C462 C463 1.391 . S
C463 H451 0.950 . S
C463 C459 1.393 . S
C463 C462 1.391 . S
H464 C472 0.950 . S
H465 C477 0.950 . S
H466 C474 0.950 . S
H467 C476 0.950 . S
H468 C478 0.950 . S
H469 C480 0.950 . S
H470 C482 0.950 . S
H471 C483 0.950 . S
C472 H464 0.950 . S
C472 C473 1.386 . S
C472 C474 1.391 . S
C473 C472 1.386 . S
C473 C477 1.393 . S
C474 H466 0.950 . S
C474 C472 1.391 . S
C474 C475 1.400 . S
C475 C474 1.400 . S
C475 C476 1.398 . S
C475 C481 1.491 . S
C476 H467 0.950 . S
C476 C475 1.398 . S
C476 C477 1.391 . S
C477 H465 0.950 . S
C477 C473 1.393 . S
C477 C476 1.391 . S
C478 H468 0.950 . S
C478 C479 1.386 . S
C478 C480 1.391 . S
C479 C478 1.386 . S
C479 C483 1.393 . S
C480 H469 0.950 . S
C480 C478 1.391 . S
C480 C481 1.400 . S
C481 C475 1.491 . S
C481 C480 1.400 . S
C481 C482 1.398 . S
C482 H470 0.950 . S
C482 C481 1.398 . S
C482 C483 1.391 . S
C483 H471 0.950 . S
C483 C479 1.393 . S
C483 C482 1.391 . S
H484 C492 0.950 . S
H485 C497 0.950 . S
H486 C494 0.950 . S
H487 C496 0.950 . S
H488 C498 0.950 . S
H489 C500 0.950 . S
H490 C502 0.950 . S
H491 C503 0.950 . S
C492 H484 0.950 . S
C492 C493 1.386 1_655 S
C492 C494 1.391 . S
C493 C492 1.386 1_455 S
C493 C497 1.393 . S
C494 H486 0.950 . S
C494 C492 1.391 . S
C494 C495 1.400 1_655 S
C495 C494 1.400 1_455 S
C495 C496 1.398 . S
C495 C501 1.491 . S
C496 H487 0.950 . S
C496 C495 1.398 . S
C496 C497 1.391 . S
C497 H485 0.950 . S
C497 C493 1.393 . S
C497 C496 1.391 . S
C498 H488 0.950 . S
C498 C499 1.386 . S
C498 C500 1.391 . S
C499 C498 1.386 . S
C499 C503 1.393 1_455 S
C500 H489 0.950 . S
C500 C498 1.391 . S
C500 C501 1.400 . S
C501 C495 1.491 . S
C501 C500 1.400 . S
C501 C502 1.398 1_455 S
C502 H490 0.950 . S
C502 C501 1.398 1_655 S
C502 C503 1.391 . S
C503 H491 0.950 . S
C503 C499 1.393 1_655 S
C503 C502 1.391 . S
H504 C512 0.950 . S
H505 C517 0.950 . S
H506 C514 0.950 . S
H507 C516 0.950 . S
H508 C518 0.950 . S
H509 C520 0.950 . S
H510 C522 0.950 . S
H511 C523 0.950 . S
C512 H504 0.950 . S
C512 C513 1.386 . S
C512 C514 1.391 . S
C513 C512 1.386 . S
C513 C517 1.393 . S
C514 H506 0.950 . S
C514 C512 1.391 . S
C514 C515 1.396 1_655 S
C515 C514 1.396 1_455 S
C515 C516 1.394 1_455 S
C515 C521 1.499 . S
C516 H507 0.950 . S
C516 C515 1.394 1_655 S
C516 C517 1.391 . S
C517 H505 0.950 . S
C517 C513 1.393 . S
C517 C516 1.391 . S
C518 H508 0.950 . S
C518 C519 1.386 . S
C518 C520 1.391 . S
C519 C518 1.386 . S
C519 C523 1.393 . S
C520 H509 0.950 . S
C520 C518 1.391 . S
C520 C521 1.400 . S
C521 C515 1.499 . S
C521 C520 1.400 . S
C521 C522 1.398 . S
C522 H510 0.950 . S
C522 C521 1.398 . S
C522 C523 1.391 . S
C523 H511 0.950 . S
C523 C519 1.393 . S
C523 C522 1.391 . S
H524 C532 0.950 . S
H525 C537 0.950 . S
H526 C534 0.950 . S
H527 C536 0.950 . S
H528 C538 0.950 . S
H529 C540 0.950 . S
H530 C542 0.950 . S
H531 C543 0.950 . S
C532 H524 0.950 . S
C532 C533 1.386 . S
C532 C534 1.391 . S
C533 C532 1.386 . S
C533 C537 1.393 1_556 S
C534 H526 0.950 . S
C534 C532 1.391 . S
C534 C535 1.400 . S
C535 C534 1.400 . S
C535 C536 1.398 1_556 S
C535 C541 1.491 . S
C536 H527 0.950 . S
C536 C535 1.398 1_554 S
C536 C537 1.391 . S
C537 H525 0.950 . S
C537 C533 1.393 1_554 S
C537 C536 1.391 . S
C538 H528 0.950 . S
C538 C539 1.386 1_554 S
C538 C540 1.391 . S
C539 C538 1.386 1_556 S
C539 C543 1.393 . S
C540 H529 0.950 . S
C540 C538 1.391 . S
C540 C541 1.400 1_554 S
C541 C535 1.491 . S
C541 C540 1.400 1_556 S
C541 C542 1.398 . S
C542 H530 0.950 . S
C542 C541 1.398 . S
C542 C543 1.391 . S
C543 H531 0.950 . S
C543 C539 1.393 . S
C543 C542 1.391 . S
H544 C552 0.950 . S
H545 C557 0.950 . S
H546 C554 0.950 . S
H547 C556 0.950 . S
H548 C558 0.950 . S
H549 C560 0.950 . S
H550 C562 0.950 . S
H551 C563 0.950 . S
C552 H544 0.950 . S
C552 C553 1.386 . S
C552 C554 1.391 . S
C553 C552 1.386 . S
C553 C557 1.393 . S
C554 H546 0.950 . S
C554 C552 1.391 . S
C554 C555 1.400 . S
C555 C554 1.400 . S
C555 C556 1.398 . S
C555 C561 1.491 . S
C556 H547 0.950 . S
C556 C555 1.398 . S
C556 C557 1.391 . S
C557 H545 0.950 . S
C557 C553 1.393 . S
C557 C556 1.391 . S
C558 H548 0.950 . S
C558 C559 1.386 . S
C558 C560 1.391 . S
C559 C558 1.386 . S
C559 C563 1.393 . S
C560 H549 0.950 . S
C560 C558 1.391 . S
C560 C561 1.400 . S
C561 C555 1.491 . S
C561 C560 1.400 . S
C561 C562 1.398 . S
C562 H550 0.950 . S
C562 C561 1.398 . S
C562 C563 1.391 . S
C563 H551 0.950 . S
C563 C559 1.393 . S
C563 C562 1.391 . S
H564 C572 0.950 . S
H565 C577 0.950 . S
H566 C574 0.950 . S
H567 C576 0.950 . S
H568 C578 0.950 . S
H569 C580 0.950 . S
H570 C582 0.950 . S
H571 C583 0.950 . S
C572 H564 0.950 . S
C572 C573 1.386 . S
C572 C574 1.391 . S
C573 C572 1.386 . S
C573 C577 1.393 . S
C574 H566 0.950 . S
C574 C572 1.391 . S
C574 C575 1.400 . S
C575 C574 1.400 . S
C575 C576 1.398 . S
C575 C581 1.491 . S
C576 H567 0.950 . S
C576 C575 1.398 . S
C576 C577 1.391 . S
C577 H565 0.950 . S
C577 C573 1.393 . S
C577 C576 1.391 . S
C578 H568 0.950 . S
C578 C579 1.386 . S
C578 C580 1.391 . S
C579 C578 1.386 . S
C579 C583 1.393 . S
C580 H569 0.950 . S
C580 C578 1.391 . S
C580 C581 1.400 . S
C581 C575 1.491 . S
C581 C580 1.400 . S
C581 C582 1.398 . S
C582 H570 0.950 . S
C582 C581 1.398 . S
C582 C583 1.391 . S
C583 H571 0.950 . S
C583 C579 1.393 . S
C583 C582 1.391 . S
H584 C592 0.950 . S
H585 C597 0.950 . S
H586 C594 0.950 . S
H587 C596 0.950 . S
H588 C598 0.950 . S
H589 C600 0.950 1_455 S
H590 C602 0.950 . S
H591 C603 0.950 . S
C592 H584 0.950 . S
C592 C593 1.386 . S
C592 C594 1.391 . S
C593 C592 1.386 . S
C593 C597 1.393 . S
C594 H586 0.950 . S
C594 C592 1.391 . S
C594 C595 1.400 . S
C595 C594 1.400 . S
C595 C596 1.398 . S
C595 C601 1.491 . S
C596 H587 0.950 . S
C596 C595 1.398 . S
C596 C597 1.391 . S
C597 H585 0.950 . S
C597 C593 1.393 . S
C597 C596 1.391 . S
C598 H588 0.950 . S
C598 C599 1.386 . S
C598 C600 1.391 . S
C599 C598 1.386 . S
C599 C603 1.393 . S
C600 H589 0.950 1_655 S
C600 C598 1.391 . S
C600 C601 1.400 1_655 S
C601 C595 1.491 . S
C601 C600 1.400 1_455 S
C601 C602 1.398 . S
C602 H590 0.950 . S
C602 C601 1.398 . S
C602 C603 1.391 1_455 S
C603 H591 0.950 . S
C603 C599 1.393 . S
C603 C602 1.391 1_655 S
H604 C612 0.950 . S
H605 C617 0.950 . S
H606 C614 0.950 . S
H607 C616 0.950 . S
H608 C618 0.950 . S
H609 C620 0.950 . S
H610 C622 0.950 . S
H611 C623 0.950 . S
C612 H604 0.950 . S
C612 C613 1.386 1_454 S
C612 C614 1.391 . S
C613 C612 1.386 1_656 S
C613 C617 1.393 . S
C614 H606 0.950 . S
C614 C612 1.391 . S
C614 C615 1.400 1_454 S
C615 C614 1.400 1_656 S
C615 C616 1.399 . S
C615 C621 1.490 1_556 S
C616 H607 0.950 . S
C616 C615 1.399 . S
C616 C617 1.391 . S
C617 H605 0.950 . S
C617 C613 1.393 . S
C617 C616 1.391 . S
C618 H608 0.950 . S
C618 C619 1.386 1_556 S
C618 C620 1.391 . S
C619 C618 1.386 1_554 S
C619 C623 1.393 1_655 S
C620 H609 0.950 . S
C620 C618 1.391 . S
C620 C621 1.400 1_556 S
C621 C615 1.490 1_554 S
C621 C620 1.400 1_554 S
C621 C622 1.398 1_655 S
C622 H610 0.950 . S
C622 C621 1.398 1_455 S
C622 C623 1.391 . S
C623 H611 0.950 . S
C623 C619 1.393 1_455 S
C623 C622 1.391 . S
H624 C632 0.950 . S
H625 C637 0.950 . S
H626 C634 0.950 . S
H627 C636 0.950 . S
H628 C638 0.950 . S
H629 C640 0.950 . S
H630 C642 0.950 . S
H631 C643 0.950 . S
C632 H624 0.950 . S
C632 C633 1.386 . S
C632 C634 1.391 . S
C633 C632 1.386 . S
C633 C637 1.393 . S
C634 H626 0.950 . S
C634 C632 1.391 . S
C634 C635 1.400 . S
C635 C634 1.400 . S
C635 C636 1.398 . S
C635 C641 1.491 . S
C636 H627 0.950 . S
C636 C635 1.398 . S
C636 C637 1.391 . S
C637 H625 0.950 . S
C637 C633 1.393 . S
C637 C636 1.391 . S
C638 H628 0.950 . S
C638 C639 1.386 . S
C638 C640 1.391 . S
C639 C638 1.386 . S
C639 C643 1.393 . S
C640 H629 0.950 . S
C640 C638 1.391 . S
C640 C641 1.400 . S
C641 C635 1.491 . S
C641 C640 1.400 . S
C641 C642 1.398 . S
C642 H630 0.950 . S
C642 C641 1.398 . S
C642 C643 1.391 . S
C643 H631 0.950 . S
C643 C639 1.393 . S
C643 C642 1.391 . S
H644 C652 0.950 . S
H645 C657 0.950 . S
H646 C654 0.950 . S
H647 C656 0.950 . S
H648 C658 0.950 . S
H649 C660 0.956 . S
H650 C662 0.950 1_545 S
H651 C663 0.950 . S
C652 H644 0.950 . S
C652 C653 1.386 . S
C652 C654 1.391 . S
C653 C652 1.386 . S
C653 C657 1.393 . S
C654 H646 0.950 . S
C654 C652 1.391 . S
C654 C655 1.400 . S
C655 C654 1.400 . S
C655 C656 1.398 . S
C655 C661 1.491 . S
C656 H647 0.950 . S
C656 C655 1.398 . S
C656 C657 1.391 . S
C657 H645 0.950 . S
C657 C653 1.393 . S
C657 C656 1.391 . S
C658 H648 0.950 . S
C658 C659 1.386 . S
C658 C660 1.377 1_565 S
C659 C658 1.386 . S
C659 C663 1.393 . S
C660 H649 0.956 . S
C660 C658 1.377 1_545 S
C660 C661 1.409 . S
C661 C655 1.491 . S
C661 C660 1.409 . S
C661 C662 1.398 1_545 S
C662 H650 0.950 1_565 S
C662 C661 1.398 1_565 S
C662 C663 1.391 . S
C663 H651 0.950 . S
C663 C659 1.393 . S
C663 C662 1.391 . S
H664 C672 0.950 . S
H665 C677 0.950 . S
H666 C674 0.950 . S
H667 C676 0.950 . S
H668 C678 0.950 . S
H669 C680 0.950 . S
H670 C682 0.950 . S
H671 C683 0.950 . S
C672 H664 0.950 . S
C672 C673 1.386 . S
C672 C674 1.391 . S
C673 C672 1.386 . S
C673 C677 1.393 1_554 S
C674 H666 0.950 . S
C674 C672 1.391 . S
C674 C675 1.413 . S
C675 C674 1.413 . S
C675 C676 1.387 1_554 S
C675 C681 1.490 1_554 S
C676 H667 0.950 . S
C676 C675 1.387 1_556 S
C676 C677 1.391 . S
C677 H665 0.950 . S
C677 C673 1.393 1_556 S
C677 C676 1.391 . S
C678 H668 0.950 . S
C678 C679 1.386 . S
C678 C680 1.391 . S
C679 C678 1.386 . S
C679 C683 1.393 1_556 S
C680 H669 0.950 . S
C680 C678 1.391 . S
C680 C681 1.400 . S
C681 C675 1.490 1_556 S
C681 C680 1.400 . S
C681 C682 1.398 1_556 S
C682 H670 0.950 . S
C682 C681 1.398 1_554 S
C682 C683 1.391 . S
C683 H671 0.950 . S
C683 C679 1.393 1_554 S
C683 C682 1.391 . S
H684 C692 0.950 . S
H685 C697 0.950 . S
H686 C694 0.950 . S
H687 C696 0.950 1_565 S
H688 C698 0.950 . S
H689 C700 0.950 . S
H690 C702 0.950 . S
H691 C703 0.950 . S
C692 H684 0.950 . S
C692 C693 1.386 . S
C692 C694 1.391 . S
C693 C692 1.386 . S
C693 C697 1.393 . S
C694 H686 0.950 . S
C694 C692 1.391 . S
C694 C695 1.400 . S
C695 C694 1.400 . S
C695 C696 1.398 . S
C695 C701 1.491 1_545 S
C696 H687 0.950 1_545 S
C696 C695 1.398 . S
C696 C697 1.391 . S
C697 H685 0.950 . S
C697 C693 1.393 . S
C697 C696 1.391 . S
C698 H688 0.950 . S
C698 C699 1.386 . S
C698 C700 1.391 . S
C699 C698 1.386 . S
C699 C703 1.393 . S
C700 H689 0.950 . S
C700 C698 1.391 . S
C700 C701 1.400 . S
C701 C695 1.491 1_565 S
C701 C700 1.400 . S
C701 C702 1.398 . S
C702 H690 0.950 . S
C702 C701 1.398 . S
C702 C703 1.391 . S
C703 H691 0.950 . S
C703 C699 1.393 . S
C703 C702 1.391 . S
H704 C712 0.950 . S
H705 C717 0.950 . S
H706 C714 0.950 . S
H707 C716 0.950 . S
H708 C718 0.950 . S
H709 C720 0.950 . S
H710 C722 0.950 1_554 S
H711 C723 0.950 1_554 S
C712 H704 0.950 . S
C712 C713 1.386 . S
C712 C714 1.391 . S
C713 C712 1.386 . S
C713 C717 1.393 . S
C714 H706 0.950 . S
C714 C712 1.391 . S
C714 C715 1.400 . S
C715 C714 1.400 . S
C715 C716 1.398 . S
C715 C721 1.491 . S
C716 H707 0.950 . S
C716 C715 1.398 . S
C716 C717 1.391 . S
C717 H705 0.950 . S
C717 C713 1.393 . S
C717 C716 1.391 . S
C718 H708 0.950 . S
C718 C719 1.386 . S
C718 C720 1.391 . S
C719 C718 1.386 . S
C719 C723 1.393 . S
C720 H709 0.950 . S
C720 C718 1.391 . S
C720 C721 1.400 . S
C721 C715 1.491 . S
C721 C720 1.400 . S
C721 C722 1.398 . S
C722 H710 0.950 1_556 S
C722 C721 1.398 . S
C722 C723 1.391 . S
C723 H711 0.950 1_556 S
C723 C719 1.393 . S
C723 C722 1.391 . S
H724 C732 0.950 . S
H725 C737 0.950 . S
H726 C734 0.950 . S
H727 C736 0.950 . S
H728 C738 0.950 . S
H729 C740 0.950 . S
H730 C742 0.950 . S
H731 C743 0.950 . S
C732 H724 0.950 . S
C732 C733 1.386 . S
C732 C734 1.391 . S
C733 C732 1.386 . S
C733 C737 1.393 . S
C734 H726 0.950 . S
C734 C732 1.391 . S
C734 C735 1.400 . S
C735 C734 1.400 . S
C735 C736 1.398 . S
C735 C741 1.491 . S
C736 H727 0.950 . S
C736 C735 1.398 . S
C736 C737 1.391 . S
C737 H725 0.950 . S
C737 C733 1.393 . S
C737 C736 1.391 . S
C738 H728 0.950 . S
C738 C739 1.386 . S
C738 C740 1.391 . S
C739 C738 1.386 . S
C739 C743 1.393 . S
C740 H729 0.950 . S
C740 C738 1.391 . S
C740 C741 1.400 . S
C741 C735 1.491 . S
C741 C740 1.400 . S
C741 C742 1.398 . S
C742 H730 0.950 . S
C742 C741 1.398 . S
C742 C743 1.391 . S
C743 H731 0.950 . S
C743 C739 1.393 . S
C743 C742 1.391 . S
H744 C752 0.950 . S
H745 C757 0.950 . S
H746 C754 0.950 . S
H747 C756 0.950 . S
H748 C758 0.950 . S
H749 C760 0.950 . S
H750 C762 0.950 . S
H751 C763 0.950 . S
C752 H744 0.950 . S
C752 C753 1.386 . S
C752 C754 1.391 . S
C753 C752 1.386 . S
C753 C757 1.393 . S
C754 H746 0.950 . S
C754 C752 1.391 . S
C754 C755 1.400 . S
C755 C754 1.400 . S
C755 C756 1.398 . S
C755 C761 1.491 . S
C756 H747 0.950 . S
C756 C755 1.398 . S
C756 C757 1.391 . S
C757 H745 0.950 . S
C757 C753 1.393 . S
C757 C756 1.391 . S
C758 H748 0.950 . S
C758 C759 1.386 . S
C758 C760 1.391 . S
C759 C758 1.386 . S
C759 C763 1.393 . S
C760 H749 0.950 . S
C760 C758 1.391 . S
C760 C761 1.400 . S
C761 C755 1.491 . S
C761 C760 1.400 . S
C761 C762 1.398 . S
C762 H750 0.950 . S
C762 C761 1.398 . S
C762 C763 1.391 . S
C763 H751 0.950 . S
C763 C759 1.393 . S
C763 C762 1.391 . S
H764 C772 0.950 . S
H765 C777 0.950 . S
H766 C774 0.950 . S
H767 C776 0.950 . S
H768 C778 0.950 . S
H769 C780 0.950 . S
H770 C782 0.950 . S
H771 C783 0.950 . S
C772 H764 0.950 . S
C772 C773 1.386 . S
C772 C774 1.391 . S
C773 C772 1.386 . S
C773 C777 1.393 . S
C774 H766 0.950 . S
C774 C772 1.391 . S
C774 C775 1.400 . S
C775 C774 1.400 . S
C775 C776 1.398 . S
C775 C781 1.491 1_556 S
C776 H767 0.950 . S
C776 C775 1.398 . S
C776 C777 1.391 . S
C777 H765 0.950 . S
C777 C773 1.393 . S
C777 C776 1.391 . S
C778 H768 0.950 . S
C778 C779 1.386 . S
C778 C780 1.391 . S
C779 C778 1.386 . S
C779 C783 1.393 . S
C780 H769 0.950 . S
C780 C778 1.391 . S
C780 C781 1.400 . S
C781 C775 1.491 1_554 S
C781 C780 1.400 . S
C781 C782 1.398 . S
C782 H770 0.950 . S
C782 C781 1.398 . S
C782 C783 1.391 . S
C783 H771 0.950 . S
C783 C779 1.393 . S
C783 C782 1.391 . S
H784 C792 0.950 . S
H785 C797 0.950 . S
H786 C794 0.950 . S
H787 C796 0.950 . S
H788 C798 0.950 . S
H789 C800 0.950 . S
H790 C802 0.950 . S
H791 C803 0.950 . S
C792 H784 0.950 . S
C792 C793 1.386 . S
C792 C794 1.391 . S
C793 C792 1.386 . S
C793 C797 1.393 . S
C794 H786 0.950 . S
C794 C792 1.391 . S
C794 C795 1.400 . S
C795 C794 1.400 . S
C795 C796 1.398 . S
C795 C801 1.491 . S
C796 H787 0.950 . S
C796 C795 1.398 . S
C796 C797 1.391 . S
C797 H785 0.950 . S
C797 C793 1.393 . S
C797 C796 1.391 . S
C798 H788 0.950 . S
C798 C799 1.386 . S
C798 C800 1.391 . S
C799 C798 1.386 . S
C799 C803 1.393 . S
C800 H789 0.950 . S
C800 C798 1.391 . S
C800 C801 1.400 . S
C801 C795 1.491 . S
C801 C800 1.400 . S
C801 C802 1.398 . S
C802 H790 0.950 . S
C802 C801 1.398 . S
C802 C803 1.391 . S
C803 H791 0.950 . S
C803 C799 1.393 . S
C803 C802 1.391 . S
H804 C812 0.950 . S
H805 C817 0.950 . S
H806 C814 0.950 . S
H807 C816 0.950 . S
H808 C818 0.950 . S
H809 C820 0.950 . S
H810 C822 0.950 . S
H811 C823 0.950 . S
C812 H804 0.950 . S
C812 C813 1.386 . S
C812 C814 1.391 . S
C813 C812 1.386 . S
C813 C817 1.393 . S
C814 H806 0.950 . S
C814 C812 1.391 . S
C814 C815 1.400 . S
C815 C814 1.400 . S
C815 C816 1.398 . S
C815 C821 1.491 . S
C816 H807 0.950 . S
C816 C815 1.398 . S
C816 C817 1.391 . S
C817 H805 0.950 . S
C817 C813 1.393 . S
C817 C816 1.391 . S
C818 H808 0.950 . S
C818 C819 1.386 . S
C818 C820 1.391 . S
C819 C818 1.386 . S
C819 C823 1.393 . S
C820 H809 0.950 . S
C820 C818 1.391 . S
C820 C821 1.400 . S
C821 C815 1.491 . S
C821 C820 1.400 . S
C821 C822 1.398 . S
C822 H810 0.950 . S
C822 C821 1.398 . S
C822 C823 1.391 . S
C823 H811 0.950 . S
C823 C819 1.393 . S
C823 C822 1.391 . S
H824 C832 0.950 . S
H825 C837 0.950 . S
H826 C834 0.950 . S
H827 C836 0.950 . S
H828 C838 0.950 . S
H829 C840 0.950 . S
H830 C842 0.950 . S
H831 C843 0.950 . S
C832 H824 0.950 . S
C832 C833 1.386 1_455 S
C832 C834 1.391 . S
C833 C832 1.386 1_655 S
C833 C837 1.393 . S
C834 H826 0.950 . S
C834 C832 1.391 . S
C834 C835 1.400 1_455 S
C835 C834 1.400 1_655 S
C835 C836 1.398 . S
C835 C841 1.491 . S
C836 H827 0.950 . S
C836 C835 1.398 . S
C836 C837 1.391 . S
C837 H825 0.950 . S
C837 C833 1.393 . S
C837 C836 1.391 . S
C838 H828 0.950 . S
C838 C839 1.386 . S
C838 C840 1.391 . S
C839 C838 1.386 . S
C839 C843 1.393 1_655 S
C840 H829 0.950 . S
C840 C838 1.391 . S
C840 C841 1.400 . S
C841 C835 1.491 . S
C841 C840 1.400 . S
C841 C842 1.398 1_655 S
C842 H830 0.950 . S
C842 C841 1.398 1_455 S
C842 C843 1.391 . S
C843 H831 0.950 . S
C843 C839 1.393 1_455 S
C843 C842 1.391 . S
H844 C852 0.938 1_565 S
H845 C857 0.950 . S
H846 C854 0.952 1_565 S
H847 C856 0.950 . S
H848 C858 0.950 . S
H849 C860 0.950 . S
H850 C862 0.950 . S
H851 C863 0.950 . S
C852 H844 0.938 1_545 S
C852 C853 1.395 . S
C852 C854 1.394 . S
C853 C852 1.395 . S
C853 C857 1.393 . S
C854 H846 0.952 1_545 S
C854 C852 1.394 . S
C854 C855 1.397 . S
C855 C854 1.397 . S
C855 C856 1.398 . S
C855 C861 1.491 . S
C856 H847 0.950 . S
C856 C855 1.398 . S
C856 C857 1.391 . S
C857 H845 0.950 . S
C857 C853 1.393 . S
C857 C856 1.391 . S
C858 H848 0.950 . S
C858 C859 1.386 . S
C858 C860 1.391 . S
C859 C858 1.386 . S
C859 C863 1.393 1_545 S
C860 H849 0.950 . S
C860 C858 1.391 . S
C860 C861 1.400 . S
C861 C855 1.491 . S
C861 C860 1.400 . S
C861 C862 1.398 1_545 S
C862 H850 0.950 . S
C862 C861 1.398 1_565 S
C862 C863 1.391 . S
C863 H851 0.950 . S
C863 C859 1.393 1_565 S
C863 C862 1.391 . S
C233 C6 1.708 . S
C239 C104 1.692 . S
C253 C20 1.848 . S
C259 C62 1.850 . S
C273 C76 1.581 . S
C279 C34 1.634 . S
C293 C48 1.890 . S
C299 C90 1.781 . S
C313 C118 1.855 . S
C319 C174 1.853 . S
C333 C132 1.593 . S
C339 C202 1.651 . S
C353 C160 1.890 . S
C359 C146 1.765 . S
C373 C216 1.692 . S
C379 C188 1.723 . S
C393 C9 1.086 . S
C399 C91 0.974 . S
C413 C106 1.667 . S
C419 C22 1.668 . S
C433 C37 1.086 . S
C439 C63 1.032 . S
C453 C78 1.763 . S
C459 C49 1.647 . S
C473 C8 1.350 . S
C479 C204 1.352 . S
C493 C163 0.785 . S
C499 C21 0.735 1_455 S
C513 C190 1.351 . S
C519 C36 1.352 . S
C533 C175 0.757 . S
C539 C51 0.766 1_556 S
C553 C149 1.935 . S
C559 C65 1.903 . S
C573 C77 0.916 . S
C579 C217 0.930 . S
C593 C93 1.933 . S
C599 C121 1.903 . S
C613 C105 0.954 . S
C619 C133 0.882 . S
C633 C7 1.532 . S
C639 C64 1.609 . S
C653 C120 1.609 . S
C659 C189 1.533 . S
C673 C177 1.604 . S
C679 C135 1.630 . S
C693 C203 1.209 . S
C699 C148 1.244 . S
C713 C107 1.545 . S
C719 C50 1.551 . S
C733 C35 1.209 . S
C739 C92 1.244 . S
C753 C162 1.551 . S
C759 C219 1.546 . S
C773 C191 1.085 . S
C779 C147 1.027 . S
C793 C218 1.666 . S
C799 C176 1.668 . S
C813 C205 1.088 . S
C819 C119 1.016 . S
C833 C161 1.672 1_655 S
C839 C134 1.768 . S
C853 C23 1.604 . S
C859 C79 1.632 . S
