# Generated by pormake.
# Topology uot, (4)-cn, num edge types: 1
# Building blocks:
#     Node 0, Type 0, BuildingBlock: QUQFOY_clean_sbu_1, # of connection points: 4
#     Node 1, Type 0, BuildingBlock: QUQFOY_clean_sbu_1, # of connection points: 4
#     Node 2, Type 0, BuildingBlock: QUQFOY_clean_sbu_1, # of connection points: 4
#     Node 3, Type 0, BuildingBlock: QUQFOY_clean_sbu_1, # of connection points: 4
#     Node 4, Type 0, BuildingBlock: QUQFOY_clean_sbu_1, # of connection points: 4
#     Node 5, Type 0, BuildingBlock: QUQFOY_clean_sbu_1, # of connection points: 4
#     Node 6, Type 0, BuildingBlock: QUQFOY_clean_sbu_1, # of connection points: 4
#     Node 7, Type 0, BuildingBlock: QUQFOY_clean_sbu_1, # of connection points: 4
#     Node 8, Type 0, BuildingBlock: QUQFOY_clean_sbu_1, # of connection points: 4
#     Node 9, Type 0, BuildingBlock: QUQFOY_clean_sbu_1, # of connection points: 4
#     Node 10, Type 0, BuildingBlock: QUQFOY_clean_sbu_1, # of connection points: 4
#     Node 11, Type 0, BuildingBlock: QUQFOY_clean_sbu_1, # of connection points: 4
#     Node 12, Type 0, BuildingBlock: QUQFOY_clean_sbu_1, # of connection points: 4
#     Node 13, Type 0, BuildingBlock: QUQFOY_clean_sbu_1, # of connection points: 4
#     Node 14, Type 0, BuildingBlock: QUQFOY_clean_sbu_1, # of connection points: 4
#     Node 15, Type 0, BuildingBlock: QUQFOY_clean_sbu_1, # of connection points: 4
#     Edge 16, Type (0, 0), BuildingBlock: AJUNOK_clean_linker_0, # of connection points: 2
#     Edge 17, Type (0, 0), BuildingBlock: AJUNOK_clean_linker_0, # of connection points: 2
#     Edge 18, Type (0, 0), BuildingBlock: AJUNOK_clean_linker_0, # of connection points: 2
#     Edge 19, Type (0, 0), BuildingBlock: AJUNOK_clean_linker_0, # of connection points: 2
#     Edge 20, Type (0, 0), BuildingBlock: AJUNOK_clean_linker_0, # of connection points: 2
#     Edge 21, Type (0, 0), BuildingBlock: AJUNOK_clean_linker_0, # of connection points: 2
#     Edge 22, Type (0, 0), BuildingBlock: AJUNOK_clean_linker_0, # of connection points: 2
#     Edge 23, Type (0, 0), BuildingBlock: AJUNOK_clean_linker_0, # of connection points: 2
#     Edge 24, Type (0, 0), BuildingBlock: AJUNOK_clean_linker_0, # of connection points: 2
#     Edge 25, Type (0, 0), BuildingBlock: AJUNOK_clean_linker_0, # of connection points: 2
#     Edge 26, Type (0, 0), BuildingBlock: AJUNOK_clean_linker_0, # of connection points: 2
#     Edge 27, Type (0, 0), BuildingBlock: AJUNOK_clean_linker_0, # of connection points: 2
#     Edge 28, Type (0, 0), BuildingBlock: AJUNOK_clean_linker_0, # of connection points: 2
#     Edge 29, Type (0, 0), BuildingBlock: AJUNOK_clean_linker_0, # of connection points: 2
#     Edge 30, Type (0, 0), BuildingBlock: AJUNOK_clean_linker_0, # of connection points: 2
#     Edge 31, Type (0, 0), BuildingBlock: AJUNOK_clean_linker_0, # of connection points: 2
#     Edge 32, Type (0, 0), BuildingBlock: AJUNOK_clean_linker_0, # of connection points: 2
#     Edge 33, Type (0, 0), BuildingBlock: AJUNOK_clean_linker_0, # of connection points: 2
#     Edge 34, Type (0, 0), BuildingBlock: AJUNOK_clean_linker_0, # of connection points: 2
#     Edge 35, Type (0, 0), BuildingBlock: AJUNOK_clean_linker_0, # of connection points: 2
#     Edge 36, Type (0, 0), BuildingBlock: AJUNOK_clean_linker_0, # of connection points: 2
#     Edge 37, Type (0, 0), BuildingBlock: AJUNOK_clean_linker_0, # of connection points: 2
#     Edge 38, Type (0, 0), BuildingBlock: AJUNOK_clean_linker_0, # of connection points: 2
#     Edge 39, Type (0, 0), BuildingBlock: AJUNOK_clean_linker_0, # of connection points: 2
#     Edge 40, Type (0, 0), BuildingBlock: AJUNOK_clean_linker_0, # of connection points: 2
#     Edge 41, Type (0, 0), BuildingBlock: AJUNOK_clean_linker_0, # of connection points: 2
#     Edge 42, Type (0, 0), BuildingBlock: AJUNOK_clean_linker_0, # of connection points: 2
#     Edge 43, Type (0, 0), BuildingBlock: AJUNOK_clean_linker_0, # of connection points: 2
#     Edge 44, Type (0, 0), BuildingBlock: AJUNOK_clean_linker_0, # of connection points: 2
#     Edge 45, Type (0, 0), BuildingBlock: AJUNOK_clean_linker_0, # of connection points: 2
#     Edge 46, Type (0, 0), BuildingBlock: AJUNOK_clean_linker_0, # of connection points: 2
#     Edge 47, Type (0, 0), BuildingBlock: AJUNOK_clean_linker_0, # of connection points: 2
# Relax obj value: 0.059
# Max RMSD: 0.083
# Mean RMSD: 0.083
data_MOF--net-uot--node1-QUQFOY_clean_sbu_1--edge1-AJUNOK_clean_linker_0
_symmetry_space_group_name_H-M    P1
_symmetry_Int_Tables_number       1
_symmetry_cell_setting            triclinic
loop_
_symmetry_equiv_pos_as_xyz
'x, y, z'
_cell_length_a     34.653032
_cell_length_b     34.583012
_cell_length_c     33.039901
_cell_angle_alpha  89.975786
_cell_angle_beta   89.990879
_cell_angle_gamma 90.041234
loop_
_atom_site_label
_atom_site_type_symbol
_atom_site_fract_x
_atom_site_fract_y
_atom_site_fract_z
_atom_type_partial_charge
O0 O 0.17577 0.39641 0.29392 0.0
Cd1 Cd 0.22185 0.43217 0.30522 0.0
Cd2 Cd 0.17181 0.45696 0.36652 0.0
O3 O 0.13939 0.4098 0.3468 0.0
O4 O 0.265 0.40822 0.27423 0.0
O5 O 0.2651 0.41248 0.34087 0.0
C6 C 0.28171 0.4006 0.30814 0.0
C7 C 0.17333 0.47479 0.43529 0.0
C8 C 0.14538 0.39058 0.31451 0.0
C9 C 0.1924 0.51231 0.29753 0.0
O10 O 0.17274 0.50455 0.32897 0.0
O11 O 0.21593 0.48782 0.28296 0.0
O12 O 0.14236 0.4774 0.41398 0.0
O13 O 0.20334 0.4599 0.41816 0.0
O14 O 0.39351 0.8439 0.73609 0.0
Cd15 Cd 0.42776 0.79625 0.72695 0.0
Cd16 Cd 0.45762 0.84418 0.66659 0.0
O17 O 0.41203 0.87958 0.68426 0.0
O18 O 0.40052 0.75397 0.75647 0.0
O19 O 0.40876 0.75345 0.69025 0.0
C20 C 0.39428 0.73739 0.72216 0.0
C21 C 0.47674 0.84096 0.59819 0.0
C22 C 0.39078 0.8747 0.7153 0.0
C23 C 0.50841 0.82269 0.73885 0.0
O24 O 0.50349 0.84158 0.70625 0.0
O25 O 0.48213 0.80057 0.75245 0.0
O26 O 0.48091 0.87193 0.61933 0.0
O27 O 0.45999 0.81189 0.61536 0.0
O28 O 0.84013 0.62025 0.29506 0.0
Cd29 Cd 0.79421 0.58447 0.30711 0.0
Cd30 Cd 0.84524 0.55999 0.36767 0.0
O31 O 0.87736 0.60716 0.34737 0.0
O32 O 0.75113 0.60807 0.27563 0.0
O33 O 0.75067 0.60446 0.34227 0.0
C34 C 0.73421 0.61601 0.30933 0.0
C35 C 0.8438 0.54265 0.43667 0.0
C36 C 0.87088 0.62617 0.31504 0.0
C37 C 0.8246 0.50465 0.29876 0.0
O38 O 0.84453 0.51244 0.33001 0.0
O39 O 0.80031 0.52883 0.28497 0.0
O40 O 0.87475 0.53988 0.41531 0.0
O41 O 0.81376 0.55732 0.4194 0.0
O42 O 0.61913 0.17492 0.7371 0.0
Cd43 Cd 0.58484 0.2221 0.72591 0.0
Cd44 Cd 0.55595 0.17249 0.66618 0.0
O45 O 0.60183 0.13825 0.68558 0.0
O46 O 0.61158 0.26568 0.75366 0.0
O47 O 0.60397 0.26334 0.68737 0.0
C48 C 0.61808 0.28079 0.71863 0.0
C49 C 0.53683 0.1711 0.59767 0.0
C50 C 0.62253 0.14388 0.71688 0.0
C51 C 0.50407 0.19627 0.73703 0.0
O52 O 0.5096 0.17651 0.70514 0.0
O53 O 0.53019 0.21845 0.75078 0.0
O54 O 0.53296 0.1416 0.62104 0.0
O55 O 0.55311 0.20145 0.61273 0.0
O56 O 0.16996 0.62339 0.73574 0.0
Cd57 Cd 0.21578 0.58688 0.72651 0.0
Cd58 Cd 0.16652 0.56006 0.66627 0.0
O59 O 0.13402 0.60811 0.68314 0.0
O60 O 0.25889 0.61239 0.75625 0.0
O61 O 0.25902 0.6049 0.68994 0.0
C62 C 0.27543 0.61874 0.72193 0.0
C63 C 0.17054 0.54051 0.59815 0.0
C64 C 0.13991 0.62872 0.71449 0.0
C65 C 0.18534 0.50744 0.73796 0.0
O66 O 0.16617 0.51393 0.70588 0.0
O67 O 0.20925 0.53224 0.75134 0.0
O68 O 0.13883 0.53823 0.61833 0.0
O69 O 0.19993 0.55582 0.61608 0.0
O70 O 0.61883 0.84048 0.29301 0.0
Cd71 Cd 0.58349 0.79382 0.30332 0.0
Cd72 Cd 0.5574 0.84229 0.3653 0.0
O73 O 0.60418 0.87569 0.3465 0.0
O74 O 0.60833 0.7507 0.27294 0.0
O75 O 0.60276 0.75071 0.33949 0.0
C76 C 0.61539 0.73409 0.30706 0.0
C77 C 0.53962 0.83982 0.4341 0.0
C78 C 0.62388 0.87059 0.31439 0.0
C79 C 0.50323 0.82249 0.29511 0.0
O80 O 0.5102 0.84144 0.32724 0.0
O81 O 0.52823 0.79964 0.2803 0.0
O82 O 0.53657 0.87102 0.41311 0.0
O83 O 0.55465 0.81005 0.41658 0.0
O84 O 0.84171 0.39476 0.73507 0.0
Cd85 Cd 0.79659 0.43116 0.72048 0.0
Cd86 Cd 0.8511 0.45497 0.66697 0.0
O87 O 0.8793 0.40429 0.68234 0.0
O88 O 0.75229 0.40723 0.74976 0.0
O89 O 0.75465 0.41114 0.68321 0.0
C90 C 0.73698 0.39912 0.71528 0.0
C91 C 0.84662 0.4769 0.59973 0.0
C92 C 0.87187 0.38633 0.71506 0.0
C93 C 0.8309 0.50732 0.73711 0.0
O94 O 0.85511 0.49798 0.70996 0.0
O95 O 0.80126 0.48662 0.74379 0.0
O96 O 0.87894 0.47667 0.61902 0.0
O97 O 0.81675 0.46307 0.61816 0.0
O98 O 0.39624 0.17632 0.29153 0.0
Cd99 Cd 0.4318 0.22237 0.30367 0.0
Cd100 Cd 0.45631 0.17152 0.36474 0.0
O101 O 0.40952 0.13923 0.34397 0.0
O102 O 0.40797 0.26599 0.27319 0.0
O103 O 0.41196 0.26519 0.33985 0.0
C104 C 0.40019 0.28226 0.30731 0.0
C105 C 0.47333 0.17063 0.43381 0.0
C106 C 0.39047 0.14557 0.31166 0.0
C107 C 0.51191 0.19315 0.29628 0.0
O108 O 0.50408 0.17328 0.32758 0.0
O109 O 0.48744 0.21669 0.28166 0.0
O110 O 0.47639 0.14048 0.41126 0.0
O111 O 0.45885 0.20136 0.41762 0.0
O112 O 0.66979 0.89517 0.79746 0.0
Cd113 Cd 0.71655 0.9305 0.80674 0.0
Cd114 Cd 0.66765 0.95814 0.86775 0.0
O115 O 0.63402 0.91112 0.85005 0.0
O116 O 0.75795 0.90505 0.7745 0.0
O117 O 0.76087 0.9107 0.84091 0.0
C118 C 0.77587 0.89775 0.80778 0.0
C119 C 0.67123 0.97705 0.93614 0.0
C120 C 0.63946 0.89064 0.81853 0.0
C121 C 0.6878 0.01077 0.7964 0.0
O122 O 0.66859 1.00456 0.82854 0.0
O123 O 0.71098 0.98548 0.78272 0.0
O124 O 0.63984 0.98014 0.91556 0.0
O125 O 0.70052 0.96134 0.91844 0.0
O126 O 0.89702 0.34099 0.24286 0.0
Cd127 Cd 0.93185 0.29424 0.2313 0.0
Cd128 Cd 0.9574 0.34269 0.16979 0.0
O129 O 0.91108 0.37631 0.18924 0.0
O130 O 0.90651 0.25028 0.2599 0.0
O131 O 0.91248 0.25267 0.19341 0.0
C132 C 0.89934 0.23506 0.22508 0.0
C133 C 0.97443 0.34017 0.10084 0.0
C134 C 0.89184 0.3712 0.22166 0.0
C135 C 0.01229 0.32203 0.23902 0.0
O136 O 1.00503 0.34137 0.20721 0.0
O137 O 0.98732 0.29915 0.25391 0.0
O138 O 0.97795 0.37134 0.12178 0.0
O139 O 0.9593 0.3105 0.11851 0.0
O140 O 0.34188 0.12363 0.79624 0.0
Cd141 Cd 0.2962 0.08739 0.80725 0.0
Cd142 Cd 0.34723 0.0602 0.86548 0.0
O143 O 0.37972 0.10789 0.8472 0.0
O144 O 0.25259 0.11275 0.77828 0.0
O145 O 0.25369 0.10567 0.84464 0.0
C146 C 0.23666 0.11923 0.81287 0.0
C147 C 0.34417 0.04093 0.93377 0.0
C148 C 0.3729 0.1285 0.81603 0.0
C149 C 0.32588 1.00792 0.79449 0.0
O150 O 0.34607 0.01404 0.82595 0.0
O151 O 0.3018 0.03294 0.78201 0.0
O152 O 0.37554 0.03832 0.91305 0.0
O153 O 0.31465 0.05647 0.91629 0.0
O154 O 0.11891 0.67647 0.24167 0.0
Cd155 Cd 0.08357 0.72251 0.22904 0.0
Cd156 Cd 0.05865 0.67213 0.16871 0.0
O157 O 0.10523 0.63948 0.18932 0.0
O158 O 0.10836 0.76691 0.25737 0.0
O159 O 0.10301 0.76387 0.19087 0.0
C160 C 0.11583 0.7818 0.22244 0.0
C161 C 0.0422 0.67182 0.09949 0.0
C162 C 0.12441 0.64569 0.22156 0.0
C163 C 1.00338 0.69392 0.2373 0.0
O164 O 0.01087 0.67398 0.20597 0.0
O165 O 0.0281 0.71738 0.25164 0.0
O166 O 0.03866 0.64155 0.12182 0.0
O167 O 0.05662 0.70241 0.11605 0.0
O168 O 0.67561 0.11924 0.24079 0.0
Cd169 Cd 0.72162 0.0837 0.22866 0.0
Cd170 Cd 0.6713 0.05878 0.16857 0.0
O171 O 0.63891 0.10597 0.18814 0.0
O172 O 0.76539 0.10843 0.25807 0.0
O173 O 0.76373 0.10331 0.19152 0.0
C174 C 0.78098 0.11603 0.22353 0.0
C175 C 0.67323 0.04106 0.09977 0.0
C176 C 0.64506 0.12506 0.22048 0.0
C177 C 0.69191 1.00389 0.23786 0.0
O178 O 0.67195 0.01147 0.20658 0.0
O179 O 0.71614 0.02823 0.2515 0.0
O180 O 0.64214 0.03829 0.12091 0.0
O181 O 0.70315 0.05591 0.11715 0.0
O182 O 0.11634 0.34296 0.79651 0.0
Cd183 Cd 0.08283 0.29505 0.80753 0.0
Cd184 Cd 0.05376 0.34352 0.86751 0.0
O185 O 0.09893 0.37899 0.84845 0.0
O186 O 0.10987 0.25248 0.77848 0.0
O187 O 0.10306 0.25336 0.84489 0.0
C188 C 0.11698 0.23674 0.81305 0.0
C189 C 0.03587 0.34079 0.93622 0.0
C190 C 0.11948 0.37393 0.81693 0.0
C191 C 1.00148 0.31962 0.79729 0.0
O192 O 0.00701 0.33956 0.82907 0.0
O193 O 0.02784 0.29782 0.7834 0.0
O194 O 0.03114 0.37156 0.91485 0.0
O195 O 0.05261 0.31173 0.9191 0.0
O196 O 0.34033 0.89694 0.23793 0.0
Cd197 Cd 0.29424 0.93238 0.22585 0.0
Cd198 Cd 0.3448 0.95768 0.16567 0.0
O199 O 0.37742 0.91075 0.1857 0.0
O200 O 0.25047 0.9076 0.25522 0.0
O201 O 0.25217 0.91282 0.18867 0.0
C202 C 0.23487 0.9001 0.22069 0.0
C203 C 0.34292 0.97543 0.09687 0.0
C204 C 0.37109 0.89141 0.21787 0.0
C205 C 0.32305 0.0126 0.23455 0.0
O206 O 0.3432 1.00515 0.20338 0.0
O207 O 0.29942 0.98789 0.2486 0.0
O208 O 0.37394 0.97844 0.11807 0.0
O209 O 0.31312 0.9602 0.11413 0.0
O210 O 0.89236 0.67037 0.79865 0.0
Cd211 Cd 0.9263 0.71883 0.80399 0.0
Cd212 Cd 0.96128 0.67377 0.86625 0.0
O213 O 0.91817 0.63571 0.84787 0.0
O214 O 0.89811 0.75919 0.77274 0.0
O215 O 0.9079 0.76346 0.83859 0.0
C216 C 0.89295 0.77782 0.80606 0.0
C217 C 0.98117 0.67264 0.93467 0.0
C218 C 0.89379 0.6394 0.81926 0.0
C219 C 0.00897 0.69701 0.79229 0.0
O220 O 1.00661 0.68061 0.82661 0.0
O221 O 0.98017 0.71451 0.77709 0.0
O222 O 0.987 0.644 0.91066 0.0
O223 O 0.96286 0.70208 0.92025 0.0
C224 C 0.32685 0.35581 0.34486 0.0
C225 C 0.3167 0.37572 0.30921 0.0
C226 C 0.35559 0.3271 0.34465 0.0
C227 C 0.37525 0.31723 0.3088 0.0
H228 H 0.31116 0.36097 0.37269 0.0
H229 H 0.36096 0.31121 0.37234 0.0
S230 S 0.36415 0.36543 0.209 0.0
N231 N 0.33209 0.38685 0.23832 0.0
N232 N 0.38584 0.33318 0.23794 0.0
C233 C 0.3673 0.3389 0.2737 0.0
C234 C 0.33811 0.36805 0.27391 0.0
C235 C 0.35583 0.68557 0.75611 0.0
C236 C 0.36861 0.7029 0.71994 0.0
C237 C 0.32727 0.65691 0.75604 0.0
C238 C 0.31005 0.6442 0.71984 0.0
H239 H 0.36698 0.6951 0.78504 0.0
H240 H 0.31766 0.64569 0.78498 0.0
S241 S 0.33584 0.67731 0.61634 0.0
N242 N 0.36395 0.70298 0.64645 0.0
N243 N 0.31015 0.64906 0.64635 0.0
C244 C 0.32408 0.65959 0.68315 0.0
C245 C 0.35334 0.68892 0.68324 0.0
C246 C 0.65962 0.68923 0.34492 0.0
C247 C 0.64046 0.6992 0.30879 0.0
C248 C 0.68844 0.6606 0.34547 0.0
C249 C 0.69916 0.64086 0.30992 0.0
H250 H 0.65379 0.70498 0.37258 0.0
H251 H 0.70372 0.65536 0.37353 0.0
S252 S 0.65316 0.65149 0.209 0.0
N253 N 0.63097 0.68356 0.23771 0.0
N254 N 0.68483 0.63 0.23874 0.0
C255 C 0.67825 0.64864 0.2743 0.0
C256 C 0.64901 0.67772 0.27374 0.0
C257 C 0.65496 0.33485 0.75044 0.0
C258 C 0.64365 0.31523 0.71507 0.0
C259 C 0.68357 0.36343 0.74961 0.0
C260 C 0.7023 0.37376 0.71337 0.0
H261 H 0.64263 0.32716 0.77949 0.0
H262 H 0.69203 0.37647 0.77806 0.0
S263 S 0.68062 0.33414 0.61142 0.0
N264 N 0.65123 0.31046 0.64202 0.0
N265 N 0.70515 0.36425 0.64046 0.0
C266 C 0.68969 0.35611 0.67729 0.0
C267 C 0.66036 0.32686 0.67813 0.0
C268 C 0.82252 0.85407 0.84392 0.0
C269 C 0.81033 0.87212 0.80789 0.0
C270 C 0.85084 0.82495 0.84349 0.0
C271 C 0.86798 0.81276 0.80701 0.0
H272 H 0.80883 0.86112 0.87245 0.0
H273 H 0.85794 0.81067 0.8717 0.0
S274 S 0.85078 0.85511 0.7053 0.0
N275 N 0.82106 0.87877 0.73543 0.0
N276 N 0.87393 0.82425 0.73465 0.0
C277 C 0.85789 0.83238 0.77122 0.0
C278 C 0.82919 0.86199 0.77166 0.0
C279 C 0.83388 0.15281 0.25754 0.0
C280 C 0.81553 0.14159 0.22141 0.0
C281 C 0.86238 0.18153 0.25792 0.0
C282 C 0.87393 0.20042 0.22216 0.0
H283 H 0.82521 0.14036 0.28625 0.0
H284 H 0.8744 0.18991 0.28687 0.0
S285 S 0.83803 0.17897 0.11867 0.0
N286 N 0.81334 0.14943 0.14824 0.0
N287 N 0.86701 0.20348 0.14893 0.0
C288 C 0.85759 0.18789 0.18539 0.0
C289 C 0.8284 0.15849 0.18499 0.0
C290 C 0.15468 0.18428 0.77947 0.0
C291 C 0.14294 0.20253 0.81549 0.0
C292 C 0.18346 0.15591 0.77944 0.0
C293 C 0.20192 0.1444 0.81541 0.0
H294 H 0.14253 0.19289 0.75065 0.0
H295 H 0.19223 0.14394 0.75056 0.0
S296 S 0.17921 0.18023 0.91865 0.0
N297 N 0.14993 0.20477 0.88874 0.0
N298 N 0.20415 0.15135 0.88867 0.0
C299 C 0.18894 0.16069 0.85206 0.0
C300 C 0.15945 0.18974 0.85208 0.0
C301 C 0.18151 0.86392 0.25465 0.0
C302 C 0.20018 0.87476 0.21853 0.0
C303 C 0.1528 0.83542 0.25506 0.0
C304 C 0.14136 0.81634 0.21941 0.0
H305 H 0.19008 0.87651 0.28327 0.0
H306 H 0.14053 0.82731 0.28403 0.0
S307 S 0.1781 0.83681 0.11597 0.0
N308 N 0.20279 0.86639 0.14545 0.0
N309 N 0.14875 0.81271 0.14625 0.0
C310 C 0.15803 0.8285 0.18261 0.0
C311 C 0.18742 0.8577 0.1822 0.0
C312 C 0.17417 0.54839 0.23492 0.0
C313 C 0.18417 0.54883 0.27614 0.0
C314 C 0.15687 0.58073 0.21661 0.0
C315 C 0.1495 0.61479 0.23879 0.0
H316 H 0.17718 0.52204 0.21747 0.0
H317 H 0.14755 0.57831 0.18542 0.0
S318 S 0.17648 0.6319 0.34633 0.0
N319 N 0.18954 0.58681 0.33748 0.0
N320 N 0.15836 0.648 0.30332 0.0
C321 C 0.16259 0.61641 0.27924 0.0
C322 C 0.17951 0.58329 0.29787 0.0
C323 C 0.57867 0.83623 0.74229 0.0
C324 C 0.54358 0.83069 0.76267 0.0
C325 C 0.61047 0.85277 0.7618 0.0
C326 C 0.6082 0.86546 0.80232 0.0
H327 H 0.58101 0.82942 0.71036 0.0
H328 H 0.6362 0.85788 0.74397 0.0
S329 S 0.52372 0.8534 0.87033 0.0
N330 N 0.50922 0.83545 0.82656 0.0
N331 N 0.56878 0.86752 0.86329 0.0
C332 C 0.57397 0.85765 0.82386 0.0
C333 C 0.54171 0.84003 0.80403 0.0
C334 C 0.85873 0.40275 0.28007 0.0
C335 C 0.86745 0.40279 0.23838 0.0
C336 C 0.84246 0.4351 0.29891 0.0
C337 C 0.83327 0.46848 0.27675 0.0
H338 H 0.86668 0.37845 0.29901 0.0
H339 H 0.83853 0.43456 0.33145 0.0
S340 S 0.8454 0.48201 0.16615 0.0
N341 N 0.86229 0.43814 0.17489 0.0
N342 N 0.83074 0.49868 0.21041 0.0
C343 C 0.83894 0.46801 0.23462 0.0
C344 C 0.85628 0.43524 0.21542 0.0
C345 C 0.47063 0.17655 0.80062 0.0
C346 C 0.46842 0.18905 0.7602 0.0
C347 C 0.43871 0.15924 0.81969 0.0
C348 C 0.40339 0.15432 0.79911 0.0
H349 H 0.49795 0.17741 0.81654 0.0
H350 H 0.44246 0.14777 0.84994 0.0
S351 S 0.38167 0.1889 0.69486 0.0
N352 N 0.4276 0.1997 0.70178 0.0
N353 N 0.36718 0.16868 0.73751 0.0
C354 C 0.4001 0.1702 0.75984 0.0
C355 C 0.43276 0.18709 0.74038 0.0
C356 C 0.1697 0.43738 0.73968 0.0
C357 C 0.17662 0.47181 0.76093 0.0
C358 C 0.15381 0.40503 0.75896 0.0
C359 C 0.14318 0.40609 0.80015 0.0
H360 H 0.17522 0.43589 0.70742 0.0
H361 H 0.14775 0.37979 0.74062 0.0
S362 S 0.15855 0.4887 0.87009 0.0
N363 N 0.17472 0.50441 0.826 0.0
N364 N 0.14382 0.44386 0.86231 0.0
C365 C 0.15191 0.43979 0.8223 0.0
C366 C 0.1689 0.47258 0.80269 0.0
C367 C 0.43625 0.85937 0.21356 0.0
C368 C 0.40178 0.86609 0.23516 0.0
C369 C 0.46828 0.84186 0.23217 0.0
C370 C 0.46712 0.83098 0.27315 0.0
H371 H 0.43922 0.86937 0.18264 0.0
H372 H 0.49493 0.83938 0.21521 0.0
S373 S 0.38278 0.8366 0.3417 0.0
N374 N 0.36744 0.85557 0.29877 0.0
N375 N 0.42805 0.82405 0.33353 0.0
C376 C 0.43228 0.83498 0.29424 0.0
C377 C 0.39948 0.8521 0.27528 0.0
C378 C 0.87198 0.53596 0.79046 0.0
C379 C 0.84057 0.53981 0.76393 0.0
C380 C 0.88695 0.568 0.81112 0.0
C381 C 0.87158 0.60525 0.80515 0.0
H382 H 0.88614 0.50822 0.79391 0.0
H383 H 0.9124 0.56387 0.82966 0.0
S384 S 0.78644 0.62949 0.74179 0.0
N385 N 0.79226 0.58246 0.73537 0.0
N386 N 0.82071 0.64324 0.77345 0.0
C387 C 0.83864 0.60895 0.78039 0.0
C388 C 0.82308 0.57607 0.75986 0.0
C389 C 0.58044 0.158 0.21539 0.0
C390 C 0.61429 0.1503 0.23768 0.0
C391 C 0.54815 0.17534 0.23368 0.0
C392 C 0.54844 0.18504 0.27498 0.0
H393 H 0.57812 0.14889 0.18412 0.0
H394 H 0.52194 0.17857 0.21613 0.0
S395 S 0.63099 0.17643 0.34554 0.0
N396 N 0.64718 0.15855 0.30246 0.0
N397 N 0.58609 0.18978 0.33656 0.0
C398 C 0.58272 0.18007 0.29685 0.0
C399 C 0.61578 0.16312 0.27824 0.0
C400 C 0.67235 0.08086 0.7946 0.0
C401 C 0.67958 0.04647 0.7734 0.0
C402 C 0.65662 0.11316 0.77515 0.0
C403 C 0.64649 0.11207 0.73383 0.0
H404 H 0.67741 0.08231 0.82694 0.0
H405 H 0.65018 0.13833 0.79344 0.0
S406 S 0.66319 0.02977 0.6639 0.0
N407 N 0.67876 0.01403 0.70819 0.0
N408 N 0.64818 0.0745 0.67158 0.0
C409 C 0.65569 0.0785 0.71172 0.0
C410 C 0.6725 0.04577 0.7315 0.0
C411 C 0.08034 0.35838 0.31975 0.0
C412 C 0.11456 0.3651 0.29769 0.0
C413 C 0.04805 0.34095 0.30155 0.0
C414 C 0.0487 0.33014 0.26056 0.0
H415 H 0.07774 0.36839 0.35069 0.0
H416 H 0.02158 0.33853 0.31883 0.0
S417 S 0.13228 0.33561 0.19096 0.0
N418 N 0.14817 0.35452 0.23369 0.0
N419 N 0.08706 0.32314 0.1997 0.0
C420 C 0.08332 0.33405 0.23903 0.0
C421 C 0.11639 0.3511 0.25757 0.0
C422 C 0.33747 0.93721 0.79098 0.0
C423 C 0.33385 0.9727 0.77079 0.0
C424 C 0.35309 0.90487 0.77152 0.0
C425 C 0.36684 0.907 0.73137 0.0
H426 H 0.32965 0.93487 0.82265 0.0
H427 H 0.35655 0.87868 0.78914 0.0
S428 S 0.36102 0.99312 0.66443 0.0
N429 N 0.3423 1.00779 0.70777 0.0
N430 N 0.37276 0.94728 0.67118 0.0
C431 C 0.36136 0.94194 0.71013 0.0
C432 C 0.34463 0.97473 0.72987 0.0
C433 C 0.93561 0.65913 0.31919 0.0
C434 C 0.9015 0.65138 0.29736 0.0
C435 C 0.96774 0.67637 0.30041 0.0
C436 C 0.96703 0.68589 0.25905 0.0
H437 H 0.93826 0.65015 0.35047 0.0
H438 H 0.99414 0.67965 0.31763 0.0
S439 S 0.88369 0.67706 0.18955 0.0
N440 N 0.86793 0.65939 0.23292 0.0
N441 N 0.92872 0.6904 0.1979 0.0
C442 C 0.93251 0.68085 0.23763 0.0
C443 C 0.8996 0.66403 0.25673 0.0
C444 C 0.67494 0.93414 0.23795 0.0
C445 C 0.68333 0.96778 0.26001 0.0
C446 C 0.65845 0.9018 0.25667 0.0
C447 C 0.64869 0.90212 0.29811 0.0
H448 H 0.67961 0.9334 0.20552 0.0
H449 H 0.65112 0.87731 0.23774 0.0
S450 S 0.66849 0.98211 0.37011 0.0
N451 N 0.68409 0.99854 0.32609 0.0
N452 N 0.65211 0.93801 0.36137 0.0
C453 C 0.65913 0.93482 0.32105 0.0
C454 C 0.67671 0.96758 0.30199 0.0
C455 C 0.93616 0.35264 0.71279 0.0
C456 C 0.90131 0.36024 0.73338 0.0
C457 C 0.96774 0.33577 0.73277 0.0
C458 C 0.96571 0.32639 0.77412 0.0
H459 H 0.93992 0.36183 0.6817 0.0
H460 H 0.99479 0.33292 0.71659 0.0
S461 S 0.87964 0.33352 0.8401 0.0
N462 N 0.86532 0.35124 0.7962 0.0
N463 N 0.92514 0.32091 0.83359 0.0
C464 C 0.93031 0.33073 0.79411 0.0
C465 C 0.89795 0.34722 0.77375 0.0
C466 C 0.3582 0.08043 0.31612 0.0
C467 C 0.36529 0.11478 0.29429 0.0
C468 C 0.34104 0.04816 0.29752 0.0
C469 C 0.3309 0.04898 0.25634 0.0
H470 H 0.36769 0.07772 0.34723 0.0
H471 H 0.33831 0.02158 0.31466 0.0
S472 S 0.33765 0.13289 0.18709 0.0
N473 N 0.35584 0.14867 0.23021 0.0
N474 N 0.32498 0.08758 0.19547 0.0
C475 C 0.33521 0.08372 0.23499 0.0
C476 C 0.35197 0.11676 0.25393 0.0
C477 C 0.07307 0.6569 0.71035 0.0
C478 C 0.10922 0.65511 0.72987 0.0
C479 C 0.0411 0.67432 0.72911 0.0
C480 C 0.04413 0.69019 0.76815 0.0
H481 H 0.06871 0.64264 0.68153 0.0
H482 H 0.01322 0.67249 0.71439 0.0
S483 S 0.13326 0.70007 0.82903 0.0
N484 N 0.14707 0.67674 0.78793 0.0
N485 N 0.08662 0.70802 0.82329 0.0
C486 C 0.08058 0.69172 0.78639 0.0
C487 C 0.11325 0.67463 0.76719 0.0
C488 C 0.13849 0.51517 0.53576 0.0
C489 C 0.17278 0.52452 0.5564 0.0
C490 C 0.13916 0.49866 0.49705 0.0
C491 C 0.17416 0.49024 0.47731 0.0
H492 H 0.11067 0.52078 0.54951 0.0
H493 H 0.11184 0.49242 0.48251 0.0
S494 S 0.27228 0.50864 0.51816 0.0
N495 N 0.24295 0.52396 0.55413 0.0
N496 N 0.24421 0.49255 0.48145 0.0
C497 C 0.20877 0.49914 0.49763 0.0
C498 C 0.20809 0.51642 0.53705 0.0
C499 C 0.51772 0.8734 0.49702 0.0
C500 C 0.52476 0.83854 0.47634 0.0
C501 C 0.50199 0.87369 0.53609 0.0
C502 C 0.49202 0.83916 0.55612 0.0
H503 H 0.52451 0.90088 0.48297 0.0
H504 H 0.49744 0.9014 0.55061 0.0
S505 S 0.50426 0.73992 0.51528 0.0
N506 N 0.5205 0.76837 0.4789 0.0
N507 N 0.49046 0.76894 0.55223 0.0
C508 C 0.49871 0.80401 0.5358 0.0
C509 C 0.51526 0.80369 0.49604 0.0
C510 C 0.878 0.51826 0.49826 0.0
C511 C 0.84303 0.52756 0.4789 0.0
C512 C 0.87867 0.50185 0.53705 0.0
C513 C 0.84437 0.49354 0.5582 0.0
H514 H 0.90533 0.5236 0.48332 0.0
H515 H 0.90647 0.4954 0.55041 0.0
S516 S 0.74492 0.5124 0.52128 0.0
N517 N 0.77301 0.52747 0.48409 0.0
N518 N 0.77423 0.49631 0.55691 0.0
C519 C 0.80909 0.50273 0.53931 0.0
C520 C 0.80843 0.51986 0.49979 0.0
C521 C 0.49761 0.20509 0.49582 0.0
C522 C 0.48812 0.17026 0.4761 0.0
C523 C 0.51414 0.20515 0.53472 0.0
C524 C 0.52134 0.17041 0.55565 0.0
H525 H 0.49286 0.23255 0.48086 0.0
H526 H 0.52088 0.23269 0.54864 0.0
S527 S 0.50121 0.07131 0.51767 0.0
N528 N 0.48695 0.10006 0.48072 0.0
N529 N 0.51749 0.10017 0.55358 0.0
C530 C 0.51169 0.1354 0.53635 0.0
C531 C 0.49523 0.13533 0.49669 0.0
C532 C 0.63935 0.01762 0.03763 0.0
C533 C 0.67426 0.02593 0.05762 0.0
C534 C 0.63887 1.00155 0.99871 0.0
C535 C 0.67326 0.99255 0.9781 0.0
H536 H 0.61196 0.02362 0.05213 0.0
H537 H 0.61112 0.99601 0.98475 0.0
S538 S 0.77257 0.00843 0.0169 0.0
N539 N 0.74433 0.02397 0.05371 0.0
N540 N 0.74341 0.99337 0.98064 0.0
C541 C 0.70847 1.00054 0.9977 0.0
C542 C 0.70897 0.01739 0.03733 0.0
C543 C 0.0117 0.37377 0.99857 0.0
C544 C 0.02109 0.33915 0.97846 0.0
C545 C 0.99627 0.3736 0.03777 0.0
C546 C 0.98895 0.33879 0.05849 0.0
H547 H 0.01647 0.40143 0.984 0.0
H548 H 0.98994 0.40114 0.05189 0.0
S549 S 0.00789 0.24 0.01933 0.0
N550 N 0.02179 0.26891 0.98228 0.0
N551 N 0.9923 0.26858 0.05587 0.0
C552 C 0.99788 0.30386 0.03871 0.0
C553 C 0.01414 0.30405 0.99882 0.0
C554 C 0.37686 0.01609 0.99606 0.0
C555 C 0.34237 0.02503 0.97561 0.0
C556 C 0.37656 0.99964 0.03484 0.0
C557 C 0.34175 0.99085 0.05481 0.0
H558 H 0.40454 0.02198 0.9821 0.0
H559 H 0.40402 0.99373 0.04924 0.0
S560 S 0.24324 0.00801 1.01445 0.0
N561 N 0.27223 0.02364 0.97828 0.0
N562 N 0.27166 0.99232 0.05105 0.0
C563 C 0.30695 0.99932 0.03466 0.0
C564 C 0.30725 0.01656 0.9952 0.0
C565 C 1.00194 0.70657 0.99843 0.0
C566 C 0.99632 0.67192 0.97681 0.0
C567 C 0.01785 0.70647 0.03762 0.0
C568 C 0.02818 0.67167 0.05695 0.0
H569 H 0.9944 0.73405 0.98484 0.0
H570 H 0.02138 0.73382 0.05314 0.0
S571 S 0.01936 0.57302 1.0135 0.0
N572 N 1.00267 0.60186 0.97776 0.0
N573 N 0.03194 0.60166 0.0512 0.0
C574 C 0.02268 0.63686 0.03564 0.0
C575 C 1.00693 0.63699 0.99568 0.0
loop_
_geom_bond_atom_site_label_1
_geom_bond_atom_site_label_2
_geom_bond_distance
_geom_bond_site_symmetry_2
_ccdc_geom_bond_type
O0 Cd1 2.223 . S
O0 C8 1.315 . S
Cd1 O0 2.223 . S
Cd1 O4 2.297 . S
Cd1 O5 2.439 . S
Cd1 O11 2.240 . S
Cd2 O3 2.240 . S
Cd2 O10 2.223 . S
Cd2 O12 2.297 . S
Cd2 O13 2.439 . S
O3 Cd2 2.240 . S
O3 C8 1.279 . S
O4 Cd1 2.297 . S
O4 C6 1.247 . S
O5 Cd1 2.439 . S
O5 C6 1.208 . S
C6 O4 1.247 . S
C6 O5 1.208 . S
C7 O12 1.247 . S
C7 O13 1.208 . S
C8 O0 1.315 . S
C8 O3 1.279 . S
C9 O10 1.315 . S
C9 O11 1.279 . S
O10 Cd2 2.223 . S
O10 C9 1.315 . S
O11 Cd1 2.240 . S
O11 C9 1.279 . S
O12 Cd2 2.297 . S
O12 C7 1.247 . S
O13 Cd2 2.439 . S
O13 C7 1.208 . S
O14 Cd15 2.223 . S
O14 C22 1.315 . S
Cd15 O14 2.223 . S
Cd15 O18 2.297 . S
Cd15 O19 2.439 . S
Cd15 O25 2.240 . S
Cd16 O17 2.240 . S
Cd16 O24 2.223 . S
Cd16 O26 2.297 . S
Cd16 O27 2.439 . S
O17 Cd16 2.240 . S
O17 C22 1.279 . S
O18 Cd15 2.297 . S
O18 C20 1.247 . S
O19 Cd15 2.439 . S
O19 C20 1.208 . S
C20 O18 1.247 . S
C20 O19 1.208 . S
C21 O26 1.247 . S
C21 O27 1.208 . S
C22 O14 1.315 . S
C22 O17 1.279 . S
C23 O24 1.315 . S
C23 O25 1.279 . S
O24 Cd16 2.223 . S
O24 C23 1.315 . S
O25 Cd15 2.240 . S
O25 C23 1.279 . S
O26 Cd16 2.297 . S
O26 C21 1.247 . S
O27 Cd16 2.439 . S
O27 C21 1.208 . S
O28 Cd29 2.223 . S
O28 C36 1.315 . S
Cd29 O28 2.223 . S
Cd29 O32 2.297 . S
Cd29 O33 2.439 . S
Cd29 O39 2.240 . S
Cd30 O31 2.240 . S
Cd30 O38 2.223 . S
Cd30 O40 2.297 . S
Cd30 O41 2.439 . S
O31 Cd30 2.240 . S
O31 C36 1.279 . S
O32 Cd29 2.297 . S
O32 C34 1.247 . S
O33 Cd29 2.439 . S
O33 C34 1.208 . S
C34 O32 1.247 . S
C34 O33 1.208 . S
C35 O40 1.247 . S
C35 O41 1.208 . S
C36 O28 1.315 . S
C36 O31 1.279 . S
C37 O38 1.315 . S
C37 O39 1.279 . S
O38 Cd30 2.223 . S
O38 C37 1.315 . S
O39 Cd29 2.240 . S
O39 C37 1.279 . S
O40 Cd30 2.297 . S
O40 C35 1.247 . S
O41 Cd30 2.439 . S
O41 C35 1.208 . S
O42 Cd43 2.223 . S
O42 C50 1.315 . S
Cd43 O42 2.223 . S
Cd43 O46 2.297 . S
Cd43 O47 2.439 . S
Cd43 O53 2.240 . S
Cd44 O45 2.240 . S
Cd44 O52 2.223 . S
Cd44 O54 2.297 . S
Cd44 O55 2.439 . S
O45 Cd44 2.240 . S
O45 C50 1.279 . S
O46 Cd43 2.297 . S
O46 C48 1.247 . S
O47 Cd43 2.439 . S
O47 C48 1.208 . S
C48 O46 1.247 . S
C48 O47 1.208 . S
C49 O54 1.247 . S
C49 O55 1.208 . S
C50 O42 1.315 . S
C50 O45 1.279 . S
C51 O52 1.315 . S
C51 O53 1.279 . S
O52 Cd44 2.223 . S
O52 C51 1.315 . S
O53 Cd43 2.240 . S
O53 C51 1.279 . S
O54 Cd44 2.297 . S
O54 C49 1.247 . S
O55 Cd44 2.439 . S
O55 C49 1.208 . S
O56 Cd57 2.223 . S
O56 C64 1.315 . S
Cd57 O56 2.223 . S
Cd57 O60 2.297 . S
Cd57 O61 2.439 . S
Cd57 O67 2.240 . S
Cd58 O59 2.240 . S
Cd58 O66 2.223 . S
Cd58 O68 2.297 . S
Cd58 O69 2.439 . S
O59 Cd58 2.240 . S
O59 C64 1.279 . S
O60 Cd57 2.297 . S
O60 C62 1.247 . S
O61 Cd57 2.439 . S
O61 C62 1.208 . S
C62 O60 1.247 . S
C62 O61 1.208 . S
C63 O68 1.247 . S
C63 O69 1.208 . S
C64 O56 1.315 . S
C64 O59 1.279 . S
C65 O66 1.315 . S
C65 O67 1.279 . S
O66 Cd58 2.223 . S
O66 C65 1.315 . S
O67 Cd57 2.240 . S
O67 C65 1.279 . S
O68 Cd58 2.297 . S
O68 C63 1.247 . S
O69 Cd58 2.439 . S
O69 C63 1.208 . S
O70 Cd71 2.223 . S
O70 C78 1.315 . S
Cd71 O70 2.223 . S
Cd71 O74 2.297 . S
Cd71 O75 2.439 . S
Cd71 O81 2.240 . S
Cd72 O73 2.240 . S
Cd72 O80 2.223 . S
Cd72 O82 2.297 . S
Cd72 O83 2.439 . S
O73 Cd72 2.240 . S
O73 C78 1.279 . S
O74 Cd71 2.297 . S
O74 C76 1.247 . S
O75 Cd71 2.439 . S
O75 C76 1.208 . S
C76 O74 1.247 . S
C76 O75 1.208 . S
C77 O82 1.247 . S
C77 O83 1.208 . S
C78 O70 1.315 . S
C78 O73 1.279 . S
C79 O80 1.315 . S
C79 O81 1.279 . S
O80 Cd72 2.223 . S
O80 C79 1.315 . S
O81 Cd71 2.240 . S
O81 C79 1.279 . S
O82 Cd72 2.297 . S
O82 C77 1.247 . S
O83 Cd72 2.439 . S
O83 C77 1.208 . S
O84 Cd85 2.223 . S
O84 C92 1.315 . S
Cd85 O84 2.223 . S
Cd85 O88 2.297 . S
Cd85 O89 2.439 . S
Cd85 O95 2.240 . S
Cd86 O87 2.240 . S
Cd86 O94 2.223 . S
Cd86 O96 2.297 . S
Cd86 O97 2.439 . S
O87 Cd86 2.240 . S
O87 C92 1.279 . S
O88 Cd85 2.297 . S
O88 C90 1.247 . S
O89 Cd85 2.439 . S
O89 C90 1.208 . S
C90 O88 1.247 . S
C90 O89 1.208 . S
C91 O96 1.247 . S
C91 O97 1.208 . S
C92 O84 1.315 . S
C92 O87 1.279 . S
C93 O94 1.315 . S
C93 O95 1.279 . S
O94 Cd86 2.223 . S
O94 C93 1.315 . S
O95 Cd85 2.240 . S
O95 C93 1.279 . S
O96 Cd86 2.297 . S
O96 C91 1.247 . S
O97 Cd86 2.439 . S
O97 C91 1.208 . S
O98 Cd99 2.223 . S
O98 C106 1.315 . S
Cd99 O98 2.223 . S
Cd99 O102 2.297 . S
Cd99 O103 2.439 . S
Cd99 O109 2.240 . S
Cd100 O101 2.240 . S
Cd100 O108 2.223 . S
Cd100 O110 2.297 . S
Cd100 O111 2.439 . S
O101 Cd100 2.240 . S
O101 C106 1.279 . S
O102 Cd99 2.297 . S
O102 C104 1.247 . S
O103 Cd99 2.439 . S
O103 C104 1.208 . S
C104 O102 1.247 . S
C104 O103 1.208 . S
C105 O110 1.247 . S
C105 O111 1.208 . S
C106 O98 1.315 . S
C106 O101 1.279 . S
C107 O108 1.315 . S
C107 O109 1.279 . S
O108 Cd100 2.223 . S
O108 C107 1.315 . S
O109 Cd99 2.240 . S
O109 C107 1.279 . S
O110 Cd100 2.297 . S
O110 C105 1.247 . S
O111 Cd100 2.439 . S
O111 C105 1.208 . S
O112 Cd113 2.223 . S
O112 C120 1.315 . S
Cd113 O112 2.223 . S
Cd113 O116 2.297 . S
Cd113 O117 2.439 . S
Cd113 O123 2.240 . S
Cd114 O115 2.240 . S
Cd114 O122 2.223 . S
Cd114 O124 2.297 . S
Cd114 O125 2.439 . S
O115 Cd114 2.240 . S
O115 C120 1.279 . S
O116 Cd113 2.297 . S
O116 C118 1.247 . S
O117 Cd113 2.439 . S
O117 C118 1.208 . S
C118 O116 1.247 . S
C118 O117 1.208 . S
C119 O124 1.247 . S
C119 O125 1.208 . S
C120 O112 1.315 . S
C120 O115 1.279 . S
C121 O122 1.315 . S
C121 O123 1.279 . S
O122 Cd114 2.223 . S
O122 C121 1.315 . S
O123 Cd113 2.240 . S
O123 C121 1.279 . S
O124 Cd114 2.297 . S
O124 C119 1.247 . S
O125 Cd114 2.439 . S
O125 C119 1.208 . S
O126 Cd127 2.223 . S
O126 C134 1.315 . S
Cd127 O126 2.223 . S
Cd127 O130 2.297 . S
Cd127 O131 2.439 . S
Cd127 O137 2.240 . S
Cd128 O129 2.240 . S
Cd128 O136 2.223 . S
Cd128 O138 2.297 . S
Cd128 O139 2.439 . S
O129 Cd128 2.240 . S
O129 C134 1.279 . S
O130 Cd127 2.297 . S
O130 C132 1.247 . S
O131 Cd127 2.439 . S
O131 C132 1.208 . S
C132 O130 1.247 . S
C132 O131 1.208 . S
C133 O138 1.247 . S
C133 O139 1.208 . S
C134 O126 1.315 . S
C134 O129 1.279 . S
C135 O136 1.315 . S
C135 O137 1.279 . S
O136 Cd128 2.223 . S
O136 C135 1.315 . S
O137 Cd127 2.240 . S
O137 C135 1.279 . S
O138 Cd128 2.297 . S
O138 C133 1.247 . S
O139 Cd128 2.439 . S
O139 C133 1.208 . S
O140 Cd141 2.223 . S
O140 C148 1.315 . S
Cd141 O140 2.223 . S
Cd141 O144 2.297 . S
Cd141 O145 2.439 . S
Cd141 O151 2.240 . S
Cd142 O143 2.240 . S
Cd142 O150 2.223 . S
Cd142 O152 2.297 . S
Cd142 O153 2.439 . S
O143 Cd142 2.240 . S
O143 C148 1.279 . S
O144 Cd141 2.297 . S
O144 C146 1.247 . S
O145 Cd141 2.439 . S
O145 C146 1.208 . S
C146 O144 1.247 . S
C146 O145 1.208 . S
C147 O152 1.247 . S
C147 O153 1.208 . S
C148 O140 1.315 . S
C148 O143 1.279 . S
C149 O150 1.315 . S
C149 O151 1.279 . S
O150 Cd142 2.223 . S
O150 C149 1.315 . S
O151 Cd141 2.240 . S
O151 C149 1.279 . S
O152 Cd142 2.297 . S
O152 C147 1.247 . S
O153 Cd142 2.439 . S
O153 C147 1.208 . S
O154 Cd155 2.223 . S
O154 C162 1.315 . S
Cd155 O154 2.223 . S
Cd155 O158 2.297 . S
Cd155 O159 2.439 . S
Cd155 O165 2.240 . S
Cd156 O157 2.240 . S
Cd156 O164 2.223 . S
Cd156 O166 2.297 . S
Cd156 O167 2.439 . S
O157 Cd156 2.240 . S
O157 C162 1.279 . S
O158 Cd155 2.297 . S
O158 C160 1.247 . S
O159 Cd155 2.439 . S
O159 C160 1.208 . S
C160 O158 1.247 . S
C160 O159 1.208 . S
C161 O166 1.247 . S
C161 O167 1.208 . S
C162 O154 1.315 . S
C162 O157 1.279 . S
C163 O164 1.315 . S
C163 O165 1.279 . S
O164 Cd156 2.223 . S
O164 C163 1.315 . S
O165 Cd155 2.240 . S
O165 C163 1.279 . S
O166 Cd156 2.297 . S
O166 C161 1.247 . S
O167 Cd156 2.439 . S
O167 C161 1.208 . S
O168 Cd169 2.223 . S
O168 C176 1.315 . S
Cd169 O168 2.223 . S
Cd169 O172 2.297 . S
Cd169 O173 2.439 . S
Cd169 O179 2.240 . S
Cd170 O171 2.240 . S
Cd170 O178 2.223 . S
Cd170 O180 2.297 . S
Cd170 O181 2.439 . S
O171 Cd170 2.240 . S
O171 C176 1.279 . S
O172 Cd169 2.297 . S
O172 C174 1.247 . S
O173 Cd169 2.439 . S
O173 C174 1.208 . S
C174 O172 1.247 . S
C174 O173 1.208 . S
C175 O180 1.247 . S
C175 O181 1.208 . S
C176 O168 1.315 . S
C176 O171 1.279 . S
C177 O178 1.315 . S
C177 O179 1.279 . S
O178 Cd170 2.223 . S
O178 C177 1.315 . S
O179 Cd169 2.240 . S
O179 C177 1.279 . S
O180 Cd170 2.297 . S
O180 C175 1.247 . S
O181 Cd170 2.439 . S
O181 C175 1.208 . S
O182 Cd183 2.223 . S
O182 C190 1.315 . S
Cd183 O182 2.223 . S
Cd183 O186 2.297 . S
Cd183 O187 2.439 . S
Cd183 O193 2.240 . S
Cd184 O185 2.240 . S
Cd184 O192 2.223 . S
Cd184 O194 2.297 . S
Cd184 O195 2.439 . S
O185 Cd184 2.240 . S
O185 C190 1.279 . S
O186 Cd183 2.297 . S
O186 C188 1.247 . S
O187 Cd183 2.439 . S
O187 C188 1.208 . S
C188 O186 1.247 . S
C188 O187 1.208 . S
C189 O194 1.247 . S
C189 O195 1.208 . S
C190 O182 1.315 . S
C190 O185 1.279 . S
C191 O192 1.315 . S
C191 O193 1.279 . S
O192 Cd184 2.223 . S
O192 C191 1.315 . S
O193 Cd183 2.240 . S
O193 C191 1.279 . S
O194 Cd184 2.297 . S
O194 C189 1.247 . S
O195 Cd184 2.439 . S
O195 C189 1.208 . S
O196 Cd197 2.223 . S
O196 C204 1.315 . S
Cd197 O196 2.223 . S
Cd197 O200 2.297 . S
Cd197 O201 2.439 . S
Cd197 O207 2.240 . S
Cd198 O199 2.240 . S
Cd198 O206 2.223 . S
Cd198 O208 2.297 . S
Cd198 O209 2.439 . S
O199 Cd198 2.240 . S
O199 C204 1.279 . S
O200 Cd197 2.297 . S
O200 C202 1.247 . S
O201 Cd197 2.439 . S
O201 C202 1.208 . S
C202 O200 1.247 . S
C202 O201 1.208 . S
C203 O208 1.247 . S
C203 O209 1.208 . S
C204 O196 1.315 . S
C204 O199 1.279 . S
C205 O206 1.315 . S
C205 O207 1.279 . S
O206 Cd198 2.223 . S
O206 C205 1.315 . S
O207 Cd197 2.240 . S
O207 C205 1.279 . S
O208 Cd198 2.297 . S
O208 C203 1.247 . S
O209 Cd198 2.439 . S
O209 C203 1.208 . S
O210 Cd211 2.223 . S
O210 C218 1.315 . S
Cd211 O210 2.223 . S
Cd211 O214 2.297 . S
Cd211 O215 2.439 . S
Cd211 O221 2.240 . S
Cd212 O213 2.240 . S
Cd212 O220 2.223 . S
Cd212 O222 2.297 . S
Cd212 O223 2.439 . S
O213 Cd212 2.240 . S
O213 C218 1.279 . S
O214 Cd211 2.297 . S
O214 C216 1.247 . S
O215 Cd211 2.439 . S
O215 C216 1.208 . S
C216 O214 1.247 . S
C216 O215 1.208 . S
C217 O222 1.247 . S
C217 O223 1.208 . S
C218 O210 1.315 . S
C218 O213 1.279 . S
C219 O220 1.315 . S
C219 O221 1.279 . S
O220 Cd212 2.223 . S
O220 C219 1.315 . S
O221 Cd211 2.240 . S
O221 C219 1.279 . S
O222 Cd212 2.297 . S
O222 C217 1.247 . S
O223 Cd212 2.439 . S
O223 C217 1.208 . S
C224 C225 1.369 . S
C224 C226 1.419 . S
C224 H228 0.930 . S
C225 C224 1.369 . S
C225 C234 1.429 . S
C226 C224 1.419 . S
C226 C227 1.363 . S
C226 H229 0.929 . S
C227 C226 1.363 . S
C227 C233 1.428 . S
H228 C224 0.930 . S
H229 C226 0.929 . S
S230 N231 1.613 . S
S230 N232 1.610 . S
N231 S230 1.613 . S
N231 C234 1.350 . S
N232 S230 1.610 . S
N232 C233 1.351 . S
C233 C227 1.428 . S
C233 N232 1.351 . S
C233 C234 1.434 . S
C234 C225 1.429 . S
C234 N231 1.350 . S
C234 C233 1.434 . S
C235 C236 1.369 . S
C235 C237 1.419 . S
C235 H239 0.930 . S
C236 C235 1.369 . S
C236 C245 1.429 . S
C237 C235 1.419 . S
C237 C238 1.363 . S
C237 H240 0.929 . S
C238 C237 1.363 . S
C238 C244 1.428 . S
H239 C235 0.930 . S
H240 C237 0.929 . S
S241 N242 1.613 . S
S241 N243 1.610 . S
N242 S241 1.613 . S
N242 C245 1.350 . S
N243 S241 1.610 . S
N243 C244 1.351 . S
C244 C238 1.428 . S
C244 N243 1.351 . S
C244 C245 1.434 . S
C245 C236 1.429 . S
C245 N242 1.350 . S
C245 C244 1.434 . S
C246 C247 1.369 . S
C246 C248 1.419 . S
C246 H250 0.930 . S
C247 C246 1.369 . S
C247 C256 1.429 . S
C248 C246 1.419 . S
C248 C249 1.363 . S
C248 H251 0.929 . S
C249 C248 1.363 . S
C249 C255 1.428 . S
H250 C246 0.930 . S
H251 C248 0.929 . S
S252 N253 1.613 . S
S252 N254 1.610 . S
N253 S252 1.613 . S
N253 C256 1.350 . S
N254 S252 1.610 . S
N254 C255 1.351 . S
C255 C249 1.428 . S
C255 N254 1.351 . S
C255 C256 1.434 . S
C256 C247 1.429 . S
C256 N253 1.350 . S
C256 C255 1.434 . S
C257 C258 1.369 . S
C257 C259 1.419 . S
C257 H261 0.930 . S
C258 C257 1.369 . S
C258 C267 1.429 . S
C259 C257 1.419 . S
C259 C260 1.363 . S
C259 H262 0.929 . S
C260 C259 1.363 . S
C260 C266 1.428 . S
H261 C257 0.930 . S
H262 C259 0.929 . S
S263 N264 1.613 . S
S263 N265 1.610 . S
N264 S263 1.613 . S
N264 C267 1.350 . S
N265 S263 1.610 . S
N265 C266 1.351 . S
C266 C260 1.428 . S
C266 N265 1.351 . S
C266 C267 1.434 . S
C267 C258 1.429 . S
C267 N264 1.350 . S
C267 C266 1.434 . S
C268 C269 1.369 . S
C268 C270 1.419 . S
C268 H272 0.930 . S
C269 C268 1.369 . S
C269 C278 1.429 . S
C270 C268 1.419 . S
C270 C271 1.363 . S
C270 H273 0.929 . S
C271 C270 1.363 . S
C271 C277 1.428 . S
H272 C268 0.930 . S
H273 C270 0.929 . S
S274 N275 1.613 . S
S274 N276 1.610 . S
N275 S274 1.613 . S
N275 C278 1.350 . S
N276 S274 1.610 . S
N276 C277 1.351 . S
C277 C271 1.428 . S
C277 N276 1.351 . S
C277 C278 1.434 . S
C278 C269 1.429 . S
C278 N275 1.350 . S
C278 C277 1.434 . S
C279 C280 1.369 . S
C279 C281 1.419 . S
C279 H283 0.930 . S
C280 C279 1.369 . S
C280 C289 1.429 . S
C281 C279 1.419 . S
C281 C282 1.363 . S
C281 H284 0.929 . S
C282 C281 1.363 . S
C282 C288 1.428 . S
H283 C279 0.930 . S
H284 C281 0.929 . S
S285 N286 1.613 . S
S285 N287 1.610 . S
N286 S285 1.613 . S
N286 C289 1.350 . S
N287 S285 1.610 . S
N287 C288 1.351 . S
C288 C282 1.428 . S
C288 N287 1.351 . S
C288 C289 1.434 . S
C289 C280 1.429 . S
C289 N286 1.350 . S
C289 C288 1.434 . S
C290 C291 1.369 . S
C290 C292 1.419 . S
C290 H294 0.930 . S
C291 C290 1.369 . S
C291 C300 1.429 . S
C292 C290 1.419 . S
C292 C293 1.363 . S
C292 H295 0.929 . S
C293 C292 1.363 . S
C293 C299 1.428 . S
H294 C290 0.930 . S
H295 C292 0.929 . S
S296 N297 1.613 . S
S296 N298 1.610 . S
N297 S296 1.613 . S
N297 C300 1.350 . S
N298 S296 1.610 . S
N298 C299 1.351 . S
C299 C293 1.428 . S
C299 N298 1.351 . S
C299 C300 1.434 . S
C300 C291 1.429 . S
C300 N297 1.350 . S
C300 C299 1.434 . S
C301 C302 1.369 . S
C301 C303 1.419 . S
C301 H305 0.930 . S
C302 C301 1.369 . S
C302 C311 1.429 . S
C303 C301 1.419 . S
C303 C304 1.363 . S
C303 H306 0.929 . S
C304 C303 1.363 . S
C304 C310 1.428 . S
H305 C301 0.930 . S
H306 C303 0.929 . S
S307 N308 1.613 . S
S307 N309 1.610 . S
N308 S307 1.613 . S
N308 C311 1.350 . S
N309 S307 1.610 . S
N309 C310 1.351 . S
C310 C304 1.428 . S
C310 N309 1.351 . S
C310 C311 1.434 . S
C311 C302 1.429 . S
C311 N308 1.350 . S
C311 C310 1.434 . S
C312 C313 1.369 . S
C312 C314 1.419 . S
C312 H316 0.930 . S
C313 C312 1.369 . S
C313 C322 1.429 . S
C314 C312 1.419 . S
C314 C315 1.363 . S
C314 H317 0.929 . S
C315 C314 1.363 . S
C315 C321 1.428 . S
H316 C312 0.930 . S
H317 C314 0.929 . S
S318 N319 1.613 . S
S318 N320 1.610 . S
N319 S318 1.613 . S
N319 C322 1.350 . S
N320 S318 1.610 . S
N320 C321 1.351 . S
C321 C315 1.428 . S
C321 N320 1.351 . S
C321 C322 1.434 . S
C322 C313 1.429 . S
C322 N319 1.350 . S
C322 C321 1.434 . S
C323 C324 1.369 . S
C323 C325 1.419 . S
C323 H327 0.930 . S
C324 C323 1.369 . S
C324 C333 1.429 . S
C325 C323 1.419 . S
C325 C326 1.363 . S
C325 H328 0.929 . S
C326 C325 1.363 . S
C326 C332 1.428 . S
H327 C323 0.930 . S
H328 C325 0.929 . S
S329 N330 1.613 . S
S329 N331 1.610 . S
N330 S329 1.613 . S
N330 C333 1.350 . S
N331 S329 1.610 . S
N331 C332 1.351 . S
C332 C326 1.428 . S
C332 N331 1.351 . S
C332 C333 1.434 . S
C333 C324 1.429 . S
C333 N330 1.350 . S
C333 C332 1.434 . S
C334 C335 1.369 . S
C334 C336 1.419 . S
C334 H338 0.930 . S
C335 C334 1.369 . S
C335 C344 1.429 . S
C336 C334 1.419 . S
C336 C337 1.363 . S
C336 H339 0.929 . S
C337 C336 1.363 . S
C337 C343 1.428 . S
H338 C334 0.930 . S
H339 C336 0.929 . S
S340 N341 1.613 . S
S340 N342 1.610 . S
N341 S340 1.613 . S
N341 C344 1.350 . S
N342 S340 1.610 . S
N342 C343 1.351 . S
C343 C337 1.428 . S
C343 N342 1.351 . S
C343 C344 1.434 . S
C344 C335 1.429 . S
C344 N341 1.350 . S
C344 C343 1.434 . S
C345 C346 1.369 . S
C345 C347 1.419 . S
C345 H349 0.930 . S
C346 C345 1.369 . S
C346 C355 1.429 . S
C347 C345 1.419 . S
C347 C348 1.363 . S
C347 H350 0.929 . S
C348 C347 1.363 . S
C348 C354 1.428 . S
H349 C345 0.930 . S
H350 C347 0.929 . S
S351 N352 1.613 . S
S351 N353 1.610 . S
N352 S351 1.613 . S
N352 C355 1.350 . S
N353 S351 1.610 . S
N353 C354 1.351 . S
C354 C348 1.428 . S
C354 N353 1.351 . S
C354 C355 1.434 . S
C355 C346 1.429 . S
C355 N352 1.350 . S
C355 C354 1.434 . S
C356 C357 1.369 . S
C356 C358 1.419 . S
C356 H360 0.930 . S
C357 C356 1.369 . S
C357 C366 1.429 . S
C358 C356 1.419 . S
C358 C359 1.363 . S
C358 H361 0.929 . S
C359 C358 1.363 . S
C359 C365 1.428 . S
H360 C356 0.930 . S
H361 C358 0.929 . S
S362 N363 1.613 . S
S362 N364 1.610 . S
N363 S362 1.613 . S
N363 C366 1.350 . S
N364 S362 1.610 . S
N364 C365 1.351 . S
C365 C359 1.428 . S
C365 N364 1.351 . S
C365 C366 1.434 . S
C366 C357 1.429 . S
C366 N363 1.350 . S
C366 C365 1.434 . S
C367 C368 1.369 . S
C367 C369 1.419 . S
C367 H371 0.930 . S
C368 C367 1.369 . S
C368 C377 1.429 . S
C369 C367 1.419 . S
C369 C370 1.363 . S
C369 H372 0.929 . S
C370 C369 1.363 . S
C370 C376 1.428 . S
H371 C367 0.930 . S
H372 C369 0.929 . S
S373 N374 1.613 . S
S373 N375 1.610 . S
N374 S373 1.613 . S
N374 C377 1.350 . S
N375 S373 1.610 . S
N375 C376 1.351 . S
C376 C370 1.428 . S
C376 N375 1.351 . S
C376 C377 1.434 . S
C377 C368 1.429 . S
C377 N374 1.350 . S
C377 C376 1.434 . S
C378 C379 1.369 . S
C378 C380 1.419 . S
C378 H382 0.930 . S
C379 C378 1.369 . S
C379 C388 1.429 . S
C380 C378 1.419 . S
C380 C381 1.363 . S
C380 H383 0.929 . S
C381 C380 1.363 . S
C381 C387 1.428 . S
H382 C378 0.930 . S
H383 C380 0.929 . S
S384 N385 1.613 . S
S384 N386 1.610 . S
N385 S384 1.613 . S
N385 C388 1.350 . S
N386 S384 1.610 . S
N386 C387 1.351 . S
C387 C381 1.428 . S
C387 N386 1.351 . S
C387 C388 1.434 . S
C388 C379 1.429 . S
C388 N385 1.350 . S
C388 C387 1.434 . S
C389 C390 1.369 . S
C389 C391 1.419 . S
C389 H393 0.930 . S
C390 C389 1.369 . S
C390 C399 1.429 . S
C391 C389 1.419 . S
C391 C392 1.363 . S
C391 H394 0.929 . S
C392 C391 1.363 . S
C392 C398 1.428 . S
H393 C389 0.930 . S
H394 C391 0.929 . S
S395 N396 1.613 . S
S395 N397 1.610 . S
N396 S395 1.613 . S
N396 C399 1.350 . S
N397 S395 1.610 . S
N397 C398 1.351 . S
C398 C392 1.428 . S
C398 N397 1.351 . S
C398 C399 1.434 . S
C399 C390 1.429 . S
C399 N396 1.350 . S
C399 C398 1.434 . S
C400 C401 1.369 . S
C400 C402 1.419 . S
C400 H404 0.930 . S
C401 C400 1.369 . S
C401 C410 1.429 . S
C402 C400 1.419 . S
C402 C403 1.363 . S
C402 H405 0.929 . S
C403 C402 1.363 . S
C403 C409 1.428 . S
H404 C400 0.930 . S
H405 C402 0.929 . S
S406 N407 1.613 . S
S406 N408 1.610 . S
N407 S406 1.613 . S
N407 C410 1.350 . S
N408 S406 1.610 . S
N408 C409 1.351 . S
C409 C403 1.428 . S
C409 N408 1.351 . S
C409 C410 1.434 . S
C410 C401 1.429 . S
C410 N407 1.350 . S
C410 C409 1.434 . S
C411 C412 1.369 . S
C411 C413 1.419 . S
C411 H415 0.930 . S
C412 C411 1.369 . S
C412 C421 1.429 . S
C413 C411 1.419 . S
C413 C414 1.363 . S
C413 H416 0.929 . S
C414 C413 1.363 . S
C414 C420 1.428 . S
H415 C411 0.930 . S
H416 C413 0.929 . S
S417 N418 1.613 . S
S417 N419 1.610 . S
N418 S417 1.613 . S
N418 C421 1.350 . S
N419 S417 1.610 . S
N419 C420 1.351 . S
C420 C414 1.428 . S
C420 N419 1.351 . S
C420 C421 1.434 . S
C421 C412 1.429 . S
C421 N418 1.350 . S
C421 C420 1.434 . S
C422 C423 1.369 . S
C422 C424 1.419 . S
C422 H426 0.930 . S
C423 C422 1.369 . S
C423 C432 1.429 . S
C424 C422 1.419 . S
C424 C425 1.363 . S
C424 H427 0.929 . S
C425 C424 1.363 . S
C425 C431 1.428 . S
H426 C422 0.930 . S
H427 C424 0.929 . S
S428 N429 1.613 . S
S428 N430 1.610 . S
N429 S428 1.613 . S
N429 C432 1.350 . S
N430 S428 1.610 . S
N430 C431 1.351 . S
C431 C425 1.428 . S
C431 N430 1.351 . S
C431 C432 1.434 . S
C432 C423 1.429 . S
C432 N429 1.350 . S
C432 C431 1.434 . S
C433 C434 1.369 . S
C433 C435 1.419 . S
C433 H437 0.930 . S
C434 C433 1.369 . S
C434 C443 1.429 . S
C435 C433 1.419 . S
C435 C436 1.363 . S
C435 H438 0.929 . S
C436 C435 1.363 . S
C436 C442 1.428 . S
H437 C433 0.930 . S
H438 C435 0.929 . S
S439 N440 1.613 . S
S439 N441 1.610 . S
N440 S439 1.613 . S
N440 C443 1.350 . S
N441 S439 1.610 . S
N441 C442 1.351 . S
C442 C436 1.428 . S
C442 N441 1.351 . S
C442 C443 1.434 . S
C443 C434 1.429 . S
C443 N440 1.350 . S
C443 C442 1.434 . S
C444 C445 1.369 . S
C444 C446 1.419 . S
C444 H448 0.930 . S
C445 C444 1.369 . S
C445 C454 1.429 . S
C446 C444 1.419 . S
C446 C447 1.363 . S
C446 H449 0.929 . S
C447 C446 1.363 . S
C447 C453 1.428 . S
H448 C444 0.930 . S
H449 C446 0.929 . S
S450 N451 1.613 . S
S450 N452 1.610 . S
N451 S450 1.613 . S
N451 C454 1.350 . S
N452 S450 1.610 . S
N452 C453 1.351 . S
C453 C447 1.428 . S
C453 N452 1.351 . S
C453 C454 1.434 . S
C454 C445 1.429 . S
C454 N451 1.350 . S
C454 C453 1.434 . S
C455 C456 1.369 . S
C455 C457 1.419 . S
C455 H459 0.930 . S
C456 C455 1.369 . S
C456 C465 1.429 . S
C457 C455 1.419 . S
C457 C458 1.363 . S
C457 H460 0.929 . S
C458 C457 1.363 . S
C458 C464 1.428 . S
H459 C455 0.930 . S
H460 C457 0.929 . S
S461 N462 1.613 . S
S461 N463 1.610 . S
N462 S461 1.613 . S
N462 C465 1.350 . S
N463 S461 1.610 . S
N463 C464 1.351 . S
C464 C458 1.428 . S
C464 N463 1.351 . S
C464 C465 1.434 . S
C465 C456 1.429 . S
C465 N462 1.350 . S
C465 C464 1.434 . S
C466 C467 1.369 . S
C466 C468 1.419 . S
C466 H470 0.930 . S
C467 C466 1.369 . S
C467 C476 1.429 . S
C468 C466 1.419 . S
C468 C469 1.363 . S
C468 H471 0.929 . S
C469 C468 1.363 . S
C469 C475 1.428 . S
H470 C466 0.930 . S
H471 C468 0.929 . S
S472 N473 1.613 . S
S472 N474 1.610 . S
N473 S472 1.613 . S
N473 C476 1.350 . S
N474 S472 1.610 . S
N474 C475 1.351 . S
C475 C469 1.428 . S
C475 N474 1.351 . S
C475 C476 1.434 . S
C476 C467 1.429 . S
C476 N473 1.350 . S
C476 C475 1.434 . S
C477 C478 1.369 . S
C477 C479 1.419 . S
C477 H481 0.930 . S
C478 C477 1.369 . S
C478 C487 1.429 . S
C479 C477 1.419 . S
C479 C480 1.363 . S
C479 H482 0.929 . S
C480 C479 1.363 . S
C480 C486 1.428 . S
H481 C477 0.930 . S
H482 C479 0.929 . S
S483 N484 1.613 . S
S483 N485 1.610 . S
N484 S483 1.613 . S
N484 C487 1.350 . S
N485 S483 1.610 . S
N485 C486 1.351 . S
C486 C480 1.428 . S
C486 N485 1.351 . S
C486 C487 1.434 . S
C487 C478 1.429 . S
C487 N484 1.350 . S
C487 C486 1.434 . S
C488 C489 1.369 . S
C488 C490 1.419 . S
C488 H492 0.930 . S
C489 C488 1.369 . S
C489 C498 1.429 . S
C490 C488 1.419 . S
C490 C491 1.363 . S
C490 H493 0.929 . S
C491 C490 1.363 . S
C491 C497 1.428 . S
H492 C488 0.930 . S
H493 C490 0.929 . S
S494 N495 1.613 . S
S494 N496 1.610 . S
N495 S494 1.613 . S
N495 C498 1.350 . S
N496 S494 1.610 . S
N496 C497 1.351 . S
C497 C491 1.428 . S
C497 N496 1.351 . S
C497 C498 1.434 . S
C498 C489 1.429 . S
C498 N495 1.350 . S
C498 C497 1.434 . S
C499 C500 1.369 . S
C499 C501 1.419 . S
C499 H503 0.930 . S
C500 C499 1.369 . S
C500 C509 1.429 . S
C501 C499 1.419 . S
C501 C502 1.363 . S
C501 H504 0.929 . S
C502 C501 1.363 . S
C502 C508 1.428 . S
H503 C499 0.930 . S
H504 C501 0.929 . S
S505 N506 1.613 . S
S505 N507 1.610 . S
N506 S505 1.613 . S
N506 C509 1.350 . S
N507 S505 1.610 . S
N507 C508 1.351 . S
C508 C502 1.428 . S
C508 N507 1.351 . S
C508 C509 1.434 . S
C509 C500 1.429 . S
C509 N506 1.350 . S
C509 C508 1.434 . S
C510 C511 1.369 . S
C510 C512 1.419 . S
C510 H514 0.930 . S
C511 C510 1.369 . S
C511 C520 1.429 . S
C512 C510 1.419 . S
C512 C513 1.363 . S
C512 H515 0.929 . S
C513 C512 1.363 . S
C513 C519 1.428 . S
H514 C510 0.930 . S
H515 C512 0.929 . S
S516 N517 1.613 . S
S516 N518 1.610 . S
N517 S516 1.613 . S
N517 C520 1.350 . S
N518 S516 1.610 . S
N518 C519 1.351 . S
C519 C513 1.428 . S
C519 N518 1.351 . S
C519 C520 1.434 . S
C520 C511 1.429 . S
C520 N517 1.350 . S
C520 C519 1.434 . S
C521 C522 1.369 . S
C521 C523 1.419 . S
C521 H525 0.930 . S
C522 C521 1.369 . S
C522 C531 1.429 . S
C523 C521 1.419 . S
C523 C524 1.363 . S
C523 H526 0.929 . S
C524 C523 1.363 . S
C524 C530 1.428 . S
H525 C521 0.930 . S
H526 C523 0.929 . S
S527 N528 1.613 . S
S527 N529 1.610 . S
N528 S527 1.613 . S
N528 C531 1.350 . S
N529 S527 1.610 . S
N529 C530 1.351 . S
C530 C524 1.428 . S
C530 N529 1.351 . S
C530 C531 1.434 . S
C531 C522 1.429 . S
C531 N528 1.350 . S
C531 C530 1.434 . S
C532 C533 1.369 1_565 S
C532 C534 1.419 1_554 S
C532 H536 0.930 . S
C533 C532 1.369 1_545 S
C533 C542 1.429 . S
C534 C532 1.419 1_556 S
C534 C535 1.363 . S
C534 H537 0.929 . S
C535 C534 1.363 . S
C535 C541 1.428 1_565 S
H536 C532 0.930 . S
H537 C534 0.929 . S
S538 N539 1.613 1_556 S
S538 N540 1.610 . S
N539 S538 1.613 1_554 S
N539 C542 1.350 . S
N540 S538 1.610 . S
N540 C541 1.351 . S
C541 C535 1.428 1_545 S
C541 N540 1.351 . S
C541 C542 1.434 1_556 S
C542 C533 1.429 . S
C542 N539 1.350 . S
C542 C541 1.434 1_554 S
C543 C544 1.369 1_655 S
C543 C545 1.419 1_556 S
C543 H547 0.930 . S
C544 C543 1.369 1_455 S
C544 C553 1.429 . S
C545 C543 1.419 1_554 S
C545 C546 1.363 . S
C545 H548 0.929 . S
C546 C545 1.363 . S
C546 C552 1.428 1_655 S
H547 C543 0.930 . S
H548 C545 0.929 . S
S549 N550 1.613 1_554 S
S549 N551 1.610 . S
N550 S549 1.613 1_556 S
N550 C553 1.350 . S
N551 S549 1.610 . S
N551 C552 1.351 . S
C552 C546 1.428 1_455 S
C552 N551 1.351 . S
C552 C553 1.434 1_554 S
C553 C544 1.429 . S
C553 N550 1.350 . S
C553 C552 1.434 1_556 S
C554 C555 1.369 1_565 S
C554 C556 1.419 1_556 S
C554 H558 0.930 . S
C555 C554 1.369 1_545 S
C555 C564 1.429 . S
C556 C554 1.419 1_554 S
C556 C557 1.363 . S
C556 H559 0.929 . S
C557 C556 1.363 . S
C557 C563 1.428 1_565 S
H558 C554 0.930 . S
H559 C556 0.929 . S
S560 N561 1.613 1_554 S
S560 N562 1.610 . S
N561 S560 1.613 1_556 S
N561 C564 1.350 . S
N562 S560 1.610 . S
N562 C563 1.351 . S
C563 C557 1.428 1_545 S
C563 N562 1.351 . S
C563 C564 1.434 1_554 S
C564 C555 1.429 . S
C564 N561 1.350 . S
C564 C563 1.434 1_556 S
C565 C566 1.377 . S
C565 C567 1.412 1_656 S
C565 H569 0.930 . S
C566 C565 1.377 . S
C566 C575 1.429 . S
C567 C565 1.412 1_454 S
C567 C568 1.363 . S
C567 H570 0.929 . S
C568 C567 1.363 . S
C568 C574 1.428 . S
H569 C565 0.930 . S
H570 C567 0.929 . S
S571 N572 1.613 1_554 S
S571 N573 1.610 . S
N572 S571 1.613 1_556 S
N572 C575 1.350 . S
N573 S571 1.610 . S
N573 C574 1.351 1_655 S
C574 C568 1.428 . S
C574 N573 1.351 1_455 S
C574 C575 1.435 1_454 S
C575 C566 1.429 . S
C575 N572 1.350 . S
C575 C574 1.435 1_656 S
C225 C6 1.405 . S
C227 C104 1.406 . S
C236 C20 1.410 . S
C238 C62 1.410 . S
C247 C76 1.407 . S
C249 C34 1.407 . S
C258 C48 1.409 . S
C260 C90 1.409 . S
C269 C118 1.408 . S
C271 C216 1.408 . S
C280 C174 1.406 . S
C282 C132 1.407 . S
C291 C188 1.408 . S
C293 C146 1.408 . S
C302 C202 1.407 . S
C304 C160 1.407 . S
C313 C9 1.469 . S
C315 C162 1.514 . S
C324 C23 1.477 . S
C326 C120 1.515 . S
C335 C134 1.516 . S
C337 C37 1.476 . S
C346 C51 1.475 . S
C348 C148 1.514 . S
C357 C65 1.471 . S
C359 C190 1.515 . S
C368 C204 1.514 . S
C370 C79 1.470 . S
C379 C93 1.475 . S
C381 C218 1.515 . S
C390 C176 1.514 . S
C392 C107 1.470 . S
C401 C121 1.477 1_545 S
C403 C50 1.515 . S
C412 C8 1.513 . S
C414 C135 1.472 1_455 S
C423 C149 1.471 1_565 S
C425 C22 1.515 . S
C434 C36 1.514 . S
C436 C163 1.470 1_655 S
C445 C177 1.477 1_565 S
C447 C78 1.515 . S
C456 C92 1.514 . S
C458 C191 1.470 1_655 S
C467 C106 1.513 . S
C469 C205 1.470 1_545 S
C478 C64 1.513 . S
C480 C219 1.472 1_455 S
C489 C63 1.551 . S
C491 C7 1.553 . S
C500 C77 1.553 . S
C502 C21 1.551 . S
C511 C35 1.548 . S
C513 C91 1.551 . S
C522 C105 1.546 . S
C524 C49 1.549 . S
C533 C175 1.549 . S
C535 C119 1.551 . S
C544 C189 1.553 . S
C546 C133 1.553 . S
C555 C147 1.550 . S
C557 C203 1.552 . S
C566 C217 1.546 . S
C568 C161 1.548 . S
