# Generated by pormake.
# Topology umx, (4)-cn, num edge types: 1
# Building blocks:
#     Node 0, Type 0, BuildingBlock: ICAMEG_clean_sbu_1, # of connection points: 4
#     Node 1, Type 0, BuildingBlock: ICAMEG_clean_sbu_1, # of connection points: 4
#     Node 2, Type 0, BuildingBlock: ICAMEG_clean_sbu_1, # of connection points: 4
#     Node 3, Type 0, BuildingBlock: ICAMEG_clean_sbu_1, # of connection points: 4
#     Node 4, Type 0, BuildingBlock: ICAMEG_clean_sbu_1, # of connection points: 4
#     Node 5, Type 0, BuildingBlock: ICAMEG_clean_sbu_1, # of connection points: 4
#     Node 6, Type 0, BuildingBlock: ICAMEG_clean_sbu_1, # of connection points: 4
#     Node 7, Type 0, BuildingBlock: ICAMEG_clean_sbu_1, # of connection points: 4
#     Edge 8, Type (0, 0), BuildingBlock: MIFKUJ_clean_linker_0, # of connection points: 2
#     Edge 9, Type (0, 0), BuildingBlock: MIFKUJ_clean_linker_0, # of connection points: 2
#     Edge 10, Type (0, 0), BuildingBlock: MIFKUJ_clean_linker_0, # of connection points: 2
#     Edge 11, Type (0, 0), BuildingBlock: MIFKUJ_clean_linker_0, # of connection points: 2
#     Edge 12, Type (0, 0), BuildingBlock: MIFKUJ_clean_linker_0, # of connection points: 2
#     Edge 13, Type (0, 0), BuildingBlock: MIFKUJ_clean_linker_0, # of connection points: 2
#     Edge 14, Type (0, 0), BuildingBlock: MIFKUJ_clean_linker_0, # of connection points: 2
#     Edge 15, Type (0, 0), BuildingBlock: MIFKUJ_clean_linker_0, # of connection points: 2
#     Edge 16, Type (0, 0), BuildingBlock: MIFKUJ_clean_linker_0, # of connection points: 2
#     Edge 17, Type (0, 0), BuildingBlock: MIFKUJ_clean_linker_0, # of connection points: 2
#     Edge 18, Type (0, 0), BuildingBlock: MIFKUJ_clean_linker_0, # of connection points: 2
#     Edge 19, Type (0, 0), BuildingBlock: MIFKUJ_clean_linker_0, # of connection points: 2
#     Edge 20, Type (0, 0), BuildingBlock: MIFKUJ_clean_linker_0, # of connection points: 2
#     Edge 21, Type (0, 0), BuildingBlock: MIFKUJ_clean_linker_0, # of connection points: 2
#     Edge 22, Type (0, 0), BuildingBlock: MIFKUJ_clean_linker_0, # of connection points: 2
#     Edge 23, Type (0, 0), BuildingBlock: MIFKUJ_clean_linker_0, # of connection points: 2
# Relax obj value: 0.032
# Max RMSD: 0.112
# Mean RMSD: 0.112
data_MOF--net-umx--node1-ICAMEG_clean_sbu_1--edge1-MIFKUJ_clean_linker_0
_symmetry_space_group_name_H-M    P1
_symmetry_Int_Tables_number       1
_symmetry_cell_setting            triclinic
loop_
_symmetry_equiv_pos_as_xyz
'x, y, z'
_cell_length_a     53.467926
_cell_length_b     53.472042
_cell_length_c     39.079751
_cell_angle_alpha  90.014617
_cell_angle_beta   89.995068
_cell_angle_gamma 89.995487
loop_
_atom_site_label
_atom_site_type_symbol
_atom_site_fract_x
_atom_site_fract_y
_atom_site_fract_z
_atom_type_partial_charge
Co0 Co 0.17954 0.4826 0.02432 0.0
Co1 Co 0.16358 0.42371 0.0525 0.0
O2 O 0.1812 0.44624 0.02149 0.0
C3 C 0.165 0.4712 0.95349 0.0
O4 O 0.14989 0.45433 0.96645 0.0
C5 C 0.21632 0.4076 0.0553 0.0
O6 O 0.22202 0.43119 0.06043 0.0
O7 O 0.17704 0.44163 0.09308 0.0
O8 O 0.18019 0.48153 0.07551 0.0
H9 H 0.11013 0.4016 0.15381 0.0
H10 H 0.21848 0.45891 0.98111 0.0
O11 O 0.17865 0.48442 0.97315 0.0
H12 H 0.2646 0.50822 0.06709 0.0
H13 H 0.20157 0.57004 0.98742 0.0
H14 H 0.15147 0.51889 0.06695 0.0
H15 H 0.21848 0.50804 0.06654 0.0
H16 H 0.20373 0.52397 0.98541 0.0
O17 O 0.1935 0.40105 0.05239 0.0
H18 H 0.1319 0.43014 0.11415 0.0
H19 H 0.15923 0.36825 0.05718 0.0
H20 H 0.1489 0.56491 0.07007 0.0
H21 H 0.26462 0.45875 0.98053 0.0
H22 H 0.17409 0.5908 0.0301 0.0
H23 H 0.28798 0.48345 0.02383 0.0
O24 O 0.14245 0.48161 0.0251 0.0
H25 H 0.16893 0.38256 0.93706 0.0
H26 H 0.1127 0.40671 0.0315 0.0
H27 H 0.09525 0.38587 0.98054 0.0
H28 H 0.12344 0.37362 0.93287 0.0
H29 H 0.18557 0.40368 0.98835 0.0
H30 H 0.13793 0.33902 0.09639 0.0
H31 H 0.11308 0.35568 0.14503 0.0
O32 O 0.13332 0.44591 0.05286 0.0
C33 C 0.18057 0.46485 0.09887 0.0
C34 C 0.12083 0.39412 0.13264 0.0
C35 C 0.13646 0.35899 0.10044 0.0
N36 N 0.14661 0.40087 0.08322 0.0
C37 C 0.13313 0.41018 0.11005 0.0
C38 C 0.14852 0.37563 0.07837 0.0
C39 C 0.12251 0.36835 0.12772 0.0
C40 C 0.22852 0.46993 -0.00022 0.0
N41 N 0.21581 0.48356 0.02371 0.0
C42 C 0.25464 0.46968 0.99943 0.0
C43 C 0.26774 0.48351 0.02377 0.0
C44 C 0.25463 0.49739 0.04806 0.0
C45 C 0.22852 0.49718 0.04767 0.0
C46 C 0.19056 0.55897 0.00504 0.0
C47 C 0.16261 0.53005 0.04964 0.0
C48 C 0.19167 0.53288 0.00398 0.0
N49 N 0.17793 0.51879 0.02628 0.0
C50 C 0.16102 0.55609 0.05145 0.0
C51 C 0.17514 0.5706 0.02899 0.0
C52 C 0.12703 0.46677 0.03945 0.0
C53 C 0.15647 0.38773 0.95772 0.0
C54 C 0.1251 0.40149 0.01085 0.0
C55 C 0.11511 0.38964 0.98208 0.0
C56 C 0.13094 0.38276 0.95536 0.0
N57 N 0.15016 0.40631 0.01297 0.0
C58 C 0.16581 0.39958 0.9869 0.0
Co59 Co 0.51711 0.18776 0.5261 0.0
Co60 Co 0.57518 0.17107 0.5569 0.0
O61 O 0.55351 0.18781 0.52406 0.0
C62 C 0.52697 0.16675 0.45736 0.0
O63 O 0.54079 0.14965 0.47227 0.0
C64 C 0.59181 0.22364 0.55755 0.0
O65 O 0.56816 0.2297 0.5612 0.0
O66 O 0.55673 0.18598 0.59605 0.0
O67 O 0.51743 0.19171 0.57713 0.0
H68 H 0.59442 0.12043 0.66187 0.0
H69 H 0.54325 0.22264 0.47918 0.0
O70 O 0.51621 0.18369 0.47503 0.0
H71 H 0.49439 0.27628 0.5571 0.0
H72 H 0.43138 0.2103 0.48289 0.0
H73 H 0.4789 0.16423 0.57076 0.0
H74 H 0.49263 0.23033 0.56229 0.0
H75 H 0.47751 0.21073 0.48269 0.0
O76 O 0.59818 0.20069 0.556 0.0
H77 H 0.56704 0.14133 0.61993 0.0
H78 H 0.63047 0.16623 0.56409 0.0
H79 H 0.43278 0.16352 0.57215 0.0
H80 H 0.54542 0.26849 0.47294 0.0
H81 H 0.40871 0.18666 0.52797 0.0
H82 H 0.52094 0.29563 0.51217 0.0
O83 O 0.51641 0.15082 0.53182 0.0
H84 H 0.61845 0.1725 0.44277 0.0
H85 H 0.59205 0.11944 0.53944 0.0
H86 H 0.61372 0.10027 0.49029 0.0
H87 H 0.62714 0.12687 0.44153 0.0
H88 H 0.59645 0.19085 0.49224 0.0
H89 H 0.65857 0.14587 0.60572 0.0
H90 H 0.64054 0.1227 0.65498 0.0
O91 O 0.55259 0.14123 0.5581 0.0
C92 C 0.53382 0.19159 0.60092 0.0
C93 C 0.6025 0.13045 0.64052 0.0
C94 C 0.6385 0.14474 0.60899 0.0
N95 N 0.59715 0.15479 0.58944 0.0
C96 C 0.58709 0.14223 0.6166 0.0
C97 C 0.62251 0.15627 0.58555 0.0
C98 C 0.62838 0.13173 0.63662 0.0
C99 C 0.53233 0.23432 0.49611 0.0
N100 N 0.51773 0.22383 0.52095 0.0
C101 C 0.53373 0.26027 0.49255 0.0
C102 C 0.52001 0.27549 0.5146 0.0
C103 C 0.50513 0.26465 0.53984 0.0
C104 C 0.50424 0.23862 0.54269 0.0
C105 C 0.44165 0.20022 0.50235 0.0
C106 C 0.46855 0.17453 0.55164 0.0
C107 C 0.46777 0.20036 0.50234 0.0
N108 N 0.48086 0.18774 0.52692 0.0
C109 C 0.44244 0.17398 0.55248 0.0
C110 C 0.42894 0.18695 0.52765 0.0
C111 C 0.53108 0.13531 0.54642 0.0
C112 C 0.61276 0.16072 0.4639 0.0
C113 C 0.59776 0.13113 0.51828 0.0
C114 C 0.61008 0.12018 0.49055 0.0
C115 C 0.6176 0.13512 0.46321 0.0
N116 N 0.59312 0.15627 0.5188 0.0
C117 C 0.60039 0.17103 0.49205 0.0
Co118 Co 0.81205 0.51562 0.0286 0.0
Co119 Co 0.82997 0.57455 0.05529 0.0
O120 O 0.81151 0.55202 0.02515 0.0
C121 C 0.82759 0.52626 0.95793 0.0
O122 O 0.8415 0.54421 0.97065 0.0
C123 C 0.77744 0.59078 0.06105 0.0
O124 O 0.77191 0.56723 0.06675 0.0
O125 O 0.81761 0.55685 0.09673 0.0
O126 O 0.81048 0.51736 0.07963 0.0
H127 H 0.88622 0.59671 0.15371 0.0
H128 H 0.77491 0.54043 0.98381 0.0
O129 O 0.81401 0.51293 0.97754 0.0
H130 H 0.72529 0.49367 0.06876 0.0
H131 H 0.78798 0.42845 0.9928 0.0
H132 H 0.838 0.47901 0.07316 0.0
H133 H 0.77139 0.49183 0.06961 0.0
H134 H 0.78733 0.47454 0.98971 0.0
O135 O 0.80015 0.59729 0.0566 0.0
H136 H 0.86323 0.56816 0.11538 0.0
H137 H 0.83471 0.62999 0.05944 0.0
H138 H 0.83905 0.43299 0.07736 0.0
H139 H 0.72884 0.54276 0.98196 0.0
H140 H 0.8139 0.40739 0.03697 0.0
H141 H 0.70372 0.51931 0.02472 0.0
O142 O 0.8492 0.51536 0.03054 0.0
H143 H 0.82172 0.61572 0.94021 0.0
H144 H 0.88036 0.591 0.03153 0.0
H145 H 0.89656 0.61158 0.97963 0.0
H146 H 0.86714 0.62412 0.93351 0.0
H147 H 0.80633 0.59481 0.99238 0.0
H148 H 0.85724 0.65924 0.09733 0.0
H149 H 0.8833 0.64262 0.14477 0.0
O150 O 0.85998 0.55217 0.05426 0.0
C151 C 0.81211 0.53407 0.10284 0.0
C152 C 0.875 0.60418 0.13305 0.0
C153 C 0.8587 0.63928 0.10144 0.0
N154 N 0.84785 0.5974 0.08503 0.0
C155 C 0.862 0.5881 0.11121 0.0
C156 C 0.84596 0.62263 0.08011 0.0
C157 C 0.87333 0.62994 0.12804 0.0
C158 C 0.76409 0.52997 0.00227 0.0
N159 N 0.77581 0.51591 0.02666 0.0
C160 C 0.73802 0.53144 0.00118 0.0
C161 C 0.72394 0.51832 0.02522 0.0
C162 C 0.73603 0.50394 0.04995 0.0
C163 C 0.76213 0.50298 0.05033 0.0
C164 C 0.79897 0.4394 0.01059 0.0
C165 C 0.82689 0.46799 0.05565 0.0
C166 C 0.79871 0.46549 0.00892 0.0
N167 N 0.81244 0.47943 0.03143 0.0
C168 C 0.82761 0.44195 0.05808 0.0
C169 C 0.81352 0.4276 0.03539 0.0
C170 C 0.86535 0.53046 0.04278 0.0
C171 C 0.8347 0.61043 0.96017 0.0
C172 C 0.86743 0.59634 0.01156 0.0
C173 C 0.87672 0.60804 0.98225 0.0
C174 C 0.8602 0.61509 0.95641 0.0
N175 N 0.8424 0.59179 0.01505 0.0
C176 C 0.82609 0.5987 0.98985 0.0
Co177 Co 0.48339 0.82177 0.52841 0.0
Co178 Co 0.4233 0.83666 0.55384 0.0
O179 O 0.44708 0.81913 0.52444 0.0
C180 C 0.47247 0.83594 0.45726 0.0
O181 O 0.45369 0.84905 0.46933 0.0
C182 C 0.40979 0.78333 0.56005 0.0
O183 O 0.43363 0.77883 0.56517 0.0
O184 O 0.44138 0.82579 0.59583 0.0
O185 O 0.48131 0.8205 0.57935 0.0
H186 H 0.39748 0.89304 0.65044 0.0
H187 H 0.4612 0.7829 0.48372 0.0
O188 O 0.48637 0.82342 0.47741 0.0
H189 H 0.50997 0.73675 0.5702 0.0
H190 H 0.57207 0.80234 0.49431 0.0
H191 H 0.5181 0.85028 0.5729 0.0
H192 H 0.50903 0.78288 0.57049 0.0
H193 H 0.52613 0.79899 0.49062 0.0
O194 O 0.40221 0.80571 0.55577 0.0
H195 H 0.42748 0.87119 0.61292 0.0
H196 H 0.36763 0.8383 0.55742 0.0
H197 H 0.56396 0.85403 0.57768 0.0
H198 H 0.4617 0.73677 0.4824 0.0
H199 H 0.59127 0.82994 0.53819 0.0
H200 H 0.48616 0.7134 0.52594 0.0
O201 O 0.48159 0.85887 0.5299 0.0
H202 H 0.38358 0.82418 0.43855 0.0
H203 H 0.40382 0.88559 0.52855 0.0
H204 H 0.3825 0.89965 0.47602 0.0
H205 H 0.37223 0.86884 0.43057 0.0
H206 H 0.40512 0.81095 0.49133 0.0
H207 H 0.33697 0.85963 0.59451 0.0
H208 H 0.35186 0.88731 0.64132 0.0
O209 O 0.44389 0.86791 0.55218 0.0
C210 C 0.46437 0.82144 0.6023 0.0
C211 C 0.39076 0.88109 0.63006 0.0
C212 C 0.3568 0.86231 0.5987 0.0
N213 N 0.3993 0.85366 0.58287 0.0
C214 C 0.40766 0.86873 0.60869 0.0
C215 C 0.37424 0.85024 0.57783 0.0
C216 C 0.36517 0.87785 0.62495 0.0
C217 C 0.4721 0.77286 0.50251 0.0
N218 N 0.48518 0.78556 0.52702 0.0
C219 C 0.47223 0.74674 0.50173 0.0
C220 C 0.48592 0.73364 0.52621 0.0
C221 C 0.49927 0.74673 0.55106 0.0
C222 C 0.49865 0.77284 0.55112 0.0
C223 C 0.56037 0.81288 0.51173 0.0
C224 C 0.52988 0.8396 0.55579 0.0
C225 C 0.53436 0.81108 0.50972 0.0
N226 N 0.51948 0.82424 0.53175 0.0
C227 C 0.55582 0.84187 0.55854 0.0
C228 C 0.57113 0.82836 0.53635 0.0
C229 C 0.46546 0.87436 0.54127 0.0
C230 C 0.38789 0.83777 0.45821 0.0
C231 C 0.39947 0.87207 0.50887 0.0
C232 C 0.38734 0.88014 0.47921 0.0
C233 C 0.38156 0.86283 0.45373 0.0
N234 N 0.40563 0.84745 0.51307 0.0
C235 C 0.39997 0.83037 0.48823 0.0
Co236 Co 0.18901 0.51781 0.52223 0.0
Co237 Co 0.17188 0.57854 0.50273 0.0
O238 O 0.18992 0.55384 0.53 0.0
C239 C 0.17142 0.52411 0.59303 0.0
O240 O 0.15702 0.54206 0.58134 0.0
C241 C 0.22497 0.59355 0.49829 0.0
O242 O 0.23018 0.57005 0.4917 0.0
O243 O 0.18306 0.56276 0.45905 0.0
O244 O 0.19217 0.52282 0.47196 0.0
H245 H 0.11473 0.6076 0.40879 0.0
H246 H 0.22515 0.5392 0.57175 0.0
O247 O 0.1857 0.51217 0.57269 0.0
H248 H 0.27658 0.49659 0.48471 0.0
H249 H 0.2107 0.42827 0.54879 0.0
H250 H 0.1643 0.48464 0.4717 0.0
H251 H 0.23053 0.49589 0.48094 0.0
H252 H 0.2118 0.47397 0.55758 0.0
O253 O 0.20235 0.60037 0.50262 0.0
H254 H 0.13727 0.57639 0.44357 0.0
H255 H 0.16908 0.63422 0.50403 0.0
H256 H 0.16287 0.43912 0.46177 0.0
H257 H 0.27114 0.54024 0.57663 0.0
H258 H 0.18619 0.41059 0.50051 0.0
H259 H 0.29717 0.5189 0.53282 0.0
O260 O 0.1519 0.51807 0.51791 0.0
H261 H 0.18389 0.61251 0.62151 0.0
H262 H 0.12278 0.5964 0.52963 0.0
H263 H 0.10845 0.61488 0.58403 0.0
H264 H 0.13913 0.62309 0.63043 0.0
H265 H 0.19734 0.59374 0.56689 0.0
H266 H 0.14705 0.66609 0.46974 0.0
H267 H 0.11956 0.65282 0.42181 0.0
O268 O 0.14113 0.55719 0.50269 0.0
C269 C 0.18975 0.54068 0.45061 0.0
C270 C 0.12659 0.61361 0.42967 0.0
C271 C 0.14476 0.64644 0.46385 0.0
N272 N 0.1543 0.60348 0.47594 0.0
C273 C 0.13933 0.59602 0.44951 0.0
C274 C 0.15723 0.62832 0.48312 0.0
C275 C 0.12933 0.63898 0.43697 0.0
C276 C 0.23635 0.52965 0.55279 0.0
N277 N 0.22517 0.51739 0.52619 0.0
C278 C 0.26238 0.53039 0.5556 0.0
C279 C 0.27698 0.51845 0.53099 0.0
C280 C 0.26543 0.50594 0.50397 0.0
C281 C 0.23936 0.50564 0.50194 0.0
C282 C 0.2005 0.44051 0.53171 0.0
C283 C 0.17462 0.47236 0.48853 0.0
C284 C 0.20101 0.46638 0.53661 0.0
N285 N 0.18828 0.48194 0.51503 0.0
C286 C 0.17368 0.4466 0.48285 0.0
C287 C 0.18675 0.4306 0.5046 0.0
C288 C 0.13571 0.53444 0.50932 0.0
C289 C 0.17035 0.60904 0.60148 0.0
C290 C 0.1362 0.59977 0.54976 0.0
C291 C 0.128 0.61033 0.58047 0.0
C292 C 0.14523 0.61495 0.60648 0.0
N293 N 0.16086 0.594 0.54506 0.0
C294 C 0.17787 0.59851 0.57043 0.0
Co295 Co 0.48042 0.18476 0.02694 0.0
Co296 Co 0.42114 0.1665 0.00239 0.0
O297 O 0.44421 0.18436 0.03228 0.0
C298 C 0.47336 0.16487 0.09672 0.0
O299 O 0.45807 0.14839 0.08323 0.0
C300 C 0.40451 0.21905 0.00027 0.0
O301 O 0.42799 0.22492 0.99468 0.0
O302 O 0.43776 0.17991 0.96061 0.0
O303 O 0.47736 0.18827 0.97619 0.0
H304 H 0.39704 0.11217 0.90281 0.0
H305 H 0.45619 0.2197 0.07568 0.0
O306 O 0.48402 0.18113 0.07783 0.0
H307 H 0.50008 0.2733 0.99241 0.0
H308 H 0.56788 0.209 0.06106 0.0
H309 H 0.51649 0.16156 0.97879 0.0
H310 H 0.50238 0.22735 0.98788 0.0
H311 H 0.52188 0.20861 0.06605 0.0
O312 O 0.39816 0.19618 0.00327 0.0
H313 H 0.42635 0.13437 0.94096 0.0
H314 H 0.36564 0.16163 0.0003 0.0
H315 H 0.56241 0.1616 0.97268 0.0
H316 H 0.45354 0.26557 0.08131 0.0
H317 H 0.58843 0.18545 0.01402 0.0
H318 H 0.47551 0.2927 0.03939 0.0
O319 O 0.48144 0.14776 0.02177 0.0
H320 H 0.38352 0.17211 0.12 0.0
H321 H 0.40486 0.11567 0.02456 0.0
H322 H 0.38557 0.09833 0.07672 0.0
H323 H 0.37473 0.12664 0.1249 0.0
H324 H 0.40305 0.18863 0.06748 0.0
H325 H 0.33565 0.13988 0.96264 0.0
H326 H 0.35133 0.11486 0.91356 0.0
O327 O 0.4437 0.13665 0.00133 0.0
C328 C 0.46013 0.18654 0.9537 0.0
C329 C 0.38999 0.12295 0.92417 0.0
C330 C 0.35552 0.13853 0.95773 0.0
N331 N 0.39771 0.14911 0.97296 0.0
C332 C 0.40649 0.1355 0.94591 0.0
C333 C 0.37258 0.15085 0.97892 0.0
C334 C 0.36434 0.12449 0.9302 0.0
C335 C 0.46602 0.23138 0.05757 0.0
N336 N 0.47952 0.22086 0.03159 0.0
C337 C 0.46436 0.25734 0.06079 0.0
C338 C 0.47667 0.27255 0.03723 0.0
C339 C 0.49044 0.26168 0.01085 0.0
C340 C 0.49164 0.23565 0.00838 0.0
C341 C 0.55675 0.19859 0.04285 0.0
C342 C 0.52768 0.17212 0.99674 0.0
C343 C 0.5307 0.19826 0.04558 0.0
N344 N 0.51653 0.18525 0.02255 0.0
C345 C 0.55368 0.172 0.99321 0.0
C346 C 0.56826 0.18537 0.01644 0.0
C347 C 0.4661 0.13151 0.01026 0.0
C348 C 0.38809 0.1596 0.09914 0.0
C349 C 0.40026 0.1281 0.04543 0.0
C350 C 0.38928 0.11818 0.07488 0.0
C351 C 0.3832 0.13408 0.10189 0.0
N352 N 0.40497 0.15315 0.0429 0.0
C353 C 0.39906 0.16885 0.06929 0.0
Co354 Co 0.82349 0.48115 0.52824 0.0
Co355 Co 0.83823 0.42071 0.50412 0.0
O356 O 0.82157 0.4449 0.53382 0.0
C357 C 0.84081 0.47183 0.59862 0.0
O358 O 0.85394 0.45315 0.58631 0.0
C359 C 0.78485 0.40672 0.5016 0.0
O360 O 0.78 0.43046 0.49619 0.0
O361 O 0.82572 0.43794 0.46234 0.0
O362 O 0.8199 0.47804 0.47761 0.0
H363 H 0.89068 0.39382 0.40402 0.0
H364 H 0.78705 0.45937 0.57698 0.0
O365 O 0.82733 0.48513 0.57888 0.0
H366 H 0.73634 0.506 0.49311 0.0
H367 H 0.80445 0.57022 0.56084 0.0
H368 H 0.8494 0.51534 0.48017 0.0
H369 H 0.78237 0.50547 0.48872 0.0
H370 H 0.80188 0.52433 0.56639 0.0
O371 O 0.8074 0.39937 0.50482 0.0
H372 H 0.87039 0.42421 0.44258 0.0
H373 H 0.84029 0.36497 0.50211 0.0
H374 H 0.85233 0.56112 0.47351 0.0
H375 H 0.74109 0.45951 0.58245 0.0
H376 H 0.82974 0.58889 0.51404 0.0
H377 H 0.71542 0.48289 0.54023 0.0
O378 O 0.86048 0.47981 0.52359 0.0
H379 H 0.82998 0.38341 0.62158 0.0
H380 H 0.88798 0.40147 0.52664 0.0
H381 H 0.90396 0.38121 0.57895 0.0
H382 H 0.87486 0.37204 0.62688 0.0
H383 H 0.81485 0.40386 0.56895 0.0
H384 H 0.8602 0.33392 0.46414 0.0
H385 H 0.88566 0.3483 0.41474 0.0
O386 O 0.86939 0.4415 0.50319 0.0
C387 C 0.82039 0.46062 0.45534 0.0
C388 C 0.87973 0.38732 0.42555 0.0
C389 C 0.86258 0.3537 0.45926 0.0
N390 N 0.85437 0.39636 0.47471 0.0
C391 C 0.86825 0.40443 0.44752 0.0
C392 C 0.85133 0.37136 0.48064 0.0
C393 C 0.87687 0.36178 0.43155 0.0
C394 C 0.77602 0.4698 0.55874 0.0
N395 N 0.78738 0.48251 0.53269 0.0
C396 C 0.75 0.46972 0.56187 0.0
C397 C 0.7356 0.48281 0.53814 0.0
C398 C 0.74733 0.49577 0.51169 0.0
C399 C 0.7734 0.49538 0.5093 0.0
C400 C 0.81432 0.55832 0.54296 0.0
C401 C 0.83937 0.52731 0.49774 0.0
C402 C 0.81296 0.53233 0.546 0.0
N403 N 0.82528 0.51719 0.5234 0.0
C404 C 0.84116 0.55321 0.49392 0.0
C405 C 0.82851 0.56878 0.51669 0.0
C406 C 0.87583 0.46354 0.51225 0.0
C407 C 0.84283 0.38725 0.60084 0.0
C408 C 0.87523 0.39762 0.54743 0.0
C409 C 0.88436 0.38608 0.57695 0.0
C410 C 0.86802 0.38091 0.60382 0.0
N411 N 0.8505 0.4038 0.54471 0.0
C412 C 0.83435 0.39873 0.57091 0.0
Co413 Co 0.51837 0.81972 0.02761 0.0
Co414 Co 0.57932 0.83364 0.00449 0.0
O415 O 0.55458 0.81694 0.03334 0.0
C416 C 0.5281 0.83708 0.09785 0.0
O417 O 0.54738 0.8493 0.0855 0.0
C418 C 0.59155 0.77975 -0.00024 0.0
O419 O 0.56756 0.77541 0.99583 0.0
O420 O 0.56145 0.82332 0.96201 0.0
O421 O 0.52162 0.81574 0.97715 0.0
H422 H 0.60772 0.88889 0.90813 0.0
H423 H 0.53914 0.78311 0.07694 0.0
O424 O 0.51433 0.82401 0.07818 0.0
H425 H 0.49151 0.73298 0.99344 0.0
H426 H 0.42878 0.80302 0.05995 0.0
H427 H 0.48492 0.84569 0.97862 0.0
H428 H 0.49324 0.77894 0.98842 0.0
H429 H 0.47459 0.79956 0.06594 0.0
O430 O 0.59951 0.8021 0.00281 0.0
H431 H 0.57676 0.86822 0.94541 0.0
H432 H 0.6351 0.83356 0.0019 0.0
H433 H 0.43923 0.84949 0.97151 0.0
H434 H 0.53777 0.73722 0.08305 0.0
H435 H 0.41083 0.82805 0.01237 0.0
H436 H 0.51388 0.71183 0.04103 0.0
O437 O 0.52043 0.8567 0.02253 0.0
H438 H 0.61702 0.81938 0.12064 0.0
H439 H 0.60104 0.88155 0.03008 0.0
H440 H 0.62246 0.89463 0.08304 0.0
H441 H 0.63063 0.8634 0.12875 0.0
H442 H 0.59533 0.80723 0.06751 0.0
H443 H 0.66671 0.85374 0.9651 0.0
H444 H 0.65307 0.8817 0.9179 0.0
O445 O 0.55975 0.86554 0.006 0.0
C446 C 0.53893 0.8174 0.95484 0.0
C447 C 0.61391 0.87683 0.9287 0.0
C448 C 0.64701 0.85706 0.96064 0.0
N449 N 0.60414 0.84989 0.97596 0.0
C450 C 0.59647 0.86514 0.94995 0.0
C451 C 0.62903 0.84566 0.98135 0.0
C452 C 0.63935 0.87276 0.93417 0.0
C453 C 0.5285 0.77221 0.05876 0.0
N454 N 0.51617 0.78369 0.03247 0.0
C455 C 0.52788 0.74622 0.06227 0.0
C456 C 0.5145 0.73199 0.03865 0.0
C457 C 0.50196 0.74384 0.01193 0.0
C458 C 0.50304 0.76986 0.00919 0.0
C459 C 0.44096 0.8124 0.04194 0.0
C460 C 0.47267 0.83618 0.99637 0.0
C461 C 0.4669 0.81055 0.04524 0.0
N462 N 0.48239 0.82226 0.02249 0.0
C463 C 0.44682 0.83846 0.99227 0.0
C464 C 0.4309 0.82644 0.01523 0.0
C465 C 0.53745 0.87207 0.01351 0.0
C466 C 0.61358 0.83316 0.10091 0.0
C467 C 0.60435 0.86793 0.04996 0.0
C468 C 0.61659 0.8754 0.07983 0.0
C469 C 0.62119 0.85786 0.10545 0.0
N470 N 0.59691 0.84368 0.0457 0.0
C471 C 0.6014 0.82637 0.07069 0.0
H472 H 0.17922 0.5126 0.12383 0.0
H473 H 0.18351 0.52611 0.18304 0.0
H474 H 0.1956 0.44967 0.21435 0.0
H475 H 0.19038 0.43583 0.15515 0.0
H476 H 0.16475 0.4711 0.25665 0.0
H477 H 0.24408 0.49391 0.20897 0.0
H478 H 0.27248 0.5138 0.16737 0.0
H479 H 0.24266 0.58597 0.19304 0.0
H480 H 0.21379 0.56646 0.23442 0.0
H481 H 0.20632 0.49675 0.42289 0.0
H482 H 0.20848 0.48547 0.36262 0.0
H483 H 0.18426 0.55959 0.33451 0.0
H484 H 0.18217 0.57129 0.39504 0.0
H485 H 0.22201 0.53973 0.29107 0.0
H486 H 0.14268 0.5158 0.33923 0.0
H487 H 0.11655 0.49543 0.38304 0.0
H488 H 0.14802 0.42407 0.35689 0.0
H489 H 0.17495 0.44414 0.31359 0.0
C490 C 0.18294 0.49862 0.14321 0.0
C491 C 0.18452 0.4731 0.13466 0.0
C492 C 0.18551 0.50642 0.17712 0.0
C493 C 0.19027 0.48897 0.20316 0.0
C494 C 0.19197 0.46349 0.1947 0.0
C495 C 0.18906 0.45561 0.16081 0.0
C496 C 0.19274 0.49723 0.23932 0.0
C497 C 0.17757 0.48584 0.26417 0.0
C498 C 0.20905 0.51687 0.24915 0.0
C499 C 0.22662 0.52869 0.22459 0.0
C500 C 0.24347 0.514 0.20559 0.0
C501 C 0.25966 0.52521 0.18206 0.0
C502 C 0.25934 0.55113 0.17751 0.0
C503 C 0.24287 0.5659 0.19656 0.0
C504 C 0.22661 0.55478 0.22008 0.0
C505 C 0.20174 0.51085 0.40402 0.0
C506 C 0.19378 0.53489 0.41393 0.0
C507 C 0.203 0.50432 0.36953 0.0
C508 C 0.19619 0.52159 0.3442 0.0
C509 C 0.18954 0.546 0.35375 0.0
C510 C 0.18828 0.5526 0.38836 0.0
C511 C 0.19418 0.51347 0.30808 0.0
C512 C 0.20931 0.52493 0.28336 0.0
C513 C 0.17797 0.49378 0.29836 0.0
C514 C 0.16101 0.48152 0.32335 0.0
C515 C 0.14413 0.49578 0.34293 0.0
C516 C 0.12919 0.48429 0.3677 0.0
C517 C 0.13062 0.45847 0.37276 0.0
C518 C 0.14695 0.44407 0.35297 0.0
C519 C 0.16209 0.4555 0.32832 0.0
H520 H 0.11904 0.44961 0.39198 0.0
H521 H 0.27188 0.55977 0.15927 0.0
H522 H 0.56305 0.20272 0.65634 0.0
H523 H 0.54992 0.20676 0.71589 0.0
H524 H 0.47312 0.19522 0.68597 0.0
H525 H 0.48598 0.19209 0.62613 0.0
H526 H 0.47508 0.22844 0.73586 0.0
H527 H 0.51048 0.1471 0.71652 0.0
H528 H 0.54288 0.11714 0.69811 0.0
H529 H 0.59382 0.14721 0.77241 0.0
H530 H 0.56189 0.17769 0.79082 0.0
H531 H 0.42983 0.18381 0.89705 0.0
H532 H 0.44191 0.18905 0.83717 0.0
H533 H 0.51754 0.20561 0.86811 0.0
H534 H 0.50579 0.20025 0.92797 0.0
H535 H 0.51615 0.17085 0.81801 0.0
H536 H 0.47931 0.25143 0.83852 0.0
H537 H 0.44602 0.28031 0.85713 0.0
H538 H 0.39654 0.2501 0.78112 0.0
H539 H 0.42942 0.22077 0.76236 0.0
C540 C 0.54332 0.20133 0.66233 0.0
C541 C 0.52561 0.19676 0.63646 0.0
C542 C 0.53585 0.20356 0.69645 0.0
C543 C 0.51059 0.20068 0.70556 0.0
C544 C 0.49272 0.19737 0.67962 0.0
C545 C 0.50014 0.19552 0.64538 0.0
C546 C 0.50301 0.19976 0.74216 0.0
C547 C 0.48389 0.21568 0.75375 0.0
C548 C 0.51471 0.18332 0.76568 0.0
C549 C 0.53386 0.16483 0.75484 0.0
C550 C 0.52865 0.14744 0.72877 0.0
C551 C 0.54693 0.13036 0.71834 0.0
C552 C 0.5704 0.13029 0.73407 0.0
C553 C 0.57564 0.1473 0.76024 0.0
C554 C 0.55746 0.16448 0.77068 0.0
C555 C 0.44899 0.18883 0.89122 0.0
C556 C 0.46682 0.19157 0.91746 0.0
C557 C 0.45584 0.19189 0.85692 0.0
C558 C 0.4806 0.19786 0.84817 0.0
C559 C 0.49833 0.20099 0.87428 0.0
C560 C 0.49152 0.19798 0.90855 0.0
C561 C 0.48837 0.19963 0.81175 0.0
C562 C 0.50745 0.18373 0.80017 0.0
C563 C 0.47648 0.21591 0.78827 0.0
C564 C 0.45677 0.23374 0.79924 0.0
C565 C 0.46128 0.25082 0.82593 0.0
C566 C 0.44249 0.26729 0.83648 0.0
C567 C 0.41916 0.26699 0.82038 0.0
C568 C 0.4146 0.25028 0.7936 0.0
C569 C 0.43332 0.23375 0.78297 0.0
H570 H 0.40463 0.27975 0.82861 0.0
H571 H 0.5845 0.11701 0.72605 0.0
H572 H 0.81124 0.42911 0.4014 0.0
H573 H 0.80505 0.44048 0.34143 0.0
H574 H 0.8124 0.51855 0.36753 0.0
H575 H 0.81765 0.50746 0.42756 0.0
H576 H 0.77731 0.5133 0.32137 0.0
H577 H 0.86176 0.4835 0.3344 0.0
H578 H 0.89394 0.4529 0.35149 0.0
H579 H 0.86349 0.39926 0.28111 0.0
H580 H 0.83086 0.42942 0.264 0.0
H581 H 0.815 0.56311 0.16059 0.0
H582 H 0.81215 0.5494 0.22005 0.0
H583 H 0.7985 0.47377 0.18657 0.0
H584 H 0.80147 0.48716 0.12702 0.0
H585 H 0.83456 0.47598 0.23546 0.0
H586 H 0.75156 0.50822 0.21982 0.0
H587 H 0.72013 0.53978 0.20349 0.0
H588 H 0.74932 0.59034 0.27895 0.0
H589 H 0.78117 0.55921 0.29541 0.0
C590 C 0.81136 0.44871 0.39442 0.0
C591 C 0.81519 0.46735 0.41928 0.0
C592 C 0.80789 0.45518 0.3601 0.0
C593 C 0.80874 0.48036 0.34986 0.0
C594 C 0.81173 0.49901 0.37478 0.0
C595 C 0.81483 0.4926 0.40913 0.0
C596 C 0.80752 0.48732 0.31311 0.0
C597 C 0.78997 0.50529 0.30264 0.0
C598 C 0.82376 0.47657 0.28852 0.0
C599 C 0.84373 0.45863 0.29817 0.0
C600 C 0.86186 0.46513 0.32269 0.0
C601 C 0.88017 0.44787 0.33239 0.0
C602 C 0.88071 0.42413 0.31747 0.0
C603 C 0.86301 0.41764 0.29269 0.0
C604 C 0.84461 0.43482 0.28297 0.0
C605 C 0.81113 0.5436 0.16578 0.0
C606 C 0.80848 0.52626 0.13891 0.0
C607 C 0.80944 0.53581 0.19983 0.0
C608 C 0.80496 0.51059 0.20771 0.0
C609 C 0.80197 0.49331 0.18102 0.0
C610 C 0.8036 0.50106 0.14697 0.0
C611 C 0.80446 0.50206 0.2438 0.0
C612 C 0.82176 0.48383 0.25414 0.0
C613 C 0.78817 0.51277 0.2683 0.0
C614 C 0.76889 0.53144 0.25865 0.0
C615 C 0.7514 0.52613 0.23277 0.0
C616 C 0.73349 0.54394 0.22351 0.0
C617 C 0.73276 0.56707 0.24012 0.0
C618 C 0.74991 0.57242 0.26609 0.0
C619 C 0.76788 0.55469 0.27541 0.0
H620 H 0.71889 0.58083 0.23291 0.0
H621 H 0.89488 0.41077 0.32505 0.0
H622 H 0.56969 0.81855 0.89864 0.0
H623 H 0.5575 0.81535 0.83856 0.0
H624 H 0.48064 0.80425 0.86848 0.0
H625 H 0.49262 0.80687 0.92855 0.0
H626 H 0.49217 0.77511 0.81481 0.0
H627 H 0.50109 0.86092 0.84568 0.0
H628 H 0.52298 0.89722 0.87016 0.0
H629 H 0.58011 0.891 0.79339 0.0
H630 H 0.55891 0.85406 0.76904 0.0
H631 H 0.43439 0.81624 0.65892 0.0
H632 H 0.44766 0.81225 0.71864 0.0
H633 H 0.5249 0.81525 0.68723 0.0
H634 H 0.51199 0.81904 0.62761 0.0
H635 H 0.51319 0.84784 0.74133 0.0
H636 H 0.50185 0.76134 0.71018 0.0
H637 H 0.47828 0.72537 0.68742 0.0
H638 H 0.42256 0.73499 0.76544 0.0
H639 H 0.44562 0.77129 0.78837 0.0
C640 C 0.55023 0.81514 0.89252 0.0
C641 C 0.53212 0.81325 0.91851 0.0
C642 C 0.54329 0.81337 0.85813 0.0
C643 C 0.5181 0.80996 0.84905 0.0
C644 C 0.50017 0.80693 0.8749 0.0
C645 C 0.50709 0.80856 0.90928 0.0
C646 C 0.51019 0.81112 0.8127 0.0
C647 C 0.49657 0.7911 0.79882 0.0
C648 C 0.51605 0.83194 0.7918 0.0
C649 C 0.52855 0.85455 0.80576 0.0
C650 C 0.51841 0.86717 0.83414 0.0
C651 C 0.5307 0.88789 0.848 0.0
C652 C 0.55293 0.89646 0.83334 0.0
C653 C 0.5629 0.88433 0.80475 0.0
C654 C 0.55078 0.86346 0.79093 0.0
C655 C 0.45421 0.81591 0.66466 0.0
C656 C 0.4721 0.81796 0.6384 0.0
C657 C 0.46174 0.81357 0.69879 0.0
C658 C 0.48725 0.81339 0.70725 0.0
C659 C 0.50513 0.81537 0.68117 0.0
C660 C 0.49766 0.81745 0.64708 0.0
C661 C 0.49538 0.81175 0.74339 0.0
C662 C 0.50893 0.83179 0.75728 0.0
C663 C 0.48912 0.79112 0.76436 0.0
C664 C 0.47534 0.76919 0.75078 0.0
C665 C 0.48447 0.75592 0.72231 0.0
C666 C 0.47122 0.73545 0.70941 0.0
C667 C 0.4489 0.72794 0.72492 0.0
C668 C 0.43983 0.74085 0.75343 0.0
C669 C 0.45299 0.76136 0.7664 0.0
H670 H 0.43867 0.71208 0.7149 0.0
H671 H 0.56242 0.91252 0.84412 0.0
H672 H 0.85072 0.43955 0.65099 0.0
H673 H 0.8492 0.44856 0.7126 0.0
H674 H 0.83084 0.52545 0.69096 0.0
H675 H 0.83157 0.51649 0.62948 0.0
H676 H 0.87279 0.51283 0.74393 0.0
H677 H 0.78575 0.49791 0.71123 0.0
H678 H 0.75272 0.47236 0.68443 0.0
H679 H 0.76981 0.41157 0.75231 0.0
H680 H 0.80327 0.43665 0.7791 0.0
H681 H 0.83785 0.55858 0.90595 0.0
H682 H 0.84025 0.54912 0.84483 0.0
H683 H 0.82343 0.47164 0.866 0.0
H684 H 0.81945 0.48144 0.92684 0.0
H685 H 0.80049 0.48305 0.81235 0.0
H686 H 0.88508 0.49502 0.84739 0.0
H687 H 0.92086 0.51666 0.87402 0.0
H688 H 0.91275 0.5775 0.8032 0.0
H689 H 0.87669 0.55639 0.77644 0.0
C690 C 0.84651 0.45839 0.65942 0.0
C691 C 0.84118 0.47732 0.63557 0.0
C692 C 0.84563 0.46347 0.69449 0.0
C693 C 0.83992 0.48764 0.70608 0.0
C694 C 0.83532 0.50672 0.68234 0.0
C695 C 0.83563 0.50153 0.64734 0.0
C696 C 0.8379 0.49288 0.74305 0.0
C697 C 0.85692 0.5066 0.75898 0.0
C698 C 0.81758 0.48393 0.76258 0.0
C699 C 0.79719 0.46905 0.74688 0.0
C700 C 0.78262 0.47902 0.72021 0.0
C701 C 0.7638 0.46464 0.70507 0.0
C702 C 0.75922 0.44033 0.71659 0.0
C703 C 0.7734 0.43039 0.74337 0.0
C704 C 0.79229 0.44468 0.75855 0.0
C705 C 0.83459 0.53957 0.89745 0.0
C706 C 0.82857 0.52072 0.92103 0.0
C707 C 0.83614 0.53411 0.86255 0.0
C708 C 0.83262 0.50951 0.85073 0.0
C709 C 0.82628 0.49075 0.87436 0.0
C710 C 0.82405 0.49635 0.90914 0.0
C711 C 0.83541 0.50333 0.81378 0.0
C712 C 0.81651 0.48934 0.79766 0.0
C713 C 0.85623 0.51153 0.79425 0.0
C714 C 0.87803 0.52422 0.81012 0.0
C715 C 0.89083 0.51309 0.83763 0.0
C716 C 0.91117 0.52525 0.85274 0.0
C717 C 0.91904 0.54847 0.84036 0.0
C718 C 0.90662 0.55953 0.81279 0.0
C719 C 0.88624 0.54747 0.79762 0.0
H720 H 0.93478 0.55786 0.8521 0.0
H721 H 0.74465 0.42921 0.70482 0.0
H722 H 0.56018 0.84754 0.15025 0.0
H723 H 0.55064 0.84799 0.21169 0.0
H724 H 0.47362 0.83026 0.18981 0.0
H725 H 0.48308 0.82911 0.12849 0.0
H726 H 0.48526 0.87306 0.23983 0.0
H727 H 0.50188 0.78542 0.21401 0.0
H728 H 0.5279 0.75148 0.19038 0.0
H729 H 0.58779 0.77165 0.2582 0.0
H730 H 0.56223 0.806 0.28183 0.0
H731 H 0.43993 0.84398 0.40471 0.0
H732 H 0.44935 0.84442 0.34348 0.0
H733 H 0.52724 0.8304 0.36569 0.0
H734 H 0.51756 0.82844 0.42671 0.0
H735 H 0.51603 0.80454 0.31438 0.0
H736 H 0.50252 0.89046 0.34193 0.0
H737 H 0.48017 0.92703 0.36525 0.0
H738 H 0.41955 0.91433 0.2953 0.0
H739 H 0.4414 0.87747 0.27186 0.0
C740 C 0.5412 0.84385 0.15856 0.0
C741 C 0.52237 0.83823 0.1347 0.0
C742 C 0.53582 0.84409 0.19356 0.0
C743 C 0.51146 0.83917 0.20505 0.0
C744 C 0.49251 0.83415 0.18127 0.0
C745 C 0.49797 0.83338 0.14636 0.0
C746 C 0.50586 0.83857 0.24201 0.0
C747 C 0.49169 0.858 0.25622 0.0
C748 C 0.51505 0.81931 0.26326 0.0
C749 C 0.53025 0.79844 0.24941 0.0
C750 C 0.52068 0.78276 0.22366 0.0
C751 C 0.53533 0.76342 0.21031 0.0
C752 C 0.55951 0.75945 0.22271 0.0
C753 C 0.56907 0.77477 0.24858 0.0
C754 C 0.5545 0.79416 0.26197 0.0
C755 C 0.45904 0.84098 0.39643 0.0
C756 C 0.47804 0.83626 0.42035 0.0
C757 C 0.46446 0.8414 0.36145 0.0
C758 C 0.48913 0.83797 0.34986 0.0
C759 C 0.50807 0.8331 0.37387 0.0
C760 C 0.50254 0.83204 0.40875 0.0
C761 C 0.49521 0.83913 0.31275 0.0
C762 C 0.50953 0.81976 0.29832 0.0
C763 C 0.48665 0.85883 0.29145 0.0
C764 C 0.4735 0.88106 0.30536 0.0
C765 C 0.48435 0.89536 0.33168 0.0
C766 C 0.47178 0.91616 0.34489 0.0
C767 C 0.44843 0.92296 0.33182 0.0
C768 C 0.43763 0.90902 0.30543 0.0
C769 C 0.45011 0.88819 0.29214 0.0
H770 H 0.43872 0.93907 0.34209 0.0
H771 H 0.57083 0.74448 0.21234 0.0
H772 H 0.14357 0.44258 0.90344 0.0
H773 H 0.14532 0.44927 0.84156 0.0
H774 H 0.18971 0.51569 0.85725 0.0
H775 H 0.18857 0.50882 0.91895 0.0
H776 H 0.12875 0.48554 0.80229 0.0
H777 H 0.23019 0.52356 0.79214 0.0
H778 H 0.27073 0.51862 0.82149 0.0
H779 H 0.24919 0.44533 0.85533 0.0
H780 H 0.20868 0.44968 0.82578 0.0
H781 H 0.14619 0.54788 0.64451 0.0
H782 H 0.14544 0.53685 0.70519 0.0
H783 H 0.19474 0.47463 0.6854 0.0
H784 H 0.19595 0.48576 0.62481 0.0
H785 H 0.20906 0.49853 0.74118 0.0
H786 H 0.13235 0.46538 0.6983 0.0
H787 H 0.09198 0.46624 0.66783 0.0
H788 H 0.06446 0.52169 0.73784 0.0
H789 H 0.10482 0.52143 0.76845 0.0
C790 C 0.15377 0.45857 0.89369 0.0
C791 C 0.16601 0.47512 0.91608 0.0
C792 C 0.1547 0.4624 0.85834 0.0
C793 C 0.16787 0.48282 0.84474 0.0
C794 C 0.17984 0.49953 0.8671 0.0
C795 C 0.17909 0.49562 0.90239 0.0
C796 C 0.16886 0.48687 0.8072 0.0
C797 C 0.14631 0.48834 0.78893 0.0
C798 C 0.1918 0.49005 0.78961 0.0
C799 C 0.2163 0.48706 0.80699 0.0
C800 C 0.23415 0.50635 0.8057 0.0
C801 C 0.25712 0.50366 0.8224 0.0
C802 C 0.2625 0.48171 0.84035 0.0
C803 C 0.24497 0.46236 0.84152 0.0
C804 C 0.22199 0.46494 0.82483 0.0
C805 C 0.15685 0.53183 0.65304 0.0
C806 C 0.17103 0.51762 0.6298 0.0
C807 C 0.15634 0.5255 0.68772 0.0
C808 C 0.16979 0.50473 0.69975 0.0
C809 C 0.18421 0.49071 0.67667 0.0
C810 C 0.18482 0.49707 0.64202 0.0
C811 C 0.16893 0.49768 0.73644 0.0
C812 C 0.1915 0.49568 0.75455 0.0
C813 C 0.14604 0.49341 0.7537 0.0
C814 C 0.12169 0.49354 0.73548 0.0
C815 C 0.11775 0.47789 0.70705 0.0
C816 C 0.09486 0.47825 0.68978 0.0
C817 C 0.07568 0.49405 0.70084 0.0
C818 C 0.07934 0.50948 0.72927 0.0
C819 C 0.10221 0.50922 0.74661 0.0
H820 H 0.05797 0.4943 0.68744 0.0
H821 H 0.28028 0.47968 0.8533 0.0
H822 H 0.51964 0.20605 0.41441 0.0
H823 H 0.51153 0.2047 0.35293 0.0
H824 H 0.51548 0.12403 0.35518 0.0
H825 H 0.52537 0.12553 0.41632 0.0
H826 H 0.53493 0.1377 0.29986 0.0
H827 H 0.45798 0.15908 0.3533 0.0
H828 H 0.42953 0.18247 0.39129 0.0
H829 H 0.44282 0.24951 0.33364 0.0
H830 H 0.47168 0.22661 0.29561 0.0
H831 H 0.4669 0.12594 0.14111 0.0
H832 H 0.47625 0.12519 0.20254 0.0
H833 H 0.50014 0.20212 0.19771 0.0
H834 H 0.49135 0.20291 0.13619 0.0
H835 H 0.46489 0.18836 0.25363 0.0
H836 H 0.54322 0.16269 0.20029 0.0
H837 H 0.56798 0.13558 0.16208 0.0
H838 H 0.54628 0.07111 0.22045 0.0
H839 H 0.52105 0.09782 0.25871 0.0
C840 C 0.51891 0.18806 0.40166 0.0
C841 C 0.52295 0.16589 0.42005 0.0
C842 C 0.51408 0.18726 0.36656 0.0
C843 C 0.51213 0.16422 0.34939 0.0
C844 C 0.51675 0.14206 0.36771 0.0
C845 C 0.52235 0.14291 0.40267 0.0
C846 C 0.50508 0.16329 0.31249 0.0
C847 C 0.51938 0.14854 0.28999 0.0
C848 C 0.48477 0.17737 0.29924 0.0
C849 C 0.46717 0.19117 0.32178 0.0
C850 C 0.45495 0.17885 0.34884 0.0
C851 C 0.43874 0.19201 0.37038 0.0
C852 C 0.43441 0.21747 0.36492 0.0
C853 C 0.44622 0.22979 0.33785 0.0
C854 C 0.46249 0.21673 0.31628 0.0
C855 C 0.47408 0.14271 0.15316 0.0
C856 C 0.47844 0.16448 0.13388 0.0
C857 C 0.47945 0.14222 0.18818 0.0
C858 C 0.48889 0.16359 0.20452 0.0
C859 C 0.49284 0.18547 0.18548 0.0
C860 C 0.48791 0.18584 0.15037 0.0
C861 C 0.49492 0.16314 0.24147 0.0
C862 C 0.48036 0.17754 0.26383 0.0
C863 C 0.51444 0.14818 0.2547 0.0
C864 C 0.53007 0.13223 0.23217 0.0
C865 C 0.54359 0.14272 0.20484 0.0
C866 C 0.55773 0.12742 0.1832 0.0
C867 C 0.55866 0.10163 0.1888 0.0
C868 C 0.54554 0.0911 0.21615 0.0
C869 C 0.53133 0.1063 0.23783 0.0
H870 H 0.56957 0.08982 0.17197 0.0
H871 H 0.42187 0.22763 0.38164 0.0
H872 H 0.90306 0.54839 0.08304 0.0
H873 H 0.94713 0.53658 0.08181 0.0
H874 H 0.93205 0.48415 0.00038 0.0
H875 H 0.88768 0.49507 0.00259 0.0
H876 H 0.96385 0.46418 0.04075 0.0
H877 H 0.95839 0.54307 0.98571 0.0
H878 H 0.94614 0.58726 0.97912 0.0
H879 H 0.9912 0.60709 0.06594 0.0
H880 H 0.00337 0.56292 0.07343 0.0
H881 H 0.10284 0.49867 0.99611 0.0
H882 H 0.05827 0.50869 0.99495 0.0
H883 H 0.04647 0.46177 0.08339 0.0
H884 H 0.09078 0.45073 0.08358 0.0
H885 H 0.02793 0.53112 0.03402 0.0
H886 H 0.98974 0.43549 0.0829 0.0
H887 H 0.00166 0.39094 0.08094 0.0
H888 H 0.0438 0.40389 0.9891 0.0
H889 H 0.03177 0.4484 0.99016 0.0
C890 C 0.9091 0.53426 0.06496 0.0
C891 C 0.89191 0.52275 0.04279 0.0
C892 C 0.93435 0.5276 0.06417 0.0
C893 C 0.94307 0.50982 0.04052 0.0
C894 C 0.92582 0.49793 0.01883 0.0
C895 C 0.90046 0.50423 0.02007 0.0
C896 C 0.9702 0.50393 0.03811 0.0
C897 C 0.97785 0.47882 0.03925 0.0
C898 C 0.98851 0.52295 0.03507 0.0
C899 C 0.98163 0.54964 0.0303 0.0
C900 C 0.96558 0.55683 0.00351 0.0
C901 C 0.95865 0.58187 -0.00038 0.0
C902 C 0.96785 0.59996 0.02214 0.0
C903 C 0.98407 0.59305 0.04854 0.0
C904 C 0.991 0.56801 0.05261 0.0
C905 C 0.09073 0.49049 0.01531 0.0
C906 C 0.10028 0.47376 0.03979 0.0
C907 C 0.06525 0.49628 0.01467 0.0
C908 C 0.04885 0.48571 0.03874 0.0
C909 C 0.05856 0.46967 0.06395 0.0
C910 C 0.08394 0.46346 0.06417 0.0
C911 C 0.02162 0.49138 0.03737 0.0
C912 C 0.01394 0.51646 0.03546 0.0
C913 C 0.00326 0.47226 0.0382 0.0
C914 C 0.01003 0.44535 0.03683 0.0
C915 C 0.00141 0.4288 0.06217 0.0
C916 C 0.00821 0.40356 0.06123 0.0
C917 C 0.02354 0.39461 0.03497 0.0
C918 C 0.03198 0.41086 0.00948 0.0
C919 C 0.02518 0.4361 0.01024 0.0
H920 H 0.02883 0.37508 0.03435 0.0
H921 H 0.96245 0.61934 0.0191 0.0
H922 H 0.5084 0.89647 0.51768 0.0
H923 H 0.51951 0.94076 0.51953 0.0
H924 H 0.44883 0.95767 0.56743 0.0
H925 H 0.43755 0.91344 0.56597 0.0
H926 H 0.49772 0.98199 0.49136 0.0
H927 H 0.45857 0.0044 0.6258 0.0
H928 H 0.45036 0.98277 0.68043 0.0
H929 H 0.5085 0.92981 0.65818 0.0
H930 H 0.5173 0.95133 0.60368 0.0
H931 H 0.49063 0.11302 0.51601 0.0
H932 H 0.47946 0.06872 0.51668 0.0
H933 H 0.54258 0.05305 0.58192 0.0
H934 H 0.55396 0.09731 0.58154 0.0
H935 H 0.49971 0.02769 0.60193 0.0
H936 H 0.54792 0.04185 0.50015 0.0
H937 H 0.55815 0.06372 0.44641 0.0
H938 H 0.48715 0.04238 0.40419 0.0
H939 H 0.47629 0.02075 0.45796 0.0
C940 C 0.49516 0.90956 0.52861 0.0
C941 C 0.4721 0.9013 0.54181 0.0
C942 C 0.50153 0.9349 0.5295 0.0
C943 C 0.48509 0.95246 0.54384 0.0
C944 C 0.46193 0.94437 0.5566 0.0
C945 C 0.45549 0.91906 0.55566 0.0
C946 C 0.49232 0.9792 0.54587 0.0
C947 C 0.49812 0.99198 0.51552 0.0
C948 C 0.49319 0.99214 0.57746 0.0
C949 C 0.48841 0.97935 0.61051 0.0
C950 C 0.46967 0.98821 0.63265 0.0
C951 C 0.46491 0.97596 0.66358 0.0
C952 C 0.47884 0.95489 0.67272 0.0
C953 C 0.49766 0.94608 0.65102 0.0
C954 C 0.50252 0.95828 0.62009 0.0
C955 C 0.50206 0.10024 0.53076 0.0
C956 C 0.52331 0.10875 0.54854 0.0
C957 C 0.49566 0.07491 0.53102 0.0
C958 C 0.51033 0.05762 0.5491 0.0
C959 C 0.53104 0.06612 0.5678 0.0
C960 C 0.53755 0.09142 0.5674 0.0
C961 C 0.50466 0.03053 0.54739 0.0
C962 C 0.4992 0.01769 0.57778 0.0
C963 C 0.50446 0.01745 0.5159 0.0
C964 C 0.5112 0.02987 0.48321 0.0
C965 C 0.53442 0.04194 0.47948 0.0
C966 C 0.54034 0.0543 0.44902 0.0
C967 C 0.52328 0.0545 0.42193 0.0
C968 C 0.50032 0.04224 0.42522 0.0
C969 C 0.49428 0.02991 0.45568 0.0
H970 H 0.52787 0.06412 0.39839 0.0
H971 H 0.4751 0.94541 0.69665 0.0
H972 H 0.11669 0.48685 0.5074 0.0
H973 H 0.07266 0.47436 0.50604 0.0
H974 H 0.05043 0.55185 0.50678 0.0
H975 H 0.0943 0.56459 0.50753 0.0
H976 H 0.02532 0.52093 0.55592 0.0
H977 H 0.04516 0.52267 0.43541 0.0
H978 H 0.06902 0.5115 0.38361 0.0
H979 H 0.05293 0.43379 0.40037 0.0
H980 H 0.02914 0.4445 0.45249 0.0
H981 H 0.8967 0.5099 0.52072 0.0
H982 H 0.94087 0.52109 0.51874 0.0
H983 H 0.96013 0.44425 0.49777 0.0
H984 H 0.91587 0.43298 0.49856 0.0
H985 H 0.9875 0.47368 0.45965 0.0
H986 H 0.96731 0.47042 0.57844 0.0
H987 H 0.94337 0.48003 0.63075 0.0
H988 H 0.96117 0.55793 0.6199 0.0
H989 H 0.9849 0.54884 0.5672 0.0
C990 C 0.10246 0.50127 0.5072 0.0
C991 C 0.10908 0.52675 0.50774 0.0
C992 C 0.07732 0.49408 0.50632 0.0
C993 C 0.05835 0.5122 0.50629 0.0
C994 C 0.06483 0.5376 0.50685 0.0
C995 C 0.08995 0.54483 0.50722 0.0
C996 C 0.03168 0.50469 0.50629 0.0
C997 C 0.01692 0.51087 0.53472 0.0
C998 C 0.02105 0.49086 0.47911 0.0
C999 C 0.03557 0.48437 0.44802 0.0
C1000 C 0.04691 0.50318 0.42823 0.0
C1001 C 0.06035 0.49694 0.39876 0.0
C1002 C 0.0625 0.47195 0.38873 0.0
C1003 C 0.05124 0.45314 0.40818 0.0
C1004 C 0.03774 0.45929 0.43765 0.0
C1005 C 0.91028 0.49533 0.51565 0.0
C1006 C 0.90267 0.47046 0.51017 0.0
C1007 C 0.93559 0.50176 0.51468 0.0
C1008 C 0.95391 0.48343 0.50878 0.0
C1009 C 0.94636 0.4587 0.50253 0.0
C1010 C 0.92101 0.45228 0.50314 0.0
C1011 C 0.98091 0.49009 0.50924 0.0
C1012 C 0.99581 0.48369 0.48095 0.0
C1013 C 0.99179 0.50343 0.53683 0.0
C1014 C 0.97769 0.50897 0.56868 0.0
C1015 C 0.96597 0.48963 0.58707 0.0
C1016 C 0.95246 0.49498 0.61681 0.0
C1017 C 0.9507 0.51959 0.6286 0.0
C1018 C 0.96252 0.53888 0.61071 0.0
C1019 C 0.97602 0.53364 0.58092 0.0
H1020 H 0.94023 0.52369 0.65163 0.0
H1021 H 0.07283 0.46716 0.36583 0.0
H1022 H 0.49097 0.89303 0.00796 0.0
H1023 H 0.48038 0.93753 0.006 0.0
H1024 H 0.55843 0.95661 0.0149 0.0
H1025 H 0.56932 0.91216 0.01605 0.0
H1026 H 0.52304 0.98333 0.06133 0.0
H1027 H 0.53827 0.96512 0.94238 0.0
H1028 H 0.53359 0.94146 0.88866 0.0
H1029 H 0.45444 0.95513 0.88965 0.0
H1030 H 0.45869 0.97888 0.94353 0.0
H1031 H 0.5126 0.11253 0.02446 0.0
H1032 H 0.52566 0.0688 0.02363 0.0
H1033 H 0.45164 0.04676 0.99173 0.0
H1034 H 0.4385 0.09046 0.99171 0.0
H1035 H 0.48616 0.02138 0.95704 0.0
H1036 H 0.47047 0.04065 0.07474 0.0
H1037 H 0.47471 0.0652 0.12784 0.0
H1038 H 0.55335 0.0491 0.1307 0.0
H1039 H 0.54966 0.02477 0.07722 0.0
C1040 C 0.50591 0.90666 0.0095 0.0
C1041 C 0.53101 0.89901 0.0122 0.0
C1042 C 0.49981 0.93206 0.00833 0.0
C1043 C 0.51864 0.95027 0.01036 0.0
C1044 C 0.54366 0.94278 0.0134 0.0
C1045 C 0.54984 0.91737 0.01392 0.0
C1046 C 0.51209 0.97714 0.009 0.0
C1047 C 0.51531 0.99181 0.03844 0.0
C1048 C 0.50146 0.9879 0.97937 0.0
C1049 C 0.49876 0.97353 0.94714 0.0
C1050 C 0.51984 0.96289 0.93131 0.0
C1051 C 0.51727 0.94952 0.90078 0.0
C1052 C 0.4937 0.94667 0.88582 0.0
C1053 C 0.47267 0.9573 0.9013 0.0
C1054 C 0.47516 0.97078 0.93179 0.0
C1055 C 0.49907 0.09843 0.01715 0.0
C1056 C 0.4744 0.10507 0.00845 0.0
C1057 C 0.50657 0.0734 0.01682 0.0
C1058 C 0.48952 0.05447 0.00815 0.0
C1059 C 0.46509 0.06106 0.99862 0.0
C1060 C 0.45759 0.08609 0.99875 0.0
C1061 C 0.49703 0.02775 0.00943 0.0
C1062 C 0.49394 0.01303 0.97999 0.0
C1063 C 0.50761 0.01693 0.0392 0.0
C1064 C 0.50983 0.03108 0.07177 0.0
C1065 C 0.4887 0.04246 0.08656 0.0
C1066 C 0.491 0.05633 0.11673 0.0
C1067 C 0.51429 0.05875 0.13258 0.0
C1068 C 0.53532 0.04722 0.11835 0.0
C1069 C 0.53314 0.03338 0.08812 0.0
H1070 H 0.51601 0.06951 0.15591 0.0
H1071 H 0.49175 0.93631 0.86217 0.0
H1072 H 0.21108 0.35702 0.0481 0.0
H1073 H 0.24399 0.32601 0.03936 0.0
H1074 H 0.2998 0.38415 0.04392 0.0
H1075 H 0.26692 0.41544 0.05238 0.0
H1076 H 0.30802 0.35202 0.99068 0.0
H1077 H 0.29174 0.34556 0.11102 0.0
H1078 H 0.26556 0.34054 0.16251 0.0
H1079 H 0.24169 0.26831 0.12729 0.0
H1080 H 0.26746 0.27305 0.07532 0.0
H1081 H 0.41226 0.26956 0.0044 0.0
H1082 H 0.38106 0.30222 0.01411 0.0
H1083 H 0.32278 0.24643 0.01614 0.0
H1084 H 0.3539 0.21363 0.0071 0.0
H1085 H 0.31681 0.27847 0.06712 0.0
H1086 H 0.33189 0.28497 0.94635 0.0
H1087 H 0.35771 0.28963 0.89445 0.0
H1088 H 0.3833 0.36126 0.92966 0.0
H1089 H 0.3579 0.35687 0.98204 0.0
C1090 C 0.23035 0.36325 0.0474 0.0
C1091 C 0.23637 0.38871 0.05114 0.0
C1092 C 0.24916 0.34546 0.04249 0.0
C1093 C 0.27438 0.35272 0.04132 0.0
C1094 C 0.28046 0.37814 0.04482 0.0
C1095 C 0.26165 0.39597 0.04984 0.0
C1096 C 0.29431 0.33376 0.03607 0.0
C1097 C 0.31022 0.33612 0.00767 0.0
C1098 C 0.29678 0.31273 0.0578 0.0
C1099 C 0.28136 0.30976 0.08913 0.0
C1100 C 0.28076 0.32869 0.11412 0.0
C1101 C 0.26602 0.32588 0.14342 0.0
C1102 C 0.25193 0.30415 0.14813 0.0
C1103 C 0.2526 0.28515 0.12359 0.0
C1104 C 0.26729 0.28787 0.09423 0.0
C1105 C 0.39278 0.26424 0.00668 0.0
C1106 C 0.38556 0.23899 0.00482 0.0
C1107 C 0.37495 0.28296 0.01216 0.0
C1108 C 0.34951 0.27682 0.0155 0.0
C1109 C 0.34228 0.25162 0.01365 0.0
C1110 C 0.3601 0.23289 0.00835 0.0
C1111 C 0.33045 0.29658 0.02155 0.0
C1112 C 0.3147 0.29438 0.05014 0.0
C1113 C 0.32807 0.31769 -0.0001 0.0
C1114 C 0.34318 0.32048 0.96828 0.0
C1115 C 0.34316 0.30164 0.94315 0.0
C1116 C 0.3577 0.30424 0.91363 0.0
C1117 C 0.37219 0.32569 0.90881 0.0
C1118 C 0.3721 0.34463 0.93345 0.0
C1119 C 0.35762 0.34211 0.96305 0.0
H1120 H 0.38345 0.32766 0.88594 0.0
H1121 H 0.24052 0.30201 0.17083 0.0
H1122 H 0.73448 0.41615 0.5029 0.0
H1123 H 0.70059 0.38603 0.51152 0.0
H1124 H 0.75449 0.32622 0.51842 0.0
H1125 H 0.78842 0.35607 0.50946 0.0
H1126 H 0.71481 0.3131 0.47915 0.0
H1127 H 0.72835 0.35049 0.58974 0.0
H1128 H 0.73228 0.38574 0.63009 0.0
H1129 H 0.65678 0.40801 0.60829 0.0
H1130 H 0.65253 0.37308 0.56739 0.0
H1131 H 0.64253 0.21784 0.55417 0.0
H1132 H 0.67402 0.25011 0.54453 0.0
H1133 H 0.61621 0.30633 0.54101 0.0
H1134 H 0.58451 0.27414 0.55123 0.0
H1135 H 0.65626 0.32263 0.57684 0.0
H1136 H 0.64212 0.28431 0.46781 0.0
H1137 H 0.6382 0.24907 0.42746 0.0
H1138 H 0.71472 0.22875 0.44587 0.0
H1139 H 0.71898 0.26365 0.48677 0.0
C1140 C 0.73912 0.39657 0.50605 0.0
C1141 C 0.76417 0.38853 0.50556 0.0
C1142 C 0.71973 0.3794 0.51113 0.0
C1143 C 0.72503 0.35391 0.51594 0.0
C1144 C 0.74997 0.34579 0.51477 0.0
C1145 C 0.76935 0.36292 0.50976 0.0
C1146 C 0.70469 0.33566 0.52265 0.0
C1147 C 0.70217 0.31504 0.50071 0.0
C1148 C 0.68782 0.33853 0.55031 0.0
C1149 C 0.69021 0.35932 0.57525 0.0
C1150 C 0.71264 0.363 0.59337 0.0
C1151 C 0.71492 0.38291 0.61636 0.0
C1152 C 0.69482 0.39914 0.62167 0.0
C1153 C 0.67236 0.39544 0.6041 0.0
C1154 C 0.66999 0.37558 0.58103 0.0
C1155 C 0.63647 0.23707 0.5515 0.0
C1156 C 0.61097 0.24339 0.55331 0.0
C1157 C 0.65451 0.2555 0.54587 0.0
C1158 C 0.64744 0.28059 0.54152 0.0
C1159 C 0.62208 0.28708 0.5442 0.0
C1160 C 0.60399 0.26864 0.55 0.0
C1161 C 0.66654 0.29991 0.53353 0.0
C1162 C 0.66881 0.32074 0.55519 0.0
C1163 C 0.68319 0.29726 0.50557 0.0
C1164 C 0.6808 0.27648 0.48058 0.0
C1165 C 0.65807 0.27224 0.46342 0.0
C1166 C 0.65579 0.25233 0.44044 0.0
C1167 C 0.67618 0.23665 0.43417 0.0
C1168 C 0.69893 0.2409 0.45078 0.0
C1169 C 0.7013 0.26076 0.47385 0.0
H1170 H 0.67438 0.22123 0.41638 0.0
H1171 H 0.69662 0.41456 0.63946 0.0
H1172 H 0.72688 0.5834 0.06627 0.0
H1173 H 0.69365 0.61423 0.05777 0.0
H1174 H 0.74899 0.67129 0.03885 0.0
H1175 H 0.7823 0.64075 0.04787 0.0
H1176 H 0.7118 0.68868 0.07901 0.0
H1177 H 0.71837 0.64225 0.97323 0.0
H1178 H 0.71879 0.60357 0.93886 0.0
H1179 H 0.6438 0.58702 0.97103 0.0
H1180 H 0.64309 0.62543 0.00604 0.0
H1181 H 0.64243 0.78188 0.99717 0.0
H1182 H 0.6721 0.74817 0.00799 0.0
H1183 H 0.61102 0.69657 0.02274 0.0
H1184 H 0.58106 0.73024 0.0111 0.0
H1185 H 0.6487 0.67478 0.98781 0.0
H1186 H 0.6409 0.72214 0.09095 0.0
H1187 H 0.64017 0.76068 0.12561 0.0
H1188 H 0.71688 0.77505 0.09971 0.0
H1189 H 0.71794 0.73682 0.06437 0.0
C1190 C 0.732 0.60255 0.06055 0.0
C1191 C 0.75726 0.60959 0.05764 0.0
C1192 C 0.71297 0.62013 0.05556 0.0
C1193 C 0.71883 0.64501 0.04726 0.0
C1194 C 0.74403 0.6522 0.0452 0.0
C1195 C 0.76305 0.63468 0.05027 0.0
C1196 C 0.69881 0.66349 0.03985 0.0
C1197 C 0.69815 0.68575 0.05887 0.0
C1198 C 0.68056 0.65936 0.01419 0.0
C1199 C 0.68076 0.63659 0.99251 0.0
C1200 C 0.70202 0.63029 0.97312 0.0
C1201 C 0.70231 0.60842 0.95352 0.0
C1202 C 0.68136 0.59281 0.95283 0.0
C1203 C 0.66003 0.59911 0.97163 0.0
C1204 C 0.65966 0.62093 0.99133 0.0
C1205 C 0.63526 0.76333 0.00246 0.0
C1206 C 0.60938 0.75877 0.00354 0.0
C1207 C 0.65226 0.74408 0.00876 0.0
C1208 C 0.64378 0.71995 0.01688 0.0
C1209 C 0.61797 0.71508 0.01669 0.0
C1210 C 0.60089 0.73433 0.01005 0.0
C1211 C 0.66195 0.70016 0.0266 0.0
C1212 C 0.66224 0.67766 0.0081 0.0
C1213 C 0.67981 0.704 0.05286 0.0
C1214 C 0.67944 0.72669 0.0748 0.0
C1215 C 0.65758 0.73358 0.0925 0.0
C1216 C 0.6571 0.75538 0.11226 0.0
C1217 C 0.67845 0.77032 0.11481 0.0
C1218 C 0.70035 0.76346 0.09769 0.0
C1219 C 0.70091 0.74171 0.07781 0.0
H1220 H 0.67804 0.78721 0.13008 0.0
H1221 H 0.68164 0.57586 0.93769 0.0
H1222 H 0.41985 0.7331 0.55782 0.0
H1223 H 0.39001 0.69891 0.54936 0.0
H1224 H 0.32937 0.75206 0.54632 0.0
H1225 H 0.35894 0.78626 0.55502 0.0
H1226 H 0.31759 0.71086 0.58447 0.0
H1227 H 0.35305 0.72874 0.47347 0.0
H1228 H 0.38779 0.73425 0.43265 0.0
H1229 H 0.41083 0.65828 0.44924 0.0
H1230 H 0.37643 0.65244 0.4906 0.0
H1231 H 0.22059 0.64409 0.50592 0.0
H1232 H 0.25376 0.67423 0.51746 0.0
H1233 H 0.30856 0.61508 0.51406 0.0
H1234 H 0.27542 0.58471 0.50186 0.0
H1235 H 0.32547 0.65658 0.48198 0.0
H1236 H 0.28841 0.63761 0.59008 0.0
H1237 H 0.25366 0.63193 0.63082 0.0
H1238 H 0.234 0.70943 0.62059 0.0
H1239 H 0.26838 0.71549 0.5793 0.0
C1240 C 0.40014 0.73749 0.55566 0.0
C1241 C 0.39178 0.76242 0.55699 0.0
C1242 C 0.38313 0.71794 0.55068 0.0
C1243 C 0.3575 0.72298 0.54689 0.0
C1244 C 0.34906 0.74776 0.54918 0.0
C1245 C 0.36602 0.7673 0.55403 0.0
C1246 C 0.33942 0.7026 0.53957 0.0
C1247 C 0.31919 0.69912 0.56194 0.0
C1248 C 0.34189 0.68686 0.51063 0.0
C1249 C 0.36234 0.69023 0.48539 0.0
C1250 C 0.36563 0.71326 0.4686 0.0
C1251 C 0.38525 0.71644 0.44534 0.0
C1252 C 0.40155 0.69665 0.43843 0.0
C1253 C 0.39821 0.67361 0.45467 0.0
C1254 C 0.37865 0.67035 0.478 0.0
C1255 C 0.2397 0.63745 0.50743 0.0
C1256 C 0.24534 0.61196 0.50315 0.0
C1257 C 0.25864 0.65472 0.51417 0.0
C1258 C 0.2836 0.64685 0.51724 0.0
C1259 C 0.28942 0.62154 0.51193 0.0
C1260 C 0.27046 0.60422 0.50499 0.0
C1261 C 0.3034 0.66508 0.52662 0.0
C1262 C 0.32397 0.66815 0.50469 0.0
C1263 C 0.30129 0.68041 0.55606 0.0
C1264 C 0.28087 0.67696 0.58138 0.0
C1265 C 0.27659 0.65342 0.59635 0.0
C1266 C 0.25696 0.65013 0.61955 0.0
C1267 C 0.2416 0.67029 0.62823 0.0
C1268 C 0.2459 0.69382 0.61381 0.0
C1269 C 0.26547 0.69719 0.59053 0.0
H1270 H 0.2264 0.6677 0.64618 0.0
H1271 H 0.41673 0.69915 0.42044 0.0
loop_
_geom_bond_atom_site_label_1
_geom_bond_atom_site_label_2
_geom_bond_distance
_geom_bond_site_symmetry_2
_ccdc_geom_bond_type
Co0 O2 2.143 . S
Co0 O8 2.074 . S
Co0 O11 2.093 1_554 S
Co0 O24 2.097 . S
Co0 N41 2.151 . S
Co0 N49 2.214 . S
Co1 O2 2.160 . S
Co1 O7 2.058 . S
Co1 O17 2.057 . S
Co1 O32 2.037 . S
Co1 N36 2.145 . S
Co1 N57 2.257 . S
O2 Co0 2.143 . S
O2 Co1 2.160 . S
C3 O4 1.278 . S
C3 O11 1.224 . S
O4 C3 1.278 . S
C5 O6 1.245 . S
C5 O17 1.232 . S
O6 C5 1.245 . S
O7 Co1 2.058 . S
O7 C33 1.269 . S
O8 Co0 2.074 . S
O8 C33 1.257 . S
H9 C34 0.930 . S
H10 C40 0.930 1_556 S
O11 Co0 2.093 1_556 S
O11 C3 1.224 . S
H12 C44 0.929 . S
H13 C46 0.930 . S
H14 C47 0.930 . S
H15 C45 0.929 . S
H16 C48 0.928 1_556 S
O17 Co1 2.057 . S
O17 C5 1.232 . S
H18 C37 0.929 . S
H19 C38 0.929 . S
H20 C50 0.931 . S
H21 C42 0.929 1_556 S
H22 C51 0.930 . S
H23 C43 0.931 . S
O24 Co0 2.097 . S
O24 C52 1.214 . S
H25 C53 0.929 . S
H26 C54 0.929 . S
H27 C55 0.930 . S
H28 C56 0.929 . S
H29 C58 0.930 . S
H30 C35 0.930 . S
H31 C39 0.930 . S
O32 Co1 2.037 . S
O32 C52 1.234 . S
C33 O7 1.269 . S
C33 O8 1.257 . S
C34 H9 0.930 . S
C34 C37 1.388 . S
C34 C39 1.418 . S
C35 H30 0.930 . S
C35 C38 1.404 . S
C35 C39 1.353 . S
N36 Co1 2.145 . S
N36 C37 1.397 . S
N36 C38 1.334 . S
C37 H18 0.929 . S
C37 C34 1.388 . S
C37 N36 1.397 . S
C38 H19 0.929 . S
C38 C35 1.404 . S
C38 N36 1.334 . S
C39 H31 0.930 . S
C39 C34 1.418 . S
C39 C35 1.353 . S
C40 H10 0.930 1_554 S
C40 N41 1.330 . S
C40 C42 1.446 . S
N41 Co0 2.151 . S
N41 C40 1.330 . S
N41 C45 1.418 . S
C42 H21 0.929 1_554 S
C42 C40 1.446 . S
C42 C43 1.332 . S
C43 H23 0.931 . S
C43 C42 1.332 . S
C43 C44 1.267 . S
C44 H12 0.929 . S
C44 C43 1.267 . S
C44 C45 1.251 . S
C45 H15 0.929 . S
C45 N41 1.418 . S
C45 C44 1.251 . S
C46 H13 0.930 . S
C46 C48 1.406 . S
C46 C51 1.261 . S
C47 H14 0.930 . S
C47 N49 1.325 . S
C47 C50 1.357 . S
C48 H16 0.928 1_554 S
C48 C46 1.406 . S
C48 N49 1.261 . S
N49 Co0 2.214 . S
N49 C47 1.325 . S
N49 C48 1.261 . S
C50 H20 0.931 . S
C50 C47 1.357 . S
C50 C51 1.312 . S
C51 H22 0.930 . S
C51 C46 1.261 . S
C51 C50 1.312 . S
C52 O24 1.214 . S
C52 O32 1.234 . S
C53 H25 0.929 . S
C53 C56 1.391 . S
C53 C58 1.391 . S
C54 H26 0.929 . S
C54 C55 1.390 1_554 S
C54 N57 1.391 . S
C55 H27 0.930 . S
C55 C54 1.390 1_556 S
C55 C56 1.392 . S
C56 H28 0.929 . S
C56 C53 1.391 . S
C56 C55 1.392 . S
N57 Co1 2.257 . S
N57 C54 1.391 . S
N57 C58 1.388 1_554 S
C58 H29 0.930 . S
C58 C53 1.391 . S
C58 N57 1.388 1_556 S
Co59 O61 2.143 . S
Co59 O67 2.074 . S
Co59 O70 2.093 . S
Co59 O83 2.097 . S
Co59 N100 2.151 . S
Co59 N108 2.214 . S
Co60 O61 2.160 . S
Co60 O66 2.058 . S
Co60 O76 2.057 . S
Co60 O91 2.037 . S
Co60 N95 2.145 . S
Co60 N116 2.257 . S
O61 Co59 2.143 . S
O61 Co60 2.160 . S
C62 O63 1.278 . S
C62 O70 1.224 . S
O63 C62 1.278 . S
C64 O65 1.245 . S
C64 O76 1.232 . S
O65 C64 1.245 . S
O66 Co60 2.058 . S
O66 C92 1.269 . S
O67 Co59 2.074 . S
O67 C92 1.257 . S
H68 C93 0.930 . S
H69 C99 0.930 . S
O70 Co59 2.093 . S
O70 C62 1.224 . S
H71 C103 0.929 . S
H72 C105 0.930 . S
H73 C106 0.930 . S
H74 C104 0.929 . S
H75 C107 0.928 . S
O76 Co60 2.057 . S
O76 C64 1.232 . S
H77 C96 0.929 . S
H78 C97 0.929 . S
H79 C109 0.931 . S
H80 C101 0.929 . S
H81 C110 0.930 . S
H82 C102 0.931 . S
O83 Co59 2.097 . S
O83 C111 1.214 . S
H84 C112 0.929 . S
H85 C113 0.929 . S
H86 C114 0.930 . S
H87 C115 0.929 . S
H88 C117 0.930 . S
H89 C94 0.930 . S
H90 C98 0.930 . S
O91 Co60 2.037 . S
O91 C111 1.234 . S
C92 O66 1.269 . S
C92 O67 1.257 . S
C93 H68 0.930 . S
C93 C96 1.388 . S
C93 C98 1.418 . S
C94 H89 0.930 . S
C94 C97 1.404 . S
C94 C98 1.353 . S
N95 Co60 2.145 . S
N95 C96 1.397 . S
N95 C97 1.334 . S
C96 H77 0.929 . S
C96 C93 1.388 . S
C96 N95 1.397 . S
C97 H78 0.929 . S
C97 C94 1.404 . S
C97 N95 1.334 . S
C98 H90 0.930 . S
C98 C93 1.418 . S
C98 C94 1.353 . S
C99 H69 0.930 . S
C99 N100 1.330 . S
C99 C101 1.446 . S
N100 Co59 2.151 . S
N100 C99 1.330 . S
N100 C104 1.418 . S
C101 H80 0.929 . S
C101 C99 1.446 . S
C101 C102 1.332 . S
C102 H82 0.931 . S
C102 C101 1.332 . S
C102 C103 1.267 . S
C103 H71 0.929 . S
C103 C102 1.267 . S
C103 C104 1.251 . S
C104 H74 0.929 . S
C104 N100 1.418 . S
C104 C103 1.251 . S
C105 H72 0.930 . S
C105 C107 1.406 . S
C105 C110 1.261 . S
C106 H73 0.930 . S
C106 N108 1.325 . S
C106 C109 1.357 . S
C107 H75 0.928 . S
C107 C105 1.406 . S
C107 N108 1.261 . S
N108 Co59 2.214 . S
N108 C106 1.325 . S
N108 C107 1.261 . S
C109 H79 0.931 . S
C109 C106 1.357 . S
C109 C110 1.312 . S
C110 H81 0.930 . S
C110 C105 1.261 . S
C110 C109 1.312 . S
C111 O83 1.214 . S
C111 O91 1.234 . S
C112 H84 0.929 . S
C112 C115 1.391 . S
C112 C117 1.391 . S
C113 H85 0.929 . S
C113 C114 1.390 . S
C113 N116 1.391 . S
C114 H86 0.930 . S
C114 C113 1.390 . S
C114 C115 1.392 . S
C115 H87 0.929 . S
C115 C112 1.391 . S
C115 C114 1.392 . S
N116 Co60 2.257 . S
N116 C113 1.391 . S
N116 C117 1.388 . S
C117 H88 0.930 . S
C117 C112 1.391 . S
C117 N116 1.388 . S
Co118 O120 2.143 . S
Co118 O126 2.074 . S
Co118 O129 2.093 1_554 S
Co118 O142 2.097 . S
Co118 N159 2.151 . S
Co118 N167 2.214 . S
Co119 O120 2.160 . S
Co119 O125 2.058 . S
Co119 O135 2.057 . S
Co119 O150 2.037 . S
Co119 N154 2.145 . S
Co119 N175 2.257 . S
O120 Co118 2.143 . S
O120 Co119 2.160 . S
C121 O122 1.278 . S
C121 O129 1.224 . S
O122 C121 1.278 . S
C123 O124 1.245 . S
C123 O135 1.232 . S
O124 C123 1.245 . S
O125 Co119 2.058 . S
O125 C151 1.269 . S
O126 Co118 2.074 . S
O126 C151 1.257 . S
H127 C152 0.930 . S
H128 C158 0.930 1_556 S
O129 Co118 2.093 1_556 S
O129 C121 1.224 . S
H130 C162 0.929 . S
H131 C164 0.930 . S
H132 C165 0.930 . S
H133 C163 0.929 . S
H134 C166 0.928 1_556 S
O135 Co119 2.057 . S
O135 C123 1.232 . S
H136 C155 0.929 . S
H137 C156 0.929 . S
H138 C168 0.931 . S
H139 C160 0.929 1_556 S
H140 C169 0.930 . S
H141 C161 0.931 . S
O142 Co118 2.097 . S
O142 C170 1.214 . S
H143 C171 0.929 . S
H144 C172 0.929 . S
H145 C173 0.930 . S
H146 C174 0.929 . S
H147 C176 0.930 . S
H148 C153 0.930 . S
H149 C157 0.930 . S
O150 Co119 2.037 . S
O150 C170 1.234 . S
C151 O125 1.269 . S
C151 O126 1.257 . S
C152 H127 0.930 . S
C152 C155 1.388 . S
C152 C157 1.418 . S
C153 H148 0.930 . S
C153 C156 1.404 . S
C153 C157 1.353 . S
N154 Co119 2.145 . S
N154 C155 1.397 . S
N154 C156 1.334 . S
C155 H136 0.929 . S
C155 C152 1.388 . S
C155 N154 1.397 . S
C156 H137 0.929 . S
C156 C153 1.404 . S
C156 N154 1.334 . S
C157 H149 0.930 . S
C157 C152 1.418 . S
C157 C153 1.353 . S
C158 H128 0.930 1_554 S
C158 N159 1.330 . S
C158 C160 1.446 . S
N159 Co118 2.151 . S
N159 C158 1.330 . S
N159 C163 1.418 . S
C160 H139 0.929 1_554 S
C160 C158 1.446 . S
C160 C161 1.332 . S
C161 H141 0.931 . S
C161 C160 1.332 . S
C161 C162 1.267 . S
C162 H130 0.929 . S
C162 C161 1.267 . S
C162 C163 1.251 . S
C163 H133 0.929 . S
C163 N159 1.418 . S
C163 C162 1.251 . S
C164 H131 0.930 . S
C164 C166 1.406 . S
C164 C169 1.261 . S
C165 H132 0.930 . S
C165 N167 1.325 . S
C165 C168 1.357 . S
C166 H134 0.928 1_554 S
C166 C164 1.406 . S
C166 N167 1.261 . S
N167 Co118 2.214 . S
N167 C165 1.325 . S
N167 C166 1.261 . S
C168 H138 0.931 . S
C168 C165 1.357 . S
C168 C169 1.312 . S
C169 H140 0.930 . S
C169 C164 1.261 . S
C169 C168 1.312 . S
C170 O142 1.214 . S
C170 O150 1.234 . S
C171 H143 0.929 . S
C171 C174 1.391 . S
C171 C176 1.391 . S
C172 H144 0.929 . S
C172 C173 1.390 1_554 S
C172 N175 1.391 . S
C173 H145 0.930 . S
C173 C172 1.390 1_556 S
C173 C174 1.392 . S
C174 H146 0.929 . S
C174 C171 1.391 . S
C174 C173 1.392 . S
N175 Co119 2.257 . S
N175 C172 1.391 . S
N175 C176 1.388 1_554 S
C176 H147 0.930 . S
C176 C171 1.391 . S
C176 N175 1.388 1_556 S
Co177 O179 2.143 . S
Co177 O185 2.074 . S
Co177 O188 2.093 . S
Co177 O201 2.097 . S
Co177 N218 2.151 . S
Co177 N226 2.214 . S
Co178 O179 2.160 . S
Co178 O184 2.058 . S
Co178 O194 2.057 . S
Co178 O209 2.037 . S
Co178 N213 2.145 . S
Co178 N234 2.257 . S
O179 Co177 2.143 . S
O179 Co178 2.160 . S
C180 O181 1.278 . S
C180 O188 1.224 . S
O181 C180 1.278 . S
C182 O183 1.245 . S
C182 O194 1.232 . S
O183 C182 1.245 . S
O184 Co178 2.058 . S
O184 C210 1.269 . S
O185 Co177 2.074 . S
O185 C210 1.257 . S
H186 C211 0.930 . S
H187 C217 0.930 . S
O188 Co177 2.093 . S
O188 C180 1.224 . S
H189 C221 0.929 . S
H190 C223 0.930 . S
H191 C224 0.930 . S
H192 C222 0.929 . S
H193 C225 0.928 . S
O194 Co178 2.057 . S
O194 C182 1.232 . S
H195 C214 0.929 . S
H196 C215 0.929 . S
H197 C227 0.931 . S
H198 C219 0.929 . S
H199 C228 0.930 . S
H200 C220 0.931 . S
O201 Co177 2.097 . S
O201 C229 1.214 . S
H202 C230 0.929 . S
H203 C231 0.929 . S
H204 C232 0.930 . S
H205 C233 0.929 . S
H206 C235 0.930 . S
H207 C212 0.930 . S
H208 C216 0.930 . S
O209 Co178 2.037 . S
O209 C229 1.234 . S
C210 O184 1.269 . S
C210 O185 1.257 . S
C211 H186 0.930 . S
C211 C214 1.388 . S
C211 C216 1.418 . S
C212 H207 0.930 . S
C212 C215 1.404 . S
C212 C216 1.353 . S
N213 Co178 2.145 . S
N213 C214 1.397 . S
N213 C215 1.334 . S
C214 H195 0.929 . S
C214 C211 1.388 . S
C214 N213 1.397 . S
C215 H196 0.929 . S
C215 C212 1.404 . S
C215 N213 1.334 . S
C216 H208 0.930 . S
C216 C211 1.418 . S
C216 C212 1.353 . S
C217 H187 0.930 . S
C217 N218 1.330 . S
C217 C219 1.446 . S
N218 Co177 2.151 . S
N218 C217 1.330 . S
N218 C222 1.418 . S
C219 H198 0.929 . S
C219 C217 1.446 . S
C219 C220 1.332 . S
C220 H200 0.931 . S
C220 C219 1.332 . S
C220 C221 1.267 . S
C221 H189 0.929 . S
C221 C220 1.267 . S
C221 C222 1.251 . S
C222 H192 0.929 . S
C222 N218 1.418 . S
C222 C221 1.251 . S
C223 H190 0.930 . S
C223 C225 1.406 . S
C223 C228 1.261 . S
C224 H191 0.930 . S
C224 N226 1.325 . S
C224 C227 1.357 . S
C225 H193 0.928 . S
C225 C223 1.406 . S
C225 N226 1.261 . S
N226 Co177 2.214 . S
N226 C224 1.325 . S
N226 C225 1.261 . S
C227 H197 0.931 . S
C227 C224 1.357 . S
C227 C228 1.312 . S
C228 H199 0.930 . S
C228 C223 1.261 . S
C228 C227 1.312 . S
C229 O201 1.214 . S
C229 O209 1.234 . S
C230 H202 0.929 . S
C230 C233 1.391 . S
C230 C235 1.391 . S
C231 H203 0.929 . S
C231 C232 1.390 . S
C231 N234 1.391 . S
C232 H204 0.930 . S
C232 C231 1.390 . S
C232 C233 1.392 . S
C233 H205 0.929 . S
C233 C230 1.391 . S
C233 C232 1.392 . S
N234 Co178 2.257 . S
N234 C231 1.391 . S
N234 C235 1.388 . S
C235 H206 0.930 . S
C235 C230 1.391 . S
C235 N234 1.388 . S
Co236 O238 2.143 . S
Co236 O244 2.074 . S
Co236 O247 2.093 . S
Co236 O260 2.097 . S
Co236 N277 2.151 . S
Co236 N285 2.214 . S
Co237 O238 2.160 . S
Co237 O243 2.058 . S
Co237 O253 2.057 . S
Co237 O268 2.037 . S
Co237 N272 2.145 . S
Co237 N293 2.257 . S
O238 Co236 2.143 . S
O238 Co237 2.160 . S
C239 O240 1.278 . S
C239 O247 1.224 . S
O240 C239 1.278 . S
C241 O242 1.245 . S
C241 O253 1.232 . S
O242 C241 1.245 . S
O243 Co237 2.058 . S
O243 C269 1.269 . S
O244 Co236 2.074 . S
O244 C269 1.257 . S
H245 C270 0.930 . S
H246 C276 0.930 . S
O247 Co236 2.093 . S
O247 C239 1.224 . S
H248 C280 0.929 . S
H249 C282 0.930 . S
H250 C283 0.930 . S
H251 C281 0.929 . S
H252 C284 0.928 . S
O253 Co237 2.057 . S
O253 C241 1.232 . S
H254 C273 0.929 . S
H255 C274 0.929 . S
H256 C286 0.931 . S
H257 C278 0.929 . S
H258 C287 0.930 . S
H259 C279 0.931 . S
O260 Co236 2.097 . S
O260 C288 1.214 . S
H261 C289 0.929 . S
H262 C290 0.929 . S
H263 C291 0.930 . S
H264 C292 0.929 . S
H265 C294 0.930 . S
H266 C271 0.930 . S
H267 C275 0.930 . S
O268 Co237 2.037 . S
O268 C288 1.234 . S
C269 O243 1.269 . S
C269 O244 1.257 . S
C270 H245 0.930 . S
C270 C273 1.388 . S
C270 C275 1.418 . S
C271 H266 0.930 . S
C271 C274 1.404 . S
C271 C275 1.353 . S
N272 Co237 2.145 . S
N272 C273 1.397 . S
N272 C274 1.334 . S
C273 H254 0.929 . S
C273 C270 1.388 . S
C273 N272 1.397 . S
C274 H255 0.929 . S
C274 C271 1.404 . S
C274 N272 1.334 . S
C275 H267 0.930 . S
C275 C270 1.418 . S
C275 C271 1.353 . S
C276 H246 0.930 . S
C276 N277 1.330 . S
C276 C278 1.446 . S
N277 Co236 2.151 . S
N277 C276 1.330 . S
N277 C281 1.418 . S
C278 H257 0.929 . S
C278 C276 1.446 . S
C278 C279 1.332 . S
C279 H259 0.931 . S
C279 C278 1.332 . S
C279 C280 1.267 . S
C280 H248 0.929 . S
C280 C279 1.267 . S
C280 C281 1.251 . S
C281 H251 0.929 . S
C281 N277 1.418 . S
C281 C280 1.251 . S
C282 H249 0.930 . S
C282 C284 1.406 . S
C282 C287 1.261 . S
C283 H250 0.930 . S
C283 N285 1.325 . S
C283 C286 1.357 . S
C284 H252 0.928 . S
C284 C282 1.406 . S
C284 N285 1.261 . S
N285 Co236 2.214 . S
N285 C283 1.325 . S
N285 C284 1.261 . S
C286 H256 0.931 . S
C286 C283 1.357 . S
C286 C287 1.312 . S
C287 H258 0.930 . S
C287 C282 1.261 . S
C287 C286 1.312 . S
C288 O260 1.214 . S
C288 O268 1.234 . S
C289 H261 0.929 . S
C289 C292 1.391 . S
C289 C294 1.391 . S
C290 H262 0.929 . S
C290 C291 1.390 . S
C290 N293 1.391 . S
C291 H263 0.930 . S
C291 C290 1.390 . S
C291 C292 1.392 . S
C292 H264 0.929 . S
C292 C289 1.391 . S
C292 C291 1.392 . S
N293 Co237 2.257 . S
N293 C290 1.391 . S
N293 C294 1.388 . S
C294 H265 0.930 . S
C294 C289 1.391 . S
C294 N293 1.388 . S
Co295 O297 2.143 . S
Co295 O303 2.074 1_554 S
Co295 O306 2.093 . S
Co295 O319 2.097 . S
Co295 N336 2.151 . S
Co295 N344 2.214 . S
Co296 O297 2.160 . S
Co296 O302 2.058 1_554 S
Co296 O312 2.057 . S
Co296 O327 2.037 . S
Co296 N331 2.145 1_554 S
Co296 N352 2.257 . S
O297 Co295 2.143 . S
O297 Co296 2.160 . S
C298 O299 1.278 . S
C298 O306 1.224 . S
O299 C298 1.278 . S
C300 O301 1.245 . S
C300 O312 1.232 . S
O301 C300 1.245 . S
O302 Co296 2.058 1_556 S
O302 C328 1.269 . S
O303 Co295 2.074 1_556 S
O303 C328 1.257 . S
H304 C329 0.930 . S
H305 C335 0.930 . S
O306 Co295 2.093 . S
O306 C298 1.224 . S
H307 C339 0.929 1_556 S
H308 C341 0.930 . S
H309 C342 0.930 1_556 S
H310 C340 0.929 1_556 S
H311 C343 0.928 . S
O312 Co296 2.057 . S
O312 C300 1.232 . S
H313 C332 0.929 . S
H314 C333 0.929 . S
H315 C345 0.931 . S
H316 C337 0.929 . S
H317 C346 0.930 . S
H318 C338 0.931 . S
O319 Co295 2.097 . S
O319 C347 1.214 . S
H320 C348 0.929 . S
H321 C349 0.929 . S
H322 C350 0.930 . S
H323 C351 0.929 . S
H324 C353 0.930 . S
H325 C330 0.930 . S
H326 C334 0.930 . S
O327 Co296 2.037 . S
O327 C347 1.234 . S
C328 O302 1.269 . S
C328 O303 1.257 . S
C329 H304 0.930 . S
C329 C332 1.388 . S
C329 C334 1.418 . S
C330 H325 0.930 . S
C330 C333 1.404 . S
C330 C334 1.353 . S
N331 Co296 2.145 1_556 S
N331 C332 1.397 . S
N331 C333 1.334 . S
C332 H313 0.929 . S
C332 C329 1.388 . S
C332 N331 1.397 . S
C333 H314 0.929 . S
C333 C330 1.404 . S
C333 N331 1.334 . S
C334 H326 0.930 . S
C334 C329 1.418 . S
C334 C330 1.353 . S
C335 H305 0.930 . S
C335 N336 1.330 . S
C335 C337 1.446 . S
N336 Co295 2.151 . S
N336 C335 1.330 . S
N336 C340 1.418 . S
C337 H316 0.929 . S
C337 C335 1.446 . S
C337 C338 1.332 . S
C338 H318 0.931 . S
C338 C337 1.332 . S
C338 C339 1.267 . S
C339 H307 0.929 1_554 S
C339 C338 1.267 . S
C339 C340 1.251 . S
C340 H310 0.929 1_554 S
C340 N336 1.418 . S
C340 C339 1.251 . S
C341 H308 0.930 . S
C341 C343 1.406 . S
C341 C346 1.261 . S
C342 H309 0.930 1_554 S
C342 N344 1.325 . S
C342 C345 1.357 1_554 S
C343 H311 0.928 . S
C343 C341 1.406 . S
C343 N344 1.261 . S
N344 Co295 2.214 . S
N344 C342 1.325 . S
N344 C343 1.261 . S
C345 H315 0.931 . S
C345 C342 1.357 1_556 S
C345 C346 1.312 1_556 S
C346 H317 0.930 . S
C346 C341 1.261 . S
C346 C345 1.312 1_554 S
C347 O319 1.214 . S
C347 O327 1.234 . S
C348 H320 0.929 . S
C348 C351 1.391 . S
C348 C353 1.391 . S
C349 H321 0.929 . S
C349 C350 1.390 . S
C349 N352 1.391 . S
C350 H322 0.930 . S
C350 C349 1.390 . S
C350 C351 1.392 . S
C351 H323 0.929 . S
C351 C348 1.391 . S
C351 C350 1.392 . S
N352 Co296 2.257 . S
N352 C349 1.391 . S
N352 C353 1.388 . S
C353 H324 0.930 . S
C353 C348 1.391 . S
C353 N352 1.388 . S
Co354 O356 2.143 . S
Co354 O362 2.074 . S
Co354 O365 2.093 . S
Co354 O378 2.097 . S
Co354 N395 2.151 . S
Co354 N403 2.214 . S
Co355 O356 2.160 . S
Co355 O361 2.058 . S
Co355 O371 2.057 . S
Co355 O386 2.037 . S
Co355 N390 2.145 . S
Co355 N411 2.257 . S
O356 Co354 2.143 . S
O356 Co355 2.160 . S
C357 O358 1.278 . S
C357 O365 1.224 . S
O358 C357 1.278 . S
C359 O360 1.245 . S
C359 O371 1.232 . S
O360 C359 1.245 . S
O361 Co355 2.058 . S
O361 C387 1.269 . S
O362 Co354 2.074 . S
O362 C387 1.257 . S
H363 C388 0.930 . S
H364 C394 0.930 . S
O365 Co354 2.093 . S
O365 C357 1.224 . S
H366 C398 0.929 . S
H367 C400 0.930 . S
H368 C401 0.930 . S
H369 C399 0.929 . S
H370 C402 0.928 . S
O371 Co355 2.057 . S
O371 C359 1.232 . S
H372 C391 0.929 . S
H373 C392 0.929 . S
H374 C404 0.931 . S
H375 C396 0.929 . S
H376 C405 0.930 . S
H377 C397 0.931 . S
O378 Co354 2.097 . S
O378 C406 1.214 . S
H379 C407 0.929 . S
H380 C408 0.929 . S
H381 C409 0.930 . S
H382 C410 0.929 . S
H383 C412 0.930 . S
H384 C389 0.930 . S
H385 C393 0.930 . S
O386 Co355 2.037 . S
O386 C406 1.234 . S
C387 O361 1.269 . S
C387 O362 1.257 . S
C388 H363 0.930 . S
C388 C391 1.388 . S
C388 C393 1.418 . S
C389 H384 0.930 . S
C389 C392 1.404 . S
C389 C393 1.353 . S
N390 Co355 2.145 . S
N390 C391 1.397 . S
N390 C392 1.334 . S
C391 H372 0.929 . S
C391 C388 1.388 . S
C391 N390 1.397 . S
C392 H373 0.929 . S
C392 C389 1.404 . S
C392 N390 1.334 . S
C393 H385 0.930 . S
C393 C388 1.418 . S
C393 C389 1.353 . S
C394 H364 0.930 . S
C394 N395 1.330 . S
C394 C396 1.446 . S
N395 Co354 2.151 . S
N395 C394 1.330 . S
N395 C399 1.418 . S
C396 H375 0.929 . S
C396 C394 1.446 . S
C396 C397 1.332 . S
C397 H377 0.931 . S
C397 C396 1.332 . S
C397 C398 1.267 . S
C398 H366 0.929 . S
C398 C397 1.267 . S
C398 C399 1.251 . S
C399 H369 0.929 . S
C399 N395 1.418 . S
C399 C398 1.251 . S
C400 H367 0.930 . S
C400 C402 1.406 . S
C400 C405 1.261 . S
C401 H368 0.930 . S
C401 N403 1.325 . S
C401 C404 1.357 . S
C402 H370 0.928 . S
C402 C400 1.406 . S
C402 N403 1.261 . S
N403 Co354 2.214 . S
N403 C401 1.325 . S
N403 C402 1.261 . S
C404 H374 0.931 . S
C404 C401 1.357 . S
C404 C405 1.312 . S
C405 H376 0.930 . S
C405 C400 1.261 . S
C405 C404 1.312 . S
C406 O378 1.214 . S
C406 O386 1.234 . S
C407 H379 0.929 . S
C407 C410 1.391 . S
C407 C412 1.391 . S
C408 H380 0.929 . S
C408 C409 1.390 . S
C408 N411 1.391 . S
C409 H381 0.930 . S
C409 C408 1.390 . S
C409 C410 1.392 . S
C410 H382 0.929 . S
C410 C407 1.391 . S
C410 C409 1.392 . S
N411 Co355 2.257 . S
N411 C408 1.391 . S
N411 C412 1.388 . S
C412 H383 0.930 . S
C412 C407 1.391 . S
C412 N411 1.388 . S
Co413 O415 2.143 . S
Co413 O421 2.074 1_554 S
Co413 O424 2.093 . S
Co413 O437 2.097 . S
Co413 N454 2.151 . S
Co413 N462 2.214 . S
Co414 O415 2.160 . S
Co414 O420 2.058 1_554 S
Co414 O430 2.057 . S
Co414 O445 2.037 . S
Co414 N449 2.145 1_554 S
Co414 N470 2.257 . S
O415 Co413 2.143 . S
O415 Co414 2.160 . S
C416 O417 1.278 . S
C416 O424 1.224 . S
O417 C416 1.278 . S
C418 O419 1.245 . S
C418 O430 1.232 . S
O419 C418 1.245 . S
O420 Co414 2.058 1_556 S
O420 C446 1.269 . S
O421 Co413 2.074 1_556 S
O421 C446 1.257 . S
H422 C447 0.930 . S
H423 C453 0.930 . S
O424 Co413 2.093 . S
O424 C416 1.224 . S
H425 C457 0.929 1_556 S
H426 C459 0.930 . S
H427 C460 0.930 1_556 S
H428 C458 0.929 1_556 S
H429 C461 0.928 . S
O430 Co414 2.057 . S
O430 C418 1.232 . S
H431 C450 0.929 . S
H432 C451 0.929 . S
H433 C463 0.931 . S
H434 C455 0.929 . S
H435 C464 0.930 . S
H436 C456 0.931 . S
O437 Co413 2.097 . S
O437 C465 1.214 . S
H438 C466 0.929 . S
H439 C467 0.929 . S
H440 C468 0.930 . S
H441 C469 0.929 . S
H442 C471 0.930 . S
H443 C448 0.930 . S
H444 C452 0.930 . S
O445 Co414 2.037 . S
O445 C465 1.234 . S
C446 O420 1.269 . S
C446 O421 1.257 . S
C447 H422 0.930 . S
C447 C450 1.388 . S
C447 C452 1.418 . S
C448 H443 0.930 . S
C448 C451 1.404 . S
C448 C452 1.353 . S
N449 Co414 2.145 1_556 S
N449 C450 1.397 . S
N449 C451 1.334 . S
C450 H431 0.929 . S
C450 C447 1.388 . S
C450 N449 1.397 . S
C451 H432 0.929 . S
C451 C448 1.404 . S
C451 N449 1.334 . S
C452 H444 0.930 . S
C452 C447 1.418 . S
C452 C448 1.353 . S
C453 H423 0.930 . S
C453 N454 1.330 . S
C453 C455 1.446 . S
N454 Co413 2.151 . S
N454 C453 1.330 . S
N454 C458 1.418 . S
C455 H434 0.929 . S
C455 C453 1.446 . S
C455 C456 1.332 . S
C456 H436 0.931 . S
C456 C455 1.332 . S
C456 C457 1.267 . S
C457 H425 0.929 1_554 S
C457 C456 1.267 . S
C457 C458 1.251 . S
C458 H428 0.929 1_554 S
C458 N454 1.418 . S
C458 C457 1.251 . S
C459 H426 0.930 . S
C459 C461 1.406 . S
C459 C464 1.261 . S
C460 H427 0.930 1_554 S
C460 N462 1.325 . S
C460 C463 1.357 1_554 S
C461 H429 0.928 . S
C461 C459 1.406 . S
C461 N462 1.261 . S
N462 Co413 2.214 . S
N462 C460 1.325 . S
N462 C461 1.261 . S
C463 H433 0.931 . S
C463 C460 1.357 1_556 S
C463 C464 1.312 1_556 S
C464 H435 0.930 . S
C464 C459 1.261 . S
C464 C463 1.312 1_554 S
C465 O437 1.214 . S
C465 O445 1.234 . S
C466 H438 0.929 . S
C466 C469 1.391 . S
C466 C471 1.391 . S
C467 H439 0.929 . S
C467 C468 1.390 . S
C467 N470 1.391 . S
C468 H440 0.930 . S
C468 C467 1.390 . S
C468 C469 1.392 . S
C469 H441 0.929 . S
C469 C466 1.391 . S
C469 C468 1.392 . S
N470 Co414 2.257 . S
N470 C467 1.391 . S
N470 C471 1.388 . S
C471 H442 0.930 . S
C471 C466 1.391 . S
C471 N470 1.388 . S
H472 C490 0.951 . S
H473 C492 0.951 . S
H474 C494 0.950 . S
H475 C495 0.950 . S
H476 C497 0.950 . S
H477 C500 0.950 . S
H478 C501 0.950 . S
H479 C503 0.950 . S
H480 C504 0.950 . S
H481 C505 0.951 . S
H482 C507 0.951 . S
H483 C509 0.950 . S
H484 C510 0.950 . S
H485 C512 0.950 . S
H486 C515 0.950 . S
H487 C516 0.950 . S
H488 C518 0.950 . S
H489 C519 0.950 . S
C490 H472 0.951 . S
C490 C491 1.366 . S
C490 C492 1.388 . S
C491 C490 1.366 . S
C491 C495 1.385 . S
C492 H473 0.951 . S
C492 C490 1.388 . S
C492 C493 1.366 . S
C493 C492 1.366 . S
C493 C494 1.414 . S
C493 C496 1.499 . S
C494 H474 0.950 . S
C494 C493 1.414 . S
C494 C495 1.374 . S
C495 H475 0.950 . S
C495 C491 1.385 . S
C495 C494 1.374 . S
C496 C493 1.499 . S
C496 C497 1.373 . S
C496 C498 1.389 . S
C497 H476 0.950 . S
C497 C496 1.373 . S
C497 C513 1.377 . S
C498 C496 1.389 . S
C498 C499 1.524 . S
C498 C512 1.377 . S
C499 C498 1.524 . S
C499 C500 1.397 . S
C499 C504 1.363 . S
C500 H477 0.950 . S
C500 C499 1.397 . S
C500 C501 1.334 . S
C501 H478 0.950 . S
C501 C500 1.334 . S
C501 C502 1.287 . S
C502 C501 1.287 . S
C502 C503 1.524 . S
C502 H521 0.913 . S
C503 H479 0.950 . S
C503 C502 1.524 . S
C503 C504 1.415 . S
C504 H480 0.950 . S
C504 C499 1.363 . S
C504 C503 1.415 . S
C505 H481 0.951 . S
C505 C506 1.366 . S
C505 C507 1.388 . S
C506 C505 1.366 . S
C506 C510 1.385 . S
C507 H482 0.951 . S
C507 C505 1.388 . S
C507 C508 1.366 . S
C508 C507 1.366 . S
C508 C509 1.414 . S
C508 C511 1.499 . S
C509 H483 0.950 . S
C509 C508 1.414 . S
C509 C510 1.374 . S
C510 H484 0.950 . S
C510 C506 1.385 . S
C510 C509 1.374 . S
C511 C508 1.499 . S
C511 C512 1.373 . S
C511 C513 1.389 . S
C512 H485 0.950 . S
C512 C498 1.377 . S
C512 C511 1.373 . S
C513 C497 1.377 . S
C513 C511 1.389 . S
C513 C514 1.524 . S
C514 C513 1.524 . S
C514 C515 1.397 . S
C514 C519 1.363 . S
C515 H486 0.950 . S
C515 C514 1.397 . S
C515 C516 1.334 . S
C516 H487 0.950 . S
C516 C515 1.334 . S
C516 C517 1.287 . S
C517 C516 1.287 . S
C517 C518 1.524 . S
C517 H520 0.999 . S
C518 H488 0.950 . S
C518 C517 1.524 . S
C518 C519 1.415 . S
C519 H489 0.950 . S
C519 C514 1.363 . S
C519 C518 1.415 . S
H520 C517 0.999 . S
H521 C502 0.913 . S
H522 C540 0.951 . S
H523 C542 0.951 . S
H524 C544 0.950 . S
H525 C545 0.950 . S
H526 C547 0.950 . S
H527 C550 0.950 . S
H528 C551 0.950 . S
H529 C553 0.950 . S
H530 C554 0.950 . S
H531 C555 0.951 . S
H532 C557 0.951 . S
H533 C559 0.950 . S
H534 C560 0.950 . S
H535 C562 0.950 . S
H536 C565 0.950 . S
H537 C566 0.950 . S
H538 C568 0.950 . S
H539 C569 0.950 . S
C540 H522 0.951 . S
C540 C541 1.366 . S
C540 C542 1.388 . S
C541 C540 1.366 . S
C541 C545 1.385 . S
C542 H523 0.951 . S
C542 C540 1.388 . S
C542 C543 1.366 . S
C543 C542 1.366 . S
C543 C544 1.414 . S
C543 C546 1.499 . S
C544 H524 0.950 . S
C544 C543 1.414 . S
C544 C545 1.374 . S
C545 H525 0.950 . S
C545 C541 1.385 . S
C545 C544 1.374 . S
C546 C543 1.499 . S
C546 C547 1.373 . S
C546 C548 1.389 . S
C547 H526 0.950 . S
C547 C546 1.373 . S
C547 C563 1.377 . S
C548 C546 1.389 . S
C548 C549 1.524 . S
C548 C562 1.377 . S
C549 C548 1.524 . S
C549 C550 1.397 . S
C549 C554 1.363 . S
C550 H527 0.950 . S
C550 C549 1.397 . S
C550 C551 1.334 . S
C551 H528 0.950 . S
C551 C550 1.334 . S
C551 C552 1.287 . S
C552 C551 1.287 . S
C552 C553 1.524 . S
C552 H571 0.913 . S
C553 H529 0.950 . S
C553 C552 1.524 . S
C553 C554 1.415 . S
C554 H530 0.950 . S
C554 C549 1.363 . S
C554 C553 1.415 . S
C555 H531 0.951 . S
C555 C556 1.366 . S
C555 C557 1.388 . S
C556 C555 1.366 . S
C556 C560 1.385 . S
C557 H532 0.951 . S
C557 C555 1.388 . S
C557 C558 1.366 . S
C558 C557 1.366 . S
C558 C559 1.414 . S
C558 C561 1.499 . S
C559 H533 0.950 . S
C559 C558 1.414 . S
C559 C560 1.374 . S
C560 H534 0.950 . S
C560 C556 1.385 . S
C560 C559 1.374 . S
C561 C558 1.499 . S
C561 C562 1.373 . S
C561 C563 1.389 . S
C562 H535 0.950 . S
C562 C548 1.377 . S
C562 C561 1.373 . S
C563 C547 1.377 . S
C563 C561 1.389 . S
C563 C564 1.524 . S
C564 C563 1.524 . S
C564 C565 1.397 . S
C564 C569 1.363 . S
C565 H536 0.950 . S
C565 C564 1.397 . S
C565 C566 1.334 . S
C566 H537 0.950 . S
C566 C565 1.334 . S
C566 C567 1.287 . S
C567 C566 1.287 . S
C567 C568 1.524 . S
C567 H570 0.999 . S
C568 H538 0.950 . S
C568 C567 1.524 . S
C568 C569 1.415 . S
C569 H539 0.950 . S
C569 C564 1.363 . S
C569 C568 1.415 . S
H570 C567 0.999 . S
H571 C552 0.913 . S
H572 C590 0.951 . S
H573 C592 0.951 . S
H574 C594 0.950 . S
H575 C595 0.950 . S
H576 C597 0.950 . S
H577 C600 0.950 . S
H578 C601 0.950 . S
H579 C603 0.950 . S
H580 C604 0.950 . S
H581 C605 0.951 . S
H582 C607 0.951 . S
H583 C609 0.950 . S
H584 C610 0.950 . S
H585 C612 0.950 . S
H586 C615 0.950 . S
H587 C616 0.950 . S
H588 C618 0.950 . S
H589 C619 0.950 . S
C590 H572 0.951 . S
C590 C591 1.366 . S
C590 C592 1.388 . S
C591 C590 1.366 . S
C591 C595 1.385 . S
C592 H573 0.951 . S
C592 C590 1.388 . S
C592 C593 1.366 . S
C593 C592 1.366 . S
C593 C594 1.414 . S
C593 C596 1.499 . S
C594 H574 0.950 . S
C594 C593 1.414 . S
C594 C595 1.374 . S
C595 H575 0.950 . S
C595 C591 1.385 . S
C595 C594 1.374 . S
C596 C593 1.499 . S
C596 C597 1.373 . S
C596 C598 1.389 . S
C597 H576 0.950 . S
C597 C596 1.373 . S
C597 C613 1.377 . S
C598 C596 1.389 . S
C598 C599 1.524 . S
C598 C612 1.377 . S
C599 C598 1.524 . S
C599 C600 1.397 . S
C599 C604 1.363 . S
C600 H577 0.950 . S
C600 C599 1.397 . S
C600 C601 1.334 . S
C601 H578 0.950 . S
C601 C600 1.334 . S
C601 C602 1.287 . S
C602 C601 1.287 . S
C602 C603 1.524 . S
C602 H621 0.913 . S
C603 H579 0.950 . S
C603 C602 1.524 . S
C603 C604 1.415 . S
C604 H580 0.950 . S
C604 C599 1.363 . S
C604 C603 1.415 . S
C605 H581 0.951 . S
C605 C606 1.366 . S
C605 C607 1.388 . S
C606 C605 1.366 . S
C606 C610 1.385 . S
C607 H582 0.951 . S
C607 C605 1.388 . S
C607 C608 1.366 . S
C608 C607 1.366 . S
C608 C609 1.414 . S
C608 C611 1.499 . S
C609 H583 0.950 . S
C609 C608 1.414 . S
C609 C610 1.374 . S
C610 H584 0.950 . S
C610 C606 1.385 . S
C610 C609 1.374 . S
C611 C608 1.499 . S
C611 C612 1.373 . S
C611 C613 1.389 . S
C612 H585 0.950 . S
C612 C598 1.377 . S
C612 C611 1.373 . S
C613 C597 1.377 . S
C613 C611 1.389 . S
C613 C614 1.524 . S
C614 C613 1.524 . S
C614 C615 1.397 . S
C614 C619 1.363 . S
C615 H586 0.950 . S
C615 C614 1.397 . S
C615 C616 1.334 . S
C616 H587 0.950 . S
C616 C615 1.334 . S
C616 C617 1.287 . S
C617 C616 1.287 . S
C617 C618 1.524 . S
C617 H620 0.999 . S
C618 H588 0.950 . S
C618 C617 1.524 . S
C618 C619 1.415 . S
C619 H589 0.950 . S
C619 C614 1.363 . S
C619 C618 1.415 . S
H620 C617 0.999 . S
H621 C602 0.913 . S
H622 C640 0.951 . S
H623 C642 0.951 . S
H624 C644 0.950 . S
H625 C645 0.950 . S
H626 C647 0.950 . S
H627 C650 0.950 . S
H628 C651 0.950 . S
H629 C653 0.950 . S
H630 C654 0.950 . S
H631 C655 0.951 . S
H632 C657 0.951 . S
H633 C659 0.950 . S
H634 C660 0.950 . S
H635 C662 0.950 . S
H636 C665 0.950 . S
H637 C666 0.950 . S
H638 C668 0.950 . S
H639 C669 0.950 . S
C640 H622 0.951 . S
C640 C641 1.366 . S
C640 C642 1.388 . S
C641 C640 1.366 . S
C641 C645 1.385 . S
C642 H623 0.951 . S
C642 C640 1.388 . S
C642 C643 1.366 . S
C643 C642 1.366 . S
C643 C644 1.414 . S
C643 C646 1.499 . S
C644 H624 0.950 . S
C644 C643 1.414 . S
C644 C645 1.374 . S
C645 H625 0.950 . S
C645 C641 1.385 . S
C645 C644 1.374 . S
C646 C643 1.499 . S
C646 C647 1.373 . S
C646 C648 1.389 . S
C647 H626 0.950 . S
C647 C646 1.373 . S
C647 C663 1.377 . S
C648 C646 1.389 . S
C648 C649 1.524 . S
C648 C662 1.377 . S
C649 C648 1.524 . S
C649 C650 1.397 . S
C649 C654 1.363 . S
C650 H627 0.950 . S
C650 C649 1.397 . S
C650 C651 1.334 . S
C651 H628 0.950 . S
C651 C650 1.334 . S
C651 C652 1.287 . S
C652 C651 1.287 . S
C652 C653 1.524 . S
C652 H671 0.913 . S
C653 H629 0.950 . S
C653 C652 1.524 . S
C653 C654 1.415 . S
C654 H630 0.950 . S
C654 C649 1.363 . S
C654 C653 1.415 . S
C655 H631 0.951 . S
C655 C656 1.366 . S
C655 C657 1.388 . S
C656 C655 1.366 . S
C656 C660 1.385 . S
C657 H632 0.951 . S
C657 C655 1.388 . S
C657 C658 1.366 . S
C658 C657 1.366 . S
C658 C659 1.414 . S
C658 C661 1.499 . S
C659 H633 0.950 . S
C659 C658 1.414 . S
C659 C660 1.374 . S
C660 H634 0.950 . S
C660 C656 1.385 . S
C660 C659 1.374 . S
C661 C658 1.499 . S
C661 C662 1.373 . S
C661 C663 1.389 . S
C662 H635 0.950 . S
C662 C648 1.377 . S
C662 C661 1.373 . S
C663 C647 1.377 . S
C663 C661 1.389 . S
C663 C664 1.524 . S
C664 C663 1.524 . S
C664 C665 1.397 . S
C664 C669 1.363 . S
C665 H636 0.950 . S
C665 C664 1.397 . S
C665 C666 1.334 . S
C666 H637 0.950 . S
C666 C665 1.334 . S
C666 C667 1.287 . S
C667 C666 1.287 . S
C667 C668 1.524 . S
C667 H670 0.999 . S
C668 H638 0.950 . S
C668 C667 1.524 . S
C668 C669 1.415 . S
C669 H639 0.950 . S
C669 C664 1.363 . S
C669 C668 1.415 . S
H670 C667 0.999 . S
H671 C652 0.913 . S
H672 C690 0.951 . S
H673 C692 0.951 . S
H674 C694 0.950 . S
H675 C695 0.950 . S
H676 C697 0.950 . S
H677 C700 0.950 . S
H678 C701 0.950 . S
H679 C703 0.950 . S
H680 C704 0.950 . S
H681 C705 0.951 . S
H682 C707 0.951 . S
H683 C709 0.950 . S
H684 C710 0.950 . S
H685 C712 0.950 . S
H686 C715 0.950 . S
H687 C716 0.950 . S
H688 C718 0.950 . S
H689 C719 0.950 . S
C690 H672 0.951 . S
C690 C691 1.366 . S
C690 C692 1.388 . S
C691 C690 1.366 . S
C691 C695 1.385 . S
C692 H673 0.951 . S
C692 C690 1.388 . S
C692 C693 1.366 . S
C693 C692 1.366 . S
C693 C694 1.414 . S
C693 C696 1.499 . S
C694 H674 0.950 . S
C694 C693 1.414 . S
C694 C695 1.374 . S
C695 H675 0.950 . S
C695 C691 1.385 . S
C695 C694 1.374 . S
C696 C693 1.499 . S
C696 C697 1.373 . S
C696 C698 1.389 . S
C697 H676 0.950 . S
C697 C696 1.373 . S
C697 C713 1.377 . S
C698 C696 1.389 . S
C698 C699 1.524 . S
C698 C712 1.377 . S
C699 C698 1.524 . S
C699 C700 1.397 . S
C699 C704 1.363 . S
C700 H677 0.950 . S
C700 C699 1.397 . S
C700 C701 1.334 . S
C701 H678 0.950 . S
C701 C700 1.334 . S
C701 C702 1.287 . S
C702 C701 1.287 . S
C702 C703 1.524 . S
C702 H721 0.913 . S
C703 H679 0.950 . S
C703 C702 1.524 . S
C703 C704 1.415 . S
C704 H680 0.950 . S
C704 C699 1.363 . S
C704 C703 1.415 . S
C705 H681 0.951 . S
C705 C706 1.366 . S
C705 C707 1.388 . S
C706 C705 1.366 . S
C706 C710 1.385 . S
C707 H682 0.951 . S
C707 C705 1.388 . S
C707 C708 1.366 . S
C708 C707 1.366 . S
C708 C709 1.414 . S
C708 C711 1.499 . S
C709 H683 0.950 . S
C709 C708 1.414 . S
C709 C710 1.374 . S
C710 H684 0.950 . S
C710 C706 1.385 . S
C710 C709 1.374 . S
C711 C708 1.499 . S
C711 C712 1.373 . S
C711 C713 1.389 . S
C712 H685 0.950 . S
C712 C698 1.377 . S
C712 C711 1.373 . S
C713 C697 1.377 . S
C713 C711 1.389 . S
C713 C714 1.524 . S
C714 C713 1.524 . S
C714 C715 1.397 . S
C714 C719 1.363 . S
C715 H686 0.950 . S
C715 C714 1.397 . S
C715 C716 1.334 . S
C716 H687 0.950 . S
C716 C715 1.334 . S
C716 C717 1.287 . S
C717 C716 1.287 . S
C717 C718 1.524 . S
C717 H720 0.999 . S
C718 H688 0.950 . S
C718 C717 1.524 . S
C718 C719 1.415 . S
C719 H689 0.950 . S
C719 C714 1.363 . S
C719 C718 1.415 . S
H720 C717 0.999 . S
H721 C702 0.913 . S
H722 C740 0.951 . S
H723 C742 0.951 . S
H724 C744 0.950 . S
H725 C745 0.950 . S
H726 C747 0.950 . S
H727 C750 0.950 . S
H728 C751 0.950 . S
H729 C753 0.950 . S
H730 C754 0.950 . S
H731 C755 0.951 . S
H732 C757 0.951 . S
H733 C759 0.950 . S
H734 C760 0.950 . S
H735 C762 0.950 . S
H736 C765 0.950 . S
H737 C766 0.950 . S
H738 C768 0.950 . S
H739 C769 0.950 . S
C740 H722 0.951 . S
C740 C741 1.366 . S
C740 C742 1.388 . S
C741 C740 1.366 . S
C741 C745 1.385 . S
C742 H723 0.951 . S
C742 C740 1.388 . S
C742 C743 1.366 . S
C743 C742 1.366 . S
C743 C744 1.414 . S
C743 C746 1.499 . S
C744 H724 0.950 . S
C744 C743 1.414 . S
C744 C745 1.374 . S
C745 H725 0.950 . S
C745 C741 1.385 . S
C745 C744 1.374 . S
C746 C743 1.499 . S
C746 C747 1.373 . S
C746 C748 1.389 . S
C747 H726 0.950 . S
C747 C746 1.373 . S
C747 C763 1.377 . S
C748 C746 1.389 . S
C748 C749 1.524 . S
C748 C762 1.377 . S
C749 C748 1.524 . S
C749 C750 1.397 . S
C749 C754 1.363 . S
C750 H727 0.950 . S
C750 C749 1.397 . S
C750 C751 1.334 . S
C751 H728 0.950 . S
C751 C750 1.334 . S
C751 C752 1.287 . S
C752 C751 1.287 . S
C752 C753 1.524 . S
C752 H771 0.913 . S
C753 H729 0.950 . S
C753 C752 1.524 . S
C753 C754 1.415 . S
C754 H730 0.950 . S
C754 C749 1.363 . S
C754 C753 1.415 . S
C755 H731 0.951 . S
C755 C756 1.366 . S
C755 C757 1.388 . S
C756 C755 1.366 . S
C756 C760 1.385 . S
C757 H732 0.951 . S
C757 C755 1.388 . S
C757 C758 1.366 . S
C758 C757 1.366 . S
C758 C759 1.414 . S
C758 C761 1.499 . S
C759 H733 0.950 . S
C759 C758 1.414 . S
C759 C760 1.374 . S
C760 H734 0.950 . S
C760 C756 1.385 . S
C760 C759 1.374 . S
C761 C758 1.499 . S
C761 C762 1.373 . S
C761 C763 1.389 . S
C762 H735 0.950 . S
C762 C748 1.377 . S
C762 C761 1.373 . S
C763 C747 1.377 . S
C763 C761 1.389 . S
C763 C764 1.524 . S
C764 C763 1.524 . S
C764 C765 1.397 . S
C764 C769 1.363 . S
C765 H736 0.950 . S
C765 C764 1.397 . S
C765 C766 1.334 . S
C766 H737 0.950 . S
C766 C765 1.334 . S
C766 C767 1.287 . S
C767 C766 1.287 . S
C767 C768 1.524 . S
C767 H770 0.999 . S
C768 H738 0.950 . S
C768 C767 1.524 . S
C768 C769 1.415 . S
C769 H739 0.950 . S
C769 C764 1.363 . S
C769 C768 1.415 . S
H770 C767 0.999 . S
H771 C752 0.913 . S
H772 C790 0.951 . S
H773 C792 0.951 . S
H774 C794 0.950 . S
H775 C795 0.950 . S
H776 C797 0.950 . S
H777 C800 0.950 . S
H778 C801 0.950 . S
H779 C803 0.950 . S
H780 C804 0.950 . S
H781 C805 0.951 . S
H782 C807 0.951 . S
H783 C809 0.950 . S
H784 C810 0.950 . S
H785 C812 0.950 . S
H786 C815 0.950 . S
H787 C816 0.950 . S
H788 C818 0.950 . S
H789 C819 0.950 . S
C790 H772 0.951 . S
C790 C791 1.366 . S
C790 C792 1.388 . S
C791 C790 1.366 . S
C791 C795 1.385 . S
C792 H773 0.951 . S
C792 C790 1.388 . S
C792 C793 1.366 . S
C793 C792 1.366 . S
C793 C794 1.414 . S
C793 C796 1.499 . S
C794 H774 0.950 . S
C794 C793 1.414 . S
C794 C795 1.374 . S
C795 H775 0.950 . S
C795 C791 1.385 . S
C795 C794 1.374 . S
C796 C793 1.499 . S
C796 C797 1.373 . S
C796 C798 1.389 . S
C797 H776 0.950 . S
C797 C796 1.373 . S
C797 C813 1.377 . S
C798 C796 1.389 . S
C798 C799 1.524 . S
C798 C812 1.377 . S
C799 C798 1.524 . S
C799 C800 1.397 . S
C799 C804 1.363 . S
C800 H777 0.950 . S
C800 C799 1.397 . S
C800 C801 1.334 . S
C801 H778 0.950 . S
C801 C800 1.334 . S
C801 C802 1.287 . S
C802 C801 1.287 . S
C802 C803 1.524 . S
C802 H821 0.913 . S
C803 H779 0.950 . S
C803 C802 1.524 . S
C803 C804 1.415 . S
C804 H780 0.950 . S
C804 C799 1.363 . S
C804 C803 1.415 . S
C805 H781 0.951 . S
C805 C806 1.366 . S
C805 C807 1.388 . S
C806 C805 1.366 . S
C806 C810 1.385 . S
C807 H782 0.951 . S
C807 C805 1.388 . S
C807 C808 1.366 . S
C808 C807 1.366 . S
C808 C809 1.414 . S
C808 C811 1.499 . S
C809 H783 0.950 . S
C809 C808 1.414 . S
C809 C810 1.374 . S
C810 H784 0.950 . S
C810 C806 1.385 . S
C810 C809 1.374 . S
C811 C808 1.499 . S
C811 C812 1.373 . S
C811 C813 1.389 . S
C812 H785 0.950 . S
C812 C798 1.377 . S
C812 C811 1.373 . S
C813 C797 1.377 . S
C813 C811 1.389 . S
C813 C814 1.524 . S
C814 C813 1.524 . S
C814 C815 1.397 . S
C814 C819 1.363 . S
C815 H786 0.950 . S
C815 C814 1.397 . S
C815 C816 1.334 . S
C816 H787 0.950 . S
C816 C815 1.334 . S
C816 C817 1.287 . S
C817 C816 1.287 . S
C817 C818 1.524 . S
C817 H820 0.999 . S
C818 H788 0.950 . S
C818 C817 1.524 . S
C818 C819 1.415 . S
C819 H789 0.950 . S
C819 C814 1.363 . S
C819 C818 1.415 . S
H820 C817 0.999 . S
H821 C802 0.913 . S
H822 C840 0.951 . S
H823 C842 0.951 . S
H824 C844 0.950 . S
H825 C845 0.950 . S
H826 C847 0.950 . S
H827 C850 0.950 . S
H828 C851 0.950 . S
H829 C853 0.950 . S
H830 C854 0.950 . S
H831 C855 0.951 . S
H832 C857 0.951 . S
H833 C859 0.950 . S
H834 C860 0.950 . S
H835 C862 0.950 . S
H836 C865 0.950 . S
H837 C866 0.950 . S
H838 C868 0.950 . S
H839 C869 0.950 . S
C840 H822 0.951 . S
C840 C841 1.366 . S
C840 C842 1.388 . S
C841 C840 1.366 . S
C841 C845 1.385 . S
C842 H823 0.951 . S
C842 C840 1.388 . S
C842 C843 1.366 . S
C843 C842 1.366 . S
C843 C844 1.414 . S
C843 C846 1.499 . S
C844 H824 0.950 . S
C844 C843 1.414 . S
C844 C845 1.374 . S
C845 H825 0.950 . S
C845 C841 1.385 . S
C845 C844 1.374 . S
C846 C843 1.499 . S
C846 C847 1.373 . S
C846 C848 1.389 . S
C847 H826 0.950 . S
C847 C846 1.373 . S
C847 C863 1.377 . S
C848 C846 1.389 . S
C848 C849 1.524 . S
C848 C862 1.377 . S
C849 C848 1.524 . S
C849 C850 1.397 . S
C849 C854 1.363 . S
C850 H827 0.950 . S
C850 C849 1.397 . S
C850 C851 1.334 . S
C851 H828 0.950 . S
C851 C850 1.334 . S
C851 C852 1.287 . S
C852 C851 1.287 . S
C852 C853 1.524 . S
C852 H871 0.913 . S
C853 H829 0.950 . S
C853 C852 1.524 . S
C853 C854 1.415 . S
C854 H830 0.950 . S
C854 C849 1.363 . S
C854 C853 1.415 . S
C855 H831 0.951 . S
C855 C856 1.366 . S
C855 C857 1.388 . S
C856 C855 1.366 . S
C856 C860 1.385 . S
C857 H832 0.951 . S
C857 C855 1.388 . S
C857 C858 1.366 . S
C858 C857 1.366 . S
C858 C859 1.414 . S
C858 C861 1.499 . S
C859 H833 0.950 . S
C859 C858 1.414 . S
C859 C860 1.374 . S
C860 H834 0.950 . S
C860 C856 1.385 . S
C860 C859 1.374 . S
C861 C858 1.499 . S
C861 C862 1.373 . S
C861 C863 1.389 . S
C862 H835 0.950 . S
C862 C848 1.377 . S
C862 C861 1.373 . S
C863 C847 1.377 . S
C863 C861 1.389 . S
C863 C864 1.524 . S
C864 C863 1.524 . S
C864 C865 1.397 . S
C864 C869 1.363 . S
C865 H836 0.950 . S
C865 C864 1.397 . S
C865 C866 1.334 . S
C866 H837 0.950 . S
C866 C865 1.334 . S
C866 C867 1.287 . S
C867 C866 1.287 . S
C867 C868 1.524 . S
C867 H870 0.999 . S
C868 H838 0.950 . S
C868 C867 1.524 . S
C868 C869 1.415 . S
C869 H839 0.950 . S
C869 C864 1.363 . S
C869 C868 1.415 . S
H870 C867 0.999 . S
H871 C852 0.913 . S
H872 C890 0.951 . S
H873 C892 0.951 . S
H874 C894 0.950 1_556 S
H875 C895 0.950 1_556 S
H876 C897 0.950 . S
H877 C900 0.950 . S
H878 C901 0.950 . S
H879 C903 0.935 1_455 S
H880 C904 0.950 . S
H881 C905 0.951 1_556 S
H882 C907 0.951 1_556 S
H883 C909 0.950 . S
H884 C910 0.950 . S
H885 C912 0.950 . S
H886 C915 0.950 . S
H887 C916 0.950 . S
H888 C918 0.935 1_656 S
H889 C919 0.950 1_556 S
C890 H872 0.951 . S
C890 C891 1.366 . S
C890 C892 1.388 . S
C891 C890 1.366 . S
C891 C895 1.385 . S
C892 H873 0.951 . S
C892 C890 1.388 . S
C892 C893 1.366 . S
C893 C892 1.366 . S
C893 C894 1.414 . S
C893 C896 1.499 . S
C894 H874 0.950 1_554 S
C894 C893 1.414 . S
C894 C895 1.374 . S
C895 H875 0.950 1_554 S
C895 C891 1.385 . S
C895 C894 1.374 . S
C896 C893 1.499 . S
C896 C897 1.373 . S
C896 C898 1.389 . S
C897 H876 0.950 . S
C897 C896 1.373 . S
C897 C913 1.377 1_655 S
C898 C896 1.389 . S
C898 C899 1.524 . S
C898 C912 1.377 1_655 S
C899 C898 1.524 . S
C899 C900 1.397 . S
C899 C904 1.363 1_655 S
C900 H877 0.950 . S
C900 C899 1.397 . S
C900 C901 1.334 . S
C901 H878 0.950 . S
C901 C900 1.334 . S
C901 C902 1.287 . S
C902 C901 1.287 . S
C902 C903 1.546 . S
C902 H921 0.913 . S
C903 H879 0.935 1_655 S
C903 C902 1.546 . S
C903 C904 1.411 1_655 S
C904 H880 0.950 . S
C904 C899 1.363 1_455 S
C904 C903 1.411 1_455 S
C905 H881 0.951 1_554 S
C905 C906 1.366 . S
C905 C907 1.388 . S
C906 C905 1.366 . S
C906 C910 1.385 . S
C907 H882 0.951 1_554 S
C907 C905 1.388 . S
C907 C908 1.366 . S
C908 C907 1.366 . S
C908 C909 1.414 . S
C908 C911 1.499 . S
C909 H883 0.950 . S
C909 C908 1.414 . S
C909 C910 1.374 . S
C910 H884 0.950 . S
C910 C906 1.385 . S
C910 C909 1.374 . S
C911 C908 1.499 . S
C911 C912 1.373 . S
C911 C913 1.389 . S
C912 H885 0.950 . S
C912 C898 1.377 1_455 S
C912 C911 1.373 . S
C913 C897 1.377 1_455 S
C913 C911 1.389 . S
C913 C914 1.524 . S
C914 C913 1.524 . S
C914 C915 1.397 . S
C914 C919 1.363 1_455 S
C915 H886 0.950 . S
C915 C914 1.397 . S
C915 C916 1.334 . S
C916 H887 0.950 . S
C916 C915 1.334 . S
C916 C917 1.287 . S
C917 C916 1.287 . S
C917 C918 1.546 . S
C917 H920 0.999 . S
C918 H888 0.935 1_454 S
C918 C917 1.546 . S
C918 C919 1.411 1_455 S
C919 H889 0.950 1_554 S
C919 C914 1.363 1_655 S
C919 C918 1.411 1_655 S
H920 C917 0.999 . S
H921 C902 0.913 . S
H922 C940 0.951 . S
H923 C942 0.951 . S
H924 C944 0.950 . S
H925 C945 0.950 . S
H926 C947 0.950 . S
H927 C950 0.950 . S
H928 C951 0.950 . S
H929 C953 0.950 . S
H930 C954 0.950 . S
H931 C955 0.951 . S
H932 C957 0.951 . S
H933 C959 0.950 . S
H934 C960 0.950 . S
H935 C962 0.950 . S
H936 C965 0.950 . S
H937 C966 0.950 . S
H938 C968 0.950 . S
H939 C969 0.950 . S
C940 H922 0.951 . S
C940 C941 1.366 . S
C940 C942 1.388 . S
C941 C940 1.366 . S
C941 C945 1.385 . S
C942 H923 0.951 . S
C942 C940 1.388 . S
C942 C943 1.366 . S
C943 C942 1.366 . S
C943 C944 1.414 . S
C943 C946 1.499 . S
C944 H924 0.950 . S
C944 C943 1.414 . S
C944 C945 1.374 . S
C945 H925 0.950 . S
C945 C941 1.385 . S
C945 C944 1.374 . S
C946 C943 1.499 . S
C946 C947 1.373 . S
C946 C948 1.389 . S
C947 H926 0.950 . S
C947 C946 1.373 . S
C947 C963 1.377 1_565 S
C948 C946 1.389 . S
C948 C949 1.524 . S
C948 C962 1.377 1_565 S
C949 C948 1.524 . S
C949 C950 1.397 . S
C949 C954 1.363 . S
C950 H927 0.950 . S
C950 C949 1.397 . S
C950 C951 1.334 . S
C951 H928 0.950 . S
C951 C950 1.334 . S
C951 C952 1.287 . S
C952 C951 1.287 . S
C952 C953 1.524 . S
C952 H971 0.913 . S
C953 H929 0.950 . S
C953 C952 1.524 . S
C953 C954 1.415 . S
C954 H930 0.950 . S
C954 C949 1.363 . S
C954 C953 1.415 . S
C955 H931 0.951 . S
C955 C956 1.366 . S
C955 C957 1.388 . S
C956 C955 1.366 . S
C956 C960 1.385 . S
C957 H932 0.951 . S
C957 C955 1.388 . S
C957 C958 1.366 . S
C958 C957 1.366 . S
C958 C959 1.414 . S
C958 C961 1.499 . S
C959 H933 0.950 . S
C959 C958 1.414 . S
C959 C960 1.374 . S
C960 H934 0.950 . S
C960 C956 1.385 . S
C960 C959 1.374 . S
C961 C958 1.499 . S
C961 C962 1.373 . S
C961 C963 1.389 . S
C962 H935 0.950 . S
C962 C948 1.377 1_545 S
C962 C961 1.373 . S
C963 C947 1.377 1_545 S
C963 C961 1.389 . S
C963 C964 1.524 . S
C964 C963 1.524 . S
C964 C965 1.397 . S
C964 C969 1.363 . S
C965 H936 0.950 . S
C965 C964 1.397 . S
C965 C966 1.334 . S
C966 H937 0.950 . S
C966 C965 1.334 . S
C966 C967 1.287 . S
C967 C966 1.287 . S
C967 C968 1.524 . S
C967 H970 0.999 . S
C968 H938 0.950 . S
C968 C967 1.524 . S
C968 C969 1.415 . S
C969 H939 0.950 . S
C969 C964 1.363 . S
C969 C968 1.415 . S
H970 C967 0.999 . S
H971 C952 0.913 . S
H972 C990 0.951 . S
H973 C992 0.951 . S
H974 C994 0.950 . S
H975 C995 0.950 . S
H976 C997 0.950 . S
H977 C1000 0.950 . S
H978 C1001 0.950 . S
H979 C1003 0.950 . S
H980 C1004 0.950 . S
H981 C1005 0.951 . S
H982 C1007 0.951 . S
H983 C1009 0.950 . S
H984 C1010 0.950 . S
H985 C1012 0.950 . S
H986 C1015 0.950 . S
H987 C1016 0.950 . S
H988 C1018 0.950 . S
H989 C1019 0.950 . S
C990 H972 0.951 . S
C990 C991 1.366 . S
C990 C992 1.388 . S
C991 C990 1.366 . S
C991 C995 1.385 . S
C992 H973 0.951 . S
C992 C990 1.388 . S
C992 C993 1.366 . S
C993 C992 1.366 . S
C993 C994 1.414 . S
C993 C996 1.499 . S
C994 H974 0.950 . S
C994 C993 1.414 . S
C994 C995 1.374 . S
C995 H975 0.950 . S
C995 C991 1.385 . S
C995 C994 1.374 . S
C996 C993 1.499 . S
C996 C997 1.373 . S
C996 C998 1.389 . S
C997 H976 0.950 . S
C997 C996 1.373 . S
C997 C1013 1.377 1_455 S
C998 C996 1.389 . S
C998 C999 1.524 . S
C998 C1012 1.377 1_455 S
C999 C998 1.524 . S
C999 C1000 1.397 . S
C999 C1004 1.363 . S
C1000 H977 0.950 . S
C1000 C999 1.397 . S
C1000 C1001 1.334 . S
C1001 H978 0.950 . S
C1001 C1000 1.334 . S
C1001 C1002 1.287 . S
C1002 C1001 1.287 . S
C1002 C1003 1.524 . S
C1002 H1021 0.913 . S
C1003 H979 0.950 . S
C1003 C1002 1.524 . S
C1003 C1004 1.415 . S
C1004 H980 0.950 . S
C1004 C999 1.363 . S
C1004 C1003 1.415 . S
C1005 H981 0.951 . S
C1005 C1006 1.366 . S
C1005 C1007 1.388 . S
C1006 C1005 1.366 . S
C1006 C1010 1.385 . S
C1007 H982 0.951 . S
C1007 C1005 1.388 . S
C1007 C1008 1.366 . S
C1008 C1007 1.366 . S
C1008 C1009 1.414 . S
C1008 C1011 1.499 . S
C1009 H983 0.950 . S
C1009 C1008 1.414 . S
C1009 C1010 1.374 . S
C1010 H984 0.950 . S
C1010 C1006 1.385 . S
C1010 C1009 1.374 . S
C1011 C1008 1.499 . S
C1011 C1012 1.373 . S
C1011 C1013 1.389 . S
C1012 H985 0.950 . S
C1012 C998 1.377 1_655 S
C1012 C1011 1.373 . S
C1013 C997 1.377 1_655 S
C1013 C1011 1.389 . S
C1013 C1014 1.524 . S
C1014 C1013 1.524 . S
C1014 C1015 1.397 . S
C1014 C1019 1.363 . S
C1015 H986 0.950 . S
C1015 C1014 1.397 . S
C1015 C1016 1.334 . S
C1016 H987 0.950 . S
C1016 C1015 1.334 . S
C1016 C1017 1.287 . S
C1017 C1016 1.287 . S
C1017 C1018 1.524 . S
C1017 H1020 0.999 . S
C1018 H988 0.950 . S
C1018 C1017 1.524 . S
C1018 C1019 1.415 . S
C1019 H989 0.950 . S
C1019 C1014 1.363 . S
C1019 C1018 1.415 . S
H1020 C1017 0.999 . S
H1021 C1002 0.913 . S
H1022 C1040 0.951 . S
H1023 C1042 0.951 . S
H1024 C1044 0.950 . S
H1025 C1045 0.950 . S
H1026 C1047 0.950 . S
H1027 C1050 0.950 . S
H1028 C1051 0.950 . S
H1029 C1053 0.950 . S
H1030 C1054 0.950 . S
H1031 C1055 0.951 . S
H1032 C1057 0.951 . S
H1033 C1059 0.950 . S
H1034 C1060 0.950 . S
H1035 C1062 0.950 . S
H1036 C1065 0.950 . S
H1037 C1066 0.950 . S
H1038 C1068 0.950 . S
H1039 C1069 0.950 . S
C1040 H1022 0.951 . S
C1040 C1041 1.366 1_556 S
C1040 C1042 1.388 . S
C1041 C1040 1.366 1_554 S
C1041 C1045 1.385 . S
C1042 H1023 0.951 . S
C1042 C1040 1.388 . S
C1042 C1043 1.366 1_556 S
C1043 C1042 1.366 1_554 S
C1043 C1044 1.414 . S
C1043 C1046 1.499 . S
C1044 H1024 0.950 . S
C1044 C1043 1.414 . S
C1044 C1045 1.374 . S
C1045 H1025 0.950 . S
C1045 C1041 1.385 . S
C1045 C1044 1.374 . S
C1046 C1043 1.499 . S
C1046 C1047 1.373 . S
C1046 C1048 1.389 1_554 S
C1047 H1026 0.950 . S
C1047 C1046 1.373 . S
C1047 C1063 1.377 1_565 S
C1048 C1046 1.389 1_556 S
C1048 C1049 1.524 . S
C1048 C1062 1.377 1_565 S
C1049 C1048 1.524 . S
C1049 C1050 1.397 . S
C1049 C1054 1.363 . S
C1050 H1027 0.950 . S
C1050 C1049 1.397 . S
C1050 C1051 1.334 . S
C1051 H1028 0.950 . S
C1051 C1050 1.334 . S
C1051 C1052 1.287 . S
C1052 C1051 1.287 . S
C1052 C1053 1.524 . S
C1052 H1071 0.913 . S
C1053 H1029 0.950 . S
C1053 C1052 1.524 . S
C1053 C1054 1.415 . S
C1054 H1030 0.950 . S
C1054 C1049 1.363 . S
C1054 C1053 1.415 . S
C1055 H1031 0.951 . S
C1055 C1056 1.366 . S
C1055 C1057 1.388 . S
C1056 C1055 1.366 . S
C1056 C1060 1.385 1_554 S
C1057 H1032 0.951 . S
C1057 C1055 1.388 . S
C1057 C1058 1.366 . S
C1058 C1057 1.366 . S
C1058 C1059 1.414 1_554 S
C1058 C1061 1.499 . S
C1059 H1033 0.950 . S
C1059 C1058 1.414 1_556 S
C1059 C1060 1.374 . S
C1060 H1034 0.950 . S
C1060 C1056 1.385 1_556 S
C1060 C1059 1.374 . S
C1061 C1058 1.499 . S
C1061 C1062 1.373 1_554 S
C1061 C1063 1.389 . S
C1062 H1035 0.950 . S
C1062 C1048 1.377 1_545 S
C1062 C1061 1.373 1_556 S
C1063 C1047 1.377 1_545 S
C1063 C1061 1.389 . S
C1063 C1064 1.524 . S
C1064 C1063 1.524 . S
C1064 C1065 1.397 . S
C1064 C1069 1.363 . S
C1065 H1036 0.950 . S
C1065 C1064 1.397 . S
C1065 C1066 1.334 . S
C1066 H1037 0.950 . S
C1066 C1065 1.334 . S
C1066 C1067 1.287 . S
C1067 C1066 1.287 . S
C1067 C1068 1.524 . S
C1067 H1070 0.999 . S
C1068 H1038 0.950 . S
C1068 C1067 1.524 . S
C1068 C1069 1.415 . S
C1069 H1039 0.950 . S
C1069 C1064 1.363 . S
C1069 C1068 1.415 . S
H1070 C1067 0.999 . S
H1071 C1052 0.913 . S
H1072 C1090 0.951 . S
H1073 C1092 0.951 . S
H1074 C1094 0.950 . S
H1075 C1095 0.950 . S
H1076 C1097 0.950 . S
H1077 C1100 0.950 . S
H1078 C1101 0.950 . S
H1079 C1103 0.950 . S
H1080 C1104 0.950 . S
H1081 C1105 0.951 . S
H1082 C1107 0.951 . S
H1083 C1109 0.950 . S
H1084 C1110 0.950 . S
H1085 C1112 0.950 . S
H1086 C1115 0.950 . S
H1087 C1116 0.950 . S
H1088 C1118 0.950 . S
H1089 C1119 0.950 1_554 S
C1090 H1072 0.951 . S
C1090 C1091 1.366 . S
C1090 C1092 1.388 . S
C1091 C1090 1.366 . S
C1091 C1095 1.385 . S
C1092 H1073 0.951 . S
C1092 C1090 1.388 . S
C1092 C1093 1.366 . S
C1093 C1092 1.366 . S
C1093 C1094 1.414 . S
C1093 C1096 1.499 . S
C1094 H1074 0.950 . S
C1094 C1093 1.414 . S
C1094 C1095 1.374 . S
C1095 H1075 0.950 . S
C1095 C1091 1.385 . S
C1095 C1094 1.374 . S
C1096 C1093 1.499 . S
C1096 C1097 1.373 . S
C1096 C1098 1.389 . S
C1097 H1076 0.950 . S
C1097 C1096 1.373 . S
C1097 C1113 1.377 . S
C1098 C1096 1.389 . S
C1098 C1099 1.524 . S
C1098 C1112 1.377 . S
C1099 C1098 1.524 . S
C1099 C1100 1.397 . S
C1099 C1104 1.363 . S
C1100 H1077 0.950 . S
C1100 C1099 1.397 . S
C1100 C1101 1.334 . S
C1101 H1078 0.950 . S
C1101 C1100 1.334 . S
C1101 C1102 1.287 . S
C1102 C1101 1.287 . S
C1102 C1103 1.524 . S
C1102 H1121 0.913 . S
C1103 H1079 0.950 . S
C1103 C1102 1.524 . S
C1103 C1104 1.415 . S
C1104 H1080 0.950 . S
C1104 C1099 1.363 . S
C1104 C1103 1.415 . S
C1105 H1081 0.951 . S
C1105 C1106 1.366 . S
C1105 C1107 1.388 . S
C1106 C1105 1.366 . S
C1106 C1110 1.385 . S
C1107 H1082 0.951 . S
C1107 C1105 1.388 . S
C1107 C1108 1.366 . S
C1108 C1107 1.366 . S
C1108 C1109 1.414 . S
C1108 C1111 1.499 . S
C1109 H1083 0.950 . S
C1109 C1108 1.414 . S
C1109 C1110 1.374 . S
C1110 H1084 0.950 . S
C1110 C1106 1.385 . S
C1110 C1109 1.374 . S
C1111 C1108 1.499 . S
C1111 C1112 1.373 . S
C1111 C1113 1.389 . S
C1112 H1085 0.950 . S
C1112 C1098 1.377 . S
C1112 C1111 1.373 . S
C1113 C1097 1.377 . S
C1113 C1111 1.389 . S
C1113 C1114 1.524 1_554 S
C1114 C1113 1.524 1_556 S
C1114 C1115 1.397 . S
C1114 C1119 1.363 . S
C1115 H1086 0.950 . S
C1115 C1114 1.397 . S
C1115 C1116 1.334 . S
C1116 H1087 0.950 . S
C1116 C1115 1.334 . S
C1116 C1117 1.287 . S
C1117 C1116 1.287 . S
C1117 C1118 1.524 . S
C1117 H1120 0.999 . S
C1118 H1088 0.950 . S
C1118 C1117 1.524 . S
C1118 C1119 1.415 . S
C1119 H1089 0.950 1_556 S
C1119 C1114 1.363 . S
C1119 C1118 1.415 . S
H1120 C1117 0.999 . S
H1121 C1102 0.913 . S
H1122 C1140 0.951 . S
H1123 C1142 0.951 . S
H1124 C1144 0.950 . S
H1125 C1145 0.950 . S
H1126 C1147 0.950 . S
H1127 C1150 0.950 . S
H1128 C1151 0.950 . S
H1129 C1153 0.950 . S
H1130 C1154 0.950 . S
H1131 C1155 0.951 . S
H1132 C1157 0.951 . S
H1133 C1159 0.950 . S
H1134 C1160 0.950 . S
H1135 C1162 0.950 . S
H1136 C1165 0.950 . S
H1137 C1166 0.950 . S
H1138 C1168 0.950 . S
H1139 C1169 0.950 . S
C1140 H1122 0.951 . S
C1140 C1141 1.366 . S
C1140 C1142 1.388 . S
C1141 C1140 1.366 . S
C1141 C1145 1.385 . S
C1142 H1123 0.951 . S
C1142 C1140 1.388 . S
C1142 C1143 1.366 . S
C1143 C1142 1.366 . S
C1143 C1144 1.414 . S
C1143 C1146 1.499 . S
C1144 H1124 0.950 . S
C1144 C1143 1.414 . S
C1144 C1145 1.374 . S
C1145 H1125 0.950 . S
C1145 C1141 1.385 . S
C1145 C1144 1.374 . S
C1146 C1143 1.499 . S
C1146 C1147 1.373 . S
C1146 C1148 1.389 . S
C1147 H1126 0.950 . S
C1147 C1146 1.373 . S
C1147 C1163 1.377 . S
C1148 C1146 1.389 . S
C1148 C1149 1.524 . S
C1148 C1162 1.377 . S
C1149 C1148 1.524 . S
C1149 C1150 1.397 . S
C1149 C1154 1.363 . S
C1150 H1127 0.950 . S
C1150 C1149 1.397 . S
C1150 C1151 1.334 . S
C1151 H1128 0.950 . S
C1151 C1150 1.334 . S
C1151 C1152 1.287 . S
C1152 C1151 1.287 . S
C1152 C1153 1.524 . S
C1152 H1171 0.913 . S
C1153 H1129 0.950 . S
C1153 C1152 1.524 . S
C1153 C1154 1.415 . S
C1154 H1130 0.950 . S
C1154 C1149 1.363 . S
C1154 C1153 1.415 . S
C1155 H1131 0.951 . S
C1155 C1156 1.366 . S
C1155 C1157 1.388 . S
C1156 C1155 1.366 . S
C1156 C1160 1.385 . S
C1157 H1132 0.951 . S
C1157 C1155 1.388 . S
C1157 C1158 1.366 . S
C1158 C1157 1.366 . S
C1158 C1159 1.414 . S
C1158 C1161 1.499 . S
C1159 H1133 0.950 . S
C1159 C1158 1.414 . S
C1159 C1160 1.374 . S
C1160 H1134 0.950 . S
C1160 C1156 1.385 . S
C1160 C1159 1.374 . S
C1161 C1158 1.499 . S
C1161 C1162 1.373 . S
C1161 C1163 1.389 . S
C1162 H1135 0.950 . S
C1162 C1148 1.377 . S
C1162 C1161 1.373 . S
C1163 C1147 1.377 . S
C1163 C1161 1.389 . S
C1163 C1164 1.524 . S
C1164 C1163 1.524 . S
C1164 C1165 1.397 . S
C1164 C1169 1.363 . S
C1165 H1136 0.950 . S
C1165 C1164 1.397 . S
C1165 C1166 1.334 . S
C1166 H1137 0.950 . S
C1166 C1165 1.334 . S
C1166 C1167 1.287 . S
C1167 C1166 1.287 . S
C1167 C1168 1.524 . S
C1167 H1170 0.999 . S
C1168 H1138 0.950 . S
C1168 C1167 1.524 . S
C1168 C1169 1.415 . S
C1169 H1139 0.950 . S
C1169 C1164 1.363 . S
C1169 C1168 1.415 . S
H1170 C1167 0.999 . S
H1171 C1152 0.913 . S
H1172 C1190 0.951 . S
H1173 C1192 0.951 . S
H1174 C1194 0.950 1_556 S
H1175 C1195 0.950 1_556 S
H1176 C1197 0.950 . S
H1177 C1200 0.950 . S
H1178 C1201 0.950 . S
H1179 C1203 0.950 . S
H1180 C1204 0.950 . S
H1181 C1205 0.951 . S
H1182 C1207 0.951 . S
H1183 C1209 0.950 . S
H1184 C1210 0.950 . S
H1185 C1212 0.950 . S
H1186 C1215 0.950 . S
H1187 C1216 0.950 . S
H1188 C1218 0.950 . S
H1189 C1219 0.950 . S
C1190 H1172 0.951 . S
C1190 C1191 1.366 . S
C1190 C1192 1.388 . S
C1191 C1190 1.366 . S
C1191 C1195 1.385 . S
C1192 H1173 0.951 . S
C1192 C1190 1.388 . S
C1192 C1193 1.366 . S
C1193 C1192 1.366 . S
C1193 C1194 1.414 . S
C1193 C1196 1.499 . S
C1194 H1174 0.950 1_554 S
C1194 C1193 1.414 . S
C1194 C1195 1.374 . S
C1195 H1175 0.950 1_554 S
C1195 C1191 1.385 . S
C1195 C1194 1.374 . S
C1196 C1193 1.499 . S
C1196 C1197 1.373 . S
C1196 C1198 1.389 . S
C1197 H1176 0.950 . S
C1197 C1196 1.373 . S
C1197 C1213 1.377 . S
C1198 C1196 1.389 . S
C1198 C1199 1.524 . S
C1198 C1212 1.377 . S
C1199 C1198 1.524 . S
C1199 C1200 1.397 . S
C1199 C1204 1.363 . S
C1200 H1177 0.950 . S
C1200 C1199 1.397 . S
C1200 C1201 1.334 . S
C1201 H1178 0.950 . S
C1201 C1200 1.334 . S
C1201 C1202 1.287 . S
C1202 C1201 1.287 . S
C1202 C1203 1.524 . S
C1202 H1221 0.913 . S
C1203 H1179 0.950 . S
C1203 C1202 1.524 . S
C1203 C1204 1.415 . S
C1204 H1180 0.950 . S
C1204 C1199 1.363 . S
C1204 C1203 1.415 . S
C1205 H1181 0.951 . S
C1205 C1206 1.366 1_556 S
C1205 C1207 1.388 . S
C1206 C1205 1.366 1_554 S
C1206 C1210 1.385 . S
C1207 H1182 0.951 . S
C1207 C1205 1.388 . S
C1207 C1208 1.366 1_556 S
C1208 C1207 1.366 1_554 S
C1208 C1209 1.414 . S
C1208 C1211 1.499 . S
C1209 H1183 0.950 . S
C1209 C1208 1.414 . S
C1209 C1210 1.374 . S
C1210 H1184 0.950 . S
C1210 C1206 1.385 . S
C1210 C1209 1.374 . S
C1211 C1208 1.499 . S
C1211 C1212 1.373 . S
C1211 C1213 1.389 . S
C1212 H1185 0.950 . S
C1212 C1198 1.377 . S
C1212 C1211 1.373 . S
C1213 C1197 1.377 . S
C1213 C1211 1.389 . S
C1213 C1214 1.524 . S
C1214 C1213 1.524 . S
C1214 C1215 1.397 . S
C1214 C1219 1.363 1_554 S
C1215 H1186 0.950 . S
C1215 C1214 1.397 . S
C1215 C1216 1.334 . S
C1216 H1187 0.950 . S
C1216 C1215 1.334 . S
C1216 C1217 1.287 1_554 S
C1217 C1216 1.287 1_556 S
C1217 C1218 1.524 . S
C1217 H1220 0.999 . S
C1218 H1188 0.950 . S
C1218 C1217 1.524 . S
C1218 C1219 1.415 . S
C1219 H1189 0.950 . S
C1219 C1214 1.363 1_556 S
C1219 C1218 1.415 . S
H1220 C1217 0.999 . S
H1221 C1202 0.913 . S
H1222 C1240 0.951 . S
H1223 C1242 0.951 . S
H1224 C1244 0.950 . S
H1225 C1245 0.950 . S
H1226 C1247 0.950 . S
H1227 C1250 0.950 . S
H1228 C1251 0.950 . S
H1229 C1253 0.950 . S
H1230 C1254 0.950 . S
H1231 C1255 0.951 . S
H1232 C1257 0.951 . S
H1233 C1259 0.950 . S
H1234 C1260 0.950 . S
H1235 C1262 0.950 . S
H1236 C1265 0.950 . S
H1237 C1266 0.950 . S
H1238 C1268 0.950 . S
H1239 C1269 0.950 . S
C1240 H1222 0.951 . S
C1240 C1241 1.366 . S
C1240 C1242 1.388 . S
C1241 C1240 1.366 . S
C1241 C1245 1.385 . S
C1242 H1223 0.951 . S
C1242 C1240 1.388 . S
C1242 C1243 1.366 . S
C1243 C1242 1.366 . S
C1243 C1244 1.414 . S
C1243 C1246 1.499 . S
C1244 H1224 0.950 . S
C1244 C1243 1.414 . S
C1244 C1245 1.374 . S
C1245 H1225 0.950 . S
C1245 C1241 1.385 . S
C1245 C1244 1.374 . S
C1246 C1243 1.499 . S
C1246 C1247 1.373 . S
C1246 C1248 1.389 . S
C1247 H1226 0.950 . S
C1247 C1246 1.373 . S
C1247 C1263 1.377 . S
C1248 C1246 1.389 . S
C1248 C1249 1.524 . S
C1248 C1262 1.377 . S
C1249 C1248 1.524 . S
C1249 C1250 1.397 . S
C1249 C1254 1.363 . S
C1250 H1227 0.950 . S
C1250 C1249 1.397 . S
C1250 C1251 1.334 . S
C1251 H1228 0.950 . S
C1251 C1250 1.334 . S
C1251 C1252 1.287 . S
C1252 C1251 1.287 . S
C1252 C1253 1.524 . S
C1252 H1271 0.913 . S
C1253 H1229 0.950 . S
C1253 C1252 1.524 . S
C1253 C1254 1.415 . S
C1254 H1230 0.950 . S
C1254 C1249 1.363 . S
C1254 C1253 1.415 . S
C1255 H1231 0.951 . S
C1255 C1256 1.366 . S
C1255 C1257 1.388 . S
C1256 C1255 1.366 . S
C1256 C1260 1.385 . S
C1257 H1232 0.951 . S
C1257 C1255 1.388 . S
C1257 C1258 1.366 . S
C1258 C1257 1.366 . S
C1258 C1259 1.414 . S
C1258 C1261 1.499 . S
C1259 H1233 0.950 . S
C1259 C1258 1.414 . S
C1259 C1260 1.374 . S
C1260 H1234 0.950 . S
C1260 C1256 1.385 . S
C1260 C1259 1.374 . S
C1261 C1258 1.499 . S
C1261 C1262 1.373 . S
C1261 C1263 1.389 . S
C1262 H1235 0.950 . S
C1262 C1248 1.377 . S
C1262 C1261 1.373 . S
C1263 C1247 1.377 . S
C1263 C1261 1.389 . S
C1263 C1264 1.524 . S
C1264 C1263 1.524 . S
C1264 C1265 1.397 . S
C1264 C1269 1.363 . S
C1265 H1236 0.950 . S
C1265 C1264 1.397 . S
C1265 C1266 1.334 . S
C1266 H1237 0.950 . S
C1266 C1265 1.334 . S
C1266 C1267 1.287 . S
C1267 C1266 1.287 . S
C1267 C1268 1.524 . S
C1267 H1270 0.999 . S
C1268 H1238 0.950 . S
C1268 C1267 1.524 . S
C1268 C1269 1.415 . S
C1269 H1239 0.950 . S
C1269 C1264 1.363 . S
C1269 C1268 1.415 . S
H1270 C1267 0.999 . S
H1271 C1252 0.913 . S
C491 C33 1.477 . S
C506 C269 1.477 . S
C541 C92 1.478 . S
C556 C328 1.478 . S
C591 C387 1.478 . S
C606 C151 1.478 . S
C641 C446 1.478 . S
C656 C210 1.478 . S
C691 C357 1.171 . S
C706 C121 1.171 . S
C741 C416 1.171 . S
C756 C180 1.171 . S
C791 C3 1.170 . S
C806 C239 1.171 . S
C841 C62 1.170 . S
C856 C298 1.171 . S
C891 C170 1.386 . S
C906 C52 1.386 . S
C941 C229 1.386 . S
C956 C111 1.386 . S
C991 C288 1.386 . S
C1006 C406 1.386 . S
C1041 C465 1.386 . S
C1056 C347 1.386 . S
C1091 C5 1.409 . S
C1106 C300 1.409 . S
C1141 C359 1.409 . S
C1156 C64 1.409 . S
C1191 C123 1.409 . S
C1206 C418 1.409 . S
C1241 C182 1.409 . S
C1256 C241 1.409 . S
