# Generated by pormake.
# Topology vmf, (6)-cn, num edge types: 1
# Building blocks:
#     Node 0, Type 0, BuildingBlock: IZENUY_clean_sbu_0, # of connection points: 6
#     Node 1, Type 0, BuildingBlock: IZENUY_clean_sbu_0, # of connection points: 6
#     Node 2, Type 0, BuildingBlock: IZENUY_clean_sbu_0, # of connection points: 6
#     Node 3, Type 0, BuildingBlock: IZENUY_clean_sbu_0, # of connection points: 6
#     Node 4, Type 0, BuildingBlock: IZENUY_clean_sbu_0, # of connection points: 6
#     Node 5, Type 0, BuildingBlock: IZENUY_clean_sbu_0, # of connection points: 6
#     Node 6, Type 0, BuildingBlock: IZENUY_clean_sbu_0, # of connection points: 6
#     Node 7, Type 0, BuildingBlock: IZENUY_clean_sbu_0, # of connection points: 6
#     Edge 8, Type (0, 0), BuildingBlock: UVAHIK_clean_linker_0, # of connection points: 2
#     Edge 9, Type (0, 0), BuildingBlock: UVAHIK_clean_linker_0, # of connection points: 2
#     Edge 10, Type (0, 0), BuildingBlock: UVAHIK_clean_linker_0, # of connection points: 2
#     Edge 11, Type (0, 0), BuildingBlock: UVAHIK_clean_linker_0, # of connection points: 2
#     Edge 12, Type (0, 0), BuildingBlock: UVAHIK_clean_linker_0, # of connection points: 2
#     Edge 13, Type (0, 0), BuildingBlock: UVAHIK_clean_linker_0, # of connection points: 2
#     Edge 14, Type (0, 0), BuildingBlock: UVAHIK_clean_linker_0, # of connection points: 2
#     Edge 15, Type (0, 0), BuildingBlock: UVAHIK_clean_linker_0, # of connection points: 2
#     Edge 16, Type (0, 0), BuildingBlock: UVAHIK_clean_linker_0, # of connection points: 2
#     Edge 17, Type (0, 0), BuildingBlock: UVAHIK_clean_linker_0, # of connection points: 2
#     Edge 18, Type (0, 0), BuildingBlock: UVAHIK_clean_linker_0, # of connection points: 2
#     Edge 19, Type (0, 0), BuildingBlock: UVAHIK_clean_linker_0, # of connection points: 2
#     Edge 20, Type (0, 0), BuildingBlock: UVAHIK_clean_linker_0, # of connection points: 2
#     Edge 21, Type (0, 0), BuildingBlock: UVAHIK_clean_linker_0, # of connection points: 2
#     Edge 22, Type (0, 0), BuildingBlock: UVAHIK_clean_linker_0, # of connection points: 2
#     Edge 23, Type (0, 0), BuildingBlock: UVAHIK_clean_linker_0, # of connection points: 2
#     Edge 24, Type (0, 0), BuildingBlock: UVAHIK_clean_linker_0, # of connection points: 2
#     Edge 25, Type (0, 0), BuildingBlock: UVAHIK_clean_linker_0, # of connection points: 2
#     Edge 26, Type (0, 0), BuildingBlock: UVAHIK_clean_linker_0, # of connection points: 2
#     Edge 27, Type (0, 0), BuildingBlock: UVAHIK_clean_linker_0, # of connection points: 2
#     Edge 28, Type (0, 0), BuildingBlock: UVAHIK_clean_linker_0, # of connection points: 2
#     Edge 29, Type (0, 0), BuildingBlock: UVAHIK_clean_linker_0, # of connection points: 2
#     Edge 30, Type (0, 0), BuildingBlock: UVAHIK_clean_linker_0, # of connection points: 2
#     Edge 31, Type (0, 0), BuildingBlock: UVAHIK_clean_linker_0, # of connection points: 2
# Relax obj value: 0.282
# Max RMSD: 0.266
# Mean RMSD: 0.266
data_MOF--net-vmf--node1-IZENUY_clean_sbu_0--edge1-UVAHIK_clean_linker_0
_symmetry_space_group_name_H-M    P1
_symmetry_Int_Tables_number       1
_symmetry_cell_setting            triclinic
loop_
_symmetry_equiv_pos_as_xyz
'x, y, z'
_cell_length_a     36.571748
_cell_length_b     55.732661
_cell_length_c     36.130412
_cell_angle_alpha  90.11401
_cell_angle_beta   104.89045
_cell_angle_gamma 89.88803
loop_
_atom_site_label
_atom_site_type_symbol
_atom_site_fract_x
_atom_site_fract_y
_atom_site_fract_z
_atom_type_partial_charge
Fe0 Fe 0.213 0.34528 0.21064 0.0
Fe1 Fe 0.20738 0.29566 0.24606 0.0
O2 O 0.19356 0.3262 0.23991 0.0
Fe3 Fe 0.15938 0.3377 0.26247 0.0
O4 O 0.12709 0.34424 0.21583 0.0
O5 O 0.16949 0.36271 0.19296 0.0
O6 O 0.1966 0.32615 0.16911 0.0
C7 C 0.20387 0.30411 0.16783 0.0
C8 C 0.21003 0.37695 0.26726 0.0
O9 O 0.2142 0.29185 0.19811 0.0
C10 C 0.2037 0.31048 0.31994 0.0
O11 O 0.25972 0.33092 0.22265 0.0
O12 O 0.25686 0.30349 0.26546 0.0
O13 O 0.17802 0.36845 0.26754 0.0
O14 O 0.23092 0.36611 0.24981 0.0
C15 C 0.13155 0.29131 0.24012 0.0
O16 O 0.20337 0.29428 0.29525 0.0
O17 O 0.18971 0.33108 0.31016 0.0
C18 C 0.27592 0.31635 0.24857 0.0
O19 O 0.15895 0.28519 0.22693 0.0
O20 O 0.13406 0.30943 0.26166 0.0
C21 C 0.13563 0.35626 0.18958 0.0
Fe22 Fe 0.78334 0.34559 0.79675 0.0
Fe23 Fe 0.79375 0.29701 0.76142 0.0
O24 O 0.80702 0.32756 0.76968 0.0
Fe25 Fe 0.8439 0.33965 0.75162 0.0
O26 O 0.86391 0.35842 0.79465 0.0
O27 O 0.82665 0.35094 0.83249 0.0
O28 O 0.77552 0.321 0.82709 0.0
C29 C 0.7936 0.30163 0.83631 0.0
C30 C 0.79594 0.37852 0.74133 0.0
O31 O 0.80732 0.29044 0.81251 0.0
C32 C 0.79995 0.31038 0.69061 0.0
O33 O 0.73763 0.34099 0.76284 0.0
O34 O 0.74428 0.30191 0.76187 0.0
O35 O 0.81444 0.36391 0.72658 0.0
O36 O 0.78762 0.37366 0.77228 0.0
C37 C 0.87307 0.29477 0.7703 0.0
O38 O 0.77933 0.30201 0.71061 0.0
O39 O 0.82988 0.32226 0.70592 0.0
C40 C 0.72331 0.32036 0.75578 0.0
O41 O 0.84038 0.2859 0.75846 0.0
O42 O 0.87723 0.31699 0.77516 0.0
C43 C 0.85786 0.35793 0.82784 0.0
Fe44 Fe 0.79126 0.7108 0.76301 0.0
Fe45 Fe 0.77976 0.66217 0.79714 0.0
O46 O 0.80399 0.68011 0.77064 0.0
Fe47 Fe 0.84092 0.66793 0.75265 0.0
O48 O 0.87446 0.69045 0.77655 0.0
O49 O 0.83782 0.72163 0.75992 0.0
O50 O 0.80533 0.71693 0.8142 0.0
C51 C 0.7918 0.70553 0.83782 0.0
C52 C 0.79707 0.69741 0.69209 0.0
O53 O 0.77244 0.68674 0.82782 0.0
C54 C 0.79257 0.62927 0.74146 0.0
O55 O 0.74178 0.70643 0.76354 0.0
O56 O 0.73408 0.66742 0.76311 0.0
O57 O 0.82701 0.68546 0.70726 0.0
O58 O 0.77661 0.70602 0.71215 0.0
C59 C 0.8544 0.6494 0.82852 0.0
O60 O 0.78361 0.63417 0.77212 0.0
O61 O 0.81145 0.64383 0.72721 0.0
C62 C 0.7204 0.68827 0.75612 0.0
O63 O 0.82299 0.65624 0.83304 0.0
O64 O 0.86061 0.64898 0.7954 0.0
C65 C 0.87044 0.71269 0.77171 0.0
Fe66 Fe 0.22409 0.66526 0.20956 0.0
Fe67 Fe 0.16554 0.67015 0.25714 0.0
O68 O 0.20241 0.68249 0.23933 0.0
Fe69 Fe 0.21749 0.7125 0.25039 0.0
O70 O 0.2032 0.72111 0.2001 0.0
O71 O 0.23282 0.69079 0.18179 0.0
O72 O 0.17965 0.66212 0.17421 0.0
C73 C 0.14862 0.6551 0.17931 0.0
C74 C 0.28625 0.68803 0.25224 0.0
O75 O 0.14407 0.65276 0.21289 0.0
C76 C 0.21153 0.69697 0.32007 0.0
O77 O 0.21863 0.63637 0.2313 0.0
O78 O 0.19454 0.64492 0.27947 0.0
O79 O 0.26654 0.70703 0.24856 0.0
O80 O 0.27065 0.66793 0.2428 0.0
C81 C 0.13845 0.71595 0.2431 0.0
O82 O 0.18092 0.686 0.30407 0.0
O83 O 0.2325 0.70547 0.30057 0.0
C84 C 0.2116 0.63061 0.26255 0.0
O85 O 0.1329 0.69395 0.23621 0.0
O86 O 0.1717 0.72394 0.2553 0.0
C87 C 0.21505 0.71038 0.17462 0.0
Fe88 Fe 0.72511 0.84159 0.21319 0.0
Fe89 Fe 0.71779 0.7944 0.25351 0.0
O90 O 0.70263 0.82439 0.24213 0.0
Fe91 Fe 0.66494 0.83667 0.25896 0.0
O92 O 0.64409 0.85391 0.2145 0.0
O93 O 0.68129 0.84517 0.1771 0.0
O94 O 0.73409 0.81602 0.18538 0.0
C95 C 0.71682 0.79625 0.17814 0.0
C96 C 0.71107 0.87623 0.26578 0.0
O97 O 0.7044 0.78565 0.20328 0.0
C98 C 0.71054 0.81034 0.3226 0.0
O99 O 0.77127 0.83872 0.2471 0.0
O100 O 0.76705 0.79968 0.25243 0.0
O101 O 0.69303 0.8621 0.28179 0.0
O102 O 0.71949 0.87039 0.2352 0.0
C103 C 0.63862 0.79078 0.24464 0.0
O104 O 0.73197 0.8017 0.30362 0.0
O105 O 0.67974 0.82099 0.30603 0.0
C106 C 0.78682 0.81859 0.25638 0.0
O107 O 0.67186 0.78296 0.25774 0.0
O108 O 0.63295 0.81273 0.23741 0.0
C109 C 0.64989 0.85222 0.18131 0.0
Fe110 Fe 0.29084 0.79552 0.75949 0.0
Fe111 Fe 0.34046 0.83908 0.75162 0.0
O112 O 0.30428 0.82592 0.76974 0.0
Fe113 Fe 0.2815 0.84276 0.79912 0.0
O114 O 0.27367 0.81715 0.82716 0.0
O115 O 0.30524 0.78745 0.81002 0.0
O116 O 0.33715 0.78481 0.75524 0.0
C117 C 0.36993 0.7937 0.76574 0.0
C118 C 0.22084 0.81877 0.75623 0.0
O119 O 0.37431 0.81585 0.77182 0.0
C120 C 0.29275 0.87785 0.74634 0.0
O121 O 0.27576 0.80186 0.70908 0.0
O122 O 0.32534 0.8233 0.70467 0.0
O123 O 0.23525 0.83919 0.76564 0.0
O124 O 0.24149 0.80017 0.76074 0.0
C125 C 0.35667 0.85399 0.82965 0.0
O126 O 0.31058 0.86403 0.72955 0.0
O127 O 0.28566 0.87176 0.77736 0.0
C128 C 0.29567 0.81125 0.68922 0.0
O129 O 0.3615 0.85638 0.79614 0.0
O130 O 0.32563 0.84677 0.83452 0.0
C131 C 0.29242 0.79798 0.835 0.0
Fe132 Fe 0.29762 0.21392 0.76345 0.0
Fe133 Fe 0.29492 0.16462 0.80089 0.0
O134 O 0.31225 0.18357 0.76986 0.0
Fe135 Fe 0.34522 0.17214 0.74579 0.0
O136 O 0.36941 0.20062 0.74452 0.0
O137 O 0.34604 0.22486 0.78045 0.0
O138 O 0.29284 0.21809 0.8121 0.0
C139 C 0.30484 0.20622 0.84259 0.0
C140 C 0.29838 0.19846 0.68899 0.0
O141 O 0.31256 0.18423 0.8416 0.0
C142 C 0.29604 0.13246 0.74445 0.0
O143 O 0.24818 0.20552 0.74622 0.0
O144 O 0.24785 0.17859 0.79055 0.0
O145 O 0.31296 0.17801 0.69881 0.0
O146 O 0.29942 0.21488 0.71351 0.0
C147 C 0.3726 0.15434 0.81866 0.0
O148 O 0.2759 0.14344 0.76258 0.0
O149 O 0.3275 0.14113 0.74257 0.0
C150 C 0.23037 0.19275 0.76454 0.0
O151 O 0.33923 0.14756 0.81723 0.0
O152 O 0.37927 0.16651 0.79163 0.0
C153 C 0.37264 0.21878 0.76604 0.0
Fe154 Fe 0.71072 0.2117 0.24575 0.0
Fe155 Fe 0.7194 0.16309 0.20933 0.0
O156 O 0.69741 0.18108 0.23809 0.0
Fe157 Fe 0.66216 0.16892 0.25853 0.0
O158 O 0.62799 0.19151 0.2365 0.0
O159 O 0.6649 0.22271 0.25127 0.0
O160 O 0.69465 0.21829 0.19477 0.0
C161 C 0.70692 0.20717 0.16987 0.0
C162 C 0.70842 0.19837 0.31782 0.0
O163 O 0.72496 0.18767 0.17798 0.0
C164 C 0.71026 0.13015 0.26631 0.0
O165 O 0.7594 0.20703 0.24256 0.0
O166 O 0.76631 0.168 0.24095 0.0
O167 O 0.67834 0.18631 0.30395 0.0
O168 O 0.72768 0.20676 0.29649 0.0
C169 C 0.64445 0.15029 0.18239 0.0
O170 O 0.71708 0.13514 0.23469 0.0
O171 O 0.69245 0.14458 0.28219 0.0
C172 C 0.78055 0.18868 0.24751 0.0
O173 O 0.67479 0.15721 0.17554 0.0
O174 O 0.64015 0.15024 0.21624 0.0
C175 C 0.63218 0.21374 0.24097 0.0
C176 C 0.60099 0.24998 0.26093 0.0
C177 C 0.59831 0.22869 0.23944 0.0
C178 C 0.56828 0.26252 0.26283 0.0
C179 C 0.46817 0.27146 0.21307 0.0
H180 H 0.45435 0.28699 0.31336 0.0
C181 C 0.33662 0.32235 0.2298 0.0
C182 C 0.31687 0.31134 0.25388 0.0
C183 C 0.37334 0.31515 0.23033 0.0
C184 C 0.45791 0.28281 0.2852 0.0
H185 H 0.55944 0.2044 0.20192 0.0
H186 H 0.50255 0.22658 0.20451 0.0
H187 H 0.51408 0.26911 0.30791 0.0
H188 H 0.3214 0.28512 0.29916 0.0
H189 H 0.38589 0.27273 0.30029 0.0
H190 H 0.41199 0.28481 0.19029 0.0
C191 C 0.52986 0.23346 0.22014 0.0
C192 C 0.49213 0.27277 0.28205 0.0
C193 C 0.56242 0.22073 0.21876 0.0
C194 C 0.33569 0.29393 0.28014 0.0
C195 C 0.37267 0.28687 0.28087 0.0
C196 C 0.43423 0.28178 0.21617 0.0
C197 C 0.53237 0.25426 0.24268 0.0
C198 C 0.49738 0.2667 0.24596 0.0
C199 C 0.39144 0.29693 0.25518 0.0
C200 C 0.42854 0.28732 0.25227 0.0
H201 H 0.62824 0.25648 0.27738 0.0
H202 H 0.57102 0.2786 0.28021 0.0
H203 H 0.47149 0.26706 0.1849 0.0
H204 H 0.32321 0.33592 0.20934 0.0
H205 H 0.38732 0.32348 0.2106 0.0
C206 C 0.65942 0.33397 0.76219 0.0
C207 C 0.68213 0.31675 0.75008 0.0
C208 C 0.62303 0.32789 0.76514 0.0
C209 C 0.57616 0.27553 0.78839 0.0
H210 H 0.47879 0.30446 0.74156 0.0
C211 C 0.43999 0.22286 0.76538 0.0
C212 C 0.40717 0.23355 0.77132 0.0
C213 C 0.4724 0.23637 0.7676 0.0
C214 C 0.50587 0.29654 0.75551 0.0
H215 H 0.68312 0.28059 0.728 0.0
H216 H 0.62014 0.27012 0.73329 0.0
H217 H 0.53703 0.32304 0.73287 0.0
H218 H 0.38277 0.26686 0.78489 0.0
H219 H 0.44011 0.29084 0.78851 0.0
H220 H 0.54566 0.24884 0.81044 0.0
C221 C 0.63059 0.28811 0.74107 0.0
C222 C 0.53906 0.3071 0.75038 0.0
C223 C 0.66659 0.29415 0.73795 0.0
C224 C 0.40773 0.25815 0.78029 0.0
C225 C 0.44036 0.27186 0.78211 0.0
C226 C 0.5433 0.26516 0.79373 0.0
C227 C 0.60911 0.30455 0.75613 0.0
C228 C 0.57429 0.29611 0.76566 0.0
C229 C 0.47301 0.26103 0.77572 0.0
C230 C 0.50768 0.27498 0.77615 0.0
H231 H 0.67062 0.35153 0.77178 0.0
H232 H 0.60682 0.34088 0.77668 0.0
H233 H 0.60311 0.267 0.8011 0.0
H234 H 0.4406 0.20393 0.75862 0.0
H235 H 0.49684 0.22753 0.76196 0.0
C236 C 0.40139 0.75346 0.76509 0.0
C237 C 0.4034 0.7787 0.76526 0.0
C238 C 0.43226 0.73954 0.76133 0.0
C239 C 0.51138 0.74143 0.7184 0.0
H240 H 0.56352 0.69568 0.7946 0.0
C241 C 0.66497 0.71505 0.7322 0.0
C242 C 0.679 0.69254 0.74669 0.0
C243 C 0.6275 0.72145 0.72931 0.0
C244 C 0.54883 0.70793 0.77251 0.0
H245 H 0.4397 0.809 0.76214 0.0
H246 H 0.49288 0.78475 0.7547 0.0
H247 H 0.50519 0.7148 0.80132 0.0
H248 H 0.66391 0.65848 0.7675 0.0
H249 H 0.59769 0.66954 0.76176 0.0
H250 H 0.55442 0.73478 0.68936 0.0
C251 C 0.46755 0.77578 0.75775 0.0
C252 C 0.51555 0.71896 0.77655 0.0
C253 C 0.43714 0.78964 0.76227 0.0
C254 C 0.65392 0.67596 0.75615 0.0
C255 C 0.61612 0.68241 0.75326 0.0
C256 C 0.54415 0.73017 0.71399 0.0
C257 C 0.46529 0.75064 0.75682 0.0
C258 C 0.4973 0.73639 0.75017 0.0
C259 C 0.60268 0.70549 0.74062 0.0
C260 C 0.56417 0.71393 0.74172 0.0
H261 H 0.37582 0.74449 0.76738 0.0
H262 H 0.42992 0.72017 0.76075 0.0
H263 H 0.49743 0.75453 0.69732 0.0
H264 H 0.68346 0.72823 0.72449 0.0
H265 H 0.61865 0.73948 0.71999 0.0
C266 C 0.3462 0.70968 0.28192 0.0
C267 C 0.32768 0.69071 0.25897 0.0
C268 C 0.38355 0.71553 0.28275 0.0
C269 C 0.46892 0.71778 0.28929 0.0
H270 H 0.48319 0.73039 0.18836 0.0
C271 C 0.60988 0.75405 0.26581 0.0
C272 C 0.60576 0.77489 0.24318 0.0
C273 C 0.57824 0.74037 0.26741 0.0
C274 C 0.4797 0.7268 0.21671 0.0
H275 H 0.33415 0.66245 0.21988 0.0
H276 H 0.39947 0.67302 0.22073 0.0
H277 H 0.42469 0.71144 0.19449 0.0
H278 H 0.56536 0.79713 0.20331 0.0
H279 H 0.51026 0.7729 0.20543 0.0
H280 H 0.52365 0.73353 0.3115 0.0
C281 C 0.38507 0.68317 0.23836 0.0
C282 C 0.44639 0.71578 0.22023 0.0
C283 C 0.34786 0.67698 0.23817 0.0
C284 C 0.56948 0.78121 0.22107 0.0
C285 C 0.53796 0.76728 0.22215 0.0
C286 C 0.50251 0.72842 0.28577 0.0
C287 C 0.40297 0.70284 0.26003 0.0
C288 C 0.44032 0.71159 0.25655 0.0
C289 C 0.5419 0.74696 0.24585 0.0
C290 C 0.50792 0.7335 0.24944 0.0
H291 H 0.33125 0.72061 0.29812 0.0
H292 H 0.3965 0.73086 0.29952 0.0
H293 H 0.465 0.71475 0.31763 0.0
H294 H 0.6374 0.74874 0.28334 0.0
H295 H 0.58212 0.72472 0.28577 0.0
C296 C 0.06915 0.72542 0.22066 0.0
C297 C 0.10557 0.73177 0.24233 0.0
C298 C 0.03765 0.73925 0.22242 0.0
C299 C 1.00284 0.77769 0.28729 0.0
H300 H 0.92427 0.79527 0.19698 0.0
C301 C 0.84679 0.79663 0.28527 0.0
C302 C 0.82824 0.81581 0.2629 0.0
C303 C 0.88405 0.7907 0.28567 0.0
C304 C 0.94617 0.79075 0.22245 0.0
H305 H 0.13748 0.75784 0.28249 0.0
H306 H 0.08223 0.78169 0.28615 0.0
H307 H 0.98255 0.77635 0.18979 0.0
H308 H 0.83461 0.84437 0.22445 0.0
H309 H 0.89974 0.83366 0.22455 0.0
H310 H 0.96575 0.79114 0.31993 0.0
C311 C 0.07823 0.76611 0.26757 0.0
C312 C 0.97936 0.77975 0.21832 0.0
C313 C 0.10984 0.75253 0.26526 0.0
C314 C 0.84833 0.82967 0.2423 0.0
C315 C 0.88543 0.8234 0.24206 0.0
C316 C 0.96936 0.7883 0.29141 0.0
C317 C 0.04177 0.75949 0.24642 0.0
C318 C 0.00787 0.77287 0.25069 0.0
C319 C 0.90334 0.80352 0.26309 0.0
C320 C 0.94051 0.79471 0.25903 0.0
H321 H 0.06493 0.70956 0.20269 0.0
H322 H 0.00987 0.73363 0.206 0.0
H323 H 0.02422 0.77243 0.31274 0.0
H324 H 0.83191 0.78559 0.30128 0.0
H325 H 0.89701 0.7752 0.30195 0.0
C326 C 0.94061 0.71893 0.79199 0.0
C327 C 0.9044 0.7277 0.7739 0.0
C328 C 0.97296 0.73171 0.79025 0.0
C329 C 0.00777 0.79078 0.76459 0.0
H330 H 0.09017 0.7514 0.74946 0.0
C331 C 0.16258 0.79631 0.72465 0.0
C332 C 0.1796 0.81513 0.74879 0.0
C333 C 0.12615 0.78862 0.72413 0.0
C334 C 0.06731 0.76278 0.75307 0.0
H335 H 0.87382 0.75732 0.741 0.0
H336 H 0.93029 0.77936 0.73721 0.0
H337 H 0.0333 0.73241 0.75746 0.0
H338 H 0.17117 0.84163 0.78973 0.0
H339 H 0.10768 0.82784 0.78965 0.0
H340 H 0.0418 0.82122 0.75907 0.0
C341 C 0.93373 0.76277 0.75328 0.0
C342 C 0.03481 0.75181 0.75844 0.0
C343 C 0.90129 0.75007 0.75536 0.0
C344 C 0.15852 0.82722 0.77054 0.0
C345 C 0.12214 0.81925 0.77052 0.0
C346 C 0.04038 0.80182 0.75899 0.0
C347 C 0.97002 0.75348 0.76996 0.0
C348 C 0.00464 0.76559 0.76451 0.0
C349 C 0.10613 0.79921 0.74842 0.0
C350 C 0.07059 0.78794 0.75311 0.0
H351 H 0.94401 0.7019 0.80691 0.0
H352 H 1.00037 0.72428 0.80434 0.0
H353 H 0.98521 0.80198 0.76941 0.0
H354 H 0.17818 0.78679 0.70742 0.0
H355 H 0.11432 0.77367 0.7058 0.0
C356 C 0.90475 0.25795 0.75281 0.0
C357 C 0.90712 0.27973 0.77302 0.0
C358 C 0.93762 0.24527 0.75183 0.0
C359 C 0.03837 0.23783 0.80176 0.0
H360 H 0.05092 0.21895 0.70233 0.0
C361 C 0.16925 0.21364 0.73288 0.0
C362 C 0.18952 0.19745 0.7605 0.0
C363 C 0.13232 0.22048 0.7327 0.0
C364 C 0.04776 0.22407 0.73027 0.0
H365 H 0.94571 0.30474 0.80934 0.0
H366 H 1.00283 0.28242 0.8082 0.0
H367 H 0.99111 0.23685 0.70723 0.0
H368 H 0.18592 0.17486 0.80836 0.0
H369 H 0.12179 0.18688 0.80801 0.0
H370 H 0.09512 0.22551 0.8248 0.0
C371 C 0.97564 0.27521 0.79293 0.0
C372 C 0.01344 0.23412 0.73313 0.0
C373 C 0.94291 0.28804 0.79346 0.0
C374 C 0.17132 0.18745 0.78675 0.0
C375 C 0.1346 0.19444 0.78675 0.0
C376 C 0.07245 0.22755 0.79897 0.0
C377 C 0.97343 0.25392 0.77157 0.0
C378 C 0.0086 0.24142 0.76886 0.0
C379 C 0.11499 0.21142 0.76029 0.0
C380 C 0.07772 0.22082 0.76316 0.0
H381 H 0.87763 0.25113 0.7366 0.0
H382 H 0.93506 0.22881 0.73539 0.0
H383 H 0.03539 0.24316 0.82969 0.0
H384 H 0.18232 0.22166 0.71218 0.0
H385 H 0.11798 0.23368 0.71203 0.0
C386 C 0.06356 0.28713 0.23834 0.0
C387 C 0.09693 0.27649 0.23367 0.0
C388 C 0.0311 0.27352 0.23537 0.0
C389 C 0.99792 0.21319 0.2475 0.0
H390 H 0.90073 0.24221 0.20006 0.0
C391 C 0.84425 0.17534 0.23986 0.0
C392 C 0.82156 0.19253 0.25206 0.0
C393 C 0.88054 0.18148 0.2366 0.0
C394 C 0.92767 0.23381 0.21324 0.0
H395 H 0.12222 0.24316 0.22152 0.0
H396 H 0.0648 0.21902 0.21654 0.0
H397 H 0.95841 0.26058 0.19165 0.0
H398 H 0.8205 0.22879 0.27376 0.0
H399 H 0.88318 0.23937 0.26786 0.0
H400 H 0.96651 0.18663 0.26972 0.0
C401 C 0.06415 0.23804 0.22253 0.0
C402 C 0.96067 0.24431 0.20847 0.0
C403 C 0.09684 0.25185 0.22512 0.0
C404 C 0.83696 0.21524 0.26373 0.0
C405 C 0.87282 0.22135 0.26027 0.0
C406 C 0.9646 0.2025 0.25206 0.0
C407 C 0.03096 0.2488 0.22774 0.0
C408 C 0.99626 0.2347 0.22675 0.0
C409 C 0.89436 0.20488 0.24535 0.0
C410 C 0.92935 0.2133 0.23609 0.0
H411 H 0.06259 0.30609 0.24479 0.0
H412 H 0.00626 0.28233 0.24013 0.0
H413 H 0.02495 0.20541 0.26199 0.0
H414 H 0.83317 0.15769 0.23065 0.0
H415 H 0.8968 0.16847 0.22519 0.0
C416 C 0.87823 0.36558 0.89831 0.0
C417 C 0.88763 0.36465 0.86289 0.0
C418 C 0.90601 0.36854 0.93252 0.0
C419 C 0.009 0.36047 0.97465 0.0
H420 H 0.98519 0.39067 0.06252 0.0
C421 C 0.11851 0.37006 0.12135 0.0
C422 C 0.10679 0.36193 0.15337 0.0
C423 C 0.09252 0.37296 0.08579 0.0
C424 C 0.99217 0.3821 0.03827 0.0
H425 H 0.934 0.36712 0.83594 0.0
H426 H 0.98282 0.3731 0.896 0.0
H427 H 0.93998 0.3929 0.99991 0.0
H428 H 0.0581 0.35107 0.17304 0.0
H429 H 0.01236 0.35679 0.11085 0.0
H430 H 0.06158 0.35008 0.01328 0.0
C431 C 0.95372 0.37097 0.89715 0.0
C432 C 0.96623 0.38329 1.0023 0.0
C433 C 0.9257 0.36782 0.86261 0.0
C434 C 0.06808 0.35749 0.1491 0.0
C435 C 0.0419 0.36078 0.11351 0.0
C436 C 0.03519 0.35961 0.01056 0.0
C437 C 0.94429 0.37096 0.93269 0.0
C438 C 0.97388 0.37207 0.97005 0.0
C439 C 0.05398 0.36815 0.08132 0.0
C440 C 0.0268 0.37008 0.04289 0.0
H441 H 0.8493 0.36317 0.89993 0.0
H442 H 0.8974 0.36794 0.95901 0.0
H443 H 0.01584 0.35129 0.95086 0.0
H444 H 0.1481 0.37351 0.12335 0.0
H445 H 0.10264 0.37886 0.06164 0.0
C446 C 0.08971 0.63281 0.14329 0.0
C447 C 0.11747 0.65039 0.14457 0.0
C448 C 0.06197 0.62828 0.10896 0.0
C449 C 0.03994 0.64124 1.00294 0.0
H450 H 0.93817 0.62364 0.00485 0.0
C451 C 0.92039 0.63466 0.86191 0.0
C452 C 0.88454 0.64301 0.86356 0.0
C453 C 0.94915 0.63098 0.89574 0.0
C454 C 0.96635 0.6288 1.00362 0.0
H455 H 0.13661 0.67785 0.11152 0.0
H456 H 0.08806 0.67091 0.05312 0.0
H457 H 0.98673 0.62725 0.06464 0.0
H458 H 0.85102 0.65366 0.90258 0.0
H459 H 0.90062 0.64831 0.96029 0.0
H460 H 0.01909 0.64449 0.94225 0.0
C461 C 0.08832 0.65961 0.07752 0.0
C462 C 0.99453 0.63048 0.03815 0.0
C463 C 0.11617 0.66378 0.11133 0.0
C464 C 0.87807 0.64706 0.89985 0.0
C465 C 0.90672 0.64374 0.93336 0.0
C466 C 0.01163 0.64002 0.96851 0.0
C467 C 0.06105 0.64154 0.07541 0.0
C468 C 0.03164 0.63728 0.03846 0.0
C469 C 0.94291 0.63586 0.93203 0.0
C470 C 0.97413 0.63431 0.96829 0.0
H471 H 0.09001 0.62219 0.16844 0.0
H472 H 0.04169 0.61411 0.10864 0.0
H473 H 0.06833 0.64578 1.00157 0.0
H474 H 0.92643 0.63133 0.83454 0.0
H475 H 0.97636 0.62452 0.89331 0.0
C476 C 0.58621 0.87004 0.14708 0.0
C477 C 0.61981 0.85808 0.146 0.0
C478 C 0.55811 0.87454 0.11305 0.0
C479 C 0.54116 0.8731 0.00534 0.0
H480 H 0.43636 0.86691 0.00744 0.0
C481 C 0.41796 0.87425 0.86523 0.0
C482 C 0.38763 0.85868 0.86468 0.0
C483 C 0.4461 0.87825 0.89951 0.0
C484 C 0.46549 0.86849 0.00613 0.0
H485 H 0.6497 0.84125 0.108 0.0
H486 H 0.601 0.84817 0.04994 0.0
H487 H 0.48546 0.86595 0.06702 0.0
H488 H 0.36432 0.83426 0.89934 0.0
H489 H 0.41301 0.84048 0.95763 0.0
H490 H 0.52125 0.87399 0.9442 0.0
C491 C 0.59647 0.855 0.07648 0.0
C492 C 0.49379 0.86837 0.04062 0.0
C493 C 0.62452 0.85081 0.11016 0.0
C494 C 0.38663 0.84688 0.89878 0.0
C495 C 0.41466 0.85059 0.93256 0.0
C496 C 0.51286 0.87284 0.97077 0.0
C497 C 0.56275 0.86692 0.07719 0.0
C498 C 0.5322 0.87006 0.04078 0.0
C499 C 0.44469 0.86652 0.93378 0.0
C500 C 0.47463 0.86988 0.97056 0.0
H501 H 0.58164 0.87592 0.17412 0.0
H502 H 0.53278 0.884 0.11492 0.0
H503 H 0.57024 0.87517 1.00409 0.0
H504 H 0.41963 0.88356 0.83944 0.0
H505 H 0.46867 0.89072 0.8992 0.0
C506 C 0.62111 0.13248 0.11716 0.0
C507 C 0.61302 0.14356 0.14916 0.0
C508 C 0.59322 0.13032 0.08265 0.0
C509 C 0.51146 0.16211 0.02649 0.0
H510 H 0.49261 0.10493 0.963 0.0
C511 C 0.4343 0.16484 0.86504 0.0
C512 C 0.4031 0.14934 0.85379 0.0
C513 C 0.45983 0.16249 0.90115 0.0
C514 C 0.49759 0.12102 0.98045 0.0
H515 H 0.56911 0.16055 0.17038 0.0
H516 H 0.5203 0.15722 0.10952 0.0
H517 H 0.53518 0.1029 0.02766 0.0
H518 H 0.37524 0.11857 0.87102 0.0
H519 H 0.42062 0.11399 0.93348 0.0
H520 H 0.47477 0.18039 0.97897 0.0
C521 C 0.54821 0.14994 0.11147 0.0
C522 C 0.52192 0.11986 0.01738 0.0
C523 C 0.57598 0.15161 0.14637 0.0
C524 C 0.39904 0.13076 0.87876 0.0
C525 C 0.425 0.12812 0.91452 0.0
C526 C 0.48776 0.16337 0.98932 0.0
C527 C 0.5568 0.13969 0.07904 0.0
C528 C 0.5291 0.14039 0.04081 0.0
C529 C 0.45514 0.14431 0.92649 0.0
C530 C 0.48063 0.14286 0.96585 0.0
H531 H 0.6495 0.12629 0.11841 0.0
H532 H 0.60075 0.12248 0.05815 0.0
H533 H 0.51679 0.17828 0.0437 0.0
H534 H 0.43803 0.17948 0.84668 0.0
H535 H 0.48299 0.17511 0.90951 0.0
C536 C 0.2439 0.59111 0.2615 0.0
C537 C 0.21938 0.60557 0.27626 0.0
C538 C 0.24795 0.56669 0.27023 0.0
C539 C 0.19443 0.51668 0.29514 0.0
H540 H 0.28903 0.48207 0.30858 0.0
C541 C 0.19754 0.41362 0.30244 0.0
C542 C 0.21909 0.40199 0.28062 0.0
C543 C 0.20178 0.4382 0.31012 0.0
C544 C 0.26233 0.49143 0.30465 0.0
H545 H 0.18111 0.60581 0.31321 0.0
H546 H 0.18808 0.56297 0.32837 0.0
H547 H 0.2889 0.52588 0.3076 0.0
H548 H 0.26347 0.40696 0.25145 0.0
H549 H 0.27037 0.44986 0.26414 0.0
H550 H 0.16753 0.48243 0.29061 0.0
C551 C 0.20402 0.57063 0.30982 0.0
C552 C 0.26229 0.51655 0.30422 0.0
C553 C 0.20022 0.5952 0.30136 0.0
C554 C 0.24645 0.4153 0.26842 0.0
C555 C 0.25049 0.43996 0.27585 0.0
C556 C 0.19442 0.49159 0.29535 0.0
C557 C 0.22739 0.55601 0.29375 0.0
C558 C 0.22824 0.52947 0.29881 0.0
C559 C 0.22749 0.45187 0.29592 0.0
C560 C 0.22828 0.47859 0.29949 0.0
H561 H 0.25925 0.59853 0.24223 0.0
H562 H 0.26591 0.55596 0.25707 0.0
H563 H 0.16763 0.52604 0.29031 0.0
H564 H 0.17648 0.40386 0.31266 0.0
H565 H 0.18422 0.4466 0.32646 0.0
C566 C 0.75954 0.58976 0.73776 0.0
C567 C 0.78492 0.60473 0.72536 0.0
C568 C 0.75596 0.56559 0.72726 0.0
C569 C 0.81153 0.51659 0.70167 0.0
H570 H 0.71733 0.48164 0.68733 0.0
C571 C 0.80795 0.41278 0.70059 0.0
C572 C 0.78785 0.40305 0.72539 0.0
C573 C 0.80391 0.43708 0.6903 0.0
C574 C 0.74387 0.49113 0.69123 0.0
H575 H 0.82512 0.60621 0.69053 0.0
H576 H 0.81884 0.56382 0.67213 0.0
H577 H 0.71665 0.52542 0.68732 0.0
H578 H 0.74607 0.41088 0.75687 0.0
H579 H 0.73908 0.45293 0.73903 0.0
H580 H 0.83891 0.48231 0.70705 0.0
C581 C 0.80193 0.57086 0.69028 0.0
C582 C 0.74348 0.51622 0.69123 0.0
C583 C 0.80531 0.59518 0.7006 0.0
C584 C 0.76215 0.4178 0.73789 0.0
C585 C 0.75791 0.44193 0.7274 0.0
C586 C 0.81192 0.49147 0.70166 0.0
C587 C 0.77777 0.55567 0.70417 0.0
C588 C 0.77742 0.52926 0.69764 0.0
C589 C 0.77937 0.45205 0.70423 0.0
C590 C 0.77821 0.47845 0.69764 0.0
H591 H 0.74326 0.59652 0.75673 0.0
H592 H 0.73739 0.55441 0.73885 0.0
H593 H 0.83824 0.52603 0.70705 0.0
H594 H 0.82799 0.40192 0.69046 0.0
H595 H 0.82059 0.44428 0.67211 0.0
C596 C 0.69536 0.91292 0.29959 0.0
C597 C 0.71856 0.90125 0.27956 0.0
C598 C 0.6987 0.93774 0.30635 0.0
C599 C 0.73028 0.99104 0.26315 0.0
H600 H 0.71723 0.02519 0.3525 0.0
C601 C 0.74752 0.09233 0.27103 0.0
C602 C 0.71882 0.1055 0.28128 0.0
C603 C 0.75129 0.06774 0.27804 0.0
C604 C 0.72075 0.01587 0.32731 0.0
H605 H 0.76556 0.90597 0.25397 0.0
H606 H 0.77205 0.9488 0.26657 0.0
H607 H 0.71692 0.98113 0.35179 0.0
H608 H 0.67315 0.10349 0.30929 0.0
H609 H 0.67936 0.06018 0.32105 0.0
H610 H 0.73348 0.02536 0.23823 0.0
C611 C 0.75042 0.93911 0.27596 0.0
C612 C 0.72055 0.99066 0.3269 0.0
C613 C 0.74685 0.9145 0.26892 0.0
C614 C 0.69562 0.09381 0.30117 0.0
C615 C 0.69918 0.06901 0.30789 0.0
C616 C 0.7305 0.01603 0.26357 0.0
C617 C 0.72548 0.95123 0.2934 0.0
C618 C 0.72565 0.97796 0.29485 0.0
C619 C 0.72616 0.05556 0.29503 0.0
C620 C 0.72607 0.02883 0.2957 0.0
H621 H 0.67324 0.90318 0.3081 0.0
H622 H 0.67902 0.94651 0.31984 0.0
H623 H 0.7331 0.98194 0.2375 0.0
H624 H 0.76618 0.1009 0.25613 0.0
H625 H 0.77308 0.05807 0.26874 0.0
C626 C 0.2553 0.91551 0.74398 0.0
C627 C 0.28412 0.90286 0.73305 0.0
C628 C 0.25061 0.94012 0.73732 0.0
C629 C 0.28016 0.99234 0.68722 0.0
H630 H 0.26217 0.02722 0.77386 0.0
C631 C 0.31089 0.09389 0.71523 0.0
C632 C 0.28678 0.10722 0.73225 0.0
C633 C 0.30559 0.0692 0.70898 0.0
C634 C 0.26654 0.01782 0.74908 0.0
H635 H 0.32942 0.90589 0.70475 0.0
H636 H 0.32189 0.94914 0.69387 0.0
H637 H 0.26226 0.98373 0.77434 0.0
H638 H 0.23661 0.10518 0.75367 0.0
H639 H 0.22727 0.0622 0.74252 0.0
H640 H 0.28565 0.02678 0.66268 0.0
C641 C 0.30247 0.93994 0.7071 0.0
C642 C 0.26656 0.99278 0.7493 0.0
C643 C 0.30686 0.91514 0.71335 0.0
C644 C 0.25593 0.09549 0.7408 0.0
C645 C 0.2507 0.0708 0.73464 0.0
C646 C 0.28032 0.01751 0.68709 0.0
C647 C 0.275 0.95287 0.72008 0.0
C648 C 0.27346 0.97964 0.71846 0.0
C649 C 0.27608 0.05723 0.71964 0.0
C650 C 0.27364 0.03054 0.71813 0.0
H651 H 0.23698 0.90648 0.75877 0.0
H652 H 0.22842 0.94928 0.7467 0.0
H653 H 0.28521 0.98286 0.66282 0.0
H654 H 0.33486 0.10232 0.7081 0.0
H655 H 0.32577 0.05931 0.69756 0.0
C656 C 0.2545 0.22242 0.63904 0.0
C657 C 0.28369 0.20531 0.64839 0.0
C658 C 0.24474 0.23313 0.60303 0.0
C659 C 0.25501 0.22929 0.50399 0.0
H660 H 0.24024 0.29826 0.50565 0.0
C661 C 0.24628 0.28604 0.37019 0.0
C662 C 0.21733 0.3033 0.3605 0.0
C663 C 0.25529 0.27519 0.4061 0.0
C664 C 0.24387 0.279 0.50461 0.0
H665 H 0.32426 0.18501 0.62671 0.0
H666 H 0.3073 0.2039 0.56322 0.0
H667 H 0.25267 0.27556 0.56521 0.0
H668 H 0.17642 0.32371 0.38151 0.0
H669 H 0.19209 0.30456 0.44486 0.0
H670 H 0.24628 0.23274 0.4434 0.0
C671 C 0.2918 0.20891 0.58387 0.0
C672 C 0.25097 0.26594 0.53875 0.0
C673 C 0.30145 0.198 0.62012 0.0
C674 C 0.19902 0.31058 0.38836 0.0
C675 C 0.20794 0.29953 0.42452 0.0
C676 C 0.24792 0.24235 0.46986 0.0
C677 C 0.26414 0.22718 0.57541 0.0
C678 C 0.25659 0.2409 0.53887 0.0
C679 C 0.2354 0.28116 0.43328 0.0
C680 C 0.24241 0.26739 0.46975 0.0
H681 H 0.24003 0.2282 0.66021 0.0
H682 H 0.22258 0.24658 0.59717 0.0
H683 H 0.2587 0.21003 0.50296 0.0
H684 H 0.2612 0.28029 0.34938 0.0
H685 H 0.27733 0.26167 0.41222 0.0
C686 C 0.75396 0.29481 0.63206 0.0
C687 C 0.79081 0.30278 0.6498 0.0
C688 C 0.74566 0.28395 0.59604 0.0
C689 C 0.77959 0.27456 0.50899 0.0
H690 H 0.71615 0.21788 0.49757 0.0
C691 C 0.7559 0.21459 0.37492 0.0
C692 C 0.71903 0.20613 0.35858 0.0
C693 C 0.76528 0.22532 0.41109 0.0
C694 C 0.73354 0.2338 0.50005 0.0
H695 H 0.8475 0.30651 0.64255 0.0
H696 H 0.83297 0.28744 0.57916 0.0
H697 H 0.73142 0.23983 0.55798 0.0
H698 H 0.66343 0.20158 0.3683 0.0
H699 H 0.67971 0.22052 0.43163 0.0
H700 H 0.78153 0.26862 0.45099 0.0
C701 C 0.81046 0.28971 0.59334 0.0
C702 C 0.74234 0.24643 0.53475 0.0
C703 C 0.81881 0.3007 0.62961 0.0
C704 C 0.69214 0.20773 0.38015 0.0
C705 C 0.70152 0.21864 0.41646 0.0
C706 C 0.77072 0.26195 0.47423 0.0
C707 C 0.77396 0.28063 0.57658 0.0
C708 C 0.76535 0.26705 0.53966 0.0
C709 C 0.73803 0.22808 0.43202 0.0
C710 C 0.74755 0.24139 0.46925 0.0
H711 H 0.73154 0.29638 0.64655 0.0
H712 H 0.71704 0.2778 0.58365 0.0
H713 H 0.79699 0.29048 0.51155 0.0
H714 H 0.77748 0.21343 0.3593 0.0
H715 H 0.79391 0.23175 0.42246 0.0
C716 C 0.69064 0.80006 0.38245 0.0
C717 C 0.71937 0.80381 0.36369 0.0
C718 C 0.69905 0.78922 0.41873 0.0
C719 C 0.77036 0.74857 0.47855 0.0
H720 H 0.72385 0.76638 0.5596 0.0
C721 C 0.81638 0.70829 0.63215 0.0
C722 C 0.78797 0.7049 0.65141 0.0
C723 C 0.8079 0.71952 0.59618 0.0
C724 C 0.73674 0.76094 0.53707 0.0
H725 H 0.77973 0.80087 0.36941 0.0
H726 H 0.79435 0.78259 0.43254 0.0
H727 H 0.70909 0.7892 0.50007 0.0
H728 H 0.72799 0.70902 0.64696 0.0
H729 H 0.71314 0.72784 0.58426 0.0
H730 H 0.79789 0.72027 0.51541 0.0
C731 C 0.76523 0.78727 0.419 0.0
C732 C 0.7283 0.7741 0.50296 0.0
C733 C 0.75686 0.79797 0.38292 0.0
C734 C 0.75064 0.71163 0.63305 0.0
C735 C 0.74216 0.72265 0.59721 0.0
C736 C 0.77875 0.73539 0.51262 0.0
C737 C 0.73633 0.78203 0.43686 0.0
C738 C 0.74508 0.76813 0.4733 0.0
C739 C 0.77081 0.72742 0.57877 0.0
C740 C 0.76202 0.74137 0.54233 0.0
H741 H 0.66146 0.80418 0.36825 0.0
H742 H 0.6761 0.78542 0.4317 0.0
H743 H 0.78329 0.74318 0.45601 0.0
H744 H 0.84544 0.70347 0.6457 0.0
H745 H 0.83071 0.72296 0.58285 0.0
C746 C 0.24924 0.79742 0.62982 0.0
C747 C 0.28642 0.80441 0.64818 0.0
C748 C 0.24093 0.7865 0.59384 0.0
C749 C 0.27757 0.77414 0.50897 0.0
H750 H 0.21022 0.71932 0.49725 0.0
C751 C 0.25766 0.71088 0.37969 0.0
C752 C 0.22045 0.70409 0.36101 0.0
C753 C 0.26576 0.72196 0.41554 0.0
C754 C 0.22876 0.73471 0.49987 0.0
H755 H 0.34376 0.80647 0.64223 0.0
H756 H 0.32931 0.78724 0.5791 0.0
H757 H 0.22416 0.74251 0.55649 0.0
H758 H 0.16284 0.70256 0.36632 0.0
H759 H 0.17698 0.722 0.42928 0.0
H760 H 0.28223 0.76628 0.45237 0.0
C761 C 0.30648 0.79037 0.59256 0.0
C762 C 0.23674 0.74808 0.53384 0.0
C763 C 0.31479 0.80148 0.62869 0.0
C764 C 0.19183 0.70739 0.38009 0.0
C765 C 0.19995 0.71862 0.41611 0.0
C766 C 0.26962 0.76075 0.47502 0.0
C767 C 0.26961 0.7821 0.57523 0.0
C768 C 0.26119 0.76801 0.53884 0.0
C769 C 0.23686 0.72667 0.43373 0.0
C770 C 0.24517 0.74083 0.47004 0.0
H771 H 0.22663 0.79964 0.64393 0.0
H772 H 0.21206 0.78101 0.58096 0.0
H773 H 0.2961 0.78953 0.51157 0.0
H774 H 0.28047 0.70837 0.36595 0.0
H775 H 0.29465 0.7273 0.42867 0.0
C776 C 0.21596 0.26886 0.13007 0.0
C777 C 0.20732 0.29338 0.13152 0.0
C778 C 0.22563 0.25932 0.09821 0.0
C779 C 0.22369 0.27037 0.9973 0.0
H780 H 0.31348 0.23016 0.0207 0.0
C781 C 0.29453 0.24189 0.88039 0.0
C782 C 0.30265 0.21729 0.87908 0.0
C783 C 0.28565 0.25174 0.91245 0.0
C784 C 0.28825 0.24121 0.01375 0.0
H785 H 0.19952 0.32676 0.09957 0.0
H786 H 0.21663 0.31004 0.04389 0.0
H787 H 0.28863 0.24554 0.07264 0.0
H788 H 0.31051 0.18408 0.91149 0.0
H789 H 0.29478 0.20133 0.96751 0.0
H790 H 0.22325 0.266 0.93842 0.0
C791 C 0.21591 0.29824 0.06747 0.0
C792 C 0.27393 0.24994 0.04341 0.0
C793 C 0.20617 0.30782 0.09939 0.0
C794 C 0.30427 0.20308 0.91156 0.0
C795 C 0.2953 0.21297 0.94368 0.0
C796 C 0.23801 0.26164 0.96765 0.0
C797 C 0.22684 0.27407 0.06712 0.0
C798 C 0.24145 0.26455 0.03546 0.0
C799 C 0.28473 0.23722 0.94388 0.0
C800 C 0.27043 0.24699 0.97559 0.0
H801 H 0.21662 0.25716 0.15414 0.0
H802 H 0.23305 0.24049 0.09829 0.0
H803 H 0.19841 0.28138 0.99034 0.0
H804 H 0.29356 0.2534 0.85603 0.0
H805 H 0.27849 0.27062 0.91223 0.0
C806 C 0.70757 0.20325 0.10189 0.0
C807 C 0.70671 0.21826 0.13292 0.0
C808 C 0.71532 0.2126 0.06907 0.0
C809 C 0.72244 0.26798 0.01609 0.0
H810 H 0.79772 0.23148 0.98104 0.0
C811 C 0.79082 0.30616 0.9036 0.0
C812 C 0.79268 0.29088 0.87319 0.0
C813 C 0.78278 0.29704 0.93644 0.0
C814 C 0.77645 0.24174 0.99024 0.0
H815 H 0.71077 0.255 0.15317 0.0
H816 H 0.72459 0.27154 0.0954 0.0
H817 H 0.77503 0.21671 0.03459 0.0
H818 H 0.7899 0.25395 0.85398 0.0
H819 H 0.77538 0.23781 0.91164 0.0
H820 H 0.72377 0.29298 0.97169 0.0
C821 C 0.71911 0.2525 0.09655 0.0
C822 C 0.76338 0.23329 0.02085 0.0
C823 C 0.71109 0.2431 0.12952 0.0
C824 C 0.78878 0.26605 0.87716 0.0
C825 C 0.78039 0.25688 0.91009 0.0
C826 C 0.73547 0.27642 0.98545 0.0
C827 C 0.72262 0.23716 0.06662 0.0
C828 C 0.73616 0.24629 0.03401 0.0
C829 C 0.77611 0.27243 0.93948 0.0
C830 C 0.76267 0.26341 0.97224 0.0
H831 H 0.70377 0.18404 0.10366 0.0
H832 H 0.7168 0.20045 0.04605 0.0
H833 H 0.7012 0.27824 0.02536 0.0
H834 H 0.79429 0.32538 0.90141 0.0
H835 H 0.78075 0.30938 0.95903 0.0
C836 C 0.79132 0.73993 0.88234 0.0
C837 C 0.7934 0.71521 0.87596 0.0
C838 C 0.78543 0.74822 0.91692 0.0
C839 C 0.74325 0.72702 0.99285 0.0
H840 H 0.78578 0.7853 0.04492 0.0
C841 C 0.7218 0.75988 0.13886 0.0
C842 C 0.7168 0.78471 0.14164 0.0
C843 C 0.72972 0.75023 0.10596 0.0
C844 C 0.77348 0.76907 0.03044 0.0
H845 H 0.79447 0.67989 0.90129 0.0
H846 H 0.78558 0.69434 0.96184 0.0
H847 H 0.8069 0.77124 0.98988 0.0
H848 H 0.7125 0.81864 0.11151 0.0
H849 H 0.72544 0.80181 0.05413 0.0
H850 H 0.7098 0.72491 0.03348 0.0
C851 C 0.78706 0.7073 0.93996 0.0
C852 C 0.78558 0.76105 0.999 0.0
C853 C 0.79246 0.69906 0.90546 0.0
C854 C 0.71682 0.79945 0.11019 0.0
C855 C 0.7245 0.78988 0.07751 0.0
C856 C 0.73124 0.735 0.02439 0.0
C857 C 0.78198 0.73186 0.9455 0.0
C858 C 0.77044 0.74002 0.97977 0.0
C859 C 0.73251 0.76538 0.07568 0.0
C860 C 0.74596 0.75623 0.04317 0.0
H861 H 0.79186 0.75267 0.85988 0.0
H862 H 0.78157 0.76728 0.92043 0.0
H863 H 0.73056 0.71094 0.97816 0.0
H864 H 0.722 0.74822 0.16287 0.0
H865 H 0.73567 0.73123 0.10506 0.0
C866 C 0.21008 0.70621 0.10574 0.0
C867 C 0.21334 0.72141 0.13745 0.0
C868 C 0.21676 0.71488 0.0721 0.0
C869 C 0.22869 0.76882 0.01859 0.0
H870 H 0.2977 0.72812 0.98092 0.0
C871 C 0.29605 0.80243 0.90355 0.0
C872 C 0.29407 0.78708 0.87226 0.0
C873 C 0.28935 0.79374 0.93716 0.0
C874 C 0.27819 0.73953 0.9909 0.0
H875 H 0.22339 0.75785 0.15836 0.0
H876 H 0.23554 0.77323 0.099 0.0
H877 H 0.27533 0.71528 0.03578 0.0
H878 H 0.28596 0.75042 0.85202 0.0
H879 H 0.27343 0.73503 0.91118 0.0
H880 H 0.23139 0.79303 0.97366 0.0
C881 C 0.2276 0.7546 0.10029 0.0
C882 C 0.26532 0.73222 0.0222 0.0
C883 C 0.22056 0.74589 0.13411 0.0
C884 C 0.28788 0.76249 0.87596 0.0
C885 C 0.28062 0.75378 0.9097 0.0
C886 C 0.24149 0.77612 0.98724 0.0
C887 C 0.22721 0.73888 0.06962 0.0
C888 C 0.2404 0.74678 0.03627 0.0
C889 C 0.27986 0.76959 0.93997 0.0
C890 C 0.2665 0.76159 0.97321 0.0
H891 H 0.20415 0.68727 0.10762 0.0
H892 H 0.21526 0.70255 0.04853 0.0
H893 H 0.20923 0.78025 0.02863 0.0
H894 H 0.30094 0.82148 0.90135 0.0
H895 H 0.29003 0.80619 0.96041 0.0
loop_
_geom_bond_atom_site_label_1
_geom_bond_atom_site_label_2
_geom_bond_distance
_geom_bond_site_symmetry_2
_ccdc_geom_bond_type
Fe0 O2 1.918 . S
Fe0 O5 1.997 . S
Fe0 O6 2.002 . S
Fe0 O11 1.976 . S
Fe0 O14 1.996 . S
Fe1 O2 1.918 . S
Fe1 O9 1.997 . S
Fe1 O12 1.996 . S
Fe1 O16 1.976 . S
Fe1 O19 2.002 . S
O2 Fe0 1.918 . S
O2 Fe1 1.918 . S
O2 Fe3 1.918 . S
Fe3 O2 1.918 . S
Fe3 O4 2.002 . S
Fe3 O13 1.976 . S
Fe3 O17 1.996 . S
Fe3 O20 1.997 . S
O4 Fe3 2.002 . S
O4 C21 1.295 . S
O5 Fe0 1.997 . S
O5 C21 1.235 . S
O6 Fe0 2.002 . S
O6 C7 1.295 . S
C7 O6 1.295 . S
C7 O9 1.235 . S
C8 O13 1.287 . S
C8 O14 1.255 . S
O9 Fe1 1.997 . S
O9 C7 1.235 . S
C10 O16 1.287 . S
C10 O17 1.255 . S
O11 Fe0 1.976 . S
O11 C18 1.287 . S
O12 Fe1 1.996 . S
O12 C18 1.255 . S
O13 Fe3 1.976 . S
O13 C8 1.287 . S
O14 Fe0 1.996 . S
O14 C8 1.255 . S
C15 O19 1.295 . S
C15 O20 1.235 . S
O16 Fe1 1.976 . S
O16 C10 1.287 . S
O17 Fe3 1.996 . S
O17 C10 1.255 . S
C18 O11 1.287 . S
C18 O12 1.255 . S
O19 Fe1 2.002 . S
O19 C15 1.295 . S
O20 Fe3 1.997 . S
O20 C15 1.235 . S
C21 O4 1.295 . S
C21 O5 1.235 . S
Fe22 O24 1.918 . S
Fe22 O27 1.997 . S
Fe22 O28 2.002 . S
Fe22 O33 1.976 . S
Fe22 O36 1.996 . S
Fe23 O24 1.918 . S
Fe23 O31 1.997 . S
Fe23 O34 1.996 . S
Fe23 O38 1.976 . S
Fe23 O41 2.002 . S
O24 Fe22 1.918 . S
O24 Fe23 1.918 . S
O24 Fe25 1.918 . S
Fe25 O24 1.918 . S
Fe25 O26 2.002 . S
Fe25 O35 1.976 . S
Fe25 O39 1.996 . S
Fe25 O42 1.997 . S
O26 Fe25 2.002 . S
O26 C43 1.295 . S
O27 Fe22 1.997 . S
O27 C43 1.235 . S
O28 Fe22 2.002 . S
O28 C29 1.295 . S
C29 O28 1.295 . S
C29 O31 1.235 . S
C30 O35 1.287 . S
C30 O36 1.255 . S
O31 Fe23 1.997 . S
O31 C29 1.235 . S
C32 O38 1.287 . S
C32 O39 1.255 . S
O33 Fe22 1.976 . S
O33 C40 1.287 . S
O34 Fe23 1.996 . S
O34 C40 1.255 . S
O35 Fe25 1.976 . S
O35 C30 1.287 . S
O36 Fe22 1.996 . S
O36 C30 1.255 . S
C37 O41 1.295 . S
C37 O42 1.235 . S
O38 Fe23 1.976 . S
O38 C32 1.287 . S
O39 Fe25 1.996 . S
O39 C32 1.255 . S
C40 O33 1.287 . S
C40 O34 1.255 . S
O41 Fe23 2.002 . S
O41 C37 1.295 . S
O42 Fe25 1.997 . S
O42 C37 1.235 . S
C43 O26 1.295 . S
C43 O27 1.235 . S
Fe44 O46 1.918 . S
Fe44 O49 1.997 . S
Fe44 O50 2.002 . S
Fe44 O55 1.976 . S
Fe44 O58 1.996 . S
Fe45 O46 1.918 . S
Fe45 O53 1.997 . S
Fe45 O56 1.996 . S
Fe45 O60 1.976 . S
Fe45 O63 2.002 . S
O46 Fe44 1.918 . S
O46 Fe45 1.918 . S
O46 Fe47 1.918 . S
Fe47 O46 1.918 . S
Fe47 O48 2.002 . S
Fe47 O57 1.976 . S
Fe47 O61 1.996 . S
Fe47 O64 1.997 . S
O48 Fe47 2.002 . S
O48 C65 1.295 . S
O49 Fe44 1.997 . S
O49 C65 1.235 . S
O50 Fe44 2.002 . S
O50 C51 1.295 . S
C51 O50 1.295 . S
C51 O53 1.235 . S
C52 O57 1.287 . S
C52 O58 1.255 . S
O53 Fe45 1.997 . S
O53 C51 1.235 . S
C54 O60 1.287 . S
C54 O61 1.255 . S
O55 Fe44 1.976 . S
O55 C62 1.287 . S
O56 Fe45 1.996 . S
O56 C62 1.255 . S
O57 Fe47 1.976 . S
O57 C52 1.287 . S
O58 Fe44 1.996 . S
O58 C52 1.255 . S
C59 O63 1.295 . S
C59 O64 1.235 . S
O60 Fe45 1.976 . S
O60 C54 1.287 . S
O61 Fe47 1.996 . S
O61 C54 1.255 . S
C62 O55 1.287 . S
C62 O56 1.255 . S
O63 Fe45 2.002 . S
O63 C59 1.295 . S
O64 Fe47 1.997 . S
O64 C59 1.235 . S
C65 O48 1.295 . S
C65 O49 1.235 . S
Fe66 O68 1.918 . S
Fe66 O71 1.997 . S
Fe66 O72 2.002 . S
Fe66 O77 1.976 . S
Fe66 O80 1.996 . S
Fe67 O68 1.918 . S
Fe67 O75 1.997 . S
Fe67 O78 1.996 . S
Fe67 O82 1.976 . S
Fe67 O85 2.002 . S
O68 Fe66 1.918 . S
O68 Fe67 1.918 . S
O68 Fe69 1.918 . S
Fe69 O68 1.918 . S
Fe69 O70 2.002 . S
Fe69 O79 1.976 . S
Fe69 O83 1.996 . S
Fe69 O86 1.997 . S
O70 Fe69 2.002 . S
O70 C87 1.295 . S
O71 Fe66 1.997 . S
O71 C87 1.235 . S
O72 Fe66 2.002 . S
O72 C73 1.295 . S
C73 O72 1.295 . S
C73 O75 1.235 . S
C74 O79 1.287 . S
C74 O80 1.255 . S
O75 Fe67 1.997 . S
O75 C73 1.235 . S
C76 O82 1.287 . S
C76 O83 1.255 . S
O77 Fe66 1.976 . S
O77 C84 1.287 . S
O78 Fe67 1.996 . S
O78 C84 1.255 . S
O79 Fe69 1.976 . S
O79 C74 1.287 . S
O80 Fe66 1.996 . S
O80 C74 1.255 . S
C81 O85 1.295 . S
C81 O86 1.235 . S
O82 Fe67 1.976 . S
O82 C76 1.287 . S
O83 Fe69 1.996 . S
O83 C76 1.255 . S
C84 O77 1.287 . S
C84 O78 1.255 . S
O85 Fe67 2.002 . S
O85 C81 1.295 . S
O86 Fe69 1.997 . S
O86 C81 1.235 . S
C87 O70 1.295 . S
C87 O71 1.235 . S
Fe88 O90 1.918 . S
Fe88 O93 1.997 . S
Fe88 O94 2.002 . S
Fe88 O99 1.976 . S
Fe88 O102 1.996 . S
Fe89 O90 1.918 . S
Fe89 O97 1.997 . S
Fe89 O100 1.996 . S
Fe89 O104 1.976 . S
Fe89 O107 2.002 . S
O90 Fe88 1.918 . S
O90 Fe89 1.918 . S
O90 Fe91 1.918 . S
Fe91 O90 1.918 . S
Fe91 O92 2.002 . S
Fe91 O101 1.976 . S
Fe91 O105 1.996 . S
Fe91 O108 1.997 . S
O92 Fe91 2.002 . S
O92 C109 1.295 . S
O93 Fe88 1.997 . S
O93 C109 1.235 . S
O94 Fe88 2.002 . S
O94 C95 1.295 . S
C95 O94 1.295 . S
C95 O97 1.235 . S
C96 O101 1.287 . S
C96 O102 1.255 . S
O97 Fe89 1.997 . S
O97 C95 1.235 . S
C98 O104 1.287 . S
C98 O105 1.255 . S
O99 Fe88 1.976 . S
O99 C106 1.287 . S
O100 Fe89 1.996 . S
O100 C106 1.255 . S
O101 Fe91 1.976 . S
O101 C96 1.287 . S
O102 Fe88 1.996 . S
O102 C96 1.255 . S
C103 O107 1.295 . S
C103 O108 1.235 . S
O104 Fe89 1.976 . S
O104 C98 1.287 . S
O105 Fe91 1.996 . S
O105 C98 1.255 . S
C106 O99 1.287 . S
C106 O100 1.255 . S
O107 Fe89 2.002 . S
O107 C103 1.295 . S
O108 Fe91 1.997 . S
O108 C103 1.235 . S
C109 O92 1.295 . S
C109 O93 1.235 . S
Fe110 O112 1.918 . S
Fe110 O115 1.997 . S
Fe110 O116 2.002 . S
Fe110 O121 1.976 . S
Fe110 O124 1.996 . S
Fe111 O112 1.918 . S
Fe111 O119 1.997 . S
Fe111 O122 1.996 . S
Fe111 O126 1.976 . S
Fe111 O129 2.002 . S
O112 Fe110 1.918 . S
O112 Fe111 1.918 . S
O112 Fe113 1.918 . S
Fe113 O112 1.918 . S
Fe113 O114 2.002 . S
Fe113 O123 1.976 . S
Fe113 O127 1.996 . S
Fe113 O130 1.997 . S
O114 Fe113 2.002 . S
O114 C131 1.295 . S
O115 Fe110 1.997 . S
O115 C131 1.235 . S
O116 Fe110 2.002 . S
O116 C117 1.295 . S
C117 O116 1.295 . S
C117 O119 1.235 . S
C118 O123 1.287 . S
C118 O124 1.255 . S
O119 Fe111 1.997 . S
O119 C117 1.235 . S
C120 O126 1.287 . S
C120 O127 1.255 . S
O121 Fe110 1.976 . S
O121 C128 1.287 . S
O122 Fe111 1.996 . S
O122 C128 1.255 . S
O123 Fe113 1.976 . S
O123 C118 1.287 . S
O124 Fe110 1.996 . S
O124 C118 1.255 . S
C125 O129 1.295 . S
C125 O130 1.235 . S
O126 Fe111 1.976 . S
O126 C120 1.287 . S
O127 Fe113 1.996 . S
O127 C120 1.255 . S
C128 O121 1.287 . S
C128 O122 1.255 . S
O129 Fe111 2.002 . S
O129 C125 1.295 . S
O130 Fe113 1.997 . S
O130 C125 1.235 . S
C131 O114 1.295 . S
C131 O115 1.235 . S
Fe132 O134 1.918 . S
Fe132 O137 1.997 . S
Fe132 O138 2.002 . S
Fe132 O143 1.976 . S
Fe132 O146 1.996 . S
Fe133 O134 1.918 . S
Fe133 O141 1.997 . S
Fe133 O144 1.996 . S
Fe133 O148 1.976 . S
Fe133 O151 2.002 . S
O134 Fe132 1.918 . S
O134 Fe133 1.918 . S
O134 Fe135 1.918 . S
Fe135 O134 1.918 . S
Fe135 O136 2.002 . S
Fe135 O145 1.976 . S
Fe135 O149 1.996 . S
Fe135 O152 1.997 . S
O136 Fe135 2.002 . S
O136 C153 1.295 . S
O137 Fe132 1.997 . S
O137 C153 1.235 . S
O138 Fe132 2.002 . S
O138 C139 1.295 . S
C139 O138 1.295 . S
C139 O141 1.235 . S
C140 O145 1.287 . S
C140 O146 1.255 . S
O141 Fe133 1.997 . S
O141 C139 1.235 . S
C142 O148 1.287 . S
C142 O149 1.255 . S
O143 Fe132 1.976 . S
O143 C150 1.287 . S
O144 Fe133 1.996 . S
O144 C150 1.255 . S
O145 Fe135 1.976 . S
O145 C140 1.287 . S
O146 Fe132 1.996 . S
O146 C140 1.255 . S
C147 O151 1.295 . S
C147 O152 1.235 . S
O148 Fe133 1.976 . S
O148 C142 1.287 . S
O149 Fe135 1.996 . S
O149 C142 1.255 . S
C150 O143 1.287 . S
C150 O144 1.255 . S
O151 Fe133 2.002 . S
O151 C147 1.295 . S
O152 Fe135 1.997 . S
O152 C147 1.235 . S
C153 O136 1.295 . S
C153 O137 1.235 . S
Fe154 O156 1.918 . S
Fe154 O159 1.997 . S
Fe154 O160 2.002 . S
Fe154 O165 1.976 . S
Fe154 O168 1.996 . S
Fe155 O156 1.918 . S
Fe155 O163 1.997 . S
Fe155 O166 1.996 . S
Fe155 O170 1.976 . S
Fe155 O173 2.002 . S
O156 Fe154 1.918 . S
O156 Fe155 1.918 . S
O156 Fe157 1.918 . S
Fe157 O156 1.918 . S
Fe157 O158 2.002 . S
Fe157 O167 1.976 . S
Fe157 O171 1.996 . S
Fe157 O174 1.997 . S
O158 Fe157 2.002 . S
O158 C175 1.295 . S
O159 Fe154 1.997 . S
O159 C175 1.235 . S
O160 Fe154 2.002 . S
O160 C161 1.295 . S
C161 O160 1.295 . S
C161 O163 1.235 . S
C162 O167 1.287 . S
C162 O168 1.255 . S
O163 Fe155 1.997 . S
O163 C161 1.235 . S
C164 O170 1.287 . S
C164 O171 1.255 . S
O165 Fe154 1.976 . S
O165 C172 1.287 . S
O166 Fe155 1.996 . S
O166 C172 1.255 . S
O167 Fe157 1.976 . S
O167 C162 1.287 . S
O168 Fe154 1.996 . S
O168 C162 1.255 . S
C169 O173 1.295 . S
C169 O174 1.235 . S
O170 Fe155 1.976 . S
O170 C164 1.287 . S
O171 Fe157 1.996 . S
O171 C164 1.255 . S
C172 O165 1.287 . S
C172 O166 1.255 . S
O173 Fe155 2.002 . S
O173 C169 1.295 . S
O174 Fe157 1.997 . S
O174 C169 1.235 . S
C175 O158 1.295 . S
C175 O159 1.235 . S
C176 C177 1.349 . S
C176 C178 1.327 . S
C176 H201 0.950 . S
C177 C176 1.349 . S
C177 C193 1.349 . S
C178 C176 1.327 . S
C178 C197 1.429 . S
C178 H202 0.950 . S
C179 C196 1.574 . S
C179 C198 1.368 . S
C179 H203 0.949 . S
H180 C184 0.949 . S
C181 C182 1.349 . S
C181 C183 1.327 . S
C181 H204 0.950 . S
C182 C181 1.349 . S
C182 C194 1.349 . S
C183 C181 1.327 . S
C183 C199 1.429 . S
C183 H205 0.950 . S
C184 H180 0.949 . S
C184 C192 1.574 . S
C184 C200 1.368 . S
H185 C193 0.950 . S
H186 C191 0.950 . S
H187 C192 0.949 . S
H188 C194 0.950 . S
H189 C195 0.950 . S
H190 C196 0.949 . S
C191 H186 0.950 . S
C191 C193 1.327 . S
C191 C197 1.429 . S
C192 C184 1.574 . S
C192 H187 0.949 . S
C192 C198 1.368 . S
C193 C177 1.349 . S
C193 H185 0.950 . S
C193 C191 1.327 . S
C194 C182 1.349 . S
C194 H188 0.950 . S
C194 C195 1.327 . S
C195 H189 0.950 . S
C195 C194 1.327 . S
C195 C199 1.429 . S
C196 C179 1.574 . S
C196 H190 0.949 . S
C196 C200 1.368 . S
C197 C178 1.429 . S
C197 C191 1.429 . S
C197 C198 1.523 . S
C198 C179 1.368 . S
C198 C192 1.368 . S
C198 C197 1.523 . S
C199 C183 1.429 . S
C199 C195 1.429 . S
C199 C200 1.523 . S
C200 C184 1.368 . S
C200 C196 1.368 . S
C200 C199 1.523 . S
H201 C176 0.950 . S
H202 C178 0.950 . S
H203 C179 0.949 . S
H204 C181 0.950 . S
H205 C183 0.950 . S
C206 C207 1.349 . S
C206 C208 1.327 . S
C206 H231 0.950 . S
C207 C206 1.349 . S
C207 C223 1.349 . S
C208 C206 1.327 . S
C208 C227 1.429 . S
C208 H232 0.950 . S
C209 C226 1.574 . S
C209 C228 1.368 . S
C209 H233 0.949 . S
H210 C214 0.949 . S
C211 C212 1.349 . S
C211 C213 1.327 . S
C211 H234 0.950 . S
C212 C211 1.349 . S
C212 C224 1.349 . S
C213 C211 1.327 . S
C213 C229 1.429 . S
C213 H235 0.950 . S
C214 H210 0.949 . S
C214 C222 1.574 . S
C214 C230 1.368 . S
H215 C223 0.950 . S
H216 C221 0.950 . S
H217 C222 0.949 . S
H218 C224 0.950 . S
H219 C225 0.950 . S
H220 C226 0.949 . S
C221 H216 0.950 . S
C221 C223 1.327 . S
C221 C227 1.429 . S
C222 C214 1.574 . S
C222 H217 0.949 . S
C222 C228 1.368 . S
C223 C207 1.349 . S
C223 H215 0.950 . S
C223 C221 1.327 . S
C224 C212 1.349 . S
C224 H218 0.950 . S
C224 C225 1.327 . S
C225 H219 0.950 . S
C225 C224 1.327 . S
C225 C229 1.429 . S
C226 C209 1.574 . S
C226 H220 0.949 . S
C226 C230 1.368 . S
C227 C208 1.429 . S
C227 C221 1.429 . S
C227 C228 1.523 . S
C228 C209 1.368 . S
C228 C222 1.368 . S
C228 C227 1.523 . S
C229 C213 1.429 . S
C229 C225 1.429 . S
C229 C230 1.523 . S
C230 C214 1.368 . S
C230 C226 1.368 . S
C230 C229 1.523 . S
H231 C206 0.950 . S
H232 C208 0.950 . S
H233 C209 0.949 . S
H234 C211 0.950 . S
H235 C213 0.950 . S
C236 C237 1.349 . S
C236 C238 1.327 . S
C236 H261 0.950 . S
C237 C236 1.349 . S
C237 C253 1.349 . S
C238 C236 1.327 . S
C238 C257 1.429 . S
C238 H262 0.950 . S
C239 C256 1.574 . S
C239 C258 1.368 . S
C239 H263 0.949 . S
H240 C244 0.949 . S
C241 C242 1.349 . S
C241 C243 1.327 . S
C241 H264 0.950 . S
C242 C241 1.349 . S
C242 C254 1.349 . S
C243 C241 1.327 . S
C243 C259 1.429 . S
C243 H265 0.950 . S
C244 H240 0.949 . S
C244 C252 1.574 . S
C244 C260 1.368 . S
H245 C253 0.950 . S
H246 C251 0.950 . S
H247 C252 0.949 . S
H248 C254 0.950 . S
H249 C255 0.950 . S
H250 C256 0.949 . S
C251 H246 0.950 . S
C251 C253 1.327 . S
C251 C257 1.429 . S
C252 C244 1.574 . S
C252 H247 0.949 . S
C252 C258 1.368 . S
C253 C237 1.349 . S
C253 H245 0.950 . S
C253 C251 1.327 . S
C254 C242 1.349 . S
C254 H248 0.950 . S
C254 C255 1.327 . S
C255 H249 0.950 . S
C255 C254 1.327 . S
C255 C259 1.429 . S
C256 C239 1.574 . S
C256 H250 0.949 . S
C256 C260 1.368 . S
C257 C238 1.429 . S
C257 C251 1.429 . S
C257 C258 1.523 . S
C258 C239 1.368 . S
C258 C252 1.368 . S
C258 C257 1.523 . S
C259 C243 1.429 . S
C259 C255 1.429 . S
C259 C260 1.523 . S
C260 C244 1.368 . S
C260 C256 1.368 . S
C260 C259 1.523 . S
H261 C236 0.950 . S
H262 C238 0.950 . S
H263 C239 0.949 . S
H264 C241 0.950 . S
H265 C243 0.950 . S
C266 C267 1.349 . S
C266 C268 1.327 . S
C266 H291 0.950 . S
C267 C266 1.349 . S
C267 C283 1.349 . S
C268 C266 1.327 . S
C268 C287 1.429 . S
C268 H292 0.950 . S
C269 C286 1.574 . S
C269 C288 1.368 . S
C269 H293 0.949 . S
H270 C274 0.949 . S
C271 C272 1.349 . S
C271 C273 1.327 . S
C271 H294 0.950 . S
C272 C271 1.349 . S
C272 C284 1.349 . S
C273 C271 1.327 . S
C273 C289 1.429 . S
C273 H295 0.950 . S
C274 H270 0.949 . S
C274 C282 1.574 . S
C274 C290 1.368 . S
H275 C283 0.950 . S
H276 C281 0.950 . S
H277 C282 0.949 . S
H278 C284 0.950 . S
H279 C285 0.950 . S
H280 C286 0.949 . S
C281 H276 0.950 . S
C281 C283 1.327 . S
C281 C287 1.429 . S
C282 C274 1.574 . S
C282 H277 0.949 . S
C282 C288 1.368 . S
C283 C267 1.349 . S
C283 H275 0.950 . S
C283 C281 1.327 . S
C284 C272 1.349 . S
C284 H278 0.950 . S
C284 C285 1.327 . S
C285 H279 0.950 . S
C285 C284 1.327 . S
C285 C289 1.429 . S
C286 C269 1.574 . S
C286 H280 0.949 . S
C286 C290 1.368 . S
C287 C268 1.429 . S
C287 C281 1.429 . S
C287 C288 1.523 . S
C288 C269 1.368 . S
C288 C282 1.368 . S
C288 C287 1.523 . S
C289 C273 1.429 . S
C289 C285 1.429 . S
C289 C290 1.523 . S
C290 C274 1.368 . S
C290 C286 1.368 . S
C290 C289 1.523 . S
H291 C266 0.950 . S
H292 C268 0.950 . S
H293 C269 0.949 . S
H294 C271 0.950 . S
H295 C273 0.950 . S
C296 C297 1.349 . S
C296 C298 1.327 . S
C296 H321 0.950 . S
C297 C296 1.349 . S
C297 C313 1.349 . S
C298 C296 1.327 . S
C298 C317 1.429 . S
C298 H322 0.950 . S
C299 C316 1.574 1_455 S
C299 C318 1.368 . S
C299 H323 0.949 . S
H300 C304 0.949 . S
C301 C302 1.349 . S
C301 C303 1.327 . S
C301 H324 0.950 . S
C302 C301 1.349 . S
C302 C314 1.349 . S
C303 C301 1.327 . S
C303 C319 1.429 . S
C303 H325 0.950 . S
C304 H300 0.949 . S
C304 C312 1.574 . S
C304 C320 1.368 . S
H305 C313 0.950 . S
H306 C311 0.950 . S
H307 C312 0.949 . S
H308 C314 0.950 . S
H309 C315 0.950 . S
H310 C316 0.949 . S
C311 H306 0.950 . S
C311 C313 1.327 . S
C311 C317 1.429 . S
C312 C304 1.574 . S
C312 H307 0.949 . S
C312 C318 1.368 1_655 S
C313 C297 1.349 . S
C313 H305 0.950 . S
C313 C311 1.327 . S
C314 C302 1.349 . S
C314 H308 0.950 . S
C314 C315 1.327 . S
C315 H309 0.950 . S
C315 C314 1.327 . S
C315 C319 1.429 . S
C316 C299 1.574 1_655 S
C316 H310 0.949 . S
C316 C320 1.368 . S
C317 C298 1.429 . S
C317 C311 1.429 . S
C317 C318 1.523 . S
C318 C299 1.368 . S
C318 C312 1.368 1_455 S
C318 C317 1.523 . S
C319 C303 1.429 . S
C319 C315 1.429 . S
C319 C320 1.523 . S
C320 C304 1.368 . S
C320 C316 1.368 . S
C320 C319 1.523 . S
H321 C296 0.950 . S
H322 C298 0.950 . S
H323 C299 0.949 . S
H324 C301 0.950 . S
H325 C303 0.950 . S
C326 C327 1.349 . S
C326 C328 1.327 . S
C326 H351 0.950 . S
C327 C326 1.349 . S
C327 C343 1.349 . S
C328 C326 1.327 . S
C328 C347 1.429 . S
C328 H352 0.950 . S
C329 C346 1.574 1_655 S
C329 C348 1.368 . S
C329 H353 0.949 . S
H330 C334 0.949 . S
C331 C332 1.349 . S
C331 C333 1.327 . S
C331 H354 0.950 . S
C332 C331 1.349 . S
C332 C344 1.349 . S
C333 C331 1.327 . S
C333 C349 1.429 . S
C333 H355 0.950 . S
C334 H330 0.949 . S
C334 C342 1.574 . S
C334 C350 1.368 . S
H335 C343 0.950 . S
H336 C341 0.950 . S
H337 C342 0.949 . S
H338 C344 0.950 . S
H339 C345 0.950 . S
H340 C346 0.949 . S
C341 H336 0.950 . S
C341 C343 1.327 . S
C341 C347 1.429 . S
C342 C334 1.574 . S
C342 H337 0.949 . S
C342 C348 1.368 1_455 S
C343 C327 1.349 . S
C343 H335 0.950 . S
C343 C341 1.327 . S
C344 C332 1.349 . S
C344 H338 0.950 . S
C344 C345 1.327 . S
C345 H339 0.950 . S
C345 C344 1.327 . S
C345 C349 1.429 . S
C346 C329 1.574 1_455 S
C346 H340 0.949 . S
C346 C350 1.368 . S
C347 C328 1.429 . S
C347 C341 1.429 . S
C347 C348 1.523 . S
C348 C329 1.368 . S
C348 C342 1.368 1_655 S
C348 C347 1.523 . S
C349 C333 1.429 . S
C349 C345 1.429 . S
C349 C350 1.523 . S
C350 C334 1.368 . S
C350 C346 1.368 . S
C350 C349 1.523 . S
H351 C326 0.950 . S
H352 C328 0.950 . S
H353 C329 0.949 . S
H354 C331 0.950 . S
H355 C333 0.950 . S
C356 C357 1.349 . S
C356 C358 1.327 . S
C356 H381 0.950 . S
C357 C356 1.349 . S
C357 C373 1.349 . S
C358 C356 1.327 . S
C358 C377 1.429 . S
C358 H382 0.950 . S
C359 C376 1.574 . S
C359 C378 1.368 1_455 S
C359 H383 0.949 1_455 S
H360 C364 0.949 . S
C361 C362 1.349 . S
C361 C363 1.327 . S
C361 H384 0.950 . S
C362 C361 1.349 . S
C362 C374 1.349 . S
C363 C361 1.327 . S
C363 C379 1.429 . S
C363 H385 0.950 . S
C364 H360 0.949 . S
C364 C372 1.574 1_455 S
C364 C380 1.368 . S
H365 C373 0.950 . S
H366 C371 0.950 . S
H367 C372 0.949 . S
H368 C374 0.950 . S
H369 C375 0.950 . S
H370 C376 0.949 . S
C371 H366 0.950 . S
C371 C373 1.327 . S
C371 C377 1.429 . S
C372 C364 1.574 1_655 S
C372 H367 0.949 . S
C372 C378 1.368 . S
C373 C357 1.349 . S
C373 H365 0.950 . S
C373 C371 1.327 . S
C374 C362 1.349 . S
C374 H368 0.950 . S
C374 C375 1.327 . S
C375 H369 0.950 . S
C375 C374 1.327 . S
C375 C379 1.429 . S
C376 C359 1.574 . S
C376 H370 0.949 . S
C376 C380 1.368 . S
C377 C358 1.429 . S
C377 C371 1.429 . S
C377 C378 1.523 . S
C378 C359 1.368 1_655 S
C378 C372 1.368 . S
C378 C377 1.523 . S
C379 C363 1.429 . S
C379 C375 1.429 . S
C379 C380 1.523 . S
C380 C364 1.368 . S
C380 C376 1.368 . S
C380 C379 1.523 . S
H381 C356 0.950 . S
H382 C358 0.950 . S
H383 C359 0.949 1_655 S
H384 C361 0.950 . S
H385 C363 0.950 . S
C386 C387 1.349 . S
C386 C388 1.327 . S
C386 H411 0.950 . S
C387 C386 1.349 . S
C387 C403 1.349 . S
C388 C386 1.327 . S
C388 C407 1.429 . S
C388 H412 0.950 . S
C389 C406 1.579 . S
C389 C408 1.367 1_655 S
C389 H413 0.945 1_655 S
H390 C394 0.949 . S
C391 C392 1.349 . S
C391 C393 1.327 . S
C391 H414 0.950 . S
C392 C391 1.349 . S
C392 C404 1.349 . S
C393 C391 1.327 . S
C393 C409 1.429 . S
C393 H415 0.950 . S
C394 H390 0.949 . S
C394 C402 1.547 1_655 S
C394 C410 1.368 . S
H395 C403 0.950 . S
H396 C401 0.950 . S
H397 C402 0.959 . S
H398 C404 0.950 . S
H399 C405 0.950 . S
H400 C406 0.949 . S
C401 H396 0.950 . S
C401 C403 1.327 . S
C401 C407 1.429 . S
C402 C394 1.547 1_455 S
C402 H397 0.959 . S
C402 C408 1.384 . S
C403 C387 1.349 . S
C403 H395 0.950 . S
C403 C401 1.327 . S
C404 C392 1.349 . S
C404 H398 0.950 . S
C404 C405 1.327 . S
C405 H399 0.950 . S
C405 C404 1.327 . S
C405 C409 1.429 . S
C406 C389 1.579 . S
C406 H400 0.949 . S
C406 C410 1.368 . S
C407 C388 1.429 . S
C407 C401 1.429 . S
C407 C408 1.523 . S
C408 C389 1.367 1_455 S
C408 C402 1.384 . S
C408 C407 1.523 . S
C409 C393 1.429 . S
C409 C405 1.429 . S
C409 C410 1.523 . S
C410 C394 1.368 . S
C410 C406 1.368 . S
C410 C409 1.523 . S
H411 C386 0.950 . S
H412 C388 0.950 . S
H413 C389 0.945 1_455 S
H414 C391 0.950 . S
H415 C393 0.950 . S
C416 C417 1.349 . S
C416 C418 1.327 . S
C416 H441 0.950 . S
C417 C416 1.349 . S
C417 C433 1.349 . S
C418 C416 1.327 . S
C418 C437 1.429 . S
C418 H442 0.950 . S
C419 C436 1.574 1_656 S
C419 C438 1.368 . S
C419 H443 0.949 . S
H420 C424 0.949 . S
C421 C422 1.349 . S
C421 C423 1.327 . S
C421 H444 0.950 . S
C422 C421 1.349 . S
C422 C434 1.349 . S
C423 C421 1.327 . S
C423 C439 1.429 . S
C423 H445 0.950 . S
C424 H420 0.949 . S
C424 C432 1.574 1_454 S
C424 C440 1.368 . S
H425 C433 0.950 . S
H426 C431 0.950 . S
H427 C432 0.949 . S
H428 C434 0.950 . S
H429 C435 0.950 . S
H430 C436 0.949 . S
C431 H426 0.950 . S
C431 C433 1.327 . S
C431 C437 1.429 . S
C432 C424 1.574 1_656 S
C432 H427 0.949 . S
C432 C438 1.368 . S
C433 C417 1.349 . S
C433 H425 0.950 . S
C433 C431 1.327 . S
C434 C422 1.349 . S
C434 H428 0.950 . S
C434 C435 1.327 . S
C435 H429 0.950 . S
C435 C434 1.327 . S
C435 C439 1.429 . S
C436 C419 1.574 1_454 S
C436 H430 0.949 . S
C436 C440 1.368 . S
C437 C418 1.429 . S
C437 C431 1.429 . S
C437 C438 1.523 . S
C438 C419 1.368 . S
C438 C432 1.368 . S
C438 C437 1.523 . S
C439 C423 1.429 . S
C439 C435 1.429 . S
C439 C440 1.523 . S
C440 C424 1.368 . S
C440 C436 1.368 . S
C440 C439 1.523 . S
H441 C416 0.950 . S
H442 C418 0.950 . S
H443 C419 0.949 . S
H444 C421 0.950 . S
H445 C423 0.950 . S
C446 C447 1.349 . S
C446 C448 1.327 . S
C446 H471 0.950 . S
C447 C446 1.349 . S
C447 C463 1.349 . S
C448 C446 1.327 . S
C448 C467 1.429 . S
C448 H472 0.950 . S
C449 C466 1.574 1_454 S
C449 C468 1.368 . S
C449 H473 0.949 . S
H450 C454 0.949 . S
C451 C452 1.349 . S
C451 C453 1.327 . S
C451 H474 0.950 . S
C452 C451 1.349 . S
C452 C464 1.349 . S
C453 C451 1.327 . S
C453 C469 1.429 . S
C453 H475 0.950 . S
C454 H450 0.949 . S
C454 C462 1.574 1_656 S
C454 C470 1.368 . S
H455 C463 0.950 . S
H456 C461 0.950 . S
H457 C462 0.949 . S
H458 C464 0.950 . S
H459 C465 0.950 . S
H460 C466 0.949 . S
C461 H456 0.950 . S
C461 C463 1.327 . S
C461 C467 1.429 . S
C462 C454 1.574 1_454 S
C462 H457 0.949 . S
C462 C468 1.368 . S
C463 C447 1.349 . S
C463 H455 0.950 . S
C463 C461 1.327 . S
C464 C452 1.349 . S
C464 H458 0.950 . S
C464 C465 1.327 . S
C465 H459 0.950 . S
C465 C464 1.327 . S
C465 C469 1.429 . S
C466 C449 1.574 1_656 S
C466 H460 0.949 . S
C466 C470 1.368 . S
C467 C448 1.429 . S
C467 C461 1.429 . S
C467 C468 1.523 . S
C468 C449 1.368 . S
C468 C462 1.368 . S
C468 C467 1.523 . S
C469 C453 1.429 . S
C469 C465 1.429 . S
C469 C470 1.523 . S
C470 C454 1.368 . S
C470 C466 1.368 . S
C470 C469 1.523 . S
H471 C446 0.950 . S
H472 C448 0.950 . S
H473 C449 0.949 . S
H474 C451 0.950 . S
H475 C453 0.950 . S
C476 C477 1.349 . S
C476 C478 1.327 . S
C476 H501 0.950 . S
C477 C476 1.349 . S
C477 C493 1.349 . S
C478 C476 1.327 . S
C478 C497 1.429 . S
C478 H502 0.950 . S
C479 C496 1.574 1_554 S
C479 C498 1.368 . S
C479 H503 0.949 . S
H480 C484 0.949 . S
C481 C482 1.349 . S
C481 C483 1.327 . S
C481 H504 0.950 . S
C482 C481 1.349 . S
C482 C494 1.349 . S
C483 C481 1.327 . S
C483 C499 1.429 . S
C483 H505 0.950 . S
C484 H480 0.949 . S
C484 C492 1.574 1_556 S
C484 C500 1.368 . S
H485 C493 0.950 . S
H486 C491 0.950 . S
H487 C492 0.949 . S
H488 C494 0.950 . S
H489 C495 0.950 . S
H490 C496 0.949 . S
C491 H486 0.950 . S
C491 C493 1.327 . S
C491 C497 1.429 . S
C492 C484 1.574 1_554 S
C492 H487 0.949 . S
C492 C498 1.368 . S
C493 C477 1.349 . S
C493 H485 0.950 . S
C493 C491 1.327 . S
C494 C482 1.349 . S
C494 H488 0.950 . S
C494 C495 1.327 . S
C495 H489 0.950 . S
C495 C494 1.327 . S
C495 C499 1.429 . S
C496 C479 1.574 1_556 S
C496 H490 0.949 . S
C496 C500 1.368 . S
C497 C478 1.429 . S
C497 C491 1.429 . S
C497 C498 1.523 . S
C498 C479 1.368 . S
C498 C492 1.368 . S
C498 C497 1.523 . S
C499 C483 1.429 . S
C499 C495 1.429 . S
C499 C500 1.523 . S
C500 C484 1.368 . S
C500 C496 1.368 . S
C500 C499 1.523 . S
H501 C476 0.950 . S
H502 C478 0.950 . S
H503 C479 0.949 . S
H504 C481 0.950 . S
H505 C483 0.950 . S
C506 C507 1.349 . S
C506 C508 1.327 . S
C506 H531 0.950 . S
C507 C506 1.349 . S
C507 C523 1.349 . S
C508 C506 1.327 . S
C508 C527 1.429 . S
C508 H532 0.950 . S
C509 C526 1.574 1_554 S
C509 C528 1.368 . S
C509 H533 0.949 . S
H510 C514 0.949 . S
C511 C512 1.349 . S
C511 C513 1.327 . S
C511 H534 0.950 . S
C512 C511 1.349 . S
C512 C524 1.349 . S
C513 C511 1.327 . S
C513 C529 1.429 . S
C513 H535 0.950 . S
C514 H510 0.949 . S
C514 C522 1.574 1_556 S
C514 C530 1.368 . S
H515 C523 0.950 . S
H516 C521 0.950 . S
H517 C522 0.949 . S
H518 C524 0.950 . S
H519 C525 0.950 . S
H520 C526 0.949 . S
C521 H516 0.950 . S
C521 C523 1.327 . S
C521 C527 1.429 . S
C522 C514 1.574 1_554 S
C522 H517 0.949 . S
C522 C528 1.368 . S
C523 C507 1.349 . S
C523 H515 0.950 . S
C523 C521 1.327 . S
C524 C512 1.349 . S
C524 H518 0.950 . S
C524 C525 1.327 . S
C525 H519 0.950 . S
C525 C524 1.327 . S
C525 C529 1.429 . S
C526 C509 1.574 1_556 S
C526 H520 0.949 . S
C526 C530 1.368 . S
C527 C508 1.429 . S
C527 C521 1.429 . S
C527 C528 1.523 . S
C528 C509 1.368 . S
C528 C522 1.368 . S
C528 C527 1.523 . S
C529 C513 1.429 . S
C529 C525 1.429 . S
C529 C530 1.523 . S
C530 C514 1.368 . S
C530 C526 1.368 . S
C530 C529 1.523 . S
H531 C506 0.950 . S
H532 C508 0.950 . S
H533 C509 0.949 . S
H534 C511 0.950 . S
H535 C513 0.950 . S
C536 C537 1.349 . S
C536 C538 1.327 . S
C536 H561 0.950 . S
C537 C536 1.349 . S
C537 C553 1.349 . S
C538 C536 1.327 . S
C538 C557 1.429 . S
C538 H562 0.950 . S
C539 C556 1.574 . S
C539 C558 1.368 . S
C539 H563 0.949 . S
H540 C544 0.949 . S
C541 C542 1.349 . S
C541 C543 1.327 . S
C541 H564 0.950 . S
C542 C541 1.349 . S
C542 C554 1.349 . S
C543 C541 1.327 . S
C543 C559 1.429 . S
C543 H565 0.950 . S
C544 H540 0.949 . S
C544 C552 1.574 . S
C544 C560 1.368 . S
H545 C553 0.950 . S
H546 C551 0.950 . S
H547 C552 0.949 . S
H548 C554 0.950 . S
H549 C555 0.950 . S
H550 C556 0.949 . S
C551 H546 0.950 . S
C551 C553 1.327 . S
C551 C557 1.429 . S
C552 C544 1.574 . S
C552 H547 0.949 . S
C552 C558 1.368 . S
C553 C537 1.349 . S
C553 H545 0.950 . S
C553 C551 1.327 . S
C554 C542 1.349 . S
C554 H548 0.950 . S
C554 C555 1.327 . S
C555 H549 0.950 . S
C555 C554 1.327 . S
C555 C559 1.429 . S
C556 C539 1.574 . S
C556 H550 0.949 . S
C556 C560 1.368 . S
C557 C538 1.429 . S
C557 C551 1.429 . S
C557 C558 1.523 . S
C558 C539 1.368 . S
C558 C552 1.368 . S
C558 C557 1.523 . S
C559 C543 1.429 . S
C559 C555 1.429 . S
C559 C560 1.523 . S
C560 C544 1.368 . S
C560 C556 1.368 . S
C560 C559 1.523 . S
H561 C536 0.950 . S
H562 C538 0.950 . S
H563 C539 0.949 . S
H564 C541 0.950 . S
H565 C543 0.950 . S
C566 C567 1.349 . S
C566 C568 1.327 . S
C566 H591 0.950 . S
C567 C566 1.349 . S
C567 C583 1.349 . S
C568 C566 1.327 . S
C568 C587 1.429 . S
C568 H592 0.950 . S
C569 C586 1.574 . S
C569 C588 1.368 . S
C569 H593 0.949 . S
H570 C574 0.949 . S
C571 C572 1.349 . S
C571 C573 1.327 . S
C571 H594 0.950 . S
C572 C571 1.349 . S
C572 C584 1.349 . S
C573 C571 1.327 . S
C573 C589 1.429 . S
C573 H595 0.950 . S
C574 H570 0.949 . S
C574 C582 1.574 . S
C574 C590 1.368 . S
H575 C583 0.950 . S
H576 C581 0.950 . S
H577 C582 0.949 . S
H578 C584 0.950 . S
H579 C585 0.950 . S
H580 C586 0.949 . S
C581 H576 0.950 . S
C581 C583 1.327 . S
C581 C587 1.429 . S
C582 C574 1.574 . S
C582 H577 0.949 . S
C582 C588 1.368 . S
C583 C567 1.349 . S
C583 H575 0.950 . S
C583 C581 1.327 . S
C584 C572 1.349 . S
C584 H578 0.950 . S
C584 C585 1.327 . S
C585 H579 0.950 . S
C585 C584 1.327 . S
C585 C589 1.429 . S
C586 C569 1.574 . S
C586 H580 0.949 . S
C586 C590 1.368 . S
C587 C568 1.429 . S
C587 C581 1.429 . S
C587 C588 1.523 . S
C588 C569 1.368 . S
C588 C582 1.368 . S
C588 C587 1.523 . S
C589 C573 1.429 . S
C589 C585 1.429 . S
C589 C590 1.523 . S
C590 C574 1.368 . S
C590 C586 1.368 . S
C590 C589 1.523 . S
H591 C566 0.950 . S
H592 C568 0.950 . S
H593 C569 0.949 . S
H594 C571 0.950 . S
H595 C573 0.950 . S
C596 C597 1.349 . S
C596 C598 1.327 . S
C596 H621 0.950 . S
C597 C596 1.349 . S
C597 C613 1.349 . S
C598 C596 1.327 . S
C598 C617 1.429 . S
C598 H622 0.950 . S
C599 C616 1.574 1_565 S
C599 C618 1.368 . S
C599 H623 0.949 . S
H600 C604 0.949 . S
C601 C602 1.349 . S
C601 C603 1.327 . S
C601 H624 0.950 . S
C602 C601 1.349 . S
C602 C614 1.349 . S
C603 C601 1.327 . S
C603 C619 1.429 . S
C603 H625 0.950 . S
C604 H600 0.949 . S
C604 C612 1.574 1_545 S
C604 C620 1.368 . S
H605 C613 0.950 . S
H606 C611 0.950 . S
H607 C612 0.949 . S
H608 C614 0.950 . S
H609 C615 0.950 . S
H610 C616 0.949 . S
C611 H606 0.950 . S
C611 C613 1.327 . S
C611 C617 1.429 . S
C612 C604 1.574 1_565 S
C612 H607 0.949 . S
C612 C618 1.368 . S
C613 C597 1.349 . S
C613 H605 0.950 . S
C613 C611 1.327 . S
C614 C602 1.349 . S
C614 H608 0.950 . S
C614 C615 1.327 . S
C615 H609 0.950 . S
C615 C614 1.327 . S
C615 C619 1.429 . S
C616 C599 1.574 1_545 S
C616 H610 0.949 . S
C616 C620 1.368 . S
C617 C598 1.429 . S
C617 C611 1.429 . S
C617 C618 1.523 . S
C618 C599 1.368 . S
C618 C612 1.368 . S
C618 C617 1.523 . S
C619 C603 1.429 . S
C619 C615 1.429 . S
C619 C620 1.523 . S
C620 C604 1.368 . S
C620 C616 1.368 . S
C620 C619 1.523 . S
H621 C596 0.950 . S
H622 C598 0.950 . S
H623 C599 0.949 . S
H624 C601 0.950 . S
H625 C603 0.950 . S
C626 C627 1.349 . S
C626 C628 1.327 . S
C626 H651 0.950 . S
C627 C626 1.349 . S
C627 C643 1.349 . S
C628 C626 1.327 . S
C628 C647 1.429 . S
C628 H652 0.950 . S
C629 C646 1.574 1_565 S
C629 C648 1.368 . S
C629 H653 0.949 . S
H630 C634 0.949 . S
C631 C632 1.349 . S
C631 C633 1.327 . S
C631 H654 0.950 . S
C632 C631 1.349 . S
C632 C644 1.349 . S
C633 C631 1.327 . S
C633 C649 1.429 . S
C633 H655 0.950 . S
C634 H630 0.949 . S
C634 C642 1.574 1_545 S
C634 C650 1.368 . S
H635 C643 0.950 . S
H636 C641 0.950 . S
H637 C642 0.949 . S
H638 C644 0.950 . S
H639 C645 0.950 . S
H640 C646 0.949 . S
C641 H636 0.950 . S
C641 C643 1.327 . S
C641 C647 1.429 . S
C642 C634 1.574 1_565 S
C642 H637 0.949 . S
C642 C648 1.368 . S
C643 C627 1.349 . S
C643 H635 0.950 . S
C643 C641 1.327 . S
C644 C632 1.349 . S
C644 H638 0.950 . S
C644 C645 1.327 . S
C645 H639 0.950 . S
C645 C644 1.327 . S
C645 C649 1.429 . S
C646 C629 1.574 1_545 S
C646 H640 0.949 . S
C646 C650 1.368 . S
C647 C628 1.429 . S
C647 C641 1.429 . S
C647 C648 1.523 . S
C648 C629 1.368 . S
C648 C642 1.368 . S
C648 C647 1.523 . S
C649 C633 1.429 . S
C649 C645 1.429 . S
C649 C650 1.523 . S
C650 C634 1.368 . S
C650 C646 1.368 . S
C650 C649 1.523 . S
H651 C626 0.950 . S
H652 C628 0.950 . S
H653 C629 0.949 . S
H654 C631 0.950 . S
H655 C633 0.950 . S
C656 C657 1.349 . S
C656 C658 1.327 . S
C656 H681 0.950 . S
C657 C656 1.349 . S
C657 C673 1.349 . S
C658 C656 1.327 . S
C658 C677 1.429 . S
C658 H682 0.950 . S
C659 C676 1.574 . S
C659 C678 1.368 . S
C659 H683 0.949 . S
H660 C664 0.949 . S
C661 C662 1.349 . S
C661 C663 1.327 . S
C661 H684 0.950 . S
C662 C661 1.349 . S
C662 C674 1.349 . S
C663 C661 1.327 . S
C663 C679 1.429 . S
C663 H685 0.950 . S
C664 H660 0.949 . S
C664 C672 1.574 . S
C664 C680 1.368 . S
H665 C673 0.950 . S
H666 C671 0.950 . S
H667 C672 0.949 . S
H668 C674 0.950 . S
H669 C675 0.950 . S
H670 C676 0.949 . S
C671 H666 0.950 . S
C671 C673 1.327 . S
C671 C677 1.429 . S
C672 C664 1.574 . S
C672 H667 0.949 . S
C672 C678 1.368 . S
C673 C657 1.349 . S
C673 H665 0.950 . S
C673 C671 1.327 . S
C674 C662 1.349 . S
C674 H668 0.950 . S
C674 C675 1.327 . S
C675 H669 0.950 . S
C675 C674 1.327 . S
C675 C679 1.429 . S
C676 C659 1.574 . S
C676 H670 0.949 . S
C676 C680 1.368 . S
C677 C658 1.429 . S
C677 C671 1.429 . S
C677 C678 1.523 . S
C678 C659 1.368 . S
C678 C672 1.368 . S
C678 C677 1.523 . S
C679 C663 1.429 . S
C679 C675 1.429 . S
C679 C680 1.523 . S
C680 C664 1.368 . S
C680 C676 1.368 . S
C680 C679 1.523 . S
H681 C656 0.950 . S
H682 C658 0.950 . S
H683 C659 0.949 . S
H684 C661 0.950 . S
H685 C663 0.950 . S
C686 C687 1.349 . S
C686 C688 1.327 . S
C686 H711 0.950 . S
C687 C686 1.349 . S
C687 C703 1.349 . S
C688 C686 1.327 . S
C688 C707 1.429 . S
C688 H712 0.950 . S
C689 C706 1.574 . S
C689 C708 1.368 . S
C689 H713 0.949 . S
H690 C694 0.949 . S
C691 C692 1.349 . S
C691 C693 1.327 . S
C691 H714 0.950 . S
C692 C691 1.349 . S
C692 C704 1.349 . S
C693 C691 1.327 . S
C693 C709 1.429 . S
C693 H715 0.950 . S
C694 H690 0.949 . S
C694 C702 1.574 . S
C694 C710 1.368 . S
H695 C703 0.950 . S
H696 C701 0.950 . S
H697 C702 0.949 . S
H698 C704 0.950 . S
H699 C705 0.950 . S
H700 C706 0.949 . S
C701 H696 0.950 . S
C701 C703 1.327 . S
C701 C707 1.429 . S
C702 C694 1.574 . S
C702 H697 0.949 . S
C702 C708 1.368 . S
C703 C687 1.349 . S
C703 H695 0.950 . S
C703 C701 1.327 . S
C704 C692 1.349 . S
C704 H698 0.950 . S
C704 C705 1.327 . S
C705 H699 0.950 . S
C705 C704 1.327 . S
C705 C709 1.429 . S
C706 C689 1.574 . S
C706 H700 0.949 . S
C706 C710 1.368 . S
C707 C688 1.429 . S
C707 C701 1.429 . S
C707 C708 1.523 . S
C708 C689 1.368 . S
C708 C702 1.368 . S
C708 C707 1.523 . S
C709 C693 1.429 . S
C709 C705 1.429 . S
C709 C710 1.523 . S
C710 C694 1.368 . S
C710 C706 1.368 . S
C710 C709 1.523 . S
H711 C686 0.950 . S
H712 C688 0.950 . S
H713 C689 0.949 . S
H714 C691 0.950 . S
H715 C693 0.950 . S
C716 C717 1.349 . S
C716 C718 1.327 . S
C716 H741 0.950 . S
C717 C716 1.349 . S
C717 C733 1.349 . S
C718 C716 1.327 . S
C718 C737 1.429 . S
C718 H742 0.950 . S
C719 C736 1.574 . S
C719 C738 1.368 . S
C719 H743 0.949 . S
H720 C724 0.949 . S
C721 C722 1.349 . S
C721 C723 1.327 . S
C721 H744 0.950 . S
C722 C721 1.349 . S
C722 C734 1.349 . S
C723 C721 1.327 . S
C723 C739 1.429 . S
C723 H745 0.950 . S
C724 H720 0.949 . S
C724 C732 1.574 . S
C724 C740 1.368 . S
H725 C733 0.950 . S
H726 C731 0.950 . S
H727 C732 0.949 . S
H728 C734 0.950 . S
H729 C735 0.950 . S
H730 C736 0.949 . S
C731 H726 0.950 . S
C731 C733 1.327 . S
C731 C737 1.429 . S
C732 C724 1.574 . S
C732 H727 0.949 . S
C732 C738 1.368 . S
C733 C717 1.349 . S
C733 H725 0.950 . S
C733 C731 1.327 . S
C734 C722 1.349 . S
C734 H728 0.950 . S
C734 C735 1.327 . S
C735 H729 0.950 . S
C735 C734 1.327 . S
C735 C739 1.429 . S
C736 C719 1.574 . S
C736 H730 0.949 . S
C736 C740 1.368 . S
C737 C718 1.429 . S
C737 C731 1.429 . S
C737 C738 1.523 . S
C738 C719 1.368 . S
C738 C732 1.368 . S
C738 C737 1.523 . S
C739 C723 1.429 . S
C739 C735 1.429 . S
C739 C740 1.523 . S
C740 C724 1.368 . S
C740 C736 1.368 . S
C740 C739 1.523 . S
H741 C716 0.950 . S
H742 C718 0.950 . S
H743 C719 0.949 . S
H744 C721 0.950 . S
H745 C723 0.950 . S
C746 C747 1.349 . S
C746 C748 1.327 . S
C746 H771 0.950 . S
C747 C746 1.349 . S
C747 C763 1.349 . S
C748 C746 1.327 . S
C748 C767 1.429 . S
C748 H772 0.950 . S
C749 C766 1.574 . S
C749 C768 1.368 . S
C749 H773 0.949 . S
H750 C754 0.949 . S
C751 C752 1.349 . S
C751 C753 1.327 . S
C751 H774 0.950 . S
C752 C751 1.349 . S
C752 C764 1.349 . S
C753 C751 1.327 . S
C753 C769 1.429 . S
C753 H775 0.950 . S
C754 H750 0.949 . S
C754 C762 1.574 . S
C754 C770 1.368 . S
H755 C763 0.950 . S
H756 C761 0.950 . S
H757 C762 0.949 . S
H758 C764 0.950 . S
H759 C765 0.950 . S
H760 C766 0.949 . S
C761 H756 0.950 . S
C761 C763 1.327 . S
C761 C767 1.429 . S
C762 C754 1.574 . S
C762 H757 0.949 . S
C762 C768 1.368 . S
C763 C747 1.349 . S
C763 H755 0.950 . S
C763 C761 1.327 . S
C764 C752 1.349 . S
C764 H758 0.950 . S
C764 C765 1.327 . S
C765 H759 0.950 . S
C765 C764 1.327 . S
C765 C769 1.429 . S
C766 C749 1.574 . S
C766 H760 0.949 . S
C766 C770 1.368 . S
C767 C748 1.429 . S
C767 C761 1.429 . S
C767 C768 1.523 . S
C768 C749 1.368 . S
C768 C762 1.368 . S
C768 C767 1.523 . S
C769 C753 1.429 . S
C769 C765 1.429 . S
C769 C770 1.523 . S
C770 C754 1.368 . S
C770 C766 1.368 . S
C770 C769 1.523 . S
H771 C746 0.950 . S
H772 C748 0.950 . S
H773 C749 0.949 . S
H774 C751 0.950 . S
H775 C753 0.950 . S
C776 C777 1.349 . S
C776 C778 1.327 . S
C776 H801 0.950 . S
C777 C776 1.349 . S
C777 C793 1.349 . S
C778 C776 1.327 . S
C778 C797 1.429 . S
C778 H802 0.950 . S
C779 C796 1.574 1_554 S
C779 C798 1.368 . S
C779 H803 0.949 . S
H780 C784 0.949 . S
C781 C782 1.349 . S
C781 C783 1.327 . S
C781 H804 0.950 . S
C782 C781 1.349 . S
C782 C794 1.349 . S
C783 C781 1.327 . S
C783 C799 1.429 . S
C783 H805 0.950 . S
C784 H780 0.949 . S
C784 C792 1.574 1_556 S
C784 C800 1.368 . S
H785 C793 0.950 . S
H786 C791 0.950 . S
H787 C792 0.949 . S
H788 C794 0.950 . S
H789 C795 0.950 . S
H790 C796 0.949 . S
C791 H786 0.950 . S
C791 C793 1.327 . S
C791 C797 1.429 . S
C792 C784 1.574 1_554 S
C792 H787 0.949 . S
C792 C798 1.368 . S
C793 C777 1.349 . S
C793 H785 0.950 . S
C793 C791 1.327 . S
C794 C782 1.349 . S
C794 H788 0.950 . S
C794 C795 1.327 . S
C795 H789 0.950 . S
C795 C794 1.327 . S
C795 C799 1.429 . S
C796 C779 1.574 1_556 S
C796 H790 0.949 . S
C796 C800 1.368 . S
C797 C778 1.429 . S
C797 C791 1.429 . S
C797 C798 1.523 . S
C798 C779 1.368 . S
C798 C792 1.368 . S
C798 C797 1.523 . S
C799 C783 1.429 . S
C799 C795 1.429 . S
C799 C800 1.523 . S
C800 C784 1.368 . S
C800 C796 1.368 . S
C800 C799 1.523 . S
H801 C776 0.950 . S
H802 C778 0.950 . S
H803 C779 0.949 . S
H804 C781 0.950 . S
H805 C783 0.950 . S
C806 C807 1.349 . S
C806 C808 1.327 . S
C806 H831 0.950 . S
C807 C806 1.349 . S
C807 C823 1.349 . S
C808 C806 1.327 . S
C808 C827 1.429 . S
C808 H832 0.950 . S
C809 C826 1.574 1_554 S
C809 C828 1.368 . S
C809 H833 0.949 . S
H810 C814 0.949 . S
C811 C812 1.349 . S
C811 C813 1.327 . S
C811 H834 0.950 . S
C812 C811 1.349 . S
C812 C824 1.349 . S
C813 C811 1.327 . S
C813 C829 1.429 . S
C813 H835 0.950 . S
C814 H810 0.949 . S
C814 C822 1.574 1_556 S
C814 C830 1.368 . S
H815 C823 0.950 . S
H816 C821 0.950 . S
H817 C822 0.949 . S
H818 C824 0.950 . S
H819 C825 0.950 . S
H820 C826 0.949 . S
C821 H816 0.950 . S
C821 C823 1.327 . S
C821 C827 1.429 . S
C822 C814 1.574 1_554 S
C822 H817 0.949 . S
C822 C828 1.368 . S
C823 C807 1.349 . S
C823 H815 0.950 . S
C823 C821 1.327 . S
C824 C812 1.349 . S
C824 H818 0.950 . S
C824 C825 1.327 . S
C825 H819 0.950 . S
C825 C824 1.327 . S
C825 C829 1.429 . S
C826 C809 1.574 1_556 S
C826 H820 0.949 . S
C826 C830 1.368 . S
C827 C808 1.429 . S
C827 C821 1.429 . S
C827 C828 1.523 . S
C828 C809 1.368 . S
C828 C822 1.368 . S
C828 C827 1.523 . S
C829 C813 1.429 . S
C829 C825 1.429 . S
C829 C830 1.523 . S
C830 C814 1.368 . S
C830 C826 1.368 . S
C830 C829 1.523 . S
H831 C806 0.950 . S
H832 C808 0.950 . S
H833 C809 0.949 . S
H834 C811 0.950 . S
H835 C813 0.950 . S
C836 C837 1.349 . S
C836 C838 1.327 . S
C836 H861 0.950 . S
C837 C836 1.349 . S
C837 C853 1.349 . S
C838 C836 1.327 . S
C838 C857 1.429 . S
C838 H862 0.950 . S
C839 C856 1.574 1_556 S
C839 C858 1.368 . S
C839 H863 0.949 . S
H840 C844 0.949 . S
C841 C842 1.349 . S
C841 C843 1.327 . S
C841 H864 0.950 . S
C842 C841 1.349 . S
C842 C854 1.349 . S
C843 C841 1.327 . S
C843 C859 1.429 . S
C843 H865 0.950 . S
C844 H840 0.949 . S
C844 C852 1.574 1_554 S
C844 C860 1.368 . S
H845 C853 0.950 . S
H846 C851 0.950 . S
H847 C852 0.949 . S
H848 C854 0.950 . S
H849 C855 0.950 . S
H850 C856 0.949 . S
C851 H846 0.950 . S
C851 C853 1.327 . S
C851 C857 1.429 . S
C852 C844 1.574 1_556 S
C852 H847 0.949 . S
C852 C858 1.368 . S
C853 C837 1.349 . S
C853 H845 0.950 . S
C853 C851 1.327 . S
C854 C842 1.349 . S
C854 H848 0.950 . S
C854 C855 1.327 . S
C855 H849 0.950 . S
C855 C854 1.327 . S
C855 C859 1.429 . S
C856 C839 1.574 1_554 S
C856 H850 0.949 . S
C856 C860 1.368 . S
C857 C838 1.429 . S
C857 C851 1.429 . S
C857 C858 1.523 . S
C858 C839 1.368 . S
C858 C852 1.368 . S
C858 C857 1.523 . S
C859 C843 1.429 . S
C859 C855 1.429 . S
C859 C860 1.523 . S
C860 C844 1.368 . S
C860 C856 1.368 . S
C860 C859 1.523 . S
H861 C836 0.950 . S
H862 C838 0.950 . S
H863 C839 0.949 . S
H864 C841 0.950 . S
H865 C843 0.950 . S
C866 C867 1.349 . S
C866 C868 1.327 . S
C866 H891 0.950 . S
C867 C866 1.349 . S
C867 C883 1.349 . S
C868 C866 1.327 . S
C868 C887 1.429 . S
C868 H892 0.950 . S
C869 C886 1.574 1_554 S
C869 C888 1.368 . S
C869 H893 0.949 . S
H870 C874 0.949 . S
C871 C872 1.349 . S
C871 C873 1.327 . S
C871 H894 0.950 . S
C872 C871 1.349 . S
C872 C884 1.349 . S
C873 C871 1.327 . S
C873 C889 1.429 . S
C873 H895 0.950 . S
C874 H870 0.949 . S
C874 C882 1.574 1_556 S
C874 C890 1.368 . S
H875 C883 0.950 . S
H876 C881 0.950 . S
H877 C882 0.949 . S
H878 C884 0.950 . S
H879 C885 0.950 . S
H880 C886 0.949 . S
C881 H876 0.950 . S
C881 C883 1.327 . S
C881 C887 1.429 . S
C882 C874 1.574 1_554 S
C882 H877 0.949 . S
C882 C888 1.368 . S
C883 C867 1.349 . S
C883 H875 0.950 . S
C883 C881 1.327 . S
C884 C872 1.349 . S
C884 H878 0.950 . S
C884 C885 1.327 . S
C885 H879 0.950 . S
C885 C884 1.327 . S
C885 C889 1.429 . S
C886 C869 1.574 1_556 S
C886 H880 0.949 . S
C886 C890 1.368 . S
C887 C868 1.429 . S
C887 C881 1.429 . S
C887 C888 1.523 . S
C888 C869 1.368 . S
C888 C882 1.368 . S
C888 C887 1.523 . S
C889 C873 1.429 . S
C889 C885 1.429 . S
C889 C890 1.523 . S
C890 C874 1.368 . S
C890 C886 1.368 . S
C890 C889 1.523 . S
H891 C866 0.950 . S
H892 C868 0.950 . S
H893 C869 0.949 . S
H894 C871 0.950 . S
H895 C873 0.950 . S
C177 C175 1.293 . S
C182 C18 1.279 . S
C207 C40 1.279 . S
C212 C153 1.293 . S
C237 C117 1.298 . S
C242 C62 1.283 . S
C267 C74 1.283 . S
C272 C103 1.298 . S
C297 C81 1.293 . S
C302 C106 1.279 . S
C327 C65 1.293 . S
C332 C118 1.279 . S
C357 C37 1.298 . S
C362 C150 1.283 . S
C387 C15 1.298 . S
C392 C172 1.283 . S
C417 C43 1.479 . S
C422 C21 1.479 . S
C447 C73 1.487 . S
C452 C59 1.487 . S
C477 C109 1.479 . S
C482 C125 1.479 . S
C507 C169 1.487 . S
C512 C147 1.487 . S
C537 C84 1.399 . S
C542 C8 1.399 . S
C567 C54 1.399 . S
C572 C30 1.399 . S
C597 C96 1.399 . S
C602 C164 1.399 . S
C627 C120 1.399 . S
C632 C142 1.399 . S
C657 C140 1.852 . S
C662 C10 1.862 . S
C687 C32 1.862 . S
C692 C162 1.852 . S
C717 C98 1.862 . S
C722 C52 1.852 . S
C747 C128 1.862 . S
C752 C76 1.852 . S
C777 C7 0.732 . S
C782 C139 0.731 . S
C807 C161 0.731 . S
C812 C29 0.732 . S
C837 C51 0.731 . S
C842 C95 0.732 . S
C867 C87 0.731 . S
C872 C131 0.732 . S
