# Generated by pormake.
# Topology fdc, (5)-cn, num edge types: 1
# Building blocks:
#     Node 0, Type 0, BuildingBlock: XOMCOT_clean_sbu_1, # of connection points: 5
#     Node 1, Type 0, BuildingBlock: XOMCOT_clean_sbu_1, # of connection points: 5
#     Node 2, Type 0, BuildingBlock: XOMCOT_clean_sbu_1, # of connection points: 5
#     Node 3, Type 0, BuildingBlock: XOMCOT_clean_sbu_1, # of connection points: 5
#     Node 4, Type 0, BuildingBlock: XOMCOT_clean_sbu_1, # of connection points: 5
#     Node 5, Type 0, BuildingBlock: XOMCOT_clean_sbu_1, # of connection points: 5
#     Node 6, Type 0, BuildingBlock: XOMCOT_clean_sbu_1, # of connection points: 5
#     Node 7, Type 0, BuildingBlock: XOMCOT_clean_sbu_1, # of connection points: 5
#     Node 8, Type 0, BuildingBlock: XOMCOT_clean_sbu_1, # of connection points: 5
#     Node 9, Type 0, BuildingBlock: XOMCOT_clean_sbu_1, # of connection points: 5
#     Node 10, Type 0, BuildingBlock: XOMCOT_clean_sbu_1, # of connection points: 5
#     Node 11, Type 0, BuildingBlock: XOMCOT_clean_sbu_1, # of connection points: 5
#     Node 12, Type 0, BuildingBlock: XOMCOT_clean_sbu_1, # of connection points: 5
#     Node 13, Type 0, BuildingBlock: XOMCOT_clean_sbu_1, # of connection points: 5
#     Node 14, Type 0, BuildingBlock: XOMCOT_clean_sbu_1, # of connection points: 5
#     Node 15, Type 0, BuildingBlock: XOMCOT_clean_sbu_1, # of connection points: 5
#     Node 16, Type 0, BuildingBlock: XOMCOT_clean_sbu_1, # of connection points: 5
#     Node 17, Type 0, BuildingBlock: XOMCOT_clean_sbu_1, # of connection points: 5
#     Node 18, Type 0, BuildingBlock: XOMCOT_clean_sbu_1, # of connection points: 5
#     Node 19, Type 0, BuildingBlock: XOMCOT_clean_sbu_1, # of connection points: 5
#     Node 20, Type 0, BuildingBlock: XOMCOT_clean_sbu_1, # of connection points: 5
#     Node 21, Type 0, BuildingBlock: XOMCOT_clean_sbu_1, # of connection points: 5
#     Node 22, Type 0, BuildingBlock: XOMCOT_clean_sbu_1, # of connection points: 5
#     Node 23, Type 0, BuildingBlock: XOMCOT_clean_sbu_1, # of connection points: 5
#     Node 24, Type 0, BuildingBlock: XOMCOT_clean_sbu_1, # of connection points: 5
#     Node 25, Type 0, BuildingBlock: XOMCOT_clean_sbu_1, # of connection points: 5
#     Node 26, Type 0, BuildingBlock: XOMCOT_clean_sbu_1, # of connection points: 5
#     Node 27, Type 0, BuildingBlock: XOMCOT_clean_sbu_1, # of connection points: 5
#     Node 28, Type 0, BuildingBlock: XOMCOT_clean_sbu_1, # of connection points: 5
#     Node 29, Type 0, BuildingBlock: XOMCOT_clean_sbu_1, # of connection points: 5
#     Node 30, Type 0, BuildingBlock: XOMCOT_clean_sbu_1, # of connection points: 5
#     Node 31, Type 0, BuildingBlock: XOMCOT_clean_sbu_1, # of connection points: 5
#     Node 32, Type 0, BuildingBlock: XOMCOT_clean_sbu_1, # of connection points: 5
#     Node 33, Type 0, BuildingBlock: XOMCOT_clean_sbu_1, # of connection points: 5
#     Node 34, Type 0, BuildingBlock: XOMCOT_clean_sbu_1, # of connection points: 5
#     Node 35, Type 0, BuildingBlock: XOMCOT_clean_sbu_1, # of connection points: 5
#     Node 36, Type 0, BuildingBlock: XOMCOT_clean_sbu_1, # of connection points: 5
#     Node 37, Type 0, BuildingBlock: XOMCOT_clean_sbu_1, # of connection points: 5
#     Node 38, Type 0, BuildingBlock: XOMCOT_clean_sbu_1, # of connection points: 5
#     Node 39, Type 0, BuildingBlock: XOMCOT_clean_sbu_1, # of connection points: 5
#     Node 40, Type 0, BuildingBlock: XOMCOT_clean_sbu_1, # of connection points: 5
#     Node 41, Type 0, BuildingBlock: XOMCOT_clean_sbu_1, # of connection points: 5
#     Node 42, Type 0, BuildingBlock: XOMCOT_clean_sbu_1, # of connection points: 5
#     Node 43, Type 0, BuildingBlock: XOMCOT_clean_sbu_1, # of connection points: 5
#     Node 44, Type 0, BuildingBlock: XOMCOT_clean_sbu_1, # of connection points: 5
#     Node 45, Type 0, BuildingBlock: XOMCOT_clean_sbu_1, # of connection points: 5
#     Node 46, Type 0, BuildingBlock: XOMCOT_clean_sbu_1, # of connection points: 5
#     Node 47, Type 0, BuildingBlock: XOMCOT_clean_sbu_1, # of connection points: 5
#     Node 48, Type 0, BuildingBlock: XOMCOT_clean_sbu_1, # of connection points: 5
#     Node 49, Type 0, BuildingBlock: XOMCOT_clean_sbu_1, # of connection points: 5
#     Node 50, Type 0, BuildingBlock: XOMCOT_clean_sbu_1, # of connection points: 5
#     Node 51, Type 0, BuildingBlock: XOMCOT_clean_sbu_1, # of connection points: 5
#     Node 52, Type 0, BuildingBlock: XOMCOT_clean_sbu_1, # of connection points: 5
#     Node 53, Type 0, BuildingBlock: XOMCOT_clean_sbu_1, # of connection points: 5
#     Node 54, Type 0, BuildingBlock: XOMCOT_clean_sbu_1, # of connection points: 5
#     Node 55, Type 0, BuildingBlock: XOMCOT_clean_sbu_1, # of connection points: 5
#     Node 56, Type 0, BuildingBlock: XOMCOT_clean_sbu_1, # of connection points: 5
#     Node 57, Type 0, BuildingBlock: XOMCOT_clean_sbu_1, # of connection points: 5
#     Node 58, Type 0, BuildingBlock: XOMCOT_clean_sbu_1, # of connection points: 5
#     Node 59, Type 0, BuildingBlock: XOMCOT_clean_sbu_1, # of connection points: 5
#     Node 60, Type 0, BuildingBlock: XOMCOT_clean_sbu_1, # of connection points: 5
#     Node 61, Type 0, BuildingBlock: XOMCOT_clean_sbu_1, # of connection points: 5
#     Node 62, Type 0, BuildingBlock: XOMCOT_clean_sbu_1, # of connection points: 5
#     Node 63, Type 0, BuildingBlock: XOMCOT_clean_sbu_1, # of connection points: 5
#     Node 64, Type 0, BuildingBlock: XOMCOT_clean_sbu_1, # of connection points: 5
#     Node 65, Type 0, BuildingBlock: XOMCOT_clean_sbu_1, # of connection points: 5
#     Node 66, Type 0, BuildingBlock: XOMCOT_clean_sbu_1, # of connection points: 5
#     Node 67, Type 0, BuildingBlock: XOMCOT_clean_sbu_1, # of connection points: 5
#     Node 68, Type 0, BuildingBlock: XOMCOT_clean_sbu_1, # of connection points: 5
#     Node 69, Type 0, BuildingBlock: XOMCOT_clean_sbu_1, # of connection points: 5
#     Node 70, Type 0, BuildingBlock: XOMCOT_clean_sbu_1, # of connection points: 5
#     Node 71, Type 0, BuildingBlock: XOMCOT_clean_sbu_1, # of connection points: 5
#     Node 72, Type 0, BuildingBlock: XOMCOT_clean_sbu_1, # of connection points: 5
#     Node 73, Type 0, BuildingBlock: XOMCOT_clean_sbu_1, # of connection points: 5
#     Node 74, Type 0, BuildingBlock: XOMCOT_clean_sbu_1, # of connection points: 5
#     Node 75, Type 0, BuildingBlock: XOMCOT_clean_sbu_1, # of connection points: 5
#     Node 76, Type 0, BuildingBlock: XOMCOT_clean_sbu_1, # of connection points: 5
#     Node 77, Type 0, BuildingBlock: XOMCOT_clean_sbu_1, # of connection points: 5
#     Node 78, Type 0, BuildingBlock: XOMCOT_clean_sbu_1, # of connection points: 5
#     Node 79, Type 0, BuildingBlock: XOMCOT_clean_sbu_1, # of connection points: 5
#     Node 80, Type 0, BuildingBlock: XOMCOT_clean_sbu_1, # of connection points: 5
#     Node 81, Type 0, BuildingBlock: XOMCOT_clean_sbu_1, # of connection points: 5
#     Node 82, Type 0, BuildingBlock: XOMCOT_clean_sbu_1, # of connection points: 5
#     Node 83, Type 0, BuildingBlock: XOMCOT_clean_sbu_1, # of connection points: 5
#     Node 84, Type 0, BuildingBlock: XOMCOT_clean_sbu_1, # of connection points: 5
#     Node 85, Type 0, BuildingBlock: XOMCOT_clean_sbu_1, # of connection points: 5
#     Node 86, Type 0, BuildingBlock: XOMCOT_clean_sbu_1, # of connection points: 5
#     Node 87, Type 0, BuildingBlock: XOMCOT_clean_sbu_1, # of connection points: 5
#     Node 88, Type 0, BuildingBlock: XOMCOT_clean_sbu_1, # of connection points: 5
#     Node 89, Type 0, BuildingBlock: XOMCOT_clean_sbu_1, # of connection points: 5
#     Node 90, Type 0, BuildingBlock: XOMCOT_clean_sbu_1, # of connection points: 5
#     Node 91, Type 0, BuildingBlock: XOMCOT_clean_sbu_1, # of connection points: 5
#     Node 92, Type 0, BuildingBlock: XOMCOT_clean_sbu_1, # of connection points: 5
#     Node 93, Type 0, BuildingBlock: XOMCOT_clean_sbu_1, # of connection points: 5
#     Node 94, Type 0, BuildingBlock: XOMCOT_clean_sbu_1, # of connection points: 5
#     Node 95, Type 0, BuildingBlock: XOMCOT_clean_sbu_1, # of connection points: 5
#     Edge 96, Type (0, 0), BuildingBlock: XIVTED_clean_linker_0, # of connection points: 2
#     Edge 97, Type (0, 0), BuildingBlock: XIVTED_clean_linker_0, # of connection points: 2
#     Edge 98, Type (0, 0), BuildingBlock: XIVTED_clean_linker_0, # of connection points: 2
#     Edge 99, Type (0, 0), BuildingBlock: XIVTED_clean_linker_0, # of connection points: 2
#     Edge 100, Type (0, 0), BuildingBlock: XIVTED_clean_linker_0, # of connection points: 2
#     Edge 101, Type (0, 0), BuildingBlock: XIVTED_clean_linker_0, # of connection points: 2
#     Edge 102, Type (0, 0), BuildingBlock: XIVTED_clean_linker_0, # of connection points: 2
#     Edge 103, Type (0, 0), BuildingBlock: XIVTED_clean_linker_0, # of connection points: 2
#     Edge 104, Type (0, 0), BuildingBlock: XIVTED_clean_linker_0, # of connection points: 2
#     Edge 105, Type (0, 0), BuildingBlock: XIVTED_clean_linker_0, # of connection points: 2
#     Edge 106, Type (0, 0), BuildingBlock: XIVTED_clean_linker_0, # of connection points: 2
#     Edge 107, Type (0, 0), BuildingBlock: XIVTED_clean_linker_0, # of connection points: 2
#     Edge 108, Type (0, 0), BuildingBlock: XIVTED_clean_linker_0, # of connection points: 2
#     Edge 109, Type (0, 0), BuildingBlock: XIVTED_clean_linker_0, # of connection points: 2
#     Edge 110, Type (0, 0), BuildingBlock: XIVTED_clean_linker_0, # of connection points: 2
#     Edge 111, Type (0, 0), BuildingBlock: XIVTED_clean_linker_0, # of connection points: 2
#     Edge 112, Type (0, 0), BuildingBlock: XIVTED_clean_linker_0, # of connection points: 2
#     Edge 113, Type (0, 0), BuildingBlock: XIVTED_clean_linker_0, # of connection points: 2
#     Edge 114, Type (0, 0), BuildingBlock: XIVTED_clean_linker_0, # of connection points: 2
#     Edge 115, Type (0, 0), BuildingBlock: XIVTED_clean_linker_0, # of connection points: 2
#     Edge 116, Type (0, 0), BuildingBlock: XIVTED_clean_linker_0, # of connection points: 2
#     Edge 117, Type (0, 0), BuildingBlock: XIVTED_clean_linker_0, # of connection points: 2
#     Edge 118, Type (0, 0), BuildingBlock: XIVTED_clean_linker_0, # of connection points: 2
#     Edge 119, Type (0, 0), BuildingBlock: XIVTED_clean_linker_0, # of connection points: 2
#     Edge 120, Type (0, 0), BuildingBlock: XIVTED_clean_linker_0, # of connection points: 2
#     Edge 121, Type (0, 0), BuildingBlock: XIVTED_clean_linker_0, # of connection points: 2
#     Edge 122, Type (0, 0), BuildingBlock: XIVTED_clean_linker_0, # of connection points: 2
#     Edge 123, Type (0, 0), BuildingBlock: XIVTED_clean_linker_0, # of connection points: 2
#     Edge 124, Type (0, 0), BuildingBlock: XIVTED_clean_linker_0, # of connection points: 2
#     Edge 125, Type (0, 0), BuildingBlock: XIVTED_clean_linker_0, # of connection points: 2
#     Edge 126, Type (0, 0), BuildingBlock: XIVTED_clean_linker_0, # of connection points: 2
#     Edge 127, Type (0, 0), BuildingBlock: XIVTED_clean_linker_0, # of connection points: 2
#     Edge 128, Type (0, 0), BuildingBlock: XIVTED_clean_linker_0, # of connection points: 2
#     Edge 129, Type (0, 0), BuildingBlock: XIVTED_clean_linker_0, # of connection points: 2
#     Edge 130, Type (0, 0), BuildingBlock: XIVTED_clean_linker_0, # of connection points: 2
#     Edge 131, Type (0, 0), BuildingBlock: XIVTED_clean_linker_0, # of connection points: 2
#     Edge 132, Type (0, 0), BuildingBlock: XIVTED_clean_linker_0, # of connection points: 2
#     Edge 133, Type (0, 0), BuildingBlock: XIVTED_clean_linker_0, # of connection points: 2
#     Edge 134, Type (0, 0), BuildingBlock: XIVTED_clean_linker_0, # of connection points: 2
#     Edge 135, Type (0, 0), BuildingBlock: XIVTED_clean_linker_0, # of connection points: 2
#     Edge 136, Type (0, 0), BuildingBlock: XIVTED_clean_linker_0, # of connection points: 2
#     Edge 137, Type (0, 0), BuildingBlock: XIVTED_clean_linker_0, # of connection points: 2
#     Edge 138, Type (0, 0), BuildingBlock: XIVTED_clean_linker_0, # of connection points: 2
#     Edge 139, Type (0, 0), BuildingBlock: XIVTED_clean_linker_0, # of connection points: 2
#     Edge 140, Type (0, 0), BuildingBlock: XIVTED_clean_linker_0, # of connection points: 2
#     Edge 141, Type (0, 0), BuildingBlock: XIVTED_clean_linker_0, # of connection points: 2
#     Edge 142, Type (0, 0), BuildingBlock: XIVTED_clean_linker_0, # of connection points: 2
#     Edge 143, Type (0, 0), BuildingBlock: XIVTED_clean_linker_0, # of connection points: 2
#     Edge 144, Type (0, 0), BuildingBlock: XIVTED_clean_linker_0, # of connection points: 2
#     Edge 145, Type (0, 0), BuildingBlock: XIVTED_clean_linker_0, # of connection points: 2
#     Edge 146, Type (0, 0), BuildingBlock: XIVTED_clean_linker_0, # of connection points: 2
#     Edge 147, Type (0, 0), BuildingBlock: XIVTED_clean_linker_0, # of connection points: 2
#     Edge 148, Type (0, 0), BuildingBlock: XIVTED_clean_linker_0, # of connection points: 2
#     Edge 149, Type (0, 0), BuildingBlock: XIVTED_clean_linker_0, # of connection points: 2
#     Edge 150, Type (0, 0), BuildingBlock: XIVTED_clean_linker_0, # of connection points: 2
#     Edge 151, Type (0, 0), BuildingBlock: XIVTED_clean_linker_0, # of connection points: 2
#     Edge 152, Type (0, 0), BuildingBlock: XIVTED_clean_linker_0, # of connection points: 2
#     Edge 153, Type (0, 0), BuildingBlock: XIVTED_clean_linker_0, # of connection points: 2
#     Edge 154, Type (0, 0), BuildingBlock: XIVTED_clean_linker_0, # of connection points: 2
#     Edge 155, Type (0, 0), BuildingBlock: XIVTED_clean_linker_0, # of connection points: 2
#     Edge 156, Type (0, 0), BuildingBlock: XIVTED_clean_linker_0, # of connection points: 2
#     Edge 157, Type (0, 0), BuildingBlock: XIVTED_clean_linker_0, # of connection points: 2
#     Edge 158, Type (0, 0), BuildingBlock: XIVTED_clean_linker_0, # of connection points: 2
#     Edge 159, Type (0, 0), BuildingBlock: XIVTED_clean_linker_0, # of connection points: 2
#     Edge 160, Type (0, 0), BuildingBlock: XIVTED_clean_linker_0, # of connection points: 2
#     Edge 161, Type (0, 0), BuildingBlock: XIVTED_clean_linker_0, # of connection points: 2
#     Edge 162, Type (0, 0), BuildingBlock: XIVTED_clean_linker_0, # of connection points: 2
#     Edge 163, Type (0, 0), BuildingBlock: XIVTED_clean_linker_0, # of connection points: 2
#     Edge 164, Type (0, 0), BuildingBlock: XIVTED_clean_linker_0, # of connection points: 2
#     Edge 165, Type (0, 0), BuildingBlock: XIVTED_clean_linker_0, # of connection points: 2
#     Edge 166, Type (0, 0), BuildingBlock: XIVTED_clean_linker_0, # of connection points: 2
#     Edge 167, Type (0, 0), BuildingBlock: XIVTED_clean_linker_0, # of connection points: 2
#     Edge 168, Type (0, 0), BuildingBlock: XIVTED_clean_linker_0, # of connection points: 2
#     Edge 169, Type (0, 0), BuildingBlock: XIVTED_clean_linker_0, # of connection points: 2
#     Edge 170, Type (0, 0), BuildingBlock: XIVTED_clean_linker_0, # of connection points: 2
#     Edge 171, Type (0, 0), BuildingBlock: XIVTED_clean_linker_0, # of connection points: 2
#     Edge 172, Type (0, 0), BuildingBlock: XIVTED_clean_linker_0, # of connection points: 2
#     Edge 173, Type (0, 0), BuildingBlock: XIVTED_clean_linker_0, # of connection points: 2
#     Edge 174, Type (0, 0), BuildingBlock: XIVTED_clean_linker_0, # of connection points: 2
#     Edge 175, Type (0, 0), BuildingBlock: XIVTED_clean_linker_0, # of connection points: 2
#     Edge 176, Type (0, 0), BuildingBlock: XIVTED_clean_linker_0, # of connection points: 2
#     Edge 177, Type (0, 0), BuildingBlock: XIVTED_clean_linker_0, # of connection points: 2
#     Edge 178, Type (0, 0), BuildingBlock: XIVTED_clean_linker_0, # of connection points: 2
#     Edge 179, Type (0, 0), BuildingBlock: XIVTED_clean_linker_0, # of connection points: 2
#     Edge 180, Type (0, 0), BuildingBlock: XIVTED_clean_linker_0, # of connection points: 2
#     Edge 181, Type (0, 0), BuildingBlock: XIVTED_clean_linker_0, # of connection points: 2
#     Edge 182, Type (0, 0), BuildingBlock: XIVTED_clean_linker_0, # of connection points: 2
#     Edge 183, Type (0, 0), BuildingBlock: XIVTED_clean_linker_0, # of connection points: 2
#     Edge 184, Type (0, 0), BuildingBlock: XIVTED_clean_linker_0, # of connection points: 2
#     Edge 185, Type (0, 0), BuildingBlock: XIVTED_clean_linker_0, # of connection points: 2
#     Edge 186, Type (0, 0), BuildingBlock: XIVTED_clean_linker_0, # of connection points: 2
#     Edge 187, Type (0, 0), BuildingBlock: XIVTED_clean_linker_0, # of connection points: 2
#     Edge 188, Type (0, 0), BuildingBlock: XIVTED_clean_linker_0, # of connection points: 2
#     Edge 189, Type (0, 0), BuildingBlock: XIVTED_clean_linker_0, # of connection points: 2
#     Edge 190, Type (0, 0), BuildingBlock: XIVTED_clean_linker_0, # of connection points: 2
#     Edge 191, Type (0, 0), BuildingBlock: XIVTED_clean_linker_0, # of connection points: 2
#     Edge 192, Type (0, 0), BuildingBlock: XIVTED_clean_linker_0, # of connection points: 2
#     Edge 193, Type (0, 0), BuildingBlock: XIVTED_clean_linker_0, # of connection points: 2
#     Edge 194, Type (0, 0), BuildingBlock: XIVTED_clean_linker_0, # of connection points: 2
#     Edge 195, Type (0, 0), BuildingBlock: XIVTED_clean_linker_0, # of connection points: 2
#     Edge 196, Type (0, 0), BuildingBlock: XIVTED_clean_linker_0, # of connection points: 2
#     Edge 197, Type (0, 0), BuildingBlock: XIVTED_clean_linker_0, # of connection points: 2
#     Edge 198, Type (0, 0), BuildingBlock: XIVTED_clean_linker_0, # of connection points: 2
#     Edge 199, Type (0, 0), BuildingBlock: XIVTED_clean_linker_0, # of connection points: 2
#     Edge 200, Type (0, 0), BuildingBlock: XIVTED_clean_linker_0, # of connection points: 2
#     Edge 201, Type (0, 0), BuildingBlock: XIVTED_clean_linker_0, # of connection points: 2
#     Edge 202, Type (0, 0), BuildingBlock: XIVTED_clean_linker_0, # of connection points: 2
#     Edge 203, Type (0, 0), BuildingBlock: XIVTED_clean_linker_0, # of connection points: 2
#     Edge 204, Type (0, 0), BuildingBlock: XIVTED_clean_linker_0, # of connection points: 2
#     Edge 205, Type (0, 0), BuildingBlock: XIVTED_clean_linker_0, # of connection points: 2
#     Edge 206, Type (0, 0), BuildingBlock: XIVTED_clean_linker_0, # of connection points: 2
#     Edge 207, Type (0, 0), BuildingBlock: XIVTED_clean_linker_0, # of connection points: 2
#     Edge 208, Type (0, 0), BuildingBlock: XIVTED_clean_linker_0, # of connection points: 2
#     Edge 209, Type (0, 0), BuildingBlock: XIVTED_clean_linker_0, # of connection points: 2
#     Edge 210, Type (0, 0), BuildingBlock: XIVTED_clean_linker_0, # of connection points: 2
#     Edge 211, Type (0, 0), BuildingBlock: XIVTED_clean_linker_0, # of connection points: 2
#     Edge 212, Type (0, 0), BuildingBlock: XIVTED_clean_linker_0, # of connection points: 2
#     Edge 213, Type (0, 0), BuildingBlock: XIVTED_clean_linker_0, # of connection points: 2
#     Edge 214, Type (0, 0), BuildingBlock: XIVTED_clean_linker_0, # of connection points: 2
#     Edge 215, Type (0, 0), BuildingBlock: XIVTED_clean_linker_0, # of connection points: 2
#     Edge 216, Type (0, 0), BuildingBlock: XIVTED_clean_linker_0, # of connection points: 2
#     Edge 217, Type (0, 0), BuildingBlock: XIVTED_clean_linker_0, # of connection points: 2
#     Edge 218, Type (0, 0), BuildingBlock: XIVTED_clean_linker_0, # of connection points: 2
#     Edge 219, Type (0, 0), BuildingBlock: XIVTED_clean_linker_0, # of connection points: 2
#     Edge 220, Type (0, 0), BuildingBlock: XIVTED_clean_linker_0, # of connection points: 2
#     Edge 221, Type (0, 0), BuildingBlock: XIVTED_clean_linker_0, # of connection points: 2
#     Edge 222, Type (0, 0), BuildingBlock: XIVTED_clean_linker_0, # of connection points: 2
#     Edge 223, Type (0, 0), BuildingBlock: XIVTED_clean_linker_0, # of connection points: 2
#     Edge 224, Type (0, 0), BuildingBlock: XIVTED_clean_linker_0, # of connection points: 2
#     Edge 225, Type (0, 0), BuildingBlock: XIVTED_clean_linker_0, # of connection points: 2
#     Edge 226, Type (0, 0), BuildingBlock: XIVTED_clean_linker_0, # of connection points: 2
#     Edge 227, Type (0, 0), BuildingBlock: XIVTED_clean_linker_0, # of connection points: 2
#     Edge 228, Type (0, 0), BuildingBlock: XIVTED_clean_linker_0, # of connection points: 2
#     Edge 229, Type (0, 0), BuildingBlock: XIVTED_clean_linker_0, # of connection points: 2
#     Edge 230, Type (0, 0), BuildingBlock: XIVTED_clean_linker_0, # of connection points: 2
#     Edge 231, Type (0, 0), BuildingBlock: XIVTED_clean_linker_0, # of connection points: 2
#     Edge 232, Type (0, 0), BuildingBlock: XIVTED_clean_linker_0, # of connection points: 2
#     Edge 233, Type (0, 0), BuildingBlock: XIVTED_clean_linker_0, # of connection points: 2
#     Edge 234, Type (0, 0), BuildingBlock: XIVTED_clean_linker_0, # of connection points: 2
#     Edge 235, Type (0, 0), BuildingBlock: XIVTED_clean_linker_0, # of connection points: 2
#     Edge 236, Type (0, 0), BuildingBlock: XIVTED_clean_linker_0, # of connection points: 2
#     Edge 237, Type (0, 0), BuildingBlock: XIVTED_clean_linker_0, # of connection points: 2
#     Edge 238, Type (0, 0), BuildingBlock: XIVTED_clean_linker_0, # of connection points: 2
#     Edge 239, Type (0, 0), BuildingBlock: XIVTED_clean_linker_0, # of connection points: 2
#     Edge 240, Type (0, 0), BuildingBlock: XIVTED_clean_linker_0, # of connection points: 2
#     Edge 241, Type (0, 0), BuildingBlock: XIVTED_clean_linker_0, # of connection points: 2
#     Edge 242, Type (0, 0), BuildingBlock: XIVTED_clean_linker_0, # of connection points: 2
#     Edge 243, Type (0, 0), BuildingBlock: XIVTED_clean_linker_0, # of connection points: 2
#     Edge 244, Type (0, 0), BuildingBlock: XIVTED_clean_linker_0, # of connection points: 2
#     Edge 245, Type (0, 0), BuildingBlock: XIVTED_clean_linker_0, # of connection points: 2
#     Edge 246, Type (0, 0), BuildingBlock: XIVTED_clean_linker_0, # of connection points: 2
#     Edge 247, Type (0, 0), BuildingBlock: XIVTED_clean_linker_0, # of connection points: 2
#     Edge 248, Type (0, 0), BuildingBlock: XIVTED_clean_linker_0, # of connection points: 2
#     Edge 249, Type (0, 0), BuildingBlock: XIVTED_clean_linker_0, # of connection points: 2
#     Edge 250, Type (0, 0), BuildingBlock: XIVTED_clean_linker_0, # of connection points: 2
#     Edge 251, Type (0, 0), BuildingBlock: XIVTED_clean_linker_0, # of connection points: 2
#     Edge 252, Type (0, 0), BuildingBlock: XIVTED_clean_linker_0, # of connection points: 2
#     Edge 253, Type (0, 0), BuildingBlock: XIVTED_clean_linker_0, # of connection points: 2
#     Edge 254, Type (0, 0), BuildingBlock: XIVTED_clean_linker_0, # of connection points: 2
#     Edge 255, Type (0, 0), BuildingBlock: XIVTED_clean_linker_0, # of connection points: 2
#     Edge 256, Type (0, 0), BuildingBlock: XIVTED_clean_linker_0, # of connection points: 2
#     Edge 257, Type (0, 0), BuildingBlock: XIVTED_clean_linker_0, # of connection points: 2
#     Edge 258, Type (0, 0), BuildingBlock: XIVTED_clean_linker_0, # of connection points: 2
#     Edge 259, Type (0, 0), BuildingBlock: XIVTED_clean_linker_0, # of connection points: 2
#     Edge 260, Type (0, 0), BuildingBlock: XIVTED_clean_linker_0, # of connection points: 2
#     Edge 261, Type (0, 0), BuildingBlock: XIVTED_clean_linker_0, # of connection points: 2
#     Edge 262, Type (0, 0), BuildingBlock: XIVTED_clean_linker_0, # of connection points: 2
#     Edge 263, Type (0, 0), BuildingBlock: XIVTED_clean_linker_0, # of connection points: 2
#     Edge 264, Type (0, 0), BuildingBlock: XIVTED_clean_linker_0, # of connection points: 2
#     Edge 265, Type (0, 0), BuildingBlock: XIVTED_clean_linker_0, # of connection points: 2
#     Edge 266, Type (0, 0), BuildingBlock: XIVTED_clean_linker_0, # of connection points: 2
#     Edge 267, Type (0, 0), BuildingBlock: XIVTED_clean_linker_0, # of connection points: 2
#     Edge 268, Type (0, 0), BuildingBlock: XIVTED_clean_linker_0, # of connection points: 2
#     Edge 269, Type (0, 0), BuildingBlock: XIVTED_clean_linker_0, # of connection points: 2
#     Edge 270, Type (0, 0), BuildingBlock: XIVTED_clean_linker_0, # of connection points: 2
#     Edge 271, Type (0, 0), BuildingBlock: XIVTED_clean_linker_0, # of connection points: 2
#     Edge 272, Type (0, 0), BuildingBlock: XIVTED_clean_linker_0, # of connection points: 2
#     Edge 273, Type (0, 0), BuildingBlock: XIVTED_clean_linker_0, # of connection points: 2
#     Edge 274, Type (0, 0), BuildingBlock: XIVTED_clean_linker_0, # of connection points: 2
#     Edge 275, Type (0, 0), BuildingBlock: XIVTED_clean_linker_0, # of connection points: 2
#     Edge 276, Type (0, 0), BuildingBlock: XIVTED_clean_linker_0, # of connection points: 2
#     Edge 277, Type (0, 0), BuildingBlock: XIVTED_clean_linker_0, # of connection points: 2
#     Edge 278, Type (0, 0), BuildingBlock: XIVTED_clean_linker_0, # of connection points: 2
#     Edge 279, Type (0, 0), BuildingBlock: XIVTED_clean_linker_0, # of connection points: 2
#     Edge 280, Type (0, 0), BuildingBlock: XIVTED_clean_linker_0, # of connection points: 2
#     Edge 281, Type (0, 0), BuildingBlock: XIVTED_clean_linker_0, # of connection points: 2
#     Edge 282, Type (0, 0), BuildingBlock: XIVTED_clean_linker_0, # of connection points: 2
#     Edge 283, Type (0, 0), BuildingBlock: XIVTED_clean_linker_0, # of connection points: 2
#     Edge 284, Type (0, 0), BuildingBlock: XIVTED_clean_linker_0, # of connection points: 2
#     Edge 285, Type (0, 0), BuildingBlock: XIVTED_clean_linker_0, # of connection points: 2
#     Edge 286, Type (0, 0), BuildingBlock: XIVTED_clean_linker_0, # of connection points: 2
#     Edge 287, Type (0, 0), BuildingBlock: XIVTED_clean_linker_0, # of connection points: 2
#     Edge 288, Type (0, 0), BuildingBlock: XIVTED_clean_linker_0, # of connection points: 2
#     Edge 289, Type (0, 0), BuildingBlock: XIVTED_clean_linker_0, # of connection points: 2
#     Edge 290, Type (0, 0), BuildingBlock: XIVTED_clean_linker_0, # of connection points: 2
#     Edge 291, Type (0, 0), BuildingBlock: XIVTED_clean_linker_0, # of connection points: 2
#     Edge 292, Type (0, 0), BuildingBlock: XIVTED_clean_linker_0, # of connection points: 2
#     Edge 293, Type (0, 0), BuildingBlock: XIVTED_clean_linker_0, # of connection points: 2
#     Edge 294, Type (0, 0), BuildingBlock: XIVTED_clean_linker_0, # of connection points: 2
#     Edge 295, Type (0, 0), BuildingBlock: XIVTED_clean_linker_0, # of connection points: 2
#     Edge 296, Type (0, 0), BuildingBlock: XIVTED_clean_linker_0, # of connection points: 2
#     Edge 297, Type (0, 0), BuildingBlock: XIVTED_clean_linker_0, # of connection points: 2
#     Edge 298, Type (0, 0), BuildingBlock: XIVTED_clean_linker_0, # of connection points: 2
#     Edge 299, Type (0, 0), BuildingBlock: XIVTED_clean_linker_0, # of connection points: 2
#     Edge 300, Type (0, 0), BuildingBlock: XIVTED_clean_linker_0, # of connection points: 2
#     Edge 301, Type (0, 0), BuildingBlock: XIVTED_clean_linker_0, # of connection points: 2
#     Edge 302, Type (0, 0), BuildingBlock: XIVTED_clean_linker_0, # of connection points: 2
#     Edge 303, Type (0, 0), BuildingBlock: XIVTED_clean_linker_0, # of connection points: 2
#     Edge 304, Type (0, 0), BuildingBlock: XIVTED_clean_linker_0, # of connection points: 2
#     Edge 305, Type (0, 0), BuildingBlock: XIVTED_clean_linker_0, # of connection points: 2
#     Edge 306, Type (0, 0), BuildingBlock: XIVTED_clean_linker_0, # of connection points: 2
#     Edge 307, Type (0, 0), BuildingBlock: XIVTED_clean_linker_0, # of connection points: 2
#     Edge 308, Type (0, 0), BuildingBlock: XIVTED_clean_linker_0, # of connection points: 2
#     Edge 309, Type (0, 0), BuildingBlock: XIVTED_clean_linker_0, # of connection points: 2
#     Edge 310, Type (0, 0), BuildingBlock: XIVTED_clean_linker_0, # of connection points: 2
#     Edge 311, Type (0, 0), BuildingBlock: XIVTED_clean_linker_0, # of connection points: 2
#     Edge 312, Type (0, 0), BuildingBlock: XIVTED_clean_linker_0, # of connection points: 2
#     Edge 313, Type (0, 0), BuildingBlock: XIVTED_clean_linker_0, # of connection points: 2
#     Edge 314, Type (0, 0), BuildingBlock: XIVTED_clean_linker_0, # of connection points: 2
#     Edge 315, Type (0, 0), BuildingBlock: XIVTED_clean_linker_0, # of connection points: 2
#     Edge 316, Type (0, 0), BuildingBlock: XIVTED_clean_linker_0, # of connection points: 2
#     Edge 317, Type (0, 0), BuildingBlock: XIVTED_clean_linker_0, # of connection points: 2
#     Edge 318, Type (0, 0), BuildingBlock: XIVTED_clean_linker_0, # of connection points: 2
#     Edge 319, Type (0, 0), BuildingBlock: XIVTED_clean_linker_0, # of connection points: 2
#     Edge 320, Type (0, 0), BuildingBlock: XIVTED_clean_linker_0, # of connection points: 2
#     Edge 321, Type (0, 0), BuildingBlock: XIVTED_clean_linker_0, # of connection points: 2
#     Edge 322, Type (0, 0), BuildingBlock: XIVTED_clean_linker_0, # of connection points: 2
#     Edge 323, Type (0, 0), BuildingBlock: XIVTED_clean_linker_0, # of connection points: 2
#     Edge 324, Type (0, 0), BuildingBlock: XIVTED_clean_linker_0, # of connection points: 2
#     Edge 325, Type (0, 0), BuildingBlock: XIVTED_clean_linker_0, # of connection points: 2
#     Edge 326, Type (0, 0), BuildingBlock: XIVTED_clean_linker_0, # of connection points: 2
#     Edge 327, Type (0, 0), BuildingBlock: XIVTED_clean_linker_0, # of connection points: 2
#     Edge 328, Type (0, 0), BuildingBlock: XIVTED_clean_linker_0, # of connection points: 2
#     Edge 329, Type (0, 0), BuildingBlock: XIVTED_clean_linker_0, # of connection points: 2
#     Edge 330, Type (0, 0), BuildingBlock: XIVTED_clean_linker_0, # of connection points: 2
#     Edge 331, Type (0, 0), BuildingBlock: XIVTED_clean_linker_0, # of connection points: 2
#     Edge 332, Type (0, 0), BuildingBlock: XIVTED_clean_linker_0, # of connection points: 2
#     Edge 333, Type (0, 0), BuildingBlock: XIVTED_clean_linker_0, # of connection points: 2
#     Edge 334, Type (0, 0), BuildingBlock: XIVTED_clean_linker_0, # of connection points: 2
#     Edge 335, Type (0, 0), BuildingBlock: XIVTED_clean_linker_0, # of connection points: 2
# Relax obj value: 0.281
# Max RMSD: 0.228
# Mean RMSD: 0.228
data_MOF--net-fdc--node1-XOMCOT_clean_sbu_1--edge1-XIVTED_clean_linker_0
_symmetry_space_group_name_H-M    P1
_symmetry_Int_Tables_number       1
_symmetry_cell_setting            triclinic
loop_
_symmetry_equiv_pos_as_xyz
'x, y, z'
_cell_length_a     78.53508
_cell_length_b     78.658056
_cell_length_c     78.593741
_cell_angle_alpha  89.941329
_cell_angle_beta   90.049599
_cell_angle_gamma 89.969679
loop_
_atom_site_label
_atom_site_type_symbol
_atom_site_fract_x
_atom_site_fract_y
_atom_site_fract_z
_atom_type_partial_charge
C0 C 0.05535 0.07519 0.37838 0.0
C1 C 0.0559 0.08207 0.39439 0.0
N2 N 0.0437 0.0748 0.40381 0.0
N3 N 0.04277 0.06345 0.37735 0.0
C4 C 0.03594 0.06353 0.39333 0.0
H5 H 0.06409 0.07861 0.3685 0.0
Co6 Co 0.03745 0.04857 0.35848 0.0
C7 C 1.0009 0.04059 0.36359 0.0
O8 O 0.99845 0.04207 0.34712 0.0
N9 N 0.0334 0.03225 0.34048 0.0
C10 C 0.0254 0.00837 0.32715 0.0
C11 C 0.02497 0.01734 0.34221 0.0
C12 C 0.04012 0.03105 0.32453 0.0
N13 N 0.03477 0.01718 0.31588 0.0
O14 O 0.0592 0.05444 0.34729 0.0
H15 H 0.01896 0.013 0.35379 0.0
H16 H 0.04924 0.03993 0.31933 0.0
O17 O 0.01587 0.0423 0.36986 0.0
C18 C 0.06517 0.06701 0.33879 0.0
O19 O 0.05612 0.08094 0.33697 0.0
N20 N 0.02498 0.06662 0.34702 0.0
C21 C 0.00387 0.09111 0.33169 0.0
C22 C 0.00463 0.08957 0.34939 0.0
C23 C 0.01514 0.07726 0.35675 0.0
C24 C 0.02438 0.06831 0.32971 0.0
C25 C 0.01395 0.08025 0.32187 0.0
H26 H 0.01466 0.07597 0.37037 0.0
H27 H 0.03232 0.06107 0.32151 0.0
H28 H 0.02566 0.05532 0.39736 0.0
H29 H 0.06464 0.09177 0.39878 0.0
H30 H 0.01909 0.9964 0.32467 0.0
H31 H 0.99707 0.09769 0.35756 0.0
H32 H 0.0137 0.0807 0.3081 0.0
C33 C 0.17695 0.80105 0.62529 0.0
C34 C 0.1703 0.80145 0.64143 0.0
N35 N 0.1795 0.791 0.65132 0.0
N36 N 0.19053 0.79047 0.62475 0.0
C37 C 0.19168 0.78447 0.641 0.0
H38 H 0.17192 0.80821 0.61479 0.0
Co39 Co 0.20572 0.78621 0.60603 0.0
C40 C 0.21174 0.74916 0.60749 0.0
O41 O 0.21012 0.74917 0.59085 0.0
N42 N 0.22259 0.7831 0.58832 0.0
C43 C 0.247 0.77512 0.57597 0.0
C44 C 0.23713 0.77409 0.59039 0.0
C45 C 0.22491 0.79072 0.57288 0.0
N46 N 0.2392 0.78546 0.56477 0.0
O47 O 0.20084 0.80924 0.59664 0.0
H48 H 0.24059 0.76725 0.60181 0.0
H49 H 0.21651 0.80034 0.56774 0.0
O50 O 0.21087 0.76327 0.61566 0.0
C51 C 0.18891 0.81582 0.5876 0.0
O52 O 0.17542 0.80686 0.58357 0.0
N53 N 0.18755 0.77548 0.59302 0.0
C54 C 0.16255 0.7567 0.57571 0.0
C55 C 0.16331 0.75656 0.59347 0.0
C56 C 0.17592 0.76586 0.60182 0.0
C57 C 0.18678 0.77556 0.57561 0.0
C58 C 0.17448 0.76639 0.5668 0.0
H59 H 0.17663 0.76456 0.61546 0.0
H60 H 0.19508 0.78313 0.56808 0.0
H61 H 0.20144 0.77573 0.64528 0.0
H62 H 0.15938 0.80875 0.64558 0.0
H63 H 0.25893 0.76855 0.57389 0.0
H64 H 0.15438 0.74918 0.60092 0.0
H65 H 0.17458 0.76672 0.55302 0.0
C66 C 0.45311 0.91875 0.87064 0.0
C67 C 0.45384 0.91104 0.88629 0.0
N68 N 0.4598 0.92231 0.89762 0.0
N69 N 0.45888 0.93493 0.87175 0.0
C70 C 0.46263 0.93673 0.88861 0.0
H71 H 0.44925 0.91237 0.85925 0.0
Co72 Co 0.46247 0.95132 0.85384 0.0
C73 C 0.49679 0.96452 0.8614 0.0
O74 O 0.49946 0.96475 0.8449 0.0
N75 N 0.46465 0.9691 0.83684 0.0
C76 C 0.46848 0.99551 0.82686 0.0
C77 C 0.46924 0.98516 0.84095 0.0
C78 C 0.45984 0.97059 0.82019 0.0
N79 N 0.46271 0.98632 0.81365 0.0
O80 O 0.44285 0.94185 0.84083 0.0
H81 H 0.47277 0.98929 0.85358 0.0
H82 H 0.4536 0.96063 0.81308 0.0
O83 O 0.48195 0.96074 0.86706 0.0
C84 C 0.44009 0.92859 0.83169 0.0
O85 O 0.45215 0.91727 0.82943 0.0
N86 N 0.47884 0.93635 0.84283 0.0
C87 C 0.50515 0.9165 0.82907 0.0
C88 C 0.50262 0.9172 0.84662 0.0
C89 C 0.48955 0.92719 0.8532 0.0
C90 C 0.48128 0.9356 0.8256 0.0
C91 C 0.49421 0.92576 0.81851 0.0
H92 H 0.48876 0.92811 0.86685 0.0
H93 H 0.47292 0.94184 0.81694 0.0
H94 H 0.46816 0.9481 0.89404 0.0
H95 H 0.45078 0.8979 0.88906 0.0
H96 H 0.47206 0.00878 0.82639 0.0
H97 H 0.511 0.91051 0.8553 0.0
H98 H 0.49542 0.92522 0.80479 0.0
C99 C 0.34797 0.21081 0.1117 0.0
C100 C 0.35753 0.20948 0.12637 0.0
N101 N 0.34749 0.21331 0.13971 0.0
N102 N 0.33194 0.21537 0.11576 0.0
C103 C 0.33204 0.21673 0.13296 0.0
H104 H 0.35229 0.20818 0.0989 0.0
Co105 Co 0.31368 0.21672 0.10043 0.0
C106 C 0.28935 0.24115 0.11724 0.0
O107 O 0.28402 0.24577 0.10208 0.0
N108 N 0.29485 0.21733 0.08476 0.0
C109 C 0.2689 0.21143 0.07481 0.0
C110 C 0.27907 0.21207 0.08905 0.0
C111 C 0.29393 0.21943 0.06757 0.0
N112 N 0.27824 0.21599 0.06119 0.0
O113 O 0.30744 0.19371 0.10676 0.0
H114 H 0.27533 0.20832 0.10176 0.0
H115 H 0.30461 0.22282 0.05968 0.0
O116 O 0.29991 0.22866 0.11852 0.0
C117 C 0.31404 0.18508 0.09455 0.0
O118 O 0.32121 0.19336 0.08194 0.0
N119 N 0.32215 0.23743 0.09262 0.0
C120 C 0.34196 0.26337 0.07924 0.0
C121 C 0.33368 0.26562 0.09481 0.0
C122 C 0.32421 0.25219 0.10158 0.0
C123 C 0.33057 0.2351 0.07768 0.0
C124 C 0.34032 0.24797 0.07061 0.0
H125 H 0.31972 0.25338 0.11442 0.0
H126 H 0.33053 0.22279 0.07164 0.0
H127 H 0.32086 0.21929 0.14054 0.0
H128 H 0.37081 0.20585 0.1272 0.0
H129 H 0.25583 0.2071 0.07449 0.0
H130 H 0.3354 0.27717 0.10209 0.0
H131 H 0.34703 0.24569 0.05879 0.0
C132 C 0.04689 0.92245 0.13724 0.0
C133 C 0.04799 0.91367 0.12225 0.0
N134 N 0.04183 0.92348 0.1096 0.0
N135 N 0.04007 0.93795 0.13439 0.0
C136 C 0.03726 0.93826 0.11731 0.0
H137 H 0.05043 0.91747 0.14952 0.0
Co138 Co 0.03589 0.95481 0.15129 0.0
C139 C 0.99983 0.96436 0.1454 0.0
O140 O 0.99724 0.9646 0.16191 0.0
N141 N 0.03305 0.97284 0.16779 0.0
C142 C 0.0259 0.9975 0.18009 0.0
C143 C 0.02504 0.9879 0.16543 0.0
C144 C 0.04005 0.97458 0.18355 0.0
N145 N 0.03516 0.98893 0.19168 0.0
O146 O 0.05757 0.94873 0.16205 0.0
H147 H 0.01883 0.99177 0.15378 0.0
H148 H 0.04872 0.96548 0.18913 0.0
O149 O 0.01466 0.96119 0.13946 0.0
C150 C 0.06392 0.93834 0.17285 0.0
O151 O 0.05429 0.9271 0.18054 0.0
N152 N 0.02241 0.93864 0.16452 0.0
C153 C 0.99969 0.9167 0.18119 0.0
C154 C 1.00078 0.91676 0.16349 0.0
C155 C 0.01196 0.92793 0.15545 0.0
C156 C 0.0213 0.93846 0.18193 0.0
C157 C 0.0101 0.92767 0.19043 0.0
H158 H 0.01157 0.92831 0.14175 0.0
H159 H 0.02924 0.94612 0.18975 0.0
H160 H 0.03163 0.94898 0.11075 0.0
H161 H 0.05305 0.90095 0.12089 0.0
H162 H 0.0198 0.00967 0.18213 0.0
H163 H 0.99265 0.90865 0.15587 0.0
H164 H 0.00975 0.92781 0.20422 0.0
C165 C 0.34006 0.79985 0.38448 0.0
C166 C 0.34696 0.80022 0.36846 0.0
N167 N 0.33568 0.79343 0.35763 0.0
N168 N 0.3243 0.79289 0.38401 0.0
C169 C 0.32205 0.78909 0.36724 0.0
H170 H 0.34651 0.80448 0.39554 0.0
Co171 Co 0.30789 0.79002 0.40191 0.0
C172 C 0.29574 0.75455 0.39707 0.0
O173 O 0.29635 0.75306 0.41372 0.0
N174 N 0.28997 0.78849 0.41883 0.0
C175 C 0.2642 0.78344 0.42992 0.0
C176 C 0.27426 0.7822 0.41564 0.0
C177 C 0.28833 0.79498 0.43484 0.0
N178 N 0.27317 0.79128 0.44218 0.0
O179 O 0.31646 0.81116 0.41355 0.0
H180 H 0.27018 0.77699 0.40359 0.0
H181 H 0.29787 0.80276 0.44099 0.0
O182 O 0.29933 0.76895 0.39018 0.0
C183 C 0.32972 0.81508 0.42236 0.0
O184 O 0.3417 0.80375 0.42506 0.0
N185 N 0.3233 0.77546 0.41446 0.0
C186 C 0.34497 0.75279 0.43139 0.0
C187 C 0.3441 0.75283 0.41365 0.0
C188 C 0.33318 0.76422 0.40545 0.0
C189 C 0.32391 0.77503 0.43185 0.0
C190 C 0.33455 0.76391 0.44047 0.0
H191 H 0.33245 0.76359 0.39175 0.0
H192 H 0.31716 0.78389 0.43947 0.0
H193 H 0.31055 0.78351 0.36212 0.0
H194 H 0.35939 0.80507 0.36499 0.0
H195 H 0.25137 0.77861 0.43122 0.0
H196 H 0.35189 0.74429 0.40616 0.0
H197 H 0.33467 0.76416 0.45426 0.0
C198 C 0.47148 0.10003 0.64011 0.0
C199 C 0.47192 0.10821 0.62461 0.0
N200 N 0.47078 0.09649 0.61222 0.0
N201 N 0.47012 0.08305 0.63774 0.0
C202 C 0.46956 0.08144 0.62045 0.0
H203 H 0.47281 0.1063 0.65225 0.0
Co204 Co 0.47234 0.06527 0.65472 0.0
C205 C 0.49166 0.05116 0.63298 0.0
O206 O 0.50009 0.06287 0.64139 0.0
N207 N 0.47505 0.04781 0.67141 0.0
C208 C 0.48733 0.027 0.68625 0.0
C209 C 0.48836 0.03697 0.67195 0.0
C210 C 0.46623 0.0443 0.68592 0.0
N211 N 0.47344 0.03156 0.69516 0.0
O212 O 0.44739 0.06255 0.6562 0.0
H213 H 0.49869 0.03671 0.66294 0.0
H214 H 0.45495 0.05118 0.68981 0.0
O215 O 0.4759 0.04875 0.63666 0.0
C216 C 0.43463 0.06677 0.64697 0.0
O217 O 0.437 0.07115 0.63105 0.0
N218 N 0.47168 0.08106 0.67227 0.0
C219 C 0.47734 0.1012 0.70061 0.0
C220 C 0.49102 0.0944 0.69154 0.0
C221 C 0.48789 0.08436 0.67739 0.0
C222 C 0.45808 0.08805 0.68059 0.0
C223 C 0.4607 0.09832 0.69491 0.0
H224 H 0.49846 0.07872 0.67066 0.0
H225 H 0.44521 0.08558 0.67653 0.0
H226 H 0.46879 0.06942 0.61386 0.0
H227 H 0.47336 0.12175 0.62263 0.0
H228 H 0.49662 0.01761 0.6902 0.0
H229 H 0.50404 0.09659 0.69556 0.0
H230 H 0.4499 0.10354 0.70171 0.0
C231 C 0.16836 0.20306 0.88958 0.0
C232 C 0.15845 0.20303 0.87524 0.0
N233 N 0.16799 0.20813 0.86198 0.0
N234 N 0.1843 0.20821 0.88566 0.0
C235 C 0.18371 0.21096 0.86856 0.0
H236 H 0.16377 0.20029 0.90217 0.0
Co237 Co 0.20247 0.21174 0.90144 0.0
C238 C 0.21592 0.24563 0.89231 0.0
O239 O 0.21717 0.24868 0.90871 0.0
N240 N 0.22173 0.21374 0.91667 0.0
C241 C 0.24835 0.21831 0.92578 0.0
C242 C 0.23753 0.21874 0.91199 0.0
C243 C 0.22396 0.20877 0.93314 0.0
N244 N 0.23972 0.21225 0.93927 0.0
O245 O 0.19416 0.1921 0.91498 0.0
H246 H 0.24109 0.22258 0.89927 0.0
H247 H 0.21431 0.2024 0.94057 0.0
O248 O 0.21088 0.23096 0.88724 0.0
C249 C 0.18343 0.189 0.92689 0.0
O250 O 0.17392 0.20115 0.93316 0.0
N251 N 0.18881 0.22843 0.91376 0.0
C252 C 0.16984 0.25471 0.9288 0.0
C253 C 0.16924 0.25205 0.91127 0.0
C254 C 0.17886 0.23907 0.90405 0.0
C255 C 0.18978 0.23142 0.93091 0.0
C256 C 0.18032 0.24423 0.93864 0.0
H257 H 0.1787 0.23818 0.89037 0.0
H258 H 0.19713 0.22362 0.93919 0.0
H259 H 0.19435 0.21575 0.86124 0.0
H260 H 0.14504 0.19989 0.8747 0.0
H261 H 0.26147 0.22249 0.92588 0.0
H262 H 0.16169 0.26019 0.90309 0.0
H263 H 0.18099 0.24566 0.95233 0.0
C264 C 0.36935 0.03321 0.10035 0.0
C265 C 0.38489 0.03204 0.10839 0.0
N266 N 0.39728 0.03345 0.09659 0.0
N267 N 0.37184 0.03515 0.0835 0.0
C268 C 0.38901 0.03548 0.08162 0.0
H269 H 0.357 0.03244 0.10638 0.0
Co270 Co 0.35494 0.03646 0.06656 0.0
C271 C 0.3667 0.01169 0.04055 0.0
O272 O 0.35054 0.00913 0.03704 0.0
N273 N 0.33808 0.03843 0.0489 0.0
C274 C 0.32806 0.04539 0.02322 0.0
C275 C 0.34224 0.04468 0.03343 0.0
C276 C 0.32097 0.03582 0.04773 0.0
N277 N 0.31455 0.03983 0.03218 0.0
O278 O 0.36254 0.05917 0.06088 0.0
H279 H 0.35497 0.04835 0.02971 0.0
H280 H 0.31313 0.0314 0.05803 0.0
O281 O 0.37073 0.0237 0.05092 0.0
C282 C 0.35404 0.06783 0.07184 0.0
O283 O 0.34459 0.0596 0.08288 0.0
N284 N 0.34592 0.01598 0.07446 0.0
C285 C 0.3305 0.98919 0.09136 0.0
C286 C 0.34668 0.98708 0.08429 0.0
C287 C 0.35436 1.00084 0.07606 0.0
C288 C 0.33084 0.01841 0.08261 0.0
C289 C 0.3226 0.00505 0.09065 0.0
H290 H 0.36736 0.99955 0.07193 0.0
H291 H 0.32544 0.03102 0.08339 0.0
H292 H 0.39533 0.03674 0.06946 0.0
H293 H 0.38693 0.0303 0.1219 0.0
H294 H 0.32791 0.04957 0.01011 0.0
H295 H 0.35346 0.97515 0.08554 0.0
H296 H 0.31049 0.00726 0.09687 0.0
C297 C 0.20639 0.11813 0.33202 0.0
C298 C 0.20646 0.13291 0.34124 0.0
N299 N 0.21228 0.14551 0.33126 0.0
N300 N 0.21229 0.12109 0.31614 0.0
C301 C 0.21551 0.1381 0.316 0.0
H302 H 0.20307 0.10587 0.33709 0.0
Co303 Co 0.21647 0.10427 0.29905 0.0
C304 C 0.2523 0.11135 0.28922 0.0
O305 O 0.25537 0.09493 0.2895 0.0
N306 N 0.21947 0.08776 0.2809 0.0
C307 C 0.2269 0.07556 0.25623 0.0
C308 C 0.22752 0.09021 0.26588 0.0
C309 C 0.21278 0.07185 0.27914 0.0
N310 N 0.21782 0.06383 0.26476 0.0
O311 O 0.19519 0.09274 0.30557 0.0
H312 H 0.23357 0.10192 0.26202 0.0
H313 H 0.20425 0.06609 0.28825 0.0
O314 O 0.23721 0.11681 0.29215 0.0
C315 C 0.18943 0.08217 0.31654 0.0
O316 O 0.1995 0.07579 0.32825 0.0
N317 N 0.23059 0.09144 0.31494 0.0
C318 C 0.25351 0.07497 0.337 0.0
C319 C 0.25238 0.09269 0.33668 0.0
C320 C 0.24114 0.10061 0.32546 0.0
C321 C 0.2318 0.07409 0.31519 0.0
C322 C 0.24312 0.0657 0.32592 0.0
H323 H 0.24141 0.11431 0.325 0.0
H324 H 0.22378 0.06622 0.30767 0.0
H325 H 0.2208 0.14478 0.30518 0.0
H326 H 0.20274 0.13424 0.35443 0.0
H327 H 0.23305 0.07362 0.24407 0.0
H328 H 0.26012 0.1005 0.34497 0.0
H329 H 0.24372 0.05196 0.32534 0.0
C330 C 0.12206 0.94424 0.57102 0.0
C331 C 0.10609 0.94369 0.57799 0.0
N332 N 0.09837 0.95863 0.57515 0.0
N333 N 0.12509 0.95968 0.564 0.0
C334 C 0.11 0.96806 0.5665 0.0
H335 H 0.13018 0.93326 0.57019 0.0
Co336 Co 0.14448 0.96528 0.54954 0.0
C337 C 0.14102 1.0016 0.54186 0.0
O338 O 0.1576 0.00232 0.54404 0.0
N339 N 0.16261 0.96946 0.53327 0.0
C340 C 0.17397 0.97714 0.5083 0.0
C341 C 0.15947 0.97687 0.51805 0.0
C342 C 0.17903 0.96396 0.53157 0.0
N343 N 0.18647 0.96909 0.51682 0.0
O344 O 0.15599 0.94373 0.55567 0.0
H345 H 0.14721 0.98164 0.51401 0.0
H346 H 0.18518 0.9554 0.54039 0.0
O347 O 0.13334 0.98723 0.54317 0.0
C348 C 0.16207 0.93796 0.56969 0.0
O349 O 0.15981 0.9465 0.58387 0.0
N350 N 0.15579 0.97733 0.56791 0.0
C351 C 0.17139 0.99892 0.59156 0.0
C352 C 0.15371 0.99864 0.5899 0.0
C353 C 0.14621 0.98782 0.57804 0.0
C354 C 0.17305 0.97685 0.57032 0.0
C355 C 0.18108 0.98759 0.58191 0.0
H356 H 0.1327 0.98895 0.57633 0.0
H357 H 0.18088 0.96798 0.56371 0.0
H358 H 0.10723 0.98054 0.56142 0.0
H359 H 0.10034 0.93281 0.58418 0.0
H360 H 0.17506 0.98284 0.49583 0.0
H361 H 0.14577 0.00732 0.59707 0.0
H362 H 0.1948 0.98705 0.58325 0.0
C363 C 0.29195 0.89227 0.84114 0.0
C364 C 0.29369 0.8782 0.85135 0.0
N365 N 0.29245 0.86417 0.84156 0.0
N366 N 0.28949 0.88722 0.82498 0.0
C367 C 0.28989 0.87003 0.82557 0.0
H368 H 0.29259 0.90539 0.8452 0.0
Co369 Co 0.28766 0.90194 0.80659 0.0
C370 C 0.26144 0.8872 0.78418 0.0
O371 O 0.25703 0.90299 0.78091 0.0
N372 N 0.2867 0.91709 0.78759 0.0
C373 C 0.29067 0.92594 0.76094 0.0
C374 C 0.29056 0.91212 0.7716 0.0
C375 C 0.28513 0.93423 0.78629 0.0
N376 N 0.28732 0.93996 0.77019 0.0
O377 O 0.30972 0.8946 0.79879 0.0
H378 H 0.29339 0.89917 0.76794 0.0
H379 H 0.28335 0.94257 0.79697 0.0
O380 O 0.27443 0.88431 0.79375 0.0
C381 C 0.31908 0.90644 0.80493 0.0
O382 O 0.31176 0.91839 0.81404 0.0
N383 N 0.26747 0.91048 0.81605 0.0
C384 C 0.24093 0.92499 0.83441 0.0
C385 C 0.23967 0.90823 0.8286 0.0
C386 C 0.25328 0.90107 0.8197 0.0
C387 C 0.26935 0.92621 0.82298 0.0
C388 C 0.25608 0.93393 0.83171 0.0
H389 H 0.25267 0.88777 0.81656 0.0
H390 H 0.28155 0.93248 0.82252 0.0
H391 H 0.28879 0.86201 0.81445 0.0
H392 H 0.29563 0.87834 0.86498 0.0
H393 H 0.29327 0.92558 0.74744 0.0
H394 H 0.22846 0.90064 0.83122 0.0
H395 H 0.25796 0.9465 0.83702 0.0
C396 C 0.36853 0.95421 0.4187 0.0
C397 C 0.38419 0.95318 0.41084 0.0
N398 N 0.39544 0.96241 0.41988 0.0
N399 N 0.36982 0.96393 0.43276 0.0
C400 C 0.38643 0.96882 0.43309 0.0
H401 H 0.357 0.94787 0.41466 0.0
Co402 Co 0.35206 0.96668 0.44875 0.0
C403 C 0.36207 0.99648 0.46946 0.0
O404 O 0.34576 1.00016 0.46992 0.0
N405 N 0.33401 0.96863 0.46553 0.0
C406 C 0.32262 0.96662 0.49149 0.0
C407 C 0.33746 0.9669 0.48229 0.0
C408 C 0.31663 0.96892 0.465 0.0
N409 N 0.30936 0.96776 0.48066 0.0
O410 O 0.35932 0.9459 0.45982 0.0
H411 H 0.35013 0.96556 0.48753 0.0
H412 H 0.3093 0.96909 0.45341 0.0
O413 O 0.36691 0.98258 0.46227 0.0
C414 C 0.34846 0.93549 0.45344 0.0
O415 O 0.33699 0.94147 0.44284 0.0
N416 N 0.34372 0.98484 0.43591 0.0
C417 C 0.32938 0.00701 0.41226 0.0
C418 C 0.34498 0.01092 0.42003 0.0
C419 C 0.35217 0.99941 0.43157 0.0
C420 C 0.32914 0.98051 0.42767 0.0
C421 C 0.32147 0.99157 0.41628 0.0
H422 H 0.36479 1.00193 0.43638 0.0
H423 H 0.32368 0.96808 0.42947 0.0
H424 H 0.39205 0.97628 0.44315 0.0
H425 H 0.38713 0.9461 0.3994 0.0
H426 H 0.3218 0.96545 0.50517 0.0
H427 H 0.35184 0.02241 0.41675 0.0
H428 H 0.30951 0.98786 0.41051 0.0
C429 C 0.28785 0.10654 0.65671 0.0
C430 C 0.28763 0.1211 0.64689 0.0
N431 N 0.28756 0.13465 0.65738 0.0
N432 N 0.28785 0.11095 0.67328 0.0
C433 C 0.28797 0.12809 0.67324 0.0
H434 H 0.28773 0.0936 0.65207 0.0
Co435 Co 0.28729 0.09704 0.6924 0.0
C436 C 0.26294 0.11458 0.71606 0.0
O437 O 0.25875 0.09959 0.72214 0.0
N438 N 0.2873 0.08295 0.7121 0.0
C439 C 0.29279 0.07437 0.73863 0.0
C440 C 0.29276 0.088 0.72762 0.0
C441 C 0.28452 0.06605 0.71399 0.0
N442 N 0.28769 0.06054 0.72997 0.0
O443 O 0.31008 0.10469 0.69812 0.0
H444 H 0.29682 0.10078 0.73065 0.0
H445 H 0.28066 0.05767 0.70388 0.0
O446 O 0.27501 0.11562 0.70505 0.0
C447 C 0.31978 0.09251 0.69321 0.0
O448 O 0.31265 0.07865 0.68722 0.0
N449 N 0.26661 0.08807 0.68471 0.0
C450 C 0.24043 0.07298 0.66643 0.0
C451 C 0.23802 0.08892 0.67384 0.0
C452 C 0.25151 0.0965 0.6826 0.0
C453 C 0.26916 0.07282 0.67694 0.0
C454 C 0.25616 0.06488 0.66799 0.0
H455 H 0.25006 0.10953 0.68642 0.0
H456 H 0.28171 0.06718 0.67691 0.0
H457 H 0.28848 0.13565 0.68471 0.0
H458 H 0.28713 0.12164 0.63314 0.0
H459 H 0.29694 0.07449 0.75176 0.0
H460 H 0.22623 0.09585 0.672 0.0
H461 H 0.25859 0.05286 0.66172 0.0
C462 C 0.1495 0.04356 0.91722 0.0
C463 C 0.13616 0.04446 0.90592 0.0
N464 N 0.1216 0.04099 0.91431 0.0
N465 N 0.1435 0.03941 0.93272 0.0
C466 C 0.12641 0.03817 0.93062 0.0
H467 H 0.16277 0.04579 0.91435 0.0
Co468 Co 0.15728 0.03672 0.95196 0.0
C469 C 0.13919 0.01115 0.97335 0.0
O470 O 0.15396 0.00594 0.97922 0.0
N471 N 0.1716 0.03477 0.97157 0.0
C472 C 0.18057 0.03788 0.99837 0.0
C473 C 0.16669 0.0384 0.98765 0.0
C474 C 0.18872 0.03266 0.97288 0.0
N475 N 0.19448 0.03438 0.98902 0.0
O476 O 0.14939 0.05825 0.96 0.0
H477 H 0.15383 0.0417 0.99129 0.0
H478 H 0.19707 0.03048 0.96224 0.0
O479 O 0.13866 0.02391 0.96318 0.0
C480 C 0.16079 0.0686 0.95483 0.0
O481 O 0.17439 0.06243 0.94733 0.0
N482 N 0.16612 0.01685 0.94225 0.0
C483 C 0.1793 0.99324 0.91941 0.0
C484 C 0.16379 0.99016 0.92757 0.0
C485 C 0.15718 0.00237 0.93862 0.0
C486 C 0.18126 0.01988 0.93439 0.0
C487 C 0.18823 0.00815 0.92316 0.0
H488 H 0.14431 1.0007 0.94282 0.0
H489 H 0.18733 0.03213 0.93574 0.0
H490 H 0.11767 0.03512 0.94078 0.0
H491 H 0.13716 0.04759 0.89255 0.0
H492 H 0.18054 0.04072 0.01184 0.0
H493 H 0.15622 0.9791 0.9244 0.0
H494 H 0.20009 0.01114 0.91679 0.0
C495 C 0.20671 0.88053 0.17145 0.0
C496 C 0.20602 0.86482 0.16389 0.0
N497 N 0.20972 0.85303 0.17565 0.0
N498 N 0.21112 0.87895 0.18804 0.0
C499 C 0.21275 0.86182 0.19017 0.0
H500 H 0.20534 0.89233 0.1647 0.0
Co501 Co 0.21585 0.89717 0.20379 0.0
C502 C 0.24072 0.87385 0.2209 0.0
O503 O 0.22929 0.86619 0.23039 0.0
N504 N 0.22008 0.9151 0.22019 0.0
C505 C 0.23216 0.93042 0.24091 0.0
C506 C 0.23249 0.9153 0.23215 0.0
C507 C 0.21213 0.93038 0.22241 0.0
N508 N 0.2195 0.94007 0.23465 0.0
O509 O 0.19468 0.90847 0.19679 0.0
H510 H 0.24172 0.90538 0.2343 0.0
H511 H 0.20152 0.9347 0.21477 0.0
O512 O 0.23632 0.88572 0.21081 0.0
C513 C 0.18895 0.91724 0.1843 0.0
O514 O 0.19879 0.92106 0.17137 0.0
N515 N 0.22974 0.9086 0.1872 0.0
C516 C 0.25323 0.92367 0.16523 0.0
C517 C 0.25253 0.90605 0.16687 0.0
C518 C 0.24094 0.8988 0.1781 0.0
C519 C 0.2304 0.92593 0.18558 0.0
C520 C 0.24207 0.9337 0.17471 0.0
H521 H 0.24131 0.88517 0.17964 0.0
H522 H 0.22166 0.93402 0.19222 0.0
H523 H 0.21677 0.85587 0.20188 0.0
H524 H 0.20385 0.86229 0.15052 0.0
H525 H 0.24112 0.93433 0.25063 0.0
H526 H 0.26123 0.89794 0.15989 0.0
H527 H 0.24224 0.94743 0.17359 0.0
C528 C 0.09276 0.36187 0.0452 0.0
C529 C 0.10219 0.37654 0.04636 0.0
N530 N 0.09181 0.39005 0.04403 0.0
N531 N 0.07642 0.36586 0.04198 0.0
C532 C 0.07617 0.38311 0.04142 0.0
H533 H 0.09753 0.34905 0.0466 0.0
Co534 Co 0.05891 0.34971 0.03959 0.0
C535 C 0.03699 0.36284 0.01182 0.0
O536 O 0.03457 0.3469 0.00747 0.0
N537 N 0.04087 0.33317 0.03791 0.0
C538 C 0.01446 0.32277 0.03992 0.0
C539 C 0.02434 0.33719 0.04063 0.0
C540 C 0.04064 0.31593 0.03626 0.0
N541 N 0.02472 0.30936 0.03723 0.0
O542 O 0.04924 0.35716 0.06088 0.0
H543 H 0.01975 0.3499 0.04317 0.0
H544 H 0.05182 0.30813 0.03467 0.0
O545 O 0.0459 0.36623 0.02513 0.0
C546 C 0.05535 0.34591 0.071 0.0
O547 O 0.06567 0.33436 0.06472 0.0
N548 N 0.07012 0.34102 0.02047 0.0
C549 C 0.0921 0.32673 0.99677 0.0
C550 C 0.0841 0.34225 0.99333 0.0
C551 C 0.07355 0.34949 0.00565 0.0
C552 C 0.07838 0.32625 0.02412 0.0
C553 C 0.08921 0.31872 0.01238 0.0
H554 H 0.06903 0.36224 0.00357 0.0
H555 H 0.07723 0.32065 0.03661 0.0
H556 H 0.06467 0.39038 0.03934 0.0
H557 H 0.11575 0.37701 0.04863 0.0
H558 H 1.00083 0.32215 0.04184 0.0
H559 H 0.08671 0.34911 0.98166 0.0
H560 H 0.09559 0.30694 0.01564 0.0
C561 C 0.57562 0.13954 0.94497 0.0
C562 C 0.58468 0.12467 0.9443 0.0
N563 N 0.57604 0.11271 0.95293 0.0
N564 N 0.56129 0.13715 0.95419 0.0
C565 C 0.56175 0.12046 0.9586 0.0
H566 H 0.58002 0.15161 0.94016 0.0
Co567 Co 0.54601 0.15463 0.96071 0.0
C568 C 0.54101 0.14837 0.99793 0.0
O569 O 0.54216 0.1649 0.99991 0.0
N570 N 0.52917 0.17171 0.96584 0.0
C571 C 0.50579 0.18407 0.97643 0.0
C572 C 0.51521 0.16933 0.97567 0.0
C573 C 0.5268 0.18765 0.95947 0.0
N574 N 0.51313 0.19558 0.96619 0.0
O575 O 0.55128 0.16616 0.93843 0.0
H576 H 0.51195 0.15759 0.98202 0.0
H577 H 0.53528 0.19382 0.95065 0.0
O578 O 0.54101 0.14212 0.98278 0.0
C579 C 0.55953 0.17909 0.93274 0.0
O580 O 0.56709 0.18958 0.94321 0.0
N581 N 0.56423 0.16623 0.97318 0.0
C582 C 0.58865 0.17957 0.99553 0.0
C583 C 0.58843 0.16232 0.99181 0.0
C584 C 0.57602 0.15591 0.98103 0.0
C585 C 0.56439 0.18324 0.97704 0.0
C586 C 0.5765 0.19015 0.98805 0.0
H587 H 0.57539 0.1423 0.98029 0.0
H588 H 0.55507 0.19184 0.97218 0.0
H589 H 0.55254 0.11447 0.96691 0.0
H590 H 0.59717 0.123 0.93871 0.0
H591 H 0.49447 0.18623 0.98398 0.0
H592 H 0.59722 0.15363 0.99795 0.0
H593 H 0.57618 0.20362 0.99089 0.0
C594 C 0.11949 0.32254 0.19201 0.0
C595 C 0.13383 0.33243 0.19121 0.0
N596 N 0.14171 0.33143 0.20627 0.0
N597 N 0.11755 0.31603 0.20789 0.0
C598 C 0.13203 0.32108 0.21594 0.0
H599 H 0.11169 0.31957 0.18112 0.0
Co600 Co 0.10059 0.29963 0.21438 0.0
C601 C 0.11137 0.29001 0.2497 0.0
O602 O 0.09531 0.28979 0.25438 0.0
N603 N 0.08464 0.28162 0.21931 0.0
C604 C 0.0747 0.25621 0.22735 0.0
C605 C 0.08865 0.26674 0.22698 0.0
C606 C 0.06843 0.2789 0.21376 0.0
N607 N 0.0618 0.26392 0.21913 0.0
O608 O 0.08604 0.30684 0.19475 0.0
H609 H 0.10113 0.26336 0.23167 0.0
H610 H 0.0618 0.28734 0.20517 0.0
O611 O 0.11527 0.29292 0.23409 0.0
C612 C 0.08056 0.32178 0.19091 0.0
O613 O 0.08476 0.33476 0.20056 0.0
N614 N 0.08895 0.31557 0.22922 0.0
C615 C 0.07198 0.33809 0.25107 0.0
C616 C 0.08974 0.33704 0.25116 0.0
C617 C 0.09793 0.32577 0.24015 0.0
C618 C 0.07156 0.31665 0.22917 0.0
C619 C 0.06291 0.32761 0.23997 0.0
H620 H 0.11152 0.32511 0.2409 0.0
H621 H 0.06402 0.30981 0.22022 0.0
H622 H 0.13584 0.31691 0.22843 0.0
H623 H 0.1386 0.33914 0.18016 0.0
H624 H 0.07428 0.24377 0.2332 0.0
H625 H 0.09729 0.34498 0.25951 0.0
H626 H 0.04913 0.32789 0.23949 0.0
C627 C 0.91515 0.86872 0.46206 0.0
C628 C 0.90616 0.88371 0.46291 0.0
N629 N 0.91703 0.89642 0.46662 0.0
N630 N 0.9317 0.87171 0.46545 0.0
C631 C 0.93252 0.88883 0.468 0.0
H632 H 0.90988 0.85628 0.45952 0.0
Co633 Co 0.94798 0.8539 0.46678 0.0
C634 C 0.97109 0.86364 0.49481 0.0
O635 O 0.97217 0.84729 0.49807 0.0
N636 N 0.96474 0.83564 0.46733 0.0
C637 C 0.99056 0.82385 0.46469 0.0
C638 C 0.98143 0.83877 0.46437 0.0
C639 C 0.96412 0.81831 0.46861 0.0
N640 N 0.97969 0.81092 0.46728 0.0
O641 O 0.95773 0.8613 0.44551 0.0
H642 H 0.9867 0.85128 0.46218 0.0
H643 H 0.95263 0.81104 0.47045 0.0
O644 O 0.96271 0.86861 0.48161 0.0
C645 C 0.95057 0.85092 0.43519 0.0
O646 O 0.93947 0.84002 0.44132 0.0
N647 N 0.93662 0.84561 0.486 0.0
C648 C 0.91561 0.83251 0.51112 0.0
C649 C 0.92368 0.84811 0.51355 0.0
C650 C 0.93376 0.85472 0.50055 0.0
C651 C 0.92786 0.83095 0.48314 0.0
C652 C 0.91752 0.82396 0.49567 0.0
H653 H 0.93851 0.86748 0.5019 0.0
H654 H 0.92826 0.82506 0.47075 0.0
H655 H 0.94408 0.89551 0.47137 0.0
H656 H 0.89257 0.88515 0.46111 0.0
H657 H 0.00416 0.82256 0.46285 0.0
H658 H 0.92161 0.85541 0.52505 0.0
H659 H 0.9107 0.81226 0.49317 0.0
C660 C 0.88589 0.15743 0.21378 0.0
C661 C 0.87064 0.14882 0.21343 0.0
N662 N 0.85784 0.16003 0.21582 0.0
N663 N 0.8829 0.17407 0.21645 0.0
C664 C 0.86572 0.1753 0.21757 0.0
H665 H 0.89837 0.15197 0.21179 0.0
Co666 Co 0.89955 0.19125 0.21635 0.0
C667 C 0.89018 0.21419 0.24457 0.0
O668 O 0.90661 0.21644 0.2468 0.0
N669 N 0.91638 0.20902 0.21542 0.0
C670 C 0.92635 0.23521 0.21087 0.0
C671 C 0.91203 0.22523 0.2117 0.0
C672 C 0.93369 0.20955 0.21637 0.0
N673 N 0.9401 0.22537 0.21376 0.0
O674 O 0.88995 0.20008 0.19558 0.0
H675 H 0.89911 0.22959 0.20976 0.0
H676 H 0.94164 0.19861 0.21843 0.0
O677 O 0.88499 0.2051 0.232 0.0
C678 C 0.89845 0.19141 0.1847 0.0
O679 O 0.90971 0.1804 0.19031 0.0
N680 N 0.91005 0.18068 0.2349 0.0
C681 C 0.9273 0.16035 0.25832 0.0
C682 C 0.9115 0.16758 0.26248 0.0
C683 C 0.90289 0.17745 0.25042 0.0
C684 C 0.9247 0.17271 0.23033 0.0
C685 C 0.93385 0.16307 0.24196 0.0
H686 H 0.89018 0.18174 0.25334 0.0
H687 H 0.92915 0.1735 0.21736 0.0
H688 H 0.85915 0.18724 0.21941 0.0
H689 H 0.8692 0.13536 0.21105 0.0
H690 H 0.92648 0.24873 0.20839 0.0
H691 H 0.90554 0.16514 0.27466 0.0
H692 H 0.94588 0.15768 0.23798 0.0
C693 C 0.42272 0.63582 0.55627 0.0
C694 C 0.41497 0.62023 0.55744 0.0
N695 N 0.42499 0.60879 0.54973 0.0
N696 N 0.43772 0.63429 0.5479 0.0
C697 C 0.43865 0.61749 0.5441 0.0
H698 H 0.41735 0.64735 0.56118 0.0
Co699 Co 0.45493 0.65052 0.54312 0.0
C700 C 0.46352 0.64226 0.5069 0.0
O701 O 0.46341 0.65856 0.50327 0.0
N702 N 0.47365 0.66571 0.5396 0.0
C703 C 0.4984 0.67613 0.53031 0.0
C704 C 0.48803 0.66209 0.53083 0.0
C705 C 0.47675 0.68147 0.54595 0.0
N706 N 0.49114 0.68843 0.53967 0.0
O707 O 0.44842 0.6634 0.56437 0.0
H708 H 0.49091 0.65003 0.52494 0.0
H709 H 0.46812 0.68822 0.55428 0.0
O710 O 0.46114 0.63724 0.52227 0.0
C711 C 0.43595 0.67337 0.56799 0.0
O712 O 0.42465 0.67712 0.55628 0.0
N713 N 0.43958 0.66352 0.52867 0.0
C714 C 0.41782 0.68071 0.50618 0.0
C715 C 0.41678 0.66308 0.50798 0.0
C716 C 0.42779 0.65476 0.51918 0.0
C717 C 0.4409 0.68074 0.52639 0.0
C718 C 0.43021 0.68948 0.51536 0.0
H719 H 0.42702 0.64109 0.5197 0.0
H720 H 0.44936 0.68836 0.53366 0.0
H721 H 0.4492 0.61165 0.53746 0.0
H722 H 0.40272 0.61754 0.56316 0.0
H723 H 0.5102 0.67734 0.52331 0.0
H724 H 0.40747 0.65578 0.50092 0.0
H725 H 0.43164 0.70313 0.51415 0.0
C726 C 0.12533 0.67013 0.30096 0.0
C727 C 0.14091 0.66218 0.30068 0.0
N728 N 0.15212 0.6724 0.29283 0.0
N729 N 0.12636 0.68536 0.29303 0.0
C730 C 0.14306 0.68642 0.28836 0.0
H731 H 0.1139 0.66454 0.30594 0.0
Co732 Co 0.10817 0.70119 0.28842 0.0
C733 C 0.11121 0.70704 0.25139 0.0
O734 O 0.09451 0.70606 0.25073 0.0
N735 N 0.09088 0.71857 0.28483 0.0
C736 C 0.0792 0.74266 0.27513 0.0
C737 C 0.09365 0.73281 0.27557 0.0
C738 C 0.07496 0.72125 0.29137 0.0
N739 N 0.06728 0.73531 0.28493 0.0
O740 O 0.09804 0.69636 0.31107 0.0
H741 H 0.1055 0.73595 0.26934 0.0
H742 H 0.06892 0.71301 0.30059 0.0
O743 O 0.11876 0.7063 0.26588 0.0
C744 C 0.0886 0.68479 0.31765 0.0
O745 O 0.08387 0.67162 0.30859 0.0
N746 N 0.095 0.6835 0.27697 0.0
C747 C 0.07772 0.66098 0.25535 0.0
C748 C 0.09545 0.66078 0.25626 0.0
C749 C 0.10381 0.67219 0.26697 0.0
C750 C 0.07756 0.68311 0.27657 0.0
C751 C 0.06874 0.67209 0.26586 0.0
H752 H 0.11751 0.67257 0.26617 0.0
H753 H 0.07006 0.6909 0.28471 0.0
H754 H 0.14831 0.69692 0.28116 0.0
H755 H 0.14371 0.64955 0.30544 0.0
H756 H 0.07757 0.75438 0.26807 0.0
H757 H 0.10285 0.65248 0.24813 0.0
H758 H 0.05494 0.67231 0.26577 0.0
C759 C 0.3935 0.34243 0.78846 0.0
C760 C 0.37921 0.35238 0.79035 0.0
N761 N 0.36536 0.34228 0.78963 0.0
N762 N 0.38873 0.32611 0.78649 0.0
C763 C 0.3715 0.3264 0.78729 0.0
H764 H 0.40655 0.34677 0.7889 0.0
Co765 Co 0.40337 0.30743 0.7852 0.0
C766 C 0.3864 0.2846 0.75994 0.0
O767 O 0.40142 0.27859 0.75569 0.0
N768 N 0.41835 0.28827 0.7846 0.0
C769 C 0.42788 0.26203 0.78975 0.0
C770 C 0.41379 0.27245 0.7895 0.0
C771 C 0.43546 0.28711 0.7823 0.0
N772 N 0.4416 0.27127 0.78526 0.0
O773 O 0.39568 0.3004 0.80747 0.0
H774 H 0.401 0.26879 0.79301 0.0
H775 H 0.44357 0.29774 0.77936 0.0
O776 O 0.38529 0.29503 0.77244 0.0
C777 C 0.40641 0.30828 0.81689 0.0
O778 O 0.41873 0.31676 0.80944 0.0
N779 N 0.41234 0.31634 0.765 0.0
C780 C 0.42714 0.33683 0.74031 0.0
C781 C 0.41162 0.32878 0.73706 0.0
C782 C 0.40414 0.31893 0.74984 0.0
C783 C 0.42729 0.32445 0.76826 0.0
C784 C 0.43506 0.3345 0.75604 0.0
H785 H 0.39132 0.31462 0.74786 0.0
H786 H 0.43278 0.32395 0.78084 0.0
H787 H 0.36363 0.31512 0.78688 0.0
H788 H 0.37906 0.36601 0.79222 0.0
H789 H 0.42795 0.24871 0.79317 0.0
H790 H 0.40486 0.33099 0.72524 0.0
H791 H 0.44685 0.34097 0.75912 0.0
C792 C 0.96898 0.90584 0.64081 0.0
C793 C 0.9701 0.89675 0.62589 0.0
N794 N 0.96951 0.90771 0.61268 0.0
N795 N 0.96787 0.92253 0.63713 0.0
C796 C 0.9679 0.92325 0.61988 0.0
H797 H 0.96935 0.90067 0.65356 0.0
Co798 Co 0.96751 0.94025 0.65308 0.0
C799 C 0.98948 0.96691 0.63702 0.0
O800 O 0.99372 0.97195 0.65237 0.0
N801 N 0.96648 0.95859 0.66932 0.0
C802 C 0.95866 0.98376 0.67993 0.0
C803 C 0.95944 0.97382 0.66555 0.0
C804 C 0.96952 0.95962 0.68636 0.0
N805 N 0.96496 0.97482 0.69313 0.0
O806 O 0.94387 0.94454 0.64728 0.0
H807 H 0.95477 0.97736 0.65309 0.0
H808 H 0.9746 0.94942 0.69393 0.0
O809 O 0.97771 0.95563 0.63536 0.0
C810 C 0.93592 0.93653 0.65911 0.0
O811 O 0.94492 0.9289 0.67095 0.0
N812 N 0.98931 0.93369 0.66027 0.0
C813 C 0.01871 0.91896 0.67339 0.0
C814 C 0.01863 0.92557 0.65686 0.0
C815 C 0.00363 0.93268 0.65041 0.0
C816 C 0.98894 0.92582 0.67569 0.0
C817 C 0.0036 0.91893 0.68277 0.0
H818 H 0.00336 0.93641 0.63724 0.0
H819 H 0.97699 0.92427 0.68228 0.0
H820 H 0.96726 0.93497 0.61271 0.0
H821 H 0.97137 0.88309 0.62486 0.0
H822 H 0.95322 0.99638 0.68064 0.0
H823 H 0.02989 0.92493 0.64894 0.0
H824 H 1.00295 0.91295 0.69517 0.0
C825 C 0.8495 0.2169 0.39077 0.0
C826 C 0.85808 0.21742 0.37551 0.0
N827 N 0.8466 0.21688 0.36275 0.0
N828 N 0.83263 0.2162 0.38774 0.0
C829 C 0.83126 0.21597 0.37053 0.0
H830 H 0.85519 0.21725 0.4033 0.0
Co831 Co 0.81535 0.21606 0.40428 0.0
C832 C 0.78994 0.24069 0.39068 0.0
O833 O 0.78638 0.24447 0.40656 0.0
N834 N 0.79743 0.21522 0.42089 0.0
C835 C 0.77156 0.20926 0.43109 0.0
C836 C 0.78159 0.20986 0.41679 0.0
C837 C 0.79669 0.21726 0.43808 0.0
N838 N 0.78106 0.21388 0.44456 0.0
O839 O 0.80925 0.19321 0.39763 0.0
H840 H 0.7776 0.20641 0.40408 0.0
H841 H 0.8073 0.22093 0.44595 0.0
O842 O 0.8002 0.2283 0.3876 0.0
C843 C 0.81952 0.18468 0.40709 0.0
O844 O 0.83028 0.19303 0.41676 0.0
N845 N 0.82353 0.23682 0.41245 0.0
C846 C 0.84089 0.26398 0.42666 0.0
C847 C 0.83386 0.26548 0.4104 0.0
C848 C 0.82544 0.25152 0.40333 0.0
C849 C 0.83157 0.23495 0.42768 0.0
C850 C 0.83986 0.24852 0.43529 0.0
H851 H 0.82142 0.25229 0.39026 0.0
H852 H 0.83223 0.22259 0.43362 0.0
H853 H 0.81923 0.21558 0.36382 0.0
H854 H 0.87175 0.21812 0.37394 0.0
H855 H 0.75841 0.20518 0.43158 0.0
H856 H 0.83537 0.27705 0.40307 0.0
H857 H 0.84606 0.24675 0.44749 0.0
C858 C 0.53978 0.09595 0.1421 0.0
C859 C 0.54089 0.10562 0.12757 0.0
N860 N 0.53989 0.09527 0.11394 0.0
N861 N 0.53804 0.07947 0.13782 0.0
C862 C 0.53811 0.07942 0.12052 0.0
H863 H 0.54063 0.10058 0.15502 0.0
Co864 Co 0.53808 0.06177 0.15396 0.0
C865 C 0.51436 0.03578 0.14053 0.0
O866 O 0.51119 0.03182 0.15645 0.0
N867 N 0.53897 0.04362 0.17054 0.0
C868 C 0.54622 0.0182 0.18097 0.0
C869 C 0.54608 0.02842 0.16679 0.0
C870 C 0.53514 0.04224 0.18741 0.0
N871 N 0.53932 0.02684 0.19404 0.0
O872 O 0.56078 0.05583 0.14685 0.0
H873 H 0.551 0.02498 0.15442 0.0
H874 H 0.52945 0.05222 0.19487 0.0
O875 O 0.52599 0.04681 0.13722 0.0
C876 C 0.56967 0.06353 0.15814 0.0
O877 O 0.56173 0.07212 0.17007 0.0
N878 N 0.51733 0.06979 0.16222 0.0
C879 C 0.49088 0.08925 0.17503 0.0
C880 C 0.48891 0.08074 0.15958 0.0
C881 C 0.50256 0.07141 0.15311 0.0
C882 C 0.5194 0.0784 0.17708 0.0
C883 C 0.50624 0.08799 0.18388 0.0
H884 H 0.5016 0.0667 0.14033 0.0
H885 H 0.53169 0.07861 0.18325 0.0
H886 H 0.5376 0.06797 0.11292 0.0
H887 H 0.54252 0.11928 0.1271 0.0
H888 H 0.55146 0.00549 0.18162 0.0
H889 H 0.47739 0.0822 0.15212 0.0
H890 H 0.50829 0.09495 0.1956 0.0
C891 C 0.67051 0.79684 0.88461 0.0
C892 C 0.66213 0.79591 0.86932 0.0
N893 N 0.6731 0.79037 0.85746 0.0
N894 N 0.68682 0.79167 0.8827 0.0
C895 C 0.68804 0.78801 0.8658 0.0
H896 H 0.66457 0.80012 0.89646 0.0
Co897 Co 0.70359 0.78873 0.90015 0.0
C898 C 0.71427 0.75299 0.89538 0.0
O899 O 0.71367 0.75096 0.91198 0.0
N900 N 0.72159 0.78685 0.917 0.0
C901 C 0.74664 0.78039 0.92902 0.0
C902 C 0.73688 0.77935 0.91448 0.0
C903 C 0.72327 0.79377 0.93283 0.0
N904 N 0.73793 0.78927 0.94075 0.0
O905 O 0.69657 0.81038 0.9106 0.0
H906 H 0.74086 0.77338 0.90276 0.0
H907 H 0.71413 0.80235 0.93845 0.0
O908 O 0.71107 0.76759 0.8889 0.0
C909 C 0.68475 0.81643 0.92004 0.0
O910 O 0.67226 0.8067 0.92532 0.0
N911 N 0.68769 0.77516 0.91352 0.0
C912 C 0.66563 0.75341 0.9314 0.0
C913 C 0.6666 0.75274 0.91365 0.0
C914 C 0.67771 0.7636 0.90502 0.0
C915 C 0.68682 0.77565 0.93089 0.0
C916 C 0.67602 0.76499 0.93998 0.0
H917 H 0.6785 0.7623 0.89137 0.0
H918 H 0.6937 0.78473 0.93816 0.0
H919 H 0.69941 0.78295 0.8599 0.0
H920 H 0.64878 0.79861 0.86716 0.0
H921 H 0.75904 0.77468 0.93087 0.0
H922 H 0.65882 0.74395 0.90644 0.0
H923 H 0.67593 0.76585 0.95373 0.0
C924 C 0.96078 0.08215 0.86776 0.0
C925 C 0.9609 0.09117 0.88265 0.0
N926 N 0.96647 0.08093 0.89515 0.0
N927 N 0.96644 0.06615 0.87058 0.0
C928 C 0.96955 0.06573 0.8876 0.0
H929 H 0.95763 0.08745 0.85557 0.0
Co930 Co 0.97031 0.04896 0.85391 0.0
C931 C 0.00689 0.0405 0.85803 0.0
O932 O 0.0079 0.04062 0.84133 0.0
N933 N 0.97309 0.03067 0.8378 0.0
C934 C 0.98051 0.00547 0.8269 0.0
C935 C 0.9811 0.01579 0.84103 0.0
C936 C 0.96641 0.0282 0.82199 0.0
N937 N 0.97142 0.01341 0.81475 0.0
O938 O 0.94793 0.05433 0.84342 0.0
H939 H 0.98711 0.01251 0.85297 0.0
H940 H 0.95748 0.03677 0.81598 0.0
O941 O 0.99242 0.04309 0.86517 0.0
C942 C 0.94118 0.06546 0.83356 0.0
O943 O 0.95025 0.07813 0.82763 0.0
N944 N 0.98276 0.06514 0.83998 0.0
C945 C 1.00284 0.08849 0.82223 0.0
C946 C 0.004 0.08731 0.83985 0.0
C947 C 0.99388 0.07564 0.84845 0.0
C948 C 0.98207 0.06601 0.82259 0.0
C949 C 0.99175 0.07774 0.81353 0.0
H950 H 0.99542 0.07488 0.86207 0.0
H951 H 0.97347 0.05844 0.81536 0.0
H952 H 0.97455 0.05472 0.89419 0.0
H953 H 0.95729 0.10438 0.88415 0.0
H954 H 0.9866 0.99319 0.82565 0.0
H955 H 0.0126 0.0954 0.84697 0.0
H956 H 0.99065 0.0783 0.79979 0.0
C957 C 0.67125 0.21167 0.6208 0.0
C958 C 0.66439 0.21183 0.63691 0.0
N959 N 0.6769 0.21534 0.64801 0.0
N960 N 0.68808 0.21524 0.62163 0.0
C961 C 0.69112 0.21729 0.63852 0.0
H962 H 0.66404 0.2099 0.6093 0.0
Co963 Co 0.70476 0.2178 0.60431 0.0
C964 C 0.71549 0.25374 0.60831 0.0
O965 O 0.71634 0.25542 0.5917 0.0
N966 N 0.72297 0.21948 0.58801 0.0
C967 C 0.74901 0.22517 0.57792 0.0
C968 C 0.73841 0.2261 0.59182 0.0
C969 C 0.72526 0.21321 0.57203 0.0
N970 N 0.74061 0.21724 0.56534 0.0
O971 O 0.69824 0.19564 0.59446 0.0
H972 H 0.74189 0.23135 0.60405 0.0
H973 H 0.71639 0.20495 0.56559 0.0
O974 O 0.71158 0.23938 0.6149 0.0
C975 C 0.68565 0.18928 0.58627 0.0
O976 O 0.67241 0.19868 0.58239 0.0
N977 N 0.68888 0.23065 0.59016 0.0
C978 C 0.66638 0.25096 0.57113 0.0
C979 C 0.66798 0.25321 0.58869 0.0
C980 C 0.67919 0.24293 0.59793 0.0
C981 C 0.68741 0.22861 0.57293 0.0
C982 C 0.67628 0.23849 0.56327 0.0
H983 H 0.68014 0.24508 0.61147 0.0
H984 H 0.69386 0.21869 0.56639 0.0
H985 H 0.70345 0.22057 0.64373 0.0
H986 H 0.65116 0.20985 0.64023 0.0
H987 H 0.7618 0.23023 0.57708 0.0
H988 H 0.66047 0.26268 0.5953 0.0
H989 H 0.67543 0.23631 0.54969 0.0
C990 C 0.53679 0.91151 0.36062 0.0
C991 C 0.53787 0.90074 0.37435 0.0
N992 N 0.5378 0.91009 0.38872 0.0
N993 N 0.53592 0.92769 0.36614 0.0
C994 C 0.53657 0.92644 0.38336 0.0
H995 H 0.53696 0.90776 0.34739 0.0
Co996 Co 0.53547 0.94695 0.35183 0.0
C997 C 0.51012 0.97012 0.36841 0.0
O998 O 0.50681 0.97672 0.35342 0.0
N999 N 0.53564 0.96659 0.33723 0.0
C1000 C 0.54166 0.99297 0.32855 0.0
C1001 C 0.5414 0.98198 0.34221 0.0
C1002 C 0.53276 0.96862 0.32026 0.0
N1003 N 0.53627 0.98454 0.31464 0.0
O1004 O 0.55793 0.95326 0.36014 0.0
H1005 H 0.54551 0.98497 0.355 0.0
H1006 H 0.52842 0.95867 0.31194 0.0
O1007 O 0.52229 0.95925 0.36984 0.0
C1008 C 0.56717 0.94476 0.34969 0.0
O1009 O 0.55942 0.93611 0.33767 0.0
N1010 N 0.51538 0.93871 0.34209 0.0
C1011 C 0.49148 0.91754 0.32693 0.0
C1012 C 0.48784 0.92542 0.34245 0.0
C1013 C 0.50021 0.93567 0.35008 0.0
C1014 C 0.51889 0.93108 0.32695 0.0
C1015 C 0.50706 0.92073 0.319 0.0
H1016 H 0.49804 0.93977 0.3629 0.0
H1017 H 0.53147 0.93205 0.32153 0.0
H1018 H 0.53676 0.93732 0.39177 0.0
H1019 H 0.53877 0.88702 0.37374 0.0
H1020 H 0.5461 0.00598 0.32878 0.0
H1021 H 0.47612 0.92268 0.34917 0.0
H1022 H 0.5104 0.91459 0.30712 0.0
C1023 C 0.83265 0.80379 0.12159 0.0
C1024 C 0.84038 0.80516 0.13719 0.0
N1025 N 0.8307 0.79706 0.14868 0.0
N1026 N 0.81794 0.79495 0.12309 0.0
C1027 C 0.81717 0.791 0.13992 0.0
H1028 H 0.83785 0.80872 0.10993 0.0
Co1029 Co 0.80185 0.7899 0.10559 0.0
C1030 C 0.79275 0.7539 0.113 0.0
O1031 O 0.79312 0.75124 0.0965 0.0
N1032 N 0.78433 0.78637 0.08861 0.0
C1033 C 0.75944 0.77945 0.07655 0.0
C1034 C 0.76915 0.77865 0.09116 0.0
C1035 C 0.7827 0.79297 0.07263 0.0
N1036 N 0.7681 0.78829 0.06473 0.0
O1037 O 0.80917 0.81089 0.09319 0.0
H1038 H 0.76518 0.77287 0.10298 0.0
H1039 H 0.79212 0.80106 0.06673 0.0
O1040 O 0.79463 0.76911 0.11864 0.0
C1041 C 0.82072 0.81498 0.08235 0.0
O1042 O 0.8318 0.80366 0.07715 0.0
N1043 N 0.81831 0.7754 0.09406 0.0
C1044 C 0.8404 0.75134 0.07954 0.0
C1045 C 0.84067 0.75445 0.09702 0.0
C1046 C 0.82943 0.76624 0.104 0.0
C1047 C 0.81795 0.77218 0.07694 0.0
C1048 C 0.82871 0.76029 0.06953 0.0
H1049 H 0.82933 0.76722 0.11766 0.0
H1050 H 0.8098 0.77889 0.06847 0.0
H1051 H 0.80692 0.78382 0.14568 0.0
H1052 H 0.85245 0.81127 0.13986 0.0
H1053 H 0.74706 0.7737 0.07475 0.0
H1054 H 0.8494 0.74777 0.10535 0.0
H1055 H 0.82766 0.75807 0.05597 0.0
C1056 C 0.63491 0.95733 0.92208 0.0
C1057 C 0.62008 0.95498 0.91325 0.0
N1058 N 0.60701 0.95988 0.92315 0.0
N1059 N 0.63143 0.96376 0.93763 0.0
C1060 C 0.6142 0.96523 0.93787 0.0
H1061 H 0.64741 0.9549 0.91709 0.0
Co1062 Co 0.64707 0.96852 0.95532 0.0
C1063 C 0.64008 0.0047 0.96307 0.0
O1064 O 0.65661 0.0073 0.96319 0.0
N1065 N 0.66206 0.97202 0.97434 0.0
C1066 C 0.67262 0.98121 0.99909 0.0
C1067 C 0.65863 0.9811 0.98856 0.0
C1068 C 0.67761 0.96516 0.97769 0.0
N1069 N 0.68457 0.97118 0.99217 0.0
O1070 O 0.65893 0.94695 0.95024 0.0
H1071 H 0.64676 0.9875 0.99119 0.0
H1072 H 0.68418 0.95639 0.96938 0.0
O1073 O 0.6343 0.98966 0.9606 0.0
C1074 C 0.6698 0.94115 0.93956 0.0
O1075 O 0.67622 0.95108 0.92778 0.0
N1076 N 0.66115 0.98185 0.93981 0.0
C1077 C 0.67936 0.0028 0.91738 0.0
C1078 C 0.66163 1.00207 0.91664 0.0
C1079 C 0.6528 0.99179 0.92807 0.0
C1080 C 0.67854 0.98294 0.94077 0.0
C1081 C 0.68782 0.99321 0.92971 0.0
H1082 H 0.63908 0.99227 0.92764 0.0
H1083 H 0.68578 0.97536 0.94935 0.0
H1084 H 0.60707 0.96987 0.94869 0.0
H1085 H 0.61901 0.9503 0.90035 0.0
H1086 H 0.67407 0.98837 0.01076 0.0
H1087 H 0.65459 0.00967 0.90752 0.0
H1088 H 0.70159 0.9933 0.93055 0.0
C1089 C 0.78394 0.88749 0.65506 0.0
C1090 C 0.78265 0.87231 0.64646 0.0
N1091 N 0.78271 0.85952 0.6579 0.0
N1092 N 0.78463 0.88438 0.67191 0.0
C1093 C 0.78408 0.8672 0.67324 0.0
H1094 H 0.78421 0.90002 0.6494 0.0
Co1095 Co 0.78591 0.90083 0.68917 0.0
C1096 C 0.76003 0.88931 0.71441 0.0
O1097 O 0.75758 0.90547 0.71783 0.0
N1098 N 0.78791 0.91737 0.70706 0.0
C1099 C 0.79446 0.92723 0.73286 0.0
C1100 C 0.79293 0.91297 0.72289 0.0
C1101 C 0.78698 0.93465 0.70773 0.0
N1102 N 0.79075 0.94102 0.72334 0.0
O1103 O 0.80828 0.89244 0.69537 0.0
H1104 H 0.79539 0.90007 0.72698 0.0
H1105 H 0.78417 0.9426 0.69695 0.0
O1106 O 0.77221 0.88514 0.70425 0.0
C1107 C 0.81756 0.90142 0.68531 0.0
O1108 O 0.80997 0.91184 0.67467 0.0
N1109 N 0.76588 0.91061 0.68085 0.0
C1110 C 0.73988 0.928 0.66434 0.0
C1111 C 0.73688 0.91184 0.67121 0.0
C1112 C 0.75024 0.90314 0.67916 0.0
C1113 C 0.76923 0.92551 0.67274 0.0
C1114 C 0.75637 0.93466 0.66487 0.0
H1115 H 0.74813 0.89024 0.68326 0.0
H1116 H 0.78215 0.93011 0.67195 0.0
H1117 H 0.78432 0.86045 0.68525 0.0
H1118 H 0.7818 0.8708 0.6328 0.0
H1119 H 0.79807 0.92726 0.74613 0.0
H1120 H 0.72447 0.90592 0.67025 0.0
H1121 H 0.75946 0.94661 0.65872 0.0
C1122 C 0.85852 0.04844 0.41574 0.0
C1123 C 0.87329 0.05028 0.40648 0.0
N1124 N 0.88596 0.04253 0.41503 0.0
N1125 N 0.86191 0.03974 0.43014 0.0
C1126 C 0.87878 0.03626 0.42931 0.0
H1127 H 0.84619 0.05363 0.41248 0.0
Co1128 Co 0.84623 0.03678 0.44775 0.0
C1129 C 0.86099 0.00961 0.46987 0.0
O1130 O 0.84515 0.00485 0.47237 0.0
N1131 N 0.83002 0.03473 0.46597 0.0
C1132 C 0.81974 0.03721 0.49235 0.0
C1133 C 0.83416 0.03755 0.48243 0.0
C1134 C 0.81273 0.03346 0.46623 0.0
N1135 N 0.80624 0.03476 0.48212 0.0
O1136 O 0.85231 0.05916 0.45601 0.0
H1137 H 0.84692 0.04011 0.48693 0.0
H1138 H 0.80483 0.03214 0.45509 0.0
O1139 O 0.86384 0.02333 0.46126 0.0
C1140 C 0.84013 0.06826 0.4499 0.0
O1141 O 0.82747 0.06051 0.44224 0.0
N1142 N 0.83889 0.01688 0.43726 0.0
C1143 C 0.82746 0.99274 0.41428 0.0
C1144 C 0.84309 0.99053 0.42246 0.0
C1145 C 0.84887 0.00312 0.4335 0.0
C1146 C 0.82386 0.01926 0.42897 0.0
C1147 C 0.81774 0.00722 0.41766 0.0
H1148 H 0.86184 0.0023 0.43785 0.0
H1149 H 0.81719 0.03119 0.4301 0.0
H1150 H 0.88591 0.03002 0.43928 0.0
H1151 H 0.87469 0.05694 0.3945 0.0
H1152 H 0.81914 0.03931 0.50595 0.0
H1153 H 0.85122 0.97982 0.41943 0.0
H1154 H 0.80585 0.00954 0.41104 0.0
C1155 C 0.72051 0.11645 0.15721 0.0
C1156 C 0.72064 0.13118 0.14772 0.0
N1157 N 0.71888 0.14458 0.15826 0.0
N1158 N 0.71878 0.12034 0.17381 0.0
C1159 C 0.71751 0.13763 0.17402 0.0
H1160 H 0.72225 0.1037 0.15237 0.0
Co1161 Co 0.72002 0.10394 0.19172 0.0
C1162 C 0.73249 0.13345 0.21653 0.0
O1163 O 0.72395 0.14363 0.22665 0.0
N1164 N 0.72059 0.08753 0.20999 0.0
C1165 C 0.72572 0.07517 0.23503 0.0
C1166 C 0.7273 0.08982 0.22564 0.0
C1167 C 0.71477 0.07118 0.21039 0.0
N1168 N 0.71788 0.0633 0.2255 0.0
O1169 O 0.69572 0.10554 0.19443 0.0
H1170 H 0.73322 0.10131 0.23014 0.0
H1171 H 0.70866 0.0651 0.19966 0.0
O1172 O 0.72405 0.12234 0.20807 0.0
C1173 C 0.68915 0.0958 0.18319 0.0
O1174 O 0.69932 0.0873 0.17304 0.0
N1175 N 0.74352 0.10075 0.18729 0.0
C1176 C 0.77396 0.09211 0.17113 0.0
C1177 C 0.76923 0.10919 0.17286 0.0
C1178 C 0.75396 0.11326 0.18111 0.0
C1179 C 0.74832 0.08413 0.18585 0.0
C1180 C 0.76364 0.07959 0.17831 0.0
H1181 H 0.75004 0.1264 0.18142 0.0
H1182 H 0.73971 0.074 0.18901 0.0
H1183 H 0.71646 0.14507 0.18553 0.0
H1184 H 0.72226 0.13194 0.13407 0.0
H1185 H 0.73051 0.07332 0.24781 0.0
H1186 H 0.77678 0.11918 0.16711 0.0
H1187 H 0.76652 0.06622 0.17661 0.0
C1188 C 0.62922 0.04874 0.58313 0.0
C1189 C 0.61408 0.04906 0.59183 0.0
N1190 N 0.60151 0.0446 0.5811 0.0
N1191 N 0.62649 0.04399 0.56682 0.0
C1192 C 0.60931 0.0419 0.56597 0.0
H1193 H 0.64146 0.05071 0.58888 0.0
Co1194 Co 0.64328 0.0386 0.54999 0.0
C1195 C 0.61833 0.01424 0.53451 0.0
O1196 O 0.61071 0.02558 0.52488 0.0
N1197 N 0.65979 0.03328 0.53265 0.0
C1198 C 0.67548 0.01748 0.51503 0.0
C1199 C 0.66065 0.01833 0.52415 0.0
C1200 C 0.67432 0.04149 0.52789 0.0
N1201 N 0.6842 0.03194 0.51747 0.0
O1202 O 0.65582 0.05966 0.55587 0.0
H1203 H 0.65184 0.0079 0.52532 0.0
H1204 H 0.67845 0.05345 0.53327 0.0
O1205 O 0.6306 0.01857 0.54415 0.0
C1206 C 0.66573 0.06527 0.56757 0.0
O1207 O 0.67028 0.05544 0.58028 0.0
N1208 N 0.65553 0.02467 0.56586 0.0
C1209 C 0.67217 1.00201 0.58761 0.0
C1210 C 0.65443 1.00216 0.58663 0.0
C1211 C 0.64638 0.01356 0.57571 0.0
C1212 C 0.67295 0.02405 0.56627 0.0
C1213 C 0.68149 0.01306 0.57726 0.0
H1214 H 0.63264 0.01325 0.57512 0.0
H1215 H 0.6805 0.03249 0.55859 0.0
H1216 H 0.60267 0.03766 0.55473 0.0
H1217 H 0.61255 0.05188 0.60522 0.0
H1218 H 0.68008 0.00655 0.50805 0.0
H1219 H 0.64683 0.99373 0.59444 0.0
H1220 H 0.69528 0.01316 0.57762 0.0
C1221 C 0.70618 0.88929 0.33499 0.0
C1222 C 0.70575 0.87435 0.344 0.0
N1223 N 0.70995 0.86147 0.33353 0.0
N1224 N 0.71067 0.88615 0.3187 0.0
C1225 C 0.7127 0.86899 0.31818 0.0
H1226 H 0.70395 0.9017 0.34031 0.0
Co1227 Co 0.71414 0.90263 0.30114 0.0
C1228 C 0.74871 0.89335 0.28753 0.0
O1229 O 0.75226 0.90961 0.28603 0.0
N1230 N 0.71624 0.91873 0.28253 0.0
C1231 C 0.72085 0.92881 0.25628 0.0
C1232 C 0.72163 0.91473 0.2667 0.0
C1233 C 0.71089 0.93516 0.28075 0.0
N1234 N 0.71424 0.94186 0.26516 0.0
O1235 O 0.69403 0.91553 0.30991 0.0
H1236 H 0.7258 0.90225 0.26278 0.0
H1237 H 0.70418 0.94207 0.29056 0.0
O1238 O 0.73378 0.88877 0.29243 0.0
C1239 C 0.69014 0.92659 0.32131 0.0
O1240 O 0.70197 0.93294 0.33121 0.0
N1241 N 0.73052 0.91448 0.31523 0.0
C1242 C 0.75734 0.92865 0.33393 0.0
C1243 C 0.75488 0.91113 0.33365 0.0
C1244 C 0.74155 0.90435 0.32428 0.0
C1245 C 0.73303 0.93169 0.31534 0.0
C1246 C 0.74622 0.93902 0.32467 0.0
H1247 H 0.74074 0.89068 0.32381 0.0
H1248 H 0.7247 0.94019 0.30881 0.0
H1249 H 0.71661 0.86223 0.30686 0.0
H1250 H 0.70254 0.87317 0.35733 0.0
H1251 H 0.72505 0.92934 0.24318 0.0
H1252 H 0.76344 0.9026 0.34031 0.0
H1253 H 0.74751 0.95273 0.32481 0.0
C1254 C 0.8579 0.96021 0.09239 0.0
C1255 C 0.87255 0.95793 0.10178 0.0
N1256 N 0.88584 0.9627 0.09211 0.0
N1257 N 0.86201 0.96624 0.07686 0.0
C1258 C 0.87918 0.96759 0.07708 0.0
H1259 H 0.84508 0.95732 0.09648 0.0
Co1260 Co 0.84665 0.96924 0.05895 0.0
C1261 C 0.86258 0.99575 0.03743 0.0
O1262 O 0.84712 1.00181 0.03529 0.0
N1263 N 0.83087 0.97109 0.04047 0.0
C1264 C 0.82057 0.97032 0.01393 0.0
C1265 C 0.83507 0.97054 0.02376 0.0
C1266 C 0.81362 0.96976 0.04032 0.0
N1267 N 0.80711 0.96975 0.02442 0.0
O1268 O 0.85282 0.947 0.05071 0.0
H1269 H 0.84793 0.96986 0.01893 0.0
H1270 H 0.80585 0.96796 0.05147 0.0
O1271 O 0.8646 0.98173 0.04567 0.0
C1272 C 0.842 0.93746 0.05826 0.0
O1273 O 0.82997 0.94476 0.06729 0.0
N1274 N 0.83965 0.99008 0.06896 0.0
C1275 C 0.82942 0.01827 0.08799 0.0
C1276 C 0.84639 0.01644 0.083 0.0
C1277 C 0.85128 1.00215 0.07373 0.0
C1278 C 0.82331 0.99126 0.07471 0.0
C1279 C 0.81778 0.00549 0.08375 0.0
H1280 H 0.86463 1.00049 0.07111 0.0
H1281 H 0.81476 0.9807 0.07343 0.0
H1282 H 0.88678 0.97152 0.06632 0.0
H1283 H 0.8734 0.95323 0.1147 0.0
H1284 H 0.81996 0.96988 1.00018 0.0
H1285 H 0.85588 0.02575 0.0866 0.0
H1286 H 0.80475 0.00602 0.08825 0.0
C1287 C 0.79872 0.11182 0.83368 0.0
C1288 C 0.79904 0.12657 0.84298 0.0
N1289 N 0.79348 0.13936 0.83305 0.0
N1290 N 0.79291 0.1151 0.81783 0.0
C1291 C 0.79005 0.1321 0.8178 0.0
H1292 H 0.80192 0.09947 0.8386 0.0
Co1293 Co 0.78859 0.0996 0.79986 0.0
C1294 C 0.75291 0.1077 0.79022 0.0
O1295 O 0.74968 0.09134 0.7893 0.0
N1296 N 0.78542 0.08468 0.78071 0.0
C1297 C 0.77831 0.07531 0.75483 0.0
C1298 C 0.77789 0.08891 0.76582 0.0
C1299 C 0.79169 0.06886 0.77761 0.0
N1300 N 0.78685 0.06249 0.76233 0.0
O1301 O 0.80972 0.08735 0.80572 0.0
H1302 H 0.77246 0.1012 0.76292 0.0
H1303 H 0.80002 0.06216 0.78627 0.0
O1304 O 0.76797 0.11285 0.79373 0.0
C1305 C 0.81531 0.07654 0.81658 0.0
O1306 O 0.80516 0.07029 0.82826 0.0
N1307 N 0.77435 0.08593 0.81478 0.0
C1308 C 0.75207 0.06861 0.83659 0.0
C1309 C 0.75291 0.08631 0.83678 0.0
C1310 C 0.76388 0.09467 0.82571 0.0
C1311 C 0.77321 0.06855 0.81431 0.0
C1312 C 0.76222 0.0597 0.82507 0.0
H1313 H 0.76355 0.10838 0.82579 0.0
H1314 H 0.78122 0.06107 0.80634 0.0
H1315 H 0.78503 0.13891 0.80693 0.0
H1316 H 0.80307 0.12771 0.8561 0.0
H1317 H 0.77253 0.07497 0.74234 0.0
H1318 H 0.74492 0.09369 0.84523 0.0
H1319 H 0.76202 0.04593 0.82467 0.0
C1320 C 0.91557 0.64708 0.96812 0.0
C1321 C 0.90618 0.63231 0.96764 0.0
N1322 N 0.91699 0.61897 0.96744 0.0
N1323 N 0.93227 0.64315 0.96831 0.0
C1324 C 0.93274 0.62596 0.96777 0.0
H1325 H 0.91055 0.65988 0.96844 0.0
Co1326 Co 0.95048 0.65857 0.96902 0.0
C1327 C 0.97359 0.64318 0.99473 0.0
O1328 O 0.97712 0.65878 0.99955 0.0
N1329 N 0.96925 0.67428 0.96897 0.0
C1330 C 0.99588 0.68377 0.96556 0.0
C1331 C 0.98563 0.6696 0.96635 0.0
C1332 C 0.96992 0.69158 0.9687 0.0
N1333 N 0.98594 0.6976 0.96694 0.0
O1334 O 0.95694 0.65168 0.9462 0.0
H1335 H 0.98987 0.65661 0.96482 0.0
H1336 H 0.95901 0.69985 0.96931 0.0
O1337 O 0.96418 0.64092 0.98152 0.0
C1338 C 0.94753 0.66219 0.93791 0.0
O1339 O 0.93847 0.67314 0.94671 0.0
N1340 N 0.94191 0.6669 0.98965 0.0
C1341 C 0.92005 0.67981 0.01428 0.0
C1342 C 0.92753 0.66383 0.01652 0.0
C1343 C 0.93817 0.65739 0.00378 0.0
C1344 C 0.93454 0.6824 0.98748 0.0
C1345 C 0.92408 0.68932 0.99982 0.0
H1346 H 0.94191 0.64425 0.00463 0.0
H1347 H 0.93519 0.6887 0.97536 0.0
H1348 H 0.94444 0.61872 0.9674 0.0
H1349 H 0.89243 0.63151 0.96773 0.0
H1350 H 0.00951 0.68392 0.96352 0.0
H1351 H 0.92413 0.65588 0.02725 0.0
H1352 H 0.9182 0.70157 0.99745 0.0
C1353 C 0.41432 0.86759 0.04343 0.0
C1354 C 0.40547 0.88271 0.0433 0.0
N1355 N 0.41655 0.89552 0.04066 0.0
N1356 N 0.43096 0.87068 0.04064 0.0
C1357 C 0.43197 0.88789 0.03925 0.0
H1358 H 0.4089 0.85506 0.04508 0.0
Co1359 Co 0.4478 0.85364 0.03834 0.0
C1360 C 0.46893 0.86573 0.00947 0.0
O1361 O 0.4711 0.84968 0.0054 0.0
N1362 N 0.46534 0.83626 0.03663 0.0
C1363 C 0.49153 0.82548 0.03935 0.0
C1364 C 0.4819 0.84007 0.03924 0.0
C1365 C 0.46536 0.81892 0.03555 0.0
N1366 N 0.48119 0.81202 0.03705 0.0
O1367 O 0.45806 0.86106 0.05943 0.0
H1368 H 0.48668 0.85278 0.0414 0.0
H1369 H 0.45407 0.81129 0.03413 0.0
O1370 O 0.46094 0.86941 0.02326 0.0
C1371 C 0.4515 0.85029 0.06979 0.0
O1372 O 0.44072 0.83904 0.06375 0.0
N1373 N 0.43589 0.84505 0.01963 0.0
C1374 C 0.41244 0.8308 0.99722 0.0
C1375 C 0.42012 0.84645 0.99345 0.0
C1376 C 0.43158 0.85358 0.00507 0.0
C1377 C 0.42789 0.83028 0.0237 0.0
C1378 C 0.41659 0.82268 0.01253 0.0
H1379 H 0.4361 0.86631 0.00276 0.0
H1380 H 0.42963 0.82474 0.03614 0.0
H1381 H 0.44369 0.89467 0.03672 0.0
H1382 H 0.39186 0.88416 0.04496 0.0
H1383 H 0.5051 0.8249 0.04165 0.0
H1384 H 0.41675 0.85344 0.98206 0.0
H1385 H 0.41089 0.81066 0.0161 0.0
C1386 C 0.88687 0.67548 0.80607 0.0
C1387 C 0.87126 0.66794 0.80822 0.0
N1388 N 0.85961 0.67736 0.80002 0.0
N1389 N 0.88515 0.68975 0.79657 0.0
C1390 C 0.86823 0.69051 0.79314 0.0
H1391 H 0.89867 0.67032 0.81073 0.0
Co1392 Co 0.90227 0.70535 0.78965 0.0
C1393 C 0.89233 0.71438 0.754 0.0
O1394 O 0.90847 0.71393 0.74967 0.0
N1395 N 0.91873 0.72246 0.78424 0.0
C1396 C 0.92923 0.74773 0.77665 0.0
C1397 C 0.91497 0.73763 0.77706 0.0
C1398 C 0.93517 0.7244 0.78933 0.0
N1399 N 0.94209 0.73937 0.7843 0.0
O1400 O 0.91598 0.69874 0.81006 0.0
H1401 H 0.90247 0.74144 0.77275 0.0
H1402 H 0.94185 0.71518 0.79702 0.0
O1403 O 0.88798 0.71191 0.76956 0.0
C1404 C 0.92674 0.68714 0.81427 0.0
O1405 O 0.93132 0.67559 0.80316 0.0
N1406 N 0.91261 0.68836 0.77496 0.0
C1407 C 0.92435 0.66475 0.75097 0.0
C1408 C 0.90715 0.66562 0.7551 0.0
C1409 C 0.90156 0.67753 0.76684 0.0
C1410 C 0.92952 0.68775 0.77066 0.0
C1411 C 0.93564 0.67604 0.75879 0.0
H1412 H 0.88802 0.6784 0.76857 0.0
H1413 H 0.93871 0.69584 0.77654 0.0
H1414 H 0.86234 0.70029 0.78543 0.0
H1415 H 0.86875 0.65601 0.81465 0.0
H1416 H 0.9299 0.76033 0.77117 0.0
H1417 H 0.89791 0.65748 0.7489 0.0
H1418 H 0.94912 0.67569 0.75591 0.0
C1419 C 0.08875 0.14566 0.54612 0.0
C1420 C 0.09914 0.13163 0.54725 0.0
N1421 N 0.09002 0.11779 0.54283 0.0
N1422 N 0.07319 0.14079 0.54083 0.0
C1423 C 0.07427 0.1237 0.5392 0.0
H1424 H 0.09231 0.15862 0.549 0.0
Co1425 Co 0.05486 0.1554 0.53746 0.0
C1426 C 0.03306 0.13822 0.51101 0.0
O1427 O 0.02733 0.1531 0.50602 0.0
N1428 N 0.03616 0.17054 0.53472 0.0
C1429 C 0.01026 0.18151 0.53836 0.0
C1430 C 0.01984 0.16686 0.53866 0.0
C1431 C 0.03614 0.18762 0.53233 0.0
N1432 N 0.02057 0.19464 0.53451 0.0
O1433 O 0.04571 0.14814 0.55907 0.0
H1434 H 0.01535 0.15438 0.54232 0.0
H1435 H 0.0474 0.195 0.52983 0.0
O1436 O 0.0432 0.13738 0.52384 0.0
C1437 C 0.05012 0.16026 0.56905 0.0
O1438 O 0.05783 0.17352 0.56244 0.0
N1439 N 0.06574 0.16398 0.51815 0.0
C1440 C 0.08819 0.17898 0.49533 0.0
C1441 C 0.07926 0.16427 0.49075 0.0
C1442 C 0.06835 0.15665 0.50259 0.0
C1443 C 0.07468 0.17808 0.52272 0.0
C1444 C 0.08573 0.18593 0.51148 0.0
H1445 H 0.06294 0.14451 0.49945 0.0
H1446 H 0.07362 0.183 0.53549 0.0
H1447 H 0.06377 0.11572 0.53531 0.0
H1448 H 0.11234 0.13162 0.55118 0.0
H1449 H 0.99694 0.18249 0.54172 0.0
H1450 H 0.08134 0.15829 0.47852 0.0
H1451 H 0.09256 0.19718 0.51553 0.0
C1452 C 0.11829 0.84183 0.78859 0.0
C1453 C 0.13345 0.85062 0.7882 0.0
N1454 N 0.14633 0.8393 0.78786 0.0
N1455 N 0.12156 0.82501 0.78823 0.0
C1456 C 0.13878 0.82387 0.78811 0.0
H1457 H 0.10567 0.84734 0.78858 0.0
Co1458 Co 0.10535 0.80764 0.78653 0.0
C1459 C 0.12073 0.78383 0.76113 0.0
O1460 O 0.10525 0.78014 0.75596 0.0
N1461 N 0.08897 0.78968 0.78545 0.0
C1462 C 0.07839 0.76376 0.78993 0.0
C1463 C 0.09293 0.77343 0.78934 0.0
C1464 C 0.07169 0.78956 0.78428 0.0
N1465 N 0.0649 0.77391 0.78686 0.0
O1466 O 0.11134 0.80004 0.80927 0.0
H1467 H 0.10566 0.76893 0.79208 0.0
H1468 H 0.06406 0.8008 0.7826 0.0
O1469 O 0.12267 0.7935 0.77419 0.0
C1470 C 0.09969 0.80755 0.81793 0.0
O1471 O 0.08886 0.8173 0.80971 0.0
N1472 N 0.09787 0.81722 0.76591 0.0
C1473 C 0.08644 0.83958 0.74086 0.0
C1474 C 0.10179 0.8308 0.73875 0.0
C1475 C 0.10754 0.82001 0.75169 0.0
C1476 C 0.08298 0.82583 0.76804 0.0
C1477 C 0.07687 0.83679 0.75559 0.0
H1478 H 0.12032 0.81523 0.7508 0.0
H1479 H 0.07648 0.82541 0.7801 0.0
H1480 H 0.14569 0.81198 0.78752 0.0
H1481 H 0.13488 0.86431 0.78792 0.0
H1482 H 0.07793 0.75031 0.79275 0.0
H1483 H 0.10984 0.83323 0.72782 0.0
H1484 H 0.06515 0.8437 0.75786 0.0
C1485 C 0.58042 0.37328 0.44974 0.0
C1486 C 0.58943 0.38822 0.45009 0.0
N1487 N 0.58255 0.39836 0.46196 0.0
N1488 N 0.56825 0.3733 0.46196 0.0
C1489 C 0.56942 0.38933 0.46855 0.0
H1490 H 0.58276 0.36308 0.44086 0.0
Co1491 Co 0.55137 0.35571 0.4659 0.0
C1492 C 0.55465 0.37025 0.50013 0.0
O1493 O 0.57118 0.36792 0.49904 0.0
N1494 N 0.53354 0.33946 0.46867 0.0
C1495 C 0.50713 0.32985 0.47275 0.0
C1496 C 0.51732 0.34409 0.47183 0.0
C1497 C 0.53278 0.32222 0.46755 0.0
N1498 N 0.51687 0.31601 0.47003 0.0
O1499 O 0.55705 0.34539 0.44389 0.0
H1500 H 0.51312 0.35711 0.47328 0.0
H1501 H 0.54371 0.31421 0.46566 0.0
O1502 O 0.54492 0.36642 0.48764 0.0
C1503 C 0.56358 0.3315 0.43846 0.0
O1504 O 0.56846 0.31967 0.44918 0.0
N1505 N 0.56724 0.34118 0.47813 0.0
C1506 C 0.58923 0.3217 0.49837 0.0
C1507 C 0.59538 0.33039 0.48415 0.0
C1508 C 0.58417 0.3399 0.47412 0.0
C1509 C 0.56127 0.33275 0.49223 0.0
C1510 C 0.57196 0.32279 0.5023 0.0
H1511 H 0.58929 0.34578 0.46296 0.0
H1512 H 0.54821 0.33414 0.49627 0.0
H1513 H 0.56076 0.3945 0.47789 0.0
H1514 H 0.60002 0.39156 0.44194 0.0
H1515 H 0.49353 0.32977 0.47494 0.0
H1516 H 0.6087 0.32962 0.48066 0.0
H1517 H 0.56684 0.3164 0.51339 0.0
C1518 C 0.88795 0.34557 0.72594 0.0
C1519 C 0.87192 0.35249 0.72565 0.0
N1520 N 0.86064 0.34008 0.72251 0.0
N1521 N 0.88716 0.32859 0.72312 0.0
C1522 C 0.87012 0.32576 0.7208 0.0
H1523 H 0.89932 0.35282 0.72832 0.0
Co1524 Co 0.90549 0.3118 0.72548 0.0
C1525 C 0.88458 0.29842 0.74615 0.0
O1526 O 0.8922 0.31132 0.7535 0.0
N1527 N 0.92317 0.29535 0.72895 0.0
C1528 C 0.94043 0.27964 0.74504 0.0
C1529 C 0.92586 0.28921 0.74472 0.0
C1530 C 0.93664 0.28922 0.71979 0.0
N1531 N 0.94744 0.27953 0.72939 0.0
O1532 O 0.90529 0.30726 0.70037 0.0
H1533 H 0.91824 0.29224 0.75572 0.0
H1534 H 0.9388 0.2923 0.70656 0.0
O1535 O 0.88843 0.29482 0.73072 0.0
C1536 C 0.90248 0.3185 0.68878 0.0
O1537 O 0.899 0.33416 0.69328 0.0
N1538 N 0.92253 0.32825 0.72324 0.0
C1539 C 0.95096 0.34851 0.72859 0.0
C1540 C 0.93867 0.34671 0.74126 0.0
C1541 C 0.92483 0.33612 0.73849 0.0
C1542 C 0.9345 0.32978 0.71067 0.0
C1543 C 0.9489 0.33998 0.71312 0.0
H1544 H 0.91595 0.33387 0.74874 0.0
H1545 H 0.93378 0.32228 0.69923 0.0
H1546 H 0.86461 0.31331 0.71887 0.0
H1547 H 0.8687 0.36565 0.7281 0.0
H1548 H 0.94587 0.274 0.75637 0.0
H1549 H 0.94025 0.35269 0.75358 0.0
H1550 H 0.95863 0.34062 0.70338 0.0
C1551 C 0.60985 0.66315 0.21541 0.0
C1552 C 0.62346 0.6522 0.21427 0.0
N1553 N 0.63792 0.66145 0.21428 0.0
N1554 N 0.61568 0.67923 0.21623 0.0
C1555 C 0.63281 0.67781 0.21524 0.0
H1556 H 0.59656 0.65962 0.21609 0.0
Co1557 Co 0.60214 0.69853 0.21925 0.0
C1558 C 0.63442 0.71853 0.23494 0.0
O1559 O 0.64426 0.72723 0.22461 0.0
N1560 N 0.58832 0.71797 0.22198 0.0
C1561 C 0.57651 0.74198 0.23118 0.0
C1562 C 0.59078 0.7318 0.23183 0.0
C1563 C 0.57254 0.72016 0.21538 0.0
N1564 N 0.56495 0.73455 0.22093 0.0
O1565 O 0.60733 0.70531 0.19635 0.0
H1566 H 0.60188 0.73411 0.23959 0.0
H1567 H 0.56644 0.71097 0.20718 0.0
O1568 O 0.62163 0.7106 0.22877 0.0
C1569 C 0.59691 0.69651 0.18753 0.0
O1570 O 0.58568 0.68711 0.19561 0.0
N1571 N 0.59589 0.69062 0.24075 0.0
C1572 C 0.58405 0.67433 0.26986 0.0
C1573 C 0.60157 0.67622 0.26708 0.0
C1574 C 0.60724 0.68425 0.25228 0.0
C1575 C 0.57885 0.68842 0.24309 0.0
C1576 C 0.57266 0.68061 0.25766 0.0
H1577 H 0.62075 0.68474 0.24976 0.0
H1578 H 0.56996 0.69192 0.23324 0.0
H1579 H 0.64144 0.68849 0.21591 0.0
H1580 H 0.62275 0.63847 0.21377 0.0
H1581 H 0.5745 0.75351 0.23841 0.0
H1582 H 0.61078 0.67115 0.27602 0.0
H1583 H 0.55905 0.67867 0.2589 0.0
C1584 C 0.53851 0.58687 0.86616 0.0
C1585 C 0.54107 0.59607 0.88067 0.0
N1586 N 0.54211 0.58523 0.89384 0.0
N1587 N 0.53789 0.57008 0.86994 0.0
C1588 C 0.54004 0.56956 0.88707 0.0
H1589 H 0.53704 0.59244 0.85373 0.0
Co1590 Co 0.53658 0.55077 0.85559 0.0
C1591 C 0.50009 0.54102 0.85773 0.0
O1592 O 0.50008 0.53896 0.84113 0.0
N1593 N 0.53625 0.53043 0.84213 0.0
C1594 C 0.52951 0.50496 0.83147 0.0
C1595 C 0.52755 0.51587 0.84505 0.0
C1596 C 0.545 0.52693 0.8277 0.0
N1597 N 0.54028 0.51219 0.82031 0.0
O1598 O 0.5596 0.55577 0.8469 0.0
H1599 H 0.51972 0.51342 0.85608 0.0
H1600 H 0.55497 0.53487 0.82261 0.0
O1601 O 0.51388 0.5454 0.86531 0.0
C1602 C 0.56669 0.56812 0.83899 0.0
O1603 O 0.55787 0.58165 0.83485 0.0
N1604 N 0.52547 0.56402 0.83772 0.0
C1605 C 0.50898 0.5839 0.81307 0.0
C1606 C 0.50358 0.5842 0.83 0.0
C1607 C 0.51186 0.5741 0.84204 0.0
C1608 C 0.53058 0.56368 0.82106 0.0
C1609 C 0.5225 0.57334 0.80863 0.0
H1610 H 0.50752 0.57481 0.85506 0.0
H1611 H 0.54173 0.55707 0.81713 0.0
H1612 H 0.54061 0.55787 0.89434 0.0
H1613 H 0.54204 0.60978 0.8815 0.0
H1614 H 0.52284 0.49307 0.82962 0.0
H1615 H 0.49308 0.59222 0.83394 0.0
H1616 H 0.52737 0.57311 0.79573 0.0
C1617 C 0.65788 0.2852 0.10721 0.0
C1618 C 0.64905 0.28509 0.12235 0.0
N1619 N 0.66038 0.28534 0.13526 0.0
N1620 N 0.6747 0.28544 0.11053 0.0
C1621 C 0.67583 0.28562 0.1277 0.0
H1622 H 0.6524 0.2851 0.09458 0.0
Co1623 Co 0.69236 0.28614 0.09465 0.0
C1624 C 0.71763 0.26123 0.1081 0.0
O1625 O 0.72173 0.25833 0.09216 0.0
N1626 N 0.71067 0.28767 0.07852 0.0
C1627 C 0.73644 0.29461 0.06867 0.0
C1628 C 0.72635 0.29324 0.08291 0.0
C1629 C 0.71157 0.28623 0.06129 0.0
N1630 N 0.72713 0.2902 0.05498 0.0
O1631 O 0.69792 0.30889 0.10217 0.0
H1632 H 0.73019 0.29629 0.09577 0.0
H1633 H 0.70097 0.28309 0.05323 0.0
O1634 O 0.70728 0.27351 0.11144 0.0
C1635 C 0.68836 0.31775 0.09229 0.0
O1636 O 0.67865 0.30976 0.08129 0.0
N1637 N 0.68472 0.26545 0.08589 0.0
C1638 C 0.66879 0.2378 0.071 0.0
C1639 C 0.67491 0.23659 0.08764 0.0
C1640 C 0.68263 0.25076 0.09501 0.0
C1641 C 0.67723 0.26712 0.07038 0.0
C1642 C 0.66979 0.25329 0.06238 0.0
H1643 H 0.68591 0.25018 0.10829 0.0
H1644 H 0.67623 0.2795 0.06454 0.0
H1645 H 0.68778 0.28631 0.13452 0.0
H1646 H 0.63535 0.28467 0.12369 0.0
H1647 H 0.74962 0.29858 0.06852 0.0
H1648 H 0.67325 0.22506 0.09499 0.0
H1649 H 0.66403 0.25492 0.04995 0.0
C1650 C 0.9535 0.41955 0.36603 0.0
C1651 C 0.95369 0.41072 0.38106 0.0
N1652 N 0.95957 0.42101 0.39335 0.0
N1653 N 0.95945 0.43549 0.36852 0.0
C1654 C 0.96281 0.43603 0.38552 0.0
H1655 H 0.95005 0.4141 0.35401 0.0
Co1656 Co 0.96333 0.45276 0.35174 0.0
C1657 C 0.99897 0.4634 0.35981 0.0
O1658 O 1.00264 0.46354 0.34351 0.0
N1659 N 0.96592 0.47125 0.33562 0.0
C1660 C 0.97296 0.49625 0.32394 0.0
C1661 C 0.9738 0.48629 0.33837 0.0
C1662 C 0.95902 0.47332 0.31983 0.0
N1663 N 0.96387 0.48792 0.31208 0.0
O1664 O 0.94238 0.44537 0.33939 0.0
H1665 H 0.97988 0.48997 0.35014 0.0
H1666 H 0.95072 0.46412 0.31387 0.0
O1667 O 0.98378 0.46005 0.36475 0.0
C1668 C 0.93831 0.43338 0.32908 0.0
O1669 O 0.94973 0.42216 0.32438 0.0
N1670 N 0.97823 0.43768 0.3389 0.0
C1671 C 1.00064 0.41569 0.32194 0.0
C1672 C 0.99964 0.41556 0.33967 0.0
C1673 C 0.9885 0.42672 0.34787 0.0
C1674 C 0.97994 0.43833 0.32157 0.0
C1675 C 0.99092 0.42752 0.31294 0.0
H1676 H 0.98843 0.42655 0.36158 0.0
H1677 H 0.97221 0.44625 0.31381 0.0
H1678 H 0.96831 0.44692 0.39189 0.0
H1679 H 0.95027 0.39749 0.38275 0.0
H1680 H 0.979 0.5085 0.32223 0.0
H1681 H 0.00714 0.40675 0.34717 0.0
H1682 H 0.99156 0.42831 0.29919 0.0
C1683 C 0.83808 0.70616 0.61289 0.0
C1684 C 0.847 0.70481 0.62792 0.0
N1685 N 0.83773 0.71204 0.64037 0.0
N1686 N 0.82316 0.71409 0.61579 0.0
C1687 C 0.82332 0.7176 0.6327 0.0
H1688 H 0.84199 0.70122 0.60067 0.0
Co1689 Co 0.80624 0.71617 0.599 0.0
C1690 C 0.78348 0.74373 0.61048 0.0
O1691 O 0.78196 0.74763 0.5943 0.0
N1692 N 0.78871 0.71723 0.58165 0.0
C1693 C 0.76284 0.7131 0.57052 0.0
C1694 C 0.77223 0.71387 0.58526 0.0
C1695 C 0.78892 0.71804 0.56431 0.0
N1696 N 0.77333 0.71565 0.55722 0.0
O1697 O 0.7969 0.69486 0.6065 0.0
H1698 H 0.76735 0.71168 0.59794 0.0
H1699 H 0.80029 0.71936 0.55679 0.0
O1700 O 0.79214 0.7305 0.61476 0.0
C1701 C 0.8026 0.68429 0.59553 0.0
O1702 O 0.81179 0.69011 0.58284 0.0
N1703 N 0.81728 0.73563 0.59087 0.0
C1704 C 0.83702 0.76175 0.57776 0.0
C1705 C 0.83032 0.76303 0.59415 0.0
C1706 C 0.82068 0.74964 0.60061 0.0
C1707 C 0.82519 0.73363 0.5756 0.0
C1708 C 0.83463 0.7468 0.56848 0.0
H1709 H 0.81656 0.75033 0.61366 0.0
H1710 H 0.82479 0.72149 0.56923 0.0
H1711 H 0.81283 0.72343 0.63944 0.0
H1712 H 0.85931 0.69884 0.62962 0.0
H1713 H 0.74931 0.71063 0.56974 0.0
H1714 H 0.83271 0.77415 0.60192 0.0
H1715 H 0.84053 0.74509 0.55614 0.0
C1716 C 0.56523 0.43652 0.63145 0.0
C1717 C 0.56624 0.42711 0.61685 0.0
N1718 N 0.55054 0.42592 0.61032 0.0
N1719 N 0.54878 0.44042 0.63487 0.0
C1720 C 0.5403 0.43459 0.62097 0.0
H1721 H 0.57609 0.44061 0.6388 0.0
Co1722 Co 0.54237 0.45409 0.65377 0.0
C1723 C 0.50707 0.46559 0.64549 0.0
O1724 O 0.50347 0.46373 0.66172 0.0
N1725 N 0.53754 0.46942 0.67197 0.0
C1726 C 0.53134 0.49384 0.68514 0.0
C1727 C 0.53139 0.48536 0.66984 0.0
C1728 C 0.54236 0.46918 0.68857 0.0
N1729 N 0.53817 0.48355 0.69698 0.0
O1730 O 0.56242 0.44544 0.66693 0.0
H1731 H 0.5276 0.49079 0.65778 0.0
H1732 H 0.55014 0.45941 0.69426 0.0
O1733 O 0.52235 0.46277 0.64034 0.0
C1734 C 0.56744 0.43012 0.66969 0.0
O1735 O 0.55876 0.41738 0.66323 0.0
N1736 N 0.52788 0.43631 0.66331 0.0
C1737 C 0.50443 0.41353 0.67756 0.0
C1738 C 0.5038 0.41745 0.6603 0.0
C1739 C 0.51555 0.4288 0.65349 0.0
C1740 C 0.52908 0.43161 0.68006 0.0
C1741 C 0.51746 0.42045 0.68743 0.0
H1742 H 0.51363 0.43229 0.64052 0.0
H1743 H 0.53915 0.43605 0.68801 0.0
H1744 H 0.5271 0.43704 0.61813 0.0
H1745 H 0.57767 0.42188 0.61119 0.0
H1746 H 0.52682 0.50665 0.68729 0.0
H1747 H 0.49377 0.41246 0.65224 0.0
H1748 H 0.51867 0.4173 0.70081 0.0
C1749 C 0.84121 0.29117 0.88542 0.0
C1750 C 0.84978 0.29401 0.87054 0.0
N1751 N 0.83843 0.29762 0.85819 0.0
N1752 N 0.82429 0.29268 0.88272 0.0
C1753 C 0.82312 0.29767 0.86622 0.0
H1754 H 0.84718 0.28715 0.8971 0.0
Co1755 Co 0.80573 0.28766 0.89747 0.0
C1756 C 0.80486 0.25898 0.87055 0.0
O1757 O 0.81736 0.26513 0.86145 0.0
N1758 N 0.78666 0.28327 0.9121 0.0
C1759 C 0.76557 0.26952 0.92524 0.0
C1760 C 0.77632 0.26954 0.91147 0.0
C1761 C 0.78144 0.29162 0.92634 0.0
N1762 N 0.76888 0.28331 0.93479 0.0
O1763 O 0.81044 0.3094 0.90949 0.0
H1764 H 0.77683 0.25954 0.90211 0.0
H1765 H 0.78728 0.30319 0.93093 0.0
O1766 O 0.80017 0.26639 0.88434 0.0
C1767 C 0.82333 0.3159 0.91711 0.0
O1768 O 0.83729 0.30694 0.91911 0.0
N1769 N 0.81981 0.27441 0.91258 0.0
C1770 C 0.83868 0.2535 0.93444 0.0
C1771 C 0.83831 0.25035 0.91695 0.0
C1772 C 0.82879 0.26086 0.90631 0.0
C1773 C 0.81987 0.27736 0.92975 0.0
C1774 C 0.82932 0.2672 0.94083 0.0
H1775 H 0.8293 0.25836 0.89288 0.0
H1776 H 0.81291 0.28783 0.93512 0.0
H1777 H 0.81103 0.29943 0.85983 0.0
H1778 H 0.86329 0.29201 0.86882 0.0
H1779 H 0.7567 0.2595 0.92844 0.0
H1780 H 0.8456 0.24004 0.91145 0.0
H1781 H 0.82916 0.26997 0.95433 0.0
C1782 C 0.96039 0.58855 0.13284 0.0
C1783 C 0.96116 0.59659 0.11734 0.0
N1784 N 0.96529 0.58507 0.10544 0.0
N1785 N 0.96431 0.57191 0.13099 0.0
C1786 C 0.96703 0.57018 0.11396 0.0
H1787 H 0.9582 0.59488 0.14475 0.0
Co1788 Co 0.96723 0.55499 0.14829 0.0
C1789 C 1.00241 0.54325 0.14185 0.0
O1790 O 0.00544 0.54275 0.15829 0.0
N1791 N 0.96907 0.53685 0.16496 0.0
C1792 C 0.97492 0.51166 0.17696 0.0
C1793 C 0.97613 0.52137 0.16239 0.0
C1794 C 0.96224 0.53537 0.18085 0.0
N1795 N 0.96635 0.52061 0.18875 0.0
O1796 O 0.94637 0.56249 0.15946 0.0
H1797 H 0.98187 0.51722 0.15062 0.0
H1798 H 0.95396 0.54474 0.18653 0.0
O1799 O 0.98761 0.54718 0.13635 0.0
C1800 C 0.94077 0.57455 0.16881 0.0
O1801 O 0.95075 0.58715 0.1733 0.0
N1802 N 0.98172 0.57022 0.16142 0.0
C1803 C 0.00558 0.59014 0.17894 0.0
C1804 C 0.00542 0.58982 0.16119 0.0
C1805 C 0.99354 0.57971 0.15271 0.0
C1806 C 0.98164 0.57098 0.17882 0.0
C1807 C 0.99344 0.58068 0.18776 0.0
H1808 H 0.99433 0.57914 0.13901 0.0
H1809 H 0.97214 0.56477 0.18622 0.0
H1810 H 0.97107 0.55842 0.10806 0.0
H1811 H 0.9594 0.61006 0.11505 0.0
H1812 H 0.98023 0.49909 0.17876 0.0
H1813 H 0.0147 0.59696 0.15391 0.0
H1814 H 0.99286 0.58101 0.20153 0.0
C1815 C 0.66412 0.7094 0.38388 0.0
C1816 C 0.65579 0.70623 0.3689 0.0
N1817 N 0.66737 0.70223 0.35696 0.0
N1818 N 0.68112 0.70765 0.38167 0.0
C1819 C 0.68255 0.70267 0.3652 0.0
H1820 H 0.65788 0.71356 0.39536 0.0
Co1821 Co 0.69963 0.71234 0.39688 0.0
C1822 C 0.70781 0.73822 0.36899 0.0
O1823 O 0.70968 0.72652 0.35727 0.0
N1824 N 0.71861 0.71674 0.41184 0.0
C1825 C 0.73994 0.7305 0.42463 0.0
C1826 C 0.72954 0.72996 0.41058 0.0
C1827 C 0.72324 0.70912 0.42674 0.0
N1828 N 0.73588 0.71751 0.43502 0.0
O1829 O 0.69487 0.69029 0.40903 0.0
H1830 H 0.7297 0.73926 0.40048 0.0
H1831 H 0.71697 0.69798 0.43182 0.0
O1832 O 0.70452 0.73383 0.38433 0.0
C1833 C 0.6815 0.68422 0.41626 0.0
O1834 O 0.6675 0.69327 0.41685 0.0
N1835 N 0.68533 0.72537 0.41171 0.0
C1836 C 0.66575 0.74603 0.43291 0.0
C1837 C 0.66671 0.74937 0.41549 0.0
C1838 C 0.67663 0.73901 0.40517 0.0
C1839 C 0.68475 0.72231 0.42884 0.0
C1840 C 0.67497 0.73237 0.43961 0.0
H1841 H 0.67666 0.74169 0.3917 0.0
H1842 H 0.69145 0.71178 0.43441 0.0
H1843 H 0.69457 0.69966 0.35924 0.0
H1844 H 0.64228 0.70793 0.36676 0.0
H1845 H 0.74914 0.74037 0.42737 0.0
H1846 H 0.65957 0.75969 0.40978 0.0
H1847 H 0.67471 0.72951 0.45309 0.0
C1848 C 0.88141 0.56337 0.57072 0.0
C1849 C 0.89664 0.56363 0.57929 0.0
N1850 N 0.90255 0.54768 0.58028 0.0
N1851 N 0.87682 0.54719 0.56698 0.0
C1852 C 0.89068 0.538 0.57227 0.0
H1853 H 0.87453 0.57461 0.56682 0.0
Co1854 Co 0.85679 0.54214 0.55322 0.0
C1855 C 0.862 0.5072 0.54068 0.0
O1856 O 0.84545 0.50517 0.54213 0.0
N1857 N 0.83783 0.53841 0.53764 0.0
C1858 C 0.82741 0.53357 0.5115 0.0
C1859 C 0.84187 0.53577 0.52112 0.0
C1860 C 0.82036 0.53873 0.53733 0.0
N1861 N 0.81384 0.53553 0.52165 0.0
O1862 O 0.84495 0.56268 0.56206 0.0
H1863 H 0.85476 0.53526 0.51631 0.0
H1864 H 0.8123 0.54133 0.54807 0.0
O1865 O 0.86862 0.52169 0.54421 0.0
C1866 C 0.84324 0.56805 0.5774 0.0
O1867 O 0.85021 0.5595 0.59 0.0
N1868 N 0.84677 0.52828 0.57102 0.0
C1869 C 0.83203 0.50694 0.59547 0.0
C1870 C 0.84875 0.50433 0.59012 0.0
C1871 C 0.85589 0.51519 0.57808 0.0
C1872 C 0.83053 0.53114 0.57664 0.0
C1873 C 0.82294 0.52067 0.58876 0.0
H1874 H 0.8686 0.51239 0.57409 0.0
H1875 H 0.82332 0.54187 0.5723 0.0
H1876 H 0.89258 0.52466 0.56971 0.0
H1877 H 0.90332 0.57483 0.58372 0.0
H1878 H 0.82689 0.53082 0.49802 0.0
H1879 H 0.8563 0.49396 0.59519 0.0
H1880 H 0.80997 0.52322 0.59266 0.0
C1881 C 0.709 0.6145 0.83487 0.0
C1882 C 0.70928 0.62851 0.84517 0.0
N1883 N 0.71387 0.64201 0.83575 0.0
N1884 N 0.71351 0.61896 0.81889 0.0
C1885 C 0.71614 0.63598 0.8198 0.0
H1886 H 0.70667 0.60179 0.83925 0.0
Co1887 Co 0.71703 0.60446 0.80003 0.0
C1888 C 0.75213 0.614 0.78918 0.0
O1889 O 0.7561 0.59793 0.78692 0.0
N1890 N 0.71944 0.59054 0.78018 0.0
C1891 C 0.72631 0.58092 0.7543 0.0
C1892 C 0.7268 0.59467 0.76517 0.0
C1893 C 0.71304 0.5748 0.77722 0.0
N1894 N 0.71788 0.56826 0.76212 0.0
O1895 O 0.69627 0.59178 0.80622 0.0
H1896 H 0.73243 0.60685 0.76223 0.0
H1897 H 0.70486 0.56806 0.78596 0.0
O1898 O 0.73704 0.61814 0.79371 0.0
C1899 C 0.69091 0.58059 0.81679 0.0
O1900 O 0.70122 0.57396 0.82814 0.0
N1901 N 0.732 0.59011 0.81363 0.0
C1902 C 0.75334 0.57148 0.83527 0.0
C1903 C 0.75406 0.58918 0.83508 0.0
C1904 C 0.74331 0.59823 0.82422 0.0
C1905 C 0.73223 0.57271 0.81307 0.0
C1906 C 0.74251 0.56321 0.82394 0.0
H1907 H 0.74409 0.61192 0.82455 0.0
H1908 H 0.72368 0.56565 0.80531 0.0
H1909 H 0.72047 0.64364 0.80921 0.0
H1910 H 0.70678 0.62868 0.85872 0.0
H1911 H 0.73225 0.58014 0.74191 0.0
H1912 H 0.76248 0.596 0.8436 0.0
H1913 H 0.74178 0.54946 0.82367 0.0
C1914 C 0.64868 0.46592 0.09364 0.0
C1915 C 0.63455 0.46595 0.10395 0.0
N1916 N 0.62058 0.46724 0.09406 0.0
N1917 N 0.64369 0.46742 0.0773 0.0
C1918 C 0.62647 0.46791 0.07793 0.0
H1919 H 0.66177 0.46496 0.09779 0.0
Co1920 Co 0.65831 0.46839 0.05867 0.0
C1921 C 0.64154 0.49316 0.03472 0.0
O1922 O 0.65663 0.49687 0.02858 0.0
N1923 N 0.67338 0.46865 0.03961 0.0
C1924 C 0.68365 0.46191 0.01402 0.0
C1925 C 0.66929 0.46262 0.02405 0.0
C1926 C 0.69043 0.47133 0.03866 0.0
N1927 N 0.69705 0.46731 0.02327 0.0
O1928 O 0.65112 0.44566 0.05241 0.0
H1929 H 0.65671 0.45837 0.02042 0.0
H1930 H 0.69809 0.47564 0.04913 0.0
O1931 O 0.64016 0.48091 0.04553 0.0
C1932 C 0.66276 0.43655 0.05943 0.0
O1933 O 0.67533 0.44429 0.06723 0.0
N1934 N 0.66694 0.48888 0.06708 0.0
C1935 C 0.68053 0.51369 0.08818 0.0
C1936 C 0.66524 0.5167 0.07958 0.0
C1937 C 0.65836 0.50386 0.0694 0.0
C1938 C 0.68174 0.48592 0.07561 0.0
C1939 C 0.68892 0.49822 0.08596 0.0
H1940 H 0.64561 0.50556 0.06479 0.0
H1941 H 0.68746 0.47345 0.07534 0.0
H1942 H 0.6184 0.46904 0.06682 0.0
H1943 H 0.63456 0.46501 0.1177 0.0
H1944 H 0.6842 0.45701 1.00118 0.0
H1945 H 0.65812 0.52831 0.08169 0.0
H1946 H 0.70053 0.49534 0.09286 0.0
C1947 C 0.78614 0.38316 0.34767 0.0
C1948 C 0.78722 0.36713 0.35448 0.0
N1949 N 0.78711 0.35582 0.34173 0.0
N1950 N 0.78511 0.38233 0.33045 0.0
C1951 C 0.78604 0.36524 0.32732 0.0
H1952 H 0.78593 0.39462 0.35517 0.0
Co1953 Co 0.77979 0.40095 0.31471 0.0
C1954 C 0.76051 0.37947 0.30018 0.0
O1955 O 0.75277 0.38531 0.31378 0.0
N1956 N 0.77392 0.41886 0.29952 0.0
C1957 C 0.75668 0.43827 0.28815 0.0
C1958 C 0.75753 0.42283 0.29632 0.0
C1959 C 0.78289 0.43209 0.2928 0.0
N1960 N 0.7726 0.44416 0.28595 0.0
O1961 O 0.80413 0.40357 0.30858 0.0
H1962 H 0.74674 0.41557 0.30078 0.0
H1963 H 0.79651 0.43359 0.29417 0.0
O1964 O 0.7756 0.38466 0.29693 0.0
C1965 C 0.81725 0.40219 0.31819 0.0
O1966 O 0.81545 0.39854 0.33435 0.0
N1967 N 0.78095 0.41725 0.33199 0.0
C1968 C 0.77191 0.44529 0.3515 0.0
C1969 C 0.76176 0.43071 0.35147 0.0
C1970 C 0.7663 0.41702 0.34126 0.0
C1971 C 0.79142 0.43111 0.33246 0.0
C1972 C 0.78705 0.44538 0.34212 0.0
H1973 H 0.75761 0.40644 0.34002 0.0
H1974 H 0.80227 0.43199 0.32421 0.0
H1975 H 0.78501 0.35963 0.31482 0.0
H1976 H 0.78745 0.36396 0.36789 0.0
H1977 H 0.74516 0.44512 0.28491 0.0
H1978 H 0.74975 0.43041 0.35824 0.0
H1979 H 0.79492 0.45668 0.34156 0.0
C1980 C 0.87205 0.46669 0.91795 0.0
C1981 C 0.88738 0.46555 0.90979 0.0
N1982 N 0.89983 0.46477 0.92154 0.0
N1983 N 0.87451 0.46677 0.93497 0.0
C1984 C 0.89165 0.46537 0.93671 0.0
H1985 H 0.86006 0.46854 0.91155 0.0
Co1986 Co 0.8584 0.47 0.9527 0.0
C1987 C 0.88269 0.49586 0.9664 0.0
O1988 O 0.89196 0.48426 0.97408 0.0
N1989 N 0.84263 0.47309 0.97099 0.0
C1990 C 0.82924 0.48444 0.99331 0.0
C1991 C 0.84357 0.48503 0.98333 0.0
C1992 C 0.82766 0.46505 0.97426 0.0
N1993 N 0.81909 0.47201 0.98746 0.0
O1994 O 0.8481 0.44746 0.94734 0.0
H1995 H 0.85369 0.49415 0.98491 0.0
H1996 H 0.82284 0.4545 0.96688 0.0
O1997 O 0.86931 0.4915 0.95832 0.0
C1998 C 0.84091 0.44051 0.93444 0.0
O1999 O 0.83845 0.44927 0.92046 0.0
N2000 N 0.8435 0.48252 0.93772 0.0
C2001 C 0.82313 0.50233 0.91611 0.0
C2002 C 0.84031 0.50624 0.91857 0.0
C2003 C 0.85021 0.49623 0.92928 0.0
C2004 C 0.82654 0.47898 0.9359 0.0
C2005 C 0.81621 0.48855 0.92505 0.0
H2006 H 0.86356 0.49935 0.93023 0.0
H2007 H 0.82085 0.46827 0.94218 0.0
H2008 H 0.89802 0.46502 0.94889 0.0
H2009 H 0.88914 0.46622 0.89616 0.0
H2010 H 0.82614 0.49313 0.00352 0.0
H2011 H 0.8462 0.51697 0.91225 0.0
H2012 H 0.80302 0.4849 0.92341 0.0
C2013 C 0.80125 0.61659 0.17732 0.0
C2014 C 0.80356 0.63124 0.16825 0.0
N2015 N 0.79816 0.64447 0.17767 0.0
N2016 N 0.7943 0.62017 0.19262 0.0
C2017 C 0.79251 0.63741 0.19244 0.0
H2018 H 0.80389 0.60404 0.17257 0.0
Co2019 Co 0.78903 0.60342 0.20956 0.0
C2020 C 0.75321 0.60892 0.21837 0.0
O2021 O 0.75175 0.59228 0.21837 0.0
N2022 N 0.78522 0.58721 0.22773 0.0
C2023 C 0.77783 0.57803 0.25359 0.0
C2024 C 0.77856 0.5918 0.24287 0.0
C2025 C 0.78995 0.5707 0.23041 0.0
N2026 N 0.78485 0.5645 0.24575 0.0
O2027 O 0.81047 0.59182 0.20417 0.0
H2028 H 0.77439 0.60451 0.24604 0.0
H2029 H 0.79761 0.56348 0.2216 0.0
O2030 O 0.76775 0.61578 0.21544 0.0
C2031 C 0.81647 0.58073 0.1939 0.0
O2032 O 0.80666 0.57363 0.18243 0.0
N2033 N 0.77554 0.59083 0.19296 0.0
C2034 C 0.75221 0.57582 0.17047 0.0
C2035 C 0.75412 0.59341 0.17101 0.0
C2036 C 0.76562 0.6006 0.18233 0.0
C2037 C 0.77361 0.57353 0.19247 0.0
C2038 C 0.7622 0.56581 0.18128 0.0
H2039 H 0.76572 0.61428 0.18305 0.0
H2040 H 0.78101 0.56528 0.20029 0.0
H2041 H 0.78722 0.64462 0.2029 0.0
H2042 H 0.80841 0.63201 0.15539 0.0
H2043 H 0.7724 0.57818 0.26621 0.0
H2044 H 0.74629 0.60167 0.16322 0.0
H2045 H 0.76124 0.55207 0.1811 0.0
C2046 C 0.6319 0.55428 0.42304 0.0
C2047 C 0.61555 0.5561 0.417 0.0
N2048 N 0.60703 0.54153 0.41981 0.0
N2049 N 0.6339 0.53867 0.42994 0.0
C2050 C 0.61848 0.53109 0.42747 0.0
H2051 H 0.64166 0.56392 0.42256 0.0
Co2052 Co 0.65394 0.53109 0.44176 0.0
C2053 C 0.6369 0.50816 0.45693 0.0
O2054 O 0.64309 0.50214 0.44264 0.0
N2055 N 0.67392 0.52344 0.45352 0.0
C2056 C 0.69603 0.50637 0.45827 0.0
C2057 C 0.68094 0.50831 0.44966 0.0
C2058 C 0.68524 0.53058 0.46462 0.0
N2059 N 0.69892 0.52035 0.46777 0.0
O2060 O 0.65733 0.55437 0.44963 0.0
H2061 H 0.67581 0.4995 0.44044 0.0
H2062 H 0.68376 0.54319 0.46987 0.0
O2063 O 0.63989 0.52375 0.4607 0.0
C2064 C 0.65674 0.56666 0.46018 0.0
O2065 O 0.6506 0.56412 0.47551 0.0
N2066 N 0.66749 0.53581 0.42287 0.0
C2067 C 0.69347 0.52944 0.39986 0.0
C2068 C 0.67729 0.52233 0.3974 0.0
C2069 C 0.66444 0.52561 0.40921 0.0
C2070 C 0.68253 0.54441 0.42429 0.0
C2071 C 0.69572 0.5414 0.41285 0.0
H2072 H 0.6527 0.51845 0.40854 0.0
H2073 H 0.68526 0.55195 0.43543 0.0
H2074 H 0.61547 0.51833 0.43155 0.0
H2075 H 0.61034 0.56731 0.41091 0.0
H2076 H 0.70461 0.4957 0.45691 0.0
H2077 H 0.67514 0.51286 0.38763 0.0
H2078 H 0.70808 0.54707 0.41514 0.0
C2079 C 0.70322 0.39329 0.66691 0.0
C2080 C 0.70153 0.37896 0.65703 0.0
N2081 N 0.71185 0.36689 0.66344 0.0
N2082 N 0.71437 0.39015 0.67959 0.0
C2083 C 0.71953 0.37395 0.67705 0.0
H2084 H 0.69631 0.40507 0.66531 0.0
Co2085 Co 0.7182 0.40519 0.69737 0.0
C2086 C 0.74601 0.39002 0.71864 0.0
O2087 O 0.75068 0.40563 0.72224 0.0
N2088 N 0.72116 0.4209 0.71562 0.0
C2089 C 0.71803 0.43188 0.74157 0.0
C2090 C 0.71784 0.4172 0.73208 0.0
C2091 C 0.72302 0.43805 0.71549 0.0
N2092 N 0.72118 0.44507 0.73109 0.0
O2093 O 0.69676 0.39812 0.70738 0.0
H2094 H 0.71472 0.40465 0.73676 0.0
H2095 H 0.72486 0.44547 0.70414 0.0
O2096 O 0.73261 0.38759 0.70947 0.0
C2097 C 0.68654 0.4102 0.70332 0.0
O2098 O 0.6927 0.42329 0.69496 0.0
N2099 N 0.73722 0.41347 0.68582 0.0
C2100 C 0.76209 0.4303 0.66731 0.0
C2101 C 0.76534 0.41409 0.67394 0.0
C2102 C 0.7525 0.40566 0.68291 0.0
C2103 C 0.73334 0.42819 0.67761 0.0
C2104 C 0.74569 0.43708 0.66868 0.0
H2105 H 0.75486 0.39287 0.68714 0.0
H2106 H 0.72055 0.43322 0.67825 0.0
H2107 H 0.72807 0.36712 0.68539 0.0
H2108 H 0.69323 0.37742 0.64613 0.0
H2109 H 0.7151 0.43277 0.75498 0.0
H2110 H 0.77766 0.40809 0.67238 0.0
H2111 H 0.74241 0.44914 0.66286 0.0
C2112 C 0.58369 0.86647 0.55786 0.0
C2113 C 0.5919 0.8818 0.55869 0.0
N2114 N 0.58472 0.89234 0.5473 0.0
N2115 N 0.57169 0.86683 0.54546 0.0
C2116 C 0.57221 0.88317 0.53987 0.0
H2117 H 0.58632 0.85587 0.56617 0.0
Co2118 Co 0.55462 0.85016 0.54082 0.0
C2119 C 0.55933 0.86553 0.50652 0.0
O2120 O 0.57573 0.86301 0.50868 0.0
N2121 N 0.53625 0.83476 0.53743 0.0
C2122 C 0.51142 0.82446 0.52812 0.0
C2123 C 0.52167 0.83866 0.52911 0.0
C2124 C 0.53417 0.81823 0.54187 0.0
N2125 N 0.51935 0.81168 0.53627 0.0
O2126 O 0.56044 0.8387 0.5629 0.0
H2127 H 0.51874 0.851 0.52378 0.0
H2128 H 0.54341 0.81069 0.54848 0.0
O2129 O 0.54893 0.86181 0.51861 0.0
C2130 C 0.56771 0.82468 0.56725 0.0
O2131 O 0.57214 0.81354 0.55564 0.0
N2132 N 0.56997 0.83561 0.52831 0.0
C2133 C 0.59103 0.81556 0.508 0.0
C2134 C 0.59779 0.82455 0.52169 0.0
C2135 C 0.58705 0.83442 0.53173 0.0
C2136 C 0.56347 0.82702 0.51456 0.0
C2137 C 0.5737 0.81674 0.50446 0.0
H2138 H 0.59266 0.84055 0.54249 0.0
H2139 H 0.55038 0.82851 0.51072 0.0
H2140 H 0.56328 0.88849 0.53086 0.0
H2141 H 0.60198 0.88509 0.56749 0.0
H2142 H 0.49916 0.82357 0.52188 0.0
H2143 H 0.61122 0.82376 0.52473 0.0
H2144 H 0.56821 0.81015 0.49367 0.0
C2145 C 0.08598 0.6342 0.46471 0.0
C2146 C 0.0937 0.61884 0.46191 0.0
N2147 N 0.08164 0.60695 0.45978 0.0
N2148 N 0.06886 0.6323 0.46481 0.0
C2149 C 0.06668 0.61558 0.46077 0.0
H2150 H 0.0928 0.64566 0.46784 0.0
Co2151 Co 0.0515 0.64882 0.47054 0.0
C2152 C 0.04946 0.62278 0.50015 0.0
O2153 O 0.05891 0.61113 0.49297 0.0
N2154 N 0.03364 0.6652 0.47563 0.0
C2155 C 0.0157 0.68079 0.49124 0.0
C2156 C 0.02502 0.66605 0.49052 0.0
C2157 C 0.02858 0.67961 0.46726 0.0
N2158 N 0.018 0.68948 0.47671 0.0
O2159 O 0.05597 0.66015 0.44841 0.0
H2160 H 0.02605 0.65716 0.50092 0.0
H2161 H 0.03378 0.68362 0.45516 0.0
O2162 O 0.0464 0.63688 0.49252 0.0
C2163 C 0.06899 0.66735 0.4417 0.0
O2164 O 0.08312 0.66898 0.45045 0.0
N2165 N 0.0673 0.66289 0.48276 0.0
C2166 C 0.08763 0.68362 0.50339 0.0
C2167 C 0.08735 0.66598 0.50574 0.0
C2168 C 0.07697 0.65592 0.49548 0.0
C2169 C 0.06758 0.68011 0.48033 0.0
C2170 C 0.07757 0.69064 0.49046 0.0
H2171 H 0.07708 0.64239 0.49764 0.0
H2172 H 0.06028 0.68598 0.47036 0.0
H2173 H 0.05434 0.60946 0.4606 0.0
H2174 H 0.10722 0.61629 0.463 0.0
H2175 H 0.0085 0.68528 0.5021 0.0
H2176 H 0.09514 0.65991 0.51535 0.0
H2177 H 0.07716 0.70423 0.48829 0.0
C2178 C 0.61551 0.84094 0.71843 0.0
C2179 C 0.63059 0.84986 0.71854 0.0
N2180 N 0.64363 0.83873 0.71928 0.0
N2181 N 0.6188 0.82415 0.71929 0.0
C2182 C 0.63612 0.82317 0.71956 0.0
H2183 H 0.60288 0.84641 0.71787 0.0
Co2184 Co 0.60179 0.8069 0.71999 0.0
C2185 C 0.61447 0.78319 0.74659 0.0
O2186 O 0.5985 0.78002 0.75039 0.0
N2187 N 0.58455 0.78914 0.72008 0.0
C2188 C 0.57413 0.76294 0.71626 0.0
C2189 C 0.58847 0.77297 0.71578 0.0
C2190 C 0.56731 0.78854 0.72261 0.0
N2191 N 0.56071 0.77268 0.72053 0.0
O2192 O 0.60953 0.79878 0.69817 0.0
H2193 H 0.60114 0.76866 0.71252 0.0
H2194 H 0.55957 0.79936 0.72596 0.0
O2195 O 0.61781 0.79271 0.73373 0.0
C2196 C 0.60079 0.80842 0.68831 0.0
O2197 O 0.59027 0.81941 0.69522 0.0
N2198 N 0.59295 0.81691 0.73963 0.0
C2199 C 0.57924 0.83917 0.76338 0.0
C2200 C 0.59436 0.83047 0.76697 0.0
C2201 C 0.60133 0.81972 0.75464 0.0
C2202 C 0.57838 0.82556 0.736 0.0
C2203 C 0.57116 0.83656 0.74776 0.0
H2204 H 0.61392 0.81473 0.75678 0.0
H2205 H 0.57284 0.82471 0.72346 0.0
H2206 H 0.64309 0.81133 0.72029 0.0
H2207 H 0.63184 0.86355 0.71803 0.0
H2208 H 0.57358 0.7495 0.71336 0.0
H2209 H 0.60123 0.83277 0.7787 0.0
H2210 H 0.55965 0.84339 0.74443 0.0
C2211 C 0.41491 0.37128 0.95436 0.0
C2212 C 0.40686 0.38627 0.95049 0.0
N2213 N 0.41867 0.39857 0.94882 0.0
N2214 N 0.43184 0.37398 0.95568 0.0
C2215 C 0.43377 0.39048 0.95104 0.0
H2216 H 0.40853 0.35948 0.95719 0.0
Co2217 Co 0.44903 0.35825 0.96228 0.0
C2218 C 0.45294 0.38729 0.9891 0.0
O2219 O 0.44078 0.39701 0.98317 0.0
N2220 N 0.46688 0.3425 0.96786 0.0
C2221 C 0.48592 0.32815 0.9832 0.0
C2222 C 0.47604 0.34247 0.98241 0.0
C2223 C 0.47194 0.32801 0.95982 0.0
N2224 N 0.48329 0.31878 0.96909 0.0
O2225 O 0.44194 0.34407 0.94253 0.0
H2226 H 0.47507 0.35169 0.99249 0.0
H2227 H 0.46658 0.32378 0.94788 0.0
O2228 O 0.45648 0.37305 0.98189 0.0
C2229 C 0.42974 0.33388 0.93871 0.0
O2230 O 0.41799 0.33014 0.94994 0.0
N2231 N 0.43416 0.34685 0.97799 0.0
C2232 C 0.41541 0.33145 0.00398 0.0
C2233 C 0.41478 0.34902 1.0016 0.0
C2234 C 0.42433 0.35644 0.9887 0.0
C2235 C 0.43484 0.32961 0.98029 0.0
C2236 C 0.42553 0.32168 0.99311 0.0
H2237 H 0.42374 0.37004 0.98745 0.0
H2238 H 0.44224 0.32166 0.97197 0.0
H2239 H 0.44603 0.39676 0.95073 0.0
H2240 H 0.39321 0.38812 0.95033 0.0
H2241 H 0.4936 0.32452 0.99404 0.0
H2242 H 0.40725 0.35706 0.00988 0.0
H2243 H 0.42615 0.30797 0.99438 0.0
C2244 C 0.38578 0.66017 0.72202 0.0
C2245 C 0.3708 0.65148 0.72037 0.0
N2246 N 0.3578 0.66263 0.71964 0.0
N2247 N 0.38292 0.67714 0.72204 0.0
C2248 C 0.36555 0.67815 0.72047 0.0
H2249 H 0.39806 0.65407 0.72272 0.0
Co2250 Co 0.40027 0.69485 0.72607 0.0
C2251 C 0.37725 0.70849 0.74417 0.0
O2252 O 0.38404 0.6957 0.75249 0.0
N2253 N 0.41706 0.71184 0.73081 0.0
C2254 C 0.43396 0.72755 0.74735 0.0
C2255 C 0.41902 0.71844 0.74653 0.0
C2256 C 0.43114 0.71731 0.72221 0.0
N2257 N 0.44161 0.72694 0.73207 0.0
O2258 O 0.40289 0.69924 0.70116 0.0
H2259 H 0.41071 0.71584 0.75717 0.0
H2260 H 0.4343 0.71332 0.70943 0.0
O2261 O 0.3824 0.71155 0.72899 0.0
C2262 C 0.40139 0.68883 0.68868 0.0
O2263 O 0.39725 0.67296 0.6915 0.0
N2264 N 0.41771 0.67894 0.72635 0.0
C2265 C 0.44509 0.65926 0.73664 0.0
C2266 C 0.43149 0.66219 0.74764 0.0
C2267 C 0.41807 0.67223 0.74232 0.0
C2268 C 0.4308 0.67612 0.71524 0.0
C2269 C 0.44468 0.66601 0.72014 0.0
H2270 H 0.40795 0.67503 0.75115 0.0
H2271 H 0.43117 0.68233 0.70304 0.0
H2272 H 0.35865 0.69003 0.72036 0.0
H2273 H 0.36982 0.6378 0.71974 0.0
H2274 H 0.43929 0.73343 0.75861 0.0
H2275 H 0.4315 0.65715 0.76048 0.0
H2276 H 0.45526 0.66414 0.71151 0.0
C2277 C 0.92163 0.12976 0.05809 0.0
C2278 C 0.91469 0.11374 0.05914 0.0
N2279 N 0.92319 0.10365 0.04839 0.0
N2280 N 0.93419 0.13011 0.04624 0.0
C2281 C 0.93514 0.11359 0.04113 0.0
H2282 H 0.9178 0.14033 0.06595 0.0
Co2283 Co 0.95012 0.1483 0.04178 0.0
C2284 C 0.94888 0.13038 0.00865 0.0
O2285 O 0.93221 0.13157 0.00949 0.0
N2286 N 0.96734 0.16516 0.03882 0.0
C2287 C 0.99412 0.17452 0.03988 0.0
C2288 C 0.98374 0.16046 0.0407 0.0
C2289 C 0.96818 0.18233 0.03667 0.0
N2290 N 0.98433 0.18837 0.03743 0.0
O2291 O 0.94242 0.15982 0.06294 0.0
H2292 H 0.98786 0.14753 0.04297 0.0
H2293 H 0.95726 0.1904 0.03472 0.0
O2294 O 0.95813 0.13642 0.02072 0.0
C2295 C 0.93649 0.1746 0.06653 0.0
O2296 O 0.93491 0.1861 0.05455 0.0
N2297 N 0.93418 0.16098 0.02816 0.0
C2298 C 0.91223 0.1797 0.00742 0.0
C2299 C 0.90613 0.17176 0.02207 0.0
C2300 C 0.91734 0.16258 0.03235 0.0
C2301 C 0.94002 0.16831 0.01344 0.0
C2302 C 0.92934 0.17793 0.00307 0.0
H2303 H 0.91241 0.15739 0.04394 0.0
H2304 H 0.95311 0.16673 0.00952 0.0
H2305 H 0.94483 0.10856 0.03279 0.0
H2306 H 0.90423 0.10979 0.06719 0.0
H2307 H 0.00784 0.17451 0.04112 0.0
H2308 H 0.89292 0.17306 0.02582 0.0
H2309 H 0.93439 0.18382 0.99167 0.0
C2310 C 0.61338 0.16101 0.77338 0.0
C2311 C 0.62845 0.15218 0.77438 0.0
N2312 N 0.64049 0.16265 0.7805 0.0
N2313 N 0.61581 0.17715 0.77878 0.0
C2314 C 0.63258 0.17765 0.78314 0.0
H2315 H 0.60168 0.15598 0.76828 0.0
Co2316 Co 0.60049 0.19592 0.77703 0.0
C2317 C 0.62371 0.20724 0.75686 0.0
O2318 O 0.61414 0.19639 0.7485 0.0
N2319 N 0.58553 0.21459 0.77429 0.0
C2320 C 0.57175 0.23521 0.76061 0.0
C2321 C 0.58581 0.22488 0.76055 0.0
C2322 C 0.57098 0.21898 0.78254 0.0
N2323 N 0.56227 0.2315 0.77439 0.0
O2324 O 0.6009 0.19962 0.80241 0.0
H2325 H 0.59504 0.22428 0.75041 0.0
H2326 H 0.5665 0.21264 0.79389 0.0
O2327 O 0.61999 0.21051 0.77242 0.0
C2328 C 0.60414 0.18878 0.81428 0.0
O2329 O 0.60854 0.17322 0.81022 0.0
N2330 N 0.58143 0.18171 0.77866 0.0
C2331 C 0.55137 0.164 0.77305 0.0
C2332 C 0.56186 0.16848 0.75945 0.0
C2333 C 0.57675 0.17745 0.76253 0.0
C2334 C 0.57126 0.17751 0.79217 0.0
C2335 C 0.55617 0.16838 0.78961 0.0
H2336 H 0.5846 0.18131 0.75193 0.0
H2337 H 0.57403 0.18183 0.80484 0.0
H2338 H 0.63911 0.18902 0.78731 0.0
H2339 H 0.63059 0.13923 0.77024 0.0
H2340 H 0.56826 0.244 0.7506 0.0
H2341 H 0.55842 0.16529 0.74648 0.0
H2342 H 0.54804 0.16536 0.80032 0.0
C2343 C 0.88186 0.82392 0.31574 0.0
C2344 C 0.86635 0.83184 0.31716 0.0
N2345 N 0.85861 0.83142 0.30194 0.0
N2346 N 0.8846 0.81888 0.29948 0.0
C2347 C 0.86972 0.82324 0.29157 0.0
H2348 H 0.88997 0.821 0.32644 0.0
Co2349 Co 0.90293 0.80365 0.29297 0.0
C2350 C 0.89261 0.79299 0.25774 0.0
O2351 O 0.90859 0.79381 0.25289 0.0
N2352 N 0.92038 0.78673 0.28807 0.0
C2353 C 0.93202 0.76221 0.27941 0.0
C2354 C 0.91731 0.77165 0.28037 0.0
C2355 C 0.93696 0.7851 0.29321 0.0
N2356 N 0.94448 0.7707 0.28743 0.0
O2357 O 0.91695 0.81175 0.31246 0.0
H2358 H 0.905 0.76741 0.27597 0.0
H2359 H 0.94349 0.79408 0.30132 0.0
O2360 O 0.88867 0.79584 0.27335 0.0
C2361 C 0.9213 0.82696 0.31651 0.0
O2362 O 0.91596 0.83978 0.30718 0.0
N2363 N 0.91333 0.82032 0.27805 0.0
C2364 C 0.92865 0.84175 0.25408 0.0
C2365 C 0.91096 0.84035 0.25487 0.0
C2366 C 0.90359 0.82955 0.26688 0.0
C2367 C 0.93063 0.8225 0.27784 0.0
C2368 C 0.93851 0.83288 0.26588 0.0
H2369 H 0.89005 0.82816 0.26647 0.0
H2370 H 0.93862 0.81674 0.28719 0.0
H2371 H 0.86637 0.81936 0.27888 0.0
H2372 H 0.86092 0.83695 0.32873 0.0
H2373 H 0.93337 0.74983 0.27355 0.0
H2374 H 0.90291 0.84712 0.24594 0.0
H2375 H 0.95225 0.83416 0.26603 0.0
C2376 C 0.46008 0.41954 0.13769 0.0
C2377 C 0.46004 0.4104 0.12285 0.0
N2378 N 0.46558 0.42051 0.11019 0.0
N2379 N 0.46571 0.4355 0.13468 0.0
C2380 C 0.46877 0.43572 0.11768 0.0
H2381 H 0.45668 0.41445 0.14991 0.0
Co2382 Co 0.46893 0.45363 0.15039 0.0
C2383 C 0.50465 0.46391 0.14525 0.0
O2384 O 0.50591 0.46474 0.16191 0.0
N2385 N 0.47085 0.47303 0.1652 0.0
C2386 C 0.47704 0.49925 0.17419 0.0
C2387 C 0.47784 0.48809 0.16076 0.0
C2388 C 0.46428 0.47623 0.18089 0.0
N2389 N 0.46876 0.49166 0.18713 0.0
O2390 O 0.44735 0.44746 0.16179 0.0
H2391 H 0.48326 0.49092 0.14844 0.0
H2392 H 0.45623 0.46741 0.18766 0.0
O2393 O 0.49032 0.46005 0.13842 0.0
C2394 C 0.44211 0.43629 0.17246 0.0
O2395 O 0.45256 0.42473 0.17845 0.0
N2396 N 0.48269 0.43903 0.16498 0.0
C2397 C 0.50361 0.41722 0.18383 0.0
C2398 C 0.5037 0.41663 0.16611 0.0
C2399 C 0.49346 0.42784 0.15697 0.0
C2400 C 0.48317 0.43997 0.18239 0.0
C2401 C 0.49347 0.42922 0.19199 0.0
H2402 H 0.49452 0.42756 0.14329 0.0
H2403 H 0.47498 0.44811 0.18939 0.0
H2404 H 0.47356 0.44676 0.11101 0.0
H2405 H 0.45608 0.3973 0.12152 0.0
H2406 H 0.48219 0.51199 0.17427 0.0
H2407 H 0.5118 0.40775 0.15937 0.0
H2408 H 0.49305 0.42993 0.20576 0.0
C2409 C 0.33881 0.70687 0.88244 0.0
C2410 C 0.3466 0.70881 0.86691 0.0
N2411 N 0.33505 0.71476 0.85574 0.0
N2412 N 0.32236 0.71181 0.88128 0.0
C2413 C 0.3204 0.7162 0.86467 0.0
H2414 H 0.34513 0.70282 0.8939 0.0
Co2415 Co 0.30554 0.71372 0.89851 0.0
C2416 C 0.29312 0.74878 0.89483 0.0
O2417 O 0.29227 0.74916 0.91152 0.0
N2418 N 0.28719 0.71426 0.91466 0.0
C2419 C 0.26085 0.71844 0.92461 0.0
C2420 C 0.27133 0.71966 0.91065 0.0
C2421 C 0.28532 0.70815 0.93076 0.0
N2422 N 0.26978 0.71145 0.93742 0.0
O2423 O 0.31428 0.69256 0.90947 0.0
H2424 H 0.26756 0.72451 0.89833 0.0
H2425 H 0.29502 0.70108 0.9375 0.0
O2426 O 0.29693 0.7348 0.88732 0.0
C2427 C 0.32663 0.68883 0.91953 0.0
O2428 O 0.33752 0.7005 0.92435 0.0
N2429 N 0.32034 0.72859 0.91189 0.0
C2430 C 0.34 0.75309 0.92906 0.0
C2431 C 0.34028 0.75201 0.91132 0.0
C2432 C 0.33024 0.73998 0.90306 0.0
C2433 C 0.32005 0.72969 0.92928 0.0
C2434 C 0.32958 0.74177 0.938 0.0
H2435 H 0.33003 0.74051 0.88936 0.0
H2436 H 0.31311 0.72099 0.93692 0.0
H2437 H 0.30863 0.72103 0.85938 0.0
H2438 H 0.35984 0.70621 0.86409 0.0
H2439 H 0.24784 0.72291 0.92537 0.0
H2440 H 0.34811 0.76044 0.90375 0.0
H2441 H 0.32859 0.74222 0.95173 0.0
C2442 C 0.0314 0.59616 0.6515 0.0
C2443 C 0.03222 0.60616 0.63708 0.0
N2444 N 0.03571 0.59608 0.62365 0.0
N2445 N 0.03428 0.57983 0.64718 0.0
C2446 C 0.03717 0.58026 0.63024 0.0
H2447 H 0.0283 0.60041 0.66421 0.0
Co2448 Co 0.03306 0.56042 0.66112 0.0
C2449 C 0.02077 0.53852 0.62829 0.0
O2450 O 0.0333 0.53194 0.61941 0.0
N2451 N 0.03215 0.54069 0.67513 0.0
C2452 C 0.02692 0.51477 0.68536 0.0
C2453 C 0.02572 0.52522 0.67135 0.0
C2454 C 0.03731 0.53918 0.69157 0.0
N2455 N 0.03407 0.5236 0.69815 0.0
O2456 O 0.05705 0.55619 0.65676 0.0
H2457 H 0.01998 0.5217 0.65938 0.0
H2458 H 0.04293 0.5495 0.69873 0.0
O2459 O 0.02431 0.54743 0.64147 0.0
C2460 C 0.06457 0.56652 0.66694 0.0
O2461 O 0.05508 0.57576 0.67713 0.0
N2462 N 0.01073 0.56608 0.66689 0.0
C2463 C 0.98081 0.58134 0.67784 0.0
C2464 C 0.98375 0.57894 0.66045 0.0
C2465 C 0.99888 0.57122 0.65521 0.0
C2466 C 0.00791 0.56837 0.68382 0.0
C2467 C 0.99287 0.57556 0.68959 0.0
H2468 H 1.00158 0.5705 0.64175 0.0
H2469 H 0.01782 0.56585 0.69295 0.0
H2470 H 0.04017 0.56908 0.62284 0.0
H2471 H 0.02977 0.61969 0.63649 0.0
H2472 H 0.02215 0.50189 0.68629 0.0
H2473 H 0.97487 0.58373 0.65104 0.0
H2474 H 0.99135 0.5779 0.70309 0.0
C2475 C 0.1743 0.31024 0.38485 0.0
C2476 C 0.16658 0.31238 0.36933 0.0
N2477 N 0.1739 0.30168 0.35828 0.0
N2478 N 0.18632 0.29787 0.38399 0.0
C2479 C 0.18606 0.29343 0.36723 0.0
H2480 H 0.17116 0.31755 0.39602 0.0
Co2481 Co 0.20263 0.2921 0.40154 0.0
C2482 C 0.20056 0.25975 0.3818 0.0
O2483 O 0.18393 0.26079 0.38325 0.0
N2484 N 0.22002 0.28786 0.41811 0.0
C2485 C 0.24617 0.28285 0.42806 0.0
C2486 C 0.23626 0.28451 0.41366 0.0
C2487 C 0.2205 0.28832 0.43543 0.0
N2488 N 0.23625 0.28534 0.44181 0.0
O2489 O 0.19554 0.31271 0.41445 0.0
H2490 H 0.24069 0.28354 0.40067 0.0
H2491 H 0.20957 0.29026 0.44338 0.0
O2492 O 0.21006 0.27145 0.38821 0.0
C2493 C 0.18793 0.31601 0.42853 0.0
O2494 O 0.18326 0.30361 0.43868 0.0
N2495 N 0.18686 0.27783 0.41355 0.0
C2496 C 0.1652 0.25449 0.42935 0.0
C2497 C 0.15872 0.26954 0.42241 0.0
C2498 C 0.16975 0.28104 0.41458 0.0
C2499 C 0.19318 0.26301 0.42023 0.0
C2500 C 0.18264 0.2513 0.4282 0.0
H2501 H 0.16441 0.29265 0.40984 0.0
H2502 H 0.20645 0.2597 0.41888 0.0
H2503 H 0.19508 0.28491 0.36132 0.0
H2504 H 0.15628 0.32107 0.3664 0.0
H2505 H 0.25972 0.28036 0.42836 0.0
H2506 H 0.14529 0.27255 0.42327 0.0
H2507 H 0.1881 0.23961 0.43309 0.0
C2508 C 0.46168 0.59404 0.36306 0.0
C2509 C 0.4598 0.60299 0.37798 0.0
N2510 N 0.464 0.59271 0.39104 0.0
N2511 N 0.46693 0.57812 0.36665 0.0
C2512 C 0.46827 0.5777 0.38385 0.0
H2513 H 0.45889 0.59867 0.3504 0.0
Co2514 Co 0.46865 0.56078 0.35042 0.0
C2515 C 0.4939 0.53619 0.36494 0.0
O2516 O 0.4982 0.53251 0.34923 0.0
N2517 N 0.46945 0.54299 0.3338 0.0
C2518 C 0.46359 0.51756 0.32266 0.0
C2519 C 0.46439 0.52695 0.33737 0.0
C2520 C 0.4713 0.54299 0.31659 0.0
N2521 N 0.46784 0.52766 0.3095 0.0
O2522 O 0.44591 0.55351 0.35646 0.0
H2523 H 0.46097 0.52248 0.34993 0.0
H2524 H 0.4741 0.55415 0.30915 0.0
O2525 O 0.48115 0.5462 0.36754 0.0
C2526 C 0.43705 0.56141 0.3452 0.0
O2527 O 0.44504 0.57042 0.33363 0.0
N2528 N 0.48922 0.57023 0.34309 0.0
C2529 C 0.51453 0.59245 0.33234 0.0
C2530 C 0.51655 0.58325 0.34742 0.0
C2531 C 0.50345 0.57258 0.35287 0.0
C2532 C 0.48714 0.57931 0.32848 0.0
C2533 C 0.49973 0.59028 0.32272 0.0
H2534 H 0.50425 0.56754 0.36554 0.0
H2535 H 0.47507 0.57912 0.32192 0.0
H2536 H 0.47148 0.56643 0.39106 0.0
H2537 H 0.45549 0.61602 0.37919 0.0
H2538 H 0.45984 0.50436 0.32177 0.0
H2539 H 0.52753 0.58528 0.35553 0.0
H2540 H 0.49755 0.59764 0.31125 0.0
C2541 C 0.16444 0.70894 0.10736 0.0
C2542 C 0.1542 0.70644 0.12131 0.0
N2543 N 0.16358 0.70892 0.13548 0.0
N2544 N 0.1802 0.7131 0.11262 0.0
C2545 C 0.17934 0.71296 0.12983 0.0
H2546 H 0.16066 0.70771 0.09418 0.0
Co2547 Co 0.1985 0.7168 0.09804 0.0
C2548 C 0.21875 0.7441 0.1146 0.0
O2549 O 0.22236 0.74951 0.0992 0.0
N2550 N 0.21741 0.71975 0.08289 0.0
C2551 C 0.244 0.71672 0.07332 0.0
C2552 C 0.23375 0.717 0.08752 0.0
C2553 C 0.21814 0.72072 0.06563 0.0
N2554 N 0.23415 0.71893 0.05946 0.0
O2555 O 0.2078 0.69497 0.10459 0.0
H2556 H 0.23787 0.71447 0.10041 0.0
H2557 H 0.20717 0.72186 0.05752 0.0
O2558 O 0.21016 0.73028 0.11638 0.0
C2559 C 0.20228 0.68564 0.09239 0.0
O2560 O 0.19315 0.69291 0.0804 0.0
N2561 N 0.1875 0.73635 0.0901 0.0
C2562 C 0.164 0.75939 0.07695 0.0
C2563 C 0.17115 0.76203 0.09306 0.0
C2564 C 0.18261 0.75008 0.09961 0.0
C2565 C 0.18017 0.73349 0.07469 0.0
C2566 C 0.16889 0.74505 0.06764 0.0
H2567 H 0.18639 0.7513 0.11271 0.0
H2568 H 0.18202 0.7215 0.06834 0.0
H2569 H 0.19013 0.71534 0.13805 0.0
H2570 H 0.14083 0.70316 0.12098 0.0
H2571 H 0.25751 0.71403 0.07323 0.0
H2572 H 0.16716 0.77261 0.10091 0.0
H2573 H 0.16352 0.74235 0.05523 0.0
C2574 C 0.03487 0.40686 0.86887 0.0
C2575 C 0.0359 0.39893 0.88438 0.0
N2576 N 0.03677 0.41086 0.89654 0.0
N2577 N 0.03493 0.42398 0.87092 0.0
C2578 C 0.03655 0.42587 0.88812 0.0
H2579 H 0.03404 0.4002 0.85693 0.0
Co2580 Co 0.03014 0.44158 0.85402 0.0
C2581 C 0.01139 0.45423 0.87691 0.0
O2582 O 0.00337 0.44148 0.86968 0.0
N2583 N 0.02485 0.45877 0.83794 0.0
C2584 C 0.00866 0.47585 0.82211 0.0
C2585 C 0.00899 0.46503 0.83586 0.0
C2586 C 0.03398 0.46609 0.82521 0.0
N2587 N 0.02435 0.47639 0.81527 0.0
O2588 O 0.05486 0.44687 0.85199 0.0
H2589 H 0.99808 0.46138 0.84339 0.0
H2590 H 0.04733 0.46365 0.82293 0.0
O2591 O 0.02654 0.45771 0.87205 0.0
C2592 C 0.06727 0.43626 0.85177 0.0
O2593 O 0.06425 0.41995 0.85332 0.0
N2594 N 0.03074 0.42597 0.83596 0.0
C2595 C 0.0237 0.40666 0.80717 0.0
C2596 C 0.01273 0.4063 0.82116 0.0
C2597 C 0.01624 0.41647 0.83522 0.0
C2598 C 0.0415 0.4265 0.82232 0.0
C2599 C 0.03824 0.41686 0.80778 0.0
H2600 H 0.00718 0.41705 0.84555 0.0
H2601 H 0.05192 0.43528 0.82197 0.0
H2602 H 0.03659 0.43799 0.89459 0.0
H2603 H 0.03552 0.38534 0.8866 0.0
H2604 H 0.99749 0.48206 0.81693 0.0
H2605 H 1.00105 0.39898 0.82083 0.0
H2606 H 0.04661 0.41788 0.79687 0.0
C2607 C 0.33316 0.29747 0.62262 0.0
C2608 C 0.34046 0.30057 0.63816 0.0
N2609 N 0.3282 0.30047 0.65005 0.0
N2610 N 0.31625 0.29471 0.6245 0.0
C2611 C 0.31356 0.29776 0.64132 0.0
H2612 H 0.34022 0.29584 0.611 0.0
Co2613 Co 0.30046 0.28745 0.60718 0.0
C2614 C 0.29593 0.25864 0.63406 0.0
O2615 O 0.30253 0.26623 0.6473 0.0
N2616 N 0.28423 0.281 0.58983 0.0
C2617 C 0.26857 0.26428 0.57301 0.0
C2618 C 0.27684 0.26552 0.58834 0.0
C2619 C 0.27955 0.28913 0.57518 0.0
N2620 N 0.27037 0.27904 0.5646 0.0
O2621 O 0.30525 0.30879 0.59508 0.0
H2622 H 0.27809 0.25517 0.59724 0.0
H2623 H 0.28413 0.30159 0.57157 0.0
O2624 O 0.29506 0.26618 0.61964 0.0
C2625 C 0.31744 0.31527 0.58644 0.0
O2626 O 0.33128 0.30646 0.58339 0.0
N2627 N 0.31775 0.27469 0.59558 0.0
C2628 C 0.34004 0.25203 0.57975 0.0
C2629 C 0.3391 0.25279 0.59744 0.0
C2630 C 0.32771 0.26396 0.60507 0.0
C2631 C 0.31876 0.27412 0.5782 0.0
C2632 C 0.32978 0.26287 0.57004 0.0
H2633 H 0.32688 0.2638 0.61877 0.0
H2634 H 0.31119 0.28246 0.57039 0.0
H2635 H 0.3012 0.29676 0.64732 0.0
H2636 H 0.35399 0.30122 0.64074 0.0
H2637 H 0.26243 0.25302 0.56801 0.0
H2638 H 0.3467 0.24441 0.60535 0.0
H2639 H 0.3303 0.26267 0.55627 0.0
C2640 C 0.14078 0.45868 0.41445 0.0
C2641 C 0.1262 0.4567 0.40494 0.0
N2642 N 0.11287 0.462 0.4143 0.0
N2643 N 0.1367 0.4651 0.42982 0.0
C2644 C 0.11955 0.467 0.42934 0.0
H2645 H 0.15355 0.45531 0.41057 0.0
Co2646 Co 0.15246 0.46802 0.44746 0.0
C2647 C 0.13717 0.49489 0.46969 0.0
O2648 O 0.1527 0.49945 0.47388 0.0
N2649 N 0.16886 0.4701 0.46549 0.0
C2650 C 0.18017 0.46616 0.49126 0.0
C2651 C 0.16537 0.46625 0.48187 0.0
C2652 C 0.1861 0.47195 0.46531 0.0
N2653 N 0.19333 0.46968 0.48084 0.0
O2654 O 0.14559 0.44632 0.4566 0.0
H2655 H 0.15285 0.46305 0.4866 0.0
H2656 H 0.19341 0.4743 0.45398 0.0
O2657 O 0.13506 0.4816 0.46039 0.0
C2658 C 0.15636 0.43624 0.44969 0.0
O2659 O 0.1686 0.44283 0.44041 0.0
N2660 N 0.16026 0.4876 0.43654 0.0
C2661 C 0.17191 0.5115 0.41325 0.0
C2662 C 0.1567 0.51424 0.42203 0.0
C2663 C 0.15081 0.50184 0.43324 0.0
C2664 C 0.17487 0.48466 0.42771 0.0
C2665 C 0.18112 0.49657 0.41626 0.0
H2666 H 0.13808 0.5032 0.43799 0.0
H2667 H 0.18113 0.47248 0.4287 0.0
H2668 H 0.11197 0.47127 0.43999 0.0
H2669 H 0.12543 0.45169 0.39213 0.0
H2670 H 0.18115 0.46291 0.5046 0.0
H2671 H 0.14886 0.52526 0.41936 0.0
H2672 H 0.19272 0.49382 0.40933 0.0
C2673 C 0.30562 0.37665 0.17766 0.0
C2674 C 0.30621 0.36083 0.17032 0.0
N2675 N 0.29549 0.35056 0.17872 0.0
N2676 N 0.2946 0.37669 0.1909 0.0
C2677 C 0.2886 0.36038 0.19114 0.0
H2678 H 0.31311 0.3872 0.17335 0.0
Co2679 Co 0.28979 0.39501 0.20671 0.0
C2680 C 0.25296 0.39127 0.21333 0.0
O2681 O 0.2518 0.40788 0.21183 0.0
N2682 N 0.28604 0.41231 0.22407 0.0
C2683 C 0.27698 0.42387 0.24845 0.0
C2684 C 0.27707 0.40952 0.23848 0.0
C2685 C 0.29264 0.42817 0.22668 0.0
N2686 N 0.28663 0.43585 0.24095 0.0
O2687 O 0.31207 0.40572 0.20158 0.0
H2688 H 0.27094 0.39767 0.24177 0.0
H2689 H 0.30205 0.43395 0.21847 0.0
O2690 O 0.2676 0.3841 0.21217 0.0
C2691 C 0.31807 0.41491 0.18949 0.0
O2692 O 0.30885 0.41808 0.17592 0.0
N2693 N 0.27806 0.40784 0.18912 0.0
C2694 C 0.25737 0.42513 0.16581 0.0
C2695 C 0.25806 0.40741 0.16574 0.0
C2696 C 0.26835 0.39902 0.17757 0.0
C2697 C 0.27771 0.42525 0.18871 0.0
C2698 C 0.26751 0.43406 0.17727 0.0
H2699 H 0.26763 0.38535 0.17791 0.0
H2700 H 0.28577 0.43274 0.19656 0.0
H2701 H 0.27961 0.35567 0.20044 0.0
H2702 H 0.31393 0.35714 0.15952 0.0
H2703 H 0.27008 0.42529 0.26026 0.0
H2704 H 0.25019 0.40009 0.15712 0.0
H2705 H 0.26763 0.44784 0.17736 0.0
C2706 C 0.35576 0.54091 0.91229 0.0
C2707 C 0.36903 0.5418 0.9009 0.0
N2708 N 0.38379 0.54122 0.90967 0.0
N2709 N 0.36209 0.53959 0.92818 0.0
C2710 C 0.37918 0.5401 0.92619 0.0
H2711 H 0.34234 0.54081 0.90919 0.0
Co2712 Co 0.34939 0.53669 0.94813 0.0
C2713 C 0.38158 0.51937 0.96496 0.0
O2714 O 0.39131 0.53169 0.97066 0.0
N2715 N 0.3365 0.5338 0.96826 0.0
C2716 C 0.324 0.52108 0.99025 0.0
C2717 C 0.33813 0.52128 0.97993 0.0
C2718 C 0.32142 0.54129 0.97209 0.0
N2719 N 0.3135 0.53366 0.98529 0.0
O2720 O 0.35806 0.55796 0.95625 0.0
H2721 H 0.34814 0.51188 0.98011 0.0
H2722 H 0.31545 0.55088 0.96423 0.0
O2723 O 0.36762 0.52287 0.95745 0.0
C2724 C 0.3477 0.56824 0.94897 0.0
O2725 O 0.33493 0.56186 0.94025 0.0
N2726 N 0.33961 0.51725 0.93894 0.0
C2727 C 0.32278 0.49341 0.91915 0.0
C2728 C 0.34031 0.49187 0.92206 0.0
C2729 C 0.34858 0.50412 0.93193 0.0
C2730 C 0.3225 0.51854 0.93659 0.0
C2731 C 0.31378 0.50656 0.92709 0.0
H2732 H 0.3623 0.50376 0.9328 0.0
H2733 H 0.31567 0.52952 0.94113 0.0
H2734 H 0.38813 0.53918 0.93659 0.0
H2735 H 0.36788 0.54269 0.88721 0.0
H2736 H 0.32102 0.51159 0.99978 0.0
H2737 H 0.3477 0.48205 0.91584 0.0
H2738 H 0.30021 0.50814 0.92516 0.0
C2739 C 0.21872 0.60289 0.65653 0.0
C2740 C 0.21766 0.61657 0.64566 0.0
N2741 N 0.21652 0.63092 0.655 0.0
N2742 N 0.21832 0.6085 0.6727 0.0
C2743 C 0.21673 0.6256 0.67136 0.0
H2744 H 0.22004 0.58969 0.65292 0.0
Co2745 Co 0.22042 0.59493 0.69218 0.0
C2746 C 0.23367 0.62796 0.71306 0.0
O2747 O 0.22142 0.63768 0.71893 0.0
N2748 N 0.2222 0.58112 0.71196 0.0
C2749 C 0.22944 0.57015 0.73709 0.0
C2750 C 0.23053 0.58421 0.72667 0.0
C2751 C 0.21607 0.56512 0.71388 0.0
N2752 N 0.22044 0.55805 0.72897 0.0
O2753 O 0.1966 0.59931 0.69735 0.0
H2754 H 0.23746 0.5957 0.72957 0.0
H2755 H 0.20896 0.55853 0.70415 0.0
O2756 O 0.22973 0.61462 0.70459 0.0
C2757 C 0.18895 0.58755 0.68897 0.0
O2758 O 0.19832 0.57704 0.67996 0.0
N2759 N 0.24246 0.58895 0.68566 0.0
C2760 C 0.27187 0.57721 0.66994 0.0
C2761 C 0.2693 0.59469 0.67222 0.0
C2762 C 0.25444 0.60034 0.68023 0.0
C2763 C 0.24487 0.57196 0.6834 0.0
C2764 C 0.25966 0.5658 0.67597 0.0
H2765 H 0.25207 0.61384 0.68107 0.0
H2766 H 0.23485 0.56308 0.68633 0.0
H2767 H 0.21621 0.63404 0.68218 0.0
H2768 H 0.21782 0.61593 0.63191 0.0
H2769 H 0.23547 0.56871 0.7494 0.0
H2770 H 0.27832 0.60384 0.66726 0.0
H2771 H 0.26092 0.55225 0.6738 0.0
C2772 C 0.14152 0.54396 0.09225 0.0
C2773 C 0.12604 0.5469 0.09973 0.0
N2774 N 0.11426 0.5479 0.08741 0.0
N2775 N 0.13955 0.54283 0.07517 0.0
C2776 C 0.1227 0.54544 0.0727 0.0
H2777 H 0.15298 0.54118 0.09922 0.0
Co2778 Co 0.15502 0.5373 0.05765 0.0
C2779 C 0.12804 0.51316 0.04374 0.0
O2780 O 0.1199 0.52487 0.03501 0.0
N2781 N 0.17006 0.53209 0.03939 0.0
C2782 C 0.18433 0.51693 0.02023 0.0
C2783 C 0.17072 0.51706 0.0311 0.0
C2784 C 0.18346 0.54097 0.03302 0.0
N2785 N 0.19255 0.53189 0.02149 0.0
O2786 O 0.1685 0.55819 0.0635 0.0
H2787 H 0.1626 0.50625 0.03343 0.0
H2788 H 0.18707 0.55347 0.03745 0.0
O2789 O 0.1413 0.51715 0.05224 0.0
C2790 C 0.17691 0.56276 0.07679 0.0
O2791 O 0.17893 0.55211 0.08946 0.0
N2792 N 0.16811 0.52296 0.07224 0.0
C2793 C 0.18649 0.49969 0.0917 0.0
C2794 C 0.16871 0.4997 0.09206 0.0
C2795 C 0.15978 0.51125 0.08207 0.0
C2796 C 0.18553 0.5228 0.07156 0.0
C2797 C 0.19495 0.51129 0.08123 0.0
H2798 H 0.14603 0.51072 0.08232 0.0
H2799 H 0.19235 0.53188 0.06389 0.0
H2800 H 0.11653 0.54459 0.06045 0.0
H2801 H 0.12339 0.54685 0.11325 0.0
H2802 H 0.1885 0.50606 0.01291 0.0
H2803 H 0.16175 0.49068 0.09982 0.0
H2804 H 0.20873 0.51169 0.08075 0.0
C2805 C 0.20066 0.38327 0.83427 0.0
C2806 C 0.20084 0.36824 0.84306 0.0
N2807 N 0.20821 0.35637 0.83327 0.0
N2808 N 0.20813 0.38117 0.8189 0.0
C2809 C 0.21234 0.36439 0.81861 0.0
H2810 H 0.19603 0.395 0.83942 0.0
Co2811 Co 0.21272 0.39798 0.80198 0.0
C2812 C 0.24856 0.39193 0.79276 0.0
O2813 O 0.25009 0.40856 0.79216 0.0
N2814 N 0.21583 0.41386 0.78364 0.0
C2815 C 0.22225 0.42388 0.7578 0.0
C2816 C 0.22272 0.40993 0.76838 0.0
C2817 C 0.2098 0.4299 0.78122 0.0
N2818 N 0.2143 0.4366 0.76601 0.0
O2819 O 0.19168 0.41055 0.80878 0.0
H2820 H 0.22785 0.39763 0.76502 0.0
H2821 H 0.20201 0.43661 0.79035 0.0
O2822 O 0.23383 0.38528 0.79528 0.0
C2823 C 0.18771 0.42094 0.82077 0.0
O2824 O 0.19894 0.42492 0.83246 0.0
N2825 N 0.22713 0.41055 0.8178 0.0
C2826 C 0.25022 0.42647 0.8399 0.0
C2827 C 0.24816 0.40886 0.84021 0.0
C2828 C 0.2368 0.40119 0.82899 0.0
C2829 C 0.22951 0.42779 0.81723 0.0
C2830 C 0.24088 0.43591 0.82806 0.0
H2831 H 0.23645 0.38751 0.82903 0.0
H2832 H 0.22232 0.43581 0.80903 0.0
H2833 H 0.21912 0.35838 0.80825 0.0
H2834 H 0.19643 0.36628 0.85597 0.0
H2835 H 0.22768 0.42463 0.74518 0.0
H2836 H 0.25524 0.40099 0.84905 0.0
H2837 H 0.24232 0.44957 0.82708 0.0
C2838 C 0.37067 0.45293 0.58157 0.0
C2839 C 0.38527 0.45292 0.59112 0.0
N2840 N 0.39791 0.45961 0.58177 0.0
N2841 N 0.37379 0.45973 0.56608 0.0
C2842 C 0.39074 0.46344 0.56652 0.0
H2843 H 0.35837 0.44927 0.58631 0.0
Co2844 Co 0.35693 0.46501 0.54921 0.0
C2845 C 0.36602 0.49975 0.53807 0.0
O2846 O 0.34978 0.50374 0.53755 0.0
N2847 N 0.34052 0.46898 0.53132 0.0
C2848 C 0.32959 0.47545 0.5058 0.0
C2849 C 0.3441 0.47521 0.51568 0.0
C2850 C 0.32392 0.46416 0.52988 0.0
N2851 N 0.31675 0.46865 0.51486 0.0
O2852 O 0.344 0.44478 0.55596 0.0
H2853 H 0.35657 0.47929 0.51154 0.0
H2854 H 0.31721 0.45689 0.53942 0.0
O2855 O 0.37063 0.48463 0.54195 0.0
C2856 C 0.333 0.43953 0.56675 0.0
O2857 O 0.32713 0.4498 0.57851 0.0
N2858 N 0.3455 0.48021 0.56522 0.0
C2859 C 0.33215 0.5046 0.58765 0.0
C2860 C 0.34965 0.50206 0.58645 0.0
C2861 C 0.35601 0.49008 0.57511 0.0
C2862 C 0.32828 0.48284 0.56629 0.0
C2863 C 0.32138 0.49491 0.57736 0.0
H2864 H 0.36965 0.48935 0.57402 0.0
H2865 H 0.31943 0.47547 0.55913 0.0
H2866 H 0.39741 0.46992 0.55637 0.0
H2867 H 0.38634 0.44904 0.6043 0.0
H2868 H 0.3286 0.48043 0.493 0.0
H2869 H 0.35846 0.5096 0.5939 0.0
H2870 H 0.30769 0.49644 0.57805 0.0
C2871 C 0.29059 0.61062 0.34496 0.0
C2872 C 0.29076 0.625 0.35489 0.0
N2873 N 0.28965 0.63876 0.34469 0.0
N2874 N 0.28927 0.61513 0.32849 0.0
C2875 C 0.28894 0.6324 0.32867 0.0
H2876 H 0.29134 0.59764 0.34945 0.0
Co2877 Co 0.28855 0.59937 0.31055 0.0
C2878 C 0.26414 0.61465 0.28587 0.0
O2879 O 0.25993 0.59897 0.28195 0.0
N2880 N 0.28872 0.58301 0.29207 0.0
C2881 C 0.29444 0.57264 0.26621 0.0
C2882 C 0.2935 0.58708 0.27607 0.0
C2883 C 0.28748 0.5657 0.29158 0.0
N2884 N 0.29069 0.55904 0.27595 0.0
O2885 O 0.31166 0.60541 0.30474 0.0
H2886 H 0.29646 0.59983 0.27186 0.0
H2887 H 0.28523 0.55788 0.30257 0.0
O2888 O 0.27693 0.61709 0.29589 0.0
C2889 C 0.31995 0.59391 0.31287 0.0
O2890 O 0.31134 0.58242 0.32141 0.0
N2891 N 0.26731 0.59205 0.3184 0.0
C2892 C 0.23822 0.57895 0.33345 0.0
C2893 C 0.23853 0.59584 0.32794 0.0
C2894 C 0.25341 0.60229 0.32074 0.0
C2895 C 0.26765 0.57628 0.32547 0.0
C2896 C 0.25308 0.56921 0.33249 0.0
H2897 H 0.25394 0.61565 0.3178 0.0
H2898 H 0.27951 0.56946 0.32648 0.0
H2899 H 0.28794 0.64014 0.31734 0.0
H2900 H 0.2918 0.62526 0.36862 0.0
H2901 H 0.29788 0.57233 0.2529 0.0
H2902 H 0.22753 0.60401 0.32947 0.0
H2903 H 0.25365 0.55651 0.33784 0.0
C2904 C 0.41129 0.13978 0.46684 0.0
C2905 C 0.40204 0.12497 0.4678 0.0
N2906 N 0.41291 0.11187 0.46992 0.0
N2907 N 0.42799 0.1362 0.46853 0.0
C2908 C 0.42862 0.11901 0.47017 0.0
H2909 H 0.40615 0.15245 0.46529 0.0
Co2910 Co 0.44515 0.15292 0.46905 0.0
C2911 C 0.4697 0.14094 0.49512 0.0
O2912 O 0.47256 0.15703 0.49849 0.0
N2913 N 0.46279 0.17001 0.46883 0.0
C2914 C 0.48845 0.18091 0.46326 0.0
C2915 C 0.47888 0.16631 0.46396 0.0
C2916 C 0.46298 0.18725 0.47063 0.0
N2917 N 0.47847 0.19419 0.4674 0.0
O2918 O 0.45313 0.1455 0.44702 0.0
H2919 H 0.48337 0.15367 0.46094 0.0
H2920 H 0.45194 0.19482 0.47354 0.0
O2921 O 0.45981 0.13704 0.48266 0.0
C2922 C 0.44528 0.15624 0.43756 0.0
O2923 O 0.43437 0.16664 0.4448 0.0
N2924 N 0.43548 0.1616 0.48897 0.0
C2925 C 0.41676 0.17643 0.51488 0.0
C2926 C 0.42426 0.16052 0.51736 0.0
C2927 C 0.43333 0.1531 0.50401 0.0
C2928 C 0.42706 0.17647 0.48614 0.0
C2929 C 0.418 0.18437 0.49906 0.0
H2930 H 0.43781 0.14026 0.50555 0.0
H2931 H 0.42688 0.18198 0.47356 0.0
H2932 H 0.44028 0.11191 0.47201 0.0
H2933 H 0.38832 0.12393 0.46703 0.0
H2934 H 0.50179 0.18158 0.45989 0.0
H2935 H 0.42267 0.15372 0.52925 0.0
H2936 H 0.41156 0.1963 0.49657 0.0
C2937 C 0.9215 0.3677 0.5545 0.0
C2938 C 0.91136 0.38187 0.5551 0.0
N2939 N 0.91995 0.39496 0.54818 0.0
N2940 N 0.93652 0.37167 0.54714 0.0
C2941 C 0.9353 0.38855 0.5437 0.0
H2942 H 0.91766 0.3551 0.55837 0.0
Co2943 Co 0.95401 0.35602 0.54193 0.0
C2944 C 0.96361 0.36404 0.50626 0.0
O2945 O 0.9641 0.34756 0.50361 0.0
N2946 N 0.97276 0.34088 0.53823 0.0
C2947 C 0.99847 0.33095 0.53104 0.0
C2948 C 0.98797 0.345 0.53128 0.0
C2949 C 0.97516 0.32464 0.54358 0.0
N2950 N 0.99019 0.31802 0.53856 0.0
O2951 O 0.94785 0.3433 0.56306 0.0
H2952 H 0.99129 0.35745 0.52648 0.0
H2953 H 0.96605 0.31757 0.55099 0.0
O2954 O 0.96029 0.36965 0.52125 0.0
C2955 C 0.93965 0.33011 0.56813 0.0
O2956 O 0.93211 0.3201 0.55717 0.0
N2957 N 0.9384 0.34329 0.52717 0.0
C2958 C 0.91684 0.32839 0.50283 0.0
C2959 C 0.91615 0.34578 0.50599 0.0
C2960 C 0.92714 0.35295 0.51785 0.0
C2961 C 0.93929 0.32621 0.52371 0.0
C2962 C 0.92861 0.31855 0.51178 0.0
H2963 H 0.92703 0.3666 0.51865 0.0
H2964 H 0.94808 0.31799 0.52991 0.0
H2965 H 0.94505 0.39573 0.53714 0.0
H2966 H 0.89842 0.38237 0.5598 0.0
H2967 H 0.01098 0.33021 0.52532 0.0
H2968 H 0.90762 0.35395 0.49885 0.0
H2969 H 0.92958 0.30499 0.5096 0.0
C2970 C 0.38834 0.17077 0.30382 0.0
C2971 C 0.37294 0.16262 0.30378 0.0
N2972 N 0.36134 0.17304 0.29684 0.0
N2973 N 0.38672 0.18636 0.29666 0.0
C2974 C 0.36987 0.18741 0.29277 0.0
H2975 H 0.39998 0.16497 0.30795 0.0
Co2976 Co 0.40429 0.20243 0.29171 0.0
C2977 C 0.39578 0.2139 0.25643 0.0
O2978 O 0.41208 0.21344 0.25278 0.0
N2979 N 0.42119 0.2198 0.28828 0.0
C2980 C 0.4331 0.24496 0.28239 0.0
C2981 C 0.4184 0.23543 0.28163 0.0
C2982 C 0.43741 0.22088 0.29427 0.0
N2983 N 0.4452 0.23568 0.29019 0.0
O2984 O 0.4174 0.1941 0.31191 0.0
H2985 H 0.40634 0.23986 0.2767 0.0
H2986 H 0.44349 0.21103 0.30171 0.0
O2987 O 0.39076 0.21064 0.27165 0.0
C2988 C 0.42723 0.18143 0.31515 0.0
O2989 O 0.43045 0.17013 0.30332 0.0
N2990 N 0.41516 0.1866 0.27614 0.0
C2991 C 0.42806 0.16598 0.25011 0.0
C2992 C 0.41073 0.16602 0.25379 0.0
C2993 C 0.40456 0.17647 0.26662 0.0
C2994 C 0.43226 0.18632 0.27268 0.0
C2995 C 0.43893 0.17614 0.25981 0.0
H2996 H 0.39095 0.177 0.26798 0.0
H2997 H 0.4412 0.19344 0.27997 0.0
H2998 H 0.36416 0.19803 0.28611 0.0
H2999 H 0.37059 0.14965 0.30775 0.0
H3000 H 0.43474 0.25767 0.27738 0.0
H3001 H 0.40185 0.15859 0.24632 0.0
H3002 H 0.45254 0.17618 0.25755 0.0
C3003 C 0.57798 0.62778 0.06139 0.0
C3004 C 0.58543 0.61201 0.06175 0.0
N3005 N 0.58274 0.60437 0.04673 0.0
N3006 N 0.57077 0.63075 0.046 0.0
C3007 C 0.57373 0.61587 0.03744 0.0
H3008 H 0.57687 0.63576 0.07244 0.0
Co3009 Co 0.55507 0.64935 0.04112 0.0
C3010 C 0.54561 0.64368 0.00546 0.0
O3011 O 0.54652 0.66026 0.00352 0.0
N3012 N 0.53765 0.66674 0.03763 0.0
C3013 C 0.51202 0.67734 0.03078 0.0
C3014 C 0.52224 0.66313 0.03081 0.0
C3015 C 0.53563 0.68315 0.04301 0.0
N3016 N 0.52052 0.69011 0.03829 0.0
O3017 O 0.56243 0.66152 0.06193 0.0
H3018 H 0.51843 0.65075 0.02622 0.0
H3019 H 0.54452 0.68975 0.05114 0.0
O3020 O 0.54771 0.63722 0.02029 0.0
C3021 C 0.57677 0.66794 0.06643 0.0
O3022 O 0.59029 0.66598 0.0568 0.0
N3023 N 0.57194 0.66129 0.02747 0.0
C3024 C 0.59445 0.67856 0.00571 0.0
C3025 C 0.59324 0.66082 0.00527 0.0
C3026 C 0.582 0.65246 0.01626 0.0
C3027 C 0.57348 0.67859 0.02813 0.0
C3028 C 0.58439 0.68739 0.01739 0.0
H3029 H 0.58099 0.6389 0.01511 0.0
H3030 H 0.56703 0.68591 0.03748 0.0
H3031 H 0.56855 0.61305 0.025 0.0
H3032 H 0.59179 0.60633 0.07258 0.0
H3033 H 0.49932 0.67819 0.02548 0.0
H3034 H 0.60087 0.65342 0.99651 0.0
H3035 H 0.5848 0.70112 0.01825 0.0
C3036 C 0.62153 0.33595 0.28637 0.0
C3037 C 0.63663 0.34449 0.28628 0.0
N3038 N 0.64947 0.33316 0.28702 0.0
N3039 N 0.62433 0.31902 0.28716 0.0
C3040 C 0.64159 0.31778 0.28777 0.0
H3041 H 0.6094 0.34206 0.28457 0.0
Co3042 Co 0.60808 0.30095 0.28565 0.0
C3043 C 0.63136 0.28598 0.25962 0.0
O3044 O 0.64137 0.27906 0.27109 0.0
N3045 N 0.59216 0.28247 0.28431 0.0
C3046 C 0.5778 0.26003 0.27447 0.0
C3047 C 0.5923 0.26967 0.27282 0.0
C3048 C 0.57754 0.27977 0.2932 0.0
N3049 N 0.56834 0.26655 0.28712 0.0
O3050 O 0.59851 0.30765 0.30797 0.0
H3051 H 0.60188 0.26766 0.26322 0.0
H3052 H 0.57329 0.28769 0.3036 0.0
O3053 O 0.61813 0.29411 0.26425 0.0
C3054 C 0.5916 0.321 0.31426 0.0
O3055 O 0.58899 0.3344 0.30469 0.0
N3056 N 0.59268 0.31503 0.27278 0.0
C3057 C 0.57184 0.33614 0.25328 0.0
C3058 C 0.58885 0.33378 0.24887 0.0
C3059 C 0.59896 0.32302 0.25859 0.0
C3060 C 0.5758 0.31683 0.27675 0.0
C3061 C 0.56516 0.3273 0.26715 0.0
H3062 H 0.6122 0.32193 0.25506 0.0
H3063 H 0.57046 0.31099 0.28786 0.0
H3064 H 0.64821 0.30577 0.28834 0.0
H3065 H 0.63776 0.35811 0.28496 0.0
H3066 H 0.57402 0.24965 0.26626 0.0
H3067 H 0.59436 0.34035 0.23808 0.0
H3068 H 0.55199 0.32896 0.27092 0.0
C3069 C 0.0902 0.87448 0.95894 0.0
C3070 C 0.09727 0.89037 0.95749 0.0
N3071 N 0.08461 0.90178 0.95653 0.0
N3072 N 0.073 0.87575 0.95917 0.0
C3073 C 0.07009 0.89266 0.95748 0.0
H3074 H 0.09744 0.86318 0.96158 0.0
Co3075 Co 0.05585 0.85931 0.96385 0.0
C3076 C 0.04 0.88569 0.98731 0.0
O3077 O 0.03141 0.89347 0.97525 0.0
N3078 N 0.0379 0.84326 0.96837 0.0
C3079 C 0.01908 0.82822 0.98339 0.0
C3080 C 0.02842 0.84291 0.98275 0.0
C3081 C 0.03348 0.82862 0.96022 0.0
N3082 N 0.02234 0.81911 0.96934 0.0
O3083 O 0.06311 0.84609 0.94313 0.0
H3084 H 0.02902 0.852 0.99299 0.0
H3085 H 0.03962 0.82412 0.94876 0.0
O3086 O 0.04906 0.8727 0.98375 0.0
C3087 C 0.07689 0.83826 0.93895 0.0
O3088 O 0.08943 0.83704 0.94988 0.0
N3089 N 0.07049 0.84689 0.97878 0.0
C3090 C 0.08932 0.82898 0.00313 0.0
C3091 C 0.08902 0.84678 0.00318 0.0
C3092 C 0.07933 0.85544 0.99112 0.0
C3093 C 0.07067 0.82952 0.97868 0.0
C3094 C 0.07981 0.82038 0.99075 0.0
H3095 H 0.07903 0.86916 0.99174 0.0
H3096 H 0.06403 0.82245 0.96903 0.0
H3097 H 0.05761 0.89836 0.95797 0.0
H3098 H 0.11066 0.89345 0.9586 0.0
H3099 H 0.01141 0.82393 0.99401 0.0
H3100 H 0.09628 0.85404 0.01236 0.0
H3101 H 0.07926 0.80664 0.99035 0.0
C3102 C 0.38234 0.8257 0.19025 0.0
C3103 C 0.36739 0.8347 0.18999 0.0
N3104 N 0.35967 0.8326 0.20506 0.0
N3105 N 0.38474 0.81851 0.20575 0.0
C3106 C 0.37009 0.82236 0.21411 0.0
H3107 H 0.39018 0.82365 0.17919 0.0
Co3108 Co 0.40237 0.8026 0.21139 0.0
C3109 C 0.39224 0.7895 0.2459 0.0
O3110 O 0.40841 0.78919 0.25019 0.0
N3111 N 0.41903 0.78527 0.21541 0.0
C3112 C 0.42958 0.75938 0.22073 0.0
C3113 C 0.41516 0.76931 0.22055 0.0
C3114 C 0.43578 0.7841 0.21118 0.0
N3115 N 0.44264 0.76878 0.21495 0.0
O3116 O 0.41663 0.81137 0.19216 0.0
H3117 H 0.40251 0.76492 0.22366 0.0
H3118 H 0.4427 0.79372 0.20426 0.0
O3119 O 0.38795 0.79389 0.23071 0.0
C3120 C 0.42149 0.8266 0.18865 0.0
O3121 O 0.41673 0.83917 0.19858 0.0
N3122 N 0.41305 0.81828 0.22723 0.0
C3123 C 0.42804 0.83873 0.2523 0.0
C3124 C 0.41045 0.83641 0.25184 0.0
C3125 C 0.40326 0.82628 0.23924 0.0
C3126 C 0.43025 0.82114 0.22727 0.0
C3127 C 0.43797 0.83118 0.23966 0.0
H3128 H 0.38982 0.82439 0.23989 0.0
H3129 H 0.43827 0.81637 0.21742 0.0
H3130 H 0.36662 0.81718 0.2263 0.0
H3131 H 0.36209 0.84135 0.17914 0.0
H3132 H 0.43031 0.74625 0.22479 0.0
H3133 H 0.40228 0.84197 0.26145 0.0
H3134 H 0.4516 0.83318 0.23917 0.0
C3135 C 0.12393 0.16519 0.71614 0.0
C3136 C 0.13993 0.15833 0.71641 0.0
N3137 N 0.15125 0.17076 0.71353 0.0
N3138 N 0.1247 0.1821 0.71291 0.0
C3139 C 0.14176 0.18507 0.71139 0.0
H3140 H 0.11268 0.15816 0.71963 0.0
Co3141 Co 0.10673 0.19891 0.71383 0.0
C3142 C 0.11186 0.21526 0.74778 0.0
O3143 O 0.0953 0.21735 0.74894 0.0
N3144 N 0.0895 0.2167 0.71428 0.0
C3145 C 0.08009 0.24368 0.71397 0.0
C3146 C 0.09425 0.23323 0.71392 0.0
C3147 C 0.07209 0.21766 0.71433 0.0
N3148 N 0.06615 0.23382 0.71416 0.0
O3149 O 0.09602 0.18975 0.69251 0.0
H3150 H 0.10735 0.23747 0.71391 0.0
H3151 H 0.06354 0.20704 0.71429 0.0
O3152 O 0.1181 0.20874 0.73421 0.0
C3153 C 0.0922 0.17498 0.68666 0.0
O3154 O 0.09487 0.16144 0.69598 0.0
N3155 N 0.09342 0.18432 0.72835 0.0
C3156 C 0.07455 0.16442 0.75091 0.0
C3157 C 0.09124 0.16903 0.75482 0.0
C3158 C 0.10047 0.17879 0.74335 0.0
C3159 C 0.07744 0.17895 0.72405 0.0
C3160 C 0.06771 0.16927 0.73522 0.0
H3161 H 0.11359 0.18144 0.74647 0.0
H3162 H 0.07201 0.18182 0.71184 0.0
H3163 H 0.14714 0.19764 0.70987 0.0
H3164 H 0.1431 0.14529 0.71949 0.0
H3165 H 0.08005 0.25744 0.71426 0.0
H3166 H 0.09715 0.16521 0.76668 0.0
H3167 H 0.05504 0.16535 0.73143 0.0
H3168 H 0.01295 0.08187 0.418 0.0
H3169 H 0.05532 0.11152 0.50625 0.0
H3170 H 0.06642 0.07787 0.42934 0.0
H3171 H 0.0085 0.13272 0.48691 0.0
H3172 H 0.05634 0.09237 0.48173 0.0
H3173 H 0.00819 0.09394 0.44661 0.0
C3174 C 0.02358 0.08314 0.42669 0.0
C3175 C 0.0401 0.07893 0.42135 0.0
C3176 C 0.04566 0.10099 0.48304 0.0
C3177 C 0.03484 0.09264 0.45394 0.0
C3178 C 0.04496 0.11181 0.49718 0.0
C3179 C 0.03181 0.12384 0.4987 0.0
C3180 C 0.03303 0.10199 0.47038 0.0
C3181 C 0.01892 0.12374 0.48624 0.0
C3182 C 0.02092 0.09013 0.44291 0.0
C3183 C 0.05352 0.08104 0.43298 0.0
N3184 N 0.01991 0.11311 0.47258 0.0
N3185 N 0.05062 0.08777 0.44866 0.0
H3186 H 0.17342 0.76064 0.66655 0.0
H3187 H 0.14965 0.80326 0.75636 0.0
H3188 H 0.17723 0.8143 0.67633 0.0
H3189 H 0.12344 0.75934 0.7366 0.0
H3190 H 0.16763 0.80354 0.73083 0.0
H3191 H 0.16263 0.75643 0.69579 0.0
C3192 C 0.17243 0.77143 0.67504 0.0
C3193 C 0.17627 0.78781 0.66913 0.0
C3194 C 0.15818 0.79363 0.73229 0.0
C3195 C 0.16407 0.78318 0.70245 0.0
C3196 C 0.14801 0.79333 0.74697 0.0
C3197 C 0.13483 0.78135 0.74862 0.0
C3198 C 0.15548 0.7816 0.71933 0.0
C3199 C 0.13332 0.7689 0.73585 0.0
C3200 C 0.16617 0.76907 0.69162 0.0
C3201 C 0.17445 0.80147 0.68048 0.0
N3202 N 0.1434 0.76941 0.72173 0.0
N3203 N 0.1685 0.79887 0.69656 0.0
H3204 H 0.48303 0.89922 0.90713 0.0
H3205 H 0.45233 0.89647 0.00423 0.0
H3206 H 0.44704 0.93521 0.92714 0.0
H3207 H 0.49068 0.86373 0.98265 0.0
H3208 H 0.45232 0.91325 0.97776 0.0
H3209 H 0.48812 0.88847 0.93589 0.0
C3210 C 0.47645 0.90505 0.91774 0.0
C3211 C 0.46473 0.91817 0.91483 0.0
C3212 C 0.46097 0.90258 0.97896 0.0
C3213 C 0.47003 0.90562 0.94795 0.0
C3214 C 0.4611 0.89309 0.99416 0.0
C3215 C 0.47149 0.87857 0.9957 0.0
C3216 C 0.47132 0.89756 0.96523 0.0
C3217 C 0.48238 0.87471 0.98207 0.0
C3218 C 0.47926 0.89888 0.93417 0.0
C3219 C 0.45633 0.9252 0.92894 0.0
N3220 N 0.48187 0.88398 0.96746 0.0
N3221 N 0.45897 0.9187 0.94489 0.0
H3222 H 0.36653 0.1896 0.15578 0.0
H3223 H 0.3826 0.24163 0.23983 0.0
H3224 H 0.33915 0.2363 0.16409 0.0
H3225 H 0.38307 0.18691 0.2392 0.0
H3226 H 0.36836 0.24146 0.21182 0.0
H3227 H 0.37522 0.18962 0.18577 0.0
C3228 C 0.36237 0.19986 0.16397 0.0
C3229 C 0.35215 0.21298 0.15749 0.0
C3230 C 0.37126 0.2295 0.21803 0.0
C3231 C 0.36223 0.21325 0.19176 0.0
C3232 C 0.37925 0.2296 0.23403 0.0
C3233 C 0.38371 0.21425 0.24198 0.0
C3234 C 0.36831 0.21395 0.20972 0.0
C3235 C 0.37962 0.19901 0.23368 0.0
C3236 C 0.36723 0.19983 0.18108 0.0
C3237 C 0.34698 0.22593 0.16866 0.0
N3238 N 0.3724 0.19924 0.21793 0.0
N3239 N 0.35228 0.22589 0.18521 0.0
H3240 H 0.03121 0.91759 0.99901 0.0
H3241 H 0.0405 0.89134 0.09692 0.0
H3242 H 0.04805 0.86833 0.01637 0.0
H3243 H 0.03938 0.94398 0.08137 0.0
H3244 H 0.03995 0.88281 0.06731 0.0
H3245 H 0.03117 0.92755 0.02871 0.0
C3246 C 0.03477 0.90883 0.00905 0.0
C3247 C 0.03953 0.89204 0.00516 0.0
C3248 C 0.03988 0.89625 0.0703 0.0
C3249 C 0.03938 0.90334 0.03914 0.0
C3250 C 0.04028 0.9012 0.08733 0.0
C3251 C 0.04033 0.9185 0.09186 0.0
C3252 C 0.03932 0.90859 0.05743 0.0
C3253 C 0.03939 0.93052 0.07859 0.0
C3254 C 0.03482 0.91457 0.02598 0.0
C3255 C 0.04426 0.88135 0.01869 0.0
N3256 N 0.03896 0.92534 0.06198 0.0
N3257 N 0.04394 0.88713 0.035 0.0
H3258 H 0.33713 0.81848 0.3344 0.0
H3259 H 0.39099 0.76448 0.26983 0.0
H3260 H 0.34187 0.76436 0.34039 0.0
H3261 H 0.36532 0.81029 0.25419 0.0
H3262 H 0.37348 0.76391 0.29571 0.0
H3263 H 0.34757 0.81598 0.30503 0.0
C3264 C 0.33994 0.80601 0.32928 0.0
C3265 C 0.33836 0.79157 0.33961 0.0
C3266 C 0.37141 0.77388 0.28642 0.0
C3267 C 0.35098 0.7886 0.30633 0.0
C3268 C 0.38137 0.77419 0.27164 0.0
C3269 C 0.37943 0.78728 0.25964 0.0
C3270 C 0.3598 0.7871 0.28956 0.0
C3271 C 0.367 0.79973 0.26279 0.0
C3272 C 0.34597 0.80457 0.31259 0.0
C3273 C 0.34263 0.77572 0.33265 0.0
N3274 N 0.35788 0.7995 0.27755 0.0
N3275 N 0.34901 0.77467 0.31653 0.0
H3276 H 0.45454 0.08008 0.58621 0.0
H3277 H 0.49644 0.14223 0.51685 0.0
H3278 H 0.49095 0.11964 0.59676 0.0
H3279 H 0.45198 0.11216 0.50554 0.0
H3280 H 0.49857 0.12834 0.54447 0.0
H3281 H 0.45662 0.08689 0.55558 0.0
C3282 C 0.46307 0.09007 0.58207 0.0
C3283 C 0.47241 0.09949 0.5941 0.0
C3284 C 0.48845 0.12455 0.53592 0.0
C3285 C 0.47505 0.10715 0.55916 0.0
C3286 C 0.48733 0.13237 0.52002 0.0
C3287 C 0.47386 0.1286 0.50891 0.0
C3288 C 0.4759 0.1129 0.54101 0.0
C3289 C 0.46253 0.11558 0.51372 0.0
C3290 C 0.46423 0.09397 0.56462 0.0
C3291 C 0.48327 0.11229 0.58803 0.0
N3292 N 0.46358 0.10843 0.52957 0.0
N3293 N 0.48426 0.11571 0.5711 0.0
H3294 H 0.13724 0.22098 0.85383 0.0
H3295 H 0.1452 0.20497 0.75352 0.0
H3296 H 0.18393 0.20302 0.8314 0.0
H3297 H 0.10234 0.22871 0.77829 0.0
H3298 H 0.16044 0.20479 0.78094 0.0
H3299 H 0.12506 0.22436 0.82562 0.0
C3300 C 0.14496 0.21774 0.8429 0.0
C3301 C 0.16158 0.21152 0.84503 0.0
C3302 C 0.14777 0.2102 0.78027 0.0
C3303 C 0.14761 0.2154 0.81228 0.0
C3304 C 0.13908 0.21038 0.76461 0.0
C3305 C 0.12239 0.21687 0.76352 0.0
C3306 C 0.1397 0.21647 0.79496 0.0
C3307 C 0.11511 0.22354 0.77839 0.0
C3308 C 0.13801 0.21975 0.82671 0.0
C3309 C 0.17108 0.20787 0.83032 0.0
N3310 N 0.12372 0.22305 0.79339 0.0
N3311 N 0.1639 0.20969 0.81454 0.0
H3312 H 0.42295 0.04997 0.08 0.0
H3313 H 0.49337 0.00848 0.14121 0.0
H3314 H 0.4131 0.01366 0.11987 0.0
H3315 H 0.50363 0.0537 0.11192 0.0
H3316 H 0.46568 0.00618 0.12752 0.0
H3317 H 0.45365 0.04827 0.08661 0.0
C3318 C 0.42726 0.04153 0.09 0.0
C3319 C 0.41542 0.03207 0.09952 0.0
C3320 C 0.47403 0.0165 0.12385 0.0
C3321 C 0.45041 0.02988 0.10698 0.0
C3322 C 0.48998 0.01772 0.13155 0.0
C3323 C 0.50077 0.0315 0.12801 0.0
C3324 C 0.46861 0.0292 0.11251 0.0
C3325 C 0.49568 0.04296 0.1152 0.0
C3326 C 0.44474 0.0406 0.09379 0.0
C3327 C 0.42169 0.02139 0.1124 0.0
N3328 N 0.47979 0.04177 0.10815 0.0
N3329 N 0.43865 0.0206 0.11571 0.0
H3330 H 0.19163 0.25042 0.34989 0.0
H3331 H 0.22441 0.15603 0.36166 0.0
H3332 H 0.22409 0.23571 0.39154 0.0
H3333 H 0.20607 0.17464 0.31346 0.0
H3334 H 0.22537 0.18519 0.37237 0.0
H3335 H 0.19786 0.22343 0.33571 0.0
C3336 C 0.20042 0.24163 0.35585 0.0
C3337 C 0.2075 0.24536 0.37182 0.0
C3338 C 0.22135 0.18299 0.35938 0.0
C3339 C 0.21422 0.21407 0.35595 0.0
C3340 C 0.22073 0.16632 0.35327 0.0
C3341 C 0.215 0.16287 0.33668 0.0
C3342 C 0.21592 0.19645 0.34895 0.0
C3343 C 0.21058 0.17673 0.3263 0.0
C3344 C 0.20393 0.22618 0.34778 0.0
C3345 C 0.2186 0.23343 0.37911 0.0
N3346 N 0.21087 0.19288 0.33269 0.0
N3347 N 0.22139 0.21819 0.37126 0.0
H3348 H 0.01384 0.9918 0.63521 0.0
H3349 H 0.07126 0.93765 0.57274 0.0
H3350 H 0.99486 0.94852 0.60743 0.0
H3351 H 0.08552 0.98818 0.58818 0.0
H3352 H 0.04274 0.94232 0.58421 0.0
H3353 H 0.03904 0.99214 0.61692 0.0
C3354 C 0.01473 0.98258 0.62501 0.0
C3355 C 1.00215 0.96997 0.62308 0.0
C3356 C 0.05196 0.95253 0.58491 0.0
C3357 C 0.03142 0.97007 0.60224 0.0
C3358 C 0.0683 0.94984 0.5784 0.0
C3359 C 0.08087 0.9625 0.5796 0.0
C3360 C 0.04805 0.96793 0.59306 0.0
C3361 C 0.07623 0.97811 0.58695 0.0
C3362 C 0.02923 0.98276 0.6146 0.0
C3363 C 0.00412 0.95846 0.60953 0.0
N3364 N 0.06029 0.98028 0.59365 0.0
N3365 N 0.0186 0.95857 0.59992 0.0
H3366 H 0.30055 0.77952 0.9081 0.0
H3367 H 0.2789 0.83571 0.82686 0.0
H3368 H 0.28668 0.75557 0.86068 0.0
H3369 H 0.30942 0.85261 0.86926 0.0
H3370 H 0.27987 0.80661 0.83839 0.0
H3371 H 0.30154 0.80677 0.89386 0.0
C3372 C 0.29752 0.78 0.89465 0.0
C3373 C 0.29328 0.76522 0.88563 0.0
C3374 C 0.28644 0.81672 0.84504 0.0
C3375 C 0.2945 0.79675 0.86906 0.0
C3376 C 0.28593 0.83332 0.83847 0.0
C3377 C 0.29385 0.84675 0.84726 0.0
C3378 C 0.29483 0.81363 0.86053 0.0
C3379 C 0.30272 0.84286 0.86227 0.0
C3380 C 0.29825 0.79563 0.88647 0.0
C3381 C 0.28989 0.7667 0.86812 0.0
N3382 N 0.30284 0.82677 0.86845 0.0
N3383 N 0.2904 0.78227 0.86039 0.0
H3384 H 0.41386 0.99162 0.41997 0.0
H3385 H 0.50165 0.94685 0.39344 0.0
H3386 H 0.41786 0.93776 0.41117 0.0
H3387 H 0.48654 0.99538 0.37274 0.0
H3388 H 0.4744 0.94539 0.40874 0.0
H3389 H 0.44379 0.99493 0.41091 0.0
C3390 C 0.42114 0.98049 0.41641 0.0
C3391 C 0.41338 0.96441 0.41621 0.0
C3392 C 0.47725 0.9565 0.40111 0.0
C3393 C 0.44761 0.96801 0.40624 0.0
C3394 C 0.49289 0.95745 0.3925 0.0
C3395 C 0.49636 0.97117 0.38153 0.0
C3396 C 0.46522 0.96963 0.39925 0.0
C3397 C 0.48438 0.98448 0.38088 0.0
C3398 C 0.43815 0.98237 0.41119 0.0
C3399 C 0.42334 0.95038 0.41136 0.0
N3400 N 0.46936 0.98335 0.38951 0.0
N3401 N 0.43992 0.95248 0.40664 0.0
H3402 H 0.27512 0.16034 0.67676 0.0
H3403 H 0.29704 0.23364 0.60954 0.0
H3404 H 0.2974 0.14976 0.62771 0.0
H3405 H 0.28562 0.2422 0.66253 0.0
H3406 H 0.29294 0.20297 0.61406 0.0
H3407 H 0.27486 0.19042 0.66987 0.0
C3408 C 0.28007 0.16431 0.66455 0.0
C3409 C 0.28659 0.15244 0.65293 0.0
C3410 C 0.29116 0.21162 0.62462 0.0
C3411 C 0.28606 0.18711 0.6448 0.0
C3412 C 0.2933 0.22911 0.62201 0.0
C3413 C 0.29155 0.24046 0.63568 0.0
C3414 C 0.28716 0.20555 0.64096 0.0
C3415 C 0.28712 0.2339 0.65166 0.0
C3416 C 0.2798 0.18155 0.66057 0.0
C3417 C 0.29228 0.15843 0.63707 0.0
N3418 N 0.28512 0.21692 0.65385 0.0
N3419 N 0.29199 0.17539 0.6335 0.0
H3420 H 0.01274 0.04684 0.89231 0.0
H3421 H 0.11349 0.0333 0.88171 0.0
H3422 H 0.03785 0.03065 0.84626 0.0
H3423 H 0.09092 0.04601 0.93008 0.0
H3424 H 0.08532 0.03225 0.86908 0.0
H3425 H 0.04049 0.04622 0.90704 0.0
C3426 C 0.024 0.04298 0.88535 0.0
C3427 C 0.02293 0.03883 0.86799 0.0
C3428 C 0.08641 0.03526 0.88248 0.0
C3429 C 0.05463 0.03825 0.88467 0.0
C3430 C 0.10261 0.03598 0.8897 0.0
C3431 C 0.1047 0.03991 0.90699 0.0
C3432 C 0.07197 0.03853 0.8925 0.0
C3433 C 0.08994 0.04286 0.91672 0.0
C3434 C 0.03983 0.0427 0.89374 0.0
C3435 C 0.03797 0.03406 0.8596 0.0
N3436 N 0.0742 0.0422 0.90933 0.0
N3437 N 0.05309 0.03397 0.86797 0.0
H3438 H 0.18925 0.82593 0.1817 0.0
H3439 H 0.24344 0.76793 0.11813 0.0
H3440 H 0.2373 0.8404 0.15996 0.0
H3441 H 0.19786 0.74967 0.14254 0.0
H3442 H 0.24289 0.79301 0.13629 0.0
H3443 H 0.19315 0.79693 0.17028 0.0
C3444 C 0.20083 0.8228 0.17492 0.0
C3445 C 0.21312 0.8354 0.17195 0.0
C3446 C 0.2331 0.78345 0.13794 0.0
C3447 C 0.21757 0.80251 0.15853 0.0
C3448 C 0.2335 0.76901 0.12761 0.0
C3449 C 0.22068 0.75663 0.12872 0.0
C3450 C 0.21958 0.78588 0.14939 0.0
C3451 C 0.20807 0.75882 0.14126 0.0
C3452 C 0.20302 0.80632 0.16831 0.0
C3453 C 0.22768 0.83094 0.16269 0.0
N3454 N 0.20766 0.77331 0.15088 0.0
N3455 N 0.22945 0.81497 0.15625 0.0
H3456 H 0.12216 0.40375 0.05442 0.0
H3457 H 0.09716 0.50034 0.03291 0.0
H3458 H 0.07281 0.41792 0.03456 0.0
H3459 H 0.14504 0.48482 0.05495 0.0
H3460 H 0.08775 0.47055 0.0333 0.0
H3461 H 0.13043 0.43338 0.0543 0.0
C3462 C 0.11297 0.41295 0.04995 0.0
C3463 C 0.09667 0.40794 0.04438 0.0
C3464 C 0.10032 0.47368 0.03801 0.0
C3465 C 0.10626 0.44257 0.04448 0.0
C3466 C 0.10573 0.4907 0.03775 0.0
C3467 C 0.12198 0.49517 0.04382 0.0
C3468 C 0.11127 0.46095 0.04426 0.0
C3469 C 0.13242 0.48207 0.05013 0.0
C3470 C 0.11776 0.43006 0.05 0.0
C3471 C 0.08547 0.42092 0.03905 0.0
N3472 N 0.12693 0.46565 0.05011 0.0
N3473 N 0.09047 0.43756 0.03921 0.0
H3474 H 0.64795 0.03524 0.97692 0.0
H3475 H 0.56087 0.08168 0.95065 0.0
H3476 H 0.6062 0.008 0.95393 0.0
H3477 H 0.60694 0.10689 0.96623 0.0
H3478 H 0.57483 0.05394 0.95585 0.0
H3479 H 0.63065 0.06081 0.97747 0.0
C3480 C 0.63505 0.03461 0.97207 0.0
C3481 C 0.62859 0.01949 0.96519 0.0
C3482 C 0.58178 0.06557 0.9583 0.0
C3483 C 0.60859 0.049 0.9656 0.0
C3484 C 0.5738 0.08132 0.95543 0.0
C3485 C 0.58289 0.09647 0.95788 0.0
C3486 C 0.59883 0.06515 0.96385 0.0
C3487 C 0.59961 0.09546 0.96399 0.0
C3488 C 0.62514 0.04926 0.97238 0.0
C3489 C 0.61168 0.01942 0.95932 0.0
N3490 N 0.60703 0.08012 0.96669 0.0
N3491 N 0.60229 0.03404 0.95946 0.0
H3492 H 0.24841 0.35634 0.21267 0.0
H3493 H 0.1477 0.36487 0.20544 0.0
H3494 H 0.22106 0.40359 0.21857 0.0
H3495 H 0.17133 0.31672 0.21629 0.0
H3496 H 0.17509 0.37903 0.20971 0.0
H3497 H 0.22107 0.34103 0.21353 0.0
C3498 C 0.23674 0.36347 0.21434 0.0
C3499 C 0.23706 0.3813 0.2154 0.0
C3500 C 0.17436 0.36538 0.21135 0.0
C3501 C 0.20586 0.36395 0.21626 0.0
C3502 C 0.15874 0.35736 0.20892 0.0
C3503 C 0.15739 0.33973 0.21062 0.0
C3504 C 0.1889 0.35563 0.21511 0.0
C3505 C 0.17197 0.3304 0.21505 0.0
C3506 C 0.22116 0.35474 0.21483 0.0
C3507 C 0.22151 0.38988 0.21752 0.0
N3508 N 0.18725 0.33845 0.21694 0.0
N3509 N 0.20663 0.38116 0.21772 0.0
H3510 H 0.89117 0.00295 0.45215 0.0
H3511 H 0.89074 0.90723 0.48569 0.0
H3512 H 0.86058 0.98488 0.49391 0.0
H3513 H 0.93177 0.92558 0.45442 0.0
H3514 H 0.88027 0.93628 0.48877 0.0
H3515 H 0.90739 0.97612 0.453 0.0
C3516 C 0.88817 0.99366 0.46184 0.0
C3517 C 0.87432 0.99627 0.47292 0.0
C3518 C 0.89167 0.93412 0.48135 0.0
C3519 C 0.89262 0.96526 0.47367 0.0
C3520 C 0.89764 0.91747 0.47958 0.0
C3521 C 0.91216 0.91394 0.46982 0.0
C3522 C 0.90001 0.94759 0.47302 0.0
C3523 C 0.9206 0.92777 0.46218 0.0
C3524 C 0.89736 0.97821 0.46219 0.0
C3525 C 0.871 0.9835 0.48501 0.0
N3526 N 0.91429 0.94396 0.46373 0.0
N3527 N 0.87984 0.96861 0.48489 0.0
H3528 H 0.7591 0.11038 0.21918 0.0
H3529 H 0.83133 0.18243 0.2122 0.0
H3530 H 0.74834 0.1635 0.21109 0.0
H3531 H 0.84234 0.1291 0.21942 0.0
H3532 H 0.801 0.17571 0.21175 0.0
H3533 H 0.78964 0.11679 0.21872 0.0
C3534 C 0.76313 0.12335 0.21712 0.0
C3535 C 0.75111 0.13636 0.21477 0.0
C3536 C 0.81007 0.16547 0.21339 0.0
C3537 C 0.78614 0.14394 0.21478 0.0
C3538 C 0.82749 0.16932 0.21375 0.0
C3539 C 0.83969 0.15636 0.21579 0.0
C3540 C 0.80463 0.14851 0.21507 0.0
C3541 C 0.83364 0.13957 0.21757 0.0
C3542 C 0.78061 0.12705 0.21694 0.0
C3543 C 0.75717 0.15303 0.21263 0.0
N3544 N 0.81663 0.13617 0.21716 0.0
N3545 N 0.77419 0.15633 0.21267 0.0
H3546 H 0.36594 0.52658 0.51624 0.0
H3547 H 0.41825 0.58568 0.57398 0.0
H3548 H 0.39421 0.50453 0.55781 0.0
H3549 H 0.42186 0.59244 0.51978 0.0
H3550 H 0.4074 0.5567 0.56942 0.0
H3551 H 0.38426 0.55184 0.51763 0.0
C3552 C 0.37622 0.52697 0.52543 0.0
C3553 C 0.37867 0.51351 0.53687 0.0
C3554 C 0.4109 0.5644 0.55854 0.0
C3555 C 0.39915 0.54241 0.5389 0.0
C3556 C 0.41702 0.58084 0.56114 0.0
C3557 C 0.421 0.5912 0.54722 0.0
C3558 C 0.4082 0.55859 0.54188 0.0
C3559 C 0.41905 0.58463 0.53077 0.0
C3560 C 0.38664 0.54131 0.52619 0.0
C3561 C 0.39204 0.51461 0.54867 0.0
N3562 N 0.41242 0.56881 0.52851 0.0
N3563 N 0.40157 0.52902 0.54965 0.0
H3564 H 0.25842 0.64511 0.30322 0.0
H3565 H 0.16137 0.64599 0.27331 0.0
H3566 H 0.23838 0.61406 0.2627 0.0
H3567 H 0.18196 0.68705 0.30293 0.0
H3568 H 0.19016 0.63488 0.26904 0.0
H3569 H 0.23183 0.66181 0.30286 0.0
C3570 C 0.2487 0.64207 0.29393 0.0
C3571 C 0.2507 0.62796 0.28308 0.0
C3572 C 0.18855 0.64648 0.27627 0.0
C3573 C 0.22002 0.64684 0.28288 0.0
C3574 C 0.17208 0.65283 0.27865 0.0
C3575 C 0.16931 0.66756 0.28828 0.0
C3576 C 0.20255 0.65464 0.28392 0.0
C3577 C 0.18362 0.6758 0.2952 0.0
C3578 C 0.23343 0.65154 0.29384 0.0
C3579 C 0.23747 0.62465 0.27145 0.0
N3580 N 0.1996 0.66913 0.29308 0.0
N3581 N 0.22275 0.63377 0.27184 0.0
H3582 H 0.25593 0.35973 0.78004 0.0
H3583 H 0.35375 0.36816 0.80898 0.0
H3584 H 0.27742 0.4014 0.80845 0.0
H3585 H 0.3369 0.32818 0.77547 0.0
H3586 H 0.32457 0.37814 0.81135 0.0
H3587 H 0.28411 0.34559 0.78055 0.0
C3588 C 0.26649 0.36578 0.78651 0.0
C3589 C 0.26445 0.38187 0.79395 0.0
C3590 C 0.32714 0.36716 0.80345 0.0
C3591 C 0.29642 0.36589 0.79472 0.0
C3592 C 0.34388 0.36151 0.80204 0.0
C3593 C 0.34785 0.34748 0.79181 0.0
C3594 C 0.31407 0.35887 0.79447 0.0
C3595 C 0.33439 0.33907 0.78349 0.0
C3596 C 0.28254 0.35778 0.78674 0.0
C3597 C 0.27849 0.38917 0.80222 0.0
N3598 N 0.31809 0.34499 0.78486 0.0
N3599 N 0.29378 0.38118 0.80232 0.0
H3600 H 0.95564 0.89415 0.50381 0.0
H3601 H 0.98772 0.88172 0.59937 0.0
H3602 H 0.99477 0.85895 0.51941 0.0
H3603 H 0.95632 0.92437 0.58506 0.0
H3604 H 0.99067 0.87419 0.56953 0.0
H3605 H 0.95663 0.90713 0.53231 0.0
C3606 C 0.96482 0.8895 0.513 0.0
C3607 C 0.975 0.87526 0.50924 0.0
C3608 C 0.98318 0.88527 0.5728 0.0
C3609 C 0.97594 0.88981 0.54194 0.0
C3610 C 0.98136 0.88949 0.58994 0.0
C3611 C 0.9716 0.90361 0.59483 0.0
C3612 C 0.97505 0.89508 0.56022 0.0
C3613 C 0.96398 0.9134 0.58188 0.0
C3614 C 0.96524 0.8968 0.52934 0.0
C3615 C 0.98654 0.86975 0.52174 0.0
N3616 N 0.9657 0.90885 0.56518 0.0
N3617 N 0.98651 0.87683 0.5375 0.0
H3618 H 0.89466 0.23939 0.26756 0.0
H3619 H 0.82895 0.20253 0.33643 0.0
H3620 H 0.86096 0.19778 0.25576 0.0
H3621 H 0.87243 0.23397 0.34775 0.0
H3622 H 0.83637 0.20395 0.30596 0.0
H3623 H 0.88179 0.24158 0.29563 0.0
C3624 C 0.88424 0.23094 0.27074 0.0
C3625 C 0.879 0.2183 0.25929 0.0
C3626 C 0.8442 0.21059 0.31515 0.0
C3627 C 0.86438 0.22046 0.29183 0.0
C3628 C 0.83995 0.20983 0.33251 0.0
C3629 C 0.85018 0.21802 0.34471 0.0
C3630 C 0.85861 0.21985 0.30994 0.0
C3631 C 0.86433 0.22723 0.3389 0.0
C3632 C 0.87699 0.23209 0.28688 0.0
C3633 C 0.86538 0.20775 0.26416 0.0
N3634 N 0.86808 0.22789 0.32204 0.0
N3635 N 0.85869 0.20889 0.28019 0.0
H3636 H 0.55994 0.12037 0.10186 0.0
H3637 H 0.52668 0.11651 0.00498 0.0
H3638 H 0.52417 0.08216 0.08566 0.0
H3639 H 0.55793 0.15595 0.02675 0.0
H3640 H 0.52735 0.10146 0.03273 0.0
H3641 H 0.56133 0.13113 0.07293 0.0
C3642 C 0.55232 0.11424 0.09217 0.0
C3643 C 0.54173 0.10049 0.09632 0.0
C3644 C 0.53411 0.11336 0.03131 0.0
C3645 C 0.5432 0.11288 0.06268 0.0
C3646 C 0.53379 0.1219 0.01548 0.0
C3647 C 0.54206 0.13765 0.01357 0.0
C3648 C 0.54298 0.12055 0.04517 0.0
C3649 C 0.55109 0.14403 0.02762 0.0
C3650 C 0.55314 0.12037 0.07554 0.0
C3651 C 0.53248 0.09281 0.08302 0.0
N3652 N 0.55126 0.13554 0.04266 0.0
N3653 N 0.53328 0.09921 0.06682 0.0
H3654 H 0.61293 0.75987 0.77211 0.0
H3655 H 0.68827 0.80068 0.82799 0.0
H3656 H 0.64514 0.79974 0.75259 0.0
H3657 H 0.64697 0.77064 0.84768 0.0
H3658 H 0.67697 0.79641 0.79887 0.0
H3659 H 0.62996 0.7591 0.798 0.0
C3660 C 0.62382 0.76825 0.7731 0.0
C3661 C 0.62745 0.77998 0.76012 0.0
C3662 C 0.67055 0.79056 0.80956 0.0
C3663 C 0.647 0.77941 0.79018 0.0
C3664 C 0.67706 0.79289 0.82611 0.0
C3665 C 0.6685 0.78599 0.8402 0.0
C3666 C 0.65554 0.78104 0.80716 0.0
C3667 C 0.6539 0.7762 0.83716 0.0
C3668 C 0.63351 0.76789 0.788 0.0
C3669 C 0.64185 0.79046 0.76221 0.0
N3670 N 0.6479 0.77406 0.82107 0.0
N3671 N 0.65095 0.79011 0.77706 0.0
H3672 H 0.97895 0.11075 0.90663 0.0
H3673 H 0.93905 0.09928 0.99786 0.0
H3674 H 0.95866 0.06279 0.92356 0.0
H3675 H 0.97455 0.13948 0.98668 0.0
H3676 H 0.94704 0.08511 0.97135 0.0
H3677 H 0.97849 0.12109 0.93598 0.0
C3678 C 0.9746 0.10232 0.91662 0.0
C3679 C 0.9687 0.08593 0.91267 0.0
C3680 C 0.95335 0.09685 0.97478 0.0
C3681 C 0.96794 0.09776 0.94634 0.0
C3682 C 0.94879 0.10494 0.98992 0.0
C3683 C 0.9562 0.12053 0.99443 0.0
C3684 C 0.96506 0.10464 0.96378 0.0
C3685 C 0.96868 0.12739 0.9837 0.0
C3686 C 0.9744 0.1082 0.93338 0.0
C3687 C 0.96334 0.07547 0.92609 0.0
N3688 N 0.9725 0.11956 0.96869 0.0
N3689 N 0.9628 0.08166 0.9423 0.0
H3690 H 0.65393 0.1918 0.75149 0.0
H3691 H 0.66432 0.24286 0.66399 0.0
H3692 H 0.62546 0.23689 0.73908 0.0
H3693 H 0.68375 0.19251 0.67275 0.0
H3694 H 0.65616 0.2447 0.69418 0.0
H3695 H 0.67148 0.19617 0.72612 0.0
C3696 C 0.65199 0.20316 0.74391 0.0
C3697 C 0.63846 0.21421 0.74761 0.0
C3698 C 0.66246 0.23335 0.68961 0.0
C3699 C 0.6579 0.21883 0.71797 0.0
C3700 C 0.66716 0.23235 0.67244 0.0
C3701 C 0.67479 0.21758 0.66605 0.0
C3702 C 0.66526 0.21935 0.70043 0.0
C3703 C 0.67807 0.20418 0.67734 0.0
C3704 C 0.66178 0.20546 0.72921 0.0
C3705 C 0.63603 0.22831 0.73692 0.0
N3706 N 0.67315 0.20531 0.69394 0.0
N3707 N 0.64545 0.23008 0.72246 0.0
H3708 H 0.55462 0.8816 0.39836 0.0
H3709 H 0.53306 0.88777 0.498 0.0
H3710 H 0.52591 0.92376 0.4185 0.0
H3711 H 0.57292 0.85701 0.47626 0.0
H3712 H 0.52672 0.89905 0.46923 0.0
H3713 H 0.55785 0.87034 0.42695 0.0
C3714 C 0.54886 0.88847 0.40879 0.0
C3715 C 0.53992 0.90366 0.4059 0.0
C3716 C 0.53678 0.88976 0.47083 0.0
C3717 C 0.54373 0.89076 0.43912 0.0
C3718 C 0.54029 0.88323 0.48719 0.0
C3719 C 0.55357 0.87148 0.48951 0.0
C3720 C 0.54643 0.8842 0.45679 0.0
C3721 C 0.56266 0.86615 0.47511 0.0
C3722 C 0.55081 0.88206 0.42522 0.0
C3723 C 0.53302 0.91209 0.42013 0.0
N3724 N 0.55891 0.87248 0.45948 0.0
N3725 N 0.53502 0.90551 0.43613 0.0
H3726 H 0.86588 0.81425 0.25091 0.0
H3727 H 0.8368 0.76749 0.16521 0.0
H3728 H 0.89019 0.76844 0.23333 0.0
H3729 H 0.83544 0.82174 0.17182 0.0
H3730 H 0.84935 0.76461 0.19392 0.0
H3731 H 0.84745 0.81389 0.22584 0.0
C3732 C 0.86692 0.80376 0.24215 0.0
C3733 C 0.87936 0.79116 0.24443 0.0
C3734 C 0.84599 0.7771 0.18918 0.0
C3735 C 0.8585 0.79087 0.21542 0.0
C3736 C 0.83872 0.77871 0.17294 0.0
C3737 C 0.835 0.79486 0.16634 0.0
C3738 C 0.84923 0.79175 0.19892 0.0
C3739 C 0.83805 0.8091 0.17661 0.0
C3740 C 0.85655 0.8037 0.22767 0.0
C3741 C 0.88062 0.77829 0.23212 0.0
N3742 N 0.84495 0.80723 0.19238 0.0
N3743 N 0.87033 0.77845 0.21813 0.0
H3744 H 0.52591 0.94789 0.85485 0.0
H3745 H 0.58191 0.98281 0.93055 0.0
H3746 H 0.50188 0.97843 0.89352 0.0
H3747 H 0.59179 0.93573 0.90435 0.0
H3748 H 0.5532 0.98349 0.91758 0.0
H3749 H 0.55119 0.94567 0.87245 0.0
C3750 C 0.52601 0.95424 0.86708 0.0
C3751 C 0.51184 0.96349 0.87268 0.0
C3752 C 0.56161 0.9729 0.91496 0.0
C3753 C 0.54102 0.96108 0.89303 0.0
C3754 C 0.57791 0.97248 0.92237 0.0
C3755 C 0.58931 0.95933 0.91826 0.0
C3756 C 0.55688 0.96014 0.90335 0.0
C3757 C 0.58357 0.9463 0.90754 0.0
C3758 C 0.54044 0.95286 0.87721 0.0
C3759 C 0.5126 0.97122 0.88877 0.0
N3760 N 0.56791 0.94715 0.90034 0.0
N3761 N 0.52711 0.97006 0.89836 0.0
H3762 H 0.79702 0.83264 0.67471 0.0
H3763 H 0.75763 0.76628 0.60801 0.0
H3764 H 0.76412 0.84539 0.63268 0.0
H3765 H 0.80003 0.75309 0.64031 0.0
H3766 H 0.75553 0.79365 0.62227 0.0
H3767 H 0.79476 0.80236 0.66678 0.0
C3768 C 0.7892 0.82906 0.66394 0.0
C3769 C 0.78088 0.84159 0.65423 0.0
C3770 C 0.76517 0.78473 0.62647 0.0
C3771 C 0.77808 0.80708 0.64523 0.0
C3772 C 0.76625 0.76897 0.61844 0.0
C3773 C 0.77913 0.7574 0.6228 0.0
C3774 C 0.77715 0.78917 0.63897 0.0
C3775 C 0.78991 0.76162 0.63648 0.0
C3776 C 0.78796 0.81181 0.6594 0.0
C3777 C 0.77098 0.83625 0.64036 0.0
N3778 N 0.78889 0.77731 0.64389 0.0
N3779 N 0.76988 0.8195 0.63632 0.0
H3780 H 0.97656 0.01614 0.36194 0.0
H3781 H 0.90573 0.06891 0.40555 0.0
H3782 H 0.99074 0.06133 0.38944 0.0
H3783 H 0.90615 0.01475 0.41345 0.0
H3784 H 0.93552 0.06745 0.3959 0.0
H3785 H 0.94924 0.01574 0.37724 0.0
C3786 C 0.974 0.02577 0.37145 0.0
C3787 C 0.9859 0.03865 0.37466 0.0
C3788 C 0.92912 0.05593 0.39991 0.0
C3789 C 0.95458 0.03871 0.39152 0.0
C3790 C 0.91218 0.05675 0.40529 0.0
C3791 C 0.90361 0.04192 0.41024 0.0
C3792 C 0.93732 0.04009 0.39896 0.0
C3793 C 0.91244 0.02643 0.40976 0.0
C3794 C 0.95847 0.02555 0.38012 0.0
C3795 C 0.98195 0.05105 0.38684 0.0
N3796 N 0.92876 0.02584 0.4039 0.0
N3797 N 0.96644 0.05099 0.39461 0.0
H3798 H 0.73793 0.15794 0.13288 0.0
H3799 H 0.69969 0.25215 0.13746 0.0
H3800 H 0.70303 0.1722 0.17266 0.0
H3801 H 0.74218 0.23695 0.10625 0.0
H3802 H 0.70089 0.22426 0.15184 0.0
H3803 H 0.73932 0.18742 0.12372 0.0
C3804 C 0.73048 0.16728 0.1397 0.0
C3805 C 0.7202 0.16241 0.15348 0.0
C3806 C 0.71012 0.22719 0.14205 0.0
C3807 C 0.72179 0.19677 0.14298 0.0
C3808 C 0.70957 0.24321 0.13393 0.0
C3809 C 0.72074 0.24695 0.1204 0.0
C3810 C 0.72195 0.21484 0.13663 0.0
C3811 C 0.73315 0.2347 0.11641 0.0
C3812 C 0.73137 0.18426 0.13452 0.0
C3813 C 0.71113 0.17533 0.16198 0.0
N3814 N 0.73325 0.21928 0.12426 0.0
N3815 N 0.71197 0.19187 0.15649 0.0
H3816 H 0.57324 0.04862 0.56123 0.0
H3817 H 0.51104 0.02319 0.6379 0.0
H3818 H 0.58944 0.03341 0.61142 0.0
H3819 H 0.49644 0.05969 0.59974 0.0
H3820 H 0.5376 0.0181 0.62252 0.0
H3821 H 0.54335 0.04503 0.57026 0.0
C3822 C 0.57054 0.04438 0.57405 0.0
C3823 C 0.58389 0.04158 0.58565 0.0
C3824 C 0.52831 0.02677 0.61715 0.0
C3825 C 0.54986 0.03712 0.5959 0.0
C3826 C 0.51296 0.02942 0.62576 0.0
C3827 C 0.50137 0.04172 0.62001 0.0
C3828 C 0.53213 0.03648 0.60263 0.0
C3829 C 0.50487 0.04985 0.60446 0.0
C3830 C 0.55352 0.04236 0.57919 0.0
C3831 C 0.57962 0.03607 0.60212 0.0
N3832 N 0.52006 0.04731 0.59644 0.0
N3833 N 0.56307 0.03405 0.60673 0.0
H3834 H 0.70841 0.83374 0.31261 0.0
H3835 H 0.71094 0.76635 0.38978 0.0
H3836 H 0.71463 0.848 0.36526 0.0
H3837 H 0.70696 0.75208 0.33695 0.0
H3838 H 0.7128 0.79629 0.3811 0.0
H3839 H 0.70883 0.80379 0.32119 0.0
C3840 C 0.70995 0.83066 0.32594 0.0
C3841 C 0.71121 0.84361 0.33818 0.0
C3842 C 0.71155 0.7866 0.3714 0.0
C3843 C 0.71152 0.80912 0.34819 0.0
C3844 C 0.71046 0.76948 0.37637 0.0
C3845 C 0.70893 0.75657 0.3641 0.0
C3846 C 0.71087 0.79097 0.35402 0.0
C3847 C 0.70834 0.7615 0.34689 0.0
C3848 C 0.7101 0.81349 0.33087 0.0
C3849 C 0.71316 0.83863 0.35532 0.0
N3850 N 0.70925 0.77822 0.34239 0.0
N3851 N 0.71317 0.82188 0.35979 0.0
H3852 H 0.90389 0.93645 0.10489 0.0
H3853 H 0.97621 0.98957 0.14463 0.0
H3854 H 0.90758 0.98918 0.09067 0.0
H3855 H 0.9894 0.94184 0.12123 0.0
H3856 H 0.94923 0.9896 0.12869 0.0
H3857 H 0.93363 0.93735 0.11493 0.0
C3858 C 0.91107 0.94816 0.10383 0.0
C3859 C 0.90346 0.96276 0.097 0.0
C3860 C 0.95818 0.97928 0.12686 0.0
C3861 C 0.937 0.96402 0.10872 0.0
C3862 C 0.9735 0.97926 0.1359 0.0
C3863 C 0.98501 0.96579 0.13402 0.0
C3864 C 0.9541 0.96538 0.11647 0.0
C3865 C 0.9809 0.95256 0.12279 0.0
C3866 C 0.92795 0.94865 0.10943 0.0
C3867 C 0.91315 0.97768 0.09582 0.0
N3868 N 0.96557 0.95249 0.11467 0.0
N3869 N 0.92936 0.97805 0.10195 0.0
H3870 H 0.79264 0.23289 0.89071 0.0
H3871 H 0.79384 0.16729 0.81256 0.0
H3872 H 0.80223 0.24682 0.8385 0.0
H3873 H 0.7885 0.15182 0.86498 0.0
H3874 H 0.79259 0.19698 0.8216 0.0
H3875 H 0.78658 0.20366 0.88133 0.0
C3876 C 0.79306 0.2299 0.87726 0.0
C3877 C 0.79802 0.24224 0.86537 0.0
C3878 C 0.7916 0.18708 0.83113 0.0
C3879 C 0.79141 0.20894 0.85458 0.0
C3880 C 0.79224 0.17009 0.82594 0.0
C3881 C 0.79155 0.15696 0.83801 0.0
C3882 C 0.79023 0.19104 0.84854 0.0
C3883 C 0.78953 0.16147 0.85523 0.0
C3884 C 0.78977 0.2132 0.87192 0.0
C3885 C 0.79861 0.23764 0.84812 0.0
N3886 N 0.78906 0.17809 0.85998 0.0
N3887 N 0.79549 0.22139 0.84328 0.0
H3888 H 0.86427 0.52338 0.95552 0.0
H3889 H 0.93639 0.59207 0.97786 0.0
H3890 H 0.91256 0.51002 0.97813 0.0
H3891 H 0.88738 0.60472 0.9564 0.0
H3892 H 0.92832 0.56203 0.97761 0.0
H3893 H 0.8728 0.55319 0.95559 0.0
C3894 C 0.87669 0.52669 0.96051 0.0
C3895 C 0.8877 0.5141 0.96685 0.0
C3896 C 0.91934 0.5714 0.97297 0.0
C3897 C 0.89762 0.54843 0.96692 0.0
C3898 C 0.92398 0.58859 0.97299 0.0
C3899 C 0.91256 0.60109 0.96716 0.0
C3900 C 0.90315 0.56658 0.96704 0.0
C3901 C 0.89655 0.59569 0.96125 0.0
C3902 C 0.88156 0.54377 0.96055 0.0
C3903 C 0.90361 0.51926 0.9732 0.0
N3904 N 0.89236 0.57891 0.96134 0.0
N3905 N 0.9081 0.53601 0.97304 0.0
H3906 H 0.43414 0.92329 0.05206 0.0
H3907 H 0.36322 0.98762 0.01601 0.0
H3908 H 0.38891 0.90852 0.02482 0.0
H3909 H 0.39683 0.00224 0.05688 0.0
H3910 H 0.37747 0.96018 0.01448 0.0
H3911 H 0.42497 0.95333 0.05005 0.0
C3912 C 0.42241 0.92638 0.0455 0.0
C3913 C 0.41221 0.91335 0.0387 0.0
C3914 C 0.38193 0.96942 0.02366 0.0
C3915 C 0.40177 0.9476 0.03616 0.0
C3916 C 0.37387 0.98523 0.02446 0.0
C3917 C 0.37862 0.99732 0.03674 0.0
C3918 C 0.39499 0.96542 0.03521 0.0
C3919 C 0.39267 0.99337 0.04721 0.0
C3920 C 0.41715 0.94349 0.04443 0.0
C3921 C 0.39707 0.91808 0.03043 0.0
N3922 N 0.4002 0.97767 0.04638 0.0
N3923 N 0.39238 0.9347 0.02938 0.0
H3924 H 0.75606 0.64152 0.80998 0.0
H3925 H 0.84393 0.67272 0.76983 0.0
H3926 H 0.77947 0.61534 0.76787 0.0
H3927 H 0.83621 0.67026 0.82398 0.0
H3928 H 0.81566 0.6597 0.76554 0.0
H3929 H 0.78108 0.66023 0.81174 0.0
C3930 C 0.76628 0.63998 0.80086 0.0
C3931 C 0.76578 0.62688 0.78877 0.0
C3932 C 0.82007 0.66234 0.77833 0.0
C3933 C 0.79412 0.64828 0.79057 0.0
C3934 C 0.83603 0.66985 0.78075 0.0
C3935 C 0.8422 0.67256 0.79726 0.0
C3936 C 0.81014 0.65795 0.79253 0.0
C3937 C 0.83175 0.66837 0.81109 0.0
C3938 C 0.78054 0.65057 0.80195 0.0
C3939 C 0.77945 0.62527 0.7774 0.0
N3940 N 0.81618 0.66129 0.80843 0.0
N3941 N 0.79308 0.63588 0.77854 0.0
H3942 H 0.07178 0.08841 0.54615 0.0
H3943 H 0.15436 0.03096 0.53 0.0
H3944 H 0.1223 0.1076 0.5364 0.0
H3945 H 0.10702 0.00941 0.5476 0.0
H3946 H 0.14113 0.05878 0.52901 0.0
H3947 H 0.0829 0.05926 0.54401 0.0
C3948 C 0.08517 0.08652 0.54349 0.0
C3949 C 0.09614 0.10052 0.54156 0.0
C3950 C 0.13352 0.04802 0.53303 0.0
C3951 C 0.10889 0.06727 0.53907 0.0
C3952 C 0.14108 0.03206 0.53355 0.0
C3953 C 0.13184 0.01782 0.53905 0.0
C3954 C 0.11651 0.04997 0.53811 0.0
C3955 C 0.1146 0.02005 0.54328 0.0
C3956 C 0.0915 0.06989 0.54234 0.0
C3957 C 0.11339 0.09728 0.53827 0.0
N3958 N 0.1075 0.0359 0.54287 0.0
N3959 N 0.11918 0.08107 0.53712 0.0
H3960 H 0.17339 0.82263 0.80185 0.0
H3961 H 0.23952 0.88635 0.7577 0.0
H3962 H 0.1601 0.86445 0.76898 0.0
H3963 H 0.25261 0.85894 0.80342 0.0
H3964 H 0.21222 0.87171 0.75694 0.0
H3965 H 0.20374 0.83026 0.79871 0.0
C3966 C 0.17688 0.83331 0.79388 0.0
C3967 C 0.16422 0.84306 0.78581 0.0
C3968 C 0.22114 0.86864 0.76701 0.0
C3969 C 0.19873 0.85159 0.7819 0.0
C3970 C 0.23684 0.87686 0.76734 0.0
C3971 C 0.24828 0.87409 0.78078 0.0
C3972 C 0.21668 0.85754 0.78025 0.0
C3973 C 0.24413 0.86154 0.79286 0.0
C3974 C 0.19414 0.83766 0.79213 0.0
C3975 C 0.16939 0.85678 0.77565 0.0
N3976 N 0.22848 0.85395 0.79252 0.0
N3977 N 0.18617 0.86059 0.77398 0.0
H3978 H 0.56401 0.42723 0.46743 0.0
H3979 H 0.64897 0.48318 0.47703 0.0
H3980 H 0.61519 0.40764 0.46673 0.0
H3981 H 0.60224 0.50445 0.45789 0.0
H3982 H 0.63421 0.45637 0.48257 0.0
H3983 H 0.5756 0.45614 0.47195 0.0
C3984 C 0.57763 0.42899 0.46853 0.0
C3985 C 0.58869 0.41508 0.46656 0.0
C3986 C 0.627 0.46705 0.47768 0.0
C3987 C 0.60198 0.44787 0.47198 0.0
C3988 C 0.63536 0.48249 0.47485 0.0
C3989 C 0.62677 0.49621 0.46734 0.0
C3990 C 0.60988 0.46516 0.47281 0.0
C3991 C 0.60926 0.49433 0.46407 0.0
C3992 C 0.58424 0.44544 0.47104 0.0
C3993 C 0.60626 0.41804 0.46799 0.0
N3994 N 0.60143 0.47901 0.46658 0.0
N3995 N 0.61232 0.43402 0.47059 0.0
H3996 H 0.84355 0.35352 0.7488 0.0
H3997 H 0.75554 0.36301 0.69786 0.0
H3998 H 0.83614 0.33148 0.69929 0.0
H3999 H 0.76711 0.38699 0.74576 0.0
H4000 H 0.78237 0.34693 0.69992 0.0
H4001 H 0.81346 0.36126 0.7497 0.0
C4002 C 0.83544 0.35011 0.73819 0.0
C4003 C 0.84236 0.34193 0.72394 0.0
C4004 C 0.77883 0.35544 0.71015 0.0
C4005 C 0.80768 0.35113 0.7246 0.0
C4006 C 0.76337 0.36449 0.70909 0.0
C4007 C 0.759 0.37647 0.72165 0.0
C4008 C 0.78993 0.35827 0.72395 0.0
C4009 C 0.76991 0.37797 0.73574 0.0
C4010 C 0.81823 0.35457 0.73865 0.0
C4011 C 0.83127 0.33774 0.71054 0.0
N4012 N 0.78482 0.36918 0.73641 0.0
N4013 N 0.81452 0.3426 0.71107 0.0
H4014 H 0.66696 0.67705 0.20338 0.0
H4015 H 0.72501 0.59977 0.23562 0.0
H4016 H 0.64834 0.63146 0.22758 0.0
H4017 H 0.74551 0.6407 0.20538 0.0
H4018 H 0.69741 0.61363 0.23543 0.0
H4019 H 0.69615 0.66601 0.20593 0.0
C4020 C 0.66899 0.66476 0.20925 0.0
C4021 C 0.65514 0.65511 0.21518 0.0
C4022 C 0.70789 0.61973 0.2289 0.0
C4023 C 0.68841 0.64252 0.21823 0.0
C4024 C 0.72372 0.61183 0.22907 0.0
C4025 C 0.73753 0.61906 0.22043 0.0
C4026 C 0.70569 0.63498 0.21987 0.0
C4027 C 0.73516 0.63477 0.21227 0.0
C4028 C 0.68564 0.65847 0.21066 0.0
C4029 C 0.65852 0.63923 0.22256 0.0
N4030 N 0.71943 0.64217 0.21203 0.0
N4031 N 0.67474 0.63349 0.22388 0.0
H4032 H 0.5385 0.60921 1.00257 0.0
H4033 H 0.56398 0.6092 0.90436 0.0
H4034 H 0.55199 0.65356 0.97311 0.0
H4035 H 0.52751 0.57267 0.92277 0.0
H4036 H 0.56576 0.62147 0.93274 0.0
H4037 H 0.53911 0.59217 0.97612 0.0
C4038 C 0.54152 0.61535 0.99061 0.0
C4039 C 0.54505 0.63287 0.99004 0.0
C4040 C 0.55744 0.61068 0.93067 0.0
C4041 C 0.54624 0.61352 0.96014 0.0
C4042 C 0.55646 0.60367 0.91449 0.0
C4043 C 0.54535 0.59014 0.91119 0.0
C4044 C 0.5472 0.60421 0.94377 0.0
C4045 C 0.53617 0.58316 0.92486 0.0
C4046 C 0.54187 0.60565 0.9756 0.0
C4047 C 0.549 0.64018 0.97424 0.0
N4048 N 0.53711 0.59044 0.94061 0.0
N4049 N 0.54959 0.63048 0.96004 0.0
H4050 H 0.68074 0.27419 0.1611 0.0
H4051 H 0.61173 0.29636 0.23283 0.0
H4052 H 0.63154 0.29642 0.15084 0.0
H4053 H 0.66054 0.27384 0.24433 0.0
H4054 H 0.61901 0.29627 0.20275 0.0
H4055 H 0.67396 0.27404 0.19151 0.0
C4056 C 0.66856 0.27914 0.16521 0.0
C4057 C 0.65669 0.28531 0.1533 0.0
C4058 C 0.62815 0.2913 0.2118 0.0
C4059 C 0.64878 0.28499 0.18816 0.0
C4060 C 0.624 0.29135 0.22905 0.0
C4061 C 0.63555 0.28512 0.24121 0.0
C4062 C 0.64401 0.28498 0.20651 0.0
C4063 C 0.65122 0.27872 0.23542 0.0
C4064 C 0.66466 0.27894 0.18259 0.0
C4065 C 0.64101 0.29132 0.15944 0.0
N4066 N 0.65501 0.27885 0.2185 0.0
N4067 N 0.63755 0.29101 0.17638 0.0
H4068 H 0.95205 0.39709 0.50112 0.0
H4069 H 0.97704 0.39311 0.40227 0.0
H4070 H 0.98041 0.35677 0.4771 0.0
H4071 H 0.95077 0.43624 0.42334 0.0
H4072 H 0.9804 0.38135 0.43073 0.0
H4073 H 0.95327 0.41333 0.4742 0.0
C4074 C 0.95878 0.3918 0.49033 0.0
C4075 C 0.96604 0.37548 0.49135 0.0
C4076 C 0.97402 0.39348 0.42932 0.0
C4077 C 0.96738 0.39386 0.4606 0.0
C4078 C 0.97214 0.40019 0.41302 0.0
C4079 C 0.96358 0.41561 0.41046 0.0
C4080 C 0.96706 0.40206 0.44339 0.0
C4081 C 0.95753 0.42434 0.42484 0.0
C4082 C 0.95939 0.40102 0.47495 0.0
C4083 C 0.97447 0.36919 0.47693 0.0
N4084 N 0.95917 0.41733 0.44071 0.0
N4085 N 0.9748 0.37829 0.46225 0.0
H4086 H 0.83511 0.73902 0.66177 0.0
H4087 H 0.87218 0.68875 0.74241 0.0
H4088 H 0.8509 0.68665 0.65947 0.0
H4089 H 0.88474 0.74126 0.73335 0.0
H4090 H 0.85627 0.68826 0.71544 0.0
H4091 H 0.84559 0.74042 0.6914 0.0
C4092 C 0.84054 0.72778 0.66761 0.0
C4093 C 0.84225 0.71273 0.65818 0.0
C4094 C 0.86219 0.69999 0.71956 0.0
C4095 C 0.8539 0.71411 0.69197 0.0
C4096 C 0.8711 0.70032 0.73501 0.0
C4097 C 0.87955 0.71514 0.74018 0.0
C4098 C 0.8615 0.71466 0.70934 0.0
C4099 C 0.87818 0.72967 0.72987 0.0
C4100 C 0.84657 0.7286 0.68442 0.0
C4101 C 0.84948 0.69852 0.66627 0.0
N4102 N 0.86931 0.72909 0.71495 0.0
N4103 N 0.85497 0.69953 0.68268 0.0
H4104 H 0.55749 0.39319 0.60482 0.0
H4105 H 0.5346 0.39818 0.50613 0.0
H4106 H 0.53322 0.43691 0.58251 0.0
H4107 H 0.55986 0.35624 0.5308 0.0
H4108 H 0.52882 0.41076 0.53428 0.0
H4109 H 0.55312 0.3775 0.57844 0.0
C4110 C 0.55108 0.39937 0.59428 0.0
C4111 C 0.54588 0.4163 0.59559 0.0
C4112 C 0.53528 0.39862 0.53352 0.0
C4113 C 0.54115 0.39872 0.56518 0.0
C4114 C 0.53845 0.39143 0.51752 0.0
C4115 C 0.54775 0.37627 0.51634 0.0
C4116 C 0.54142 0.39043 0.54824 0.0
C4117 C 0.55274 0.36803 0.53129 0.0
C4118 C 0.54856 0.39047 0.57923 0.0
C4119 C 0.53743 0.42383 0.5818 0.0
N4120 N 0.54962 0.37527 0.5466 0.0
N4121 N 0.53559 0.41507 0.56695 0.0
H4122 H 0.89172 0.27323 0.76812 0.0
H4123 H 0.81599 0.29187 0.83182 0.0
H4124 H 0.85071 0.30468 0.7499 0.0
H4125 H 0.86913 0.3013 0.84259 0.0
H4126 H 0.82353 0.2869 0.80182 0.0
H4127 H 0.87737 0.27098 0.79566 0.0
C4128 C 0.87913 0.27871 0.76954 0.0
C4129 C 0.87232 0.28902 0.75667 0.0
C4130 C 0.83342 0.28998 0.81092 0.0
C4131 C 0.85614 0.28698 0.78827 0.0
C4132 C 0.82917 0.29303 0.82802 0.0
C4133 C 0.84195 0.29683 0.84006 0.0
C4134 C 0.85058 0.2903 0.80597 0.0
C4135 C 0.85882 0.29797 0.83413 0.0
C4136 C 0.87114 0.27773 0.78537 0.0
C4137 C 0.85624 0.29639 0.75943 0.0
N4138 N 0.86262 0.2945 0.81766 0.0
N4139 N 0.84881 0.29555 0.7751 0.0
H4140 H 0.99839 0.64159 0.01875 0.0
H4141 H 0.95083 0.5721 0.07671 0.0
H4142 H 0.95443 0.61408 1.00088 0.0
H4143 H 0.98843 0.60766 0.09443 0.0
H4144 H 0.95508 0.58277 0.04736 0.0
H4145 H 0.99857 0.62426 0.04444 0.0
C4146 C 0.98898 0.63161 0.02004 0.0
C4147 C 0.97631 0.62946 0.00761 0.0
C4148 C 0.96259 0.58803 0.05764 0.0
C4149 C 0.97612 0.60967 0.03754 0.0
C4150 C 0.96025 0.58186 0.07432 0.0
C4151 C 0.96934 0.58902 0.08794 0.0
C4152 C 0.97426 0.6013 0.05461 0.0
C4153 C 0.98118 0.60184 0.08427 0.0
C4154 C 0.98899 0.62178 0.03485 0.0
C4155 C 0.96447 0.61622 0.01007 0.0
N4156 N 0.98326 0.60755 0.06807 0.0
N4157 N 0.96448 0.60703 0.02487 0.0
H4158 H 0.68937 0.70924 0.33092 0.0
H4159 H 0.61399 0.71694 0.2632 0.0
H4160 H 0.63771 0.69371 0.34125 0.0
H4161 H 0.66664 0.7156 0.24791 0.0
H4162 H 0.62266 0.71066 0.29247 0.0
H4163 H 0.68184 0.71275 0.30085 0.0
C4164 C 0.67653 0.7063 0.3269 0.0
C4165 C 0.6641 0.70146 0.33882 0.0
C4166 C 0.63234 0.71165 0.28272 0.0
C4167 C 0.65529 0.7059 0.3044 0.0
C4168 C 0.62738 0.71519 0.26599 0.0
C4169 C 0.63955 0.71621 0.253 0.0
C4170 C 0.6497 0.70962 0.28664 0.0
C4171 C 0.65681 0.71464 0.25751 0.0
C4172 C 0.67221 0.70845 0.30971 0.0
C4173 C 0.64764 0.69791 0.3327 0.0
N4174 N 0.66138 0.7114 0.27393 0.0
N4175 N 0.64368 0.70041 0.31603 0.0
H4176 H 0.92848 0.53001 0.56548 0.0
H4177 H 0.99069 0.53888 0.64643 0.0
H4178 H 0.91384 0.55521 0.61176 0.0
H4179 H 0.00982 0.53427 0.59529 0.0
H4180 H 0.96154 0.53951 0.63511 0.0
H4181 H 0.95737 0.52585 0.57733 0.0
C4182 C 0.93126 0.53432 0.57826 0.0
C4183 C 0.91875 0.54288 0.58771 0.0
C4184 C 0.97212 0.53837 0.62635 0.0
C4185 C 0.95167 0.53819 0.60137 0.0
C4186 C 0.98879 0.53822 0.63281 0.0
C4187 C 1.00284 0.53724 0.6218 0.0
C4188 C 0.9693 0.53702 0.60872 0.0
C4189 C 0.99945 0.53532 0.60429 0.0
C4190 C 0.94776 0.5321 0.58496 0.0
C4191 C 0.92312 0.54851 0.6041 0.0
N4192 N 0.9831 0.53533 0.59831 0.0
N4193 N 0.93911 0.54604 0.61041 0.0
H4194 H 0.70728 0.74885 0.8612 0.0
H4195 H 0.72935 0.64956 0.86528 0.0
H4196 H 0.72801 0.72274 0.90487 0.0
H4197 H 0.70625 0.67254 0.82117 0.0
H4198 H 0.73216 0.67748 0.87822 0.0
H4199 H 0.70975 0.72237 0.84472 0.0
C4200 C 0.71257 0.73764 0.86724 0.0
C4201 C 0.71734 0.73796 0.88448 0.0
C4202 C 0.72654 0.67656 0.86567 0.0
C4203 C 0.72014 0.70775 0.86578 0.0
C4204 C 0.72491 0.66058 0.85831 0.0
C4205 C 0.71731 0.65875 0.84228 0.0
C4206 C 0.72036 0.69096 0.85708 0.0
C4207 C 0.71212 0.67348 0.8336 0.0
C4208 C 0.71391 0.72254 0.85785 0.0
C4209 C 0.72402 0.72308 0.89169 0.0
N4210 N 0.71353 0.68901 0.84121 0.0
N4211 N 0.72513 0.70863 0.88235 0.0
H4212 H 0.60952 0.48224 0.12281 0.0
H4213 H 0.51257 0.45201 0.11305 0.0
H4214 H 0.59195 0.45524 0.07846 0.0
H4215 H 0.53238 0.48207 0.15445 0.0
H4216 H 0.54048 0.45416 0.09879 0.0
H4217 H 0.58049 0.48323 0.13345 0.0
C4218 C 0.5995 0.47645 0.11533 0.0
C4219 C 0.6032 0.46848 0.09984 0.0
C4220 C 0.53859 0.46043 0.1109 0.0
C4221 C 0.56963 0.46957 0.11194 0.0
C4222 C 0.52267 0.45929 0.11898 0.0
C4223 C 0.52021 0.46677 0.13502 0.0
C4224 C 0.55201 0.46916 0.11896 0.0
C4225 C 0.53373 0.47592 0.14221 0.0
C4226 C 0.58285 0.4771 0.12135 0.0
C4227 C 0.58962 0.46153 0.09047 0.0
N4228 N 0.54898 0.47677 0.1342 0.0
N4229 N 0.57342 0.46207 0.09675 0.0
H4230 H 0.7618 0.34033 0.35856 0.0
H4231 H 0.8081 0.24943 0.36155 0.0
H4232 H 0.80766 0.33015 0.33051 0.0
H4233 H 0.76379 0.26332 0.39075 0.0
H4234 H 0.80588 0.27659 0.34606 0.0
H4235 H 0.76005 0.31032 0.36639 0.0
C4236 C 0.77138 0.33162 0.35386 0.0
C4237 C 0.78487 0.3377 0.34391 0.0
C4238 C 0.79646 0.27352 0.35562 0.0
C4239 C 0.78329 0.30313 0.35316 0.0
C4240 C 0.7976 0.2579 0.36437 0.0
C4241 C 0.78622 0.2541 0.37768 0.0
C4242 C 0.78371 0.28531 0.36006 0.0
C4243 C 0.77297 0.2657 0.38075 0.0
C4244 C 0.77045 0.31447 0.35836 0.0
C4245 C 0.79701 0.3259 0.33813 0.0
N4246 N 0.77221 0.28073 0.37221 0.0
N4247 N 0.79608 0.30921 0.34303 0.0
H4248 H 0.91554 0.45586 0.8921 0.0
H4249 H 0.99384 0.48324 0.87177 0.0
H4250 H 0.92596 0.47394 0.94296 0.0
H4251 H 0.0053 0.44537 0.90965 0.0
H4252 H 0.96667 0.48883 0.88604 0.0
H4253 H 0.9455 0.45912 0.88517 0.0
C4254 C 0.924 0.46065 0.90183 0.0
C4255 C 0.91795 0.46502 0.91807 0.0
C4256 C 0.97557 0.47994 0.89172 0.0
C4257 C 0.95254 0.46841 0.91012 0.0
C4258 C 0.99117 0.47694 0.88375 0.0
C4259 C 1.00185 0.46395 0.88965 0.0
C4260 C 0.97072 0.46988 0.90566 0.0
C4261 C 0.99746 0.45566 0.90487 0.0
C4262 C 0.94113 0.46248 0.89781 0.0
C4263 C 0.92995 0.47047 0.93027 0.0
N4264 N 0.98198 0.45844 0.91217 0.0
N4265 N 0.94677 0.47193 0.92608 0.0
H4266 H 0.7758 0.67019 0.18562 0.0
H4267 H 0.80464 0.72266 0.10513 0.0
H4268 H 0.82101 0.65909 0.1566 0.0
H4269 H 0.78263 0.75052 0.14696 0.0
H4270 H 0.80639 0.69756 0.123 0.0
H4271 H 0.77448 0.69847 0.17173 0.0
C4272 C 0.78557 0.67375 0.17659 0.0
C4273 C 0.79834 0.66205 0.17203 0.0
C4274 C 0.80115 0.70912 0.12835 0.0
C4275 C 0.79672 0.69406 0.15597 0.0
C4276 C 0.80001 0.7235 0.11809 0.0
C4277 C 0.79336 0.73879 0.12446 0.0
C4278 C 0.79534 0.70968 0.14521 0.0
C4279 C 0.78783 0.739 0.14151 0.0
C4280 C 0.78477 0.68984 0.16864 0.0
C4281 C 0.81064 0.66739 0.1602 0.0
N4282 N 0.78878 0.72458 0.1513 0.0
N4283 N 0.80937 0.68278 0.15247 0.0
H4284 H 0.59278 0.51208 0.40829 0.0
H4285 H 0.50045 0.55453 0.39438 0.0
H4286 H 0.58071 0.56381 0.4216 0.0
H4287 H 0.51841 0.51153 0.36551 0.0
H4288 H 0.52713 0.55418 0.41066 0.0
H4289 H 0.56322 0.50819 0.39844 0.0
C4290 C 0.58386 0.52253 0.40937 0.0
C4291 C 0.58931 0.53835 0.41559 0.0
C4292 C 0.52508 0.54462 0.40097 0.0
C4293 C 0.5554 0.53397 0.40452 0.0
C4294 C 0.50971 0.54468 0.39178 0.0
C4295 C 0.50718 0.5332 0.37831 0.0
C4296 C 0.53791 0.53277 0.39695 0.0
C4297 C 0.51983 0.52078 0.37561 0.0
C4298 C 0.56702 0.52034 0.40369 0.0
C4299 C 0.57717 0.55148 0.41664 0.0
N4300 N 0.53464 0.52099 0.38468 0.0
N4301 N 0.56087 0.54902 0.41116 0.0
H4302 H 0.69684 0.26148 0.63655 0.0
H4303 H 0.74093 0.34982 0.65696 0.0
H4304 H 0.7366 0.28087 0.60408 0.0
H4305 H 0.68631 0.34506 0.65658 0.0
H4306 H 0.7432 0.32084 0.64511 0.0
H4307 H 0.69657 0.28874 0.65189 0.0
C4308 C 0.70574 0.27134 0.63291 0.0
C4309 C 0.71676 0.26902 0.61906 0.0
C4310 C 0.73076 0.32615 0.64779 0.0
C4311 C 0.71669 0.29985 0.63661 0.0
C4312 C 0.72948 0.34254 0.65455 0.0
C4313 C 0.71343 0.3497 0.65755 0.0
C4314 C 0.71589 0.31679 0.6446 0.0
C4315 C 0.69888 0.33992 0.65423 0.0
C4316 C 0.7055 0.28685 0.64156 0.0
C4317 C 0.7279 0.28225 0.61468 0.0
N4318 N 0.70044 0.32387 0.64802 0.0
N4319 N 0.72766 0.29711 0.62349 0.0
H4320 H 0.61578 0.90639 0.55186 0.0
H4321 H 0.58821 1.0002 0.52297 0.0
H4322 H 0.56473 0.91816 0.53522 0.0
H4323 H 0.63605 0.98722 0.54679 0.0
H4324 H 0.5796 0.97016 0.525 0.0
H4325 H 0.62371 0.93591 0.54766 0.0
C4326 C 0.60617 0.91521 0.54742 0.0
C4327 C 0.5895 0.90977 0.54412 0.0
C4328 C 0.59199 0.97395 0.5297 0.0
C4329 C 0.59859 0.94382 0.53903 0.0
C4330 C 0.59693 0.99105 0.52848 0.0
C4331 C 0.61286 0.99623 0.53471 0.0
C4332 C 0.60316 0.96204 0.53704 0.0
C4333 C 0.62361 0.98388 0.54187 0.0
C4334 C 0.61074 0.93211 0.54492 0.0
C4335 C 0.57775 0.92176 0.53789 0.0
N4336 N 0.61857 0.96743 0.5428 0.0
N4337 N 0.58249 0.93828 0.53562 0.0
H4338 H 0.10865 0.50032 0.44936 0.0
H4339 H 0.09438 0.59354 0.48845 0.0
H4340 H 0.13518 0.52046 0.49295 0.0
H4341 H 0.07629 0.57985 0.43865 0.0
H4342 H 0.10413 0.56435 0.49287 0.0
H4343 H 0.09167 0.52656 0.44796 0.0
C4344 C 0.1106 0.50998 0.45895 0.0
C4345 C 0.12357 0.50814 0.47122 0.0
C4346 C 0.09785 0.56756 0.48103 0.0
C4347 C 0.10414 0.53832 0.46961 0.0
C4348 C 0.09222 0.58422 0.47855 0.0
C4349 C 0.08455 0.5891 0.46317 0.0
C4350 C 0.09596 0.55549 0.46799 0.0
C4351 C 0.08207 0.57655 0.45071 0.0
C4352 C 0.101 0.52507 0.45801 0.0
C4353 C 0.12548 0.52127 0.48318 0.0
N4354 N 0.08791 0.56033 0.45331 0.0
N4355 N 0.11604 0.53574 0.48199 0.0
H4356 H 0.6709 0.82209 0.70522 0.0
H4357 H 0.73662 0.8926 0.7396 0.0
H4358 H 0.6575 0.86565 0.73556 0.0
H4359 H 0.74973 0.85965 0.69781 0.0
H4360 H 0.70928 0.87828 0.74209 0.0
H4361 H 0.70095 0.83158 0.7056 0.0
C4362 C 0.67429 0.83351 0.7121 0.0
C4363 C 0.66158 0.84314 0.72027 0.0
C4364 C 0.71815 0.87397 0.73248 0.0
C4365 C 0.69591 0.85399 0.72091 0.0
C4366 C 0.73392 0.88208 0.73113 0.0
C4367 C 0.74559 0.87748 0.7184 0.0
C4368 C 0.71373 0.86101 0.721 0.0
C4369 C 0.74122 0.86364 0.70787 0.0
C4370 C 0.69141 0.83897 0.71224 0.0
C4371 C 0.66673 0.85792 0.7289 0.0
N4372 N 0.72557 0.85604 0.70926 0.0
N4373 N 0.68335 0.86281 0.729 0.0
H4374 H 0.36256 0.49049 0.9623 0.0
H4375 H 0.43942 0.42424 0.96024 0.0
H4376 H 0.41465 0.50729 0.96657 0.0
H4377 H 0.38981 0.4147 0.93856 0.0
H4378 H 0.43112 0.45391 0.96499 0.0
H4379 H 0.37253 0.46165 0.95724 0.0
C4380 C 0.37613 0.48813 0.96219 0.0
C4381 C 0.38776 0.50148 0.96449 0.0
C4382 C 0.42214 0.4453 0.95909 0.0
C4383 C 0.39936 0.46816 0.9589 0.0
C4384 C 0.42689 0.42833 0.95624 0.0
C4385 C 0.41522 0.41669 0.94918 0.0
C4386 C 0.40556 0.45066 0.95501 0.0
C4387 C 0.39914 0.42295 0.94439 0.0
C4388 C 0.38183 0.4716 0.95927 0.0
C4389 C 0.40521 0.49743 0.96475 0.0
N4390 N 0.39476 0.43936 0.94755 0.0
N4391 N 0.41051 0.48113 0.96191 0.0
H4392 H 0.34335 0.63111 0.72363 0.0
H4393 H 0.24606 0.66062 0.71534 0.0
H4394 H 0.32995 0.68365 0.71461 0.0
H4395 H 0.26284 0.60847 0.7143 0.0
H4396 H 0.27596 0.66984 0.71696 0.0
H4397 H 0.31374 0.62345 0.72201 0.0
C4398 C 0.33437 0.64119 0.72114 0.0
C4399 C 0.33969 0.6582 0.71899 0.0
C4400 C 0.2731 0.65639 0.71632 0.0
C4401 C 0.30475 0.64913 0.71746 0.0
C4402 C 0.25601 0.65108 0.71547 0.0
C4403 C 0.25183 0.63369 0.71447 0.0
C4404 C 0.28623 0.64423 0.71643 0.0
C4405 C 0.26534 0.62199 0.71471 0.0
C4406 C 0.31719 0.63667 0.72031 0.0
C4407 C 0.32675 0.67039 0.71629 0.0
N4408 N 0.2818 0.62745 0.71569 0.0
N4409 N 0.30995 0.66563 0.71561 0.0
H4410 H 0.92804 0.07611 0.06838 0.0
H4411 H 0.86479 0.02014 0.01309 0.0
H4412 H 0.90844 0.092 0.01982 0.0
H4413 H 0.89225 0.99979 0.05603 0.0
H4414 H 0.88311 0.04517 0.01357 0.0
H4415 H 0.91742 0.04714 0.06293 0.0
C4416 C 0.92169 0.07333 0.05647 0.0
C4417 C 0.91911 0.08627 0.04447 0.0
C4418 C 0.88541 0.03511 0.0227 0.0
C4419 C 0.90655 0.05348 0.03827 0.0
C4420 C 0.875 0.02071 0.02235 0.0
C4421 C 0.87686 0.00784 0.03461 0.0
C4422 C 0.89764 0.03689 0.03563 0.0
C4423 C 0.89031 0.00934 0.04633 0.0
C4424 C 0.91564 0.05687 0.05333 0.0
C4425 C 0.91076 0.08223 0.02926 0.0
N4426 N 0.89994 0.02377 0.04679 0.0
N4427 N 0.90457 0.06627 0.02668 0.0
H4428 H 0.65923 0.15086 0.75465 0.0
H4429 H 0.74431 0.13587 0.80913 0.0
H4430 H 0.66255 0.16645 0.807 0.0
H4431 H 0.7291 0.10648 0.76545 0.0
H4432 H 0.71797 0.1529 0.80629 0.0
H4433 H 0.68874 0.14104 0.7559 0.0
C4434 C 0.66631 0.15227 0.76639 0.0
C4435 C 0.65847 0.15915 0.7808 0.0
C4436 C 0.72059 0.14288 0.79721 0.0
C4437 C 0.69219 0.14775 0.7825 0.0
C4438 C 0.73561 0.13328 0.79874 0.0
C4439 C 0.73878 0.11979 0.78747 0.0
C4440 C 0.70898 0.13912 0.7841 0.0
C4441 C 0.72707 0.11674 0.77441 0.0
C4442 C 0.68311 0.14668 0.76713 0.0
C4443 C 0.66822 0.1611 0.79566 0.0
N4444 N 0.71276 0.12631 0.77307 0.0
N4445 N 0.68458 0.15518 0.79624 0.0
H4446 H 0.7766 0.89481 0.26688 0.0
H4447 H 0.83131 0.83165 0.32313 0.0
H4448 H 0.754 0.86433 0.30645 0.0
H4449 H 0.84681 0.84517 0.27231 0.0
H4450 H 0.80335 0.84428 0.31771 0.0
H4451 H 0.80249 0.87744 0.26864 0.0
C4452 C 0.77698 0.88426 0.27574 0.0
C4453 C 0.76305 0.88099 0.28647 0.0
C4454 C 0.81278 0.84435 0.30766 0.0
C4455 C 0.79295 0.86135 0.28895 0.0
C4456 C 0.82882 0.83724 0.31078 0.0
C4457 C 0.84155 0.83747 0.2982 0.0
C4458 C 0.80938 0.8521 0.29192 0.0
C4459 C 0.83741 0.84469 0.28236 0.0
C4460 C 0.79179 0.87436 0.27676 0.0
C4461 C 0.76433 0.86722 0.29781 0.0
N4462 N 0.8218 0.85193 0.27975 0.0
N4463 N 0.7791 0.85811 0.29895 0.0
H4464 H 0.47056 0.38874 0.09737 0.0
H4465 H 0.45889 0.41906 1.00097 0.0
H4466 H 0.46488 0.4412 0.0823 0.0
H4467 H 0.46214 0.36639 0.01581 0.0
H4468 H 0.46498 0.42743 0.03024 0.0
H4469 H 0.47097 0.38048 0.06748 0.0
C4470 C 0.46939 0.39857 0.08781 0.0
C4471 C 0.46739 0.41573 0.09249 0.0
C4472 C 0.46466 0.41404 0.0271 0.0
C4473 C 0.4681 0.40627 0.058 0.0
C4474 C 0.46127 0.40924 0.01035 0.0
C4475 C 0.46014 0.392 0.00589 0.0
C4476 C 0.46675 0.40151 0.03966 0.0
C4477 C 0.46323 0.37982 0.01859 0.0
C4478 C 0.46974 0.39382 0.07069 0.0
C4479 C 0.46643 0.42786 0.07939 0.0
N4480 N 0.4662 0.38481 0.03494 0.0
N4481 N 0.46664 0.42288 0.06279 0.0
H4482 H 0.38263 0.73887 0.75957 0.0
H4483 H 0.36362 0.72911 0.84314 0.0
H4484 H 0.34496 0.69986 0.7523 0.0
H4485 H 0.31399 0.71107 0.82842 0.0
H4486 H 0.3704 0.73425 0.81339 0.0
H4487 H 0.36949 0.74604 0.78686 0.0
C4488 C 0.37103 0.73242 0.7633 0.0
C4489 C 0.36484 0.71878 0.75365 0.0
C4490 C 0.35782 0.72965 0.81654 0.0
C4491 C 0.35054 0.7259 0.78549 0.0
C4492 C 0.35405 0.72644 0.83359 0.0
C4493 C 0.33828 0.71949 0.83826 0.0
C4494 C 0.34579 0.72573 0.80387 0.0
C4495 C 0.32628 0.71645 0.82535 0.0
C4496 C 0.36383 0.73613 0.77917 0.0
C4497 C 0.35003 0.71055 0.75933 0.0
N4498 N 0.33041 0.71926 0.80871 0.0
N4499 N 0.34361 0.71395 0.77506 0.0
H4500 H 0.04187 0.62752 0.61015 0.0
H4501 H 0.04301 0.59241 0.5149 0.0
H4502 H 0.03076 0.57561 0.59619 0.0
H4503 H 0.04459 0.64606 0.52605 0.0
H4504 H 0.03833 0.58646 0.54489 0.0
H4505 H 0.0429 0.63501 0.57987 0.0
C4506 C 0.03958 0.6177 0.60079 0.0
C4507 C 0.03639 0.60083 0.60586 0.0
C4508 C 0.03949 0.59958 0.54085 0.0
C4509 C 0.03764 0.60936 0.57114 0.0
C4510 C 0.04214 0.60299 0.52368 0.0
C4511 C 0.04414 0.61976 0.51796 0.0
C4512 C 0.03906 0.613 0.5526 0.0
C4513 C 0.04292 0.63296 0.52992 0.0
C4514 C 0.04019 0.622 0.58349 0.0
C4515 C 0.03365 0.58868 0.59306 0.0
N4516 N 0.04064 0.62929 0.54675 0.0
N4517 N 0.0344 0.59317 0.57639 0.0
H4518 H 0.11533 0.26587 0.27429 0.0
H4519 H 0.16725 0.32603 0.33499 0.0
H4520 H 0.13623 0.31334 0.25672 0.0
H4521 H 0.16842 0.27179 0.34211 0.0
H4522 H 0.15502 0.32184 0.30656 0.0
H4523 H 0.13377 0.26751 0.29954 0.0
C4524 C 0.12413 0.2764 0.27553 0.0
C4525 C 0.12455 0.28927 0.26316 0.0
C4526 C 0.15819 0.31083 0.31421 0.0
C4527 C 0.14515 0.29159 0.29227 0.0
C4528 C 0.16512 0.31323 0.33041 0.0
C4529 C 0.16889 0.29923 0.3408 0.0
C4530 C 0.15451 0.2943 0.30852 0.0
C4531 C 0.16586 0.28287 0.33435 0.0
C4532 C 0.13461 0.27735 0.28993 0.0
C4533 C 0.13587 0.30286 0.26558 0.0
N4534 N 0.15856 0.28084 0.31873 0.0
N4535 N 0.14551 0.3038 0.27995 0.0
H4536 H 0.49108 0.62832 0.49088 0.0
H4537 H 0.43875 0.60953 0.40709 0.0
H4538 H 0.43632 0.63028 0.48948 0.0
H4539 H 0.48735 0.5856 0.41555 0.0
H4540 H 0.43823 0.61844 0.43696 0.0
H4541 H 0.49091 0.61343 0.46329 0.0
C4542 C 0.47903 0.62514 0.48498 0.0
C4543 C 0.46368 0.63017 0.49255 0.0
C4544 C 0.44896 0.61111 0.43237 0.0
C4545 C 0.46337 0.61388 0.46081 0.0
C4546 C 0.44929 0.60612 0.41532 0.0
C4547 C 0.46314 0.59689 0.40889 0.0
C4548 C 0.4628 0.60725 0.44305 0.0
C4549 C 0.47643 0.59266 0.42009 0.0
C4550 C 0.47892 0.61676 0.46922 0.0
C4551 C 0.4484 0.62631 0.48417 0.0
N4552 N 0.47607 0.5981 0.43658 0.0
N4553 N 0.44863 0.6186 0.46867 0.0
H4554 H 0.14439 0.71732 0.24476 0.0
H4555 H 0.13769 0.68931 0.14697 0.0
H4556 H 0.09973 0.69606 0.2209 0.0
H4557 H 0.17618 0.72459 0.16389 0.0
H4558 H 0.12644 0.68814 0.17571 0.0
H4559 H 0.15884 0.717 0.21682 0.0
C4560 C 0.13767 0.71258 0.23371 0.0
C4561 C 0.12076 0.70691 0.23513 0.0
C4562 C 0.13735 0.69617 0.17321 0.0
C4563 C 0.13719 0.70622 0.20343 0.0
C4564 C 0.14376 0.6969 0.15671 0.0
C4565 C 0.15774 0.7073 0.15286 0.0
C4566 C 0.14491 0.70589 0.18614 0.0
C4567 C 0.16537 0.71641 0.16626 0.0
C4568 C 0.14588 0.71242 0.21781 0.0
C4569 C 0.11265 0.70081 0.22043 0.0
N4570 N 0.15879 0.71559 0.18232 0.0
N4571 N 0.12092 0.7006 0.20531 0.0
H4572 H 0.01014 0.36336 0.99035 0.0
H4573 H 0.05388 0.42614 0.92271 0.0
H4574 H 0.05588 0.39112 1.00237 0.0
H4575 H 0.01549 0.38869 0.91158 0.0
H4576 H 0.05185 0.41852 0.95324 0.0
H4577 H 0.00823 0.37849 0.96338 0.0
C4578 C 0.01957 0.373 0.98748 0.0
C4579 C 0.03326 0.37582 0.99858 0.0
C4580 C 0.04379 0.41212 0.94409 0.0
C4581 C 0.03155 0.39289 0.96721 0.0
C4582 C 0.04492 0.41648 0.92673 0.0
C4583 C 0.03501 0.40783 0.91461 0.0
C4584 C 0.03241 0.39928 0.94929 0.0
C4585 C 0.02359 0.39544 0.92044 0.0
C4586 C 0.01859 0.38153 0.97196 0.0
C4587 C 0.0451 0.38851 0.99417 0.0
N4588 N 0.02264 0.39156 0.93725 0.0
N4589 N 0.04418 0.39635 0.97865 0.0
H4590 H 0.32253 0.32033 0.67788 0.0
H4591 H 0.38252 0.26101 0.73483 0.0
H4592 H 0.34209 0.27178 0.6621 0.0
H4593 H 0.35934 0.30661 0.75457 0.0
H4594 H 0.36482 0.26335 0.70948 0.0
H4595 H 0.33298 0.31461 0.70703 0.0
C4596 C 0.32869 0.30834 0.68069 0.0
C4597 C 0.33147 0.29647 0.66768 0.0
C4598 C 0.36334 0.27274 0.71943 0.0
C4599 C 0.34369 0.28991 0.7007 0.0
C4600 C 0.37343 0.27134 0.73402 0.0
C4601 C 0.37259 0.28368 0.74689 0.0
C4602 C 0.3524 0.28677 0.71739 0.0
C4603 C 0.36046 0.29676 0.74503 0.0
C4604 C 0.33473 0.30508 0.69726 0.0
C4605 C 0.33971 0.2812 0.67184 0.0
N4606 N 0.3511 0.29815 0.73043 0.0
N4607 N 0.34564 0.27844 0.68787 0.0
H4608 H 0.09652 0.43675 0.39783 0.0
H4609 H 0.01676 0.49111 0.37091 0.0
H4610 H 0.08915 0.48667 0.41903 0.0
H4611 H 0.01426 0.4366 0.37528 0.0
H4612 H 0.04374 0.49078 0.38698 0.0
H4613 H 0.06707 0.43709 0.38745 0.0
C4614 C 0.08862 0.44775 0.40033 0.0
C4615 C 0.09522 0.4617 0.40925 0.0
C4616 C 0.03709 0.47894 0.38471 0.0
C4617 C 0.06162 0.46234 0.39718 0.0
C4618 C 0.02171 0.47914 0.37562 0.0
C4619 C 0.01321 0.46389 0.37205 0.0
C4620 C 0.04423 0.46332 0.3897 0.0
C4621 C 0.0203 0.44865 0.37802 0.0
C4622 C 0.07182 0.44792 0.3945 0.0
C4623 C 0.08446 0.47564 0.41227 0.0
N4624 N 0.03552 0.44872 0.38632 0.0
N4625 N 0.06824 0.47574 0.40601 0.0
H4626 H 0.31041 0.24706 0.14492 0.0
H4627 H 0.26537 0.33493 0.17184 0.0
H4628 H 0.26425 0.26507 0.12125 0.0
H4629 H 0.31931 0.32609 0.17538 0.0
H4630 H 0.2618 0.30605 0.15994 0.0
H4631 H 0.31058 0.27237 0.16305 0.0
C4632 C 0.3 0.25599 0.14385 0.0
C4633 C 0.28734 0.25383 0.13136 0.0
C4634 C 0.27437 0.31034 0.16362 0.0
C4635 C 0.28752 0.28308 0.1522 0.0
C4636 C 0.27636 0.32673 0.17054 0.0
C4637 C 0.29264 0.33283 0.17468 0.0
C4638 C 0.28873 0.29987 0.16115 0.0
C4639 C 0.30655 0.32182 0.17241 0.0
C4640 C 0.30023 0.2706 0.15411 0.0
C4641 C 0.27434 0.26616 0.13058 0.0
N4642 N 0.3043 0.30594 0.16584 0.0
N4643 N 0.27481 0.28024 0.14072 0.0
H4644 H 0.4923 0.55139 0.89042 0.0
H4645 H 0.39331 0.52908 0.87887 0.0
H4646 H 0.47049 0.52743 0.8461 0.0
H4647 H 0.41332 0.55153 0.92477 0.0
H4648 H 0.42198 0.52796 0.86726 0.0
H4649 H 0.4641 0.55079 0.90403 0.0
C4650 C 0.48166 0.54585 0.88363 0.0
C4651 C 0.48375 0.53954 0.86705 0.0
C4652 C 0.42017 0.53315 0.87989 0.0
C4653 C 0.45153 0.53892 0.88244 0.0
C4654 C 0.40372 0.53391 0.88648 0.0
C4655 C 0.40082 0.54055 0.90277 0.0
C4656 C 0.43397 0.53914 0.88957 0.0
C4657 C 0.41496 0.54624 0.91218 0.0
C4658 C 0.46556 0.54558 0.89137 0.0
C4659 C 0.4695 0.53258 0.85883 0.0
N4660 N 0.43092 0.54549 0.90542 0.0
N4661 N 0.45407 0.53253 0.86656 0.0
H4662 H 0.20543 0.74051 0.64113 0.0
H4663 H 0.22777 0.64231 0.62436 0.0
H4664 H 0.22307 0.71983 0.59347 0.0
H4665 H 0.20528 0.65952 0.67139 0.0
H4666 H 0.22757 0.67132 0.61392 0.0
H4667 H 0.20706 0.71178 0.65367 0.0
C4668 C 0.20984 0.73001 0.63339 0.0
C4669 C 0.21408 0.73258 0.61621 0.0
C4670 C 0.22264 0.66883 0.62654 0.0
C4671 C 0.21587 0.69981 0.63036 0.0
C4672 C 0.22264 0.65213 0.63249 0.0
C4673 C 0.2164 0.64827 0.64878 0.0
C4674 C 0.21637 0.68199 0.63686 0.0
C4675 C 0.21032 0.66182 0.6588 0.0
C4676 C 0.21066 0.71362 0.6405 0.0
C4677 C 0.21956 0.71849 0.60672 0.0
N4678 N 0.21041 0.67806 0.65267 0.0
N4679 N 0.22026 0.70282 0.61389 0.0
H4680 H 0.09861 0.51901 0.09578 0.0
H4681 H 0.00797 0.56162 0.11284 0.0
H4682 H 0.08985 0.57212 0.08605 0.0
H4683 H 0.02972 0.52224 0.14431 0.0
H4684 H 0.0342 0.5619 0.0957 0.0
H4685 H 0.06915 0.5162 0.10583 0.0
C4686 C 0.09024 0.52996 0.09544 0.0
C4687 C 0.0964 0.54577 0.09018 0.0
C4688 C 0.03304 0.55304 0.10619 0.0
C4689 C 0.06304 0.54281 0.10169 0.0
C4690 C 0.01811 0.55277 0.11587 0.0
C4691 C 0.01679 0.54186 0.12996 0.0
C4692 C 0.04644 0.54201 0.11044 0.0
C4693 C 0.03031 0.53084 0.13356 0.0
C4694 C 0.07357 0.5284 0.10122 0.0
C4695 C 0.08533 0.55973 0.08999 0.0
N4696 N 0.04458 0.53117 0.12383 0.0
N4697 N 0.0691 0.55797 0.09583 0.0
H4698 H 0.22514 0.34892 0.86187 0.0
H4699 H 0.20323 0.24994 0.85968 0.0
H4700 H 0.20171 0.32593 0.81807 0.0
H4701 H 0.23393 0.27442 0.89803 0.0
H4702 H 0.20395 0.27638 0.84281 0.0
H4703 H 0.22989 0.32083 0.87403 0.0
C4704 C 0.22119 0.33782 0.85474 0.0
C4705 C 0.21302 0.33967 0.83902 0.0
C4706 C 0.21074 0.27582 0.85479 0.0
C4707 C 0.21808 0.30726 0.85296 0.0
C4708 C 0.21041 0.26072 0.86438 0.0
C4709 C 0.21842 0.26002 0.88036 0.0
C4710 C 0.21912 0.29024 0.86131 0.0
C4711 C 0.2274 0.2744 0.88589 0.0
C4712 C 0.22388 0.32175 0.86166 0.0
C4713 C 0.20814 0.32493 0.83022 0.0
N4714 N 0.22737 0.28887 0.87649 0.0
N4715 N 0.21052 0.30928 0.83742 0.0
H4716 H 0.40409 0.47599 0.61106 0.0
H4717 H 0.5047 0.45813 0.61097 0.0
H4718 H 0.42929 0.4536 0.56794 0.0
H4719 H 0.47627 0.47941 0.65276 0.0
H4720 H 0.4787 0.45918 0.59336 0.0
H4721 H 0.43158 0.48034 0.62471 0.0
C4722 C 0.41553 0.47213 0.6044 0.0
C4723 C 0.41441 0.46432 0.58842 0.0
C4724 C 0.47826 0.4638 0.60633 0.0
C4725 C 0.44624 0.469 0.60415 0.0
C4726 C 0.49312 0.46329 0.61636 0.0
C4727 C 0.49268 0.46855 0.63347 0.0
C4728 C 0.4629 0.46973 0.61343 0.0
C4729 C 0.47726 0.47505 0.63974 0.0
C4730 C 0.43128 0.47459 0.61221 0.0
C4731 C 0.42965 0.4597 0.58027 0.0
N4732 N 0.4631 0.47535 0.62982 0.0
N4733 N 0.44496 0.4619 0.58832 0.0
H4734 H 0.27772 0.72709 0.40731 0.0
H4735 H 0.30035 0.66729 0.32767 0.0
H4736 H 0.30555 0.74621 0.36407 0.0
H4737 H 0.27704 0.65063 0.37445 0.0
H4738 H 0.30015 0.69672 0.33857 0.0
H4739 H 0.27479 0.69983 0.39321 0.0
C4740 C 0.2831 0.7256 0.39471 0.0
C4741 C 0.29197 0.739 0.38694 0.0
C4742 C 0.29504 0.68659 0.34638 0.0
C4743 C 0.28888 0.70732 0.37059 0.0
C4744 C 0.29509 0.6698 0.34014 0.0
C4745 C 0.28889 0.65635 0.35022 0.0
C4746 C 0.28858 0.68996 0.36274 0.0
C4747 C 0.28228 0.66041 0.36631 0.0
C4748 C 0.28146 0.70993 0.38664 0.0
C4749 C 0.29854 0.73625 0.37051 0.0
N4750 N 0.28235 0.67671 0.37201 0.0
N4751 N 0.29702 0.72065 0.36293 0.0
H4752 H 0.38581 0.10008 0.48735 0.0
H4753 H 0.39317 0.00443 0.45453 0.0
H4754 H 0.429 0.0834 0.45805 0.0
H4755 H 0.35764 0.02157 0.4926 0.0
H4756 H 0.40792 0.03199 0.45642 0.0
H4757 H 0.37629 0.07072 0.48978 0.0
C4758 C 0.39332 0.09017 0.48144 0.0
C4759 C 0.40816 0.09425 0.47238 0.0
C4760 C 0.39711 0.02955 0.46461 0.0
C4761 C 0.39724 0.06025 0.47503 0.0
C4762 C 0.38879 0.01372 0.46367 0.0
C4763 C 0.37407 0.01063 0.4734 0.0
C4764 C 0.39062 0.04237 0.4753 0.0
C4765 C 0.36884 0.02336 0.48478 0.0
C4766 C 0.38793 0.07333 0.4829 0.0
C4767 C 0.41752 0.0808 0.46519 0.0
N4768 N 0.37693 0.03862 0.48525 0.0
N4769 N 0.4118 0.06441 0.46647 0.0
H4770 H 0.88776 0.40189 0.53858 0.0
H4771 H 0.89653 0.50275 0.54666 0.0
H4772 H 0.93602 0.42571 0.54915 0.0
H4773 H 0.85163 0.47637 0.52921 0.0
H4774 H 0.9121 0.47557 0.54646 0.0
H4775 H 0.87506 0.4297 0.53426 0.0
C4776 C 0.8957 0.41305 0.54002 0.0
C4777 C 0.91292 0.4115 0.54446 0.0
C4778 C 0.8989 0.47583 0.54248 0.0
C4779 C 0.89841 0.44369 0.53944 0.0
C4780 C 0.89002 0.49135 0.54252 0.0
C4781 C 0.87267 0.49184 0.53811 0.0
C4782 C 0.89033 0.46078 0.538 0.0
C4783 C 0.86491 0.47664 0.53289 0.0
C4784 C 0.88846 0.42899 0.53744 0.0
C4785 C 0.92268 0.4264 0.54576 0.0
N4786 N 0.87372 0.46181 0.53313 0.0
N4787 N 0.91524 0.44194 0.54345 0.0
H4788 H 0.2551 0.14473 0.29969 0.0
H4789 H 0.35405 0.14823 0.27483 0.0
H4790 H 0.28269 0.10484 0.2741 0.0
H4791 H 0.33088 0.18531 0.30765 0.0
H4792 H 0.32618 0.1353 0.27001 0.0
H4793 H 0.28088 0.16253 0.2988 0.0
C4794 C 0.26646 0.13984 0.29362 0.0
C4795 C 0.26678 0.12324 0.28702 0.0
C4796 C 0.32703 0.1464 0.27811 0.0
C4797 C 0.29621 0.14345 0.28597 0.0
C4798 C 0.34291 0.15381 0.28073 0.0
C4799 C 0.34463 0.16779 0.29159 0.0
C4800 C 0.31268 0.15285 0.28661 0.0
C4801 C 0.32993 0.17458 0.29909 0.0
C4802 C 0.28118 0.14996 0.2932 0.0
C4803 C 0.28188 0.11749 0.27946 0.0
N4804 N 0.31453 0.16691 0.29664 0.0
N4805 N 0.29594 0.12752 0.2792 0.0
H4806 H 0.6139 0.49917 0.05579 0.0
H4807 H 0.59375 0.59169 0.01628 0.0
H4808 H 0.63882 0.51857 0.01092 0.0
H4809 H 0.58277 0.57718 0.06798 0.0
H4810 H 0.60499 0.56283 0.01108 0.0
H4811 H 0.59685 0.52526 0.0571 0.0
C4812 C 0.61549 0.50864 0.04592 0.0
C4813 C 0.62802 0.5066 0.03331 0.0
C4814 C 0.59997 0.56595 0.02351 0.0
C4815 C 0.6085 0.53677 0.03483 0.0
C4816 C 0.59347 0.58239 0.02644 0.0
C4817 C 0.58748 0.58698 0.04264 0.0
C4818 C 0.60022 0.55388 0.0368 0.0
C4819 C 0.5875 0.57435 0.05537 0.0
C4820 C 0.60585 0.52368 0.0468 0.0
C4821 C 0.62947 0.51956 0.02098 0.0
N4822 N 0.59377 0.55851 0.05221 0.0
N4823 N 0.61999 0.53407 0.02213 0.0
H4824 H 0.74186 0.38764 0.2726 0.0
H4825 H 0.67675 0.31102 0.28611 0.0
H4826 H 0.75522 0.34574 0.30526 0.0
H4827 H 0.66426 0.36462 0.28497 0.0
H4828 H 0.70702 0.31873 0.2836 0.0
H4829 H 0.7152 0.3732 0.26544 0.0
C4830 C 0.73967 0.3749 0.27742 0.0
C4831 C 0.75079 0.36777 0.28937 0.0
C4832 C 0.69744 0.32864 0.28372 0.0
C4833 C 0.72009 0.35152 0.28182 0.0
C4834 C 0.68014 0.32431 0.28525 0.0
C4835 C 0.66753 0.33709 0.28572 0.0
C4836 C 0.70212 0.3458 0.28224 0.0
C4837 C 0.67304 0.3541 0.2845 0.0
C4838 C 0.72431 0.36682 0.2736 0.0
C4839 C 0.74702 0.35151 0.29578 0.0
N4840 N 0.68978 0.35787 0.28276 0.0
N4841 N 0.73179 0.34403 0.29221 0.0
H4842 H 0.08473 0.9275 0.93369 0.0
H4843 H 0.1327 0.98758 0.99787 0.0
H4844 H 0.08982 0.91611 0.98696 0.0
H4845 H 0.11355 0.00608 0.94986 0.0
H4846 H 0.11472 0.96247 0.995 0.0
H4847 H 0.09317 0.95714 0.9395 0.0
C4848 C 0.08724 0.93144 0.94665 0.0
C4849 C 0.08658 0.91958 0.95992 0.0
C4850 C 0.11415 0.97217 0.98523 0.0
C4851 C 0.09651 0.95306 0.96668 0.0
C4852 C 0.12437 0.98658 0.98692 0.0
C4853 C 0.12481 0.99891 0.97401 0.0
C4854 C 0.10455 0.96981 0.97032 0.0
C4855 C 0.11368 0.99693 0.96012 0.0
C4856 C 0.09207 0.94827 0.94999 0.0
C4857 C 0.09018 0.92504 0.97648 0.0
N4858 N 0.10433 0.98243 0.95842 0.0
N4859 N 0.09519 0.94131 0.97938 0.0
H4860 H 0.26774 0.89113 0.20792 0.0
H4861 H 0.33624 0.81785 0.226 0.0
H4862 H 0.25503 0.84465 0.23426 0.0
H4863 H 0.34535 0.86211 0.19489 0.0
H4864 H 0.30751 0.82852 0.23212 0.0
H4865 H 0.29716 0.88179 0.20609 0.0
C4866 C 0.27115 0.87894 0.21339 0.0
C4867 C 0.25883 0.86859 0.22115 0.0
C4868 C 0.31585 0.83591 0.22403 0.0
C4869 C 0.29272 0.85772 0.21898 0.0
C4870 C 0.33227 0.82988 0.2206 0.0
C4871 C 0.34314 0.83904 0.20976 0.0
C4872 C 0.31036 0.85126 0.21667 0.0
C4873 C 0.33729 0.8545 0.20304 0.0
C4874 C 0.28801 0.87361 0.21233 0.0
C4875 C 0.26411 0.85303 0.22817 0.0
N4876 N 0.32133 0.86008 0.20656 0.0
N4877 N 0.28066 0.84799 0.22681 0.0
H4878 H 0.2417 0.11964 0.74286 0.0
H4879 H 0.17659 0.17865 0.69104 0.0
H4880 H 0.25443 0.14081 0.6939 0.0
H4881 H 0.16721 0.15717 0.7405 0.0
H4882 H 0.20652 0.16892 0.69296 0.0
H4883 H 0.21628 0.13733 0.74365 0.0
C4884 C 0.23935 0.12832 0.7324 0.0
C4885 C 0.25026 0.12859 0.71826 0.0
C4886 C 0.19798 0.16663 0.70352 0.0
C4887 C 0.22055 0.14876 0.71879 0.0
C4888 C 0.18097 0.17232 0.70247 0.0
C4889 C 0.16944 0.16871 0.71565 0.0
C4890 C 0.20343 0.15728 0.71787 0.0
C4891 C 0.17568 0.16019 0.73006 0.0
C4892 C 0.2247 0.13839 0.73279 0.0
C4893 C 0.24645 0.14017 0.7051 0.0
N4894 N 0.19208 0.15469 0.73071 0.0
N4895 N 0.23175 0.14955 0.70552 0.0
H4896 H 0.0904 0.04388 0.3462 0.0
H4897 H 0.16328 0.09774 0.29927 0.0
H4898 H 0.08095 0.09023 0.31829 0.0
H4899 H 0.17354 0.05741 0.33514 0.0
H4900 H 0.13275 0.09236 0.30247 0.0
H4901 H 0.12057 0.04588 0.33859 0.0
C4902 C 0.09462 0.05439 0.33835 0.0
C4903 C 0.08315 0.06702 0.33306 0.0
C4904 C 0.1417 0.08462 0.30955 0.0
C4905 C 0.11765 0.06938 0.3243 0.0
C4906 C 0.15914 0.08765 0.30769 0.0
C4907 C 0.171 0.07814 0.3171 0.0
C4908 C 0.13607 0.07191 0.32081 0.0
C4909 C 0.16486 0.0652 0.32779 0.0
C4910 C 0.11186 0.05555 0.33405 0.0
C4911 C 0.08936 0.08031 0.32284 0.0
N4912 N 0.14784 0.06252 0.32941 0.0
N4913 N 0.10617 0.08118 0.31888 0.0
H4914 H 0.18081 0.92427 0.59562 0.0
H4915 H 0.17389 0.83017 0.56005 0.0
H4916 H 0.16075 0.91238 0.54591 0.0
H4917 H 0.20394 0.84279 0.6042 0.0
H4918 H 0.17047 0.86037 0.5539 0.0
H4919 H 0.1908 0.89497 0.59837 0.0
C4920 C 0.1786 0.91552 0.58521 0.0
C4921 C 0.16971 0.92074 0.57059 0.0
C4922 C 0.17799 0.8566 0.56483 0.0
C4923 C 0.18106 0.88709 0.57373 0.0
C4924 C 0.17993 0.83935 0.56837 0.0
C4925 C 0.18908 0.83399 0.58275 0.0
C4926 C 0.185 0.8687 0.57592 0.0
C4927 C 0.19678 0.8464 0.59298 0.0
C4928 C 0.18438 0.89879 0.58678 0.0
C4929 C 0.16744 0.9089 0.55745 0.0
N4930 N 0.19434 0.86322 0.58952 0.0
N4931 N 0.17287 0.89258 0.55943 0.0
H4932 H 0.33603 0.93498 0.79707 0.0
H4933 H 0.42778 0.89802 0.82064 0.0
H4934 H 0.34412 0.88186 0.80786 0.0
H4935 H 0.41315 0.95053 0.82701 0.0
H4936 H 0.39918 0.89162 0.81011 0.0
H4937 H 0.36637 0.94024 0.80102 0.0
C4938 C 0.34434 0.92431 0.79982 0.0
C4939 C 0.3376 0.90796 0.80219 0.0
C4940 C 0.40227 0.90454 0.81373 0.0
C4941 C 0.37234 0.914 0.80717 0.0
C4942 C 0.4186 0.90826 0.81973 0.0
C4943 C 0.42288 0.92487 0.82483 0.0
C4944 C 0.39014 0.91756 0.81255 0.0
C4945 C 0.41041 0.93754 0.82337 0.0
C4946 C 0.36162 0.92737 0.80225 0.0
C4947 C 0.34887 0.89461 0.80578 0.0
N4948 N 0.39463 0.93363 0.81734 0.0
N4949 N 0.36574 0.89796 0.80839 0.0
H4950 H 0.33075 0.16461 0.11737 0.0
H4951 H 0.33838 0.08877 0.04892 0.0
H4952 H 0.30384 0.16385 0.06964 0.0
H4953 H 0.36439 0.0886 0.09713 0.0
H4954 H 0.32671 0.11697 0.05565 0.0
H4955 H 0.34269 0.13646 0.1107 0.0
C4956 C 0.32674 0.15817 0.10586 0.0
C4957 C 0.31593 0.16637 0.09425 0.0
C4958 C 0.3353 0.11097 0.06461 0.0
C4959 C 0.33027 0.13461 0.08602 0.0
C4960 C 0.34229 0.09504 0.06055 0.0
C4961 C 0.35281 0.08657 0.07225 0.0
C4962 C 0.33871 0.11841 0.08057 0.0
C4963 C 0.35671 0.09491 0.08757 0.0
C4964 C 0.33387 0.14227 0.10184 0.0
C4965 C 0.31184 0.15779 0.07911 0.0
N4966 N 0.3496 0.11025 0.09134 0.0
N4967 N 0.31907 0.14251 0.07538 0.0
H4968 H 0.16516 0.91506 0.2098 0.0
H4969 H 0.08884 0.94883 0.15098 0.0
H4970 H 0.17135 0.93085 0.15754 0.0
H4971 H 0.08128 0.92616 0.20041 0.0
H4972 H 0.1196 0.94538 0.15448 0.0
H4973 H 0.13485 0.92212 0.20791 0.0
C4974 C 0.16016 0.92003 0.19795 0.0
C4975 C 0.1708 0.92225 0.18378 0.0
C4976 C 0.11123 0.9413 0.16464 0.0
C4977 C 0.13615 0.93033 0.18151 0.0
C4978 C 0.09368 0.94334 0.16268 0.0
C4979 C 0.08252 0.9377 0.17541 0.0
C4980 C 0.11767 0.93371 0.17951 0.0
C4981 C 0.08946 0.93053 0.19022 0.0
C4982 C 0.14287 0.92406 0.19688 0.0
C4983 C 0.16366 0.92891 0.1688 0.0
N4984 N 0.10659 0.92872 0.19187 0.0
N4985 N 0.14679 0.93262 0.16804 0.0
H4986 H 0.3744 0.9121 0.45001 0.0
H4987 H 0.30617 0.84066 0.42759 0.0
H4988 H 0.32101 0.91687 0.46154 0.0
H4989 H 0.35968 0.82928 0.43271 0.0
H4990 H 0.31161 0.86908 0.43937 0.0
H4991 H 0.36997 0.88162 0.44428 0.0
C4992 C 0.36193 0.90658 0.45207 0.0
C4993 C 0.34809 0.91694 0.45643 0.0
C4994 C 0.32214 0.8603 0.43798 0.0
C4995 C 0.3427 0.88247 0.44901 0.0
C4996 C 0.31904 0.84414 0.43112 0.0
C4997 C 0.33246 0.83255 0.4291 0.0
C4998 C 0.33883 0.86504 0.44261 0.0
C4999 C 0.3489 0.83775 0.43406 0.0
C5000 C 0.35931 0.88926 0.4485 0.0
C5001 C 0.33204 0.90926 0.45832 0.0
N5002 N 0.35164 0.85359 0.44043 0.0
N5003 N 0.32973 0.89262 0.45432 0.0
H5004 H 0.42248 0.05595 0.67813 0.0
H5005 H 0.33861 0.11459 0.67403 0.0
H5006 H 0.40901 0.08723 0.63505 0.0
H5007 H 0.34301 0.07137 0.70738 0.0
H5008 H 0.36766 0.10909 0.6637 0.0
H5009 H 0.39603 0.06485 0.69229 0.0
C5010 C 0.41393 0.06456 0.67158 0.0
C5011 C 0.41795 0.07064 0.65524 0.0
C5012 C 0.36243 0.10106 0.67361 0.0
C5013 C 0.38788 0.08133 0.67163 0.0
C5014 C 0.34598 0.10444 0.67975 0.0
C5015 C 0.33853 0.09363 0.69182 0.0
C5016 C 0.37149 0.0868 0.67962 0.0
C5017 C 0.34842 0.08019 0.69829 0.0
C5018 C 0.39889 0.06973 0.67972 0.0
C5019 C 0.40641 0.08197 0.64751 0.0
N5020 N 0.36431 0.07709 0.69206 0.0
N5021 N 0.39202 0.08699 0.65578 0.0
H5022 H 0.17357 0.17809 0.9583 0.0
H5023 H 0.1509 0.08479 0.92652 0.0
H5024 H 0.18469 0.15999 0.90774 0.0
H5025 H 0.16619 0.09362 0.97838 0.0
H5026 H 0.15587 0.11485 0.92011 0.0
H5027 H 0.16501 0.14917 0.9665 0.0
C5028 C 0.1743 0.16799 0.94896 0.0
C5029 C 0.17993 0.17137 0.93234 0.0
C5030 C 0.15776 0.11031 0.93299 0.0
C5031 C 0.16964 0.13856 0.94147 0.0
C5032 C 0.15462 0.09328 0.93672 0.0
C5033 C 0.15779 0.08691 0.95307 0.0
C5034 C 0.1641 0.12107 0.94573 0.0
C5035 C 0.1632 0.09822 0.96574 0.0
C5036 C 0.16938 0.15156 0.95365 0.0
C5037 C 0.1806 0.15788 0.92073 0.0
N5038 N 0.16627 0.11482 0.96179 0.0
N5039 N 0.17533 0.14209 0.92546 0.0
H5040 H 0.05657 0.37066 0.09585 0.0
H5041 H 0.07046 0.29902 0.1662 0.0
H5042 H 0.04631 0.31751 0.08764 0.0
H5043 H 0.0711 0.35263 0.17786 0.0
H5044 H 0.05914 0.30578 0.13794 0.0
H5045 H 0.05882 0.365 0.12661 0.0
C5046 C 0.05413 0.35796 0.1006 0.0
C5047 C 0.05123 0.34454 0.08927 0.0
C5048 C 0.06158 0.31607 0.14676 0.0
C5049 C 0.0544 0.3378 0.12416 0.0
C5050 C 0.06808 0.31218 0.1629 0.0
C5051 C 0.07195 0.32524 0.1744 0.0
C5052 C 0.05909 0.33316 0.14197 0.0
C5053 C 0.06848 0.3421 0.1694 0.0
C5054 C 0.05564 0.35465 0.11811 0.0
C5055 C 0.04859 0.3282 0.09601 0.0
N5056 N 0.06248 0.34558 0.15353 0.0
N5057 N 0.0505 0.32525 0.11292 0.0
H5058 H 0.61654 0.1723 0.84179 0.0
H5059 H 0.55869 0.2087 0.9146 0.0
H5060 H 0.57959 0.21048 0.8279 0.0
H5061 H 0.56873 0.15512 0.90925 0.0
H5062 H 0.56935 0.21334 0.88547 0.0
H5063 H 0.60378 0.17046 0.86997 0.0
C5064 C 0.60593 0.18058 0.84477 0.0
C5065 C 0.59907 0.19147 0.83234 0.0
C5066 C 0.56897 0.20057 0.89062 0.0
C5067 C 0.58429 0.18927 0.86478 0.0
C5068 C 0.56285 0.19788 0.90717 0.0
C5069 C 0.56271 0.18147 0.91429 0.0
C5070 C 0.57559 0.18682 0.88142 0.0
C5071 C 0.56842 0.16793 0.90422 0.0
C5072 C 0.59855 0.17936 0.86082 0.0
C5073 C 0.58537 0.20198 0.83709 0.0
N5074 N 0.57493 0.17095 0.88844 0.0
N5075 N 0.57834 0.20058 0.85297 0.0
H5076 H 0.94909 0.87578 0.41049 0.0
H5077 H 0.93338 0.80431 0.34044 0.0
H5078 H 0.95932 0.82255 0.41835 0.0
H5079 H 0.93034 0.858 0.32945 0.0
H5080 H 0.94596 0.81107 0.36812 0.0
H5081 H 0.94596 0.87026 0.37981 0.0
C5082 C 0.95137 0.86309 0.40565 0.0
C5083 C 0.95452 0.84961 0.41688 0.0
C5084 C 0.94271 0.82138 0.35958 0.0
C5085 C 0.95031 0.84303 0.38208 0.0
C5086 C 0.93548 0.8175 0.34376 0.0
C5087 C 0.93053 0.83058 0.33265 0.0
C5088 C 0.94491 0.83848 0.36444 0.0
C5089 C 0.93373 0.84746 0.33765 0.0
C5090 C 0.94934 0.85986 0.38819 0.0
C5091 C 0.9569 0.8333 0.41005 0.0
N5092 N 0.9405 0.85092 0.35322 0.0
N5093 N 0.95449 0.83042 0.39318 0.0
H5094 H 0.88696 0.16687 0.16406 0.0
H5095 H 0.9282 0.20574 0.07978 0.0
H5096 H 0.90779 0.21747 0.16349 0.0
H5097 H 0.92879 0.15236 0.09251 0.0
H5098 H 0.91512 0.21184 0.10745 0.0
H5099 H 0.89499 0.16346 0.1342 0.0
C5100 C 0.89251 0.17757 0.15736 0.0
C5101 C 0.89641 0.19259 0.16612 0.0
C5102 C 0.9181 0.19881 0.10412 0.0
C5103 C 0.90635 0.18851 0.13216 0.0
C5104 C 0.9256 0.19528 0.08836 0.0
C5105 C 0.9296 0.17846 0.08374 0.0
C5106 C 0.91421 0.18541 0.11523 0.0
C5107 C 0.92593 0.16549 0.09544 0.0
C5108 C 0.8974 0.17549 0.14044 0.0
C5109 C 0.90416 0.20587 0.15704 0.0
N5110 N 0.91834 0.16922 0.11055 0.0
N5111 N 0.90906 0.20347 0.14055 0.0
H5112 H 0.43283 0.69888 0.67684 0.0
H5113 H 0.4048 0.68105 0.58049 0.0
H5114 H 0.38191 0.68664 0.66059 0.0
H5115 H 0.45729 0.67677 0.59625 0.0
H5116 H 0.3969 0.68864 0.60923 0.0
H5117 H 0.44245 0.69685 0.64701 0.0
C5118 C 0.42357 0.69639 0.66693 0.0
C5119 C 0.40647 0.69316 0.67111 0.0
C5120 C 0.41019 0.68617 0.6065 0.0
C5121 C 0.41742 0.69046 0.6372 0.0
C5122 C 0.41478 0.68185 0.58998 0.0
C5123 C 0.4318 0.67823 0.58583 0.0
C5124 C 0.42264 0.68707 0.61925 0.0
C5125 C 0.44401 0.67933 0.59889 0.0
C5126 C 0.42912 0.69497 0.64998 0.0
C5127 C 0.39513 0.68949 0.65787 0.0
N5128 N 0.4392 0.68368 0.61506 0.0
N5129 N 0.40079 0.6882 0.6416 0.0
H5130 H 0.04657 0.65873 0.41612 0.0
H5131 H 0.1018 0.70465 0.34337 0.0
H5132 H 0.0914 0.68881 0.42616 0.0
H5133 H 0.06387 0.66623 0.33342 0.0
H5134 H 0.09478 0.70307 0.37376 0.0
H5135 H 0.04931 0.66556 0.38577 0.0
C5136 C 0.05683 0.66695 0.41199 0.0
C5137 C 0.0689 0.67301 0.42368 0.0
C5138 C 0.08792 0.69509 0.36488 0.0
C5139 C 0.07214 0.68085 0.389 0.0
C5140 C 0.09189 0.69603 0.34753 0.0
C5141 C 0.0836 0.6854 0.33585 0.0
C5142 C 0.07545 0.68354 0.37055 0.0
C5143 C 0.0708 0.6745 0.34198 0.0
C5144 C 0.05845 0.67078 0.39466 0.0
C5145 C 0.08194 0.68364 0.41759 0.0
N5146 N 0.0672 0.67379 0.35888 0.0
N5147 N 0.08327 0.68712 0.4007 0.0
H5148 H 0.41457 0.30451 0.92783 0.0
H5149 H 0.40484 0.33808 0.83307 0.0
H5150 H 0.43845 0.35022 0.90921 0.0
H5151 H 0.40572 0.28415 0.84262 0.0
H5152 H 0.41093 0.34332 0.86304 0.0
H5153 H 0.40678 0.29699 0.89845 0.0
C5154 C 0.41833 0.31287 0.91754 0.0
C5155 C 0.4272 0.32803 0.92096 0.0
C5156 C 0.40955 0.33032 0.8587 0.0
C5157 C 0.41783 0.31976 0.88752 0.0
C5158 C 0.40581 0.32732 0.84166 0.0
C5159 C 0.4046 0.31067 0.83542 0.0
C5160 C 0.41209 0.31658 0.86975 0.0
C5161 C 0.40623 0.29718 0.84702 0.0
C5162 C 0.41385 0.30856 0.90083 0.0
C5163 C 0.43174 0.33838 0.90717 0.0
N5164 N 0.41 0.30042 0.86371 0.0
N5165 N 0.42679 0.33418 0.89111 0.0
H5166 H 0.83845 0.91885 0.7067 0.0
H5167 H 0.91458 0.91876 0.63807 0.0
H5168 H 0.83858 0.88747 0.66192 0.0
H5169 H 0.91555 0.94811 0.68423 0.0
H5170 H 0.88625 0.90795 0.64595 0.0
H5171 H 0.86704 0.92907 0.69926 0.0
C5172 C 0.84487 0.91346 0.69577 0.0
C5173 C 0.83638 0.9018 0.68526 0.0
C5174 C 0.89249 0.91704 0.65421 0.0
C5175 C 0.8687 0.91426 0.67597 0.0
C5176 C 0.9085 0.92349 0.64949 0.0
C5177 C 0.91719 0.93474 0.66026 0.0
C5178 C 0.88518 0.92176 0.66989 0.0
C5179 C 0.90907 0.93978 0.67537 0.0
C5180 C 0.86104 0.9196 0.69127 0.0
C5181 C 0.84491 0.89601 0.67067 0.0
N5182 N 0.89362 0.93324 0.67975 0.0
N5183 N 0.86049 0.90237 0.66639 0.0
H5184 H 0.79648 0.1649 0.42385 0.0
H5185 H 0.86346 0.08784 0.43303 0.0
H5186 H 0.84419 0.16299 0.39705 0.0
H5187 H 0.81602 0.09033 0.4603 0.0
H5188 H 0.85729 0.11583 0.4205 0.0
H5189 H 0.80285 0.13701 0.43647 0.0
C5190 C 0.80791 0.15821 0.41998 0.0
C5191 C 0.81956 0.16599 0.40893 0.0
C5192 C 0.8484 0.11045 0.42954 0.0
C5193 C 0.82751 0.13455 0.42412 0.0
C5194 C 0.85215 0.09466 0.43703 0.0
C5195 C 0.84046 0.08696 0.4481 0.0
C5196 C 0.83275 0.11853 0.43304 0.0
C5197 C 0.82556 0.09601 0.45213 0.0
C5198 C 0.81177 0.14248 0.42751 0.0
C5199 C 0.83464 0.15718 0.4051 0.0
N5200 N 0.82207 0.11117 0.44453 0.0
N5201 N 0.83823 0.14204 0.41274 0.0
H5202 H 0.67099 0.10489 0.1555 0.0
H5203 H 0.58916 0.0507 0.18321 0.0
H5204 H 0.66609 0.08045 0.20428 0.0
H5205 H 0.59203 0.07849 0.1361 0.0
H5206 H 0.61824 0.05952 0.19005 0.0
H5207 H 0.64237 0.0951 0.14789 0.0
C5208 C 0.66362 0.09784 0.16478 0.0
C5209 C 0.67066 0.09381 0.18068 0.0
C5210 C 0.61271 0.06344 0.17804 0.0
C5211 C 0.63827 0.08177 0.17177 0.0
C5212 C 0.59623 0.05812 0.17398 0.0
C5213 C 0.5884 0.0635 0.15886 0.0
C5214 C 0.62138 0.07448 0.167 0.0
C5215 C 0.59783 0.07364 0.14764 0.0
C5216 C 0.6474 0.09205 0.16035 0.0
C5217 C 0.66088 0.08421 0.19208 0.0
N5218 N 0.61378 0.07894 0.152 0.0
N5219 N 0.64522 0.0784 0.18735 0.0
H5220 H 0.70539 0.84195 0.90794 0.0
H5221 H 0.65599 0.91534 0.95872 0.0
H5222 H 0.66377 0.8326 0.94256 0.0
H5223 H 0.69302 0.92502 0.9193 0.0
H5224 H 0.66129 0.88483 0.95565 0.0
H5225 H 0.70353 0.87231 0.91453 0.0
C5226 C 0.69594 0.84625 0.917 0.0
C5227 C 0.6846 0.83471 0.92457 0.0
C5228 C 0.66832 0.89365 0.94774 0.0
C5229 C 0.68242 0.86943 0.93219 0.0
C5230 C 0.66533 0.91108 0.94953 0.0
C5231 C 0.67393 0.92277 0.93914 0.0
C5232 C 0.68002 0.88787 0.9355 0.0
C5233 C 0.68595 0.91649 0.92749 0.0
C5234 C 0.69486 0.86359 0.92074 0.0
C5235 C 0.67266 0.84102 0.93627 0.0
N5236 N 0.68856 0.89949 0.92592 0.0
N5237 N 0.67184 0.85794 0.93966 0.0
H5238 H 0.83163 0.05478 0.83845 0.0
H5239 H 0.92463 0.08301 0.80859 0.0
H5240 H 0.84114 0.08898 0.79652 0.0
H5241 H 0.9158 0.04651 0.84866 0.0
H5242 H 0.89416 0.0838 0.80287 0.0
H5243 H 0.86224 0.05009 0.84122 0.0
C5244 C 0.84012 0.06122 0.82972 0.0
C5245 C 0.83375 0.07243 0.81731 0.0
C5246 C 0.89884 0.07553 0.81286 0.0
C5247 C 0.86893 0.06712 0.8205 0.0
C5248 C 0.91628 0.07509 0.81617 0.0
C5249 C 0.9228 0.06479 0.82926 0.0
C5250 C 0.8877 0.06572 0.82278 0.0
C5251 C 0.91134 0.05467 0.83849 0.0
C5252 C 0.85764 0.05851 0.83132 0.0
C5253 C 0.84543 0.08031 0.80634 0.0
N5254 N 0.89433 0.05551 0.83518 0.0
N5255 N 0.86244 0.0776 0.80827 0.0
H5256 H 0.70524 0.16322 0.59911 0.0
H5257 H 0.65553 0.09127 0.5464 0.0
H5258 H 0.66548 0.17378 0.56266 0.0
H5259 H 0.68798 0.08063 0.58949 0.0
H5260 H 0.66253 0.12149 0.54911 0.0
H5261 H 0.70248 0.13282 0.5927 0.0
C5262 C 0.69607 0.15917 0.58964 0.0
C5263 C 0.68544 0.17104 0.58156 0.0
C5264 C 0.66819 0.11251 0.55791 0.0
C5265 C 0.68224 0.13634 0.57413 0.0
C5266 C 0.66423 0.09524 0.55633 0.0
C5267 C 0.67101 0.08338 0.56784 0.0
C5268 C 0.67906 0.11796 0.57105 0.0
C5269 C 0.68229 0.0893 0.58042 0.0
C5270 C 0.69446 0.14182 0.58602 0.0
C5271 C 0.67378 0.16507 0.56938 0.0
N5272 N 0.68588 0.10615 0.58174 0.0
N5273 N 0.67246 0.14817 0.56609 0.0
H5274 H 0.59212 0.96953 0.35454 0.0
H5275 H 0.66159 0.90877 0.31193 0.0
H5276 H 0.58488 0.91602 0.3453 0.0
H5277 H 0.67728 0.95322 0.33997 0.0
H5278 H 0.63226 0.9138 0.32107 0.0
H5279 H 0.62275 0.96598 0.34783 0.0
C5280 C 0.59704 0.95701 0.35163 0.0
C5281 C 0.58597 0.94304 0.35052 0.0
C5282 C 0.64211 0.9225 0.32521 0.0
C5283 C 0.62055 0.93904 0.34216 0.0
C5284 C 0.65886 0.9197 0.31984 0.0
C5285 C 0.67199 0.93052 0.32522 0.0
C5286 C 0.63829 0.93636 0.33588 0.0
C5287 C 0.66759 0.94447 0.33559 0.0
C5288 C 0.61444 0.95501 0.34758 0.0
C5289 C 0.59295 0.92715 0.34626 0.0
N5290 N 0.65113 0.94702 0.34055 0.0
N5291 N 0.60962 0.92564 0.34205 0.0
H5292 H 0.84559 0.92086 0.08774 0.0
H5293 H 0.83406 0.82682 0.05253 0.0
H5294 H 0.84142 0.91213 0.0338 0.0
H5295 H 0.81419 0.84388 0.1007 0.0
H5296 H 0.84161 0.85634 0.04546 0.0
H5297 H 0.84056 0.89069 0.09291 0.0
C5298 C 0.84408 0.91243 0.07694 0.0
C5299 C 0.84404 0.91893 0.06032 0.0
C5300 C 0.8355 0.8536 0.05751 0.0
C5301 C 0.83776 0.88439 0.06618 0.0
C5302 C 0.83116 0.83681 0.06155 0.0
C5303 C 0.82342 0.83292 0.07722 0.0
C5304 C 0.8325 0.86651 0.06941 0.0
C5305 C 0.81997 0.84631 0.08844 0.0
C5306 C 0.84097 0.89527 0.07992 0.0
C5307 C 0.84182 0.90753 0.04678 0.0
N5308 N 0.82473 0.86246 0.08441 0.0
N5309 N 0.83864 0.89074 0.05 0.0
H5310 H 0.91255 0.70146 0.84278 0.0
H5311 H 0.97049 0.65358 0.91199 0.0
H5312 H 0.95205 0.66669 0.82714 0.0
H5313 H 0.91984 0.67282 0.92097 0.0
H5314 H 0.96678 0.66009 0.88131 0.0
H5315 H 0.91857 0.69429 0.87243 0.0
C5316 C 0.92264 0.69249 0.84556 0.0
C5317 C 0.9317 0.68461 0.83239 0.0
C5318 C 0.9565 0.66273 0.8901 0.0
C5319 C 0.93863 0.67616 0.86646 0.0
C5320 C 0.95857 0.65886 0.90752 0.0
C5321 C 0.94553 0.66278 0.9191 0.0
C5322 C 0.9414 0.67068 0.88443 0.0
C5323 C 0.93037 0.6698 0.91262 0.0
C5324 C 0.926 0.68826 0.86252 0.0
C5325 C 0.94464 0.67299 0.83688 0.0
N5326 N 0.92883 0.67365 0.8959 0.0
N5327 N 0.94771 0.66908 0.85352 0.0
H5328 H 0.43022 0.858 0.1764 0.0
H5329 H 0.46216 0.82253 0.08663 0.0
H5330 H 0.43316 0.8047 0.16375 0.0
H5331 H 0.4477 0.87472 0.09461 0.0
H5332 H 0.45839 0.81695 0.11697 0.0
H5333 H 0.44248 0.86502 0.14873 0.0
C5334 C 0.43357 0.84771 0.16789 0.0
C5335 C 0.43042 0.83068 0.17242 0.0
C5336 C 0.45643 0.82973 0.11223 0.0
C5337 C 0.44466 0.83877 0.14058 0.0
C5338 C 0.45883 0.833 0.09495 0.0
C5339 C 0.45541 0.84916 0.08814 0.0
C5340 C 0.45039 0.84269 0.12289 0.0
C5341 C 0.45077 0.86217 0.0994 0.0
C5342 C 0.44058 0.85179 0.15205 0.0
C5343 C 0.43519 0.81799 0.16081 0.0
N5344 N 0.44815 0.8586 0.11621 0.0
N5345 N 0.44197 0.8223 0.14542 0.0
H5346 H 0.07842 0.19936 0.66525 0.0
H5347 H 0.05809 0.13368 0.59046 0.0
H5348 H 0.08563 0.14517 0.6702 0.0
H5349 H 0.04173 0.18597 0.59002 0.0
H5350 H 0.06612 0.13685 0.62055 0.0
H5351 H 0.06388 0.19448 0.63802 0.0
C5352 C 0.07698 0.18647 0.66064 0.0
C5353 C 0.0834 0.1727 0.67002 0.0
C5354 C 0.06037 0.14752 0.61398 0.0
C5355 C 0.06668 0.16696 0.6389 0.0
C5356 C 0.05554 0.14559 0.59689 0.0
C5357 C 0.0492 0.15956 0.5878 0.0
C5358 C 0.059 0.16357 0.62187 0.0
C5359 C 0.04659 0.17488 0.59661 0.0
C5360 C 0.06857 0.18366 0.64514 0.0
C5361 C 0.08098 0.15623 0.66343 0.0
N5362 N 0.05174 0.17656 0.61302 0.0
N5363 N 0.07295 0.15385 0.64829 0.0
H5364 H 0.12384 0.80689 0.8438 0.0
H5365 H 0.05372 0.83446 0.91261 0.0
H5366 H 0.06977 0.80602 0.83447 0.0
H5367 H 0.10637 0.8255 0.92561 0.0
H5368 H 0.05942 0.82335 0.88398 0.0
H5369 H 0.118 0.81215 0.8742 0.0
C5370 C 0.11079 0.80729 0.84822 0.0
C5371 C 0.09729 0.80607 0.8366 0.0
C5372 C 0.06971 0.82372 0.89316 0.0
C5373 C 0.09046 0.81261 0.8711 0.0
C5374 C 0.06643 0.83013 0.9095 0.0
C5375 C 0.07955 0.83102 0.92159 0.0
C5376 C 0.08626 0.81832 0.88876 0.0
C5377 C 0.09581 0.82511 0.91677 0.0
C5378 C 0.10742 0.8105 0.86552 0.0
C5379 C 0.08058 0.80702 0.84298 0.0
N5380 N 0.09872 0.81918 0.90078 0.0
N5381 N 0.07765 0.81043 0.85966 0.0
H5382 H 0.57715 0.30364 0.42249 0.0
H5383 H 0.57534 0.34699 0.33042 0.0
H5384 H 0.55693 0.3537 0.41233 0.0
H5385 H 0.59574 0.29678 0.33941 0.0
H5386 H 0.56755 0.34891 0.36024 0.0
H5387 H 0.58306 0.30024 0.39216 0.0
C5388 C 0.57389 0.31391 0.41389 0.0
C5389 C 0.56657 0.32903 0.42001 0.0
C5390 C 0.57369 0.33743 0.35575 0.0
C5391 C 0.57335 0.32517 0.38522 0.0
C5392 C 0.57817 0.3363 0.33865 0.0
C5393 C 0.58632 0.32171 0.33235 0.0
C5394 C 0.57738 0.3239 0.36679 0.0
C5395 C 0.58954 0.30829 0.34371 0.0
C5396 C 0.57728 0.31194 0.39656 0.0
C5397 C 0.5626 0.34184 0.40823 0.0
N5398 N 0.58512 0.30974 0.36041 0.0
N5399 N 0.56609 0.33963 0.39144 0.0
H5400 H 0.93653 0.35358 0.59354 0.0
H5401 H 0.92394 0.29466 0.67358 0.0
H5402 H 0.93568 0.29954 0.5844 0.0
H5403 H 0.89076 0.33698 0.66235 0.0
H5404 H 0.93466 0.29603 0.64395 0.0
H5405 H 0.92746 0.34831 0.62295 0.0
C5406 C 0.9348 0.3406 0.59782 0.0
C5407 C 0.93676 0.32699 0.58651 0.0
C5408 C 0.92487 0.3048 0.64807 0.0
C5409 C 0.92654 0.32089 0.62011 0.0
C5410 C 0.91863 0.30392 0.66485 0.0
C5411 C 0.90651 0.3158 0.67051 0.0
C5412 C 0.91917 0.31786 0.6372 0.0
C5413 C 0.90026 0.3277 0.65868 0.0
C5414 C 0.92951 0.33761 0.61453 0.0
C5415 C 0.93416 0.31039 0.59273 0.0
N5416 N 0.90686 0.32862 0.64279 0.0
N5417 N 0.92919 0.30776 0.60915 0.0
H5418 H 0.59763 0.66661 0.17153 0.0
H5419 H 0.5967 0.69482 0.07583 0.0
H5420 H 0.5988 0.72052 0.16166 0.0
H5421 H 0.56269 0.65686 0.09607 0.0
H5422 H 0.60358 0.7038 0.10512 0.0
H5423 H 0.59275 0.66139 0.14136 0.0
C5424 C 0.59719 0.67735 0.16289 0.0
C5425 C 0.59847 0.69401 0.16904 0.0
C5426 C 0.59448 0.69366 0.10305 0.0
C5427 C 0.59263 0.6881 0.13454 0.0
C5428 C 0.59055 0.68854 0.08644 0.0
C5429 C 0.57911 0.67509 0.08362 0.0
C5430 C 0.58735 0.68482 0.11679 0.0
C5431 C 0.57147 0.66734 0.0977 0.0
C5432 C 0.59425 0.67436 0.14574 0.0
C5433 C 0.59795 0.70749 0.15732 0.0
N5434 N 0.57598 0.67211 0.11369 0.0
N5435 N 0.59491 0.70426 0.1405 0.0
H5436 H 0.59174 0.54669 0.85089 0.0
H5437 H 0.66491 0.59316 0.79708 0.0
H5438 H 0.58277 0.58753 0.81526 0.0
H5439 H 0.67511 0.55804 0.83811 0.0
H5440 H 0.63446 0.58778 0.80052 0.0
H5441 H 0.62208 0.54737 0.84342 0.0
C5442 C 0.59612 0.55568 0.84141 0.0
C5443 C 0.58477 0.56724 0.83388 0.0
C5444 C 0.64338 0.58118 0.8087 0.0
C5445 C 0.61932 0.56804 0.82522 0.0
C5446 C 0.66077 0.58422 0.80672 0.0
C5447 C 0.67259 0.57623 0.81748 0.0
C5448 C 0.63773 0.57006 0.82153 0.0
C5449 C 0.66646 0.56464 0.82965 0.0
C5450 C 0.61342 0.55609 0.83717 0.0
C5451 C 0.59111 0.57857 0.82161 0.0
N5452 N 0.64946 0.56201 0.83144 0.0
N5453 N 0.60793 0.57873 0.81773 0.0
H5454 H 0.66548 0.33824 0.10801 0.0
H5455 H 0.68466 0.41534 0.04371 0.0
H5456 H 0.70773 0.33901 0.07323 0.0
H5457 H 0.64302 0.41591 0.07924 0.0
H5458 H 0.69236 0.38679 0.05347 0.0
H5459 H 0.65736 0.36684 0.09842 0.0
C5460 C 0.67351 0.34479 0.09892 0.0
C5461 C 0.6877 0.33651 0.09189 0.0
C5462 C 0.68129 0.39293 0.05892 0.0
C5463 C 0.67784 0.36883 0.07996 0.0
C5464 C 0.67666 0.40909 0.05306 0.0
C5465 C 0.66281 0.41778 0.06024 0.0
C5466 C 0.6722 0.3854 0.07236 0.0
C5467 C 0.6534 0.40942 0.07292 0.0
C5468 C 0.66865 0.36096 0.09315 0.0
C5469 C 0.6971 0.34519 0.07944 0.0
N5470 N 0.65834 0.39378 0.07867 0.0
N5471 N 0.69195 0.36078 0.0738 0.0
H5472 H 0.84425 0.38193 0.31138 0.0
H5473 H 0.91028 0.45408 0.33419 0.0
H5474 H 0.82929 0.43454 0.31406 0.0
H5475 H 0.92533 0.40632 0.31172 0.0
H5476 H 0.88052 0.4476 0.32691 0.0
H5477 H 0.87415 0.39077 0.31068 0.0
C5478 C 0.84728 0.39537 0.31125 0.0
C5479 C 0.83431 0.40751 0.31253 0.0
C5480 C 0.89041 0.43867 0.32341 0.0
C5481 C 0.86845 0.41775 0.31272 0.0
C5482 C 0.90738 0.44233 0.32763 0.0
C5483 C 0.92035 0.43067 0.32373 0.0
C5484 C 0.88639 0.42314 0.31547 0.0
C5485 C 0.91581 0.41567 0.31512 0.0
C5486 C 0.86433 0.40043 0.31103 0.0
C5487 C 0.83888 0.42476 0.31288 0.0
N5488 N 0.89926 0.41227 0.31149 0.0
N5489 N 0.85559 0.42938 0.3133 0.0
H5490 H 0.82274 0.58684 0.55608 0.0
H5491 H 0.81257 0.66359 0.62171 0.0
H5492 H 0.8417 0.58523 0.60761 0.0
H5493 H 0.7906 0.66309 0.5715 0.0
H5494 H 0.81957 0.63329 0.6186 0.0
H5495 H 0.80793 0.61341 0.56274 0.0
C5496 C 0.82378 0.59205 0.56879 0.0
C5497 C 0.83365 0.58387 0.58122 0.0
C5498 C 0.81276 0.63966 0.60845 0.0
C5499 C 0.81669 0.61432 0.589 0.0
C5500 C 0.80851 0.65688 0.61038 0.0
C5501 C 0.80085 0.66572 0.59691 0.0
C5502 C 0.80943 0.6314 0.59289 0.0
C5503 C 0.79639 0.65662 0.58222 0.0
C5504 C 0.81524 0.60719 0.57264 0.0
C5505 C 0.83433 0.59113 0.59756 0.0
N5506 N 0.80095 0.64006 0.5805 0.0
N5507 N 0.82613 0.60599 0.60092 0.0
H5508 H 0.66375 0.38431 0.6969 0.0
H5509 H 0.58934 0.45263 0.68535 0.0
H5510 H 0.66702 0.43621 0.71402 0.0
H5511 H 0.5827 0.39921 0.67482 0.0
H5512 H 0.61697 0.44619 0.69833 0.0
H5513 H 0.63304 0.38833 0.69196 0.0
C5514 C 0.65788 0.3963 0.70028 0.0
C5515 C 0.66789 0.40992 0.70594 0.0
C5516 C 0.6094 0.43584 0.69332 0.0
C5517 C 0.63304 0.41489 0.69968 0.0
C5518 C 0.59362 0.43954 0.68585 0.0
C5519 C 0.5837 0.4265 0.67879 0.0
C5520 C 0.61545 0.41897 0.69363 0.0
C5521 C 0.58992 0.40974 0.67995 0.0
C5522 C 0.6404 0.39871 0.69721 0.0
C5523 C 0.65972 0.42537 0.70966 0.0
N5524 N 0.60541 0.40649 0.68704 0.0
N5525 N 0.6429 0.42751 0.70623 0.0
H5526 H 0.84485 0.33111 0.93982 0.0
H5527 H 0.81786 0.42497 0.91369 0.0
H5528 H 0.80198 0.3419 0.90719 0.0
H5529 H 0.85199 0.41458 0.95546 0.0
H5530 H 0.81134 0.39471 0.9118 0.0
H5531 H 0.84709 0.36137 0.94646 0.0
C5532 C 0.83578 0.33983 0.93415 0.0
C5533 C 0.82328 0.33393 0.92279 0.0
C5534 C 0.82012 0.39902 0.9215 0.0
C5535 C 0.82594 0.36876 0.93023 0.0
C5536 C 0.82391 0.41633 0.92258 0.0
C5537 C 0.83562 0.42236 0.93468 0.0
C5538 C 0.82828 0.38747 0.93243 0.0
C5539 C 0.84291 0.41052 0.94593 0.0
C5540 C 0.83707 0.35713 0.93799 0.0
C5541 C 0.81183 0.34585 0.91598 0.0
N5542 N 0.8393 0.39363 0.94438 0.0
N5543 N 0.81357 0.3627 0.91963 0.0
H5544 H 0.83312 0.55538 0.17703 0.0
H5545 H 0.92464 0.59758 0.18936 0.0
H5546 H 0.84209 0.59928 0.20871 0.0
H5547 H 0.91612 0.55095 0.16168 0.0
H5548 H 0.89477 0.59757 0.19791 0.0
H5549 H 0.86375 0.55251 0.17285 0.0
C5550 C 0.84154 0.56434 0.18323 0.0
C5551 C 0.83502 0.5777 0.1931 0.0
C5552 C 0.89945 0.58729 0.19005 0.0
C5553 C 0.87014 0.57457 0.18823 0.0
C5554 C 0.91651 0.5873 0.18511 0.0
C5555 C 0.92287 0.57433 0.17463 0.0
C5556 C 0.88863 0.57425 0.18441 0.0
C5557 C 0.91175 0.56129 0.16964 0.0
C5558 C 0.85905 0.56269 0.18084 0.0
C5559 C 0.84656 0.58882 0.20096 0.0
N5560 N 0.89516 0.56165 0.17448 0.0
N5561 N 0.86356 0.58712 0.1982 0.0
H5562 H 0.6693 0.57651 0.42896 0.0
H5563 H 0.66573 0.67562 0.44577 0.0
H5564 H 0.65683 0.59678 0.47838 0.0
H5565 H 0.69628 0.65415 0.40567 0.0
H5566 H 0.66161 0.64713 0.45765 0.0
H5567 H 0.67816 0.60468 0.4198 0.0
C5568 C 0.66862 0.58676 0.43805 0.0
C5569 C 0.66245 0.58399 0.45463 0.0
C5570 C 0.66939 0.64862 0.44638 0.0
C5571 C 0.67226 0.61679 0.44387 0.0
C5572 C 0.67175 0.66489 0.43957 0.0
C5573 C 0.68136 0.66727 0.42468 0.0
C5574 C 0.6763 0.63446 0.43803 0.0
C5575 C 0.68888 0.65291 0.41722 0.0
C5576 C 0.67368 0.60296 0.43272 0.0
C5577 C 0.66152 0.59816 0.46551 0.0
N5578 N 0.68596 0.63709 0.4238 0.0
N5579 N 0.66621 0.61392 0.4599 0.0
H5580 H 0.60743 0.83563 0.66891 0.0
H5581 H 0.57602 0.79411 0.58166 0.0
H5582 H 0.59506 0.78241 0.66546 0.0
H5583 H 0.57133 0.84742 0.59365 0.0
H5584 H 0.58708 0.78887 0.61035 0.0
H5585 H 0.59995 0.8392 0.63897 0.0
C5586 C 0.6037 0.82454 0.66162 0.0
C5587 C 0.60208 0.80866 0.66958 0.0
C5588 C 0.5836 0.80169 0.6067 0.0
C5589 C 0.59281 0.81278 0.63539 0.0
C5590 C 0.57724 0.80472 0.59034 0.0
C5591 C 0.57273 0.82127 0.58518 0.0
C5592 C 0.58579 0.81534 0.61795 0.0
C5593 C 0.57457 0.83447 0.59703 0.0
C5594 C 0.59915 0.82665 0.64461 0.0
C5595 C 0.59683 0.79479 0.65968 0.0
N5596 N 0.58108 0.83124 0.61277 0.0
N5597 N 0.59221 0.79719 0.64308 0.0
H5598 H 0.42754 0.41569 0.19638 0.0
H5599 H 0.33249 0.43936 0.16967 0.0
H5600 H 0.41512 0.45465 0.15967 0.0
H5601 H 0.34462 0.40327 0.20926 0.0
H5602 H 0.36256 0.44663 0.16743 0.0
H5603 H 0.39736 0.41243 0.20272 0.0
C5604 C 0.41848 0.42366 0.1897 0.0
C5605 C 0.4239 0.43535 0.17731 0.0
C5606 C 0.35868 0.43721 0.17671 0.0
C5607 C 0.38918 0.43161 0.18455 0.0
C5608 C 0.34149 0.43302 0.17799 0.0
C5609 C 0.33605 0.42052 0.18954 0.0
C5610 C 0.37063 0.42875 0.18694 0.0
C5611 C 0.34826 0.41292 0.20013 0.0
C5612 C 0.40121 0.42179 0.19338 0.0
C5613 C 0.41154 0.44541 0.16923 0.0
N5614 N 0.36502 0.41701 0.19844 0.0
N5615 N 0.39475 0.44319 0.17288 0.0
H5616 H 0.35544 0.58359 0.91963 0.0
H5617 H 0.33884 0.67839 0.95021 0.0
H5618 H 0.34522 0.59407 0.97241 0.0
H5619 H 0.32202 0.65923 0.90165 0.0
H5620 H 0.34686 0.64938 0.95866 0.0
H5621 H 0.3505 0.61354 0.91286 0.0
C5622 C 0.35283 0.5924 0.92991 0.0
C5623 C 0.35103 0.58648 0.94664 0.0
C5624 C 0.34134 0.65155 0.9462 0.0
C5625 C 0.34478 0.62062 0.93891 0.0
C5626 C 0.33674 0.66803 0.94137 0.0
C5627 C 0.3297 0.67116 0.92522 0.0
C5628 C 0.33936 0.63818 0.9346 0.0
C5629 C 0.32725 0.65734 0.91426 0.0
C5630 C 0.3497 0.60939 0.92599 0.0
C5631 C 0.34713 0.59827 0.95943 0.0
N5632 N 0.33228 0.64147 0.91907 0.0
N5633 N 0.34403 0.61485 0.95529 0.0
H5634 H 0.08035 0.59684 0.66953 0.0
H5635 H 0.1726 0.55742 0.68801 0.0
H5636 H 0.09118 0.54323 0.6666 0.0
H5637 H 0.16272 0.61131 0.6879 0.0
H5638 H 0.14273 0.55207 0.68142 0.0
H5639 H 0.11024 0.60239 0.67604 0.0
C5640 C 0.08913 0.58622 0.67 0.0
C5641 C 0.08325 0.56954 0.66741 0.0
C5642 C 0.14697 0.56507 0.68294 0.0
C5643 C 0.11764 0.5758 0.6754 0.0
C5644 C 0.16403 0.56817 0.68685 0.0
C5645 C 0.1702 0.58487 0.68858 0.0
C5646 C 0.13579 0.57877 0.68055 0.0
C5647 C 0.1585 0.59825 0.68691 0.0
C5648 C 0.10621 0.58941 0.67385 0.0
C5649 C 0.09519 0.5563 0.66825 0.0
N5650 N 0.14189 0.59491 0.68286 0.0
N5651 N 0.11178 0.5597 0.67232 0.0
H5652 H 0.14829 0.41806 0.42206 0.0
H5653 H 0.17782 0.32839 0.45949 0.0
H5654 H 0.16218 0.41251 0.47477 0.0
H5655 H 0.18548 0.34381 0.40735 0.0
H5656 H 0.16687 0.35688 0.46596 0.0
H5657 H 0.15514 0.38811 0.41731 0.0
C5658 C 0.15212 0.4103 0.4328 0.0
C5659 C 0.15435 0.41764 0.4489 0.0
C5660 C 0.17096 0.35399 0.45313 0.0
C5661 C 0.16288 0.3835 0.44342 0.0
C5662 C 0.17724 0.33775 0.44939 0.0
C5663 C 0.18257 0.33364 0.4328 0.0
C5664 C 0.16965 0.36613 0.44012 0.0
C5665 C 0.18155 0.34635 0.42029 0.0
C5666 C 0.15633 0.3933 0.43001 0.0
C5667 C 0.15989 0.40719 0.46228 0.0
N5668 N 0.17508 0.36193 0.42418 0.0
N5669 N 0.16409 0.39061 0.45923 0.0
H5670 H 0.41592 0.54299 0.32521 0.0
H5671 H 0.34145 0.6128 0.33242 0.0
H5672 H 0.41655 0.58366 0.36174 0.0
H5673 H 0.34004 0.57049 0.2978 0.0
H5674 H 0.36958 0.60331 0.34241 0.0
H5675 H 0.38777 0.55239 0.31554 0.0
C5676 C 0.40972 0.5534 0.33177 0.0
C5677 C 0.41829 0.56215 0.34475 0.0
C5678 C 0.36332 0.5963 0.33234 0.0
C5679 C 0.38652 0.57382 0.33296 0.0
C5680 C 0.34745 0.60197 0.32636 0.0
C5681 C 0.33868 0.59274 0.31386 0.0
C5682 C 0.37037 0.58115 0.32592 0.0
C5683 C 0.34662 0.57826 0.30708 0.0
C5684 C 0.39382 0.55905 0.32597 0.0
C5685 C 0.41009 0.57618 0.35214 0.0
N5686 N 0.36191 0.57286 0.31324 0.0
N5687 N 0.39477 0.58167 0.34606 0.0
H5688 H 0.18933 0.57723 0.10581 0.0
H5689 H 0.20703 0.66788 0.06355 0.0
H5690 H 0.17962 0.5886 0.05294 0.0
H5691 H 0.20192 0.66106 0.11773 0.0
H5692 H 0.20306 0.63743 0.05946 0.0
H5693 H 0.19908 0.60632 0.11008 0.0
C5694 C 0.18935 0.58578 0.09501 0.0
C5695 C 0.18354 0.58037 0.07894 0.0
C5696 C 0.20305 0.64249 0.07228 0.0
C5697 C 0.1949 0.6139 0.08388 0.0
C5698 C 0.20548 0.65986 0.07467 0.0
C5699 C 0.20476 0.66703 0.09103 0.0
C5700 C 0.19984 0.63204 0.08635 0.0
C5701 C 0.20272 0.65604 0.10493 0.0
C5702 C 0.19491 0.60245 0.09754 0.0
C5703 C 0.18388 0.59217 0.06554 0.0
N5704 N 0.20013 0.63907 0.10226 0.0
N5705 N 0.18946 0.60836 0.06832 0.0
H5706 H 0.09388 0.45081 0.86898 0.0
H5707 H 0.15976 0.41554 0.80019 0.0
H5708 H 0.07961 0.43043 0.82016 0.0
H5709 H 0.1752 0.44055 0.84658 0.0
H5710 H 0.13031 0.42399 0.80594 0.0
H5711 H 0.12383 0.45063 0.85977 0.0
C5712 C 0.09697 0.44698 0.85612 0.0
C5713 C 0.0842 0.44102 0.8452 0.0
C5714 C 0.14018 0.42776 0.81479 0.0
C5715 C 0.11829 0.44015 0.83475 0.0
C5716 C 0.157 0.42289 0.8115 0.0
C5717 C 0.16998 0.4271 0.823 0.0
C5718 C 0.13626 0.43678 0.82977 0.0
C5719 C 0.16563 0.43682 0.8374 0.0
C5720 C 0.11405 0.44668 0.8509 0.0
C5721 C 0.08891 0.43557 0.82886 0.0
N5722 N 0.14916 0.44114 0.84047 0.0
N5723 N 0.10553 0.43513 0.82421 0.0
H5724 H 0.34516 0.41374 0.54668 0.0
H5725 H 0.29577 0.34041 0.59746 0.0
H5726 H 0.31016 0.42365 0.58783 0.0
H5727 H 0.33784 0.33131 0.56336 0.0
H5728 H 0.29739 0.37081 0.59072 0.0
H5729 H 0.33911 0.3834 0.54934 0.0
C5730 C 0.3361 0.40957 0.5562 0.0
C5731 C 0.32831 0.42128 0.56719 0.0
C5732 C 0.30616 0.36212 0.58461 0.0
C5733 C 0.32133 0.38649 0.57029 0.0
C5734 C 0.30519 0.34476 0.5884 0.0
C5735 C 0.31681 0.33333 0.58111 0.0
C5736 C 0.31874 0.36804 0.57336 0.0
C5737 C 0.32876 0.33968 0.56945 0.0
C5738 C 0.33267 0.39222 0.55772 0.0
C5739 C 0.31659 0.41509 0.57919 0.0
N5740 N 0.32946 0.3566 0.56601 0.0
N5741 N 0.31354 0.39812 0.58049 0.0
H5742 H 0.44135 0.15205 0.32742 0.0
H5743 H 0.44979 0.18655 0.42259 0.0
H5744 H 0.42676 0.20256 0.34314 0.0
H5745 H 0.44802 0.13302 0.41111 0.0
H5746 H 0.44807 0.19302 0.39232 0.0
H5747 H 0.44961 0.14554 0.3567 0.0
C5748 C 0.44 0.16186 0.33698 0.0
C5749 C 0.43321 0.1779 0.33276 0.0
C5750 C 0.44831 0.17984 0.39632 0.0
C5751 C 0.44284 0.17044 0.36638 0.0
C5752 C 0.44944 0.17611 0.4136 0.0
C5753 C 0.44898 0.15921 0.41935 0.0
C5754 C 0.44664 0.16659 0.38456 0.0
C5755 C 0.44854 0.1462 0.40718 0.0
C5756 C 0.44469 0.15806 0.35372 0.0
C5757 C 0.4318 0.19001 0.34577 0.0
N5758 N 0.44717 0.15017 0.39029 0.0
N5759 N 0.43656 0.18603 0.36197 0.0
H5760 H 0.97163 0.10111 0.34144 0.0
H5761 H 0.94618 0.1319 0.25153 0.0
H5762 H 0.00972 0.10932 0.30261 0.0
H5763 H 0.92986 0.16388 0.29317 0.0
H5764 H 0.96471 0.11655 0.27104 0.0
H5765 H 0.95173 0.1188 0.32499 0.0
C5766 C 0.97593 0.10678 0.32965 0.0
C5767 C 0.99231 0.10343 0.32325 0.0
C5768 C 0.95698 0.12691 0.27584 0.0
C5769 C 0.96953 0.12299 0.30438 0.0
C5770 C 0.9465 0.13578 0.26474 0.0
C5771 C 0.93681 0.1496 0.27059 0.0
C5772 C 0.95748 0.13152 0.293 0.0
C5773 C 0.93716 0.15338 0.28808 0.0
C5774 C 0.96454 0.11676 0.32029 0.0
C5775 C 0.99707 0.11102 0.30779 0.0
N5776 N 0.94742 0.14438 0.29876 0.0
N5777 N 0.98563 0.12018 0.29873 0.0
H5778 H 0.10533 0.71224 0.49426 0.0
H5779 H 0.1512 0.72456 0.58326 0.0
H5780 H 0.09427 0.68016 0.53754 0.0
H5781 H 0.14514 0.76519 0.54672 0.0
H5782 H 0.13208 0.70694 0.5662 0.0
H5783 H 0.12221 0.73059 0.51264 0.0
C5784 C 0.10632 0.7091 0.50765 0.0
C5785 C 0.09826 0.69465 0.51436 0.0
C5786 C 0.13487 0.71977 0.56202 0.0
C5787 C 0.11788 0.71545 0.53538 0.0
C5788 C 0.14569 0.72987 0.57179 0.0
C5789 C 0.14989 0.74635 0.56635 0.0
C5790 C 0.1284 0.72613 0.54664 0.0
C5791 C 0.14256 0.75245 0.55122 0.0
C5792 C 0.11601 0.71956 0.51811 0.0
C5793 C 0.10042 0.69102 0.53174 0.0
N5794 N 0.13229 0.74228 0.54182 0.0
N5795 N 0.11009 0.70134 0.54166 0.0
H5796 H 0.51556 0.88464 0.83874 0.0
H5797 H 0.57262 0.87225 0.75653 0.0
H5798 H 0.52636 0.92473 0.80278 0.0
H5799 H 0.57005 0.83495 0.79666 0.0
H5800 H 0.55746 0.89242 0.77456 0.0
H5801 H 0.53707 0.86692 0.82494 0.0
C5802 C 0.52261 0.88979 0.82809 0.0
C5803 C 0.519 0.90609 0.82174 0.0
C5804 C 0.56037 0.87992 0.77957 0.0
C5805 C 0.54346 0.88586 0.80583 0.0
C5806 C 0.56898 0.86843 0.76927 0.0
C5807 C 0.57233 0.85195 0.77514 0.0
C5808 C 0.55483 0.87478 0.79576 0.0
C5809 C 0.56759 0.84758 0.79175 0.0
C5810 C 0.53486 0.87966 0.8202 0.0
C5811 C 0.52844 0.91209 0.80783 0.0
N5812 N 0.5588 0.85888 0.80144 0.0
N5813 N 0.54012 0.90191 0.80025 0.0
H5814 H 0.33432 0.29549 0.06858 0.0
H5815 H 0.42598 0.30669 0.0259 0.0
H5816 H 0.37577 0.26 0.07423 0.0
H5817 H 0.38256 0.338 0.01343 0.0
H5818 H 0.40907 0.29246 0.04769 0.0
H5819 H 0.35331 0.31457 0.05266 0.0
C5820 C 0.34753 0.29196 0.06675 0.0
C5821 C 0.3536 0.27625 0.07247 0.0
C5822 C 0.40326 0.30252 0.04027 0.0
C5823 C 0.37515 0.29762 0.05436 0.0
C5824 C 0.41287 0.31054 0.02776 0.0
C5825 C 0.40556 0.32336 0.01775 0.0
C5826 C 0.3862 0.3073 0.0427 0.0
C5827 C 0.38866 0.32818 0.02093 0.0
C5828 C 0.3583 0.30273 0.05762 0.0
C5829 C 0.3707 0.27203 0.06981 0.0
N5830 N 0.37947 0.32002 0.03306 0.0
N5831 N 0.38087 0.28261 0.0608 0.0
H5832 H 0.92201 0.875 0.24682 0.0
H5833 H 0.99515 0.88261 0.17658 0.0
H5834 H 0.9541 0.83294 0.23234 0.0
H5835 H 0.97685 0.92528 0.20577 0.0
H5836 H 0.9759 0.86391 0.19253 0.0
H5837 H 0.93779 0.89337 0.22713 0.0
C5838 C 0.93224 0.86963 0.23931 0.0
C5839 C 0.93694 0.85256 0.24122 0.0
C5840 C 0.97606 0.87738 0.19535 0.0
C5841 C 0.95488 0.87329 0.21881 0.0
C5842 C 0.98695 0.88802 0.18625 0.0
C5843 C 0.98761 0.90541 0.19003 0.0
C5844 C 0.96564 0.88429 0.2081 0.0
C5845 C 0.97683 0.91187 0.20268 0.0
C5846 C 0.94127 0.88008 0.22819 0.0
C5847 C 0.9503 0.84613 0.23131 0.0
N5848 N 0.96626 0.90129 0.21129 0.0
N5849 N 0.95885 0.85653 0.22051 0.0
H5850 H 0.35169 0.71893 0.42582 0.0
H5851 H 0.40174 0.71042 0.51328 0.0
H5852 H 0.36513 0.76122 0.45812 0.0
H5853 H 0.40697 0.67251 0.47393 0.0
H5854 H 0.3845 0.72754 0.49415 0.0
H5855 H 0.36931 0.70024 0.44375 0.0
C5856 C 0.35849 0.72429 0.43655 0.0
C5857 C 0.35678 0.74155 0.4407 0.0
C5858 C 0.38944 0.71549 0.48965 0.0
C5859 C 0.37648 0.7204 0.46121 0.0
C5860 C 0.39928 0.70572 0.50056 0.0
C5861 C 0.40603 0.69019 0.49505 0.0
C5862 C 0.38617 0.70966 0.47312 0.0
C5863 C 0.40199 0.68445 0.47862 0.0
C5864 C 0.36841 0.71364 0.44678 0.0
C5865 C 0.36576 0.7479 0.45473 0.0
N5866 N 0.39233 0.69427 0.46813 0.0
N5867 N 0.37509 0.73729 0.46456 0.0
H5868 H 0.47444 0.13533 0.70562 0.0
H5869 H 0.54353 0.13073 0.7782 0.0
H5870 H 0.48958 0.08877 0.73023 0.0
H5871 H 0.52334 0.17771 0.75853 0.0
H5872 H 0.51987 0.11538 0.76489 0.0
H5873 H 0.48793 0.15148 0.72864 0.0
C5874 C 0.4801 0.12857 0.71623 0.0
C5875 C 0.481 0.11081 0.71619 0.0
C5876 C 0.5203 0.1291 0.76387 0.0
C5877 C 0.49677 0.12897 0.74219 0.0
C5878 C 0.53373 0.13782 0.77157 0.0
C5879 C 0.53522 0.15539 0.76936 0.0
C5880 C 0.50852 0.1381 0.75376 0.0
C5881 C 0.52249 0.1641 0.76042 0.0
C5882 C 0.48789 0.13773 0.72931 0.0
C5883 C 0.48871 0.10251 0.72995 0.0
N5884 N 0.50979 0.15533 0.7527 0.0
N5885 N 0.49655 0.11166 0.74229 0.0
H5886 H 0.17917 0.27617 0.95451 0.0
H5887 H 0.08722 0.31895 0.96324 0.0
H5888 H 0.137 0.26394 0.92142 0.0
H5889 H 0.12476 0.31772 0.00329 0.0
H5890 H 0.10723 0.3038 0.94457 0.0
H5891 H 0.16109 0.2965 0.96941 0.0
C5892 C 0.16611 0.27778 0.95037 0.0
C5893 C 0.15949 0.26816 0.93689 0.0
C5894 C 0.1111 0.30701 0.95739 0.0
C5895 C 0.13884 0.29154 0.95372 0.0
C5896 C 0.09977 0.31568 0.96796 0.0
C5897 C 0.10439 0.31933 0.98478 0.0
C5898 C 0.12715 0.30224 0.96373 0.0
C5899 C 0.12071 0.31487 0.99043 0.0
C5900 C 0.15584 0.28944 0.95881 0.0
C5901 C 0.14262 0.27112 0.93174 0.0
N5902 N 0.1315 0.30649 0.97994 0.0
N5903 N 0.1328 0.28247 0.94027 0.0
H5904 H 0.25761 0.91774 0.13145 0.0
H5905 H 0.3381 0.97899 0.12333 0.0
H5906 H 0.27731 0.9471 0.17336 0.0
H5907 H 0.30371 0.96986 0.0816 0.0
H5908 H 0.32035 0.96083 0.14156 0.0
H5909 H 0.2787 0.93105 0.11261 0.0
C5910 C 0.26647 0.92694 0.13663 0.0
C5911 C 0.26578 0.93151 0.15383 0.0
C5912 C 0.31689 0.96257 0.12833 0.0
C5913 C 0.2899 0.94637 0.13268 0.0
C5914 C 0.32706 0.97271 0.11795 0.0
C5915 C 0.32229 0.97563 0.10106 0.0
C5916 C 0.30202 0.95532 0.1216 0.0
C5917 C 0.30776 0.96764 0.09459 0.0
C5918 C 0.27842 0.93448 0.12595 0.0
C5919 C 0.27742 0.94345 0.16008 0.0
N5920 N 0.29803 0.95783 0.10492 0.0
N5921 N 0.2891 0.95046 0.14949 0.0
H5922 H 0.24899 0.04435 0.353 0.0
H5923 H 0.32738 0.04198 0.41291 0.0
H5924 H 0.28537 0.08531 0.34781 0.0
H5925 H 0.3131 0.99827 0.38286 0.0
H5926 H 0.31004 0.05998 0.39398 0.0
H5927 H 0.26961 0.02876 0.37005 0.0
C5928 C 0.26131 0.05007 0.35531 0.0
C5929 C 0.26551 0.06607 0.34859 0.0
C5930 C 0.31095 0.04645 0.39156 0.0
C5931 C 0.28885 0.04847 0.36869 0.0
C5932 C 0.32084 0.03621 0.40224 0.0
C5933 C 0.32131 0.01853 0.39972 0.0
C5934 C 0.30136 0.03882 0.37861 0.0
C5935 C 0.31259 0.01172 0.3857 0.0
C5936 C 0.27299 0.04118 0.36513 0.0
C5937 C 0.28149 0.07307 0.35275 0.0
N5938 N 0.3027 0.02183 0.37587 0.0
N5939 N 0.29263 0.06421 0.36262 0.0
H5940 H 0.24098 0.07263 0.6322 0.0
H5941 H 0.16323 0.00749 0.62436 0.0
H5942 H 0.21138 0.0562 0.67529 0.0
H5943 H 0.19834 0.01914 0.58381 0.0
H5944 H 0.17783 0.02827 0.64249 0.0
H5945 H 0.22219 0.05654 0.61338 0.0
C5946 C 0.23029 0.06579 0.63758 0.0
C5947 C 0.22758 0.06559 0.65516 0.0
C5948 C 0.18227 0.02631 0.6296 0.0
C5949 C 0.20634 0.04691 0.63396 0.0
C5950 C 0.17396 0.0145 0.61928 0.0
C5951 C 0.17977 0.01149 0.60268 0.0
C5952 C 0.19635 0.03522 0.62316 0.0
C5953 C 0.19369 0.02085 0.59666 0.0
C5954 C 0.21964 0.05655 0.62692 0.0
C5955 C 0.2137 0.05659 0.66172 0.0
N5956 N 0.20153 0.03227 0.60691 0.0
N5957 N 0.20362 0.0474 0.65109 0.0
H5958 H 0.22409 0.91167 0.86184 0.0
H5959 H 0.18878 0.00284 0.8877 0.0
H5960 H 0.22723 0.95638 0.83021 0.0
H5961 H 0.18258 0.9585 0.91943 0.0
H5962 H 0.19983 0.9849 0.86507 0.0
H5963 H 0.20545 0.92721 0.88143 0.0
C5964 C 0.22051 0.92463 0.85884 0.0
C5965 C 0.22731 0.93289 0.84456 0.0
C5966 C 0.19599 0.979 0.87692 0.0
C5967 C 0.20635 0.95072 0.86687 0.0
C5968 C 0.18982 0.98927 0.88988 0.0
C5969 C 0.18515 0.98212 0.90552 0.0
C5970 C 0.19769 0.96144 0.87965 0.0
C5971 C 0.18624 0.96445 0.90756 0.0
C5972 C 0.20999 0.93352 0.87005 0.0
C5973 C 0.22244 0.94969 0.84125 0.0
N5974 N 0.19264 0.95468 0.89481 0.0
N5975 N 0.2124 0.95811 0.85243 0.0
H5976 H 0.67744 0.2199 0.04293 0.0
H5977 H 0.58191 0.19897 0.02337 0.0
H5978 H 0.63815 0.22552 0.08073 0.0
H5979 H 0.6229 0.1745 0.99629 0.0
H5980 H 0.60243 0.20917 0.04449 0.0
H5981 H 0.65812 0.20246 0.02583 0.0
C5982 C 0.66488 0.21696 0.0478 0.0
C5983 C 0.65924 0.22395 0.06314 0.0
C5984 C 0.6069 0.20144 0.034 0.0
C5985 C 0.63703 0.20478 0.04359 0.0
C5986 C 0.59527 0.19585 0.02188 0.0
C5987 C 0.60086 0.18613 0.00806 0.0
C5988 C 0.62422 0.19746 0.03207 0.0
C5989 C 0.61819 0.18207 0.00678 0.0
C5990 C 0.65385 0.20712 0.03807 0.0
C5991 C 0.64286 0.22014 0.06896 0.0
N5992 N 0.62934 0.18793 0.01857 0.0
N5993 N 0.63213 0.21103 0.05898 0.0
H5994 H 0.07851 0.34634 0.28449 0.0
H5995 H 0.99213 0.39829 0.29335 0.0
H5996 H 0.04453 0.35754 0.24272 0.0
H5997 H 0.03317 0.4048 0.32936 0.0
H5998 H 0.01018 0.3797 0.27655 0.0
H5999 H 0.06148 0.36511 0.30277 0.0
C6000 C 0.06758 0.35283 0.27914 0.0
C6001 C 0.06277 0.35019 0.26213 0.0
C6002 C 0.01529 0.38522 0.2881 0.0
C6003 C 0.04323 0.37125 0.28292 0.0
C6004 C 0.005 0.39586 0.29768 0.0
C6005 C 0.01129 0.40335 0.31258 0.0
C6006 C 0.03198 0.38187 0.29349 0.0
C6007 C 0.02787 0.39928 0.3179 0.0
C6008 C 0.05786 0.36343 0.28958 0.0
C6009 C 0.04845 0.35883 0.25586 0.0
N6010 N 0.03774 0.38882 0.30829 0.0
N6011 N 0.03914 0.36885 0.26628 0.0
H6012 H 0.8293 0.78157 0.55072 0.0
H6013 H 0.92367 0.81504 0.53984 0.0
H6014 H 0.86817 0.77246 0.58836 0.0
H6015 H 0.88131 0.83434 0.51082 0.0
H6016 H 0.90362 0.8004 0.55884 0.0
H6017 H 0.84796 0.80219 0.53677 0.0
C6018 C 0.84174 0.78415 0.5561 0.0
C6019 C 0.84736 0.77546 0.57057 0.0
C6020 C 0.89869 0.80811 0.54853 0.0
C6021 C 0.86883 0.7986 0.55468 0.0
C6022 C 0.9101 0.81642 0.53777 0.0
C6023 C 0.90394 0.82574 0.52391 0.0
C6024 C 0.88113 0.80913 0.54518 0.0
C6025 C 0.88638 0.82715 0.52144 0.0
C6026 C 0.85237 0.79589 0.54821 0.0
C6027 C 0.8635 0.77907 0.57719 0.0
N6028 N 0.87554 0.81878 0.5319 0.0
N6029 N 0.87384 0.79024 0.56903 0.0
H6030 H 0.0137 0.62355 0.17413 0.0
H6031 H 0.08129 0.62681 0.25014 0.0
H6032 H 0.02581 0.57997 0.20523 0.0
H6033 H 0.05365 0.67082 0.23247 0.0
H6034 H 0.06529 0.60916 0.22994 0.0
H6035 H 0.03289 0.64087 0.19162 0.0
C6036 C 0.02057 0.61762 0.18452 0.0
C6037 C 0.01814 0.6004 0.18838 0.0
C6038 C 0.06279 0.62269 0.23048 0.0
C6039 C 0.03998 0.61998 0.2083 0.0
C6040 C 0.07192 0.63272 0.24193 0.0
C6041 C 0.0686 0.65019 0.24301 0.0
C6042 C 0.05052 0.63029 0.21991 0.0
C6043 C 0.05636 0.65732 0.23214 0.0
C6044 C 0.0314 0.62749 0.19453 0.0
C6045 C 0.02724 0.59328 0.20201 0.0
N6046 N 0.04776 0.64734 0.221 0.0
N6047 N 0.03777 0.60311 0.21151 0.0
H6048 H 0.48692 0.42016 0.70656 0.0
H6049 H 0.43844 0.33112 0.70791 0.0
H6050 H 0.49131 0.38335 0.66614 0.0
H6051 H 0.43274 0.37017 0.7459 0.0
H6052 H 0.45532 0.35094 0.69055 0.0
H6053 H 0.46499 0.40273 0.71976 0.0
C6054 C 0.48329 0.40832 0.70053 0.0
C6055 C 0.49105 0.40302 0.68542 0.0
C6056 C 0.45014 0.35524 0.70256 0.0
C6057 C 0.46587 0.38303 0.70032 0.0
C6058 C 0.44047 0.34399 0.71235 0.0
C6059 C 0.43448 0.3491 0.72831 0.0
C6060 C 0.45372 0.37156 0.70891 0.0
C6061 C 0.4374 0.36579 0.7337 0.0
C6062 C 0.47066 0.39844 0.70797 0.0
C6063 C 0.48561 0.38781 0.67786 0.0
N6064 N 0.44696 0.37639 0.72408 0.0
N6065 N 0.47343 0.37822 0.68549 0.0
H6066 H 0.03416 0.92628 0.7033 0.0
H6067 H 0.08278 0.83749 0.70619 0.0
H6068 H 0.03703 0.89254 0.66023 0.0
H6069 H 0.07827 0.87215 0.74841 0.0
H6070 H 0.07062 0.85938 0.68738 0.0
H6071 H 0.05519 0.90888 0.7181 0.0
C6072 C 0.03955 0.91535 0.69687 0.0
C6073 C 0.03388 0.91069 0.68065 0.0
C6074 C 0.07251 0.86225 0.70072 0.0
C6075 C 0.05753 0.89043 0.69759 0.0
C6076 C 0.07945 0.8498 0.7114 0.0
C6077 C 0.08114 0.85299 0.72885 0.0
C6078 C 0.0674 0.87792 0.70764 0.0
C6079 C 0.07676 0.86909 0.73506 0.0
C6080 C 0.05149 0.90537 0.70531 0.0
C6081 C 0.04118 0.89649 0.67276 0.0
N6082 N 0.06995 0.88089 0.7245 0.0
N6083 N 0.05245 0.88662 0.68145 0.0
H6084 H 0.92572 0.30632 0.47759 0.0
H6085 H 0.83067 0.2864 0.45067 0.0
H6086 H 0.88272 0.33326 0.49857 0.0
H6087 H 0.87393 0.27132 0.42062 0.0
H6088 H 0.84929 0.30461 0.46783 0.0
H6089 H 0.90689 0.29351 0.4564 0.0
C6090 C 0.91229 0.30949 0.47772 0.0
C6091 C 0.90568 0.32072 0.48986 0.0
C6092 C 0.85467 0.29763 0.45724 0.0
C6093 C 0.88416 0.3063 0.46568 0.0
C6094 C 0.84405 0.28738 0.44745 0.0
C6095 C 0.8509 0.27767 0.43425 0.0
C6096 C 0.87226 0.29774 0.45396 0.0
C6097 C 0.86829 0.2789 0.43064 0.0
C6098 C 0.9016 0.30234 0.46554 0.0
C6099 C 0.88828 0.32466 0.48936 0.0
N6100 N 0.87847 0.28861 0.44063 0.0
N6101 N 0.87806 0.31732 0.47755 0.0
H6102 H 0.45081 0.17547 0.22575 0.0
H6103 H 0.45989 0.08164 0.18857 0.0
H6104 H 0.42014 0.13307 0.24234 0.0
H6105 H 0.49306 0.12338 0.17592 0.0
H6106 H 0.4413 0.10146 0.204 0.0
H6107 H 0.46289 0.15766 0.20342 0.0
C6108 C 0.44665 0.16238 0.22466 0.0
C6109 C 0.43472 0.1556 0.23602 0.0
C6110 C 0.45247 0.10633 0.19757 0.0
C6111 C 0.44833 0.1352 0.21051 0.0
C6112 C 0.46295 0.09507 0.18874 0.0
C6113 C 0.47792 0.10105 0.18122 0.0
C6114 C 0.45717 0.12354 0.19881 0.0
C6115 C 0.48159 0.11843 0.18174 0.0
C6116 C 0.45342 0.15226 0.21185 0.0
C6117 C 0.42938 0.13873 0.23383 0.0
N6118 N 0.47136 0.12908 0.19058 0.0
N6119 N 0.43638 0.12902 0.22142 0.0
H6120 H 0.64675 0.76157 0.95938 0.0
H6121 H 0.60155 0.67235 0.97192 0.0
H6122 H 0.65779 0.71975 0.92555 0.0
H6123 H 0.6137 0.70647 0.01322 0.0
H6124 H 0.61866 0.69017 0.95276 0.0
H6125 H 0.62994 0.74251 0.97701 0.0
C6126 C 0.6457 0.74835 0.95567 0.0
C6127 C 0.654 0.74218 0.94113 0.0
C6128 C 0.61756 0.69362 0.96605 0.0
C6129 C 0.63446 0.72035 0.96117 0.0
C6130 C 0.60792 0.68344 0.97701 0.0
C6131 C 0.60597 0.68806 0.99417 0.0
C6132 C 0.62505 0.70855 0.97231 0.0
C6133 C 0.61442 0.70265 1.00002 0.0
C6134 C 0.63606 0.7375 0.96573 0.0
C6135 C 0.65162 0.72504 0.93665 0.0
N6136 N 0.62342 0.71245 0.98908 0.0
N6137 N 0.64207 0.71466 0.94669 0.0
H6138 H 0.99207 0.11207 0.79936 0.0
H6139 H 0.08501 0.13692 0.76946 0.0
H6140 H 0.03715 0.09268 0.82405 0.0
H6141 H 0.04119 0.16861 0.75953 0.0
H6142 H 0.06767 0.11944 0.78839 0.0
H6143 H 0.00982 0.13188 0.78316 0.0
C6144 C 0.00573 0.11205 0.80132 0.0
C6145 C 0.01328 0.10081 0.8129 0.0
C6146 C 0.06191 0.13032 0.78218 0.0
C6147 C 0.03353 0.12316 0.79454 0.0
C6148 C 0.07179 0.14031 0.77143 0.0
C6149 C 0.06445 0.15415 0.76289 0.0
C6150 C 0.0446 0.13415 0.78425 0.0
C6151 C 0.04722 0.15785 0.76566 0.0
C6152 C 0.01581 0.12337 0.79221 0.0
C6153 C 0.03095 0.10127 0.81523 0.0
N6154 N 0.03781 0.14781 0.77605 0.0
N6155 N 0.04056 0.11219 0.80597 0.0
H6156 H 0.61726 0.33256 0.51569 0.0
H6157 H 0.64401 0.23998 0.54695 0.0
H6158 H 0.58709 0.28796 0.50554 0.0
H6159 H 0.66151 0.28545 0.57213 0.0
H6160 H 0.62514 0.25733 0.52929 0.0
H6161 H 0.63584 0.31545 0.53418 0.0
C6162 C 0.61467 0.31913 0.51732 0.0
C6163 C 0.60074 0.31155 0.50916 0.0
C6164 C 0.63304 0.2635 0.53873 0.0
C6165 C 0.62182 0.29201 0.53002 0.0
C6166 C 0.64387 0.25363 0.54874 0.0
C6167 C 0.65436 0.26132 0.56096 0.0
C6168 C 0.63285 0.28121 0.54081 0.0
C6169 C 0.65354 0.27904 0.56291 0.0
C6170 C 0.62515 0.30943 0.52791 0.0
C6171 C 0.59772 0.29419 0.51171 0.0
N6172 N 0.64305 0.28843 0.55283 0.0
N6173 N 0.60826 0.28495 0.52183 0.0
H6174 H 0.45764 0.92061 0.31915 0.0
H6175 H 0.457 0.83162 0.27011 0.0
H6176 H 0.49964 0.8853 0.31827 0.0
H6177 H 0.41706 0.86907 0.26538 0.0
H6178 H 0.4708 0.84939 0.29144 0.0
H6179 H 0.44031 0.8999 0.30341 0.0
C6180 C 0.46307 0.90839 0.31584 0.0
C6181 C 0.48008 0.90466 0.31964 0.0
C6182 C 0.45896 0.85369 0.28582 0.0
C6183 C 0.46061 0.88114 0.30178 0.0
C6184 C 0.45116 0.84361 0.27357 0.0
C6185 C 0.43601 0.84901 0.26584 0.0
C6186 C 0.4516 0.86933 0.29032 0.0
C6187 C 0.42873 0.86444 0.27107 0.0
C6188 C 0.45327 0.89664 0.30683 0.0
C6189 C 0.48663 0.88871 0.31521 0.0
N6190 N 0.43669 0.87416 0.28291 0.0
N6191 N 0.47693 0.87757 0.30637 0.0
H6192 H 0.88899 0.69109 0.00479 0.0
H6193 H 0.85225 0.72091 0.09266 0.0
H6194 H 0.92009 0.6823 0.04924 0.0
H6195 H 0.85552 0.75343 0.04836 0.0
H6196 H 0.87092 0.70033 0.0783 0.0
H6197 H 0.86858 0.70646 0.02235 0.0
C6198 C 0.89139 0.69225 0.01832 0.0
C6199 C 0.90645 0.68597 0.02557 0.0
C6200 C 0.86742 0.71201 0.07188 0.0
C6201 C 0.8831 0.70318 0.0456 0.0
C6202 C 0.85691 0.72381 0.08002 0.0
C6203 C 0.85211 0.73889 0.07162 0.0
C6204 C 0.8727 0.71524 0.0552 0.0
C6205 C 0.85837 0.74181 0.05517 0.0
C6206 C 0.87976 0.70093 0.02827 0.0
C6207 C 0.90872 0.68725 0.04322 0.0
N6208 N 0.86818 0.73 0.04744 0.0
N6209 N 0.8972 0.69602 0.05274 0.0
H6210 H 0.74871 0.07397 0.87065 0.0
H6211 H 0.6754 0.00478 0.88292 0.0
H6212 H 0.72994 0.04274 0.82962 0.0
H6213 H 0.70538 0.02466 0.9244 0.0
H6214 H 0.69253 0.02149 0.86295 0.0
H6215 H 0.73013 0.05871 0.89039 0.0
C6216 C 0.74059 0.06394 0.86581 0.0
C6217 C 0.74082 0.05954 0.84854 0.0
C6218 C 0.69533 0.02219 0.87642 0.0
C6219 C 0.71963 0.0421 0.87095 0.0
C6220 C 0.68551 0.01278 0.8878 0.0
C6221 C 0.68907 0.01335 0.90527 0.0
C6222 C 0.70864 0.03235 0.88263 0.0
C6223 C 0.70237 0.02376 0.91098 0.0
C6224 C 0.73008 0.0552 0.87707 0.0
C6225 C 0.73021 0.04637 0.8429 0.0
N6226 N 0.71168 0.03289 0.89968 0.0
N6227 N 0.71997 0.03812 0.85409 0.0
H6228 H 0.69604 0.01093 0.6109 0.0
H6229 H 0.71742 0.91673 0.64014 0.0
H6230 H 0.66791 0.9678 0.59202 0.0
H6231 H 0.73231 0.96141 0.66826 0.0
H6232 H 0.69905 0.93456 0.62221 0.0
H6233 H 0.71026 0.9924 0.63139 0.0
C6234 C 0.69294 0.9975 0.61107 0.0
C6235 C 0.68089 0.99079 0.59981 0.0
C6236 C 0.70614 0.94038 0.63249 0.0
C6237 C 0.69697 0.96955 0.62318 0.0
C6238 C 0.7165 0.93022 0.64276 0.0
C6239 C 0.72647 0.93771 0.65552 0.0
C6240 C 0.70593 0.95806 0.63502 0.0
C6241 C 0.725 0.95523 0.65834 0.0
C6242 C 0.70091 0.98696 0.62284 0.0
C6243 C 0.67712 0.97338 0.60061 0.0
N6244 N 0.71509 0.96485 0.64803 0.0
N6245 N 0.68526 0.96328 0.61205 0.0
H6246 H 0.82142 0.95876 0.41725 0.0
H6247 H 0.77862 0.95472 0.32519 0.0
H6248 H 0.82089 1.00027 0.38139 0.0
H6249 H 0.76776 0.91926 0.36574 0.0
H6250 H 0.8001 0.96814 0.3432 0.0
H6251 H 0.80792 0.94053 0.39575 0.0
C6252 C 0.81872 0.96387 0.40473 0.0
C6253 C 0.82187 0.98096 0.40101 0.0
C6254 C 0.79312 0.9573 0.34807 0.0
C6255 C 0.80664 0.96052 0.37664 0.0
C6256 C 0.7808 0.94975 0.33786 0.0
C6257 C 0.77124 0.93606 0.3441 0.0
C6258 C 0.79583 0.95113 0.36461 0.0
C6259 C 0.77487 0.92979 0.36043 0.0
C6260 C 0.81101 0.95356 0.39254 0.0
C6261 C 0.81829 0.98716 0.3847 0.0
N6262 N 0.78678 0.9375 0.37021 0.0
N6263 N 0.81069 0.97696 0.37312 0.0
H6264 H 0.8028 0.04007 0.08331 0.0
H6265 H 0.80093 0.07119 0.17757 0.0
H6266 H 0.84399 0.02853 0.11774 0.0
H6267 H 0.77644 0.0996 0.13752 0.0
H6268 H 0.81759 0.05588 0.15614 0.0
H6269 H 0.79288 0.06208 0.10303 0.0
C6270 C 0.80982 0.04233 0.09496 0.0
C6271 C 0.82418 0.03255 0.09898 0.0
C6272 C 0.80893 0.06581 0.15206 0.0
C6273 C 0.81289 0.05742 0.1216 0.0
C6274 C 0.79953 0.07459 0.16428 0.0
C6275 C 0.78744 0.0867 0.15924 0.0
C6276 C 0.80583 0.06888 0.13473 0.0
C6277 C 0.78581 0.09048 0.14188 0.0
C6278 C 0.80425 0.05493 0.10614 0.0
C6279 C 0.8329 0.03592 0.11418 0.0
N6280 N 0.79464 0.08132 0.13018 0.0
N6281 N 0.82697 0.04792 0.1251 0.0
H6282 H 0.35535 0.74971 0.96019 0.0
H6283 H 0.41281 0.82905 0.96222 0.0
H6284 H 0.34874 0.7856 0.91895 0.0
H6285 H 0.38296 0.8148 0.00611 0.0
H6286 H 0.39383 0.81172 0.94431 0.0
H6287 H 0.37101 0.77121 0.97592 0.0
C6288 C 0.35702 0.76211 0.95444 0.0
C6289 C 0.3504 0.76586 0.93827 0.0
C6290 C 0.39143 0.81267 0.95785 0.0
C6291 C 0.36895 0.79024 0.95605 0.0
C6292 C 0.40216 0.82254 0.96804 0.0
C6293 C 0.39974 0.82295 0.98574 0.0
C6294 C 0.37854 0.80306 0.96557 0.0
C6295 C 0.38571 0.81431 0.99263 0.0
C6296 C 0.36605 0.77431 0.96342 0.0
C6297 C 0.3537 0.78203 0.93129 0.0
N6298 N 0.37585 0.80441 0.98258 0.0
N6299 N 0.36289 0.79366 0.9402 0.0
H6300 H 0.97415 0.61371 0.66794 0.0
H6301 H 0.91621 0.63117 0.74944 0.0
H6302 H 0.95736 0.57448 0.7024 0.0
H6303 H 0.94561 0.66985 0.72391 0.0
H6304 H 0.92574 0.61043 0.72837 0.0
H6305 H 0.95739 0.63452 0.68394 0.0
C6306 C 0.96641 0.60941 0.67851 0.0
C6307 C 0.96708 0.59245 0.68397 0.0
C6308 C 0.93003 0.62347 0.72733 0.0
C6309 C 0.94837 0.61607 0.70245 0.0
C6310 C 0.92461 0.63528 0.73932 0.0
C6311 C 0.93026 0.65216 0.73842 0.0
C6312 C 0.94107 0.62862 0.7143 0.0
C6313 C 0.94119 0.65687 0.72515 0.0
C6314 C 0.95708 0.62129 0.68776 0.0
C6315 C 0.95714 0.5875 0.69789 0.0
N6316 N 0.94629 0.64513 0.71358 0.0
N6317 N 0.94831 0.59932 0.70681 0.0
H6318 H 0.12088 0.18703 0.50274 0.0
H6319 H 0.1341 0.24268 0.4188 0.0
H6320 H 0.08384 0.18907 0.46225 0.0
H6321 H 0.1709 0.23825 0.45938 0.0
H6322 H 0.11599 0.22192 0.43342 0.0
H6323 H 0.14028 0.20403 0.48562 0.0
C6324 C 0.11695 0.19096 0.49011 0.0
C6325 C 0.10074 0.18689 0.4839 0.0
C6326 C 0.12807 0.22545 0.43906 0.0
C6327 C 0.12275 0.20648 0.46428 0.0
C6328 C 0.13831 0.23737 0.43081 0.0
C6329 C 0.15397 0.24215 0.43794 0.0
C6330 C 0.13353 0.21841 0.45456 0.0
C6331 C 0.15899 0.23477 0.45338 0.0
C6332 C 0.128 0.20067 0.48034 0.0
C6333 C 0.09627 0.19203 0.46743 0.0
N6334 N 0.14877 0.22331 0.46119 0.0
N6335 N 0.10718 0.2018 0.45821 0.0
H6336 H 0.01544 0.42133 0.77703 0.0
H6337 H 0.98079 0.3343 0.73809 0.0
H6338 H 0.01987 0.37268 0.80192 0.0
H6339 H 0.95613 0.38263 0.73039 0.0
H6340 H 0.00362 0.3487 0.75383 0.0
H6341 H 1.00187 0.40731 0.75259 0.0
C6342 C 0.01398 0.40763 0.77707 0.0
C6343 C 0.01866 0.39805 0.79137 0.0
C6344 C 0.99349 0.35619 0.74821 0.0
C6345 C 0.00341 0.38209 0.7637 0.0
C6346 C 0.98062 0.34804 0.73913 0.0
C6347 C 0.96678 0.35741 0.73293 0.0
C6348 C 0.99244 0.37378 0.75097 0.0
C6349 C 0.96676 0.37509 0.7349 0.0
C6350 C 0.00621 0.39969 0.76323 0.0
C6351 C 0.01635 0.38041 0.79106 0.0
N6352 N 0.97935 0.38275 0.74393 0.0
N6353 N 0.00878 0.37296 0.77744 0.0
H6354 H 0.50775 0.62575 0.32723 0.0
H6355 H 0.59563 0.64373 0.28183 0.0
H6356 H 0.5488 0.58936 0.32686 0.0
H6357 H 0.55708 0.6819 0.29032 0.0
H6358 H 0.58073 0.62478 0.30149 0.0
H6359 H 0.52716 0.64747 0.31666 0.0
C6360 C 0.52095 0.62243 0.32498 0.0
C6361 C 0.52672 0.60579 0.32758 0.0
C6362 C 0.57572 0.63743 0.29932 0.0
C6363 C 0.54901 0.63045 0.31542 0.0
C6364 C 0.58428 0.64829 0.28819 0.0
C6365 C 0.57741 0.6643 0.28429 0.0
C6366 C 0.56017 0.64262 0.30643 0.0
C6367 C 0.56261 0.66952 0.29275 0.0
C6368 C 0.53206 0.63481 0.31904 0.0
C6369 C 0.54394 0.60209 0.32483 0.0
N6370 N 0.55434 0.65861 0.30322 0.0
N6371 N 0.55448 0.6143 0.31859 0.0
H6372 H 0.46702 0.67005 0.76066 0.0
H6373 H 0.49905 0.57581 0.78074 0.0
H6374 H 0.45523 0.62709 0.72883 0.0
H6375 H 0.50187 0.61769 0.81604 0.0
H6376 H 0.48733 0.59509 0.75923 0.0
H6377 H 0.48529 0.65192 0.77813 0.0
C6378 C 0.46882 0.65687 0.75706 0.0
C6379 C 0.45979 0.64995 0.74336 0.0
C6380 C 0.49057 0.60006 0.77166 0.0
C6381 C 0.48004 0.62905 0.76349 0.0
C6382 C 0.49722 0.58909 0.78392 0.0
C6383 C 0.50128 0.59519 0.80019 0.0
C6384 C 0.48812 0.61726 0.77569 0.0
C6385 C 0.49864 0.61244 0.80373 0.0
C6386 C 0.47903 0.64649 0.76712 0.0
C6387 C 0.46218 0.63282 0.73925 0.0
N6388 N 0.49222 0.62288 0.79156 0.0
N6389 N 0.47194 0.62283 0.74947 0.0
H6390 H 0.88421 0.16964 0.98969 0.0
H6391 H 0.85987 0.26366 0.96007 0.0
H6392 H 0.91477 0.21356 1.00153 0.0
H6393 H 0.84104 0.21882 0.93468 0.0
H6394 H 0.87747 0.24557 0.97833 0.0
H6395 H 0.86568 0.18763 0.97201 0.0
C6396 C 0.8869 0.18311 0.98857 0.0
C6397 C 0.90091 0.19025 0.99693 0.0
C6398 C 0.86948 0.23971 0.96875 0.0
C6399 C 0.8799 0.21079 0.97711 0.0
C6400 C 0.85936 0.25 0.95843 0.0
C6401 C 0.84902 0.2427 0.94586 0.0
C6402 C 0.86911 0.222 0.96658 0.0
C6403 C 0.84897 0.22494 0.94412 0.0
C6404 C 0.87643 0.19332 0.9785 0.0
C6405 C 0.90407 0.20767 0.99514 0.0
N6406 N 0.85885 0.21517 0.95441 0.0
N6407 N 0.89357 0.21741 0.98548 0.0
H6408 H 0.58978 0.78142 0.50369 0.0
H6409 H 0.66248 0.78062 0.43283 0.0
H6410 H 0.6169 0.82636 0.48793 0.0
H6411 H 0.64426 0.73531 0.45796 0.0
H6412 H 0.64402 0.79773 0.45106 0.0
H6413 H 0.60811 0.76423 0.48524 0.0
C6414 C 0.59964 0.78758 0.49628 0.0
C6415 C 0.60204 0.80516 0.49723 0.0
C6416 C 0.64413 0.78405 0.45262 0.0
C6417 C 0.62276 0.78588 0.47613 0.0
C6418 C 0.65457 0.77429 0.44218 0.0
C6419 C 0.6549 0.75656 0.44398 0.0
C6420 C 0.63393 0.77597 0.46485 0.0
C6421 C 0.64454 0.74898 0.45635 0.0
C6422 C 0.61008 0.77784 0.48582 0.0
C6423 C 0.61488 0.81275 0.48752 0.0
N6424 N 0.63442 0.75874 0.46631 0.0
N6425 N 0.62476 0.80304 0.47725 0.0
H6426 H 0.78456 0.42001 0.64264 0.0
H6427 H 0.81285 0.51536 0.6231 0.0
H6428 H 0.76984 0.46339 0.67278 0.0
H6429 H 0.83303 0.47219 0.59591 0.0
H6430 H 0.79825 0.49603 0.64242 0.0
H6431 H 0.80411 0.43828 0.62654 0.0
C6432 C 0.78567 0.43332 0.64601 0.0
C6433 C 0.77546 0.44033 0.65882 0.0
C6434 C 0.80597 0.49074 0.63233 0.0
C6435 C 0.7975 0.4612 0.64054 0.0
C6436 C 0.81421 0.50178 0.62124 0.0
C6437 C 0.82402 0.49533 0.60785 0.0
C6438 C 0.80742 0.4731 0.62992 0.0
C6439 C 0.82562 0.47764 0.60615 0.0
C6440 C 0.79674 0.44374 0.63681 0.0
C6441 C 0.77727 0.45761 0.66273 0.0
N6442 N 0.81725 0.4671 0.61698 0.0
N6443 N 0.78796 0.46748 0.65352 0.0
H6444 H 0.74157 0.54851 0.85819 0.0
H6445 H 0.83299 0.51611 0.88564 0.0
H6446 H 0.78768 0.57216 0.84019 0.0
H6447 H 0.78944 0.51149 0.9189 0.0
H6448 H 0.81603 0.53357 0.86642 0.0
H6449 H 0.75845 0.53162 0.87832 0.0
C6450 C 0.75527 0.55007 0.85852 0.0
C6451 C 0.76336 0.56161 0.8476 0.0
C6452 C 0.81024 0.52877 0.87797 0.0
C6453 C 0.7826 0.54238 0.87026 0.0
C6454 C 0.81992 0.51886 0.88901 0.0
C6455 C 0.8127 0.51244 0.90406 0.0
C6456 C 0.79315 0.53205 0.88181 0.0
C6457 C 0.7955 0.51601 0.9074 0.0
C6458 C 0.76484 0.54054 0.87 0.0
C6459 C 0.78107 0.56339 0.84849 0.0
N6460 N 0.78628 0.52555 0.89632 0.0
N6461 N 0.79017 0.55372 0.85956 0.0
H6462 H 0.73025 0.54992 0.17768 0.0
H6463 H 0.6916 0.54629 0.08359 0.0
H6464 H 0.74494 0.58435 0.13748 0.0
H6465 H 0.68428 0.50757 0.12172 0.0
H6466 H 0.70691 0.56361 0.10468 0.0
H6467 H 0.70951 0.537 0.15857 0.0
C6468 C 0.72915 0.5547 0.1648 0.0
C6469 C 0.73946 0.56806 0.15907 0.0
C6470 C 0.70174 0.55142 0.10847 0.0
C6471 C 0.7156 0.55354 0.13722 0.0
C6472 C 0.69296 0.54166 0.09651 0.0
C6473 C 0.68696 0.52554 0.10103 0.0
C6474 C 0.70437 0.5449 0.12493 0.0
C6475 C 0.68896 0.51992 0.11782 0.0
C6476 C 0.71722 0.54743 0.15394 0.0
C6477 C 0.7372 0.57408 0.14239 0.0
N6478 N 0.69764 0.52954 0.12915 0.0
N6479 N 0.72558 0.56668 0.13199 0.0
H6480 H 0.76433 0.45068 0.38483 0.0
H6481 H 0.69892 0.52285 0.36593 0.0
H6482 H 0.7632 0.47463 0.33551 0.0
H6483 H 0.72151 0.51703 0.41564 0.0
H6484 H 0.72169 0.505 0.35401 0.0
H6485 H 0.74801 0.47457 0.39646 0.0
C6486 C 0.76097 0.46122 0.3766 0.0
C6487 C 0.76519 0.46091 0.35931 0.0
C6488 C 0.72183 0.50799 0.36746 0.0
C6489 C 0.74614 0.48783 0.37224 0.0
C6490 C 0.70888 0.51812 0.37422 0.0
C6491 C 0.70846 0.52149 0.39173 0.0
C6492 C 0.73407 0.50085 0.37839 0.0
C6493 C 0.72153 0.51494 0.40203 0.0
C6494 C 0.75167 0.4748 0.38318 0.0
C6495 C 0.76033 0.47463 0.34899 0.0
N6496 N 0.73364 0.50468 0.39525 0.0
N6497 N 0.75075 0.48745 0.35555 0.0
H6498 H 0.50392 0.38277 0.1812 0.0
H6499 H 0.57888 0.36932 0.24736 0.0
H6500 H 0.52608 0.42442 0.20917 0.0
H6501 H 0.54135 0.3305 0.23771 0.0
H6502 H 0.56205 0.38938 0.23044 0.0
H6503 H 0.52023 0.36275 0.19878 0.0
C6504 C 0.51233 0.38764 0.19099 0.0
C6505 C 0.51377 0.40515 0.19383 0.0
C6506 C 0.55747 0.37649 0.2321 0.0
C6507 C 0.53228 0.38257 0.21378 0.0
C6508 C 0.56706 0.36509 0.24164 0.0
C6509 C 0.56141 0.34835 0.24377 0.0
C6510 C 0.54233 0.37096 0.22444 0.0
C6511 C 0.54601 0.34338 0.23631 0.0
C6512 C 0.52147 0.37627 0.20105 0.0
C6513 C 0.52464 0.41095 0.20671 0.0
N6514 N 0.53702 0.35464 0.22678 0.0
N6515 N 0.53361 0.39965 0.21619 0.0
H6516 H 0.10612 0.79888 0.99827 0.0
H6517 H 0.16279 0.79436 0.07755 0.0
H6518 H 0.09642 0.83714 0.03659 0.0
H6519 H 0.13479 0.75018 0.06079 0.0
H6520 H 0.14276 0.81245 0.06156 0.0
H6521 H 0.12198 0.78254 0.01918 0.0
C6522 C 0.10712 0.80382 0.01109 0.0
C6523 C 0.09961 0.81934 0.01569 0.0
C6524 C 0.14098 0.7988 0.0617 0.0
C6525 C 0.1184 0.80091 0.0394 0.0
C6526 C 0.15231 0.78851 0.07077 0.0
C6527 C 0.15072 0.77075 0.07001 0.0
C6528 C 0.12832 0.79112 0.05175 0.0
C6529 C 0.13687 0.76378 0.06115 0.0
C6530 C 0.11628 0.7945 0.02295 0.0
C6531 C 0.10209 0.82534 0.03239 0.0
N6532 N 0.12642 0.77397 0.05203 0.0
N6533 N 0.11143 0.81614 0.04369 0.0
H6534 H 0.42669 0.19982 0.53814 0.0
H6535 H 0.33183 0.22946 0.55486 0.0
H6536 H 0.38313 0.17178 0.52027 0.0
H6537 H 0.37368 0.24628 0.58617 0.0
H6538 H 0.35069 0.20868 0.54142 0.0
H6539 H 0.40783 0.21717 0.55597 0.0
C6540 C 0.41317 0.19709 0.5384 0.0
C6541 C 0.40631 0.18438 0.52804 0.0
C6542 C 0.35573 0.21684 0.5513 0.0
C6543 C 0.38476 0.20427 0.54772 0.0
C6544 C 0.34504 0.22877 0.55882 0.0
C6545 C 0.35132 0.23958 0.5715 0.0
C6546 C 0.37287 0.21593 0.55634 0.0
C6547 C 0.36842 0.23809 0.57642 0.0
C6548 C 0.40243 0.20698 0.54844 0.0
C6549 C 0.38877 0.18142 0.52833 0.0
N6550 N 0.37868 0.22656 0.56871 0.0
N6551 N 0.37851 0.19145 0.5379 0.0
H6552 H 0.22239 0.5494 0.32567 0.0
H6553 H 0.1749 0.54611 0.41494 0.0
H6554 H 0.22043 0.59184 0.36029 0.0
H6555 H 0.18089 0.50352 0.38094 0.0
H6556 H 0.18635 0.56492 0.3928 0.0
H6557 H 0.20152 0.5345 0.34313 0.0
C6558 C 0.21724 0.55567 0.33682 0.0
C6559 C 0.22316 0.57169 0.34175 0.0
C6560 C 0.18496 0.55149 0.39014 0.0
C6561 C 0.1997 0.55469 0.36198 0.0
C6562 C 0.17846 0.5408 0.40274 0.0
C6563 C 0.17737 0.52327 0.39979 0.0
C6564 C 0.19024 0.5445 0.37457 0.0
C6565 C 0.18199 0.51693 0.38381 0.0
C6566 C 0.20539 0.54719 0.3468 0.0
C6567 C 0.21611 0.57944 0.35616 0.0
N6568 N 0.18836 0.52753 0.37184 0.0
N6569 N 0.20493 0.5707 0.36601 0.0
H6570 H 0.25373 0.42183 0.13135 0.0
H6571 H 0.18182 0.49336 0.12536 0.0
H6572 H 0.23477 0.44962 0.17467 0.0
H6573 H 0.21288 0.47905 0.08244 0.0
H6574 H 0.19801 0.47374 0.14327 0.0
H6575 H 0.2355 0.43916 0.11272 0.0
C6576 C 0.2456 0.43148 0.13689 0.0
C6577 C 0.24576 0.43448 0.15446 0.0
C6578 C 0.20126 0.47487 0.12993 0.0
C6579 C 0.22506 0.45412 0.13348 0.0
C6580 C 0.192 0.48597 0.11973 0.0
C6581 C 0.19611 0.48777 0.10248 0.0
C6582 C 0.2146 0.4654 0.12277 0.0
C6583 C 0.20949 0.47808 0.09576 0.0
C6584 C 0.23533 0.44139 0.12631 0.0
C6585 C 0.23511 0.44711 0.16113 0.0
N6586 N 0.21828 0.46723 0.10594 0.0
N6587 N 0.22517 0.45648 0.15062 0.0
H6588 H 0.28166 0.41582 0.85142 0.0
H6589 H 0.30165 0.5044 0.8943 0.0
H6590 H 0.24517 0.45672 0.85592 0.0
H6591 H 0.32442 0.45869 0.91458 0.0
H6592 H 0.28492 0.48726 0.87481 0.0
H6593 H 0.30087 0.43137 0.87056 0.0
C6594 C 0.27763 0.42797 0.85648 0.0
C6595 C 0.26185 0.4351 0.85189 0.0
C6596 C 0.29355 0.48096 0.88354 0.0
C6597 C 0.28382 0.4529 0.87323 0.0
C6598 C 0.30305 0.4907 0.89469 0.0
C6599 C 0.31401 0.48286 0.90639 0.0
C6600 C 0.2951 0.46324 0.88392 0.0
C6601 C 0.3159 0.46513 0.90586 0.0
C6602 C 0.28862 0.43681 0.86729 0.0
C6603 C 0.25737 0.45094 0.85869 0.0
N6604 N 0.30637 0.45579 0.89482 0.0
N6605 N 0.26836 0.45935 0.86889 0.0
H6606 H 0.30827 0.52911 0.58141 0.0
H6607 H 0.29548 0.5531 0.67783 0.0
H6608 H 0.34061 0.50899 0.621 0.0
H6609 H 0.2783 0.58554 0.63706 0.0
H6610 H 0.3128 0.53714 0.65747 0.0
H6611 H 0.29689 0.54984 0.60169 0.0
C6612 C 0.31294 0.52909 0.59438 0.0
C6613 C 0.32529 0.51732 0.59962 0.0
C6614 C 0.30557 0.548 0.65303 0.0
C6615 C 0.31247 0.54092 0.62277 0.0
C6616 C 0.2958 0.55713 0.66464 0.0
C6617 C 0.28558 0.57062 0.65903 0.0
C6618 C 0.30475 0.55218 0.63567 0.0
C6619 C 0.28617 0.57529 0.64184 0.0
C6620 C 0.30661 0.541 0.60588 0.0
C6621 C 0.33112 0.51792 0.61649 0.0
N6622 N 0.29535 0.56586 0.63066 0.0
N6623 N 0.32452 0.52941 0.62753 0.0
H6624 H 0.0411 0.96707 0.21797 0.0
H6625 H 0.03923 0.03959 0.28986 0.0
H6626 H 0.0342 0.0203 0.20659 0.0
H6627 H 0.03553 0.98601 0.30079 0.0
H6628 H 0.041 0.03297 0.25942 0.0
H6629 H 0.04279 0.97402 0.24821 0.0
C6630 C 0.04017 0.98027 0.22174 0.0
C6631 C 0.0375 0.9931 0.20954 0.0
C6632 C 0.0399 0.02265 0.26848 0.0
C6633 C 0.03922 1.00115 0.24448 0.0
C6634 C 0.03903 0.02642 0.2859 0.0
C6635 C 0.03721 0.01335 0.29799 0.0
C6636 C 0.03913 0.00565 0.263 0.0
C6637 C 0.03675 0.99651 0.29199 0.0
C6638 C 0.04099 0.98421 0.2391 0.0
C6639 C 0.0361 0.00994 0.21544 0.0
N6640 N 0.03771 0.99317 0.27499 0.0
N6641 N 0.03696 0.01346 0.23243 0.0
H6642 H 0.24107 0.79467 0.45496 0.0
H6643 H 0.27141 0.78452 0.55186 0.0
H6644 H 0.29381 0.79222 0.47004 0.0
H6645 H 0.21922 0.79408 0.53764 0.0
H6646 H 0.2798 0.78774 0.5221 0.0
H6647 H 0.23282 0.79504 0.48501 0.0
C6648 C 0.25095 0.79431 0.46457 0.0
C6649 C 0.2682 0.79338 0.45985 0.0
C6650 C 0.26652 0.78928 0.52547 0.0
C6651 C 0.25878 0.7937 0.4945 0.0
C6652 C 0.26169 0.78736 0.54252 0.0
C6653 C 0.24453 0.78896 0.54741 0.0
C6654 C 0.25414 0.79269 0.513 0.0
C6655 C 0.2326 0.79288 0.5346 0.0
C6656 C 0.24621 0.79456 0.48177 0.0
C6657 C 0.28039 0.79312 0.47298 0.0
N6658 N 0.2376 0.79446 0.51804 0.0
N6659 N 0.27545 0.79312 0.48963 0.0
H6660 H 0.46599 0.96752 0.78472 0.0
H6661 H 0.45811 0.0481 0.72165 0.0
H6662 H 0.45622 0.01848 0.80231 0.0
H6663 H 0.47816 0.99937 0.70665 0.0
H6664 H 0.45322 0.03672 0.75046 0.0
H6665 H 0.46636 0.97815 0.75535 0.0
C6666 C 0.46367 0.98089 0.78242 0.0
C6667 C 0.46116 0.99208 0.79612 0.0
C6668 C 0.45859 0.02849 0.74081 0.0
C6669 C 0.46167 0.00447 0.76236 0.0
C6670 C 0.46126 0.03497 0.72432 0.0
C6671 C 0.46868 0.02475 0.71168 0.0
C6672 C 0.4632 0.0116 0.74469 0.0
C6673 C 0.47264 0.00782 0.716 0.0
C6674 C 0.46401 0.98701 0.76563 0.0
C6675 C 0.45843 0.00938 0.79225 0.0
N6676 N 0.4699 1.00183 0.73204 0.0
N6677 N 0.45879 0.01501 0.77582 0.0
H6678 H 0.27251 0.21025 0.9508 0.0
H6679 H 0.24581 0.21849 0.04906 0.0
H6680 H 0.22047 0.21278 0.96815 0.0
H6681 H 0.2979 0.21289 0.03253 0.0
H6682 H 0.23651 0.2167 0.0195 0.0
H6683 H 0.28213 0.21131 0.9804 0.0
C6684 C 0.26307 0.21098 0.96078 0.0
C6685 C 0.24559 0.21143 0.9568 0.0
C6686 C 0.24998 0.21585 0.02231 0.0
C6687 C 0.25662 0.21267 0.99098 0.0
C6688 C 0.25534 0.21682 0.03927 0.0
C6689 C 0.27273 0.21576 0.04351 0.0
C6690 C 0.26203 0.21383 0.00925 0.0
C6691 C 0.2844 0.21393 0.03003 0.0
C6692 C 0.2686 0.21156 0.97774 0.0
C6693 C 0.23404 0.21219 0.97046 0.0
N6694 N 0.27885 0.213 0.01359 0.0
N6695 N 0.23975 0.21287 0.98684 0.0
H6696 H 0.28799 0.02249 0.04682 0.0
H6697 H 0.22262 0.04428 0.97149 0.0
H6698 H 0.30049 0.05437 0.0038 0.0
H6699 H 0.20637 0.02454 0.02001 0.0
H6700 H 0.25193 0.04517 0.98202 0.0
H6701 H 0.25873 0.02067 0.03635 0.0
C6702 C 0.28471 0.02919 0.03526 0.0
C6703 C 0.29702 0.03862 0.02628 0.0
C6704 C 0.24197 0.0406 0.99037 0.0
C6705 C 0.26333 0.03627 0.01402 0.0
C6706 C 0.22523 0.03996 0.9843 0.0
C6707 C 0.21197 0.03431 0.99487 0.0
C6708 C 0.24562 0.03538 0.00711 0.0
C6709 C 0.21616 0.02913 0.01149 0.0
C6710 C 0.26793 0.02806 0.02924 0.0
C6711 C 0.29175 0.04675 0.01117 0.0
N6712 N 0.23259 0.02973 0.01707 0.0
N6713 N 0.27542 0.04534 0.00555 0.0
H6714 H 0.21355 0.03714 0.28646 0.0
H6715 H 0.21082 0.96588 0.21313 0.0
H6716 H 0.21771 0.04936 0.23313 0.0
H6717 H 0.22178 0.95489 0.26571 0.0
H6718 H 0.20893 0.99631 0.22024 0.0
H6719 H 0.21213 0.00694 0.27911 0.0
C6720 C 0.21392 0.03354 0.27317 0.0
C6721 C 0.21572 0.04597 0.26042 0.0
C6722 C 0.2116 0.98722 0.23024 0.0
C6723 C 0.21422 0.01111 0.25187 0.0
C6724 C 0.21252 0.96983 0.22621 0.0
C6725 C 0.21643 0.95778 0.23885 0.0
C6726 C 0.21434 0.99264 0.2471 0.0
C6727 C 0.21882 0.96371 0.25555 0.0
C6728 C 0.21326 0.01622 0.26899 0.0
C6729 C 0.21645 0.04032 0.24342 0.0
N6730 N 0.21771 0.98063 0.25918 0.0
N6731 N 0.21567 0.02338 0.23966 0.0
H6732 H 0.21419 0.96066 0.53626 0.0
H6733 H 0.28177 0.977 0.46126 0.0
H6734 H 0.1996 0.97301 0.48472 0.0
H6735 H 0.29521 0.95656 0.51049 0.0
H6736 H 0.25172 0.97609 0.4696 0.0
H6737 H 0.24391 0.95938 0.52709 0.0
C6738 C 0.2171 0.96295 0.523 0.0
C6739 C 0.2041 0.96705 0.51136 0.0
C6740 C 0.26129 0.97179 0.47856 0.0
C6741 C 0.23849 0.9659 0.50076 0.0
C6742 C 0.27853 0.97225 0.47376 0.0
C6743 C 0.29135 0.96698 0.48514 0.0
C6744 C 0.25668 0.96608 0.49491 0.0
C6745 C 0.28607 0.9611 0.50127 0.0
C6746 C 0.23418 0.96232 0.51778 0.0
C6747 C 0.20898 0.97008 0.49434 0.0
N6748 N 0.26929 0.96088 0.50563 0.0
N6749 N 0.22568 0.96954 0.48963 0.0
H6750 H 0.29942 0.95235 0.74003 0.0
H6751 H 0.28085 0.04974 0.7621 0.0
H6752 H 0.27489 0.96802 0.78667 0.0
H6753 H 0.29344 0.03175 0.71184 0.0
H6754 H 0.2805 0.02022 0.77222 0.0
H6755 H 0.29901 0.98164 0.73034 0.0
C6756 C 0.29385 0.96182 0.74827 0.0
C6757 C 0.28716 0.95743 0.76429 0.0
C6758 C 0.28326 0.02275 0.75897 0.0
C6759 C 0.28694 0.99141 0.75318 0.0
C6760 C 0.28356 0.03959 0.75321 0.0
C6761 C 0.28712 0.04323 0.73608 0.0
C6762 C 0.28677 0.00946 0.74756 0.0
C6763 C 0.29039 0.02956 0.72508 0.0
C6764 C 0.29369 0.97866 0.74269 0.0
C6765 C 0.2804 0.97062 0.77436 0.0
N6766 N 0.29022 0.01333 0.73102 0.0
N6767 N 0.28052 0.98697 0.76866 0.0
H6768 H 0.04191 0.28178 0.04922 0.0
H6769 H 0.96913 0.21526 0.02146 0.0
H6770 H 0.99556 0.29658 0.02385 0.0
H6771 H 0.01257 0.20186 0.0523 0.0
H6772 H 0.97915 0.2448 0.0209 0.0
H6773 H 0.03213 0.25214 0.04904 0.0
C6774 C 0.02977 0.27876 0.04344 0.0
C6775 C 0.01955 0.2917 0.03653 0.0
C6776 C 0.98648 0.23539 0.0278 0.0
C6777 C 0.00819 0.25773 0.03628 0.0
C6778 C 0.98072 0.2185 0.02817 0.0
C6779 C 0.99001 0.20593 0.03689 0.0
C6780 C 1.00166 0.23984 0.03625 0.0
C6781 C 0.00509 0.21096 0.04518 0.0
C6782 C 0.02411 0.26184 0.04343 0.0
C6783 C 0.00377 0.28705 0.02945 0.0
N6784 N 0.01039 0.22744 0.04466 0.0
N6785 N 0.99861 0.27051 0.02946 0.0
H6786 H 0.50637 0.21406 0.93775 0.0
H6787 H 0.50889 0.30229 0.98598 0.0
H6788 H 0.51095 0.21763 0.99218 0.0
H6789 H 0.47197 0.29516 0.9458 0.0
H6790 H 0.51616 0.27236 0.98427 0.0
H6791 H 0.49952 0.2448 0.93663 0.0
C6792 C 0.50594 0.22136 0.94941 0.0
C6793 C 0.50906 0.21341 0.9651 0.0
C6794 C 0.50651 0.2774 0.97579 0.0
C6795 C 0.50181 0.24831 0.96391 0.0
C6796 C 0.50221 0.29458 0.97678 0.0
C6797 C 0.48933 0.30149 0.96637 0.0
C6798 C 0.49827 0.26689 0.96402 0.0
C6799 C 0.48183 0.29059 0.95423 0.0
C6800 C 0.50201 0.23879 0.94878 0.0
C6801 C 0.50844 0.22332 0.97989 0.0
N6802 N 0.48639 0.27383 0.95341 0.0
N6803 N 0.50508 0.24026 0.97893 0.0
H6804 H 0.95344 0.25489 0.20102 0.0
H6805 H 0.04988 0.23157 0.2243 0.0
H6806 H 0.96784 0.20828 0.22637 0.0
H6807 H 0.03354 0.28192 0.20948 0.0
H6808 H 0.02043 0.22197 0.22269 0.0
H6809 H 0.98301 0.26399 0.20174 0.0
C6810 C 0.96269 0.24652 0.20683 0.0
C6811 C 0.95783 0.23072 0.21374 0.0
C6812 C 0.02332 0.23511 0.21975 0.0
C6813 C 0.99218 0.24116 0.2143 0.0
C6814 C 0.04022 0.24068 0.2207 0.0
C6815 C 0.04447 0.25771 0.21709 0.0
C6816 C 0.01041 0.24654 0.21504 0.0
C6817 C 0.03114 0.26867 0.21223 0.0
C6818 C 0.9797 0.25176 0.20714 0.0
C6819 C 0.97078 0.22046 0.22074 0.0
N6820 N 0.0148 0.26291 0.21137 0.0
N6821 N 0.98728 0.22585 0.22083 0.0
H6822 H 0.96445 0.78369 0.45202 0.0
H6823 H 0.02361 0.71525 0.49852 0.0
H6824 H 0.00586 0.79754 0.48511 0.0
H6825 H 1.00144 0.70406 0.44972 0.0
H6826 H 0.01389 0.74472 0.49594 0.0
H6827 H 0.97421 0.75376 0.45308 0.0
C6828 C 0.97546 0.78039 0.45964 0.0
C6829 C 0.98433 0.79311 0.46855 0.0
C6830 C 0.01119 0.73591 0.48571 0.0
C6831 C 0.9955 0.759 0.46991 0.0
C6832 C 0.01674 0.71907 0.48719 0.0
C6833 C 0.0134 0.70719 0.47429 0.0
C6834 C 1.00183 0.74103 0.47135 0.0
C6835 C 0.0044 0.71285 0.45988 0.0
C6836 C 0.98112 0.76338 0.46012 0.0
C6837 C 0.99868 0.78817 0.47804 0.0
N6838 N 0.99876 0.72932 0.45886 0.0
N6839 N 0.00369 0.77159 0.47859 0.0
H6840 H 0.52174 0.7913 0.56388 0.0
H6841 H 0.5025 0.7068 0.51299 0.0
H6842 H 0.50531 0.79227 0.51159 0.0
H6843 H 0.48949 0.7106 0.5661 0.0
H6844 H 0.5085 0.73735 0.51249 0.0
H6845 H 0.51438 0.76091 0.56536 0.0
C6846 C 0.5165 0.78508 0.55276 0.0
C6847 C 0.51404 0.79422 0.53762 0.0
C6848 C 0.50438 0.73149 0.52426 0.0
C6849 C 0.50601 0.7596 0.53907 0.0
C6850 C 0.50114 0.71406 0.52461 0.0
C6851 C 0.49564 0.70618 0.53966 0.0
C6852 C 0.50246 0.7411 0.53916 0.0
C6853 C 0.49373 0.71624 0.55428 0.0
C6854 C 0.51228 0.76784 0.55362 0.0
C6855 C 0.50722 0.78567 0.52353 0.0
N6856 N 0.4973 0.73319 0.55373 0.0
N6857 N 0.50365 0.76877 0.52452 0.0
H6858 H 0.04772 0.74769 0.25953 0.0
H6859 H 0.96644 0.77301 0.31442 0.0
H6860 H 0.04614 0.7345 0.31271 0.0
H6861 H 0.96318 0.75707 0.26212 0.0
H6862 H 0.99664 0.76388 0.3149 0.0
H6863 H 0.01787 0.75637 0.26096 0.0
C6864 C 0.04111 0.74674 0.27157 0.0
C6865 C 0.04953 0.74039 0.28603 0.0
C6866 C 0.98925 0.76237 0.30337 0.0
C6867 C 0.01511 0.75051 0.2878 0.0
C6868 C 0.97209 0.76767 0.30305 0.0
C6869 C 0.96226 0.76575 0.2882 0.0
C6870 C 0.99673 0.75559 0.28858 0.0
C6871 C 0.97021 0.75865 0.27386 0.0
C6872 C 0.02401 0.75161 0.27235 0.0
C6873 C 0.04015 0.73925 0.30125 0.0
N6874 N 0.98692 0.75403 0.27435 0.0
N6875 N 0.02348 0.74441 0.3018 0.0
H6876 H 0.5492 0.26187 0.76429 0.0
H6877 H 0.45579 0.24368 0.80104 0.0
H6878 H 0.53646 0.21643 0.79231 0.0
H6879 H 0.46806 0.28591 0.76814 0.0
H6880 H 0.48541 0.23434 0.79957 0.0
H6881 H 0.51998 0.27174 0.76746 0.0
C6882 C 0.54029 0.25393 0.77114 0.0
C6883 C 0.5454 0.23815 0.77788 0.0
C6884 C 0.48162 0.24567 0.79269 0.0
C6885 C 0.51164 0.24959 0.78172 0.0
C6886 C 0.46461 0.25099 0.79343 0.0
C6887 C 0.45921 0.26566 0.78466 0.0
C6888 C 0.49346 0.25503 0.78313 0.0
C6889 C 0.47151 0.27467 0.77528 0.0
C6890 C 0.52355 0.25963 0.77299 0.0
C6891 C 0.53323 0.22869 0.78697 0.0
N6892 N 0.48797 0.26921 0.77477 0.0
N6893 N 0.51693 0.2345 0.78854 0.0
H6894 H 0.96715 0.9547 0.72152 0.0
H6895 H 0.96529 0.03319 0.78688 0.0
H6896 H 0.9644 0.00721 0.70569 0.0
H6897 H 0.97232 0.98101 0.80234 0.0
H6898 H 0.96332 0.02382 0.75725 0.0
H6899 H 0.96804 0.96401 0.75112 0.0
C6900 C 0.96684 0.96819 0.72415 0.0
C6901 C 0.96571 0.98012 0.71084 0.0
C6902 C 0.96523 0.0144 0.76713 0.0
C6903 C 0.96648 0.99093 0.74509 0.0
C6904 C 0.96621 0.01974 0.78412 0.0
C6905 C 0.96898 0.00791 0.79728 0.0
C6906 C 0.96696 0.99706 0.76313 0.0
C6907 C 0.97036 0.99066 0.79273 0.0
C6908 C 0.96724 0.9735 0.74117 0.0
C6909 C 0.96506 0.99745 0.71536 0.0
N6910 N 0.96936 0.98579 0.77611 0.0
N6911 N 0.96546 0.00229 0.73201 0.0
H6912 H 0.80052 0.20923 0.47299 0.0
H6913 H 0.72106 0.21739 0.53685 0.0
H6914 H 0.7491 0.21946 0.45661 0.0
H6915 H 0.77305 0.21292 0.55391 0.0
H6916 H 0.73097 0.21641 0.50734 0.0
H6917 H 0.79073 0.20928 0.50258 0.0
C6918 C 0.78721 0.21163 0.47558 0.0
C6919 C 0.77564 0.21433 0.46219 0.0
C6920 C 0.74023 0.21553 0.51752 0.0
C6921 C 0.76426 0.21422 0.49616 0.0
C6922 C 0.73454 0.21594 0.53439 0.0
C6923 C 0.74622 0.21518 0.54792 0.0
C6924 C 0.75775 0.21423 0.51404 0.0
C6925 C 0.7636 0.21366 0.54391 0.0
C6926 C 0.78159 0.21155 0.49251 0.0
C6927 C 0.75846 0.21708 0.46642 0.0
N6928 N 0.76883 0.21321 0.52738 0.0
N6929 N 0.75332 0.21696 0.48297 0.0
H6930 H 0.53778 0.99398 0.20493 0.0
H6931 H 0.53365 0.01758 0.3042 0.0
H6932 H 0.53668 0.04566 0.22327 0.0
H6933 H 0.53738 0.96632 0.28504 0.0
H6934 H 0.53358 0.02816 0.2749 0.0
H6935 H 0.5364 0.98383 0.23418 0.0
C6936 C 0.53731 0.00326 0.21506 0.0
C6937 C 0.53752 0.02079 0.21144 0.0
C6938 C 0.53437 0.01459 0.27711 0.0
C6939 C 0.53573 0.00907 0.24535 0.0
C6940 C 0.53449 0.00851 0.2939 0.0
C6941 C 0.53556 0.99095 0.29729 0.0
C6942 C 0.53535 0.0031 0.26347 0.0
C6943 C 0.53634 0.9799 0.28324 0.0
C6944 C 0.53643 0.99741 0.23185 0.0
C6945 C 0.53647 0.03207 0.2253 0.0
N6946 N 0.53627 0.98615 0.26705 0.0
N6947 N 0.53569 0.02603 0.24159 0.0
H6948 H 0.7698 0.7901 0.95458 0.0
H6949 H 0.73619 0.78913 0.05097 0.0
H6950 H 0.71664 0.79354 0.96784 0.0
H6951 H 0.7893 0.7928 0.03761 0.0
H6952 H 0.72876 0.79101 0.02075 0.0
H6953 H 0.77715 0.79139 0.98481 0.0
C6954 C 0.75965 0.79121 0.96381 0.0
C6955 C 0.74254 0.79169 0.95851 0.0
C6956 C 0.74204 0.79152 0.02442 0.0
C6957 C 0.75092 0.79311 0.99344 0.0
C6958 C 0.74631 0.79038 0.04172 0.0
C6959 C 0.76344 0.79077 0.04699 0.0
C6960 C 0.75496 0.7929 0.01211 0.0
C6961 C 0.77594 0.79261 0.03429 0.0
C6962 C 0.76387 0.792 0.98113 0.0
C6963 C 0.73 0.79331 0.9712 0.0
N6964 N 0.77147 0.79347 0.01752 0.0
N6965 N 0.73442 0.79382 0.988 0.0
H6966 H 0.78283 0.94858 0.03676 0.0
H6967 H 0.7058 0.99772 0.99519 0.0
H6968 H 0.7913 0.9892 1.00099 0.0
H6969 H 0.70348 0.94322 0.99949 0.0
H6970 H 0.73622 0.99675 1.00253 0.0
H6971 H 0.75255 0.94796 0.02833 0.0
C6972 C 0.77825 0.95737 0.02718 0.0
C6973 C 0.78945 0.96898 0.01954 0.0
C6974 C 0.72905 0.98501 1.00191 0.0
C6975 C 0.75507 0.96858 0.01015 0.0
C6976 C 0.71175 0.98558 0.99785 0.0
C6977 C 0.70225 0.97054 0.99689 0.0
C6978 C 0.73679 0.96933 0.00547 0.0
C6979 C 0.71047 0.95505 1.00019 0.0
C6980 C 0.76109 0.95695 0.02232 0.0
C6981 C 0.78302 0.98004 0.00709 0.0
N6982 N 0.72729 0.95483 0.00457 0.0
N6983 N 0.76621 0.97974 0.00294 0.0
H6984 H 0.80361 0.95412 0.75304 0.0
H6985 H 0.7822 0.0509 0.72978 0.0
H6986 H 0.77879 0.9691 0.70624 0.0
H6987 H 0.79625 0.0341 0.78023 0.0
H6988 H 0.78359 0.02152 0.72002 0.0
H6989 H 0.8035 0.98362 0.76213 0.0
C6990 C 0.79807 0.96345 0.74459 0.0
C6991 C 0.79112 0.95873 0.72874 0.0
C6992 C 0.78642 0.02429 0.73322 0.0
C6993 C 0.79125 0.99306 0.73923 0.0
C6994 C 0.7856 0.04116 0.73887 0.0
C6995 C 0.78902 0.04526 0.75598 0.0
C6996 C 0.7908 0.01128 0.74465 0.0
C6997 C 0.79364 0.03182 0.76693 0.0
C6998 C 0.79809 0.98044 0.74985 0.0
C6999 C 0.78443 0.97185 0.71847 0.0
N7000 N 0.79436 0.01553 0.76109 0.0
N7001 N 0.78468 0.98832 0.72388 0.0
H7002 H 0.69932 0.05823 0.50071 0.0
H7003 H 0.793 0.01922 0.5097 0.0
H7004 H 0.70955 0.01021 0.52497 0.0
H7005 H 0.77935 0.05021 0.4666 0.0
H7006 H 0.76322 0.01963 0.51907 0.0
H7007 H 0.72952 0.05961 0.49174 0.0
C7008 C 0.70799 0.04813 0.5043 0.0
C7009 C 0.70202 0.03407 0.51353 0.0
C7010 C 0.76672 0.02635 0.50755 0.0
C7011 C 0.73631 0.03555 0.5035 0.0
C7012 C 0.78369 0.02613 0.50224 0.0
C7013 C 0.7886 0.03458 0.48731 0.0
C7014 C 0.75452 0.03544 0.49812 0.0
C7015 C 0.77601 0.04335 0.47806 0.0
C7016 C 0.72511 0.04883 0.49909 0.0
C7017 C 0.71367 0.02121 0.5178 0.0
N7018 N 0.75956 0.04367 0.48368 0.0
N7019 N 0.73021 0.02228 0.51283 0.0
H7020 H 0.7117 0.97051 0.28468 0.0
H7021 H 0.71485 0.03517 0.20513 0.0
H7022 H 0.71273 0.9538 0.23242 0.0
H7023 H 0.71389 0.05094 0.25765 0.0
H7024 H 0.71224 0.00545 0.21453 0.0
H7025 H 0.71073 0.99998 0.27479 0.0
C7026 C 0.71152 0.97293 0.27113 0.0
C7027 C 0.71236 0.95941 0.25945 0.0
C7028 C 0.71254 0.01544 0.22399 0.0
C7029 C 0.71148 0.99352 0.24792 0.0
C7030 C 0.71392 0.03247 0.2186 0.0
C7031 C 0.71479 0.04574 0.23056 0.0
C7032 C 0.71196 0.01155 0.24149 0.0
C7033 C 0.71364 0.04126 0.2479 0.0
C7034 C 0.71108 0.98987 0.26546 0.0
C7035 C 0.71233 0.96364 0.24199 0.0
N7036 N 0.71237 0.02468 0.25279 0.0
N7037 N 0.71197 0.98022 0.23681 0.0
H7038 H 0.97057 0.72395 0.95056 0.0
H7039 H 0.03003 0.79443 0.99168 0.0
H7040 H 0.01384 0.71121 0.98177 0.0
H7041 H 0.00583 0.80326 0.94334 0.0
H7042 H 0.02154 0.76449 0.9903 0.0
H7043 H 0.9804 0.75372 0.94967 0.0
C7044 C 0.98208 0.72746 0.95727 0.0
C7045 C 0.99141 0.71514 0.96628 0.0
C7046 C 0.0182 0.77289 0.9799 0.0
C7047 C 1.00261 0.74906 0.96546 0.0
C7048 C 0.02303 0.78994 0.98069 0.0
C7049 C 0.01867 0.80124 0.96757 0.0
C7050 C 0.00858 0.76705 0.96602 0.0
C7051 C 0.00952 0.79487 0.95362 0.0
C7052 C 0.98775 0.74437 0.95665 0.0
C7053 C 0.00635 0.7203 0.97462 0.0
N7054 N 0.00458 0.77821 0.95328 0.0
N7055 N 0.01137 0.73686 0.97417 0.0
H7056 H 0.54022 0.71859 0.03931 0.0
H7057 H 0.4612 0.78385 0.04267 0.0
H7058 H 0.4879 0.70208 0.04033 0.0
H7059 H 0.51294 0.7988 0.0318 0.0
H7060 H 0.47057 0.75411 0.0438 0.0
H7061 H 0.53045 0.7482 0.03924 0.0
C7062 C 0.52668 0.72116 0.03975 0.0
C7063 C 0.51492 0.70769 0.0398 0.0
C7064 C 0.47986 0.76393 0.04118 0.0
C7065 C 0.50352 0.74181 0.03955 0.0
C7066 C 0.47449 0.781 0.04043 0.0
C7067 C 0.48624 0.79415 0.03723 0.0
C7068 C 0.49715 0.75984 0.03878 0.0
C7069 C 0.50336 0.78937 0.03463 0.0
C7070 C 0.52108 0.73812 0.03955 0.0
C7071 C 0.49748 0.71195 0.0401 0.0
N7072 N 0.50824 0.77275 0.03551 0.0
N7073 N 0.49234 0.72855 0.03998 0.0
H7074 H 0.95476 0.77155 0.78003 0.0
H7075 H 0.05095 0.74475 0.79984 0.0
H7076 H 0.97003 0.72026 0.7926 0.0
H7077 H 0.03741 0.79201 0.77519 0.0
H7078 H 0.0211 0.73671 0.80004 0.0
H7079 H 0.9845 0.78025 0.78114 0.0
C7080 C 0.96424 0.76204 0.78302 0.0
C7081 C 0.95962 0.74501 0.7861 0.0
C7082 C 0.02467 0.74885 0.79458 0.0
C7083 C 0.99398 0.75514 0.7876 0.0
C7084 C 0.04184 0.75348 0.79436 0.0
C7085 C 0.04702 0.76913 0.78736 0.0
C7086 C 0.01236 0.75992 0.78788 0.0
C7087 C 0.03424 0.77989 0.78084 0.0
C7088 C 0.98131 0.7671 0.78368 0.0
C7089 C 0.97273 0.73352 0.79024 0.0
N7090 N 0.01756 0.77509 0.78127 0.0
N7091 N 0.98924 0.73878 0.79084 0.0
H7092 H 0.9893 0.20884 0.52995 0.0
H7093 H 0.02229 0.30484 0.53902 0.0
H7094 H 0.04188 0.22165 0.5396 0.0
H7095 H 0.96927 0.29057 0.53847 0.0
H7096 H 0.03006 0.27464 0.53783 0.0
H7097 H 0.98202 0.23895 0.53149 0.0
C7098 C 0.99934 0.21792 0.53243 0.0
C7099 C 0.01625 0.21254 0.53467 0.0
C7100 C 0.01673 0.27814 0.53806 0.0
C7101 C 0.00797 0.24726 0.53632 0.0
C7102 C 0.0123 0.29538 0.53871 0.0
C7103 C 0.9951 0.3003 0.53896 0.0
C7104 C 0.00387 0.26572 0.53745 0.0
C7105 C 0.98268 0.28744 0.53861 0.0
C7106 C 0.99516 0.23517 0.53327 0.0
C7107 C 0.02871 0.22508 0.53756 0.0
N7108 N 0.9873 0.27081 0.53779 0.0
N7109 N 0.02432 0.24181 0.53831 0.0
H7110 H 0.46295 0.22045 0.48419 0.0
H7111 H 0.53214 0.28942 0.45382 0.0
H7112 H 0.5053 0.2091 0.45112 0.0
H7113 H 0.48894 0.302 0.48526 0.0
H7114 H 0.52257 0.25988 0.45312 0.0
H7115 H 0.472 0.25026 0.48479 0.0
C7116 C 0.47408 0.22415 0.47698 0.0
C7117 C 0.48336 0.21202 0.46766 0.0
C7118 C 0.51516 0.26909 0.46019 0.0
C7119 C 0.49396 0.24631 0.46846 0.0
C7120 C 0.52071 0.28601 0.46069 0.0
C7121 C 0.5114 0.29837 0.46964 0.0
C7122 C 0.50017 0.26431 0.46874 0.0
C7123 C 0.49648 0.29306 0.47804 0.0
C7124 C 0.47931 0.24122 0.47741 0.0
C7125 C 0.49782 0.21775 0.45874 0.0
N7126 N 0.49137 0.27649 0.47741 0.0
N7127 N 0.50264 0.23436 0.45939 0.0
H7128 H 0.96861 0.2864 0.70222 0.0
H7129 H 0.0444 0.22837 0.74015 0.0
H7130 H 0.96424 0.25451 0.74673 0.0
H7131 H 0.04807 0.25236 0.69112 0.0
H7132 H 0.01509 0.23893 0.74283 0.0
H7133 H 0.99733 0.27465 0.69738 0.0
C7134 C 0.97353 0.27694 0.71094 0.0
C7135 C 0.96384 0.27181 0.72513 0.0
C7136 C 0.02215 0.24178 0.73135 0.0
C7137 C 0.997 0.25845 0.71978 0.0
C7138 C 0.03889 0.2357 0.72986 0.0
C7139 C 0.04861 0.23944 0.71539 0.0
C7140 C 0.01488 0.25162 0.71821 0.0
C7141 C 0.04098 0.24928 0.70251 0.0
C7142 C 0.99002 0.27028 0.70821 0.0
C7143 C 0.97114 0.2594 0.73589 0.0
N7144 N 0.02459 0.25499 0.70418 0.0
N7145 N 0.98714 0.25335 0.73308 0.0
H7146 H 0.5523 0.7667 0.22218 0.0
H7147 H 0.45538 0.73671 0.2115 0.0
H7148 H 0.53754 0.71459 0.21363 0.0
H7149 H 0.47052 0.78926 0.21575 0.0
H7150 H 0.48538 0.72841 0.21163 0.0
H7151 H 0.5225 0.77526 0.2193 0.0
C7152 C 0.54282 0.75705 0.21967 0.0
C7153 C 0.54752 0.73988 0.21819 0.0
C7154 C 0.48215 0.74177 0.21243 0.0
C7155 C 0.51323 0.74961 0.21482 0.0
C7156 C 0.46498 0.74653 0.21243 0.0
C7157 C 0.46033 0.76374 0.21368 0.0
C7158 C 0.49485 0.75428 0.2138 0.0
C7159 C 0.47343 0.77587 0.2146 0.0
C7160 C 0.52578 0.76196 0.21794 0.0
C7161 C 0.53462 0.72798 0.2147 0.0
N7162 N 0.49004 0.77091 0.21476 0.0
N7163 N 0.51811 0.73305 0.21324 0.0
H7164 H 0.54878 0.53299 0.79398 0.0
H7165 H 0.53936 0.46075 0.72295 0.0
H7166 H 0.53748 0.48064 0.80607 0.0
H7167 H 0.54235 0.51442 0.71201 0.0
H7168 H 0.54204 0.46709 0.75334 0.0
H7169 H 0.55017 0.52558 0.76404 0.0
C7170 C 0.5469 0.51984 0.79045 0.0
C7171 C 0.54303 0.50742 0.80274 0.0
C7172 C 0.54218 0.47746 0.74427 0.0
C7173 C 0.54426 0.4989 0.76807 0.0
C7174 C 0.54076 0.47386 0.72691 0.0
C7175 C 0.54058 0.48708 0.71486 0.0
C7176 C 0.54355 0.49442 0.74968 0.0
C7177 C 0.5422 0.50383 0.72079 0.0
C7178 C 0.54751 0.51565 0.77322 0.0
C7179 C 0.54036 0.49067 0.7971 0.0
N7180 N 0.54361 0.50701 0.73774 0.0
N7181 N 0.54097 0.48691 0.78019 0.0
H7182 H 0.71251 0.27338 0.02832 0.0
H7183 H 0.78378 0.30111 0.96074 0.0
H7184 H 0.7543 0.30678 0.04082 0.0
H7185 H 0.73853 0.27285 0.94774 0.0
H7186 H 0.77318 0.30385 0.98993 0.0
H7187 H 0.72193 0.27326 0.99878 0.0
C7188 C 0.72357 0.28082 0.02492 0.0
C7189 C 0.73253 0.29013 0.0373 0.0
C7190 C 0.76554 0.29713 0.98065 0.0
C7191 C 0.74363 0.28982 0.00319 0.0
C7192 C 0.77153 0.29567 0.96389 0.0
C7193 C 0.76213 0.28663 0.95165 0.0
C7194 C 0.75003 0.28946 0.98527 0.0
C7195 C 0.74641 0.27968 0.95671 0.0
C7196 C 0.72902 0.28067 0.00797 0.0
C7197 C 0.74703 0.29923 0.03193 0.0
N7198 N 0.74095 0.28116 0.97307 0.0
N7199 N 0.75211 0.29881 0.01535 0.0
H7200 H 0.95929 0.46675 0.28499 0.0
H7201 H 0.96207 0.542 0.21571 0.0
H7202 H 0.96421 0.51974 0.29815 0.0
H7203 H 0.96494 0.48881 0.20271 0.0
H7204 H 0.95981 0.53416 0.24577 0.0
H7205 H 0.95828 0.47467 0.25488 0.0
C7206 C 0.95991 0.48008 0.28162 0.0
C7207 C 0.96182 0.49257 0.29428 0.0
C7208 C 0.96084 0.52419 0.23634 0.0
C7209 C 0.96087 0.50176 0.25955 0.0
C7210 C 0.96199 0.52866 0.21909 0.0
C7211 C 0.96369 0.51608 0.20649 0.0
C7212 C 0.96129 0.50697 0.24118 0.0
C7213 C 0.96381 0.49899 0.21187 0.0
C7214 C 0.95948 0.48459 0.26435 0.0
C7215 C 0.96287 0.50963 0.28894 0.0
N7216 N 0.96264 0.49498 0.22873 0.0
N7217 N 0.9624 0.51369 0.27206 0.0
H7218 H 0.79045 0.72949 0.53026 0.0
H7219 H 0.72003 0.70128 0.46146 0.0
H7220 H 0.74577 0.70012 0.54273 0.0
H7221 H 0.76599 0.72839 0.44852 0.0
H7222 H 0.72972 0.69982 0.49104 0.0
H7223 H 0.78212 0.72859 0.50023 0.0
C7224 C 0.77896 0.72276 0.52676 0.0
C7225 C 0.76881 0.71495 0.53926 0.0
C7226 C 0.73773 0.70603 0.48171 0.0
C7227 C 0.75906 0.71398 0.50466 0.0
C7228 C 0.73224 0.70675 0.46471 0.0
C7229 C 0.7421 0.71506 0.4523 0.0
C7230 C 0.75321 0.71369 0.48648 0.0
C7231 C 0.75775 0.72209 0.45756 0.0
C7232 C 0.77416 0.72231 0.50955 0.0
C7233 C 0.75392 0.70659 0.53376 0.0
N7234 N 0.76274 0.72132 0.47416 0.0
N7235 N 0.74952 0.70636 0.51697 0.0
H7236 H 0.79985 0.50737 0.5083 0.0
H7237 H 0.71276 0.55098 0.47779 0.0
H7238 H 0.78802 0.55885 0.52232 0.0
H7239 H 0.72045 0.49678 0.48125 0.0
H7240 H 0.74011 0.55521 0.49273 0.0
H7241 H 0.77104 0.50412 0.49674 0.0
C7242 C 0.79104 0.51793 0.50909 0.0
C7243 C 0.79625 0.53329 0.51647 0.0
C7244 C 0.7357 0.54241 0.49026 0.0
C7245 C 0.76316 0.52993 0.50275 0.0
C7246 C 0.72002 0.53997 0.48176 0.0
C7247 C 0.7142 0.52346 0.4779 0.0
C7248 C 0.74574 0.52826 0.49485 0.0
C7249 C 0.72439 0.50976 0.48341 0.0
C7250 C 0.77458 0.51613 0.50246 0.0
C7251 C 0.78439 0.54671 0.51697 0.0
N7252 N 0.73956 0.51247 0.49137 0.0
N7253 N 0.76847 0.5448 0.51005 0.0
H7254 H 0.7255 0.45922 0.7624 0.0
H7255 H 0.71792 0.55544 0.72989 0.0
H7256 H 0.71609 0.47223 0.70982 0.0
H7257 H 0.71635 0.54061 0.78273 0.0
H7258 H 0.7187 0.52527 0.7219 0.0
H7259 H 0.72381 0.48925 0.76974 0.0
C7260 C 0.72301 0.46831 0.75237 0.0
C7261 C 0.72088 0.46297 0.73544 0.0
C7262 C 0.71806 0.52866 0.73523 0.0
C7263 C 0.71912 0.49767 0.7438 0.0
C7264 C 0.71764 0.54588 0.7398 0.0
C7265 C 0.71696 0.55063 0.75701 0.0
C7266 C 0.71803 0.5161 0.74798 0.0
C7267 C 0.71658 0.53764 0.7693 0.0
C7268 C 0.7221 0.48553 0.75658 0.0
C7269 C 0.71803 0.47558 0.72301 0.0
N7270 N 0.71722 0.52105 0.76456 0.0
N7271 N 0.71724 0.49229 0.72744 0.0
H7272 H 0.7251 0.46841 0.04397 0.0
H7273 H 0.79244 0.46209 0.96765 0.0
H7274 H 0.71023 0.46601 0.99108 0.0
H7275 H 0.80588 0.47547 0.01911 0.0
H7276 H 0.76248 0.46013 0.97632 0.0
H7277 H 0.75479 0.4683 0.03532 0.0
C7278 C 0.72793 0.46799 0.03053 0.0
C7279 C 0.71486 0.46733 0.01829 0.0
C7280 C 0.77201 0.4634 0.98574 0.0
C7281 C 0.74928 0.46683 0.00827 0.0
C7282 C 0.78914 0.46434 0.98083 0.0
C7283 C 0.80171 0.46895 0.99268 0.0
C7284 C 0.76742 0.46694 0.00266 0.0
C7285 C 0.79661 0.47202 0.00953 0.0
C7286 C 0.74503 0.46781 0.0256 0.0
C7287 C 0.7197 0.4664 1.00105 0.0
N7288 N 0.77992 0.47097 0.014 0.0
N7289 N 0.73646 0.46617 0.99659 0.0
H7290 H 0.77686 0.55311 0.27777 0.0
H7291 H 0.79521 0.45422 0.26159 0.0
H7292 H 0.79453 0.53531 0.22885 0.0
H7293 H 0.75942 0.47322 0.29838 0.0
H7294 H 0.79998 0.48372 0.25156 0.0
H7295 H 0.77548 0.52398 0.28759 0.0
C7296 C 0.78051 0.54323 0.26896 0.0
C7297 C 0.78562 0.54708 0.25221 0.0
C7298 C 0.79117 0.4814 0.26189 0.0
C7299 C 0.78426 0.51304 0.26385 0.0
C7300 C 0.78856 0.46462 0.26767 0.0
C7301 C 0.77689 0.46132 0.2808 0.0
C7302 C 0.78233 0.49495 0.26959 0.0
C7303 C 0.76845 0.47522 0.28818 0.0
C7304 C 0.77972 0.52643 0.27471 0.0
C7305 C 0.79049 0.53325 0.24183 0.0
N7306 N 0.77138 0.49133 0.28255 0.0
N7307 N 0.78966 0.5169 0.24779 0.0
H7308 H 0.47033 0.71466 0.74625 0.0
H7309 H 0.53122 0.7896 0.71254 0.0
H7310 H 0.45216 0.75261 0.71127 0.0
H7311 H 0.55 0.74216 0.73254 0.0
H7312 H 0.50192 0.77828 0.71427 0.0
H7313 H 0.49928 0.72614 0.74342 0.0
C7314 C 0.47255 0.72529 0.73777 0.0
C7315 C 0.4589 0.73249 0.72875 0.0
C7316 C 0.51248 0.77037 0.71827 0.0
C7317 C 0.49204 0.74619 0.7258 0.0
C7318 C 0.5292 0.77689 0.71742 0.0
C7319 C 0.5432 0.76683 0.72235 0.0
C7320 C 0.50963 0.75376 0.72441 0.0
C7321 C 0.53972 0.75035 0.72843 0.0
C7322 C 0.48905 0.73192 0.7362 0.0
C7323 C 0.46239 0.74651 0.71818 0.0
N7324 N 0.52342 0.74443 0.72936 0.0
N7325 N 0.47856 0.75298 0.71709 0.0
H7326 H 0.48499 0.54289 0.28343 0.0
H7327 H 0.44841 0.47906 0.21258 0.0
H7328 H 0.44971 0.50227 0.29428 0.0
H7329 H 0.48533 0.5184 0.20203 0.0
H7330 H 0.44775 0.48819 0.2422 0.0
H7331 H 0.48424 0.53498 0.25332 0.0
C7332 C 0.47702 0.53238 0.27953 0.0
C7333 C 0.46747 0.52324 0.29157 0.0
C7334 C 0.45593 0.49487 0.23335 0.0
C7335 C 0.46662 0.51399 0.25695 0.0
C7336 C 0.45635 0.48963 0.21632 0.0
C7337 C 0.46699 0.49785 0.20448 0.0
C7338 C 0.4662 0.50848 0.23875 0.0
C7339 C 0.47678 0.51165 0.21041 0.0
C7340 C 0.47666 0.5278 0.2623 0.0
C7341 C 0.45752 0.50957 0.28564 0.0
N7342 N 0.47618 0.51645 0.22704 0.0
N7343 N 0.45737 0.50539 0.26883 0.0
H7344 H 0.26599 0.72365 0.04649 0.0
H7345 H 0.23761 0.70793 0.94979 0.0
H7346 H 0.21452 0.71121 0.0317 0.0
H7347 H 0.28997 0.71303 0.96553 0.0
H7348 H 0.22882 0.70949 0.97962 0.0
H7349 H 0.27487 0.72045 0.0169 0.0
C7350 C 0.25653 0.72019 0.0371 0.0
C7351 C 0.23943 0.71769 0.04181 0.0
C7352 C 0.24225 0.71014 0.97657 0.0
C7353 C 0.24959 0.71414 0.00762 0.0
C7354 C 0.24728 0.70927 0.95951 0.0
C7355 C 0.26458 0.71035 0.95507 0.0
C7356 C 0.25457 0.71228 0.98938 0.0
C7357 C 0.27653 0.71193 0.9683 0.0
C7358 C 0.26163 0.7184 0.02014 0.0
C7359 C 0.22778 0.71351 0.02884 0.0
N7360 N 0.2713 0.71298 0.9848 0.0
N7361 N 0.23307 0.71188 0.01242 0.0
H7362 H 0.02895 0.54221 0.72681 0.0
H7363 H 0.04512 0.46395 0.79056 0.0
H7364 H 0.04229 0.49203 0.7094 0.0
H7365 H 0.01324 0.5067 0.80319 0.0
H7366 H 0.04968 0.47624 0.76212 0.0
H7367 H 0.02864 0.53153 0.75621 0.0
C7368 C 0.03211 0.52902 0.72921 0.0
C7369 C 0.03563 0.51798 0.71563 0.0
C7370 C 0.04183 0.483 0.77119 0.0
C7371 C 0.03531 0.50566 0.74924 0.0
C7372 C 0.03935 0.47607 0.78745 0.0
C7373 C 0.02879 0.48433 0.79926 0.0
C7374 C 0.03393 0.49845 0.76677 0.0
C7375 C 0.0214 0.49989 0.79444 0.0
C7376 C 0.03179 0.5229 0.74596 0.0
C7377 C 0.03939 0.50093 0.71948 0.0
N7378 N 0.02412 0.50644 0.77862 0.0
N7379 N 0.03916 0.4953 0.73588 0.0
H7380 H 0.26143 0.26626 0.45584 0.0
H7381 H 0.25434 0.30604 0.5497 0.0
H7382 H 0.22328 0.30361 0.46837 0.0
H7383 H 0.27738 0.25759 0.53882 0.0
H7384 H 0.24592 0.3084 0.51943 0.0
H7385 H 0.27049 0.26587 0.48562 0.0
C7386 C 0.255 0.27445 0.46484 0.0
C7387 C 0.24152 0.28494 0.45952 0.0
C7388 C 0.25287 0.2973 0.52369 0.0
C7389 C 0.25196 0.28464 0.49387 0.0
C7390 C 0.25776 0.29603 0.5409 0.0
C7391 C 0.26648 0.28156 0.54676 0.0
C7392 C 0.25706 0.28416 0.51224 0.0
C7393 C 0.27053 0.26887 0.53486 0.0
C7394 C 0.26014 0.27417 0.48189 0.0
C7395 C 0.23358 0.29518 0.4719 0.0
N7396 N 0.26587 0.27049 0.51826 0.0
N7397 N 0.23896 0.29484 0.48845 0.0
H7398 H 0.22084 0.4662 0.45958 0.0
H7399 H 0.28913 0.46755 0.53578 0.0
H7400 H 0.2075 0.47288 0.51244 0.0
H7401 H 0.30332 0.46767 0.48277 0.0
H7402 H 0.25914 0.46755 0.5274 0.0
H7403 H 0.25089 0.46541 0.4677 0.0
C7404 C 0.22411 0.46761 0.47287 0.0
C7405 C 0.21134 0.46959 0.4853 0.0
C7406 C 0.2688 0.46753 0.51758 0.0
C7407 C 0.24606 0.46842 0.49473 0.0
C7408 C 0.286 0.46738 0.52237 0.0
C7409 C 0.29893 0.46759 0.51 0.0
C7410 C 0.26433 0.46782 0.50024 0.0
C7411 C 0.2939 0.46767 0.49279 0.0
C7412 C 0.24136 0.46705 0.47751 0.0
C7413 C 0.21667 0.47109 0.50236 0.0
N7414 N 0.27707 0.46777 0.48845 0.0
N7415 N 0.23351 0.47044 0.50653 0.0
H7416 H 0.30392 0.54504 0.24678 0.0
H7417 H 0.28031 0.44919 0.2725 0.0
H7418 H 0.27788 0.53152 0.29325 0.0
H7419 H 0.2978 0.46323 0.22236 0.0
H7420 H 0.28155 0.47893 0.28094 0.0
H7421 H 0.3037 0.51521 0.2384 0.0
C7422 C 0.29809 0.53595 0.25529 0.0
C7423 C 0.29088 0.54118 0.27087 0.0
C7424 C 0.28516 0.47553 0.26809 0.0
C7425 C 0.29085 0.50647 0.26121 0.0
C7426 C 0.28443 0.45843 0.26318 0.0
C7427 C 0.28883 0.45341 0.24654 0.0
C7428 C 0.29045 0.48798 0.25641 0.0
C7429 C 0.29438 0.46626 0.23532 0.0
C7430 C 0.29805 0.51878 0.25044 0.0
C7431 C 0.28378 0.52838 0.28125 0.0
N7432 N 0.29498 0.48286 0.24044 0.0
N7433 N 0.28397 0.51176 0.27625 0.0
H7434 H 0.29013 0.509 0.98208 0.0
H7435 H 0.21666 0.55432 0.03305 0.0
H7436 H 0.2965 0.56103 0.99768 0.0
H7437 H 0.2067 0.51774 0.99335 0.0
H7438 H 0.24615 0.55661 0.02291 0.0
H7439 H 0.25985 0.51071 0.98937 0.0
C7440 C 0.28506 0.52077 0.9871 0.0
C7441 C 0.2957 0.53487 0.98939 0.0
C7442 C 0.23738 0.54824 0.01637 0.0
C7443 C 0.26117 0.53695 0.9979 0.0
C7444 C 0.2205 0.54696 0.02209 0.0
C7445 C 0.20913 0.53554 0.01429 0.0
C7446 C 0.24297 0.53784 0.00296 0.0
C7447 C 0.21503 0.52632 1.00014 0.0
C7448 C 0.26781 0.52181 0.99115 0.0
C7449 C 0.28859 0.54993 0.99578 0.0
N7450 N 0.23153 0.52746 0.99515 0.0
N7451 N 0.27175 0.55055 1.00005 0.0
H7452 H 0.21871 0.54632 0.76152 0.0
H7453 H 0.21366 0.44848 0.73344 0.0
H7454 H 0.21595 0.52991 0.70924 0.0
H7455 H 0.21172 0.46495 0.78574 0.0
H7456 H 0.21383 0.47821 0.72437 0.0
H7457 H 0.21561 0.51672 0.77066 0.0
C7458 C 0.21744 0.53652 0.75195 0.0
C7459 C 0.21763 0.54071 0.73455 0.0
C7460 C 0.21324 0.47534 0.73783 0.0
C7461 C 0.21403 0.50665 0.74497 0.0
C7462 C 0.21319 0.45832 0.74303 0.0
C7463 C 0.21272 0.45409 0.76041 0.0
C7464 C 0.21293 0.48836 0.75006 0.0
C7465 C 0.21192 0.46751 0.77221 0.0
C7466 C 0.21558 0.5196 0.75719 0.0
C7467 C 0.21569 0.5274 0.72276 0.0
N7468 N 0.21218 0.48398 0.76684 0.0
N7469 N 0.21409 0.51102 0.72818 0.0
H7470 H 0.47205 0.21399 0.29314 0.0
H7471 H 0.54252 0.28791 0.29592 0.0
H7472 H 0.45937 0.26735 0.29192 0.0
H7473 H 0.55398 0.23524 0.28615 0.0
H7474 H 0.51226 0.28051 0.29862 0.0
H7475 H 0.50218 0.22147 0.29474 0.0
C7476 C 0.47554 0.22729 0.29344 0.0
C7477 C 0.46302 0.24003 0.29237 0.0
C7478 C 0.52142 0.27055 0.29605 0.0
C7479 C 0.49777 0.24873 0.29401 0.0
C7480 C 0.53872 0.27475 0.29467 0.0
C7481 C 0.55083 0.26216 0.29082 0.0
C7482 C 0.51617 0.25361 0.29374 0.0
C7483 C 0.54509 0.24535 0.28902 0.0
C7484 C 0.49282 0.23156 0.29421 0.0
C7485 C 0.4685 0.25707 0.29253 0.0
N7486 N 0.52823 0.24158 0.29047 0.0
N7487 N 0.48542 0.26091 0.29331 0.0
loop_
_geom_bond_atom_site_label_1
_geom_bond_atom_site_label_2
_geom_bond_distance
_geom_bond_site_symmetry_2
_ccdc_geom_bond_type
C0 C1 1.351 . S
C0 N3 1.368 . S
C0 H5 0.931 . S
C1 C0 1.351 . S
C1 N2 1.373 . S
C1 H29 0.930 . S
N2 C1 1.373 . S
N2 C4 1.340 . S
N3 C0 1.368 . S
N3 C4 1.321 . S
N3 Co6 2.135 . S
C4 N2 1.340 . S
C4 N3 1.321 . S
C4 H28 0.930 . S
H5 C0 0.931 . S
Co6 N3 2.135 . S
Co6 N9 2.121 . S
Co6 O14 2.055 . S
Co6 O17 2.039 . S
Co6 N20 2.140 . S
C7 O8 1.207 1_455 S
C7 O17 1.311 . S
O8 C7 1.207 1_655 S
N9 Co6 2.121 . S
N9 C11 1.375 . S
N9 C12 1.313 . S
C10 C11 1.338 . S
C10 N13 1.377 . S
C10 H30 0.930 1_455 S
C11 N9 1.375 . S
C11 C10 1.338 . S
C11 H15 0.931 1_455 S
C12 N9 1.313 . S
C12 N13 1.344 . S
C12 H16 0.930 . S
N13 C10 1.377 . S
N13 C12 1.344 . S
O14 Co6 2.055 . S
O14 C18 1.253 . S
H15 C11 0.931 1_655 S
H16 C12 0.930 . S
O17 Co6 2.039 . S
O17 C7 1.311 . S
C18 O14 1.253 . S
C18 O19 1.227 . S
O19 C18 1.227 . S
N20 Co6 2.140 . S
N20 C23 1.346 . S
N20 C24 1.345 . S
C21 C22 1.392 . S
C21 C25 1.370 1_655 S
C22 C21 1.392 . S
C22 C23 1.369 1_655 S
C22 H31 0.929 . S
C23 N20 1.346 . S
C23 C22 1.369 1_455 S
C23 H26 0.928 . S
C24 N20 1.345 . S
C24 C25 1.371 . S
C24 H27 0.931 . S
C25 C21 1.370 1_455 S
C25 C24 1.371 . S
C25 H32 0.930 . S
H26 C23 0.928 . S
H27 C24 0.931 . S
H28 C4 0.930 . S
H29 C1 0.930 . S
H30 C10 0.930 1_655 S
H31 C22 0.929 . S
H32 C25 0.930 . S
C33 C34 1.351 . S
C33 N36 1.368 . S
C33 H38 0.931 . S
C34 C33 1.351 . S
C34 N35 1.373 . S
C34 H62 0.930 . S
N35 C34 1.373 . S
N35 C37 1.340 . S
N36 C33 1.368 . S
N36 C37 1.321 . S
N36 Co39 2.135 . S
C37 N35 1.340 . S
C37 N36 1.321 . S
C37 H61 0.930 . S
H38 C33 0.931 . S
Co39 N36 2.135 . S
Co39 N42 2.121 . S
Co39 O47 2.055 . S
Co39 O50 2.039 . S
Co39 N53 2.140 . S
C40 O41 1.227 . S
C40 O50 1.265 . S
O41 C40 1.227 . S
N42 Co39 2.121 . S
N42 C44 1.375 . S
N42 C45 1.313 . S
C43 C44 1.338 . S
C43 N46 1.377 . S
C43 H63 0.930 . S
C44 N42 1.375 . S
C44 C43 1.338 . S
C44 H48 0.931 . S
C45 N42 1.313 . S
C45 N46 1.344 . S
C45 H49 0.930 . S
N46 C43 1.377 . S
N46 C45 1.344 . S
O47 Co39 2.055 . S
O47 C51 1.253 . S
H48 C44 0.931 . S
H49 C45 0.930 . S
O50 Co39 2.039 . S
O50 C40 1.265 . S
C51 O47 1.253 . S
C51 O52 1.227 . S
O52 C51 1.227 . S
N53 Co39 2.140 . S
N53 C56 1.346 . S
N53 C57 1.345 . S
C54 C55 1.387 . S
C54 C58 1.391 . S
C55 C54 1.387 . S
C55 C56 1.369 . S
C55 H64 0.929 . S
C56 N53 1.346 . S
C56 C55 1.369 . S
C56 H59 0.928 . S
C57 N53 1.345 . S
C57 C58 1.371 . S
C57 H60 0.931 . S
C58 C54 1.391 . S
C58 C57 1.371 . S
C58 H65 0.930 . S
H59 C56 0.928 . S
H60 C57 0.931 . S
H61 C37 0.930 . S
H62 C34 0.930 . S
H63 C43 0.930 . S
H64 C55 0.929 . S
H65 C58 0.930 . S
C66 C67 1.351 . S
C66 N69 1.368 . S
C66 H71 0.931 . S
C67 C66 1.351 . S
C67 N68 1.373 . S
C67 H95 0.930 . S
N68 C67 1.373 . S
N68 C70 1.340 . S
N69 C66 1.368 . S
N69 C70 1.321 . S
N69 Co72 2.135 . S
C70 N68 1.340 . S
C70 N69 1.321 . S
C70 H94 0.930 . S
H71 C66 0.931 . S
Co72 N69 2.135 . S
Co72 N75 2.121 . S
Co72 O80 2.055 . S
Co72 O83 2.039 . S
Co72 N86 2.140 . S
C73 O74 1.227 . S
C73 O83 1.265 . S
O74 C73 1.227 . S
N75 Co72 2.121 . S
N75 C77 1.375 . S
N75 C78 1.313 . S
C76 C77 1.338 . S
C76 N79 1.377 . S
C76 H96 0.930 . S
C77 N75 1.375 . S
C77 C76 1.338 . S
C77 H81 0.931 . S
C78 N75 1.313 . S
C78 N79 1.344 . S
C78 H82 0.930 . S
N79 C76 1.377 . S
N79 C78 1.344 . S
O80 Co72 2.055 . S
O80 C84 1.253 . S
H81 C77 0.931 . S
H82 C78 0.930 . S
O83 Co72 2.039 . S
O83 C73 1.265 . S
C84 O80 1.253 . S
C84 O85 1.227 . S
O85 C84 1.227 . S
N86 Co72 2.140 . S
N86 C89 1.346 . S
N86 C90 1.345 . S
C87 C88 1.387 . S
C87 C91 1.391 . S
C88 C87 1.387 . S
C88 C89 1.369 . S
C88 H97 0.929 . S
C89 N86 1.346 . S
C89 C88 1.369 . S
C89 H92 0.928 . S
C90 N86 1.345 . S
C90 C91 1.371 . S
C90 H93 0.931 . S
C91 C87 1.391 . S
C91 C90 1.371 . S
C91 H98 0.930 . S
H92 C89 0.928 . S
H93 C90 0.931 . S
H94 C70 0.930 . S
H95 C67 0.930 . S
H96 C76 0.930 . S
H97 C88 0.929 . S
H98 C91 0.930 . S
C99 C100 1.351 . S
C99 N102 1.368 . S
C99 H104 0.931 . S
C100 C99 1.351 . S
C100 N101 1.373 . S
C100 H128 0.930 . S
N101 C100 1.373 . S
N101 C103 1.340 . S
N102 C99 1.368 . S
N102 C103 1.321 . S
N102 Co105 2.135 . S
C103 N101 1.340 . S
C103 N102 1.321 . S
C103 H127 0.930 . S
H104 C99 0.931 . S
Co105 N102 2.135 . S
Co105 N108 2.121 . S
Co105 O113 2.055 . S
Co105 O116 2.039 . S
Co105 N119 2.140 . S
C106 O107 1.227 . S
C106 O116 1.265 . S
O107 C106 1.227 . S
N108 Co105 2.121 . S
N108 C110 1.375 . S
N108 C111 1.313 . S
C109 C110 1.338 . S
C109 N112 1.377 . S
C109 H129 0.930 . S
C110 N108 1.375 . S
C110 C109 1.338 . S
C110 H114 0.931 . S
C111 N108 1.313 . S
C111 N112 1.344 . S
C111 H115 0.930 . S
N112 C109 1.377 . S
N112 C111 1.344 . S
O113 Co105 2.055 . S
O113 C117 1.253 . S
H114 C110 0.931 . S
H115 C111 0.930 . S
O116 Co105 2.039 . S
O116 C106 1.265 . S
C117 O113 1.253 . S
C117 O118 1.227 . S
O118 C117 1.227 . S
N119 Co105 2.140 . S
N119 C122 1.346 . S
N119 C123 1.345 . S
C120 C121 1.387 . S
C120 C124 1.391 . S
C121 C120 1.387 . S
C121 C122 1.369 . S
C121 H130 0.929 . S
C122 N119 1.346 . S
C122 C121 1.369 . S
C122 H125 0.928 . S
C123 N119 1.345 . S
C123 C124 1.371 . S
C123 H126 0.931 . S
C124 C120 1.391 . S
C124 C123 1.371 . S
C124 H131 0.930 . S
H125 C122 0.928 . S
H126 C123 0.931 . S
H127 C103 0.930 . S
H128 C100 0.930 . S
H129 C109 0.930 . S
H130 C121 0.929 . S
H131 C124 0.930 . S
C132 C133 1.351 . S
C132 N135 1.368 . S
C132 H137 0.931 . S
C133 C132 1.351 . S
C133 N134 1.373 . S
C133 H161 0.930 . S
N134 C133 1.373 . S
N134 C136 1.340 . S
N135 C132 1.368 . S
N135 C136 1.321 . S
N135 Co138 2.135 . S
C136 N134 1.340 . S
C136 N135 1.321 . S
C136 H160 0.930 . S
H137 C132 0.931 . S
Co138 N135 2.135 . S
Co138 N141 2.121 . S
Co138 O146 2.055 . S
Co138 O149 2.039 . S
Co138 N152 2.140 . S
C139 O140 1.207 1_455 S
C139 O149 1.311 . S
O140 C139 1.207 1_655 S
N141 Co138 2.121 . S
N141 C143 1.375 . S
N141 C144 1.313 . S
C142 C143 1.338 . S
C142 N145 1.377 . S
C142 H162 0.930 1_455 S
C143 N141 1.375 . S
C143 C142 1.338 . S
C143 H147 0.931 1_455 S
C144 N141 1.313 . S
C144 N145 1.344 . S
C144 H148 0.930 . S
N145 C142 1.377 . S
N145 C144 1.344 . S
O146 Co138 2.055 . S
O146 C150 1.253 . S
H147 C143 0.931 1_655 S
H148 C144 0.930 . S
O149 Co138 2.039 . S
O149 C139 1.311 . S
C150 O146 1.253 . S
C150 O151 1.227 . S
O151 C150 1.227 . S
N152 Co138 2.140 . S
N152 C155 1.346 . S
N152 C156 1.345 . S
C153 C154 1.392 . S
C153 C157 1.370 1_655 S
C154 C153 1.392 . S
C154 C155 1.369 1_655 S
C154 H163 0.929 . S
C155 N152 1.346 . S
C155 C154 1.369 1_455 S
C155 H158 0.928 . S
C156 N152 1.345 . S
C156 C157 1.371 . S
C156 H159 0.931 . S
C157 C153 1.370 1_455 S
C157 C156 1.371 . S
C157 H164 0.930 . S
H158 C155 0.928 . S
H159 C156 0.931 . S
H160 C136 0.930 . S
H161 C133 0.930 . S
H162 C142 0.930 1_655 S
H163 C154 0.929 . S
H164 C157 0.930 . S
C165 C166 1.351 . S
C165 N168 1.368 . S
C165 H170 0.931 . S
C166 C165 1.351 . S
C166 N167 1.373 . S
C166 H194 0.930 . S
N167 C166 1.373 . S
N167 C169 1.340 . S
N168 C165 1.368 . S
N168 C169 1.321 . S
N168 Co171 2.135 . S
C169 N167 1.340 . S
C169 N168 1.321 . S
C169 H193 0.930 . S
H170 C165 0.931 . S
Co171 N168 2.135 . S
Co171 N174 2.121 . S
Co171 O179 2.055 . S
Co171 O182 2.039 . S
Co171 N185 2.140 . S
C172 O173 1.227 . S
C172 O182 1.265 . S
O173 C172 1.227 . S
N174 Co171 2.121 . S
N174 C176 1.375 . S
N174 C177 1.313 . S
C175 C176 1.338 . S
C175 N178 1.377 . S
C175 H195 0.930 . S
C176 N174 1.375 . S
C176 C175 1.338 . S
C176 H180 0.931 . S
C177 N174 1.313 . S
C177 N178 1.344 . S
C177 H181 0.930 . S
N178 C175 1.377 . S
N178 C177 1.344 . S
O179 Co171 2.055 . S
O179 C183 1.253 . S
H180 C176 0.931 . S
H181 C177 0.930 . S
O182 Co171 2.039 . S
O182 C172 1.265 . S
C183 O179 1.253 . S
C183 O184 1.227 . S
O184 C183 1.227 . S
N185 Co171 2.140 . S
N185 C188 1.346 . S
N185 C189 1.345 . S
C186 C187 1.387 . S
C186 C190 1.391 . S
C187 C186 1.387 . S
C187 C188 1.369 . S
C187 H196 0.929 . S
C188 N185 1.346 . S
C188 C187 1.369 . S
C188 H191 0.928 . S
C189 N185 1.345 . S
C189 C190 1.371 . S
C189 H192 0.931 . S
C190 C186 1.391 . S
C190 C189 1.371 . S
C190 H197 0.930 . S
H191 C188 0.928 . S
H192 C189 0.931 . S
H193 C169 0.930 . S
H194 C166 0.930 . S
H195 C175 0.930 . S
H196 C187 0.929 . S
H197 C190 0.930 . S
C198 C199 1.351 . S
C198 N201 1.368 . S
C198 H203 0.931 . S
C199 C198 1.351 . S
C199 N200 1.373 . S
C199 H227 0.930 . S
N200 C199 1.373 . S
N200 C202 1.340 . S
N201 C198 1.368 . S
N201 C202 1.321 . S
N201 Co204 2.135 . S
C202 N200 1.340 . S
C202 N201 1.321 . S
C202 H226 0.930 . S
H203 C198 0.931 . S
Co204 N201 2.135 . S
Co204 N207 2.121 . S
Co204 O212 2.055 . S
Co204 O215 2.039 . S
Co204 N218 2.140 . S
C205 O206 1.227 . S
C205 O215 1.265 . S
O206 C205 1.227 . S
N207 Co204 2.121 . S
N207 C209 1.375 . S
N207 C210 1.313 . S
C208 C209 1.338 . S
C208 N211 1.377 . S
C208 H228 0.930 . S
C209 N207 1.375 . S
C209 C208 1.338 . S
C209 H213 0.931 . S
C210 N207 1.313 . S
C210 N211 1.344 . S
C210 H214 0.930 . S
N211 C208 1.377 . S
N211 C210 1.344 . S
O212 Co204 2.055 . S
O212 C216 1.253 . S
H213 C209 0.931 . S
H214 C210 0.930 . S
O215 Co204 2.039 . S
O215 C205 1.265 . S
C216 O212 1.253 . S
C216 O217 1.227 . S
O217 C216 1.227 . S
N218 Co204 2.140 . S
N218 C221 1.346 . S
N218 C222 1.345 . S
C219 C220 1.387 . S
C219 C223 1.391 . S
C220 C219 1.387 . S
C220 C221 1.369 . S
C220 H229 0.929 . S
C221 N218 1.346 . S
C221 C220 1.369 . S
C221 H224 0.928 . S
C222 N218 1.345 . S
C222 C223 1.371 . S
C222 H225 0.931 . S
C223 C219 1.391 . S
C223 C222 1.371 . S
C223 H230 0.930 . S
H224 C221 0.928 . S
H225 C222 0.931 . S
H226 C202 0.930 . S
H227 C199 0.930 . S
H228 C208 0.930 . S
H229 C220 0.929 . S
H230 C223 0.930 . S
C231 C232 1.351 . S
C231 N234 1.368 . S
C231 H236 0.931 . S
C232 C231 1.351 . S
C232 N233 1.373 . S
C232 H260 0.930 . S
N233 C232 1.373 . S
N233 C235 1.340 . S
N234 C231 1.368 . S
N234 C235 1.321 . S
N234 Co237 2.135 . S
C235 N233 1.340 . S
C235 N234 1.321 . S
C235 H259 0.930 . S
H236 C231 0.931 . S
Co237 N234 2.135 . S
Co237 N240 2.121 . S
Co237 O245 2.055 . S
Co237 O248 2.039 . S
Co237 N251 2.140 . S
C238 O239 1.227 . S
C238 O248 1.265 . S
O239 C238 1.227 . S
N240 Co237 2.121 . S
N240 C242 1.375 . S
N240 C243 1.313 . S
C241 C242 1.338 . S
C241 N244 1.377 . S
C241 H261 0.930 . S
C242 N240 1.375 . S
C242 C241 1.338 . S
C242 H246 0.931 . S
C243 N240 1.313 . S
C243 N244 1.344 . S
C243 H247 0.930 . S
N244 C241 1.377 . S
N244 C243 1.344 . S
O245 Co237 2.055 . S
O245 C249 1.253 . S
H246 C242 0.931 . S
H247 C243 0.930 . S
O248 Co237 2.039 . S
O248 C238 1.265 . S
C249 O245 1.253 . S
C249 O250 1.227 . S
O250 C249 1.227 . S
N251 Co237 2.140 . S
N251 C254 1.346 . S
N251 C255 1.345 . S
C252 C253 1.387 . S
C252 C256 1.391 . S
C253 C252 1.387 . S
C253 C254 1.369 . S
C253 H262 0.929 . S
C254 N251 1.346 . S
C254 C253 1.369 . S
C254 H257 0.928 . S
C255 N251 1.345 . S
C255 C256 1.371 . S
C255 H258 0.931 . S
C256 C252 1.391 . S
C256 C255 1.371 . S
C256 H263 0.930 . S
H257 C254 0.928 . S
H258 C255 0.931 . S
H259 C235 0.930 . S
H260 C232 0.930 . S
H261 C241 0.930 . S
H262 C253 0.929 . S
H263 C256 0.930 . S
C264 C265 1.351 . S
C264 N267 1.368 . S
C264 H269 0.931 . S
C265 C264 1.351 . S
C265 N266 1.373 . S
C265 H293 0.930 . S
N266 C265 1.373 . S
N266 C268 1.340 . S
N267 C264 1.368 . S
N267 C268 1.321 . S
N267 Co270 2.135 . S
C268 N266 1.340 . S
C268 N267 1.321 . S
C268 H292 0.930 . S
H269 C264 0.931 . S
Co270 N267 2.135 . S
Co270 N273 2.121 . S
Co270 O278 2.055 . S
Co270 O281 2.039 . S
Co270 N284 2.140 . S
C271 O272 1.207 1_545 S
C271 O281 1.311 . S
O272 C271 1.207 1_565 S
N273 Co270 2.121 . S
N273 C275 1.375 . S
N273 C276 1.313 . S
C274 C275 1.338 . S
C274 N277 1.377 . S
C274 H294 0.930 1_545 S
C275 N273 1.375 . S
C275 C274 1.338 . S
C275 H279 0.931 1_545 S
C276 N273 1.313 . S
C276 N277 1.344 . S
C276 H280 0.930 . S
N277 C274 1.377 . S
N277 C276 1.344 . S
O278 Co270 2.055 . S
O278 C282 1.253 . S
H279 C275 0.931 1_565 S
H280 C276 0.930 . S
O281 Co270 2.039 . S
O281 C271 1.311 . S
C282 O278 1.253 . S
C282 O283 1.227 . S
O283 C282 1.227 . S
N284 Co270 2.140 . S
N284 C287 1.346 . S
N284 C288 1.345 . S
C285 C286 1.392 . S
C285 C289 1.370 1_565 S
C286 C285 1.392 . S
C286 C287 1.369 1_565 S
C286 H295 0.929 . S
C287 N284 1.346 . S
C287 C286 1.369 1_545 S
C287 H290 0.928 . S
C288 N284 1.345 . S
C288 C289 1.371 . S
C288 H291 0.931 . S
C289 C285 1.370 1_545 S
C289 C288 1.371 . S
C289 H296 0.930 . S
H290 C287 0.928 . S
H291 C288 0.931 . S
H292 C268 0.930 . S
H293 C265 0.930 . S
H294 C274 0.930 1_565 S
H295 C286 0.929 . S
H296 C289 0.930 . S
C297 C298 1.351 . S
C297 N300 1.368 . S
C297 H302 0.931 . S
C298 C297 1.351 . S
C298 N299 1.373 . S
C298 H326 0.930 . S
N299 C298 1.373 . S
N299 C301 1.340 . S
N300 C297 1.368 . S
N300 C301 1.321 . S
N300 Co303 2.135 . S
C301 N299 1.340 . S
C301 N300 1.321 . S
C301 H325 0.930 . S
H302 C297 0.931 . S
Co303 N300 2.135 . S
Co303 N306 2.121 . S
Co303 O311 2.055 . S
Co303 O314 2.039 . S
Co303 N317 2.140 . S
C304 O305 1.227 . S
C304 O314 1.265 . S
O305 C304 1.227 . S
N306 Co303 2.121 . S
N306 C308 1.375 . S
N306 C309 1.313 . S
C307 C308 1.338 . S
C307 N310 1.377 . S
C307 H327 0.930 . S
C308 N306 1.375 . S
C308 C307 1.338 . S
C308 H312 0.931 . S
C309 N306 1.313 . S
C309 N310 1.344 . S
C309 H313 0.930 . S
N310 C307 1.377 . S
N310 C309 1.344 . S
O311 Co303 2.055 . S
O311 C315 1.253 . S
H312 C308 0.931 . S
H313 C309 0.930 . S
O314 Co303 2.039 . S
O314 C304 1.265 . S
C315 O311 1.253 . S
C315 O316 1.227 . S
O316 C315 1.227 . S
N317 Co303 2.140 . S
N317 C320 1.346 . S
N317 C321 1.345 . S
C318 C319 1.387 . S
C318 C322 1.391 . S
C319 C318 1.387 . S
C319 C320 1.369 . S
C319 H328 0.929 . S
C320 N317 1.346 . S
C320 C319 1.369 . S
C320 H323 0.928 . S
C321 N317 1.345 . S
C321 C322 1.371 . S
C321 H324 0.931 . S
C322 C318 1.391 . S
C322 C321 1.371 . S
C322 H329 0.930 . S
H323 C320 0.928 . S
H324 C321 0.931 . S
H325 C301 0.930 . S
H326 C298 0.930 . S
H327 C307 0.930 . S
H328 C319 0.929 . S
H329 C322 0.930 . S
C330 C331 1.351 . S
C330 N333 1.368 . S
C330 H335 0.931 . S
C331 C330 1.351 . S
C331 N332 1.373 . S
C331 H359 0.930 . S
N332 C331 1.373 . S
N332 C334 1.340 . S
N333 C330 1.368 . S
N333 C334 1.321 . S
N333 Co336 2.135 . S
C334 N332 1.340 . S
C334 N333 1.321 . S
C334 H358 0.930 . S
H335 C330 0.931 . S
Co336 N333 2.135 . S
Co336 N339 2.121 . S
Co336 O344 2.055 . S
Co336 O347 2.039 . S
Co336 N350 2.140 . S
C337 O338 1.207 1_565 S
C337 O347 1.310 . S
O338 C337 1.207 1_545 S
N339 Co336 2.121 . S
N339 C341 1.375 . S
N339 C342 1.313 . S
C340 C341 1.338 . S
C340 N343 1.377 . S
C340 H360 0.930 1_565 S
C341 N339 1.375 . S
C341 C340 1.338 . S
C341 H345 0.931 1_565 S
C342 N339 1.313 . S
C342 N343 1.344 . S
C342 H346 0.930 . S
N343 C340 1.377 . S
N343 C342 1.344 . S
O344 Co336 2.055 . S
O344 C348 1.253 . S
H345 C341 0.931 1_545 S
H346 C342 0.930 . S
O347 Co336 2.039 . S
O347 C337 1.310 . S
C348 O344 1.253 . S
C348 O349 1.227 . S
O349 C348 1.227 . S
N350 Co336 2.140 . S
N350 C353 1.346 . S
N350 C354 1.345 . S
C351 C352 1.392 . S
C351 C355 1.370 1_545 S
C352 C351 1.392 . S
C352 C353 1.369 1_545 S
C352 H361 0.929 . S
C353 N350 1.346 . S
C353 C352 1.369 1_565 S
C353 H356 0.928 . S
C354 N350 1.345 . S
C354 C355 1.371 . S
C354 H357 0.931 . S
C355 C351 1.370 1_565 S
C355 C354 1.371 . S
C355 H362 0.930 . S
H356 C353 0.928 . S
H357 C354 0.931 . S
H358 C334 0.930 . S
H359 C331 0.930 . S
H360 C340 0.930 1_545 S
H361 C352 0.929 . S
H362 C355 0.930 . S
C363 C364 1.351 . S
C363 N366 1.368 . S
C363 H368 0.931 . S
C364 C363 1.351 . S
C364 N365 1.373 . S
C364 H392 0.930 . S
N365 C364 1.373 . S
N365 C367 1.340 . S
N366 C363 1.368 . S
N366 C367 1.321 . S
N366 Co369 2.135 . S
C367 N365 1.340 . S
C367 N366 1.321 . S
C367 H391 0.930 . S
H368 C363 0.931 . S
Co369 N366 2.135 . S
Co369 N372 2.121 . S
Co369 O377 2.055 . S
Co369 O380 2.039 . S
Co369 N383 2.140 . S
C370 O371 1.227 . S
C370 O380 1.265 . S
O371 C370 1.227 . S
N372 Co369 2.121 . S
N372 C374 1.375 . S
N372 C375 1.313 . S
C373 C374 1.338 . S
C373 N376 1.377 . S
C373 H393 0.930 . S
C374 N372 1.375 . S
C374 C373 1.338 . S
C374 H378 0.931 . S
C375 N372 1.313 . S
C375 N376 1.344 . S
C375 H379 0.930 . S
N376 C373 1.377 . S
N376 C375 1.344 . S
O377 Co369 2.055 . S
O377 C381 1.253 . S
H378 C374 0.931 . S
H379 C375 0.930 . S
O380 Co369 2.039 . S
O380 C370 1.265 . S
C381 O377 1.253 . S
C381 O382 1.227 . S
O382 C381 1.227 . S
N383 Co369 2.140 . S
N383 C386 1.346 . S
N383 C387 1.345 . S
C384 C385 1.387 . S
C384 C388 1.391 . S
C385 C384 1.387 . S
C385 C386 1.369 . S
C385 H394 0.929 . S
C386 N383 1.346 . S
C386 C385 1.369 . S
C386 H389 0.928 . S
C387 N383 1.345 . S
C387 C388 1.371 . S
C387 H390 0.931 . S
C388 C384 1.391 . S
C388 C387 1.371 . S
C388 H395 0.930 . S
H389 C386 0.928 . S
H390 C387 0.931 . S
H391 C367 0.930 . S
H392 C364 0.930 . S
H393 C373 0.930 . S
H394 C385 0.929 . S
H395 C388 0.930 . S
C396 C397 1.351 . S
C396 N399 1.368 . S
C396 H401 0.931 . S
C397 C396 1.351 . S
C397 N398 1.373 . S
C397 H425 0.930 . S
N398 C397 1.373 . S
N398 C400 1.340 . S
N399 C396 1.368 . S
N399 C400 1.321 . S
N399 Co402 2.135 . S
C400 N398 1.340 . S
C400 N399 1.321 . S
C400 H424 0.930 . S
H401 C396 0.931 . S
Co402 N399 2.135 . S
Co402 N405 2.121 . S
Co402 O410 2.055 . S
Co402 O413 2.039 . S
Co402 N416 2.140 . S
C403 O404 1.207 1_565 S
C403 O413 1.310 . S
O404 C403 1.207 1_545 S
N405 Co402 2.121 . S
N405 C407 1.375 . S
N405 C408 1.313 . S
C406 C407 1.338 . S
C406 N409 1.377 . S
C406 H426 0.930 1_565 S
C407 N405 1.375 . S
C407 C406 1.338 . S
C407 H411 0.931 1_565 S
C408 N405 1.313 . S
C408 N409 1.344 . S
C408 H412 0.930 . S
N409 C406 1.377 . S
N409 C408 1.344 . S
O410 Co402 2.055 . S
O410 C414 1.253 . S
H411 C407 0.931 1_545 S
H412 C408 0.930 . S
O413 Co402 2.039 . S
O413 C403 1.310 . S
C414 O410 1.253 . S
C414 O415 1.227 . S
O415 C414 1.227 . S
N416 Co402 2.140 . S
N416 C419 1.346 . S
N416 C420 1.345 . S
C417 C418 1.392 . S
C417 C421 1.370 1_545 S
C418 C417 1.392 . S
C418 C419 1.369 1_545 S
C418 H427 0.929 . S
C419 N416 1.346 . S
C419 C418 1.369 1_565 S
C419 H422 0.928 . S
C420 N416 1.345 . S
C420 C421 1.371 . S
C420 H423 0.931 . S
C421 C417 1.370 1_565 S
C421 C420 1.371 . S
C421 H428 0.930 . S
H422 C419 0.928 . S
H423 C420 0.931 . S
H424 C400 0.930 . S
H425 C397 0.930 . S
H426 C406 0.930 1_545 S
H427 C418 0.929 . S
H428 C421 0.930 . S
C429 C430 1.351 . S
C429 N432 1.368 . S
C429 H434 0.931 . S
C430 C429 1.351 . S
C430 N431 1.373 . S
C430 H458 0.930 . S
N431 C430 1.373 . S
N431 C433 1.340 . S
N432 C429 1.368 . S
N432 C433 1.321 . S
N432 Co435 2.135 . S
C433 N431 1.340 . S
C433 N432 1.321 . S
C433 H457 0.930 . S
H434 C429 0.931 . S
Co435 N432 2.135 . S
Co435 N438 2.121 . S
Co435 O443 2.055 . S
Co435 O446 2.039 . S
Co435 N449 2.140 . S
C436 O437 1.227 . S
C436 O446 1.265 . S
O437 C436 1.227 . S
N438 Co435 2.121 . S
N438 C440 1.375 . S
N438 C441 1.313 . S
C439 C440 1.338 . S
C439 N442 1.377 . S
C439 H459 0.930 . S
C440 N438 1.375 . S
C440 C439 1.338 . S
C440 H444 0.931 . S
C441 N438 1.313 . S
C441 N442 1.344 . S
C441 H445 0.930 . S
N442 C439 1.377 . S
N442 C441 1.344 . S
O443 Co435 2.055 . S
O443 C447 1.253 . S
H444 C440 0.931 . S
H445 C441 0.930 . S
O446 Co435 2.039 . S
O446 C436 1.265 . S
C447 O443 1.253 . S
C447 O448 1.227 . S
O448 C447 1.227 . S
N449 Co435 2.140 . S
N449 C452 1.346 . S
N449 C453 1.345 . S
C450 C451 1.387 . S
C450 C454 1.391 . S
C451 C450 1.387 . S
C451 C452 1.369 . S
C451 H460 0.929 . S
C452 N449 1.346 . S
C452 C451 1.369 . S
C452 H455 0.928 . S
C453 N449 1.345 . S
C453 C454 1.371 . S
C453 H456 0.931 . S
C454 C450 1.391 . S
C454 C453 1.371 . S
C454 H461 0.930 . S
H455 C452 0.928 . S
H456 C453 0.931 . S
H457 C433 0.930 . S
H458 C430 0.930 . S
H459 C439 0.930 . S
H460 C451 0.929 . S
H461 C454 0.930 . S
C462 C463 1.351 . S
C462 N465 1.368 . S
C462 H467 0.931 . S
C463 C462 1.351 . S
C463 N464 1.373 . S
C463 H491 0.930 . S
N464 C463 1.373 . S
N464 C466 1.340 . S
N465 C462 1.368 . S
N465 C466 1.321 . S
N465 Co468 2.135 . S
C466 N464 1.340 . S
C466 N465 1.321 . S
C466 H490 0.930 . S
H467 C462 0.931 . S
Co468 N465 2.135 . S
Co468 N471 2.121 . S
Co468 O476 2.055 . S
Co468 O479 2.039 . S
Co468 N482 2.140 . S
C469 O470 1.207 1_545 S
C469 O479 1.311 . S
O470 C469 1.207 1_565 S
N471 Co468 2.121 . S
N471 C473 1.375 . S
N471 C474 1.313 . S
C472 C473 1.338 . S
C472 N475 1.377 . S
C472 H492 0.930 1_545 S
C473 N471 1.375 . S
C473 C472 1.338 . S
C473 H477 0.931 1_545 S
C474 N471 1.313 . S
C474 N475 1.344 . S
C474 H478 0.930 . S
N475 C472 1.377 . S
N475 C474 1.344 . S
O476 Co468 2.055 . S
O476 C480 1.253 . S
H477 C473 0.931 1_565 S
H478 C474 0.930 . S
O479 Co468 2.039 . S
O479 C469 1.311 . S
C480 O476 1.253 . S
C480 O481 1.227 . S
O481 C480 1.227 . S
N482 Co468 2.140 . S
N482 C485 1.346 . S
N482 C486 1.345 . S
C483 C484 1.392 . S
C483 C487 1.370 1_565 S
C484 C483 1.392 . S
C484 C485 1.369 1_565 S
C484 H493 0.929 . S
C485 N482 1.346 . S
C485 C484 1.369 1_545 S
C485 H488 0.928 . S
C486 N482 1.345 . S
C486 C487 1.371 . S
C486 H489 0.931 . S
C487 C483 1.370 1_545 S
C487 C486 1.371 . S
C487 H494 0.930 . S
H488 C485 0.928 . S
H489 C486 0.931 . S
H490 C466 0.930 . S
H491 C463 0.930 . S
H492 C472 0.930 1_565 S
H493 C484 0.929 . S
H494 C487 0.930 . S
C495 C496 1.351 . S
C495 N498 1.368 . S
C495 H500 0.931 . S
C496 C495 1.351 . S
C496 N497 1.373 . S
C496 H524 0.930 . S
N497 C496 1.373 . S
N497 C499 1.340 . S
N498 C495 1.368 . S
N498 C499 1.321 . S
N498 Co501 2.135 . S
C499 N497 1.340 . S
C499 N498 1.321 . S
C499 H523 0.930 . S
H500 C495 0.931 . S
Co501 N498 2.135 . S
Co501 N504 2.121 . S
Co501 O509 2.055 . S
Co501 O512 2.039 . S
Co501 N515 2.140 . S
C502 O503 1.227 . S
C502 O512 1.265 . S
O503 C502 1.227 . S
N504 Co501 2.121 . S
N504 C506 1.375 . S
N504 C507 1.313 . S
C505 C506 1.338 . S
C505 N508 1.377 . S
C505 H525 0.930 . S
C506 N504 1.375 . S
C506 C505 1.338 . S
C506 H510 0.931 . S
C507 N504 1.313 . S
C507 N508 1.344 . S
C507 H511 0.930 . S
N508 C505 1.377 . S
N508 C507 1.344 . S
O509 Co501 2.055 . S
O509 C513 1.253 . S
H510 C506 0.931 . S
H511 C507 0.930 . S
O512 Co501 2.039 . S
O512 C502 1.265 . S
C513 O509 1.253 . S
C513 O514 1.227 . S
O514 C513 1.227 . S
N515 Co501 2.140 . S
N515 C518 1.346 . S
N515 C519 1.345 . S
C516 C517 1.387 . S
C516 C520 1.391 . S
C517 C516 1.387 . S
C517 C518 1.369 . S
C517 H526 0.929 . S
C518 N515 1.346 . S
C518 C517 1.369 . S
C518 H521 0.928 . S
C519 N515 1.345 . S
C519 C520 1.371 . S
C519 H522 0.931 . S
C520 C516 1.391 . S
C520 C519 1.371 . S
C520 H527 0.930 . S
H521 C518 0.928 . S
H522 C519 0.931 . S
H523 C499 0.930 . S
H524 C496 0.930 . S
H525 C505 0.930 . S
H526 C517 0.929 . S
H527 C520 0.930 . S
C528 C529 1.351 . S
C528 N531 1.368 . S
C528 H533 0.931 . S
C529 C528 1.351 . S
C529 N530 1.373 . S
C529 H557 0.930 . S
N530 C529 1.373 . S
N530 C532 1.340 . S
N531 C528 1.368 . S
N531 C532 1.321 . S
N531 Co534 2.135 . S
C532 N530 1.340 . S
C532 N531 1.321 . S
C532 H556 0.930 . S
H533 C528 0.931 . S
Co534 N531 2.135 . S
Co534 N537 2.121 . S
Co534 O542 2.055 . S
Co534 O545 2.039 . S
Co534 N548 2.140 . S
C535 O536 1.207 1_554 S
C535 O545 1.311 . S
O536 C535 1.207 1_556 S
N537 Co534 2.121 . S
N537 C539 1.375 . S
N537 C540 1.313 . S
C538 C539 1.338 . S
C538 N541 1.377 . S
C538 H558 0.930 1_554 S
C539 N537 1.375 . S
C539 C538 1.338 . S
C539 H543 0.931 1_554 S
C540 N537 1.313 . S
C540 N541 1.344 . S
C540 H544 0.930 . S
N541 C538 1.377 . S
N541 C540 1.344 . S
O542 Co534 2.055 . S
O542 C546 1.253 . S
H543 C539 0.931 1_556 S
H544 C540 0.930 . S
O545 Co534 2.039 . S
O545 C535 1.311 . S
C546 O542 1.253 . S
C546 O547 1.227 . S
O547 C546 1.227 . S
N548 Co534 2.140 . S
N548 C551 1.346 . S
N548 C552 1.345 . S
C549 C550 1.392 . S
C549 C553 1.370 1_556 S
C550 C549 1.392 . S
C550 C551 1.369 1_556 S
C550 H559 0.929 . S
C551 N548 1.346 . S
C551 C550 1.369 1_554 S
C551 H554 0.928 . S
C552 N548 1.345 . S
C552 C553 1.371 . S
C552 H555 0.931 . S
C553 C549 1.370 1_554 S
C553 C552 1.371 . S
C553 H560 0.930 . S
H554 C551 0.928 . S
H555 C552 0.931 . S
H556 C532 0.930 . S
H557 C529 0.930 . S
H558 C538 0.930 1_556 S
H559 C550 0.929 . S
H560 C553 0.930 . S
C561 C562 1.351 . S
C561 N564 1.368 . S
C561 H566 0.931 . S
C562 C561 1.351 . S
C562 N563 1.373 . S
C562 H590 0.930 . S
N563 C562 1.373 . S
N563 C565 1.340 . S
N564 C561 1.368 . S
N564 C565 1.321 . S
N564 Co567 2.135 . S
C565 N563 1.340 . S
C565 N564 1.321 . S
C565 H589 0.930 . S
H566 C561 0.931 . S
Co567 N564 2.135 . S
Co567 N570 2.121 . S
Co567 O575 2.055 . S
Co567 O578 2.039 . S
Co567 N581 2.140 . S
C568 O569 1.207 1_556 S
C568 O578 1.310 . S
O569 C568 1.207 1_554 S
N570 Co567 2.121 . S
N570 C572 1.375 . S
N570 C573 1.313 . S
C571 C572 1.338 . S
C571 N574 1.377 . S
C571 H591 0.930 1_556 S
C572 N570 1.375 . S
C572 C571 1.338 . S
C572 H576 0.931 1_556 S
C573 N570 1.313 . S
C573 N574 1.344 . S
C573 H577 0.930 . S
N574 C571 1.377 . S
N574 C573 1.344 . S
O575 Co567 2.055 . S
O575 C579 1.253 . S
H576 C572 0.931 1_554 S
H577 C573 0.930 . S
O578 Co567 2.039 . S
O578 C568 1.310 . S
C579 O575 1.253 . S
C579 O580 1.227 . S
O580 C579 1.227 . S
N581 Co567 2.140 . S
N581 C584 1.346 . S
N581 C585 1.345 . S
C582 C583 1.392 . S
C582 C586 1.370 1_554 S
C583 C582 1.392 . S
C583 C584 1.369 1_554 S
C583 H592 0.929 . S
C584 N581 1.346 . S
C584 C583 1.369 1_556 S
C584 H587 0.928 . S
C585 N581 1.345 . S
C585 C586 1.371 . S
C585 H588 0.931 . S
C586 C582 1.370 1_556 S
C586 C585 1.371 . S
C586 H593 0.930 . S
H587 C584 0.928 . S
H588 C585 0.931 . S
H589 C565 0.930 . S
H590 C562 0.930 . S
H591 C571 0.930 1_554 S
H592 C583 0.929 . S
H593 C586 0.930 . S
C594 C595 1.351 . S
C594 N597 1.368 . S
C594 H599 0.931 . S
C595 C594 1.351 . S
C595 N596 1.373 . S
C595 H623 0.930 . S
N596 C595 1.373 . S
N596 C598 1.340 . S
N597 C594 1.368 . S
N597 C598 1.321 . S
N597 Co600 2.135 . S
C598 N596 1.340 . S
C598 N597 1.321 . S
C598 H622 0.930 . S
H599 C594 0.931 . S
Co600 N597 2.135 . S
Co600 N603 2.121 . S
Co600 O608 2.055 . S
Co600 O611 2.039 . S
Co600 N614 2.140 . S
C601 O602 1.227 . S
C601 O611 1.265 . S
O602 C601 1.227 . S
N603 Co600 2.121 . S
N603 C605 1.375 . S
N603 C606 1.313 . S
C604 C605 1.338 . S
C604 N607 1.377 . S
C604 H624 0.930 . S
C605 N603 1.375 . S
C605 C604 1.338 . S
C605 H609 0.931 . S
C606 N603 1.313 . S
C606 N607 1.344 . S
C606 H610 0.930 . S
N607 C604 1.377 . S
N607 C606 1.344 . S
O608 Co600 2.055 . S
O608 C612 1.253 . S
H609 C605 0.931 . S
H610 C606 0.930 . S
O611 Co600 2.039 . S
O611 C601 1.265 . S
C612 O608 1.253 . S
C612 O613 1.227 . S
O613 C612 1.227 . S
N614 Co600 2.140 . S
N614 C617 1.346 . S
N614 C618 1.345 . S
C615 C616 1.387 . S
C615 C619 1.391 . S
C616 C615 1.387 . S
C616 C617 1.369 . S
C616 H625 0.929 . S
C617 N614 1.346 . S
C617 C616 1.369 . S
C617 H620 0.928 . S
C618 N614 1.345 . S
C618 C619 1.371 . S
C618 H621 0.931 . S
C619 C615 1.391 . S
C619 C618 1.371 . S
C619 H626 0.930 . S
H620 C617 0.928 . S
H621 C618 0.931 . S
H622 C598 0.930 . S
H623 C595 0.930 . S
H624 C604 0.930 . S
H625 C616 0.929 . S
H626 C619 0.930 . S
C627 C628 1.351 . S
C627 N630 1.368 . S
C627 H632 0.931 . S
C628 C627 1.351 . S
C628 N629 1.373 . S
C628 H656 0.930 . S
N629 C628 1.373 . S
N629 C631 1.340 . S
N630 C627 1.368 . S
N630 C631 1.321 . S
N630 Co633 2.135 . S
C631 N629 1.340 . S
C631 N630 1.321 . S
C631 H655 0.930 . S
H632 C627 0.931 . S
Co633 N630 2.135 . S
Co633 N636 2.121 . S
Co633 O641 2.055 . S
Co633 O644 2.039 . S
Co633 N647 2.140 . S
C634 O635 1.227 . S
C634 O644 1.265 . S
O635 C634 1.227 . S
N636 Co633 2.121 . S
N636 C638 1.375 . S
N636 C639 1.313 . S
C637 C638 1.338 . S
C637 N640 1.377 . S
C637 H657 0.930 . S
C638 N636 1.375 . S
C638 C637 1.338 . S
C638 H642 0.931 . S
C639 N636 1.313 . S
C639 N640 1.344 . S
C639 H643 0.930 . S
N640 C637 1.377 . S
N640 C639 1.344 . S
O641 Co633 2.055 . S
O641 C645 1.253 . S
H642 C638 0.931 . S
H643 C639 0.930 . S
O644 Co633 2.039 . S
O644 C634 1.265 . S
C645 O641 1.253 . S
C645 O646 1.227 . S
O646 C645 1.227 . S
N647 Co633 2.140 . S
N647 C650 1.346 . S
N647 C651 1.345 . S
C648 C649 1.387 . S
C648 C652 1.391 . S
C649 C648 1.387 . S
C649 C650 1.369 . S
C649 H658 0.929 . S
C650 N647 1.346 . S
C650 C649 1.369 . S
C650 H653 0.928 . S
C651 N647 1.345 . S
C651 C652 1.371 . S
C651 H654 0.931 . S
C652 C648 1.391 . S
C652 C651 1.371 . S
C652 H659 0.930 . S
H653 C650 0.928 . S
H654 C651 0.931 . S
H655 C631 0.930 . S
H656 C628 0.930 . S
H657 C637 0.930 . S
H658 C649 0.929 . S
H659 C652 0.930 . S
C660 C661 1.351 . S
C660 N663 1.368 . S
C660 H665 0.931 . S
C661 C660 1.351 . S
C661 N662 1.373 . S
C661 H689 0.930 . S
N662 C661 1.373 . S
N662 C664 1.340 . S
N663 C660 1.368 . S
N663 C664 1.321 . S
N663 Co666 2.135 . S
C664 N662 1.340 . S
C664 N663 1.321 . S
C664 H688 0.930 . S
H665 C660 0.931 . S
Co666 N663 2.135 . S
Co666 N669 2.121 . S
Co666 O674 2.055 . S
Co666 O677 2.039 . S
Co666 N680 2.140 . S
C667 O668 1.227 . S
C667 O677 1.265 . S
O668 C667 1.227 . S
N669 Co666 2.121 . S
N669 C671 1.375 . S
N669 C672 1.313 . S
C670 C671 1.338 . S
C670 N673 1.377 . S
C670 H690 0.930 . S
C671 N669 1.375 . S
C671 C670 1.338 . S
C671 H675 0.931 . S
C672 N669 1.313 . S
C672 N673 1.344 . S
C672 H676 0.930 . S
N673 C670 1.377 . S
N673 C672 1.344 . S
O674 Co666 2.055 . S
O674 C678 1.253 . S
H675 C671 0.931 . S
H676 C672 0.930 . S
O677 Co666 2.039 . S
O677 C667 1.265 . S
C678 O674 1.253 . S
C678 O679 1.227 . S
O679 C678 1.227 . S
N680 Co666 2.140 . S
N680 C683 1.346 . S
N680 C684 1.345 . S
C681 C682 1.387 . S
C681 C685 1.391 . S
C682 C681 1.387 . S
C682 C683 1.369 . S
C682 H691 0.929 . S
C683 N680 1.346 . S
C683 C682 1.369 . S
C683 H686 0.928 . S
C684 N680 1.345 . S
C684 C685 1.371 . S
C684 H687 0.931 . S
C685 C681 1.391 . S
C685 C684 1.371 . S
C685 H692 0.930 . S
H686 C683 0.928 . S
H687 C684 0.931 . S
H688 C664 0.930 . S
H689 C661 0.930 . S
H690 C670 0.930 . S
H691 C682 0.929 . S
H692 C685 0.930 . S
C693 C694 1.351 . S
C693 N696 1.368 . S
C693 H698 0.931 . S
C694 C693 1.351 . S
C694 N695 1.373 . S
C694 H722 0.930 . S
N695 C694 1.373 . S
N695 C697 1.340 . S
N696 C693 1.368 . S
N696 C697 1.321 . S
N696 Co699 2.135 . S
C697 N695 1.340 . S
C697 N696 1.321 . S
C697 H721 0.930 . S
H698 C693 0.931 . S
Co699 N696 2.135 . S
Co699 N702 2.121 . S
Co699 O707 2.055 . S
Co699 O710 2.039 . S
Co699 N713 2.140 . S
C700 O701 1.227 . S
C700 O710 1.265 . S
O701 C700 1.227 . S
N702 Co699 2.121 . S
N702 C704 1.375 . S
N702 C705 1.313 . S
C703 C704 1.338 . S
C703 N706 1.377 . S
C703 H723 0.930 . S
C704 N702 1.375 . S
C704 C703 1.338 . S
C704 H708 0.931 . S
C705 N702 1.313 . S
C705 N706 1.344 . S
C705 H709 0.930 . S
N706 C703 1.377 . S
N706 C705 1.344 . S
O707 Co699 2.055 . S
O707 C711 1.253 . S
H708 C704 0.931 . S
H709 C705 0.930 . S
O710 Co699 2.039 . S
O710 C700 1.265 . S
C711 O707 1.253 . S
C711 O712 1.227 . S
O712 C711 1.227 . S
N713 Co699 2.140 . S
N713 C716 1.346 . S
N713 C717 1.345 . S
C714 C715 1.387 . S
C714 C718 1.391 . S
C715 C714 1.387 . S
C715 C716 1.369 . S
C715 H724 0.929 . S
C716 N713 1.346 . S
C716 C715 1.369 . S
C716 H719 0.928 . S
C717 N713 1.345 . S
C717 C718 1.371 . S
C717 H720 0.931 . S
C718 C714 1.391 . S
C718 C717 1.371 . S
C718 H725 0.930 . S
H719 C716 0.928 . S
H720 C717 0.931 . S
H721 C697 0.930 . S
H722 C694 0.930 . S
H723 C703 0.930 . S
H724 C715 0.929 . S
H725 C718 0.930 . S
C726 C727 1.351 . S
C726 N729 1.368 . S
C726 H731 0.931 . S
C727 C726 1.351 . S
C727 N728 1.373 . S
C727 H755 0.930 . S
N728 C727 1.373 . S
N728 C730 1.340 . S
N729 C726 1.368 . S
N729 C730 1.321 . S
N729 Co732 2.135 . S
C730 N728 1.340 . S
C730 N729 1.321 . S
C730 H754 0.930 . S
H731 C726 0.931 . S
Co732 N729 2.135 . S
Co732 N735 2.121 . S
Co732 O740 2.055 . S
Co732 O743 2.039 . S
Co732 N746 2.140 . S
C733 O734 1.227 . S
C733 O743 1.265 . S
O734 C733 1.227 . S
N735 Co732 2.121 . S
N735 C737 1.375 . S
N735 C738 1.313 . S
C736 C737 1.338 . S
C736 N739 1.377 . S
C736 H756 0.930 . S
C737 N735 1.375 . S
C737 C736 1.338 . S
C737 H741 0.931 . S
C738 N735 1.313 . S
C738 N739 1.344 . S
C738 H742 0.930 . S
N739 C736 1.377 . S
N739 C738 1.344 . S
O740 Co732 2.055 . S
O740 C744 1.253 . S
H741 C737 0.931 . S
H742 C738 0.930 . S
O743 Co732 2.039 . S
O743 C733 1.265 . S
C744 O740 1.253 . S
C744 O745 1.227 . S
O745 C744 1.227 . S
N746 Co732 2.140 . S
N746 C749 1.346 . S
N746 C750 1.345 . S
C747 C748 1.387 . S
C747 C751 1.391 . S
C748 C747 1.387 . S
C748 C749 1.369 . S
C748 H757 0.929 . S
C749 N746 1.346 . S
C749 C748 1.369 . S
C749 H752 0.928 . S
C750 N746 1.345 . S
C750 C751 1.371 . S
C750 H753 0.931 . S
C751 C747 1.391 . S
C751 C750 1.371 . S
C751 H758 0.930 . S
H752 C749 0.928 . S
H753 C750 0.931 . S
H754 C730 0.930 . S
H755 C727 0.930 . S
H756 C736 0.930 . S
H757 C748 0.929 . S
H758 C751 0.930 . S
C759 C760 1.351 . S
C759 N762 1.368 . S
C759 H764 0.931 . S
C760 C759 1.351 . S
C760 N761 1.373 . S
C760 H788 0.930 . S
N761 C760 1.373 . S
N761 C763 1.340 . S
N762 C759 1.368 . S
N762 C763 1.321 . S
N762 Co765 2.135 . S
C763 N761 1.340 . S
C763 N762 1.321 . S
C763 H787 0.930 . S
H764 C759 0.931 . S
Co765 N762 2.135 . S
Co765 N768 2.121 . S
Co765 O773 2.055 . S
Co765 O776 2.039 . S
Co765 N779 2.140 . S
C766 O767 1.227 . S
C766 O776 1.265 . S
O767 C766 1.227 . S
N768 Co765 2.121 . S
N768 C770 1.375 . S
N768 C771 1.313 . S
C769 C770 1.338 . S
C769 N772 1.377 . S
C769 H789 0.930 . S
C770 N768 1.375 . S
C770 C769 1.338 . S
C770 H774 0.931 . S
C771 N768 1.313 . S
C771 N772 1.344 . S
C771 H775 0.930 . S
N772 C769 1.377 . S
N772 C771 1.344 . S
O773 Co765 2.055 . S
O773 C777 1.253 . S
H774 C770 0.931 . S
H775 C771 0.930 . S
O776 Co765 2.039 . S
O776 C766 1.265 . S
C777 O773 1.253 . S
C777 O778 1.227 . S
O778 C777 1.227 . S
N779 Co765 2.140 . S
N779 C782 1.346 . S
N779 C783 1.345 . S
C780 C781 1.387 . S
C780 C784 1.391 . S
C781 C780 1.387 . S
C781 C782 1.369 . S
C781 H790 0.929 . S
C782 N779 1.346 . S
C782 C781 1.369 . S
C782 H785 0.928 . S
C783 N779 1.345 . S
C783 C784 1.371 . S
C783 H786 0.931 . S
C784 C780 1.391 . S
C784 C783 1.371 . S
C784 H791 0.930 . S
H785 C782 0.928 . S
H786 C783 0.931 . S
H787 C763 0.930 . S
H788 C760 0.930 . S
H789 C769 0.930 . S
H790 C781 0.929 . S
H791 C784 0.930 . S
C792 C793 1.351 . S
C792 N795 1.368 . S
C792 H797 0.931 . S
C793 C792 1.351 . S
C793 N794 1.373 . S
C793 H821 0.930 . S
N794 C793 1.373 . S
N794 C796 1.340 . S
N795 C792 1.368 . S
N795 C796 1.321 . S
N795 Co798 2.135 . S
C796 N794 1.340 . S
C796 N795 1.321 . S
C796 H820 0.930 . S
H797 C792 0.931 . S
Co798 N795 2.135 . S
Co798 N801 2.121 . S
Co798 O806 2.055 . S
Co798 O809 2.039 . S
Co798 N812 2.140 . S
C799 O800 1.207 1_655 S
C799 O809 1.311 . S
O800 C799 1.207 1_455 S
N801 Co798 2.121 . S
N801 C803 1.375 . S
N801 C804 1.313 . S
C802 C803 1.338 . S
C802 N805 1.377 . S
C802 H822 0.930 1_655 S
C803 N801 1.375 . S
C803 C802 1.338 . S
C803 H807 0.931 1_655 S
C804 N801 1.313 . S
C804 N805 1.344 . S
C804 H808 0.930 . S
N805 C802 1.377 . S
N805 C804 1.344 . S
O806 Co798 2.055 . S
O806 C810 1.253 . S
H807 C803 0.931 1_455 S
H808 C804 0.930 . S
O809 Co798 2.039 . S
O809 C799 1.311 . S
C810 O806 1.253 . S
C810 O811 1.227 . S
O811 C810 1.227 . S
N812 Co798 2.140 . S
N812 C815 1.346 . S
N812 C816 1.345 . S
C813 C814 1.392 . S
C813 C817 1.370 1_455 S
C814 C813 1.392 . S
C814 C815 1.369 1_455 S
C814 H823 0.929 . S
C815 N812 1.346 . S
C815 C814 1.369 1_655 S
C815 H818 0.928 . S
C816 N812 1.345 . S
C816 C817 1.371 . S
C816 H819 0.931 . S
C817 C813 1.370 1_655 S
C817 C816 1.371 . S
C817 H824 0.930 . S
H818 C815 0.928 . S
H819 C816 0.931 . S
H820 C796 0.930 . S
H821 C793 0.930 . S
H822 C802 0.930 1_455 S
H823 C814 0.929 . S
H824 C817 0.930 . S
C825 C826 1.351 . S
C825 N828 1.368 . S
C825 H830 0.931 . S
C826 C825 1.351 . S
C826 N827 1.373 . S
C826 H854 0.930 . S
N827 C826 1.373 . S
N827 C829 1.340 . S
N828 C825 1.368 . S
N828 C829 1.321 . S
N828 Co831 2.135 . S
C829 N827 1.340 . S
C829 N828 1.321 . S
C829 H853 0.930 . S
H830 C825 0.931 . S
Co831 N828 2.135 . S
Co831 N834 2.121 . S
Co831 O839 2.055 . S
Co831 O842 2.039 . S
Co831 N845 2.140 . S
C832 O833 1.227 . S
C832 O842 1.265 . S
O833 C832 1.227 . S
N834 Co831 2.121 . S
N834 C836 1.375 . S
N834 C837 1.313 . S
C835 C836 1.338 . S
C835 N838 1.377 . S
C835 H855 0.930 . S
C836 N834 1.375 . S
C836 C835 1.338 . S
C836 H840 0.931 . S
C837 N834 1.313 . S
C837 N838 1.344 . S
C837 H841 0.930 . S
N838 C835 1.377 . S
N838 C837 1.344 . S
O839 Co831 2.055 . S
O839 C843 1.253 . S
H840 C836 0.931 . S
H841 C837 0.930 . S
O842 Co831 2.039 . S
O842 C832 1.265 . S
C843 O839 1.253 . S
C843 O844 1.227 . S
O844 C843 1.227 . S
N845 Co831 2.140 . S
N845 C848 1.346 . S
N845 C849 1.345 . S
C846 C847 1.387 . S
C846 C850 1.391 . S
C847 C846 1.387 . S
C847 C848 1.369 . S
C847 H856 0.929 . S
C848 N845 1.346 . S
C848 C847 1.369 . S
C848 H851 0.928 . S
C849 N845 1.345 . S
C849 C850 1.371 . S
C849 H852 0.931 . S
C850 C846 1.391 . S
C850 C849 1.371 . S
C850 H857 0.930 . S
H851 C848 0.928 . S
H852 C849 0.931 . S
H853 C829 0.930 . S
H854 C826 0.930 . S
H855 C835 0.930 . S
H856 C847 0.929 . S
H857 C850 0.930 . S
C858 C859 1.351 . S
C858 N861 1.368 . S
C858 H863 0.931 . S
C859 C858 1.351 . S
C859 N860 1.373 . S
C859 H887 0.930 . S
N860 C859 1.373 . S
N860 C862 1.340 . S
N861 C858 1.368 . S
N861 C862 1.321 . S
N861 Co864 2.135 . S
C862 N860 1.340 . S
C862 N861 1.321 . S
C862 H886 0.930 . S
H863 C858 0.931 . S
Co864 N861 2.135 . S
Co864 N867 2.121 . S
Co864 O872 2.055 . S
Co864 O875 2.039 . S
Co864 N878 2.140 . S
C865 O866 1.227 . S
C865 O875 1.265 . S
O866 C865 1.227 . S
N867 Co864 2.121 . S
N867 C869 1.375 . S
N867 C870 1.313 . S
C868 C869 1.338 . S
C868 N871 1.377 . S
C868 H888 0.930 . S
C869 N867 1.375 . S
C869 C868 1.338 . S
C869 H873 0.931 . S
C870 N867 1.313 . S
C870 N871 1.344 . S
C870 H874 0.930 . S
N871 C868 1.377 . S
N871 C870 1.344 . S
O872 Co864 2.055 . S
O872 C876 1.253 . S
H873 C869 0.931 . S
H874 C870 0.930 . S
O875 Co864 2.039 . S
O875 C865 1.265 . S
C876 O872 1.253 . S
C876 O877 1.227 . S
O877 C876 1.227 . S
N878 Co864 2.140 . S
N878 C881 1.346 . S
N878 C882 1.345 . S
C879 C880 1.387 . S
C879 C883 1.391 . S
C880 C879 1.387 . S
C880 C881 1.369 . S
C880 H889 0.929 . S
C881 N878 1.346 . S
C881 C880 1.369 . S
C881 H884 0.928 . S
C882 N878 1.345 . S
C882 C883 1.371 . S
C882 H885 0.931 . S
C883 C879 1.391 . S
C883 C882 1.371 . S
C883 H890 0.930 . S
H884 C881 0.928 . S
H885 C882 0.931 . S
H886 C862 0.930 . S
H887 C859 0.930 . S
H888 C868 0.930 . S
H889 C880 0.929 . S
H890 C883 0.930 . S
C891 C892 1.351 . S
C891 N894 1.368 . S
C891 H896 0.931 . S
C892 C891 1.351 . S
C892 N893 1.373 . S
C892 H920 0.930 . S
N893 C892 1.373 . S
N893 C895 1.340 . S
N894 C891 1.368 . S
N894 C895 1.321 . S
N894 Co897 2.135 . S
C895 N893 1.340 . S
C895 N894 1.321 . S
C895 H919 0.930 . S
H896 C891 0.931 . S
Co897 N894 2.135 . S
Co897 N900 2.121 . S
Co897 O905 2.055 . S
Co897 O908 2.039 . S
Co897 N911 2.140 . S
C898 O899 1.227 . S
C898 O908 1.265 . S
O899 C898 1.227 . S
N900 Co897 2.121 . S
N900 C902 1.375 . S
N900 C903 1.313 . S
C901 C902 1.338 . S
C901 N904 1.377 . S
C901 H921 0.930 . S
C902 N900 1.375 . S
C902 C901 1.338 . S
C902 H906 0.931 . S
C903 N900 1.313 . S
C903 N904 1.344 . S
C903 H907 0.930 . S
N904 C901 1.377 . S
N904 C903 1.344 . S
O905 Co897 2.055 . S
O905 C909 1.253 . S
H906 C902 0.931 . S
H907 C903 0.930 . S
O908 Co897 2.039 . S
O908 C898 1.265 . S
C909 O905 1.253 . S
C909 O910 1.227 . S
O910 C909 1.227 . S
N911 Co897 2.140 . S
N911 C914 1.346 . S
N911 C915 1.345 . S
C912 C913 1.387 . S
C912 C916 1.391 . S
C913 C912 1.387 . S
C913 C914 1.369 . S
C913 H922 0.929 . S
C914 N911 1.346 . S
C914 C913 1.369 . S
C914 H917 0.928 . S
C915 N911 1.345 . S
C915 C916 1.371 . S
C915 H918 0.931 . S
C916 C912 1.391 . S
C916 C915 1.371 . S
C916 H923 0.930 . S
H917 C914 0.928 . S
H918 C915 0.931 . S
H919 C895 0.930 . S
H920 C892 0.930 . S
H921 C901 0.930 . S
H922 C913 0.929 . S
H923 C916 0.930 . S
C924 C925 1.351 . S
C924 N927 1.368 . S
C924 H929 0.931 . S
C925 C924 1.351 . S
C925 N926 1.373 . S
C925 H953 0.930 . S
N926 C925 1.373 . S
N926 C928 1.340 . S
N927 C924 1.368 . S
N927 C928 1.321 . S
N927 Co930 2.135 . S
C928 N926 1.340 . S
C928 N927 1.321 . S
C928 H952 0.930 . S
H929 C924 0.931 . S
Co930 N927 2.135 . S
Co930 N933 2.121 . S
Co930 O938 2.055 . S
Co930 O941 2.039 . S
Co930 N944 2.140 . S
C931 O932 1.207 1_655 S
C931 O941 1.311 . S
O932 C931 1.207 1_455 S
N933 Co930 2.121 . S
N933 C935 1.375 . S
N933 C936 1.313 . S
C934 C935 1.338 . S
C934 N937 1.377 . S
C934 H954 0.930 1_655 S
C935 N933 1.375 . S
C935 C934 1.338 . S
C935 H939 0.931 1_655 S
C936 N933 1.313 . S
C936 N937 1.344 . S
C936 H940 0.930 . S
N937 C934 1.377 . S
N937 C936 1.344 . S
O938 Co930 2.055 . S
O938 C942 1.253 . S
H939 C935 0.931 1_455 S
H940 C936 0.930 . S
O941 Co930 2.039 . S
O941 C931 1.311 . S
C942 O938 1.253 . S
C942 O943 1.227 . S
O943 C942 1.227 . S
N944 Co930 2.140 . S
N944 C947 1.346 . S
N944 C948 1.345 . S
C945 C946 1.392 . S
C945 C949 1.370 1_455 S
C946 C945 1.392 . S
C946 C947 1.369 1_455 S
C946 H955 0.929 . S
C947 N944 1.346 . S
C947 C946 1.369 1_655 S
C947 H950 0.928 . S
C948 N944 1.345 . S
C948 C949 1.371 . S
C948 H951 0.931 . S
C949 C945 1.370 1_655 S
C949 C948 1.371 . S
C949 H956 0.930 . S
H950 C947 0.928 . S
H951 C948 0.931 . S
H952 C928 0.930 . S
H953 C925 0.930 . S
H954 C934 0.930 1_455 S
H955 C946 0.929 . S
H956 C949 0.930 . S
C957 C958 1.351 . S
C957 N960 1.368 . S
C957 H962 0.931 . S
C958 C957 1.351 . S
C958 N959 1.373 . S
C958 H986 0.930 . S
N959 C958 1.373 . S
N959 C961 1.340 . S
N960 C957 1.368 . S
N960 C961 1.321 . S
N960 Co963 2.135 . S
C961 N959 1.340 . S
C961 N960 1.321 . S
C961 H985 0.930 . S
H962 C957 0.931 . S
Co963 N960 2.135 . S
Co963 N966 2.121 . S
Co963 O971 2.055 . S
Co963 O974 2.039 . S
Co963 N977 2.140 . S
C964 O965 1.227 . S
C964 O974 1.265 . S
O965 C964 1.227 . S
N966 Co963 2.121 . S
N966 C968 1.375 . S
N966 C969 1.313 . S
C967 C968 1.338 . S
C967 N970 1.377 . S
C967 H987 0.930 . S
C968 N966 1.375 . S
C968 C967 1.338 . S
C968 H972 0.931 . S
C969 N966 1.313 . S
C969 N970 1.344 . S
C969 H973 0.930 . S
N970 C967 1.377 . S
N970 C969 1.344 . S
O971 Co963 2.055 . S
O971 C975 1.253 . S
H972 C968 0.931 . S
H973 C969 0.930 . S
O974 Co963 2.039 . S
O974 C964 1.265 . S
C975 O971 1.253 . S
C975 O976 1.227 . S
O976 C975 1.227 . S
N977 Co963 2.140 . S
N977 C980 1.346 . S
N977 C981 1.345 . S
C978 C979 1.387 . S
C978 C982 1.391 . S
C979 C978 1.387 . S
C979 C980 1.369 . S
C979 H988 0.929 . S
C980 N977 1.346 . S
C980 C979 1.369 . S
C980 H983 0.928 . S
C981 N977 1.345 . S
C981 C982 1.371 . S
C981 H984 0.931 . S
C982 C978 1.391 . S
C982 C981 1.371 . S
C982 H989 0.930 . S
H983 C980 0.928 . S
H984 C981 0.931 . S
H985 C961 0.930 . S
H986 C958 0.930 . S
H987 C967 0.930 . S
H988 C979 0.929 . S
H989 C982 0.930 . S
C990 C991 1.351 . S
C990 N993 1.368 . S
C990 H995 0.931 . S
C991 C990 1.351 . S
C991 N992 1.373 . S
C991 H1019 0.930 . S
N992 C991 1.373 . S
N992 C994 1.340 . S
N993 C990 1.368 . S
N993 C994 1.321 . S
N993 Co996 2.135 . S
C994 N992 1.340 . S
C994 N993 1.321 . S
C994 H1018 0.930 . S
H995 C990 0.931 . S
Co996 N993 2.135 . S
Co996 N999 2.121 . S
Co996 O1004 2.055 . S
Co996 O1007 2.039 . S
Co996 N1010 2.140 . S
C997 O998 1.227 . S
C997 O1007 1.265 . S
O998 C997 1.227 . S
N999 Co996 2.121 . S
N999 C1001 1.375 . S
N999 C1002 1.313 . S
C1000 C1001 1.338 . S
C1000 N1003 1.377 . S
C1000 H1020 0.930 . S
C1001 N999 1.375 . S
C1001 C1000 1.338 . S
C1001 H1005 0.931 . S
C1002 N999 1.313 . S
C1002 N1003 1.344 . S
C1002 H1006 0.930 . S
N1003 C1000 1.377 . S
N1003 C1002 1.344 . S
O1004 Co996 2.055 . S
O1004 C1008 1.253 . S
H1005 C1001 0.931 . S
H1006 C1002 0.930 . S
O1007 Co996 2.039 . S
O1007 C997 1.265 . S
C1008 O1004 1.253 . S
C1008 O1009 1.227 . S
O1009 C1008 1.227 . S
N1010 Co996 2.140 . S
N1010 C1013 1.346 . S
N1010 C1014 1.345 . S
C1011 C1012 1.387 . S
C1011 C1015 1.391 . S
C1012 C1011 1.387 . S
C1012 C1013 1.369 . S
C1012 H1021 0.929 . S
C1013 N1010 1.346 . S
C1013 C1012 1.369 . S
C1013 H1016 0.928 . S
C1014 N1010 1.345 . S
C1014 C1015 1.371 . S
C1014 H1017 0.931 . S
C1015 C1011 1.391 . S
C1015 C1014 1.371 . S
C1015 H1022 0.930 . S
H1016 C1013 0.928 . S
H1017 C1014 0.931 . S
H1018 C994 0.930 . S
H1019 C991 0.930 . S
H1020 C1000 0.930 . S
H1021 C1012 0.929 . S
H1022 C1015 0.930 . S
C1023 C1024 1.351 . S
C1023 N1026 1.368 . S
C1023 H1028 0.931 . S
C1024 C1023 1.351 . S
C1024 N1025 1.373 . S
C1024 H1052 0.930 . S
N1025 C1024 1.373 . S
N1025 C1027 1.340 . S
N1026 C1023 1.368 . S
N1026 C1027 1.321 . S
N1026 Co1029 2.135 . S
C1027 N1025 1.340 . S
C1027 N1026 1.321 . S
C1027 H1051 0.930 . S
H1028 C1023 0.931 . S
Co1029 N1026 2.135 . S
Co1029 N1032 2.121 . S
Co1029 O1037 2.055 . S
Co1029 O1040 2.039 . S
Co1029 N1043 2.140 . S
C1030 O1031 1.227 . S
C1030 O1040 1.265 . S
O1031 C1030 1.227 . S
N1032 Co1029 2.121 . S
N1032 C1034 1.375 . S
N1032 C1035 1.313 . S
C1033 C1034 1.338 . S
C1033 N1036 1.377 . S
C1033 H1053 0.930 . S
C1034 N1032 1.375 . S
C1034 C1033 1.338 . S
C1034 H1038 0.931 . S
C1035 N1032 1.313 . S
C1035 N1036 1.344 . S
C1035 H1039 0.930 . S
N1036 C1033 1.377 . S
N1036 C1035 1.344 . S
O1037 Co1029 2.055 . S
O1037 C1041 1.253 . S
H1038 C1034 0.931 . S
H1039 C1035 0.930 . S
O1040 Co1029 2.039 . S
O1040 C1030 1.265 . S
C1041 O1037 1.253 . S
C1041 O1042 1.227 . S
O1042 C1041 1.227 . S
N1043 Co1029 2.140 . S
N1043 C1046 1.346 . S
N1043 C1047 1.345 . S
C1044 C1045 1.387 . S
C1044 C1048 1.391 . S
C1045 C1044 1.387 . S
C1045 C1046 1.369 . S
C1045 H1054 0.929 . S
C1046 N1043 1.346 . S
C1046 C1045 1.369 . S
C1046 H1049 0.928 . S
C1047 N1043 1.345 . S
C1047 C1048 1.371 . S
C1047 H1050 0.931 . S
C1048 C1044 1.391 . S
C1048 C1047 1.371 . S
C1048 H1055 0.930 . S
H1049 C1046 0.928 . S
H1050 C1047 0.931 . S
H1051 C1027 0.930 . S
H1052 C1024 0.930 . S
H1053 C1033 0.930 . S
H1054 C1045 0.929 . S
H1055 C1048 0.930 . S
C1056 C1057 1.351 . S
C1056 N1059 1.368 . S
C1056 H1061 0.931 . S
C1057 C1056 1.351 . S
C1057 N1058 1.373 . S
C1057 H1085 0.930 . S
N1058 C1057 1.373 . S
N1058 C1060 1.340 . S
N1059 C1056 1.368 . S
N1059 C1060 1.321 . S
N1059 Co1062 2.135 . S
C1060 N1058 1.340 . S
C1060 N1059 1.321 . S
C1060 H1084 0.930 . S
H1061 C1056 0.931 . S
Co1062 N1059 2.135 . S
Co1062 N1065 2.121 . S
Co1062 O1070 2.055 . S
Co1062 O1073 2.039 . S
Co1062 N1076 2.140 . S
C1063 O1064 1.207 1_565 S
C1063 O1073 1.311 . S
O1064 C1063 1.207 1_545 S
N1065 Co1062 2.121 . S
N1065 C1067 1.375 . S
N1065 C1068 1.313 . S
C1066 C1067 1.338 . S
C1066 N1069 1.377 . S
C1066 H1086 0.930 1_565 S
C1067 N1065 1.375 . S
C1067 C1066 1.338 . S
C1067 H1071 0.931 1_565 S
C1068 N1065 1.313 . S
C1068 N1069 1.344 . S
C1068 H1072 0.930 . S
N1069 C1066 1.377 . S
N1069 C1068 1.344 . S
O1070 Co1062 2.055 . S
O1070 C1074 1.253 . S
H1071 C1067 0.931 1_545 S
H1072 C1068 0.930 . S
O1073 Co1062 2.039 . S
O1073 C1063 1.311 . S
C1074 O1070 1.253 . S
C1074 O1075 1.227 . S
O1075 C1074 1.227 . S
N1076 Co1062 2.140 . S
N1076 C1079 1.346 . S
N1076 C1080 1.345 . S
C1077 C1078 1.392 . S
C1077 C1081 1.370 1_545 S
C1078 C1077 1.392 . S
C1078 C1079 1.369 1_545 S
C1078 H1087 0.929 . S
C1079 N1076 1.346 . S
C1079 C1078 1.369 1_565 S
C1079 H1082 0.928 . S
C1080 N1076 1.345 . S
C1080 C1081 1.371 . S
C1080 H1083 0.931 . S
C1081 C1077 1.370 1_565 S
C1081 C1080 1.371 . S
C1081 H1088 0.930 . S
H1082 C1079 0.928 . S
H1083 C1080 0.931 . S
H1084 C1060 0.930 . S
H1085 C1057 0.930 . S
H1086 C1066 0.930 1_545 S
H1087 C1078 0.929 . S
H1088 C1081 0.930 . S
C1089 C1090 1.351 . S
C1089 N1092 1.368 . S
C1089 H1094 0.931 . S
C1090 C1089 1.351 . S
C1090 N1091 1.373 . S
C1090 H1118 0.930 . S
N1091 C1090 1.373 . S
N1091 C1093 1.340 . S
N1092 C1089 1.368 . S
N1092 C1093 1.321 . S
N1092 Co1095 2.135 . S
C1093 N1091 1.340 . S
C1093 N1092 1.321 . S
C1093 H1117 0.930 . S
H1094 C1089 0.931 . S
Co1095 N1092 2.135 . S
Co1095 N1098 2.121 . S
Co1095 O1103 2.055 . S
Co1095 O1106 2.039 . S
Co1095 N1109 2.140 . S
C1096 O1097 1.227 . S
C1096 O1106 1.265 . S
O1097 C1096 1.227 . S
N1098 Co1095 2.121 . S
N1098 C1100 1.375 . S
N1098 C1101 1.313 . S
C1099 C1100 1.338 . S
C1099 N1102 1.377 . S
C1099 H1119 0.930 . S
C1100 N1098 1.375 . S
C1100 C1099 1.338 . S
C1100 H1104 0.931 . S
C1101 N1098 1.313 . S
C1101 N1102 1.344 . S
C1101 H1105 0.930 . S
N1102 C1099 1.377 . S
N1102 C1101 1.344 . S
O1103 Co1095 2.055 . S
O1103 C1107 1.253 . S
H1104 C1100 0.931 . S
H1105 C1101 0.930 . S
O1106 Co1095 2.039 . S
O1106 C1096 1.265 . S
C1107 O1103 1.253 . S
C1107 O1108 1.227 . S
O1108 C1107 1.227 . S
N1109 Co1095 2.140 . S
N1109 C1112 1.346 . S
N1109 C1113 1.345 . S
C1110 C1111 1.387 . S
C1110 C1114 1.391 . S
C1111 C1110 1.387 . S
C1111 C1112 1.369 . S
C1111 H1120 0.929 . S
C1112 N1109 1.346 . S
C1112 C1111 1.369 . S
C1112 H1115 0.928 . S
C1113 N1109 1.345 . S
C1113 C1114 1.371 . S
C1113 H1116 0.931 . S
C1114 C1110 1.391 . S
C1114 C1113 1.371 . S
C1114 H1121 0.930 . S
H1115 C1112 0.928 . S
H1116 C1113 0.931 . S
H1117 C1093 0.930 . S
H1118 C1090 0.930 . S
H1119 C1099 0.930 . S
H1120 C1111 0.929 . S
H1121 C1114 0.930 . S
C1122 C1123 1.351 . S
C1122 N1125 1.368 . S
C1122 H1127 0.931 . S
C1123 C1122 1.351 . S
C1123 N1124 1.373 . S
C1123 H1151 0.930 . S
N1124 C1123 1.373 . S
N1124 C1126 1.340 . S
N1125 C1122 1.368 . S
N1125 C1126 1.321 . S
N1125 Co1128 2.135 . S
C1126 N1124 1.340 . S
C1126 N1125 1.321 . S
C1126 H1150 0.930 . S
H1127 C1122 0.931 . S
Co1128 N1125 2.135 . S
Co1128 N1131 2.121 . S
Co1128 O1136 2.055 . S
Co1128 O1139 2.039 . S
Co1128 N1142 2.140 . S
C1129 O1130 1.207 1_545 S
C1129 O1139 1.310 . S
O1130 C1129 1.207 1_565 S
N1131 Co1128 2.121 . S
N1131 C1133 1.375 . S
N1131 C1134 1.313 . S
C1132 C1133 1.338 . S
C1132 N1135 1.377 . S
C1132 H1152 0.930 1_545 S
C1133 N1131 1.375 . S
C1133 C1132 1.338 . S
C1133 H1137 0.931 1_545 S
C1134 N1131 1.313 . S
C1134 N1135 1.344 . S
C1134 H1138 0.930 . S
N1135 C1132 1.377 . S
N1135 C1134 1.344 . S
O1136 Co1128 2.055 . S
O1136 C1140 1.253 . S
H1137 C1133 0.931 1_565 S
H1138 C1134 0.930 . S
O1139 Co1128 2.039 . S
O1139 C1129 1.310 . S
C1140 O1136 1.253 . S
C1140 O1141 1.227 . S
O1141 C1140 1.227 . S
N1142 Co1128 2.140 . S
N1142 C1145 1.346 . S
N1142 C1146 1.345 . S
C1143 C1144 1.392 . S
C1143 C1147 1.370 1_565 S
C1144 C1143 1.392 . S
C1144 C1145 1.369 1_565 S
C1144 H1153 0.929 . S
C1145 N1142 1.346 . S
C1145 C1144 1.369 1_545 S
C1145 H1148 0.928 . S
C1146 N1142 1.345 . S
C1146 C1147 1.371 . S
C1146 H1149 0.931 . S
C1147 C1143 1.370 1_545 S
C1147 C1146 1.371 . S
C1147 H1154 0.930 . S
H1148 C1145 0.928 . S
H1149 C1146 0.931 . S
H1150 C1126 0.930 . S
H1151 C1123 0.930 . S
H1152 C1132 0.930 1_565 S
H1153 C1144 0.929 . S
H1154 C1147 0.930 . S
C1155 C1156 1.351 . S
C1155 N1158 1.368 . S
C1155 H1160 0.931 . S
C1156 C1155 1.351 . S
C1156 N1157 1.373 . S
C1156 H1184 0.930 . S
N1157 C1156 1.373 . S
N1157 C1159 1.340 . S
N1158 C1155 1.368 . S
N1158 C1159 1.321 . S
N1158 Co1161 2.135 . S
C1159 N1157 1.340 . S
C1159 N1158 1.321 . S
C1159 H1183 0.930 . S
H1160 C1155 0.931 . S
Co1161 N1158 2.135 . S
Co1161 N1164 2.121 . S
Co1161 O1169 2.055 . S
Co1161 O1172 2.039 . S
Co1161 N1175 2.140 . S
C1162 O1163 1.227 . S
C1162 O1172 1.265 . S
O1163 C1162 1.227 . S
N1164 Co1161 2.121 . S
N1164 C1166 1.375 . S
N1164 C1167 1.313 . S
C1165 C1166 1.338 . S
C1165 N1168 1.377 . S
C1165 H1185 0.930 . S
C1166 N1164 1.375 . S
C1166 C1165 1.338 . S
C1166 H1170 0.931 . S
C1167 N1164 1.313 . S
C1167 N1168 1.344 . S
C1167 H1171 0.930 . S
N1168 C1165 1.377 . S
N1168 C1167 1.344 . S
O1169 Co1161 2.055 . S
O1169 C1173 1.253 . S
H1170 C1166 0.931 . S
H1171 C1167 0.930 . S
O1172 Co1161 2.039 . S
O1172 C1162 1.265 . S
C1173 O1169 1.253 . S
C1173 O1174 1.227 . S
O1174 C1173 1.227 . S
N1175 Co1161 2.140 . S
N1175 C1178 1.346 . S
N1175 C1179 1.345 . S
C1176 C1177 1.387 . S
C1176 C1180 1.391 . S
C1177 C1176 1.387 . S
C1177 C1178 1.369 . S
C1177 H1186 0.929 . S
C1178 N1175 1.346 . S
C1178 C1177 1.369 . S
C1178 H1181 0.928 . S
C1179 N1175 1.345 . S
C1179 C1180 1.371 . S
C1179 H1182 0.931 . S
C1180 C1176 1.391 . S
C1180 C1179 1.371 . S
C1180 H1187 0.930 . S
H1181 C1178 0.928 . S
H1182 C1179 0.931 . S
H1183 C1159 0.930 . S
H1184 C1156 0.930 . S
H1185 C1165 0.930 . S
H1186 C1177 0.929 . S
H1187 C1180 0.930 . S
C1188 C1189 1.351 . S
C1188 N1191 1.368 . S
C1188 H1193 0.931 . S
C1189 C1188 1.351 . S
C1189 N1190 1.373 . S
C1189 H1217 0.930 . S
N1190 C1189 1.373 . S
N1190 C1192 1.340 . S
N1191 C1188 1.368 . S
N1191 C1192 1.321 . S
N1191 Co1194 2.135 . S
C1192 N1190 1.340 . S
C1192 N1191 1.321 . S
C1192 H1216 0.930 . S
H1193 C1188 0.931 . S
Co1194 N1191 2.135 . S
Co1194 N1197 2.121 . S
Co1194 O1202 2.055 . S
Co1194 O1205 2.039 . S
Co1194 N1208 2.140 . S
C1195 O1196 1.207 1_545 S
C1195 O1205 1.310 . S
O1196 C1195 1.207 1_565 S
N1197 Co1194 2.121 . S
N1197 C1199 1.375 . S
N1197 C1200 1.313 . S
C1198 C1199 1.338 . S
C1198 N1201 1.377 . S
C1198 H1218 0.930 1_545 S
C1199 N1197 1.375 . S
C1199 C1198 1.338 . S
C1199 H1203 0.931 1_545 S
C1200 N1197 1.313 . S
C1200 N1201 1.344 . S
C1200 H1204 0.930 . S
N1201 C1198 1.377 . S
N1201 C1200 1.344 . S
O1202 Co1194 2.055 . S
O1202 C1206 1.253 . S
H1203 C1199 0.931 1_565 S
H1204 C1200 0.930 . S
O1205 Co1194 2.039 . S
O1205 C1195 1.310 . S
C1206 O1202 1.253 . S
C1206 O1207 1.227 . S
O1207 C1206 1.227 . S
N1208 Co1194 2.140 . S
N1208 C1211 1.346 . S
N1208 C1212 1.345 . S
C1209 C1210 1.392 . S
C1209 C1213 1.370 1_565 S
C1210 C1209 1.392 . S
C1210 C1211 1.369 1_565 S
C1210 H1219 0.929 . S
C1211 N1208 1.346 . S
C1211 C1210 1.369 1_545 S
C1211 H1214 0.928 . S
C1212 N1208 1.345 . S
C1212 C1213 1.371 . S
C1212 H1215 0.931 . S
C1213 C1209 1.370 1_545 S
C1213 C1212 1.371 . S
C1213 H1220 0.930 . S
H1214 C1211 0.928 . S
H1215 C1212 0.931 . S
H1216 C1192 0.930 . S
H1217 C1189 0.930 . S
H1218 C1198 0.930 1_565 S
H1219 C1210 0.929 . S
H1220 C1213 0.930 . S
C1221 C1222 1.351 . S
C1221 N1224 1.368 . S
C1221 H1226 0.931 . S
C1222 C1221 1.351 . S
C1222 N1223 1.373 . S
C1222 H1250 0.930 . S
N1223 C1222 1.373 . S
N1223 C1225 1.340 . S
N1224 C1221 1.368 . S
N1224 C1225 1.321 . S
N1224 Co1227 2.135 . S
C1225 N1223 1.340 . S
C1225 N1224 1.321 . S
C1225 H1249 0.930 . S
H1226 C1221 0.931 . S
Co1227 N1224 2.135 . S
Co1227 N1230 2.121 . S
Co1227 O1235 2.055 . S
Co1227 O1238 2.039 . S
Co1227 N1241 2.140 . S
C1228 O1229 1.227 . S
C1228 O1238 1.265 . S
O1229 C1228 1.227 . S
N1230 Co1227 2.121 . S
N1230 C1232 1.375 . S
N1230 C1233 1.313 . S
C1231 C1232 1.338 . S
C1231 N1234 1.377 . S
C1231 H1251 0.930 . S
C1232 N1230 1.375 . S
C1232 C1231 1.338 . S
C1232 H1236 0.931 . S
C1233 N1230 1.313 . S
C1233 N1234 1.344 . S
C1233 H1237 0.930 . S
N1234 C1231 1.377 . S
N1234 C1233 1.344 . S
O1235 Co1227 2.055 . S
O1235 C1239 1.253 . S
H1236 C1232 0.931 . S
H1237 C1233 0.930 . S
O1238 Co1227 2.039 . S
O1238 C1228 1.265 . S
C1239 O1235 1.253 . S
C1239 O1240 1.227 . S
O1240 C1239 1.227 . S
N1241 Co1227 2.140 . S
N1241 C1244 1.346 . S
N1241 C1245 1.345 . S
C1242 C1243 1.387 . S
C1242 C1246 1.391 . S
C1243 C1242 1.387 . S
C1243 C1244 1.369 . S
C1243 H1252 0.929 . S
C1244 N1241 1.346 . S
C1244 C1243 1.369 . S
C1244 H1247 0.928 . S
C1245 N1241 1.345 . S
C1245 C1246 1.371 . S
C1245 H1248 0.931 . S
C1246 C1242 1.391 . S
C1246 C1245 1.371 . S
C1246 H1253 0.930 . S
H1247 C1244 0.928 . S
H1248 C1245 0.931 . S
H1249 C1225 0.930 . S
H1250 C1222 0.930 . S
H1251 C1231 0.930 . S
H1252 C1243 0.929 . S
H1253 C1246 0.930 . S
C1254 C1255 1.351 . S
C1254 N1257 1.368 . S
C1254 H1259 0.931 . S
C1255 C1254 1.351 . S
C1255 N1256 1.373 . S
C1255 H1283 0.930 . S
N1256 C1255 1.373 . S
N1256 C1258 1.340 . S
N1257 C1254 1.368 . S
N1257 C1258 1.321 . S
N1257 Co1260 2.135 . S
C1258 N1256 1.340 . S
C1258 N1257 1.321 . S
C1258 H1282 0.930 . S
H1259 C1254 0.931 . S
Co1260 N1257 2.135 . S
Co1260 N1263 2.121 . S
Co1260 O1268 2.055 . S
Co1260 O1271 2.039 . S
Co1260 N1274 2.140 . S
C1261 O1262 1.207 1_565 S
C1261 O1271 1.311 . S
O1262 C1261 1.207 1_545 S
N1263 Co1260 2.121 . S
N1263 C1265 1.375 . S
N1263 C1266 1.313 . S
C1264 C1265 1.338 . S
C1264 N1267 1.377 . S
C1264 H1284 0.930 1_565 S
C1265 N1263 1.375 . S
C1265 C1264 1.338 . S
C1265 H1269 0.931 1_565 S
C1266 N1263 1.313 . S
C1266 N1267 1.344 . S
C1266 H1270 0.930 . S
N1267 C1264 1.377 . S
N1267 C1266 1.344 . S
O1268 Co1260 2.055 . S
O1268 C1272 1.253 . S
H1269 C1265 0.931 1_545 S
H1270 C1266 0.930 . S
O1271 Co1260 2.039 . S
O1271 C1261 1.311 . S
C1272 O1268 1.253 . S
C1272 O1273 1.227 . S
O1273 C1272 1.227 . S
N1274 Co1260 2.140 . S
N1274 C1277 1.346 . S
N1274 C1278 1.345 . S
C1275 C1276 1.392 . S
C1275 C1279 1.370 1_545 S
C1276 C1275 1.392 . S
C1276 C1277 1.369 1_545 S
C1276 H1285 0.929 . S
C1277 N1274 1.346 . S
C1277 C1276 1.369 1_565 S
C1277 H1280 0.928 . S
C1278 N1274 1.345 . S
C1278 C1279 1.371 . S
C1278 H1281 0.931 . S
C1279 C1275 1.370 1_565 S
C1279 C1278 1.371 . S
C1279 H1286 0.930 . S
H1280 C1277 0.928 . S
H1281 C1278 0.931 . S
H1282 C1258 0.930 . S
H1283 C1255 0.930 . S
H1284 C1264 0.930 1_545 S
H1285 C1276 0.929 . S
H1286 C1279 0.930 . S
C1287 C1288 1.351 . S
C1287 N1290 1.368 . S
C1287 H1292 0.931 . S
C1288 C1287 1.351 . S
C1288 N1289 1.373 . S
C1288 H1316 0.930 . S
N1289 C1288 1.373 . S
N1289 C1291 1.340 . S
N1290 C1287 1.368 . S
N1290 C1291 1.321 . S
N1290 Co1293 2.135 . S
C1291 N1289 1.340 . S
C1291 N1290 1.321 . S
C1291 H1315 0.930 . S
H1292 C1287 0.931 . S
Co1293 N1290 2.135 . S
Co1293 N1296 2.121 . S
Co1293 O1301 2.055 . S
Co1293 O1304 2.039 . S
Co1293 N1307 2.140 . S
C1294 O1295 1.227 . S
C1294 O1304 1.265 . S
O1295 C1294 1.227 . S
N1296 Co1293 2.121 . S
N1296 C1298 1.375 . S
N1296 C1299 1.313 . S
C1297 C1298 1.338 . S
C1297 N1300 1.377 . S
C1297 H1317 0.930 . S
C1298 N1296 1.375 . S
C1298 C1297 1.338 . S
C1298 H1302 0.931 . S
C1299 N1296 1.313 . S
C1299 N1300 1.344 . S
C1299 H1303 0.930 . S
N1300 C1297 1.377 . S
N1300 C1299 1.344 . S
O1301 Co1293 2.055 . S
O1301 C1305 1.253 . S
H1302 C1298 0.931 . S
H1303 C1299 0.930 . S
O1304 Co1293 2.039 . S
O1304 C1294 1.265 . S
C1305 O1301 1.253 . S
C1305 O1306 1.227 . S
O1306 C1305 1.227 . S
N1307 Co1293 2.140 . S
N1307 C1310 1.346 . S
N1307 C1311 1.345 . S
C1308 C1309 1.387 . S
C1308 C1312 1.391 . S
C1309 C1308 1.387 . S
C1309 C1310 1.369 . S
C1309 H1318 0.929 . S
C1310 N1307 1.346 . S
C1310 C1309 1.369 . S
C1310 H1313 0.928 . S
C1311 N1307 1.345 . S
C1311 C1312 1.371 . S
C1311 H1314 0.931 . S
C1312 C1308 1.391 . S
C1312 C1311 1.371 . S
C1312 H1319 0.930 . S
H1313 C1310 0.928 . S
H1314 C1311 0.931 . S
H1315 C1291 0.930 . S
H1316 C1288 0.930 . S
H1317 C1297 0.930 . S
H1318 C1309 0.929 . S
H1319 C1312 0.930 . S
C1320 C1321 1.351 . S
C1320 N1323 1.368 . S
C1320 H1325 0.931 . S
C1321 C1320 1.351 . S
C1321 N1322 1.373 . S
C1321 H1349 0.930 . S
N1322 C1321 1.373 . S
N1322 C1324 1.340 . S
N1323 C1320 1.368 . S
N1323 C1324 1.321 . S
N1323 Co1326 2.135 . S
C1324 N1322 1.340 . S
C1324 N1323 1.321 . S
C1324 H1348 0.930 . S
H1325 C1320 0.931 . S
Co1326 N1323 2.135 . S
Co1326 N1329 2.121 . S
Co1326 O1334 2.055 . S
Co1326 O1337 2.039 . S
Co1326 N1340 2.140 . S
C1327 O1328 1.207 1_556 S
C1327 O1337 1.311 . S
O1328 C1327 1.207 1_554 S
N1329 Co1326 2.121 . S
N1329 C1331 1.375 . S
N1329 C1332 1.313 . S
C1330 C1331 1.338 . S
C1330 N1333 1.377 . S
C1330 H1350 0.930 1_556 S
C1331 N1329 1.375 . S
C1331 C1330 1.338 . S
C1331 H1335 0.931 1_556 S
C1332 N1329 1.313 . S
C1332 N1333 1.344 . S
C1332 H1336 0.930 . S
N1333 C1330 1.377 . S
N1333 C1332 1.344 . S
O1334 Co1326 2.055 . S
O1334 C1338 1.253 . S
H1335 C1331 0.931 1_554 S
H1336 C1332 0.930 . S
O1337 Co1326 2.039 . S
O1337 C1327 1.311 . S
C1338 O1334 1.253 . S
C1338 O1339 1.227 . S
O1339 C1338 1.227 . S
N1340 Co1326 2.140 . S
N1340 C1343 1.346 . S
N1340 C1344 1.345 . S
C1341 C1342 1.392 . S
C1341 C1345 1.370 1_554 S
C1342 C1341 1.392 . S
C1342 C1343 1.369 1_554 S
C1342 H1351 0.929 . S
C1343 N1340 1.346 . S
C1343 C1342 1.369 1_556 S
C1343 H1346 0.928 . S
C1344 N1340 1.345 . S
C1344 C1345 1.371 . S
C1344 H1347 0.931 . S
C1345 C1341 1.370 1_556 S
C1345 C1344 1.371 . S
C1345 H1352 0.930 . S
H1346 C1343 0.928 . S
H1347 C1344 0.931 . S
H1348 C1324 0.930 . S
H1349 C1321 0.930 . S
H1350 C1330 0.930 1_554 S
H1351 C1342 0.929 . S
H1352 C1345 0.930 . S
C1353 C1354 1.351 . S
C1353 N1356 1.368 . S
C1353 H1358 0.931 . S
C1354 C1353 1.351 . S
C1354 N1355 1.373 . S
C1354 H1382 0.930 . S
N1355 C1354 1.373 . S
N1355 C1357 1.340 . S
N1356 C1353 1.368 . S
N1356 C1357 1.321 . S
N1356 Co1359 2.135 . S
C1357 N1355 1.340 . S
C1357 N1356 1.321 . S
C1357 H1381 0.930 . S
H1358 C1353 0.931 . S
Co1359 N1356 2.135 . S
Co1359 N1362 2.121 . S
Co1359 O1367 2.055 . S
Co1359 O1370 2.039 . S
Co1359 N1373 2.140 . S
C1360 O1361 1.207 1_554 S
C1360 O1370 1.310 . S
O1361 C1360 1.207 1_556 S
N1362 Co1359 2.121 . S
N1362 C1364 1.375 . S
N1362 C1365 1.313 . S
C1363 C1364 1.338 . S
C1363 N1366 1.377 . S
C1363 H1383 0.930 1_554 S
C1364 N1362 1.375 . S
C1364 C1363 1.338 . S
C1364 H1368 0.931 1_554 S
C1365 N1362 1.313 . S
C1365 N1366 1.344 . S
C1365 H1369 0.930 . S
N1366 C1363 1.377 . S
N1366 C1365 1.344 . S
O1367 Co1359 2.055 . S
O1367 C1371 1.253 . S
H1368 C1364 0.931 1_556 S
H1369 C1365 0.930 . S
O1370 Co1359 2.039 . S
O1370 C1360 1.310 . S
C1371 O1367 1.253 . S
C1371 O1372 1.227 . S
O1372 C1371 1.227 . S
N1373 Co1359 2.140 . S
N1373 C1376 1.346 . S
N1373 C1377 1.345 . S
C1374 C1375 1.392 . S
C1374 C1378 1.370 1_556 S
C1375 C1374 1.392 . S
C1375 C1376 1.369 1_556 S
C1375 H1384 0.929 . S
C1376 N1373 1.346 . S
C1376 C1375 1.369 1_554 S
C1376 H1379 0.928 . S
C1377 N1373 1.345 . S
C1377 C1378 1.371 . S
C1377 H1380 0.931 . S
C1378 C1374 1.370 1_554 S
C1378 C1377 1.371 . S
C1378 H1385 0.930 . S
H1379 C1376 0.928 . S
H1380 C1377 0.931 . S
H1381 C1357 0.930 . S
H1382 C1354 0.930 . S
H1383 C1363 0.930 1_556 S
H1384 C1375 0.929 . S
H1385 C1378 0.930 . S
C1386 C1387 1.351 . S
C1386 N1389 1.368 . S
C1386 H1391 0.931 . S
C1387 C1386 1.351 . S
C1387 N1388 1.373 . S
C1387 H1415 0.930 . S
N1388 C1387 1.373 . S
N1388 C1390 1.340 . S
N1389 C1386 1.368 . S
N1389 C1390 1.321 . S
N1389 Co1392 2.135 . S
C1390 N1388 1.340 . S
C1390 N1389 1.321 . S
C1390 H1414 0.930 . S
H1391 C1386 0.931 . S
Co1392 N1389 2.135 . S
Co1392 N1395 2.121 . S
Co1392 O1400 2.055 . S
Co1392 O1403 2.039 . S
Co1392 N1406 2.140 . S
C1393 O1394 1.227 . S
C1393 O1403 1.265 . S
O1394 C1393 1.227 . S
N1395 Co1392 2.121 . S
N1395 C1397 1.375 . S
N1395 C1398 1.313 . S
C1396 C1397 1.338 . S
C1396 N1399 1.377 . S
C1396 H1416 0.930 . S
C1397 N1395 1.375 . S
C1397 C1396 1.338 . S
C1397 H1401 0.931 . S
C1398 N1395 1.313 . S
C1398 N1399 1.344 . S
C1398 H1402 0.930 . S
N1399 C1396 1.377 . S
N1399 C1398 1.344 . S
O1400 Co1392 2.055 . S
O1400 C1404 1.253 . S
H1401 C1397 0.931 . S
H1402 C1398 0.930 . S
O1403 Co1392 2.039 . S
O1403 C1393 1.265 . S
C1404 O1400 1.253 . S
C1404 O1405 1.227 . S
O1405 C1404 1.227 . S
N1406 Co1392 2.140 . S
N1406 C1409 1.346 . S
N1406 C1410 1.345 . S
C1407 C1408 1.387 . S
C1407 C1411 1.391 . S
C1408 C1407 1.387 . S
C1408 C1409 1.369 . S
C1408 H1417 0.929 . S
C1409 N1406 1.346 . S
C1409 C1408 1.369 . S
C1409 H1412 0.928 . S
C1410 N1406 1.345 . S
C1410 C1411 1.371 . S
C1410 H1413 0.931 . S
C1411 C1407 1.391 . S
C1411 C1410 1.371 . S
C1411 H1418 0.930 . S
H1412 C1409 0.928 . S
H1413 C1410 0.931 . S
H1414 C1390 0.930 . S
H1415 C1387 0.930 . S
H1416 C1396 0.930 . S
H1417 C1408 0.929 . S
H1418 C1411 0.930 . S
C1419 C1420 1.351 . S
C1419 N1422 1.368 . S
C1419 H1424 0.931 . S
C1420 C1419 1.351 . S
C1420 N1421 1.373 . S
C1420 H1448 0.930 . S
N1421 C1420 1.373 . S
N1421 C1423 1.340 . S
N1422 C1419 1.368 . S
N1422 C1423 1.321 . S
N1422 Co1425 2.135 . S
C1423 N1421 1.340 . S
C1423 N1422 1.321 . S
C1423 H1447 0.930 . S
H1424 C1419 0.931 . S
Co1425 N1422 2.135 . S
Co1425 N1428 2.121 . S
Co1425 O1433 2.055 . S
Co1425 O1436 2.039 . S
Co1425 N1439 2.140 . S
C1426 O1427 1.227 . S
C1426 O1436 1.265 . S
O1427 C1426 1.227 . S
N1428 Co1425 2.121 . S
N1428 C1430 1.375 . S
N1428 C1431 1.313 . S
C1429 C1430 1.338 . S
C1429 N1432 1.377 . S
C1429 H1449 0.930 . S
C1430 N1428 1.375 . S
C1430 C1429 1.338 . S
C1430 H1434 0.931 . S
C1431 N1428 1.313 . S
C1431 N1432 1.344 . S
C1431 H1435 0.930 . S
N1432 C1429 1.377 . S
N1432 C1431 1.344 . S
O1433 Co1425 2.055 . S
O1433 C1437 1.253 . S
H1434 C1430 0.931 . S
H1435 C1431 0.930 . S
O1436 Co1425 2.039 . S
O1436 C1426 1.265 . S
C1437 O1433 1.253 . S
C1437 O1438 1.227 . S
O1438 C1437 1.227 . S
N1439 Co1425 2.140 . S
N1439 C1442 1.346 . S
N1439 C1443 1.345 . S
C1440 C1441 1.387 . S
C1440 C1444 1.391 . S
C1441 C1440 1.387 . S
C1441 C1442 1.369 . S
C1441 H1450 0.929 . S
C1442 N1439 1.346 . S
C1442 C1441 1.369 . S
C1442 H1445 0.928 . S
C1443 N1439 1.345 . S
C1443 C1444 1.371 . S
C1443 H1446 0.931 . S
C1444 C1440 1.391 . S
C1444 C1443 1.371 . S
C1444 H1451 0.930 . S
H1445 C1442 0.928 . S
H1446 C1443 0.931 . S
H1447 C1423 0.930 . S
H1448 C1420 0.930 . S
H1449 C1429 0.930 . S
H1450 C1441 0.929 . S
H1451 C1444 0.930 . S
C1452 C1453 1.351 . S
C1452 N1455 1.368 . S
C1452 H1457 0.931 . S
C1453 C1452 1.351 . S
C1453 N1454 1.373 . S
C1453 H1481 0.930 . S
N1454 C1453 1.373 . S
N1454 C1456 1.340 . S
N1455 C1452 1.368 . S
N1455 C1456 1.321 . S
N1455 Co1458 2.135 . S
C1456 N1454 1.340 . S
C1456 N1455 1.321 . S
C1456 H1480 0.930 . S
H1457 C1452 0.931 . S
Co1458 N1455 2.135 . S
Co1458 N1461 2.121 . S
Co1458 O1466 2.055 . S
Co1458 O1469 2.039 . S
Co1458 N1472 2.140 . S
C1459 O1460 1.227 . S
C1459 O1469 1.265 . S
O1460 C1459 1.227 . S
N1461 Co1458 2.121 . S
N1461 C1463 1.375 . S
N1461 C1464 1.313 . S
C1462 C1463 1.338 . S
C1462 N1465 1.377 . S
C1462 H1482 0.930 . S
C1463 N1461 1.375 . S
C1463 C1462 1.338 . S
C1463 H1467 0.931 . S
C1464 N1461 1.313 . S
C1464 N1465 1.344 . S
C1464 H1468 0.930 . S
N1465 C1462 1.377 . S
N1465 C1464 1.344 . S
O1466 Co1458 2.055 . S
O1466 C1470 1.253 . S
H1467 C1463 0.931 . S
H1468 C1464 0.930 . S
O1469 Co1458 2.039 . S
O1469 C1459 1.265 . S
C1470 O1466 1.253 . S
C1470 O1471 1.227 . S
O1471 C1470 1.227 . S
N1472 Co1458 2.140 . S
N1472 C1475 1.346 . S
N1472 C1476 1.345 . S
C1473 C1474 1.387 . S
C1473 C1477 1.391 . S
C1474 C1473 1.387 . S
C1474 C1475 1.369 . S
C1474 H1483 0.929 . S
C1475 N1472 1.346 . S
C1475 C1474 1.369 . S
C1475 H1478 0.928 . S
C1476 N1472 1.345 . S
C1476 C1477 1.371 . S
C1476 H1479 0.931 . S
C1477 C1473 1.391 . S
C1477 C1476 1.371 . S
C1477 H1484 0.930 . S
H1478 C1475 0.928 . S
H1479 C1476 0.931 . S
H1480 C1456 0.930 . S
H1481 C1453 0.930 . S
H1482 C1462 0.930 . S
H1483 C1474 0.929 . S
H1484 C1477 0.930 . S
C1485 C1486 1.351 . S
C1485 N1488 1.368 . S
C1485 H1490 0.931 . S
C1486 C1485 1.351 . S
C1486 N1487 1.373 . S
C1486 H1514 0.930 . S
N1487 C1486 1.373 . S
N1487 C1489 1.340 . S
N1488 C1485 1.368 . S
N1488 C1489 1.321 . S
N1488 Co1491 2.135 . S
C1489 N1487 1.340 . S
C1489 N1488 1.321 . S
C1489 H1513 0.930 . S
H1490 C1485 0.931 . S
Co1491 N1488 2.135 . S
Co1491 N1494 2.121 . S
Co1491 O1499 2.055 . S
Co1491 O1502 2.039 . S
Co1491 N1505 2.140 . S
C1492 O1493 1.227 . S
C1492 O1502 1.265 . S
O1493 C1492 1.227 . S
N1494 Co1491 2.121 . S
N1494 C1496 1.375 . S
N1494 C1497 1.313 . S
C1495 C1496 1.338 . S
C1495 N1498 1.377 . S
C1495 H1515 0.930 . S
C1496 N1494 1.375 . S
C1496 C1495 1.338 . S
C1496 H1500 0.931 . S
C1497 N1494 1.313 . S
C1497 N1498 1.344 . S
C1497 H1501 0.930 . S
N1498 C1495 1.377 . S
N1498 C1497 1.344 . S
O1499 Co1491 2.055 . S
O1499 C1503 1.253 . S
H1500 C1496 0.931 . S
H1501 C1497 0.930 . S
O1502 Co1491 2.039 . S
O1502 C1492 1.265 . S
C1503 O1499 1.253 . S
C1503 O1504 1.227 . S
O1504 C1503 1.227 . S
N1505 Co1491 2.140 . S
N1505 C1508 1.346 . S
N1505 C1509 1.345 . S
C1506 C1507 1.387 . S
C1506 C1510 1.391 . S
C1507 C1506 1.387 . S
C1507 C1508 1.369 . S
C1507 H1516 0.929 . S
C1508 N1505 1.346 . S
C1508 C1507 1.369 . S
C1508 H1511 0.928 . S
C1509 N1505 1.345 . S
C1509 C1510 1.371 . S
C1509 H1512 0.931 . S
C1510 C1506 1.391 . S
C1510 C1509 1.371 . S
C1510 H1517 0.930 . S
H1511 C1508 0.928 . S
H1512 C1509 0.931 . S
H1513 C1489 0.930 . S
H1514 C1486 0.930 . S
H1515 C1495 0.930 . S
H1516 C1507 0.929 . S
H1517 C1510 0.930 . S
C1518 C1519 1.351 . S
C1518 N1521 1.368 . S
C1518 H1523 0.931 . S
C1519 C1518 1.351 . S
C1519 N1520 1.373 . S
C1519 H1547 0.930 . S
N1520 C1519 1.373 . S
N1520 C1522 1.340 . S
N1521 C1518 1.368 . S
N1521 C1522 1.321 . S
N1521 Co1524 2.135 . S
C1522 N1520 1.340 . S
C1522 N1521 1.321 . S
C1522 H1546 0.930 . S
H1523 C1518 0.931 . S
Co1524 N1521 2.135 . S
Co1524 N1527 2.121 . S
Co1524 O1532 2.055 . S
Co1524 O1535 2.039 . S
Co1524 N1538 2.140 . S
C1525 O1526 1.227 . S
C1525 O1535 1.265 . S
O1526 C1525 1.227 . S
N1527 Co1524 2.121 . S
N1527 C1529 1.375 . S
N1527 C1530 1.313 . S
C1528 C1529 1.338 . S
C1528 N1531 1.377 . S
C1528 H1548 0.930 . S
C1529 N1527 1.375 . S
C1529 C1528 1.338 . S
C1529 H1533 0.931 . S
C1530 N1527 1.313 . S
C1530 N1531 1.344 . S
C1530 H1534 0.930 . S
N1531 C1528 1.377 . S
N1531 C1530 1.344 . S
O1532 Co1524 2.055 . S
O1532 C1536 1.253 . S
H1533 C1529 0.931 . S
H1534 C1530 0.930 . S
O1535 Co1524 2.039 . S
O1535 C1525 1.265 . S
C1536 O1532 1.253 . S
C1536 O1537 1.227 . S
O1537 C1536 1.227 . S
N1538 Co1524 2.140 . S
N1538 C1541 1.346 . S
N1538 C1542 1.345 . S
C1539 C1540 1.387 . S
C1539 C1543 1.391 . S
C1540 C1539 1.387 . S
C1540 C1541 1.369 . S
C1540 H1549 0.929 . S
C1541 N1538 1.346 . S
C1541 C1540 1.369 . S
C1541 H1544 0.928 . S
C1542 N1538 1.345 . S
C1542 C1543 1.371 . S
C1542 H1545 0.931 . S
C1543 C1539 1.391 . S
C1543 C1542 1.371 . S
C1543 H1550 0.930 . S
H1544 C1541 0.928 . S
H1545 C1542 0.931 . S
H1546 C1522 0.930 . S
H1547 C1519 0.930 . S
H1548 C1528 0.930 . S
H1549 C1540 0.929 . S
H1550 C1543 0.930 . S
C1551 C1552 1.351 . S
C1551 N1554 1.368 . S
C1551 H1556 0.931 . S
C1552 C1551 1.351 . S
C1552 N1553 1.373 . S
C1552 H1580 0.930 . S
N1553 C1552 1.373 . S
N1553 C1555 1.340 . S
N1554 C1551 1.368 . S
N1554 C1555 1.321 . S
N1554 Co1557 2.135 . S
C1555 N1553 1.340 . S
C1555 N1554 1.321 . S
C1555 H1579 0.930 . S
H1556 C1551 0.931 . S
Co1557 N1554 2.135 . S
Co1557 N1560 2.121 . S
Co1557 O1565 2.055 . S
Co1557 O1568 2.039 . S
Co1557 N1571 2.140 . S
C1558 O1559 1.227 . S
C1558 O1568 1.265 . S
O1559 C1558 1.227 . S
N1560 Co1557 2.121 . S
N1560 C1562 1.375 . S
N1560 C1563 1.313 . S
C1561 C1562 1.338 . S
C1561 N1564 1.377 . S
C1561 H1581 0.930 . S
C1562 N1560 1.375 . S
C1562 C1561 1.338 . S
C1562 H1566 0.931 . S
C1563 N1560 1.313 . S
C1563 N1564 1.344 . S
C1563 H1567 0.930 . S
N1564 C1561 1.377 . S
N1564 C1563 1.344 . S
O1565 Co1557 2.055 . S
O1565 C1569 1.253 . S
H1566 C1562 0.931 . S
H1567 C1563 0.930 . S
O1568 Co1557 2.039 . S
O1568 C1558 1.265 . S
C1569 O1565 1.253 . S
C1569 O1570 1.227 . S
O1570 C1569 1.227 . S
N1571 Co1557 2.140 . S
N1571 C1574 1.346 . S
N1571 C1575 1.345 . S
C1572 C1573 1.387 . S
C1572 C1576 1.391 . S
C1573 C1572 1.387 . S
C1573 C1574 1.369 . S
C1573 H1582 0.929 . S
C1574 N1571 1.346 . S
C1574 C1573 1.369 . S
C1574 H1577 0.928 . S
C1575 N1571 1.345 . S
C1575 C1576 1.371 . S
C1575 H1578 0.931 . S
C1576 C1572 1.391 . S
C1576 C1575 1.371 . S
C1576 H1583 0.930 . S
H1577 C1574 0.928 . S
H1578 C1575 0.931 . S
H1579 C1555 0.930 . S
H1580 C1552 0.930 . S
H1581 C1561 0.930 . S
H1582 C1573 0.929 . S
H1583 C1576 0.930 . S
C1584 C1585 1.351 . S
C1584 N1587 1.368 . S
C1584 H1589 0.931 . S
C1585 C1584 1.351 . S
C1585 N1586 1.373 . S
C1585 H1613 0.930 . S
N1586 C1585 1.373 . S
N1586 C1588 1.340 . S
N1587 C1584 1.368 . S
N1587 C1588 1.321 . S
N1587 Co1590 2.135 . S
C1588 N1586 1.340 . S
C1588 N1587 1.321 . S
C1588 H1612 0.930 . S
H1589 C1584 0.931 . S
Co1590 N1587 2.135 . S
Co1590 N1593 2.121 . S
Co1590 O1598 2.055 . S
Co1590 O1601 2.039 . S
Co1590 N1604 2.140 . S
C1591 O1592 1.227 . S
C1591 O1601 1.265 . S
O1592 C1591 1.227 . S
N1593 Co1590 2.121 . S
N1593 C1595 1.375 . S
N1593 C1596 1.313 . S
C1594 C1595 1.338 . S
C1594 N1597 1.377 . S
C1594 H1614 0.930 . S
C1595 N1593 1.375 . S
C1595 C1594 1.338 . S
C1595 H1599 0.931 . S
C1596 N1593 1.313 . S
C1596 N1597 1.344 . S
C1596 H1600 0.930 . S
N1597 C1594 1.377 . S
N1597 C1596 1.344 . S
O1598 Co1590 2.055 . S
O1598 C1602 1.253 . S
H1599 C1595 0.931 . S
H1600 C1596 0.930 . S
O1601 Co1590 2.039 . S
O1601 C1591 1.265 . S
C1602 O1598 1.253 . S
C1602 O1603 1.227 . S
O1603 C1602 1.227 . S
N1604 Co1590 2.140 . S
N1604 C1607 1.346 . S
N1604 C1608 1.345 . S
C1605 C1606 1.387 . S
C1605 C1609 1.391 . S
C1606 C1605 1.387 . S
C1606 C1607 1.369 . S
C1606 H1615 0.929 . S
C1607 N1604 1.346 . S
C1607 C1606 1.369 . S
C1607 H1610 0.928 . S
C1608 N1604 1.345 . S
C1608 C1609 1.371 . S
C1608 H1611 0.931 . S
C1609 C1605 1.391 . S
C1609 C1608 1.371 . S
C1609 H1616 0.930 . S
H1610 C1607 0.928 . S
H1611 C1608 0.931 . S
H1612 C1588 0.930 . S
H1613 C1585 0.930 . S
H1614 C1594 0.930 . S
H1615 C1606 0.929 . S
H1616 C1609 0.930 . S
C1617 C1618 1.351 . S
C1617 N1620 1.368 . S
C1617 H1622 0.931 . S
C1618 C1617 1.351 . S
C1618 N1619 1.373 . S
C1618 H1646 0.930 . S
N1619 C1618 1.373 . S
N1619 C1621 1.340 . S
N1620 C1617 1.368 . S
N1620 C1621 1.321 . S
N1620 Co1623 2.135 . S
C1621 N1619 1.340 . S
C1621 N1620 1.321 . S
C1621 H1645 0.930 . S
H1622 C1617 0.931 . S
Co1623 N1620 2.135 . S
Co1623 N1626 2.121 . S
Co1623 O1631 2.055 . S
Co1623 O1634 2.039 . S
Co1623 N1637 2.140 . S
C1624 O1625 1.227 . S
C1624 O1634 1.265 . S
O1625 C1624 1.227 . S
N1626 Co1623 2.121 . S
N1626 C1628 1.375 . S
N1626 C1629 1.313 . S
C1627 C1628 1.338 . S
C1627 N1630 1.377 . S
C1627 H1647 0.930 . S
C1628 N1626 1.375 . S
C1628 C1627 1.338 . S
C1628 H1632 0.931 . S
C1629 N1626 1.313 . S
C1629 N1630 1.344 . S
C1629 H1633 0.930 . S
N1630 C1627 1.377 . S
N1630 C1629 1.344 . S
O1631 Co1623 2.055 . S
O1631 C1635 1.253 . S
H1632 C1628 0.931 . S
H1633 C1629 0.930 . S
O1634 Co1623 2.039 . S
O1634 C1624 1.265 . S
C1635 O1631 1.253 . S
C1635 O1636 1.227 . S
O1636 C1635 1.227 . S
N1637 Co1623 2.140 . S
N1637 C1640 1.346 . S
N1637 C1641 1.345 . S
C1638 C1639 1.387 . S
C1638 C1642 1.391 . S
C1639 C1638 1.387 . S
C1639 C1640 1.369 . S
C1639 H1648 0.929 . S
C1640 N1637 1.346 . S
C1640 C1639 1.369 . S
C1640 H1643 0.928 . S
C1641 N1637 1.345 . S
C1641 C1642 1.371 . S
C1641 H1644 0.931 . S
C1642 C1638 1.391 . S
C1642 C1641 1.371 . S
C1642 H1649 0.930 . S
H1643 C1640 0.928 . S
H1644 C1641 0.931 . S
H1645 C1621 0.930 . S
H1646 C1618 0.930 . S
H1647 C1627 0.930 . S
H1648 C1639 0.929 . S
H1649 C1642 0.930 . S
C1650 C1651 1.351 . S
C1650 N1653 1.368 . S
C1650 H1655 0.931 . S
C1651 C1650 1.351 . S
C1651 N1652 1.373 . S
C1651 H1679 0.930 . S
N1652 C1651 1.373 . S
N1652 C1654 1.340 . S
N1653 C1650 1.368 . S
N1653 C1654 1.321 . S
N1653 Co1656 2.135 . S
C1654 N1652 1.340 . S
C1654 N1653 1.321 . S
C1654 H1678 0.930 . S
H1655 C1650 0.931 . S
Co1656 N1653 2.135 . S
Co1656 N1659 2.121 . S
Co1656 O1664 2.055 . S
Co1656 O1667 2.039 . S
Co1656 N1670 2.140 . S
C1657 O1658 1.207 1_655 S
C1657 O1667 1.310 . S
O1658 C1657 1.207 1_455 S
N1659 Co1656 2.121 . S
N1659 C1661 1.375 . S
N1659 C1662 1.313 . S
C1660 C1661 1.338 . S
C1660 N1663 1.377 . S
C1660 H1680 0.930 1_655 S
C1661 N1659 1.375 . S
C1661 C1660 1.338 . S
C1661 H1665 0.931 1_655 S
C1662 N1659 1.313 . S
C1662 N1663 1.344 . S
C1662 H1666 0.930 . S
N1663 C1660 1.377 . S
N1663 C1662 1.344 . S
O1664 Co1656 2.055 . S
O1664 C1668 1.253 . S
H1665 C1661 0.931 1_455 S
H1666 C1662 0.930 . S
O1667 Co1656 2.039 . S
O1667 C1657 1.310 . S
C1668 O1664 1.253 . S
C1668 O1669 1.227 . S
O1669 C1668 1.227 . S
N1670 Co1656 2.140 . S
N1670 C1673 1.346 . S
N1670 C1674 1.345 . S
C1671 C1672 1.392 . S
C1671 C1675 1.370 1_455 S
C1672 C1671 1.392 . S
C1672 C1673 1.369 1_455 S
C1672 H1681 0.929 . S
C1673 N1670 1.346 . S
C1673 C1672 1.369 1_655 S
C1673 H1676 0.928 . S
C1674 N1670 1.345 . S
C1674 C1675 1.371 . S
C1674 H1677 0.931 . S
C1675 C1671 1.370 1_655 S
C1675 C1674 1.371 . S
C1675 H1682 0.930 . S
H1676 C1673 0.928 . S
H1677 C1674 0.931 . S
H1678 C1654 0.930 . S
H1679 C1651 0.930 . S
H1680 C1660 0.930 1_455 S
H1681 C1672 0.929 . S
H1682 C1675 0.930 . S
C1683 C1684 1.351 . S
C1683 N1686 1.368 . S
C1683 H1688 0.931 . S
C1684 C1683 1.351 . S
C1684 N1685 1.373 . S
C1684 H1712 0.930 . S
N1685 C1684 1.373 . S
N1685 C1687 1.340 . S
N1686 C1683 1.368 . S
N1686 C1687 1.321 . S
N1686 Co1689 2.135 . S
C1687 N1685 1.340 . S
C1687 N1686 1.321 . S
C1687 H1711 0.930 . S
H1688 C1683 0.931 . S
Co1689 N1686 2.135 . S
Co1689 N1692 2.121 . S
Co1689 O1697 2.055 . S
Co1689 O1700 2.039 . S
Co1689 N1703 2.140 . S
C1690 O1691 1.227 . S
C1690 O1700 1.265 . S
O1691 C1690 1.227 . S
N1692 Co1689 2.121 . S
N1692 C1694 1.375 . S
N1692 C1695 1.313 . S
C1693 C1694 1.338 . S
C1693 N1696 1.377 . S
C1693 H1713 0.930 . S
C1694 N1692 1.375 . S
C1694 C1693 1.338 . S
C1694 H1698 0.931 . S
C1695 N1692 1.313 . S
C1695 N1696 1.344 . S
C1695 H1699 0.930 . S
N1696 C1693 1.377 . S
N1696 C1695 1.344 . S
O1697 Co1689 2.055 . S
O1697 C1701 1.253 . S
H1698 C1694 0.931 . S
H1699 C1695 0.930 . S
O1700 Co1689 2.039 . S
O1700 C1690 1.265 . S
C1701 O1697 1.253 . S
C1701 O1702 1.227 . S
O1702 C1701 1.227 . S
N1703 Co1689 2.140 . S
N1703 C1706 1.346 . S
N1703 C1707 1.345 . S
C1704 C1705 1.387 . S
C1704 C1708 1.391 . S
C1705 C1704 1.387 . S
C1705 C1706 1.369 . S
C1705 H1714 0.929 . S
C1706 N1703 1.346 . S
C1706 C1705 1.369 . S
C1706 H1709 0.928 . S
C1707 N1703 1.345 . S
C1707 C1708 1.371 . S
C1707 H1710 0.931 . S
C1708 C1704 1.391 . S
C1708 C1707 1.371 . S
C1708 H1715 0.930 . S
H1709 C1706 0.928 . S
H1710 C1707 0.931 . S
H1711 C1687 0.930 . S
H1712 C1684 0.930 . S
H1713 C1693 0.930 . S
H1714 C1705 0.929 . S
H1715 C1708 0.930 . S
C1716 C1717 1.351 . S
C1716 N1719 1.368 . S
C1716 H1721 0.931 . S
C1717 C1716 1.351 . S
C1717 N1718 1.373 . S
C1717 H1745 0.930 . S
N1718 C1717 1.373 . S
N1718 C1720 1.340 . S
N1719 C1716 1.368 . S
N1719 C1720 1.321 . S
N1719 Co1722 2.135 . S
C1720 N1718 1.340 . S
C1720 N1719 1.321 . S
C1720 H1744 0.930 . S
H1721 C1716 0.931 . S
Co1722 N1719 2.135 . S
Co1722 N1725 2.121 . S
Co1722 O1730 2.055 . S
Co1722 O1733 2.039 . S
Co1722 N1736 2.140 . S
C1723 O1724 1.227 . S
C1723 O1733 1.265 . S
O1724 C1723 1.227 . S
N1725 Co1722 2.121 . S
N1725 C1727 1.375 . S
N1725 C1728 1.313 . S
C1726 C1727 1.338 . S
C1726 N1729 1.377 . S
C1726 H1746 0.930 . S
C1727 N1725 1.375 . S
C1727 C1726 1.338 . S
C1727 H1731 0.931 . S
C1728 N1725 1.313 . S
C1728 N1729 1.344 . S
C1728 H1732 0.930 . S
N1729 C1726 1.377 . S
N1729 C1728 1.344 . S
O1730 Co1722 2.055 . S
O1730 C1734 1.253 . S
H1731 C1727 0.931 . S
H1732 C1728 0.930 . S
O1733 Co1722 2.039 . S
O1733 C1723 1.265 . S
C1734 O1730 1.253 . S
C1734 O1735 1.227 . S
O1735 C1734 1.227 . S
N1736 Co1722 2.140 . S
N1736 C1739 1.346 . S
N1736 C1740 1.345 . S
C1737 C1738 1.387 . S
C1737 C1741 1.391 . S
C1738 C1737 1.387 . S
C1738 C1739 1.369 . S
C1738 H1747 0.929 . S
C1739 N1736 1.346 . S
C1739 C1738 1.369 . S
C1739 H1742 0.928 . S
C1740 N1736 1.345 . S
C1740 C1741 1.371 . S
C1740 H1743 0.931 . S
C1741 C1737 1.391 . S
C1741 C1740 1.371 . S
C1741 H1748 0.930 . S
H1742 C1739 0.928 . S
H1743 C1740 0.931 . S
H1744 C1720 0.930 . S
H1745 C1717 0.930 . S
H1746 C1726 0.930 . S
H1747 C1738 0.929 . S
H1748 C1741 0.930 . S
C1749 C1750 1.351 . S
C1749 N1752 1.368 . S
C1749 H1754 0.931 . S
C1750 C1749 1.351 . S
C1750 N1751 1.373 . S
C1750 H1778 0.930 . S
N1751 C1750 1.373 . S
N1751 C1753 1.340 . S
N1752 C1749 1.368 . S
N1752 C1753 1.321 . S
N1752 Co1755 2.135 . S
C1753 N1751 1.340 . S
C1753 N1752 1.321 . S
C1753 H1777 0.930 . S
H1754 C1749 0.931 . S
Co1755 N1752 2.135 . S
Co1755 N1758 2.121 . S
Co1755 O1763 2.055 . S
Co1755 O1766 2.039 . S
Co1755 N1769 2.140 . S
C1756 O1757 1.227 . S
C1756 O1766 1.265 . S
O1757 C1756 1.227 . S
N1758 Co1755 2.121 . S
N1758 C1760 1.375 . S
N1758 C1761 1.313 . S
C1759 C1760 1.338 . S
C1759 N1762 1.377 . S
C1759 H1779 0.930 . S
C1760 N1758 1.375 . S
C1760 C1759 1.338 . S
C1760 H1764 0.931 . S
C1761 N1758 1.313 . S
C1761 N1762 1.344 . S
C1761 H1765 0.930 . S
N1762 C1759 1.377 . S
N1762 C1761 1.344 . S
O1763 Co1755 2.055 . S
O1763 C1767 1.253 . S
H1764 C1760 0.931 . S
H1765 C1761 0.930 . S
O1766 Co1755 2.039 . S
O1766 C1756 1.265 . S
C1767 O1763 1.253 . S
C1767 O1768 1.227 . S
O1768 C1767 1.227 . S
N1769 Co1755 2.140 . S
N1769 C1772 1.346 . S
N1769 C1773 1.345 . S
C1770 C1771 1.387 . S
C1770 C1774 1.391 . S
C1771 C1770 1.387 . S
C1771 C1772 1.369 . S
C1771 H1780 0.929 . S
C1772 N1769 1.346 . S
C1772 C1771 1.369 . S
C1772 H1775 0.928 . S
C1773 N1769 1.345 . S
C1773 C1774 1.371 . S
C1773 H1776 0.931 . S
C1774 C1770 1.391 . S
C1774 C1773 1.371 . S
C1774 H1781 0.930 . S
H1775 C1772 0.928 . S
H1776 C1773 0.931 . S
H1777 C1753 0.930 . S
H1778 C1750 0.930 . S
H1779 C1759 0.930 . S
H1780 C1771 0.929 . S
H1781 C1774 0.930 . S
C1782 C1783 1.351 . S
C1782 N1785 1.368 . S
C1782 H1787 0.931 . S
C1783 C1782 1.351 . S
C1783 N1784 1.373 . S
C1783 H1811 0.930 . S
N1784 C1783 1.373 . S
N1784 C1786 1.340 . S
N1785 C1782 1.368 . S
N1785 C1786 1.321 . S
N1785 Co1788 2.135 . S
C1786 N1784 1.340 . S
C1786 N1785 1.321 . S
C1786 H1810 0.930 . S
H1787 C1782 0.931 . S
Co1788 N1785 2.135 . S
Co1788 N1791 2.121 . S
Co1788 O1796 2.055 . S
Co1788 O1799 2.039 . S
Co1788 N1802 2.140 . S
C1789 O1790 1.207 1_655 S
C1789 O1799 1.310 . S
O1790 C1789 1.207 1_455 S
N1791 Co1788 2.121 . S
N1791 C1793 1.375 . S
N1791 C1794 1.313 . S
C1792 C1793 1.338 . S
C1792 N1795 1.377 . S
C1792 H1812 0.930 1_655 S
C1793 N1791 1.375 . S
C1793 C1792 1.338 . S
C1793 H1797 0.931 1_655 S
C1794 N1791 1.313 . S
C1794 N1795 1.344 . S
C1794 H1798 0.930 . S
N1795 C1792 1.377 . S
N1795 C1794 1.344 . S
O1796 Co1788 2.055 . S
O1796 C1800 1.253 . S
H1797 C1793 0.931 1_455 S
H1798 C1794 0.930 . S
O1799 Co1788 2.039 . S
O1799 C1789 1.310 . S
C1800 O1796 1.253 . S
C1800 O1801 1.227 . S
O1801 C1800 1.227 . S
N1802 Co1788 2.140 . S
N1802 C1805 1.346 . S
N1802 C1806 1.345 . S
C1803 C1804 1.392 . S
C1803 C1807 1.370 1_455 S
C1804 C1803 1.392 . S
C1804 C1805 1.369 1_455 S
C1804 H1813 0.929 . S
C1805 N1802 1.346 . S
C1805 C1804 1.369 1_655 S
C1805 H1808 0.928 . S
C1806 N1802 1.345 . S
C1806 C1807 1.371 . S
C1806 H1809 0.931 . S
C1807 C1803 1.370 1_655 S
C1807 C1806 1.371 . S
C1807 H1814 0.930 . S
H1808 C1805 0.928 . S
H1809 C1806 0.931 . S
H1810 C1786 0.930 . S
H1811 C1783 0.930 . S
H1812 C1792 0.930 1_455 S
H1813 C1804 0.929 . S
H1814 C1807 0.930 . S
C1815 C1816 1.351 . S
C1815 N1818 1.368 . S
C1815 H1820 0.931 . S
C1816 C1815 1.351 . S
C1816 N1817 1.373 . S
C1816 H1844 0.930 . S
N1817 C1816 1.373 . S
N1817 C1819 1.340 . S
N1818 C1815 1.368 . S
N1818 C1819 1.321 . S
N1818 Co1821 2.135 . S
C1819 N1817 1.340 . S
C1819 N1818 1.321 . S
C1819 H1843 0.930 . S
H1820 C1815 0.931 . S
Co1821 N1818 2.135 . S
Co1821 N1824 2.121 . S
Co1821 O1829 2.055 . S
Co1821 O1832 2.039 . S
Co1821 N1835 2.140 . S
C1822 O1823 1.227 . S
C1822 O1832 1.265 . S
O1823 C1822 1.227 . S
N1824 Co1821 2.121 . S
N1824 C1826 1.375 . S
N1824 C1827 1.313 . S
C1825 C1826 1.338 . S
C1825 N1828 1.377 . S
C1825 H1845 0.930 . S
C1826 N1824 1.375 . S
C1826 C1825 1.338 . S
C1826 H1830 0.931 . S
C1827 N1824 1.313 . S
C1827 N1828 1.344 . S
C1827 H1831 0.930 . S
N1828 C1825 1.377 . S
N1828 C1827 1.344 . S
O1829 Co1821 2.055 . S
O1829 C1833 1.253 . S
H1830 C1826 0.931 . S
H1831 C1827 0.930 . S
O1832 Co1821 2.039 . S
O1832 C1822 1.265 . S
C1833 O1829 1.253 . S
C1833 O1834 1.227 . S
O1834 C1833 1.227 . S
N1835 Co1821 2.140 . S
N1835 C1838 1.346 . S
N1835 C1839 1.345 . S
C1836 C1837 1.387 . S
C1836 C1840 1.391 . S
C1837 C1836 1.387 . S
C1837 C1838 1.369 . S
C1837 H1846 0.929 . S
C1838 N1835 1.346 . S
C1838 C1837 1.369 . S
C1838 H1841 0.928 . S
C1839 N1835 1.345 . S
C1839 C1840 1.371 . S
C1839 H1842 0.931 . S
C1840 C1836 1.391 . S
C1840 C1839 1.371 . S
C1840 H1847 0.930 . S
H1841 C1838 0.928 . S
H1842 C1839 0.931 . S
H1843 C1819 0.930 . S
H1844 C1816 0.930 . S
H1845 C1825 0.930 . S
H1846 C1837 0.929 . S
H1847 C1840 0.930 . S
C1848 C1849 1.351 . S
C1848 N1851 1.368 . S
C1848 H1853 0.931 . S
C1849 C1848 1.351 . S
C1849 N1850 1.373 . S
C1849 H1877 0.930 . S
N1850 C1849 1.373 . S
N1850 C1852 1.340 . S
N1851 C1848 1.368 . S
N1851 C1852 1.321 . S
N1851 Co1854 2.135 . S
C1852 N1850 1.340 . S
C1852 N1851 1.321 . S
C1852 H1876 0.930 . S
H1853 C1848 0.931 . S
Co1854 N1851 2.135 . S
Co1854 N1857 2.121 . S
Co1854 O1862 2.055 . S
Co1854 O1865 2.039 . S
Co1854 N1868 2.140 . S
C1855 O1856 1.227 . S
C1855 O1865 1.265 . S
O1856 C1855 1.227 . S
N1857 Co1854 2.121 . S
N1857 C1859 1.375 . S
N1857 C1860 1.313 . S
C1858 C1859 1.338 . S
C1858 N1861 1.377 . S
C1858 H1878 0.930 . S
C1859 N1857 1.375 . S
C1859 C1858 1.338 . S
C1859 H1863 0.931 . S
C1860 N1857 1.313 . S
C1860 N1861 1.344 . S
C1860 H1864 0.930 . S
N1861 C1858 1.377 . S
N1861 C1860 1.344 . S
O1862 Co1854 2.055 . S
O1862 C1866 1.253 . S
H1863 C1859 0.931 . S
H1864 C1860 0.930 . S
O1865 Co1854 2.039 . S
O1865 C1855 1.265 . S
C1866 O1862 1.253 . S
C1866 O1867 1.227 . S
O1867 C1866 1.227 . S
N1868 Co1854 2.140 . S
N1868 C1871 1.346 . S
N1868 C1872 1.345 . S
C1869 C1870 1.387 . S
C1869 C1873 1.391 . S
C1870 C1869 1.387 . S
C1870 C1871 1.369 . S
C1870 H1879 0.929 . S
C1871 N1868 1.346 . S
C1871 C1870 1.369 . S
C1871 H1874 0.928 . S
C1872 N1868 1.345 . S
C1872 C1873 1.371 . S
C1872 H1875 0.931 . S
C1873 C1869 1.391 . S
C1873 C1872 1.371 . S
C1873 H1880 0.930 . S
H1874 C1871 0.928 . S
H1875 C1872 0.931 . S
H1876 C1852 0.930 . S
H1877 C1849 0.930 . S
H1878 C1858 0.930 . S
H1879 C1870 0.929 . S
H1880 C1873 0.930 . S
C1881 C1882 1.351 . S
C1881 N1884 1.368 . S
C1881 H1886 0.931 . S
C1882 C1881 1.351 . S
C1882 N1883 1.373 . S
C1882 H1910 0.930 . S
N1883 C1882 1.373 . S
N1883 C1885 1.340 . S
N1884 C1881 1.368 . S
N1884 C1885 1.321 . S
N1884 Co1887 2.135 . S
C1885 N1883 1.340 . S
C1885 N1884 1.321 . S
C1885 H1909 0.930 . S
H1886 C1881 0.931 . S
Co1887 N1884 2.135 . S
Co1887 N1890 2.121 . S
Co1887 O1895 2.055 . S
Co1887 O1898 2.039 . S
Co1887 N1901 2.140 . S
C1888 O1889 1.227 . S
C1888 O1898 1.265 . S
O1889 C1888 1.227 . S
N1890 Co1887 2.121 . S
N1890 C1892 1.375 . S
N1890 C1893 1.313 . S
C1891 C1892 1.338 . S
C1891 N1894 1.377 . S
C1891 H1911 0.930 . S
C1892 N1890 1.375 . S
C1892 C1891 1.338 . S
C1892 H1896 0.931 . S
C1893 N1890 1.313 . S
C1893 N1894 1.344 . S
C1893 H1897 0.930 . S
N1894 C1891 1.377 . S
N1894 C1893 1.344 . S
O1895 Co1887 2.055 . S
O1895 C1899 1.253 . S
H1896 C1892 0.931 . S
H1897 C1893 0.930 . S
O1898 Co1887 2.039 . S
O1898 C1888 1.265 . S
C1899 O1895 1.253 . S
C1899 O1900 1.227 . S
O1900 C1899 1.227 . S
N1901 Co1887 2.140 . S
N1901 C1904 1.346 . S
N1901 C1905 1.345 . S
C1902 C1903 1.387 . S
C1902 C1906 1.391 . S
C1903 C1902 1.387 . S
C1903 C1904 1.369 . S
C1903 H1912 0.929 . S
C1904 N1901 1.346 . S
C1904 C1903 1.369 . S
C1904 H1907 0.928 . S
C1905 N1901 1.345 . S
C1905 C1906 1.371 . S
C1905 H1908 0.931 . S
C1906 C1902 1.391 . S
C1906 C1905 1.371 . S
C1906 H1913 0.930 . S
H1907 C1904 0.928 . S
H1908 C1905 0.931 . S
H1909 C1885 0.930 . S
H1910 C1882 0.930 . S
H1911 C1891 0.930 . S
H1912 C1903 0.929 . S
H1913 C1906 0.930 . S
C1914 C1915 1.351 . S
C1914 N1917 1.368 . S
C1914 H1919 0.931 . S
C1915 C1914 1.351 . S
C1915 N1916 1.373 . S
C1915 H1943 0.930 . S
N1916 C1915 1.373 . S
N1916 C1918 1.340 . S
N1917 C1914 1.368 . S
N1917 C1918 1.321 . S
N1917 Co1920 2.135 . S
C1918 N1916 1.340 . S
C1918 N1917 1.321 . S
C1918 H1942 0.930 . S
H1919 C1914 0.931 . S
Co1920 N1917 2.135 . S
Co1920 N1923 2.121 . S
Co1920 O1928 2.055 . S
Co1920 O1931 2.039 . S
Co1920 N1934 2.140 . S
C1921 O1922 1.227 . S
C1921 O1931 1.265 . S
O1922 C1921 1.227 . S
N1923 Co1920 2.121 . S
N1923 C1925 1.375 . S
N1923 C1926 1.313 . S
C1924 C1925 1.338 . S
C1924 N1927 1.377 . S
C1924 H1944 0.930 . S
C1925 N1923 1.375 . S
C1925 C1924 1.338 . S
C1925 H1929 0.931 . S
C1926 N1923 1.313 . S
C1926 N1927 1.344 . S
C1926 H1930 0.930 . S
N1927 C1924 1.377 . S
N1927 C1926 1.344 . S
O1928 Co1920 2.055 . S
O1928 C1932 1.253 . S
H1929 C1925 0.931 . S
H1930 C1926 0.930 . S
O1931 Co1920 2.039 . S
O1931 C1921 1.265 . S
C1932 O1928 1.253 . S
C1932 O1933 1.227 . S
O1933 C1932 1.227 . S
N1934 Co1920 2.140 . S
N1934 C1937 1.346 . S
N1934 C1938 1.345 . S
C1935 C1936 1.387 . S
C1935 C1939 1.391 . S
C1936 C1935 1.387 . S
C1936 C1937 1.369 . S
C1936 H1945 0.929 . S
C1937 N1934 1.346 . S
C1937 C1936 1.369 . S
C1937 H1940 0.928 . S
C1938 N1934 1.345 . S
C1938 C1939 1.371 . S
C1938 H1941 0.931 . S
C1939 C1935 1.391 . S
C1939 C1938 1.371 . S
C1939 H1946 0.930 . S
H1940 C1937 0.928 . S
H1941 C1938 0.931 . S
H1942 C1918 0.930 . S
H1943 C1915 0.930 . S
H1944 C1924 0.930 . S
H1945 C1936 0.929 . S
H1946 C1939 0.930 . S
C1947 C1948 1.351 . S
C1947 N1950 1.368 . S
C1947 H1952 0.931 . S
C1948 C1947 1.351 . S
C1948 N1949 1.373 . S
C1948 H1976 0.930 . S
N1949 C1948 1.373 . S
N1949 C1951 1.340 . S
N1950 C1947 1.368 . S
N1950 C1951 1.321 . S
N1950 Co1953 2.135 . S
C1951 N1949 1.340 . S
C1951 N1950 1.321 . S
C1951 H1975 0.930 . S
H1952 C1947 0.931 . S
Co1953 N1950 2.135 . S
Co1953 N1956 2.121 . S
Co1953 O1961 2.055 . S
Co1953 O1964 2.039 . S
Co1953 N1967 2.140 . S
C1954 O1955 1.227 . S
C1954 O1964 1.265 . S
O1955 C1954 1.227 . S
N1956 Co1953 2.121 . S
N1956 C1958 1.375 . S
N1956 C1959 1.313 . S
C1957 C1958 1.338 . S
C1957 N1960 1.377 . S
C1957 H1977 0.930 . S
C1958 N1956 1.375 . S
C1958 C1957 1.338 . S
C1958 H1962 0.931 . S
C1959 N1956 1.313 . S
C1959 N1960 1.344 . S
C1959 H1963 0.930 . S
N1960 C1957 1.377 . S
N1960 C1959 1.344 . S
O1961 Co1953 2.055 . S
O1961 C1965 1.253 . S
H1962 C1958 0.931 . S
H1963 C1959 0.930 . S
O1964 Co1953 2.039 . S
O1964 C1954 1.265 . S
C1965 O1961 1.253 . S
C1965 O1966 1.227 . S
O1966 C1965 1.227 . S
N1967 Co1953 2.140 . S
N1967 C1970 1.346 . S
N1967 C1971 1.345 . S
C1968 C1969 1.387 . S
C1968 C1972 1.391 . S
C1969 C1968 1.387 . S
C1969 C1970 1.369 . S
C1969 H1978 0.929 . S
C1970 N1967 1.346 . S
C1970 C1969 1.369 . S
C1970 H1973 0.928 . S
C1971 N1967 1.345 . S
C1971 C1972 1.371 . S
C1971 H1974 0.931 . S
C1972 C1968 1.391 . S
C1972 C1971 1.371 . S
C1972 H1979 0.930 . S
H1973 C1970 0.928 . S
H1974 C1971 0.931 . S
H1975 C1951 0.930 . S
H1976 C1948 0.930 . S
H1977 C1957 0.930 . S
H1978 C1969 0.929 . S
H1979 C1972 0.930 . S
C1980 C1981 1.351 . S
C1980 N1983 1.368 . S
C1980 H1985 0.931 . S
C1981 C1980 1.351 . S
C1981 N1982 1.373 . S
C1981 H2009 0.930 . S
N1982 C1981 1.373 . S
N1982 C1984 1.340 . S
N1983 C1980 1.368 . S
N1983 C1984 1.321 . S
N1983 Co1986 2.135 . S
C1984 N1982 1.340 . S
C1984 N1983 1.321 . S
C1984 H2008 0.930 . S
H1985 C1980 0.931 . S
Co1986 N1983 2.135 . S
Co1986 N1989 2.121 . S
Co1986 O1994 2.055 . S
Co1986 O1997 2.039 . S
Co1986 N2000 2.140 . S
C1987 O1988 1.227 . S
C1987 O1997 1.265 . S
O1988 C1987 1.227 . S
N1989 Co1986 2.121 . S
N1989 C1991 1.375 . S
N1989 C1992 1.313 . S
C1990 C1991 1.338 . S
C1990 N1993 1.377 . S
C1990 H2010 0.930 . S
C1991 N1989 1.375 . S
C1991 C1990 1.338 . S
C1991 H1995 0.931 . S
C1992 N1989 1.313 . S
C1992 N1993 1.344 . S
C1992 H1996 0.930 . S
N1993 C1990 1.377 . S
N1993 C1992 1.344 . S
O1994 Co1986 2.055 . S
O1994 C1998 1.253 . S
H1995 C1991 0.931 . S
H1996 C1992 0.930 . S
O1997 Co1986 2.039 . S
O1997 C1987 1.265 . S
C1998 O1994 1.253 . S
C1998 O1999 1.227 . S
O1999 C1998 1.227 . S
N2000 Co1986 2.140 . S
N2000 C2003 1.346 . S
N2000 C2004 1.345 . S
C2001 C2002 1.387 . S
C2001 C2005 1.391 . S
C2002 C2001 1.387 . S
C2002 C2003 1.369 . S
C2002 H2011 0.929 . S
C2003 N2000 1.346 . S
C2003 C2002 1.369 . S
C2003 H2006 0.928 . S
C2004 N2000 1.345 . S
C2004 C2005 1.371 . S
C2004 H2007 0.931 . S
C2005 C2001 1.391 . S
C2005 C2004 1.371 . S
C2005 H2012 0.930 . S
H2006 C2003 0.928 . S
H2007 C2004 0.931 . S
H2008 C1984 0.930 . S
H2009 C1981 0.930 . S
H2010 C1990 0.930 . S
H2011 C2002 0.929 . S
H2012 C2005 0.930 . S
C2013 C2014 1.351 . S
C2013 N2016 1.368 . S
C2013 H2018 0.931 . S
C2014 C2013 1.351 . S
C2014 N2015 1.373 . S
C2014 H2042 0.930 . S
N2015 C2014 1.373 . S
N2015 C2017 1.340 . S
N2016 C2013 1.368 . S
N2016 C2017 1.321 . S
N2016 Co2019 2.135 . S
C2017 N2015 1.340 . S
C2017 N2016 1.321 . S
C2017 H2041 0.930 . S
H2018 C2013 0.931 . S
Co2019 N2016 2.135 . S
Co2019 N2022 2.121 . S
Co2019 O2027 2.055 . S
Co2019 O2030 2.039 . S
Co2019 N2033 2.140 . S
C2020 O2021 1.227 . S
C2020 O2030 1.265 . S
O2021 C2020 1.227 . S
N2022 Co2019 2.121 . S
N2022 C2024 1.375 . S
N2022 C2025 1.313 . S
C2023 C2024 1.338 . S
C2023 N2026 1.377 . S
C2023 H2043 0.930 . S
C2024 N2022 1.375 . S
C2024 C2023 1.338 . S
C2024 H2028 0.931 . S
C2025 N2022 1.313 . S
C2025 N2026 1.344 . S
C2025 H2029 0.930 . S
N2026 C2023 1.377 . S
N2026 C2025 1.344 . S
O2027 Co2019 2.055 . S
O2027 C2031 1.253 . S
H2028 C2024 0.931 . S
H2029 C2025 0.930 . S
O2030 Co2019 2.039 . S
O2030 C2020 1.265 . S
C2031 O2027 1.253 . S
C2031 O2032 1.227 . S
O2032 C2031 1.227 . S
N2033 Co2019 2.140 . S
N2033 C2036 1.346 . S
N2033 C2037 1.345 . S
C2034 C2035 1.387 . S
C2034 C2038 1.391 . S
C2035 C2034 1.387 . S
C2035 C2036 1.369 . S
C2035 H2044 0.929 . S
C2036 N2033 1.346 . S
C2036 C2035 1.369 . S
C2036 H2039 0.928 . S
C2037 N2033 1.345 . S
C2037 C2038 1.371 . S
C2037 H2040 0.931 . S
C2038 C2034 1.391 . S
C2038 C2037 1.371 . S
C2038 H2045 0.930 . S
H2039 C2036 0.928 . S
H2040 C2037 0.931 . S
H2041 C2017 0.930 . S
H2042 C2014 0.930 . S
H2043 C2023 0.930 . S
H2044 C2035 0.929 . S
H2045 C2038 0.930 . S
C2046 C2047 1.351 . S
C2046 N2049 1.368 . S
C2046 H2051 0.931 . S
C2047 C2046 1.351 . S
C2047 N2048 1.373 . S
C2047 H2075 0.930 . S
N2048 C2047 1.373 . S
N2048 C2050 1.340 . S
N2049 C2046 1.368 . S
N2049 C2050 1.321 . S
N2049 Co2052 2.135 . S
C2050 N2048 1.340 . S
C2050 N2049 1.321 . S
C2050 H2074 0.930 . S
H2051 C2046 0.931 . S
Co2052 N2049 2.135 . S
Co2052 N2055 2.121 . S
Co2052 O2060 2.055 . S
Co2052 O2063 2.039 . S
Co2052 N2066 2.140 . S
C2053 O2054 1.227 . S
C2053 O2063 1.265 . S
O2054 C2053 1.227 . S
N2055 Co2052 2.121 . S
N2055 C2057 1.375 . S
N2055 C2058 1.313 . S
C2056 C2057 1.338 . S
C2056 N2059 1.377 . S
C2056 H2076 0.930 . S
C2057 N2055 1.375 . S
C2057 C2056 1.338 . S
C2057 H2061 0.931 . S
C2058 N2055 1.313 . S
C2058 N2059 1.344 . S
C2058 H2062 0.930 . S
N2059 C2056 1.377 . S
N2059 C2058 1.344 . S
O2060 Co2052 2.055 . S
O2060 C2064 1.253 . S
H2061 C2057 0.931 . S
H2062 C2058 0.930 . S
O2063 Co2052 2.039 . S
O2063 C2053 1.265 . S
C2064 O2060 1.253 . S
C2064 O2065 1.227 . S
O2065 C2064 1.227 . S
N2066 Co2052 2.140 . S
N2066 C2069 1.346 . S
N2066 C2070 1.345 . S
C2067 C2068 1.387 . S
C2067 C2071 1.391 . S
C2068 C2067 1.387 . S
C2068 C2069 1.369 . S
C2068 H2077 0.929 . S
C2069 N2066 1.346 . S
C2069 C2068 1.369 . S
C2069 H2072 0.928 . S
C2070 N2066 1.345 . S
C2070 C2071 1.371 . S
C2070 H2073 0.931 . S
C2071 C2067 1.391 . S
C2071 C2070 1.371 . S
C2071 H2078 0.930 . S
H2072 C2069 0.928 . S
H2073 C2070 0.931 . S
H2074 C2050 0.930 . S
H2075 C2047 0.930 . S
H2076 C2056 0.930 . S
H2077 C2068 0.929 . S
H2078 C2071 0.930 . S
C2079 C2080 1.351 . S
C2079 N2082 1.368 . S
C2079 H2084 0.931 . S
C2080 C2079 1.351 . S
C2080 N2081 1.373 . S
C2080 H2108 0.930 . S
N2081 C2080 1.373 . S
N2081 C2083 1.340 . S
N2082 C2079 1.368 . S
N2082 C2083 1.321 . S
N2082 Co2085 2.135 . S
C2083 N2081 1.340 . S
C2083 N2082 1.321 . S
C2083 H2107 0.930 . S
H2084 C2079 0.931 . S
Co2085 N2082 2.135 . S
Co2085 N2088 2.121 . S
Co2085 O2093 2.055 . S
Co2085 O2096 2.039 . S
Co2085 N2099 2.140 . S
C2086 O2087 1.227 . S
C2086 O2096 1.265 . S
O2087 C2086 1.227 . S
N2088 Co2085 2.121 . S
N2088 C2090 1.375 . S
N2088 C2091 1.313 . S
C2089 C2090 1.338 . S
C2089 N2092 1.377 . S
C2089 H2109 0.930 . S
C2090 N2088 1.375 . S
C2090 C2089 1.338 . S
C2090 H2094 0.931 . S
C2091 N2088 1.313 . S
C2091 N2092 1.344 . S
C2091 H2095 0.930 . S
N2092 C2089 1.377 . S
N2092 C2091 1.344 . S
O2093 Co2085 2.055 . S
O2093 C2097 1.253 . S
H2094 C2090 0.931 . S
H2095 C2091 0.930 . S
O2096 Co2085 2.039 . S
O2096 C2086 1.265 . S
C2097 O2093 1.253 . S
C2097 O2098 1.227 . S
O2098 C2097 1.227 . S
N2099 Co2085 2.140 . S
N2099 C2102 1.346 . S
N2099 C2103 1.345 . S
C2100 C2101 1.387 . S
C2100 C2104 1.391 . S
C2101 C2100 1.387 . S
C2101 C2102 1.369 . S
C2101 H2110 0.929 . S
C2102 N2099 1.346 . S
C2102 C2101 1.369 . S
C2102 H2105 0.928 . S
C2103 N2099 1.345 . S
C2103 C2104 1.371 . S
C2103 H2106 0.931 . S
C2104 C2100 1.391 . S
C2104 C2103 1.371 . S
C2104 H2111 0.930 . S
H2105 C2102 0.928 . S
H2106 C2103 0.931 . S
H2107 C2083 0.930 . S
H2108 C2080 0.930 . S
H2109 C2089 0.930 . S
H2110 C2101 0.929 . S
H2111 C2104 0.930 . S
C2112 C2113 1.351 . S
C2112 N2115 1.368 . S
C2112 H2117 0.931 . S
C2113 C2112 1.351 . S
C2113 N2114 1.373 . S
C2113 H2141 0.930 . S
N2114 C2113 1.373 . S
N2114 C2116 1.340 . S
N2115 C2112 1.368 . S
N2115 C2116 1.321 . S
N2115 Co2118 2.135 . S
C2116 N2114 1.340 . S
C2116 N2115 1.321 . S
C2116 H2140 0.930 . S
H2117 C2112 0.931 . S
Co2118 N2115 2.135 . S
Co2118 N2121 2.121 . S
Co2118 O2126 2.055 . S
Co2118 O2129 2.039 . S
Co2118 N2132 2.140 . S
C2119 O2120 1.227 . S
C2119 O2129 1.265 . S
O2120 C2119 1.227 . S
N2121 Co2118 2.121 . S
N2121 C2123 1.375 . S
N2121 C2124 1.313 . S
C2122 C2123 1.338 . S
C2122 N2125 1.377 . S
C2122 H2142 0.930 . S
C2123 N2121 1.375 . S
C2123 C2122 1.338 . S
C2123 H2127 0.931 . S
C2124 N2121 1.313 . S
C2124 N2125 1.344 . S
C2124 H2128 0.930 . S
N2125 C2122 1.377 . S
N2125 C2124 1.344 . S
O2126 Co2118 2.055 . S
O2126 C2130 1.253 . S
H2127 C2123 0.931 . S
H2128 C2124 0.930 . S
O2129 Co2118 2.039 . S
O2129 C2119 1.265 . S
C2130 O2126 1.253 . S
C2130 O2131 1.227 . S
O2131 C2130 1.227 . S
N2132 Co2118 2.140 . S
N2132 C2135 1.346 . S
N2132 C2136 1.345 . S
C2133 C2134 1.387 . S
C2133 C2137 1.391 . S
C2134 C2133 1.387 . S
C2134 C2135 1.369 . S
C2134 H2143 0.929 . S
C2135 N2132 1.346 . S
C2135 C2134 1.369 . S
C2135 H2138 0.928 . S
C2136 N2132 1.345 . S
C2136 C2137 1.371 . S
C2136 H2139 0.931 . S
C2137 C2133 1.391 . S
C2137 C2136 1.371 . S
C2137 H2144 0.930 . S
H2138 C2135 0.928 . S
H2139 C2136 0.931 . S
H2140 C2116 0.930 . S
H2141 C2113 0.930 . S
H2142 C2122 0.930 . S
H2143 C2134 0.929 . S
H2144 C2137 0.930 . S
C2145 C2146 1.351 . S
C2145 N2148 1.368 . S
C2145 H2150 0.931 . S
C2146 C2145 1.351 . S
C2146 N2147 1.373 . S
C2146 H2174 0.930 . S
N2147 C2146 1.373 . S
N2147 C2149 1.340 . S
N2148 C2145 1.368 . S
N2148 C2149 1.321 . S
N2148 Co2151 2.135 . S
C2149 N2147 1.340 . S
C2149 N2148 1.321 . S
C2149 H2173 0.930 . S
H2150 C2145 0.931 . S
Co2151 N2148 2.135 . S
Co2151 N2154 2.121 . S
Co2151 O2159 2.055 . S
Co2151 O2162 2.039 . S
Co2151 N2165 2.140 . S
C2152 O2153 1.227 . S
C2152 O2162 1.265 . S
O2153 C2152 1.227 . S
N2154 Co2151 2.121 . S
N2154 C2156 1.375 . S
N2154 C2157 1.313 . S
C2155 C2156 1.338 . S
C2155 N2158 1.377 . S
C2155 H2175 0.930 . S
C2156 N2154 1.375 . S
C2156 C2155 1.338 . S
C2156 H2160 0.931 . S
C2157 N2154 1.313 . S
C2157 N2158 1.344 . S
C2157 H2161 0.930 . S
N2158 C2155 1.377 . S
N2158 C2157 1.344 . S
O2159 Co2151 2.055 . S
O2159 C2163 1.253 . S
H2160 C2156 0.931 . S
H2161 C2157 0.930 . S
O2162 Co2151 2.039 . S
O2162 C2152 1.265 . S
C2163 O2159 1.253 . S
C2163 O2164 1.227 . S
O2164 C2163 1.227 . S
N2165 Co2151 2.140 . S
N2165 C2168 1.346 . S
N2165 C2169 1.345 . S
C2166 C2167 1.387 . S
C2166 C2170 1.391 . S
C2167 C2166 1.387 . S
C2167 C2168 1.369 . S
C2167 H2176 0.929 . S
C2168 N2165 1.346 . S
C2168 C2167 1.369 . S
C2168 H2171 0.928 . S
C2169 N2165 1.345 . S
C2169 C2170 1.371 . S
C2169 H2172 0.931 . S
C2170 C2166 1.391 . S
C2170 C2169 1.371 . S
C2170 H2177 0.930 . S
H2171 C2168 0.928 . S
H2172 C2169 0.931 . S
H2173 C2149 0.930 . S
H2174 C2146 0.930 . S
H2175 C2155 0.930 . S
H2176 C2167 0.929 . S
H2177 C2170 0.930 . S
C2178 C2179 1.351 . S
C2178 N2181 1.368 . S
C2178 H2183 0.931 . S
C2179 C2178 1.351 . S
C2179 N2180 1.373 . S
C2179 H2207 0.930 . S
N2180 C2179 1.373 . S
N2180 C2182 1.340 . S
N2181 C2178 1.368 . S
N2181 C2182 1.321 . S
N2181 Co2184 2.135 . S
C2182 N2180 1.340 . S
C2182 N2181 1.321 . S
C2182 H2206 0.930 . S
H2183 C2178 0.931 . S
Co2184 N2181 2.135 . S
Co2184 N2187 2.121 . S
Co2184 O2192 2.055 . S
Co2184 O2195 2.039 . S
Co2184 N2198 2.140 . S
C2185 O2186 1.227 . S
C2185 O2195 1.265 . S
O2186 C2185 1.227 . S
N2187 Co2184 2.121 . S
N2187 C2189 1.375 . S
N2187 C2190 1.313 . S
C2188 C2189 1.338 . S
C2188 N2191 1.377 . S
C2188 H2208 0.930 . S
C2189 N2187 1.375 . S
C2189 C2188 1.338 . S
C2189 H2193 0.931 . S
C2190 N2187 1.313 . S
C2190 N2191 1.344 . S
C2190 H2194 0.930 . S
N2191 C2188 1.377 . S
N2191 C2190 1.344 . S
O2192 Co2184 2.055 . S
O2192 C2196 1.253 . S
H2193 C2189 0.931 . S
H2194 C2190 0.930 . S
O2195 Co2184 2.039 . S
O2195 C2185 1.265 . S
C2196 O2192 1.253 . S
C2196 O2197 1.227 . S
O2197 C2196 1.227 . S
N2198 Co2184 2.140 . S
N2198 C2201 1.346 . S
N2198 C2202 1.345 . S
C2199 C2200 1.387 . S
C2199 C2203 1.391 . S
C2200 C2199 1.387 . S
C2200 C2201 1.369 . S
C2200 H2209 0.929 . S
C2201 N2198 1.346 . S
C2201 C2200 1.369 . S
C2201 H2204 0.928 . S
C2202 N2198 1.345 . S
C2202 C2203 1.371 . S
C2202 H2205 0.931 . S
C2203 C2199 1.391 . S
C2203 C2202 1.371 . S
C2203 H2210 0.930 . S
H2204 C2201 0.928 . S
H2205 C2202 0.931 . S
H2206 C2182 0.930 . S
H2207 C2179 0.930 . S
H2208 C2188 0.930 . S
H2209 C2200 0.929 . S
H2210 C2203 0.930 . S
C2211 C2212 1.351 . S
C2211 N2214 1.368 . S
C2211 H2216 0.931 . S
C2212 C2211 1.351 . S
C2212 N2213 1.373 . S
C2212 H2240 0.930 . S
N2213 C2212 1.373 . S
N2213 C2215 1.340 . S
N2214 C2211 1.368 . S
N2214 C2215 1.321 . S
N2214 Co2217 2.135 . S
C2215 N2213 1.340 . S
C2215 N2214 1.321 . S
C2215 H2239 0.930 . S
H2216 C2211 0.931 . S
Co2217 N2214 2.135 . S
Co2217 N2220 2.121 . S
Co2217 O2225 2.055 . S
Co2217 O2228 2.039 . S
Co2217 N2231 2.140 . S
C2218 O2219 1.207 1_556 S
C2218 O2228 1.310 . S
O2219 C2218 1.207 1_554 S
N2220 Co2217 2.121 . S
N2220 C2222 1.375 . S
N2220 C2223 1.313 . S
C2221 C2222 1.338 . S
C2221 N2224 1.377 . S
C2221 H2241 0.930 1_556 S
C2222 N2220 1.375 . S
C2222 C2221 1.338 . S
C2222 H2226 0.931 1_556 S
C2223 N2220 1.313 . S
C2223 N2224 1.344 . S
C2223 H2227 0.930 . S
N2224 C2221 1.377 . S
N2224 C2223 1.344 . S
O2225 Co2217 2.055 . S
O2225 C2229 1.253 . S
H2226 C2222 0.931 1_554 S
H2227 C2223 0.930 . S
O2228 Co2217 2.039 . S
O2228 C2218 1.310 . S
C2229 O2225 1.253 . S
C2229 O2230 1.227 . S
O2230 C2229 1.227 . S
N2231 Co2217 2.140 . S
N2231 C2234 1.346 . S
N2231 C2235 1.345 . S
C2232 C2233 1.392 . S
C2232 C2236 1.370 1_554 S
C2233 C2232 1.392 . S
C2233 C2234 1.369 1_554 S
C2233 H2242 0.929 . S
C2234 N2231 1.346 . S
C2234 C2233 1.369 1_556 S
C2234 H2237 0.928 . S
C2235 N2231 1.345 . S
C2235 C2236 1.371 . S
C2235 H2238 0.931 . S
C2236 C2232 1.370 1_556 S
C2236 C2235 1.371 . S
C2236 H2243 0.930 . S
H2237 C2234 0.928 . S
H2238 C2235 0.931 . S
H2239 C2215 0.930 . S
H2240 C2212 0.930 . S
H2241 C2221 0.930 1_554 S
H2242 C2233 0.929 . S
H2243 C2236 0.930 . S
C2244 C2245 1.351 . S
C2244 N2247 1.368 . S
C2244 H2249 0.931 . S
C2245 C2244 1.351 . S
C2245 N2246 1.373 . S
C2245 H2273 0.930 . S
N2246 C2245 1.373 . S
N2246 C2248 1.340 . S
N2247 C2244 1.368 . S
N2247 C2248 1.321 . S
N2247 Co2250 2.135 . S
C2248 N2246 1.340 . S
C2248 N2247 1.321 . S
C2248 H2272 0.930 . S
H2249 C2244 0.931 . S
Co2250 N2247 2.135 . S
Co2250 N2253 2.121 . S
Co2250 O2258 2.055 . S
Co2250 O2261 2.039 . S
Co2250 N2264 2.140 . S
C2251 O2252 1.227 . S
C2251 O2261 1.265 . S
O2252 C2251 1.227 . S
N2253 Co2250 2.121 . S
N2253 C2255 1.375 . S
N2253 C2256 1.313 . S
C2254 C2255 1.338 . S
C2254 N2257 1.377 . S
C2254 H2274 0.930 . S
C2255 N2253 1.375 . S
C2255 C2254 1.338 . S
C2255 H2259 0.931 . S
C2256 N2253 1.313 . S
C2256 N2257 1.344 . S
C2256 H2260 0.930 . S
N2257 C2254 1.377 . S
N2257 C2256 1.344 . S
O2258 Co2250 2.055 . S
O2258 C2262 1.253 . S
H2259 C2255 0.931 . S
H2260 C2256 0.930 . S
O2261 Co2250 2.039 . S
O2261 C2251 1.265 . S
C2262 O2258 1.253 . S
C2262 O2263 1.227 . S
O2263 C2262 1.227 . S
N2264 Co2250 2.140 . S
N2264 C2267 1.346 . S
N2264 C2268 1.345 . S
C2265 C2266 1.387 . S
C2265 C2269 1.391 . S
C2266 C2265 1.387 . S
C2266 C2267 1.369 . S
C2266 H2275 0.929 . S
C2267 N2264 1.346 . S
C2267 C2266 1.369 . S
C2267 H2270 0.928 . S
C2268 N2264 1.345 . S
C2268 C2269 1.371 . S
C2268 H2271 0.931 . S
C2269 C2265 1.391 . S
C2269 C2268 1.371 . S
C2269 H2276 0.930 . S
H2270 C2267 0.928 . S
H2271 C2268 0.931 . S
H2272 C2248 0.930 . S
H2273 C2245 0.930 . S
H2274 C2254 0.930 . S
H2275 C2266 0.929 . S
H2276 C2269 0.930 . S
C2277 C2278 1.351 . S
C2277 N2280 1.368 . S
C2277 H2282 0.931 . S
C2278 C2277 1.351 . S
C2278 N2279 1.373 . S
C2278 H2306 0.930 . S
N2279 C2278 1.373 . S
N2279 C2281 1.340 . S
N2280 C2277 1.368 . S
N2280 C2281 1.321 . S
N2280 Co2283 2.135 . S
C2281 N2279 1.340 . S
C2281 N2280 1.321 . S
C2281 H2305 0.930 . S
H2282 C2277 0.931 . S
Co2283 N2280 2.135 . S
Co2283 N2286 2.121 . S
Co2283 O2291 2.055 . S
Co2283 O2294 2.039 . S
Co2283 N2297 2.140 . S
C2284 O2285 1.207 1_554 S
C2284 O2294 1.311 . S
O2285 C2284 1.207 1_556 S
N2286 Co2283 2.121 . S
N2286 C2288 1.375 . S
N2286 C2289 1.313 . S
C2287 C2288 1.338 . S
C2287 N2290 1.377 . S
C2287 H2307 0.930 1_554 S
C2288 N2286 1.375 . S
C2288 C2287 1.338 . S
C2288 H2292 0.931 1_554 S
C2289 N2286 1.313 . S
C2289 N2290 1.344 . S
C2289 H2293 0.930 . S
N2290 C2287 1.377 . S
N2290 C2289 1.344 . S
O2291 Co2283 2.055 . S
O2291 C2295 1.253 . S
H2292 C2288 0.931 1_556 S
H2293 C2289 0.930 . S
O2294 Co2283 2.039 . S
O2294 C2284 1.311 . S
C2295 O2291 1.253 . S
C2295 O2296 1.227 . S
O2296 C2295 1.227 . S
N2297 Co2283 2.140 . S
N2297 C2300 1.346 . S
N2297 C2301 1.345 . S
C2298 C2299 1.392 . S
C2298 C2302 1.370 1_556 S
C2299 C2298 1.392 . S
C2299 C2300 1.369 1_556 S
C2299 H2308 0.929 . S
C2300 N2297 1.346 . S
C2300 C2299 1.369 1_554 S
C2300 H2303 0.928 . S
C2301 N2297 1.345 . S
C2301 C2302 1.371 . S
C2301 H2304 0.931 . S
C2302 C2298 1.370 1_554 S
C2302 C2301 1.371 . S
C2302 H2309 0.930 . S
H2303 C2300 0.928 . S
H2304 C2301 0.931 . S
H2305 C2281 0.930 . S
H2306 C2278 0.930 . S
H2307 C2287 0.930 1_556 S
H2308 C2299 0.929 . S
H2309 C2302 0.930 . S
C2310 C2311 1.351 . S
C2310 N2313 1.368 . S
C2310 H2315 0.931 . S
C2311 C2310 1.351 . S
C2311 N2312 1.373 . S
C2311 H2339 0.930 . S
N2312 C2311 1.373 . S
N2312 C2314 1.340 . S
N2313 C2310 1.368 . S
N2313 C2314 1.321 . S
N2313 Co2316 2.135 . S
C2314 N2312 1.340 . S
C2314 N2313 1.321 . S
C2314 H2338 0.930 . S
H2315 C2310 0.931 . S
Co2316 N2313 2.135 . S
Co2316 N2319 2.121 . S
Co2316 O2324 2.055 . S
Co2316 O2327 2.039 . S
Co2316 N2330 2.140 . S
C2317 O2318 1.227 . S
C2317 O2327 1.265 . S
O2318 C2317 1.227 . S
N2319 Co2316 2.121 . S
N2319 C2321 1.375 . S
N2319 C2322 1.313 . S
C2320 C2321 1.338 . S
C2320 N2323 1.377 . S
C2320 H2340 0.930 . S
C2321 N2319 1.375 . S
C2321 C2320 1.338 . S
C2321 H2325 0.931 . S
C2322 N2319 1.313 . S
C2322 N2323 1.344 . S
C2322 H2326 0.930 . S
N2323 C2320 1.377 . S
N2323 C2322 1.344 . S
O2324 Co2316 2.055 . S
O2324 C2328 1.253 . S
H2325 C2321 0.931 . S
H2326 C2322 0.930 . S
O2327 Co2316 2.039 . S
O2327 C2317 1.265 . S
C2328 O2324 1.253 . S
C2328 O2329 1.227 . S
O2329 C2328 1.227 . S
N2330 Co2316 2.140 . S
N2330 C2333 1.346 . S
N2330 C2334 1.345 . S
C2331 C2332 1.387 . S
C2331 C2335 1.391 . S
C2332 C2331 1.387 . S
C2332 C2333 1.369 . S
C2332 H2341 0.929 . S
C2333 N2330 1.346 . S
C2333 C2332 1.369 . S
C2333 H2336 0.928 . S
C2334 N2330 1.345 . S
C2334 C2335 1.371 . S
C2334 H2337 0.931 . S
C2335 C2331 1.391 . S
C2335 C2334 1.371 . S
C2335 H2342 0.930 . S
H2336 C2333 0.928 . S
H2337 C2334 0.931 . S
H2338 C2314 0.930 . S
H2339 C2311 0.930 . S
H2340 C2320 0.930 . S
H2341 C2332 0.929 . S
H2342 C2335 0.930 . S
C2343 C2344 1.351 . S
C2343 N2346 1.368 . S
C2343 H2348 0.931 . S
C2344 C2343 1.351 . S
C2344 N2345 1.373 . S
C2344 H2372 0.930 . S
N2345 C2344 1.373 . S
N2345 C2347 1.340 . S
N2346 C2343 1.368 . S
N2346 C2347 1.321 . S
N2346 Co2349 2.135 . S
C2347 N2345 1.340 . S
C2347 N2346 1.321 . S
C2347 H2371 0.930 . S
H2348 C2343 0.931 . S
Co2349 N2346 2.135 . S
Co2349 N2352 2.121 . S
Co2349 O2357 2.055 . S
Co2349 O2360 2.039 . S
Co2349 N2363 2.140 . S
C2350 O2351 1.227 . S
C2350 O2360 1.265 . S
O2351 C2350 1.227 . S
N2352 Co2349 2.121 . S
N2352 C2354 1.375 . S
N2352 C2355 1.313 . S
C2353 C2354 1.338 . S
C2353 N2356 1.377 . S
C2353 H2373 0.930 . S
C2354 N2352 1.375 . S
C2354 C2353 1.338 . S
C2354 H2358 0.931 . S
C2355 N2352 1.313 . S
C2355 N2356 1.344 . S
C2355 H2359 0.930 . S
N2356 C2353 1.377 . S
N2356 C2355 1.344 . S
O2357 Co2349 2.055 . S
O2357 C2361 1.253 . S
H2358 C2354 0.931 . S
H2359 C2355 0.930 . S
O2360 Co2349 2.039 . S
O2360 C2350 1.265 . S
C2361 O2357 1.253 . S
C2361 O2362 1.227 . S
O2362 C2361 1.227 . S
N2363 Co2349 2.140 . S
N2363 C2366 1.346 . S
N2363 C2367 1.345 . S
C2364 C2365 1.387 . S
C2364 C2368 1.391 . S
C2365 C2364 1.387 . S
C2365 C2366 1.369 . S
C2365 H2374 0.929 . S
C2366 N2363 1.346 . S
C2366 C2365 1.369 . S
C2366 H2369 0.928 . S
C2367 N2363 1.345 . S
C2367 C2368 1.371 . S
C2367 H2370 0.931 . S
C2368 C2364 1.391 . S
C2368 C2367 1.371 . S
C2368 H2375 0.930 . S
H2369 C2366 0.928 . S
H2370 C2367 0.931 . S
H2371 C2347 0.930 . S
H2372 C2344 0.930 . S
H2373 C2353 0.930 . S
H2374 C2365 0.929 . S
H2375 C2368 0.930 . S
C2376 C2377 1.351 . S
C2376 N2379 1.368 . S
C2376 H2381 0.931 . S
C2377 C2376 1.351 . S
C2377 N2378 1.373 . S
C2377 H2405 0.930 . S
N2378 C2377 1.373 . S
N2378 C2380 1.340 . S
N2379 C2376 1.368 . S
N2379 C2380 1.321 . S
N2379 Co2382 2.135 . S
C2380 N2378 1.340 . S
C2380 N2379 1.321 . S
C2380 H2404 0.930 . S
H2381 C2376 0.931 . S
Co2382 N2379 2.135 . S
Co2382 N2385 2.121 . S
Co2382 O2390 2.055 . S
Co2382 O2393 2.039 . S
Co2382 N2396 2.140 . S
C2383 O2384 1.227 . S
C2383 O2393 1.265 . S
O2384 C2383 1.227 . S
N2385 Co2382 2.121 . S
N2385 C2387 1.375 . S
N2385 C2388 1.313 . S
C2386 C2387 1.338 . S
C2386 N2389 1.377 . S
C2386 H2406 0.930 . S
C2387 N2385 1.375 . S
C2387 C2386 1.338 . S
C2387 H2391 0.931 . S
C2388 N2385 1.313 . S
C2388 N2389 1.344 . S
C2388 H2392 0.930 . S
N2389 C2386 1.377 . S
N2389 C2388 1.344 . S
O2390 Co2382 2.055 . S
O2390 C2394 1.253 . S
H2391 C2387 0.931 . S
H2392 C2388 0.930 . S
O2393 Co2382 2.039 . S
O2393 C2383 1.265 . S
C2394 O2390 1.253 . S
C2394 O2395 1.227 . S
O2395 C2394 1.227 . S
N2396 Co2382 2.140 . S
N2396 C2399 1.346 . S
N2396 C2400 1.345 . S
C2397 C2398 1.387 . S
C2397 C2401 1.391 . S
C2398 C2397 1.387 . S
C2398 C2399 1.369 . S
C2398 H2407 0.929 . S
C2399 N2396 1.346 . S
C2399 C2398 1.369 . S
C2399 H2402 0.928 . S
C2400 N2396 1.345 . S
C2400 C2401 1.371 . S
C2400 H2403 0.931 . S
C2401 C2397 1.391 . S
C2401 C2400 1.371 . S
C2401 H2408 0.930 . S
H2402 C2399 0.928 . S
H2403 C2400 0.931 . S
H2404 C2380 0.930 . S
H2405 C2377 0.930 . S
H2406 C2386 0.930 . S
H2407 C2398 0.929 . S
H2408 C2401 0.930 . S
C2409 C2410 1.351 . S
C2409 N2412 1.368 . S
C2409 H2414 0.931 . S
C2410 C2409 1.351 . S
C2410 N2411 1.373 . S
C2410 H2438 0.930 . S
N2411 C2410 1.373 . S
N2411 C2413 1.340 . S
N2412 C2409 1.368 . S
N2412 C2413 1.321 . S
N2412 Co2415 2.135 . S
C2413 N2411 1.340 . S
C2413 N2412 1.321 . S
C2413 H2437 0.930 . S
H2414 C2409 0.931 . S
Co2415 N2412 2.135 . S
Co2415 N2418 2.121 . S
Co2415 O2423 2.055 . S
Co2415 O2426 2.039 . S
Co2415 N2429 2.140 . S
C2416 O2417 1.227 . S
C2416 O2426 1.265 . S
O2417 C2416 1.227 . S
N2418 Co2415 2.121 . S
N2418 C2420 1.375 . S
N2418 C2421 1.313 . S
C2419 C2420 1.338 . S
C2419 N2422 1.377 . S
C2419 H2439 0.930 . S
C2420 N2418 1.375 . S
C2420 C2419 1.338 . S
C2420 H2424 0.931 . S
C2421 N2418 1.313 . S
C2421 N2422 1.344 . S
C2421 H2425 0.930 . S
N2422 C2419 1.377 . S
N2422 C2421 1.344 . S
O2423 Co2415 2.055 . S
O2423 C2427 1.253 . S
H2424 C2420 0.931 . S
H2425 C2421 0.930 . S
O2426 Co2415 2.039 . S
O2426 C2416 1.265 . S
C2427 O2423 1.253 . S
C2427 O2428 1.227 . S
O2428 C2427 1.227 . S
N2429 Co2415 2.140 . S
N2429 C2432 1.346 . S
N2429 C2433 1.345 . S
C2430 C2431 1.387 . S
C2430 C2434 1.391 . S
C2431 C2430 1.387 . S
C2431 C2432 1.369 . S
C2431 H2440 0.929 . S
C2432 N2429 1.346 . S
C2432 C2431 1.369 . S
C2432 H2435 0.928 . S
C2433 N2429 1.345 . S
C2433 C2434 1.371 . S
C2433 H2436 0.931 . S
C2434 C2430 1.391 . S
C2434 C2433 1.371 . S
C2434 H2441 0.930 . S
H2435 C2432 0.928 . S
H2436 C2433 0.931 . S
H2437 C2413 0.930 . S
H2438 C2410 0.930 . S
H2439 C2419 0.930 . S
H2440 C2431 0.929 . S
H2441 C2434 0.930 . S
C2442 C2443 1.351 . S
C2442 N2445 1.368 . S
C2442 H2447 0.931 . S
C2443 C2442 1.351 . S
C2443 N2444 1.373 . S
C2443 H2471 0.930 . S
N2444 C2443 1.373 . S
N2444 C2446 1.340 . S
N2445 C2442 1.368 . S
N2445 C2446 1.321 . S
N2445 Co2448 2.135 . S
C2446 N2444 1.340 . S
C2446 N2445 1.321 . S
C2446 H2470 0.930 . S
H2447 C2442 0.931 . S
Co2448 N2445 2.135 . S
Co2448 N2451 2.121 . S
Co2448 O2456 2.055 . S
Co2448 O2459 2.039 . S
Co2448 N2462 2.140 . S
C2449 O2450 1.207 1_455 S
C2449 O2459 1.310 . S
O2450 C2449 1.207 1_655 S
N2451 Co2448 2.121 . S
N2451 C2453 1.375 . S
N2451 C2454 1.313 . S
C2452 C2453 1.338 . S
C2452 N2455 1.377 . S
C2452 H2472 0.930 1_455 S
C2453 N2451 1.375 . S
C2453 C2452 1.338 . S
C2453 H2457 0.931 1_455 S
C2454 N2451 1.313 . S
C2454 N2455 1.344 . S
C2454 H2458 0.930 . S
N2455 C2452 1.377 . S
N2455 C2454 1.344 . S
O2456 Co2448 2.055 . S
O2456 C2460 1.253 . S
H2457 C2453 0.931 1_655 S
H2458 C2454 0.930 . S
O2459 Co2448 2.039 . S
O2459 C2449 1.310 . S
C2460 O2456 1.253 . S
C2460 O2461 1.227 . S
O2461 C2460 1.227 . S
N2462 Co2448 2.140 . S
N2462 C2465 1.346 . S
N2462 C2466 1.345 . S
C2463 C2464 1.392 . S
C2463 C2467 1.370 1_655 S
C2464 C2463 1.392 . S
C2464 C2465 1.369 1_655 S
C2464 H2473 0.929 . S
C2465 N2462 1.346 . S
C2465 C2464 1.369 1_455 S
C2465 H2468 0.928 . S
C2466 N2462 1.345 . S
C2466 C2467 1.371 . S
C2466 H2469 0.931 . S
C2467 C2463 1.370 1_455 S
C2467 C2466 1.371 . S
C2467 H2474 0.930 . S
H2468 C2465 0.928 . S
H2469 C2466 0.931 . S
H2470 C2446 0.930 . S
H2471 C2443 0.930 . S
H2472 C2452 0.930 1_655 S
H2473 C2464 0.929 . S
H2474 C2467 0.930 . S
C2475 C2476 1.351 . S
C2475 N2478 1.368 . S
C2475 H2480 0.931 . S
C2476 C2475 1.351 . S
C2476 N2477 1.373 . S
C2476 H2504 0.930 . S
N2477 C2476 1.373 . S
N2477 C2479 1.340 . S
N2478 C2475 1.368 . S
N2478 C2479 1.321 . S
N2478 Co2481 2.135 . S
C2479 N2477 1.340 . S
C2479 N2478 1.321 . S
C2479 H2503 0.930 . S
H2480 C2475 0.931 . S
Co2481 N2478 2.135 . S
Co2481 N2484 2.121 . S
Co2481 O2489 2.055 . S
Co2481 O2492 2.039 . S
Co2481 N2495 2.140 . S
C2482 O2483 1.227 . S
C2482 O2492 1.265 . S
O2483 C2482 1.227 . S
N2484 Co2481 2.121 . S
N2484 C2486 1.375 . S
N2484 C2487 1.313 . S
C2485 C2486 1.338 . S
C2485 N2488 1.377 . S
C2485 H2505 0.930 . S
C2486 N2484 1.375 . S
C2486 C2485 1.338 . S
C2486 H2490 0.931 . S
C2487 N2484 1.313 . S
C2487 N2488 1.344 . S
C2487 H2491 0.930 . S
N2488 C2485 1.377 . S
N2488 C2487 1.344 . S
O2489 Co2481 2.055 . S
O2489 C2493 1.253 . S
H2490 C2486 0.931 . S
H2491 C2487 0.930 . S
O2492 Co2481 2.039 . S
O2492 C2482 1.265 . S
C2493 O2489 1.253 . S
C2493 O2494 1.227 . S
O2494 C2493 1.227 . S
N2495 Co2481 2.140 . S
N2495 C2498 1.346 . S
N2495 C2499 1.345 . S
C2496 C2497 1.387 . S
C2496 C2500 1.391 . S
C2497 C2496 1.387 . S
C2497 C2498 1.369 . S
C2497 H2506 0.929 . S
C2498 N2495 1.346 . S
C2498 C2497 1.369 . S
C2498 H2501 0.928 . S
C2499 N2495 1.345 . S
C2499 C2500 1.371 . S
C2499 H2502 0.931 . S
C2500 C2496 1.391 . S
C2500 C2499 1.371 . S
C2500 H2507 0.930 . S
H2501 C2498 0.928 . S
H2502 C2499 0.931 . S
H2503 C2479 0.930 . S
H2504 C2476 0.930 . S
H2505 C2485 0.930 . S
H2506 C2497 0.929 . S
H2507 C2500 0.930 . S
C2508 C2509 1.351 . S
C2508 N2511 1.368 . S
C2508 H2513 0.931 . S
C2509 C2508 1.351 . S
C2509 N2510 1.373 . S
C2509 H2537 0.930 . S
N2510 C2509 1.373 . S
N2510 C2512 1.340 . S
N2511 C2508 1.368 . S
N2511 C2512 1.321 . S
N2511 Co2514 2.135 . S
C2512 N2510 1.340 . S
C2512 N2511 1.321 . S
C2512 H2536 0.930 . S
H2513 C2508 0.931 . S
Co2514 N2511 2.135 . S
Co2514 N2517 2.121 . S
Co2514 O2522 2.055 . S
Co2514 O2525 2.039 . S
Co2514 N2528 2.140 . S
C2515 O2516 1.227 . S
C2515 O2525 1.265 . S
O2516 C2515 1.227 . S
N2517 Co2514 2.121 . S
N2517 C2519 1.375 . S
N2517 C2520 1.313 . S
C2518 C2519 1.338 . S
C2518 N2521 1.377 . S
C2518 H2538 0.930 . S
C2519 N2517 1.375 . S
C2519 C2518 1.338 . S
C2519 H2523 0.931 . S
C2520 N2517 1.313 . S
C2520 N2521 1.344 . S
C2520 H2524 0.930 . S
N2521 C2518 1.377 . S
N2521 C2520 1.344 . S
O2522 Co2514 2.055 . S
O2522 C2526 1.253 . S
H2523 C2519 0.931 . S
H2524 C2520 0.930 . S
O2525 Co2514 2.039 . S
O2525 C2515 1.265 . S
C2526 O2522 1.253 . S
C2526 O2527 1.227 . S
O2527 C2526 1.227 . S
N2528 Co2514 2.140 . S
N2528 C2531 1.346 . S
N2528 C2532 1.345 . S
C2529 C2530 1.387 . S
C2529 C2533 1.391 . S
C2530 C2529 1.387 . S
C2530 C2531 1.369 . S
C2530 H2539 0.929 . S
C2531 N2528 1.346 . S
C2531 C2530 1.369 . S
C2531 H2534 0.928 . S
C2532 N2528 1.345 . S
C2532 C2533 1.371 . S
C2532 H2535 0.931 . S
C2533 C2529 1.391 . S
C2533 C2532 1.371 . S
C2533 H2540 0.930 . S
H2534 C2531 0.928 . S
H2535 C2532 0.931 . S
H2536 C2512 0.930 . S
H2537 C2509 0.930 . S
H2538 C2518 0.930 . S
H2539 C2530 0.929 . S
H2540 C2533 0.930 . S
C2541 C2542 1.351 . S
C2541 N2544 1.368 . S
C2541 H2546 0.931 . S
C2542 C2541 1.351 . S
C2542 N2543 1.373 . S
C2542 H2570 0.930 . S
N2543 C2542 1.373 . S
N2543 C2545 1.340 . S
N2544 C2541 1.368 . S
N2544 C2545 1.321 . S
N2544 Co2547 2.135 . S
C2545 N2543 1.340 . S
C2545 N2544 1.321 . S
C2545 H2569 0.930 . S
H2546 C2541 0.931 . S
Co2547 N2544 2.135 . S
Co2547 N2550 2.121 . S
Co2547 O2555 2.055 . S
Co2547 O2558 2.039 . S
Co2547 N2561 2.140 . S
C2548 O2549 1.227 . S
C2548 O2558 1.265 . S
O2549 C2548 1.227 . S
N2550 Co2547 2.121 . S
N2550 C2552 1.375 . S
N2550 C2553 1.313 . S
C2551 C2552 1.338 . S
C2551 N2554 1.377 . S
C2551 H2571 0.930 . S
C2552 N2550 1.375 . S
C2552 C2551 1.338 . S
C2552 H2556 0.931 . S
C2553 N2550 1.313 . S
C2553 N2554 1.344 . S
C2553 H2557 0.930 . S
N2554 C2551 1.377 . S
N2554 C2553 1.344 . S
O2555 Co2547 2.055 . S
O2555 C2559 1.253 . S
H2556 C2552 0.931 . S
H2557 C2553 0.930 . S
O2558 Co2547 2.039 . S
O2558 C2548 1.265 . S
C2559 O2555 1.253 . S
C2559 O2560 1.227 . S
O2560 C2559 1.227 . S
N2561 Co2547 2.140 . S
N2561 C2564 1.346 . S
N2561 C2565 1.345 . S
C2562 C2563 1.387 . S
C2562 C2566 1.391 . S
C2563 C2562 1.387 . S
C2563 C2564 1.369 . S
C2563 H2572 0.929 . S
C2564 N2561 1.346 . S
C2564 C2563 1.369 . S
C2564 H2567 0.928 . S
C2565 N2561 1.345 . S
C2565 C2566 1.371 . S
C2565 H2568 0.931 . S
C2566 C2562 1.391 . S
C2566 C2565 1.371 . S
C2566 H2573 0.930 . S
H2567 C2564 0.928 . S
H2568 C2565 0.931 . S
H2569 C2545 0.930 . S
H2570 C2542 0.930 . S
H2571 C2551 0.930 . S
H2572 C2563 0.929 . S
H2573 C2566 0.930 . S
C2574 C2575 1.351 . S
C2574 N2577 1.368 . S
C2574 H2579 0.931 . S
C2575 C2574 1.351 . S
C2575 N2576 1.373 . S
C2575 H2603 0.930 . S
N2576 C2575 1.373 . S
N2576 C2578 1.340 . S
N2577 C2574 1.368 . S
N2577 C2578 1.321 . S
N2577 Co2580 2.135 . S
C2578 N2576 1.340 . S
C2578 N2577 1.321 . S
C2578 H2602 0.930 . S
H2579 C2574 0.931 . S
Co2580 N2577 2.135 . S
Co2580 N2583 2.121 . S
Co2580 O2588 2.055 . S
Co2580 O2591 2.039 . S
Co2580 N2594 2.140 . S
C2581 O2582 1.207 1_455 S
C2581 O2591 1.310 . S
O2582 C2581 1.207 1_655 S
N2583 Co2580 2.121 . S
N2583 C2585 1.375 . S
N2583 C2586 1.313 . S
C2584 C2585 1.338 . S
C2584 N2587 1.377 . S
C2584 H2604 0.930 1_455 S
C2585 N2583 1.375 . S
C2585 C2584 1.338 . S
C2585 H2589 0.931 1_455 S
C2586 N2583 1.313 . S
C2586 N2587 1.344 . S
C2586 H2590 0.930 . S
N2587 C2584 1.377 . S
N2587 C2586 1.344 . S
O2588 Co2580 2.055 . S
O2588 C2592 1.253 . S
H2589 C2585 0.931 1_655 S
H2590 C2586 0.930 . S
O2591 Co2580 2.039 . S
O2591 C2581 1.310 . S
C2592 O2588 1.253 . S
C2592 O2593 1.227 . S
O2593 C2592 1.227 . S
N2594 Co2580 2.140 . S
N2594 C2597 1.346 . S
N2594 C2598 1.345 . S
C2595 C2596 1.392 . S
C2595 C2599 1.370 1_655 S
C2596 C2595 1.392 . S
C2596 C2597 1.369 1_655 S
C2596 H2605 0.929 . S
C2597 N2594 1.346 . S
C2597 C2596 1.369 1_455 S
C2597 H2600 0.928 . S
C2598 N2594 1.345 . S
C2598 C2599 1.371 . S
C2598 H2601 0.931 . S
C2599 C2595 1.370 1_455 S
C2599 C2598 1.371 . S
C2599 H2606 0.930 . S
H2600 C2597 0.928 . S
H2601 C2598 0.931 . S
H2602 C2578 0.930 . S
H2603 C2575 0.930 . S
H2604 C2584 0.930 1_655 S
H2605 C2596 0.929 . S
H2606 C2599 0.930 . S
C2607 C2608 1.351 . S
C2607 N2610 1.368 . S
C2607 H2612 0.931 . S
C2608 C2607 1.351 . S
C2608 N2609 1.373 . S
C2608 H2636 0.930 . S
N2609 C2608 1.373 . S
N2609 C2611 1.340 . S
N2610 C2607 1.368 . S
N2610 C2611 1.321 . S
N2610 Co2613 2.135 . S
C2611 N2609 1.340 . S
C2611 N2610 1.321 . S
C2611 H2635 0.930 . S
H2612 C2607 0.931 . S
Co2613 N2610 2.135 . S
Co2613 N2616 2.121 . S
Co2613 O2621 2.055 . S
Co2613 O2624 2.039 . S
Co2613 N2627 2.140 . S
C2614 O2615 1.227 . S
C2614 O2624 1.265 . S
O2615 C2614 1.227 . S
N2616 Co2613 2.121 . S
N2616 C2618 1.375 . S
N2616 C2619 1.313 . S
C2617 C2618 1.338 . S
C2617 N2620 1.377 . S
C2617 H2637 0.930 . S
C2618 N2616 1.375 . S
C2618 C2617 1.338 . S
C2618 H2622 0.931 . S
C2619 N2616 1.313 . S
C2619 N2620 1.344 . S
C2619 H2623 0.930 . S
N2620 C2617 1.377 . S
N2620 C2619 1.344 . S
O2621 Co2613 2.055 . S
O2621 C2625 1.253 . S
H2622 C2618 0.931 . S
H2623 C2619 0.930 . S
O2624 Co2613 2.039 . S
O2624 C2614 1.265 . S
C2625 O2621 1.253 . S
C2625 O2626 1.227 . S
O2626 C2625 1.227 . S
N2627 Co2613 2.140 . S
N2627 C2630 1.346 . S
N2627 C2631 1.345 . S
C2628 C2629 1.387 . S
C2628 C2632 1.391 . S
C2629 C2628 1.387 . S
C2629 C2630 1.369 . S
C2629 H2638 0.929 . S
C2630 N2627 1.346 . S
C2630 C2629 1.369 . S
C2630 H2633 0.928 . S
C2631 N2627 1.345 . S
C2631 C2632 1.371 . S
C2631 H2634 0.931 . S
C2632 C2628 1.391 . S
C2632 C2631 1.371 . S
C2632 H2639 0.930 . S
H2633 C2630 0.928 . S
H2634 C2631 0.931 . S
H2635 C2611 0.930 . S
H2636 C2608 0.930 . S
H2637 C2617 0.930 . S
H2638 C2629 0.929 . S
H2639 C2632 0.930 . S
C2640 C2641 1.351 . S
C2640 N2643 1.368 . S
C2640 H2645 0.931 . S
C2641 C2640 1.351 . S
C2641 N2642 1.373 . S
C2641 H2669 0.930 . S
N2642 C2641 1.373 . S
N2642 C2644 1.340 . S
N2643 C2640 1.368 . S
N2643 C2644 1.321 . S
N2643 Co2646 2.135 . S
C2644 N2642 1.340 . S
C2644 N2643 1.321 . S
C2644 H2668 0.930 . S
H2645 C2640 0.931 . S
Co2646 N2643 2.135 . S
Co2646 N2649 2.121 . S
Co2646 O2654 2.055 . S
Co2646 O2657 2.039 . S
Co2646 N2660 2.140 . S
C2647 O2648 1.227 . S
C2647 O2657 1.265 . S
O2648 C2647 1.227 . S
N2649 Co2646 2.121 . S
N2649 C2651 1.375 . S
N2649 C2652 1.313 . S
C2650 C2651 1.338 . S
C2650 N2653 1.377 . S
C2650 H2670 0.930 . S
C2651 N2649 1.375 . S
C2651 C2650 1.338 . S
C2651 H2655 0.931 . S
C2652 N2649 1.313 . S
C2652 N2653 1.344 . S
C2652 H2656 0.930 . S
N2653 C2650 1.377 . S
N2653 C2652 1.344 . S
O2654 Co2646 2.055 . S
O2654 C2658 1.253 . S
H2655 C2651 0.931 . S
H2656 C2652 0.930 . S
O2657 Co2646 2.039 . S
O2657 C2647 1.265 . S
C2658 O2654 1.253 . S
C2658 O2659 1.227 . S
O2659 C2658 1.227 . S
N2660 Co2646 2.140 . S
N2660 C2663 1.346 . S
N2660 C2664 1.345 . S
C2661 C2662 1.387 . S
C2661 C2665 1.391 . S
C2662 C2661 1.387 . S
C2662 C2663 1.369 . S
C2662 H2671 0.929 . S
C2663 N2660 1.346 . S
C2663 C2662 1.369 . S
C2663 H2666 0.928 . S
C2664 N2660 1.345 . S
C2664 C2665 1.371 . S
C2664 H2667 0.931 . S
C2665 C2661 1.391 . S
C2665 C2664 1.371 . S
C2665 H2672 0.930 . S
H2666 C2663 0.928 . S
H2667 C2664 0.931 . S
H2668 C2644 0.930 . S
H2669 C2641 0.930 . S
H2670 C2650 0.930 . S
H2671 C2662 0.929 . S
H2672 C2665 0.930 . S
C2673 C2674 1.351 . S
C2673 N2676 1.368 . S
C2673 H2678 0.931 . S
C2674 C2673 1.351 . S
C2674 N2675 1.373 . S
C2674 H2702 0.930 . S
N2675 C2674 1.373 . S
N2675 C2677 1.340 . S
N2676 C2673 1.368 . S
N2676 C2677 1.321 . S
N2676 Co2679 2.135 . S
C2677 N2675 1.340 . S
C2677 N2676 1.321 . S
C2677 H2701 0.930 . S
H2678 C2673 0.931 . S
Co2679 N2676 2.135 . S
Co2679 N2682 2.121 . S
Co2679 O2687 2.055 . S
Co2679 O2690 2.039 . S
Co2679 N2693 2.140 . S
C2680 O2681 1.227 . S
C2680 O2690 1.265 . S
O2681 C2680 1.227 . S
N2682 Co2679 2.121 . S
N2682 C2684 1.375 . S
N2682 C2685 1.313 . S
C2683 C2684 1.338 . S
C2683 N2686 1.377 . S
C2683 H2703 0.930 . S
C2684 N2682 1.375 . S
C2684 C2683 1.338 . S
C2684 H2688 0.931 . S
C2685 N2682 1.313 . S
C2685 N2686 1.344 . S
C2685 H2689 0.930 . S
N2686 C2683 1.377 . S
N2686 C2685 1.344 . S
O2687 Co2679 2.055 . S
O2687 C2691 1.253 . S
H2688 C2684 0.931 . S
H2689 C2685 0.930 . S
O2690 Co2679 2.039 . S
O2690 C2680 1.265 . S
C2691 O2687 1.253 . S
C2691 O2692 1.227 . S
O2692 C2691 1.227 . S
N2693 Co2679 2.140 . S
N2693 C2696 1.346 . S
N2693 C2697 1.345 . S
C2694 C2695 1.387 . S
C2694 C2698 1.391 . S
C2695 C2694 1.387 . S
C2695 C2696 1.369 . S
C2695 H2704 0.929 . S
C2696 N2693 1.346 . S
C2696 C2695 1.369 . S
C2696 H2699 0.928 . S
C2697 N2693 1.345 . S
C2697 C2698 1.371 . S
C2697 H2700 0.931 . S
C2698 C2694 1.391 . S
C2698 C2697 1.371 . S
C2698 H2705 0.930 . S
H2699 C2696 0.928 . S
H2700 C2697 0.931 . S
H2701 C2677 0.930 . S
H2702 C2674 0.930 . S
H2703 C2683 0.930 . S
H2704 C2695 0.929 . S
H2705 C2698 0.930 . S
C2706 C2707 1.351 . S
C2706 N2709 1.368 . S
C2706 H2711 0.931 . S
C2707 C2706 1.351 . S
C2707 N2708 1.373 . S
C2707 H2735 0.930 . S
N2708 C2707 1.373 . S
N2708 C2710 1.340 . S
N2709 C2706 1.368 . S
N2709 C2710 1.321 . S
N2709 Co2712 2.135 . S
C2710 N2708 1.340 . S
C2710 N2709 1.321 . S
C2710 H2734 0.930 . S
H2711 C2706 0.931 . S
Co2712 N2709 2.135 . S
Co2712 N2715 2.121 . S
Co2712 O2720 2.055 . S
Co2712 O2723 2.039 . S
Co2712 N2726 2.140 . S
C2713 O2714 1.227 . S
C2713 O2723 1.265 . S
O2714 C2713 1.227 . S
N2715 Co2712 2.121 . S
N2715 C2717 1.375 . S
N2715 C2718 1.313 . S
C2716 C2717 1.338 . S
C2716 N2719 1.377 . S
C2716 H2736 0.930 . S
C2717 N2715 1.375 . S
C2717 C2716 1.338 . S
C2717 H2721 0.931 . S
C2718 N2715 1.313 . S
C2718 N2719 1.344 . S
C2718 H2722 0.930 . S
N2719 C2716 1.377 . S
N2719 C2718 1.344 . S
O2720 Co2712 2.055 . S
O2720 C2724 1.253 . S
H2721 C2717 0.931 . S
H2722 C2718 0.930 . S
O2723 Co2712 2.039 . S
O2723 C2713 1.265 . S
C2724 O2720 1.253 . S
C2724 O2725 1.227 . S
O2725 C2724 1.227 . S
N2726 Co2712 2.140 . S
N2726 C2729 1.346 . S
N2726 C2730 1.345 . S
C2727 C2728 1.387 . S
C2727 C2731 1.391 . S
C2728 C2727 1.387 . S
C2728 C2729 1.369 . S
C2728 H2737 0.929 . S
C2729 N2726 1.346 . S
C2729 C2728 1.369 . S
C2729 H2732 0.928 . S
C2730 N2726 1.345 . S
C2730 C2731 1.371 . S
C2730 H2733 0.931 . S
C2731 C2727 1.391 . S
C2731 C2730 1.371 . S
C2731 H2738 0.930 . S
H2732 C2729 0.928 . S
H2733 C2730 0.931 . S
H2734 C2710 0.930 . S
H2735 C2707 0.930 . S
H2736 C2716 0.930 . S
H2737 C2728 0.929 . S
H2738 C2731 0.930 . S
C2739 C2740 1.351 . S
C2739 N2742 1.368 . S
C2739 H2744 0.931 . S
C2740 C2739 1.351 . S
C2740 N2741 1.373 . S
C2740 H2768 0.930 . S
N2741 C2740 1.373 . S
N2741 C2743 1.340 . S
N2742 C2739 1.368 . S
N2742 C2743 1.321 . S
N2742 Co2745 2.135 . S
C2743 N2741 1.340 . S
C2743 N2742 1.321 . S
C2743 H2767 0.930 . S
H2744 C2739 0.931 . S
Co2745 N2742 2.135 . S
Co2745 N2748 2.121 . S
Co2745 O2753 2.055 . S
Co2745 O2756 2.039 . S
Co2745 N2759 2.140 . S
C2746 O2747 1.227 . S
C2746 O2756 1.265 . S
O2747 C2746 1.227 . S
N2748 Co2745 2.121 . S
N2748 C2750 1.375 . S
N2748 C2751 1.313 . S
C2749 C2750 1.338 . S
C2749 N2752 1.377 . S
C2749 H2769 0.930 . S
C2750 N2748 1.375 . S
C2750 C2749 1.338 . S
C2750 H2754 0.931 . S
C2751 N2748 1.313 . S
C2751 N2752 1.344 . S
C2751 H2755 0.930 . S
N2752 C2749 1.377 . S
N2752 C2751 1.344 . S
O2753 Co2745 2.055 . S
O2753 C2757 1.253 . S
H2754 C2750 0.931 . S
H2755 C2751 0.930 . S
O2756 Co2745 2.039 . S
O2756 C2746 1.265 . S
C2757 O2753 1.253 . S
C2757 O2758 1.227 . S
O2758 C2757 1.227 . S
N2759 Co2745 2.140 . S
N2759 C2762 1.346 . S
N2759 C2763 1.345 . S
C2760 C2761 1.387 . S
C2760 C2764 1.391 . S
C2761 C2760 1.387 . S
C2761 C2762 1.369 . S
C2761 H2770 0.929 . S
C2762 N2759 1.346 . S
C2762 C2761 1.369 . S
C2762 H2765 0.928 . S
C2763 N2759 1.345 . S
C2763 C2764 1.371 . S
C2763 H2766 0.931 . S
C2764 C2760 1.391 . S
C2764 C2763 1.371 . S
C2764 H2771 0.930 . S
H2765 C2762 0.928 . S
H2766 C2763 0.931 . S
H2767 C2743 0.930 . S
H2768 C2740 0.930 . S
H2769 C2749 0.930 . S
H2770 C2761 0.929 . S
H2771 C2764 0.930 . S
C2772 C2773 1.351 . S
C2772 N2775 1.368 . S
C2772 H2777 0.931 . S
C2773 C2772 1.351 . S
C2773 N2774 1.373 . S
C2773 H2801 0.930 . S
N2774 C2773 1.373 . S
N2774 C2776 1.340 . S
N2775 C2772 1.368 . S
N2775 C2776 1.321 . S
N2775 Co2778 2.135 . S
C2776 N2774 1.340 . S
C2776 N2775 1.321 . S
C2776 H2800 0.930 . S
H2777 C2772 0.931 . S
Co2778 N2775 2.135 . S
Co2778 N2781 2.121 . S
Co2778 O2786 2.055 . S
Co2778 O2789 2.039 . S
Co2778 N2792 2.140 . S
C2779 O2780 1.227 . S
C2779 O2789 1.265 . S
O2780 C2779 1.227 . S
N2781 Co2778 2.121 . S
N2781 C2783 1.375 . S
N2781 C2784 1.313 . S
C2782 C2783 1.338 . S
C2782 N2785 1.377 . S
C2782 H2802 0.930 . S
C2783 N2781 1.375 . S
C2783 C2782 1.338 . S
C2783 H2787 0.931 . S
C2784 N2781 1.313 . S
C2784 N2785 1.344 . S
C2784 H2788 0.930 . S
N2785 C2782 1.377 . S
N2785 C2784 1.344 . S
O2786 Co2778 2.055 . S
O2786 C2790 1.253 . S
H2787 C2783 0.931 . S
H2788 C2784 0.930 . S
O2789 Co2778 2.039 . S
O2789 C2779 1.265 . S
C2790 O2786 1.253 . S
C2790 O2791 1.227 . S
O2791 C2790 1.227 . S
N2792 Co2778 2.140 . S
N2792 C2795 1.346 . S
N2792 C2796 1.345 . S
C2793 C2794 1.387 . S
C2793 C2797 1.391 . S
C2794 C2793 1.387 . S
C2794 C2795 1.369 . S
C2794 H2803 0.929 . S
C2795 N2792 1.346 . S
C2795 C2794 1.369 . S
C2795 H2798 0.928 . S
C2796 N2792 1.345 . S
C2796 C2797 1.371 . S
C2796 H2799 0.931 . S
C2797 C2793 1.391 . S
C2797 C2796 1.371 . S
C2797 H2804 0.930 . S
H2798 C2795 0.928 . S
H2799 C2796 0.931 . S
H2800 C2776 0.930 . S
H2801 C2773 0.930 . S
H2802 C2782 0.930 . S
H2803 C2794 0.929 . S
H2804 C2797 0.930 . S
C2805 C2806 1.351 . S
C2805 N2808 1.368 . S
C2805 H2810 0.931 . S
C2806 C2805 1.351 . S
C2806 N2807 1.373 . S
C2806 H2834 0.930 . S
N2807 C2806 1.373 . S
N2807 C2809 1.340 . S
N2808 C2805 1.368 . S
N2808 C2809 1.321 . S
N2808 Co2811 2.135 . S
C2809 N2807 1.340 . S
C2809 N2808 1.321 . S
C2809 H2833 0.930 . S
H2810 C2805 0.931 . S
Co2811 N2808 2.135 . S
Co2811 N2814 2.121 . S
Co2811 O2819 2.055 . S
Co2811 O2822 2.039 . S
Co2811 N2825 2.140 . S
C2812 O2813 1.227 . S
C2812 O2822 1.265 . S
O2813 C2812 1.227 . S
N2814 Co2811 2.121 . S
N2814 C2816 1.375 . S
N2814 C2817 1.313 . S
C2815 C2816 1.338 . S
C2815 N2818 1.377 . S
C2815 H2835 0.930 . S
C2816 N2814 1.375 . S
C2816 C2815 1.338 . S
C2816 H2820 0.931 . S
C2817 N2814 1.313 . S
C2817 N2818 1.344 . S
C2817 H2821 0.930 . S
N2818 C2815 1.377 . S
N2818 C2817 1.344 . S
O2819 Co2811 2.055 . S
O2819 C2823 1.253 . S
H2820 C2816 0.931 . S
H2821 C2817 0.930 . S
O2822 Co2811 2.039 . S
O2822 C2812 1.265 . S
C2823 O2819 1.253 . S
C2823 O2824 1.227 . S
O2824 C2823 1.227 . S
N2825 Co2811 2.140 . S
N2825 C2828 1.346 . S
N2825 C2829 1.345 . S
C2826 C2827 1.387 . S
C2826 C2830 1.391 . S
C2827 C2826 1.387 . S
C2827 C2828 1.369 . S
C2827 H2836 0.929 . S
C2828 N2825 1.346 . S
C2828 C2827 1.369 . S
C2828 H2831 0.928 . S
C2829 N2825 1.345 . S
C2829 C2830 1.371 . S
C2829 H2832 0.931 . S
C2830 C2826 1.391 . S
C2830 C2829 1.371 . S
C2830 H2837 0.930 . S
H2831 C2828 0.928 . S
H2832 C2829 0.931 . S
H2833 C2809 0.930 . S
H2834 C2806 0.930 . S
H2835 C2815 0.930 . S
H2836 C2827 0.929 . S
H2837 C2830 0.930 . S
C2838 C2839 1.351 . S
C2838 N2841 1.368 . S
C2838 H2843 0.931 . S
C2839 C2838 1.351 . S
C2839 N2840 1.373 . S
C2839 H2867 0.930 . S
N2840 C2839 1.373 . S
N2840 C2842 1.340 . S
N2841 C2838 1.368 . S
N2841 C2842 1.321 . S
N2841 Co2844 2.135 . S
C2842 N2840 1.340 . S
C2842 N2841 1.321 . S
C2842 H2866 0.930 . S
H2843 C2838 0.931 . S
Co2844 N2841 2.135 . S
Co2844 N2847 2.121 . S
Co2844 O2852 2.055 . S
Co2844 O2855 2.039 . S
Co2844 N2858 2.140 . S
C2845 O2846 1.227 . S
C2845 O2855 1.265 . S
O2846 C2845 1.227 . S
N2847 Co2844 2.121 . S
N2847 C2849 1.375 . S
N2847 C2850 1.313 . S
C2848 C2849 1.338 . S
C2848 N2851 1.377 . S
C2848 H2868 0.930 . S
C2849 N2847 1.375 . S
C2849 C2848 1.338 . S
C2849 H2853 0.931 . S
C2850 N2847 1.313 . S
C2850 N2851 1.344 . S
C2850 H2854 0.930 . S
N2851 C2848 1.377 . S
N2851 C2850 1.344 . S
O2852 Co2844 2.055 . S
O2852 C2856 1.253 . S
H2853 C2849 0.931 . S
H2854 C2850 0.930 . S
O2855 Co2844 2.039 . S
O2855 C2845 1.265 . S
C2856 O2852 1.253 . S
C2856 O2857 1.227 . S
O2857 C2856 1.227 . S
N2858 Co2844 2.140 . S
N2858 C2861 1.346 . S
N2858 C2862 1.345 . S
C2859 C2860 1.387 . S
C2859 C2863 1.391 . S
C2860 C2859 1.387 . S
C2860 C2861 1.369 . S
C2860 H2869 0.929 . S
C2861 N2858 1.346 . S
C2861 C2860 1.369 . S
C2861 H2864 0.928 . S
C2862 N2858 1.345 . S
C2862 C2863 1.371 . S
C2862 H2865 0.931 . S
C2863 C2859 1.391 . S
C2863 C2862 1.371 . S
C2863 H2870 0.930 . S
H2864 C2861 0.928 . S
H2865 C2862 0.931 . S
H2866 C2842 0.930 . S
H2867 C2839 0.930 . S
H2868 C2848 0.930 . S
H2869 C2860 0.929 . S
H2870 C2863 0.930 . S
C2871 C2872 1.351 . S
C2871 N2874 1.368 . S
C2871 H2876 0.931 . S
C2872 C2871 1.351 . S
C2872 N2873 1.373 . S
C2872 H2900 0.930 . S
N2873 C2872 1.373 . S
N2873 C2875 1.340 . S
N2874 C2871 1.368 . S
N2874 C2875 1.321 . S
N2874 Co2877 2.135 . S
C2875 N2873 1.340 . S
C2875 N2874 1.321 . S
C2875 H2899 0.930 . S
H2876 C2871 0.931 . S
Co2877 N2874 2.135 . S
Co2877 N2880 2.121 . S
Co2877 O2885 2.055 . S
Co2877 O2888 2.039 . S
Co2877 N2891 2.140 . S
C2878 O2879 1.227 . S
C2878 O2888 1.265 . S
O2879 C2878 1.227 . S
N2880 Co2877 2.121 . S
N2880 C2882 1.375 . S
N2880 C2883 1.313 . S
C2881 C2882 1.338 . S
C2881 N2884 1.377 . S
C2881 H2901 0.930 . S
C2882 N2880 1.375 . S
C2882 C2881 1.338 . S
C2882 H2886 0.931 . S
C2883 N2880 1.313 . S
C2883 N2884 1.344 . S
C2883 H2887 0.930 . S
N2884 C2881 1.377 . S
N2884 C2883 1.344 . S
O2885 Co2877 2.055 . S
O2885 C2889 1.253 . S
H2886 C2882 0.931 . S
H2887 C2883 0.930 . S
O2888 Co2877 2.039 . S
O2888 C2878 1.265 . S
C2889 O2885 1.253 . S
C2889 O2890 1.227 . S
O2890 C2889 1.227 . S
N2891 Co2877 2.140 . S
N2891 C2894 1.346 . S
N2891 C2895 1.345 . S
C2892 C2893 1.387 . S
C2892 C2896 1.391 . S
C2893 C2892 1.387 . S
C2893 C2894 1.369 . S
C2893 H2902 0.929 . S
C2894 N2891 1.346 . S
C2894 C2893 1.369 . S
C2894 H2897 0.928 . S
C2895 N2891 1.345 . S
C2895 C2896 1.371 . S
C2895 H2898 0.931 . S
C2896 C2892 1.391 . S
C2896 C2895 1.371 . S
C2896 H2903 0.930 . S
H2897 C2894 0.928 . S
H2898 C2895 0.931 . S
H2899 C2875 0.930 . S
H2900 C2872 0.930 . S
H2901 C2881 0.930 . S
H2902 C2893 0.929 . S
H2903 C2896 0.930 . S
C2904 C2905 1.351 . S
C2904 N2907 1.368 . S
C2904 H2909 0.931 . S
C2905 C2904 1.351 . S
C2905 N2906 1.373 . S
C2905 H2933 0.930 . S
N2906 C2905 1.373 . S
N2906 C2908 1.340 . S
N2907 C2904 1.368 . S
N2907 C2908 1.321 . S
N2907 Co2910 2.135 . S
C2908 N2906 1.340 . S
C2908 N2907 1.321 . S
C2908 H2932 0.930 . S
H2909 C2904 0.931 . S
Co2910 N2907 2.135 . S
Co2910 N2913 2.121 . S
Co2910 O2918 2.055 . S
Co2910 O2921 2.039 . S
Co2910 N2924 2.140 . S
C2911 O2912 1.227 . S
C2911 O2921 1.265 . S
O2912 C2911 1.227 . S
N2913 Co2910 2.121 . S
N2913 C2915 1.375 . S
N2913 C2916 1.313 . S
C2914 C2915 1.338 . S
C2914 N2917 1.377 . S
C2914 H2934 0.930 . S
C2915 N2913 1.375 . S
C2915 C2914 1.338 . S
C2915 H2919 0.931 . S
C2916 N2913 1.313 . S
C2916 N2917 1.344 . S
C2916 H2920 0.930 . S
N2917 C2914 1.377 . S
N2917 C2916 1.344 . S
O2918 Co2910 2.055 . S
O2918 C2922 1.253 . S
H2919 C2915 0.931 . S
H2920 C2916 0.930 . S
O2921 Co2910 2.039 . S
O2921 C2911 1.265 . S
C2922 O2918 1.253 . S
C2922 O2923 1.227 . S
O2923 C2922 1.227 . S
N2924 Co2910 2.140 . S
N2924 C2927 1.346 . S
N2924 C2928 1.345 . S
C2925 C2926 1.387 . S
C2925 C2929 1.391 . S
C2926 C2925 1.387 . S
C2926 C2927 1.369 . S
C2926 H2935 0.929 . S
C2927 N2924 1.346 . S
C2927 C2926 1.369 . S
C2927 H2930 0.928 . S
C2928 N2924 1.345 . S
C2928 C2929 1.371 . S
C2928 H2931 0.931 . S
C2929 C2925 1.391 . S
C2929 C2928 1.371 . S
C2929 H2936 0.930 . S
H2930 C2927 0.928 . S
H2931 C2928 0.931 . S
H2932 C2908 0.930 . S
H2933 C2905 0.930 . S
H2934 C2914 0.930 . S
H2935 C2926 0.929 . S
H2936 C2929 0.930 . S
C2937 C2938 1.351 . S
C2937 N2940 1.368 . S
C2937 H2942 0.931 . S
C2938 C2937 1.351 . S
C2938 N2939 1.373 . S
C2938 H2966 0.930 . S
N2939 C2938 1.373 . S
N2939 C2941 1.340 . S
N2940 C2937 1.368 . S
N2940 C2941 1.321 . S
N2940 Co2943 2.135 . S
C2941 N2939 1.340 . S
C2941 N2940 1.321 . S
C2941 H2965 0.930 . S
H2942 C2937 0.931 . S
Co2943 N2940 2.135 . S
Co2943 N2946 2.121 . S
Co2943 O2951 2.055 . S
Co2943 O2954 2.039 . S
Co2943 N2957 2.140 . S
C2944 O2945 1.227 . S
C2944 O2954 1.265 . S
O2945 C2944 1.227 . S
N2946 Co2943 2.121 . S
N2946 C2948 1.375 . S
N2946 C2949 1.313 . S
C2947 C2948 1.338 . S
C2947 N2950 1.377 . S
C2947 H2967 0.930 . S
C2948 N2946 1.375 . S
C2948 C2947 1.338 . S
C2948 H2952 0.931 . S
C2949 N2946 1.313 . S
C2949 N2950 1.344 . S
C2949 H2953 0.930 . S
N2950 C2947 1.377 . S
N2950 C2949 1.344 . S
O2951 Co2943 2.055 . S
O2951 C2955 1.253 . S
H2952 C2948 0.931 . S
H2953 C2949 0.930 . S
O2954 Co2943 2.039 . S
O2954 C2944 1.265 . S
C2955 O2951 1.253 . S
C2955 O2956 1.227 . S
O2956 C2955 1.227 . S
N2957 Co2943 2.140 . S
N2957 C2960 1.346 . S
N2957 C2961 1.345 . S
C2958 C2959 1.387 . S
C2958 C2962 1.391 . S
C2959 C2958 1.387 . S
C2959 C2960 1.369 . S
C2959 H2968 0.929 . S
C2960 N2957 1.346 . S
C2960 C2959 1.369 . S
C2960 H2963 0.928 . S
C2961 N2957 1.345 . S
C2961 C2962 1.371 . S
C2961 H2964 0.931 . S
C2962 C2958 1.391 . S
C2962 C2961 1.371 . S
C2962 H2969 0.930 . S
H2963 C2960 0.928 . S
H2964 C2961 0.931 . S
H2965 C2941 0.930 . S
H2966 C2938 0.930 . S
H2967 C2947 0.930 . S
H2968 C2959 0.929 . S
H2969 C2962 0.930 . S
C2970 C2971 1.351 . S
C2970 N2973 1.368 . S
C2970 H2975 0.931 . S
C2971 C2970 1.351 . S
C2971 N2972 1.373 . S
C2971 H2999 0.930 . S
N2972 C2971 1.373 . S
N2972 C2974 1.340 . S
N2973 C2970 1.368 . S
N2973 C2974 1.321 . S
N2973 Co2976 2.135 . S
C2974 N2972 1.340 . S
C2974 N2973 1.321 . S
C2974 H2998 0.930 . S
H2975 C2970 0.931 . S
Co2976 N2973 2.135 . S
Co2976 N2979 2.121 . S
Co2976 O2984 2.055 . S
Co2976 O2987 2.039 . S
Co2976 N2990 2.140 . S
C2977 O2978 1.227 . S
C2977 O2987 1.265 . S
O2978 C2977 1.227 . S
N2979 Co2976 2.121 . S
N2979 C2981 1.375 . S
N2979 C2982 1.313 . S
C2980 C2981 1.338 . S
C2980 N2983 1.377 . S
C2980 H3000 0.930 . S
C2981 N2979 1.375 . S
C2981 C2980 1.338 . S
C2981 H2985 0.931 . S
C2982 N2979 1.313 . S
C2982 N2983 1.344 . S
C2982 H2986 0.930 . S
N2983 C2980 1.377 . S
N2983 C2982 1.344 . S
O2984 Co2976 2.055 . S
O2984 C2988 1.253 . S
H2985 C2981 0.931 . S
H2986 C2982 0.930 . S
O2987 Co2976 2.039 . S
O2987 C2977 1.265 . S
C2988 O2984 1.253 . S
C2988 O2989 1.227 . S
O2989 C2988 1.227 . S
N2990 Co2976 2.140 . S
N2990 C2993 1.346 . S
N2990 C2994 1.345 . S
C2991 C2992 1.387 . S
C2991 C2995 1.391 . S
C2992 C2991 1.387 . S
C2992 C2993 1.369 . S
C2992 H3001 0.929 . S
C2993 N2990 1.346 . S
C2993 C2992 1.369 . S
C2993 H2996 0.928 . S
C2994 N2990 1.345 . S
C2994 C2995 1.371 . S
C2994 H2997 0.931 . S
C2995 C2991 1.391 . S
C2995 C2994 1.371 . S
C2995 H3002 0.930 . S
H2996 C2993 0.928 . S
H2997 C2994 0.931 . S
H2998 C2974 0.930 . S
H2999 C2971 0.930 . S
H3000 C2980 0.930 . S
H3001 C2992 0.929 . S
H3002 C2995 0.930 . S
C3003 C3004 1.351 . S
C3003 N3006 1.368 . S
C3003 H3008 0.931 . S
C3004 C3003 1.351 . S
C3004 N3005 1.373 . S
C3004 H3032 0.930 . S
N3005 C3004 1.373 . S
N3005 C3007 1.340 . S
N3006 C3003 1.368 . S
N3006 C3007 1.321 . S
N3006 Co3009 2.135 . S
C3007 N3005 1.340 . S
C3007 N3006 1.321 . S
C3007 H3031 0.930 . S
H3008 C3003 0.931 . S
Co3009 N3006 2.135 . S
Co3009 N3012 2.121 . S
Co3009 O3017 2.055 . S
Co3009 O3020 2.039 . S
Co3009 N3023 2.140 . S
C3010 O3011 1.207 1_554 S
C3010 O3020 1.310 . S
O3011 C3010 1.207 1_556 S
N3012 Co3009 2.121 . S
N3012 C3014 1.375 . S
N3012 C3015 1.313 . S
C3013 C3014 1.338 . S
C3013 N3016 1.377 . S
C3013 H3033 0.930 1_554 S
C3014 N3012 1.375 . S
C3014 C3013 1.338 . S
C3014 H3018 0.931 1_554 S
C3015 N3012 1.313 . S
C3015 N3016 1.344 . S
C3015 H3019 0.930 . S
N3016 C3013 1.377 . S
N3016 C3015 1.344 . S
O3017 Co3009 2.055 . S
O3017 C3021 1.253 . S
H3018 C3014 0.931 1_556 S
H3019 C3015 0.930 . S
O3020 Co3009 2.039 . S
O3020 C3010 1.310 . S
C3021 O3017 1.253 . S
C3021 O3022 1.227 . S
O3022 C3021 1.227 . S
N3023 Co3009 2.140 . S
N3023 C3026 1.346 . S
N3023 C3027 1.345 . S
C3024 C3025 1.392 . S
C3024 C3028 1.370 1_556 S
C3025 C3024 1.392 . S
C3025 C3026 1.369 1_556 S
C3025 H3034 0.929 . S
C3026 N3023 1.346 . S
C3026 C3025 1.369 1_554 S
C3026 H3029 0.928 . S
C3027 N3023 1.345 . S
C3027 C3028 1.371 . S
C3027 H3030 0.931 . S
C3028 C3024 1.370 1_554 S
C3028 C3027 1.371 . S
C3028 H3035 0.930 . S
H3029 C3026 0.928 . S
H3030 C3027 0.931 . S
H3031 C3007 0.930 . S
H3032 C3004 0.930 . S
H3033 C3013 0.930 1_556 S
H3034 C3025 0.929 . S
H3035 C3028 0.930 . S
C3036 C3037 1.351 . S
C3036 N3039 1.368 . S
C3036 H3041 0.931 . S
C3037 C3036 1.351 . S
C3037 N3038 1.373 . S
C3037 H3065 0.930 . S
N3038 C3037 1.373 . S
N3038 C3040 1.340 . S
N3039 C3036 1.368 . S
N3039 C3040 1.321 . S
N3039 Co3042 2.135 . S
C3040 N3038 1.340 . S
C3040 N3039 1.321 . S
C3040 H3064 0.930 . S
H3041 C3036 0.931 . S
Co3042 N3039 2.135 . S
Co3042 N3045 2.121 . S
Co3042 O3050 2.055 . S
Co3042 O3053 2.039 . S
Co3042 N3056 2.140 . S
C3043 O3044 1.227 . S
C3043 O3053 1.265 . S
O3044 C3043 1.227 . S
N3045 Co3042 2.121 . S
N3045 C3047 1.375 . S
N3045 C3048 1.313 . S
C3046 C3047 1.338 . S
C3046 N3049 1.377 . S
C3046 H3066 0.930 . S
C3047 N3045 1.375 . S
C3047 C3046 1.338 . S
C3047 H3051 0.931 . S
C3048 N3045 1.313 . S
C3048 N3049 1.344 . S
C3048 H3052 0.930 . S
N3049 C3046 1.377 . S
N3049 C3048 1.344 . S
O3050 Co3042 2.055 . S
O3050 C3054 1.253 . S
H3051 C3047 0.931 . S
H3052 C3048 0.930 . S
O3053 Co3042 2.039 . S
O3053 C3043 1.265 . S
C3054 O3050 1.253 . S
C3054 O3055 1.227 . S
O3055 C3054 1.227 . S
N3056 Co3042 2.140 . S
N3056 C3059 1.346 . S
N3056 C3060 1.345 . S
C3057 C3058 1.387 . S
C3057 C3061 1.391 . S
C3058 C3057 1.387 . S
C3058 C3059 1.369 . S
C3058 H3067 0.929 . S
C3059 N3056 1.346 . S
C3059 C3058 1.369 . S
C3059 H3062 0.928 . S
C3060 N3056 1.345 . S
C3060 C3061 1.371 . S
C3060 H3063 0.931 . S
C3061 C3057 1.391 . S
C3061 C3060 1.371 . S
C3061 H3068 0.930 . S
H3062 C3059 0.928 . S
H3063 C3060 0.931 . S
H3064 C3040 0.930 . S
H3065 C3037 0.930 . S
H3066 C3046 0.930 . S
H3067 C3058 0.929 . S
H3068 C3061 0.930 . S
C3069 C3070 1.351 . S
C3069 N3072 1.368 . S
C3069 H3074 0.931 . S
C3070 C3069 1.351 . S
C3070 N3071 1.373 . S
C3070 H3098 0.930 . S
N3071 C3070 1.373 . S
N3071 C3073 1.340 . S
N3072 C3069 1.368 . S
N3072 C3073 1.321 . S
N3072 Co3075 2.135 . S
C3073 N3071 1.340 . S
C3073 N3072 1.321 . S
C3073 H3097 0.930 . S
H3074 C3069 0.931 . S
Co3075 N3072 2.135 . S
Co3075 N3078 2.121 . S
Co3075 O3083 2.055 . S
Co3075 O3086 2.039 . S
Co3075 N3089 2.140 . S
C3076 O3077 1.207 1_556 S
C3076 O3086 1.311 . S
O3077 C3076 1.207 1_554 S
N3078 Co3075 2.121 . S
N3078 C3080 1.375 . S
N3078 C3081 1.313 . S
C3079 C3080 1.338 . S
C3079 N3082 1.377 . S
C3079 H3099 0.930 1_556 S
C3080 N3078 1.375 . S
C3080 C3079 1.338 . S
C3080 H3084 0.931 1_556 S
C3081 N3078 1.313 . S
C3081 N3082 1.344 . S
C3081 H3085 0.930 . S
N3082 C3079 1.377 . S
N3082 C3081 1.344 . S
O3083 Co3075 2.055 . S
O3083 C3087 1.253 . S
H3084 C3080 0.931 1_554 S
H3085 C3081 0.930 . S
O3086 Co3075 2.039 . S
O3086 C3076 1.311 . S
C3087 O3083 1.253 . S
C3087 O3088 1.227 . S
O3088 C3087 1.227 . S
N3089 Co3075 2.140 . S
N3089 C3092 1.346 . S
N3089 C3093 1.345 . S
C3090 C3091 1.392 . S
C3090 C3094 1.370 1_554 S
C3091 C3090 1.392 . S
C3091 C3092 1.369 1_554 S
C3091 H3100 0.929 . S
C3092 N3089 1.346 . S
C3092 C3091 1.369 1_556 S
C3092 H3095 0.928 . S
C3093 N3089 1.345 . S
C3093 C3094 1.371 . S
C3093 H3096 0.931 . S
C3094 C3090 1.370 1_556 S
C3094 C3093 1.371 . S
C3094 H3101 0.930 . S
H3095 C3092 0.928 . S
H3096 C3093 0.931 . S
H3097 C3073 0.930 . S
H3098 C3070 0.930 . S
H3099 C3079 0.930 1_554 S
H3100 C3091 0.929 . S
H3101 C3094 0.930 . S
C3102 C3103 1.351 . S
C3102 N3105 1.368 . S
C3102 H3107 0.931 . S
C3103 C3102 1.351 . S
C3103 N3104 1.373 . S
C3103 H3131 0.930 . S
N3104 C3103 1.373 . S
N3104 C3106 1.340 . S
N3105 C3102 1.368 . S
N3105 C3106 1.321 . S
N3105 Co3108 2.135 . S
C3106 N3104 1.340 . S
C3106 N3105 1.321 . S
C3106 H3130 0.930 . S
H3107 C3102 0.931 . S
Co3108 N3105 2.135 . S
Co3108 N3111 2.121 . S
Co3108 O3116 2.055 . S
Co3108 O3119 2.039 . S
Co3108 N3122 2.140 . S
C3109 O3110 1.227 . S
C3109 O3119 1.265 . S
O3110 C3109 1.227 . S
N3111 Co3108 2.121 . S
N3111 C3113 1.375 . S
N3111 C3114 1.313 . S
C3112 C3113 1.338 . S
C3112 N3115 1.377 . S
C3112 H3132 0.930 . S
C3113 N3111 1.375 . S
C3113 C3112 1.338 . S
C3113 H3117 0.931 . S
C3114 N3111 1.313 . S
C3114 N3115 1.344 . S
C3114 H3118 0.930 . S
N3115 C3112 1.377 . S
N3115 C3114 1.344 . S
O3116 Co3108 2.055 . S
O3116 C3120 1.253 . S
H3117 C3113 0.931 . S
H3118 C3114 0.930 . S
O3119 Co3108 2.039 . S
O3119 C3109 1.265 . S
C3120 O3116 1.253 . S
C3120 O3121 1.227 . S
O3121 C3120 1.227 . S
N3122 Co3108 2.140 . S
N3122 C3125 1.346 . S
N3122 C3126 1.345 . S
C3123 C3124 1.387 . S
C3123 C3127 1.391 . S
C3124 C3123 1.387 . S
C3124 C3125 1.369 . S
C3124 H3133 0.929 . S
C3125 N3122 1.346 . S
C3125 C3124 1.369 . S
C3125 H3128 0.928 . S
C3126 N3122 1.345 . S
C3126 C3127 1.371 . S
C3126 H3129 0.931 . S
C3127 C3123 1.391 . S
C3127 C3126 1.371 . S
C3127 H3134 0.930 . S
H3128 C3125 0.928 . S
H3129 C3126 0.931 . S
H3130 C3106 0.930 . S
H3131 C3103 0.930 . S
H3132 C3112 0.930 . S
H3133 C3124 0.929 . S
H3134 C3127 0.930 . S
C3135 C3136 1.351 . S
C3135 N3138 1.368 . S
C3135 H3140 0.931 . S
C3136 C3135 1.351 . S
C3136 N3137 1.373 . S
C3136 H3164 0.930 . S
N3137 C3136 1.373 . S
N3137 C3139 1.340 . S
N3138 C3135 1.368 . S
N3138 C3139 1.321 . S
N3138 Co3141 2.135 . S
C3139 N3137 1.340 . S
C3139 N3138 1.321 . S
C3139 H3163 0.930 . S
H3140 C3135 0.931 . S
Co3141 N3138 2.135 . S
Co3141 N3144 2.121 . S
Co3141 O3149 2.055 . S
Co3141 O3152 2.039 . S
Co3141 N3155 2.140 . S
C3142 O3143 1.227 . S
C3142 O3152 1.265 . S
O3143 C3142 1.227 . S
N3144 Co3141 2.121 . S
N3144 C3146 1.375 . S
N3144 C3147 1.313 . S
C3145 C3146 1.338 . S
C3145 N3148 1.377 . S
C3145 H3165 0.930 . S
C3146 N3144 1.375 . S
C3146 C3145 1.338 . S
C3146 H3150 0.931 . S
C3147 N3144 1.313 . S
C3147 N3148 1.344 . S
C3147 H3151 0.930 . S
N3148 C3145 1.377 . S
N3148 C3147 1.344 . S
O3149 Co3141 2.055 . S
O3149 C3153 1.253 . S
H3150 C3146 0.931 . S
H3151 C3147 0.930 . S
O3152 Co3141 2.039 . S
O3152 C3142 1.265 . S
C3153 O3149 1.253 . S
C3153 O3154 1.227 . S
O3154 C3153 1.227 . S
N3155 Co3141 2.140 . S
N3155 C3158 1.346 . S
N3155 C3159 1.345 . S
C3156 C3157 1.387 . S
C3156 C3160 1.391 . S
C3157 C3156 1.387 . S
C3157 C3158 1.369 . S
C3157 H3166 0.929 . S
C3158 N3155 1.346 . S
C3158 C3157 1.369 . S
C3158 H3161 0.928 . S
C3159 N3155 1.345 . S
C3159 C3160 1.371 . S
C3159 H3162 0.931 . S
C3160 C3156 1.391 . S
C3160 C3159 1.371 . S
C3160 H3167 0.930 . S
H3161 C3158 0.928 . S
H3162 C3159 0.931 . S
H3163 C3139 0.930 . S
H3164 C3136 0.930 . S
H3165 C3145 0.930 . S
H3166 C3157 0.929 . S
H3167 C3160 0.930 . S
H3168 C3174 0.930 . S
H3169 C3178 0.930 . S
H3170 C3183 0.929 . S
H3171 C3181 0.929 . S
H3172 C3176 0.929 . S
H3173 C3182 0.929 . S
C3174 H3168 0.930 . S
C3174 C3175 1.367 . S
C3174 C3182 1.378 . S
C3175 C3174 1.367 . S
C3175 C3183 1.433 . S
C3176 H3172 0.929 . S
C3176 C3178 1.378 . S
C3176 C3180 1.350 . S
C3177 C3180 1.463 . S
C3177 C3182 1.350 . S
C3177 N3185 1.427 . S
C3178 H3169 0.930 . S
C3178 C3176 1.378 . S
C3178 C3179 1.367 . S
C3179 C3178 1.367 . S
C3179 C3181 1.433 . S
C3180 C3176 1.350 . S
C3180 C3177 1.463 . S
C3180 N3184 1.427 . S
C3181 H3171 0.929 . S
C3181 C3179 1.433 . S
C3181 N3184 1.384 . S
C3182 H3173 0.929 . S
C3182 C3174 1.378 . S
C3182 C3177 1.350 . S
C3183 H3170 0.929 . S
C3183 C3175 1.433 . S
C3183 N3185 1.384 . S
N3184 C3180 1.427 . S
N3184 C3181 1.384 . S
N3185 C3177 1.427 . S
N3185 C3183 1.384 . S
H3186 C3192 0.930 . S
H3187 C3196 0.930 . S
H3188 C3201 0.929 . S
H3189 C3199 0.929 . S
H3190 C3194 0.929 . S
H3191 C3200 0.929 . S
C3192 H3186 0.930 . S
C3192 C3193 1.367 . S
C3192 C3200 1.378 . S
C3193 C3192 1.367 . S
C3193 C3201 1.433 . S
C3194 H3190 0.929 . S
C3194 C3196 1.378 . S
C3194 C3198 1.350 . S
C3195 C3198 1.463 . S
C3195 C3200 1.350 . S
C3195 N3203 1.427 . S
C3196 H3187 0.930 . S
C3196 C3194 1.378 . S
C3196 C3197 1.367 . S
C3197 C3196 1.367 . S
C3197 C3199 1.433 . S
C3198 C3194 1.350 . S
C3198 C3195 1.463 . S
C3198 N3202 1.427 . S
C3199 H3189 0.929 . S
C3199 C3197 1.433 . S
C3199 N3202 1.384 . S
C3200 H3191 0.929 . S
C3200 C3192 1.378 . S
C3200 C3195 1.350 . S
C3201 H3188 0.929 . S
C3201 C3193 1.433 . S
C3201 N3203 1.384 . S
N3202 C3198 1.427 . S
N3202 C3199 1.384 . S
N3203 C3195 1.427 . S
N3203 C3201 1.384 . S
H3204 C3210 0.930 . S
H3205 C3214 0.930 . S
H3206 C3219 0.929 . S
H3207 C3217 0.929 . S
H3208 C3212 0.929 . S
H3209 C3218 0.929 . S
C3210 H3204 0.930 . S
C3210 C3211 1.367 . S
C3210 C3218 1.378 . S
C3211 C3210 1.367 . S
C3211 C3219 1.433 . S
C3212 H3208 0.929 . S
C3212 C3214 1.378 . S
C3212 C3216 1.350 . S
C3213 C3216 1.463 . S
C3213 C3218 1.350 . S
C3213 N3221 1.427 . S
C3214 H3205 0.930 . S
C3214 C3212 1.378 . S
C3214 C3215 1.367 . S
C3215 C3214 1.367 . S
C3215 C3217 1.433 . S
C3216 C3212 1.350 . S
C3216 C3213 1.463 . S
C3216 N3220 1.427 . S
C3217 H3207 0.929 . S
C3217 C3215 1.433 . S
C3217 N3220 1.384 . S
C3218 H3209 0.929 . S
C3218 C3210 1.378 . S
C3218 C3213 1.350 . S
C3219 H3206 0.929 . S
C3219 C3211 1.433 . S
C3219 N3221 1.384 . S
N3220 C3216 1.427 . S
N3220 C3217 1.384 . S
N3221 C3213 1.427 . S
N3221 C3219 1.384 . S
H3222 C3228 0.930 . S
H3223 C3232 0.930 . S
H3224 C3237 0.929 . S
H3225 C3235 0.929 . S
H3226 C3230 0.929 . S
H3227 C3236 0.929 . S
C3228 H3222 0.930 . S
C3228 C3229 1.367 . S
C3228 C3236 1.378 . S
C3229 C3228 1.367 . S
C3229 C3237 1.433 . S
C3230 H3226 0.929 . S
C3230 C3232 1.378 . S
C3230 C3234 1.350 . S
C3231 C3234 1.463 . S
C3231 C3236 1.350 . S
C3231 N3239 1.427 . S
C3232 H3223 0.930 . S
C3232 C3230 1.378 . S
C3232 C3233 1.367 . S
C3233 C3232 1.367 . S
C3233 C3235 1.433 . S
C3234 C3230 1.350 . S
C3234 C3231 1.463 . S
C3234 N3238 1.427 . S
C3235 H3225 0.929 . S
C3235 C3233 1.433 . S
C3235 N3238 1.384 . S
C3236 H3227 0.929 . S
C3236 C3228 1.378 . S
C3236 C3231 1.350 . S
C3237 H3224 0.929 . S
C3237 C3229 1.433 . S
C3237 N3239 1.384 . S
N3238 C3234 1.427 . S
N3238 C3235 1.384 . S
N3239 C3231 1.427 . S
N3239 C3237 1.384 . S
H3240 C3246 0.930 . S
H3241 C3250 0.930 . S
H3242 C3255 0.929 . S
H3243 C3253 0.929 . S
H3244 C3248 0.929 . S
H3245 C3254 0.929 . S
C3246 H3240 0.930 . S
C3246 C3247 1.367 . S
C3246 C3254 1.378 . S
C3247 C3246 1.367 . S
C3247 C3255 1.433 . S
C3248 H3244 0.929 . S
C3248 C3250 1.378 . S
C3248 C3252 1.350 . S
C3249 C3252 1.463 . S
C3249 C3254 1.350 . S
C3249 N3257 1.427 . S
C3250 H3241 0.930 . S
C3250 C3248 1.378 . S
C3250 C3251 1.367 . S
C3251 C3250 1.367 . S
C3251 C3253 1.433 . S
C3252 C3248 1.350 . S
C3252 C3249 1.463 . S
C3252 N3256 1.427 . S
C3253 H3243 0.929 . S
C3253 C3251 1.433 . S
C3253 N3256 1.384 . S
C3254 H3245 0.929 . S
C3254 C3246 1.378 . S
C3254 C3249 1.350 . S
C3255 H3242 0.929 . S
C3255 C3247 1.433 . S
C3255 N3257 1.384 . S
N3256 C3252 1.427 . S
N3256 C3253 1.384 . S
N3257 C3249 1.427 . S
N3257 C3255 1.384 . S
H3258 C3264 0.930 . S
H3259 C3268 0.930 . S
H3260 C3273 0.929 . S
H3261 C3271 0.929 . S
H3262 C3266 0.929 . S
H3263 C3272 0.929 . S
C3264 H3258 0.930 . S
C3264 C3265 1.367 . S
C3264 C3272 1.378 . S
C3265 C3264 1.367 . S
C3265 C3273 1.433 . S
C3266 H3262 0.929 . S
C3266 C3268 1.378 . S
C3266 C3270 1.350 . S
C3267 C3270 1.463 . S
C3267 C3272 1.350 . S
C3267 N3275 1.427 . S
C3268 H3259 0.930 . S
C3268 C3266 1.378 . S
C3268 C3269 1.367 . S
C3269 C3268 1.367 . S
C3269 C3271 1.433 . S
C3270 C3266 1.350 . S
C3270 C3267 1.463 . S
C3270 N3274 1.427 . S
C3271 H3261 0.929 . S
C3271 C3269 1.433 . S
C3271 N3274 1.384 . S
C3272 H3263 0.929 . S
C3272 C3264 1.378 . S
C3272 C3267 1.350 . S
C3273 H3260 0.929 . S
C3273 C3265 1.433 . S
C3273 N3275 1.384 . S
N3274 C3270 1.427 . S
N3274 C3271 1.384 . S
N3275 C3267 1.427 . S
N3275 C3273 1.384 . S
H3276 C3282 0.930 . S
H3277 C3286 0.930 . S
H3278 C3291 0.929 . S
H3279 C3289 0.929 . S
H3280 C3284 0.929 . S
H3281 C3290 0.929 . S
C3282 H3276 0.930 . S
C3282 C3283 1.367 . S
C3282 C3290 1.378 . S
C3283 C3282 1.367 . S
C3283 C3291 1.433 . S
C3284 H3280 0.929 . S
C3284 C3286 1.378 . S
C3284 C3288 1.350 . S
C3285 C3288 1.463 . S
C3285 C3290 1.350 . S
C3285 N3293 1.427 . S
C3286 H3277 0.930 . S
C3286 C3284 1.378 . S
C3286 C3287 1.367 . S
C3287 C3286 1.367 . S
C3287 C3289 1.433 . S
C3288 C3284 1.350 . S
C3288 C3285 1.463 . S
C3288 N3292 1.427 . S
C3289 H3279 0.929 . S
C3289 C3287 1.433 . S
C3289 N3292 1.384 . S
C3290 H3281 0.929 . S
C3290 C3282 1.378 . S
C3290 C3285 1.350 . S
C3291 H3278 0.929 . S
C3291 C3283 1.433 . S
C3291 N3293 1.384 . S
N3292 C3288 1.427 . S
N3292 C3289 1.384 . S
N3293 C3285 1.427 . S
N3293 C3291 1.384 . S
H3294 C3300 0.930 . S
H3295 C3304 0.930 . S
H3296 C3309 0.929 . S
H3297 C3307 0.929 . S
H3298 C3302 0.929 . S
H3299 C3308 0.929 . S
C3300 H3294 0.930 . S
C3300 C3301 1.367 . S
C3300 C3308 1.378 . S
C3301 C3300 1.367 . S
C3301 C3309 1.433 . S
C3302 H3298 0.929 . S
C3302 C3304 1.378 . S
C3302 C3306 1.350 . S
C3303 C3306 1.463 . S
C3303 C3308 1.350 . S
C3303 N3311 1.427 . S
C3304 H3295 0.930 . S
C3304 C3302 1.378 . S
C3304 C3305 1.367 . S
C3305 C3304 1.367 . S
C3305 C3307 1.433 . S
C3306 C3302 1.350 . S
C3306 C3303 1.463 . S
C3306 N3310 1.427 . S
C3307 H3297 0.929 . S
C3307 C3305 1.433 . S
C3307 N3310 1.384 . S
C3308 H3299 0.929 . S
C3308 C3300 1.378 . S
C3308 C3303 1.350 . S
C3309 H3296 0.929 . S
C3309 C3301 1.433 . S
C3309 N3311 1.384 . S
N3310 C3306 1.427 . S
N3310 C3307 1.384 . S
N3311 C3303 1.427 . S
N3311 C3309 1.384 . S
H3312 C3318 0.930 . S
H3313 C3322 0.930 . S
H3314 C3327 0.929 . S
H3315 C3325 0.929 . S
H3316 C3320 0.929 . S
H3317 C3326 0.929 . S
C3318 H3312 0.930 . S
C3318 C3319 1.367 . S
C3318 C3326 1.378 . S
C3319 C3318 1.367 . S
C3319 C3327 1.433 . S
C3320 H3316 0.929 . S
C3320 C3322 1.378 . S
C3320 C3324 1.350 . S
C3321 C3324 1.463 . S
C3321 C3326 1.350 . S
C3321 N3329 1.427 . S
C3322 H3313 0.930 . S
C3322 C3320 1.378 . S
C3322 C3323 1.367 . S
C3323 C3322 1.367 . S
C3323 C3325 1.433 . S
C3324 C3320 1.350 . S
C3324 C3321 1.463 . S
C3324 N3328 1.427 . S
C3325 H3315 0.929 . S
C3325 C3323 1.433 . S
C3325 N3328 1.384 . S
C3326 H3317 0.929 . S
C3326 C3318 1.378 . S
C3326 C3321 1.350 . S
C3327 H3314 0.929 . S
C3327 C3319 1.433 . S
C3327 N3329 1.384 . S
N3328 C3324 1.427 . S
N3328 C3325 1.384 . S
N3329 C3321 1.427 . S
N3329 C3327 1.384 . S
H3330 C3336 0.930 . S
H3331 C3340 0.930 . S
H3332 C3345 0.929 . S
H3333 C3343 0.929 . S
H3334 C3338 0.929 . S
H3335 C3344 0.929 . S
C3336 H3330 0.930 . S
C3336 C3337 1.367 . S
C3336 C3344 1.378 . S
C3337 C3336 1.367 . S
C3337 C3345 1.433 . S
C3338 H3334 0.929 . S
C3338 C3340 1.378 . S
C3338 C3342 1.350 . S
C3339 C3342 1.463 . S
C3339 C3344 1.350 . S
C3339 N3347 1.427 . S
C3340 H3331 0.930 . S
C3340 C3338 1.378 . S
C3340 C3341 1.367 . S
C3341 C3340 1.367 . S
C3341 C3343 1.433 . S
C3342 C3338 1.350 . S
C3342 C3339 1.463 . S
C3342 N3346 1.427 . S
C3343 H3333 0.929 . S
C3343 C3341 1.433 . S
C3343 N3346 1.384 . S
C3344 H3335 0.929 . S
C3344 C3336 1.378 . S
C3344 C3339 1.350 . S
C3345 H3332 0.929 . S
C3345 C3337 1.433 . S
C3345 N3347 1.384 . S
N3346 C3342 1.427 . S
N3346 C3343 1.384 . S
N3347 C3339 1.427 . S
N3347 C3345 1.384 . S
H3348 C3354 0.930 . S
H3349 C3358 0.930 . S
H3350 C3363 0.929 . S
H3351 C3361 0.929 . S
H3352 C3356 0.929 . S
H3353 C3362 0.929 . S
C3354 H3348 0.930 . S
C3354 C3355 1.367 . S
C3354 C3362 1.378 . S
C3355 C3354 1.367 . S
C3355 C3363 1.433 . S
C3356 H3352 0.929 . S
C3356 C3358 1.378 . S
C3356 C3360 1.350 . S
C3357 C3360 1.463 . S
C3357 C3362 1.350 . S
C3357 N3365 1.427 . S
C3358 H3349 0.930 . S
C3358 C3356 1.378 . S
C3358 C3359 1.367 . S
C3359 C3358 1.367 . S
C3359 C3361 1.433 . S
C3360 C3356 1.350 . S
C3360 C3357 1.463 . S
C3360 N3364 1.427 . S
C3361 H3351 0.929 . S
C3361 C3359 1.433 . S
C3361 N3364 1.384 . S
C3362 H3353 0.929 . S
C3362 C3354 1.378 . S
C3362 C3357 1.350 . S
C3363 H3350 0.929 . S
C3363 C3355 1.433 . S
C3363 N3365 1.384 . S
N3364 C3360 1.427 . S
N3364 C3361 1.384 . S
N3365 C3357 1.427 . S
N3365 C3363 1.384 . S
H3366 C3372 0.930 . S
H3367 C3376 0.930 . S
H3368 C3381 0.929 . S
H3369 C3379 0.929 . S
H3370 C3374 0.929 . S
H3371 C3380 0.929 . S
C3372 H3366 0.930 . S
C3372 C3373 1.367 . S
C3372 C3380 1.378 . S
C3373 C3372 1.367 . S
C3373 C3381 1.433 . S
C3374 H3370 0.929 . S
C3374 C3376 1.378 . S
C3374 C3378 1.350 . S
C3375 C3378 1.463 . S
C3375 C3380 1.350 . S
C3375 N3383 1.427 . S
C3376 H3367 0.930 . S
C3376 C3374 1.378 . S
C3376 C3377 1.367 . S
C3377 C3376 1.367 . S
C3377 C3379 1.433 . S
C3378 C3374 1.350 . S
C3378 C3375 1.463 . S
C3378 N3382 1.427 . S
C3379 H3369 0.929 . S
C3379 C3377 1.433 . S
C3379 N3382 1.384 . S
C3380 H3371 0.929 . S
C3380 C3372 1.378 . S
C3380 C3375 1.350 . S
C3381 H3368 0.929 . S
C3381 C3373 1.433 . S
C3381 N3383 1.384 . S
N3382 C3378 1.427 . S
N3382 C3379 1.384 . S
N3383 C3375 1.427 . S
N3383 C3381 1.384 . S
H3384 C3390 0.930 . S
H3385 C3394 0.930 . S
H3386 C3399 0.929 . S
H3387 C3397 0.929 . S
H3388 C3392 0.929 . S
H3389 C3398 0.929 . S
C3390 H3384 0.930 . S
C3390 C3391 1.367 . S
C3390 C3398 1.378 . S
C3391 C3390 1.367 . S
C3391 C3399 1.433 . S
C3392 H3388 0.929 . S
C3392 C3394 1.378 . S
C3392 C3396 1.350 . S
C3393 C3396 1.463 . S
C3393 C3398 1.350 . S
C3393 N3401 1.427 . S
C3394 H3385 0.930 . S
C3394 C3392 1.378 . S
C3394 C3395 1.367 . S
C3395 C3394 1.367 . S
C3395 C3397 1.433 . S
C3396 C3392 1.350 . S
C3396 C3393 1.463 . S
C3396 N3400 1.427 . S
C3397 H3387 0.929 . S
C3397 C3395 1.433 . S
C3397 N3400 1.384 . S
C3398 H3389 0.929 . S
C3398 C3390 1.378 . S
C3398 C3393 1.350 . S
C3399 H3386 0.929 . S
C3399 C3391 1.433 . S
C3399 N3401 1.384 . S
N3400 C3396 1.427 . S
N3400 C3397 1.384 . S
N3401 C3393 1.427 . S
N3401 C3399 1.384 . S
H3402 C3408 0.930 . S
H3403 C3412 0.930 . S
H3404 C3417 0.929 . S
H3405 C3415 0.929 . S
H3406 C3410 0.929 . S
H3407 C3416 0.929 . S
C3408 H3402 0.930 . S
C3408 C3409 1.367 . S
C3408 C3416 1.378 . S
C3409 C3408 1.367 . S
C3409 C3417 1.433 . S
C3410 H3406 0.929 . S
C3410 C3412 1.378 . S
C3410 C3414 1.350 . S
C3411 C3414 1.463 . S
C3411 C3416 1.350 . S
C3411 N3419 1.427 . S
C3412 H3403 0.930 . S
C3412 C3410 1.378 . S
C3412 C3413 1.367 . S
C3413 C3412 1.367 . S
C3413 C3415 1.433 . S
C3414 C3410 1.350 . S
C3414 C3411 1.463 . S
C3414 N3418 1.427 . S
C3415 H3405 0.929 . S
C3415 C3413 1.433 . S
C3415 N3418 1.384 . S
C3416 H3407 0.929 . S
C3416 C3408 1.378 . S
C3416 C3411 1.350 . S
C3417 H3404 0.929 . S
C3417 C3409 1.433 . S
C3417 N3419 1.384 . S
N3418 C3414 1.427 . S
N3418 C3415 1.384 . S
N3419 C3411 1.427 . S
N3419 C3417 1.384 . S
H3420 C3426 0.930 . S
H3421 C3430 0.930 . S
H3422 C3435 0.929 . S
H3423 C3433 0.929 . S
H3424 C3428 0.929 . S
H3425 C3434 0.929 . S
C3426 H3420 0.930 . S
C3426 C3427 1.367 . S
C3426 C3434 1.378 . S
C3427 C3426 1.367 . S
C3427 C3435 1.433 . S
C3428 H3424 0.929 . S
C3428 C3430 1.378 . S
C3428 C3432 1.350 . S
C3429 C3432 1.463 . S
C3429 C3434 1.350 . S
C3429 N3437 1.427 . S
C3430 H3421 0.930 . S
C3430 C3428 1.378 . S
C3430 C3431 1.367 . S
C3431 C3430 1.367 . S
C3431 C3433 1.433 . S
C3432 C3428 1.350 . S
C3432 C3429 1.463 . S
C3432 N3436 1.427 . S
C3433 H3423 0.929 . S
C3433 C3431 1.433 . S
C3433 N3436 1.384 . S
C3434 H3425 0.929 . S
C3434 C3426 1.378 . S
C3434 C3429 1.350 . S
C3435 H3422 0.929 . S
C3435 C3427 1.433 . S
C3435 N3437 1.384 . S
N3436 C3432 1.427 . S
N3436 C3433 1.384 . S
N3437 C3429 1.427 . S
N3437 C3435 1.384 . S
H3438 C3444 0.930 . S
H3439 C3448 0.930 . S
H3440 C3453 0.929 . S
H3441 C3451 0.929 . S
H3442 C3446 0.929 . S
H3443 C3452 0.929 . S
C3444 H3438 0.930 . S
C3444 C3445 1.367 . S
C3444 C3452 1.378 . S
C3445 C3444 1.367 . S
C3445 C3453 1.433 . S
C3446 H3442 0.929 . S
C3446 C3448 1.378 . S
C3446 C3450 1.350 . S
C3447 C3450 1.463 . S
C3447 C3452 1.350 . S
C3447 N3455 1.427 . S
C3448 H3439 0.930 . S
C3448 C3446 1.378 . S
C3448 C3449 1.367 . S
C3449 C3448 1.367 . S
C3449 C3451 1.433 . S
C3450 C3446 1.350 . S
C3450 C3447 1.463 . S
C3450 N3454 1.427 . S
C3451 H3441 0.929 . S
C3451 C3449 1.433 . S
C3451 N3454 1.384 . S
C3452 H3443 0.929 . S
C3452 C3444 1.378 . S
C3452 C3447 1.350 . S
C3453 H3440 0.929 . S
C3453 C3445 1.433 . S
C3453 N3455 1.384 . S
N3454 C3450 1.427 . S
N3454 C3451 1.384 . S
N3455 C3447 1.427 . S
N3455 C3453 1.384 . S
H3456 C3462 0.930 . S
H3457 C3466 0.930 . S
H3458 C3471 0.929 . S
H3459 C3469 0.929 . S
H3460 C3464 0.929 . S
H3461 C3470 0.929 . S
C3462 H3456 0.930 . S
C3462 C3463 1.367 . S
C3462 C3470 1.378 . S
C3463 C3462 1.367 . S
C3463 C3471 1.433 . S
C3464 H3460 0.929 . S
C3464 C3466 1.378 . S
C3464 C3468 1.350 . S
C3465 C3468 1.463 . S
C3465 C3470 1.350 . S
C3465 N3473 1.427 . S
C3466 H3457 0.930 . S
C3466 C3464 1.378 . S
C3466 C3467 1.367 . S
C3467 C3466 1.367 . S
C3467 C3469 1.433 . S
C3468 C3464 1.350 . S
C3468 C3465 1.463 . S
C3468 N3472 1.427 . S
C3469 H3459 0.929 . S
C3469 C3467 1.433 . S
C3469 N3472 1.384 . S
C3470 H3461 0.929 . S
C3470 C3462 1.378 . S
C3470 C3465 1.350 . S
C3471 H3458 0.929 . S
C3471 C3463 1.433 . S
C3471 N3473 1.384 . S
N3472 C3468 1.427 . S
N3472 C3469 1.384 . S
N3473 C3465 1.427 . S
N3473 C3471 1.384 . S
H3474 C3480 0.930 . S
H3475 C3484 0.930 . S
H3476 C3489 0.929 . S
H3477 C3487 0.929 . S
H3478 C3482 0.929 . S
H3479 C3488 0.929 . S
C3480 H3474 0.930 . S
C3480 C3481 1.367 . S
C3480 C3488 1.378 . S
C3481 C3480 1.367 . S
C3481 C3489 1.433 . S
C3482 H3478 0.929 . S
C3482 C3484 1.378 . S
C3482 C3486 1.350 . S
C3483 C3486 1.463 . S
C3483 C3488 1.350 . S
C3483 N3491 1.427 . S
C3484 H3475 0.930 . S
C3484 C3482 1.378 . S
C3484 C3485 1.367 . S
C3485 C3484 1.367 . S
C3485 C3487 1.433 . S
C3486 C3482 1.350 . S
C3486 C3483 1.463 . S
C3486 N3490 1.427 . S
C3487 H3477 0.929 . S
C3487 C3485 1.433 . S
C3487 N3490 1.384 . S
C3488 H3479 0.929 . S
C3488 C3480 1.378 . S
C3488 C3483 1.350 . S
C3489 H3476 0.929 . S
C3489 C3481 1.433 . S
C3489 N3491 1.384 . S
N3490 C3486 1.427 . S
N3490 C3487 1.384 . S
N3491 C3483 1.427 . S
N3491 C3489 1.384 . S
H3492 C3498 0.930 . S
H3493 C3502 0.930 . S
H3494 C3507 0.929 . S
H3495 C3505 0.929 . S
H3496 C3500 0.929 . S
H3497 C3506 0.929 . S
C3498 H3492 0.930 . S
C3498 C3499 1.367 . S
C3498 C3506 1.378 . S
C3499 C3498 1.367 . S
C3499 C3507 1.433 . S
C3500 H3496 0.929 . S
C3500 C3502 1.378 . S
C3500 C3504 1.350 . S
C3501 C3504 1.463 . S
C3501 C3506 1.350 . S
C3501 N3509 1.427 . S
C3502 H3493 0.930 . S
C3502 C3500 1.378 . S
C3502 C3503 1.367 . S
C3503 C3502 1.367 . S
C3503 C3505 1.433 . S
C3504 C3500 1.350 . S
C3504 C3501 1.463 . S
C3504 N3508 1.427 . S
C3505 H3495 0.929 . S
C3505 C3503 1.433 . S
C3505 N3508 1.384 . S
C3506 H3497 0.929 . S
C3506 C3498 1.378 . S
C3506 C3501 1.350 . S
C3507 H3494 0.929 . S
C3507 C3499 1.433 . S
C3507 N3509 1.384 . S
N3508 C3504 1.427 . S
N3508 C3505 1.384 . S
N3509 C3501 1.427 . S
N3509 C3507 1.384 . S
H3510 C3516 0.930 . S
H3511 C3520 0.930 . S
H3512 C3525 0.929 . S
H3513 C3523 0.929 . S
H3514 C3518 0.929 . S
H3515 C3524 0.929 . S
C3516 H3510 0.930 . S
C3516 C3517 1.367 . S
C3516 C3524 1.378 . S
C3517 C3516 1.367 . S
C3517 C3525 1.433 . S
C3518 H3514 0.929 . S
C3518 C3520 1.378 . S
C3518 C3522 1.350 . S
C3519 C3522 1.463 . S
C3519 C3524 1.350 . S
C3519 N3527 1.427 . S
C3520 H3511 0.930 . S
C3520 C3518 1.378 . S
C3520 C3521 1.367 . S
C3521 C3520 1.367 . S
C3521 C3523 1.433 . S
C3522 C3518 1.350 . S
C3522 C3519 1.463 . S
C3522 N3526 1.427 . S
C3523 H3513 0.929 . S
C3523 C3521 1.433 . S
C3523 N3526 1.384 . S
C3524 H3515 0.929 . S
C3524 C3516 1.378 . S
C3524 C3519 1.350 . S
C3525 H3512 0.929 . S
C3525 C3517 1.433 . S
C3525 N3527 1.384 . S
N3526 C3522 1.427 . S
N3526 C3523 1.384 . S
N3527 C3519 1.427 . S
N3527 C3525 1.384 . S
H3528 C3534 0.930 . S
H3529 C3538 0.930 . S
H3530 C3543 0.929 . S
H3531 C3541 0.929 . S
H3532 C3536 0.929 . S
H3533 C3542 0.929 . S
C3534 H3528 0.930 . S
C3534 C3535 1.367 . S
C3534 C3542 1.378 . S
C3535 C3534 1.367 . S
C3535 C3543 1.433 . S
C3536 H3532 0.929 . S
C3536 C3538 1.378 . S
C3536 C3540 1.350 . S
C3537 C3540 1.463 . S
C3537 C3542 1.350 . S
C3537 N3545 1.427 . S
C3538 H3529 0.930 . S
C3538 C3536 1.378 . S
C3538 C3539 1.367 . S
C3539 C3538 1.367 . S
C3539 C3541 1.433 . S
C3540 C3536 1.350 . S
C3540 C3537 1.463 . S
C3540 N3544 1.427 . S
C3541 H3531 0.929 . S
C3541 C3539 1.433 . S
C3541 N3544 1.384 . S
C3542 H3533 0.929 . S
C3542 C3534 1.378 . S
C3542 C3537 1.350 . S
C3543 H3530 0.929 . S
C3543 C3535 1.433 . S
C3543 N3545 1.384 . S
N3544 C3540 1.427 . S
N3544 C3541 1.384 . S
N3545 C3537 1.427 . S
N3545 C3543 1.384 . S
H3546 C3552 0.930 . S
H3547 C3556 0.930 . S
H3548 C3561 0.929 . S
H3549 C3559 0.929 . S
H3550 C3554 0.929 . S
H3551 C3560 0.929 . S
C3552 H3546 0.930 . S
C3552 C3553 1.367 . S
C3552 C3560 1.378 . S
C3553 C3552 1.367 . S
C3553 C3561 1.433 . S
C3554 H3550 0.929 . S
C3554 C3556 1.378 . S
C3554 C3558 1.350 . S
C3555 C3558 1.463 . S
C3555 C3560 1.350 . S
C3555 N3563 1.427 . S
C3556 H3547 0.930 . S
C3556 C3554 1.378 . S
C3556 C3557 1.367 . S
C3557 C3556 1.367 . S
C3557 C3559 1.433 . S
C3558 C3554 1.350 . S
C3558 C3555 1.463 . S
C3558 N3562 1.427 . S
C3559 H3549 0.929 . S
C3559 C3557 1.433 . S
C3559 N3562 1.384 . S
C3560 H3551 0.929 . S
C3560 C3552 1.378 . S
C3560 C3555 1.350 . S
C3561 H3548 0.929 . S
C3561 C3553 1.433 . S
C3561 N3563 1.384 . S
N3562 C3558 1.427 . S
N3562 C3559 1.384 . S
N3563 C3555 1.427 . S
N3563 C3561 1.384 . S
H3564 C3570 0.930 . S
H3565 C3574 0.930 . S
H3566 C3579 0.929 . S
H3567 C3577 0.929 . S
H3568 C3572 0.929 . S
H3569 C3578 0.929 . S
C3570 H3564 0.930 . S
C3570 C3571 1.367 . S
C3570 C3578 1.378 . S
C3571 C3570 1.367 . S
C3571 C3579 1.433 . S
C3572 H3568 0.929 . S
C3572 C3574 1.378 . S
C3572 C3576 1.350 . S
C3573 C3576 1.463 . S
C3573 C3578 1.350 . S
C3573 N3581 1.427 . S
C3574 H3565 0.930 . S
C3574 C3572 1.378 . S
C3574 C3575 1.367 . S
C3575 C3574 1.367 . S
C3575 C3577 1.433 . S
C3576 C3572 1.350 . S
C3576 C3573 1.463 . S
C3576 N3580 1.427 . S
C3577 H3567 0.929 . S
C3577 C3575 1.433 . S
C3577 N3580 1.384 . S
C3578 H3569 0.929 . S
C3578 C3570 1.378 . S
C3578 C3573 1.350 . S
C3579 H3566 0.929 . S
C3579 C3571 1.433 . S
C3579 N3581 1.384 . S
N3580 C3576 1.427 . S
N3580 C3577 1.384 . S
N3581 C3573 1.427 . S
N3581 C3579 1.384 . S
H3582 C3588 0.930 . S
H3583 C3592 0.930 . S
H3584 C3597 0.929 . S
H3585 C3595 0.929 . S
H3586 C3590 0.929 . S
H3587 C3596 0.929 . S
C3588 H3582 0.930 . S
C3588 C3589 1.367 . S
C3588 C3596 1.378 . S
C3589 C3588 1.367 . S
C3589 C3597 1.433 . S
C3590 H3586 0.929 . S
C3590 C3592 1.378 . S
C3590 C3594 1.350 . S
C3591 C3594 1.463 . S
C3591 C3596 1.350 . S
C3591 N3599 1.427 . S
C3592 H3583 0.930 . S
C3592 C3590 1.378 . S
C3592 C3593 1.367 . S
C3593 C3592 1.367 . S
C3593 C3595 1.433 . S
C3594 C3590 1.350 . S
C3594 C3591 1.463 . S
C3594 N3598 1.427 . S
C3595 H3585 0.929 . S
C3595 C3593 1.433 . S
C3595 N3598 1.384 . S
C3596 H3587 0.929 . S
C3596 C3588 1.378 . S
C3596 C3591 1.350 . S
C3597 H3584 0.929 . S
C3597 C3589 1.433 . S
C3597 N3599 1.384 . S
N3598 C3594 1.427 . S
N3598 C3595 1.384 . S
N3599 C3591 1.427 . S
N3599 C3597 1.384 . S
H3600 C3606 0.930 . S
H3601 C3610 0.930 . S
H3602 C3615 0.929 . S
H3603 C3613 0.929 . S
H3604 C3608 0.929 . S
H3605 C3614 0.929 . S
C3606 H3600 0.930 . S
C3606 C3607 1.367 . S
C3606 C3614 1.378 . S
C3607 C3606 1.367 . S
C3607 C3615 1.433 . S
C3608 H3604 0.929 . S
C3608 C3610 1.378 . S
C3608 C3612 1.350 . S
C3609 C3612 1.463 . S
C3609 C3614 1.350 . S
C3609 N3617 1.427 . S
C3610 H3601 0.930 . S
C3610 C3608 1.378 . S
C3610 C3611 1.367 . S
C3611 C3610 1.367 . S
C3611 C3613 1.433 . S
C3612 C3608 1.350 . S
C3612 C3609 1.463 . S
C3612 N3616 1.427 . S
C3613 H3603 0.929 . S
C3613 C3611 1.433 . S
C3613 N3616 1.384 . S
C3614 H3605 0.929 . S
C3614 C3606 1.378 . S
C3614 C3609 1.350 . S
C3615 H3602 0.929 . S
C3615 C3607 1.433 . S
C3615 N3617 1.384 . S
N3616 C3612 1.427 . S
N3616 C3613 1.384 . S
N3617 C3609 1.427 . S
N3617 C3615 1.384 . S
H3618 C3624 0.930 . S
H3619 C3628 0.930 . S
H3620 C3633 0.929 . S
H3621 C3631 0.929 . S
H3622 C3626 0.929 . S
H3623 C3632 0.929 . S
C3624 H3618 0.930 . S
C3624 C3625 1.367 . S
C3624 C3632 1.378 . S
C3625 C3624 1.367 . S
C3625 C3633 1.433 . S
C3626 H3622 0.929 . S
C3626 C3628 1.378 . S
C3626 C3630 1.350 . S
C3627 C3630 1.463 . S
C3627 C3632 1.350 . S
C3627 N3635 1.427 . S
C3628 H3619 0.930 . S
C3628 C3626 1.378 . S
C3628 C3629 1.367 . S
C3629 C3628 1.367 . S
C3629 C3631 1.433 . S
C3630 C3626 1.350 . S
C3630 C3627 1.463 . S
C3630 N3634 1.427 . S
C3631 H3621 0.929 . S
C3631 C3629 1.433 . S
C3631 N3634 1.384 . S
C3632 H3623 0.929 . S
C3632 C3624 1.378 . S
C3632 C3627 1.350 . S
C3633 H3620 0.929 . S
C3633 C3625 1.433 . S
C3633 N3635 1.384 . S
N3634 C3630 1.427 . S
N3634 C3631 1.384 . S
N3635 C3627 1.427 . S
N3635 C3633 1.384 . S
H3636 C3642 0.930 . S
H3637 C3646 0.930 . S
H3638 C3651 0.929 . S
H3639 C3649 0.929 . S
H3640 C3644 0.929 . S
H3641 C3650 0.929 . S
C3642 H3636 0.930 . S
C3642 C3643 1.367 . S
C3642 C3650 1.378 . S
C3643 C3642 1.367 . S
C3643 C3651 1.433 . S
C3644 H3640 0.929 . S
C3644 C3646 1.378 . S
C3644 C3648 1.350 . S
C3645 C3648 1.463 . S
C3645 C3650 1.350 . S
C3645 N3653 1.427 . S
C3646 H3637 0.930 . S
C3646 C3644 1.378 . S
C3646 C3647 1.367 . S
C3647 C3646 1.367 . S
C3647 C3649 1.433 . S
C3648 C3644 1.350 . S
C3648 C3645 1.463 . S
C3648 N3652 1.427 . S
C3649 H3639 0.929 . S
C3649 C3647 1.433 . S
C3649 N3652 1.384 . S
C3650 H3641 0.929 . S
C3650 C3642 1.378 . S
C3650 C3645 1.350 . S
C3651 H3638 0.929 . S
C3651 C3643 1.433 . S
C3651 N3653 1.384 . S
N3652 C3648 1.427 . S
N3652 C3649 1.384 . S
N3653 C3645 1.427 . S
N3653 C3651 1.384 . S
H3654 C3660 0.930 . S
H3655 C3664 0.930 . S
H3656 C3669 0.929 . S
H3657 C3667 0.929 . S
H3658 C3662 0.929 . S
H3659 C3668 0.929 . S
C3660 H3654 0.930 . S
C3660 C3661 1.367 . S
C3660 C3668 1.378 . S
C3661 C3660 1.367 . S
C3661 C3669 1.433 . S
C3662 H3658 0.929 . S
C3662 C3664 1.378 . S
C3662 C3666 1.350 . S
C3663 C3666 1.463 . S
C3663 C3668 1.350 . S
C3663 N3671 1.427 . S
C3664 H3655 0.930 . S
C3664 C3662 1.378 . S
C3664 C3665 1.367 . S
C3665 C3664 1.367 . S
C3665 C3667 1.433 . S
C3666 C3662 1.350 . S
C3666 C3663 1.463 . S
C3666 N3670 1.427 . S
C3667 H3657 0.929 . S
C3667 C3665 1.433 . S
C3667 N3670 1.384 . S
C3668 H3659 0.929 . S
C3668 C3660 1.378 . S
C3668 C3663 1.350 . S
C3669 H3656 0.929 . S
C3669 C3661 1.433 . S
C3669 N3671 1.384 . S
N3670 C3666 1.427 . S
N3670 C3667 1.384 . S
N3671 C3663 1.427 . S
N3671 C3669 1.384 . S
H3672 C3678 0.930 . S
H3673 C3682 0.930 . S
H3674 C3687 0.929 . S
H3675 C3685 0.929 . S
H3676 C3680 0.929 . S
H3677 C3686 0.929 . S
C3678 H3672 0.930 . S
C3678 C3679 1.367 . S
C3678 C3686 1.378 . S
C3679 C3678 1.367 . S
C3679 C3687 1.433 . S
C3680 H3676 0.929 . S
C3680 C3682 1.378 . S
C3680 C3684 1.350 . S
C3681 C3684 1.463 . S
C3681 C3686 1.350 . S
C3681 N3689 1.427 . S
C3682 H3673 0.930 . S
C3682 C3680 1.378 . S
C3682 C3683 1.367 . S
C3683 C3682 1.367 . S
C3683 C3685 1.433 . S
C3684 C3680 1.350 . S
C3684 C3681 1.463 . S
C3684 N3688 1.427 . S
C3685 H3675 0.929 . S
C3685 C3683 1.433 . S
C3685 N3688 1.384 . S
C3686 H3677 0.929 . S
C3686 C3678 1.378 . S
C3686 C3681 1.350 . S
C3687 H3674 0.929 . S
C3687 C3679 1.433 . S
C3687 N3689 1.384 . S
N3688 C3684 1.427 . S
N3688 C3685 1.384 . S
N3689 C3681 1.427 . S
N3689 C3687 1.384 . S
H3690 C3696 0.930 . S
H3691 C3700 0.930 . S
H3692 C3705 0.929 . S
H3693 C3703 0.929 . S
H3694 C3698 0.929 . S
H3695 C3704 0.929 . S
C3696 H3690 0.930 . S
C3696 C3697 1.367 . S
C3696 C3704 1.378 . S
C3697 C3696 1.367 . S
C3697 C3705 1.433 . S
C3698 H3694 0.929 . S
C3698 C3700 1.378 . S
C3698 C3702 1.350 . S
C3699 C3702 1.463 . S
C3699 C3704 1.350 . S
C3699 N3707 1.427 . S
C3700 H3691 0.930 . S
C3700 C3698 1.378 . S
C3700 C3701 1.367 . S
C3701 C3700 1.367 . S
C3701 C3703 1.433 . S
C3702 C3698 1.350 . S
C3702 C3699 1.463 . S
C3702 N3706 1.427 . S
C3703 H3693 0.929 . S
C3703 C3701 1.433 . S
C3703 N3706 1.384 . S
C3704 H3695 0.929 . S
C3704 C3696 1.378 . S
C3704 C3699 1.350 . S
C3705 H3692 0.929 . S
C3705 C3697 1.433 . S
C3705 N3707 1.384 . S
N3706 C3702 1.427 . S
N3706 C3703 1.384 . S
N3707 C3699 1.427 . S
N3707 C3705 1.384 . S
H3708 C3714 0.930 . S
H3709 C3718 0.930 . S
H3710 C3723 0.929 . S
H3711 C3721 0.929 . S
H3712 C3716 0.929 . S
H3713 C3722 0.929 . S
C3714 H3708 0.930 . S
C3714 C3715 1.367 . S
C3714 C3722 1.378 . S
C3715 C3714 1.367 . S
C3715 C3723 1.433 . S
C3716 H3712 0.929 . S
C3716 C3718 1.378 . S
C3716 C3720 1.350 . S
C3717 C3720 1.463 . S
C3717 C3722 1.350 . S
C3717 N3725 1.427 . S
C3718 H3709 0.930 . S
C3718 C3716 1.378 . S
C3718 C3719 1.367 . S
C3719 C3718 1.367 . S
C3719 C3721 1.433 . S
C3720 C3716 1.350 . S
C3720 C3717 1.463 . S
C3720 N3724 1.427 . S
C3721 H3711 0.929 . S
C3721 C3719 1.433 . S
C3721 N3724 1.384 . S
C3722 H3713 0.929 . S
C3722 C3714 1.378 . S
C3722 C3717 1.350 . S
C3723 H3710 0.929 . S
C3723 C3715 1.433 . S
C3723 N3725 1.384 . S
N3724 C3720 1.427 . S
N3724 C3721 1.384 . S
N3725 C3717 1.427 . S
N3725 C3723 1.384 . S
H3726 C3732 0.930 . S
H3727 C3736 0.930 . S
H3728 C3741 0.929 . S
H3729 C3739 0.929 . S
H3730 C3734 0.929 . S
H3731 C3740 0.929 . S
C3732 H3726 0.930 . S
C3732 C3733 1.367 . S
C3732 C3740 1.378 . S
C3733 C3732 1.367 . S
C3733 C3741 1.433 . S
C3734 H3730 0.929 . S
C3734 C3736 1.378 . S
C3734 C3738 1.350 . S
C3735 C3738 1.463 . S
C3735 C3740 1.350 . S
C3735 N3743 1.427 . S
C3736 H3727 0.930 . S
C3736 C3734 1.378 . S
C3736 C3737 1.367 . S
C3737 C3736 1.367 . S
C3737 C3739 1.433 . S
C3738 C3734 1.350 . S
C3738 C3735 1.463 . S
C3738 N3742 1.427 . S
C3739 H3729 0.929 . S
C3739 C3737 1.433 . S
C3739 N3742 1.384 . S
C3740 H3731 0.929 . S
C3740 C3732 1.378 . S
C3740 C3735 1.350 . S
C3741 H3728 0.929 . S
C3741 C3733 1.433 . S
C3741 N3743 1.384 . S
N3742 C3738 1.427 . S
N3742 C3739 1.384 . S
N3743 C3735 1.427 . S
N3743 C3741 1.384 . S
H3744 C3750 0.930 . S
H3745 C3754 0.930 . S
H3746 C3759 0.929 . S
H3747 C3757 0.929 . S
H3748 C3752 0.929 . S
H3749 C3758 0.929 . S
C3750 H3744 0.930 . S
C3750 C3751 1.367 . S
C3750 C3758 1.378 . S
C3751 C3750 1.367 . S
C3751 C3759 1.433 . S
C3752 H3748 0.929 . S
C3752 C3754 1.378 . S
C3752 C3756 1.350 . S
C3753 C3756 1.463 . S
C3753 C3758 1.350 . S
C3753 N3761 1.427 . S
C3754 H3745 0.930 . S
C3754 C3752 1.378 . S
C3754 C3755 1.367 . S
C3755 C3754 1.367 . S
C3755 C3757 1.433 . S
C3756 C3752 1.350 . S
C3756 C3753 1.463 . S
C3756 N3760 1.427 . S
C3757 H3747 0.929 . S
C3757 C3755 1.433 . S
C3757 N3760 1.384 . S
C3758 H3749 0.929 . S
C3758 C3750 1.378 . S
C3758 C3753 1.350 . S
C3759 H3746 0.929 . S
C3759 C3751 1.433 . S
C3759 N3761 1.384 . S
N3760 C3756 1.427 . S
N3760 C3757 1.384 . S
N3761 C3753 1.427 . S
N3761 C3759 1.384 . S
H3762 C3768 0.930 . S
H3763 C3772 0.930 . S
H3764 C3777 0.929 . S
H3765 C3775 0.929 . S
H3766 C3770 0.929 . S
H3767 C3776 0.929 . S
C3768 H3762 0.930 . S
C3768 C3769 1.367 . S
C3768 C3776 1.378 . S
C3769 C3768 1.367 . S
C3769 C3777 1.433 . S
C3770 H3766 0.929 . S
C3770 C3772 1.378 . S
C3770 C3774 1.350 . S
C3771 C3774 1.463 . S
C3771 C3776 1.350 . S
C3771 N3779 1.427 . S
C3772 H3763 0.930 . S
C3772 C3770 1.378 . S
C3772 C3773 1.367 . S
C3773 C3772 1.367 . S
C3773 C3775 1.433 . S
C3774 C3770 1.350 . S
C3774 C3771 1.463 . S
C3774 N3778 1.427 . S
C3775 H3765 0.929 . S
C3775 C3773 1.433 . S
C3775 N3778 1.384 . S
C3776 H3767 0.929 . S
C3776 C3768 1.378 . S
C3776 C3771 1.350 . S
C3777 H3764 0.929 . S
C3777 C3769 1.433 . S
C3777 N3779 1.384 . S
N3778 C3774 1.427 . S
N3778 C3775 1.384 . S
N3779 C3771 1.427 . S
N3779 C3777 1.384 . S
H3780 C3786 0.930 . S
H3781 C3790 0.930 . S
H3782 C3795 0.929 . S
H3783 C3793 0.929 . S
H3784 C3788 0.929 . S
H3785 C3794 0.929 . S
C3786 H3780 0.930 . S
C3786 C3787 1.367 . S
C3786 C3794 1.378 . S
C3787 C3786 1.367 . S
C3787 C3795 1.433 . S
C3788 H3784 0.929 . S
C3788 C3790 1.378 . S
C3788 C3792 1.350 . S
C3789 C3792 1.463 . S
C3789 C3794 1.350 . S
C3789 N3797 1.427 . S
C3790 H3781 0.930 . S
C3790 C3788 1.378 . S
C3790 C3791 1.367 . S
C3791 C3790 1.367 . S
C3791 C3793 1.433 . S
C3792 C3788 1.350 . S
C3792 C3789 1.463 . S
C3792 N3796 1.427 . S
C3793 H3783 0.929 . S
C3793 C3791 1.433 . S
C3793 N3796 1.384 . S
C3794 H3785 0.929 . S
C3794 C3786 1.378 . S
C3794 C3789 1.350 . S
C3795 H3782 0.929 . S
C3795 C3787 1.433 . S
C3795 N3797 1.384 . S
N3796 C3792 1.427 . S
N3796 C3793 1.384 . S
N3797 C3789 1.427 . S
N3797 C3795 1.384 . S
H3798 C3804 0.930 . S
H3799 C3808 0.930 . S
H3800 C3813 0.929 . S
H3801 C3811 0.929 . S
H3802 C3806 0.929 . S
H3803 C3812 0.929 . S
C3804 H3798 0.930 . S
C3804 C3805 1.367 . S
C3804 C3812 1.378 . S
C3805 C3804 1.367 . S
C3805 C3813 1.433 . S
C3806 H3802 0.929 . S
C3806 C3808 1.378 . S
C3806 C3810 1.350 . S
C3807 C3810 1.463 . S
C3807 C3812 1.350 . S
C3807 N3815 1.427 . S
C3808 H3799 0.930 . S
C3808 C3806 1.378 . S
C3808 C3809 1.367 . S
C3809 C3808 1.367 . S
C3809 C3811 1.433 . S
C3810 C3806 1.350 . S
C3810 C3807 1.463 . S
C3810 N3814 1.427 . S
C3811 H3801 0.929 . S
C3811 C3809 1.433 . S
C3811 N3814 1.384 . S
C3812 H3803 0.929 . S
C3812 C3804 1.378 . S
C3812 C3807 1.350 . S
C3813 H3800 0.929 . S
C3813 C3805 1.433 . S
C3813 N3815 1.384 . S
N3814 C3810 1.427 . S
N3814 C3811 1.384 . S
N3815 C3807 1.427 . S
N3815 C3813 1.384 . S
H3816 C3822 0.930 . S
H3817 C3826 0.930 . S
H3818 C3831 0.929 . S
H3819 C3829 0.929 . S
H3820 C3824 0.929 . S
H3821 C3830 0.929 . S
C3822 H3816 0.930 . S
C3822 C3823 1.367 . S
C3822 C3830 1.378 . S
C3823 C3822 1.367 . S
C3823 C3831 1.433 . S
C3824 H3820 0.929 . S
C3824 C3826 1.378 . S
C3824 C3828 1.350 . S
C3825 C3828 1.463 . S
C3825 C3830 1.350 . S
C3825 N3833 1.427 . S
C3826 H3817 0.930 . S
C3826 C3824 1.378 . S
C3826 C3827 1.367 . S
C3827 C3826 1.367 . S
C3827 C3829 1.433 . S
C3828 C3824 1.350 . S
C3828 C3825 1.463 . S
C3828 N3832 1.427 . S
C3829 H3819 0.929 . S
C3829 C3827 1.433 . S
C3829 N3832 1.384 . S
C3830 H3821 0.929 . S
C3830 C3822 1.378 . S
C3830 C3825 1.350 . S
C3831 H3818 0.929 . S
C3831 C3823 1.433 . S
C3831 N3833 1.384 . S
N3832 C3828 1.427 . S
N3832 C3829 1.384 . S
N3833 C3825 1.427 . S
N3833 C3831 1.384 . S
H3834 C3840 0.930 . S
H3835 C3844 0.930 . S
H3836 C3849 0.929 . S
H3837 C3847 0.929 . S
H3838 C3842 0.929 . S
H3839 C3848 0.929 . S
C3840 H3834 0.930 . S
C3840 C3841 1.367 . S
C3840 C3848 1.378 . S
C3841 C3840 1.367 . S
C3841 C3849 1.433 . S
C3842 H3838 0.929 . S
C3842 C3844 1.378 . S
C3842 C3846 1.350 . S
C3843 C3846 1.463 . S
C3843 C3848 1.350 . S
C3843 N3851 1.427 . S
C3844 H3835 0.930 . S
C3844 C3842 1.378 . S
C3844 C3845 1.367 . S
C3845 C3844 1.367 . S
C3845 C3847 1.433 . S
C3846 C3842 1.350 . S
C3846 C3843 1.463 . S
C3846 N3850 1.427 . S
C3847 H3837 0.929 . S
C3847 C3845 1.433 . S
C3847 N3850 1.384 . S
C3848 H3839 0.929 . S
C3848 C3840 1.378 . S
C3848 C3843 1.350 . S
C3849 H3836 0.929 . S
C3849 C3841 1.433 . S
C3849 N3851 1.384 . S
N3850 C3846 1.427 . S
N3850 C3847 1.384 . S
N3851 C3843 1.427 . S
N3851 C3849 1.384 . S
H3852 C3858 0.930 . S
H3853 C3862 0.930 . S
H3854 C3867 0.929 . S
H3855 C3865 0.929 . S
H3856 C3860 0.929 . S
H3857 C3866 0.929 . S
C3858 H3852 0.930 . S
C3858 C3859 1.367 . S
C3858 C3866 1.378 . S
C3859 C3858 1.367 . S
C3859 C3867 1.433 . S
C3860 H3856 0.929 . S
C3860 C3862 1.378 . S
C3860 C3864 1.350 . S
C3861 C3864 1.463 . S
C3861 C3866 1.350 . S
C3861 N3869 1.427 . S
C3862 H3853 0.930 . S
C3862 C3860 1.378 . S
C3862 C3863 1.367 . S
C3863 C3862 1.367 . S
C3863 C3865 1.433 . S
C3864 C3860 1.350 . S
C3864 C3861 1.463 . S
C3864 N3868 1.427 . S
C3865 H3855 0.929 . S
C3865 C3863 1.433 . S
C3865 N3868 1.384 . S
C3866 H3857 0.929 . S
C3866 C3858 1.378 . S
C3866 C3861 1.350 . S
C3867 H3854 0.929 . S
C3867 C3859 1.433 . S
C3867 N3869 1.384 . S
N3868 C3864 1.427 . S
N3868 C3865 1.384 . S
N3869 C3861 1.427 . S
N3869 C3867 1.384 . S
H3870 C3876 0.930 . S
H3871 C3880 0.930 . S
H3872 C3885 0.929 . S
H3873 C3883 0.929 . S
H3874 C3878 0.929 . S
H3875 C3884 0.929 . S
C3876 H3870 0.930 . S
C3876 C3877 1.367 . S
C3876 C3884 1.378 . S
C3877 C3876 1.367 . S
C3877 C3885 1.433 . S
C3878 H3874 0.929 . S
C3878 C3880 1.378 . S
C3878 C3882 1.350 . S
C3879 C3882 1.463 . S
C3879 C3884 1.350 . S
C3879 N3887 1.427 . S
C3880 H3871 0.930 . S
C3880 C3878 1.378 . S
C3880 C3881 1.367 . S
C3881 C3880 1.367 . S
C3881 C3883 1.433 . S
C3882 C3878 1.350 . S
C3882 C3879 1.463 . S
C3882 N3886 1.427 . S
C3883 H3873 0.929 . S
C3883 C3881 1.433 . S
C3883 N3886 1.384 . S
C3884 H3875 0.929 . S
C3884 C3876 1.378 . S
C3884 C3879 1.350 . S
C3885 H3872 0.929 . S
C3885 C3877 1.433 . S
C3885 N3887 1.384 . S
N3886 C3882 1.427 . S
N3886 C3883 1.384 . S
N3887 C3879 1.427 . S
N3887 C3885 1.384 . S
H3888 C3894 0.930 . S
H3889 C3898 0.930 . S
H3890 C3903 0.929 . S
H3891 C3901 0.929 . S
H3892 C3896 0.929 . S
H3893 C3902 0.929 . S
C3894 H3888 0.930 . S
C3894 C3895 1.367 . S
C3894 C3902 1.378 . S
C3895 C3894 1.367 . S
C3895 C3903 1.433 . S
C3896 H3892 0.929 . S
C3896 C3898 1.378 . S
C3896 C3900 1.350 . S
C3897 C3900 1.463 . S
C3897 C3902 1.350 . S
C3897 N3905 1.427 . S
C3898 H3889 0.930 . S
C3898 C3896 1.378 . S
C3898 C3899 1.367 . S
C3899 C3898 1.367 . S
C3899 C3901 1.433 . S
C3900 C3896 1.350 . S
C3900 C3897 1.463 . S
C3900 N3904 1.427 . S
C3901 H3891 0.929 . S
C3901 C3899 1.433 . S
C3901 N3904 1.384 . S
C3902 H3893 0.929 . S
C3902 C3894 1.378 . S
C3902 C3897 1.350 . S
C3903 H3890 0.929 . S
C3903 C3895 1.433 . S
C3903 N3905 1.384 . S
N3904 C3900 1.427 . S
N3904 C3901 1.384 . S
N3905 C3897 1.427 . S
N3905 C3903 1.384 . S
H3906 C3912 0.930 . S
H3907 C3916 0.930 . S
H3908 C3921 0.929 . S
H3909 C3919 0.929 . S
H3910 C3914 0.929 . S
H3911 C3920 0.929 . S
C3912 H3906 0.930 . S
C3912 C3913 1.367 . S
C3912 C3920 1.378 . S
C3913 C3912 1.367 . S
C3913 C3921 1.433 . S
C3914 H3910 0.929 . S
C3914 C3916 1.378 . S
C3914 C3918 1.350 . S
C3915 C3918 1.463 . S
C3915 C3920 1.350 . S
C3915 N3923 1.427 . S
C3916 H3907 0.930 . S
C3916 C3914 1.378 . S
C3916 C3917 1.367 . S
C3917 C3916 1.367 . S
C3917 C3919 1.433 . S
C3918 C3914 1.350 . S
C3918 C3915 1.463 . S
C3918 N3922 1.427 . S
C3919 H3909 0.929 . S
C3919 C3917 1.433 . S
C3919 N3922 1.384 . S
C3920 H3911 0.929 . S
C3920 C3912 1.378 . S
C3920 C3915 1.350 . S
C3921 H3908 0.929 . S
C3921 C3913 1.433 . S
C3921 N3923 1.384 . S
N3922 C3918 1.427 . S
N3922 C3919 1.384 . S
N3923 C3915 1.427 . S
N3923 C3921 1.384 . S
H3924 C3930 0.930 . S
H3925 C3934 0.930 . S
H3926 C3939 0.929 . S
H3927 C3937 0.929 . S
H3928 C3932 0.929 . S
H3929 C3938 0.929 . S
C3930 H3924 0.930 . S
C3930 C3931 1.367 . S
C3930 C3938 1.378 . S
C3931 C3930 1.367 . S
C3931 C3939 1.433 . S
C3932 H3928 0.929 . S
C3932 C3934 1.378 . S
C3932 C3936 1.350 . S
C3933 C3936 1.463 . S
C3933 C3938 1.350 . S
C3933 N3941 1.427 . S
C3934 H3925 0.930 . S
C3934 C3932 1.378 . S
C3934 C3935 1.367 . S
C3935 C3934 1.367 . S
C3935 C3937 1.433 . S
C3936 C3932 1.350 . S
C3936 C3933 1.463 . S
C3936 N3940 1.427 . S
C3937 H3927 0.929 . S
C3937 C3935 1.433 . S
C3937 N3940 1.384 . S
C3938 H3929 0.929 . S
C3938 C3930 1.378 . S
C3938 C3933 1.350 . S
C3939 H3926 0.929 . S
C3939 C3931 1.433 . S
C3939 N3941 1.384 . S
N3940 C3936 1.427 . S
N3940 C3937 1.384 . S
N3941 C3933 1.427 . S
N3941 C3939 1.384 . S
H3942 C3948 0.930 . S
H3943 C3952 0.930 . S
H3944 C3957 0.929 . S
H3945 C3955 0.929 . S
H3946 C3950 0.929 . S
H3947 C3956 0.929 . S
C3948 H3942 0.930 . S
C3948 C3949 1.367 . S
C3948 C3956 1.378 . S
C3949 C3948 1.367 . S
C3949 C3957 1.433 . S
C3950 H3946 0.929 . S
C3950 C3952 1.378 . S
C3950 C3954 1.350 . S
C3951 C3954 1.463 . S
C3951 C3956 1.350 . S
C3951 N3959 1.427 . S
C3952 H3943 0.930 . S
C3952 C3950 1.378 . S
C3952 C3953 1.367 . S
C3953 C3952 1.367 . S
C3953 C3955 1.433 . S
C3954 C3950 1.350 . S
C3954 C3951 1.463 . S
C3954 N3958 1.427 . S
C3955 H3945 0.929 . S
C3955 C3953 1.433 . S
C3955 N3958 1.384 . S
C3956 H3947 0.929 . S
C3956 C3948 1.378 . S
C3956 C3951 1.350 . S
C3957 H3944 0.929 . S
C3957 C3949 1.433 . S
C3957 N3959 1.384 . S
N3958 C3954 1.427 . S
N3958 C3955 1.384 . S
N3959 C3951 1.427 . S
N3959 C3957 1.384 . S
H3960 C3966 0.930 . S
H3961 C3970 0.930 . S
H3962 C3975 0.929 . S
H3963 C3973 0.929 . S
H3964 C3968 0.929 . S
H3965 C3974 0.929 . S
C3966 H3960 0.930 . S
C3966 C3967 1.367 . S
C3966 C3974 1.378 . S
C3967 C3966 1.367 . S
C3967 C3975 1.433 . S
C3968 H3964 0.929 . S
C3968 C3970 1.378 . S
C3968 C3972 1.350 . S
C3969 C3972 1.463 . S
C3969 C3974 1.350 . S
C3969 N3977 1.427 . S
C3970 H3961 0.930 . S
C3970 C3968 1.378 . S
C3970 C3971 1.367 . S
C3971 C3970 1.367 . S
C3971 C3973 1.433 . S
C3972 C3968 1.350 . S
C3972 C3969 1.463 . S
C3972 N3976 1.427 . S
C3973 H3963 0.929 . S
C3973 C3971 1.433 . S
C3973 N3976 1.384 . S
C3974 H3965 0.929 . S
C3974 C3966 1.378 . S
C3974 C3969 1.350 . S
C3975 H3962 0.929 . S
C3975 C3967 1.433 . S
C3975 N3977 1.384 . S
N3976 C3972 1.427 . S
N3976 C3973 1.384 . S
N3977 C3969 1.427 . S
N3977 C3975 1.384 . S
H3978 C3984 0.930 . S
H3979 C3988 0.930 . S
H3980 C3993 0.929 . S
H3981 C3991 0.929 . S
H3982 C3986 0.929 . S
H3983 C3992 0.929 . S
C3984 H3978 0.930 . S
C3984 C3985 1.367 . S
C3984 C3992 1.378 . S
C3985 C3984 1.367 . S
C3985 C3993 1.433 . S
C3986 H3982 0.929 . S
C3986 C3988 1.378 . S
C3986 C3990 1.350 . S
C3987 C3990 1.463 . S
C3987 C3992 1.350 . S
C3987 N3995 1.427 . S
C3988 H3979 0.930 . S
C3988 C3986 1.378 . S
C3988 C3989 1.367 . S
C3989 C3988 1.367 . S
C3989 C3991 1.433 . S
C3990 C3986 1.350 . S
C3990 C3987 1.463 . S
C3990 N3994 1.427 . S
C3991 H3981 0.929 . S
C3991 C3989 1.433 . S
C3991 N3994 1.384 . S
C3992 H3983 0.929 . S
C3992 C3984 1.378 . S
C3992 C3987 1.350 . S
C3993 H3980 0.929 . S
C3993 C3985 1.433 . S
C3993 N3995 1.384 . S
N3994 C3990 1.427 . S
N3994 C3991 1.384 . S
N3995 C3987 1.427 . S
N3995 C3993 1.384 . S
H3996 C4002 0.930 . S
H3997 C4006 0.930 . S
H3998 C4011 0.929 . S
H3999 C4009 0.929 . S
H4000 C4004 0.929 . S
H4001 C4010 0.929 . S
C4002 H3996 0.930 . S
C4002 C4003 1.367 . S
C4002 C4010 1.378 . S
C4003 C4002 1.367 . S
C4003 C4011 1.433 . S
C4004 H4000 0.929 . S
C4004 C4006 1.378 . S
C4004 C4008 1.350 . S
C4005 C4008 1.463 . S
C4005 C4010 1.350 . S
C4005 N4013 1.427 . S
C4006 H3997 0.930 . S
C4006 C4004 1.378 . S
C4006 C4007 1.367 . S
C4007 C4006 1.367 . S
C4007 C4009 1.433 . S
C4008 C4004 1.350 . S
C4008 C4005 1.463 . S
C4008 N4012 1.427 . S
C4009 H3999 0.929 . S
C4009 C4007 1.433 . S
C4009 N4012 1.384 . S
C4010 H4001 0.929 . S
C4010 C4002 1.378 . S
C4010 C4005 1.350 . S
C4011 H3998 0.929 . S
C4011 C4003 1.433 . S
C4011 N4013 1.384 . S
N4012 C4008 1.427 . S
N4012 C4009 1.384 . S
N4013 C4005 1.427 . S
N4013 C4011 1.384 . S
H4014 C4020 0.930 . S
H4015 C4024 0.930 . S
H4016 C4029 0.929 . S
H4017 C4027 0.929 . S
H4018 C4022 0.929 . S
H4019 C4028 0.929 . S
C4020 H4014 0.930 . S
C4020 C4021 1.367 . S
C4020 C4028 1.378 . S
C4021 C4020 1.367 . S
C4021 C4029 1.433 . S
C4022 H4018 0.929 . S
C4022 C4024 1.378 . S
C4022 C4026 1.350 . S
C4023 C4026 1.463 . S
C4023 C4028 1.350 . S
C4023 N4031 1.427 . S
C4024 H4015 0.930 . S
C4024 C4022 1.378 . S
C4024 C4025 1.367 . S
C4025 C4024 1.367 . S
C4025 C4027 1.433 . S
C4026 C4022 1.350 . S
C4026 C4023 1.463 . S
C4026 N4030 1.427 . S
C4027 H4017 0.929 . S
C4027 C4025 1.433 . S
C4027 N4030 1.384 . S
C4028 H4019 0.929 . S
C4028 C4020 1.378 . S
C4028 C4023 1.350 . S
C4029 H4016 0.929 . S
C4029 C4021 1.433 . S
C4029 N4031 1.384 . S
N4030 C4026 1.427 . S
N4030 C4027 1.384 . S
N4031 C4023 1.427 . S
N4031 C4029 1.384 . S
H4032 C4038 0.930 . S
H4033 C4042 0.930 . S
H4034 C4047 0.929 . S
H4035 C4045 0.929 . S
H4036 C4040 0.929 . S
H4037 C4046 0.929 . S
C4038 H4032 0.930 . S
C4038 C4039 1.367 . S
C4038 C4046 1.378 . S
C4039 C4038 1.367 . S
C4039 C4047 1.433 . S
C4040 H4036 0.929 . S
C4040 C4042 1.378 . S
C4040 C4044 1.350 . S
C4041 C4044 1.463 . S
C4041 C4046 1.350 . S
C4041 N4049 1.427 . S
C4042 H4033 0.930 . S
C4042 C4040 1.378 . S
C4042 C4043 1.367 . S
C4043 C4042 1.367 . S
C4043 C4045 1.433 . S
C4044 C4040 1.350 . S
C4044 C4041 1.463 . S
C4044 N4048 1.427 . S
C4045 H4035 0.929 . S
C4045 C4043 1.433 . S
C4045 N4048 1.384 . S
C4046 H4037 0.929 . S
C4046 C4038 1.378 . S
C4046 C4041 1.350 . S
C4047 H4034 0.929 . S
C4047 C4039 1.433 . S
C4047 N4049 1.384 . S
N4048 C4044 1.427 . S
N4048 C4045 1.384 . S
N4049 C4041 1.427 . S
N4049 C4047 1.384 . S
H4050 C4056 0.930 . S
H4051 C4060 0.930 . S
H4052 C4065 0.929 . S
H4053 C4063 0.929 . S
H4054 C4058 0.929 . S
H4055 C4064 0.929 . S
C4056 H4050 0.930 . S
C4056 C4057 1.367 . S
C4056 C4064 1.378 . S
C4057 C4056 1.367 . S
C4057 C4065 1.433 . S
C4058 H4054 0.929 . S
C4058 C4060 1.378 . S
C4058 C4062 1.350 . S
C4059 C4062 1.463 . S
C4059 C4064 1.350 . S
C4059 N4067 1.427 . S
C4060 H4051 0.930 . S
C4060 C4058 1.378 . S
C4060 C4061 1.367 . S
C4061 C4060 1.367 . S
C4061 C4063 1.433 . S
C4062 C4058 1.350 . S
C4062 C4059 1.463 . S
C4062 N4066 1.427 . S
C4063 H4053 0.929 . S
C4063 C4061 1.433 . S
C4063 N4066 1.384 . S
C4064 H4055 0.929 . S
C4064 C4056 1.378 . S
C4064 C4059 1.350 . S
C4065 H4052 0.929 . S
C4065 C4057 1.433 . S
C4065 N4067 1.384 . S
N4066 C4062 1.427 . S
N4066 C4063 1.384 . S
N4067 C4059 1.427 . S
N4067 C4065 1.384 . S
H4068 C4074 0.930 . S
H4069 C4078 0.930 . S
H4070 C4083 0.929 . S
H4071 C4081 0.929 . S
H4072 C4076 0.929 . S
H4073 C4082 0.929 . S
C4074 H4068 0.930 . S
C4074 C4075 1.367 . S
C4074 C4082 1.378 . S
C4075 C4074 1.367 . S
C4075 C4083 1.433 . S
C4076 H4072 0.929 . S
C4076 C4078 1.378 . S
C4076 C4080 1.350 . S
C4077 C4080 1.463 . S
C4077 C4082 1.350 . S
C4077 N4085 1.427 . S
C4078 H4069 0.930 . S
C4078 C4076 1.378 . S
C4078 C4079 1.367 . S
C4079 C4078 1.367 . S
C4079 C4081 1.433 . S
C4080 C4076 1.350 . S
C4080 C4077 1.463 . S
C4080 N4084 1.427 . S
C4081 H4071 0.929 . S
C4081 C4079 1.433 . S
C4081 N4084 1.384 . S
C4082 H4073 0.929 . S
C4082 C4074 1.378 . S
C4082 C4077 1.350 . S
C4083 H4070 0.929 . S
C4083 C4075 1.433 . S
C4083 N4085 1.384 . S
N4084 C4080 1.427 . S
N4084 C4081 1.384 . S
N4085 C4077 1.427 . S
N4085 C4083 1.384 . S
H4086 C4092 0.930 . S
H4087 C4096 0.930 . S
H4088 C4101 0.929 . S
H4089 C4099 0.929 . S
H4090 C4094 0.929 . S
H4091 C4100 0.929 . S
C4092 H4086 0.930 . S
C4092 C4093 1.367 . S
C4092 C4100 1.378 . S
C4093 C4092 1.367 . S
C4093 C4101 1.433 . S
C4094 H4090 0.929 . S
C4094 C4096 1.378 . S
C4094 C4098 1.350 . S
C4095 C4098 1.463 . S
C4095 C4100 1.350 . S
C4095 N4103 1.427 . S
C4096 H4087 0.930 . S
C4096 C4094 1.378 . S
C4096 C4097 1.367 . S
C4097 C4096 1.367 . S
C4097 C4099 1.433 . S
C4098 C4094 1.350 . S
C4098 C4095 1.463 . S
C4098 N4102 1.427 . S
C4099 H4089 0.929 . S
C4099 C4097 1.433 . S
C4099 N4102 1.384 . S
C4100 H4091 0.929 . S
C4100 C4092 1.378 . S
C4100 C4095 1.350 . S
C4101 H4088 0.929 . S
C4101 C4093 1.433 . S
C4101 N4103 1.384 . S
N4102 C4098 1.427 . S
N4102 C4099 1.384 . S
N4103 C4095 1.427 . S
N4103 C4101 1.384 . S
H4104 C4110 0.930 . S
H4105 C4114 0.930 . S
H4106 C4119 0.929 . S
H4107 C4117 0.929 . S
H4108 C4112 0.929 . S
H4109 C4118 0.929 . S
C4110 H4104 0.930 . S
C4110 C4111 1.367 . S
C4110 C4118 1.378 . S
C4111 C4110 1.367 . S
C4111 C4119 1.433 . S
C4112 H4108 0.929 . S
C4112 C4114 1.378 . S
C4112 C4116 1.350 . S
C4113 C4116 1.463 . S
C4113 C4118 1.350 . S
C4113 N4121 1.427 . S
C4114 H4105 0.930 . S
C4114 C4112 1.378 . S
C4114 C4115 1.367 . S
C4115 C4114 1.367 . S
C4115 C4117 1.433 . S
C4116 C4112 1.350 . S
C4116 C4113 1.463 . S
C4116 N4120 1.427 . S
C4117 H4107 0.929 . S
C4117 C4115 1.433 . S
C4117 N4120 1.384 . S
C4118 H4109 0.929 . S
C4118 C4110 1.378 . S
C4118 C4113 1.350 . S
C4119 H4106 0.929 . S
C4119 C4111 1.433 . S
C4119 N4121 1.384 . S
N4120 C4116 1.427 . S
N4120 C4117 1.384 . S
N4121 C4113 1.427 . S
N4121 C4119 1.384 . S
H4122 C4128 0.930 . S
H4123 C4132 0.930 . S
H4124 C4137 0.929 . S
H4125 C4135 0.929 . S
H4126 C4130 0.929 . S
H4127 C4136 0.929 . S
C4128 H4122 0.930 . S
C4128 C4129 1.367 . S
C4128 C4136 1.378 . S
C4129 C4128 1.367 . S
C4129 C4137 1.433 . S
C4130 H4126 0.929 . S
C4130 C4132 1.378 . S
C4130 C4134 1.350 . S
C4131 C4134 1.463 . S
C4131 C4136 1.350 . S
C4131 N4139 1.427 . S
C4132 H4123 0.930 . S
C4132 C4130 1.378 . S
C4132 C4133 1.367 . S
C4133 C4132 1.367 . S
C4133 C4135 1.433 . S
C4134 C4130 1.350 . S
C4134 C4131 1.463 . S
C4134 N4138 1.427 . S
C4135 H4125 0.929 . S
C4135 C4133 1.433 . S
C4135 N4138 1.384 . S
C4136 H4127 0.929 . S
C4136 C4128 1.378 . S
C4136 C4131 1.350 . S
C4137 H4124 0.929 . S
C4137 C4129 1.433 . S
C4137 N4139 1.384 . S
N4138 C4134 1.427 . S
N4138 C4135 1.384 . S
N4139 C4131 1.427 . S
N4139 C4137 1.384 . S
H4140 C4146 0.930 . S
H4141 C4150 0.930 . S
H4142 C4155 0.929 . S
H4143 C4153 0.929 . S
H4144 C4148 0.929 . S
H4145 C4154 0.929 . S
C4146 H4140 0.930 . S
C4146 C4147 1.367 . S
C4146 C4154 1.378 . S
C4147 C4146 1.367 . S
C4147 C4155 1.433 . S
C4148 H4144 0.929 . S
C4148 C4150 1.378 . S
C4148 C4152 1.350 . S
C4149 C4152 1.463 . S
C4149 C4154 1.350 . S
C4149 N4157 1.427 . S
C4150 H4141 0.930 . S
C4150 C4148 1.378 . S
C4150 C4151 1.367 . S
C4151 C4150 1.367 . S
C4151 C4153 1.433 . S
C4152 C4148 1.350 . S
C4152 C4149 1.463 . S
C4152 N4156 1.427 . S
C4153 H4143 0.929 . S
C4153 C4151 1.433 . S
C4153 N4156 1.384 . S
C4154 H4145 0.929 . S
C4154 C4146 1.378 . S
C4154 C4149 1.350 . S
C4155 H4142 0.929 . S
C4155 C4147 1.433 . S
C4155 N4157 1.384 . S
N4156 C4152 1.427 . S
N4156 C4153 1.384 . S
N4157 C4149 1.427 . S
N4157 C4155 1.384 . S
H4158 C4164 0.930 . S
H4159 C4168 0.930 . S
H4160 C4173 0.929 . S
H4161 C4171 0.929 . S
H4162 C4166 0.929 . S
H4163 C4172 0.929 . S
C4164 H4158 0.930 . S
C4164 C4165 1.367 . S
C4164 C4172 1.378 . S
C4165 C4164 1.367 . S
C4165 C4173 1.433 . S
C4166 H4162 0.929 . S
C4166 C4168 1.378 . S
C4166 C4170 1.350 . S
C4167 C4170 1.463 . S
C4167 C4172 1.350 . S
C4167 N4175 1.427 . S
C4168 H4159 0.930 . S
C4168 C4166 1.378 . S
C4168 C4169 1.367 . S
C4169 C4168 1.367 . S
C4169 C4171 1.433 . S
C4170 C4166 1.350 . S
C4170 C4167 1.463 . S
C4170 N4174 1.427 . S
C4171 H4161 0.929 . S
C4171 C4169 1.433 . S
C4171 N4174 1.384 . S
C4172 H4163 0.929 . S
C4172 C4164 1.378 . S
C4172 C4167 1.350 . S
C4173 H4160 0.929 . S
C4173 C4165 1.433 . S
C4173 N4175 1.384 . S
N4174 C4170 1.427 . S
N4174 C4171 1.384 . S
N4175 C4167 1.427 . S
N4175 C4173 1.384 . S
H4176 C4182 0.930 . S
H4177 C4186 0.930 . S
H4178 C4191 0.929 . S
H4179 C4189 0.929 . S
H4180 C4184 0.929 . S
H4181 C4190 0.929 . S
C4182 H4176 0.930 . S
C4182 C4183 1.367 . S
C4182 C4190 1.378 . S
C4183 C4182 1.367 . S
C4183 C4191 1.433 . S
C4184 H4180 0.929 . S
C4184 C4186 1.378 . S
C4184 C4188 1.350 . S
C4185 C4188 1.463 . S
C4185 C4190 1.350 . S
C4185 N4193 1.427 . S
C4186 H4177 0.930 . S
C4186 C4184 1.378 . S
C4186 C4187 1.367 . S
C4187 C4186 1.367 . S
C4187 C4189 1.433 . S
C4188 C4184 1.350 . S
C4188 C4185 1.463 . S
C4188 N4192 1.427 . S
C4189 H4179 0.929 . S
C4189 C4187 1.433 . S
C4189 N4192 1.384 . S
C4190 H4181 0.929 . S
C4190 C4182 1.378 . S
C4190 C4185 1.350 . S
C4191 H4178 0.929 . S
C4191 C4183 1.433 . S
C4191 N4193 1.384 . S
N4192 C4188 1.427 . S
N4192 C4189 1.384 . S
N4193 C4185 1.427 . S
N4193 C4191 1.384 . S
H4194 C4200 0.930 . S
H4195 C4204 0.930 . S
H4196 C4209 0.929 . S
H4197 C4207 0.929 . S
H4198 C4202 0.929 . S
H4199 C4208 0.929 . S
C4200 H4194 0.930 . S
C4200 C4201 1.367 . S
C4200 C4208 1.378 . S
C4201 C4200 1.367 . S
C4201 C4209 1.433 . S
C4202 H4198 0.929 . S
C4202 C4204 1.378 . S
C4202 C4206 1.350 . S
C4203 C4206 1.463 . S
C4203 C4208 1.350 . S
C4203 N4211 1.427 . S
C4204 H4195 0.930 . S
C4204 C4202 1.378 . S
C4204 C4205 1.367 . S
C4205 C4204 1.367 . S
C4205 C4207 1.433 . S
C4206 C4202 1.350 . S
C4206 C4203 1.463 . S
C4206 N4210 1.427 . S
C4207 H4197 0.929 . S
C4207 C4205 1.433 . S
C4207 N4210 1.384 . S
C4208 H4199 0.929 . S
C4208 C4200 1.378 . S
C4208 C4203 1.350 . S
C4209 H4196 0.929 . S
C4209 C4201 1.433 . S
C4209 N4211 1.384 . S
N4210 C4206 1.427 . S
N4210 C4207 1.384 . S
N4211 C4203 1.427 . S
N4211 C4209 1.384 . S
H4212 C4218 0.930 . S
H4213 C4222 0.930 . S
H4214 C4227 0.929 . S
H4215 C4225 0.929 . S
H4216 C4220 0.929 . S
H4217 C4226 0.929 . S
C4218 H4212 0.930 . S
C4218 C4219 1.367 . S
C4218 C4226 1.378 . S
C4219 C4218 1.367 . S
C4219 C4227 1.433 . S
C4220 H4216 0.929 . S
C4220 C4222 1.378 . S
C4220 C4224 1.350 . S
C4221 C4224 1.463 . S
C4221 C4226 1.350 . S
C4221 N4229 1.427 . S
C4222 H4213 0.930 . S
C4222 C4220 1.378 . S
C4222 C4223 1.367 . S
C4223 C4222 1.367 . S
C4223 C4225 1.433 . S
C4224 C4220 1.350 . S
C4224 C4221 1.463 . S
C4224 N4228 1.427 . S
C4225 H4215 0.929 . S
C4225 C4223 1.433 . S
C4225 N4228 1.384 . S
C4226 H4217 0.929 . S
C4226 C4218 1.378 . S
C4226 C4221 1.350 . S
C4227 H4214 0.929 . S
C4227 C4219 1.433 . S
C4227 N4229 1.384 . S
N4228 C4224 1.427 . S
N4228 C4225 1.384 . S
N4229 C4221 1.427 . S
N4229 C4227 1.384 . S
H4230 C4236 0.930 . S
H4231 C4240 0.930 . S
H4232 C4245 0.929 . S
H4233 C4243 0.929 . S
H4234 C4238 0.929 . S
H4235 C4244 0.929 . S
C4236 H4230 0.930 . S
C4236 C4237 1.367 . S
C4236 C4244 1.378 . S
C4237 C4236 1.367 . S
C4237 C4245 1.433 . S
C4238 H4234 0.929 . S
C4238 C4240 1.378 . S
C4238 C4242 1.350 . S
C4239 C4242 1.463 . S
C4239 C4244 1.350 . S
C4239 N4247 1.427 . S
C4240 H4231 0.930 . S
C4240 C4238 1.378 . S
C4240 C4241 1.367 . S
C4241 C4240 1.367 . S
C4241 C4243 1.433 . S
C4242 C4238 1.350 . S
C4242 C4239 1.463 . S
C4242 N4246 1.427 . S
C4243 H4233 0.929 . S
C4243 C4241 1.433 . S
C4243 N4246 1.384 . S
C4244 H4235 0.929 . S
C4244 C4236 1.378 . S
C4244 C4239 1.350 . S
C4245 H4232 0.929 . S
C4245 C4237 1.433 . S
C4245 N4247 1.384 . S
N4246 C4242 1.427 . S
N4246 C4243 1.384 . S
N4247 C4239 1.427 . S
N4247 C4245 1.384 . S
H4248 C4254 0.930 . S
H4249 C4258 0.930 . S
H4250 C4263 0.929 . S
H4251 C4261 0.929 . S
H4252 C4256 0.929 . S
H4253 C4262 0.929 . S
C4254 H4248 0.930 . S
C4254 C4255 1.367 . S
C4254 C4262 1.378 . S
C4255 C4254 1.367 . S
C4255 C4263 1.433 . S
C4256 H4252 0.929 . S
C4256 C4258 1.378 . S
C4256 C4260 1.350 . S
C4257 C4260 1.463 . S
C4257 C4262 1.350 . S
C4257 N4265 1.427 . S
C4258 H4249 0.930 . S
C4258 C4256 1.378 . S
C4258 C4259 1.367 . S
C4259 C4258 1.367 . S
C4259 C4261 1.433 . S
C4260 C4256 1.350 . S
C4260 C4257 1.463 . S
C4260 N4264 1.427 . S
C4261 H4251 0.929 . S
C4261 C4259 1.433 . S
C4261 N4264 1.384 . S
C4262 H4253 0.929 . S
C4262 C4254 1.378 . S
C4262 C4257 1.350 . S
C4263 H4250 0.929 . S
C4263 C4255 1.433 . S
C4263 N4265 1.384 . S
N4264 C4260 1.427 . S
N4264 C4261 1.384 . S
N4265 C4257 1.427 . S
N4265 C4263 1.384 . S
H4266 C4272 0.930 . S
H4267 C4276 0.930 . S
H4268 C4281 0.929 . S
H4269 C4279 0.929 . S
H4270 C4274 0.929 . S
H4271 C4280 0.929 . S
C4272 H4266 0.930 . S
C4272 C4273 1.367 . S
C4272 C4280 1.378 . S
C4273 C4272 1.367 . S
C4273 C4281 1.433 . S
C4274 H4270 0.929 . S
C4274 C4276 1.378 . S
C4274 C4278 1.350 . S
C4275 C4278 1.463 . S
C4275 C4280 1.350 . S
C4275 N4283 1.427 . S
C4276 H4267 0.930 . S
C4276 C4274 1.378 . S
C4276 C4277 1.367 . S
C4277 C4276 1.367 . S
C4277 C4279 1.433 . S
C4278 C4274 1.350 . S
C4278 C4275 1.463 . S
C4278 N4282 1.427 . S
C4279 H4269 0.929 . S
C4279 C4277 1.433 . S
C4279 N4282 1.384 . S
C4280 H4271 0.929 . S
C4280 C4272 1.378 . S
C4280 C4275 1.350 . S
C4281 H4268 0.929 . S
C4281 C4273 1.433 . S
C4281 N4283 1.384 . S
N4282 C4278 1.427 . S
N4282 C4279 1.384 . S
N4283 C4275 1.427 . S
N4283 C4281 1.384 . S
H4284 C4290 0.930 . S
H4285 C4294 0.930 . S
H4286 C4299 0.929 . S
H4287 C4297 0.929 . S
H4288 C4292 0.929 . S
H4289 C4298 0.929 . S
C4290 H4284 0.930 . S
C4290 C4291 1.367 . S
C4290 C4298 1.378 . S
C4291 C4290 1.367 . S
C4291 C4299 1.433 . S
C4292 H4288 0.929 . S
C4292 C4294 1.378 . S
C4292 C4296 1.350 . S
C4293 C4296 1.463 . S
C4293 C4298 1.350 . S
C4293 N4301 1.427 . S
C4294 H4285 0.930 . S
C4294 C4292 1.378 . S
C4294 C4295 1.367 . S
C4295 C4294 1.367 . S
C4295 C4297 1.433 . S
C4296 C4292 1.350 . S
C4296 C4293 1.463 . S
C4296 N4300 1.427 . S
C4297 H4287 0.929 . S
C4297 C4295 1.433 . S
C4297 N4300 1.384 . S
C4298 H4289 0.929 . S
C4298 C4290 1.378 . S
C4298 C4293 1.350 . S
C4299 H4286 0.929 . S
C4299 C4291 1.433 . S
C4299 N4301 1.384 . S
N4300 C4296 1.427 . S
N4300 C4297 1.384 . S
N4301 C4293 1.427 . S
N4301 C4299 1.384 . S
H4302 C4308 0.930 . S
H4303 C4312 0.930 . S
H4304 C4317 0.929 . S
H4305 C4315 0.929 . S
H4306 C4310 0.929 . S
H4307 C4316 0.929 . S
C4308 H4302 0.930 . S
C4308 C4309 1.367 . S
C4308 C4316 1.378 . S
C4309 C4308 1.367 . S
C4309 C4317 1.433 . S
C4310 H4306 0.929 . S
C4310 C4312 1.378 . S
C4310 C4314 1.350 . S
C4311 C4314 1.463 . S
C4311 C4316 1.350 . S
C4311 N4319 1.427 . S
C4312 H4303 0.930 . S
C4312 C4310 1.378 . S
C4312 C4313 1.367 . S
C4313 C4312 1.367 . S
C4313 C4315 1.433 . S
C4314 C4310 1.350 . S
C4314 C4311 1.463 . S
C4314 N4318 1.427 . S
C4315 H4305 0.929 . S
C4315 C4313 1.433 . S
C4315 N4318 1.384 . S
C4316 H4307 0.929 . S
C4316 C4308 1.378 . S
C4316 C4311 1.350 . S
C4317 H4304 0.929 . S
C4317 C4309 1.433 . S
C4317 N4319 1.384 . S
N4318 C4314 1.427 . S
N4318 C4315 1.384 . S
N4319 C4311 1.427 . S
N4319 C4317 1.384 . S
H4320 C4326 0.930 . S
H4321 C4330 0.930 . S
H4322 C4335 0.929 . S
H4323 C4333 0.929 . S
H4324 C4328 0.929 . S
H4325 C4334 0.929 . S
C4326 H4320 0.930 . S
C4326 C4327 1.367 . S
C4326 C4334 1.378 . S
C4327 C4326 1.367 . S
C4327 C4335 1.433 . S
C4328 H4324 0.929 . S
C4328 C4330 1.378 . S
C4328 C4332 1.350 . S
C4329 C4332 1.463 . S
C4329 C4334 1.350 . S
C4329 N4337 1.427 . S
C4330 H4321 0.930 . S
C4330 C4328 1.378 . S
C4330 C4331 1.367 . S
C4331 C4330 1.367 . S
C4331 C4333 1.433 . S
C4332 C4328 1.350 . S
C4332 C4329 1.463 . S
C4332 N4336 1.427 . S
C4333 H4323 0.929 . S
C4333 C4331 1.433 . S
C4333 N4336 1.384 . S
C4334 H4325 0.929 . S
C4334 C4326 1.378 . S
C4334 C4329 1.350 . S
C4335 H4322 0.929 . S
C4335 C4327 1.433 . S
C4335 N4337 1.384 . S
N4336 C4332 1.427 . S
N4336 C4333 1.384 . S
N4337 C4329 1.427 . S
N4337 C4335 1.384 . S
H4338 C4344 0.930 . S
H4339 C4348 0.930 . S
H4340 C4353 0.929 . S
H4341 C4351 0.929 . S
H4342 C4346 0.929 . S
H4343 C4352 0.929 . S
C4344 H4338 0.930 . S
C4344 C4345 1.367 . S
C4344 C4352 1.378 . S
C4345 C4344 1.367 . S
C4345 C4353 1.433 . S
C4346 H4342 0.929 . S
C4346 C4348 1.378 . S
C4346 C4350 1.350 . S
C4347 C4350 1.463 . S
C4347 C4352 1.350 . S
C4347 N4355 1.427 . S
C4348 H4339 0.930 . S
C4348 C4346 1.378 . S
C4348 C4349 1.367 . S
C4349 C4348 1.367 . S
C4349 C4351 1.433 . S
C4350 C4346 1.350 . S
C4350 C4347 1.463 . S
C4350 N4354 1.427 . S
C4351 H4341 0.929 . S
C4351 C4349 1.433 . S
C4351 N4354 1.384 . S
C4352 H4343 0.929 . S
C4352 C4344 1.378 . S
C4352 C4347 1.350 . S
C4353 H4340 0.929 . S
C4353 C4345 1.433 . S
C4353 N4355 1.384 . S
N4354 C4350 1.427 . S
N4354 C4351 1.384 . S
N4355 C4347 1.427 . S
N4355 C4353 1.384 . S
H4356 C4362 0.930 . S
H4357 C4366 0.930 . S
H4358 C4371 0.929 . S
H4359 C4369 0.929 . S
H4360 C4364 0.929 . S
H4361 C4370 0.929 . S
C4362 H4356 0.930 . S
C4362 C4363 1.367 . S
C4362 C4370 1.378 . S
C4363 C4362 1.367 . S
C4363 C4371 1.433 . S
C4364 H4360 0.929 . S
C4364 C4366 1.378 . S
C4364 C4368 1.350 . S
C4365 C4368 1.463 . S
C4365 C4370 1.350 . S
C4365 N4373 1.427 . S
C4366 H4357 0.930 . S
C4366 C4364 1.378 . S
C4366 C4367 1.367 . S
C4367 C4366 1.367 . S
C4367 C4369 1.433 . S
C4368 C4364 1.350 . S
C4368 C4365 1.463 . S
C4368 N4372 1.427 . S
C4369 H4359 0.929 . S
C4369 C4367 1.433 . S
C4369 N4372 1.384 . S
C4370 H4361 0.929 . S
C4370 C4362 1.378 . S
C4370 C4365 1.350 . S
C4371 H4358 0.929 . S
C4371 C4363 1.433 . S
C4371 N4373 1.384 . S
N4372 C4368 1.427 . S
N4372 C4369 1.384 . S
N4373 C4365 1.427 . S
N4373 C4371 1.384 . S
H4374 C4380 0.930 . S
H4375 C4384 0.930 . S
H4376 C4389 0.929 . S
H4377 C4387 0.929 . S
H4378 C4382 0.929 . S
H4379 C4388 0.929 . S
C4380 H4374 0.930 . S
C4380 C4381 1.367 . S
C4380 C4388 1.378 . S
C4381 C4380 1.367 . S
C4381 C4389 1.433 . S
C4382 H4378 0.929 . S
C4382 C4384 1.378 . S
C4382 C4386 1.350 . S
C4383 C4386 1.463 . S
C4383 C4388 1.350 . S
C4383 N4391 1.427 . S
C4384 H4375 0.930 . S
C4384 C4382 1.378 . S
C4384 C4385 1.367 . S
C4385 C4384 1.367 . S
C4385 C4387 1.433 . S
C4386 C4382 1.350 . S
C4386 C4383 1.463 . S
C4386 N4390 1.427 . S
C4387 H4377 0.929 . S
C4387 C4385 1.433 . S
C4387 N4390 1.384 . S
C4388 H4379 0.929 . S
C4388 C4380 1.378 . S
C4388 C4383 1.350 . S
C4389 H4376 0.929 . S
C4389 C4381 1.433 . S
C4389 N4391 1.384 . S
N4390 C4386 1.427 . S
N4390 C4387 1.384 . S
N4391 C4383 1.427 . S
N4391 C4389 1.384 . S
H4392 C4398 0.930 . S
H4393 C4402 0.930 . S
H4394 C4407 0.929 . S
H4395 C4405 0.929 . S
H4396 C4400 0.929 . S
H4397 C4406 0.929 . S
C4398 H4392 0.930 . S
C4398 C4399 1.367 . S
C4398 C4406 1.378 . S
C4399 C4398 1.367 . S
C4399 C4407 1.433 . S
C4400 H4396 0.929 . S
C4400 C4402 1.378 . S
C4400 C4404 1.350 . S
C4401 C4404 1.463 . S
C4401 C4406 1.350 . S
C4401 N4409 1.427 . S
C4402 H4393 0.930 . S
C4402 C4400 1.378 . S
C4402 C4403 1.367 . S
C4403 C4402 1.367 . S
C4403 C4405 1.433 . S
C4404 C4400 1.350 . S
C4404 C4401 1.463 . S
C4404 N4408 1.427 . S
C4405 H4395 0.929 . S
C4405 C4403 1.433 . S
C4405 N4408 1.384 . S
C4406 H4397 0.929 . S
C4406 C4398 1.378 . S
C4406 C4401 1.350 . S
C4407 H4394 0.929 . S
C4407 C4399 1.433 . S
C4407 N4409 1.384 . S
N4408 C4404 1.427 . S
N4408 C4405 1.384 . S
N4409 C4401 1.427 . S
N4409 C4407 1.384 . S
H4410 C4416 0.930 . S
H4411 C4420 0.930 . S
H4412 C4425 0.929 . S
H4413 C4423 0.929 . S
H4414 C4418 0.929 . S
H4415 C4424 0.929 . S
C4416 H4410 0.930 . S
C4416 C4417 1.367 . S
C4416 C4424 1.378 . S
C4417 C4416 1.367 . S
C4417 C4425 1.433 . S
C4418 H4414 0.929 . S
C4418 C4420 1.378 . S
C4418 C4422 1.350 . S
C4419 C4422 1.463 . S
C4419 C4424 1.350 . S
C4419 N4427 1.427 . S
C4420 H4411 0.930 . S
C4420 C4418 1.378 . S
C4420 C4421 1.367 . S
C4421 C4420 1.367 . S
C4421 C4423 1.433 . S
C4422 C4418 1.350 . S
C4422 C4419 1.463 . S
C4422 N4426 1.427 . S
C4423 H4413 0.929 . S
C4423 C4421 1.433 . S
C4423 N4426 1.384 . S
C4424 H4415 0.929 . S
C4424 C4416 1.378 . S
C4424 C4419 1.350 . S
C4425 H4412 0.929 . S
C4425 C4417 1.433 . S
C4425 N4427 1.384 . S
N4426 C4422 1.427 . S
N4426 C4423 1.384 . S
N4427 C4419 1.427 . S
N4427 C4425 1.384 . S
H4428 C4434 0.930 . S
H4429 C4438 0.930 . S
H4430 C4443 0.929 . S
H4431 C4441 0.929 . S
H4432 C4436 0.929 . S
H4433 C4442 0.929 . S
C4434 H4428 0.930 . S
C4434 C4435 1.367 . S
C4434 C4442 1.378 . S
C4435 C4434 1.367 . S
C4435 C4443 1.433 . S
C4436 H4432 0.929 . S
C4436 C4438 1.378 . S
C4436 C4440 1.350 . S
C4437 C4440 1.463 . S
C4437 C4442 1.350 . S
C4437 N4445 1.427 . S
C4438 H4429 0.930 . S
C4438 C4436 1.378 . S
C4438 C4439 1.367 . S
C4439 C4438 1.367 . S
C4439 C4441 1.433 . S
C4440 C4436 1.350 . S
C4440 C4437 1.463 . S
C4440 N4444 1.427 . S
C4441 H4431 0.929 . S
C4441 C4439 1.433 . S
C4441 N4444 1.384 . S
C4442 H4433 0.929 . S
C4442 C4434 1.378 . S
C4442 C4437 1.350 . S
C4443 H4430 0.929 . S
C4443 C4435 1.433 . S
C4443 N4445 1.384 . S
N4444 C4440 1.427 . S
N4444 C4441 1.384 . S
N4445 C4437 1.427 . S
N4445 C4443 1.384 . S
H4446 C4452 0.930 . S
H4447 C4456 0.930 . S
H4448 C4461 0.929 . S
H4449 C4459 0.929 . S
H4450 C4454 0.929 . S
H4451 C4460 0.929 . S
C4452 H4446 0.930 . S
C4452 C4453 1.367 . S
C4452 C4460 1.378 . S
C4453 C4452 1.367 . S
C4453 C4461 1.433 . S
C4454 H4450 0.929 . S
C4454 C4456 1.378 . S
C4454 C4458 1.350 . S
C4455 C4458 1.463 . S
C4455 C4460 1.350 . S
C4455 N4463 1.427 . S
C4456 H4447 0.930 . S
C4456 C4454 1.378 . S
C4456 C4457 1.367 . S
C4457 C4456 1.367 . S
C4457 C4459 1.433 . S
C4458 C4454 1.350 . S
C4458 C4455 1.463 . S
C4458 N4462 1.427 . S
C4459 H4449 0.929 . S
C4459 C4457 1.433 . S
C4459 N4462 1.384 . S
C4460 H4451 0.929 . S
C4460 C4452 1.378 . S
C4460 C4455 1.350 . S
C4461 H4448 0.929 . S
C4461 C4453 1.433 . S
C4461 N4463 1.384 . S
N4462 C4458 1.427 . S
N4462 C4459 1.384 . S
N4463 C4455 1.427 . S
N4463 C4461 1.384 . S
H4464 C4470 0.930 . S
H4465 C4474 0.930 . S
H4466 C4479 0.929 . S
H4467 C4477 0.929 . S
H4468 C4472 0.929 . S
H4469 C4478 0.929 . S
C4470 H4464 0.930 . S
C4470 C4471 1.367 . S
C4470 C4478 1.378 . S
C4471 C4470 1.367 . S
C4471 C4479 1.433 . S
C4472 H4468 0.929 . S
C4472 C4474 1.378 . S
C4472 C4476 1.350 . S
C4473 C4476 1.463 . S
C4473 C4478 1.350 . S
C4473 N4481 1.427 . S
C4474 H4465 0.930 . S
C4474 C4472 1.378 . S
C4474 C4475 1.367 . S
C4475 C4474 1.367 . S
C4475 C4477 1.433 . S
C4476 C4472 1.350 . S
C4476 C4473 1.463 . S
C4476 N4480 1.427 . S
C4477 H4467 0.929 . S
C4477 C4475 1.433 . S
C4477 N4480 1.384 . S
C4478 H4469 0.929 . S
C4478 C4470 1.378 . S
C4478 C4473 1.350 . S
C4479 H4466 0.929 . S
C4479 C4471 1.433 . S
C4479 N4481 1.384 . S
N4480 C4476 1.427 . S
N4480 C4477 1.384 . S
N4481 C4473 1.427 . S
N4481 C4479 1.384 . S
H4482 C4488 0.930 . S
H4483 C4492 0.930 . S
H4484 C4497 0.929 . S
H4485 C4495 0.929 . S
H4486 C4490 0.929 . S
H4487 C4496 0.929 . S
C4488 H4482 0.930 . S
C4488 C4489 1.367 . S
C4488 C4496 1.378 . S
C4489 C4488 1.367 . S
C4489 C4497 1.433 . S
C4490 H4486 0.929 . S
C4490 C4492 1.378 . S
C4490 C4494 1.350 . S
C4491 C4494 1.463 . S
C4491 C4496 1.350 . S
C4491 N4499 1.427 . S
C4492 H4483 0.930 . S
C4492 C4490 1.378 . S
C4492 C4493 1.367 . S
C4493 C4492 1.367 . S
C4493 C4495 1.433 . S
C4494 C4490 1.350 . S
C4494 C4491 1.463 . S
C4494 N4498 1.427 . S
C4495 H4485 0.929 . S
C4495 C4493 1.433 . S
C4495 N4498 1.384 . S
C4496 H4487 0.929 . S
C4496 C4488 1.378 . S
C4496 C4491 1.350 . S
C4497 H4484 0.929 . S
C4497 C4489 1.433 . S
C4497 N4499 1.384 . S
N4498 C4494 1.427 . S
N4498 C4495 1.384 . S
N4499 C4491 1.427 . S
N4499 C4497 1.384 . S
H4500 C4506 0.930 . S
H4501 C4510 0.930 . S
H4502 C4515 0.929 . S
H4503 C4513 0.929 . S
H4504 C4508 0.929 . S
H4505 C4514 0.929 . S
C4506 H4500 0.930 . S
C4506 C4507 1.367 . S
C4506 C4514 1.378 . S
C4507 C4506 1.367 . S
C4507 C4515 1.433 . S
C4508 H4504 0.929 . S
C4508 C4510 1.378 . S
C4508 C4512 1.350 . S
C4509 C4512 1.463 . S
C4509 C4514 1.350 . S
C4509 N4517 1.427 . S
C4510 H4501 0.930 . S
C4510 C4508 1.378 . S
C4510 C4511 1.367 . S
C4511 C4510 1.367 . S
C4511 C4513 1.433 . S
C4512 C4508 1.350 . S
C4512 C4509 1.463 . S
C4512 N4516 1.427 . S
C4513 H4503 0.929 . S
C4513 C4511 1.433 . S
C4513 N4516 1.384 . S
C4514 H4505 0.929 . S
C4514 C4506 1.378 . S
C4514 C4509 1.350 . S
C4515 H4502 0.929 . S
C4515 C4507 1.433 . S
C4515 N4517 1.384 . S
N4516 C4512 1.427 . S
N4516 C4513 1.384 . S
N4517 C4509 1.427 . S
N4517 C4515 1.384 . S
H4518 C4524 0.930 . S
H4519 C4528 0.930 . S
H4520 C4533 0.929 . S
H4521 C4531 0.929 . S
H4522 C4526 0.929 . S
H4523 C4532 0.929 . S
C4524 H4518 0.930 . S
C4524 C4525 1.367 . S
C4524 C4532 1.378 . S
C4525 C4524 1.367 . S
C4525 C4533 1.433 . S
C4526 H4522 0.929 . S
C4526 C4528 1.378 . S
C4526 C4530 1.350 . S
C4527 C4530 1.463 . S
C4527 C4532 1.350 . S
C4527 N4535 1.427 . S
C4528 H4519 0.930 . S
C4528 C4526 1.378 . S
C4528 C4529 1.367 . S
C4529 C4528 1.367 . S
C4529 C4531 1.433 . S
C4530 C4526 1.350 . S
C4530 C4527 1.463 . S
C4530 N4534 1.427 . S
C4531 H4521 0.929 . S
C4531 C4529 1.433 . S
C4531 N4534 1.384 . S
C4532 H4523 0.929 . S
C4532 C4524 1.378 . S
C4532 C4527 1.350 . S
C4533 H4520 0.929 . S
C4533 C4525 1.433 . S
C4533 N4535 1.384 . S
N4534 C4530 1.427 . S
N4534 C4531 1.384 . S
N4535 C4527 1.427 . S
N4535 C4533 1.384 . S
H4536 C4542 0.930 . S
H4537 C4546 0.930 . S
H4538 C4551 0.929 . S
H4539 C4549 0.929 . S
H4540 C4544 0.929 . S
H4541 C4550 0.929 . S
C4542 H4536 0.930 . S
C4542 C4543 1.367 . S
C4542 C4550 1.378 . S
C4543 C4542 1.367 . S
C4543 C4551 1.433 . S
C4544 H4540 0.929 . S
C4544 C4546 1.378 . S
C4544 C4548 1.350 . S
C4545 C4548 1.463 . S
C4545 C4550 1.350 . S
C4545 N4553 1.427 . S
C4546 H4537 0.930 . S
C4546 C4544 1.378 . S
C4546 C4547 1.367 . S
C4547 C4546 1.367 . S
C4547 C4549 1.433 . S
C4548 C4544 1.350 . S
C4548 C4545 1.463 . S
C4548 N4552 1.427 . S
C4549 H4539 0.929 . S
C4549 C4547 1.433 . S
C4549 N4552 1.384 . S
C4550 H4541 0.929 . S
C4550 C4542 1.378 . S
C4550 C4545 1.350 . S
C4551 H4538 0.929 . S
C4551 C4543 1.433 . S
C4551 N4553 1.384 . S
N4552 C4548 1.427 . S
N4552 C4549 1.384 . S
N4553 C4545 1.427 . S
N4553 C4551 1.384 . S
H4554 C4560 0.930 . S
H4555 C4564 0.930 . S
H4556 C4569 0.929 . S
H4557 C4567 0.929 . S
H4558 C4562 0.929 . S
H4559 C4568 0.929 . S
C4560 H4554 0.930 . S
C4560 C4561 1.367 . S
C4560 C4568 1.378 . S
C4561 C4560 1.367 . S
C4561 C4569 1.433 . S
C4562 H4558 0.929 . S
C4562 C4564 1.378 . S
C4562 C4566 1.350 . S
C4563 C4566 1.463 . S
C4563 C4568 1.350 . S
C4563 N4571 1.427 . S
C4564 H4555 0.930 . S
C4564 C4562 1.378 . S
C4564 C4565 1.367 . S
C4565 C4564 1.367 . S
C4565 C4567 1.433 . S
C4566 C4562 1.350 . S
C4566 C4563 1.463 . S
C4566 N4570 1.427 . S
C4567 H4557 0.929 . S
C4567 C4565 1.433 . S
C4567 N4570 1.384 . S
C4568 H4559 0.929 . S
C4568 C4560 1.378 . S
C4568 C4563 1.350 . S
C4569 H4556 0.929 . S
C4569 C4561 1.433 . S
C4569 N4571 1.384 . S
N4570 C4566 1.427 . S
N4570 C4567 1.384 . S
N4571 C4563 1.427 . S
N4571 C4569 1.384 . S
H4572 C4578 0.930 . S
H4573 C4582 0.930 . S
H4574 C4587 0.929 . S
H4575 C4585 0.929 . S
H4576 C4580 0.929 . S
H4577 C4586 0.929 . S
C4578 H4572 0.930 . S
C4578 C4579 1.367 . S
C4578 C4586 1.378 . S
C4579 C4578 1.367 . S
C4579 C4587 1.433 . S
C4580 H4576 0.929 . S
C4580 C4582 1.378 . S
C4580 C4584 1.350 . S
C4581 C4584 1.463 . S
C4581 C4586 1.350 . S
C4581 N4589 1.427 . S
C4582 H4573 0.930 . S
C4582 C4580 1.378 . S
C4582 C4583 1.367 . S
C4583 C4582 1.367 . S
C4583 C4585 1.433 . S
C4584 C4580 1.350 . S
C4584 C4581 1.463 . S
C4584 N4588 1.427 . S
C4585 H4575 0.929 . S
C4585 C4583 1.433 . S
C4585 N4588 1.384 . S
C4586 H4577 0.929 . S
C4586 C4578 1.378 . S
C4586 C4581 1.350 . S
C4587 H4574 0.929 . S
C4587 C4579 1.433 . S
C4587 N4589 1.384 . S
N4588 C4584 1.427 . S
N4588 C4585 1.384 . S
N4589 C4581 1.427 . S
N4589 C4587 1.384 . S
H4590 C4596 0.930 . S
H4591 C4600 0.930 . S
H4592 C4605 0.929 . S
H4593 C4603 0.929 . S
H4594 C4598 0.929 . S
H4595 C4604 0.929 . S
C4596 H4590 0.930 . S
C4596 C4597 1.367 . S
C4596 C4604 1.378 . S
C4597 C4596 1.367 . S
C4597 C4605 1.433 . S
C4598 H4594 0.929 . S
C4598 C4600 1.378 . S
C4598 C4602 1.350 . S
C4599 C4602 1.463 . S
C4599 C4604 1.350 . S
C4599 N4607 1.427 . S
C4600 H4591 0.930 . S
C4600 C4598 1.378 . S
C4600 C4601 1.367 . S
C4601 C4600 1.367 . S
C4601 C4603 1.433 . S
C4602 C4598 1.350 . S
C4602 C4599 1.463 . S
C4602 N4606 1.427 . S
C4603 H4593 0.929 . S
C4603 C4601 1.433 . S
C4603 N4606 1.384 . S
C4604 H4595 0.929 . S
C4604 C4596 1.378 . S
C4604 C4599 1.350 . S
C4605 H4592 0.929 . S
C4605 C4597 1.433 . S
C4605 N4607 1.384 . S
N4606 C4602 1.427 . S
N4606 C4603 1.384 . S
N4607 C4599 1.427 . S
N4607 C4605 1.384 . S
H4608 C4614 0.930 . S
H4609 C4618 0.930 . S
H4610 C4623 0.929 . S
H4611 C4621 0.929 . S
H4612 C4616 0.929 . S
H4613 C4622 0.929 . S
C4614 H4608 0.930 . S
C4614 C4615 1.367 . S
C4614 C4622 1.378 . S
C4615 C4614 1.367 . S
C4615 C4623 1.433 . S
C4616 H4612 0.929 . S
C4616 C4618 1.378 . S
C4616 C4620 1.350 . S
C4617 C4620 1.463 . S
C4617 C4622 1.350 . S
C4617 N4625 1.427 . S
C4618 H4609 0.930 . S
C4618 C4616 1.378 . S
C4618 C4619 1.367 . S
C4619 C4618 1.367 . S
C4619 C4621 1.433 . S
C4620 C4616 1.350 . S
C4620 C4617 1.463 . S
C4620 N4624 1.427 . S
C4621 H4611 0.929 . S
C4621 C4619 1.433 . S
C4621 N4624 1.384 . S
C4622 H4613 0.929 . S
C4622 C4614 1.378 . S
C4622 C4617 1.350 . S
C4623 H4610 0.929 . S
C4623 C4615 1.433 . S
C4623 N4625 1.384 . S
N4624 C4620 1.427 . S
N4624 C4621 1.384 . S
N4625 C4617 1.427 . S
N4625 C4623 1.384 . S
H4626 C4632 0.930 . S
H4627 C4636 0.930 . S
H4628 C4641 0.929 . S
H4629 C4639 0.929 . S
H4630 C4634 0.929 . S
H4631 C4640 0.929 . S
C4632 H4626 0.930 . S
C4632 C4633 1.367 . S
C4632 C4640 1.378 . S
C4633 C4632 1.367 . S
C4633 C4641 1.433 . S
C4634 H4630 0.929 . S
C4634 C4636 1.378 . S
C4634 C4638 1.350 . S
C4635 C4638 1.463 . S
C4635 C4640 1.350 . S
C4635 N4643 1.427 . S
C4636 H4627 0.930 . S
C4636 C4634 1.378 . S
C4636 C4637 1.367 . S
C4637 C4636 1.367 . S
C4637 C4639 1.433 . S
C4638 C4634 1.350 . S
C4638 C4635 1.463 . S
C4638 N4642 1.427 . S
C4639 H4629 0.929 . S
C4639 C4637 1.433 . S
C4639 N4642 1.384 . S
C4640 H4631 0.929 . S
C4640 C4632 1.378 . S
C4640 C4635 1.350 . S
C4641 H4628 0.929 . S
C4641 C4633 1.433 . S
C4641 N4643 1.384 . S
N4642 C4638 1.427 . S
N4642 C4639 1.384 . S
N4643 C4635 1.427 . S
N4643 C4641 1.384 . S
H4644 C4650 0.930 . S
H4645 C4654 0.930 . S
H4646 C4659 0.929 . S
H4647 C4657 0.929 . S
H4648 C4652 0.929 . S
H4649 C4658 0.929 . S
C4650 H4644 0.930 . S
C4650 C4651 1.367 . S
C4650 C4658 1.378 . S
C4651 C4650 1.367 . S
C4651 C4659 1.433 . S
C4652 H4648 0.929 . S
C4652 C4654 1.378 . S
C4652 C4656 1.350 . S
C4653 C4656 1.463 . S
C4653 C4658 1.350 . S
C4653 N4661 1.427 . S
C4654 H4645 0.930 . S
C4654 C4652 1.378 . S
C4654 C4655 1.367 . S
C4655 C4654 1.367 . S
C4655 C4657 1.433 . S
C4656 C4652 1.350 . S
C4656 C4653 1.463 . S
C4656 N4660 1.427 . S
C4657 H4647 0.929 . S
C4657 C4655 1.433 . S
C4657 N4660 1.384 . S
C4658 H4649 0.929 . S
C4658 C4650 1.378 . S
C4658 C4653 1.350 . S
C4659 H4646 0.929 . S
C4659 C4651 1.433 . S
C4659 N4661 1.384 . S
N4660 C4656 1.427 . S
N4660 C4657 1.384 . S
N4661 C4653 1.427 . S
N4661 C4659 1.384 . S
H4662 C4668 0.930 . S
H4663 C4672 0.930 . S
H4664 C4677 0.929 . S
H4665 C4675 0.929 . S
H4666 C4670 0.929 . S
H4667 C4676 0.929 . S
C4668 H4662 0.930 . S
C4668 C4669 1.367 . S
C4668 C4676 1.378 . S
C4669 C4668 1.367 . S
C4669 C4677 1.433 . S
C4670 H4666 0.929 . S
C4670 C4672 1.378 . S
C4670 C4674 1.350 . S
C4671 C4674 1.463 . S
C4671 C4676 1.350 . S
C4671 N4679 1.427 . S
C4672 H4663 0.930 . S
C4672 C4670 1.378 . S
C4672 C4673 1.367 . S
C4673 C4672 1.367 . S
C4673 C4675 1.433 . S
C4674 C4670 1.350 . S
C4674 C4671 1.463 . S
C4674 N4678 1.427 . S
C4675 H4665 0.929 . S
C4675 C4673 1.433 . S
C4675 N4678 1.384 . S
C4676 H4667 0.929 . S
C4676 C4668 1.378 . S
C4676 C4671 1.350 . S
C4677 H4664 0.929 . S
C4677 C4669 1.433 . S
C4677 N4679 1.384 . S
N4678 C4674 1.427 . S
N4678 C4675 1.384 . S
N4679 C4671 1.427 . S
N4679 C4677 1.384 . S
H4680 C4686 0.930 . S
H4681 C4690 0.930 . S
H4682 C4695 0.929 . S
H4683 C4693 0.929 . S
H4684 C4688 0.929 . S
H4685 C4694 0.929 . S
C4686 H4680 0.930 . S
C4686 C4687 1.367 . S
C4686 C4694 1.378 . S
C4687 C4686 1.367 . S
C4687 C4695 1.433 . S
C4688 H4684 0.929 . S
C4688 C4690 1.378 . S
C4688 C4692 1.350 . S
C4689 C4692 1.463 . S
C4689 C4694 1.350 . S
C4689 N4697 1.427 . S
C4690 H4681 0.930 . S
C4690 C4688 1.378 . S
C4690 C4691 1.367 . S
C4691 C4690 1.367 . S
C4691 C4693 1.433 . S
C4692 C4688 1.350 . S
C4692 C4689 1.463 . S
C4692 N4696 1.427 . S
C4693 H4683 0.929 . S
C4693 C4691 1.433 . S
C4693 N4696 1.384 . S
C4694 H4685 0.929 . S
C4694 C4686 1.378 . S
C4694 C4689 1.350 . S
C4695 H4682 0.929 . S
C4695 C4687 1.433 . S
C4695 N4697 1.384 . S
N4696 C4692 1.427 . S
N4696 C4693 1.384 . S
N4697 C4689 1.427 . S
N4697 C4695 1.384 . S
H4698 C4704 0.930 . S
H4699 C4708 0.930 . S
H4700 C4713 0.929 . S
H4701 C4711 0.929 . S
H4702 C4706 0.929 . S
H4703 C4712 0.929 . S
C4704 H4698 0.930 . S
C4704 C4705 1.367 . S
C4704 C4712 1.378 . S
C4705 C4704 1.367 . S
C4705 C4713 1.433 . S
C4706 H4702 0.929 . S
C4706 C4708 1.378 . S
C4706 C4710 1.350 . S
C4707 C4710 1.463 . S
C4707 C4712 1.350 . S
C4707 N4715 1.427 . S
C4708 H4699 0.930 . S
C4708 C4706 1.378 . S
C4708 C4709 1.367 . S
C4709 C4708 1.367 . S
C4709 C4711 1.433 . S
C4710 C4706 1.350 . S
C4710 C4707 1.463 . S
C4710 N4714 1.427 . S
C4711 H4701 0.929 . S
C4711 C4709 1.433 . S
C4711 N4714 1.384 . S
C4712 H4703 0.929 . S
C4712 C4704 1.378 . S
C4712 C4707 1.350 . S
C4713 H4700 0.929 . S
C4713 C4705 1.433 . S
C4713 N4715 1.384 . S
N4714 C4710 1.427 . S
N4714 C4711 1.384 . S
N4715 C4707 1.427 . S
N4715 C4713 1.384 . S
H4716 C4722 0.930 . S
H4717 C4726 0.930 . S
H4718 C4731 0.929 . S
H4719 C4729 0.929 . S
H4720 C4724 0.929 . S
H4721 C4730 0.929 . S
C4722 H4716 0.930 . S
C4722 C4723 1.367 . S
C4722 C4730 1.378 . S
C4723 C4722 1.367 . S
C4723 C4731 1.433 . S
C4724 H4720 0.929 . S
C4724 C4726 1.378 . S
C4724 C4728 1.350 . S
C4725 C4728 1.463 . S
C4725 C4730 1.350 . S
C4725 N4733 1.427 . S
C4726 H4717 0.930 . S
C4726 C4724 1.378 . S
C4726 C4727 1.367 . S
C4727 C4726 1.367 . S
C4727 C4729 1.433 . S
C4728 C4724 1.350 . S
C4728 C4725 1.463 . S
C4728 N4732 1.427 . S
C4729 H4719 0.929 . S
C4729 C4727 1.433 . S
C4729 N4732 1.384 . S
C4730 H4721 0.929 . S
C4730 C4722 1.378 . S
C4730 C4725 1.350 . S
C4731 H4718 0.929 . S
C4731 C4723 1.433 . S
C4731 N4733 1.384 . S
N4732 C4728 1.427 . S
N4732 C4729 1.384 . S
N4733 C4725 1.427 . S
N4733 C4731 1.384 . S
H4734 C4740 0.930 . S
H4735 C4744 0.930 . S
H4736 C4749 0.929 . S
H4737 C4747 0.929 . S
H4738 C4742 0.929 . S
H4739 C4748 0.929 . S
C4740 H4734 0.930 . S
C4740 C4741 1.367 . S
C4740 C4748 1.378 . S
C4741 C4740 1.367 . S
C4741 C4749 1.433 . S
C4742 H4738 0.929 . S
C4742 C4744 1.378 . S
C4742 C4746 1.350 . S
C4743 C4746 1.463 . S
C4743 C4748 1.350 . S
C4743 N4751 1.427 . S
C4744 H4735 0.930 . S
C4744 C4742 1.378 . S
C4744 C4745 1.367 . S
C4745 C4744 1.367 . S
C4745 C4747 1.433 . S
C4746 C4742 1.350 . S
C4746 C4743 1.463 . S
C4746 N4750 1.427 . S
C4747 H4737 0.929 . S
C4747 C4745 1.433 . S
C4747 N4750 1.384 . S
C4748 H4739 0.929 . S
C4748 C4740 1.378 . S
C4748 C4743 1.350 . S
C4749 H4736 0.929 . S
C4749 C4741 1.433 . S
C4749 N4751 1.384 . S
N4750 C4746 1.427 . S
N4750 C4747 1.384 . S
N4751 C4743 1.427 . S
N4751 C4749 1.384 . S
H4752 C4758 0.930 . S
H4753 C4762 0.930 . S
H4754 C4767 0.929 . S
H4755 C4765 0.929 . S
H4756 C4760 0.929 . S
H4757 C4766 0.929 . S
C4758 H4752 0.930 . S
C4758 C4759 1.367 . S
C4758 C4766 1.378 . S
C4759 C4758 1.367 . S
C4759 C4767 1.433 . S
C4760 H4756 0.929 . S
C4760 C4762 1.378 . S
C4760 C4764 1.350 . S
C4761 C4764 1.463 . S
C4761 C4766 1.350 . S
C4761 N4769 1.427 . S
C4762 H4753 0.930 . S
C4762 C4760 1.378 . S
C4762 C4763 1.367 . S
C4763 C4762 1.367 . S
C4763 C4765 1.433 . S
C4764 C4760 1.350 . S
C4764 C4761 1.463 . S
C4764 N4768 1.427 . S
C4765 H4755 0.929 . S
C4765 C4763 1.433 . S
C4765 N4768 1.384 . S
C4766 H4757 0.929 . S
C4766 C4758 1.378 . S
C4766 C4761 1.350 . S
C4767 H4754 0.929 . S
C4767 C4759 1.433 . S
C4767 N4769 1.384 . S
N4768 C4764 1.427 . S
N4768 C4765 1.384 . S
N4769 C4761 1.427 . S
N4769 C4767 1.384 . S
H4770 C4776 0.930 . S
H4771 C4780 0.930 . S
H4772 C4785 0.929 . S
H4773 C4783 0.929 . S
H4774 C4778 0.929 . S
H4775 C4784 0.929 . S
C4776 H4770 0.930 . S
C4776 C4777 1.367 . S
C4776 C4784 1.378 . S
C4777 C4776 1.367 . S
C4777 C4785 1.433 . S
C4778 H4774 0.929 . S
C4778 C4780 1.378 . S
C4778 C4782 1.350 . S
C4779 C4782 1.463 . S
C4779 C4784 1.350 . S
C4779 N4787 1.427 . S
C4780 H4771 0.930 . S
C4780 C4778 1.378 . S
C4780 C4781 1.367 . S
C4781 C4780 1.367 . S
C4781 C4783 1.433 . S
C4782 C4778 1.350 . S
C4782 C4779 1.463 . S
C4782 N4786 1.427 . S
C4783 H4773 0.929 . S
C4783 C4781 1.433 . S
C4783 N4786 1.384 . S
C4784 H4775 0.929 . S
C4784 C4776 1.378 . S
C4784 C4779 1.350 . S
C4785 H4772 0.929 . S
C4785 C4777 1.433 . S
C4785 N4787 1.384 . S
N4786 C4782 1.427 . S
N4786 C4783 1.384 . S
N4787 C4779 1.427 . S
N4787 C4785 1.384 . S
H4788 C4794 0.930 . S
H4789 C4798 0.930 . S
H4790 C4803 0.929 . S
H4791 C4801 0.929 . S
H4792 C4796 0.929 . S
H4793 C4802 0.929 . S
C4794 H4788 0.930 . S
C4794 C4795 1.367 . S
C4794 C4802 1.378 . S
C4795 C4794 1.367 . S
C4795 C4803 1.433 . S
C4796 H4792 0.929 . S
C4796 C4798 1.378 . S
C4796 C4800 1.350 . S
C4797 C4800 1.463 . S
C4797 C4802 1.350 . S
C4797 N4805 1.427 . S
C4798 H4789 0.930 . S
C4798 C4796 1.378 . S
C4798 C4799 1.367 . S
C4799 C4798 1.367 . S
C4799 C4801 1.433 . S
C4800 C4796 1.350 . S
C4800 C4797 1.463 . S
C4800 N4804 1.427 . S
C4801 H4791 0.929 . S
C4801 C4799 1.433 . S
C4801 N4804 1.384 . S
C4802 H4793 0.929 . S
C4802 C4794 1.378 . S
C4802 C4797 1.350 . S
C4803 H4790 0.929 . S
C4803 C4795 1.433 . S
C4803 N4805 1.384 . S
N4804 C4800 1.427 . S
N4804 C4801 1.384 . S
N4805 C4797 1.427 . S
N4805 C4803 1.384 . S
H4806 C4812 0.930 . S
H4807 C4816 0.930 . S
H4808 C4821 0.929 . S
H4809 C4819 0.929 . S
H4810 C4814 0.929 . S
H4811 C4820 0.929 . S
C4812 H4806 0.930 . S
C4812 C4813 1.367 . S
C4812 C4820 1.378 . S
C4813 C4812 1.367 . S
C4813 C4821 1.433 . S
C4814 H4810 0.929 . S
C4814 C4816 1.378 . S
C4814 C4818 1.350 . S
C4815 C4818 1.463 . S
C4815 C4820 1.350 . S
C4815 N4823 1.427 . S
C4816 H4807 0.930 . S
C4816 C4814 1.378 . S
C4816 C4817 1.367 . S
C4817 C4816 1.367 . S
C4817 C4819 1.433 . S
C4818 C4814 1.350 . S
C4818 C4815 1.463 . S
C4818 N4822 1.427 . S
C4819 H4809 0.929 . S
C4819 C4817 1.433 . S
C4819 N4822 1.384 . S
C4820 H4811 0.929 . S
C4820 C4812 1.378 . S
C4820 C4815 1.350 . S
C4821 H4808 0.929 . S
C4821 C4813 1.433 . S
C4821 N4823 1.384 . S
N4822 C4818 1.427 . S
N4822 C4819 1.384 . S
N4823 C4815 1.427 . S
N4823 C4821 1.384 . S
H4824 C4830 0.930 . S
H4825 C4834 0.930 . S
H4826 C4839 0.929 . S
H4827 C4837 0.929 . S
H4828 C4832 0.929 . S
H4829 C4838 0.929 . S
C4830 H4824 0.930 . S
C4830 C4831 1.367 . S
C4830 C4838 1.378 . S
C4831 C4830 1.367 . S
C4831 C4839 1.433 . S
C4832 H4828 0.929 . S
C4832 C4834 1.378 . S
C4832 C4836 1.350 . S
C4833 C4836 1.463 . S
C4833 C4838 1.350 . S
C4833 N4841 1.427 . S
C4834 H4825 0.930 . S
C4834 C4832 1.378 . S
C4834 C4835 1.367 . S
C4835 C4834 1.367 . S
C4835 C4837 1.433 . S
C4836 C4832 1.350 . S
C4836 C4833 1.463 . S
C4836 N4840 1.427 . S
C4837 H4827 0.929 . S
C4837 C4835 1.433 . S
C4837 N4840 1.384 . S
C4838 H4829 0.929 . S
C4838 C4830 1.378 . S
C4838 C4833 1.350 . S
C4839 H4826 0.929 . S
C4839 C4831 1.433 . S
C4839 N4841 1.384 . S
N4840 C4836 1.427 . S
N4840 C4837 1.384 . S
N4841 C4833 1.427 . S
N4841 C4839 1.384 . S
H4842 C4848 0.930 . S
H4843 C4852 0.930 . S
H4844 C4857 0.929 . S
H4845 C4855 0.929 . S
H4846 C4850 0.929 . S
H4847 C4856 0.929 . S
C4848 H4842 0.930 . S
C4848 C4849 1.367 . S
C4848 C4856 1.378 . S
C4849 C4848 1.367 . S
C4849 C4857 1.433 . S
C4850 H4846 0.929 . S
C4850 C4852 1.378 . S
C4850 C4854 1.350 . S
C4851 C4854 1.463 . S
C4851 C4856 1.350 . S
C4851 N4859 1.427 . S
C4852 H4843 0.930 . S
C4852 C4850 1.378 . S
C4852 C4853 1.367 . S
C4853 C4852 1.367 . S
C4853 C4855 1.433 . S
C4854 C4850 1.350 . S
C4854 C4851 1.463 . S
C4854 N4858 1.427 . S
C4855 H4845 0.929 . S
C4855 C4853 1.433 . S
C4855 N4858 1.384 . S
C4856 H4847 0.929 . S
C4856 C4848 1.378 . S
C4856 C4851 1.350 . S
C4857 H4844 0.929 . S
C4857 C4849 1.433 . S
C4857 N4859 1.384 . S
N4858 C4854 1.427 . S
N4858 C4855 1.384 . S
N4859 C4851 1.427 . S
N4859 C4857 1.384 . S
H4860 C4866 0.930 . S
H4861 C4870 0.930 . S
H4862 C4875 0.929 . S
H4863 C4873 0.929 . S
H4864 C4868 0.929 . S
H4865 C4874 0.929 . S
C4866 H4860 0.930 . S
C4866 C4867 1.367 . S
C4866 C4874 1.378 . S
C4867 C4866 1.367 . S
C4867 C4875 1.433 . S
C4868 H4864 0.929 . S
C4868 C4870 1.378 . S
C4868 C4872 1.350 . S
C4869 C4872 1.463 . S
C4869 C4874 1.350 . S
C4869 N4877 1.427 . S
C4870 H4861 0.930 . S
C4870 C4868 1.378 . S
C4870 C4871 1.367 . S
C4871 C4870 1.367 . S
C4871 C4873 1.433 . S
C4872 C4868 1.350 . S
C4872 C4869 1.463 . S
C4872 N4876 1.427 . S
C4873 H4863 0.929 . S
C4873 C4871 1.433 . S
C4873 N4876 1.384 . S
C4874 H4865 0.929 . S
C4874 C4866 1.378 . S
C4874 C4869 1.350 . S
C4875 H4862 0.929 . S
C4875 C4867 1.433 . S
C4875 N4877 1.384 . S
N4876 C4872 1.427 . S
N4876 C4873 1.384 . S
N4877 C4869 1.427 . S
N4877 C4875 1.384 . S
H4878 C4884 0.930 . S
H4879 C4888 0.930 . S
H4880 C4893 0.929 . S
H4881 C4891 0.929 . S
H4882 C4886 0.929 . S
H4883 C4892 0.929 . S
C4884 H4878 0.930 . S
C4884 C4885 1.367 . S
C4884 C4892 1.378 . S
C4885 C4884 1.367 . S
C4885 C4893 1.433 . S
C4886 H4882 0.929 . S
C4886 C4888 1.378 . S
C4886 C4890 1.350 . S
C4887 C4890 1.463 . S
C4887 C4892 1.350 . S
C4887 N4895 1.427 . S
C4888 H4879 0.930 . S
C4888 C4886 1.378 . S
C4888 C4889 1.367 . S
C4889 C4888 1.367 . S
C4889 C4891 1.433 . S
C4890 C4886 1.350 . S
C4890 C4887 1.463 . S
C4890 N4894 1.427 . S
C4891 H4881 0.929 . S
C4891 C4889 1.433 . S
C4891 N4894 1.384 . S
C4892 H4883 0.929 . S
C4892 C4884 1.378 . S
C4892 C4887 1.350 . S
C4893 H4880 0.929 . S
C4893 C4885 1.433 . S
C4893 N4895 1.384 . S
N4894 C4890 1.427 . S
N4894 C4891 1.384 . S
N4895 C4887 1.427 . S
N4895 C4893 1.384 . S
H4896 C4902 0.930 . S
H4897 C4906 0.930 . S
H4898 C4911 0.929 . S
H4899 C4909 0.929 . S
H4900 C4904 0.929 . S
H4901 C4910 0.929 . S
C4902 H4896 0.930 . S
C4902 C4903 1.367 . S
C4902 C4910 1.378 . S
C4903 C4902 1.367 . S
C4903 C4911 1.433 . S
C4904 H4900 0.929 . S
C4904 C4906 1.378 . S
C4904 C4908 1.350 . S
C4905 C4908 1.463 . S
C4905 C4910 1.350 . S
C4905 N4913 1.427 . S
C4906 H4897 0.930 . S
C4906 C4904 1.378 . S
C4906 C4907 1.367 . S
C4907 C4906 1.367 . S
C4907 C4909 1.433 . S
C4908 C4904 1.350 . S
C4908 C4905 1.463 . S
C4908 N4912 1.427 . S
C4909 H4899 0.929 . S
C4909 C4907 1.433 . S
C4909 N4912 1.384 . S
C4910 H4901 0.929 . S
C4910 C4902 1.378 . S
C4910 C4905 1.350 . S
C4911 H4898 0.929 . S
C4911 C4903 1.433 . S
C4911 N4913 1.384 . S
N4912 C4908 1.427 . S
N4912 C4909 1.384 . S
N4913 C4905 1.427 . S
N4913 C4911 1.384 . S
H4914 C4920 0.930 . S
H4915 C4924 0.930 . S
H4916 C4929 0.929 . S
H4917 C4927 0.929 . S
H4918 C4922 0.929 . S
H4919 C4928 0.929 . S
C4920 H4914 0.930 . S
C4920 C4921 1.367 . S
C4920 C4928 1.378 . S
C4921 C4920 1.367 . S
C4921 C4929 1.433 . S
C4922 H4918 0.929 . S
C4922 C4924 1.378 . S
C4922 C4926 1.350 . S
C4923 C4926 1.463 . S
C4923 C4928 1.350 . S
C4923 N4931 1.427 . S
C4924 H4915 0.930 . S
C4924 C4922 1.378 . S
C4924 C4925 1.367 . S
C4925 C4924 1.367 . S
C4925 C4927 1.433 . S
C4926 C4922 1.350 . S
C4926 C4923 1.463 . S
C4926 N4930 1.427 . S
C4927 H4917 0.929 . S
C4927 C4925 1.433 . S
C4927 N4930 1.384 . S
C4928 H4919 0.929 . S
C4928 C4920 1.378 . S
C4928 C4923 1.350 . S
C4929 H4916 0.929 . S
C4929 C4921 1.433 . S
C4929 N4931 1.384 . S
N4930 C4926 1.427 . S
N4930 C4927 1.384 . S
N4931 C4923 1.427 . S
N4931 C4929 1.384 . S
H4932 C4938 0.930 . S
H4933 C4942 0.930 . S
H4934 C4947 0.929 . S
H4935 C4945 0.929 . S
H4936 C4940 0.929 . S
H4937 C4946 0.929 . S
C4938 H4932 0.930 . S
C4938 C4939 1.367 . S
C4938 C4946 1.378 . S
C4939 C4938 1.367 . S
C4939 C4947 1.433 . S
C4940 H4936 0.929 . S
C4940 C4942 1.378 . S
C4940 C4944 1.350 . S
C4941 C4944 1.463 . S
C4941 C4946 1.350 . S
C4941 N4949 1.427 . S
C4942 H4933 0.930 . S
C4942 C4940 1.378 . S
C4942 C4943 1.367 . S
C4943 C4942 1.367 . S
C4943 C4945 1.433 . S
C4944 C4940 1.350 . S
C4944 C4941 1.463 . S
C4944 N4948 1.427 . S
C4945 H4935 0.929 . S
C4945 C4943 1.433 . S
C4945 N4948 1.384 . S
C4946 H4937 0.929 . S
C4946 C4938 1.378 . S
C4946 C4941 1.350 . S
C4947 H4934 0.929 . S
C4947 C4939 1.433 . S
C4947 N4949 1.384 . S
N4948 C4944 1.427 . S
N4948 C4945 1.384 . S
N4949 C4941 1.427 . S
N4949 C4947 1.384 . S
H4950 C4956 0.930 . S
H4951 C4960 0.930 . S
H4952 C4965 0.929 . S
H4953 C4963 0.929 . S
H4954 C4958 0.929 . S
H4955 C4964 0.929 . S
C4956 H4950 0.930 . S
C4956 C4957 1.367 . S
C4956 C4964 1.378 . S
C4957 C4956 1.367 . S
C4957 C4965 1.433 . S
C4958 H4954 0.929 . S
C4958 C4960 1.378 . S
C4958 C4962 1.350 . S
C4959 C4962 1.463 . S
C4959 C4964 1.350 . S
C4959 N4967 1.427 . S
C4960 H4951 0.930 . S
C4960 C4958 1.378 . S
C4960 C4961 1.367 . S
C4961 C4960 1.367 . S
C4961 C4963 1.433 . S
C4962 C4958 1.350 . S
C4962 C4959 1.463 . S
C4962 N4966 1.427 . S
C4963 H4953 0.929 . S
C4963 C4961 1.433 . S
C4963 N4966 1.384 . S
C4964 H4955 0.929 . S
C4964 C4956 1.378 . S
C4964 C4959 1.350 . S
C4965 H4952 0.929 . S
C4965 C4957 1.433 . S
C4965 N4967 1.384 . S
N4966 C4962 1.427 . S
N4966 C4963 1.384 . S
N4967 C4959 1.427 . S
N4967 C4965 1.384 . S
H4968 C4974 0.930 . S
H4969 C4978 0.930 . S
H4970 C4983 0.929 . S
H4971 C4981 0.929 . S
H4972 C4976 0.929 . S
H4973 C4982 0.929 . S
C4974 H4968 0.930 . S
C4974 C4975 1.367 . S
C4974 C4982 1.378 . S
C4975 C4974 1.367 . S
C4975 C4983 1.433 . S
C4976 H4972 0.929 . S
C4976 C4978 1.378 . S
C4976 C4980 1.350 . S
C4977 C4980 1.463 . S
C4977 C4982 1.350 . S
C4977 N4985 1.427 . S
C4978 H4969 0.930 . S
C4978 C4976 1.378 . S
C4978 C4979 1.367 . S
C4979 C4978 1.367 . S
C4979 C4981 1.433 . S
C4980 C4976 1.350 . S
C4980 C4977 1.463 . S
C4980 N4984 1.427 . S
C4981 H4971 0.929 . S
C4981 C4979 1.433 . S
C4981 N4984 1.384 . S
C4982 H4973 0.929 . S
C4982 C4974 1.378 . S
C4982 C4977 1.350 . S
C4983 H4970 0.929 . S
C4983 C4975 1.433 . S
C4983 N4985 1.384 . S
N4984 C4980 1.427 . S
N4984 C4981 1.384 . S
N4985 C4977 1.427 . S
N4985 C4983 1.384 . S
H4986 C4992 0.930 . S
H4987 C4996 0.930 . S
H4988 C5001 0.929 . S
H4989 C4999 0.929 . S
H4990 C4994 0.929 . S
H4991 C5000 0.929 . S
C4992 H4986 0.930 . S
C4992 C4993 1.367 . S
C4992 C5000 1.378 . S
C4993 C4992 1.367 . S
C4993 C5001 1.433 . S
C4994 H4990 0.929 . S
C4994 C4996 1.378 . S
C4994 C4998 1.350 . S
C4995 C4998 1.463 . S
C4995 C5000 1.350 . S
C4995 N5003 1.427 . S
C4996 H4987 0.930 . S
C4996 C4994 1.378 . S
C4996 C4997 1.367 . S
C4997 C4996 1.367 . S
C4997 C4999 1.433 . S
C4998 C4994 1.350 . S
C4998 C4995 1.463 . S
C4998 N5002 1.427 . S
C4999 H4989 0.929 . S
C4999 C4997 1.433 . S
C4999 N5002 1.384 . S
C5000 H4991 0.929 . S
C5000 C4992 1.378 . S
C5000 C4995 1.350 . S
C5001 H4988 0.929 . S
C5001 C4993 1.433 . S
C5001 N5003 1.384 . S
N5002 C4998 1.427 . S
N5002 C4999 1.384 . S
N5003 C4995 1.427 . S
N5003 C5001 1.384 . S
H5004 C5010 0.930 . S
H5005 C5014 0.930 . S
H5006 C5019 0.929 . S
H5007 C5017 0.929 . S
H5008 C5012 0.929 . S
H5009 C5018 0.929 . S
C5010 H5004 0.930 . S
C5010 C5011 1.367 . S
C5010 C5018 1.378 . S
C5011 C5010 1.367 . S
C5011 C5019 1.433 . S
C5012 H5008 0.929 . S
C5012 C5014 1.378 . S
C5012 C5016 1.350 . S
C5013 C5016 1.463 . S
C5013 C5018 1.350 . S
C5013 N5021 1.427 . S
C5014 H5005 0.930 . S
C5014 C5012 1.378 . S
C5014 C5015 1.367 . S
C5015 C5014 1.367 . S
C5015 C5017 1.433 . S
C5016 C5012 1.350 . S
C5016 C5013 1.463 . S
C5016 N5020 1.427 . S
C5017 H5007 0.929 . S
C5017 C5015 1.433 . S
C5017 N5020 1.384 . S
C5018 H5009 0.929 . S
C5018 C5010 1.378 . S
C5018 C5013 1.350 . S
C5019 H5006 0.929 . S
C5019 C5011 1.433 . S
C5019 N5021 1.384 . S
N5020 C5016 1.427 . S
N5020 C5017 1.384 . S
N5021 C5013 1.427 . S
N5021 C5019 1.384 . S
H5022 C5028 0.930 . S
H5023 C5032 0.930 . S
H5024 C5037 0.929 . S
H5025 C5035 0.929 . S
H5026 C5030 0.929 . S
H5027 C5036 0.929 . S
C5028 H5022 0.930 . S
C5028 C5029 1.367 . S
C5028 C5036 1.378 . S
C5029 C5028 1.367 . S
C5029 C5037 1.433 . S
C5030 H5026 0.929 . S
C5030 C5032 1.378 . S
C5030 C5034 1.350 . S
C5031 C5034 1.463 . S
C5031 C5036 1.350 . S
C5031 N5039 1.427 . S
C5032 H5023 0.930 . S
C5032 C5030 1.378 . S
C5032 C5033 1.367 . S
C5033 C5032 1.367 . S
C5033 C5035 1.433 . S
C5034 C5030 1.350 . S
C5034 C5031 1.463 . S
C5034 N5038 1.427 . S
C5035 H5025 0.929 . S
C5035 C5033 1.433 . S
C5035 N5038 1.384 . S
C5036 H5027 0.929 . S
C5036 C5028 1.378 . S
C5036 C5031 1.350 . S
C5037 H5024 0.929 . S
C5037 C5029 1.433 . S
C5037 N5039 1.384 . S
N5038 C5034 1.427 . S
N5038 C5035 1.384 . S
N5039 C5031 1.427 . S
N5039 C5037 1.384 . S
H5040 C5046 0.930 . S
H5041 C5050 0.930 . S
H5042 C5055 0.929 . S
H5043 C5053 0.929 . S
H5044 C5048 0.929 . S
H5045 C5054 0.929 . S
C5046 H5040 0.930 . S
C5046 C5047 1.367 . S
C5046 C5054 1.378 . S
C5047 C5046 1.367 . S
C5047 C5055 1.433 . S
C5048 H5044 0.929 . S
C5048 C5050 1.378 . S
C5048 C5052 1.350 . S
C5049 C5052 1.463 . S
C5049 C5054 1.350 . S
C5049 N5057 1.427 . S
C5050 H5041 0.930 . S
C5050 C5048 1.378 . S
C5050 C5051 1.367 . S
C5051 C5050 1.367 . S
C5051 C5053 1.433 . S
C5052 C5048 1.350 . S
C5052 C5049 1.463 . S
C5052 N5056 1.427 . S
C5053 H5043 0.929 . S
C5053 C5051 1.433 . S
C5053 N5056 1.384 . S
C5054 H5045 0.929 . S
C5054 C5046 1.378 . S
C5054 C5049 1.350 . S
C5055 H5042 0.929 . S
C5055 C5047 1.433 . S
C5055 N5057 1.384 . S
N5056 C5052 1.427 . S
N5056 C5053 1.384 . S
N5057 C5049 1.427 . S
N5057 C5055 1.384 . S
H5058 C5064 0.930 . S
H5059 C5068 0.930 . S
H5060 C5073 0.929 . S
H5061 C5071 0.929 . S
H5062 C5066 0.929 . S
H5063 C5072 0.929 . S
C5064 H5058 0.930 . S
C5064 C5065 1.367 . S
C5064 C5072 1.378 . S
C5065 C5064 1.367 . S
C5065 C5073 1.433 . S
C5066 H5062 0.929 . S
C5066 C5068 1.378 . S
C5066 C5070 1.350 . S
C5067 C5070 1.463 . S
C5067 C5072 1.350 . S
C5067 N5075 1.427 . S
C5068 H5059 0.930 . S
C5068 C5066 1.378 . S
C5068 C5069 1.367 . S
C5069 C5068 1.367 . S
C5069 C5071 1.433 . S
C5070 C5066 1.350 . S
C5070 C5067 1.463 . S
C5070 N5074 1.427 . S
C5071 H5061 0.929 . S
C5071 C5069 1.433 . S
C5071 N5074 1.384 . S
C5072 H5063 0.929 . S
C5072 C5064 1.378 . S
C5072 C5067 1.350 . S
C5073 H5060 0.929 . S
C5073 C5065 1.433 . S
C5073 N5075 1.384 . S
N5074 C5070 1.427 . S
N5074 C5071 1.384 . S
N5075 C5067 1.427 . S
N5075 C5073 1.384 . S
H5076 C5082 0.930 . S
H5077 C5086 0.930 . S
H5078 C5091 0.929 . S
H5079 C5089 0.929 . S
H5080 C5084 0.929 . S
H5081 C5090 0.929 . S
C5082 H5076 0.930 . S
C5082 C5083 1.367 . S
C5082 C5090 1.378 . S
C5083 C5082 1.367 . S
C5083 C5091 1.433 . S
C5084 H5080 0.929 . S
C5084 C5086 1.378 . S
C5084 C5088 1.350 . S
C5085 C5088 1.463 . S
C5085 C5090 1.350 . S
C5085 N5093 1.427 . S
C5086 H5077 0.930 . S
C5086 C5084 1.378 . S
C5086 C5087 1.367 . S
C5087 C5086 1.367 . S
C5087 C5089 1.433 . S
C5088 C5084 1.350 . S
C5088 C5085 1.463 . S
C5088 N5092 1.427 . S
C5089 H5079 0.929 . S
C5089 C5087 1.433 . S
C5089 N5092 1.384 . S
C5090 H5081 0.929 . S
C5090 C5082 1.378 . S
C5090 C5085 1.350 . S
C5091 H5078 0.929 . S
C5091 C5083 1.433 . S
C5091 N5093 1.384 . S
N5092 C5088 1.427 . S
N5092 C5089 1.384 . S
N5093 C5085 1.427 . S
N5093 C5091 1.384 . S
H5094 C5100 0.930 . S
H5095 C5104 0.930 . S
H5096 C5109 0.929 . S
H5097 C5107 0.929 . S
H5098 C5102 0.929 . S
H5099 C5108 0.929 . S
C5100 H5094 0.930 . S
C5100 C5101 1.367 . S
C5100 C5108 1.378 . S
C5101 C5100 1.367 . S
C5101 C5109 1.433 . S
C5102 H5098 0.929 . S
C5102 C5104 1.378 . S
C5102 C5106 1.350 . S
C5103 C5106 1.463 . S
C5103 C5108 1.350 . S
C5103 N5111 1.427 . S
C5104 H5095 0.930 . S
C5104 C5102 1.378 . S
C5104 C5105 1.367 . S
C5105 C5104 1.367 . S
C5105 C5107 1.433 . S
C5106 C5102 1.350 . S
C5106 C5103 1.463 . S
C5106 N5110 1.427 . S
C5107 H5097 0.929 . S
C5107 C5105 1.433 . S
C5107 N5110 1.384 . S
C5108 H5099 0.929 . S
C5108 C5100 1.378 . S
C5108 C5103 1.350 . S
C5109 H5096 0.929 . S
C5109 C5101 1.433 . S
C5109 N5111 1.384 . S
N5110 C5106 1.427 . S
N5110 C5107 1.384 . S
N5111 C5103 1.427 . S
N5111 C5109 1.384 . S
H5112 C5118 0.930 . S
H5113 C5122 0.930 . S
H5114 C5127 0.929 . S
H5115 C5125 0.929 . S
H5116 C5120 0.929 . S
H5117 C5126 0.929 . S
C5118 H5112 0.930 . S
C5118 C5119 1.367 . S
C5118 C5126 1.378 . S
C5119 C5118 1.367 . S
C5119 C5127 1.433 . S
C5120 H5116 0.929 . S
C5120 C5122 1.378 . S
C5120 C5124 1.350 . S
C5121 C5124 1.463 . S
C5121 C5126 1.350 . S
C5121 N5129 1.427 . S
C5122 H5113 0.930 . S
C5122 C5120 1.378 . S
C5122 C5123 1.367 . S
C5123 C5122 1.367 . S
C5123 C5125 1.433 . S
C5124 C5120 1.350 . S
C5124 C5121 1.463 . S
C5124 N5128 1.427 . S
C5125 H5115 0.929 . S
C5125 C5123 1.433 . S
C5125 N5128 1.384 . S
C5126 H5117 0.929 . S
C5126 C5118 1.378 . S
C5126 C5121 1.350 . S
C5127 H5114 0.929 . S
C5127 C5119 1.433 . S
C5127 N5129 1.384 . S
N5128 C5124 1.427 . S
N5128 C5125 1.384 . S
N5129 C5121 1.427 . S
N5129 C5127 1.384 . S
H5130 C5136 0.930 . S
H5131 C5140 0.930 . S
H5132 C5145 0.929 . S
H5133 C5143 0.929 . S
H5134 C5138 0.929 . S
H5135 C5144 0.929 . S
C5136 H5130 0.930 . S
C5136 C5137 1.367 . S
C5136 C5144 1.378 . S
C5137 C5136 1.367 . S
C5137 C5145 1.433 . S
C5138 H5134 0.929 . S
C5138 C5140 1.378 . S
C5138 C5142 1.350 . S
C5139 C5142 1.463 . S
C5139 C5144 1.350 . S
C5139 N5147 1.427 . S
C5140 H5131 0.930 . S
C5140 C5138 1.378 . S
C5140 C5141 1.367 . S
C5141 C5140 1.367 . S
C5141 C5143 1.433 . S
C5142 C5138 1.350 . S
C5142 C5139 1.463 . S
C5142 N5146 1.427 . S
C5143 H5133 0.929 . S
C5143 C5141 1.433 . S
C5143 N5146 1.384 . S
C5144 H5135 0.929 . S
C5144 C5136 1.378 . S
C5144 C5139 1.350 . S
C5145 H5132 0.929 . S
C5145 C5137 1.433 . S
C5145 N5147 1.384 . S
N5146 C5142 1.427 . S
N5146 C5143 1.384 . S
N5147 C5139 1.427 . S
N5147 C5145 1.384 . S
H5148 C5154 0.930 . S
H5149 C5158 0.930 . S
H5150 C5163 0.929 . S
H5151 C5161 0.929 . S
H5152 C5156 0.929 . S
H5153 C5162 0.929 . S
C5154 H5148 0.930 . S
C5154 C5155 1.367 . S
C5154 C5162 1.378 . S
C5155 C5154 1.367 . S
C5155 C5163 1.433 . S
C5156 H5152 0.929 . S
C5156 C5158 1.378 . S
C5156 C5160 1.350 . S
C5157 C5160 1.463 . S
C5157 C5162 1.350 . S
C5157 N5165 1.427 . S
C5158 H5149 0.930 . S
C5158 C5156 1.378 . S
C5158 C5159 1.367 . S
C5159 C5158 1.367 . S
C5159 C5161 1.433 . S
C5160 C5156 1.350 . S
C5160 C5157 1.463 . S
C5160 N5164 1.427 . S
C5161 H5151 0.929 . S
C5161 C5159 1.433 . S
C5161 N5164 1.384 . S
C5162 H5153 0.929 . S
C5162 C5154 1.378 . S
C5162 C5157 1.350 . S
C5163 H5150 0.929 . S
C5163 C5155 1.433 . S
C5163 N5165 1.384 . S
N5164 C5160 1.427 . S
N5164 C5161 1.384 . S
N5165 C5157 1.427 . S
N5165 C5163 1.384 . S
H5166 C5172 0.930 . S
H5167 C5176 0.930 . S
H5168 C5181 0.929 . S
H5169 C5179 0.929 . S
H5170 C5174 0.929 . S
H5171 C5180 0.929 . S
C5172 H5166 0.930 . S
C5172 C5173 1.367 . S
C5172 C5180 1.378 . S
C5173 C5172 1.367 . S
C5173 C5181 1.433 . S
C5174 H5170 0.929 . S
C5174 C5176 1.378 . S
C5174 C5178 1.350 . S
C5175 C5178 1.463 . S
C5175 C5180 1.350 . S
C5175 N5183 1.427 . S
C5176 H5167 0.930 . S
C5176 C5174 1.378 . S
C5176 C5177 1.367 . S
C5177 C5176 1.367 . S
C5177 C5179 1.433 . S
C5178 C5174 1.350 . S
C5178 C5175 1.463 . S
C5178 N5182 1.427 . S
C5179 H5169 0.929 . S
C5179 C5177 1.433 . S
C5179 N5182 1.384 . S
C5180 H5171 0.929 . S
C5180 C5172 1.378 . S
C5180 C5175 1.350 . S
C5181 H5168 0.929 . S
C5181 C5173 1.433 . S
C5181 N5183 1.384 . S
N5182 C5178 1.427 . S
N5182 C5179 1.384 . S
N5183 C5175 1.427 . S
N5183 C5181 1.384 . S
H5184 C5190 0.930 . S
H5185 C5194 0.930 . S
H5186 C5199 0.929 . S
H5187 C5197 0.929 . S
H5188 C5192 0.929 . S
H5189 C5198 0.929 . S
C5190 H5184 0.930 . S
C5190 C5191 1.367 . S
C5190 C5198 1.378 . S
C5191 C5190 1.367 . S
C5191 C5199 1.433 . S
C5192 H5188 0.929 . S
C5192 C5194 1.378 . S
C5192 C5196 1.350 . S
C5193 C5196 1.463 . S
C5193 C5198 1.350 . S
C5193 N5201 1.427 . S
C5194 H5185 0.930 . S
C5194 C5192 1.378 . S
C5194 C5195 1.367 . S
C5195 C5194 1.367 . S
C5195 C5197 1.433 . S
C5196 C5192 1.350 . S
C5196 C5193 1.463 . S
C5196 N5200 1.427 . S
C5197 H5187 0.929 . S
C5197 C5195 1.433 . S
C5197 N5200 1.384 . S
C5198 H5189 0.929 . S
C5198 C5190 1.378 . S
C5198 C5193 1.350 . S
C5199 H5186 0.929 . S
C5199 C5191 1.433 . S
C5199 N5201 1.384 . S
N5200 C5196 1.427 . S
N5200 C5197 1.384 . S
N5201 C5193 1.427 . S
N5201 C5199 1.384 . S
H5202 C5208 0.930 . S
H5203 C5212 0.930 . S
H5204 C5217 0.929 . S
H5205 C5215 0.929 . S
H5206 C5210 0.929 . S
H5207 C5216 0.929 . S
C5208 H5202 0.930 . S
C5208 C5209 1.367 . S
C5208 C5216 1.378 . S
C5209 C5208 1.367 . S
C5209 C5217 1.433 . S
C5210 H5206 0.929 . S
C5210 C5212 1.378 . S
C5210 C5214 1.350 . S
C5211 C5214 1.463 . S
C5211 C5216 1.350 . S
C5211 N5219 1.427 . S
C5212 H5203 0.930 . S
C5212 C5210 1.378 . S
C5212 C5213 1.367 . S
C5213 C5212 1.367 . S
C5213 C5215 1.433 . S
C5214 C5210 1.350 . S
C5214 C5211 1.463 . S
C5214 N5218 1.427 . S
C5215 H5205 0.929 . S
C5215 C5213 1.433 . S
C5215 N5218 1.384 . S
C5216 H5207 0.929 . S
C5216 C5208 1.378 . S
C5216 C5211 1.350 . S
C5217 H5204 0.929 . S
C5217 C5209 1.433 . S
C5217 N5219 1.384 . S
N5218 C5214 1.427 . S
N5218 C5215 1.384 . S
N5219 C5211 1.427 . S
N5219 C5217 1.384 . S
H5220 C5226 0.930 . S
H5221 C5230 0.930 . S
H5222 C5235 0.929 . S
H5223 C5233 0.929 . S
H5224 C5228 0.929 . S
H5225 C5234 0.929 . S
C5226 H5220 0.930 . S
C5226 C5227 1.367 . S
C5226 C5234 1.378 . S
C5227 C5226 1.367 . S
C5227 C5235 1.433 . S
C5228 H5224 0.929 . S
C5228 C5230 1.378 . S
C5228 C5232 1.350 . S
C5229 C5232 1.463 . S
C5229 C5234 1.350 . S
C5229 N5237 1.427 . S
C5230 H5221 0.930 . S
C5230 C5228 1.378 . S
C5230 C5231 1.367 . S
C5231 C5230 1.367 . S
C5231 C5233 1.433 . S
C5232 C5228 1.350 . S
C5232 C5229 1.463 . S
C5232 N5236 1.427 . S
C5233 H5223 0.929 . S
C5233 C5231 1.433 . S
C5233 N5236 1.384 . S
C5234 H5225 0.929 . S
C5234 C5226 1.378 . S
C5234 C5229 1.350 . S
C5235 H5222 0.929 . S
C5235 C5227 1.433 . S
C5235 N5237 1.384 . S
N5236 C5232 1.427 . S
N5236 C5233 1.384 . S
N5237 C5229 1.427 . S
N5237 C5235 1.384 . S
H5238 C5244 0.930 . S
H5239 C5248 0.930 . S
H5240 C5253 0.929 . S
H5241 C5251 0.929 . S
H5242 C5246 0.929 . S
H5243 C5252 0.929 . S
C5244 H5238 0.930 . S
C5244 C5245 1.367 . S
C5244 C5252 1.378 . S
C5245 C5244 1.367 . S
C5245 C5253 1.433 . S
C5246 H5242 0.929 . S
C5246 C5248 1.378 . S
C5246 C5250 1.350 . S
C5247 C5250 1.463 . S
C5247 C5252 1.350 . S
C5247 N5255 1.427 . S
C5248 H5239 0.930 . S
C5248 C5246 1.378 . S
C5248 C5249 1.367 . S
C5249 C5248 1.367 . S
C5249 C5251 1.433 . S
C5250 C5246 1.350 . S
C5250 C5247 1.463 . S
C5250 N5254 1.427 . S
C5251 H5241 0.929 . S
C5251 C5249 1.433 . S
C5251 N5254 1.384 . S
C5252 H5243 0.929 . S
C5252 C5244 1.378 . S
C5252 C5247 1.350 . S
C5253 H5240 0.929 . S
C5253 C5245 1.433 . S
C5253 N5255 1.384 . S
N5254 C5250 1.427 . S
N5254 C5251 1.384 . S
N5255 C5247 1.427 . S
N5255 C5253 1.384 . S
H5256 C5262 0.930 . S
H5257 C5266 0.930 . S
H5258 C5271 0.929 . S
H5259 C5269 0.929 . S
H5260 C5264 0.929 . S
H5261 C5270 0.929 . S
C5262 H5256 0.930 . S
C5262 C5263 1.367 . S
C5262 C5270 1.378 . S
C5263 C5262 1.367 . S
C5263 C5271 1.433 . S
C5264 H5260 0.929 . S
C5264 C5266 1.378 . S
C5264 C5268 1.350 . S
C5265 C5268 1.463 . S
C5265 C5270 1.350 . S
C5265 N5273 1.427 . S
C5266 H5257 0.930 . S
C5266 C5264 1.378 . S
C5266 C5267 1.367 . S
C5267 C5266 1.367 . S
C5267 C5269 1.433 . S
C5268 C5264 1.350 . S
C5268 C5265 1.463 . S
C5268 N5272 1.427 . S
C5269 H5259 0.929 . S
C5269 C5267 1.433 . S
C5269 N5272 1.384 . S
C5270 H5261 0.929 . S
C5270 C5262 1.378 . S
C5270 C5265 1.350 . S
C5271 H5258 0.929 . S
C5271 C5263 1.433 . S
C5271 N5273 1.384 . S
N5272 C5268 1.427 . S
N5272 C5269 1.384 . S
N5273 C5265 1.427 . S
N5273 C5271 1.384 . S
H5274 C5280 0.930 . S
H5275 C5284 0.930 . S
H5276 C5289 0.929 . S
H5277 C5287 0.929 . S
H5278 C5282 0.929 . S
H5279 C5288 0.929 . S
C5280 H5274 0.930 . S
C5280 C5281 1.367 . S
C5280 C5288 1.378 . S
C5281 C5280 1.367 . S
C5281 C5289 1.433 . S
C5282 H5278 0.929 . S
C5282 C5284 1.378 . S
C5282 C5286 1.350 . S
C5283 C5286 1.463 . S
C5283 C5288 1.350 . S
C5283 N5291 1.427 . S
C5284 H5275 0.930 . S
C5284 C5282 1.378 . S
C5284 C5285 1.367 . S
C5285 C5284 1.367 . S
C5285 C5287 1.433 . S
C5286 C5282 1.350 . S
C5286 C5283 1.463 . S
C5286 N5290 1.427 . S
C5287 H5277 0.929 . S
C5287 C5285 1.433 . S
C5287 N5290 1.384 . S
C5288 H5279 0.929 . S
C5288 C5280 1.378 . S
C5288 C5283 1.350 . S
C5289 H5276 0.929 . S
C5289 C5281 1.433 . S
C5289 N5291 1.384 . S
N5290 C5286 1.427 . S
N5290 C5287 1.384 . S
N5291 C5283 1.427 . S
N5291 C5289 1.384 . S
H5292 C5298 0.930 . S
H5293 C5302 0.930 . S
H5294 C5307 0.929 . S
H5295 C5305 0.929 . S
H5296 C5300 0.929 . S
H5297 C5306 0.929 . S
C5298 H5292 0.930 . S
C5298 C5299 1.367 . S
C5298 C5306 1.378 . S
C5299 C5298 1.367 . S
C5299 C5307 1.433 . S
C5300 H5296 0.929 . S
C5300 C5302 1.378 . S
C5300 C5304 1.350 . S
C5301 C5304 1.463 . S
C5301 C5306 1.350 . S
C5301 N5309 1.427 . S
C5302 H5293 0.930 . S
C5302 C5300 1.378 . S
C5302 C5303 1.367 . S
C5303 C5302 1.367 . S
C5303 C5305 1.433 . S
C5304 C5300 1.350 . S
C5304 C5301 1.463 . S
C5304 N5308 1.427 . S
C5305 H5295 0.929 . S
C5305 C5303 1.433 . S
C5305 N5308 1.384 . S
C5306 H5297 0.929 . S
C5306 C5298 1.378 . S
C5306 C5301 1.350 . S
C5307 H5294 0.929 . S
C5307 C5299 1.433 . S
C5307 N5309 1.384 . S
N5308 C5304 1.427 . S
N5308 C5305 1.384 . S
N5309 C5301 1.427 . S
N5309 C5307 1.384 . S
H5310 C5316 0.930 . S
H5311 C5320 0.930 . S
H5312 C5325 0.929 . S
H5313 C5323 0.929 . S
H5314 C5318 0.929 . S
H5315 C5324 0.929 . S
C5316 H5310 0.930 . S
C5316 C5317 1.367 . S
C5316 C5324 1.378 . S
C5317 C5316 1.367 . S
C5317 C5325 1.433 . S
C5318 H5314 0.929 . S
C5318 C5320 1.378 . S
C5318 C5322 1.350 . S
C5319 C5322 1.463 . S
C5319 C5324 1.350 . S
C5319 N5327 1.427 . S
C5320 H5311 0.930 . S
C5320 C5318 1.378 . S
C5320 C5321 1.367 . S
C5321 C5320 1.367 . S
C5321 C5323 1.433 . S
C5322 C5318 1.350 . S
C5322 C5319 1.463 . S
C5322 N5326 1.427 . S
C5323 H5313 0.929 . S
C5323 C5321 1.433 . S
C5323 N5326 1.384 . S
C5324 H5315 0.929 . S
C5324 C5316 1.378 . S
C5324 C5319 1.350 . S
C5325 H5312 0.929 . S
C5325 C5317 1.433 . S
C5325 N5327 1.384 . S
N5326 C5322 1.427 . S
N5326 C5323 1.384 . S
N5327 C5319 1.427 . S
N5327 C5325 1.384 . S
H5328 C5334 0.930 . S
H5329 C5338 0.930 . S
H5330 C5343 0.929 . S
H5331 C5341 0.929 . S
H5332 C5336 0.929 . S
H5333 C5342 0.929 . S
C5334 H5328 0.930 . S
C5334 C5335 1.367 . S
C5334 C5342 1.378 . S
C5335 C5334 1.367 . S
C5335 C5343 1.433 . S
C5336 H5332 0.929 . S
C5336 C5338 1.378 . S
C5336 C5340 1.350 . S
C5337 C5340 1.463 . S
C5337 C5342 1.350 . S
C5337 N5345 1.427 . S
C5338 H5329 0.930 . S
C5338 C5336 1.378 . S
C5338 C5339 1.367 . S
C5339 C5338 1.367 . S
C5339 C5341 1.433 . S
C5340 C5336 1.350 . S
C5340 C5337 1.463 . S
C5340 N5344 1.427 . S
C5341 H5331 0.929 . S
C5341 C5339 1.433 . S
C5341 N5344 1.384 . S
C5342 H5333 0.929 . S
C5342 C5334 1.378 . S
C5342 C5337 1.350 . S
C5343 H5330 0.929 . S
C5343 C5335 1.433 . S
C5343 N5345 1.384 . S
N5344 C5340 1.427 . S
N5344 C5341 1.384 . S
N5345 C5337 1.427 . S
N5345 C5343 1.384 . S
H5346 C5352 0.930 . S
H5347 C5356 0.930 . S
H5348 C5361 0.929 . S
H5349 C5359 0.929 . S
H5350 C5354 0.929 . S
H5351 C5360 0.929 . S
C5352 H5346 0.930 . S
C5352 C5353 1.367 . S
C5352 C5360 1.378 . S
C5353 C5352 1.367 . S
C5353 C5361 1.433 . S
C5354 H5350 0.929 . S
C5354 C5356 1.378 . S
C5354 C5358 1.350 . S
C5355 C5358 1.463 . S
C5355 C5360 1.350 . S
C5355 N5363 1.427 . S
C5356 H5347 0.930 . S
C5356 C5354 1.378 . S
C5356 C5357 1.367 . S
C5357 C5356 1.367 . S
C5357 C5359 1.433 . S
C5358 C5354 1.350 . S
C5358 C5355 1.463 . S
C5358 N5362 1.427 . S
C5359 H5349 0.929 . S
C5359 C5357 1.433 . S
C5359 N5362 1.384 . S
C5360 H5351 0.929 . S
C5360 C5352 1.378 . S
C5360 C5355 1.350 . S
C5361 H5348 0.929 . S
C5361 C5353 1.433 . S
C5361 N5363 1.384 . S
N5362 C5358 1.427 . S
N5362 C5359 1.384 . S
N5363 C5355 1.427 . S
N5363 C5361 1.384 . S
H5364 C5370 0.930 . S
H5365 C5374 0.930 . S
H5366 C5379 0.929 . S
H5367 C5377 0.929 . S
H5368 C5372 0.929 . S
H5369 C5378 0.929 . S
C5370 H5364 0.930 . S
C5370 C5371 1.367 . S
C5370 C5378 1.378 . S
C5371 C5370 1.367 . S
C5371 C5379 1.433 . S
C5372 H5368 0.929 . S
C5372 C5374 1.378 . S
C5372 C5376 1.350 . S
C5373 C5376 1.463 . S
C5373 C5378 1.350 . S
C5373 N5381 1.427 . S
C5374 H5365 0.930 . S
C5374 C5372 1.378 . S
C5374 C5375 1.367 . S
C5375 C5374 1.367 . S
C5375 C5377 1.433 . S
C5376 C5372 1.350 . S
C5376 C5373 1.463 . S
C5376 N5380 1.427 . S
C5377 H5367 0.929 . S
C5377 C5375 1.433 . S
C5377 N5380 1.384 . S
C5378 H5369 0.929 . S
C5378 C5370 1.378 . S
C5378 C5373 1.350 . S
C5379 H5366 0.929 . S
C5379 C5371 1.433 . S
C5379 N5381 1.384 . S
N5380 C5376 1.427 . S
N5380 C5377 1.384 . S
N5381 C5373 1.427 . S
N5381 C5379 1.384 . S
H5382 C5388 0.930 . S
H5383 C5392 0.930 . S
H5384 C5397 0.929 . S
H5385 C5395 0.929 . S
H5386 C5390 0.929 . S
H5387 C5396 0.929 . S
C5388 H5382 0.930 . S
C5388 C5389 1.367 . S
C5388 C5396 1.378 . S
C5389 C5388 1.367 . S
C5389 C5397 1.433 . S
C5390 H5386 0.929 . S
C5390 C5392 1.378 . S
C5390 C5394 1.350 . S
C5391 C5394 1.463 . S
C5391 C5396 1.350 . S
C5391 N5399 1.427 . S
C5392 H5383 0.930 . S
C5392 C5390 1.378 . S
C5392 C5393 1.367 . S
C5393 C5392 1.367 . S
C5393 C5395 1.433 . S
C5394 C5390 1.350 . S
C5394 C5391 1.463 . S
C5394 N5398 1.427 . S
C5395 H5385 0.929 . S
C5395 C5393 1.433 . S
C5395 N5398 1.384 . S
C5396 H5387 0.929 . S
C5396 C5388 1.378 . S
C5396 C5391 1.350 . S
C5397 H5384 0.929 . S
C5397 C5389 1.433 . S
C5397 N5399 1.384 . S
N5398 C5394 1.427 . S
N5398 C5395 1.384 . S
N5399 C5391 1.427 . S
N5399 C5397 1.384 . S
H5400 C5406 0.930 . S
H5401 C5410 0.930 . S
H5402 C5415 0.929 . S
H5403 C5413 0.929 . S
H5404 C5408 0.929 . S
H5405 C5414 0.929 . S
C5406 H5400 0.930 . S
C5406 C5407 1.367 . S
C5406 C5414 1.378 . S
C5407 C5406 1.367 . S
C5407 C5415 1.433 . S
C5408 H5404 0.929 . S
C5408 C5410 1.378 . S
C5408 C5412 1.350 . S
C5409 C5412 1.463 . S
C5409 C5414 1.350 . S
C5409 N5417 1.427 . S
C5410 H5401 0.930 . S
C5410 C5408 1.378 . S
C5410 C5411 1.367 . S
C5411 C5410 1.367 . S
C5411 C5413 1.433 . S
C5412 C5408 1.350 . S
C5412 C5409 1.463 . S
C5412 N5416 1.427 . S
C5413 H5403 0.929 . S
C5413 C5411 1.433 . S
C5413 N5416 1.384 . S
C5414 H5405 0.929 . S
C5414 C5406 1.378 . S
C5414 C5409 1.350 . S
C5415 H5402 0.929 . S
C5415 C5407 1.433 . S
C5415 N5417 1.384 . S
N5416 C5412 1.427 . S
N5416 C5413 1.384 . S
N5417 C5409 1.427 . S
N5417 C5415 1.384 . S
H5418 C5424 0.930 . S
H5419 C5428 0.930 . S
H5420 C5433 0.929 . S
H5421 C5431 0.929 . S
H5422 C5426 0.929 . S
H5423 C5432 0.929 . S
C5424 H5418 0.930 . S
C5424 C5425 1.367 . S
C5424 C5432 1.378 . S
C5425 C5424 1.367 . S
C5425 C5433 1.433 . S
C5426 H5422 0.929 . S
C5426 C5428 1.378 . S
C5426 C5430 1.350 . S
C5427 C5430 1.463 . S
C5427 C5432 1.350 . S
C5427 N5435 1.427 . S
C5428 H5419 0.930 . S
C5428 C5426 1.378 . S
C5428 C5429 1.367 . S
C5429 C5428 1.367 . S
C5429 C5431 1.433 . S
C5430 C5426 1.350 . S
C5430 C5427 1.463 . S
C5430 N5434 1.427 . S
C5431 H5421 0.929 . S
C5431 C5429 1.433 . S
C5431 N5434 1.384 . S
C5432 H5423 0.929 . S
C5432 C5424 1.378 . S
C5432 C5427 1.350 . S
C5433 H5420 0.929 . S
C5433 C5425 1.433 . S
C5433 N5435 1.384 . S
N5434 C5430 1.427 . S
N5434 C5431 1.384 . S
N5435 C5427 1.427 . S
N5435 C5433 1.384 . S
H5436 C5442 0.930 . S
H5437 C5446 0.930 . S
H5438 C5451 0.929 . S
H5439 C5449 0.929 . S
H5440 C5444 0.929 . S
H5441 C5450 0.929 . S
C5442 H5436 0.930 . S
C5442 C5443 1.367 . S
C5442 C5450 1.378 . S
C5443 C5442 1.367 . S
C5443 C5451 1.433 . S
C5444 H5440 0.929 . S
C5444 C5446 1.378 . S
C5444 C5448 1.350 . S
C5445 C5448 1.463 . S
C5445 C5450 1.350 . S
C5445 N5453 1.427 . S
C5446 H5437 0.930 . S
C5446 C5444 1.378 . S
C5446 C5447 1.367 . S
C5447 C5446 1.367 . S
C5447 C5449 1.433 . S
C5448 C5444 1.350 . S
C5448 C5445 1.463 . S
C5448 N5452 1.427 . S
C5449 H5439 0.929 . S
C5449 C5447 1.433 . S
C5449 N5452 1.384 . S
C5450 H5441 0.929 . S
C5450 C5442 1.378 . S
C5450 C5445 1.350 . S
C5451 H5438 0.929 . S
C5451 C5443 1.433 . S
C5451 N5453 1.384 . S
N5452 C5448 1.427 . S
N5452 C5449 1.384 . S
N5453 C5445 1.427 . S
N5453 C5451 1.384 . S
H5454 C5460 0.930 . S
H5455 C5464 0.930 . S
H5456 C5469 0.929 . S
H5457 C5467 0.929 . S
H5458 C5462 0.929 . S
H5459 C5468 0.929 . S
C5460 H5454 0.930 . S
C5460 C5461 1.367 . S
C5460 C5468 1.378 . S
C5461 C5460 1.367 . S
C5461 C5469 1.433 . S
C5462 H5458 0.929 . S
C5462 C5464 1.378 . S
C5462 C5466 1.350 . S
C5463 C5466 1.463 . S
C5463 C5468 1.350 . S
C5463 N5471 1.427 . S
C5464 H5455 0.930 . S
C5464 C5462 1.378 . S
C5464 C5465 1.367 . S
C5465 C5464 1.367 . S
C5465 C5467 1.433 . S
C5466 C5462 1.350 . S
C5466 C5463 1.463 . S
C5466 N5470 1.427 . S
C5467 H5457 0.929 . S
C5467 C5465 1.433 . S
C5467 N5470 1.384 . S
C5468 H5459 0.929 . S
C5468 C5460 1.378 . S
C5468 C5463 1.350 . S
C5469 H5456 0.929 . S
C5469 C5461 1.433 . S
C5469 N5471 1.384 . S
N5470 C5466 1.427 . S
N5470 C5467 1.384 . S
N5471 C5463 1.427 . S
N5471 C5469 1.384 . S
H5472 C5478 0.930 . S
H5473 C5482 0.930 . S
H5474 C5487 0.929 . S
H5475 C5485 0.929 . S
H5476 C5480 0.929 . S
H5477 C5486 0.929 . S
C5478 H5472 0.930 . S
C5478 C5479 1.367 . S
C5478 C5486 1.378 . S
C5479 C5478 1.367 . S
C5479 C5487 1.433 . S
C5480 H5476 0.929 . S
C5480 C5482 1.378 . S
C5480 C5484 1.350 . S
C5481 C5484 1.463 . S
C5481 C5486 1.350 . S
C5481 N5489 1.427 . S
C5482 H5473 0.930 . S
C5482 C5480 1.378 . S
C5482 C5483 1.367 . S
C5483 C5482 1.367 . S
C5483 C5485 1.433 . S
C5484 C5480 1.350 . S
C5484 C5481 1.463 . S
C5484 N5488 1.427 . S
C5485 H5475 0.929 . S
C5485 C5483 1.433 . S
C5485 N5488 1.384 . S
C5486 H5477 0.929 . S
C5486 C5478 1.378 . S
C5486 C5481 1.350 . S
C5487 H5474 0.929 . S
C5487 C5479 1.433 . S
C5487 N5489 1.384 . S
N5488 C5484 1.427 . S
N5488 C5485 1.384 . S
N5489 C5481 1.427 . S
N5489 C5487 1.384 . S
H5490 C5496 0.930 . S
H5491 C5500 0.930 . S
H5492 C5505 0.929 . S
H5493 C5503 0.929 . S
H5494 C5498 0.929 . S
H5495 C5504 0.929 . S
C5496 H5490 0.930 . S
C5496 C5497 1.367 . S
C5496 C5504 1.378 . S
C5497 C5496 1.367 . S
C5497 C5505 1.433 . S
C5498 H5494 0.929 . S
C5498 C5500 1.378 . S
C5498 C5502 1.350 . S
C5499 C5502 1.463 . S
C5499 C5504 1.350 . S
C5499 N5507 1.427 . S
C5500 H5491 0.930 . S
C5500 C5498 1.378 . S
C5500 C5501 1.367 . S
C5501 C5500 1.367 . S
C5501 C5503 1.433 . S
C5502 C5498 1.350 . S
C5502 C5499 1.463 . S
C5502 N5506 1.427 . S
C5503 H5493 0.929 . S
C5503 C5501 1.433 . S
C5503 N5506 1.384 . S
C5504 H5495 0.929 . S
C5504 C5496 1.378 . S
C5504 C5499 1.350 . S
C5505 H5492 0.929 . S
C5505 C5497 1.433 . S
C5505 N5507 1.384 . S
N5506 C5502 1.427 . S
N5506 C5503 1.384 . S
N5507 C5499 1.427 . S
N5507 C5505 1.384 . S
H5508 C5514 0.930 . S
H5509 C5518 0.930 . S
H5510 C5523 0.929 . S
H5511 C5521 0.929 . S
H5512 C5516 0.929 . S
H5513 C5522 0.929 . S
C5514 H5508 0.930 . S
C5514 C5515 1.367 . S
C5514 C5522 1.378 . S
C5515 C5514 1.367 . S
C5515 C5523 1.433 . S
C5516 H5512 0.929 . S
C5516 C5518 1.378 . S
C5516 C5520 1.350 . S
C5517 C5520 1.463 . S
C5517 C5522 1.350 . S
C5517 N5525 1.427 . S
C5518 H5509 0.930 . S
C5518 C5516 1.378 . S
C5518 C5519 1.367 . S
C5519 C5518 1.367 . S
C5519 C5521 1.433 . S
C5520 C5516 1.350 . S
C5520 C5517 1.463 . S
C5520 N5524 1.427 . S
C5521 H5511 0.929 . S
C5521 C5519 1.433 . S
C5521 N5524 1.384 . S
C5522 H5513 0.929 . S
C5522 C5514 1.378 . S
C5522 C5517 1.350 . S
C5523 H5510 0.929 . S
C5523 C5515 1.433 . S
C5523 N5525 1.384 . S
N5524 C5520 1.427 . S
N5524 C5521 1.384 . S
N5525 C5517 1.427 . S
N5525 C5523 1.384 . S
H5526 C5532 0.930 . S
H5527 C5536 0.930 . S
H5528 C5541 0.929 . S
H5529 C5539 0.929 . S
H5530 C5534 0.929 . S
H5531 C5540 0.929 . S
C5532 H5526 0.930 . S
C5532 C5533 1.367 . S
C5532 C5540 1.378 . S
C5533 C5532 1.367 . S
C5533 C5541 1.433 . S
C5534 H5530 0.929 . S
C5534 C5536 1.378 . S
C5534 C5538 1.350 . S
C5535 C5538 1.463 . S
C5535 C5540 1.350 . S
C5535 N5543 1.427 . S
C5536 H5527 0.930 . S
C5536 C5534 1.378 . S
C5536 C5537 1.367 . S
C5537 C5536 1.367 . S
C5537 C5539 1.433 . S
C5538 C5534 1.350 . S
C5538 C5535 1.463 . S
C5538 N5542 1.427 . S
C5539 H5529 0.929 . S
C5539 C5537 1.433 . S
C5539 N5542 1.384 . S
C5540 H5531 0.929 . S
C5540 C5532 1.378 . S
C5540 C5535 1.350 . S
C5541 H5528 0.929 . S
C5541 C5533 1.433 . S
C5541 N5543 1.384 . S
N5542 C5538 1.427 . S
N5542 C5539 1.384 . S
N5543 C5535 1.427 . S
N5543 C5541 1.384 . S
H5544 C5550 0.930 . S
H5545 C5554 0.930 . S
H5546 C5559 0.929 . S
H5547 C5557 0.929 . S
H5548 C5552 0.929 . S
H5549 C5558 0.929 . S
C5550 H5544 0.930 . S
C5550 C5551 1.367 . S
C5550 C5558 1.378 . S
C5551 C5550 1.367 . S
C5551 C5559 1.433 . S
C5552 H5548 0.929 . S
C5552 C5554 1.378 . S
C5552 C5556 1.350 . S
C5553 C5556 1.463 . S
C5553 C5558 1.350 . S
C5553 N5561 1.427 . S
C5554 H5545 0.930 . S
C5554 C5552 1.378 . S
C5554 C5555 1.367 . S
C5555 C5554 1.367 . S
C5555 C5557 1.433 . S
C5556 C5552 1.350 . S
C5556 C5553 1.463 . S
C5556 N5560 1.427 . S
C5557 H5547 0.929 . S
C5557 C5555 1.433 . S
C5557 N5560 1.384 . S
C5558 H5549 0.929 . S
C5558 C5550 1.378 . S
C5558 C5553 1.350 . S
C5559 H5546 0.929 . S
C5559 C5551 1.433 . S
C5559 N5561 1.384 . S
N5560 C5556 1.427 . S
N5560 C5557 1.384 . S
N5561 C5553 1.427 . S
N5561 C5559 1.384 . S
H5562 C5568 0.930 . S
H5563 C5572 0.930 . S
H5564 C5577 0.929 . S
H5565 C5575 0.929 . S
H5566 C5570 0.929 . S
H5567 C5576 0.929 . S
C5568 H5562 0.930 . S
C5568 C5569 1.367 . S
C5568 C5576 1.378 . S
C5569 C5568 1.367 . S
C5569 C5577 1.433 . S
C5570 H5566 0.929 . S
C5570 C5572 1.378 . S
C5570 C5574 1.350 . S
C5571 C5574 1.463 . S
C5571 C5576 1.350 . S
C5571 N5579 1.427 . S
C5572 H5563 0.930 . S
C5572 C5570 1.378 . S
C5572 C5573 1.367 . S
C5573 C5572 1.367 . S
C5573 C5575 1.433 . S
C5574 C5570 1.350 . S
C5574 C5571 1.463 . S
C5574 N5578 1.427 . S
C5575 H5565 0.929 . S
C5575 C5573 1.433 . S
C5575 N5578 1.384 . S
C5576 H5567 0.929 . S
C5576 C5568 1.378 . S
C5576 C5571 1.350 . S
C5577 H5564 0.929 . S
C5577 C5569 1.433 . S
C5577 N5579 1.384 . S
N5578 C5574 1.427 . S
N5578 C5575 1.384 . S
N5579 C5571 1.427 . S
N5579 C5577 1.384 . S
H5580 C5586 0.930 . S
H5581 C5590 0.930 . S
H5582 C5595 0.929 . S
H5583 C5593 0.929 . S
H5584 C5588 0.929 . S
H5585 C5594 0.929 . S
C5586 H5580 0.930 . S
C5586 C5587 1.367 . S
C5586 C5594 1.378 . S
C5587 C5586 1.367 . S
C5587 C5595 1.433 . S
C5588 H5584 0.929 . S
C5588 C5590 1.378 . S
C5588 C5592 1.350 . S
C5589 C5592 1.463 . S
C5589 C5594 1.350 . S
C5589 N5597 1.427 . S
C5590 H5581 0.930 . S
C5590 C5588 1.378 . S
C5590 C5591 1.367 . S
C5591 C5590 1.367 . S
C5591 C5593 1.433 . S
C5592 C5588 1.350 . S
C5592 C5589 1.463 . S
C5592 N5596 1.427 . S
C5593 H5583 0.929 . S
C5593 C5591 1.433 . S
C5593 N5596 1.384 . S
C5594 H5585 0.929 . S
C5594 C5586 1.378 . S
C5594 C5589 1.350 . S
C5595 H5582 0.929 . S
C5595 C5587 1.433 . S
C5595 N5597 1.384 . S
N5596 C5592 1.427 . S
N5596 C5593 1.384 . S
N5597 C5589 1.427 . S
N5597 C5595 1.384 . S
H5598 C5604 0.930 . S
H5599 C5608 0.930 . S
H5600 C5613 0.929 . S
H5601 C5611 0.929 . S
H5602 C5606 0.929 . S
H5603 C5612 0.929 . S
C5604 H5598 0.930 . S
C5604 C5605 1.367 . S
C5604 C5612 1.378 . S
C5605 C5604 1.367 . S
C5605 C5613 1.433 . S
C5606 H5602 0.929 . S
C5606 C5608 1.378 . S
C5606 C5610 1.350 . S
C5607 C5610 1.463 . S
C5607 C5612 1.350 . S
C5607 N5615 1.427 . S
C5608 H5599 0.930 . S
C5608 C5606 1.378 . S
C5608 C5609 1.367 . S
C5609 C5608 1.367 . S
C5609 C5611 1.433 . S
C5610 C5606 1.350 . S
C5610 C5607 1.463 . S
C5610 N5614 1.427 . S
C5611 H5601 0.929 . S
C5611 C5609 1.433 . S
C5611 N5614 1.384 . S
C5612 H5603 0.929 . S
C5612 C5604 1.378 . S
C5612 C5607 1.350 . S
C5613 H5600 0.929 . S
C5613 C5605 1.433 . S
C5613 N5615 1.384 . S
N5614 C5610 1.427 . S
N5614 C5611 1.384 . S
N5615 C5607 1.427 . S
N5615 C5613 1.384 . S
H5616 C5622 0.930 . S
H5617 C5626 0.930 . S
H5618 C5631 0.929 . S
H5619 C5629 0.929 . S
H5620 C5624 0.929 . S
H5621 C5630 0.929 . S
C5622 H5616 0.930 . S
C5622 C5623 1.367 . S
C5622 C5630 1.378 . S
C5623 C5622 1.367 . S
C5623 C5631 1.433 . S
C5624 H5620 0.929 . S
C5624 C5626 1.378 . S
C5624 C5628 1.350 . S
C5625 C5628 1.463 . S
C5625 C5630 1.350 . S
C5625 N5633 1.427 . S
C5626 H5617 0.930 . S
C5626 C5624 1.378 . S
C5626 C5627 1.367 . S
C5627 C5626 1.367 . S
C5627 C5629 1.433 . S
C5628 C5624 1.350 . S
C5628 C5625 1.463 . S
C5628 N5632 1.427 . S
C5629 H5619 0.929 . S
C5629 C5627 1.433 . S
C5629 N5632 1.384 . S
C5630 H5621 0.929 . S
C5630 C5622 1.378 . S
C5630 C5625 1.350 . S
C5631 H5618 0.929 . S
C5631 C5623 1.433 . S
C5631 N5633 1.384 . S
N5632 C5628 1.427 . S
N5632 C5629 1.384 . S
N5633 C5625 1.427 . S
N5633 C5631 1.384 . S
H5634 C5640 0.930 . S
H5635 C5644 0.930 . S
H5636 C5649 0.929 . S
H5637 C5647 0.929 . S
H5638 C5642 0.929 . S
H5639 C5648 0.929 . S
C5640 H5634 0.930 . S
C5640 C5641 1.367 . S
C5640 C5648 1.378 . S
C5641 C5640 1.367 . S
C5641 C5649 1.433 . S
C5642 H5638 0.929 . S
C5642 C5644 1.378 . S
C5642 C5646 1.350 . S
C5643 C5646 1.463 . S
C5643 C5648 1.350 . S
C5643 N5651 1.427 . S
C5644 H5635 0.930 . S
C5644 C5642 1.378 . S
C5644 C5645 1.367 . S
C5645 C5644 1.367 . S
C5645 C5647 1.433 . S
C5646 C5642 1.350 . S
C5646 C5643 1.463 . S
C5646 N5650 1.427 . S
C5647 H5637 0.929 . S
C5647 C5645 1.433 . S
C5647 N5650 1.384 . S
C5648 H5639 0.929 . S
C5648 C5640 1.378 . S
C5648 C5643 1.350 . S
C5649 H5636 0.929 . S
C5649 C5641 1.433 . S
C5649 N5651 1.384 . S
N5650 C5646 1.427 . S
N5650 C5647 1.384 . S
N5651 C5643 1.427 . S
N5651 C5649 1.384 . S
H5652 C5658 0.930 . S
H5653 C5662 0.930 . S
H5654 C5667 0.929 . S
H5655 C5665 0.929 . S
H5656 C5660 0.929 . S
H5657 C5666 0.929 . S
C5658 H5652 0.930 . S
C5658 C5659 1.367 . S
C5658 C5666 1.378 . S
C5659 C5658 1.367 . S
C5659 C5667 1.433 . S
C5660 H5656 0.929 . S
C5660 C5662 1.378 . S
C5660 C5664 1.350 . S
C5661 C5664 1.463 . S
C5661 C5666 1.350 . S
C5661 N5669 1.427 . S
C5662 H5653 0.930 . S
C5662 C5660 1.378 . S
C5662 C5663 1.367 . S
C5663 C5662 1.367 . S
C5663 C5665 1.433 . S
C5664 C5660 1.350 . S
C5664 C5661 1.463 . S
C5664 N5668 1.427 . S
C5665 H5655 0.929 . S
C5665 C5663 1.433 . S
C5665 N5668 1.384 . S
C5666 H5657 0.929 . S
C5666 C5658 1.378 . S
C5666 C5661 1.350 . S
C5667 H5654 0.929 . S
C5667 C5659 1.433 . S
C5667 N5669 1.384 . S
N5668 C5664 1.427 . S
N5668 C5665 1.384 . S
N5669 C5661 1.427 . S
N5669 C5667 1.384 . S
H5670 C5676 0.930 . S
H5671 C5680 0.930 . S
H5672 C5685 0.929 . S
H5673 C5683 0.929 . S
H5674 C5678 0.929 . S
H5675 C5684 0.929 . S
C5676 H5670 0.930 . S
C5676 C5677 1.367 . S
C5676 C5684 1.378 . S
C5677 C5676 1.367 . S
C5677 C5685 1.433 . S
C5678 H5674 0.929 . S
C5678 C5680 1.378 . S
C5678 C5682 1.350 . S
C5679 C5682 1.463 . S
C5679 C5684 1.350 . S
C5679 N5687 1.427 . S
C5680 H5671 0.930 . S
C5680 C5678 1.378 . S
C5680 C5681 1.367 . S
C5681 C5680 1.367 . S
C5681 C5683 1.433 . S
C5682 C5678 1.350 . S
C5682 C5679 1.463 . S
C5682 N5686 1.427 . S
C5683 H5673 0.929 . S
C5683 C5681 1.433 . S
C5683 N5686 1.384 . S
C5684 H5675 0.929 . S
C5684 C5676 1.378 . S
C5684 C5679 1.350 . S
C5685 H5672 0.929 . S
C5685 C5677 1.433 . S
C5685 N5687 1.384 . S
N5686 C5682 1.427 . S
N5686 C5683 1.384 . S
N5687 C5679 1.427 . S
N5687 C5685 1.384 . S
H5688 C5694 0.930 . S
H5689 C5698 0.930 . S
H5690 C5703 0.929 . S
H5691 C5701 0.929 . S
H5692 C5696 0.929 . S
H5693 C5702 0.929 . S
C5694 H5688 0.930 . S
C5694 C5695 1.367 . S
C5694 C5702 1.378 . S
C5695 C5694 1.367 . S
C5695 C5703 1.433 . S
C5696 H5692 0.929 . S
C5696 C5698 1.378 . S
C5696 C5700 1.350 . S
C5697 C5700 1.463 . S
C5697 C5702 1.350 . S
C5697 N5705 1.427 . S
C5698 H5689 0.930 . S
C5698 C5696 1.378 . S
C5698 C5699 1.367 . S
C5699 C5698 1.367 . S
C5699 C5701 1.433 . S
C5700 C5696 1.350 . S
C5700 C5697 1.463 . S
C5700 N5704 1.427 . S
C5701 H5691 0.929 . S
C5701 C5699 1.433 . S
C5701 N5704 1.384 . S
C5702 H5693 0.929 . S
C5702 C5694 1.378 . S
C5702 C5697 1.350 . S
C5703 H5690 0.929 . S
C5703 C5695 1.433 . S
C5703 N5705 1.384 . S
N5704 C5700 1.427 . S
N5704 C5701 1.384 . S
N5705 C5697 1.427 . S
N5705 C5703 1.384 . S
H5706 C5712 0.930 . S
H5707 C5716 0.930 . S
H5708 C5721 0.929 . S
H5709 C5719 0.929 . S
H5710 C5714 0.929 . S
H5711 C5720 0.929 . S
C5712 H5706 0.930 . S
C5712 C5713 1.367 . S
C5712 C5720 1.378 . S
C5713 C5712 1.367 . S
C5713 C5721 1.433 . S
C5714 H5710 0.929 . S
C5714 C5716 1.378 . S
C5714 C5718 1.350 . S
C5715 C5718 1.463 . S
C5715 C5720 1.350 . S
C5715 N5723 1.427 . S
C5716 H5707 0.930 . S
C5716 C5714 1.378 . S
C5716 C5717 1.367 . S
C5717 C5716 1.367 . S
C5717 C5719 1.433 . S
C5718 C5714 1.350 . S
C5718 C5715 1.463 . S
C5718 N5722 1.427 . S
C5719 H5709 0.929 . S
C5719 C5717 1.433 . S
C5719 N5722 1.384 . S
C5720 H5711 0.929 . S
C5720 C5712 1.378 . S
C5720 C5715 1.350 . S
C5721 H5708 0.929 . S
C5721 C5713 1.433 . S
C5721 N5723 1.384 . S
N5722 C5718 1.427 . S
N5722 C5719 1.384 . S
N5723 C5715 1.427 . S
N5723 C5721 1.384 . S
H5724 C5730 0.930 . S
H5725 C5734 0.930 . S
H5726 C5739 0.929 . S
H5727 C5737 0.929 . S
H5728 C5732 0.929 . S
H5729 C5738 0.929 . S
C5730 H5724 0.930 . S
C5730 C5731 1.367 . S
C5730 C5738 1.378 . S
C5731 C5730 1.367 . S
C5731 C5739 1.433 . S
C5732 H5728 0.929 . S
C5732 C5734 1.378 . S
C5732 C5736 1.350 . S
C5733 C5736 1.463 . S
C5733 C5738 1.350 . S
C5733 N5741 1.427 . S
C5734 H5725 0.930 . S
C5734 C5732 1.378 . S
C5734 C5735 1.367 . S
C5735 C5734 1.367 . S
C5735 C5737 1.433 . S
C5736 C5732 1.350 . S
C5736 C5733 1.463 . S
C5736 N5740 1.427 . S
C5737 H5727 0.929 . S
C5737 C5735 1.433 . S
C5737 N5740 1.384 . S
C5738 H5729 0.929 . S
C5738 C5730 1.378 . S
C5738 C5733 1.350 . S
C5739 H5726 0.929 . S
C5739 C5731 1.433 . S
C5739 N5741 1.384 . S
N5740 C5736 1.427 . S
N5740 C5737 1.384 . S
N5741 C5733 1.427 . S
N5741 C5739 1.384 . S
H5742 C5748 0.930 . S
H5743 C5752 0.930 . S
H5744 C5757 0.929 . S
H5745 C5755 0.929 . S
H5746 C5750 0.929 . S
H5747 C5756 0.929 . S
C5748 H5742 0.930 . S
C5748 C5749 1.367 . S
C5748 C5756 1.378 . S
C5749 C5748 1.367 . S
C5749 C5757 1.433 . S
C5750 H5746 0.929 . S
C5750 C5752 1.378 . S
C5750 C5754 1.350 . S
C5751 C5754 1.463 . S
C5751 C5756 1.350 . S
C5751 N5759 1.427 . S
C5752 H5743 0.930 . S
C5752 C5750 1.378 . S
C5752 C5753 1.367 . S
C5753 C5752 1.367 . S
C5753 C5755 1.433 . S
C5754 C5750 1.350 . S
C5754 C5751 1.463 . S
C5754 N5758 1.427 . S
C5755 H5745 0.929 . S
C5755 C5753 1.433 . S
C5755 N5758 1.384 . S
C5756 H5747 0.929 . S
C5756 C5748 1.378 . S
C5756 C5751 1.350 . S
C5757 H5744 0.929 . S
C5757 C5749 1.433 . S
C5757 N5759 1.384 . S
N5758 C5754 1.427 . S
N5758 C5755 1.384 . S
N5759 C5751 1.427 . S
N5759 C5757 1.384 . S
H5760 C5766 0.930 . S
H5761 C5770 0.930 . S
H5762 C5775 0.929 . S
H5763 C5773 0.929 . S
H5764 C5768 0.929 . S
H5765 C5774 0.929 . S
C5766 H5760 0.930 . S
C5766 C5767 1.367 . S
C5766 C5774 1.378 . S
C5767 C5766 1.367 . S
C5767 C5775 1.433 1_655 S
C5768 H5764 0.929 . S
C5768 C5770 1.378 . S
C5768 C5772 1.350 . S
C5769 C5772 1.463 . S
C5769 C5774 1.350 . S
C5769 N5777 1.427 . S
C5770 H5761 0.930 . S
C5770 C5768 1.378 . S
C5770 C5771 1.367 . S
C5771 C5770 1.367 . S
C5771 C5773 1.433 . S
C5772 C5768 1.350 . S
C5772 C5769 1.463 . S
C5772 N5776 1.427 . S
C5773 H5763 0.929 . S
C5773 C5771 1.433 . S
C5773 N5776 1.384 . S
C5774 H5765 0.929 . S
C5774 C5766 1.378 . S
C5774 C5769 1.350 . S
C5775 H5762 0.929 . S
C5775 C5767 1.433 1_455 S
C5775 N5777 1.384 1_455 S
N5776 C5772 1.427 . S
N5776 C5773 1.384 . S
N5777 C5769 1.427 . S
N5777 C5775 1.384 1_655 S
H5778 C5784 0.930 . S
H5779 C5788 0.930 . S
H5780 C5793 0.929 . S
H5781 C5791 0.929 . S
H5782 C5786 0.929 . S
H5783 C5792 0.929 . S
C5784 H5778 0.930 . S
C5784 C5785 1.367 . S
C5784 C5792 1.378 . S
C5785 C5784 1.367 . S
C5785 C5793 1.433 . S
C5786 H5782 0.929 . S
C5786 C5788 1.378 . S
C5786 C5790 1.350 . S
C5787 C5790 1.463 . S
C5787 C5792 1.350 . S
C5787 N5795 1.427 . S
C5788 H5779 0.930 . S
C5788 C5786 1.378 . S
C5788 C5789 1.367 . S
C5789 C5788 1.367 . S
C5789 C5791 1.433 . S
C5790 C5786 1.350 . S
C5790 C5787 1.463 . S
C5790 N5794 1.427 . S
C5791 H5781 0.929 . S
C5791 C5789 1.433 . S
C5791 N5794 1.384 . S
C5792 H5783 0.929 . S
C5792 C5784 1.378 . S
C5792 C5787 1.350 . S
C5793 H5780 0.929 . S
C5793 C5785 1.433 . S
C5793 N5795 1.384 . S
N5794 C5790 1.427 . S
N5794 C5791 1.384 . S
N5795 C5787 1.427 . S
N5795 C5793 1.384 . S
H5796 C5802 0.930 . S
H5797 C5806 0.930 . S
H5798 C5811 0.929 . S
H5799 C5809 0.929 . S
H5800 C5804 0.929 . S
H5801 C5810 0.929 . S
C5802 H5796 0.930 . S
C5802 C5803 1.367 . S
C5802 C5810 1.378 . S
C5803 C5802 1.367 . S
C5803 C5811 1.433 . S
C5804 H5800 0.929 . S
C5804 C5806 1.378 . S
C5804 C5808 1.350 . S
C5805 C5808 1.463 . S
C5805 C5810 1.350 . S
C5805 N5813 1.427 . S
C5806 H5797 0.930 . S
C5806 C5804 1.378 . S
C5806 C5807 1.367 . S
C5807 C5806 1.367 . S
C5807 C5809 1.433 . S
C5808 C5804 1.350 . S
C5808 C5805 1.463 . S
C5808 N5812 1.427 . S
C5809 H5799 0.929 . S
C5809 C5807 1.433 . S
C5809 N5812 1.384 . S
C5810 H5801 0.929 . S
C5810 C5802 1.378 . S
C5810 C5805 1.350 . S
C5811 H5798 0.929 . S
C5811 C5803 1.433 . S
C5811 N5813 1.384 . S
N5812 C5808 1.427 . S
N5812 C5809 1.384 . S
N5813 C5805 1.427 . S
N5813 C5811 1.384 . S
H5814 C5820 0.930 . S
H5815 C5824 0.930 . S
H5816 C5829 0.929 . S
H5817 C5827 0.929 . S
H5818 C5822 0.929 . S
H5819 C5828 0.929 . S
C5820 H5814 0.930 . S
C5820 C5821 1.367 . S
C5820 C5828 1.378 . S
C5821 C5820 1.367 . S
C5821 C5829 1.433 . S
C5822 H5818 0.929 . S
C5822 C5824 1.378 . S
C5822 C5826 1.350 . S
C5823 C5826 1.463 . S
C5823 C5828 1.350 . S
C5823 N5831 1.427 . S
C5824 H5815 0.930 . S
C5824 C5822 1.378 . S
C5824 C5825 1.367 . S
C5825 C5824 1.367 . S
C5825 C5827 1.433 . S
C5826 C5822 1.350 . S
C5826 C5823 1.463 . S
C5826 N5830 1.427 . S
C5827 H5817 0.929 . S
C5827 C5825 1.433 . S
C5827 N5830 1.384 . S
C5828 H5819 0.929 . S
C5828 C5820 1.378 . S
C5828 C5823 1.350 . S
C5829 H5816 0.929 . S
C5829 C5821 1.433 . S
C5829 N5831 1.384 . S
N5830 C5826 1.427 . S
N5830 C5827 1.384 . S
N5831 C5823 1.427 . S
N5831 C5829 1.384 . S
H5832 C5838 0.930 . S
H5833 C5842 0.876 1_455 S
H5834 C5847 0.929 . S
H5835 C5845 0.929 . S
H5836 C5840 0.929 . S
H5837 C5846 0.929 . S
C5838 H5832 0.930 . S
C5838 C5839 1.367 . S
C5838 C5846 1.378 . S
C5839 C5838 1.367 . S
C5839 C5847 1.433 . S
C5840 H5836 0.929 . S
C5840 C5842 1.419 . S
C5840 C5844 1.350 . S
C5841 C5844 1.463 . S
C5841 C5846 1.350 . S
C5841 N5849 1.427 . S
C5842 H5833 0.876 1_655 S
C5842 C5840 1.419 . S
C5842 C5843 1.383 . S
C5843 C5842 1.383 . S
C5843 C5845 1.433 . S
C5844 C5840 1.350 . S
C5844 C5841 1.463 . S
C5844 N5848 1.427 . S
C5845 H5835 0.929 . S
C5845 C5843 1.433 . S
C5845 N5848 1.384 . S
C5846 H5837 0.929 . S
C5846 C5838 1.378 . S
C5846 C5841 1.350 . S
C5847 H5834 0.929 . S
C5847 C5839 1.433 . S
C5847 N5849 1.384 . S
N5848 C5844 1.427 . S
N5848 C5845 1.384 . S
N5849 C5841 1.427 . S
N5849 C5847 1.384 . S
H5850 C5856 0.930 . S
H5851 C5860 0.930 . S
H5852 C5865 0.929 . S
H5853 C5863 0.929 . S
H5854 C5858 0.929 . S
H5855 C5864 0.929 . S
C5856 H5850 0.930 . S
C5856 C5857 1.367 . S
C5856 C5864 1.378 . S
C5857 C5856 1.367 . S
C5857 C5865 1.433 . S
C5858 H5854 0.929 . S
C5858 C5860 1.378 . S
C5858 C5862 1.350 . S
C5859 C5862 1.463 . S
C5859 C5864 1.350 . S
C5859 N5867 1.427 . S
C5860 H5851 0.930 . S
C5860 C5858 1.378 . S
C5860 C5861 1.367 . S
C5861 C5860 1.367 . S
C5861 C5863 1.433 . S
C5862 C5858 1.350 . S
C5862 C5859 1.463 . S
C5862 N5866 1.427 . S
C5863 H5853 0.929 . S
C5863 C5861 1.433 . S
C5863 N5866 1.384 . S
C5864 H5855 0.929 . S
C5864 C5856 1.378 . S
C5864 C5859 1.350 . S
C5865 H5852 0.929 . S
C5865 C5857 1.433 . S
C5865 N5867 1.384 . S
N5866 C5862 1.427 . S
N5866 C5863 1.384 . S
N5867 C5859 1.427 . S
N5867 C5865 1.384 . S
H5868 C5874 0.930 . S
H5869 C5878 0.930 . S
H5870 C5883 0.929 . S
H5871 C5881 0.929 . S
H5872 C5876 0.929 . S
H5873 C5882 0.929 . S
C5874 H5868 0.930 . S
C5874 C5875 1.367 . S
C5874 C5882 1.378 . S
C5875 C5874 1.367 . S
C5875 C5883 1.433 . S
C5876 H5872 0.929 . S
C5876 C5878 1.378 . S
C5876 C5880 1.350 . S
C5877 C5880 1.463 . S
C5877 C5882 1.350 . S
C5877 N5885 1.427 . S
C5878 H5869 0.930 . S
C5878 C5876 1.378 . S
C5878 C5879 1.367 . S
C5879 C5878 1.367 . S
C5879 C5881 1.433 . S
C5880 C5876 1.350 . S
C5880 C5877 1.463 . S
C5880 N5884 1.427 . S
C5881 H5871 0.929 . S
C5881 C5879 1.433 . S
C5881 N5884 1.384 . S
C5882 H5873 0.929 . S
C5882 C5874 1.378 . S
C5882 C5877 1.350 . S
C5883 H5870 0.929 . S
C5883 C5875 1.433 . S
C5883 N5885 1.384 . S
N5884 C5880 1.427 . S
N5884 C5881 1.384 . S
N5885 C5877 1.427 . S
N5885 C5883 1.384 . S
H5886 C5892 0.930 . S
H5887 C5896 0.930 . S
H5888 C5901 0.929 . S
H5889 C5899 0.929 . S
H5890 C5894 0.929 . S
H5891 C5900 0.929 . S
C5892 H5886 0.930 . S
C5892 C5893 1.367 . S
C5892 C5900 1.378 . S
C5893 C5892 1.367 . S
C5893 C5901 1.433 . S
C5894 H5890 0.929 . S
C5894 C5896 1.378 . S
C5894 C5898 1.350 . S
C5895 C5898 1.463 . S
C5895 C5900 1.350 . S
C5895 N5903 1.427 . S
C5896 H5887 0.930 . S
C5896 C5894 1.378 . S
C5896 C5897 1.367 . S
C5897 C5896 1.367 . S
C5897 C5899 1.433 1_556 S
C5898 C5894 1.350 . S
C5898 C5895 1.463 . S
C5898 N5902 1.427 . S
C5899 H5889 0.929 . S
C5899 C5897 1.433 1_554 S
C5899 N5902 1.384 1_554 S
C5900 H5891 0.929 . S
C5900 C5892 1.378 . S
C5900 C5895 1.350 . S
C5901 H5888 0.929 . S
C5901 C5893 1.433 . S
C5901 N5903 1.384 . S
N5902 C5898 1.427 . S
N5902 C5899 1.384 1_556 S
N5903 C5895 1.427 . S
N5903 C5901 1.384 . S
H5904 C5910 0.930 . S
H5905 C5914 0.930 . S
H5906 C5919 0.929 . S
H5907 C5917 0.929 . S
H5908 C5912 0.929 . S
H5909 C5918 0.929 . S
C5910 H5904 0.930 . S
C5910 C5911 1.367 . S
C5910 C5918 1.378 . S
C5911 C5910 1.367 . S
C5911 C5919 1.433 . S
C5912 H5908 0.929 . S
C5912 C5914 1.378 . S
C5912 C5916 1.350 . S
C5913 C5916 1.463 . S
C5913 C5918 1.350 . S
C5913 N5921 1.427 . S
C5914 H5905 0.930 . S
C5914 C5912 1.378 . S
C5914 C5915 1.367 . S
C5915 C5914 1.367 . S
C5915 C5917 1.433 . S
C5916 C5912 1.350 . S
C5916 C5913 1.463 . S
C5916 N5920 1.427 . S
C5917 H5907 0.929 . S
C5917 C5915 1.433 . S
C5917 N5920 1.384 . S
C5918 H5909 0.929 . S
C5918 C5910 1.378 . S
C5918 C5913 1.350 . S
C5919 H5906 0.929 . S
C5919 C5911 1.433 . S
C5919 N5921 1.384 . S
N5920 C5916 1.427 . S
N5920 C5917 1.384 . S
N5921 C5913 1.427 . S
N5921 C5919 1.384 . S
H5922 C5928 0.930 . S
H5923 C5932 0.930 . S
H5924 C5937 0.929 . S
H5925 C5935 0.886 1_565 S
H5926 C5930 0.929 . S
H5927 C5936 0.929 . S
C5928 H5922 0.930 . S
C5928 C5929 1.367 . S
C5928 C5936 1.378 . S
C5929 C5928 1.367 . S
C5929 C5937 1.433 . S
C5930 H5926 0.929 . S
C5930 C5932 1.378 . S
C5930 C5934 1.350 . S
C5931 C5934 1.463 . S
C5931 C5936 1.350 . S
C5931 N5939 1.427 . S
C5932 H5923 0.930 . S
C5932 C5930 1.378 . S
C5932 C5933 1.367 . S
C5933 C5932 1.367 . S
C5933 C5935 1.447 . S
C5934 C5930 1.350 . S
C5934 C5931 1.463 . S
C5934 N5938 1.427 . S
C5935 H5925 0.886 1_545 S
C5935 C5933 1.447 . S
C5935 N5938 1.417 . S
C5936 H5927 0.929 . S
C5936 C5928 1.378 . S
C5936 C5931 1.350 . S
C5937 H5924 0.929 . S
C5937 C5929 1.433 . S
C5937 N5939 1.384 . S
N5938 C5934 1.427 . S
N5938 C5935 1.417 . S
N5939 C5931 1.427 . S
N5939 C5937 1.384 . S
H5940 C5946 0.930 . S
H5941 C5950 0.930 . S
H5942 C5955 0.929 . S
H5943 C5953 0.929 . S
H5944 C5948 0.929 . S
H5945 C5954 0.929 . S
C5946 H5940 0.930 . S
C5946 C5947 1.367 . S
C5946 C5954 1.378 . S
C5947 C5946 1.367 . S
C5947 C5955 1.433 . S
C5948 H5944 0.929 . S
C5948 C5950 1.378 . S
C5948 C5952 1.350 . S
C5949 C5952 1.463 . S
C5949 C5954 1.350 . S
C5949 N5957 1.427 . S
C5950 H5941 0.930 . S
C5950 C5948 1.378 . S
C5950 C5951 1.367 . S
C5951 C5950 1.367 . S
C5951 C5953 1.433 . S
C5952 C5948 1.350 . S
C5952 C5949 1.463 . S
C5952 N5956 1.427 . S
C5953 H5943 0.929 . S
C5953 C5951 1.433 . S
C5953 N5956 1.384 . S
C5954 H5945 0.929 . S
C5954 C5946 1.378 . S
C5954 C5949 1.350 . S
C5955 H5942 0.929 . S
C5955 C5947 1.433 . S
C5955 N5957 1.384 . S
N5956 C5952 1.427 . S
N5956 C5953 1.384 . S
N5957 C5949 1.427 . S
N5957 C5955 1.384 . S
H5958 C5964 0.930 . S
H5959 C5968 0.930 1_545 S
H5960 C5973 0.929 . S
H5961 C5971 0.929 . S
H5962 C5966 0.929 . S
H5963 C5972 0.929 . S
C5964 H5958 0.930 . S
C5964 C5965 1.367 . S
C5964 C5972 1.378 . S
C5965 C5964 1.367 . S
C5965 C5973 1.433 . S
C5966 H5962 0.929 . S
C5966 C5968 1.378 . S
C5966 C5970 1.350 . S
C5967 C5970 1.463 . S
C5967 C5972 1.350 . S
C5967 N5975 1.427 . S
C5968 H5959 0.930 1_565 S
C5968 C5966 1.378 . S
C5968 C5969 1.367 . S
C5969 C5968 1.367 . S
C5969 C5971 1.433 . S
C5970 C5966 1.350 . S
C5970 C5967 1.463 . S
C5970 N5974 1.427 . S
C5971 H5961 0.929 . S
C5971 C5969 1.433 . S
C5971 N5974 1.384 . S
C5972 H5963 0.929 . S
C5972 C5964 1.378 . S
C5972 C5967 1.350 . S
C5973 H5960 0.929 . S
C5973 C5965 1.433 . S
C5973 N5975 1.384 . S
N5974 C5970 1.427 . S
N5974 C5971 1.384 . S
N5975 C5967 1.427 . S
N5975 C5973 1.384 . S
H5976 C5982 0.930 . S
H5977 C5986 0.930 . S
H5978 C5991 0.929 . S
H5979 C5989 0.929 1_556 S
H5980 C5984 0.929 . S
H5981 C5990 0.929 . S
C5982 H5976 0.930 . S
C5982 C5983 1.367 . S
C5982 C5990 1.378 . S
C5983 C5982 1.367 . S
C5983 C5991 1.433 . S
C5984 H5980 0.929 . S
C5984 C5986 1.378 . S
C5984 C5988 1.350 . S
C5985 C5988 1.463 . S
C5985 C5990 1.350 . S
C5985 N5993 1.427 . S
C5986 H5977 0.930 . S
C5986 C5984 1.378 . S
C5986 C5987 1.367 . S
C5987 C5986 1.367 . S
C5987 C5989 1.433 . S
C5988 C5984 1.350 . S
C5988 C5985 1.463 . S
C5988 N5992 1.427 . S
C5989 H5979 0.929 1_554 S
C5989 C5987 1.433 . S
C5989 N5992 1.384 . S
C5990 H5981 0.929 . S
C5990 C5982 1.378 . S
C5990 C5985 1.350 . S
C5991 H5978 0.929 . S
C5991 C5983 1.433 . S
C5991 N5993 1.384 . S
N5992 C5988 1.427 . S
N5992 C5989 1.384 . S
N5993 C5985 1.427 . S
N5993 C5991 1.384 . S
H5994 C6000 0.930 . S
H5995 C6004 0.946 . S
H5996 C6009 0.929 . S
H5997 C6007 0.929 . S
H5998 C6002 0.929 . S
H5999 C6008 0.929 . S
C6000 H5994 0.930 . S
C6000 C6001 1.367 . S
C6000 C6008 1.378 . S
C6001 C6000 1.367 . S
C6001 C6009 1.433 . S
C6002 H5998 0.929 . S
C6002 C6004 1.367 1_455 S
C6002 C6006 1.350 . S
C6003 C6006 1.463 . S
C6003 C6008 1.350 . S
C6003 N6011 1.427 . S
C6004 H5995 0.946 . S
C6004 C6002 1.367 1_655 S
C6004 C6005 1.362 1_655 S
C6005 C6004 1.362 1_455 S
C6005 C6007 1.433 . S
C6006 C6002 1.350 . S
C6006 C6003 1.463 . S
C6006 N6010 1.427 . S
C6007 H5997 0.929 . S
C6007 C6005 1.433 . S
C6007 N6010 1.384 . S
C6008 H5999 0.929 . S
C6008 C6000 1.378 . S
C6008 C6003 1.350 . S
C6009 H5996 0.929 . S
C6009 C6001 1.433 . S
C6009 N6011 1.384 . S
N6010 C6006 1.427 . S
N6010 C6007 1.384 . S
N6011 C6003 1.427 . S
N6011 C6009 1.384 . S
H6012 C6018 0.930 . S
H6013 C6022 0.930 . S
H6014 C6027 0.929 . S
H6015 C6025 0.929 . S
H6016 C6020 0.929 . S
H6017 C6026 0.929 . S
C6018 H6012 0.930 . S
C6018 C6019 1.367 . S
C6018 C6026 1.378 . S
C6019 C6018 1.367 . S
C6019 C6027 1.433 . S
C6020 H6016 0.929 . S
C6020 C6022 1.378 . S
C6020 C6024 1.350 . S
C6021 C6024 1.463 . S
C6021 C6026 1.350 . S
C6021 N6029 1.427 . S
C6022 H6013 0.930 . S
C6022 C6020 1.378 . S
C6022 C6023 1.367 . S
C6023 C6022 1.367 . S
C6023 C6025 1.433 . S
C6024 C6020 1.350 . S
C6024 C6021 1.463 . S
C6024 N6028 1.427 . S
C6025 H6015 0.929 . S
C6025 C6023 1.433 . S
C6025 N6028 1.384 . S
C6026 H6017 0.929 . S
C6026 C6018 1.378 . S
C6026 C6021 1.350 . S
C6027 H6014 0.929 . S
C6027 C6019 1.433 . S
C6027 N6029 1.384 . S
N6028 C6024 1.427 . S
N6028 C6025 1.384 . S
N6029 C6021 1.427 . S
N6029 C6027 1.384 . S
H6030 C6036 0.938 . S
H6031 C6040 0.930 . S
H6032 C6045 0.929 . S
H6033 C6043 0.929 . S
H6034 C6038 0.929 . S
H6035 C6044 0.929 . S
C6036 H6030 0.938 . S
C6036 C6037 1.367 . S
C6036 C6044 1.378 . S
C6037 C6036 1.367 . S
C6037 C6045 1.433 . S
C6038 H6034 0.929 . S
C6038 C6040 1.378 . S
C6038 C6042 1.350 . S
C6039 C6042 1.463 . S
C6039 C6044 1.350 . S
C6039 N6047 1.427 . S
C6040 H6031 0.930 . S
C6040 C6038 1.378 . S
C6040 C6041 1.367 . S
C6041 C6040 1.367 . S
C6041 C6043 1.433 . S
C6042 C6038 1.350 . S
C6042 C6039 1.463 . S
C6042 N6046 1.427 . S
C6043 H6033 0.929 . S
C6043 C6041 1.433 . S
C6043 N6046 1.384 . S
C6044 H6035 0.929 . S
C6044 C6036 1.378 . S
C6044 C6039 1.350 . S
C6045 H6032 0.929 . S
C6045 C6037 1.433 . S
C6045 N6047 1.384 . S
N6046 C6042 1.427 . S
N6046 C6043 1.384 . S
N6047 C6039 1.427 . S
N6047 C6045 1.384 . S
H6048 C6054 0.930 . S
H6049 C6058 0.930 . S
H6050 C6063 0.929 . S
H6051 C6061 0.929 . S
H6052 C6056 0.929 . S
H6053 C6062 0.929 . S
C6054 H6048 0.930 . S
C6054 C6055 1.367 . S
C6054 C6062 1.378 . S
C6055 C6054 1.367 . S
C6055 C6063 1.433 . S
C6056 H6052 0.929 . S
C6056 C6058 1.378 . S
C6056 C6060 1.350 . S
C6057 C6060 1.463 . S
C6057 C6062 1.350 . S
C6057 N6065 1.427 . S
C6058 H6049 0.930 . S
C6058 C6056 1.378 . S
C6058 C6059 1.367 . S
C6059 C6058 1.367 . S
C6059 C6061 1.433 . S
C6060 C6056 1.350 . S
C6060 C6057 1.463 . S
C6060 N6064 1.427 . S
C6061 H6051 0.929 . S
C6061 C6059 1.433 . S
C6061 N6064 1.384 . S
C6062 H6053 0.929 . S
C6062 C6054 1.378 . S
C6062 C6057 1.350 . S
C6063 H6050 0.929 . S
C6063 C6055 1.433 . S
C6063 N6065 1.384 . S
N6064 C6060 1.427 . S
N6064 C6061 1.384 . S
N6065 C6057 1.427 . S
N6065 C6063 1.384 . S
H6066 C6072 0.930 . S
H6067 C6076 0.930 . S
H6068 C6081 0.929 . S
H6069 C6079 0.929 . S
H6070 C6074 0.929 . S
H6071 C6080 0.929 . S
C6072 H6066 0.930 . S
C6072 C6073 1.367 . S
C6072 C6080 1.378 . S
C6073 C6072 1.367 . S
C6073 C6081 1.433 . S
C6074 H6070 0.929 . S
C6074 C6076 1.378 . S
C6074 C6078 1.350 . S
C6075 C6078 1.463 . S
C6075 C6080 1.350 . S
C6075 N6083 1.427 . S
C6076 H6067 0.930 . S
C6076 C6074 1.378 . S
C6076 C6077 1.367 . S
C6077 C6076 1.367 . S
C6077 C6079 1.433 . S
C6078 C6074 1.350 . S
C6078 C6075 1.463 . S
C6078 N6082 1.427 . S
C6079 H6069 0.929 . S
C6079 C6077 1.433 . S
C6079 N6082 1.384 . S
C6080 H6071 0.929 . S
C6080 C6072 1.378 . S
C6080 C6075 1.350 . S
C6081 H6068 0.929 . S
C6081 C6073 1.433 . S
C6081 N6083 1.384 . S
N6082 C6078 1.427 . S
N6082 C6079 1.384 . S
N6083 C6075 1.427 . S
N6083 C6081 1.384 . S
H6084 C6090 0.930 . S
H6085 C6094 0.930 . S
H6086 C6099 0.929 . S
H6087 C6097 0.929 . S
H6088 C6092 0.929 . S
H6089 C6098 0.929 . S
C6090 H6084 0.930 . S
C6090 C6091 1.367 . S
C6090 C6098 1.378 . S
C6091 C6090 1.367 . S
C6091 C6099 1.433 . S
C6092 H6088 0.929 . S
C6092 C6094 1.378 . S
C6092 C6096 1.350 . S
C6093 C6096 1.463 . S
C6093 C6098 1.350 . S
C6093 N6101 1.427 . S
C6094 H6085 0.930 . S
C6094 C6092 1.378 . S
C6094 C6095 1.367 . S
C6095 C6094 1.367 . S
C6095 C6097 1.433 . S
C6096 C6092 1.350 . S
C6096 C6093 1.463 . S
C6096 N6100 1.427 . S
C6097 H6087 0.929 . S
C6097 C6095 1.433 . S
C6097 N6100 1.384 . S
C6098 H6089 0.929 . S
C6098 C6090 1.378 . S
C6098 C6093 1.350 . S
C6099 H6086 0.929 . S
C6099 C6091 1.433 . S
C6099 N6101 1.384 . S
N6100 C6096 1.427 . S
N6100 C6097 1.384 . S
N6101 C6093 1.427 . S
N6101 C6099 1.384 . S
H6102 C6108 0.930 . S
H6103 C6112 0.930 . S
H6104 C6117 0.929 . S
H6105 C6115 0.929 . S
H6106 C6110 0.929 . S
H6107 C6116 0.929 . S
C6108 H6102 0.930 . S
C6108 C6109 1.367 . S
C6108 C6116 1.378 . S
C6109 C6108 1.367 . S
C6109 C6117 1.433 . S
C6110 H6106 0.929 . S
C6110 C6112 1.378 . S
C6110 C6114 1.350 . S
C6111 C6114 1.463 . S
C6111 C6116 1.350 . S
C6111 N6119 1.427 . S
C6112 H6103 0.930 . S
C6112 C6110 1.378 . S
C6112 C6113 1.367 . S
C6113 C6112 1.367 . S
C6113 C6115 1.433 . S
C6114 C6110 1.350 . S
C6114 C6111 1.463 . S
C6114 N6118 1.427 . S
C6115 H6105 0.929 . S
C6115 C6113 1.433 . S
C6115 N6118 1.384 . S
C6116 H6107 0.929 . S
C6116 C6108 1.378 . S
C6116 C6111 1.350 . S
C6117 H6104 0.929 . S
C6117 C6109 1.433 . S
C6117 N6119 1.384 . S
N6118 C6114 1.427 . S
N6118 C6115 1.384 . S
N6119 C6111 1.427 . S
N6119 C6117 1.384 . S
H6120 C6126 0.930 . S
H6121 C6130 0.930 . S
H6122 C6135 0.929 . S
H6123 C6133 0.917 1_554 S
H6124 C6128 0.929 . S
H6125 C6134 0.929 . S
C6126 H6120 0.930 . S
C6126 C6127 1.367 . S
C6126 C6134 1.378 . S
C6127 C6126 1.367 . S
C6127 C6135 1.433 . S
C6128 H6124 0.929 . S
C6128 C6130 1.378 . S
C6128 C6132 1.350 . S
C6129 C6132 1.463 . S
C6129 C6134 1.350 . S
C6129 N6137 1.427 . S
C6130 H6121 0.930 . S
C6130 C6128 1.378 . S
C6130 C6131 1.367 . S
C6131 C6130 1.367 . S
C6131 C6133 1.437 . S
C6132 C6128 1.350 . S
C6132 C6129 1.463 . S
C6132 N6136 1.427 . S
C6133 H6123 0.917 1_556 S
C6133 C6131 1.437 . S
C6133 N6136 1.393 . S
C6134 H6125 0.929 . S
C6134 C6126 1.378 . S
C6134 C6129 1.350 . S
C6135 H6122 0.929 . S
C6135 C6127 1.433 . S
C6135 N6137 1.384 . S
N6136 C6132 1.427 . S
N6136 C6133 1.393 . S
N6137 C6129 1.427 . S
N6137 C6135 1.384 . S
H6138 C6144 0.930 . S
H6139 C6148 0.930 . S
H6140 C6153 0.929 . S
H6141 C6151 0.929 . S
H6142 C6146 0.929 . S
H6143 C6152 0.929 . S
C6144 H6138 0.930 . S
C6144 C6145 1.367 1_655 S
C6144 C6152 1.378 1_655 S
C6145 C6144 1.367 1_455 S
C6145 C6153 1.433 . S
C6146 H6142 0.929 . S
C6146 C6148 1.378 . S
C6146 C6150 1.350 . S
C6147 C6150 1.463 . S
C6147 C6152 1.350 . S
C6147 N6155 1.427 . S
C6148 H6139 0.930 . S
C6148 C6146 1.378 . S
C6148 C6149 1.367 . S
C6149 C6148 1.367 . S
C6149 C6151 1.433 . S
C6150 C6146 1.350 . S
C6150 C6147 1.463 . S
C6150 N6154 1.427 . S
C6151 H6141 0.929 . S
C6151 C6149 1.433 . S
C6151 N6154 1.384 . S
C6152 H6143 0.929 . S
C6152 C6144 1.378 1_455 S
C6152 C6147 1.350 . S
C6153 H6140 0.929 . S
C6153 C6145 1.433 . S
C6153 N6155 1.384 . S
N6154 C6150 1.427 . S
N6154 C6151 1.384 . S
N6155 C6147 1.427 . S
N6155 C6153 1.384 . S
H6156 C6162 0.930 . S
H6157 C6166 0.930 . S
H6158 C6171 0.929 . S
H6159 C6169 0.929 . S
H6160 C6164 0.929 . S
H6161 C6170 0.929 . S
C6162 H6156 0.930 . S
C6162 C6163 1.367 . S
C6162 C6170 1.378 . S
C6163 C6162 1.367 . S
C6163 C6171 1.433 . S
C6164 H6160 0.929 . S
C6164 C6166 1.378 . S
C6164 C6168 1.350 . S
C6165 C6168 1.463 . S
C6165 C6170 1.350 . S
C6165 N6173 1.427 . S
C6166 H6157 0.930 . S
C6166 C6164 1.378 . S
C6166 C6167 1.367 . S
C6167 C6166 1.367 . S
C6167 C6169 1.433 . S
C6168 C6164 1.350 . S
C6168 C6165 1.463 . S
C6168 N6172 1.427 . S
C6169 H6159 0.929 . S
C6169 C6167 1.433 . S
C6169 N6172 1.384 . S
C6170 H6161 0.929 . S
C6170 C6162 1.378 . S
C6170 C6165 1.350 . S
C6171 H6158 0.929 . S
C6171 C6163 1.433 . S
C6171 N6173 1.384 . S
N6172 C6168 1.427 . S
N6172 C6169 1.384 . S
N6173 C6165 1.427 . S
N6173 C6171 1.384 . S
H6174 C6180 0.930 . S
H6175 C6184 0.930 . S
H6176 C6189 0.929 . S
H6177 C6187 0.929 . S
H6178 C6182 0.929 . S
H6179 C6188 0.929 . S
C6180 H6174 0.930 . S
C6180 C6181 1.367 . S
C6180 C6188 1.378 . S
C6181 C6180 1.367 . S
C6181 C6189 1.433 . S
C6182 H6178 0.929 . S
C6182 C6184 1.378 . S
C6182 C6186 1.350 . S
C6183 C6186 1.463 . S
C6183 C6188 1.350 . S
C6183 N6191 1.427 . S
C6184 H6175 0.930 . S
C6184 C6182 1.378 . S
C6184 C6185 1.367 . S
C6185 C6184 1.367 . S
C6185 C6187 1.433 . S
C6186 C6182 1.350 . S
C6186 C6183 1.463 . S
C6186 N6190 1.427 . S
C6187 H6177 0.929 . S
C6187 C6185 1.433 . S
C6187 N6190 1.384 . S
C6188 H6179 0.929 . S
C6188 C6180 1.378 . S
C6188 C6183 1.350 . S
C6189 H6176 0.929 . S
C6189 C6181 1.433 . S
C6189 N6191 1.384 . S
N6190 C6186 1.427 . S
N6190 C6187 1.384 . S
N6191 C6183 1.427 . S
N6191 C6189 1.384 . S
H6192 C6198 0.930 . S
H6193 C6202 0.930 . S
H6194 C6207 0.929 . S
H6195 C6205 0.929 . S
H6196 C6200 0.929 . S
H6197 C6206 0.929 . S
C6198 H6192 0.930 . S
C6198 C6199 1.367 1_556 S
C6198 C6206 1.378 1_556 S
C6199 C6198 1.367 1_554 S
C6199 C6207 1.433 . S
C6200 H6196 0.929 . S
C6200 C6202 1.378 . S
C6200 C6204 1.350 . S
C6201 C6204 1.463 . S
C6201 C6206 1.350 . S
C6201 N6209 1.427 . S
C6202 H6193 0.930 . S
C6202 C6200 1.378 . S
C6202 C6203 1.367 . S
C6203 C6202 1.367 . S
C6203 C6205 1.433 . S
C6204 C6200 1.350 . S
C6204 C6201 1.463 . S
C6204 N6208 1.427 . S
C6205 H6195 0.929 . S
C6205 C6203 1.433 . S
C6205 N6208 1.384 . S
C6206 H6197 0.929 . S
C6206 C6198 1.378 1_554 S
C6206 C6201 1.350 . S
C6207 H6194 0.929 . S
C6207 C6199 1.433 . S
C6207 N6209 1.384 . S
N6208 C6204 1.427 . S
N6208 C6205 1.384 . S
N6209 C6201 1.427 . S
N6209 C6207 1.384 . S
H6210 C6216 0.930 . S
H6211 C6220 0.928 . S
H6212 C6225 0.929 . S
H6213 C6223 0.929 . S
H6214 C6218 0.929 . S
H6215 C6224 0.929 . S
C6216 H6210 0.930 . S
C6216 C6217 1.367 . S
C6216 C6224 1.378 . S
C6217 C6216 1.367 . S
C6217 C6225 1.433 . S
C6218 H6214 0.929 . S
C6218 C6220 1.378 . S
C6218 C6222 1.350 . S
C6219 C6222 1.463 . S
C6219 C6224 1.350 . S
C6219 N6227 1.427 . S
C6220 H6211 0.928 . S
C6220 C6218 1.378 . S
C6220 C6221 1.367 . S
C6221 C6220 1.367 . S
C6221 C6223 1.433 . S
C6222 C6218 1.350 . S
C6222 C6219 1.463 . S
C6222 N6226 1.427 . S
C6223 H6213 0.929 . S
C6223 C6221 1.433 . S
C6223 N6226 1.384 . S
C6224 H6215 0.929 . S
C6224 C6216 1.378 . S
C6224 C6219 1.350 . S
C6225 H6212 0.929 . S
C6225 C6217 1.433 . S
C6225 N6227 1.384 . S
N6226 C6222 1.427 . S
N6226 C6223 1.384 . S
N6227 C6219 1.427 . S
N6227 C6225 1.384 . S
H6228 C6234 0.930 . S
H6229 C6238 0.930 . S
H6230 C6243 0.929 . S
H6231 C6241 0.929 . S
H6232 C6236 0.929 . S
H6233 C6242 0.929 . S
C6234 H6228 0.930 . S
C6234 C6235 1.367 1_545 S
C6234 C6242 1.378 1_545 S
C6235 C6234 1.367 1_565 S
C6235 C6243 1.433 . S
C6236 H6232 0.929 . S
C6236 C6238 1.378 . S
C6236 C6240 1.350 . S
C6237 C6240 1.463 . S
C6237 C6242 1.350 . S
C6237 N6245 1.427 . S
C6238 H6229 0.930 . S
C6238 C6236 1.378 . S
C6238 C6239 1.367 . S
C6239 C6238 1.367 . S
C6239 C6241 1.433 . S
C6240 C6236 1.350 . S
C6240 C6237 1.463 . S
C6240 N6244 1.427 . S
C6241 H6231 0.929 . S
C6241 C6239 1.433 . S
C6241 N6244 1.384 . S
C6242 H6233 0.929 . S
C6242 C6234 1.378 1_565 S
C6242 C6237 1.350 . S
C6243 H6230 0.929 . S
C6243 C6235 1.433 . S
C6243 N6245 1.384 . S
N6244 C6240 1.427 . S
N6244 C6241 1.384 . S
N6245 C6237 1.427 . S
N6245 C6243 1.384 . S
H6246 C6252 0.930 . S
H6247 C6256 0.930 . S
H6248 C6261 0.931 1_545 S
H6249 C6259 0.929 . S
H6250 C6254 0.929 . S
H6251 C6260 0.929 . S
C6252 H6246 0.930 . S
C6252 C6253 1.367 . S
C6252 C6260 1.378 . S
C6253 C6252 1.367 . S
C6253 C6261 1.433 . S
C6254 H6250 0.929 . S
C6254 C6256 1.378 . S
C6254 C6258 1.350 . S
C6255 C6258 1.463 . S
C6255 C6260 1.350 . S
C6255 N6263 1.427 . S
C6256 H6247 0.930 . S
C6256 C6254 1.378 . S
C6256 C6257 1.367 . S
C6257 C6256 1.367 . S
C6257 C6259 1.433 . S
C6258 C6254 1.350 . S
C6258 C6255 1.463 . S
C6258 N6262 1.427 . S
C6259 H6249 0.929 . S
C6259 C6257 1.433 . S
C6259 N6262 1.384 . S
C6260 H6251 0.929 . S
C6260 C6252 1.378 . S
C6260 C6255 1.350 . S
C6261 H6248 0.931 1_565 S
C6261 C6253 1.433 . S
C6261 N6263 1.382 . S
N6262 C6258 1.427 . S
N6262 C6259 1.384 . S
N6263 C6255 1.427 . S
N6263 C6261 1.382 . S
H6264 C6270 0.930 . S
H6265 C6274 0.930 . S
H6266 C6279 0.929 1_565 S
H6267 C6277 0.929 . S
H6268 C6272 0.929 . S
H6269 C6278 0.929 . S
C6270 H6264 0.930 . S
C6270 C6271 1.367 . S
C6270 C6278 1.378 . S
C6271 C6270 1.367 . S
C6271 C6279 1.433 . S
C6272 H6268 0.929 . S
C6272 C6274 1.378 . S
C6272 C6276 1.350 . S
C6273 C6276 1.463 . S
C6273 C6278 1.350 . S
C6273 N6281 1.427 . S
C6274 H6265 0.930 . S
C6274 C6272 1.378 . S
C6274 C6275 1.367 . S
C6275 C6274 1.367 . S
C6275 C6277 1.433 . S
C6276 C6272 1.350 . S
C6276 C6273 1.463 . S
C6276 N6280 1.427 . S
C6277 H6267 0.929 . S
C6277 C6275 1.433 . S
C6277 N6280 1.384 . S
C6278 H6269 0.929 . S
C6278 C6270 1.378 . S
C6278 C6273 1.350 . S
C6279 H6266 0.929 1_545 S
C6279 C6271 1.433 . S
C6279 N6281 1.384 . S
N6280 C6276 1.427 . S
N6280 C6277 1.384 . S
N6281 C6273 1.427 . S
N6281 C6279 1.384 . S
H6282 C6288 0.930 . S
H6283 C6292 0.930 . S
H6284 C6297 0.929 . S
H6285 C6295 0.929 . S
H6286 C6290 0.929 . S
H6287 C6296 0.929 . S
C6288 H6282 0.930 . S
C6288 C6289 1.367 . S
C6288 C6296 1.378 . S
C6289 C6288 1.367 . S
C6289 C6297 1.433 . S
C6290 H6286 0.929 . S
C6290 C6292 1.378 . S
C6290 C6294 1.350 . S
C6291 C6294 1.463 . S
C6291 C6296 1.350 . S
C6291 N6299 1.427 . S
C6292 H6283 0.930 . S
C6292 C6290 1.378 . S
C6292 C6293 1.367 . S
C6293 C6292 1.367 . S
C6293 C6295 1.433 1_556 S
C6294 C6290 1.350 . S
C6294 C6291 1.463 . S
C6294 N6298 1.427 . S
C6295 H6285 0.929 . S
C6295 C6293 1.433 1_554 S
C6295 N6298 1.384 1_554 S
C6296 H6287 0.929 . S
C6296 C6288 1.378 . S
C6296 C6291 1.350 . S
C6297 H6284 0.929 . S
C6297 C6289 1.433 . S
C6297 N6299 1.384 . S
N6298 C6294 1.427 . S
N6298 C6295 1.384 1_556 S
N6299 C6291 1.427 . S
N6299 C6297 1.384 . S
H6300 C6306 0.930 . S
H6301 C6310 0.930 . S
H6302 C6315 0.929 . S
H6303 C6313 0.929 . S
H6304 C6308 0.929 . S
H6305 C6314 0.929 . S
C6306 H6300 0.930 . S
C6306 C6307 1.367 . S
C6306 C6314 1.378 . S
C6307 C6306 1.367 . S
C6307 C6315 1.433 . S
C6308 H6304 0.929 . S
C6308 C6310 1.378 . S
C6308 C6312 1.350 . S
C6309 C6312 1.463 . S
C6309 C6314 1.350 . S
C6309 N6317 1.427 . S
C6310 H6301 0.930 . S
C6310 C6308 1.378 . S
C6310 C6311 1.367 . S
C6311 C6310 1.367 . S
C6311 C6313 1.433 . S
C6312 C6308 1.350 . S
C6312 C6309 1.463 . S
C6312 N6316 1.427 . S
C6313 H6303 0.929 . S
C6313 C6311 1.433 . S
C6313 N6316 1.384 . S
C6314 H6305 0.929 . S
C6314 C6306 1.378 . S
C6314 C6309 1.350 . S
C6315 H6302 0.929 . S
C6315 C6307 1.433 . S
C6315 N6317 1.384 . S
N6316 C6312 1.427 . S
N6316 C6313 1.384 . S
N6317 C6309 1.427 . S
N6317 C6315 1.384 . S
H6318 C6324 0.930 . S
H6319 C6328 0.930 . S
H6320 C6333 0.929 . S
H6321 C6331 0.929 . S
H6322 C6326 0.929 . S
H6323 C6332 0.929 . S
C6324 H6318 0.930 . S
C6324 C6325 1.367 . S
C6324 C6332 1.378 . S
C6325 C6324 1.367 . S
C6325 C6333 1.433 . S
C6326 H6322 0.929 . S
C6326 C6328 1.378 . S
C6326 C6330 1.350 . S
C6327 C6330 1.463 . S
C6327 C6332 1.350 . S
C6327 N6335 1.427 . S
C6328 H6319 0.930 . S
C6328 C6326 1.378 . S
C6328 C6329 1.367 . S
C6329 C6328 1.367 . S
C6329 C6331 1.433 . S
C6330 C6326 1.350 . S
C6330 C6327 1.463 . S
C6330 N6334 1.427 . S
C6331 H6321 0.929 . S
C6331 C6329 1.433 . S
C6331 N6334 1.384 . S
C6332 H6323 0.929 . S
C6332 C6324 1.378 . S
C6332 C6327 1.350 . S
C6333 H6320 0.929 . S
C6333 C6325 1.433 . S
C6333 N6335 1.384 . S
N6334 C6330 1.427 . S
N6334 C6331 1.384 . S
N6335 C6327 1.427 . S
N6335 C6333 1.384 . S
H6336 C6342 0.930 . S
H6337 C6346 0.930 . S
H6338 C6351 0.929 1_455 S
H6339 C6349 0.929 . S
H6340 C6344 0.929 . S
H6341 C6350 0.929 . S
C6342 H6336 0.930 . S
C6342 C6343 1.367 . S
C6342 C6350 1.378 . S
C6343 C6342 1.367 . S
C6343 C6351 1.433 . S
C6344 H6340 0.929 . S
C6344 C6346 1.378 . S
C6344 C6348 1.350 . S
C6345 C6348 1.463 . S
C6345 C6350 1.350 . S
C6345 N6353 1.427 . S
C6346 H6337 0.930 . S
C6346 C6344 1.378 . S
C6346 C6347 1.367 . S
C6347 C6346 1.367 . S
C6347 C6349 1.433 . S
C6348 C6344 1.350 . S
C6348 C6345 1.463 . S
C6348 N6352 1.427 . S
C6349 H6339 0.929 . S
C6349 C6347 1.433 . S
C6349 N6352 1.384 . S
C6350 H6341 0.929 . S
C6350 C6342 1.378 . S
C6350 C6345 1.350 . S
C6351 H6338 0.929 1_655 S
C6351 C6343 1.433 . S
C6351 N6353 1.384 . S
N6352 C6348 1.427 . S
N6352 C6349 1.384 . S
N6353 C6345 1.427 . S
N6353 C6351 1.384 . S
H6354 C6360 0.930 . S
H6355 C6364 0.930 . S
H6356 C6369 0.929 . S
H6357 C6367 0.929 . S
H6358 C6362 0.929 . S
H6359 C6368 0.929 . S
C6360 H6354 0.930 . S
C6360 C6361 1.367 . S
C6360 C6368 1.378 . S
C6361 C6360 1.367 . S
C6361 C6369 1.433 . S
C6362 H6358 0.929 . S
C6362 C6364 1.378 . S
C6362 C6366 1.350 . S
C6363 C6366 1.463 . S
C6363 C6368 1.350 . S
C6363 N6371 1.427 . S
C6364 H6355 0.930 . S
C6364 C6362 1.378 . S
C6364 C6365 1.367 . S
C6365 C6364 1.367 . S
C6365 C6367 1.433 . S
C6366 C6362 1.350 . S
C6366 C6363 1.463 . S
C6366 N6370 1.427 . S
C6367 H6357 0.929 . S
C6367 C6365 1.433 . S
C6367 N6370 1.384 . S
C6368 H6359 0.929 . S
C6368 C6360 1.378 . S
C6368 C6363 1.350 . S
C6369 H6356 0.929 . S
C6369 C6361 1.433 . S
C6369 N6371 1.384 . S
N6370 C6366 1.427 . S
N6370 C6367 1.384 . S
N6371 C6363 1.427 . S
N6371 C6369 1.384 . S
H6372 C6378 0.930 . S
H6373 C6382 0.930 . S
H6374 C6387 0.929 . S
H6375 C6385 0.929 . S
H6376 C6380 0.929 . S
H6377 C6386 0.929 . S
C6378 H6372 0.930 . S
C6378 C6379 1.367 . S
C6378 C6386 1.378 . S
C6379 C6378 1.367 . S
C6379 C6387 1.433 . S
C6380 H6376 0.929 . S
C6380 C6382 1.378 . S
C6380 C6384 1.350 . S
C6381 C6384 1.463 . S
C6381 C6386 1.350 . S
C6381 N6389 1.427 . S
C6382 H6373 0.930 . S
C6382 C6380 1.378 . S
C6382 C6383 1.367 . S
C6383 C6382 1.367 . S
C6383 C6385 1.433 . S
C6384 C6380 1.350 . S
C6384 C6381 1.463 . S
C6384 N6388 1.427 . S
C6385 H6375 0.929 . S
C6385 C6383 1.433 . S
C6385 N6388 1.384 . S
C6386 H6377 0.929 . S
C6386 C6378 1.378 . S
C6386 C6381 1.350 . S
C6387 H6374 0.929 . S
C6387 C6379 1.433 . S
C6387 N6389 1.384 . S
N6388 C6384 1.427 . S
N6388 C6385 1.384 . S
N6389 C6381 1.427 . S
N6389 C6387 1.384 . S
H6390 C6396 0.930 . S
H6391 C6400 0.930 . S
H6392 C6405 0.929 . S
H6393 C6403 0.929 . S
H6394 C6398 0.929 . S
H6395 C6404 0.929 . S
C6396 H6390 0.930 . S
C6396 C6397 1.367 . S
C6396 C6404 1.378 . S
C6397 C6396 1.367 . S
C6397 C6405 1.433 1_556 S
C6398 H6394 0.929 . S
C6398 C6400 1.378 . S
C6398 C6402 1.350 . S
C6399 C6402 1.463 . S
C6399 C6404 1.350 . S
C6399 N6407 1.427 . S
C6400 H6391 0.930 . S
C6400 C6398 1.378 . S
C6400 C6401 1.367 . S
C6401 C6400 1.367 . S
C6401 C6403 1.433 . S
C6402 C6398 1.350 . S
C6402 C6399 1.463 . S
C6402 N6406 1.427 . S
C6403 H6393 0.929 . S
C6403 C6401 1.433 . S
C6403 N6406 1.384 . S
C6404 H6395 0.929 . S
C6404 C6396 1.378 . S
C6404 C6399 1.350 . S
C6405 H6392 0.929 . S
C6405 C6397 1.433 1_554 S
C6405 N6407 1.384 1_554 S
N6406 C6402 1.427 . S
N6406 C6403 1.384 . S
N6407 C6399 1.427 . S
N6407 C6405 1.384 1_556 S
H6408 C6414 0.930 . S
H6409 C6418 0.930 . S
H6410 C6423 0.929 . S
H6411 C6421 0.929 . S
H6412 C6416 0.929 . S
H6413 C6422 0.929 . S
C6414 H6408 0.930 . S
C6414 C6415 1.367 . S
C6414 C6422 1.378 . S
C6415 C6414 1.367 . S
C6415 C6423 1.433 . S
C6416 H6412 0.929 . S
C6416 C6418 1.378 . S
C6416 C6420 1.350 . S
C6417 C6420 1.463 . S
C6417 C6422 1.350 . S
C6417 N6425 1.427 . S
C6418 H6409 0.930 . S
C6418 C6416 1.378 . S
C6418 C6419 1.367 . S
C6419 C6418 1.367 . S
C6419 C6421 1.433 . S
C6420 C6416 1.350 . S
C6420 C6417 1.463 . S
C6420 N6424 1.427 . S
C6421 H6411 0.929 . S
C6421 C6419 1.433 . S
C6421 N6424 1.384 . S
C6422 H6413 0.929 . S
C6422 C6414 1.378 . S
C6422 C6417 1.350 . S
C6423 H6410 0.929 . S
C6423 C6415 1.433 . S
C6423 N6425 1.384 . S
N6424 C6420 1.427 . S
N6424 C6421 1.384 . S
N6425 C6417 1.427 . S
N6425 C6423 1.384 . S
H6426 C6432 0.930 . S
H6427 C6436 0.930 . S
H6428 C6441 0.929 . S
H6429 C6439 0.929 . S
H6430 C6434 0.929 . S
H6431 C6440 0.929 . S
C6432 H6426 0.930 . S
C6432 C6433 1.367 . S
C6432 C6440 1.378 . S
C6433 C6432 1.367 . S
C6433 C6441 1.433 . S
C6434 H6430 0.929 . S
C6434 C6436 1.378 . S
C6434 C6438 1.350 . S
C6435 C6438 1.463 . S
C6435 C6440 1.350 . S
C6435 N6443 1.427 . S
C6436 H6427 0.930 . S
C6436 C6434 1.378 . S
C6436 C6437 1.367 . S
C6437 C6436 1.367 . S
C6437 C6439 1.433 . S
C6438 C6434 1.350 . S
C6438 C6435 1.463 . S
C6438 N6442 1.427 . S
C6439 H6429 0.929 . S
C6439 C6437 1.433 . S
C6439 N6442 1.384 . S
C6440 H6431 0.929 . S
C6440 C6432 1.378 . S
C6440 C6435 1.350 . S
C6441 H6428 0.929 . S
C6441 C6433 1.433 . S
C6441 N6443 1.384 . S
N6442 C6438 1.427 . S
N6442 C6439 1.384 . S
N6443 C6435 1.427 . S
N6443 C6441 1.384 . S
H6444 C6450 0.930 . S
H6445 C6454 0.930 . S
H6446 C6459 0.929 . S
H6447 C6457 0.929 . S
H6448 C6452 0.929 . S
H6449 C6458 0.929 . S
C6450 H6444 0.930 . S
C6450 C6451 1.367 . S
C6450 C6458 1.378 . S
C6451 C6450 1.367 . S
C6451 C6459 1.433 . S
C6452 H6448 0.929 . S
C6452 C6454 1.378 . S
C6452 C6456 1.350 . S
C6453 C6456 1.463 . S
C6453 C6458 1.350 . S
C6453 N6461 1.427 . S
C6454 H6445 0.930 . S
C6454 C6452 1.378 . S
C6454 C6455 1.367 . S
C6455 C6454 1.367 . S
C6455 C6457 1.433 . S
C6456 C6452 1.350 . S
C6456 C6453 1.463 . S
C6456 N6460 1.427 . S
C6457 H6447 0.929 . S
C6457 C6455 1.433 . S
C6457 N6460 1.384 . S
C6458 H6449 0.929 . S
C6458 C6450 1.378 . S
C6458 C6453 1.350 . S
C6459 H6446 0.929 . S
C6459 C6451 1.433 . S
C6459 N6461 1.384 . S
N6460 C6456 1.427 . S
N6460 C6457 1.384 . S
N6461 C6453 1.427 . S
N6461 C6459 1.384 . S
H6462 C6468 0.930 . S
H6463 C6472 0.930 . S
H6464 C6477 0.929 . S
H6465 C6475 0.929 . S
H6466 C6470 0.929 . S
H6467 C6476 0.929 . S
C6468 H6462 0.930 . S
C6468 C6469 1.367 . S
C6468 C6476 1.378 . S
C6469 C6468 1.367 . S
C6469 C6477 1.433 . S
C6470 H6466 0.929 . S
C6470 C6472 1.378 . S
C6470 C6474 1.350 . S
C6471 C6474 1.463 . S
C6471 C6476 1.350 . S
C6471 N6479 1.427 . S
C6472 H6463 0.930 . S
C6472 C6470 1.378 . S
C6472 C6473 1.367 . S
C6473 C6472 1.367 . S
C6473 C6475 1.433 . S
C6474 C6470 1.350 . S
C6474 C6471 1.463 . S
C6474 N6478 1.427 . S
C6475 H6465 0.929 . S
C6475 C6473 1.433 . S
C6475 N6478 1.384 . S
C6476 H6467 0.929 . S
C6476 C6468 1.378 . S
C6476 C6471 1.350 . S
C6477 H6464 0.929 . S
C6477 C6469 1.433 . S
C6477 N6479 1.384 . S
N6478 C6474 1.427 . S
N6478 C6475 1.384 . S
N6479 C6471 1.427 . S
N6479 C6477 1.384 . S
H6480 C6486 0.930 . S
H6481 C6490 0.930 . S
H6482 C6495 0.929 . S
H6483 C6493 0.929 . S
H6484 C6488 0.929 . S
H6485 C6494 0.929 . S
C6486 H6480 0.930 . S
C6486 C6487 1.367 . S
C6486 C6494 1.378 . S
C6487 C6486 1.367 . S
C6487 C6495 1.433 . S
C6488 H6484 0.929 . S
C6488 C6490 1.378 . S
C6488 C6492 1.350 . S
C6489 C6492 1.463 . S
C6489 C6494 1.350 . S
C6489 N6497 1.427 . S
C6490 H6481 0.930 . S
C6490 C6488 1.378 . S
C6490 C6491 1.367 . S
C6491 C6490 1.367 . S
C6491 C6493 1.433 . S
C6492 C6488 1.350 . S
C6492 C6489 1.463 . S
C6492 N6496 1.427 . S
C6493 H6483 0.929 . S
C6493 C6491 1.433 . S
C6493 N6496 1.384 . S
C6494 H6485 0.929 . S
C6494 C6486 1.378 . S
C6494 C6489 1.350 . S
C6495 H6482 0.929 . S
C6495 C6487 1.433 . S
C6495 N6497 1.384 . S
N6496 C6492 1.427 . S
N6496 C6493 1.384 . S
N6497 C6489 1.427 . S
N6497 C6495 1.384 . S
H6498 C6504 0.930 . S
H6499 C6508 0.930 . S
H6500 C6513 0.929 . S
H6501 C6511 0.929 . S
H6502 C6506 0.929 . S
H6503 C6512 0.929 . S
C6504 H6498 0.930 . S
C6504 C6505 1.367 . S
C6504 C6512 1.378 . S
C6505 C6504 1.367 . S
C6505 C6513 1.433 . S
C6506 H6502 0.929 . S
C6506 C6508 1.378 . S
C6506 C6510 1.350 . S
C6507 C6510 1.463 . S
C6507 C6512 1.350 . S
C6507 N6515 1.427 . S
C6508 H6499 0.930 . S
C6508 C6506 1.378 . S
C6508 C6509 1.367 . S
C6509 C6508 1.367 . S
C6509 C6511 1.433 . S
C6510 C6506 1.350 . S
C6510 C6507 1.463 . S
C6510 N6514 1.427 . S
C6511 H6501 0.929 . S
C6511 C6509 1.433 . S
C6511 N6514 1.384 . S
C6512 H6503 0.929 . S
C6512 C6504 1.378 . S
C6512 C6507 1.350 . S
C6513 H6500 0.929 . S
C6513 C6505 1.433 . S
C6513 N6515 1.384 . S
N6514 C6510 1.427 . S
N6514 C6511 1.384 . S
N6515 C6507 1.427 . S
N6515 C6513 1.384 . S
H6516 C6522 0.930 . S
H6517 C6526 0.930 . S
H6518 C6531 0.929 . S
H6519 C6529 0.929 . S
H6520 C6524 0.929 . S
H6521 C6530 0.929 . S
C6522 H6516 0.930 . S
C6522 C6523 1.367 1_556 S
C6522 C6530 1.378 1_556 S
C6523 C6522 1.367 1_554 S
C6523 C6531 1.433 . S
C6524 H6520 0.929 . S
C6524 C6526 1.378 . S
C6524 C6528 1.350 . S
C6525 C6528 1.463 . S
C6525 C6530 1.350 . S
C6525 N6533 1.427 . S
C6526 H6517 0.930 . S
C6526 C6524 1.378 . S
C6526 C6527 1.367 . S
C6527 C6526 1.367 . S
C6527 C6529 1.433 . S
C6528 C6524 1.350 . S
C6528 C6525 1.463 . S
C6528 N6532 1.427 . S
C6529 H6519 0.929 . S
C6529 C6527 1.433 . S
C6529 N6532 1.384 . S
C6530 H6521 0.929 . S
C6530 C6522 1.378 1_554 S
C6530 C6525 1.350 . S
C6531 H6518 0.929 . S
C6531 C6523 1.433 . S
C6531 N6533 1.384 . S
N6532 C6528 1.427 . S
N6532 C6529 1.384 . S
N6533 C6525 1.427 . S
N6533 C6531 1.384 . S
H6534 C6540 0.930 . S
H6535 C6544 0.930 . S
H6536 C6549 0.929 . S
H6537 C6547 0.929 . S
H6538 C6542 0.929 . S
H6539 C6548 0.929 . S
C6540 H6534 0.930 . S
C6540 C6541 1.367 . S
C6540 C6548 1.378 . S
C6541 C6540 1.367 . S
C6541 C6549 1.433 . S
C6542 H6538 0.929 . S
C6542 C6544 1.378 . S
C6542 C6546 1.350 . S
C6543 C6546 1.463 . S
C6543 C6548 1.350 . S
C6543 N6551 1.427 . S
C6544 H6535 0.930 . S
C6544 C6542 1.378 . S
C6544 C6545 1.367 . S
C6545 C6544 1.367 . S
C6545 C6547 1.433 . S
C6546 C6542 1.350 . S
C6546 C6543 1.463 . S
C6546 N6550 1.427 . S
C6547 H6537 0.929 . S
C6547 C6545 1.433 . S
C6547 N6550 1.384 . S
C6548 H6539 0.929 . S
C6548 C6540 1.378 . S
C6548 C6543 1.350 . S
C6549 H6536 0.929 . S
C6549 C6541 1.433 . S
C6549 N6551 1.384 . S
N6550 C6546 1.427 . S
N6550 C6547 1.384 . S
N6551 C6543 1.427 . S
N6551 C6549 1.384 . S
H6552 C6558 0.930 . S
H6553 C6562 0.930 . S
H6554 C6567 0.929 . S
H6555 C6565 0.929 . S
H6556 C6560 0.929 . S
H6557 C6566 0.929 . S
C6558 H6552 0.930 . S
C6558 C6559 1.367 . S
C6558 C6566 1.378 . S
C6559 C6558 1.367 . S
C6559 C6567 1.433 . S
C6560 H6556 0.929 . S
C6560 C6562 1.378 . S
C6560 C6564 1.350 . S
C6561 C6564 1.463 . S
C6561 C6566 1.350 . S
C6561 N6569 1.427 . S
C6562 H6553 0.930 . S
C6562 C6560 1.378 . S
C6562 C6563 1.367 . S
C6563 C6562 1.367 . S
C6563 C6565 1.433 . S
C6564 C6560 1.350 . S
C6564 C6561 1.463 . S
C6564 N6568 1.427 . S
C6565 H6555 0.929 . S
C6565 C6563 1.433 . S
C6565 N6568 1.384 . S
C6566 H6557 0.929 . S
C6566 C6558 1.378 . S
C6566 C6561 1.350 . S
C6567 H6554 0.929 . S
C6567 C6559 1.433 . S
C6567 N6569 1.384 . S
N6568 C6564 1.427 . S
N6568 C6565 1.384 . S
N6569 C6561 1.427 . S
N6569 C6567 1.384 . S
H6570 C6576 0.930 . S
H6571 C6580 0.930 . S
H6572 C6585 0.929 . S
H6573 C6583 0.929 . S
H6574 C6578 0.929 . S
H6575 C6584 0.929 . S
C6576 H6570 0.930 . S
C6576 C6577 1.367 . S
C6576 C6584 1.378 . S
C6577 C6576 1.367 . S
C6577 C6585 1.433 . S
C6578 H6574 0.929 . S
C6578 C6580 1.378 . S
C6578 C6582 1.350 . S
C6579 C6582 1.463 . S
C6579 C6584 1.350 . S
C6579 N6587 1.427 . S
C6580 H6571 0.930 . S
C6580 C6578 1.378 . S
C6580 C6581 1.367 . S
C6581 C6580 1.367 . S
C6581 C6583 1.433 . S
C6582 C6578 1.350 . S
C6582 C6579 1.463 . S
C6582 N6586 1.427 . S
C6583 H6573 0.929 . S
C6583 C6581 1.433 . S
C6583 N6586 1.384 . S
C6584 H6575 0.929 . S
C6584 C6576 1.378 . S
C6584 C6579 1.350 . S
C6585 H6572 0.929 . S
C6585 C6577 1.433 . S
C6585 N6587 1.384 . S
N6586 C6582 1.427 . S
N6586 C6583 1.384 . S
N6587 C6579 1.427 . S
N6587 C6585 1.384 . S
H6588 C6594 0.930 . S
H6589 C6598 0.930 . S
H6590 C6603 0.929 . S
H6591 C6601 0.929 . S
H6592 C6596 0.929 . S
H6593 C6602 0.929 . S
C6594 H6588 0.930 . S
C6594 C6595 1.367 . S
C6594 C6602 1.378 . S
C6595 C6594 1.367 . S
C6595 C6603 1.433 . S
C6596 H6592 0.929 . S
C6596 C6598 1.378 . S
C6596 C6600 1.350 . S
C6597 C6600 1.463 . S
C6597 C6602 1.350 . S
C6597 N6605 1.427 . S
C6598 H6589 0.930 . S
C6598 C6596 1.378 . S
C6598 C6599 1.367 . S
C6599 C6598 1.367 . S
C6599 C6601 1.433 . S
C6600 C6596 1.350 . S
C6600 C6597 1.463 . S
C6600 N6604 1.427 . S
C6601 H6591 0.929 . S
C6601 C6599 1.433 . S
C6601 N6604 1.384 . S
C6602 H6593 0.929 . S
C6602 C6594 1.378 . S
C6602 C6597 1.350 . S
C6603 H6590 0.929 . S
C6603 C6595 1.433 . S
C6603 N6605 1.384 . S
N6604 C6600 1.427 . S
N6604 C6601 1.384 . S
N6605 C6597 1.427 . S
N6605 C6603 1.384 . S
H6606 C6612 0.930 . S
H6607 C6616 0.930 . S
H6608 C6621 0.929 . S
H6609 C6619 0.929 . S
H6610 C6614 0.929 . S
H6611 C6620 0.929 . S
C6612 H6606 0.930 . S
C6612 C6613 1.367 . S
C6612 C6620 1.378 . S
C6613 C6612 1.367 . S
C6613 C6621 1.433 . S
C6614 H6610 0.929 . S
C6614 C6616 1.378 . S
C6614 C6618 1.350 . S
C6615 C6618 1.463 . S
C6615 C6620 1.350 . S
C6615 N6623 1.427 . S
C6616 H6607 0.930 . S
C6616 C6614 1.378 . S
C6616 C6617 1.367 . S
C6617 C6616 1.367 . S
C6617 C6619 1.433 . S
C6618 C6614 1.350 . S
C6618 C6615 1.463 . S
C6618 N6622 1.427 . S
C6619 H6609 0.929 . S
C6619 C6617 1.433 . S
C6619 N6622 1.384 . S
C6620 H6611 0.929 . S
C6620 C6612 1.378 . S
C6620 C6615 1.350 . S
C6621 H6608 0.929 . S
C6621 C6613 1.433 . S
C6621 N6623 1.384 . S
N6622 C6618 1.427 . S
N6622 C6619 1.384 . S
N6623 C6615 1.427 . S
N6623 C6621 1.384 . S
H6624 C6630 0.930 . S
H6625 C6634 0.930 . S
H6626 C6639 0.939 . S
H6627 C6637 0.938 . S
H6628 C6632 0.929 . S
H6629 C6638 0.929 . S
C6630 H6624 0.930 . S
C6630 C6631 1.367 . S
C6630 C6638 1.378 . S
C6631 C6630 1.367 . S
C6631 C6639 1.433 . S
C6632 H6628 0.929 . S
C6632 C6634 1.378 . S
C6632 C6636 1.350 . S
C6633 C6636 1.463 1_565 S
C6633 C6638 1.350 . S
C6633 N6641 1.427 1_565 S
C6634 H6625 0.930 . S
C6634 C6632 1.378 . S
C6634 C6635 1.367 . S
C6635 C6634 1.367 . S
C6635 C6637 1.433 . S
C6636 C6632 1.350 . S
C6636 C6633 1.463 1_545 S
C6636 N6640 1.427 1_545 S
C6637 H6627 0.938 . S
C6637 C6635 1.433 . S
C6637 N6640 1.384 1_545 S
C6638 H6629 0.929 . S
C6638 C6630 1.378 . S
C6638 C6633 1.350 . S
C6639 H6626 0.939 . S
C6639 C6631 1.433 . S
C6639 N6641 1.384 1_565 S
N6640 C6636 1.427 1_565 S
N6640 C6637 1.384 1_565 S
N6641 C6633 1.427 1_545 S
N6641 C6639 1.384 1_545 S
H6642 C6648 0.930 . S
H6643 C6652 0.930 . S
H6644 C6657 0.929 . S
H6645 C6655 0.929 . S
H6646 C6650 0.929 . S
H6647 C6656 0.929 . S
C6648 H6642 0.930 . S
C6648 C6649 1.367 . S
C6648 C6656 1.378 . S
C6649 C6648 1.367 . S
C6649 C6657 1.433 . S
C6650 H6646 0.929 . S
C6650 C6652 1.378 . S
C6650 C6654 1.350 . S
C6651 C6654 1.463 . S
C6651 C6656 1.350 . S
C6651 N6659 1.427 . S
C6652 H6643 0.930 . S
C6652 C6650 1.378 . S
C6652 C6653 1.367 . S
C6653 C6652 1.367 . S
C6653 C6655 1.433 . S
C6654 C6650 1.350 . S
C6654 C6651 1.463 . S
C6654 N6658 1.427 . S
C6655 H6645 0.929 . S
C6655 C6653 1.433 . S
C6655 N6658 1.384 . S
C6656 H6647 0.929 . S
C6656 C6648 1.378 . S
C6656 C6651 1.350 . S
C6657 H6644 0.929 . S
C6657 C6649 1.433 . S
C6657 N6659 1.384 . S
N6658 C6654 1.427 . S
N6658 C6655 1.384 . S
N6659 C6651 1.427 . S
N6659 C6657 1.384 . S
H6660 C6666 0.930 . S
H6661 C6670 0.930 . S
H6662 C6675 0.929 . S
H6663 C6673 0.929 . S
H6664 C6668 0.929 . S
H6665 C6674 0.929 . S
C6666 H6660 0.930 . S
C6666 C6667 1.367 . S
C6666 C6674 1.378 . S
C6667 C6666 1.367 . S
C6667 C6675 1.433 1_565 S
C6668 H6664 0.929 . S
C6668 C6670 1.378 . S
C6668 C6672 1.350 . S
C6669 C6672 1.463 1_565 S
C6669 C6674 1.350 . S
C6669 N6677 1.427 1_565 S
C6670 H6661 0.930 . S
C6670 C6668 1.378 . S
C6670 C6671 1.367 . S
C6671 C6670 1.367 . S
C6671 C6673 1.433 1_545 S
C6672 C6668 1.350 . S
C6672 C6669 1.463 1_545 S
C6672 N6676 1.427 1_545 S
C6673 H6663 0.929 . S
C6673 C6671 1.433 1_565 S
C6673 N6676 1.384 . S
C6674 H6665 0.929 . S
C6674 C6666 1.378 . S
C6674 C6669 1.350 . S
C6675 H6662 0.929 . S
C6675 C6667 1.433 1_545 S
C6675 N6677 1.384 . S
N6676 C6672 1.427 1_565 S
N6676 C6673 1.384 . S
N6677 C6669 1.427 1_545 S
N6677 C6675 1.384 . S
H6678 C6684 0.930 . S
H6679 C6688 0.930 . S
H6680 C6693 0.929 . S
H6681 C6691 0.929 . S
H6682 C6686 0.929 . S
H6683 C6692 0.929 . S
C6684 H6678 0.930 . S
C6684 C6685 1.367 . S
C6684 C6692 1.378 . S
C6685 C6684 1.367 . S
C6685 C6693 1.433 . S
C6686 H6682 0.929 . S
C6686 C6688 1.378 . S
C6686 C6690 1.350 . S
C6687 C6690 1.463 1_556 S
C6687 C6692 1.350 . S
C6687 N6695 1.427 . S
C6688 H6679 0.930 . S
C6688 C6686 1.378 . S
C6688 C6689 1.367 . S
C6689 C6688 1.367 . S
C6689 C6691 1.433 . S
C6690 C6686 1.350 . S
C6690 C6687 1.463 1_554 S
C6690 N6694 1.427 . S
C6691 H6681 0.929 . S
C6691 C6689 1.433 . S
C6691 N6694 1.384 . S
C6692 H6683 0.929 . S
C6692 C6684 1.378 . S
C6692 C6687 1.350 . S
C6693 H6680 0.929 . S
C6693 C6685 1.433 . S
C6693 N6695 1.384 . S
N6694 C6690 1.427 . S
N6694 C6691 1.384 . S
N6695 C6687 1.427 . S
N6695 C6693 1.384 . S
H6696 C6702 0.930 . S
H6697 C6706 0.930 . S
H6698 C6711 0.929 . S
H6699 C6709 0.929 . S
H6700 C6704 0.929 . S
H6701 C6710 0.929 . S
C6702 H6696 0.930 . S
C6702 C6703 1.367 . S
C6702 C6710 1.378 . S
C6703 C6702 1.367 . S
C6703 C6711 1.433 . S
C6704 H6700 0.929 . S
C6704 C6706 1.378 . S
C6704 C6708 1.350 . S
C6705 C6708 1.463 1_554 S
C6705 C6710 1.350 . S
C6705 N6713 1.427 . S
C6706 H6697 0.930 . S
C6706 C6704 1.378 . S
C6706 C6707 1.367 . S
C6707 C6706 1.367 . S
C6707 C6709 1.433 . S
C6708 C6704 1.350 . S
C6708 C6705 1.463 1_556 S
C6708 N6712 1.427 . S
C6709 H6699 0.929 . S
C6709 C6707 1.433 . S
C6709 N6712 1.384 . S
C6710 H6701 0.929 . S
C6710 C6702 1.378 . S
C6710 C6705 1.350 . S
C6711 H6698 0.929 . S
C6711 C6703 1.433 . S
C6711 N6713 1.384 . S
N6712 C6708 1.427 . S
N6712 C6709 1.384 . S
N6713 C6705 1.427 . S
N6713 C6711 1.384 . S
H6714 C6720 0.930 . S
H6715 C6724 0.930 . S
H6716 C6729 0.929 . S
H6717 C6727 0.929 . S
H6718 C6722 0.929 . S
H6719 C6728 0.929 . S
C6720 H6714 0.930 . S
C6720 C6721 1.367 . S
C6720 C6728 1.378 . S
C6721 C6720 1.367 . S
C6721 C6729 1.433 . S
C6722 H6718 0.929 . S
C6722 C6724 1.378 . S
C6722 C6726 1.350 . S
C6723 C6726 1.463 1_545 S
C6723 C6728 1.350 . S
C6723 N6731 1.427 . S
C6724 H6715 0.930 . S
C6724 C6722 1.378 . S
C6724 C6725 1.367 . S
C6725 C6724 1.367 . S
C6725 C6727 1.433 . S
C6726 C6722 1.350 . S
C6726 C6723 1.463 1_565 S
C6726 N6730 1.427 . S
C6727 H6717 0.929 . S
C6727 C6725 1.433 . S
C6727 N6730 1.384 . S
C6728 H6719 0.929 . S
C6728 C6720 1.378 . S
C6728 C6723 1.350 . S
C6729 H6716 0.929 . S
C6729 C6721 1.433 . S
C6729 N6731 1.384 . S
N6730 C6726 1.427 . S
N6730 C6727 1.384 . S
N6731 C6723 1.427 . S
N6731 C6729 1.384 . S
H6732 C6738 0.930 . S
H6733 C6742 0.930 . S
H6734 C6747 0.929 . S
H6735 C6745 0.929 . S
H6736 C6740 0.929 . S
H6737 C6746 0.929 . S
C6738 H6732 0.930 . S
C6738 C6739 1.367 . S
C6738 C6746 1.378 . S
C6739 C6738 1.367 . S
C6739 C6747 1.433 . S
C6740 H6736 0.929 . S
C6740 C6742 1.378 . S
C6740 C6744 1.350 . S
C6741 C6744 1.463 . S
C6741 C6746 1.350 . S
C6741 N6749 1.427 . S
C6742 H6733 0.930 . S
C6742 C6740 1.378 . S
C6742 C6743 1.367 . S
C6743 C6742 1.367 . S
C6743 C6745 1.433 . S
C6744 C6740 1.350 . S
C6744 C6741 1.463 . S
C6744 N6748 1.427 . S
C6745 H6735 0.929 . S
C6745 C6743 1.433 . S
C6745 N6748 1.384 . S
C6746 H6737 0.929 . S
C6746 C6738 1.378 . S
C6746 C6741 1.350 . S
C6747 H6734 0.929 . S
C6747 C6739 1.433 . S
C6747 N6749 1.384 . S
N6748 C6744 1.427 . S
N6748 C6745 1.384 . S
N6749 C6741 1.427 . S
N6749 C6747 1.384 . S
H6750 C6756 0.930 . S
H6751 C6760 0.930 . S
H6752 C6765 0.929 . S
H6753 C6763 0.929 . S
H6754 C6758 0.929 . S
H6755 C6764 0.929 . S
C6756 H6750 0.930 . S
C6756 C6757 1.367 . S
C6756 C6764 1.378 . S
C6757 C6756 1.367 . S
C6757 C6765 1.433 . S
C6758 H6754 0.929 . S
C6758 C6760 1.378 . S
C6758 C6762 1.350 . S
C6759 C6762 1.463 1_565 S
C6759 C6764 1.350 . S
C6759 N6767 1.427 . S
C6760 H6751 0.930 . S
C6760 C6758 1.378 . S
C6760 C6761 1.367 . S
C6761 C6760 1.367 . S
C6761 C6763 1.433 . S
C6762 C6758 1.350 . S
C6762 C6759 1.463 1_545 S
C6762 N6766 1.427 . S
C6763 H6753 0.929 . S
C6763 C6761 1.433 . S
C6763 N6766 1.384 . S
C6764 H6755 0.929 . S
C6764 C6756 1.378 . S
C6764 C6759 1.350 . S
C6765 H6752 0.929 . S
C6765 C6757 1.433 . S
C6765 N6767 1.384 . S
N6766 C6762 1.427 . S
N6766 C6763 1.384 . S
N6767 C6759 1.427 . S
N6767 C6765 1.384 . S
H6768 C6774 0.930 . S
H6769 C6778 0.930 . S
H6770 C6783 0.929 . S
H6771 C6781 0.929 . S
H6772 C6776 0.929 . S
H6773 C6782 0.929 . S
C6774 H6768 0.930 . S
C6774 C6775 1.367 . S
C6774 C6782 1.378 . S
C6775 C6774 1.367 . S
C6775 C6783 1.433 . S
C6776 H6772 0.929 . S
C6776 C6778 1.378 . S
C6776 C6780 1.350 . S
C6777 C6780 1.463 1_455 S
C6777 C6782 1.350 . S
C6777 N6785 1.427 . S
C6778 H6769 0.930 . S
C6778 C6776 1.378 . S
C6778 C6779 1.367 . S
C6779 C6778 1.367 . S
C6779 C6781 1.433 . S
C6780 C6776 1.350 . S
C6780 C6777 1.463 1_655 S
C6780 N6784 1.427 . S
C6781 H6771 0.929 . S
C6781 C6779 1.433 . S
C6781 N6784 1.384 . S
C6782 H6773 0.929 . S
C6782 C6774 1.378 . S
C6782 C6777 1.350 . S
C6783 H6770 0.929 . S
C6783 C6775 1.433 . S
C6783 N6785 1.384 . S
N6784 C6780 1.427 . S
N6784 C6781 1.384 . S
N6785 C6777 1.427 . S
N6785 C6783 1.384 . S
H6786 C6792 0.930 . S
H6787 C6796 0.930 . S
H6788 C6801 0.929 . S
H6789 C6799 0.929 . S
H6790 C6794 0.929 . S
H6791 C6800 0.929 . S
C6792 H6786 0.930 . S
C6792 C6793 1.367 . S
C6792 C6800 1.378 . S
C6793 C6792 1.367 . S
C6793 C6801 1.433 . S
C6794 H6790 0.929 . S
C6794 C6796 1.378 . S
C6794 C6798 1.350 . S
C6795 C6798 1.463 . S
C6795 C6800 1.350 . S
C6795 N6803 1.427 . S
C6796 H6787 0.930 . S
C6796 C6794 1.378 . S
C6796 C6797 1.367 . S
C6797 C6796 1.367 . S
C6797 C6799 1.433 . S
C6798 C6794 1.350 . S
C6798 C6795 1.463 . S
C6798 N6802 1.427 . S
C6799 H6789 0.929 . S
C6799 C6797 1.433 . S
C6799 N6802 1.384 . S
C6800 H6791 0.929 . S
C6800 C6792 1.378 . S
C6800 C6795 1.350 . S
C6801 H6788 0.929 . S
C6801 C6793 1.433 . S
C6801 N6803 1.384 . S
N6802 C6798 1.427 . S
N6802 C6799 1.384 . S
N6803 C6795 1.427 . S
N6803 C6801 1.384 . S
H6804 C6810 0.930 . S
H6805 C6814 0.930 . S
H6806 C6819 0.929 . S
H6807 C6817 0.929 . S
H6808 C6812 0.929 . S
H6809 C6818 0.929 . S
C6810 H6804 0.930 . S
C6810 C6811 1.367 . S
C6810 C6818 1.378 . S
C6811 C6810 1.367 . S
C6811 C6819 1.433 . S
C6812 H6808 0.929 . S
C6812 C6814 1.378 . S
C6812 C6816 1.350 . S
C6813 C6816 1.463 1_655 S
C6813 C6818 1.350 . S
C6813 N6821 1.427 . S
C6814 H6805 0.930 . S
C6814 C6812 1.378 . S
C6814 C6815 1.367 . S
C6815 C6814 1.367 . S
C6815 C6817 1.433 . S
C6816 C6812 1.350 . S
C6816 C6813 1.463 1_455 S
C6816 N6820 1.427 . S
C6817 H6807 0.929 . S
C6817 C6815 1.433 . S
C6817 N6820 1.384 . S
C6818 H6809 0.929 . S
C6818 C6810 1.378 . S
C6818 C6813 1.350 . S
C6819 H6806 0.929 . S
C6819 C6811 1.433 . S
C6819 N6821 1.384 . S
N6820 C6816 1.427 . S
N6820 C6817 1.384 . S
N6821 C6813 1.427 . S
N6821 C6819 1.384 . S
H6822 C6828 0.930 . S
H6823 C6832 0.930 . S
H6824 C6837 0.929 . S
H6825 C6835 0.929 . S
H6826 C6830 0.929 . S
H6827 C6836 0.929 . S
C6828 H6822 0.930 . S
C6828 C6829 1.367 . S
C6828 C6836 1.378 . S
C6829 C6828 1.367 . S
C6829 C6837 1.433 . S
C6830 H6826 0.929 . S
C6830 C6832 1.378 . S
C6830 C6834 1.350 . S
C6831 C6834 1.463 1_655 S
C6831 C6836 1.350 . S
C6831 N6839 1.427 . S
C6832 H6823 0.930 . S
C6832 C6830 1.378 . S
C6832 C6833 1.367 . S
C6833 C6832 1.367 . S
C6833 C6835 1.433 . S
C6834 C6830 1.350 . S
C6834 C6831 1.463 1_455 S
C6834 N6838 1.427 . S
C6835 H6825 0.929 . S
C6835 C6833 1.433 . S
C6835 N6838 1.384 . S
C6836 H6827 0.929 . S
C6836 C6828 1.378 . S
C6836 C6831 1.350 . S
C6837 H6824 0.929 . S
C6837 C6829 1.433 . S
C6837 N6839 1.384 . S
N6838 C6834 1.427 . S
N6838 C6835 1.384 . S
N6839 C6831 1.427 . S
N6839 C6837 1.384 . S
H6840 C6846 0.930 . S
H6841 C6850 0.930 . S
H6842 C6855 0.929 . S
H6843 C6853 0.929 . S
H6844 C6848 0.929 . S
H6845 C6854 0.929 . S
C6846 H6840 0.930 . S
C6846 C6847 1.367 . S
C6846 C6854 1.378 . S
C6847 C6846 1.367 . S
C6847 C6855 1.433 . S
C6848 H6844 0.929 . S
C6848 C6850 1.378 . S
C6848 C6852 1.350 . S
C6849 C6852 1.463 . S
C6849 C6854 1.350 . S
C6849 N6857 1.427 . S
C6850 H6841 0.930 . S
C6850 C6848 1.378 . S
C6850 C6851 1.367 . S
C6851 C6850 1.367 . S
C6851 C6853 1.433 . S
C6852 C6848 1.350 . S
C6852 C6849 1.463 . S
C6852 N6856 1.427 . S
C6853 H6843 0.929 . S
C6853 C6851 1.433 . S
C6853 N6856 1.384 . S
C6854 H6845 0.929 . S
C6854 C6846 1.378 . S
C6854 C6849 1.350 . S
C6855 H6842 0.929 . S
C6855 C6847 1.433 . S
C6855 N6857 1.384 . S
N6856 C6852 1.427 . S
N6856 C6853 1.384 . S
N6857 C6849 1.427 . S
N6857 C6855 1.384 . S
H6858 C6864 0.930 . S
H6859 C6868 0.930 . S
H6860 C6873 0.929 . S
H6861 C6871 0.929 . S
H6862 C6866 0.929 . S
H6863 C6872 0.929 . S
C6864 H6858 0.930 . S
C6864 C6865 1.367 . S
C6864 C6872 1.378 . S
C6865 C6864 1.367 . S
C6865 C6873 1.433 . S
C6866 H6862 0.929 . S
C6866 C6868 1.378 . S
C6866 C6870 1.350 . S
C6867 C6870 1.463 1_455 S
C6867 C6872 1.350 . S
C6867 N6875 1.427 . S
C6868 H6859 0.930 . S
C6868 C6866 1.378 . S
C6868 C6869 1.367 . S
C6869 C6868 1.367 . S
C6869 C6871 1.433 . S
C6870 C6866 1.350 . S
C6870 C6867 1.463 1_655 S
C6870 N6874 1.427 . S
C6871 H6861 0.929 . S
C6871 C6869 1.433 . S
C6871 N6874 1.384 . S
C6872 H6863 0.929 . S
C6872 C6864 1.378 . S
C6872 C6867 1.350 . S
C6873 H6860 0.929 . S
C6873 C6865 1.433 . S
C6873 N6875 1.384 . S
N6874 C6870 1.427 . S
N6874 C6871 1.384 . S
N6875 C6867 1.427 . S
N6875 C6873 1.384 . S
H6876 C6882 0.930 . S
H6877 C6886 0.930 . S
H6878 C6891 0.929 . S
H6879 C6889 0.929 . S
H6880 C6884 0.929 . S
H6881 C6890 0.929 . S
C6882 H6876 0.930 . S
C6882 C6883 1.367 . S
C6882 C6890 1.378 . S
C6883 C6882 1.367 . S
C6883 C6891 1.433 . S
C6884 H6880 0.929 . S
C6884 C6886 1.378 . S
C6884 C6888 1.350 . S
C6885 C6888 1.463 . S
C6885 C6890 1.350 . S
C6885 N6893 1.427 . S
C6886 H6877 0.930 . S
C6886 C6884 1.378 . S
C6886 C6887 1.367 . S
C6887 C6886 1.367 . S
C6887 C6889 1.433 . S
C6888 C6884 1.350 . S
C6888 C6885 1.463 . S
C6888 N6892 1.427 . S
C6889 H6879 0.929 . S
C6889 C6887 1.433 . S
C6889 N6892 1.384 . S
C6890 H6881 0.929 . S
C6890 C6882 1.378 . S
C6890 C6885 1.350 . S
C6891 H6878 0.929 . S
C6891 C6883 1.433 . S
C6891 N6893 1.384 . S
N6892 C6888 1.427 . S
N6892 C6889 1.384 . S
N6893 C6885 1.427 . S
N6893 C6891 1.384 . S
H6894 C6900 0.930 . S
H6895 C6904 0.930 . S
H6896 C6909 0.929 . S
H6897 C6907 0.929 . S
H6898 C6902 0.929 . S
H6899 C6908 0.929 . S
C6900 H6894 0.930 . S
C6900 C6901 1.367 . S
C6900 C6908 1.378 . S
C6901 C6900 1.367 . S
C6901 C6909 1.433 1_565 S
C6902 H6898 0.929 . S
C6902 C6904 1.378 . S
C6902 C6906 1.350 . S
C6903 C6906 1.463 1_565 S
C6903 C6908 1.350 . S
C6903 N6911 1.427 1_565 S
C6904 H6895 0.930 . S
C6904 C6902 1.378 . S
C6904 C6905 1.367 . S
C6905 C6904 1.367 . S
C6905 C6907 1.433 1_545 S
C6906 C6902 1.350 . S
C6906 C6903 1.463 1_545 S
C6906 N6910 1.427 1_545 S
C6907 H6897 0.929 . S
C6907 C6905 1.433 1_565 S
C6907 N6910 1.384 . S
C6908 H6899 0.929 . S
C6908 C6900 1.378 . S
C6908 C6903 1.350 . S
C6909 H6896 0.929 . S
C6909 C6901 1.433 1_545 S
C6909 N6911 1.384 . S
N6910 C6906 1.427 1_565 S
N6910 C6907 1.384 . S
N6911 C6903 1.427 1_545 S
N6911 C6909 1.384 . S
H6912 C6918 0.930 . S
H6913 C6922 0.930 . S
H6914 C6927 0.929 . S
H6915 C6925 0.929 . S
H6916 C6920 0.929 . S
H6917 C6926 0.929 . S
C6918 H6912 0.930 . S
C6918 C6919 1.367 . S
C6918 C6926 1.378 . S
C6919 C6918 1.367 . S
C6919 C6927 1.433 . S
C6920 H6916 0.929 . S
C6920 C6922 1.378 . S
C6920 C6924 1.350 . S
C6921 C6924 1.463 . S
C6921 C6926 1.350 . S
C6921 N6929 1.427 . S
C6922 H6913 0.930 . S
C6922 C6920 1.378 . S
C6922 C6923 1.367 . S
C6923 C6922 1.367 . S
C6923 C6925 1.433 . S
C6924 C6920 1.350 . S
C6924 C6921 1.463 . S
C6924 N6928 1.427 . S
C6925 H6915 0.929 . S
C6925 C6923 1.433 . S
C6925 N6928 1.384 . S
C6926 H6917 0.929 . S
C6926 C6918 1.378 . S
C6926 C6921 1.350 . S
C6927 H6914 0.929 . S
C6927 C6919 1.433 . S
C6927 N6929 1.384 . S
N6928 C6924 1.427 . S
N6928 C6925 1.384 . S
N6929 C6921 1.427 . S
N6929 C6927 1.384 . S
H6930 C6936 0.930 . S
H6931 C6940 0.930 . S
H6932 C6945 0.929 . S
H6933 C6943 0.929 . S
H6934 C6938 0.929 . S
H6935 C6944 0.929 . S
C6936 H6930 0.930 . S
C6936 C6937 1.367 1_565 S
C6936 C6944 1.378 . S
C6937 C6936 1.367 1_545 S
C6937 C6945 1.433 . S
C6938 H6934 0.929 . S
C6938 C6940 1.378 . S
C6938 C6942 1.350 1_545 S
C6939 C6942 1.463 1_545 S
C6939 C6944 1.350 1_545 S
C6939 N6947 1.427 . S
C6940 H6931 0.930 . S
C6940 C6938 1.378 . S
C6940 C6941 1.367 1_545 S
C6941 C6940 1.367 1_565 S
C6941 C6943 1.433 . S
C6942 C6938 1.350 1_565 S
C6942 C6939 1.463 1_565 S
C6942 N6946 1.427 . S
C6943 H6933 0.929 . S
C6943 C6941 1.433 . S
C6943 N6946 1.384 . S
C6944 H6935 0.929 . S
C6944 C6936 1.378 . S
C6944 C6939 1.350 1_565 S
C6945 H6932 0.929 . S
C6945 C6937 1.433 . S
C6945 N6947 1.384 . S
N6946 C6942 1.427 . S
N6946 C6943 1.384 . S
N6947 C6939 1.427 . S
N6947 C6945 1.384 . S
H6948 C6954 0.930 . S
H6949 C6958 0.930 . S
H6950 C6963 0.929 . S
H6951 C6961 0.929 . S
H6952 C6956 0.929 . S
H6953 C6962 0.929 . S
C6954 H6948 0.930 . S
C6954 C6955 1.367 . S
C6954 C6962 1.378 . S
C6955 C6954 1.367 . S
C6955 C6963 1.433 . S
C6956 H6952 0.929 . S
C6956 C6958 1.378 . S
C6956 C6960 1.350 . S
C6957 C6960 1.463 1_556 S
C6957 C6962 1.350 . S
C6957 N6965 1.427 . S
C6958 H6949 0.930 . S
C6958 C6956 1.378 . S
C6958 C6959 1.367 . S
C6959 C6958 1.367 . S
C6959 C6961 1.433 . S
C6960 C6956 1.350 . S
C6960 C6957 1.463 1_554 S
C6960 N6964 1.427 . S
C6961 H6951 0.929 . S
C6961 C6959 1.433 . S
C6961 N6964 1.384 . S
C6962 H6953 0.929 . S
C6962 C6954 1.378 . S
C6962 C6957 1.350 . S
C6963 H6950 0.929 . S
C6963 C6955 1.433 . S
C6963 N6965 1.384 . S
N6964 C6960 1.427 . S
N6964 C6961 1.384 . S
N6965 C6957 1.427 . S
N6965 C6963 1.384 . S
H6966 C6972 0.930 . S
H6967 C6976 0.930 . S
H6968 C6981 0.929 . S
H6969 C6979 0.929 . S
H6970 C6974 0.929 . S
H6971 C6980 0.929 . S
C6972 H6966 0.930 . S
C6972 C6973 1.367 . S
C6972 C6980 1.378 . S
C6973 C6972 1.367 . S
C6973 C6981 1.433 . S
C6974 H6970 0.929 . S
C6974 C6976 1.378 . S
C6974 C6978 1.350 . S
C6975 C6978 1.463 1_554 S
C6975 C6980 1.350 . S
C6975 N6983 1.427 . S
C6976 H6967 0.930 . S
C6976 C6974 1.378 . S
C6976 C6977 1.367 . S
C6977 C6976 1.367 . S
C6977 C6979 1.433 . S
C6978 C6974 1.350 . S
C6978 C6975 1.463 1_556 S
C6978 N6982 1.427 . S
C6979 H6969 0.929 . S
C6979 C6977 1.433 . S
C6979 N6982 1.384 . S
C6980 H6971 0.929 . S
C6980 C6972 1.378 . S
C6980 C6975 1.350 . S
C6981 H6968 0.929 . S
C6981 C6973 1.433 . S
C6981 N6983 1.384 . S
N6982 C6978 1.427 . S
N6982 C6979 1.384 . S
N6983 C6975 1.427 . S
N6983 C6981 1.384 . S
H6984 C6990 0.930 . S
H6985 C6994 0.930 . S
H6986 C6999 0.929 . S
H6987 C6997 0.929 . S
H6988 C6992 0.929 . S
H6989 C6998 0.929 . S
C6990 H6984 0.930 . S
C6990 C6991 1.367 . S
C6990 C6998 1.378 . S
C6991 C6990 1.367 . S
C6991 C6999 1.433 . S
C6992 H6988 0.929 . S
C6992 C6994 1.378 . S
C6992 C6996 1.350 . S
C6993 C6996 1.463 1_565 S
C6993 C6998 1.350 . S
C6993 N7001 1.427 . S
C6994 H6985 0.930 . S
C6994 C6992 1.378 . S
C6994 C6995 1.367 . S
C6995 C6994 1.367 . S
C6995 C6997 1.433 . S
C6996 C6992 1.350 . S
C6996 C6993 1.463 1_545 S
C6996 N7000 1.427 . S
C6997 H6987 0.929 . S
C6997 C6995 1.433 . S
C6997 N7000 1.384 . S
C6998 H6989 0.929 . S
C6998 C6990 1.378 . S
C6998 C6993 1.350 . S
C6999 H6986 0.929 . S
C6999 C6991 1.433 . S
C6999 N7001 1.384 . S
N7000 C6996 1.427 . S
N7000 C6997 1.384 . S
N7001 C6993 1.427 . S
N7001 C6999 1.384 . S
H7002 C7008 0.930 . S
H7003 C7012 0.930 . S
H7004 C7017 0.929 . S
H7005 C7015 0.929 . S
H7006 C7010 0.929 . S
H7007 C7016 0.929 . S
C7008 H7002 0.930 . S
C7008 C7009 1.367 . S
C7008 C7016 1.378 . S
C7009 C7008 1.367 . S
C7009 C7017 1.433 . S
C7010 H7006 0.929 . S
C7010 C7012 1.378 . S
C7010 C7014 1.350 . S
C7011 C7014 1.463 . S
C7011 C7016 1.350 . S
C7011 N7019 1.427 . S
C7012 H7003 0.930 . S
C7012 C7010 1.378 . S
C7012 C7013 1.367 . S
C7013 C7012 1.367 . S
C7013 C7015 1.433 . S
C7014 C7010 1.350 . S
C7014 C7011 1.463 . S
C7014 N7018 1.427 . S
C7015 H7005 0.929 . S
C7015 C7013 1.433 . S
C7015 N7018 1.384 . S
C7016 H7007 0.929 . S
C7016 C7008 1.378 . S
C7016 C7011 1.350 . S
C7017 H7004 0.929 . S
C7017 C7009 1.433 . S
C7017 N7019 1.384 . S
N7018 C7014 1.427 . S
N7018 C7015 1.384 . S
N7019 C7011 1.427 . S
N7019 C7017 1.384 . S
H7020 C7026 0.930 . S
H7021 C7030 0.930 . S
H7022 C7035 0.929 . S
H7023 C7033 0.929 . S
H7024 C7028 0.929 . S
H7025 C7034 0.929 . S
C7026 H7020 0.930 . S
C7026 C7027 1.367 . S
C7026 C7034 1.378 . S
C7027 C7026 1.367 . S
C7027 C7035 1.433 . S
C7028 H7024 0.929 . S
C7028 C7030 1.378 . S
C7028 C7032 1.350 . S
C7029 C7032 1.463 1_565 S
C7029 C7034 1.350 . S
C7029 N7037 1.427 . S
C7030 H7021 0.930 . S
C7030 C7028 1.378 . S
C7030 C7031 1.367 . S
C7031 C7030 1.367 . S
C7031 C7033 1.433 . S
C7032 C7028 1.350 . S
C7032 C7029 1.463 1_545 S
C7032 N7036 1.427 . S
C7033 H7023 0.929 . S
C7033 C7031 1.433 . S
C7033 N7036 1.384 . S
C7034 H7025 0.929 . S
C7034 C7026 1.378 . S
C7034 C7029 1.350 . S
C7035 H7022 0.929 . S
C7035 C7027 1.433 . S
C7035 N7037 1.384 . S
N7036 C7032 1.427 . S
N7036 C7033 1.384 . S
N7037 C7029 1.427 . S
N7037 C7035 1.384 . S
H7038 C7044 0.930 . S
H7039 C7048 0.930 . S
H7040 C7053 0.929 . S
H7041 C7051 0.929 . S
H7042 C7046 0.929 . S
H7043 C7052 0.929 . S
C7044 H7038 0.930 . S
C7044 C7045 1.367 . S
C7044 C7052 1.378 . S
C7045 C7044 1.367 . S
C7045 C7053 1.433 . S
C7046 H7042 0.929 . S
C7046 C7048 1.378 . S
C7046 C7050 1.350 . S
C7047 C7050 1.463 1_655 S
C7047 C7052 1.350 . S
C7047 N7055 1.427 . S
C7048 H7039 0.930 . S
C7048 C7046 1.378 . S
C7048 C7049 1.367 . S
C7049 C7048 1.367 . S
C7049 C7051 1.433 . S
C7050 C7046 1.350 . S
C7050 C7047 1.463 1_455 S
C7050 N7054 1.427 . S
C7051 H7041 0.929 . S
C7051 C7049 1.433 . S
C7051 N7054 1.384 . S
C7052 H7043 0.929 . S
C7052 C7044 1.378 . S
C7052 C7047 1.350 . S
C7053 H7040 0.929 . S
C7053 C7045 1.433 . S
C7053 N7055 1.384 . S
N7054 C7050 1.427 . S
N7054 C7051 1.384 . S
N7055 C7047 1.427 . S
N7055 C7053 1.384 . S
H7056 C7062 0.930 . S
H7057 C7066 0.930 . S
H7058 C7071 0.929 . S
H7059 C7069 0.929 . S
H7060 C7064 0.929 . S
H7061 C7070 0.929 . S
C7062 H7056 0.930 . S
C7062 C7063 1.367 . S
C7062 C7070 1.378 . S
C7063 C7062 1.367 . S
C7063 C7071 1.433 . S
C7064 H7060 0.929 . S
C7064 C7066 1.378 . S
C7064 C7068 1.350 . S
C7065 C7068 1.463 . S
C7065 C7070 1.350 . S
C7065 N7073 1.427 . S
C7066 H7057 0.930 . S
C7066 C7064 1.378 . S
C7066 C7067 1.367 . S
C7067 C7066 1.367 . S
C7067 C7069 1.433 . S
C7068 C7064 1.350 . S
C7068 C7065 1.463 . S
C7068 N7072 1.427 . S
C7069 H7059 0.929 . S
C7069 C7067 1.433 . S
C7069 N7072 1.384 . S
C7070 H7061 0.929 . S
C7070 C7062 1.378 . S
C7070 C7065 1.350 . S
C7071 H7058 0.929 . S
C7071 C7063 1.433 . S
C7071 N7073 1.384 . S
N7072 C7068 1.427 . S
N7072 C7069 1.384 . S
N7073 C7065 1.427 . S
N7073 C7071 1.384 . S
H7074 C7080 0.930 . S
H7075 C7084 0.930 . S
H7076 C7089 0.929 . S
H7077 C7087 0.929 . S
H7078 C7082 0.929 . S
H7079 C7088 0.929 . S
C7080 H7074 0.930 . S
C7080 C7081 1.367 . S
C7080 C7088 1.378 . S
C7081 C7080 1.367 . S
C7081 C7089 1.433 . S
C7082 H7078 0.929 . S
C7082 C7084 1.378 . S
C7082 C7086 1.350 . S
C7083 C7086 1.463 1_655 S
C7083 C7088 1.350 . S
C7083 N7091 1.427 . S
C7084 H7075 0.930 . S
C7084 C7082 1.378 . S
C7084 C7085 1.367 . S
C7085 C7084 1.367 . S
C7085 C7087 1.433 . S
C7086 C7082 1.350 . S
C7086 C7083 1.463 1_455 S
C7086 N7090 1.427 . S
C7087 H7077 0.929 . S
C7087 C7085 1.433 . S
C7087 N7090 1.384 . S
C7088 H7079 0.929 . S
C7088 C7080 1.378 . S
C7088 C7083 1.350 . S
C7089 H7076 0.929 . S
C7089 C7081 1.433 . S
C7089 N7091 1.384 . S
N7090 C7086 1.427 . S
N7090 C7087 1.384 . S
N7091 C7083 1.427 . S
N7091 C7089 1.384 . S
H7092 C7098 0.930 1_655 S
H7093 C7102 0.930 1_455 S
H7094 C7107 0.929 . S
H7095 C7105 0.929 . S
H7096 C7100 0.929 . S
H7097 C7106 0.929 . S
C7098 H7092 0.930 1_455 S
C7098 C7099 1.367 . S
C7098 C7106 1.378 1_455 S
C7099 C7098 1.367 . S
C7099 C7107 1.433 . S
C7100 H7096 0.929 . S
C7100 C7102 1.378 1_455 S
C7100 C7104 1.350 1_455 S
C7101 C7104 1.463 1_455 S
C7101 C7106 1.350 1_455 S
C7101 N7109 1.427 . S
C7102 H7093 0.930 1_655 S
C7102 C7100 1.378 1_655 S
C7102 C7103 1.367 . S
C7103 C7102 1.367 . S
C7103 C7105 1.433 . S
C7104 C7100 1.350 1_655 S
C7104 C7101 1.463 1_655 S
C7104 N7108 1.427 . S
C7105 H7095 0.929 . S
C7105 C7103 1.433 . S
C7105 N7108 1.384 . S
C7106 H7097 0.929 . S
C7106 C7098 1.378 1_655 S
C7106 C7101 1.350 1_655 S
C7107 H7094 0.929 . S
C7107 C7099 1.433 . S
C7107 N7109 1.384 . S
N7108 C7104 1.427 . S
N7108 C7105 1.384 . S
N7109 C7101 1.427 . S
N7109 C7107 1.384 . S
H7110 C7116 0.930 . S
H7111 C7120 0.930 . S
H7112 C7125 0.929 . S
H7113 C7123 0.929 . S
H7114 C7118 0.929 . S
H7115 C7124 0.929 . S
C7116 H7110 0.930 . S
C7116 C7117 1.367 . S
C7116 C7124 1.378 . S
C7117 C7116 1.367 . S
C7117 C7125 1.433 . S
C7118 H7114 0.929 . S
C7118 C7120 1.378 . S
C7118 C7122 1.350 . S
C7119 C7122 1.463 . S
C7119 C7124 1.350 . S
C7119 N7127 1.427 . S
C7120 H7111 0.930 . S
C7120 C7118 1.378 . S
C7120 C7121 1.367 . S
C7121 C7120 1.367 . S
C7121 C7123 1.433 . S
C7122 C7118 1.350 . S
C7122 C7119 1.463 . S
C7122 N7126 1.427 . S
C7123 H7113 0.929 . S
C7123 C7121 1.433 . S
C7123 N7126 1.384 . S
C7124 H7115 0.929 . S
C7124 C7116 1.378 . S
C7124 C7119 1.350 . S
C7125 H7112 0.929 . S
C7125 C7117 1.433 . S
C7125 N7127 1.384 . S
N7126 C7122 1.427 . S
N7126 C7123 1.384 . S
N7127 C7119 1.427 . S
N7127 C7125 1.384 . S
H7128 C7134 0.930 . S
H7129 C7138 0.930 . S
H7130 C7143 0.929 . S
H7131 C7141 0.929 . S
H7132 C7136 0.929 . S
H7133 C7142 0.929 . S
C7134 H7128 0.930 . S
C7134 C7135 1.367 . S
C7134 C7142 1.378 . S
C7135 C7134 1.367 . S
C7135 C7143 1.433 . S
C7136 H7132 0.929 . S
C7136 C7138 1.378 . S
C7136 C7140 1.350 . S
C7137 C7140 1.463 1_655 S
C7137 C7142 1.350 . S
C7137 N7145 1.427 . S
C7138 H7129 0.930 . S
C7138 C7136 1.378 . S
C7138 C7139 1.367 . S
C7139 C7138 1.367 . S
C7139 C7141 1.433 . S
C7140 C7136 1.350 . S
C7140 C7137 1.463 1_455 S
C7140 N7144 1.427 . S
C7141 H7131 0.929 . S
C7141 C7139 1.433 . S
C7141 N7144 1.384 . S
C7142 H7133 0.929 . S
C7142 C7134 1.378 . S
C7142 C7137 1.350 . S
C7143 H7130 0.929 . S
C7143 C7135 1.433 . S
C7143 N7145 1.384 . S
N7144 C7140 1.427 . S
N7144 C7141 1.384 . S
N7145 C7137 1.427 . S
N7145 C7143 1.384 . S
H7146 C7152 0.930 . S
H7147 C7156 0.930 . S
H7148 C7161 0.929 . S
H7149 C7159 0.929 . S
H7150 C7154 0.929 . S
H7151 C7160 0.929 . S
C7152 H7146 0.930 . S
C7152 C7153 1.367 . S
C7152 C7160 1.378 . S
C7153 C7152 1.367 . S
C7153 C7161 1.433 . S
C7154 H7150 0.929 . S
C7154 C7156 1.378 . S
C7154 C7158 1.350 . S
C7155 C7158 1.463 . S
C7155 C7160 1.350 . S
C7155 N7163 1.427 . S
C7156 H7147 0.930 . S
C7156 C7154 1.378 . S
C7156 C7157 1.367 . S
C7157 C7156 1.367 . S
C7157 C7159 1.433 . S
C7158 C7154 1.350 . S
C7158 C7155 1.463 . S
C7158 N7162 1.427 . S
C7159 H7149 0.929 . S
C7159 C7157 1.433 . S
C7159 N7162 1.384 . S
C7160 H7151 0.929 . S
C7160 C7152 1.378 . S
C7160 C7155 1.350 . S
C7161 H7148 0.929 . S
C7161 C7153 1.433 . S
C7161 N7163 1.384 . S
N7162 C7158 1.427 . S
N7162 C7159 1.384 . S
N7163 C7155 1.427 . S
N7163 C7161 1.384 . S
H7164 C7170 0.930 . S
H7165 C7174 0.930 . S
H7166 C7179 0.929 . S
H7167 C7177 0.929 . S
H7168 C7172 0.929 . S
H7169 C7178 0.929 . S
C7170 H7164 0.930 . S
C7170 C7171 1.367 . S
C7170 C7178 1.378 . S
C7171 C7170 1.367 . S
C7171 C7179 1.433 . S
C7172 H7168 0.929 . S
C7172 C7174 1.378 . S
C7172 C7176 1.350 . S
C7173 C7176 1.463 . S
C7173 C7178 1.350 . S
C7173 N7181 1.427 . S
C7174 H7165 0.930 . S
C7174 C7172 1.378 . S
C7174 C7175 1.367 . S
C7175 C7174 1.367 . S
C7175 C7177 1.433 . S
C7176 C7172 1.350 . S
C7176 C7173 1.463 . S
C7176 N7180 1.427 . S
C7177 H7167 0.929 . S
C7177 C7175 1.433 . S
C7177 N7180 1.384 . S
C7178 H7169 0.929 . S
C7178 C7170 1.378 . S
C7178 C7173 1.350 . S
C7179 H7166 0.929 . S
C7179 C7171 1.433 . S
C7179 N7181 1.384 . S
N7180 C7176 1.427 . S
N7180 C7177 1.384 . S
N7181 C7173 1.427 . S
N7181 C7179 1.384 . S
H7182 C7188 0.930 . S
H7183 C7192 0.930 . S
H7184 C7197 0.929 . S
H7185 C7195 0.929 . S
H7186 C7190 0.929 . S
H7187 C7196 0.929 . S
C7188 H7182 0.930 . S
C7188 C7189 1.367 . S
C7188 C7196 1.378 . S
C7189 C7188 1.367 . S
C7189 C7197 1.433 . S
C7190 H7186 0.929 . S
C7190 C7192 1.378 . S
C7190 C7194 1.350 . S
C7191 C7194 1.463 1_554 S
C7191 C7196 1.350 . S
C7191 N7199 1.427 . S
C7192 H7183 0.930 . S
C7192 C7190 1.378 . S
C7192 C7193 1.367 . S
C7193 C7192 1.367 . S
C7193 C7195 1.433 . S
C7194 C7190 1.350 . S
C7194 C7191 1.463 1_556 S
C7194 N7198 1.427 . S
C7195 H7185 0.929 . S
C7195 C7193 1.433 . S
C7195 N7198 1.384 . S
C7196 H7187 0.929 . S
C7196 C7188 1.378 . S
C7196 C7191 1.350 . S
C7197 H7184 0.929 . S
C7197 C7189 1.433 . S
C7197 N7199 1.384 . S
N7198 C7194 1.427 . S
N7198 C7195 1.384 . S
N7199 C7191 1.427 . S
N7199 C7197 1.384 . S
H7200 C7206 0.930 . S
H7201 C7210 0.930 . S
H7202 C7215 0.929 . S
H7203 C7213 0.929 . S
H7204 C7208 0.929 . S
H7205 C7214 0.929 . S
C7206 H7200 0.930 . S
C7206 C7207 1.367 . S
C7206 C7214 1.378 . S
C7207 C7206 1.367 . S
C7207 C7215 1.433 . S
C7208 H7204 0.929 . S
C7208 C7210 1.378 . S
C7208 C7212 1.350 . S
C7209 C7212 1.463 . S
C7209 C7214 1.350 . S
C7209 N7217 1.427 . S
C7210 H7201 0.930 . S
C7210 C7208 1.378 . S
C7210 C7211 1.367 . S
C7211 C7210 1.367 . S
C7211 C7213 1.433 . S
C7212 C7208 1.350 . S
C7212 C7209 1.463 . S
C7212 N7216 1.427 . S
C7213 H7203 0.929 . S
C7213 C7211 1.433 . S
C7213 N7216 1.384 . S
C7214 H7205 0.929 . S
C7214 C7206 1.378 . S
C7214 C7209 1.350 . S
C7215 H7202 0.929 . S
C7215 C7207 1.433 . S
C7215 N7217 1.384 . S
N7216 C7212 1.427 . S
N7216 C7213 1.384 . S
N7217 C7209 1.427 . S
N7217 C7215 1.384 . S
H7218 C7224 0.930 . S
H7219 C7228 0.930 . S
H7220 C7233 0.929 . S
H7221 C7231 0.929 . S
H7222 C7226 0.929 . S
H7223 C7232 0.929 . S
C7224 H7218 0.930 . S
C7224 C7225 1.367 . S
C7224 C7232 1.378 . S
C7225 C7224 1.367 . S
C7225 C7233 1.433 . S
C7226 H7222 0.929 . S
C7226 C7228 1.378 . S
C7226 C7230 1.350 . S
C7227 C7230 1.463 . S
C7227 C7232 1.350 . S
C7227 N7235 1.427 . S
C7228 H7219 0.930 . S
C7228 C7226 1.378 . S
C7228 C7229 1.367 . S
C7229 C7228 1.367 . S
C7229 C7231 1.433 . S
C7230 C7226 1.350 . S
C7230 C7227 1.463 . S
C7230 N7234 1.427 . S
C7231 H7221 0.929 . S
C7231 C7229 1.433 . S
C7231 N7234 1.384 . S
C7232 H7223 0.929 . S
C7232 C7224 1.378 . S
C7232 C7227 1.350 . S
C7233 H7220 0.929 . S
C7233 C7225 1.433 . S
C7233 N7235 1.384 . S
N7234 C7230 1.427 . S
N7234 C7231 1.384 . S
N7235 C7227 1.427 . S
N7235 C7233 1.384 . S
H7236 C7242 0.930 . S
H7237 C7246 0.930 . S
H7238 C7251 0.929 . S
H7239 C7249 0.929 . S
H7240 C7244 0.929 . S
H7241 C7250 0.929 . S
C7242 H7236 0.930 . S
C7242 C7243 1.367 . S
C7242 C7250 1.378 . S
C7243 C7242 1.367 . S
C7243 C7251 1.433 . S
C7244 H7240 0.929 . S
C7244 C7246 1.378 . S
C7244 C7248 1.350 . S
C7245 C7248 1.463 . S
C7245 C7250 1.350 . S
C7245 N7253 1.427 . S
C7246 H7237 0.930 . S
C7246 C7244 1.378 . S
C7246 C7247 1.367 . S
C7247 C7246 1.367 . S
C7247 C7249 1.433 . S
C7248 C7244 1.350 . S
C7248 C7245 1.463 . S
C7248 N7252 1.427 . S
C7249 H7239 0.929 . S
C7249 C7247 1.433 . S
C7249 N7252 1.384 . S
C7250 H7241 0.929 . S
C7250 C7242 1.378 . S
C7250 C7245 1.350 . S
C7251 H7238 0.929 . S
C7251 C7243 1.433 . S
C7251 N7253 1.384 . S
N7252 C7248 1.427 . S
N7252 C7249 1.384 . S
N7253 C7245 1.427 . S
N7253 C7251 1.384 . S
H7254 C7260 0.930 . S
H7255 C7264 0.930 . S
H7256 C7269 0.929 . S
H7257 C7267 0.929 . S
H7258 C7262 0.929 . S
H7259 C7268 0.929 . S
C7260 H7254 0.930 . S
C7260 C7261 1.367 . S
C7260 C7268 1.378 . S
C7261 C7260 1.367 . S
C7261 C7269 1.433 . S
C7262 H7258 0.929 . S
C7262 C7264 1.378 . S
C7262 C7266 1.350 . S
C7263 C7266 1.463 . S
C7263 C7268 1.350 . S
C7263 N7271 1.427 . S
C7264 H7255 0.930 . S
C7264 C7262 1.378 . S
C7264 C7265 1.367 . S
C7265 C7264 1.367 . S
C7265 C7267 1.433 . S
C7266 C7262 1.350 . S
C7266 C7263 1.463 . S
C7266 N7270 1.427 . S
C7267 H7257 0.929 . S
C7267 C7265 1.433 . S
C7267 N7270 1.384 . S
C7268 H7259 0.929 . S
C7268 C7260 1.378 . S
C7268 C7263 1.350 . S
C7269 H7256 0.929 . S
C7269 C7261 1.433 . S
C7269 N7271 1.384 . S
N7270 C7266 1.427 . S
N7270 C7267 1.384 . S
N7271 C7263 1.427 . S
N7271 C7269 1.384 . S
H7272 C7278 0.930 . S
H7273 C7282 0.930 . S
H7274 C7287 0.929 . S
H7275 C7285 0.929 . S
H7276 C7280 0.929 . S
H7277 C7286 0.929 . S
C7278 H7272 0.930 . S
C7278 C7279 1.367 . S
C7278 C7286 1.378 . S
C7279 C7278 1.367 . S
C7279 C7287 1.433 1_554 S
C7280 H7276 0.929 . S
C7280 C7282 1.378 . S
C7280 C7284 1.350 . S
C7281 C7284 1.463 1_554 S
C7281 C7286 1.350 . S
C7281 N7289 1.427 1_554 S
C7282 H7273 0.930 . S
C7282 C7280 1.378 . S
C7282 C7283 1.367 . S
C7283 C7282 1.367 . S
C7283 C7285 1.433 1_556 S
C7284 C7280 1.350 . S
C7284 C7281 1.463 1_556 S
C7284 N7288 1.427 1_556 S
C7285 H7275 0.929 . S
C7285 C7283 1.433 1_554 S
C7285 N7288 1.384 . S
C7286 H7277 0.929 . S
C7286 C7278 1.378 . S
C7286 C7281 1.350 . S
C7287 H7274 0.929 . S
C7287 C7279 1.433 1_556 S
C7287 N7289 1.384 . S
N7288 C7284 1.427 1_554 S
N7288 C7285 1.384 . S
N7289 C7281 1.427 1_556 S
N7289 C7287 1.384 . S
H7290 C7296 0.930 . S
H7291 C7300 0.930 . S
H7292 C7305 0.929 . S
H7293 C7303 0.929 . S
H7294 C7298 0.929 . S
H7295 C7304 0.929 . S
C7296 H7290 0.930 . S
C7296 C7297 1.367 . S
C7296 C7304 1.378 . S
C7297 C7296 1.367 . S
C7297 C7305 1.433 . S
C7298 H7294 0.929 . S
C7298 C7300 1.378 . S
C7298 C7302 1.350 . S
C7299 C7302 1.463 . S
C7299 C7304 1.350 . S
C7299 N7307 1.427 . S
C7300 H7291 0.930 . S
C7300 C7298 1.378 . S
C7300 C7301 1.367 . S
C7301 C7300 1.367 . S
C7301 C7303 1.433 . S
C7302 C7298 1.350 . S
C7302 C7299 1.463 . S
C7302 N7306 1.427 . S
C7303 H7293 0.929 . S
C7303 C7301 1.433 . S
C7303 N7306 1.384 . S
C7304 H7295 0.929 . S
C7304 C7296 1.378 . S
C7304 C7299 1.350 . S
C7305 H7292 0.929 . S
C7305 C7297 1.433 . S
C7305 N7307 1.384 . S
N7306 C7302 1.427 . S
N7306 C7303 1.384 . S
N7307 C7299 1.427 . S
N7307 C7305 1.384 . S
H7308 C7314 0.930 . S
H7309 C7318 0.930 . S
H7310 C7323 0.929 . S
H7311 C7321 0.929 . S
H7312 C7316 0.929 . S
H7313 C7322 0.929 . S
C7314 H7308 0.930 . S
C7314 C7315 1.367 . S
C7314 C7322 1.378 . S
C7315 C7314 1.367 . S
C7315 C7323 1.433 . S
C7316 H7312 0.929 . S
C7316 C7318 1.378 . S
C7316 C7320 1.350 . S
C7317 C7320 1.463 . S
C7317 C7322 1.350 . S
C7317 N7325 1.427 . S
C7318 H7309 0.930 . S
C7318 C7316 1.378 . S
C7318 C7319 1.367 . S
C7319 C7318 1.367 . S
C7319 C7321 1.433 . S
C7320 C7316 1.350 . S
C7320 C7317 1.463 . S
C7320 N7324 1.427 . S
C7321 H7311 0.929 . S
C7321 C7319 1.433 . S
C7321 N7324 1.384 . S
C7322 H7313 0.929 . S
C7322 C7314 1.378 . S
C7322 C7317 1.350 . S
C7323 H7310 0.929 . S
C7323 C7315 1.433 . S
C7323 N7325 1.384 . S
N7324 C7320 1.427 . S
N7324 C7321 1.384 . S
N7325 C7317 1.427 . S
N7325 C7323 1.384 . S
H7326 C7332 0.930 . S
H7327 C7336 0.930 . S
H7328 C7341 0.929 . S
H7329 C7339 0.929 . S
H7330 C7334 0.929 . S
H7331 C7340 0.929 . S
C7332 H7326 0.930 . S
C7332 C7333 1.367 . S
C7332 C7340 1.378 . S
C7333 C7332 1.367 . S
C7333 C7341 1.433 . S
C7334 H7330 0.929 . S
C7334 C7336 1.378 . S
C7334 C7338 1.350 . S
C7335 C7338 1.463 . S
C7335 C7340 1.350 . S
C7335 N7343 1.427 . S
C7336 H7327 0.930 . S
C7336 C7334 1.378 . S
C7336 C7337 1.367 . S
C7337 C7336 1.367 . S
C7337 C7339 1.433 . S
C7338 C7334 1.350 . S
C7338 C7335 1.463 . S
C7338 N7342 1.427 . S
C7339 H7329 0.929 . S
C7339 C7337 1.433 . S
C7339 N7342 1.384 . S
C7340 H7331 0.929 . S
C7340 C7332 1.378 . S
C7340 C7335 1.350 . S
C7341 H7328 0.929 . S
C7341 C7333 1.433 . S
C7341 N7343 1.384 . S
N7342 C7338 1.427 . S
N7342 C7339 1.384 . S
N7343 C7335 1.427 . S
N7343 C7341 1.384 . S
H7344 C7350 0.930 . S
H7345 C7354 0.930 . S
H7346 C7359 0.929 . S
H7347 C7357 0.929 . S
H7348 C7352 0.929 . S
H7349 C7358 0.929 . S
C7350 H7344 0.930 . S
C7350 C7351 1.367 . S
C7350 C7358 1.378 . S
C7351 C7350 1.367 . S
C7351 C7359 1.433 . S
C7352 H7348 0.929 . S
C7352 C7354 1.378 . S
C7352 C7356 1.350 . S
C7353 C7356 1.463 1_554 S
C7353 C7358 1.350 . S
C7353 N7361 1.427 . S
C7354 H7345 0.930 . S
C7354 C7352 1.378 . S
C7354 C7355 1.367 . S
C7355 C7354 1.367 . S
C7355 C7357 1.433 . S
C7356 C7352 1.350 . S
C7356 C7353 1.463 1_556 S
C7356 N7360 1.427 . S
C7357 H7347 0.929 . S
C7357 C7355 1.433 . S
C7357 N7360 1.384 . S
C7358 H7349 0.929 . S
C7358 C7350 1.378 . S
C7358 C7353 1.350 . S
C7359 H7346 0.929 . S
C7359 C7351 1.433 . S
C7359 N7361 1.384 . S
N7360 C7356 1.427 . S
N7360 C7357 1.384 . S
N7361 C7353 1.427 . S
N7361 C7359 1.384 . S
H7362 C7368 0.930 . S
H7363 C7372 0.930 . S
H7364 C7377 0.929 . S
H7365 C7375 0.929 . S
H7366 C7370 0.929 . S
H7367 C7376 0.929 . S
C7368 H7362 0.930 . S
C7368 C7369 1.367 . S
C7368 C7376 1.378 . S
C7369 C7368 1.367 . S
C7369 C7377 1.433 . S
C7370 H7366 0.929 . S
C7370 C7372 1.378 . S
C7370 C7374 1.350 . S
C7371 C7374 1.463 . S
C7371 C7376 1.350 . S
C7371 N7379 1.427 . S
C7372 H7363 0.930 . S
C7372 C7370 1.378 . S
C7372 C7373 1.367 . S
C7373 C7372 1.367 . S
C7373 C7375 1.433 . S
C7374 C7370 1.350 . S
C7374 C7371 1.463 . S
C7374 N7378 1.427 . S
C7375 H7365 0.929 . S
C7375 C7373 1.433 . S
C7375 N7378 1.384 . S
C7376 H7367 0.929 . S
C7376 C7368 1.378 . S
C7376 C7371 1.350 . S
C7377 H7364 0.929 . S
C7377 C7369 1.433 . S
C7377 N7379 1.384 . S
N7378 C7374 1.427 . S
N7378 C7375 1.384 . S
N7379 C7371 1.427 . S
N7379 C7377 1.384 . S
H7380 C7386 0.930 . S
H7381 C7390 0.930 . S
H7382 C7395 0.929 . S
H7383 C7393 0.929 . S
H7384 C7388 0.929 . S
H7385 C7394 0.929 . S
C7386 H7380 0.930 . S
C7386 C7387 1.367 . S
C7386 C7394 1.378 . S
C7387 C7386 1.367 . S
C7387 C7395 1.433 . S
C7388 H7384 0.929 . S
C7388 C7390 1.378 . S
C7388 C7392 1.350 . S
C7389 C7392 1.463 . S
C7389 C7394 1.350 . S
C7389 N7397 1.427 . S
C7390 H7381 0.930 . S
C7390 C7388 1.378 . S
C7390 C7391 1.367 . S
C7391 C7390 1.367 . S
C7391 C7393 1.433 . S
C7392 C7388 1.350 . S
C7392 C7389 1.463 . S
C7392 N7396 1.427 . S
C7393 H7383 0.929 . S
C7393 C7391 1.433 . S
C7393 N7396 1.384 . S
C7394 H7385 0.929 . S
C7394 C7386 1.378 . S
C7394 C7389 1.350 . S
C7395 H7382 0.929 . S
C7395 C7387 1.433 . S
C7395 N7397 1.384 . S
N7396 C7392 1.427 . S
N7396 C7393 1.384 . S
N7397 C7389 1.427 . S
N7397 C7395 1.384 . S
H7398 C7404 0.930 . S
H7399 C7408 0.930 . S
H7400 C7413 0.929 . S
H7401 C7411 0.929 . S
H7402 C7406 0.929 . S
H7403 C7412 0.929 . S
C7404 H7398 0.930 . S
C7404 C7405 1.367 . S
C7404 C7412 1.378 . S
C7405 C7404 1.367 . S
C7405 C7413 1.433 . S
C7406 H7402 0.929 . S
C7406 C7408 1.378 . S
C7406 C7410 1.350 . S
C7407 C7410 1.463 . S
C7407 C7412 1.350 . S
C7407 N7415 1.427 . S
C7408 H7399 0.930 . S
C7408 C7406 1.378 . S
C7408 C7409 1.367 . S
C7409 C7408 1.367 . S
C7409 C7411 1.433 . S
C7410 C7406 1.350 . S
C7410 C7407 1.463 . S
C7410 N7414 1.427 . S
C7411 H7401 0.929 . S
C7411 C7409 1.433 . S
C7411 N7414 1.384 . S
C7412 H7403 0.929 . S
C7412 C7404 1.378 . S
C7412 C7407 1.350 . S
C7413 H7400 0.929 . S
C7413 C7405 1.433 . S
C7413 N7415 1.384 . S
N7414 C7410 1.427 . S
N7414 C7411 1.384 . S
N7415 C7407 1.427 . S
N7415 C7413 1.384 . S
H7416 C7422 0.930 . S
H7417 C7426 0.930 . S
H7418 C7431 0.929 . S
H7419 C7429 0.929 . S
H7420 C7424 0.929 . S
H7421 C7430 0.929 . S
C7422 H7416 0.930 . S
C7422 C7423 1.367 . S
C7422 C7430 1.378 . S
C7423 C7422 1.367 . S
C7423 C7431 1.433 . S
C7424 H7420 0.929 . S
C7424 C7426 1.378 . S
C7424 C7428 1.350 . S
C7425 C7428 1.463 . S
C7425 C7430 1.350 . S
C7425 N7433 1.427 . S
C7426 H7417 0.930 . S
C7426 C7424 1.378 . S
C7426 C7427 1.367 . S
C7427 C7426 1.367 . S
C7427 C7429 1.433 . S
C7428 C7424 1.350 . S
C7428 C7425 1.463 . S
C7428 N7432 1.427 . S
C7429 H7419 0.929 . S
C7429 C7427 1.433 . S
C7429 N7432 1.384 . S
C7430 H7421 0.929 . S
C7430 C7422 1.378 . S
C7430 C7425 1.350 . S
C7431 H7418 0.929 . S
C7431 C7423 1.433 . S
C7431 N7433 1.384 . S
N7432 C7428 1.427 . S
N7432 C7429 1.384 . S
N7433 C7425 1.427 . S
N7433 C7431 1.384 . S
H7434 C7440 0.930 . S
H7435 C7444 0.930 . S
H7436 C7449 0.929 . S
H7437 C7447 0.929 . S
H7438 C7442 0.929 . S
H7439 C7448 0.929 . S
C7440 H7434 0.930 . S
C7440 C7441 1.367 . S
C7440 C7448 1.378 . S
C7441 C7440 1.367 . S
C7441 C7449 1.433 . S
C7442 H7438 0.929 . S
C7442 C7444 1.378 . S
C7442 C7446 1.350 . S
C7443 C7446 1.463 1_556 S
C7443 C7448 1.350 . S
C7443 N7451 1.427 . S
C7444 H7435 0.930 . S
C7444 C7442 1.378 . S
C7444 C7445 1.367 . S
C7445 C7444 1.367 . S
C7445 C7447 1.433 . S
C7446 C7442 1.350 . S
C7446 C7443 1.463 1_554 S
C7446 N7450 1.427 . S
C7447 H7437 0.929 . S
C7447 C7445 1.433 . S
C7447 N7450 1.384 . S
C7448 H7439 0.929 . S
C7448 C7440 1.378 . S
C7448 C7443 1.350 . S
C7449 H7436 0.929 . S
C7449 C7441 1.433 . S
C7449 N7451 1.384 . S
N7450 C7446 1.427 . S
N7450 C7447 1.384 . S
N7451 C7443 1.427 . S
N7451 C7449 1.384 . S
H7452 C7458 0.930 . S
H7453 C7462 0.930 . S
H7454 C7467 0.929 . S
H7455 C7465 0.929 . S
H7456 C7460 0.929 . S
H7457 C7466 0.929 . S
C7458 H7452 0.930 . S
C7458 C7459 1.367 . S
C7458 C7466 1.378 . S
C7459 C7458 1.367 . S
C7459 C7467 1.433 . S
C7460 H7456 0.929 . S
C7460 C7462 1.378 . S
C7460 C7464 1.350 . S
C7461 C7464 1.463 . S
C7461 C7466 1.350 . S
C7461 N7469 1.427 . S
C7462 H7453 0.930 . S
C7462 C7460 1.378 . S
C7462 C7463 1.367 . S
C7463 C7462 1.367 . S
C7463 C7465 1.433 . S
C7464 C7460 1.350 . S
C7464 C7461 1.463 . S
C7464 N7468 1.427 . S
C7465 H7455 0.929 . S
C7465 C7463 1.433 . S
C7465 N7468 1.384 . S
C7466 H7457 0.929 . S
C7466 C7458 1.378 . S
C7466 C7461 1.350 . S
C7467 H7454 0.929 . S
C7467 C7459 1.433 . S
C7467 N7469 1.384 . S
N7468 C7464 1.427 . S
N7468 C7465 1.384 . S
N7469 C7461 1.427 . S
N7469 C7467 1.384 . S
H7470 C7476 0.930 . S
H7471 C7480 0.930 . S
H7472 C7485 0.929 . S
H7473 C7483 0.929 . S
H7474 C7478 0.929 . S
H7475 C7484 0.929 . S
C7476 H7470 0.930 . S
C7476 C7477 1.367 . S
C7476 C7484 1.378 . S
C7477 C7476 1.367 . S
C7477 C7485 1.433 . S
C7478 H7474 0.929 . S
C7478 C7480 1.378 . S
C7478 C7482 1.350 . S
C7479 C7482 1.463 . S
C7479 C7484 1.350 . S
C7479 N7487 1.427 . S
C7480 H7471 0.930 . S
C7480 C7478 1.378 . S
C7480 C7481 1.367 . S
C7481 C7480 1.367 . S
C7481 C7483 1.433 . S
C7482 C7478 1.350 . S
C7482 C7479 1.463 . S
C7482 N7486 1.427 . S
C7483 H7473 0.929 . S
C7483 C7481 1.433 . S
C7483 N7486 1.384 . S
C7484 H7475 0.929 . S
C7484 C7476 1.378 . S
C7484 C7479 1.350 . S
C7485 H7472 0.929 . S
C7485 C7477 1.433 . S
C7485 N7487 1.384 . S
N7486 C7482 1.427 . S
N7486 C7483 1.384 . S
N7487 C7479 1.427 . S
N7487 C7485 1.384 . S
C3175 N2 1.531 . S
C3179 C1426 1.443 . S
C3193 N35 1.531 . S
C3197 C1459 1.441 . S
C3211 N68 1.530 . S
C3215 C1360 1.411 1_556 S
C3229 N101 1.520 . S
C3233 C2977 1.461 . S
C3247 C3076 1.423 1_554 S
C3251 N134 1.522 . S
C3265 N167 1.520 . S
C3269 C3109 1.461 . S
C3283 N200 1.520 . S
C3287 C2911 1.453 . S
C3301 N233 1.520 . S
C3305 C3142 1.461 . S
C3319 N266 1.519 . S
C3323 C865 1.458 . S
C3337 C2482 1.459 . S
C3341 N299 1.523 . S
C3355 C799 1.422 1_455 S
C3359 N332 1.519 . S
C3373 C2416 1.441 . S
C3377 N365 1.529 . S
C3391 N398 1.531 . S
C3395 C997 1.442 . S
C3409 N431 1.527 . S
C3413 C2614 1.442 . S
C3427 C931 1.421 1_455 S
C3431 N464 1.524 . S
C3445 N497 1.521 . S
C3449 C2548 1.452 . S
C3463 N530 1.521 . S
C3467 C2779 1.461 . S
C3481 C1063 1.407 1_545 S
C3485 N563 1.525 . S
C3499 C2680 1.458 . S
C3503 N596 1.524 . S
C3517 C1129 1.407 1_565 S
C3521 N629 1.531 . S
C3535 C1162 1.443 . S
C3539 N662 1.526 . S
C3553 C2845 1.461 . S
C3557 N695 1.519 . S
C3571 C2878 1.455 . S
C3575 N728 1.526 . S
C3589 C2812 1.461 . S
C3593 N761 1.520 . S
C3607 C634 1.451 . S
C3611 N794 1.528 . S
C3625 C667 1.455 . S
C3629 N827 1.520 . S
C3643 N860 1.520 . S
C3647 C568 1.424 1_554 S
C3661 C2185 1.448 . S
C3665 N893 1.523 . S
C3679 N926 1.522 . S
C3683 C2284 1.423 1_556 S
C3697 C2317 1.441 . S
C3701 N959 1.530 . S
C3715 N992 1.522 . S
C3719 C2119 1.460 . S
C3733 C2350 1.441 . S
C3737 N1025 1.530 . S
C3751 C73 1.441 . S
C3755 N1058 1.530 . S
C3769 N1091 1.520 . S
C3773 C1690 1.455 . S
C3787 C7 1.423 1_655 S
C3791 N1124 1.519 . S
C3805 N1157 1.529 . S
C3809 C1624 1.451 . S
C3823 N1190 1.529 . S
C3827 C205 1.441 . S
C3841 N1223 1.529 . S
C3845 C1822 1.441 . S
C3859 N1256 1.519 . S
C3863 C139 1.423 1_655 S
C3877 C1756 1.444 . S
C3881 N1289 1.526 . S
C3895 C1987 1.443 . S
C3899 N1322 1.526 . S
C3913 N1355 1.519 . S
C3917 C271 1.421 1_565 S
C3931 C1888 1.441 . S
C3935 N1388 1.530 . S
C3949 N1421 1.524 . S
C3953 C337 1.408 1_545 S
C3967 N1454 1.519 . S
C3971 C370 1.457 . S
C3985 N1487 1.529 . S
C3989 C2053 1.441 . S
C4003 N1520 1.529 . S
C4007 C2086 1.451 . S
C4021 N1553 1.519 . S
C4025 C2020 1.459 . S
C4039 C3010 1.424 1_556 S
C4043 N1586 1.521 . S
C4057 N1619 1.528 . S
C4061 C3043 1.442 . S
C4075 C2944 1.459 . S
C4079 N1652 1.524 . S
C4093 N1685 1.530 . S
C4097 C1393 1.441 . S
C4111 N1718 1.523 . S
C4115 C1492 1.459 . S
C4129 C1525 1.441 . S
C4133 N1751 1.529 . S
C4147 C1327 1.418 1_554 S
C4151 N1784 1.519 . S
C4165 N1817 1.525 . S
C4169 C1558 1.445 . S
C4183 N1850 1.525 . S
C4187 C2449 1.407 1_655 S
C4201 C898 1.457 . S
C4205 N1883 1.525 . S
C4219 N1916 1.531 . S
C4223 C2383 1.442 . S
C4237 N1949 1.531 . S
C4241 C832 1.446 . S
C4255 N1982 1.520 . S
C4259 C2581 1.424 1_655 S
C4273 N2015 1.529 . S
C4277 C1030 1.441 . S
C4291 N2048 1.530 . S
C4295 C2515 1.448 . S
C4309 C964 1.442 . S
C4313 N2081 1.531 . S
C4327 N2114 1.522 . S
C4331 C1195 1.423 1_565 S
C4345 C2647 1.451 . S
C4349 N2147 1.529 . S
C4363 N2180 1.521 . S
C4367 C1096 1.451 . S
C4381 C2713 1.443 . S
C4385 N2213 1.526 . S
C4399 N2246 1.523 . S
C4403 C2746 1.459 . S
C4417 N2279 1.519 . S
C4421 C1261 1.419 1_545 S
C4435 N2312 1.530 . S
C4439 C1294 1.441 . S
C4453 C1228 1.461 . S
C4457 N2345 1.519 . S
C4471 N2378 1.521 . S
C4475 C2218 1.424 1_554 S
C4489 C2251 1.461 . S
C4493 N2411 1.520 . S
C4507 N2444 1.522 . S
C4511 C2152 1.460 . S
C4525 C601 1.460 . S
C4529 N2477 1.519 . S
C4543 C700 1.461 . S
C4547 N2510 1.519 . S
C4561 C733 1.461 . S
C4565 N2543 1.520 . S
C4579 C535 1.417 1_556 S
C4583 N2576 1.520 . S
C4597 N2609 1.519 . S
C4601 C766 1.457 . S
C4615 N2642 1.519 . S
C4619 C1657 1.424 1_455 S
C4633 C106 1.443 . S
C4637 N2675 1.531 . S
C4651 C1591 1.442 . S
C4655 N2708 1.531 . S
C4669 C40 1.453 . S
C4673 N2741 1.527 . S
C4687 N2774 1.530 . S
C4691 C1789 1.403 1_455 S
C4705 N2807 1.524 . S
C4709 C238 1.458 . S
C4723 N2840 1.524 . S
C4727 C1723 1.458 . S
C4741 C172 1.447 . S
C4745 N2873 1.523 . S
C4759 N2906 1.531 . S
C4763 C403 1.407 1_545 S
C4777 N2939 1.521 . S
C4781 C1855 1.461 . S
C4795 C304 1.444 . S
C4799 N2972 1.531 . S
C4813 C1921 1.443 . S
C4817 N3005 1.531 . S
C4831 C1954 1.441 . S
C4835 N3038 1.529 . S
C4849 N3071 1.519 . S
C4853 C469 1.421 1_565 S
C4867 C502 1.442 . S
C4871 N3104 1.527 . S
C4885 C436 1.452 . S
C4889 N3137 1.521 . S
C4903 C18 2.009 . S
C4907 C315 2.006 . S
C4921 C348 2.004 . S
C4925 C51 2.007 . S
C4939 C381 2.002 . S
C4943 C84 2.000 . S
C4957 C117 2.002 . S
C4961 C282 2.005 . S
C4975 C513 2.007 . S
C4979 C150 2.004 . S
C4993 C414 2.008 . S
C4997 C183 2.010 . S
C5011 C216 2.004 . S
C5015 C447 2.001 . S
C5029 C249 2.002 . S
C5033 C480 2.001 . S
C5047 C546 2.007 . S
C5051 C612 2.010 . S
C5065 C2328 2.003 . S
C5069 C579 2.006 . S
C5083 C645 2.006 . S
C5087 C2361 2.009 . S
C5101 C678 2.004 . S
C5105 C2295 2.007 . S
C5119 C2262 2.007 . S
C5123 C711 2.004 . S
C5137 C2163 2.010 . S
C5141 C744 2.007 . S
C5155 C2229 2.001 . S
C5159 C777 2.000 . S
C5173 C1107 2.002 . S
C5177 C810 2.000 . S
C5191 C843 2.009 . S
C5195 C1140 2.006 . S
C5209 C1173 2.000 . S
C5213 C876 2.001 . S
C5227 C909 2.007 . S
C5231 C1074 2.010 . S
C5245 C1305 2.003 . S
C5249 C942 2.005 . S
C5263 C975 2.006 . S
C5267 C1206 2.009 . S
C5281 C1008 2.011 . S
C5285 C1239 2.011 . S
C5299 C1272 2.000 . S
C5303 C1041 2.001 . S
C5317 C1404 2.011 . S
C5321 C1338 2.011 . S
C5335 C3120 2.000 . S
C5339 C1371 2.001 . S
C5353 C3153 2.006 . S
C5357 C1437 2.003 . S
C5371 C1470 2.011 . S
C5375 C3087 2.011 . S
C5389 C1503 2.006 . S
C5393 C3054 2.003 . S
C5407 C2955 2.005 . S
C5411 C1536 2.008 . S
C5425 C1569 2.000 . S
C5429 C3021 2.001 . S
C5443 C1602 2.007 . S
C5447 C1899 2.010 . S
C5461 C1635 2.001 . S
C5465 C1932 2.003 . S
C5479 C1965 2.005 . S
C5483 C1668 2.008 . S
C5497 C1866 2.004 . S
C5501 C1701 2.001 . S
C5515 C2097 2.011 . S
C5519 C1734 2.011 . S
C5533 C1767 2.002 . S
C5537 C1998 2.005 . S
C5551 C2031 2.005 . S
C5555 C1800 2.002 . S
C5569 C2064 2.001 . S
C5573 C1833 2.003 . S
C5587 C2196 2.000 . S
C5591 C2130 2.001 . S
C5605 C2394 2.002 . S
C5609 C2691 2.005 . S
C5623 C2724 2.000 . S
C5627 C2427 2.002 . S
C5641 C2460 2.000 . S
C5645 C2757 2.001 . S
C5659 C2658 2.000 . S
C5663 C2493 2.001 . S
C5677 C2526 2.005 . S
C5681 C2889 2.003 . S
C5695 C2790 2.000 . S
C5699 C2559 2.002 . S
C5713 C2592 2.006 . S
C5717 C2823 2.009 . S
C5731 C2856 2.010 . S
C5735 C2625 2.008 . S
C5749 C2988 2.000 . S
C5753 C2922 2.001 . S
C5767 C21 0.788 . S
C5771 C681 0.774 . S
C5785 C2166 0.775 . S
C5789 C54 0.773 . S
C5803 C87 0.784 . S
C5807 C2199 0.785 . S
C5821 C120 0.768 . S
C5825 C2232 0.784 . S
C5839 C2364 0.784 . S
C5843 C153 0.800 . S
C5857 C186 0.774 . S
C5861 C714 0.776 . S
C5875 C219 0.786 . S
C5879 C2331 0.785 . S
C5893 C252 0.772 . S
C5897 C549 0.786 . S
C5911 C516 0.785 . S
C5915 C285 0.799 . S
C5929 C318 0.780 . S
C5933 C417 0.794 . S
C5947 C450 0.786 . S
C5951 C351 0.801 . S
C5965 C384 0.784 . S
C5969 C483 0.800 . S
C5983 C1638 0.769 . S
C5987 C582 0.784 . S
C6001 C615 0.775 . S
C6005 C1671 0.792 . S
C6019 C1704 0.767 . S
C6023 C648 0.767 . S
C6037 C1803 0.801 . S
C6041 C747 0.786 . S
C6055 C1737 0.768 . S
C6059 C780 0.767 . S
C6073 C813 0.785 . S
C6077 C1473 0.768 . S
C6091 C2958 0.767 . S
C6095 C846 0.767 . S
C6109 C2991 0.769 . S
C6113 C879 0.768 . S
C6127 C912 0.779 . S
C6131 C3024 0.793 . S
C6145 C945 0.797 . S
C6149 C3156 0.781 . S
C6163 C1506 0.775 . S
C6167 C978 0.778 . S
C6181 C1011 0.770 . S
C6185 C3123 0.771 . S
C6199 C1341 0.793 . S
C6203 C1044 0.777 . S
C6217 C1308 0.786 . S
C6221 C1077 0.800 . S
C6235 C1209 0.798 . S
C6239 C1110 0.782 . S
C6253 C1143 0.785 . S
C6257 C1242 0.769 . S
C6271 C1275 0.783 . S
C6275 C1176 0.767 . S
C6289 C2430 0.776 . S
C6293 C1374 0.790 . S
C6307 C2463 0.800 . S
C6311 C1407 0.786 . S
C6325 C1440 0.782 . S
C6329 C2496 0.779 . S
C6343 C2595 0.784 . S
C6347 C1539 0.768 . S
C6361 C2529 0.785 . S
C6365 C1572 0.784 . S
C6379 C2265 0.770 . S
C6383 C1605 0.772 . S
C6397 C2298 0.789 . S
C6401 C1770 0.775 . S
C6415 C2133 0.775 . S
C6419 C1836 0.773 . S
C6433 C2100 0.781 . S
C6437 C1869 0.783 . S
C6451 C1902 0.784 . S
C6455 C2001 0.782 . S
C6469 C2034 0.769 . S
C6473 C1935 0.768 . S
C6487 C1968 0.783 . S
C6491 C2067 0.784 . S
C6505 C2397 0.786 . S
C6509 C3057 0.786 . S
C6523 C3090 0.794 . S
C6527 C2562 0.777 . S
C6541 C2925 0.769 . S
C6545 C2628 0.768 . S
C6559 C2892 0.771 . S
C6563 C2661 0.769 . S
C6577 C2694 0.782 . S
C6581 C2793 0.783 . S
C6595 C2826 0.779 . S
C6599 C2727 0.781 . S
C6613 C2859 0.767 . S
C6617 C2760 0.767 . S
C6631 N145 1.058 . S
C6635 N13 1.045 . S
C6649 N178 1.062 . S
C6653 N46 1.048 . S
C6667 N79 1.046 . S
C6671 N211 1.054 . S
C6685 N244 1.061 . S
C6689 N112 1.051 . S
C6703 N277 1.046 . S
C6707 N475 1.061 . S
C6721 N310 1.054 . S
C6725 N508 1.046 . S
C6739 N343 1.056 . S
C6743 N409 1.046 . S
C6757 N376 1.058 . S
C6761 N442 1.056 . S
C6775 N541 1.061 . S
C6779 N2290 1.046 . S
C6793 N574 1.062 . S
C6797 N2224 1.048 . S
C6811 N673 1.062 . S
C6815 N607 1.049 . S
C6829 N640 1.061 . S
C6833 N2158 1.046 . S
C6847 N2125 1.061 . S
C6851 N706 1.046 . S
C6865 N739 1.047 . S
C6869 N2356 1.062 . S
C6883 N2323 1.057 . S
C6887 N772 1.057 . S
C6901 N805 1.053 . S
C6905 N937 1.048 . S
C6919 N838 1.060 . S
C6923 N970 1.045 . S
C6937 N871 1.059 . S
C6941 N1003 1.054 . S
C6955 N904 1.051 . S
C6959 N1036 1.061 . S
C6973 N1267 1.061 . S
C6977 N1069 1.046 . S
C6991 N1102 1.060 . S
C6995 N1300 1.053 . S
C7009 N1201 1.061 . S
C7013 N1135 1.046 . S
C7027 N1234 1.046 . S
C7031 N1168 1.055 . S
C7045 N1333 1.061 . S
C7049 N3082 1.046 . S
C7063 N3016 1.045 . S
C7067 N1366 1.060 . S
C7081 N1399 1.054 . S
C7085 N1465 1.060 . S
C7099 N1432 1.050 . S
C7103 N2950 1.062 . S
C7117 N2917 1.045 . S
C7121 N1498 1.058 . S
C7135 N1531 1.060 . S
C7139 N3148 1.045 . S
C7153 N1564 1.053 . S
C7157 N3115 1.061 . S
C7171 N1597 1.053 . S
C7175 N1729 1.047 . S
C7189 N1630 1.045 . S
C7193 N1762 1.058 . S
C7207 N1663 1.053 . S
C7211 N1795 1.047 . S
C7225 N1696 1.045 . S
C7229 N1828 1.059 . S
C7243 N1861 1.045 . S
C7247 N2059 1.059 . S
C7261 N2092 1.051 . S
C7265 N1894 1.061 . S
C7279 N1927 1.052 . S
C7283 N1993 1.047 . S
C7297 N2026 1.049 . S
C7301 N1960 1.062 . S
C7315 N2257 1.045 . S
C7319 N2191 1.058 . S
C7333 N2521 1.045 . S
C7337 N2389 1.058 . S
C7351 N2554 1.051 . S
C7355 N2422 1.061 . S
C7369 N2455 1.046 . S
C7373 N2587 1.055 . S
C7387 N2488 1.048 . S
C7391 N2620 1.062 . S
C7405 N2653 1.056 . S
C7409 N2851 1.045 . S
C7423 N2884 1.062 . S
C7427 N2686 1.048 . S
C7441 N2719 1.045 . S
C7445 N2785 1.060 . S
C7459 N2752 1.062 . S
C7463 N2818 1.050 . S
C7477 N2983 1.056 . S
C7481 N3049 1.046 . S
