# Generated by pormake.
# Topology wmi, (6)-cn, num edge types: 1
# Building blocks:
#     Node 0, Type 0, BuildingBlock: JUFBIX_clean_sbu_0, # of connection points: 6
#     Node 1, Type 0, BuildingBlock: JUFBIX_clean_sbu_0, # of connection points: 6
#     Node 2, Type 0, BuildingBlock: JUFBIX_clean_sbu_0, # of connection points: 6
#     Node 3, Type 0, BuildingBlock: JUFBIX_clean_sbu_0, # of connection points: 6
#     Node 4, Type 0, BuildingBlock: JUFBIX_clean_sbu_0, # of connection points: 6
#     Node 5, Type 0, BuildingBlock: JUFBIX_clean_sbu_0, # of connection points: 6
#     Node 6, Type 0, BuildingBlock: JUFBIX_clean_sbu_0, # of connection points: 6
#     Node 7, Type 0, BuildingBlock: JUFBIX_clean_sbu_0, # of connection points: 6
#     Node 8, Type 0, BuildingBlock: JUFBIX_clean_sbu_0, # of connection points: 6
#     Node 9, Type 0, BuildingBlock: JUFBIX_clean_sbu_0, # of connection points: 6
#     Node 10, Type 0, BuildingBlock: JUFBIX_clean_sbu_0, # of connection points: 6
#     Node 11, Type 0, BuildingBlock: JUFBIX_clean_sbu_0, # of connection points: 6
#     Node 12, Type 0, BuildingBlock: JUFBIX_clean_sbu_0, # of connection points: 6
#     Node 13, Type 0, BuildingBlock: JUFBIX_clean_sbu_0, # of connection points: 6
#     Node 14, Type 0, BuildingBlock: JUFBIX_clean_sbu_0, # of connection points: 6
#     Node 15, Type 0, BuildingBlock: JUFBIX_clean_sbu_0, # of connection points: 6
#     Node 16, Type 0, BuildingBlock: JUFBIX_clean_sbu_0, # of connection points: 6
#     Node 17, Type 0, BuildingBlock: JUFBIX_clean_sbu_0, # of connection points: 6
#     Edge 18, Type (0, 0), BuildingBlock: OJICUG_clean_linker_0, # of connection points: 2
#     Edge 19, Type (0, 0), BuildingBlock: OJICUG_clean_linker_0, # of connection points: 2
#     Edge 20, Type (0, 0), BuildingBlock: OJICUG_clean_linker_0, # of connection points: 2
#     Edge 21, Type (0, 0), BuildingBlock: OJICUG_clean_linker_0, # of connection points: 2
#     Edge 22, Type (0, 0), BuildingBlock: OJICUG_clean_linker_0, # of connection points: 2
#     Edge 23, Type (0, 0), BuildingBlock: OJICUG_clean_linker_0, # of connection points: 2
#     Edge 24, Type (0, 0), BuildingBlock: OJICUG_clean_linker_0, # of connection points: 2
#     Edge 25, Type (0, 0), BuildingBlock: OJICUG_clean_linker_0, # of connection points: 2
#     Edge 26, Type (0, 0), BuildingBlock: OJICUG_clean_linker_0, # of connection points: 2
#     Edge 27, Type (0, 0), BuildingBlock: OJICUG_clean_linker_0, # of connection points: 2
#     Edge 28, Type (0, 0), BuildingBlock: OJICUG_clean_linker_0, # of connection points: 2
#     Edge 29, Type (0, 0), BuildingBlock: OJICUG_clean_linker_0, # of connection points: 2
#     Edge 30, Type (0, 0), BuildingBlock: OJICUG_clean_linker_0, # of connection points: 2
#     Edge 31, Type (0, 0), BuildingBlock: OJICUG_clean_linker_0, # of connection points: 2
#     Edge 32, Type (0, 0), BuildingBlock: OJICUG_clean_linker_0, # of connection points: 2
#     Edge 33, Type (0, 0), BuildingBlock: OJICUG_clean_linker_0, # of connection points: 2
#     Edge 34, Type (0, 0), BuildingBlock: OJICUG_clean_linker_0, # of connection points: 2
#     Edge 35, Type (0, 0), BuildingBlock: OJICUG_clean_linker_0, # of connection points: 2
#     Edge 36, Type (0, 0), BuildingBlock: OJICUG_clean_linker_0, # of connection points: 2
#     Edge 37, Type (0, 0), BuildingBlock: OJICUG_clean_linker_0, # of connection points: 2
#     Edge 38, Type (0, 0), BuildingBlock: OJICUG_clean_linker_0, # of connection points: 2
#     Edge 39, Type (0, 0), BuildingBlock: OJICUG_clean_linker_0, # of connection points: 2
#     Edge 40, Type (0, 0), BuildingBlock: OJICUG_clean_linker_0, # of connection points: 2
#     Edge 41, Type (0, 0), BuildingBlock: OJICUG_clean_linker_0, # of connection points: 2
#     Edge 42, Type (0, 0), BuildingBlock: OJICUG_clean_linker_0, # of connection points: 2
#     Edge 43, Type (0, 0), BuildingBlock: OJICUG_clean_linker_0, # of connection points: 2
#     Edge 44, Type (0, 0), BuildingBlock: OJICUG_clean_linker_0, # of connection points: 2
#     Edge 45, Type (0, 0), BuildingBlock: OJICUG_clean_linker_0, # of connection points: 2
#     Edge 46, Type (0, 0), BuildingBlock: OJICUG_clean_linker_0, # of connection points: 2
#     Edge 47, Type (0, 0), BuildingBlock: OJICUG_clean_linker_0, # of connection points: 2
#     Edge 48, Type (0, 0), BuildingBlock: OJICUG_clean_linker_0, # of connection points: 2
#     Edge 49, Type (0, 0), BuildingBlock: OJICUG_clean_linker_0, # of connection points: 2
#     Edge 50, Type (0, 0), BuildingBlock: OJICUG_clean_linker_0, # of connection points: 2
#     Edge 51, Type (0, 0), BuildingBlock: OJICUG_clean_linker_0, # of connection points: 2
#     Edge 52, Type (0, 0), BuildingBlock: OJICUG_clean_linker_0, # of connection points: 2
#     Edge 53, Type (0, 0), BuildingBlock: OJICUG_clean_linker_0, # of connection points: 2
#     Edge 54, Type (0, 0), BuildingBlock: OJICUG_clean_linker_0, # of connection points: 2
#     Edge 55, Type (0, 0), BuildingBlock: OJICUG_clean_linker_0, # of connection points: 2
#     Edge 56, Type (0, 0), BuildingBlock: OJICUG_clean_linker_0, # of connection points: 2
#     Edge 57, Type (0, 0), BuildingBlock: OJICUG_clean_linker_0, # of connection points: 2
#     Edge 58, Type (0, 0), BuildingBlock: OJICUG_clean_linker_0, # of connection points: 2
#     Edge 59, Type (0, 0), BuildingBlock: OJICUG_clean_linker_0, # of connection points: 2
#     Edge 60, Type (0, 0), BuildingBlock: OJICUG_clean_linker_0, # of connection points: 2
#     Edge 61, Type (0, 0), BuildingBlock: OJICUG_clean_linker_0, # of connection points: 2
#     Edge 62, Type (0, 0), BuildingBlock: OJICUG_clean_linker_0, # of connection points: 2
#     Edge 63, Type (0, 0), BuildingBlock: OJICUG_clean_linker_0, # of connection points: 2
#     Edge 64, Type (0, 0), BuildingBlock: OJICUG_clean_linker_0, # of connection points: 2
#     Edge 65, Type (0, 0), BuildingBlock: OJICUG_clean_linker_0, # of connection points: 2
#     Edge 66, Type (0, 0), BuildingBlock: OJICUG_clean_linker_0, # of connection points: 2
#     Edge 67, Type (0, 0), BuildingBlock: OJICUG_clean_linker_0, # of connection points: 2
#     Edge 68, Type (0, 0), BuildingBlock: OJICUG_clean_linker_0, # of connection points: 2
#     Edge 69, Type (0, 0), BuildingBlock: OJICUG_clean_linker_0, # of connection points: 2
#     Edge 70, Type (0, 0), BuildingBlock: OJICUG_clean_linker_0, # of connection points: 2
#     Edge 71, Type (0, 0), BuildingBlock: OJICUG_clean_linker_0, # of connection points: 2
# Relax obj value: 0.319
# Max RMSD: 0.244
# Mean RMSD: 0.244
data_MOF--net-wmi--node1-JUFBIX_clean_sbu_0--edge1-OJICUG_clean_linker_0
_symmetry_space_group_name_H-M    P1
_symmetry_Int_Tables_number       1
_symmetry_cell_setting            triclinic
loop_
_symmetry_equiv_pos_as_xyz
'x, y, z'
_cell_length_a     25.53831
_cell_length_b     25.514247
_cell_length_c     58.750624
_cell_angle_alpha  90.061681
_cell_angle_beta   89.975899
_cell_angle_gamma 120.08043
loop_
_atom_site_label
_atom_site_type_symbol
_atom_site_fract_x
_atom_site_fract_y
_atom_site_fract_z
_atom_type_partial_charge
Co0 Co 0.5101 0.99035 0.10583 0.0
C1 C 0.5227 0.05227 0.06491 0.0
Co2 Co 0.48438 0.05922 0.10766 0.0
C3 C 0.55682 0.90813 0.11437 0.0
C4 C 0.52401 0.90461 0.08054 0.0
N5 N 0.53054 0.93143 0.10102 0.0
N6 N 0.56833 0.86952 0.10261 0.0
C7 C 0.54756 0.86707 0.08143 0.0
H8 H 0.56707 0.91895 0.13222 0.0
H9 H 0.50285 0.91147 0.06578 0.0
C10 C 0.4606 0.99255 0.14758 0.0
N11 N 0.4641 0.11897 0.11143 0.0
C12 C 0.50228 0.17939 0.11228 0.0
C13 C 0.41036 0.11125 0.11844 0.0
N14 N 0.47506 0.20944 0.12008 0.0
C15 C 0.4169 0.1667 0.12368 0.0
C16 C 0.38883 0.94585 0.09714 0.0
O17 O 0.47855 0.96119 0.13651 0.0
O18 O 0.46983 0.0421 0.13898 0.0
O19 O 0.40088 0.99909 0.10243 0.0
O20 O 0.43212 0.93554 0.09496 0.0
O21 O 0.49627 0.07544 0.0758 0.0
H22 H 0.36979 0.06796 0.12099 0.0
H23 H 0.55012 0.20081 0.10866 0.0
O24 O 0.53745 0.01841 0.0755 0.0
O25 O 0.59014 0.04509 0.11684 0.0
O26 O 0.5691 0.11774 0.11341 0.0
C27 C 0.60782 0.1014 0.1174 0.0
H28 H 0.54685 0.8378 0.06792 0.0
H29 H 0.38189 0.17452 0.13035 0.0
Co30 Co 0.07614 0.5486 0.13645 0.0
C31 C 0.03116 0.51463 0.09224 0.0
Co32 Co 0.01053 0.45078 0.13242 0.0
C33 C 0.16418 0.672 0.12358 0.0
C34 C 0.13707 0.66486 0.15842 0.0
N35 N 0.1297 0.63136 0.13966 0.0
N36 N 0.19225 0.72959 0.13149 0.0
C37 C 0.17548 0.72502 0.1535 0.0
H38 H 0.16725 0.65964 0.10621 0.0
H39 H 0.11482 0.64682 0.17455 0.0
C40 C 0.06377 0.47954 0.17535 0.0
N41 N 0.95296 0.36723 0.12982 0.0
C42 C 0.89299 0.33987 0.1247 0.0
C43 C 0.96166 0.32125 0.13586 0.0
N44 N 0.86387 0.27873 0.12748 0.0
C45 C 0.90763 0.26738 0.13443 0.0
C46 C 0.13034 0.48406 0.12443 0.0
O47 O 0.09284 0.53337 0.16745 0.0
O48 O 0.01949 0.4394 0.16385 0.0
O49 O 0.07736 0.43784 0.12639 0.0
O50 O 0.13804 0.53679 0.1269 0.0
O51 O 0.00462 0.46192 0.10096 0.0
H52 H 1.00409 0.32669 0.14193 0.0
H53 H 0.87092 0.36467 0.11952 0.0
O54 O 0.06115 0.56052 0.10507 0.0
O55 O 0.01354 0.56157 0.146 0.0
O56 O 0.9463 0.46752 0.13819 0.0
C57 C 0.95871 0.52073 0.14378 0.0
H58 H 0.19023 0.76238 0.16532 0.0
H59 H 0.90109 0.22353 0.13914 0.0
Co60 Co 0.53146 0.54481 0.12872 0.0
C61 C 0.56923 0.54341 0.08341 0.0
Co62 Co 0.62889 0.58232 0.12338 0.0
C63 C 0.40586 0.5217 0.13248 0.0
C64 C 0.41369 0.44433 0.1243 0.0
N65 N 0.44708 0.50375 0.12988 0.0
N66 N 0.34869 0.47541 0.12901 0.0
C67 C 0.35382 0.42688 0.12401 0.0
H68 H 0.41762 0.56801 0.13596 0.0
H69 H 0.43154 0.4156 0.11924 0.0
C70 C 0.59469 0.59634 0.16737 0.0
N71 N 0.71272 0.61538 0.12223 0.0
C72 C 0.7417 0.58344 0.12038 0.0
C73 C 0.75528 0.67014 0.12997 0.0
N74 N 0.79954 0.61458 0.1277 0.0
C75 C 0.80856 0.66986 0.13329 0.0
C76 C 0.5885 0.66443 0.11889 0.0
O77 O 0.54058 0.57095 0.15979 0.0
O78 O 0.63573 0.59627 0.15513 0.0
O79 O 0.63595 0.65985 0.11938 0.0
O80 O 0.53642 0.61761 0.12081 0.0
O81 O 0.6223 0.57132 0.09169 0.0
H82 H 0.74679 0.70602 0.13498 0.0
H83 H 0.71927 0.53622 0.11569 0.0
O84 O 0.52407 0.52297 0.09682 0.0
O85 O 0.52706 0.47234 0.13759 0.0
O86 O 0.61928 0.50333 0.12714 0.0
C87 C 0.56908 0.46115 0.13423 0.0
H88 H 0.31721 0.38282 0.11894 0.0
H89 H 0.84937 0.70648 0.14064 0.0
Co90 Co 0.99674 0.51836 0.95103 0.0
C91 C 0.05028 0.52754 0.99389 0.0
Co92 Co 0.06028 0.48572 0.95229 0.0
C93 C 0.89297 0.53929 0.94779 0.0
C94 C 0.97666 0.61476 0.95884 0.0
N95 N 0.95148 0.55664 0.9517 0.0
N96 N 0.88166 0.5849 0.95202 0.0
C97 C 0.9343 0.63219 0.95892 0.0
H98 H 0.85937 0.49416 0.94238 0.0
H99 H 0.02296 0.64262 0.96447 0.0
C100 C 0.99958 0.46317 0.91079 0.0
N101 N 0.11188 0.45489 0.95175 0.0
C102 C 0.17209 0.48778 0.95509 0.0
C103 C 0.1023 0.40255 0.9424 0.0
N104 N 0.20117 0.45977 0.94718 0.0
C105 C 0.15721 0.4054 0.93957 0.0
C106 C 0.93949 0.39982 0.9617 0.0
O107 O 0.97047 0.48604 0.92029 0.0
O108 O 0.04619 0.46865 0.92078 0.0
O109 O 0.99201 0.40711 0.95806 0.0
O110 O 0.93256 0.44579 0.96202 0.0
O111 O 0.07272 0.49937 0.98383 0.0
H112 H 0.05907 0.36704 0.93618 0.0
H113 H 0.19481 0.53393 0.96123 0.0
O114 O 0.02042 0.54556 0.98222 0.0
O115 O 0.0607 0.59164 0.93922 0.0
O116 O 0.12809 0.56611 0.94618 0.0
C117 C 0.11559 0.60603 0.93992 0.0
H118 H 0.94106 0.67547 0.96469 0.0
H119 H 0.16421 0.37158 0.93123 0.0
Co120 Co 0.53882 0.52586 0.94289 0.0
C121 C 0.53705 0.56724 0.98723 0.0
Co122 Co 0.57586 0.62282 0.94646 0.0
C123 C 0.51594 0.40205 0.93677 0.0
C124 C 0.44087 0.40831 0.94956 0.0
N125 N 0.49865 0.44235 0.94227 0.0
N126 N 0.47089 0.34447 0.9403 0.0
C127 C 0.42368 0.3484 0.94825 0.0
H128 H 0.56083 0.41472 0.93076 0.0
H129 H 0.41327 0.42601 0.95617 0.0
C130 C 0.59148 0.58649 0.90347 0.0
N131 N 0.60887 0.70716 0.94645 0.0
C132 C 0.57698 0.73639 0.94543 0.0
C133 C 0.66582 0.74987 0.94092 0.0
N134 N 0.61071 0.7946 0.93872 0.0
C135 C 0.66713 0.80349 0.93623 0.0
C136 C 0.65706 0.58187 0.95335 0.0
O137 O 0.56839 0.53346 0.91202 0.0
O138 O 0.5884 0.62737 0.91474 0.0
O139 O 0.65373 0.62974 0.95039 0.0
O140 O 0.60942 0.53038 0.95268 0.0
O141 O 0.56649 0.6193 0.97818 0.0
H142 H 0.70305 0.74159 0.93855 0.0
H143 H 0.52868 0.71425 0.94777 0.0
O144 O 0.51432 0.52065 0.97444 0.0
O145 O 0.46726 0.51989 0.93241 0.0
O146 O 0.49613 0.61181 0.9429 0.0
C147 C 0.45492 0.56116 0.9356 0.0
H148 H 0.3808 0.31081 0.95377 0.0
H149 H 0.70614 0.84467 0.93029 0.0
Co150 Co 0.55061 0.07537 0.92213 0.0
C151 C 0.51729 0.03515 0.96688 0.0
Co152 Co 0.45372 0.01038 0.92675 0.0
C153 C 0.66995 0.16914 0.93464 0.0
C154 C 0.66772 0.13465 0.90119 0.0
N155 N 0.63204 0.13003 0.9189 0.0
N156 N 0.72802 0.19731 0.92763 0.0
C157 C 0.72683 0.17601 0.90651 0.0
H158 H 0.65541 0.17537 0.95123 0.0
H159 H 0.65193 0.10847 0.88566 0.0
C160 C 0.48116 0.05939 0.88327 0.0
N161 N 0.37157 0.95226 0.92968 0.0
C162 C 0.34678 0.89195 0.93334 0.0
C163 C 0.32387 0.96 0.92584 0.0
N164 N 0.28576 0.8616 0.93154 0.0
C165 C 0.27137 0.90475 0.92705 0.0
C166 C 0.48447 0.12898 0.93347 0.0
O167 O 0.53527 0.08895 0.89082 0.0
O168 O 0.44149 0.01633 0.89529 0.0
O169 O 0.43863 0.07581 0.93202 0.0
O170 O 0.53706 0.13699 0.93053 0.0
O171 O 0.46476 0.00699 0.9582 0.0
H172 H 0.32697 1.00269 0.92157 0.0
H173 H 0.37313 0.87019 0.93633 0.0
O174 O 0.56302 0.06401 0.95392 0.0
O175 O 0.56603 0.01312 0.91386 0.0
O176 O 0.47225 0.94693 0.9219 0.0
C177 C 0.52536 0.95853 0.9168 0.0
H178 H 0.76582 0.18953 0.89566 0.0
H179 H 0.2262 0.89724 0.92442 0.0
Co180 Co 0.15902 0.29691 0.47087 0.0
C181 C 0.16936 0.34015 0.42666 0.0
Co182 Co 0.13057 0.36475 0.467 0.0
C183 C 0.1875 0.20462 0.45833 0.0
C184 C 0.2129 0.23507 0.49265 0.0
N185 N 0.18506 0.24151 0.47426 0.0
N186 N 0.21658 0.17611 0.46594 0.0
C187 C 0.23228 0.19488 0.4876 0.0
H188 H 0.17009 0.20034 0.44122 0.0
H189 H 0.2202 0.25938 0.50851 0.0
C190 C 0.10535 0.31338 0.50988 0.0
N191 N 0.10713 0.42327 0.46414 0.0
C192 C 0.14275 0.48376 0.46091 0.0
C193 C 0.05121 0.41501 0.46725 0.0
N194 N 0.11153 0.51365 0.46217 0.0
C195 C 0.05367 0.47003 0.46595 0.0
C196 C 0.04061 0.24606 0.45925 0.0
O197 O 0.12806 0.28241 0.50202 0.0
O198 O 0.11134 0.35812 0.4983 0.0
O199 O 0.04956 0.29972 0.46131 0.0
O200 O 0.08418 0.23634 0.46182 0.0
O201 O 0.14609 0.36905 0.4356 0.0
H202 H 0.01128 0.37203 0.47095 0.0
H203 H 0.19115 0.50582 0.45848 0.0
O204 O 0.18453 0.30946 0.43935 0.0
O205 O 0.23634 0.358 0.4798 0.0
O206 O 0.21306 0.42764 0.47245 0.0
C207 C 0.25272 0.41342 0.4776 0.0
H208 H 0.25592 0.18049 0.49902 0.0
H209 H 0.01549 0.47698 0.46792 0.0
Co210 Co 0.70013 0.84886 0.46219 0.0
C211 C 0.65917 0.80779 0.41753 0.0
Co212 Co 0.64237 0.75171 0.45812 0.0
C213 C 0.80035 0.97424 0.46545 0.0
C214 C 0.71461 0.96566 0.4578 0.0
N215 N 0.74127 0.9328 0.46305 0.0
N216 N 0.8109 0.03117 0.46201 0.0
C217 C 0.75699 0.02579 0.45738 0.0
H218 H 0.83508 0.96276 0.46879 0.0
H219 H 0.6676 0.94712 0.4532 0.0
C220 C 0.69339 0.78821 0.50144 0.0
N221 N 0.59357 0.66754 0.45783 0.0
C222 C 0.53275 0.63632 0.45522 0.0
C223 C 0.60677 0.62792 0.46773 0.0
N224 N 0.507 0.57995 0.46411 0.0
C225 C 0.55388 0.57426 0.4716 0.0
C226 C 0.76551 0.79631 0.45147 0.0
O227 O 0.72214 0.84162 0.49315 0.0
O228 O 0.65011 0.74703 0.48998 0.0
O229 O 0.71489 0.74753 0.45422 0.0
O230 O 0.76796 0.84711 0.45257 0.0
O231 O 0.63717 0.75563 0.42642 0.0
H232 H 0.65103 0.6393 0.47403 0.0
H233 H 0.50738 0.65615 0.44838 0.0
O234 O 0.68133 0.85409 0.4305 0.0
O235 O 0.63205 0.85126 0.47246 0.0
O236 O 0.57129 0.75916 0.46149 0.0
C237 C 0.57895 0.80922 0.46875 0.0
H238 H 0.74935 0.06237 0.45256 0.0
H239 H 0.5503 0.53625 0.48106 0.0
Co240 Co 0.16839 0.85866 0.44181 0.0
C241 C 0.21522 0.84997 0.39943 0.0
Co242 Co 0.26459 0.88993 0.44144 0.0
C243 C 0.04485 0.83945 0.4467 0.0
C244 C 0.05129 0.76692 0.43127 0.0
N245 N 0.0852 0.82291 0.44027 0.0
N246 N 0.98741 0.7954 0.44213 0.0
C247 C 0.99161 0.75001 0.4324 0.0
H248 H 0.05724 0.8824 0.45467 0.0
H249 H 0.06893 0.7397 0.42421 0.0
C250 C 0.22403 0.91226 0.48241 0.0
N251 N 0.34702 0.91829 0.44323 0.0
C252 C 0.37302 0.88355 0.44185 0.0
C253 C 0.38972 0.97073 0.45257 0.0
N254 N 0.42892 0.91066 0.45098 0.0
C255 C 0.44012 0.96621 0.45734 0.0
C256 C 0.2331 0.97798 0.43176 0.0
O257 O 0.17268 0.89007 0.47248 0.0
O258 O 0.26524 0.90592 0.47293 0.0
O259 O 0.2777 0.9699 0.43582 0.0
O260 O 0.17992 0.93245 0.43093 0.0
O261 O 0.26552 0.87723 0.4098 0.0
H262 H 0.38272 0.00757 0.45758 0.0
H263 H 0.34931 0.83695 0.43624 0.0
O264 O 0.1669 0.83261 0.41074 0.0
O265 O 0.15547 0.78379 0.45338 0.0
O266 O 0.24876 0.80855 0.4474 0.0
C267 C 0.19562 0.76883 0.45309 0.0
H268 H 0.95423 0.70806 0.42604 0.0
H269 H 0.48023 0.99991 0.4661 0.0
Co270 Co 0.67532 0.83114 0.27628 0.0
C271 C 0.71679 0.83269 0.32136 0.0
Co272 Co 0.73788 0.79646 0.28085 0.0
C273 C 0.5731 0.8542 0.26997 0.0
C274 C 0.65378 0.92691 0.28433 0.0
N275 N 0.63016 0.87 0.27598 0.0
N276 N 0.56128 0.89958 0.27408 0.0
C277 C 0.61207 0.94517 0.28304 0.0
H278 H 0.54077 0.81023 0.26315 0.0
H279 H 0.69844 0.95332 0.29167 0.0
C280 C 0.68759 0.78234 0.23711 0.0
N281 N 0.79096 0.76584 0.2809 0.0
C282 C 0.8521 0.79936 0.28049 0.0
C283 C 0.77855 0.71015 0.27424 0.0
N284 N 0.87828 0.76803 0.2729 0.0
C285 C 0.83193 0.71131 0.26938 0.0
C286 C 0.61638 0.71128 0.28532 0.0
O287 O 0.65791 0.80619 0.24513 0.0
O288 O 0.72976 0.78348 0.24901 0.0
O289 O 0.66916 0.71775 0.28468 0.0
O290 O 0.6092 0.75704 0.28399 0.0
O291 O 0.74328 0.80643 0.31275 0.0
H292 H 0.73364 0.67249 0.27102 0.0
H293 H 0.87709 0.84744 0.28372 0.0
O294 O 0.69033 0.85169 0.30822 0.0
O295 O 0.74132 0.90503 0.2675 0.0
O296 O 0.80523 0.87661 0.27705 0.0
C297 C 0.79518 0.91759 0.27017 0.0
H298 H 0.61768 0.98763 0.28929 0.0
H299 H 0.83567 0.67401 0.26247 0.0
Co300 Co 0.2168 0.83248 0.2567 0.0
C301 C 0.20799 0.86572 0.30135 0.0
Co302 Co 0.25088 0.93055 0.26148 0.0
C303 C 0.1816 0.70898 0.26924 0.0
C304 C 0.16011 0.7161 0.23461 0.0
N305 N 0.187 0.74961 0.25329 0.0
N306 N 0.15184 0.65137 0.26134 0.0
C307 C 0.13866 0.65594 0.23945 0.0
H308 H 0.19785 0.72139 0.28651 0.0
H309 H 0.15526 0.73413 0.21859 0.0
C310 C 0.27341 0.90231 0.21806 0.0
N311 N 0.27721 0.01425 0.26445 0.0
C312 C 0.24443 0.04148 0.26951 0.0
C313 C 0.33209 0.06043 0.25865 0.0
N314 N 0.27649 0.10269 0.26691 0.0
C315 C 0.33187 0.11424 0.26016 0.0
C316 C 0.33615 0.89558 0.26866 0.0
O317 O 0.2477 0.84808 0.22561 0.0
O318 O 0.27063 0.94256 0.23 0.0
O319 O 0.33077 0.94271 0.2672 0.0
O320 O 0.29037 0.84357 0.2657 0.0
O321 O 0.23449 0.91875 0.29292 0.0
H322 H 0.36927 0.05518 0.25266 0.0
H323 H 0.19736 0.01654 0.27448 0.0
O324 O 0.19102 0.8202 0.28821 0.0
O325 O 0.14116 0.82016 0.24775 0.0
O326 O 0.16976 0.91428 0.25616 0.0
C327 C 0.12805 0.86141 0.2506 0.0
H328 H 0.11563 0.61859 0.22765 0.0
H329 H 0.36933 0.1582 0.25562 0.0
Co330 Co 0.21008 0.39073 0.28789 0.0
C331 C 0.15907 0.32816 0.32859 0.0
Co332 Co 0.11569 0.32227 0.28564 0.0
C333 C 0.341 0.46941 0.2818 0.0
C334 C 0.306 0.47739 0.31395 0.0
N335 N 0.28898 0.44935 0.29352 0.0
N336 N 0.38933 0.50714 0.2946 0.0
C337 C 0.3674 0.51245 0.31469 0.0
H338 H 0.34351 0.45655 0.26445 0.0
H339 H 0.27552 0.47231 0.32766 0.0
C340 C 0.16045 0.38933 0.24586 0.0
N341 N 0.03613 0.26304 0.28161 0.0
C342 C 0.01291 0.20266 0.28298 0.0
C343 C 0.99094 0.27011 0.27319 0.0
N344 N 0.95551 0.17166 0.27532 0.0
C345 C 0.94127 0.21406 0.2694 0.0
C346 C 0.13289 0.43532 0.29593 0.0
O347 O 0.20942 0.42057 0.25717 0.0
O348 O 0.11971 0.33971 0.25431 0.0
O349 O 0.09185 0.38211 0.29055 0.0
O350 O 0.18632 0.44547 0.29846 0.0
O351 O 0.10981 0.30555 0.31751 0.0
H352 H 0.99465 0.31309 0.26898 0.0
H353 H 0.03869 0.1818 0.28834 0.0
O354 O 0.20801 0.36211 0.31819 0.0
O355 O 0.23583 0.33609 0.27714 0.0
O356 O 0.14187 0.26346 0.28015 0.0
C357 C 0.19713 0.27976 0.27647 0.0
H358 H 0.39396 0.54187 0.32853 0.0
H359 H 0.89859 0.20549 0.26232 0.0
Co360 Co 0.83173 0.67262 0.79542 0.0
C361 C 0.83346 0.71228 0.75012 0.0
Co362 Co 0.79433 0.73253 0.79019 0.0
C363 C 0.8555 0.57048 0.79896 0.0
C364 C 0.93242 0.65619 0.79089 0.0
N365 N 0.87303 0.62964 0.79647 0.0
N366 N 0.90204 0.56015 0.79544 0.0
C367 C 0.95029 0.61412 0.79051 0.0
H368 H 0.80933 0.53557 0.80239 0.0
H369 H 0.96085 0.70292 0.78588 0.0
C370 C 0.77909 0.68287 0.83409 0.0
N371 N 0.76133 0.78328 0.78913 0.0
C372 C 0.7932 0.84423 0.78705 0.0
C373 C 0.70686 0.77123 0.79704 0.0
N374 N 0.76232 0.87115 0.79439 0.0
C375 C 0.70727 0.82496 0.80024 0.0
C376 C 0.7125 0.60998 0.78526 0.0
O377 O 0.80494 0.65465 0.82646 0.0
O378 O 0.77974 0.72459 0.82202 0.0
O379 O 0.71703 0.66203 0.78593 0.0
O380 O 0.75924 0.60473 0.78721 0.0
O381 O 0.80563 0.73744 0.75846 0.0
H382 H 0.67116 0.72691 0.80223 0.0
H383 H 0.84024 0.86892 0.78217 0.0
O384 O 0.854 0.68769 0.76353 0.0
O385 O 0.904 0.7408 0.80462 0.0
O386 O 0.87338 0.80225 0.7942 0.0
C387 C 0.91542 0.79414 0.80131 0.0
H388 H 0.9944 0.62197 0.78542 0.0
H389 H 0.67091 0.82933 0.80769 0.0
Co390 Co 0.38671 0.20527 0.77272 0.0
C391 C 0.32393 0.15483 0.73202 0.0
Co392 Co 0.31831 0.11063 0.77477 0.0
C393 C 0.46895 0.33447 0.78082 0.0
C394 C 0.47129 0.30453 0.74697 0.0
N395 N 0.44525 0.28459 0.76757 0.0
N396 N 0.5071 0.38447 0.76891 0.0
C397 C 0.50881 0.36576 0.74771 0.0
H398 H 0.45879 0.33419 0.79873 0.0
H399 H 0.46394 0.27618 0.73224 0.0
C400 C 0.38594 0.15484 0.81439 0.0
N401 N 0.25835 0.03053 0.77887 0.0
C402 C 0.19796 0.00833 0.7795 0.0
C403 C 0.26581 0.98477 0.78641 0.0
N404 N 0.16763 0.95132 0.78765 0.0
C405 C 0.21024 0.93605 0.79172 0.0
C406 C 0.43149 0.12851 0.76431 0.0
O407 O 0.41701 0.20387 0.80314 0.0
O408 O 0.33587 0.11443 0.8061 0.0
O409 O 0.37846 0.08717 0.7698 0.0
O410 O 0.44121 0.18186 0.76164 0.0
O411 O 0.30172 0.10524 0.74291 0.0
H412 H 0.309 0.98762 0.78924 0.0
H413 H 0.17675 0.03465 0.77542 0.0
O414 O 0.35749 0.20373 0.74257 0.0
O415 O 0.33242 0.23076 0.78403 0.0
O416 O 0.25998 0.13694 0.78026 0.0
C417 C 0.27618 0.19196 0.78445 0.0
H418 H 0.53761 0.39413 0.73408 0.0
H419 H 0.20226 0.89348 0.79874 0.0
Co420 Co 0.83011 0.21524 0.80292 0.0
C421 C 0.86102 0.20309 0.75852 0.0
Co422 Co 0.9277 0.24701 0.79817 0.0
C423 C 0.70642 0.18057 0.79095 0.0
C424 C 0.71493 0.16187 0.82581 0.0
N425 N 0.74765 0.18699 0.80682 0.0
N426 N 0.64921 0.15179 0.79919 0.0
C427 C 0.65466 0.14039 0.82122 0.0
H428 H 0.71805 0.19516 0.77348 0.0
H429 H 0.73353 0.15804 0.84185 0.0
C430 C 0.90253 0.27288 0.84128 0.0
N431 N 0.01113 0.27232 0.79443 0.0
C432 C 0.03811 0.23796 0.79322 0.0
C433 C 0.05777 0.32974 0.7938 0.0
N434 N 0.09945 0.2715 0.79199 0.0
C435 C 0.11146 0.32941 0.79223 0.0
C436 C 0.89459 0.33377 0.79052 0.0
O437 O 0.84825 0.24846 0.83379 0.0
O438 O 0.94171 0.26806 0.82944 0.0
O439 O 0.94072 0.32696 0.79226 0.0
O440 O 0.84199 0.28885 0.79331 0.0
O441 O 0.91409 0.22932 0.76686 0.0
H442 H 0.05352 0.36975 0.79477 0.0
H443 H 0.01327 0.18906 0.79372 0.0
O444 O 0.81584 0.18733 0.77167 0.0
O445 O 0.81683 0.13955 0.81253 0.0
O446 O 0.91008 0.16565 0.80387 0.0
C447 C 0.85717 0.12514 0.80987 0.0
H448 H 0.61782 0.11837 0.83326 0.0
H449 H 0.1559 0.36931 0.79134 0.0
Co450 Co 0.29945 0.15936 0.58931 0.0
C451 C 0.33935 0.1669 0.63406 0.0
Co452 Co 0.36471 0.12789 0.59408 0.0
C453 C 0.20537 0.18516 0.60143 0.0
C454 C 0.23962 0.21602 0.56787 0.0
N455 N 0.24448 0.18582 0.58581 0.0
N456 N 0.17695 0.21456 0.5941 0.0
C457 C 0.19814 0.23376 0.57291 0.0
H458 H 0.1993 0.16516 0.61816 0.0
H459 H 0.26568 0.22582 0.55235 0.0
C460 C 0.31631 0.10539 0.55059 0.0
N461 N 0.42287 0.10405 0.59728 0.0
C462 C 0.48332 0.13988 0.6005 0.0
C463 C 0.41486 0.04819 0.59408 0.0
N464 N 0.51342 0.10895 0.59907 0.0
C465 C 0.47003 0.05097 0.59525 0.0
C466 C 0.24617 0.03979 0.60082 0.0
O467 O 0.28621 0.12951 0.55801 0.0
O468 O 0.35945 0.1095 0.56271 0.0
O469 O 0.29927 0.04715 0.59933 0.0
O470 O 0.23811 0.08431 0.5978 0.0
O471 O 0.3676 0.14258 0.62545 0.0
H472 H 0.37201 0.00818 0.59028 0.0
H473 H 0.50534 0.18832 0.60292 0.0
O474 O 0.31057 0.1837 0.62105 0.0
O475 O 0.36165 0.23716 0.58095 0.0
O476 O 0.42795 0.21004 0.58928 0.0
C477 C 0.41623 0.25138 0.58403 0.0
H478 H 0.1845 0.25863 0.56181 0.0
H479 H 0.47735 0.01302 0.59306 0.0
Co480 Co 0.85663 0.16411 0.6178 0.0
C481 C 0.84776 0.21 0.66038 0.0
Co482 Co 0.88931 0.26039 0.61869 0.0
C483 C 0.83558 0.03923 0.61534 0.0
C484 C 0.7604 0.04792 0.62625 0.0
N485 N 0.81834 0.08059 0.61895 0.0
N486 N 0.79007 0.98245 0.61991 0.0
C487 C 0.74296 0.98807 0.62672 0.0
H488 H 0.88053 0.05055 0.60988 0.0
H489 H 0.73267 0.06663 0.6317 0.0
C490 C 0.91141 0.22057 0.57753 0.0
N491 N 0.91983 0.343 0.61765 0.0
C492 C 0.88679 0.37018 0.62088 0.0
C493 C 0.97159 0.38555 0.60792 0.0
N494 N 0.91411 0.42693 0.61254 0.0
C495 C 0.96823 0.43728 0.60476 0.0
C496 C 0.97543 0.22592 0.62818 0.0
O497 O 0.88862 0.16883 0.58723 0.0
O498 O 0.90557 0.26192 0.58721 0.0
O499 O 0.96821 0.27116 0.62434 0.0
O500 O 0.92933 0.17303 0.62891 0.0
O501 O 0.8763 0.26049 0.65023 0.0
H502 H 0.007 0.37779 0.60167 0.0
H503 H 0.84099 0.34678 0.62731 0.0
O504 O 0.82964 0.1618 0.64885 0.0
O505 O 0.78331 0.15419 0.60585 0.0
O506 O 0.80882 0.24731 0.61269 0.0
C507 C 0.76889 0.19469 0.60652 0.0
H508 H 0.6998 0.95173 0.63266 0.0
H509 H 1.00159 0.47782 0.59613 0.0
Co510 Co 0.84846 0.6988 0.60962 0.0
C511 C 0.80743 0.65418 0.6539 0.0
Co512 Co 0.75158 0.63883 0.6132 0.0
C513 C 0.97261 0.79951 0.60383 0.0
C514 C 0.9654 0.71718 0.61597 0.0
N515 N 0.93188 0.74174 0.60901 0.0
N516 N 0.02992 0.8113 0.60723 0.0
C517 C 0.02539 0.75954 0.61476 0.0
H518 H 0.96046 0.83236 0.59815 0.0
H519 H 0.94728 0.6715 0.62229 0.0
C520 C 0.78772 0.69317 0.57043 0.0
N521 N 0.66735 0.58768 0.61318 0.0
C522 C 0.63788 0.52641 0.61261 0.0
C523 C 0.62511 0.60191 0.60704 0.0
N524 N 0.57995 0.50174 0.60553 0.0
C525 C 0.57153 0.54942 0.60241 0.0
C526 C 0.79297 0.76082 0.62099 0.0
O527 O 0.84088 0.72228 0.57893 0.0
O528 O 0.74686 0.64859 0.58149 0.0
O529 O 0.74505 0.70966 0.61788 0.0
O530 O 0.84439 0.76474 0.61999 0.0
O531 O 0.75533 0.63158 0.64491 0.0
H532 H 0.63383 0.64745 0.60416 0.0
H533 H 0.65979 0.50028 0.61554 0.0
O534 O 0.85378 0.67832 0.64103 0.0
O535 O 0.85392 0.63322 0.59854 0.0
O536 O 0.76205 0.56987 0.60887 0.0
C537 C 0.81259 0.57943 0.60147 0.0
H538 H 0.06266 0.75358 0.62009 0.0
H539 H 0.53077 0.54722 0.59602 0.0
C540 C 0.62816 0.81951 0.09886 0.0
C541 C 0.58582 0.82822 0.11107 0.0
H542 H 0.66296 0.75999 0.09206 0.0
C543 C 0.55088 0.78706 0.12804 0.0
H544 H 0.65495 0.85088 0.08554 0.0
C545 C 0.55389 0.7346 0.13121 0.0
C546 C 0.59293 0.72365 0.11779 0.0
H547 H 0.51746 0.79282 0.13733 0.0
H548 H 0.52383 0.7013 0.14345 0.0
C549 C 0.63235 0.76769 0.10243 0.0
C550 C 0.31447 0.83623 0.09176 0.0
C551 C 0.32769 0.89289 0.10054 0.0
H552 H 0.26162 0.73993 0.09486 0.0
C553 C 0.28969 0.89486 0.1174 0.0
H554 H 0.34329 0.83323 0.0789 0.0
C555 C 0.24323 0.84117 0.12681 0.0
C556 C 0.23346 0.7844 0.11942 0.0
H557 H 0.29914 0.93767 0.12479 0.0
H558 H 0.21676 0.84429 0.14057 0.0
C559 C 0.2678 0.78261 0.10104 0.0
C560 C 0.18366 0.42569 0.12995 0.0
C561 C 0.18474 0.47855 0.1228 0.0
H562 H 0.23592 0.3842 0.13837 0.0
C563 C 0.2405 0.53014 0.1174 0.0
H564 H 0.1415 0.38576 0.13464 0.0
C565 C 0.29441 0.52954 0.11978 0.0
C566 C 0.29359 0.47725 0.12748 0.0
H567 H 0.24267 0.57168 0.11185 0.0
H568 H 0.33659 0.56976 0.11542 0.0
C569 C 0.23771 0.42511 0.13231 0.0
C570 C 0.77139 0.53032 0.95729 0.0
C571 C 0.82496 0.58358 0.95183 0.0
H572 H 0.67629 0.48856 0.96277 0.0
C573 C 0.82337 0.63709 0.94773 0.0
H574 H 0.77161 0.48884 0.9609 0.0
C575 C 0.76913 0.63742 0.94913 0.0
C576 C 0.71551 0.58409 0.95453 0.0
H577 H 0.86412 0.67867 0.94325 0.0
H578 H 0.76901 0.67896 0.94544 0.0
C579 C 0.71712 0.53058 0.95868 0.0
C580 C 0.53083 0.23834 0.94186 0.0
C581 C 0.47867 0.18274 0.93684 0.0
H582 H 0.56913 0.33343 0.94682 0.0
C583 C 0.4236 0.18089 0.93315 0.0
H584 H 0.574 0.24111 0.94493 0.0
C585 C 0.42118 0.23428 0.93403 0.0
C586 C 0.47373 0.28999 0.93864 0.0
H587 H 0.38301 0.13872 0.92899 0.0
H588 H 0.37847 0.23218 0.93074 0.0
C589 C 0.52839 0.29142 0.9427 0.0
C590 C 0.83725 0.24746 0.93609 0.0
C591 C 0.78031 0.24175 0.93988 0.0
H592 H 0.93282 0.30113 0.94099 0.0
C593 C 0.77581 0.28244 0.95476 0.0
H594 H 0.84182 0.21596 0.92507 0.0
C595 C 0.82788 0.33112 0.96402 0.0
C596 C 0.8853 0.3396 0.95873 0.0
H597 H 0.73252 0.27908 0.95803 0.0
H598 H 0.82347 0.36443 0.97401 0.0
C599 C 0.88926 0.29567 0.94557 0.0
C600 C 0.28357 0.07998 0.44977 0.0
C601 C 0.23918 0.03818 0.43489 0.0
H602 H 0.31072 0.15663 0.47156 0.0
C603 C 0.19196 0.04778 0.42797 0.0
H604 H 0.32007 0.07343 0.45568 0.0
C605 C 0.18638 0.09521 0.43723 0.0
C606 C 0.22758 0.13355 0.45375 0.0
H607 H 0.15684 0.01601 0.41665 0.0
H608 H 0.14748 0.09916 0.43262 0.0
C609 C 0.27756 0.12696 0.45924 0.0
C610 C 0.97415 0.13746 0.45051 0.0
C611 C 0.97992 0.19325 0.45688 0.0
H612 H 0.9157 0.04194 0.44735 0.0
C613 C 0.92877 0.19544 0.4641 0.0
H614 H 0.01297 0.13458 0.44476 0.0
C615 C 0.87312 0.14201 0.46581 0.0
C616 C 0.86805 0.08594 0.46032 0.0
H617 H 0.9323 0.23778 0.46941 0.0
H618 H 0.83441 0.14429 0.47204 0.0
C619 C 0.91879 0.08429 0.45229 0.0
C620 C 0.87768 0.74159 0.44911 0.0
C621 C 0.93226 0.79615 0.44555 0.0
H622 H 0.78178 0.69859 0.45354 0.0
C623 C 0.9315 0.85049 0.44394 0.0
H624 H 0.87721 0.69911 0.45075 0.0
C625 C 0.87695 0.85016 0.44547 0.0
C626 C 0.82223 0.79546 0.44875 0.0
H627 H 0.97279 0.89294 0.44092 0.0
H628 H 0.87779 0.89292 0.44406 0.0
C629 C 0.82308 0.7412 0.45066 0.0
C630 C 0.39603 0.84508 0.27579 0.0
C631 C 0.3949 0.89888 0.27159 0.0
H632 H 0.4499 0.80312 0.27957 0.0
C633 C 0.44941 0.9529 0.26798 0.0
H634 H 0.35466 0.80254 0.2787 0.0
C635 C 0.50405 0.95279 0.2683 0.0
C636 C 0.50489 0.89874 0.27224 0.0
H637 H 0.44975 0.9947 0.26436 0.0
H638 H 0.54566 0.99489 0.26524 0.0
C639 C 0.45041 0.845 0.27601 0.0
C640 C 0.17523 0.59863 0.29162 0.0
C641 C 0.1388 0.5966 0.27332 0.0
H642 H 0.20043 0.5484 0.31378 0.0
C643 C 0.09187 0.53966 0.26599 0.0
H644 H 0.21173 0.64141 0.29776 0.0
C645 C 0.08486 0.48611 0.27543 0.0
C646 C 0.12496 0.48835 0.29229 0.0
H647 H 0.06203 0.53629 0.25229 0.0
H648 H 0.05143 0.44319 0.26813 0.0
C649 C 0.16848 0.54516 0.30094 0.0
C650 C 0.51744 0.63999 0.26861 0.0
C651 C 0.5629 0.65122 0.28452 0.0
H652 H 0.42521 0.58163 0.25887 0.0
C653 C 0.55421 0.60692 0.30045 0.0
H654 H 0.52412 0.67362 0.25593 0.0
C655 C 0.49759 0.55471 0.30217 0.0
C656 C 0.45024 0.54619 0.28763 0.0
H657 H 0.58921 0.61492 0.31268 0.0
H658 H 0.48905 0.52338 0.31599 0.0
C659 C 0.4615 0.58722 0.26998 0.0
C660 C 0.95284 0.50004 0.79864 0.0
C661 C 0.90064 0.50343 0.79373 0.0
H662 H 0.99252 0.4435 0.80096 0.0
C663 C 0.84875 0.45188 0.78576 0.0
H664 H 0.99346 0.53928 0.80489 0.0
C665 C 0.84852 0.39756 0.78324 0.0
C666 C 0.90009 0.39367 0.7888 0.0
H667 H 0.80853 0.45363 0.78131 0.0
H668 H 0.80725 0.35806 0.77751 0.0
C669 C 0.95264 0.44557 0.79615 0.0
C670 C 0.64215 0.50518 0.79752 0.0
C671 C 0.65337 0.55514 0.78403 0.0
H672 H 0.58362 0.4105 0.8037 0.0
C673 C 0.60963 0.55051 0.76855 0.0
H674 H 0.67523 0.50847 0.80985 0.0
C675 C 0.55777 0.49447 0.76495 0.0
C676 C 0.54873 0.44342 0.77726 0.0
H677 H 0.61758 0.58885 0.75814 0.0
H678 H 0.52656 0.48985 0.75158 0.0
C679 C 0.58964 0.44967 0.79433 0.0
C680 C 0.4835 0.08276 0.78551 0.0
C681 C 0.48493 0.12138 0.76818 0.0
H682 H 0.53466 0.06231 0.80908 0.0
C683 C 0.54137 0.16468 0.75922 0.0
H684 H 0.44091 0.04965 0.79308 0.0
C685 C 0.59522 0.17258 0.7686 0.0
C686 C 0.59399 0.13763 0.7873 0.0
H687 H 0.54401 0.19558 0.74603 0.0
H688 H 0.63769 0.20884 0.76215 0.0
C689 C 0.53743 0.09098 0.79503 0.0
C690 C 0.07873 0.27834 0.61126 0.0
C691 C 0.03536 0.23144 0.62493 0.0
H692 H 0.15766 0.30927 0.59048 0.0
C693 C 0.04395 0.18275 0.63061 0.0
H694 H 0.07312 0.31613 0.60632 0.0
C695 C 0.09231 0.17874 0.62141 0.0
C696 C 0.13258 0.22298 0.60615 0.0
H697 H 0.01104 0.14571 0.64096 0.0
H698 H 0.09579 0.13904 0.62508 0.0
C699 C 0.12659 0.27389 0.60182 0.0
C700 C 0.73735 0.81717 0.61729 0.0
C701 C 0.79073 0.81699 0.62252 0.0
H702 H 0.69609 0.87085 0.61151 0.0
C703 C 0.84426 0.87222 0.62665 0.0
H704 H 0.69579 0.77542 0.61363 0.0
C705 C 0.84451 0.92679 0.6253 0.0
C706 C 0.79125 0.92699 0.6199 0.0
H707 H 0.8863 0.87346 0.63062 0.0
H708 H 0.88603 0.96863 0.62882 0.0
C709 C 0.73768 0.87177 0.61593 0.0
C710 C 0.13739 0.97717 0.60984 0.0
C711 C 0.19246 0.98026 0.6043 0.0
H712 H 0.04242 0.92079 0.61501 0.0
C713 C 0.19361 0.92685 0.60005 0.0
H714 H 0.13522 0.01775 0.61337 0.0
C715 C 0.13994 0.87118 0.6008 0.0
C716 C 0.08471 0.86843 0.60583 0.0
H717 H 0.23538 0.9282 0.59549 0.0
H718 H 0.14141 0.8304 0.59704 0.0
C719 C 0.08405 0.92182 0.61053 0.0
C720 C 0.56984 0.04557 1.02815 0.0
C721 C 0.52745 0.05585 0.03975 0.0
H722 H 0.60098 0.03216 0.99572 0.0
C723 C 0.48417 0.0617 1.02706 0.0
H724 H 0.60349 0.04046 0.03755 0.0
C725 C 0.48138 0.0546 1.00345 0.0
C726 C 0.52281 0.04315 0.99186 0.0
H727 H 0.45051 0.06891 0.03546 0.0
H728 H 0.44649 0.05797 0.99419 0.0
C729 C 0.56826 0.04042 1.0043 0.0
C730 C 0.05081 0.48197 1.03119 0.0
C731 C 0.0495 0.52883 1.01915 0.0
H732 H 0.04419 0.44025 0.06337 0.0
C733 C 0.04212 0.57217 1.03143 0.0
H734 H 0.05562 0.44737 1.02232 0.0
C735 C 0.03684 0.56875 0.05534 0.0
C736 C 0.03624 0.52048 0.06712 0.0
H737 H 0.0405 0.60854 1.02257 0.0
H738 H 0.03191 0.60286 0.06452 0.0
C739 C 0.04342 0.4774 0.05475 0.0
C740 C 0.49882 0.50946 1.02417 0.0
C741 C 0.54151 0.56094 1.01212 0.0
H742 H 0.47348 0.46357 0.05651 0.0
C743 C 0.59356 0.60456 1.02358 0.0
H744 H 0.45869 0.47473 1.01568 0.0
C745 C 0.60328 0.59684 0.04637 0.0
C746 C 0.56047 0.54608 0.0586 0.0
H747 H 0.62797 0.64417 1.01473 0.0
H748 H 0.64388 0.6317 0.05459 0.0
C749 C 0.50761 0.50273 0.04739 0.0
C750 C 0.11478 0.32368 0.39008 0.0
C751 C 0.16714 0.33343 0.40164 0.0
H752 H 0.07034 0.31193 0.35805 0.0
C753 C 0.21504 0.33578 0.38912 0.0
H754 H 0.07672 0.32063 0.39941 0.0
C755 C 0.21181 0.33196 0.36525 0.0
C756 C 0.15969 0.32337 0.35369 0.0
H757 H 0.2556 0.34274 0.39768 0.0
H758 H 0.25039 0.33671 0.35581 0.0
C759 C 0.11075 0.31786 0.36643 0.0
C760 C 0.67797 0.86504 0.38047 0.0
C761 C 0.67148 0.81476 0.39271 0.0
H762 H 0.69682 0.91005 0.348 0.0
C763 C 0.68321 0.77297 0.38151 0.0
H764 H 0.67009 0.89842 0.38875 0.0
C765 C 0.70111 0.78106 0.35873 0.0
C766 C 0.70624 0.83031 0.34626 0.0
H767 H 0.67995 0.73442 0.39053 0.0
H768 H 0.70909 0.74747 0.35068 0.0
C769 C 0.69396 0.87205 0.35729 0.0
C770 C 0.25949 0.90032 0.33865 0.0
C771 C 0.20805 0.85884 0.32636 0.0
H772 H 0.30277 0.92842 0.37103 0.0
C773 C 0.15978 0.81109 0.33811 0.0
H774 H 0.29787 0.93696 0.33 0.0
C775 C 0.16206 0.80685 0.36194 0.0
C776 C 0.21371 0.84882 0.37418 0.0
H777 H 0.11988 0.77819 0.32897 0.0
H778 H 0.12347 0.77113 0.37081 0.0
C779 C 0.26265 0.8949 0.36216 0.0
C780 C 0.8733 0.69072 0.71395 0.0
C781 C 0.83018 0.70024 0.72529 0.0
H782 H 0.90063 0.66932 0.68217 0.0
C783 C 0.77901 0.69157 0.71319 0.0
H784 H 0.91276 0.69624 0.72295 0.0
C785 C 0.77072 0.6735 0.69043 0.0
C786 C 0.81414 0.66513 0.67883 0.0
H787 H 0.74428 0.69725 0.7215 0.0
H788 H 0.73083 0.66784 0.6817 0.0
C789 C 0.86599 0.67459 0.69075 0.0
C790 C 0.31926 0.11092 0.67046 0.0
C791 C 0.33109 0.16414 0.65901 0.0
H792 H 0.30536 0.06547 0.70237 0.0
C793 C 0.3345 0.2125 0.67159 0.0
H794 H 0.31538 0.07252 0.66108 0.0
C795 C 0.32982 0.20882 0.69544 0.0
C796 C 0.31946 0.15592 0.70691 0.0
H797 H 0.34308 0.25374 0.66311 0.0
H798 H 0.33553 0.24775 0.70494 0.0
C799 C 0.31272 0.10654 0.69408 0.0
C800 C 0.89045 0.25778 0.69783 0.0
C801 C 0.84567 0.20816 0.68562 0.0
H802 H 0.93086 0.29378 0.73014 0.0
C803 C 0.80408 0.15607 0.69773 0.0
H804 H 0.9236 0.29836 0.6891 0.0
C805 C 0.80757 0.15397 0.72162 0.0
C806 C 0.85417 0.20297 0.73352 0.0
H807 H 0.7693 0.11699 0.68875 0.0
H808 H 0.77512 0.11367 0.73066 0.0
C809 C 0.89512 0.25487 0.72136 0.0
C810 C 0.35445 0.98504 0.19437 0.0
C811 C 0.31841 0.92266 0.19887 0.0
H812 H 0.42827 0.05545 0.17599 0.0
C813 C 0.33267 0.88287 0.18726 0.0
H814 H 0.34616 0.01764 0.20306 0.0
C815 C 0.38109 0.90511 0.17148 0.0
C816 C 0.41695 0.96777 0.16714 0.0
H817 H 0.30671 0.83462 0.19046 0.0
H818 H 0.38932 0.87317 0.16226 0.0
C819 C 0.40271 0.00705 0.17898 0.0
C820 C 0.14253 0.49911 0.20618 0.0
C821 C 0.08879 0.45919 0.1944 0.0
H822 H 0.20842 0.50895 0.23141 0.0
C823 C 0.0629 0.39677 0.19869 0.0
H824 H 0.16447 0.54742 0.20315 0.0
C825 C 0.08915 0.37484 0.21408 0.0
C826 C 0.14218 0.41424 0.22617 0.0
H827 H 0.02232 0.36406 0.18984 0.0
H828 H 0.06659 0.3264 0.21691 0.0
C829 C 0.16865 0.47694 0.222 0.0
C830 C 0.69913 0.71414 0.20965 0.0
C831 C 0.66446 0.73922 0.21761 0.0
H832 H 0.70351 0.64803 0.18874 0.0
C833 C 0.60431 0.71381 0.2099 0.0
H834 H 0.74524 0.73161 0.21543 0.0
C835 C 0.57974 0.66458 0.19463 0.0
C836 C 0.61473 0.63957 0.18683 0.0
H837 H 0.57577 0.73094 0.21607 0.0
H838 H 0.53395 0.64715 0.18852 0.0
C839 C 0.67469 0.66515 0.19463 0.0
C840 C 0.01053 0.39813 0.88129 0.0
C841 C 0.97403 0.4185 0.89152 0.0
H842 H 0.01681 0.3361 0.85859 0.0
C843 C 0.91192 0.38783 0.88593 0.0
H844 H 0.05827 0.41949 0.88534 0.0
C845 C 0.8875 0.3386 0.87047 0.0
C846 C 0.92446 0.31841 0.86034 0.0
H847 H 0.88189 0.40085 0.8939 0.0
H848 H 0.83987 0.31688 0.86624 0.0
C849 C 0.98632 0.34919 0.86611 0.0
C850 C 0.658 0.66578 0.87553 0.0
C851 C 0.63511 0.60675 0.88407 0.0
H852 H 0.72242 0.73664 0.85432 0.0
C853 C 0.66289 0.5737 0.87697 0.0
H854 H 0.63871 0.69323 0.88079 0.0
C855 C 0.71218 0.59928 0.86169 0.0
C856 C 0.73507 0.65865 0.85335 0.0
H857 H 0.64755 0.52871 0.8836 0.0
H858 H 0.73147 0.57214 0.85608 0.0
C859 C 0.70709 0.69129 0.86058 0.0
C860 C 0.37393 0.08137 0.84493 0.0
C861 C 0.41195 0.13601 0.83349 0.0
H862 H 0.3656 0.01368 0.86826 0.0
C863 C 0.47473 0.16423 0.83767 0.0
H864 H 0.32551 0.05741 0.84203 0.0
C865 C 0.49832 0.13846 0.853 0.0
C866 C 0.45978 0.08338 0.86425 0.0
H867 H 0.50574 0.20535 0.82871 0.0
H868 H 0.54658 0.16194 0.85618 0.0
C869 C 0.39729 0.05548 0.85982 0.0
C870 C 0.98727 0.20743 0.55344 0.0
C871 C 0.95715 0.23957 0.55873 0.0
H872 H 0.05867 0.20566 0.5344 0.0
C873 C 0.97913 0.29705 0.54879 0.0
H874 H 0.97297 0.16386 0.56124 0.0
C875 C 0.02915 0.32175 0.53421 0.0
C876 C 0.05926 0.2899 0.52867 0.0
H877 H 0.95825 0.32398 0.55263 0.0
H878 H 0.04345 0.36585 0.52689 0.0
C879 C 0.03748 0.23213 0.53849 0.0
C880 C 0.77778 0.80301 0.52847 0.0
C881 C 0.71753 0.76828 0.52075 0.0
H882 H 0.84829 0.80652 0.54978 0.0
C883 C 0.68303 0.70834 0.52866 0.0
H884 H 0.80628 0.84883 0.52236 0.0
C885 C 0.70759 0.6836 0.5435 0.0
C886 C 0.76758 0.71785 0.55136 0.0
H887 H 0.63684 0.67956 0.52296 0.0
H888 H 0.67867 0.63739 0.54917 0.0
C889 C 0.80243 0.77818 0.5437 0.0
C890 C 0.29998 0.97928 0.51148 0.0
C891 C 0.24294 0.95796 0.50127 0.0
H892 H 0.36835 0.04289 0.53374 0.0
C893 C 0.21129 0.98869 0.50637 0.0
H894 H 0.32657 0.95797 0.50778 0.0
C895 C 0.23596 0.03876 0.52144 0.0
C896 C 0.29321 0.05977 0.53159 0.0
H897 H 0.16812 0.97494 0.49835 0.0
H898 H 0.2098 0.06036 0.5254 0.0
C899 C 0.32464 0.02914 0.52619 0.0
C900 C 0.50289 0.35484 0.14636 0.0
C901 C 0.55417 0.39754 0.13435 0.0
H902 H 0.4379 0.26168 0.15143 0.0
C903 C 0.58271 0.37736 0.11916 0.0
H904 H 0.48013 0.36926 0.15825 0.0
C905 C 0.55754 0.31545 0.1148 0.0
C906 C 0.50375 0.27284 0.12572 0.0
H907 H 0.62189 0.40941 0.10947 0.0
H908 H 0.57861 0.30134 0.10209 0.0
C909 C 0.47805 0.2932 0.14214 0.0
C910 C 0.717 0.12922 0.12211 0.0
C911 C 0.67335 0.14734 0.12089 0.0
H912 H 0.8104 0.15552 0.12447 0.0
C913 C 0.6936 0.20985 0.12184 0.0
H914 H 0.70353 0.08169 0.12119 0.0
C915 C 0.75564 0.25285 0.12391 0.0
C916 C 0.7995 0.23472 0.12501 0.0
H917 H 0.6615 0.22574 0.12088 0.0
H918 H 0.76889 0.30023 0.12481 0.0
C919 C 0.77885 0.17203 0.12404 0.0
C920 C 0.88758 0.61916 0.14764 0.0
C921 C 0.83808 0.58942 0.13269 0.0
H922 H 0.96356 0.61987 0.16336 0.0
C923 C 0.82546 0.5332 0.12345 0.0
H924 H 0.89845 0.66168 0.15555 0.0
C925 C 0.86183 0.50822 0.12861 0.0
C926 C 0.91249 0.53931 0.14278 0.0
H927 H 0.78846 0.50883 0.11169 0.0
H928 H 0.85221 0.46621 0.12044 0.0
C929 C 0.92447 0.5946 0.15249 0.0
C930 C 0.36852 0.56731 0.95201 0.0
C931 C 0.3909 0.54416 0.93543 0.0
H932 H 0.29069 0.55653 0.96964 0.0
C933 C 0.35013 0.4948 0.92206 0.0
H934 H 0.39914 0.60442 0.96291 0.0
C935 C 0.28806 0.46727 0.92585 0.0
C936 C 0.26539 0.48818 0.94324 0.0
H937 H 0.36645 0.47587 0.90925 0.0
H938 H 0.25811 0.42931 0.91522 0.0
C939 C 0.30634 0.53927 0.95602 0.0
C940 C 0.5079 0.86011 0.93251 0.0
C941 C 0.5433 0.91191 0.91931 0.0
H942 H 0.50223 0.78445 0.94999 0.0
C943 C 0.60062 0.92365 0.91198 0.0
H944 H 0.4641 0.85036 0.93887 0.0
C945 C 0.62263 0.88529 0.9182 0.0
C946 C 0.58819 0.8345 0.93216 0.0
H947 H 0.62925 0.96352 0.90192 0.0
H948 H 0.66685 0.89594 0.91213 0.0
C949 C 0.53021 0.8223 0.93902 0.0
C950 C 0.26232 0.75759 0.94275 0.0
C951 C 0.24495 0.79659 0.93249 0.0
H952 H 0.23557 0.6665 0.95288 0.0
C953 C 0.18652 0.77076 0.9231 0.0
H954 H 0.3067 0.77543 0.95026 0.0
C955 C 0.14599 0.70863 0.92472 0.0
C956 C 0.16254 0.67002 0.93559 0.0
H957 H 0.17155 0.79839 0.91453 0.0
H958 H 0.10093 0.69097 0.91776 0.0
C959 C 0.22161 0.69494 0.94421 0.0
C960 C 0.12156 0.66554 0.46735 0.0
C961 C 0.17804 0.70473 0.45742 0.0
H962 H 0.05695 0.57552 0.47709 0.0
C963 C 0.21392 0.68059 0.44999 0.0
H964 H 0.09284 0.68261 0.4734 0.0
C965 C 0.1926 0.61814 0.45169 0.0
C966 C 0.13508 0.57852 0.46104 0.0
H967 H 0.25748 0.70952 0.44211 0.0
H968 H 0.22065 0.60097 0.44511 0.0
C969 C 0.10058 0.60359 0.46924 0.0
C970 C 0.42216 0.4784 0.47439 0.0
C971 C 0.44321 0.53909 0.46845 0.0
H972 H 0.34647 0.39208 0.48261 0.0
C973 C 0.40091 0.55932 0.46748 0.0
H974 H 0.45274 0.46072 0.47525 0.0
C975 C 0.33927 0.51946 0.47157 0.0
C976 C 0.31839 0.45853 0.47694 0.0
H977 H 0.41493 0.60588 0.46354 0.0
H978 H 0.30786 0.53608 0.46996 0.0
C979 C 0.36083 0.43887 0.4787 0.0
C980 C 0.48716 0.80121 0.45051 0.0
C981 C 0.53115 0.82535 0.46769 0.0
H982 H 0.42216 0.81113 0.43096 0.0
C983 C 0.53823 0.87539 0.48025 0.0
H984 H 0.48171 0.76351 0.44023 0.0
C985 C 0.50443 0.90291 0.47494 0.0
C986 C 0.4629 0.88128 0.45683 0.0
H987 H 0.57218 0.89516 0.49351 0.0
H988 H 0.51164 0.94165 0.48489 0.0
C989 C 0.45362 0.82913 0.44503 0.0
C990 C 0.95807 0.763 0.25042 0.0
C991 C 0.94087 0.79345 0.26606 0.0
H992 H 0.03062 0.76157 0.2327 0.0
C993 C 0.98579 0.85041 0.27429 0.0
H994 H 0.92508 0.71993 0.24321 0.0
C995 C 0.0462 0.87525 0.26761 0.0
C996 C 0.06349 0.84333 0.25285 0.0
H997 H 0.97496 0.8753 0.28649 0.0
H998 H 0.07982 0.91775 0.27513 0.0
C999 C 0.01861 0.78748 0.244 0.0
C1000 C 0.19387 0.12834 0.27032 0.0
C1001 C 0.25595 0.1466 0.2693 0.0
H1002 H 0.12662 0.15524 0.27317 0.0
C1003 C 0.29789 0.20935 0.27025 0.0
H1004 H 0.15976 0.08091 0.26946 0.0
C1005 C 0.27871 0.25206 0.27207 0.0
C1006 C 0.21685 0.23382 0.27317 0.0
H1007 H 0.34601 0.22602 0.26988 0.0
H1008 H 0.31273 0.29962 0.27296 0.0
C1009 C 0.17467 0.17124 0.27228 0.0
C1010 C 0.89364 0.00463 0.28273 0.0
C1011 C 0.84311 0.9811 0.26834 0.0
H1012 H 0.96803 0.08417 0.29691 0.0
C1013 C 0.83307 0.02064 0.25491 0.0
H1014 H 0.90181 0.97494 0.29346 0.0
C1015 C 0.87091 0.08295 0.25674 0.0
C1016 C 0.91926 0.10713 0.27225 0.0
H1017 H 0.79444 1.0034 0.24358 0.0
H1018 H 0.86138 0.112 0.24627 0.0
C1019 C 0.93126 0.06725 0.28478 0.0
C1020 C 0.84354 0.97852 0.78968 0.0
C1021 C 0.78763 0.93511 0.79917 0.0
H1022 H 0.91052 0.07228 0.78634 0.0
C1023 C 0.75839 0.95535 0.81414 0.0
H1024 H 0.8675 0.96552 0.77789 0.0
C1025 C 0.78317 0.01703 0.81883 0.0
C1026 C 0.83819 0.06013 0.80891 0.0
H1027 H 0.71612 0.92387 0.82223 0.0
H1028 H 0.75831 0.03118 0.82975 0.0
C1029 C 0.86874 0.04011 0.79467 0.0
C1030 C 0.08323 0.87082 0.80962 0.0
C1031 C 0.1041 0.91676 0.79312 0.0
H1032 H 0.00676 0.7971 0.82566 0.0
C1033 C 0.06182 0.92795 0.78198 0.0
H1034 H 0.11439 0.86211 0.81908 0.0
C1035 C 0.99982 0.8914 0.78622 0.0
C1036 C 0.97915 0.84282 0.80151 0.0
H1037 H 0.07623 0.963 0.76921 0.0
H1038 H 0.96807 0.89854 0.77637 0.0
C1039 C 0.02151 0.83419 0.81371 0.0
C1040 C 0.24809 0.27171 0.7932 0.0
C1041 C 0.23012 0.21124 0.7879 0.0
H1042 H 0.22185 0.33791 0.79909 0.0
C1043 C 0.16794 0.17037 0.78462 0.0
H1044 H 0.29542 0.30458 0.7959 0.0
C1045 C 0.12522 0.18973 0.78612 0.0
C1046 C 0.14323 0.25061 0.79105 0.0
H1047 H 0.15222 0.12347 0.78039 0.0
H1048 H 0.07824 0.15691 0.78294 0.0
C1049 C 0.20546 0.291 0.79484 0.0
C1050 C 0.61778 0.19019 0.60957 0.0
C1051 C 0.57836 0.13317 0.59974 0.0
H1052 H 0.70917 0.25511 0.61915 0.0
C1053 C 0.60369 0.09994 0.59053 0.0
H1054 H 0.6003 0.21722 0.61692 0.0
C1055 C 0.66579 0.12158 0.59191 0.0
C1056 C 0.70484 0.17742 0.60237 0.0
H1057 H 0.57566 0.05678 0.58228 0.0
H1058 H 0.68308 0.09371 0.58511 0.0
C1059 C 0.68038 0.21216 0.6108 0.0
C1060 C 0.83423 0.45206 0.62134 0.0
C1061 C 0.88543 0.46254 0.60862 0.0
H1062 H 0.76905 0.47947 0.62834 0.0
C1063 C 0.90642 0.50655 0.59137 0.0
H1064 H 0.81685 0.41889 0.63486 0.0
C1065 C 0.87892 0.54118 0.58772 0.0
C1066 C 0.82947 0.53226 0.60106 0.0
H1067 H 0.94448 0.51494 0.58078 0.0
H1068 H 0.898 0.57681 0.57505 0.0
C1069 C 0.80621 0.48625 0.61746 0.0
C1070 C 0.45087 0.36159 0.57906 0.0
C1071 C 0.46271 0.31618 0.58649 0.0
H1072 H 0.4784 0.45557 0.57899 0.0
C1073 C 0.51454 0.33298 0.59971 0.0
H1074 H 0.41099 0.35005 0.56899 0.0
C1075 C 0.55232 0.39335 0.60611 0.0
C1076 C 0.54006 0.43901 0.59912 0.0
H1077 H 0.52437 0.29907 0.60615 0.0
H1078 H 0.59022 0.4035 0.61706 0.0
C1079 C 0.4892 0.42221 0.58516 0.0
loop_
_geom_bond_atom_site_label_1
_geom_bond_atom_site_label_2
_geom_bond_distance
_geom_bond_site_symmetry_2
_ccdc_geom_bond_type
Co0 N5 2.057 . S
Co0 O17 2.021 . S
Co0 O20 2.062 . S
Co0 O24 2.117 . S
Co0 O25 2.020 1_565 S
C1 O21 1.259 . S
C1 O24 1.258 1_545 S
Co2 N11 2.057 . S
Co2 O18 2.117 . S
Co2 O19 2.020 1_545 S
Co2 O21 2.021 . S
Co2 O26 2.062 . S
C3 N5 1.316 . S
C3 N6 1.347 . S
C3 H8 0.931 . S
C4 N5 1.375 . S
C4 C7 1.350 . S
C4 H9 0.930 . S
N5 Co0 2.057 . S
N5 C3 1.316 . S
N5 C4 1.375 . S
N6 C3 1.347 . S
N6 C7 1.373 . S
C7 C4 1.350 . S
C7 N6 1.373 . S
C7 H28 0.931 . S
H8 C3 0.931 . S
H9 C4 0.930 . S
C10 O17 1.259 . S
C10 O18 1.258 1_565 S
N11 Co2 2.057 . S
N11 C12 1.316 . S
N11 C13 1.375 . S
C12 N11 1.316 . S
C12 N14 1.347 . S
C12 H23 0.931 . S
C13 N11 1.375 . S
C13 C15 1.350 . S
C13 H22 0.930 . S
N14 C12 1.347 . S
N14 C15 1.373 . S
C15 C13 1.350 . S
C15 N14 1.373 . S
C15 H29 0.931 . S
C16 O19 1.256 . S
C16 O20 1.255 . S
O17 Co0 2.021 . S
O17 C10 1.259 . S
O18 Co2 2.117 . S
O18 C10 1.258 1_545 S
O19 Co2 2.020 1_565 S
O19 C16 1.256 . S
O20 Co0 2.062 . S
O20 C16 1.255 . S
O21 C1 1.259 . S
O21 Co2 2.021 . S
H22 C13 0.930 . S
H23 C12 0.931 . S
O24 Co0 2.117 . S
O24 C1 1.258 1_565 S
O25 Co0 2.020 1_545 S
O25 C27 1.256 . S
O26 Co2 2.062 . S
O26 C27 1.255 . S
C27 O25 1.256 . S
C27 O26 1.255 . S
H28 C7 0.931 . S
H29 C15 0.931 . S
Co30 N35 2.057 . S
Co30 O47 2.021 . S
Co30 O50 2.062 . S
Co30 O54 2.117 . S
Co30 O55 2.020 1_455 S
C31 O51 1.259 1_455 S
C31 O54 1.258 . S
Co32 N41 2.057 . S
Co32 O48 2.117 1_655 S
Co32 O49 2.020 1_655 S
Co32 O51 2.021 . S
Co32 O56 2.062 . S
C33 N35 1.316 . S
C33 N36 1.347 . S
C33 H38 0.931 . S
C34 N35 1.375 . S
C34 C37 1.350 . S
C34 H39 0.930 . S
N35 Co30 2.057 . S
N35 C33 1.316 . S
N35 C34 1.375 . S
N36 C33 1.347 . S
N36 C37 1.373 . S
C37 C34 1.350 . S
C37 N36 1.373 . S
C37 H58 0.931 . S
H38 C33 0.931 . S
H39 C34 0.930 . S
C40 O47 1.259 . S
C40 O48 1.258 . S
N41 Co32 2.057 . S
N41 C42 1.316 . S
N41 C43 1.375 . S
C42 N41 1.316 . S
C42 N44 1.347 . S
C42 H53 0.931 . S
C43 N41 1.375 . S
C43 C45 1.350 . S
C43 H52 0.930 . S
N44 C42 1.347 . S
N44 C45 1.373 . S
C45 C43 1.350 . S
C45 N44 1.373 . S
C45 H59 0.931 . S
C46 O49 1.256 . S
C46 O50 1.255 . S
O47 Co30 2.021 . S
O47 C40 1.259 . S
O48 Co32 2.117 1_455 S
O48 C40 1.258 . S
O49 Co32 2.020 1_455 S
O49 C46 1.256 . S
O50 Co30 2.062 . S
O50 C46 1.255 . S
O51 C31 1.259 1_655 S
O51 Co32 2.021 . S
H52 C43 0.930 . S
H53 C42 0.931 . S
O54 Co30 2.117 . S
O54 C31 1.258 . S
O55 Co30 2.020 1_655 S
O55 C57 1.256 . S
O56 Co32 2.062 . S
O56 C57 1.255 . S
C57 O55 1.256 . S
C57 O56 1.255 . S
H58 C37 0.931 . S
H59 C45 0.931 . S
Co60 N65 2.057 . S
Co60 O77 2.021 . S
Co60 O80 2.062 . S
Co60 O84 2.117 . S
Co60 O85 2.020 . S
C61 O81 1.259 . S
C61 O84 1.258 . S
Co62 N71 2.057 . S
Co62 O78 2.117 . S
Co62 O79 2.020 . S
Co62 O81 2.021 . S
Co62 O86 2.062 . S
C63 N65 1.316 . S
C63 N66 1.347 . S
C63 H68 0.931 . S
C64 N65 1.375 . S
C64 C67 1.350 . S
C64 H69 0.930 . S
N65 Co60 2.057 . S
N65 C63 1.316 . S
N65 C64 1.375 . S
N66 C63 1.347 . S
N66 C67 1.373 . S
C67 C64 1.350 . S
C67 N66 1.373 . S
C67 H88 0.931 . S
H68 C63 0.931 . S
H69 C64 0.930 . S
C70 O77 1.259 . S
C70 O78 1.258 . S
N71 Co62 2.057 . S
N71 C72 1.316 . S
N71 C73 1.375 . S
C72 N71 1.316 . S
C72 N74 1.347 . S
C72 H83 0.931 . S
C73 N71 1.375 . S
C73 C75 1.350 . S
C73 H82 0.930 . S
N74 C72 1.347 . S
N74 C75 1.373 . S
C75 C73 1.350 . S
C75 N74 1.373 . S
C75 H89 0.931 . S
C76 O79 1.256 . S
C76 O80 1.255 . S
O77 Co60 2.021 . S
O77 C70 1.259 . S
O78 Co62 2.117 . S
O78 C70 1.258 . S
O79 Co62 2.020 . S
O79 C76 1.256 . S
O80 Co60 2.062 . S
O80 C76 1.255 . S
O81 C61 1.259 . S
O81 Co62 2.021 . S
H82 C73 0.930 . S
H83 C72 0.931 . S
O84 Co60 2.117 . S
O84 C61 1.258 . S
O85 Co60 2.020 . S
O85 C87 1.256 . S
O86 Co62 2.062 . S
O86 C87 1.255 . S
C87 O85 1.256 . S
C87 O86 1.255 . S
H88 C67 0.931 . S
H89 C75 0.931 . S
Co90 N95 2.057 . S
Co90 O107 2.021 . S
Co90 O110 2.062 . S
Co90 O114 2.117 . S
Co90 O115 2.020 1_655 S
C91 O111 1.259 . S
C91 O114 1.258 1_455 S
Co92 N101 2.057 . S
Co92 O108 2.117 . S
Co92 O109 2.020 1_455 S
Co92 O111 2.021 . S
Co92 O116 2.062 . S
C93 N95 1.316 . S
C93 N96 1.347 . S
C93 H98 0.931 . S
C94 N95 1.375 . S
C94 C97 1.350 . S
C94 H99 0.930 . S
N95 Co90 2.057 . S
N95 C93 1.316 . S
N95 C94 1.375 . S
N96 C93 1.347 . S
N96 C97 1.373 . S
C97 C94 1.350 . S
C97 N96 1.373 . S
C97 H118 0.931 . S
H98 C93 0.931 . S
H99 C94 0.930 . S
C100 O107 1.259 . S
C100 O108 1.258 1_655 S
N101 Co92 2.057 . S
N101 C102 1.316 . S
N101 C103 1.375 . S
C102 N101 1.316 . S
C102 N104 1.347 . S
C102 H113 0.931 . S
C103 N101 1.375 . S
C103 C105 1.350 . S
C103 H112 0.930 . S
N104 C102 1.347 . S
N104 C105 1.373 . S
C105 C103 1.350 . S
C105 N104 1.373 . S
C105 H119 0.931 . S
C106 O109 1.256 . S
C106 O110 1.255 . S
O107 Co90 2.021 . S
O107 C100 1.259 . S
O108 Co92 2.117 . S
O108 C100 1.258 1_455 S
O109 Co92 2.020 1_655 S
O109 C106 1.256 . S
O110 Co90 2.062 . S
O110 C106 1.255 . S
O111 C91 1.259 . S
O111 Co92 2.021 . S
H112 C103 0.930 . S
H113 C102 0.931 . S
O114 Co90 2.117 . S
O114 C91 1.258 1_655 S
O115 Co90 2.020 1_455 S
O115 C117 1.256 . S
O116 Co92 2.062 . S
O116 C117 1.255 . S
C117 O115 1.256 . S
C117 O116 1.255 . S
H118 C97 0.931 . S
H119 C105 0.931 . S
Co120 N125 2.057 . S
Co120 O137 2.021 . S
Co120 O140 2.062 . S
Co120 O144 2.117 . S
Co120 O145 2.020 . S
C121 O141 1.259 . S
C121 O144 1.258 . S
Co122 N131 2.057 . S
Co122 O138 2.117 . S
Co122 O139 2.020 . S
Co122 O141 2.021 . S
Co122 O146 2.062 . S
C123 N125 1.316 . S
C123 N126 1.347 . S
C123 H128 0.931 . S
C124 N125 1.375 . S
C124 C127 1.350 . S
C124 H129 0.930 . S
N125 Co120 2.057 . S
N125 C123 1.316 . S
N125 C124 1.375 . S
N126 C123 1.347 . S
N126 C127 1.373 . S
C127 C124 1.350 . S
C127 N126 1.373 . S
C127 H148 0.931 . S
H128 C123 0.931 . S
H129 C124 0.930 . S
C130 O137 1.259 . S
C130 O138 1.258 . S
N131 Co122 2.057 . S
N131 C132 1.316 . S
N131 C133 1.375 . S
C132 N131 1.316 . S
C132 N134 1.347 . S
C132 H143 0.931 . S
C133 N131 1.375 . S
C133 C135 1.350 . S
C133 H142 0.930 . S
N134 C132 1.347 . S
N134 C135 1.373 . S
C135 C133 1.350 . S
C135 N134 1.373 . S
C135 H149 0.931 . S
C136 O139 1.256 . S
C136 O140 1.255 . S
O137 Co120 2.021 . S
O137 C130 1.259 . S
O138 Co122 2.117 . S
O138 C130 1.258 . S
O139 Co122 2.020 . S
O139 C136 1.256 . S
O140 Co120 2.062 . S
O140 C136 1.255 . S
O141 C121 1.259 . S
O141 Co122 2.021 . S
H142 C133 0.930 . S
H143 C132 0.931 . S
O144 Co120 2.117 . S
O144 C121 1.258 . S
O145 Co120 2.020 . S
O145 C147 1.256 . S
O146 Co122 2.062 . S
O146 C147 1.255 . S
C147 O145 1.256 . S
C147 O146 1.255 . S
H148 C127 0.931 . S
H149 C135 0.931 . S
Co150 N155 2.057 . S
Co150 O167 2.021 . S
Co150 O170 2.062 . S
Co150 O174 2.117 . S
Co150 O175 2.020 1_545 S
C151 O171 1.259 1_545 S
C151 O174 1.258 . S
Co152 N161 2.057 . S
Co152 O168 2.117 1_565 S
Co152 O169 2.020 1_565 S
Co152 O171 2.021 . S
Co152 O176 2.062 . S
C153 N155 1.316 . S
C153 N156 1.347 . S
C153 H158 0.931 . S
C154 N155 1.375 . S
C154 C157 1.350 . S
C154 H159 0.930 . S
N155 Co150 2.057 . S
N155 C153 1.316 . S
N155 C154 1.375 . S
N156 C153 1.347 . S
N156 C157 1.373 . S
C157 C154 1.350 . S
C157 N156 1.373 . S
C157 H178 0.931 . S
H158 C153 0.931 . S
H159 C154 0.930 . S
C160 O167 1.259 . S
C160 O168 1.258 . S
N161 Co152 2.057 . S
N161 C162 1.316 . S
N161 C163 1.375 . S
C162 N161 1.316 . S
C162 N164 1.347 . S
C162 H173 0.931 . S
C163 N161 1.375 . S
C163 C165 1.350 . S
C163 H172 0.930 . S
N164 C162 1.347 . S
N164 C165 1.373 . S
C165 C163 1.350 . S
C165 N164 1.373 . S
C165 H179 0.931 . S
C166 O169 1.256 . S
C166 O170 1.255 . S
O167 Co150 2.021 . S
O167 C160 1.259 . S
O168 Co152 2.117 1_545 S
O168 C160 1.258 . S
O169 Co152 2.020 1_545 S
O169 C166 1.256 . S
O170 Co150 2.062 . S
O170 C166 1.255 . S
O171 C151 1.259 1_565 S
O171 Co152 2.021 . S
H172 C163 0.930 . S
H173 C162 0.931 . S
O174 Co150 2.117 . S
O174 C151 1.258 . S
O175 Co150 2.020 1_565 S
O175 C177 1.256 . S
O176 Co152 2.062 . S
O176 C177 1.255 . S
C177 O175 1.256 . S
C177 O176 1.255 . S
H178 C157 0.931 . S
H179 C165 0.931 . S
Co180 N185 2.057 . S
Co180 O197 2.021 . S
Co180 O200 2.062 . S
Co180 O204 2.117 . S
Co180 O205 2.020 . S
C181 O201 1.259 . S
C181 O204 1.258 . S
Co182 N191 2.057 . S
Co182 O198 2.117 . S
Co182 O199 2.020 . S
Co182 O201 2.021 . S
Co182 O206 2.062 . S
C183 N185 1.316 . S
C183 N186 1.347 . S
C183 H188 0.931 . S
C184 N185 1.375 . S
C184 C187 1.350 . S
C184 H189 0.930 . S
N185 Co180 2.057 . S
N185 C183 1.316 . S
N185 C184 1.375 . S
N186 C183 1.347 . S
N186 C187 1.373 . S
C187 C184 1.350 . S
C187 N186 1.373 . S
C187 H208 0.931 . S
H188 C183 0.931 . S
H189 C184 0.930 . S
C190 O197 1.259 . S
C190 O198 1.258 . S
N191 Co182 2.057 . S
N191 C192 1.316 . S
N191 C193 1.375 . S
C192 N191 1.316 . S
C192 N194 1.347 . S
C192 H203 0.931 . S
C193 N191 1.375 . S
C193 C195 1.350 . S
C193 H202 0.930 . S
N194 C192 1.347 . S
N194 C195 1.373 . S
C195 C193 1.350 . S
C195 N194 1.373 . S
C195 H209 0.931 . S
C196 O199 1.256 . S
C196 O200 1.255 . S
O197 Co180 2.021 . S
O197 C190 1.259 . S
O198 Co182 2.117 . S
O198 C190 1.258 . S
O199 Co182 2.020 . S
O199 C196 1.256 . S
O200 Co180 2.062 . S
O200 C196 1.255 . S
O201 C181 1.259 . S
O201 Co182 2.021 . S
H202 C193 0.930 . S
H203 C192 0.931 . S
O204 Co180 2.117 . S
O204 C181 1.258 . S
O205 Co180 2.020 . S
O205 C207 1.256 . S
O206 Co182 2.062 . S
O206 C207 1.255 . S
C207 O205 1.256 . S
C207 O206 1.255 . S
H208 C187 0.931 . S
H209 C195 0.931 . S
Co210 N215 2.057 . S
Co210 O227 2.021 . S
Co210 O230 2.062 . S
Co210 O234 2.117 . S
Co210 O235 2.020 . S
C211 O231 1.259 . S
C211 O234 1.258 . S
Co212 N221 2.057 . S
Co212 O228 2.117 . S
Co212 O229 2.020 . S
Co212 O231 2.021 . S
Co212 O236 2.062 . S
C213 N215 1.316 1_545 S
C213 N216 1.347 . S
C213 H218 0.931 . S
C214 N215 1.375 1_545 S
C214 C217 1.350 . S
C214 H219 0.930 1_545 S
N215 Co210 2.057 . S
N215 C213 1.316 1_565 S
N215 C214 1.375 1_565 S
N216 C213 1.347 . S
N216 C217 1.373 . S
C217 C214 1.350 . S
C217 N216 1.373 . S
C217 H238 0.931 . S
H218 C213 0.931 . S
H219 C214 0.930 1_565 S
C220 O227 1.259 . S
C220 O228 1.258 . S
N221 Co212 2.057 . S
N221 C222 1.316 . S
N221 C223 1.375 . S
C222 N221 1.316 . S
C222 N224 1.347 . S
C222 H233 0.931 . S
C223 N221 1.375 . S
C223 C225 1.350 . S
C223 H232 0.930 . S
N224 C222 1.347 . S
N224 C225 1.373 . S
C225 C223 1.350 . S
C225 N224 1.373 . S
C225 H239 0.931 . S
C226 O229 1.256 . S
C226 O230 1.255 . S
O227 Co210 2.021 . S
O227 C220 1.259 . S
O228 Co212 2.117 . S
O228 C220 1.258 . S
O229 Co212 2.020 . S
O229 C226 1.256 . S
O230 Co210 2.062 . S
O230 C226 1.255 . S
O231 C211 1.259 . S
O231 Co212 2.021 . S
H232 C223 0.930 . S
H233 C222 0.931 . S
O234 Co210 2.117 . S
O234 C211 1.258 . S
O235 Co210 2.020 . S
O235 C237 1.256 . S
O236 Co212 2.062 . S
O236 C237 1.255 . S
C237 O235 1.256 . S
C237 O236 1.255 . S
H238 C217 0.931 . S
H239 C225 0.931 . S
Co240 N245 2.057 . S
Co240 O257 2.021 . S
Co240 O260 2.062 . S
Co240 O264 2.117 . S
Co240 O265 2.020 . S
C241 O261 1.259 . S
C241 O264 1.258 . S
Co242 N251 2.057 . S
Co242 O258 2.117 . S
Co242 O259 2.020 . S
Co242 O261 2.021 . S
Co242 O266 2.062 . S
C243 N245 1.316 . S
C243 N246 1.347 1_455 S
C243 H248 0.931 . S
C244 N245 1.375 . S
C244 C247 1.350 1_455 S
C244 H249 0.930 . S
N245 Co240 2.057 . S
N245 C243 1.316 . S
N245 C244 1.375 . S
N246 C243 1.347 1_655 S
N246 C247 1.373 . S
C247 C244 1.350 1_655 S
C247 N246 1.373 . S
C247 H268 0.931 . S
H248 C243 0.931 . S
H249 C244 0.930 . S
C250 O257 1.259 . S
C250 O258 1.258 . S
N251 Co242 2.057 . S
N251 C252 1.316 . S
N251 C253 1.375 . S
C252 N251 1.316 . S
C252 N254 1.347 . S
C252 H263 0.931 . S
C253 N251 1.375 . S
C253 C255 1.350 . S
C253 H262 0.930 . S
N254 C252 1.347 . S
N254 C255 1.373 . S
C255 C253 1.350 . S
C255 N254 1.373 . S
C255 H269 0.931 . S
C256 O259 1.256 . S
C256 O260 1.255 . S
O257 Co240 2.021 . S
O257 C250 1.259 . S
O258 Co242 2.117 . S
O258 C250 1.258 . S
O259 Co242 2.020 . S
O259 C256 1.256 . S
O260 Co240 2.062 . S
O260 C256 1.255 . S
O261 C241 1.259 . S
O261 Co242 2.021 . S
H262 C253 0.930 . S
H263 C252 0.931 . S
O264 Co240 2.117 . S
O264 C241 1.258 . S
O265 Co240 2.020 . S
O265 C267 1.256 . S
O266 Co242 2.062 . S
O266 C267 1.255 . S
C267 O265 1.256 . S
C267 O266 1.255 . S
H268 C247 0.931 . S
H269 C255 0.931 . S
Co270 N275 2.057 . S
Co270 O287 2.021 . S
Co270 O290 2.062 . S
Co270 O294 2.117 . S
Co270 O295 2.020 . S
C271 O291 1.259 . S
C271 O294 1.258 . S
Co272 N281 2.057 . S
Co272 O288 2.117 . S
Co272 O289 2.020 . S
Co272 O291 2.021 . S
Co272 O296 2.062 . S
C273 N275 1.316 . S
C273 N276 1.347 . S
C273 H278 0.931 . S
C274 N275 1.375 . S
C274 C277 1.350 . S
C274 H279 0.930 . S
N275 Co270 2.057 . S
N275 C273 1.316 . S
N275 C274 1.375 . S
N276 C273 1.347 . S
N276 C277 1.373 . S
C277 C274 1.350 . S
C277 N276 1.373 . S
C277 H298 0.931 . S
H278 C273 0.931 . S
H279 C274 0.930 . S
C280 O287 1.259 . S
C280 O288 1.258 . S
N281 Co272 2.057 . S
N281 C282 1.316 . S
N281 C283 1.375 . S
C282 N281 1.316 . S
C282 N284 1.347 . S
C282 H293 0.931 . S
C283 N281 1.375 . S
C283 C285 1.350 . S
C283 H292 0.930 . S
N284 C282 1.347 . S
N284 C285 1.373 . S
C285 C283 1.350 . S
C285 N284 1.373 . S
C285 H299 0.931 . S
C286 O289 1.256 . S
C286 O290 1.255 . S
O287 Co270 2.021 . S
O287 C280 1.259 . S
O288 Co272 2.117 . S
O288 C280 1.258 . S
O289 Co272 2.020 . S
O289 C286 1.256 . S
O290 Co270 2.062 . S
O290 C286 1.255 . S
O291 C271 1.259 . S
O291 Co272 2.021 . S
H292 C283 0.930 . S
H293 C282 0.931 . S
O294 Co270 2.117 . S
O294 C271 1.258 . S
O295 Co270 2.020 . S
O295 C297 1.256 . S
O296 Co272 2.062 . S
O296 C297 1.255 . S
C297 O295 1.256 . S
C297 O296 1.255 . S
H298 C277 0.931 . S
H299 C285 0.931 . S
Co300 N305 2.057 . S
Co300 O317 2.021 . S
Co300 O320 2.062 . S
Co300 O324 2.117 . S
Co300 O325 2.020 . S
C301 O321 1.259 . S
C301 O324 1.258 . S
Co302 N311 2.057 1_565 S
Co302 O318 2.117 . S
Co302 O319 2.020 . S
Co302 O321 2.021 . S
Co302 O326 2.062 . S
C303 N305 1.316 . S
C303 N306 1.347 . S
C303 H308 0.931 . S
C304 N305 1.375 . S
C304 C307 1.350 . S
C304 H309 0.930 . S
N305 Co300 2.057 . S
N305 C303 1.316 . S
N305 C304 1.375 . S
N306 C303 1.347 . S
N306 C307 1.373 . S
C307 C304 1.350 . S
C307 N306 1.373 . S
C307 H328 0.931 . S
H308 C303 0.931 . S
H309 C304 0.930 . S
C310 O317 1.259 . S
C310 O318 1.258 . S
N311 Co302 2.057 1_545 S
N311 C312 1.316 . S
N311 C313 1.375 . S
C312 N311 1.316 . S
C312 N314 1.347 . S
C312 H323 0.931 . S
C313 N311 1.375 . S
C313 C315 1.350 . S
C313 H322 0.930 . S
N314 C312 1.347 . S
N314 C315 1.373 . S
C315 C313 1.350 . S
C315 N314 1.373 . S
C315 H329 0.931 . S
C316 O319 1.256 . S
C316 O320 1.255 . S
O317 Co300 2.021 . S
O317 C310 1.259 . S
O318 Co302 2.117 . S
O318 C310 1.258 . S
O319 Co302 2.020 . S
O319 C316 1.256 . S
O320 Co300 2.062 . S
O320 C316 1.255 . S
O321 C301 1.259 . S
O321 Co302 2.021 . S
H322 C313 0.930 . S
H323 C312 0.931 . S
O324 Co300 2.117 . S
O324 C301 1.258 . S
O325 Co300 2.020 . S
O325 C327 1.256 . S
O326 Co302 2.062 . S
O326 C327 1.255 . S
C327 O325 1.256 . S
C327 O326 1.255 . S
H328 C307 0.931 . S
H329 C315 0.931 . S
Co330 N335 2.057 . S
Co330 O347 2.021 . S
Co330 O350 2.062 . S
Co330 O354 2.117 . S
Co330 O355 2.020 . S
C331 O351 1.259 . S
C331 O354 1.258 . S
Co332 N341 2.057 . S
Co332 O348 2.117 . S
Co332 O349 2.020 . S
Co332 O351 2.021 . S
Co332 O356 2.062 . S
C333 N335 1.316 . S
C333 N336 1.347 . S
C333 H338 0.931 . S
C334 N335 1.375 . S
C334 C337 1.350 . S
C334 H339 0.930 . S
N335 Co330 2.057 . S
N335 C333 1.316 . S
N335 C334 1.375 . S
N336 C333 1.347 . S
N336 C337 1.373 . S
C337 C334 1.350 . S
C337 N336 1.373 . S
C337 H358 0.931 . S
H338 C333 0.931 . S
H339 C334 0.930 . S
C340 O347 1.259 . S
C340 O348 1.258 . S
N341 Co332 2.057 . S
N341 C342 1.316 1_455 S
N341 C343 1.375 1_455 S
C342 N341 1.316 1_655 S
C342 N344 1.347 . S
C342 H353 0.931 . S
C343 N341 1.375 1_655 S
C343 C345 1.350 . S
C343 H352 0.930 . S
N344 C342 1.347 . S
N344 C345 1.373 . S
C345 C343 1.350 . S
C345 N344 1.373 . S
C345 H359 0.931 . S
C346 O349 1.256 . S
C346 O350 1.255 . S
O347 Co330 2.021 . S
O347 C340 1.259 . S
O348 Co332 2.117 . S
O348 C340 1.258 . S
O349 Co332 2.020 . S
O349 C346 1.256 . S
O350 Co330 2.062 . S
O350 C346 1.255 . S
O351 C331 1.259 . S
O351 Co332 2.021 . S
H352 C343 0.930 . S
H353 C342 0.931 . S
O354 Co330 2.117 . S
O354 C331 1.258 . S
O355 Co330 2.020 . S
O355 C357 1.256 . S
O356 Co332 2.062 . S
O356 C357 1.255 . S
C357 O355 1.256 . S
C357 O356 1.255 . S
H358 C337 0.931 . S
H359 C345 0.931 . S
Co360 N365 2.057 . S
Co360 O377 2.021 . S
Co360 O380 2.062 . S
Co360 O384 2.117 . S
Co360 O385 2.020 . S
C361 O381 1.259 . S
C361 O384 1.258 . S
Co362 N371 2.057 . S
Co362 O378 2.117 . S
Co362 O379 2.020 . S
Co362 O381 2.021 . S
Co362 O386 2.062 . S
C363 N365 1.316 . S
C363 N366 1.347 . S
C363 H368 0.931 . S
C364 N365 1.375 . S
C364 C367 1.350 . S
C364 H369 0.930 . S
N365 Co360 2.057 . S
N365 C363 1.316 . S
N365 C364 1.375 . S
N366 C363 1.347 . S
N366 C367 1.373 . S
C367 C364 1.350 . S
C367 N366 1.373 . S
C367 H388 0.931 . S
H368 C363 0.931 . S
H369 C364 0.930 . S
C370 O377 1.259 . S
C370 O378 1.258 . S
N371 Co362 2.057 . S
N371 C372 1.316 . S
N371 C373 1.375 . S
C372 N371 1.316 . S
C372 N374 1.347 . S
C372 H383 0.931 . S
C373 N371 1.375 . S
C373 C375 1.350 . S
C373 H382 0.930 . S
N374 C372 1.347 . S
N374 C375 1.373 . S
C375 C373 1.350 . S
C375 N374 1.373 . S
C375 H389 0.931 . S
C376 O379 1.256 . S
C376 O380 1.255 . S
O377 Co360 2.021 . S
O377 C370 1.259 . S
O378 Co362 2.117 . S
O378 C370 1.258 . S
O379 Co362 2.020 . S
O379 C376 1.256 . S
O380 Co360 2.062 . S
O380 C376 1.255 . S
O381 C361 1.259 . S
O381 Co362 2.021 . S
H382 C373 0.930 . S
H383 C372 0.931 . S
O384 Co360 2.117 . S
O384 C361 1.258 . S
O385 Co360 2.020 . S
O385 C387 1.256 . S
O386 Co362 2.062 . S
O386 C387 1.255 . S
C387 O385 1.256 . S
C387 O386 1.255 . S
H388 C367 0.931 . S
H389 C375 0.931 . S
Co390 N395 2.057 . S
Co390 O407 2.021 . S
Co390 O410 2.062 . S
Co390 O414 2.117 . S
Co390 O415 2.020 . S
C391 O411 1.259 . S
C391 O414 1.258 . S
Co392 N401 2.057 . S
Co392 O408 2.117 . S
Co392 O409 2.020 . S
Co392 O411 2.021 . S
Co392 O416 2.062 . S
C393 N395 1.316 . S
C393 N396 1.347 . S
C393 H398 0.931 . S
C394 N395 1.375 . S
C394 C397 1.350 . S
C394 H399 0.930 . S
N395 Co390 2.057 . S
N395 C393 1.316 . S
N395 C394 1.375 . S
N396 C393 1.347 . S
N396 C397 1.373 . S
C397 C394 1.350 . S
C397 N396 1.373 . S
C397 H418 0.931 . S
H398 C393 0.931 . S
H399 C394 0.930 . S
C400 O407 1.259 . S
C400 O408 1.258 . S
N401 Co392 2.057 . S
N401 C402 1.316 1_545 S
N401 C403 1.375 1_545 S
C402 N401 1.316 1_565 S
C402 N404 1.347 . S
C402 H413 0.931 . S
C403 N401 1.375 1_565 S
C403 C405 1.350 . S
C403 H412 0.930 . S
N404 C402 1.347 . S
N404 C405 1.373 . S
C405 C403 1.350 . S
C405 N404 1.373 . S
C405 H419 0.931 . S
C406 O409 1.256 . S
C406 O410 1.255 . S
O407 Co390 2.021 . S
O407 C400 1.259 . S
O408 Co392 2.117 . S
O408 C400 1.258 . S
O409 Co392 2.020 . S
O409 C406 1.256 . S
O410 Co390 2.062 . S
O410 C406 1.255 . S
O411 C391 1.259 . S
O411 Co392 2.021 . S
H412 C403 0.930 . S
H413 C402 0.931 . S
O414 Co390 2.117 . S
O414 C391 1.258 . S
O415 Co390 2.020 . S
O415 C417 1.256 . S
O416 Co392 2.062 . S
O416 C417 1.255 . S
C417 O415 1.256 . S
C417 O416 1.255 . S
H418 C397 0.931 . S
H419 C405 0.931 . S
Co420 N425 2.057 . S
Co420 O437 2.021 . S
Co420 O440 2.062 . S
Co420 O444 2.117 . S
Co420 O445 2.020 . S
C421 O441 1.259 . S
C421 O444 1.258 . S
Co422 N431 2.057 1_655 S
Co422 O438 2.117 . S
Co422 O439 2.020 . S
Co422 O441 2.021 . S
Co422 O446 2.062 . S
C423 N425 1.316 . S
C423 N426 1.347 . S
C423 H428 0.931 . S
C424 N425 1.375 . S
C424 C427 1.350 . S
C424 H429 0.930 . S
N425 Co420 2.057 . S
N425 C423 1.316 . S
N425 C424 1.375 . S
N426 C423 1.347 . S
N426 C427 1.373 . S
C427 C424 1.350 . S
C427 N426 1.373 . S
C427 H448 0.931 . S
H428 C423 0.931 . S
H429 C424 0.930 . S
C430 O437 1.259 . S
C430 O438 1.258 . S
N431 Co422 2.057 1_455 S
N431 C432 1.316 . S
N431 C433 1.375 . S
C432 N431 1.316 . S
C432 N434 1.347 . S
C432 H443 0.931 . S
C433 N431 1.375 . S
C433 C435 1.350 . S
C433 H442 0.930 . S
N434 C432 1.347 . S
N434 C435 1.373 . S
C435 C433 1.350 . S
C435 N434 1.373 . S
C435 H449 0.931 . S
C436 O439 1.256 . S
C436 O440 1.255 . S
O437 Co420 2.021 . S
O437 C430 1.259 . S
O438 Co422 2.117 . S
O438 C430 1.258 . S
O439 Co422 2.020 . S
O439 C436 1.256 . S
O440 Co420 2.062 . S
O440 C436 1.255 . S
O441 C421 1.259 . S
O441 Co422 2.021 . S
H442 C433 0.930 . S
H443 C432 0.931 . S
O444 Co420 2.117 . S
O444 C421 1.258 . S
O445 Co420 2.020 . S
O445 C447 1.256 . S
O446 Co422 2.062 . S
O446 C447 1.255 . S
C447 O445 1.256 . S
C447 O446 1.255 . S
H448 C427 0.931 . S
H449 C435 0.931 . S
Co450 N455 2.057 . S
Co450 O467 2.021 . S
Co450 O470 2.062 . S
Co450 O474 2.117 . S
Co450 O475 2.020 . S
C451 O471 1.259 . S
C451 O474 1.258 . S
Co452 N461 2.057 . S
Co452 O468 2.117 . S
Co452 O469 2.020 . S
Co452 O471 2.021 . S
Co452 O476 2.062 . S
C453 N455 1.316 . S
C453 N456 1.347 . S
C453 H458 0.931 . S
C454 N455 1.375 . S
C454 C457 1.350 . S
C454 H459 0.930 . S
N455 Co450 2.057 . S
N455 C453 1.316 . S
N455 C454 1.375 . S
N456 C453 1.347 . S
N456 C457 1.373 . S
C457 C454 1.350 . S
C457 N456 1.373 . S
C457 H478 0.931 . S
H458 C453 0.931 . S
H459 C454 0.930 . S
C460 O467 1.259 . S
C460 O468 1.258 . S
N461 Co452 2.057 . S
N461 C462 1.316 . S
N461 C463 1.375 . S
C462 N461 1.316 . S
C462 N464 1.347 . S
C462 H473 0.931 . S
C463 N461 1.375 . S
C463 C465 1.350 . S
C463 H472 0.930 . S
N464 C462 1.347 . S
N464 C465 1.373 . S
C465 C463 1.350 . S
C465 N464 1.373 . S
C465 H479 0.931 . S
C466 O469 1.256 . S
C466 O470 1.255 . S
O467 Co450 2.021 . S
O467 C460 1.259 . S
O468 Co452 2.117 . S
O468 C460 1.258 . S
O469 Co452 2.020 . S
O469 C466 1.256 . S
O470 Co450 2.062 . S
O470 C466 1.255 . S
O471 C451 1.259 . S
O471 Co452 2.021 . S
H472 C463 0.930 . S
H473 C462 0.931 . S
O474 Co450 2.117 . S
O474 C451 1.258 . S
O475 Co450 2.020 . S
O475 C477 1.256 . S
O476 Co452 2.062 . S
O476 C477 1.255 . S
C477 O475 1.256 . S
C477 O476 1.255 . S
H478 C457 0.931 . S
H479 C465 0.931 . S
Co480 N485 2.057 . S
Co480 O497 2.021 . S
Co480 O500 2.062 . S
Co480 O504 2.117 . S
Co480 O505 2.020 . S
C481 O501 1.259 . S
C481 O504 1.258 . S
Co482 N491 2.057 . S
Co482 O498 2.117 . S
Co482 O499 2.020 . S
Co482 O501 2.021 . S
Co482 O506 2.062 . S
C483 N485 1.316 . S
C483 N486 1.347 1_545 S
C483 H488 0.931 . S
C484 N485 1.375 . S
C484 C487 1.350 1_545 S
C484 H489 0.930 . S
N485 Co480 2.057 . S
N485 C483 1.316 . S
N485 C484 1.375 . S
N486 C483 1.347 1_565 S
N486 C487 1.373 . S
C487 C484 1.350 1_565 S
C487 N486 1.373 . S
C487 H508 0.931 . S
H488 C483 0.931 . S
H489 C484 0.930 . S
C490 O497 1.259 . S
C490 O498 1.258 . S
N491 Co482 2.057 . S
N491 C492 1.316 . S
N491 C493 1.375 . S
C492 N491 1.316 . S
C492 N494 1.347 . S
C492 H503 0.931 . S
C493 N491 1.375 . S
C493 C495 1.350 . S
C493 H502 0.930 . S
N494 C492 1.347 . S
N494 C495 1.373 . S
C495 C493 1.350 . S
C495 N494 1.373 . S
C495 H509 0.931 . S
C496 O499 1.256 . S
C496 O500 1.255 . S
O497 Co480 2.021 . S
O497 C490 1.259 . S
O498 Co482 2.117 . S
O498 C490 1.258 . S
O499 Co482 2.020 . S
O499 C496 1.256 . S
O500 Co480 2.062 . S
O500 C496 1.255 . S
O501 C481 1.259 . S
O501 Co482 2.021 . S
H502 C493 0.930 . S
H503 C492 0.931 . S
O504 Co480 2.117 . S
O504 C481 1.258 . S
O505 Co480 2.020 . S
O505 C507 1.256 . S
O506 Co482 2.062 . S
O506 C507 1.255 . S
C507 O505 1.256 . S
C507 O506 1.255 . S
H508 C487 0.931 . S
H509 C495 0.931 . S
Co510 N515 2.057 . S
Co510 O527 2.021 . S
Co510 O530 2.062 . S
Co510 O534 2.117 . S
Co510 O535 2.020 . S
C511 O531 1.259 . S
C511 O534 1.258 . S
Co512 N521 2.057 . S
Co512 O528 2.117 . S
Co512 O529 2.020 . S
Co512 O531 2.021 . S
Co512 O536 2.062 . S
C513 N515 1.316 1_455 S
C513 N516 1.347 . S
C513 H518 0.931 . S
C514 N515 1.375 1_455 S
C514 C517 1.350 . S
C514 H519 0.930 1_455 S
N515 Co510 2.057 . S
N515 C513 1.316 1_655 S
N515 C514 1.375 1_655 S
N516 C513 1.347 . S
N516 C517 1.373 . S
C517 C514 1.350 . S
C517 N516 1.373 . S
C517 H538 0.931 . S
H518 C513 0.931 . S
H519 C514 0.930 1_655 S
C520 O527 1.259 . S
C520 O528 1.258 . S
N521 Co512 2.057 . S
N521 C522 1.316 . S
N521 C523 1.375 . S
C522 N521 1.316 . S
C522 N524 1.347 . S
C522 H533 0.931 . S
C523 N521 1.375 . S
C523 C525 1.350 . S
C523 H532 0.930 . S
N524 C522 1.347 . S
N524 C525 1.373 . S
C525 C523 1.350 . S
C525 N524 1.373 . S
C525 H539 0.931 . S
C526 O529 1.256 . S
C526 O530 1.255 . S
O527 Co510 2.021 . S
O527 C520 1.259 . S
O528 Co512 2.117 . S
O528 C520 1.258 . S
O529 Co512 2.020 . S
O529 C526 1.256 . S
O530 Co510 2.062 . S
O530 C526 1.255 . S
O531 C511 1.259 . S
O531 Co512 2.021 . S
H532 C523 0.930 . S
H533 C522 0.931 . S
O534 Co510 2.117 . S
O534 C511 1.258 . S
O535 Co510 2.020 . S
O535 C537 1.256 . S
O536 Co512 2.062 . S
O536 C537 1.255 . S
C537 O535 1.256 . S
C537 O536 1.255 . S
H538 C517 0.931 . S
H539 C525 0.931 . S
C540 C541 1.387 . S
C540 H544 0.950 . S
C540 C549 1.390 . S
C541 C540 1.387 . S
C541 C543 1.387 . S
H542 C549 0.950 . S
C543 C541 1.387 . S
C543 C545 1.390 . S
C543 H547 0.950 . S
H544 C540 0.950 . S
C545 C543 1.390 . S
C545 C546 1.387 . S
C545 H548 0.950 . S
C546 C545 1.387 . S
C546 C549 1.387 . S
H547 C543 0.950 . S
H548 C545 0.950 . S
C549 C540 1.390 . S
C549 H542 0.950 . S
C549 C546 1.387 . S
C550 C551 1.387 . S
C550 H554 0.950 . S
C550 C559 1.390 . S
C551 C550 1.387 . S
C551 C553 1.387 . S
H552 C559 0.950 . S
C553 C551 1.387 . S
C553 C555 1.390 . S
C553 H557 0.950 . S
H554 C550 0.950 . S
C555 C553 1.390 . S
C555 C556 1.387 . S
C555 H558 0.950 . S
C556 C555 1.387 . S
C556 C559 1.387 . S
H557 C553 0.950 . S
H558 C555 0.950 . S
C559 C550 1.390 . S
C559 H552 0.950 . S
C559 C556 1.387 . S
C560 C561 1.387 . S
C560 H564 0.950 . S
C560 C569 1.390 . S
C561 C560 1.387 . S
C561 C563 1.387 . S
H562 C569 0.950 . S
C563 C561 1.387 . S
C563 C565 1.390 . S
C563 H567 0.950 . S
H564 C560 0.950 . S
C565 C563 1.390 . S
C565 C566 1.387 . S
C565 H568 0.950 . S
C566 C565 1.387 . S
C566 C569 1.387 . S
H567 C563 0.950 . S
H568 C565 0.950 . S
C569 C560 1.390 . S
C569 H562 0.950 . S
C569 C566 1.387 . S
C570 C571 1.387 . S
C570 H574 0.950 . S
C570 C579 1.390 . S
C571 C570 1.387 . S
C571 C573 1.387 . S
H572 C579 0.950 . S
C573 C571 1.387 . S
C573 C575 1.390 . S
C573 H577 0.950 . S
H574 C570 0.950 . S
C575 C573 1.390 . S
C575 C576 1.387 . S
C575 H578 0.950 . S
C576 C575 1.387 . S
C576 C579 1.387 . S
H577 C573 0.950 . S
H578 C575 0.950 . S
C579 C570 1.390 . S
C579 H572 0.950 . S
C579 C576 1.387 . S
C580 C581 1.387 . S
C580 H584 0.950 . S
C580 C589 1.390 . S
C581 C580 1.387 . S
C581 C583 1.387 . S
H582 C589 0.950 . S
C583 C581 1.387 . S
C583 C585 1.390 . S
C583 H587 0.950 . S
H584 C580 0.950 . S
C585 C583 1.390 . S
C585 C586 1.387 . S
C585 H588 0.950 . S
C586 C585 1.387 . S
C586 C589 1.387 . S
H587 C583 0.950 . S
H588 C585 0.950 . S
C589 C580 1.390 . S
C589 H582 0.950 . S
C589 C586 1.387 . S
C590 C591 1.387 . S
C590 H594 0.950 . S
C590 C599 1.390 . S
C591 C590 1.387 . S
C591 C593 1.387 . S
H592 C599 0.950 . S
C593 C591 1.387 . S
C593 C595 1.390 . S
C593 H597 0.950 . S
H594 C590 0.950 . S
C595 C593 1.390 . S
C595 C596 1.387 . S
C595 H598 0.950 . S
C596 C595 1.387 . S
C596 C599 1.387 . S
H597 C593 0.950 . S
H598 C595 0.950 . S
C599 C590 1.390 . S
C599 H592 0.950 . S
C599 C596 1.387 . S
C600 C601 1.387 . S
C600 H604 0.950 . S
C600 C609 1.390 . S
C601 C600 1.387 . S
C601 C603 1.387 . S
H602 C609 0.950 . S
C603 C601 1.387 . S
C603 C605 1.390 . S
C603 H607 0.950 . S
H604 C600 0.950 . S
C605 C603 1.390 . S
C605 C606 1.387 . S
C605 H608 0.950 . S
C606 C605 1.387 . S
C606 C609 1.387 . S
H607 C603 0.950 . S
H608 C605 0.950 . S
C609 C600 1.390 . S
C609 H602 0.950 . S
C609 C606 1.387 . S
C610 C611 1.382 1_655 S
C610 H614 0.950 . S
C610 C619 1.390 . S
C611 C610 1.382 1_455 S
C611 C613 1.390 1_455 S
H612 C619 0.950 . S
C613 C611 1.390 1_655 S
C613 C615 1.390 . S
C613 H617 0.950 1_655 S
H614 C610 0.950 . S
C615 C613 1.390 . S
C615 C616 1.387 . S
C615 H618 0.950 . S
C616 C615 1.387 . S
C616 C619 1.387 . S
H617 C613 0.950 1_455 S
H618 C615 0.950 . S
C619 C610 1.390 . S
C619 H612 0.950 . S
C619 C616 1.387 . S
C620 C621 1.387 . S
C620 H624 0.950 . S
C620 C629 1.390 . S
C621 C620 1.387 . S
C621 C623 1.387 . S
H622 C629 0.950 . S
C623 C621 1.387 . S
C623 C625 1.390 . S
C623 H627 0.950 . S
H624 C620 0.950 . S
C625 C623 1.390 . S
C625 C626 1.387 . S
C625 H628 0.950 . S
C626 C625 1.387 . S
C626 C629 1.387 . S
H627 C623 0.950 . S
H628 C625 0.950 . S
C629 C620 1.390 . S
C629 H622 0.950 . S
C629 C626 1.387 . S
C630 C631 1.387 . S
C630 H634 0.950 . S
C630 C639 1.390 . S
C631 C630 1.387 . S
C631 C633 1.387 . S
H632 C639 0.950 . S
C633 C631 1.387 . S
C633 C635 1.390 . S
C633 H637 0.950 . S
H634 C630 0.950 . S
C635 C633 1.390 . S
C635 C636 1.387 . S
C635 H638 0.950 . S
C636 C635 1.387 . S
C636 C639 1.387 . S
H637 C633 0.950 . S
H638 C635 0.950 . S
C639 C630 1.390 . S
C639 H632 0.950 . S
C639 C636 1.387 . S
C640 C641 1.387 . S
C640 H644 0.950 . S
C640 C649 1.390 . S
C641 C640 1.387 . S
C641 C643 1.387 . S
H642 C649 0.950 . S
C643 C641 1.387 . S
C643 C645 1.390 . S
C643 H647 0.950 . S
H644 C640 0.950 . S
C645 C643 1.390 . S
C645 C646 1.387 . S
C645 H648 0.950 . S
C646 C645 1.387 . S
C646 C649 1.387 . S
H647 C643 0.950 . S
H648 C645 0.950 . S
C649 C640 1.390 . S
C649 H642 0.950 . S
C649 C646 1.387 . S
C650 C651 1.387 . S
C650 H654 0.950 . S
C650 C659 1.390 . S
C651 C650 1.387 . S
C651 C653 1.387 . S
H652 C659 0.950 . S
C653 C651 1.387 . S
C653 C655 1.390 . S
C653 H657 0.950 . S
H654 C650 0.950 . S
C655 C653 1.390 . S
C655 C656 1.387 . S
C655 H658 0.950 . S
C656 C655 1.387 . S
C656 C659 1.387 . S
H657 C653 0.950 . S
H658 C655 0.950 . S
C659 C650 1.390 . S
C659 H652 0.950 . S
C659 C656 1.387 . S
C660 C661 1.387 . S
C660 H664 0.950 . S
C660 C669 1.390 . S
C661 C660 1.387 . S
C661 C663 1.387 . S
H662 C669 0.950 . S
C663 C661 1.387 . S
C663 C665 1.390 . S
C663 H667 0.950 . S
H664 C660 0.950 . S
C665 C663 1.390 . S
C665 C666 1.387 . S
C665 H668 0.950 . S
C666 C665 1.387 . S
C666 C669 1.387 . S
H667 C663 0.950 . S
H668 C665 0.950 . S
C669 C660 1.390 . S
C669 H662 0.950 . S
C669 C666 1.387 . S
C670 C671 1.387 . S
C670 H674 0.950 . S
C670 C679 1.390 . S
C671 C670 1.387 . S
C671 C673 1.387 . S
H672 C679 0.950 . S
C673 C671 1.387 . S
C673 C675 1.390 . S
C673 H677 0.950 . S
H674 C670 0.950 . S
C675 C673 1.390 . S
C675 C676 1.387 . S
C675 H678 0.950 . S
C676 C675 1.387 . S
C676 C679 1.387 . S
H677 C673 0.950 . S
H678 C675 0.950 . S
C679 C670 1.390 . S
C679 H672 0.950 . S
C679 C676 1.387 . S
C680 C681 1.387 . S
C680 H684 0.950 . S
C680 C689 1.390 . S
C681 C680 1.387 . S
C681 C683 1.387 . S
H682 C689 0.950 . S
C683 C681 1.387 . S
C683 C685 1.390 . S
C683 H687 0.950 . S
H684 C680 0.950 . S
C685 C683 1.390 . S
C685 C686 1.387 . S
C685 H688 0.950 . S
C686 C685 1.387 . S
C686 C689 1.387 . S
H687 C683 0.950 . S
H688 C685 0.950 . S
C689 C680 1.390 . S
C689 H682 0.950 . S
C689 C686 1.387 . S
C690 C691 1.387 . S
C690 H694 0.950 . S
C690 C699 1.390 . S
C691 C690 1.387 . S
C691 C693 1.387 . S
H692 C699 0.950 . S
C693 C691 1.387 . S
C693 C695 1.390 . S
C693 H697 0.950 . S
H694 C690 0.950 . S
C695 C693 1.390 . S
C695 C696 1.387 . S
C695 H698 0.950 . S
C696 C695 1.387 . S
C696 C699 1.387 . S
H697 C693 0.950 . S
H698 C695 0.950 . S
C699 C690 1.390 . S
C699 H692 0.950 . S
C699 C696 1.387 . S
C700 C701 1.387 . S
C700 H704 0.950 . S
C700 C709 1.390 . S
C701 C700 1.387 . S
C701 C703 1.387 . S
H702 C709 0.950 . S
C703 C701 1.387 . S
C703 C705 1.390 . S
C703 H707 0.950 . S
H704 C700 0.950 . S
C705 C703 1.390 . S
C705 C706 1.387 . S
C705 H708 0.950 . S
C706 C705 1.387 . S
C706 C709 1.387 . S
H707 C703 0.950 . S
H708 C705 0.950 . S
C709 C700 1.390 . S
C709 H702 0.950 . S
C709 C706 1.387 . S
C710 C711 1.382 1_565 S
C710 H714 0.950 . S
C710 C719 1.390 . S
C711 C710 1.382 1_545 S
C711 C713 1.389 1_545 S
H712 C719 0.950 . S
C713 C711 1.389 1_565 S
C713 C715 1.390 . S
C713 H717 0.950 1_565 S
H714 C710 0.950 . S
C715 C713 1.390 . S
C715 C716 1.387 . S
C715 H718 0.950 . S
C716 C715 1.387 . S
C716 C719 1.387 . S
H717 C713 0.950 1_545 S
H718 C715 0.950 . S
C719 C710 1.390 . S
C719 H712 0.950 . S
C719 C716 1.387 . S
C720 C721 1.387 . S
C720 H724 0.950 . S
C720 C729 1.390 1_554 S
C721 C720 1.387 . S
C721 C723 1.387 . S
H722 C729 0.950 . S
C723 C721 1.387 . S
C723 C725 1.390 1_554 S
C723 H727 0.950 . S
H724 C720 0.950 . S
C725 C723 1.390 1_556 S
C725 C726 1.387 . S
C725 H728 0.950 . S
C726 C725 1.387 . S
C726 C729 1.387 . S
H727 C723 0.950 . S
H728 C725 0.950 . S
C729 C720 1.390 1_556 S
C729 H722 0.950 . S
C729 C726 1.387 . S
C730 C731 1.387 1_655 S
C730 H734 0.950 . S
C730 C739 1.390 1_556 S
C731 C730 1.387 1_455 S
C731 C733 1.387 . S
H732 C739 0.950 . S
C733 C731 1.387 . S
C733 C735 1.390 1_556 S
C733 H737 0.950 . S
H734 C730 0.950 . S
C735 C733 1.390 1_554 S
C735 C736 1.387 . S
C735 H738 0.950 . S
C736 C735 1.387 . S
C736 C739 1.387 1_455 S
H737 C733 0.950 . S
H738 C735 0.950 . S
C739 C730 1.390 1_554 S
C739 H732 0.950 . S
C739 C736 1.387 1_655 S
C740 C741 1.387 . S
C740 H744 0.950 . S
C740 C749 1.390 1_556 S
C741 C740 1.387 . S
C741 C743 1.387 . S
H742 C749 0.950 . S
C743 C741 1.387 . S
C743 C745 1.390 1_556 S
C743 H747 0.950 . S
H744 C740 0.950 . S
C745 C743 1.390 1_554 S
C745 C746 1.387 . S
C745 H748 0.950 . S
C746 C745 1.387 . S
C746 C749 1.387 . S
H747 C743 0.950 . S
H748 C745 0.950 . S
C749 C740 1.390 1_554 S
C749 H742 0.950 . S
C749 C746 1.387 . S
C750 C751 1.387 . S
C750 H754 0.950 . S
C750 C759 1.390 . S
C751 C750 1.387 . S
C751 C753 1.387 . S
H752 C759 0.950 . S
C753 C751 1.387 . S
C753 C755 1.390 . S
C753 H757 0.950 . S
H754 C750 0.950 . S
C755 C753 1.390 . S
C755 C756 1.387 . S
C755 H758 0.950 . S
C756 C755 1.387 . S
C756 C759 1.387 . S
H757 C753 0.950 . S
H758 C755 0.950 . S
C759 C750 1.390 . S
C759 H752 0.950 . S
C759 C756 1.387 . S
C760 C761 1.387 . S
C760 H764 0.950 . S
C760 C769 1.390 . S
C761 C760 1.387 . S
C761 C763 1.387 . S
H762 C769 0.950 . S
C763 C761 1.387 . S
C763 C765 1.390 . S
C763 H767 0.950 . S
H764 C760 0.950 . S
C765 C763 1.390 . S
C765 C766 1.387 . S
C765 H768 0.950 . S
C766 C765 1.387 . S
C766 C769 1.387 . S
H767 C763 0.950 . S
H768 C765 0.950 . S
C769 C760 1.390 . S
C769 H762 0.950 . S
C769 C766 1.387 . S
C770 C771 1.387 . S
C770 H774 0.950 . S
C770 C779 1.390 . S
C771 C770 1.387 . S
C771 C773 1.387 . S
H772 C779 0.950 . S
C773 C771 1.387 . S
C773 C775 1.390 . S
C773 H777 0.950 . S
H774 C770 0.950 . S
C775 C773 1.390 . S
C775 C776 1.387 . S
C775 H778 0.950 . S
C776 C775 1.387 . S
C776 C779 1.387 . S
H777 C773 0.950 . S
H778 C775 0.950 . S
C779 C770 1.390 . S
C779 H772 0.950 . S
C779 C776 1.387 . S
C780 C781 1.387 . S
C780 H784 0.950 . S
C780 C789 1.390 . S
C781 C780 1.387 . S
C781 C783 1.387 . S
H782 C789 0.950 . S
C783 C781 1.387 . S
C783 C785 1.390 . S
C783 H787 0.950 . S
H784 C780 0.950 . S
C785 C783 1.390 . S
C785 C786 1.387 . S
C785 H788 0.950 . S
C786 C785 1.387 . S
C786 C789 1.387 . S
H787 C783 0.950 . S
H788 C785 0.950 . S
C789 C780 1.390 . S
C789 H782 0.950 . S
C789 C786 1.387 . S
C790 C791 1.387 . S
C790 H794 0.950 . S
C790 C799 1.390 . S
C791 C790 1.387 . S
C791 C793 1.387 . S
H792 C799 0.950 . S
C793 C791 1.387 . S
C793 C795 1.390 . S
C793 H797 0.950 . S
H794 C790 0.950 . S
C795 C793 1.390 . S
C795 C796 1.387 . S
C795 H798 0.950 . S
C796 C795 1.387 . S
C796 C799 1.387 . S
H797 C793 0.950 . S
H798 C795 0.950 . S
C799 C790 1.390 . S
C799 H792 0.950 . S
C799 C796 1.387 . S
C800 C801 1.387 . S
C800 H804 0.950 . S
C800 C809 1.390 . S
C801 C800 1.387 . S
C801 C803 1.387 . S
H802 C809 0.950 . S
C803 C801 1.387 . S
C803 C805 1.390 . S
C803 H807 0.950 . S
H804 C800 0.950 . S
C805 C803 1.390 . S
C805 C806 1.387 . S
C805 H808 0.950 . S
C806 C805 1.387 . S
C806 C809 1.387 . S
H807 C803 0.950 . S
H808 C805 0.950 . S
C809 C800 1.390 . S
C809 H802 0.950 . S
C809 C806 1.387 . S
C810 C811 1.387 . S
C810 H814 0.932 1_565 S
C810 C819 1.390 1_565 S
C811 C810 1.387 . S
C811 C813 1.387 . S
H812 C819 0.950 . S
C813 C811 1.387 . S
C813 C815 1.390 . S
C813 H817 0.950 . S
H814 C810 0.932 1_545 S
C815 C813 1.390 . S
C815 C816 1.387 . S
C815 H818 0.950 . S
C816 C815 1.387 . S
C816 C819 1.387 1_565 S
H817 C813 0.950 . S
H818 C815 0.950 . S
C819 C810 1.390 1_545 S
C819 H812 0.950 . S
C819 C816 1.387 1_545 S
C820 C821 1.387 . S
C820 H824 0.950 . S
C820 C829 1.390 . S
C821 C820 1.387 . S
C821 C823 1.387 . S
H822 C829 0.950 . S
C823 C821 1.387 . S
C823 C825 1.390 . S
C823 H827 0.950 . S
H824 C820 0.950 . S
C825 C823 1.390 . S
C825 C826 1.387 . S
C825 H828 0.950 . S
C826 C825 1.387 . S
C826 C829 1.387 . S
H827 C823 0.950 . S
H828 C825 0.950 . S
C829 C820 1.390 . S
C829 H822 0.950 . S
C829 C826 1.387 . S
C830 C831 1.387 . S
C830 H834 0.950 . S
C830 C839 1.390 . S
C831 C830 1.387 . S
C831 C833 1.387 . S
H832 C839 0.950 . S
C833 C831 1.387 . S
C833 C835 1.390 . S
C833 H837 0.950 . S
H834 C830 0.950 . S
C835 C833 1.390 . S
C835 C836 1.387 . S
C835 H838 0.950 . S
C836 C835 1.387 . S
C836 C839 1.387 . S
H837 C833 0.950 . S
H838 C835 0.950 . S
C839 C830 1.390 . S
C839 H832 0.950 . S
C839 C836 1.387 . S
C840 C841 1.387 1_455 S
C840 H844 0.950 . S
C840 C849 1.390 1_455 S
C841 C840 1.387 1_655 S
C841 C843 1.387 . S
H842 C849 0.950 . S
C843 C841 1.387 . S
C843 C845 1.390 . S
C843 H847 0.950 . S
H844 C840 0.950 . S
C845 C843 1.390 . S
C845 C846 1.387 . S
C845 H848 0.950 . S
C846 C845 1.387 . S
C846 C849 1.387 . S
H847 C843 0.950 . S
H848 C845 0.950 . S
C849 C840 1.390 1_655 S
C849 H842 0.950 . S
C849 C846 1.387 . S
C850 C851 1.387 . S
C850 H854 0.950 . S
C850 C859 1.390 . S
C851 C850 1.387 . S
C851 C853 1.387 . S
H852 C859 0.950 . S
C853 C851 1.387 . S
C853 C855 1.390 . S
C853 H857 0.950 . S
H854 C850 0.950 . S
C855 C853 1.390 . S
C855 C856 1.387 . S
C855 H858 0.950 . S
C856 C855 1.387 . S
C856 C859 1.387 . S
H857 C853 0.950 . S
H858 C855 0.950 . S
C859 C850 1.390 . S
C859 H852 0.950 . S
C859 C856 1.387 . S
C860 C861 1.387 . S
C860 H864 0.950 . S
C860 C869 1.390 . S
C861 C860 1.387 . S
C861 C863 1.387 . S
H862 C869 0.950 . S
C863 C861 1.387 . S
C863 C865 1.390 . S
C863 H867 0.950 . S
H864 C860 0.950 . S
C865 C863 1.390 . S
C865 C866 1.387 . S
C865 H868 0.950 . S
C866 C865 1.387 . S
C866 C869 1.387 . S
H867 C863 0.950 . S
H868 C865 0.950 . S
C869 C860 1.390 . S
C869 H862 0.950 . S
C869 C866 1.387 . S
C870 C871 1.387 . S
C870 H874 0.950 . S
C870 C879 1.390 1_655 S
C871 C870 1.387 . S
C871 C873 1.387 1_655 S
H872 C879 0.950 . S
C873 C871 1.387 1_455 S
C873 C875 1.390 . S
C873 H877 0.950 . S
H874 C870 0.950 . S
C875 C873 1.390 . S
C875 C876 1.387 . S
C875 H878 0.950 . S
C876 C875 1.387 . S
C876 C879 1.387 . S
H877 C873 0.950 . S
H878 C875 0.950 . S
C879 C870 1.390 1_455 S
C879 H872 0.950 . S
C879 C876 1.387 . S
C880 C881 1.387 . S
C880 H884 0.950 . S
C880 C889 1.390 . S
C881 C880 1.387 . S
C881 C883 1.387 . S
H882 C889 0.950 . S
C883 C881 1.387 . S
C883 C885 1.390 . S
C883 H887 0.950 . S
H884 C880 0.950 . S
C885 C883 1.390 . S
C885 C886 1.387 . S
C885 H888 0.950 . S
C886 C885 1.387 . S
C886 C889 1.387 . S
H887 C883 0.950 . S
H888 C885 0.950 . S
C889 C880 1.390 . S
C889 H882 0.950 . S
C889 C886 1.387 . S
C890 C891 1.387 . S
C890 H894 0.950 . S
C890 C899 1.390 1_565 S
C891 C890 1.387 . S
C891 C893 1.387 . S
H892 C899 0.950 . S
C893 C891 1.387 . S
C893 C895 1.390 1_565 S
C893 H897 0.950 . S
H894 C890 0.950 . S
C895 C893 1.390 1_545 S
C895 C896 1.387 . S
C895 H898 0.950 . S
C896 C895 1.387 . S
C896 C899 1.387 . S
H897 C893 0.950 . S
H898 C895 0.950 . S
C899 C890 1.390 1_545 S
C899 H892 0.950 . S
C899 C896 1.387 . S
C900 C901 1.387 . S
C900 H904 0.950 . S
C900 C909 1.390 . S
C901 C900 1.387 . S
C901 C903 1.387 . S
H902 C909 0.950 . S
C903 C901 1.387 . S
C903 C905 1.390 . S
C903 H907 0.950 . S
H904 C900 0.950 . S
C905 C903 1.390 . S
C905 C906 1.387 . S
C905 H908 0.950 . S
C906 C905 1.387 . S
C906 C909 1.387 . S
H907 C903 0.950 . S
H908 C905 0.950 . S
C909 C900 1.390 . S
C909 H902 0.950 . S
C909 C906 1.387 . S
C910 C911 1.387 . S
C910 H914 0.950 . S
C910 C919 1.390 . S
C911 C910 1.387 . S
C911 C913 1.387 . S
H912 C919 0.950 . S
C913 C911 1.387 . S
C913 C915 1.390 . S
C913 H917 0.950 . S
H914 C910 0.950 . S
C915 C913 1.390 . S
C915 C916 1.387 . S
C915 H918 0.950 . S
C916 C915 1.387 . S
C916 C919 1.387 . S
H917 C913 0.950 . S
H918 C915 0.950 . S
C919 C910 1.390 . S
C919 H912 0.950 . S
C919 C916 1.387 . S
C920 C921 1.387 . S
C920 H924 0.950 . S
C920 C929 1.390 . S
C921 C920 1.387 . S
C921 C923 1.387 . S
H922 C929 0.950 . S
C923 C921 1.387 . S
C923 C925 1.390 . S
C923 H927 0.950 . S
H924 C920 0.950 . S
C925 C923 1.390 . S
C925 C926 1.387 . S
C925 H928 0.950 . S
C926 C925 1.387 . S
C926 C929 1.387 . S
H927 C923 0.950 . S
H928 C925 0.950 . S
C929 C920 1.390 . S
C929 H922 0.950 . S
C929 C926 1.387 . S
C930 C931 1.387 . S
C930 H934 0.950 . S
C930 C939 1.390 . S
C931 C930 1.387 . S
C931 C933 1.387 . S
H932 C939 0.950 . S
C933 C931 1.387 . S
C933 C935 1.390 . S
C933 H937 0.950 . S
H934 C930 0.950 . S
C935 C933 1.390 . S
C935 C936 1.387 . S
C935 H938 0.950 . S
C936 C935 1.387 . S
C936 C939 1.387 . S
H937 C933 0.950 . S
H938 C935 0.950 . S
C939 C930 1.390 . S
C939 H932 0.950 . S
C939 C936 1.387 . S
C940 C941 1.387 . S
C940 H944 0.950 . S
C940 C949 1.390 . S
C941 C940 1.387 . S
C941 C943 1.387 . S
H942 C949 0.950 . S
C943 C941 1.387 . S
C943 C945 1.390 . S
C943 H947 0.950 . S
H944 C940 0.950 . S
C945 C943 1.390 . S
C945 C946 1.387 . S
C945 H948 0.950 . S
C946 C945 1.387 . S
C946 C949 1.387 . S
H947 C943 0.950 . S
H948 C945 0.950 . S
C949 C940 1.390 . S
C949 H942 0.950 . S
C949 C946 1.387 . S
C950 C951 1.387 . S
C950 H954 0.950 . S
C950 C959 1.390 . S
C951 C950 1.387 . S
C951 C953 1.387 . S
H952 C959 0.950 . S
C953 C951 1.387 . S
C953 C955 1.390 . S
C953 H957 0.950 . S
H954 C950 0.950 . S
C955 C953 1.390 . S
C955 C956 1.387 . S
C955 H958 0.950 . S
C956 C955 1.387 . S
C956 C959 1.387 . S
H957 C953 0.950 . S
H958 C955 0.950 . S
C959 C950 1.390 . S
C959 H952 0.950 . S
C959 C956 1.387 . S
C960 C961 1.387 . S
C960 H964 0.950 . S
C960 C969 1.390 . S
C961 C960 1.387 . S
C961 C963 1.387 . S
H962 C969 0.950 . S
C963 C961 1.387 . S
C963 C965 1.390 . S
C963 H967 0.950 . S
H964 C960 0.950 . S
C965 C963 1.390 . S
C965 C966 1.387 . S
C965 H968 0.950 . S
C966 C965 1.387 . S
C966 C969 1.387 . S
H967 C963 0.950 . S
H968 C965 0.950 . S
C969 C960 1.390 . S
C969 H962 0.950 . S
C969 C966 1.387 . S
C970 C971 1.387 . S
C970 H974 0.950 . S
C970 C979 1.390 . S
C971 C970 1.387 . S
C971 C973 1.387 . S
H972 C979 0.950 . S
C973 C971 1.387 . S
C973 C975 1.390 . S
C973 H977 0.950 . S
H974 C970 0.950 . S
C975 C973 1.390 . S
C975 C976 1.387 . S
C975 H978 0.950 . S
C976 C975 1.387 . S
C976 C979 1.387 . S
H977 C973 0.950 . S
H978 C975 0.950 . S
C979 C970 1.390 . S
C979 H972 0.950 . S
C979 C976 1.387 . S
C980 C981 1.387 . S
C980 H984 0.950 . S
C980 C989 1.390 . S
C981 C980 1.387 . S
C981 C983 1.387 . S
H982 C989 0.950 . S
C983 C981 1.387 . S
C983 C985 1.390 . S
C983 H987 0.950 . S
H984 C980 0.950 . S
C985 C983 1.390 . S
C985 C986 1.387 . S
C985 H988 0.950 . S
C986 C985 1.387 . S
C986 C989 1.387 . S
H987 C983 0.950 . S
H988 C985 0.950 . S
C989 C980 1.390 . S
C989 H982 0.950 . S
C989 C986 1.387 . S
C990 C991 1.387 . S
C990 H994 0.950 . S
C990 C999 1.390 1_655 S
C991 C990 1.387 . S
C991 C993 1.387 . S
H992 C999 0.950 . S
C993 C991 1.387 . S
C993 C995 1.390 1_655 S
C993 H997 0.950 . S
H994 C990 0.950 . S
C995 C993 1.390 1_455 S
C995 C996 1.387 . S
C995 H998 0.950 . S
C996 C995 1.387 . S
C996 C999 1.387 . S
H997 C993 0.950 . S
H998 C995 0.950 . S
C999 C990 1.390 1_455 S
C999 H992 0.950 . S
C999 C996 1.387 . S
C1000 C1001 1.387 . S
C1000 H1004 0.950 . S
C1000 C1009 1.390 . S
C1001 C1000 1.387 . S
C1001 C1003 1.387 . S
H1002 C1009 0.950 . S
C1003 C1001 1.387 . S
C1003 C1005 1.390 . S
C1003 H1007 0.950 . S
H1004 C1000 0.950 . S
C1005 C1003 1.390 . S
C1005 C1006 1.387 . S
C1005 H1008 0.950 . S
C1006 C1005 1.387 . S
C1006 C1009 1.387 . S
H1007 C1003 0.950 . S
H1008 C1005 0.950 . S
C1009 C1000 1.390 . S
C1009 H1002 0.950 . S
C1009 C1006 1.387 . S
C1010 C1011 1.387 1_545 S
C1010 H1014 0.950 1_545 S
C1010 C1019 1.390 . S
C1011 C1010 1.387 1_565 S
C1011 C1013 1.387 1_565 S
H1012 C1019 0.950 . S
C1013 C1011 1.387 1_545 S
C1013 C1015 1.390 . S
C1013 H1017 0.950 . S
H1014 C1010 0.950 1_565 S
C1015 C1013 1.390 . S
C1015 C1016 1.387 . S
C1015 H1018 0.950 . S
C1016 C1015 1.387 . S
C1016 C1019 1.387 . S
H1017 C1013 0.950 . S
H1018 C1015 0.950 . S
C1019 C1010 1.390 . S
C1019 H1012 0.950 . S
C1019 C1016 1.387 . S
C1020 C1021 1.387 . S
C1020 H1024 0.950 . S
C1020 C1029 1.390 1_565 S
C1021 C1020 1.387 . S
C1021 C1023 1.387 . S
H1022 C1029 0.950 . S
C1023 C1021 1.387 . S
C1023 C1025 1.390 1_565 S
C1023 H1027 0.950 . S
H1024 C1020 0.950 . S
C1025 C1023 1.390 1_545 S
C1025 C1026 1.387 . S
C1025 H1028 0.950 . S
C1026 C1025 1.387 . S
C1026 C1029 1.387 . S
H1027 C1023 0.950 . S
H1028 C1025 0.950 . S
C1029 C1020 1.390 1_545 S
C1029 H1022 0.950 . S
C1029 C1026 1.387 . S
C1030 C1031 1.387 . S
C1030 H1034 0.950 . S
C1030 C1039 1.390 . S
C1031 C1030 1.387 . S
C1031 C1033 1.387 . S
H1032 C1039 0.950 1_655 S
C1033 C1031 1.387 . S
C1033 C1035 1.390 . S
C1033 H1037 0.950 . S
H1034 C1030 0.950 . S
C1035 C1033 1.390 . S
C1035 C1036 1.387 1_455 S
C1035 H1038 0.950 . S
C1036 C1035 1.387 1_655 S
C1036 C1039 1.387 1_655 S
H1037 C1033 0.950 . S
H1038 C1035 0.950 . S
C1039 C1030 1.390 . S
C1039 H1032 0.950 1_455 S
C1039 C1036 1.387 1_455 S
C1040 C1041 1.387 . S
C1040 H1044 0.950 . S
C1040 C1049 1.390 . S
C1041 C1040 1.387 . S
C1041 C1043 1.387 . S
H1042 C1049 0.950 . S
C1043 C1041 1.387 . S
C1043 C1045 1.390 . S
C1043 H1047 0.950 . S
H1044 C1040 0.950 . S
C1045 C1043 1.390 . S
C1045 C1046 1.387 . S
C1045 H1048 0.950 . S
C1046 C1045 1.387 . S
C1046 C1049 1.387 . S
H1047 C1043 0.950 . S
H1048 C1045 0.950 . S
C1049 C1040 1.390 . S
C1049 H1042 0.950 . S
C1049 C1046 1.387 . S
C1050 C1051 1.387 . S
C1050 H1054 0.950 . S
C1050 C1059 1.390 . S
C1051 C1050 1.387 . S
C1051 C1053 1.387 . S
H1052 C1059 0.950 . S
C1053 C1051 1.387 . S
C1053 C1055 1.390 . S
C1053 H1057 0.950 . S
H1054 C1050 0.950 . S
C1055 C1053 1.390 . S
C1055 C1056 1.387 . S
C1055 H1058 0.950 . S
C1056 C1055 1.387 . S
C1056 C1059 1.387 . S
H1057 C1053 0.950 . S
H1058 C1055 0.950 . S
C1059 C1050 1.390 . S
C1059 H1052 0.950 . S
C1059 C1056 1.387 . S
C1060 C1061 1.387 . S
C1060 H1064 0.950 . S
C1060 C1069 1.390 . S
C1061 C1060 1.387 . S
C1061 C1063 1.387 . S
H1062 C1069 0.950 . S
C1063 C1061 1.387 . S
C1063 C1065 1.390 . S
C1063 H1067 0.950 . S
H1064 C1060 0.950 . S
C1065 C1063 1.390 . S
C1065 C1066 1.387 . S
C1065 H1068 0.950 . S
C1066 C1065 1.387 . S
C1066 C1069 1.387 . S
H1067 C1063 0.950 . S
H1068 C1065 0.950 . S
C1069 C1060 1.390 . S
C1069 H1062 0.950 . S
C1069 C1066 1.387 . S
C1070 C1071 1.387 . S
C1070 H1074 0.950 . S
C1070 C1079 1.390 . S
C1071 C1070 1.387 . S
C1071 C1073 1.387 . S
H1072 C1079 0.950 . S
C1073 C1071 1.387 . S
C1073 C1075 1.390 . S
C1073 H1077 0.950 . S
H1074 C1070 0.950 . S
C1075 C1073 1.390 . S
C1075 C1076 1.387 . S
C1075 H1078 0.950 . S
C1076 C1075 1.387 . S
C1076 C1079 1.387 . S
H1077 C1073 0.950 . S
H1078 C1075 0.950 . S
C1079 C1070 1.390 . S
C1079 H1072 0.950 . S
C1079 C1076 1.387 . S
C541 N6 0.955 . S
C546 C76 0.974 . S
C551 C16 0.975 . S
C556 N36 0.956 . S
C561 C46 0.970 . S
C566 N66 0.951 . S
C571 N96 0.955 . S
C576 C136 0.974 . S
C581 C166 0.974 . S
C586 N126 0.955 . S
C591 N156 0.953 . S
C596 C106 0.971 . S
C601 C256 0.971 1_545 S
C606 N186 0.953 . S
C611 C196 0.983 . S
C616 N216 0.955 . S
C621 N246 0.952 . S
C626 C226 0.971 . S
C631 C316 0.975 . S
C636 N276 0.957 . S
C641 N306 0.957 . S
C646 C346 0.975 . S
C651 C286 0.972 . S
C656 N336 0.954 . S
C661 N366 0.951 . S
C666 C436 0.971 . S
C671 C376 0.973 . S
C676 N396 0.955 . S
C681 C406 0.970 . S
C686 N426 0.952 . S
C691 C496 0.970 1_455 S
C696 N456 0.951 . S
C701 C526 0.971 . S
C706 N486 0.953 . S
C711 C466 0.983 . S
C716 N516 0.955 . S
C721 C1 1.644 . S
C726 C151 1.644 . S
C731 C91 1.644 . S
C736 C31 1.643 . S
C741 C121 1.645 . S
C746 C61 1.644 . S
C751 C181 1.644 . S
C756 C331 1.644 . S
C761 C211 1.645 . S
C766 C271 1.644 . S
C771 C301 1.643 . S
C776 C241 1.644 . S
C781 C361 1.644 . S
C786 C511 1.644 . S
C791 C451 1.644 . S
C796 C391 1.644 . S
C801 C481 1.643 . S
C806 C421 1.644 . S
C811 C310 2.031 . S
C816 C10 2.031 . S
C821 C40 2.028 . S
C826 C340 2.029 . S
C831 C280 2.031 . S
C836 C70 2.031 . S
C841 C100 2.031 . S
C846 C430 2.031 . S
C851 C130 2.030 . S
C856 C370 2.030 . S
C861 C400 2.030 . S
C866 C160 2.030 . S
C871 C490 2.028 . S
C876 C190 2.028 . S
C881 C220 2.028 . S
C886 C520 2.029 . S
C891 C250 2.030 . S
C896 C460 2.030 . S
C901 C87 1.468 . S
C906 N14 1.421 . S
C911 C27 1.467 . S
C916 N44 1.419 . S
C921 N74 1.420 . S
C926 C57 1.467 . S
C931 C147 1.465 . S
C936 N104 1.418 . S
C941 C177 1.465 . S
C946 N134 1.418 . S
C951 N164 1.418 . S
C956 C117 1.466 . S
C961 C267 1.466 . S
C966 N194 1.419 . S
C971 N224 1.419 . S
C976 C207 1.467 . S
C981 C237 1.465 . S
C986 N254 1.417 . S
C991 N284 1.419 . S
C996 C327 1.467 . S
C1001 N314 1.418 . S
C1006 C357 1.466 . S
C1011 C297 1.465 . S
C1016 N344 1.417 . S
C1021 N374 1.418 . S
C1026 C447 1.465 . S
C1031 N404 1.419 . S
C1036 C387 1.466 . S
C1041 C417 1.467 . S
C1046 N434 1.420 . S
C1051 N464 1.418 . S
C1056 C507 1.466 . S
C1061 N494 1.417 . S
C1066 C537 1.465 . S
C1071 C477 1.468 . S
C1076 N524 1.421 . S
