# Generated by pormake.
# Topology wkq, (6)-cn, num edge types: 1
# Building blocks:
#     Node 0, Type 0, BuildingBlock: IZENUY_clean_sbu_0, # of connection points: 6
#     Node 1, Type 0, BuildingBlock: IZENUY_clean_sbu_0, # of connection points: 6
#     Node 2, Type 0, BuildingBlock: IZENUY_clean_sbu_0, # of connection points: 6
#     Node 3, Type 0, BuildingBlock: IZENUY_clean_sbu_0, # of connection points: 6
#     Node 4, Type 0, BuildingBlock: IZENUY_clean_sbu_0, # of connection points: 6
#     Node 5, Type 0, BuildingBlock: IZENUY_clean_sbu_0, # of connection points: 6
#     Node 6, Type 0, BuildingBlock: IZENUY_clean_sbu_0, # of connection points: 6
#     Node 7, Type 0, BuildingBlock: IZENUY_clean_sbu_0, # of connection points: 6
#     Node 8, Type 0, BuildingBlock: IZENUY_clean_sbu_0, # of connection points: 6
#     Node 9, Type 0, BuildingBlock: IZENUY_clean_sbu_0, # of connection points: 6
#     Node 10, Type 0, BuildingBlock: IZENUY_clean_sbu_0, # of connection points: 6
#     Node 11, Type 0, BuildingBlock: IZENUY_clean_sbu_0, # of connection points: 6
#     Edge 12, Type (0, 0), BuildingBlock: OJICUG_clean_linker_0, # of connection points: 2
#     Edge 13, Type (0, 0), BuildingBlock: OJICUG_clean_linker_0, # of connection points: 2
#     Edge 14, Type (0, 0), BuildingBlock: OJICUG_clean_linker_0, # of connection points: 2
#     Edge 15, Type (0, 0), BuildingBlock: OJICUG_clean_linker_0, # of connection points: 2
#     Edge 16, Type (0, 0), BuildingBlock: OJICUG_clean_linker_0, # of connection points: 2
#     Edge 17, Type (0, 0), BuildingBlock: OJICUG_clean_linker_0, # of connection points: 2
#     Edge 18, Type (0, 0), BuildingBlock: OJICUG_clean_linker_0, # of connection points: 2
#     Edge 19, Type (0, 0), BuildingBlock: OJICUG_clean_linker_0, # of connection points: 2
#     Edge 20, Type (0, 0), BuildingBlock: OJICUG_clean_linker_0, # of connection points: 2
#     Edge 21, Type (0, 0), BuildingBlock: OJICUG_clean_linker_0, # of connection points: 2
#     Edge 22, Type (0, 0), BuildingBlock: OJICUG_clean_linker_0, # of connection points: 2
#     Edge 23, Type (0, 0), BuildingBlock: OJICUG_clean_linker_0, # of connection points: 2
#     Edge 24, Type (0, 0), BuildingBlock: OJICUG_clean_linker_0, # of connection points: 2
#     Edge 25, Type (0, 0), BuildingBlock: OJICUG_clean_linker_0, # of connection points: 2
#     Edge 26, Type (0, 0), BuildingBlock: OJICUG_clean_linker_0, # of connection points: 2
#     Edge 27, Type (0, 0), BuildingBlock: OJICUG_clean_linker_0, # of connection points: 2
#     Edge 28, Type (0, 0), BuildingBlock: OJICUG_clean_linker_0, # of connection points: 2
#     Edge 29, Type (0, 0), BuildingBlock: OJICUG_clean_linker_0, # of connection points: 2
#     Edge 30, Type (0, 0), BuildingBlock: OJICUG_clean_linker_0, # of connection points: 2
#     Edge 31, Type (0, 0), BuildingBlock: OJICUG_clean_linker_0, # of connection points: 2
#     Edge 32, Type (0, 0), BuildingBlock: OJICUG_clean_linker_0, # of connection points: 2
#     Edge 33, Type (0, 0), BuildingBlock: OJICUG_clean_linker_0, # of connection points: 2
#     Edge 34, Type (0, 0), BuildingBlock: OJICUG_clean_linker_0, # of connection points: 2
#     Edge 35, Type (0, 0), BuildingBlock: OJICUG_clean_linker_0, # of connection points: 2
#     Edge 36, Type (0, 0), BuildingBlock: OJICUG_clean_linker_0, # of connection points: 2
#     Edge 37, Type (0, 0), BuildingBlock: OJICUG_clean_linker_0, # of connection points: 2
#     Edge 38, Type (0, 0), BuildingBlock: OJICUG_clean_linker_0, # of connection points: 2
#     Edge 39, Type (0, 0), BuildingBlock: OJICUG_clean_linker_0, # of connection points: 2
#     Edge 40, Type (0, 0), BuildingBlock: OJICUG_clean_linker_0, # of connection points: 2
#     Edge 41, Type (0, 0), BuildingBlock: OJICUG_clean_linker_0, # of connection points: 2
#     Edge 42, Type (0, 0), BuildingBlock: OJICUG_clean_linker_0, # of connection points: 2
#     Edge 43, Type (0, 0), BuildingBlock: OJICUG_clean_linker_0, # of connection points: 2
#     Edge 44, Type (0, 0), BuildingBlock: OJICUG_clean_linker_0, # of connection points: 2
#     Edge 45, Type (0, 0), BuildingBlock: OJICUG_clean_linker_0, # of connection points: 2
#     Edge 46, Type (0, 0), BuildingBlock: OJICUG_clean_linker_0, # of connection points: 2
#     Edge 47, Type (0, 0), BuildingBlock: OJICUG_clean_linker_0, # of connection points: 2
# Relax obj value: 0.404
# Max RMSD: 0.286
# Mean RMSD: 0.286
data_MOF--net-wkq--node1-IZENUY_clean_sbu_0--edge1-OJICUG_clean_linker_0
_symmetry_space_group_name_H-M    P1
_symmetry_Int_Tables_number       1
_symmetry_cell_setting            triclinic
loop_
_symmetry_equiv_pos_as_xyz
'x, y, z'
_cell_length_a     27.009176
_cell_length_b     26.855976
_cell_length_c     26.865527
_cell_angle_alpha  90.177195
_cell_angle_beta   89.960712
_cell_angle_gamma 120.17107
loop_
_atom_site_label
_atom_site_type_symbol
_atom_site_fract_x
_atom_site_fract_y
_atom_site_fract_z
_atom_type_partial_charge
Fe0 Fe 0.25913 0.37285 0.03008 0.0
Fe1 Fe 0.32876 0.50324 0.04864 0.0
O2 O 0.27752 0.44393 0.01303 0.0
Fe3 Fe 0.24519 0.456 0.96024 0.0
O4 O 0.17446 0.38953 0.96842 0.0
O5 O 0.18517 0.35173 0.03729 0.0
O6 O 0.26625 0.38708 0.09703 0.0
C7 C 0.26942 0.42803 0.12269 0.0
C8 C 0.26725 0.37213 0.92563 0.0
O9 O 0.28492 0.47665 0.10374 0.0
C10 C 0.36186 0.54601 0.95544 0.0
O11 O 0.33294 0.3894 0.02532 0.0
O12 O 0.36981 0.46967 0.06775 0.0
O13 O 0.273 0.42129 0.9192 0.0
O14 O 0.24785 0.34552 0.96614 0.0
C15 C 0.2459 0.53378 0.02722 0.0
O16 O 0.37598 0.53326 -0.00398 0.0
O17 O 0.30958 0.52453 0.94322 0.0
C18 C 0.37132 0.42555 0.05398 0.0
O19 O 0.29683 0.5479 0.0376 0.0
O20 O 0.21638 0.49254 -0.0022 0.0
C21 C 0.15343 0.35679 0.00602 0.0
Fe22 Fe 0.82622 0.23486 0.12448 0.0
Fe23 Fe 0.9179 0.25457 0.20263 0.0
O24 O 0.86603 0.26975 0.17895 0.0
Fe25 Fe 0.85386 0.32102 0.20975 0.0
O26 O 0.77906 0.28793 0.19076 0.0
O27 O 0.75858 0.20474 0.15869 0.0
O28 O 0.82327 0.16527 0.13628 0.0
C29 C 0.83361 0.14581 0.17559 0.0
C30 C 0.85448 0.35151 0.11393 0.0
O31 O 0.86663 0.17922 0.20861 0.0
C32 C 0.97284 0.36799 0.2257 0.0
O33 O 0.89162 0.26308 0.08728 0.0
O34 O 0.94113 0.2441 0.14143 0.0
O35 O 0.87832 0.36717 0.1559 0.0
O36 O 0.822 0.29842 0.10351 0.0
C37 C 0.85921 0.26048 0.288 0.0
O38 O 0.97392 0.32978 0.1991 0.0
O39 O 0.92543 0.36358 0.23647 0.0
C40 C 0.93516 0.25941 0.09838 0.0
O41 O 0.90218 0.26135 0.26796 0.0
O42 O 0.82952 0.27707 0.26478 0.0
C43 C 0.74417 0.23515 0.18385 0.0
Fe44 Fe 0.71016 0.90461 0.36468 0.0
Fe45 Fe 0.58003 0.84983 0.36989 0.0
O46 O 0.64162 0.85598 0.34082 0.0
Fe47 Fe 0.63347 0.81371 0.28716 0.0
O48 O 0.69761 0.80683 0.29939 0.0
O49 O 0.72763 0.84903 0.37219 0.0
O50 O 0.68703 0.89133 0.43002 0.0
C51 C 0.64182 0.85196 0.45025 0.0
C52 C 0.72213 0.92124 0.26083 0.0
O53 O 0.59546 0.82487 0.42647 0.0
C54 C 0.55039 0.84795 0.27406 0.0
O55 O 0.69769 0.9646 0.35956 0.0
O56 O 0.61408 0.92277 0.39483 0.0
O57 O 0.67368 0.87875 0.24954 0.0
O58 O 0.7441 0.92454 0.30326 0.0
C59 C 0.54929 0.73698 0.34876 0.0
O60 O 0.56227 0.87533 0.31451 0.0
O61 O 0.56757 0.81244 0.26551 0.0
C62 C 0.66115 0.96765 0.38642 0.0
O63 O 0.53434 0.77443 0.35264 0.0
O64 O 0.59255 0.74718 0.32294 0.0
C65 C 0.72624 0.81522 0.3392 0.0
Fe66 Fe 0.85322 0.70102 0.53397 0.0
Fe67 Fe 0.78409 0.57158 0.55339 0.0
O68 O 0.83063 0.62943 0.5148 0.0
Fe69 Fe 0.85637 0.61699 0.45806 0.0
O70 O 0.93075 0.66084 0.47914 0.0
O71 O 0.92161 0.73384 0.50092 0.0
O72 O 0.88946 0.69412 0.58849 0.0
C73 C 0.86422 0.6535 0.61938 0.0
C74 C 0.82705 0.70257 0.4363 0.0
O75 O 0.81503 0.61111 0.61049 0.0
C76 C 0.74415 0.52876 0.4559 0.0
O77 O 0.78954 0.68228 0.57112 0.0
O78 O 0.72951 0.59237 0.55231 0.0
O79 O 0.85528 0.67755 0.42558 0.0
O80 O 0.81776 0.7103 0.48097 0.0
C81 C 0.86006 0.53739 0.52512 0.0
O82 O 0.74614 0.52136 0.5022 0.0
O83 O 0.78432 0.57166 0.43405 0.0
C84 C 0.73935 0.63937 0.57154 0.0
O85 O 0.83508 0.54788 0.55932 0.0
O86 O 0.85996 0.55375 0.48084 0.0
C87 C 0.95304 0.71215 0.49433 0.0
Fe88 Fe 0.18997 0.83025 0.69915 0.0
Fe89 Fe 0.2519 0.76148 0.70771 0.0
O90 O 0.24058 0.81272 0.67589 0.0
Fe91 Fe 0.27983 0.84508 0.62073 0.0
O92 O 0.28493 0.91614 0.63123 0.0
O93 O 0.2417 0.90522 0.70315 0.0
O94 O 0.20736 0.82646 0.76447 0.0
C95 C 0.24899 0.82521 0.78494 0.0
C96 C 0.17033 0.8202 0.5953 0.0
O97 O 0.27771 0.80716 0.76195 0.0
C98 C 0.24984 0.7268 0.61274 0.0
O99 O 0.13357 0.75557 0.69784 0.0
O100 O 0.18075 0.72123 0.7357 0.0
O101 O 0.21398 0.81666 0.58433 0.0
O102 O 0.16536 0.83803 0.63765 0.0
C103 C 0.36179 0.84487 0.68038 0.0
O104 O 0.22618 0.71339 0.65493 0.0
O105 O 0.2816 0.77959 0.6007 0.0
C106 C 0.13422 0.71995 0.7277 0.0
O107 O 0.32621 0.79251 0.68803 0.0
O108 O 0.34801 0.87505 0.65432 0.0
C109 C 0.27491 0.93718 0.66986 0.0
Fe110 Fe 0.39566 0.17815 0.86512 0.0
Fe111 Fe 0.52561 0.23529 0.87486 0.0
O112 O 0.46479 0.22687 0.84254 0.0
Fe113 Fe 0.47433 0.26688 0.78733 0.0
O114 O 0.41 0.27433 0.79641 0.0
O115 O 0.37662 0.23296 0.86887 0.0
O116 O 0.41677 0.19438 0.9309 0.0
C117 C 0.46078 0.23521 0.95166 0.0
C118 C 0.38667 0.15854 0.76104 0.0
O119 O 0.50765 0.26294 0.9287 0.0
C120 C 0.55772 0.23203 0.78056 0.0
O121 O 0.40934 0.11869 0.86388 0.0
O122 O 0.49108 0.16328 0.90246 0.0
O123 O 0.43527 0.20093 0.7507 0.0
O124 O 0.36357 0.15492 0.80301 0.0
C125 C 0.5588 0.34774 0.84627 0.0
O126 O 0.54563 0.2074 0.82226 0.0
O127 O 0.54046 0.26669 0.7688 0.0
C128 C 0.4453 0.1173 0.8927 0.0
O129 O 0.57224 0.30997 0.85553 0.0
O130 O 0.51465 0.33513 0.82094 0.0
C131 C 0.3793 0.26607 0.83482 0.0
Fe132 Fe 0.62844 0.83954 0.82485 0.0
Fe133 Fe 0.6995 0.81968 0.7458 0.0
O134 O 0.63265 0.80517 0.76973 0.0
Fe135 Fe 0.56905 0.75562 0.73801 0.0
O136 O 0.52831 0.78943 0.75757 0.0
O137 O 0.59134 0.87097 0.79176 0.0
O138 O 0.69531 0.90903 0.81303 0.0
C139 C 0.72505 0.92858 0.77364 0.0
C140 C 0.53708 0.72293 0.83322 0.0
O141 O 0.7245 0.89526 0.74041 0.0
C142 C 0.63952 0.70668 0.72193 0.0
O143 O 0.66527 0.81034 0.86125 0.0
O144 O 0.73333 0.82933 0.80674 0.0
O145 O 0.54492 0.70811 0.79069 0.0
O146 O 0.56076 0.77585 0.84579 0.0
C147 C 0.63631 0.81651 0.66063 0.0
O148 O 0.67898 0.74412 0.74888 0.0
O149 O 0.59728 0.71237 0.71086 0.0
C150 C 0.71227 0.81376 0.84979 0.0
O151 O 0.67745 0.8138 0.68047 0.0
O152 O 0.59031 0.80098 0.68389 0.0
C153 C 0.54685 0.84203 0.76586 0.0
Fe154 Fe 0.92672 0.70469 0.92049 0.0
Fe155 Fe 0.87223 0.57454 0.9045 0.0
O156 O 0.87589 0.63319 0.9377 0.0
Fe157 Fe 0.82885 0.61951 -0.01115 0.0
O158 O 0.82295 0.68496 -0.02004 0.0
O159 O 0.87182 0.72268 0.91136 0.0
O160 O 0.92123 0.68939 0.85366 0.0
C161 C 0.88567 0.64659 0.82817 0.0
C162 C 0.93295 0.70523 0.0251 0.0
O163 O 0.85469 0.59764 0.84754 0.0
C164 C 0.8604 0.53387 -0.00175 0.0
O165 O 0.98643 0.69201 0.927 0.0
O166 O 0.94715 0.61046 0.88663 0.0
O167 O 0.88993 0.65558 0.03135 0.0
O168 O 0.94002 0.73198 -0.01542 0.0
C169 C 0.75713 0.54058 0.9204 0.0
O170 O 0.89072 0.54899 0.95956 0.0
O171 O 0.8253 0.55127 0.00666 0.0
C172 C 0.9912 0.65632 0.89973 0.0
O173 O 0.79557 0.52745 0.91438 0.0
O174 O 0.76566 0.58184 0.94876 0.0
C175 C 0.83432 0.71712 0.94206 0.0
Fe176 Fe 0.32872 0.8422 0.07418 0.0
Fe177 Fe 0.24588 0.81028 0.16192 0.0
O178 O 0.27641 0.85053 0.10677 0.0
Fe179 Fe 0.25596 0.89938 0.08459 0.0
O180 O 0.26141 0.88425 0.0186 0.0
O181 O 0.28359 0.81565 0.02015 0.0
O182 O 0.29973 0.76702 0.09238 0.0
C183 C 0.24821 0.72978 0.10125 0.0
C184 C 0.36671 0.96059 0.05764 0.0
O185 O 0.21742 0.74227 0.12789 0.0
C186 C 0.2669 0.91858 0.18858 0.0
O187 O 0.37643 0.86897 0.12689 0.0
O188 O 0.31178 0.80944 0.18005 0.0
O189 O 0.32902 0.95891 0.08628 0.0
O190 O 0.36673 0.91474 0.04761 0.0
C191 C 0.15177 0.81138 0.11463 0.0
O192 O 0.27342 0.87629 0.19872 0.0
O193 O 0.24659 0.92172 0.14692 0.0
C194 C 0.36377 0.84377 0.16831 0.0
O195 O 0.17431 0.80353 0.15318 0.0
O196 O 0.18221 0.84432 0.08046 0.0
C197 C 0.26499 0.84387 -0.00261 0.0
Fe198 Fe 0.3979 0.24778 0.25051 0.0
Fe199 Fe 0.52851 0.31797 0.24195 0.0
O200 O 0.46623 0.26579 0.27348 0.0
Fe201 Fe 0.47349 0.23302 0.32818 0.0
O202 O 0.40783 0.16185 0.31737 0.0
O203 O 0.3757 0.17303 0.2455 0.0
O204 O 0.4192 0.25302 0.18498 0.0
C205 C 0.46244 0.25531 0.16415 0.0
C206 C 0.38832 0.25668 0.35447 0.0
O207 O 0.50915 0.27331 0.18712 0.0
C208 C 0.56109 0.35128 0.33711 0.0
O209 O 0.41516 0.32214 0.25302 0.0
O210 O 0.49687 0.35812 0.21505 0.0
O211 O 0.43576 0.26071 0.36512 0.0
O212 O 0.36535 0.23856 0.31223 0.0
C213 C 0.55601 0.23476 0.26799 0.0
O214 O 0.55049 0.36517 0.29532 0.0
O215 O 0.54046 0.29839 0.34849 0.0
C216 C 0.45141 0.3588 0.22375 0.0
O217 O 0.57228 0.2871 0.26062 0.0
O218 O 0.51214 0.20397 0.29397 0.0
C219 C 0.37713 0.14092 0.27856 0.0
Fe220 Fe 0.19027 0.37448 0.41716 0.0
Fe221 Fe 0.25008 0.5038 0.397 0.0
O222 O 0.239 0.44631 0.43596 0.0
Fe223 Fe 0.27718 0.45923 0.49275 0.0
O224 O 0.30794 0.41539 0.47193 0.0
O225 O 0.22587 0.34214 0.45077 0.0
O226 O 0.23353 0.38101 0.36279 0.0
C227 C 0.24892 0.42142 0.33167 0.0
C228 C 0.16234 0.37354 0.51465 0.0
O229 O 0.24223 0.46397 0.34023 0.0
C230 C 0.25282 0.54734 0.49434 0.0
O231 O 0.1453 0.39253 0.37948 0.0
O232 O 0.17453 0.48246 0.39754 0.0
O233 O 0.21557 0.39878 0.5254 0.0
O234 O 0.14539 0.36557 0.46997 0.0
C235 C 0.36035 0.53869 0.42556 0.0
O236 O 0.26164 0.55419 0.44792 0.0
O237 O 0.25038 0.50469 0.51646 0.0
C238 C 0.13788 0.43532 0.37817 0.0
O239 O 0.32491 0.52806 0.39136 0.0
O240 O 0.34393 0.52239 0.46984 0.0
C241 C 0.27901 0.36397 0.45699 0.0
Fe242 Fe 0.76808 0.22579 0.57865 0.0
Fe243 Fe 0.85671 0.26083 0.66196 0.0
O244 O 0.8231 0.21913 0.60793 0.0
Fe245 Fe 0.84312 0.17061 0.58389 0.0
O246 O 0.83416 0.18476 0.51855 0.0
O247 O 0.80906 0.25125 0.52235 0.0
O248 O 0.79773 0.30102 0.59646 0.0
C249 C 0.8501 0.33834 0.60076 0.0
C250 C 0.73131 0.10809 0.56122 0.0
O251 O 0.88281 0.32774 0.62664 0.0
C252 C 0.83736 0.15294 0.68775 0.0
O253 O 0.72422 0.19981 0.63372 0.0
O254 O 0.79198 0.26207 0.68331 0.0
O255 O 0.77056 0.1107 0.58822 0.0
O256 O 0.72932 0.15314 0.5531 0.0
C257 C 0.94837 0.25956 0.61047 0.0
O258 O 0.83143 0.19544 0.69918 0.0
O259 O 0.85617 0.14978 0.6453 0.0
C260 C 0.73939 0.22677 0.67439 0.0
O261 O 0.92772 0.26764 0.65017 0.0
O262 O 0.91634 0.22609 0.57714 0.0
C263 C 0.82849 0.22433 0.49848 0.0
C264 C 0.22209 0.61075 0.01313 0.0
C265 C 0.22561 0.57198 0.04566 0.0
H266 H 0.22617 0.69229 0.00617 0.0
C267 C 0.22514 0.58037 0.09733 0.0
H268 H 0.22391 0.60589 0.97323 0.0
C269 C 0.2257 0.62927 0.11622 0.0
C270 C 0.22765 0.67075 0.08356 0.0
H271 H 0.22904 0.55147 0.12301 0.0
H272 H 0.23005 0.63725 0.15598 0.0
C273 C 0.22363 0.66017 0.032 0.0
C274 C 0.63061 0.20697 0.27693 0.0
C275 C 0.59137 0.21255 0.24684 0.0
H276 H 0.71062 0.2083 0.27935 0.0
C277 C 0.59675 0.21232 0.19477 0.0
H278 H 0.62799 0.20842 0.31711 0.0
C279 C 0.64373 0.21205 0.17314 0.0
C280 C 0.68595 0.2122 0.20341 0.0
H281 H 0.56736 0.21748 0.17088 0.0
H282 H 0.6499 0.21753 0.13324 0.0
C283 C 0.67782 0.20701 0.25528 0.0
C284 C 0.44932 0.63116 0.44276 0.0
C285 C 0.4201 0.58148 0.41352 0.0
H286 H 0.51365 0.72012 0.44422 0.0
C287 C 0.44175 0.58011 0.36605 0.0
H288 H 0.43314 0.63357 0.47907 0.0
C289 C 0.48836 0.62963 0.34612 0.0
C290 C 0.51303 0.68117 0.37322 0.0
H291 H 0.41955 0.54211 0.34274 0.0
H292 H 0.50137 0.62894 0.30809 0.0
C293 C 0.49505 0.68083 0.42249 0.0
C294 C 0.8993 0.49534 0.58471 0.0
C295 C 0.87696 0.49451 0.53706 0.0
H296 H 0.90939 0.44589 0.64248 0.0
C297 C 0.85713 0.44522 0.50739 0.0
H298 H 0.91462 0.53303 0.60836 0.0
C299 C 0.85307 0.39536 0.52735 0.0
C300 C 0.86999 0.39445 0.57675 0.0
H301 H 0.83907 0.4432 0.47092 0.0
H302 H 0.83283 0.35635 0.50524 0.0
C303 C 0.89627 0.44564 0.60434 0.0
C304 C 0.47228 0.86945 0.77552 0.0
C305 C 0.51336 0.86675 0.74566 0.0
H306 H 0.39157 0.86645 0.77715 0.0
C307 C 0.51031 0.87059 0.69362 0.0
H308 H 0.47304 0.86514 0.81556 0.0
C309 C 0.46367 0.87118 0.67153 0.0
C310 C 0.41953 0.86778 0.70133 0.0
H311 H 0.5411 0.86754 0.66985 0.0
H312 H 0.45928 0.86826 0.63138 0.0
C313 C 0.42559 0.8699 0.75344 0.0
C314 C 0.64988 0.47846 0.92412 0.0
C315 C 0.7011 0.50253 0.89688 0.0
H316 H 0.56257 0.40907 0.92833 0.0
C317 C 0.70047 0.48222 0.84844 0.0
H318 H 0.64951 0.49297 0.96171 0.0
C319 C 0.65103 0.43524 0.82925 0.0
C320 C 0.60129 0.40773 0.85814 0.0
H321 H 0.73949 0.50017 0.82667 0.0
H322 H 0.65311 0.41737 0.7936 0.0
C323 C 0.60023 0.43079 0.90495 0.0
C324 C 0.36148 0.35248 0.11477 0.0
C325 C 0.39712 0.40506 0.09089 0.0
H326 H 0.34868 0.29911 0.1777 0.0
C327 C 0.45029 0.44385 0.11247 0.0
H328 H 0.31956 0.32238 0.09988 0.0
C329 C 0.46742 0.43013 0.15708 0.0
C330 C 0.4305 0.37865 0.18197 0.0
H331 H 0.47776 0.4854 0.09551 0.0
H332 H 0.50927 0.45979 0.17233 0.0
C333 C 0.3774 0.34 0.16026 0.0
C334 C 1.01288 0.42239 0.30548 0.0
C335 C 1.02189 0.40298 0.25917 0.0
H336 H 1.04312 0.44799 0.38057 0.0
C337 C 0.07462 0.40649 0.25028 0.0
H338 H 0.97263 0.42041 0.31358 0.0
C339 C 0.11455 0.42246 0.28852 0.0
C340 C 0.10279 0.43543 0.33637 0.0
H341 H 0.08315 0.39241 0.2151 0.0
H342 H 0.1529 0.42039 0.28149 0.0
C343 C 1.05303 0.43819 0.34402 0.0
C344 C 0.65779 0.0525 0.49657 0.0
C345 C 0.70948 0.06612 0.52022 0.0
H346 H 0.60223 1.01131 0.43422 0.0
C347 C 0.74697 0.05147 0.49685 0.0
H348 H 0.62899 0.06488 0.51322 0.0
C349 C 0.73359 1.02468 0.45045 0.0
C350 C 0.68143 1.00996 0.42716 0.0
H351 H 0.78797 0.063 0.51336 0.0
H352 H 0.76305 1.0131 0.43394 0.0
C353 C 0.64341 1.02371 0.45081 0.0
C354 C 0.62686 0.65457 0.64115 0.0
C355 C 0.65318 0.67136 0.68847 0.0
H356 H 0.63407 0.63113 0.56591 0.0
C357 C 0.70062 0.66517 0.69871 0.0
H358 H 0.59008 0.65878 0.63199 0.0
C359 C 0.72519 0.64913 0.66098 0.0
C360 C 0.7028 0.6388 0.61233 0.0
H361 H 0.7216 0.67729 0.73468 0.0
H362 H 0.76445 0.64921 0.66911 0.0
C363 C 0.65185 0.63876 0.60313 0.0
C364 C 0.08324 0.65178 0.79741 0.0
C365 C 0.09486 0.70127 0.77053 0.0
H366 H 1.04189 0.59908 0.86117 0.0
C367 C 0.07915 0.73955 0.79107 0.0
H368 H 0.09654 0.62255 0.78313 0.0
C369 C 1.052 0.72841 0.83719 0.0
C370 C 1.03769 0.6775 0.86292 0.0
H371 H 0.08924 0.77911 0.77214 0.0
H372 H 1.0388 0.75789 0.85103 0.0
C373 C 0.05387 0.63941 0.84273 0.0
C374 C 0.46095 0.05638 0.95397 0.0
C375 C 0.42434 0.07291 0.93176 0.0
H376 H 0.4713 1.0073 0.01197 0.0
C377 C 0.37094 0.05567 0.95372 0.0
H378 H 0.50294 0.07042 0.9384 0.0
C379 C 0.3546 1.02306 -0.00285 0.0
C380 C 0.39049 1.00537 0.0189 0.0
H381 H 0.34247 0.06917 0.93837 0.0
H382 H 0.31271 1.00981 0.01259 0.0
C383 C 0.44355 1.02165 -0.00342 0.0
C384 C 0.44397 0.63167 0.843 0.0
C385 C 0.49251 0.67819 0.86499 0.0
H386 H 0.36398 0.55387 0.85463 0.0
C387 C 0.49778 0.68111 0.91699 0.0
H388 H 0.43871 0.62862 0.80292 0.0
C389 C 0.45562 0.63752 0.94645 0.0
C390 C 0.4068 0.59135 0.92439 0.0
H391 H 0.53487 0.71648 0.93471 0.0
H392 H 0.46076 0.64038 -0.01346 0.0
C393 C 0.40112 0.58907 0.87247 0.0
C394 C 0.80602 0.43974 0.04213 0.0
C395 C 0.8587 0.48749 0.02843 0.0
H396 H 0.76353 0.35757 0.07861 0.0
C397 C 0.90981 0.48898 0.0412 0.0
H398 H 0.76609 0.43744 0.03202 0.0
C399 C 0.90833 0.44408 0.06851 0.0
C400 C 0.8557 0.3961 0.0817 0.0
H401 H 0.95085 0.52532 0.03072 0.0
H402 H 0.94824 0.44668 0.07927 0.0
C403 C 0.80452 0.3939 0.06801 0.0
C404 C 0.46083 0.89735 0.2062 0.0
C405 C 0.4105 0.84481 0.19706 0.0
H406 H 0.54493 0.93935 0.23853 0.0
C407 C 0.4075 0.7931 0.21123 0.0
H408 H 0.46411 0.93764 0.19502 0.0
C409 C 0.45448 0.79397 0.234 0.0
C410 C 0.50438 0.84661 0.24401 0.0
H411 H 0.36938 0.75207 0.20366 0.0
H412 H 0.45121 0.75367 0.24514 0.0
C413 C 0.50704 0.89831 0.23044 0.0
C414 C 0.66036 0.42849 0.44603 0.0
C415 C 0.6957 0.48398 0.42643 0.0
H416 H 0.59031 0.34296 0.43326 0.0
C417 C 0.68476 0.49594 0.37816 0.0
H418 H 0.66764 0.41783 0.48314 0.0
C419 C 0.64006 0.45327 0.34989 0.0
C420 C 0.60564 0.39728 0.3689 0.0
H421 H 0.71084 0.5383 0.3621 0.0
H422 H 0.63337 0.46399 0.31261 0.0
C423 C 0.61606 0.3855 0.41745 0.0
C424 C 0.26909 0.6914 0.53218 0.0
C425 C 0.24781 0.68035 0.58107 0.0
H426 H 0.28692 0.65803 0.4663 0.0
C427 C 0.22641 0.62454 0.60049 0.0
H428 H 0.28572 0.73376 0.51603 0.0
C429 C 0.22769 0.58137 0.57228 0.0
C430 C 0.24965 0.59259 0.52367 0.0
H431 H 0.20967 0.61433 0.63803 0.0
H432 H 0.21158 0.5392 0.58869 0.0
C433 C 0.26965 0.6479 0.50367 0.0
C434 C 0.65246 0.28221 0.73841 0.0
C435 C 0.6031 0.23062 0.75166 0.0
H436 H 0.73587 0.32123 0.70509 0.0
C437 C 0.59992 0.17783 0.74142 0.0
H438 H 0.65608 0.3234 0.74687 0.0
C439 C 0.64495 0.17656 0.71697 0.0
C440 C 0.69463 0.22814 0.70432 0.0
H441 H 0.56238 0.13763 0.75193 0.0
H442 H 0.64113 0.13539 0.70806 0.0
C443 C 0.69829 0.28099 0.71546 0.0
C444 C 0.33946 0.37951 0.86226 0.0
C445 C 0.2876 0.34592 0.88803 0.0
H446 H 0.40994 0.3801 0.82397 0.0
C447 C 0.26136 0.28571 0.88559 0.0
H448 H 0.36092 0.4261 0.86393 0.0
C449 C 0.28895 0.25972 0.86258 0.0
C450 C 0.34366 0.2932 0.84161 0.0
H451 H 0.22133 0.25868 0.9048 0.0
H452 H 0.26952 0.21332 0.86485 0.0
C453 C 0.36748 0.35325 0.83925 0.0
C454 C 1.00194 0.32419 0.03153 0.0
C455 C 0.98248 0.27556 0.06239 0.0
H456 H 0.07233 0.3886 -0.0115 0.0
C457 C 1.01518 0.24839 0.06562 0.0
H458 H 0.97777 0.34628 0.02871 0.0
C459 C 0.06854 0.27216 0.04262 0.0
C460 C 0.09093 0.32401 0.01596 0.0
H461 H 1.00114 0.21063 0.08873 0.0
H462 H 0.09414 0.25201 0.04871 0.0
C463 C 0.05601 0.34838 0.00847 0.0
C464 C 0.81158 1.00892 0.23364 0.0
C465 C 0.75257 0.9714 0.22697 0.0
H466 H 0.8834 0.09288 0.22157 0.0
C467 C 0.72237 0.98832 0.19494 0.0
H468 H 0.83627 0.99717 0.25767 0.0
C469 C 0.74976 0.04387 0.17393 0.0
C470 C 0.80758 0.08308 0.18482 0.0
H471 H 0.67673 0.96056 0.18939 0.0
H472 H 0.72467 0.05758 0.15269 0.0
C473 C 0.83864 0.06392 0.21293 0.0
C474 C 0.73605 0.72701 0.3445 0.0
C475 C 0.76029 0.78698 0.34897 0.0
H476 H 0.73938 0.65243 0.369 0.0
C477 C 0.81297 0.81884 0.37389 0.0
H478 H 0.69502 0.70138 0.32627 0.0
C479 C 0.83801 0.79111 0.39815 0.0
C480 C 0.81123 0.73094 0.39767 0.0
H481 H 0.83256 0.86512 0.37801 0.0
H482 H 0.87601 0.81646 0.42054 0.0
C483 C 0.76136 0.69907 0.36896 0.0
C484 C 0.08636 0.82401 0.56126 0.0
C485 C 0.12143 0.79932 0.56021 0.0
H486 H 1.00702 0.81705 0.54013 0.0
C487 C 0.1041 0.74936 0.53138 0.0
H488 H 0.09856 0.86248 0.58309 0.0
C489 C 1.05059 0.72226 0.50728 0.0
C490 C 1.01396 0.74526 0.51088 0.0
H491 H 0.13002 0.72902 0.53033 0.0
H492 H 1.03681 0.68193 0.48795 0.0
C493 C 1.03371 0.79775 0.53652 0.0
C494 C 0.38822 0.09227 0.69493 0.0
C495 C 0.35711 0.10947 0.72574 0.0
H496 H 0.38624 1.02332 0.65199 0.0
C497 C 0.29748 0.07381 0.7287 0.0
H498 H 0.43435 0.11875 0.69217 0.0
C499 C 0.27021 1.02003 0.7054 0.0
C500 C 0.30178 1.00007 0.67882 0.0
H501 H 0.27221 0.08594 0.75165 0.0
H502 H 0.22464 0.99213 0.71133 0.0
C503 C 0.36071 1.03776 0.67171 0.0
C504 C 0.83326 0.80091 0.90446 0.0
C505 C 0.8041 0.74931 0.93149 0.0
H506 H 0.827 0.86218 0.85837 0.0
C507 C 0.74487 0.72497 0.9394 0.0
H508 H 0.87896 0.82112 0.8981 0.0
C509 C 0.71477 0.74902 0.9165 0.0
C510 C 0.74365 0.79747 0.8854 0.0
H511 H 0.72122 0.68498 0.95973 0.0
H512 H 0.66856 0.72703 0.91976 0.0
C513 C 0.80347 0.82454 0.88165 0.0
C514 C 0.06767 0.8178 0.08717 0.0
C515 C 0.08897 0.78434 0.10804 0.0
H516 H 1.00077 0.81882 0.04554 0.0
C517 C 1.05263 0.72432 0.11071 0.0
H518 H 0.09472 0.86417 0.08464 0.0
C519 C 0.99813 0.69805 0.08815 0.0
C520 C 0.97967 0.73158 0.06255 0.0
H521 H 0.06827 0.69747 0.12591 0.0
H522 H 0.97298 0.65146 0.08665 0.0
C523 C 1.01382 0.7918 0.06468 0.0
C524 C 0.36253 0.04032 0.27682 0.0
C525 C 0.3413 0.07801 0.2695 0.0
H526 H 0.35495 0.95902 0.25696 0.0
C527 C 0.28966 0.05785 0.24316 0.0
H528 H 0.40256 0.05489 0.29641 0.0
C529 C 0.26289 1.00376 0.22042 0.0
C530 C 0.28677 0.968 0.22359 0.0
H531 H 0.27198 0.08573 0.23712 0.0
H532 H 0.2253 0.99143 0.19771 0.0
C533 C 0.33532 0.98553 0.25406 0.0
C534 C 0.30053 0.25262 0.38899 0.0
C535 C 0.36027 0.27739 0.38979 0.0
H536 H 0.22814 0.25932 0.41077 0.0
C537 C 0.39292 0.32724 0.41873 0.0
H538 H 0.27424 0.21424 0.36708 0.0
C539 C 0.36652 0.35415 0.44324 0.0
C540 C 0.30689 0.33106 0.43996 0.0
H541 H 0.43918 0.34764 0.4196 0.0
H542 H 0.39307 0.3944 0.46267 0.0
C543 C 0.27415 0.27868 0.41416 0.0
C544 C 0.08505 0.28464 0.55248 0.0
C545 C 0.11811 0.34484 0.55319 0.0
H546 H 1.00561 0.21027 0.572 0.0
C547 C 0.0996 0.37635 0.58184 0.0
H548 H 0.09813 0.25959 0.53011 0.0
C549 C 1.04614 0.34803 0.60596 0.0
C550 C 1.01073 0.28805 0.60117 0.0
H551 H 0.12401 0.423 0.58197 0.0
H552 H 1.03035 0.37339 0.62412 0.0
C553 C 1.03206 0.25653 0.57636 0.0
C554 C 0.83937 0.06534 0.71497 0.0
C555 C 0.81776 0.10278 0.72163 0.0
H556 H 0.82761 0.98155 0.72734 0.0
C557 C 0.77081 0.08592 0.75391 0.0
H558 H 0.87568 0.07703 0.69076 0.0
C559 C 0.74294 1.03049 0.77519 0.0
C560 C 0.76168 0.99134 0.76437 0.0
H561 H 0.75284 0.11362 0.75948 0.0
H562 H 0.70422 1.0168 0.79659 0.0
C563 C 0.81174 1.01048 0.73599 0.0
C564 C 0.22993 0.36677 0.25235 0.0
C565 C 0.2641 0.41641 0.28062 0.0
H566 H 0.20427 0.33195 0.17866 0.0
C567 C 0.30366 0.46759 0.25685 0.0
H568 H 0.19855 0.32719 0.27013 0.0
C569 C 0.3052 0.471 0.20541 0.0
C570 C 0.26804 0.42287 0.17686 0.0
H571 H 0.33046 0.50634 0.27821 0.0
H572 H 0.33471 0.51169 0.18804 0.0
C573 C 0.2323 0.36991 0.20037 0.0
C574 C 0.81068 0.2599 0.41917 0.0
C575 C 0.8366 0.23337 0.44468 0.0
H576 H 0.7966 0.28823 0.34936 0.0
C577 C 0.86845 0.214 0.4181 0.0
H578 H 0.78516 0.27452 0.43865 0.0
C579 C 0.87522 0.2221 0.36683 0.0
C580 C 0.84955 0.24896 0.34144 0.0
H581 H 0.88857 0.19314 0.43696 0.0
H582 H 0.90059 0.20745 0.34712 0.0
C583 C 0.81676 0.26725 0.36795 0.0
C584 C 0.58735 0.81061 0.58091 0.0
C585 C 0.63834 0.82817 0.60727 0.0
H586 H 0.54851 0.80363 0.51032 0.0
C587 C 0.69079 0.85417 0.58176 0.0
H588 H 0.54626 0.79026 0.59962 0.0
C589 C 0.69212 0.8621 0.53047 0.0
C590 C 0.64093 0.84335 0.50406 0.0
H591 H 0.73072 0.86821 0.60138 0.0
H592 H 0.73302 0.88224 0.51146 0.0
C593 C 0.58859 0.81775 0.5297 0.0
C594 C 0.90536 0.70473 0.75052 0.0
C595 C 0.88768 0.65156 0.77388 0.0
H596 H 0.91265 0.74771 0.68122 0.0
C597 C 0.87323 0.60271 0.7449 0.0
H598 H 0.91775 0.74321 0.77239 0.0
C599 C 0.87232 0.60583 0.69351 0.0
C600 C 0.88482 0.65752 0.67019 0.0
H601 H 0.86133 0.56167 0.76192 0.0
H602 H 0.85801 0.56669 0.67201 0.0
C603 C 0.90357 0.70766 0.69863 0.0
C604 C 0.23009 0.85976 0.86484 0.0
C605 C 0.25574 0.83305 0.83896 0.0
H606 H 0.21259 0.88383 0.93582 0.0
C607 C 0.28346 0.80922 0.86555 0.0
H608 H 0.20818 0.87821 0.8451 0.0
C609 C 0.28474 0.81118 0.9172 0.0
C610 C 0.25923 0.83796 0.94316 0.0
H611 H 0.30308 0.78781 0.84661 0.0
H612 H 0.30653 0.79242 0.93666 0.0
C613 C 0.23221 0.86258 0.91662 0.0
C614 C 0.5129 0.26944 0.03189 0.0
C615 C 0.46078 0.24223 0.00579 0.0
H616 H 0.55422 0.29339 0.10259 0.0
C617 C 0.40901 0.218 0.03222 0.0
H618 H 0.55353 0.28799 0.01255 0.0
C619 C 0.40943 0.22127 0.08398 0.0
C620 C 0.46161 0.24805 0.11002 0.0
H621 H 0.36825 0.19651 0.01293 0.0
H622 H 0.36897 0.20286 0.10359 0.0
C623 C 0.5133 0.27188 0.08354 0.0
loop_
_geom_bond_atom_site_label_1
_geom_bond_atom_site_label_2
_geom_bond_distance
_geom_bond_site_symmetry_2
_ccdc_geom_bond_type
Fe0 O2 1.918 . S
Fe0 O5 1.997 . S
Fe0 O6 2.002 . S
Fe0 O11 1.976 . S
Fe0 O14 1.996 . S
Fe1 O2 1.918 . S
Fe1 O9 1.997 . S
Fe1 O12 1.996 . S
Fe1 O16 1.976 . S
Fe1 O19 2.002 . S
O2 Fe0 1.918 . S
O2 Fe1 1.918 . S
O2 Fe3 1.918 1_554 S
Fe3 O2 1.918 1_556 S
Fe3 O4 2.002 . S
Fe3 O13 1.976 . S
Fe3 O17 1.996 . S
Fe3 O20 1.997 . S
O4 Fe3 2.002 . S
O4 C21 1.295 1_556 S
O5 Fe0 1.997 . S
O5 C21 1.235 . S
O6 Fe0 2.002 . S
O6 C7 1.295 . S
C7 O6 1.295 . S
C7 O9 1.235 . S
C8 O13 1.287 . S
C8 O14 1.255 1_556 S
O9 Fe1 1.997 . S
O9 C7 1.235 . S
C10 O16 1.287 1_556 S
C10 O17 1.255 . S
O11 Fe0 1.976 . S
O11 C18 1.287 . S
O12 Fe1 1.996 . S
O12 C18 1.255 . S
O13 Fe3 1.976 . S
O13 C8 1.287 . S
O14 Fe0 1.996 . S
O14 C8 1.255 1_554 S
C15 O19 1.295 . S
C15 O20 1.235 1_554 S
O16 Fe1 1.976 . S
O16 C10 1.287 1_554 S
O17 Fe3 1.996 . S
O17 C10 1.255 . S
C18 O11 1.287 . S
C18 O12 1.255 . S
O19 Fe1 2.002 . S
O19 C15 1.295 . S
O20 Fe3 1.997 . S
O20 C15 1.235 1_556 S
C21 O4 1.295 1_554 S
C21 O5 1.235 . S
Fe22 O24 1.918 . S
Fe22 O27 1.997 . S
Fe22 O28 2.002 . S
Fe22 O33 1.976 . S
Fe22 O36 1.996 . S
Fe23 O24 1.918 . S
Fe23 O31 1.997 . S
Fe23 O34 1.996 . S
Fe23 O38 1.976 . S
Fe23 O41 2.002 . S
O24 Fe22 1.918 . S
O24 Fe23 1.918 . S
O24 Fe25 1.918 . S
Fe25 O24 1.918 . S
Fe25 O26 2.002 . S
Fe25 O35 1.976 . S
Fe25 O39 1.996 . S
Fe25 O42 1.997 . S
O26 Fe25 2.002 . S
O26 C43 1.295 . S
O27 Fe22 1.997 . S
O27 C43 1.235 . S
O28 Fe22 2.002 . S
O28 C29 1.295 . S
C29 O28 1.295 . S
C29 O31 1.235 . S
C30 O35 1.287 . S
C30 O36 1.255 . S
O31 Fe23 1.997 . S
O31 C29 1.235 . S
C32 O38 1.287 . S
C32 O39 1.255 . S
O33 Fe22 1.976 . S
O33 C40 1.287 . S
O34 Fe23 1.996 . S
O34 C40 1.255 . S
O35 Fe25 1.976 . S
O35 C30 1.287 . S
O36 Fe22 1.996 . S
O36 C30 1.255 . S
C37 O41 1.295 . S
C37 O42 1.235 . S
O38 Fe23 1.976 . S
O38 C32 1.287 . S
O39 Fe25 1.996 . S
O39 C32 1.255 . S
C40 O33 1.287 . S
C40 O34 1.255 . S
O41 Fe23 2.002 . S
O41 C37 1.295 . S
O42 Fe25 1.997 . S
O42 C37 1.235 . S
C43 O26 1.295 . S
C43 O27 1.235 . S
Fe44 O46 1.918 . S
Fe44 O49 1.997 . S
Fe44 O50 2.002 . S
Fe44 O55 1.976 . S
Fe44 O58 1.996 . S
Fe45 O46 1.918 . S
Fe45 O53 1.997 . S
Fe45 O56 1.996 . S
Fe45 O60 1.976 . S
Fe45 O63 2.002 . S
O46 Fe44 1.918 . S
O46 Fe45 1.918 . S
O46 Fe47 1.918 . S
Fe47 O46 1.918 . S
Fe47 O48 2.002 . S
Fe47 O57 1.976 . S
Fe47 O61 1.996 . S
Fe47 O64 1.997 . S
O48 Fe47 2.002 . S
O48 C65 1.295 . S
O49 Fe44 1.997 . S
O49 C65 1.235 . S
O50 Fe44 2.002 . S
O50 C51 1.295 . S
C51 O50 1.295 . S
C51 O53 1.235 . S
C52 O57 1.287 . S
C52 O58 1.255 . S
O53 Fe45 1.997 . S
O53 C51 1.235 . S
C54 O60 1.287 . S
C54 O61 1.255 . S
O55 Fe44 1.976 . S
O55 C62 1.287 . S
O56 Fe45 1.996 . S
O56 C62 1.255 . S
O57 Fe47 1.976 . S
O57 C52 1.287 . S
O58 Fe44 1.996 . S
O58 C52 1.255 . S
C59 O63 1.295 . S
C59 O64 1.235 . S
O60 Fe45 1.976 . S
O60 C54 1.287 . S
O61 Fe47 1.996 . S
O61 C54 1.255 . S
C62 O55 1.287 . S
C62 O56 1.255 . S
O63 Fe45 2.002 . S
O63 C59 1.295 . S
O64 Fe47 1.997 . S
O64 C59 1.235 . S
C65 O48 1.295 . S
C65 O49 1.235 . S
Fe66 O68 1.918 . S
Fe66 O71 1.997 . S
Fe66 O72 2.002 . S
Fe66 O77 1.976 . S
Fe66 O80 1.996 . S
Fe67 O68 1.918 . S
Fe67 O75 1.997 . S
Fe67 O78 1.996 . S
Fe67 O82 1.976 . S
Fe67 O85 2.002 . S
O68 Fe66 1.918 . S
O68 Fe67 1.918 . S
O68 Fe69 1.918 . S
Fe69 O68 1.918 . S
Fe69 O70 2.002 . S
Fe69 O79 1.976 . S
Fe69 O83 1.996 . S
Fe69 O86 1.997 . S
O70 Fe69 2.002 . S
O70 C87 1.295 . S
O71 Fe66 1.997 . S
O71 C87 1.235 . S
O72 Fe66 2.002 . S
O72 C73 1.295 . S
C73 O72 1.295 . S
C73 O75 1.235 . S
C74 O79 1.287 . S
C74 O80 1.255 . S
O75 Fe67 1.997 . S
O75 C73 1.235 . S
C76 O82 1.287 . S
C76 O83 1.255 . S
O77 Fe66 1.976 . S
O77 C84 1.287 . S
O78 Fe67 1.996 . S
O78 C84 1.255 . S
O79 Fe69 1.976 . S
O79 C74 1.287 . S
O80 Fe66 1.996 . S
O80 C74 1.255 . S
C81 O85 1.295 . S
C81 O86 1.235 . S
O82 Fe67 1.976 . S
O82 C76 1.287 . S
O83 Fe69 1.996 . S
O83 C76 1.255 . S
C84 O77 1.287 . S
C84 O78 1.255 . S
O85 Fe67 2.002 . S
O85 C81 1.295 . S
O86 Fe69 1.997 . S
O86 C81 1.235 . S
C87 O70 1.295 . S
C87 O71 1.235 . S
Fe88 O90 1.918 . S
Fe88 O93 1.997 . S
Fe88 O94 2.002 . S
Fe88 O99 1.976 . S
Fe88 O102 1.996 . S
Fe89 O90 1.918 . S
Fe89 O97 1.997 . S
Fe89 O100 1.996 . S
Fe89 O104 1.976 . S
Fe89 O107 2.002 . S
O90 Fe88 1.918 . S
O90 Fe89 1.918 . S
O90 Fe91 1.918 . S
Fe91 O90 1.918 . S
Fe91 O92 2.002 . S
Fe91 O101 1.976 . S
Fe91 O105 1.996 . S
Fe91 O108 1.997 . S
O92 Fe91 2.002 . S
O92 C109 1.295 . S
O93 Fe88 1.997 . S
O93 C109 1.235 . S
O94 Fe88 2.002 . S
O94 C95 1.295 . S
C95 O94 1.295 . S
C95 O97 1.235 . S
C96 O101 1.287 . S
C96 O102 1.255 . S
O97 Fe89 1.997 . S
O97 C95 1.235 . S
C98 O104 1.287 . S
C98 O105 1.255 . S
O99 Fe88 1.976 . S
O99 C106 1.287 . S
O100 Fe89 1.996 . S
O100 C106 1.255 . S
O101 Fe91 1.976 . S
O101 C96 1.287 . S
O102 Fe88 1.996 . S
O102 C96 1.255 . S
C103 O107 1.295 . S
C103 O108 1.235 . S
O104 Fe89 1.976 . S
O104 C98 1.287 . S
O105 Fe91 1.996 . S
O105 C98 1.255 . S
C106 O99 1.287 . S
C106 O100 1.255 . S
O107 Fe89 2.002 . S
O107 C103 1.295 . S
O108 Fe91 1.997 . S
O108 C103 1.235 . S
C109 O92 1.295 . S
C109 O93 1.235 . S
Fe110 O112 1.918 . S
Fe110 O115 1.997 . S
Fe110 O116 2.002 . S
Fe110 O121 1.976 . S
Fe110 O124 1.996 . S
Fe111 O112 1.918 . S
Fe111 O119 1.997 . S
Fe111 O122 1.996 . S
Fe111 O126 1.976 . S
Fe111 O129 2.002 . S
O112 Fe110 1.918 . S
O112 Fe111 1.918 . S
O112 Fe113 1.918 . S
Fe113 O112 1.918 . S
Fe113 O114 2.002 . S
Fe113 O123 1.976 . S
Fe113 O127 1.996 . S
Fe113 O130 1.997 . S
O114 Fe113 2.002 . S
O114 C131 1.295 . S
O115 Fe110 1.997 . S
O115 C131 1.235 . S
O116 Fe110 2.002 . S
O116 C117 1.295 . S
C117 O116 1.295 . S
C117 O119 1.235 . S
C118 O123 1.287 . S
C118 O124 1.255 . S
O119 Fe111 1.997 . S
O119 C117 1.235 . S
C120 O126 1.287 . S
C120 O127 1.255 . S
O121 Fe110 1.976 . S
O121 C128 1.287 . S
O122 Fe111 1.996 . S
O122 C128 1.255 . S
O123 Fe113 1.976 . S
O123 C118 1.287 . S
O124 Fe110 1.996 . S
O124 C118 1.255 . S
C125 O129 1.295 . S
C125 O130 1.235 . S
O126 Fe111 1.976 . S
O126 C120 1.287 . S
O127 Fe113 1.996 . S
O127 C120 1.255 . S
C128 O121 1.287 . S
C128 O122 1.255 . S
O129 Fe111 2.002 . S
O129 C125 1.295 . S
O130 Fe113 1.997 . S
O130 C125 1.235 . S
C131 O114 1.295 . S
C131 O115 1.235 . S
Fe132 O134 1.918 . S
Fe132 O137 1.997 . S
Fe132 O138 2.002 . S
Fe132 O143 1.976 . S
Fe132 O146 1.996 . S
Fe133 O134 1.918 . S
Fe133 O141 1.997 . S
Fe133 O144 1.996 . S
Fe133 O148 1.976 . S
Fe133 O151 2.002 . S
O134 Fe132 1.918 . S
O134 Fe133 1.918 . S
O134 Fe135 1.918 . S
Fe135 O134 1.918 . S
Fe135 O136 2.002 . S
Fe135 O145 1.976 . S
Fe135 O149 1.996 . S
Fe135 O152 1.997 . S
O136 Fe135 2.002 . S
O136 C153 1.295 . S
O137 Fe132 1.997 . S
O137 C153 1.235 . S
O138 Fe132 2.002 . S
O138 C139 1.295 . S
C139 O138 1.295 . S
C139 O141 1.235 . S
C140 O145 1.287 . S
C140 O146 1.255 . S
O141 Fe133 1.997 . S
O141 C139 1.235 . S
C142 O148 1.287 . S
C142 O149 1.255 . S
O143 Fe132 1.976 . S
O143 C150 1.287 . S
O144 Fe133 1.996 . S
O144 C150 1.255 . S
O145 Fe135 1.976 . S
O145 C140 1.287 . S
O146 Fe132 1.996 . S
O146 C140 1.255 . S
C147 O151 1.295 . S
C147 O152 1.235 . S
O148 Fe133 1.976 . S
O148 C142 1.287 . S
O149 Fe135 1.996 . S
O149 C142 1.255 . S
C150 O143 1.287 . S
C150 O144 1.255 . S
O151 Fe133 2.002 . S
O151 C147 1.295 . S
O152 Fe135 1.997 . S
O152 C147 1.235 . S
C153 O136 1.295 . S
C153 O137 1.235 . S
Fe154 O156 1.918 . S
Fe154 O159 1.997 . S
Fe154 O160 2.002 . S
Fe154 O165 1.976 . S
Fe154 O168 1.996 . S
Fe155 O156 1.918 . S
Fe155 O163 1.997 . S
Fe155 O166 1.996 . S
Fe155 O170 1.976 . S
Fe155 O173 2.002 . S
O156 Fe154 1.918 . S
O156 Fe155 1.918 . S
O156 Fe157 1.918 1_556 S
Fe157 O156 1.918 1_554 S
Fe157 O158 2.002 . S
Fe157 O167 1.976 . S
Fe157 O171 1.996 . S
Fe157 O174 1.997 . S
O158 Fe157 2.002 . S
O158 C175 1.295 1_554 S
O159 Fe154 1.997 . S
O159 C175 1.235 . S
O160 Fe154 2.002 . S
O160 C161 1.295 . S
C161 O160 1.295 . S
C161 O163 1.235 . S
C162 O167 1.287 . S
C162 O168 1.255 1_554 S
O163 Fe155 1.997 . S
O163 C161 1.235 . S
C164 O170 1.287 1_554 S
C164 O171 1.255 . S
O165 Fe154 1.976 . S
O165 C172 1.287 . S
O166 Fe155 1.996 . S
O166 C172 1.255 . S
O167 Fe157 1.976 . S
O167 C162 1.287 . S
O168 Fe154 1.996 . S
O168 C162 1.255 1_556 S
C169 O173 1.295 . S
C169 O174 1.235 1_556 S
O170 Fe155 1.976 . S
O170 C164 1.287 1_556 S
O171 Fe157 1.996 . S
O171 C164 1.255 . S
C172 O165 1.287 . S
C172 O166 1.255 . S
O173 Fe155 2.002 . S
O173 C169 1.295 . S
O174 Fe157 1.997 . S
O174 C169 1.235 1_554 S
C175 O158 1.295 1_556 S
C175 O159 1.235 . S
Fe176 O178 1.918 . S
Fe176 O181 1.997 . S
Fe176 O182 2.002 . S
Fe176 O187 1.976 . S
Fe176 O190 1.996 . S
Fe177 O178 1.918 . S
Fe177 O185 1.997 . S
Fe177 O188 1.996 . S
Fe177 O192 1.976 . S
Fe177 O195 2.002 . S
O178 Fe176 1.918 . S
O178 Fe177 1.918 . S
O178 Fe179 1.918 . S
Fe179 O178 1.918 . S
Fe179 O180 2.002 . S
Fe179 O189 1.976 . S
Fe179 O193 1.996 . S
Fe179 O196 1.997 . S
O180 Fe179 2.002 . S
O180 C197 1.295 . S
O181 Fe176 1.997 . S
O181 C197 1.235 . S
O182 Fe176 2.002 . S
O182 C183 1.295 . S
C183 O182 1.295 . S
C183 O185 1.235 . S
C184 O189 1.287 . S
C184 O190 1.255 . S
O185 Fe177 1.997 . S
O185 C183 1.235 . S
C186 O192 1.287 . S
C186 O193 1.255 . S
O187 Fe176 1.976 . S
O187 C194 1.287 . S
O188 Fe177 1.996 . S
O188 C194 1.255 . S
O189 Fe179 1.976 . S
O189 C184 1.287 . S
O190 Fe176 1.996 . S
O190 C184 1.255 . S
C191 O195 1.295 . S
C191 O196 1.235 . S
O192 Fe177 1.976 . S
O192 C186 1.287 . S
O193 Fe179 1.996 . S
O193 C186 1.255 . S
C194 O187 1.287 . S
C194 O188 1.255 . S
O195 Fe177 2.002 . S
O195 C191 1.295 . S
O196 Fe179 1.997 . S
O196 C191 1.235 . S
C197 O180 1.295 . S
C197 O181 1.235 . S
Fe198 O200 1.918 . S
Fe198 O203 1.997 . S
Fe198 O204 2.002 . S
Fe198 O209 1.976 . S
Fe198 O212 1.996 . S
Fe199 O200 1.918 . S
Fe199 O207 1.997 . S
Fe199 O210 1.996 . S
Fe199 O214 1.976 . S
Fe199 O217 2.002 . S
O200 Fe198 1.918 . S
O200 Fe199 1.918 . S
O200 Fe201 1.918 . S
Fe201 O200 1.918 . S
Fe201 O202 2.002 . S
Fe201 O211 1.976 . S
Fe201 O215 1.996 . S
Fe201 O218 1.997 . S
O202 Fe201 2.002 . S
O202 C219 1.295 . S
O203 Fe198 1.997 . S
O203 C219 1.235 . S
O204 Fe198 2.002 . S
O204 C205 1.295 . S
C205 O204 1.295 . S
C205 O207 1.235 . S
C206 O211 1.287 . S
C206 O212 1.255 . S
O207 Fe199 1.997 . S
O207 C205 1.235 . S
C208 O214 1.287 . S
C208 O215 1.255 . S
O209 Fe198 1.976 . S
O209 C216 1.287 . S
O210 Fe199 1.996 . S
O210 C216 1.255 . S
O211 Fe201 1.976 . S
O211 C206 1.287 . S
O212 Fe198 1.996 . S
O212 C206 1.255 . S
C213 O217 1.295 . S
C213 O218 1.235 . S
O214 Fe199 1.976 . S
O214 C208 1.287 . S
O215 Fe201 1.996 . S
O215 C208 1.255 . S
C216 O209 1.287 . S
C216 O210 1.255 . S
O217 Fe199 2.002 . S
O217 C213 1.295 . S
O218 Fe201 1.997 . S
O218 C213 1.235 . S
C219 O202 1.295 . S
C219 O203 1.235 . S
Fe220 O222 1.918 . S
Fe220 O225 1.997 . S
Fe220 O226 2.002 . S
Fe220 O231 1.976 . S
Fe220 O234 1.996 . S
Fe221 O222 1.918 . S
Fe221 O229 1.997 . S
Fe221 O232 1.996 . S
Fe221 O236 1.976 . S
Fe221 O239 2.002 . S
O222 Fe220 1.918 . S
O222 Fe221 1.918 . S
O222 Fe223 1.918 . S
Fe223 O222 1.918 . S
Fe223 O224 2.002 . S
Fe223 O233 1.976 . S
Fe223 O237 1.996 . S
Fe223 O240 1.997 . S
O224 Fe223 2.002 . S
O224 C241 1.295 . S
O225 Fe220 1.997 . S
O225 C241 1.235 . S
O226 Fe220 2.002 . S
O226 C227 1.295 . S
C227 O226 1.295 . S
C227 O229 1.235 . S
C228 O233 1.287 . S
C228 O234 1.255 . S
O229 Fe221 1.997 . S
O229 C227 1.235 . S
C230 O236 1.287 . S
C230 O237 1.255 . S
O231 Fe220 1.976 . S
O231 C238 1.287 . S
O232 Fe221 1.996 . S
O232 C238 1.255 . S
O233 Fe223 1.976 . S
O233 C228 1.287 . S
O234 Fe220 1.996 . S
O234 C228 1.255 . S
C235 O239 1.295 . S
C235 O240 1.235 . S
O236 Fe221 1.976 . S
O236 C230 1.287 . S
O237 Fe223 1.996 . S
O237 C230 1.255 . S
C238 O231 1.287 . S
C238 O232 1.255 . S
O239 Fe221 2.002 . S
O239 C235 1.295 . S
O240 Fe223 1.997 . S
O240 C235 1.235 . S
C241 O224 1.295 . S
C241 O225 1.235 . S
Fe242 O244 1.918 . S
Fe242 O247 1.997 . S
Fe242 O248 2.002 . S
Fe242 O253 1.976 . S
Fe242 O256 1.996 . S
Fe243 O244 1.918 . S
Fe243 O251 1.997 . S
Fe243 O254 1.996 . S
Fe243 O258 1.976 . S
Fe243 O261 2.002 . S
O244 Fe242 1.918 . S
O244 Fe243 1.918 . S
O244 Fe245 1.918 . S
Fe245 O244 1.918 . S
Fe245 O246 2.002 . S
Fe245 O255 1.976 . S
Fe245 O259 1.996 . S
Fe245 O262 1.997 . S
O246 Fe245 2.002 . S
O246 C263 1.295 . S
O247 Fe242 1.997 . S
O247 C263 1.235 . S
O248 Fe242 2.002 . S
O248 C249 1.295 . S
C249 O248 1.295 . S
C249 O251 1.235 . S
C250 O255 1.287 . S
C250 O256 1.255 . S
O251 Fe243 1.997 . S
O251 C249 1.235 . S
C252 O258 1.287 . S
C252 O259 1.255 . S
O253 Fe242 1.976 . S
O253 C260 1.287 . S
O254 Fe243 1.996 . S
O254 C260 1.255 . S
O255 Fe245 1.976 . S
O255 C250 1.287 . S
O256 Fe242 1.996 . S
O256 C250 1.255 . S
C257 O261 1.295 . S
C257 O262 1.235 . S
O258 Fe243 1.976 . S
O258 C252 1.287 . S
O259 Fe245 1.996 . S
O259 C252 1.255 . S
C260 O253 1.287 . S
C260 O254 1.255 . S
O261 Fe243 2.002 . S
O261 C257 1.295 . S
O262 Fe245 1.997 . S
O262 C257 1.235 . S
C263 O246 1.295 . S
C263 O247 1.235 . S
C264 C265 1.387 . S
C264 H268 0.950 . S
C264 C273 1.390 . S
C265 C264 1.387 . S
C265 C267 1.387 . S
H266 C273 0.950 . S
C267 C265 1.387 . S
C267 C269 1.390 . S
C267 H271 0.950 . S
H268 C264 0.950 . S
C269 C267 1.390 . S
C269 C270 1.387 . S
C269 H272 0.950 . S
C270 C269 1.387 . S
C270 C273 1.387 . S
H271 C267 0.950 . S
H272 C269 0.950 . S
C273 C264 1.390 . S
C273 H266 0.950 . S
C273 C270 1.387 . S
C274 C275 1.387 . S
C274 H278 0.950 . S
C274 C283 1.390 . S
C275 C274 1.387 . S
C275 C277 1.387 . S
H276 C283 0.950 . S
C277 C275 1.387 . S
C277 C279 1.390 . S
C277 H281 0.950 . S
H278 C274 0.950 . S
C279 C277 1.390 . S
C279 C280 1.387 . S
C279 H282 0.950 . S
C280 C279 1.387 . S
C280 C283 1.387 . S
H281 C277 0.950 . S
H282 C279 0.950 . S
C283 C274 1.390 . S
C283 H276 0.950 . S
C283 C280 1.387 . S
C284 C285 1.387 . S
C284 H288 0.950 . S
C284 C293 1.390 . S
C285 C284 1.387 . S
C285 C287 1.387 . S
H286 C293 0.950 . S
C287 C285 1.387 . S
C287 C289 1.390 . S
C287 H291 0.950 . S
H288 C284 0.950 . S
C289 C287 1.390 . S
C289 C290 1.387 . S
C289 H292 0.950 . S
C290 C289 1.387 . S
C290 C293 1.387 . S
H291 C287 0.950 . S
H292 C289 0.950 . S
C293 C284 1.390 . S
C293 H286 0.950 . S
C293 C290 1.387 . S
C294 C295 1.387 . S
C294 H298 0.950 . S
C294 C303 1.390 . S
C295 C294 1.387 . S
C295 C297 1.387 . S
H296 C303 0.950 . S
C297 C295 1.387 . S
C297 C299 1.390 . S
C297 H301 0.950 . S
H298 C294 0.950 . S
C299 C297 1.390 . S
C299 C300 1.387 . S
C299 H302 0.950 . S
C300 C299 1.387 . S
C300 C303 1.387 . S
H301 C297 0.950 . S
H302 C299 0.950 . S
C303 C294 1.390 . S
C303 H296 0.950 . S
C303 C300 1.387 . S
C304 C305 1.387 . S
C304 H308 0.950 . S
C304 C313 1.390 . S
C305 C304 1.387 . S
C305 C307 1.387 . S
H306 C313 0.950 . S
C307 C305 1.387 . S
C307 C309 1.390 . S
C307 H311 0.950 . S
H308 C304 0.950 . S
C309 C307 1.390 . S
C309 C310 1.387 . S
C309 H312 0.950 . S
C310 C309 1.387 . S
C310 C313 1.387 . S
H311 C307 0.950 . S
H312 C309 0.950 . S
C313 C304 1.390 . S
C313 H306 0.950 . S
C313 C310 1.387 . S
C314 C315 1.387 . S
C314 H318 0.950 . S
C314 C323 1.390 . S
C315 C314 1.387 . S
C315 C317 1.387 . S
H316 C323 0.950 . S
C317 C315 1.387 . S
C317 C319 1.390 . S
C317 H321 0.950 . S
H318 C314 0.950 . S
C319 C317 1.390 . S
C319 C320 1.387 . S
C319 H322 0.950 . S
C320 C319 1.387 . S
C320 C323 1.387 . S
H321 C317 0.950 . S
H322 C319 0.950 . S
C323 C314 1.390 . S
C323 H316 0.950 . S
C323 C320 1.387 . S
C324 C325 1.387 . S
C324 H328 0.950 . S
C324 C333 1.390 . S
C325 C324 1.387 . S
C325 C327 1.387 . S
H326 C333 0.950 . S
C327 C325 1.387 . S
C327 C329 1.390 . S
C327 H331 0.950 . S
H328 C324 0.950 . S
C329 C327 1.390 . S
C329 C330 1.387 . S
C329 H332 0.950 . S
C330 C329 1.387 . S
C330 C333 1.387 . S
H331 C327 0.950 . S
H332 C329 0.950 . S
C333 C324 1.390 . S
C333 H326 0.950 . S
C333 C330 1.387 . S
C334 C335 1.387 1_455 S
C334 H338 0.950 . S
C334 C343 1.390 . S
C335 C334 1.387 1_655 S
C335 C337 1.387 . S
H336 C343 0.950 . S
C337 C335 1.387 . S
C337 C339 1.390 . S
C337 H341 0.950 . S
H338 C334 0.950 . S
C339 C337 1.390 . S
C339 C340 1.387 1_655 S
C339 H342 0.950 . S
C340 C339 1.387 1_455 S
C340 C343 1.387 . S
H341 C337 0.950 . S
H342 C339 0.950 . S
C343 C334 1.390 . S
C343 H336 0.950 . S
C343 C340 1.387 . S
C344 C345 1.387 . S
C344 H348 0.950 . S
C344 C353 1.390 1_545 S
C345 C344 1.387 . S
C345 C347 1.387 . S
H346 C353 0.950 . S
C347 C345 1.387 . S
C347 C349 1.390 1_545 S
C347 H351 0.950 . S
H348 C344 0.950 . S
C349 C347 1.390 1_565 S
C349 C350 1.387 . S
C349 H352 0.950 . S
C350 C349 1.387 . S
C350 C353 1.387 . S
H351 C347 0.950 . S
H352 C349 0.950 . S
C353 C344 1.390 1_565 S
C353 H346 0.950 . S
C353 C350 1.387 . S
C354 C355 1.387 . S
C354 H358 0.950 . S
C354 C363 1.390 . S
C355 C354 1.387 . S
C355 C357 1.387 . S
H356 C363 0.950 . S
C357 C355 1.387 . S
C357 C359 1.390 . S
C357 H361 0.950 . S
H358 C354 0.950 . S
C359 C357 1.390 . S
C359 C360 1.387 . S
C359 H362 0.950 . S
C360 C359 1.387 . S
C360 C363 1.387 . S
H361 C357 0.950 . S
H362 C359 0.950 . S
C363 C354 1.390 . S
C363 H356 0.950 . S
C363 C360 1.387 . S
C364 C365 1.387 . S
C364 H368 0.950 . S
C364 C373 1.390 1_455 S
C365 C364 1.387 . S
C365 C367 1.387 . S
H366 C373 0.950 . S
C367 C365 1.387 . S
C367 C369 1.390 1_455 S
C367 H371 0.950 . S
H368 C364 0.950 . S
C369 C367 1.390 1_655 S
C369 C370 1.387 . S
C369 H372 0.950 . S
C370 C369 1.387 . S
C370 C373 1.387 . S
H371 C367 0.950 . S
H372 C369 0.950 . S
C373 C364 1.390 1_655 S
C373 H366 0.950 . S
C373 C370 1.387 . S
C374 C375 1.387 . S
C374 H378 0.950 . S
C374 C383 1.390 1_546 S
C375 C374 1.387 . S
C375 C377 1.387 . S
H376 C383 0.950 . S
C377 C375 1.387 . S
C377 C379 1.390 1_546 S
C377 H381 0.950 . S
H378 C374 0.950 . S
C379 C377 1.390 1_564 S
C379 C380 1.387 . S
C379 H382 0.950 . S
C380 C379 1.387 . S
C380 C383 1.387 . S
H381 C377 0.950 . S
H382 C379 0.950 . S
C383 C374 1.390 1_564 S
C383 H376 0.950 . S
C383 C380 1.387 . S
C384 C385 1.387 . S
C384 H388 0.950 . S
C384 C393 1.390 . S
C385 C384 1.387 . S
C385 C387 1.387 . S
H386 C393 0.950 . S
C387 C385 1.387 . S
C387 C389 1.390 . S
C387 H391 0.950 . S
H388 C384 0.950 . S
C389 C387 1.390 . S
C389 C390 1.387 . S
C389 H392 0.950 1_556 S
C390 C389 1.387 . S
C390 C393 1.387 . S
H391 C387 0.950 . S
H392 C389 0.950 1_554 S
C393 C384 1.390 . S
C393 H386 0.950 . S
C393 C390 1.387 . S
C394 C395 1.387 . S
C394 H398 0.950 . S
C394 C403 1.390 . S
C395 C394 1.387 . S
C395 C397 1.387 . S
H396 C403 0.950 . S
C397 C395 1.387 . S
C397 C399 1.390 . S
C397 H401 0.950 . S
H398 C394 0.950 . S
C399 C397 1.390 . S
C399 C400 1.387 . S
C399 H402 0.950 . S
C400 C399 1.387 . S
C400 C403 1.387 . S
H401 C397 0.950 . S
H402 C399 0.950 . S
C403 C394 1.390 . S
C403 H396 0.950 . S
C403 C400 1.387 . S
C404 C405 1.387 . S
C404 H408 0.950 . S
C404 C413 1.390 . S
C405 C404 1.387 . S
C405 C407 1.387 . S
H406 C413 0.950 . S
C407 C405 1.387 . S
C407 C409 1.390 . S
C407 H411 0.950 . S
H408 C404 0.950 . S
C409 C407 1.390 . S
C409 C410 1.387 . S
C409 H412 0.950 . S
C410 C409 1.387 . S
C410 C413 1.387 . S
H411 C407 0.950 . S
H412 C409 0.950 . S
C413 C404 1.390 . S
C413 H406 0.950 . S
C413 C410 1.387 . S
C414 C415 1.387 . S
C414 H418 0.950 . S
C414 C423 1.390 . S
C415 C414 1.387 . S
C415 C417 1.387 . S
H416 C423 0.950 . S
C417 C415 1.387 . S
C417 C419 1.390 . S
C417 H421 0.950 . S
H418 C414 0.950 . S
C419 C417 1.390 . S
C419 C420 1.387 . S
C419 H422 0.950 . S
C420 C419 1.387 . S
C420 C423 1.387 . S
H421 C417 0.950 . S
H422 C419 0.950 . S
C423 C414 1.390 . S
C423 H416 0.950 . S
C423 C420 1.387 . S
C424 C425 1.387 . S
C424 H428 0.950 . S
C424 C433 1.390 . S
C425 C424 1.387 . S
C425 C427 1.387 . S
H426 C433 0.950 . S
C427 C425 1.387 . S
C427 C429 1.390 . S
C427 H431 0.950 . S
H428 C424 0.950 . S
C429 C427 1.390 . S
C429 C430 1.387 . S
C429 H432 0.950 . S
C430 C429 1.387 . S
C430 C433 1.387 . S
H431 C427 0.950 . S
H432 C429 0.950 . S
C433 C424 1.390 . S
C433 H426 0.950 . S
C433 C430 1.387 . S
C434 C435 1.387 . S
C434 H438 0.950 . S
C434 C443 1.390 . S
C435 C434 1.387 . S
C435 C437 1.387 . S
H436 C443 0.950 . S
C437 C435 1.387 . S
C437 C439 1.390 . S
C437 H441 0.950 . S
H438 C434 0.950 . S
C439 C437 1.390 . S
C439 C440 1.387 . S
C439 H442 0.950 . S
C440 C439 1.387 . S
C440 C443 1.387 . S
H441 C437 0.950 . S
H442 C439 0.950 . S
C443 C434 1.390 . S
C443 H436 0.950 . S
C443 C440 1.387 . S
C444 C445 1.387 . S
C444 H448 0.950 . S
C444 C453 1.390 . S
C445 C444 1.387 . S
C445 C447 1.387 . S
H446 C453 0.950 . S
C447 C445 1.387 . S
C447 C449 1.390 . S
C447 H451 0.950 . S
H448 C444 0.950 . S
C449 C447 1.390 . S
C449 C450 1.387 . S
C449 H452 0.950 . S
C450 C449 1.387 . S
C450 C453 1.387 . S
H451 C447 0.950 . S
H452 C449 0.950 . S
C453 C444 1.390 . S
C453 H446 0.950 . S
C453 C450 1.387 . S
C454 C455 1.387 . S
C454 H458 0.950 . S
C454 C463 1.374 1_655 S
C455 C454 1.387 . S
C455 C457 1.387 . S
H456 C463 0.942 . S
C457 C455 1.387 . S
C457 C459 1.390 1_655 S
C457 H461 0.950 . S
H458 C454 0.950 . S
C459 C457 1.390 1_455 S
C459 C460 1.387 . S
C459 H462 0.950 . S
C460 C459 1.387 . S
C460 C463 1.411 . S
H461 C457 0.950 . S
H462 C459 0.950 . S
C463 C454 1.374 1_455 S
C463 H456 0.942 . S
C463 C460 1.411 . S
C464 C465 1.387 . S
C464 H468 0.950 . S
C464 C473 1.390 1_565 S
C465 C464 1.387 . S
C465 C467 1.387 . S
H466 C473 0.950 . S
C467 C465 1.387 . S
C467 C469 1.390 . S
C467 H471 0.950 . S
H468 C464 0.950 . S
C469 C467 1.390 . S
C469 C470 1.387 1_565 S
C469 H472 0.950 . S
C470 C469 1.387 1_545 S
C470 C473 1.387 . S
H471 C467 0.950 . S
H472 C469 0.950 . S
C473 C464 1.390 1_545 S
C473 H466 0.950 . S
C473 C470 1.387 . S
C474 C475 1.387 . S
C474 H478 0.950 . S
C474 C483 1.390 . S
C475 C474 1.387 . S
C475 C477 1.387 . S
H476 C483 0.950 . S
C477 C475 1.387 . S
C477 C479 1.390 . S
C477 H481 0.950 . S
H478 C474 0.950 . S
C479 C477 1.390 . S
C479 C480 1.387 . S
C479 H482 0.950 . S
C480 C479 1.387 . S
C480 C483 1.387 . S
H481 C477 0.950 . S
H482 C479 0.950 . S
C483 C474 1.390 . S
C483 H476 0.950 . S
C483 C480 1.387 . S
C484 C485 1.387 . S
C484 H488 0.950 . S
C484 C493 1.390 1_455 S
C485 C484 1.387 . S
C485 C487 1.387 . S
H486 C493 0.950 . S
C487 C485 1.387 . S
C487 C489 1.390 1_455 S
C487 H491 0.950 . S
H488 C484 0.950 . S
C489 C487 1.390 1_655 S
C489 C490 1.387 . S
C489 H492 0.950 . S
C490 C489 1.387 . S
C490 C493 1.387 . S
H491 C487 0.950 . S
H492 C489 0.950 . S
C493 C484 1.390 1_655 S
C493 H486 0.950 . S
C493 C490 1.387 . S
C494 C495 1.387 . S
C494 H498 0.950 . S
C494 C503 1.390 . S
C495 C494 1.387 . S
C495 C497 1.387 . S
H496 C503 0.950 . S
C497 C495 1.387 . S
C497 C499 1.390 1_545 S
C497 H501 0.950 . S
H498 C494 0.950 . S
C499 C497 1.390 1_565 S
C499 C500 1.387 . S
C499 H502 0.950 . S
C500 C499 1.387 . S
C500 C503 1.387 1_565 S
H501 C497 0.950 . S
H502 C499 0.950 . S
C503 C494 1.390 . S
C503 H496 0.950 . S
C503 C500 1.387 1_545 S
C504 C505 1.387 . S
C504 H508 0.950 . S
C504 C513 1.390 . S
C505 C504 1.387 . S
C505 C507 1.387 . S
H506 C513 0.950 . S
C507 C505 1.387 . S
C507 C509 1.390 . S
C507 H511 0.950 1_556 S
H508 C504 0.950 . S
C509 C507 1.390 . S
C509 C510 1.387 . S
C509 H512 0.950 . S
C510 C509 1.387 . S
C510 C513 1.387 . S
H511 C507 0.950 1_554 S
H512 C509 0.950 . S
C513 C504 1.390 . S
C513 H506 0.950 . S
C513 C510 1.387 . S
C514 C515 1.387 . S
C514 H518 0.950 . S
C514 C523 1.390 1_455 S
C515 C514 1.387 . S
C515 C517 1.387 1_455 S
H516 C523 0.950 . S
C517 C515 1.387 1_655 S
C517 C519 1.390 . S
C517 H521 0.950 . S
H518 C514 0.950 . S
C519 C517 1.390 . S
C519 C520 1.387 . S
C519 H522 0.950 . S
C520 C519 1.387 . S
C520 C523 1.387 . S
H521 C517 0.950 . S
H522 C519 0.950 . S
C523 C514 1.390 1_655 S
C523 H516 0.950 . S
C523 C520 1.387 . S
C524 C525 1.387 . S
C524 H528 0.950 . S
C524 C533 1.390 1_545 S
C525 C524 1.387 . S
C525 C527 1.387 . S
H526 C533 0.950 . S
C527 C525 1.387 . S
C527 C529 1.390 1_545 S
C527 H531 0.950 . S
H528 C524 0.950 . S
C529 C527 1.390 1_565 S
C529 C530 1.387 . S
C529 H532 0.950 . S
C530 C529 1.387 . S
C530 C533 1.387 . S
H531 C527 0.950 . S
H532 C529 0.950 . S
C533 C524 1.390 1_565 S
C533 H526 0.950 . S
C533 C530 1.387 . S
C534 C535 1.387 . S
C534 H538 0.950 . S
C534 C543 1.390 . S
C535 C534 1.387 . S
C535 C537 1.387 . S
H536 C543 0.950 . S
C537 C535 1.387 . S
C537 C539 1.390 . S
C537 H541 0.950 . S
H538 C534 0.950 . S
C539 C537 1.390 . S
C539 C540 1.387 . S
C539 H542 0.950 . S
C540 C539 1.387 . S
C540 C543 1.387 . S
H541 C537 0.950 . S
H542 C539 0.950 . S
C543 C534 1.390 . S
C543 H536 0.950 . S
C543 C540 1.387 . S
C544 C545 1.387 . S
C544 H548 0.950 . S
C544 C553 1.390 1_455 S
C545 C544 1.387 . S
C545 C547 1.387 . S
H546 C553 0.950 . S
C547 C545 1.387 . S
C547 C549 1.390 . S
C547 H551 0.950 . S
H548 C544 0.950 . S
C549 C547 1.390 . S
C549 C550 1.387 1_455 S
C549 H552 0.950 . S
C550 C549 1.387 1_655 S
C550 C553 1.387 . S
H551 C547 0.950 . S
H552 C549 0.950 . S
C553 C544 1.390 1_655 S
C553 H546 0.950 . S
C553 C550 1.387 . S
C554 C555 1.387 . S
C554 H558 0.950 . S
C554 C563 1.390 1_545 S
C555 C554 1.387 . S
C555 C557 1.387 . S
H556 C563 0.950 . S
C557 C555 1.387 . S
C557 C559 1.390 . S
C557 H561 0.950 . S
H558 C554 0.950 . S
C559 C557 1.390 . S
C559 C560 1.387 1_545 S
C559 H562 0.950 . S
C560 C559 1.387 1_565 S
C560 C563 1.387 . S
H561 C557 0.950 . S
H562 C559 0.950 . S
C563 C554 1.390 1_565 S
C563 H556 0.950 . S
C563 C560 1.387 . S
C564 C565 1.387 . S
C564 H568 0.950 . S
C564 C573 1.390 . S
C565 C564 1.387 . S
C565 C567 1.387 . S
H566 C573 0.950 . S
C567 C565 1.387 . S
C567 C569 1.390 . S
C567 H571 0.950 . S
H568 C564 0.950 . S
C569 C567 1.390 . S
C569 C570 1.387 . S
C569 H572 0.950 . S
C570 C569 1.387 . S
C570 C573 1.387 . S
H571 C567 0.950 . S
H572 C569 0.950 . S
C573 C564 1.390 . S
C573 H566 0.950 . S
C573 C570 1.387 . S
C574 C575 1.387 . S
C574 H578 0.950 . S
C574 C583 1.390 . S
C575 C574 1.387 . S
C575 C577 1.387 . S
H576 C583 0.950 . S
C577 C575 1.387 . S
C577 C579 1.390 . S
C577 H581 0.950 . S
H578 C574 0.950 . S
C579 C577 1.390 . S
C579 C580 1.387 . S
C579 H582 0.950 . S
C580 C579 1.387 . S
C580 C583 1.387 . S
H581 C577 0.950 . S
H582 C579 0.950 . S
C583 C574 1.390 . S
C583 H576 0.950 . S
C583 C580 1.387 . S
C584 C585 1.387 . S
C584 H588 0.950 . S
C584 C593 1.390 . S
C585 C584 1.387 . S
C585 C587 1.387 . S
H586 C593 0.950 . S
C587 C585 1.387 . S
C587 C589 1.390 . S
C587 H591 0.950 . S
H588 C584 0.950 . S
C589 C587 1.390 . S
C589 C590 1.387 . S
C589 H592 0.950 . S
C590 C589 1.387 . S
C590 C593 1.387 . S
H591 C587 0.950 . S
H592 C589 0.950 . S
C593 C584 1.390 . S
C593 H586 0.950 . S
C593 C590 1.387 . S
C594 C595 1.387 . S
C594 H598 0.950 . S
C594 C603 1.390 . S
C595 C594 1.387 . S
C595 C597 1.387 . S
H596 C603 0.950 . S
C597 C595 1.387 . S
C597 C599 1.390 . S
C597 H601 0.950 . S
H598 C594 0.950 . S
C599 C597 1.390 . S
C599 C600 1.387 . S
C599 H602 0.950 . S
C600 C599 1.387 . S
C600 C603 1.387 . S
H601 C597 0.950 . S
H602 C599 0.950 . S
C603 C594 1.390 . S
C603 H596 0.950 . S
C603 C600 1.387 . S
C604 C605 1.387 . S
C604 H608 0.950 . S
C604 C613 1.390 . S
C605 C604 1.387 . S
C605 C607 1.387 . S
H606 C613 0.950 . S
C607 C605 1.387 . S
C607 C609 1.390 . S
C607 H611 0.950 . S
H608 C604 0.950 . S
C609 C607 1.390 . S
C609 C610 1.387 . S
C609 H612 0.950 . S
C610 C609 1.387 . S
C610 C613 1.387 . S
H611 C607 0.950 . S
H612 C609 0.950 . S
C613 C604 1.390 . S
C613 H606 0.950 . S
C613 C610 1.387 . S
C614 C615 1.387 . S
C614 H618 0.950 . S
C614 C623 1.390 . S
C615 C614 1.387 . S
C615 C617 1.387 . S
H616 C623 0.950 . S
C617 C615 1.387 . S
C617 C619 1.390 . S
C617 H621 0.950 . S
H618 C614 0.950 . S
C619 C617 1.390 . S
C619 C620 1.387 . S
C619 H622 0.950 . S
C620 C619 1.387 . S
C620 C623 1.387 . S
H621 C617 0.950 . S
H622 C619 0.950 . S
C623 C614 1.390 . S
C623 H616 0.950 . S
C623 C620 1.387 . S
C265 C15 1.610 . S
C270 C183 1.612 . S
C275 C213 1.613 . S
C280 C43 1.613 . S
C285 C235 1.610 . S
C290 C59 1.611 . S
C295 C81 1.613 . S
C300 C249 1.612 . S
C305 C153 1.610 . S
C310 C103 1.610 . S
C315 C169 1.612 . S
C320 C125 1.613 . S
C325 C18 1.113 . S
C330 C216 1.114 . S
C335 C32 1.117 . S
C340 C238 1.118 . S
C345 C250 1.117 . S
C350 C62 1.117 . S
C355 C142 1.116 . S
C360 C84 1.114 . S
C365 C106 1.117 . S
C370 C172 1.117 . S
C375 C128 1.117 . S
C380 C184 1.117 . S
C385 C140 1.433 . S
C390 C10 1.434 . S
C395 C164 1.434 . S
C400 C30 1.433 . S
C405 C194 1.433 . S
C410 C54 1.433 . S
C415 C76 1.434 . S
C420 C208 1.434 . S
C425 C98 1.433 . S
C430 C230 1.432 . S
C435 C120 1.434 . S
C440 C260 1.434 . S
C445 C8 1.646 . S
C450 C131 1.702 . S
C455 C40 1.646 . S
C460 C21 1.702 . S
C465 C52 1.643 . S
C470 C29 1.703 . S
C475 C65 1.702 . S
C480 C74 1.646 . S
C485 C96 1.646 . S
C490 C87 1.704 . S
C495 C118 1.646 . S
C500 C109 1.703 . S
C505 C175 1.702 . S
C510 C150 1.643 . S
C515 C191 1.702 . S
C520 C162 1.643 . S
C525 C219 1.704 . S
C530 C186 1.646 . S
C535 C206 1.645 . S
C540 C241 1.704 . S
C545 C228 1.643 . S
C550 C257 1.703 . S
C555 C252 1.643 . S
C560 C139 1.703 . S
C565 C227 0.881 . S
C570 C7 0.881 . S
C575 C263 0.878 . S
C580 C37 0.879 . S
C585 C147 0.879 . S
C590 C51 0.879 . S
C595 C161 0.882 . S
C600 C73 0.882 . S
C605 C95 0.879 . S
C610 C197 0.879 1_556 S
C615 C117 0.877 1_554 S
C620 C205 0.877 . S
