# Generated by pormake.
# Topology ukd, (4)-cn, num edge types: 1
# Building blocks:
#     Node 0, Type 0, BuildingBlock: QUQFOY_clean_sbu_1, # of connection points: 4
#     Node 1, Type 0, BuildingBlock: QUQFOY_clean_sbu_1, # of connection points: 4
#     Node 2, Type 0, BuildingBlock: QUQFOY_clean_sbu_1, # of connection points: 4
#     Node 3, Type 0, BuildingBlock: QUQFOY_clean_sbu_1, # of connection points: 4
#     Node 4, Type 0, BuildingBlock: QUQFOY_clean_sbu_1, # of connection points: 4
#     Node 5, Type 0, BuildingBlock: QUQFOY_clean_sbu_1, # of connection points: 4
#     Node 6, Type 0, BuildingBlock: QUQFOY_clean_sbu_1, # of connection points: 4
#     Node 7, Type 0, BuildingBlock: QUQFOY_clean_sbu_1, # of connection points: 4
#     Node 8, Type 0, BuildingBlock: QUQFOY_clean_sbu_1, # of connection points: 4
#     Node 9, Type 0, BuildingBlock: QUQFOY_clean_sbu_1, # of connection points: 4
#     Node 10, Type 0, BuildingBlock: QUQFOY_clean_sbu_1, # of connection points: 4
#     Node 11, Type 0, BuildingBlock: QUQFOY_clean_sbu_1, # of connection points: 4
#     Node 12, Type 0, BuildingBlock: QUQFOY_clean_sbu_1, # of connection points: 4
#     Node 13, Type 0, BuildingBlock: QUQFOY_clean_sbu_1, # of connection points: 4
#     Node 14, Type 0, BuildingBlock: QUQFOY_clean_sbu_1, # of connection points: 4
#     Node 15, Type 0, BuildingBlock: QUQFOY_clean_sbu_1, # of connection points: 4
#     Node 16, Type 0, BuildingBlock: QUQFOY_clean_sbu_1, # of connection points: 4
#     Node 17, Type 0, BuildingBlock: QUQFOY_clean_sbu_1, # of connection points: 4
#     Node 18, Type 0, BuildingBlock: QUQFOY_clean_sbu_1, # of connection points: 4
#     Node 19, Type 0, BuildingBlock: QUQFOY_clean_sbu_1, # of connection points: 4
#     Node 20, Type 0, BuildingBlock: QUQFOY_clean_sbu_1, # of connection points: 4
#     Node 21, Type 0, BuildingBlock: QUQFOY_clean_sbu_1, # of connection points: 4
#     Node 22, Type 0, BuildingBlock: QUQFOY_clean_sbu_1, # of connection points: 4
#     Node 23, Type 0, BuildingBlock: QUQFOY_clean_sbu_1, # of connection points: 4
#     Node 24, Type 0, BuildingBlock: QUQFOY_clean_sbu_1, # of connection points: 4
#     Node 25, Type 0, BuildingBlock: QUQFOY_clean_sbu_1, # of connection points: 4
#     Node 26, Type 0, BuildingBlock: QUQFOY_clean_sbu_1, # of connection points: 4
#     Node 27, Type 0, BuildingBlock: QUQFOY_clean_sbu_1, # of connection points: 4
#     Node 28, Type 0, BuildingBlock: QUQFOY_clean_sbu_1, # of connection points: 4
#     Node 29, Type 0, BuildingBlock: QUQFOY_clean_sbu_1, # of connection points: 4
#     Node 30, Type 0, BuildingBlock: QUQFOY_clean_sbu_1, # of connection points: 4
#     Node 31, Type 0, BuildingBlock: QUQFOY_clean_sbu_1, # of connection points: 4
#     Edge 32, Type (0, 0), BuildingBlock: TEMPAE_clean_linker_10, # of connection points: 2
#     Edge 33, Type (0, 0), BuildingBlock: TEMPAE_clean_linker_10, # of connection points: 2
#     Edge 34, Type (0, 0), BuildingBlock: TEMPAE_clean_linker_10, # of connection points: 2
#     Edge 35, Type (0, 0), BuildingBlock: TEMPAE_clean_linker_10, # of connection points: 2
#     Edge 36, Type (0, 0), BuildingBlock: TEMPAE_clean_linker_10, # of connection points: 2
#     Edge 37, Type (0, 0), BuildingBlock: TEMPAE_clean_linker_10, # of connection points: 2
#     Edge 38, Type (0, 0), BuildingBlock: TEMPAE_clean_linker_10, # of connection points: 2
#     Edge 39, Type (0, 0), BuildingBlock: TEMPAE_clean_linker_10, # of connection points: 2
#     Edge 40, Type (0, 0), BuildingBlock: TEMPAE_clean_linker_10, # of connection points: 2
#     Edge 41, Type (0, 0), BuildingBlock: TEMPAE_clean_linker_10, # of connection points: 2
#     Edge 42, Type (0, 0), BuildingBlock: TEMPAE_clean_linker_10, # of connection points: 2
#     Edge 43, Type (0, 0), BuildingBlock: TEMPAE_clean_linker_10, # of connection points: 2
#     Edge 44, Type (0, 0), BuildingBlock: TEMPAE_clean_linker_10, # of connection points: 2
#     Edge 45, Type (0, 0), BuildingBlock: TEMPAE_clean_linker_10, # of connection points: 2
#     Edge 46, Type (0, 0), BuildingBlock: TEMPAE_clean_linker_10, # of connection points: 2
#     Edge 47, Type (0, 0), BuildingBlock: TEMPAE_clean_linker_10, # of connection points: 2
#     Edge 48, Type (0, 0), BuildingBlock: TEMPAE_clean_linker_10, # of connection points: 2
#     Edge 49, Type (0, 0), BuildingBlock: TEMPAE_clean_linker_10, # of connection points: 2
#     Edge 50, Type (0, 0), BuildingBlock: TEMPAE_clean_linker_10, # of connection points: 2
#     Edge 51, Type (0, 0), BuildingBlock: TEMPAE_clean_linker_10, # of connection points: 2
#     Edge 52, Type (0, 0), BuildingBlock: TEMPAE_clean_linker_10, # of connection points: 2
#     Edge 53, Type (0, 0), BuildingBlock: TEMPAE_clean_linker_10, # of connection points: 2
#     Edge 54, Type (0, 0), BuildingBlock: TEMPAE_clean_linker_10, # of connection points: 2
#     Edge 55, Type (0, 0), BuildingBlock: TEMPAE_clean_linker_10, # of connection points: 2
#     Edge 56, Type (0, 0), BuildingBlock: TEMPAE_clean_linker_10, # of connection points: 2
#     Edge 57, Type (0, 0), BuildingBlock: TEMPAE_clean_linker_10, # of connection points: 2
#     Edge 58, Type (0, 0), BuildingBlock: TEMPAE_clean_linker_10, # of connection points: 2
#     Edge 59, Type (0, 0), BuildingBlock: TEMPAE_clean_linker_10, # of connection points: 2
#     Edge 60, Type (0, 0), BuildingBlock: TEMPAE_clean_linker_10, # of connection points: 2
#     Edge 61, Type (0, 0), BuildingBlock: TEMPAE_clean_linker_10, # of connection points: 2
#     Edge 62, Type (0, 0), BuildingBlock: TEMPAE_clean_linker_10, # of connection points: 2
#     Edge 63, Type (0, 0), BuildingBlock: TEMPAE_clean_linker_10, # of connection points: 2
#     Edge 64, Type (0, 0), BuildingBlock: TEMPAE_clean_linker_10, # of connection points: 2
#     Edge 65, Type (0, 0), BuildingBlock: TEMPAE_clean_linker_10, # of connection points: 2
#     Edge 66, Type (0, 0), BuildingBlock: TEMPAE_clean_linker_10, # of connection points: 2
#     Edge 67, Type (0, 0), BuildingBlock: TEMPAE_clean_linker_10, # of connection points: 2
#     Edge 68, Type (0, 0), BuildingBlock: TEMPAE_clean_linker_10, # of connection points: 2
#     Edge 69, Type (0, 0), BuildingBlock: TEMPAE_clean_linker_10, # of connection points: 2
#     Edge 70, Type (0, 0), BuildingBlock: TEMPAE_clean_linker_10, # of connection points: 2
#     Edge 71, Type (0, 0), BuildingBlock: TEMPAE_clean_linker_10, # of connection points: 2
#     Edge 72, Type (0, 0), BuildingBlock: TEMPAE_clean_linker_10, # of connection points: 2
#     Edge 73, Type (0, 0), BuildingBlock: TEMPAE_clean_linker_10, # of connection points: 2
#     Edge 74, Type (0, 0), BuildingBlock: TEMPAE_clean_linker_10, # of connection points: 2
#     Edge 75, Type (0, 0), BuildingBlock: TEMPAE_clean_linker_10, # of connection points: 2
#     Edge 76, Type (0, 0), BuildingBlock: TEMPAE_clean_linker_10, # of connection points: 2
#     Edge 77, Type (0, 0), BuildingBlock: TEMPAE_clean_linker_10, # of connection points: 2
#     Edge 78, Type (0, 0), BuildingBlock: TEMPAE_clean_linker_10, # of connection points: 2
#     Edge 79, Type (0, 0), BuildingBlock: TEMPAE_clean_linker_10, # of connection points: 2
#     Edge 80, Type (0, 0), BuildingBlock: TEMPAE_clean_linker_10, # of connection points: 2
#     Edge 81, Type (0, 0), BuildingBlock: TEMPAE_clean_linker_10, # of connection points: 2
#     Edge 82, Type (0, 0), BuildingBlock: TEMPAE_clean_linker_10, # of connection points: 2
#     Edge 83, Type (0, 0), BuildingBlock: TEMPAE_clean_linker_10, # of connection points: 2
#     Edge 84, Type (0, 0), BuildingBlock: TEMPAE_clean_linker_10, # of connection points: 2
#     Edge 85, Type (0, 0), BuildingBlock: TEMPAE_clean_linker_10, # of connection points: 2
#     Edge 86, Type (0, 0), BuildingBlock: TEMPAE_clean_linker_10, # of connection points: 2
#     Edge 87, Type (0, 0), BuildingBlock: TEMPAE_clean_linker_10, # of connection points: 2
#     Edge 88, Type (0, 0), BuildingBlock: TEMPAE_clean_linker_10, # of connection points: 2
#     Edge 89, Type (0, 0), BuildingBlock: TEMPAE_clean_linker_10, # of connection points: 2
#     Edge 90, Type (0, 0), BuildingBlock: TEMPAE_clean_linker_10, # of connection points: 2
#     Edge 91, Type (0, 0), BuildingBlock: TEMPAE_clean_linker_10, # of connection points: 2
#     Edge 92, Type (0, 0), BuildingBlock: TEMPAE_clean_linker_10, # of connection points: 2
#     Edge 93, Type (0, 0), BuildingBlock: TEMPAE_clean_linker_10, # of connection points: 2
#     Edge 94, Type (0, 0), BuildingBlock: TEMPAE_clean_linker_10, # of connection points: 2
#     Edge 95, Type (0, 0), BuildingBlock: TEMPAE_clean_linker_10, # of connection points: 2
# Relax obj value: 0.008
# Max RMSD: 0.047
# Mean RMSD: 0.047
data_MOF--net-ukd--node1-QUQFOY_clean_sbu_1--edge1-TEMPAE_clean_linker_10
_symmetry_space_group_name_H-M    P1
_symmetry_Int_Tables_number       1
_symmetry_cell_setting            triclinic
loop_
_symmetry_equiv_pos_as_xyz
'x, y, z'
_cell_length_a     46.993871
_cell_length_b     47.01457
_cell_length_c     80.169565
_cell_angle_alpha  89.978264
_cell_angle_beta   89.99267
_cell_angle_gamma 89.930509
loop_
_atom_site_label
_atom_site_type_symbol
_atom_site_fract_x
_atom_site_fract_y
_atom_site_fract_z
_atom_type_partial_charge
O0 O 0.1858 0.15503 0.36184 0.0
Cd1 Cd 0.21918 0.18338 0.36422 0.0
Cd2 Cd 0.19427 0.2037 0.33527 0.0
O3 O 0.16831 0.16853 0.33757 0.0
O4 O 0.24258 0.16479 0.38189 0.0
O5 O 0.25845 0.17203 0.3563 0.0
C6 C 0.2625 0.16157 0.37102 0.0
C7 C 0.21502 0.21562 0.30973 0.0
C8 C 0.16788 0.152 0.35011 0.0
C9 C 0.19375 0.24192 0.36558 0.0
O10 O 0.18491 0.2372 0.35085 0.0
O11 O 0.20951 0.22384 0.37299 0.0
O12 O 0.18799 0.21789 0.31207 0.0
O13 O 0.23042 0.20581 0.32179 0.0
O14 O 0.10326 0.93773 0.61713 0.0
Cd15 Cd 0.07491 0.9713 0.61849 0.0
Cd16 Cd 0.05668 0.94634 0.58957 0.0
O17 O 0.09198 0.92067 0.5924 0.0
O18 O 0.09284 0.99584 0.63581 0.0
O19 O 0.08676 0.0098 0.60972 0.0
C20 C 0.09673 0.01483 0.62445 0.0
C21 C 0.04584 0.96751 0.56401 0.0
C22 C 0.10739 0.92001 0.60541 0.0
C23 C 0.01667 0.9458 0.61905 0.0
O24 O 0.0225 0.93658 0.60453 0.0
O25 O 0.03399 0.96207 0.62665 0.0
O26 O 0.04367 0.94043 0.56613 0.0
O27 O 0.05501 0.9827 0.57631 0.0
O28 O 0.32388 0.83896 0.87297 0.0
Cd29 Cd 0.28772 0.81414 0.87166 0.0
Cd30 Cd 0.31135 0.80045 0.84202 0.0
O31 O 0.33568 0.83645 0.8463 0.0
O32 O 0.25868 0.83053 0.88714 0.0
O33 O 0.2541 0.83082 0.8596 0.0
C34 C 0.24434 0.83786 0.8741 0.0
C35 C 0.29467 0.78953 0.81525 0.0
C36 C 0.33927 0.84691 0.86078 0.0
C37 C 0.31084 0.75638 0.86998 0.0
O38 O 0.32114 0.76498 0.85621 0.0
O39 O 0.29335 0.77192 0.87793 0.0
O40 O 0.32104 0.7864 0.8192 0.0
O41 O 0.27769 0.80017 0.82628 0.0
O42 O 0.40804 0.07298 0.11373 0.0
Cd43 Cd 0.43422 0.03919 0.11933 0.0
Cd44 Cd 0.46221 0.06096 0.09052 0.0
O45 O 0.43141 0.09246 0.09273 0.0
O46 O 0.41146 0.0183 0.13636 0.0
O47 O 0.42331 0.99948 0.11209 0.0
C48 C 0.40995 0.99727 0.12611 0.0
C49 C 0.4746 0.04504 0.06381 0.0
C50 C 0.41071 0.09262 0.10296 0.0
C51 C 0.49521 0.05638 0.12316 0.0
O52 O 0.49513 0.06087 0.10754 0.0
O53 O 0.47276 0.04844 0.13068 0.0
O54 O 0.48302 0.0693 0.06936 0.0
O55 O 0.45836 0.02984 0.07327 0.0
O56 O 0.18119 0.8544 0.15548 0.0
Cd57 Cd 0.21563 0.82743 0.15218 0.0
Cd58 Cd 0.19021 0.80367 0.1805 0.0
O59 O 0.16165 0.8368 0.17832 0.0
O60 O 0.23863 0.8484 0.13529 0.0
O61 O 0.25452 0.83888 0.16061 0.0
C62 C 0.25849 0.85077 0.14627 0.0
C63 C 0.20816 0.79042 0.20656 0.0
C64 C 0.16189 0.85503 0.1666 0.0
C65 C 0.19376 0.76803 0.14886 0.0
O66 O 0.1852 0.77094 0.16379 0.0
O67 O 0.20777 0.78776 0.14177 0.0
O68 O 0.18249 0.78439 0.20221 0.0
O69 O 0.2236 0.80498 0.19632 0.0
O70 O 0.41024 0.93724 0.40152 0.0
Cd71 Cd 0.43693 0.97201 0.3989 0.0
Cd72 Cd 0.4585 0.94677 0.428 0.0
O73 O 0.42521 0.91869 0.42528 0.0
O74 O 0.41665 0.99475 0.38157 0.0
O75 O 0.42421 0.01067 0.40711 0.0
C76 C 0.41309 0.01445 0.39253 0.0
C77 C 0.47119 0.96389 0.45434 0.0
C78 C 0.40836 0.91841 0.41287 0.0
C79 C 0.49633 0.94987 0.39713 0.0
O80 O 0.49198 0.94105 0.41188 0.0
O81 O 0.47753 0.9645 0.38958 0.0
O82 O 0.47678 0.93817 0.44989 0.0
O83 O 0.45729 0.97985 0.44405 0.0
O84 O 0.32599 0.15844 0.65019 0.0
Cd85 Cd 0.29131 0.1852 0.64726 0.0
Cd86 Cd 0.31555 0.20751 0.67611 0.0
O87 O 0.34428 0.17462 0.67371 0.0
O88 O 0.26774 0.16436 0.6306 0.0
O89 O 0.25273 0.17378 0.65614 0.0
C90 C 0.24829 0.16193 0.64184 0.0
C91 C 0.29796 0.22016 0.70236 0.0
C92 C 0.34482 0.15726 0.66156 0.0
C93 C 0.31301 0.24454 0.64489 0.0
O94 O 0.32102 0.24085 0.65987 0.0
O95 O 0.29917 0.22523 0.63732 0.0
O96 O 0.32362 0.22612 0.69795 0.0
O97 O 0.28231 0.206 0.69205 0.0
O98 O 0.09945 0.06489 0.89509 0.0
Cd99 Cd 0.07237 0.03032 0.8967 0.0
Cd100 Cd 0.05821 0.05555 0.92553 0.0
O101 O 0.09377 0.08001 0.92093 0.0
O102 O 0.08736 1.0006 0.88116 0.0
O103 O 0.08807 0.99616 0.90868 0.0
C104 C 0.09467 0.98618 0.89416 0.0
C105 C 0.04885 0.03531 0.95155 0.0
C106 C 0.10607 0.08183 0.90684 0.0
C107 C 0.01424 0.05537 0.89839 0.0
O108 O 0.02267 0.06631 0.91201 0.0
O109 O 0.02985 0.03749 0.89074 0.0
O110 O 0.04789 0.06245 0.94936 0.0
O111 O 0.05635 0.01956 0.9391 0.0
O112 O 0.82066 0.76825 0.66412 0.0
Cd113 Cd 0.81514 0.80186 0.68018 0.0
Cd114 Cd 0.78954 0.82328 0.65108 0.0
O115 O 0.79723 0.78272 0.64182 0.0
O116 O 0.82382 0.78389 0.70216 0.0
O117 O 0.78215 0.80339 0.69631 0.0
C118 C 0.79814 0.78965 0.70666 0.0
C119 C 0.74713 0.84708 0.64456 0.0
C120 C 0.81185 0.76391 0.64936 0.0
C121 C 0.84324 0.85198 0.6648 0.0
O122 O 0.82422 0.85008 0.65357 0.0
O123 O 0.84323 0.83513 0.6772 0.0
O124 O 0.76688 0.84337 0.63364 0.0
O125 O 0.7508 0.83608 0.65917 0.0
O126 O 0.90875 0.07552 0.40423 0.0
Cd127 Cd 0.93559 0.04096 0.4009 0.0
Cd128 Cd 0.95896 0.06616 0.42957 0.0
O129 O 0.92587 0.09473 0.42728 0.0
O130 O 0.91457 0.01848 0.38378 0.0
O131 O 0.92379 1.00194 0.409 0.0
C132 C 0.91195 0.99842 0.39461 0.0
C133 C 0.97198 0.04843 0.45574 0.0
C134 C 0.90791 0.09468 0.41542 0.0
C135 C 0.9951 0.06283 0.39804 0.0
O136 O 0.99186 0.07131 0.41296 0.0
O137 O 0.97556 0.04878 0.39079 0.0
O138 O 0.97804 0.07405 0.45132 0.0
O139 O 0.95755 0.03289 0.4455 0.0
O140 O 0.69494 0.24425 0.16077 0.0
Cd141 Cd 0.70176 0.20722 0.17432 0.0
Cd142 Cd 0.71901 0.19021 0.1432 0.0
O143 O 0.71291 0.23188 0.13631 0.0
O144 O 0.69615 0.21912 0.198 0.0
O145 O 0.73785 0.20558 0.18795 0.0
C146 C 0.72296 0.21509 0.20029 0.0
C147 C 0.76102 0.16539 0.1378 0.0
C148 C 0.70151 0.25031 0.14579 0.0
C149 C 0.66772 0.16143 0.15766 0.0
O150 O 0.68251 0.16645 0.14476 0.0
O151 O 0.67325 0.17365 0.17143 0.0
O152 O 0.74276 0.17051 0.12615 0.0
O153 O 0.75597 0.17545 0.15251 0.0
O154 O 0.59893 0.94235 0.89867 0.0
Cd155 Cd 0.57145 0.976 0.89561 0.0
Cd156 Cd 0.54923 0.95424 0.92523 0.0
O157 O 0.58158 0.92461 0.92202 0.0
O158 O 0.59123 0.99935 0.87842 0.0
O159 O 0.58247 0.01501 0.90391 0.0
C160 C 0.59389 0.01909 0.88945 0.0
C161 C 0.54046 0.97299 0.95175 0.0
C162 C 0.59941 0.92365 0.91009 0.0
C163 C 0.51097 0.95586 0.89483 0.0
O164 O 0.51384 0.95018 0.91024 0.0
O165 O 0.53142 0.96629 0.88643 0.0
O166 O 0.53519 0.94676 0.94833 0.0
O167 O 0.55146 0.98867 0.9402 0.0
O168 O 0.82586 0.2378 0.85267 0.0
Cd169 Cd 0.81553 0.20313 0.83829 0.0
Cd170 Cd 0.78945 0.18699 0.86701 0.0
O171 O 0.79841 0.22842 0.87433 0.0
O172 O 0.82126 0.21499 0.81463 0.0
O173 O 0.77893 0.2051 0.82532 0.0
C174 C 0.79405 0.21352 0.81279 0.0
C175 C 0.7452 0.16624 0.87237 0.0
C176 C 0.81559 0.24486 0.86674 0.0
C177 C 0.84049 0.15282 0.85513 0.0
O178 O 0.82279 0.15815 0.86671 0.0
O179 O 0.84021 0.16732 0.84175 0.0
O180 O 0.76352 0.17033 0.88408 0.0
O181 O 0.75138 0.17532 0.85759 0.0
O182 O 0.60806 0.07567 0.61369 0.0
Cd183 Cd 0.57972 0.04224 0.61614 0.0
Cd184 Cd 0.55991 0.06619 0.58703 0.0
O185 O 0.59499 0.09221 0.58911 0.0
O186 O 0.5982 0.01871 0.63379 0.0
O187 O 0.59102 1.00304 0.60815 0.0
C188 C 0.60138 0.99885 0.62288 0.0
C189 C 0.54816 0.0447 0.56173 0.0
C190 C 0.61127 0.09316 0.60174 0.0
C191 C 0.52112 0.06739 0.61703 0.0
O192 O 0.52618 0.07602 0.6023 0.0
O193 O 0.53904 0.05177 0.62466 0.0
O194 O 0.54591 0.07179 0.56377 0.0
O195 O 0.55794 0.02967 0.57396 0.0
O196 O 0.68692 0.77387 0.35193 0.0
Cd197 Cd 0.69727 0.80777 0.33693 0.0
Cd198 Cd 0.72173 0.82629 0.36611 0.0
O199 O 0.71271 0.78512 0.37399 0.0
O200 O 0.69164 0.7944 0.31356 0.0
O201 O 0.73389 0.80536 0.32397 0.0
C202 C 0.71881 0.79612 0.31163 0.0
C203 C 0.76485 0.84825 0.37297 0.0
C204 C 0.69634 0.7679 0.36638 0.0
C205 C 0.67086 0.8588 0.35224 0.0
O206 O 0.68808 0.8546 0.36423 0.0
O207 O 0.67191 0.84332 0.33928 0.0
O208 O 0.74526 0.84414 0.38395 0.0
O209 O 0.76063 0.8385 0.35811 0.0
O210 O 0.9047 0.93589 0.11153 0.0
Cd211 Cd 0.93179 0.97011 0.1148 0.0
Cd212 Cd 0.95531 0.94431 0.08628 0.0
O213 O 0.92166 0.91642 0.0885 0.0
O214 O 0.91054 0.99334 0.13149 0.0
O215 O 0.92053 0.00896 0.10617 0.0
C216 C 0.90827 0.01303 0.1204 0.0
C217 C 0.96978 0.96059 0.06003 0.0
C218 C 0.90366 0.91675 0.10034 0.0
C219 C 0.99083 0.94734 0.11814 0.0
O220 O 0.98769 0.9389 0.1032 0.0
O221 O 0.97139 0.96176 0.12526 0.0
O222 O 0.97496 0.93499 0.06489 0.0
O223 O 0.95534 0.97692 0.06985 0.0
O224 O 0.68319 0.66179 0.86919 0.0
Cd225 Cd 0.71812 0.68838 0.87017 0.0
Cd226 Cd 0.69624 0.70464 0.84047 0.0
O227 O 0.67165 0.66839 0.84279 0.0
O228 O 0.7435 0.66992 0.88692 0.0
O229 O 0.75568 0.67579 0.86047 0.0
C230 C 0.76165 0.66584 0.8751 0.0
C231 C 0.71787 0.71591 0.81507 0.0
C232 C 0.66823 0.65545 0.85654 0.0
C233 C 0.69354 0.74625 0.86936 0.0
O234 O 0.6846 0.73912 0.85497 0.0
O235 O 0.71007 0.72981 0.87745 0.0
O236 O 0.69066 0.71717 0.81689 0.0
O237 O 0.73299 0.70743 0.82759 0.0
O238 O 0.58944 0.44339 0.12526 0.0
Cd239 Cd 0.56576 0.4798 0.12161 0.0
Cd240 Cd 0.55691 0.45566 0.09253 0.0
O241 O 0.59402 0.43394 0.09846 0.0
O242 O 0.5802 0.50979 0.13702 0.0
O243 O 0.58528 0.51158 0.10951 0.0
C244 C 0.59026 0.52248 0.12402 0.0
C245 C 0.5486 0.47443 0.06596 0.0
C246 C 0.6009 0.42924 0.11355 0.0
C247 C 0.50914 0.45571 0.11756 0.0
O248 O 0.52045 0.44335 0.10509 0.0
O249 O 0.52258 0.4753 0.1251 0.0
O250 O 0.54915 0.44737 0.06851 0.0
O251 O 0.55403 0.49102 0.0784 0.0
O252 O 0.82697 0.35295 0.36015 0.0
Cd253 Cd 0.79317 0.32547 0.36397 0.0
Cd254 Cd 0.8186 0.30178 0.3353 0.0
O255 O 0.84657 0.33534 0.33732 0.0
O256 O 0.77056 0.34649 0.38105 0.0
O257 O 0.75375 0.33632 0.35602 0.0
C258 C 0.75026 0.34851 0.37032 0.0
C259 C 0.80148 0.28795 0.30916 0.0
C260 C 0.84609 0.35374 0.34893 0.0
C261 C 0.81626 0.2664 0.36718 0.0
O262 O 0.82426 0.26934 0.35215 0.0
O263 O 0.80216 0.28597 0.3744 0.0
O264 O 0.82713 0.28232 0.31375 0.0
O265 O 0.78554 0.30235 0.31922 0.0
O266 O 0.9088 0.57375 0.61492 0.0
Cd267 Cd 0.93721 0.54021 0.61675 0.0
Cd268 Cd 0.9562 0.56533 0.58777 0.0
O269 O 0.92081 0.59094 0.59031 0.0
O270 O 0.91914 0.51656 0.63447 0.0
O271 O 0.92507 0.50135 0.60863 0.0
C272 C 0.9151 0.49706 0.62344 0.0
C273 C 0.96734 0.54394 0.56232 0.0
C274 C 0.90495 0.59145 0.60314 0.0
C275 C 0.99572 0.56558 0.61744 0.0
O276 O 0.99014 0.57502 0.60293 0.0
O277 O 0.97821 0.54933 0.62492 0.0
O278 O 0.96959 0.57103 0.56438 0.0
O279 O 0.95797 0.52887 0.57463 0.0
O280 O 0.68624 0.35406 0.65354 0.0
Cd281 Cd 0.72095 0.32733 0.65034 0.0
Cd282 Cd 0.69596 0.30431 0.67918 0.0
O283 O 0.66744 0.33741 0.67683 0.0
O284 O 0.74375 0.34825 0.63331 0.0
O285 O 0.75983 0.33913 0.65865 0.0
C286 C 0.76364 0.35088 0.64426 0.0
C287 C 0.71328 0.29094 0.70539 0.0
C288 C 0.66724 0.35509 0.66483 0.0
C289 C 0.69929 0.2678 0.6478 0.0
O290 O 0.69076 0.27132 0.66269 0.0
O291 O 0.71335 0.2872 0.64043 0.0
O292 O 0.68761 0.28526 0.70088 0.0
O293 O 0.72907 0.3053 0.69524 0.0
O294 O 0.90891 0.44076 0.8964 0.0
Cd295 Cd 0.93665 0.4749 0.89542 0.0
Cd296 Cd 0.95358 0.45107 0.92458 0.0
O297 O 0.9183 0.42556 0.92181 0.0
O298 O 0.91853 0.50006 0.87842 0.0
O299 O 0.92412 0.51275 0.90479 0.0
C300 C 0.9142 0.51839 0.89011 0.0
C301 C 0.96428 0.47254 0.95003 0.0
C302 C 0.90399 0.42383 0.90842 0.0
C303 C 0.99482 0.44971 0.89575 0.0
O304 O 0.98806 0.4404 0.9101 0.0
O305 O 0.97814 0.46632 0.88788 0.0
O306 O 0.96609 0.44539 0.94812 0.0
O307 O 0.95546 0.48764 0.93758 0.0
O308 O 0.82367 0.65816 0.15019 0.0
Cd309 Cd 0.78911 0.68551 0.14938 0.0
Cd310 Cd 0.81518 0.7057 0.17774 0.0
O311 O 0.84226 0.67168 0.17424 0.0
O312 O 0.76119 0.66828 0.13359 0.0
O313 O 0.75319 0.67241 0.16072 0.0
C314 C 0.74483 0.66384 0.14622 0.0
C315 C 0.79865 0.71787 0.20429 0.0
C316 C 0.84246 0.6555 0.16153 0.0
C317 C 0.81166 0.74468 0.14765 0.0
O318 O 0.82142 0.73978 0.16213 0.0
O319 O 0.79619 0.7263 0.14038 0.0
O320 O 0.82453 0.72273 0.19984 0.0
O321 O 0.78221 0.70485 0.19388 0.0
O322 O 0.60365 0.57261 0.39799 0.0
Cd323 Cd 0.5762 0.53826 0.39686 0.0
Cd324 Cd 0.55836 0.56244 0.42609 0.0
O325 O 0.59311 0.58865 0.42308 0.0
O326 O 0.59414 0.5141 0.37932 0.0
O327 O 0.58927 0.50003 0.40548 0.0
C328 C 0.59879 0.49516 0.39062 0.0
C329 C 0.54814 0.5414 0.45176 0.0
C330 C 0.60788 0.59007 0.40984 0.0
C331 C 0.51739 0.5624 0.39711 0.0
O332 O 0.52365 0.57187 0.4115 0.0
O333 O 0.53468 0.54635 0.3893 0.0
O334 O 0.54571 0.56845 0.44959 0.0
O335 O 0.5573 0.52618 0.43946 0.0
O336 O 0.3174 0.26974 0.15899 0.0
Cd337 Cd 0.31012 0.30357 0.17468 0.0
Cd338 Cd 0.28459 0.3228 0.14505 0.0
O339 O 0.29449 0.28254 0.13617 0.0
O340 O 0.31921 0.28646 0.19687 0.0
O341 O 0.27683 0.304 0.19066 0.0
C342 C 0.29323 0.29117 0.20118 0.0
C343 C 0.2416 0.34518 0.13824 0.0
C344 C 0.30954 0.26459 0.14413 0.0
C345 C 0.33643 0.35433 0.15884 0.0
O346 O 0.31794 0.351 0.14744 0.0
O347 O 0.33674 0.33808 0.17153 0.0
O348 O 0.26144 0.34155 0.12735 0.0
O349 O 0.24545 0.33459 0.15294 0.0
O350 O 0.41242 0.56373 0.90089 0.0
Cd351 Cd 0.43891 0.52932 0.89735 0.0
Cd352 Cd 0.46362 0.55417 0.9267 0.0
O353 O 0.4317 0.58412 0.92299 0.0
O354 O 0.41758 0.50713 0.88024 0.0
O355 O 0.427 0.49032 0.90538 0.0
C356 C 0.41489 0.48704 0.89104 0.0
C357 C 0.47601 0.54076 0.95394 0.0
C358 C 0.41288 0.58367 0.91158 0.0
C359 C 0.49974 0.54773 0.8951 0.0
O360 O 0.49749 0.55456 0.91038 0.0
O361 O 0.47868 0.53738 0.88721 0.0
O362 O 0.48294 0.56519 0.94794 0.0
O363 O 0.46095 0.52406 0.94469 0.0
O364 O 0.18909 0.73937 0.66512 0.0
Cd365 Cd 0.19805 0.70494 0.68006 0.0
Cd366 Cd 0.22341 0.68658 0.65092 0.0
O367 O 0.21519 0.72797 0.64319 0.0
O368 O 0.19135 0.71786 0.70348 0.0
O369 O 0.23396 0.70638 0.69378 0.0
C370 C 0.21837 0.71562 0.70591 0.0
C371 C 0.26631 0.66386 0.64419 0.0
C372 C 0.1989 0.74536 0.65076 0.0
C373 C 0.17115 0.65507 0.66365 0.0
O374 O 0.1891 0.65911 0.65204 0.0
O375 O 0.17195 0.67009 0.67682 0.0
O376 O 0.24706 0.66868 0.63311 0.0
O377 O 0.26191 0.67329 0.65911 0.0
O378 O 0.1022 0.43506 0.40188 0.0
Cd379 Cd 0.0755 0.46978 0.39912 0.0
Cd380 Cd 0.05289 0.44475 0.42778 0.0
O381 O 0.0856 0.4158 0.42506 0.0
O382 O 0.09637 0.49313 0.38235 0.0
O383 O 0.08717 0.50839 0.40786 0.0
C384 C 0.09896 0.51265 0.39352 0.0
C385 C 0.04055 0.46228 0.45411 0.0
C386 C 0.10315 0.41574 0.41298 0.0
C387 C 0.01604 0.44824 0.39652 0.0
O388 O 0.01951 0.43998 0.41147 0.0
O389 O 0.03554 0.46206 0.38908 0.0
O390 O 0.03425 0.43674 0.44965 0.0
O391 O 0.0549 0.47782 0.44382 0.0
O392 O 0.32351 0.73809 0.35396 0.0
Cd393 Cd 0.31328 0.70395 0.33912 0.0
Cd394 Cd 0.28949 0.68558 0.36832 0.0
O395 O 0.29876 0.72653 0.37637 0.0
O396 O 0.31852 0.71708 0.31565 0.0
O397 O 0.27653 0.70566 0.32624 0.0
C398 C 0.29137 0.71491 0.3138 0.0
C399 C 0.24616 0.66368 0.37469 0.0
C400 C 0.31473 0.74389 0.36857 0.0
C401 C 0.34039 0.65331 0.35456 0.0
O402 O 0.32316 0.65737 0.36655 0.0
O403 O 0.33912 0.66872 0.34156 0.0
O404 O 0.26546 0.66755 0.38587 0.0
O405 O 0.25079 0.67367 0.35992 0.0
O406 O 0.10356 0.57758 0.10989 0.0
Cd407 Cd 0.07611 0.54339 0.1126 0.0
Cd408 Cd 0.05424 0.56921 0.08393 0.0
O409 O 0.08764 0.59714 0.08663 0.0
O410 O 0.09627 0.51962 0.12949 0.0
O411 O 0.08716 0.50453 0.10394 0.0
C412 C 0.09859 0.50001 0.11836 0.0
C413 C 0.04124 0.55229 0.05762 0.0
C414 C 0.10508 0.59679 0.09874 0.0
C415 C 0.01698 0.56616 0.11496 0.0
O416 O 0.02095 0.57487 0.10015 0.0
O417 O 0.03598 0.55159 0.12237 0.0
O418 O 0.0358 0.57801 0.06213 0.0
O419 O 0.05519 0.53621 0.06783 0.0
O420 O 0.18435 0.26815 0.85015 0.0
Cd421 Cd 0.19483 0.30309 0.83603 0.0
Cd422 Cd 0.22004 0.31906 0.86515 0.0
O423 O 0.21124 0.27735 0.87208 0.0
O424 O 0.18932 0.29158 0.81232 0.0
O425 O 0.23152 0.30157 0.82314 0.0
C426 C 0.21652 0.29333 0.81053 0.0
C427 C 0.2639 0.34015 0.87121 0.0
C428 C 0.19436 0.26092 0.86426 0.0
C429 C 0.16906 0.35299 0.85284 0.0
O430 O 0.18645 0.34765 0.86459 0.0
O431 O 0.16985 0.33864 0.83942 0.0
O432 O 0.24518 0.33561 0.88266 0.0
O433 O 0.25834 0.33134 0.8563 0.0
O434 O 0.40749 0.43552 0.61096 0.0
Cd435 Cd 0.43489 0.46934 0.61498 0.0
Cd436 Cd 0.4584 0.4448 0.58596 0.0
O437 O 0.42478 0.41688 0.58778 0.0
O438 O 0.41397 0.49153 0.6323 0.0
O439 O 0.42387 0.5089 0.60737 0.0
C440 C 0.41184 0.51207 0.62174 0.0
C441 C 0.47233 0.46229 0.55991 0.0
C442 C 0.40655 0.41684 0.5995 0.0
C443 C 0.49406 0.44631 0.61776 0.0
O444 O 0.49094 0.43863 0.60268 0.0
O445 O 0.47457 0.46026 0.62516 0.0
O446 O 0.47778 0.43654 0.56435 0.0
O447 O 0.45803 0.47814 0.57006 0.0
C448 C 0.11541 0.36435 0.41673 0.0
C449 C 0.12254 0.39126 0.41045 0.0
C450 C 0.13005 0.33989 0.41144 0.0
C451 C 0.15265 0.34253 0.39984 0.0
C452 C 0.16156 0.36991 0.39468 0.0
C453 C 0.14621 0.39392 0.39991 0.0
C454 C 0.11969 0.3111 0.41714 0.0
C455 C 0.18596 0.37373 0.38263 0.0
C456 C 0.19704 0.277 0.38924 0.0
C457 C 0.18419 0.26804 0.37433 0.0
C458 C 0.18729 0.3014 0.39767 0.0
C459 C 0.16388 0.31684 0.39118 0.0
C460 C 0.15085 0.30782 0.37617 0.0
C461 C 0.16128 0.28374 0.36789 0.0
C462 C 0.20201 0.31069 0.41349 0.0
C463 C 0.12562 0.32346 0.36888 0.0
H464 H 0.09711 0.36212 0.42486 0.0
H465 H 0.15205 0.41472 0.39517 0.0
H466 H 0.10853 0.30042 0.40668 0.0
H467 H 0.13782 0.29734 0.4208 0.0
H468 H 0.10474 0.31275 0.42783 0.0
H469 H 0.19322 0.39619 0.38205 0.0
H470 H 0.20424 0.36007 0.38622 0.0
H471 H 0.17912 0.36718 0.36996 0.0
H472 H 0.2148 0.26503 0.39428 0.0
H473 H 0.15105 0.27691 0.35646 0.0
H474 H 0.18671 0.31056 0.42402 0.0
H475 H 0.2098 0.33284 0.41212 0.0
H476 H 0.22029 0.29673 0.41671 0.0
H477 H 0.10806 0.32426 0.37813 0.0
H478 H 0.11753 0.31328 0.35732 0.0
H479 H 0.1316 0.34572 0.36594 0.0
C480 C 0.97565 0.91236 0.62093 0.0
C481 C 0.99027 0.93593 0.62737 0.0
C482 C 0.95144 0.90153 0.62887 0.0
C483 C 0.94115 0.91483 0.64352 0.0
C484 C 0.95544 0.93894 0.64998 0.0
C485 C 0.98003 0.94908 0.6419 0.0
C486 C 0.93706 0.87556 0.62165 0.0
C487 C 0.94477 0.95396 0.66539 0.0
C488 C 0.8643 0.89493 0.65122 0.0
C489 C 0.86727 0.87185 0.66219 0.0
C490 C 0.88803 0.91082 0.64614 0.0
C491 C 0.91544 0.90306 0.65189 0.0
C492 C 0.91831 0.88105 0.66385 0.0
C493 C 0.89411 0.86586 0.66898 0.0
C494 C 0.88395 0.93456 0.63368 0.0
C495 C 0.94716 0.8719 0.67017 0.0
H496 H 0.98348 0.9019 0.60978 0.0
H497 H 0.99116 0.96734 0.64693 0.0
H498 H 0.93638 0.85833 0.6311 0.0
H499 H 0.91476 0.88069 0.61825 0.0
H500 H 0.94811 0.8674 0.61037 0.0
H501 H 0.95781 0.9729 0.66856 0.0
H502 H 0.92239 0.96082 0.66354 0.0
H503 H 0.945 0.93915 0.67617 0.0
H504 H 0.84354 0.89989 0.64609 0.0
H505 H 0.89657 0.84803 0.67744 0.0
H506 H 0.8914 0.92745 0.62123 0.0
H507 H 0.89675 0.95343 0.63723 0.0
H508 H 0.86127 0.94101 0.63261 0.0
H509 H 0.95882 0.86083 0.66003 0.0
H510 H 0.94552 0.85724 0.681 0.0
H511 H 0.96003 0.89062 0.67387 0.0
C512 C 0.36795 0.60419 0.90004 0.0
C513 C 0.39284 0.60777 0.90947 0.0
C514 C 0.35112 0.62758 0.89542 0.0
C515 C 0.35965 0.6553 0.90011 0.0
C516 C 0.38374 0.65889 0.91053 0.0
C517 C 0.39994 0.63502 0.91521 0.0
C518 C 0.32529 0.62273 0.8846 0.0
C519 C 0.39367 0.6881 0.91571 0.0
C520 C 0.34374 0.71463 0.86942 0.0
C521 C 0.32147 0.72934 0.87729 0.0
C522 C 0.35614 0.69054 0.87672 0.0
C523 C 0.34585 0.68052 0.89224 0.0
C524 C 0.32284 0.69469 0.90008 0.0
C525 C 0.311 0.71905 0.89256 0.0
C526 C 0.3807 0.67614 0.86794 0.0
C527 C 0.31103 0.68435 0.9165 0.0
H528 H 0.36212 0.58312 0.89573 0.0
H529 H 0.41916 0.63796 0.92248 0.0
H530 H 0.30695 0.63538 0.88919 0.0
H531 H 0.32991 0.62987 0.87168 0.0
H532 H 0.31908 0.59995 0.88418 0.0
H533 H 0.41057 0.68713 0.92539 0.0
H534 H 0.40225 0.69947 0.90467 0.0
H535 H 0.37563 0.70086 0.92059 0.0
H536 H 0.35208 0.72234 0.85765 0.0
H537 H 0.29381 0.73024 0.89874 0.0
H538 H 0.37538 0.65359 0.86534 0.0
H539 H 0.39978 0.67626 0.87609 0.0
H540 H 0.38623 0.68667 0.85596 0.0
H541 H 0.30499 0.6616 0.91553 0.0
H542 H 0.29211 0.69677 0.92052 0.0
H543 H 0.32759 0.68596 0.92631 0.0
C544 C 0.5479 0.05841 0.12585 0.0
C545 C 0.52101 0.06395 0.13265 0.0
C546 C 0.57245 0.07071 0.13269 0.0
C547 C 0.56987 0.08987 0.14624 0.0
C548 C 0.54295 0.09401 0.15384 0.0
C549 C 0.51883 0.08063 0.14707 0.0
C550 C 0.60084 0.06494 0.12455 0.0
C551 C 0.53909 0.11469 0.16806 0.0
C552 C 0.63749 0.11981 0.16591 0.0
C553 C 0.64205 0.14378 0.1559 0.0
C554 C 0.61388 0.10198 0.1631 0.0
C555 C 0.59412 0.109 0.15038 0.0
C556 C 0.59819 0.13398 0.14078 0.0
C557 C 0.62237 0.15072 0.14346 0.0
C558 C 0.61072 0.07514 0.17325 0.0
C559 C 0.57729 0.14279 0.12741 0.0
H560 H 0.54959 0.04537 0.11474 0.0
H561 H 0.49797 0.08513 0.15224 0.0
H562 H 0.60712 0.08356 0.11689 0.0
H563 H 0.6176 0.06166 0.13411 0.0
H564 H 0.60009 0.04595 0.11631 0.0
H565 H 0.51813 0.11207 0.17428 0.0
H566 H 0.55615 0.11211 0.17749 0.0
H567 H 0.54047 0.13674 0.16317 0.0
H568 H 0.65292 0.11444 0.17547 0.0
H569 H 0.6259 0.16945 0.13583 0.0
H570 H 0.61357 0.05639 0.165 0.0
H571 H 0.58903 0.07374 0.17864 0.0
H572 H 0.62654 0.07387 0.18352 0.0
H573 H 0.57759 0.12707 0.1171 0.0
H574 H 0.58224 0.16408 0.12215 0.0
H575 H 0.55536 0.14326 0.13254 0.0
C576 C 0.16318 0.72516 0.1457 0.0
C577 C 0.18536 0.74212 0.13953 0.0
C578 C 0.15346 0.7014 0.13689 0.0
C579 C 0.16656 0.6939 0.12161 0.0
C580 C 0.1894 0.71049 0.11542 0.0
C581 C 0.19836 0.73465 0.12438 0.0
C582 C 0.12877 0.68456 0.14386 0.0
C583 C 0.20424 0.70276 0.09936 0.0
C584 C 0.149 0.61748 0.11142 0.0
C585 C 0.12492 0.62083 0.10127 0.0
C586 C 0.16471 0.64114 0.11679 0.0
C587 C 0.15565 0.66882 0.11226 0.0
C588 C 0.13269 0.67215 0.10097 0.0
C589 C 0.11778 0.64805 0.09546 0.0
C590 C 0.18957 0.63658 0.12841 0.0
C591 C 0.12206 0.70125 0.09599 0.0
H592 H 0.15283 0.73083 0.15732 0.0
H593 H 0.21556 0.74761 0.11957 0.0
H594 H 0.11111 0.68402 0.13468 0.0
H595 H 0.13541 0.66227 0.1462 0.0
H596 H 0.12056 0.69363 0.15572 0.0
H597 H 0.22255 0.71698 0.09668 0.0
H598 H 0.212 0.68049 0.09996 0.0
H599 H 0.18903 0.70405 0.08881 0.0
H600 H 0.15483 0.59643 0.11577 0.0
H601 H 0.09916 0.65079 0.08763 0.0
H602 H 0.18301 0.64172 0.14136 0.0
H603 H 0.20748 0.65087 0.12511 0.0
H604 H 0.19722 0.61422 0.12814 0.0
H605 H 0.1109 0.71112 0.10673 0.0
H606 H 0.10701 0.70025 0.08532 0.0
H607 H 0.14003 0.71538 0.09259 0.0
C608 C 0.53337 0.9556 0.37462 0.0
C609 C 0.52279 0.94093 0.38854 0.0
C610 C 0.55843 0.94648 0.36655 0.0
C611 C 0.57267 0.92178 0.37233 0.0
C612 C 0.56183 0.90682 0.38627 0.0
C613 C 0.53729 0.91674 0.39427 0.0
C614 C 0.56975 0.9633 0.35196 0.0
C615 C 0.57599 0.88008 0.3927 0.0
C616 C 0.62109 0.87482 0.34656 0.0
C617 C 0.64731 0.87939 0.35447 0.0
C618 C 0.59676 0.89018 0.35133 0.0
C619 C 0.5989 0.911 0.36403 0.0
C620 C 0.6259 0.91764 0.37082 0.0
C621 C 0.64973 0.90149 0.36612 0.0
C622 C 0.56836 0.8821 0.34392 0.0
C623 C 0.62927 0.94021 0.38406 0.0
H624 H 0.52228 0.97435 0.37016 0.0
H625 H 0.52911 0.90506 0.4049 0.0
H626 H 0.59182 0.97035 0.3546 0.0
H627 H 0.57061 0.94968 0.34068 0.0
H628 H 0.55649 0.98229 0.34918 0.0
H629 H 0.56427 0.87046 0.40333 0.0
H630 H 0.57751 0.86408 0.38257 0.0
H631 H 0.59797 0.88491 0.39686 0.0
H632 H 0.61906 0.85775 0.33755 0.0
H633 H 0.67005 0.90538 0.37211 0.0
H634 H 0.55572 0.9013 0.3408 0.0
H635 H 0.55605 0.86971 0.35323 0.0
H636 H 0.57078 0.86894 0.3325 0.0
H637 H 0.61659 0.95939 0.3809 0.0
H638 H 0.65188 0.94652 0.38569 0.0
H639 H 0.62129 0.93194 0.39614 0.0
C640 C 0.30986 0.27917 0.6209 0.0
C641 C 0.32212 0.27076 0.6361 0.0
C642 C 0.31958 0.3036 0.61247 0.0
C643 C 0.34244 0.3195 0.61924 0.0
C644 C 0.3548 0.31103 0.63456 0.0
C645 C 0.34433 0.28703 0.64283 0.0
C646 C 0.30551 0.31238 0.59636 0.0
C647 C 0.37947 0.32709 0.64215 0.0
C648 C 0.39317 0.36604 0.59486 0.0
C649 C 0.38622 0.39299 0.60115 0.0
C650 C 0.37753 0.34189 0.59956 0.0
C651 C 0.35407 0.34492 0.61052 0.0
C652 C 0.34525 0.37245 0.61549 0.0
C653 C 0.36165 0.39614 0.61091 0.0
C654 C 0.3879 0.31293 0.59412 0.0
C655 C 0.31993 0.37672 0.6268 0.0
H656 H 0.29265 0.26673 0.61565 0.0
H657 H 0.35414 0.28063 0.65448 0.0
H658 H 0.29795 0.3347 0.59727 0.0
H659 H 0.32116 0.31154 0.58601 0.0
H660 H 0.28719 0.29853 0.59314 0.0
H661 H 0.38709 0.31726 0.65394 0.0
H662 H 0.39749 0.32784 0.63321 0.0
H663 H 0.37309 0.34935 0.6448 0.0
H664 H 0.41214 0.36346 0.58731 0.0
H665 H 0.35593 0.417 0.61562 0.0
H666 H 0.36985 0.29929 0.59024 0.0
H667 H 0.39855 0.30228 0.60479 0.0
H668 H 0.40333 0.31435 0.58365 0.0
H669 H 0.30197 0.3629 0.62294 0.0
H670 H 0.31262 0.3992 0.62685 0.0
H671 H 0.32581 0.37075 0.63974 0.0
C672 C 0.97385 0.05052 0.87791 0.0
C673 C 0.98701 0.06528 0.89103 0.0
C674 C 0.94863 0.06083 0.87059 0.0
C675 C 0.93672 0.08677 0.87628 0.0
C676 C 0.9499 0.10163 0.88955 0.0
C677 C 0.97464 0.09058 0.89683 0.0
C678 C 0.93482 0.04412 0.85672 0.0
C679 C 0.93818 0.12957 0.89588 0.0
C680 C 0.88974 0.13462 0.84999 0.0
C681 C 0.86352 0.1319 0.85818 0.0
C682 C 0.91349 0.11864 0.85505 0.0
C683 C 0.91077 0.09906 0.86839 0.0
C684 C 0.88375 0.09448 0.87572 0.0
C685 C 0.86051 0.1112 0.87067 0.0
C686 C 0.94197 0.12447 0.84703 0.0
C687 C 0.87977 0.07331 0.88969 0.0
H688 H 0.98323 0.0309 0.8734 0.0
H689 H 0.98472 0.10228 0.90686 0.0
H690 H 0.91227 0.03965 0.85987 0.0
H691 H 0.93484 0.05683 0.84506 0.0
H692 H 0.94589 0.02364 0.8543 0.0
H693 H 0.95123 0.13865 0.90612 0.0
H694 H 0.93727 0.14526 0.88554 0.0
H695 H 0.91615 0.1266 0.90052 0.0
H696 H 0.89224 0.15061 0.84035 0.0
H697 H 0.8402 0.10875 0.87692 0.0
H698 H 0.95292 0.1043 0.84383 0.0
H699 H 0.95574 0.13603 0.856 0.0
H700 H 0.93992 0.13755 0.83555 0.0
H701 H 0.89077 0.05302 0.88677 0.0
H702 H 0.85692 0.06883 0.89208 0.0
H703 H 0.8893 0.08187 0.9013 0.0
C704 C 0.88917 0.64151 0.59822 0.0
C705 C 0.88424 0.61485 0.6055 0.0
C706 C 0.87354 0.66553 0.60322 0.0
C707 C 0.85208 0.66261 0.61552 0.0
C708 C 0.84515 0.63523 0.62164 0.0
C709 C 0.86158 0.61172 0.61673 0.0
C710 C 0.88193 0.69434 0.59654 0.0
C711 C 0.82191 0.63105 0.63441 0.0
C712 C 0.8447 0.72265 0.64669 0.0
C713 C 0.82091 0.73754 0.64072 0.0
C714 C 0.85497 0.69844 0.63851 0.0
C715 C 0.84076 0.68832 0.62413 0.0
C716 C 0.81637 0.70285 0.61815 0.0
C717 C 0.8069 0.72757 0.62641 0.0
C718 C 0.88135 0.68393 0.64519 0.0
C719 C 0.80033 0.69228 0.60308 0.0
H720 H 0.90668 0.64408 0.58955 0.0
H721 H 0.85743 0.59106 0.62224 0.0
H722 H 0.86285 0.70707 0.59327 0.0
H723 H 0.89369 0.70617 0.60633 0.0
H724 H 0.89579 0.69262 0.58535 0.0
H725 H 0.81558 0.60836 0.63548 0.0
H726 H 0.82954 0.63831 0.64679 0.0
H727 H 0.80287 0.64388 0.63117 0.0
H728 H 0.85587 0.73032 0.65763 0.0
H729 H 0.78845 0.73894 0.62176 0.0
H730 H 0.89794 0.68302 0.63535 0.0
H731 H 0.87632 0.66173 0.6488 0.0
H732 H 0.89033 0.69503 0.65622 0.0
H733 H 0.8144 0.69253 0.59197 0.0
H734 H 0.78118 0.70537 0.60037 0.0
H735 H 0.79362 0.66991 0.60506 0.0
C736 C 0.14701 0.10863 0.36333 0.0
C737 C 0.14413 0.13168 0.35235 0.0
C738 C 0.12321 0.09281 0.36839 0.0
C739 C 0.09581 0.10073 0.36268 0.0
C740 C 0.0931 0.12252 0.35057 0.0
C741 C 0.11737 0.13755 0.34541 0.0
C742 C 0.12717 0.06919 0.38094 0.0
C743 C 0.0643 0.13194 0.3443 0.0
C744 C 0.03005 0.05741 0.37436 0.0
C745 C 0.02116 0.07144 0.38891 0.0
C746 C 0.05461 0.06631 0.36573 0.0
C747 C 0.0701 0.09014 0.37159 0.0
C748 C 0.06101 0.10441 0.3862 0.0
C749 C 0.03693 0.09472 0.39473 0.0
C750 C 0.06404 0.05022 0.35041 0.0
C751 C 0.07657 0.13021 0.39278 0.0
H752 H 0.16772 0.10377 0.36858 0.0
H753 H 0.11499 0.15537 0.33693 0.0
H754 H 0.12065 0.07682 0.39347 0.0
H755 H 0.11361 0.05066 0.37778 0.0
H756 H 0.14969 0.06208 0.38165 0.0
H757 H 0.06603 0.14581 0.33312 0.0
H758 H 0.05082 0.11336 0.34117 0.0
H759 H 0.05326 0.14405 0.35427 0.0
H760 H 0.018 0.03936 0.36983 0.0
H761 H 0.03008 0.1059 0.40586 0.0
H762 H 0.08618 0.0425 0.35209 0.0
H763 H 0.06404 0.06455 0.33942 0.0
H764 H 0.05009 0.03173 0.3477 0.0
H765 H 0.09876 0.12443 0.39606 0.0
H766 H 0.06618 0.13939 0.40401 0.0
H767 H 0.07758 0.1469 0.383 0.0
C768 C 0.64466 0.39983 0.10893 0.0
C769 C 0.61937 0.40492 0.11768 0.0
C770 C 0.66173 0.37609 0.11274 0.0
C771 C 0.65247 0.35644 0.12501 0.0
C772 C 0.62669 0.36146 0.1337 0.0
C773 C 0.6108 0.38596 0.13017 0.0
C774 C 0.68964 0.37207 0.10373 0.0
C775 C 0.61547 0.34059 0.14643 0.0
C776 C 0.67658 0.27941 0.12448 0.0
C777 C 0.69304 0.27814 0.13901 0.0
C778 C 0.66405 0.30509 0.11935 0.0
C779 C 0.6691 0.33021 0.12866 0.0
C780 C 0.68751 0.32931 0.14264 0.0
C781 C 0.69871 0.30309 0.14791 0.0
C782 C 0.64373 0.30484 0.10476 0.0
C783 C 0.69437 0.35579 0.15249 0.0
H784 H 0.65126 0.41464 0.09932 0.0
H785 H 0.59102 0.38979 0.13677 0.0
H786 H 0.70716 0.36956 0.1129 0.0
H787 H 0.68899 0.35236 0.09615 0.0
H788 H 0.69468 0.39024 0.09538 0.0
H789 H 0.59441 0.34703 0.15148 0.0
H790 H 0.61341 0.31919 0.14072 0.0
H791 H 0.63062 0.33868 0.15697 0.0
H792 H 0.67198 0.25995 0.11774 0.0
H793 H 0.71155 0.30201 0.15913 0.0
H794 H 0.64924 0.3218 0.09572 0.0
H795 H 0.62184 0.30923 0.10929 0.0
H796 H 0.64371 0.28408 0.09814 0.0
H797 H 0.69956 0.37366 0.14397 0.0
H798 H 0.71252 0.35241 0.16115 0.0
H799 H 0.67555 0.36222 0.15994 0.0
C800 C 0.45816 0.95262 0.89387 0.0
C801 C 0.48454 0.94706 0.88645 0.0
C802 C 0.43322 0.94 0.88775 0.0
C803 C 0.43501 0.92033 0.8744 0.0
C804 C 0.46149 0.91572 0.86637 0.0
C805 C 0.48592 0.92959 0.87233 0.0
C806 C 0.40526 0.94635 0.89625 0.0
C807 C 0.46457 0.89426 0.85248 0.0
C808 C 0.38216 0.85965 0.877 0.0
C809 C 0.36341 0.86605 0.86398 0.0
C810 C 0.40588 0.87681 0.88019 0.0
C811 C 0.41028 0.90168 0.87055 0.0
C812 C 0.39105 0.90854 0.85753 0.0
C813 C 0.36809 0.89022 0.85415 0.0
C814 C 0.42635 0.86814 0.89382 0.0
C815 C 0.39443 0.93542 0.84744 0.0
H816 H 0.45719 0.96622 0.90478 0.0
H817 H 0.50645 0.92504 0.86675 0.0
H818 H 0.38815 0.94949 0.88689 0.0
H819 H 0.39909 0.92808 0.90421 0.0
H820 H 0.40657 0.9656 0.90424 0.0
H821 H 0.48568 0.8956 0.8463 0.0
H822 H 0.46202 0.87252 0.85767 0.0
H823 H 0.44776 0.89727 0.84294 0.0
H824 H 0.3786 0.84073 0.88446 0.0
H825 H 0.3534 0.89513 0.84413 0.0
H826 H 0.42625 0.88426 0.90391 0.0
H827 H 0.44834 0.86704 0.8888 0.0
H828 H 0.4209 0.84716 0.89934 0.0
H829 H 0.3938 0.95416 0.85584 0.0
H830 H 0.3775 0.9378 0.83787 0.0
H831 H 0.41541 0.93559 0.84111 0.0
C832 C 0.86383 0.40089 0.89304 0.0
C833 C 0.88412 0.3998 0.90585 0.0
C834 C 0.84854 0.37653 0.88837 0.0
C835 C 0.85418 0.35034 0.89645 0.0
C836 C 0.87321 0.34956 0.91014 0.0
C837 C 0.88776 0.3744 0.91479 0.0
C838 C 0.8279 0.37842 0.87399 0.0
C839 C 0.8801 0.32203 0.91897 0.0
C840 C 0.809 0.28488 0.88722 0.0
C841 C 0.82484 0.27195 0.87446 0.0
C842 C 0.81801 0.31063 0.89444 0.0
C843 C 0.84371 0.32331 0.88899 0.0
C844 C 0.85986 0.31014 0.87623 0.0
C845 C 0.8501 0.28484 0.86904 0.0
C846 C 0.79999 0.32437 0.90779 0.0
C847 C 0.88764 0.32267 0.87022 0.0
H848 H 0.86068 0.42056 0.88621 0.0
H849 H 0.90344 0.37338 0.92469 0.0
H850 H 0.83753 0.36852 0.86276 0.0
H851 H 0.80806 0.36663 0.87686 0.0
H852 H 0.82235 0.40081 0.87093 0.0
H853 H 0.8922 0.32561 0.93069 0.0
H854 H 0.86039 0.31014 0.92197 0.0
H855 H 0.89311 0.3084 0.91063 0.0
H856 H 0.7894 0.27507 0.89141 0.0
H857 H 0.8626 0.27487 0.85929 0.0
H858 H 0.79376 0.34612 0.90382 0.0
H859 H 0.81244 0.32655 0.91947 0.0
H860 H 0.78041 0.31198 0.9105 0.0
H861 H 0.88391 0.34416 0.86493 0.0
H862 H 0.89802 0.30933 0.86054 0.0
H863 H 0.90256 0.3251 0.88085 0.0
C864 C 0.36732 0.11453 0.64851 0.0
C865 C 0.36936 0.13782 0.65937 0.0
C866 C 0.39162 0.09919 0.64372 0.0
C867 C 0.41866 0.10774 0.64967 0.0
C868 C 0.42058 0.1299 0.66158 0.0
C869 C 0.39583 0.14453 0.66641 0.0
C870 C 0.38855 0.07525 0.63131 0.0
C871 C 0.44899 0.13988 0.66812 0.0
C872 C 0.48477 0.06357 0.64 0.0
C873 C 0.49468 0.07691 0.62546 0.0
C874 C 0.45985 0.07309 0.64801 0.0
C875 C 0.44489 0.09676 0.64147 0.0
C876 C 0.45494 0.11035 0.62685 0.0
C877 C 0.4795 0.10013 0.61898 0.0
C878 C 0.44946 0.05779 0.6634 0.0
C879 C 0.43987 0.1359 0.61955 0.0
H880 H 0.34685 0.109 0.64318 0.0
H881 H 0.39758 0.16251 0.6748 0.0
H882 H 0.39596 0.08251 0.61888 0.0
H883 H 0.40191 0.05681 0.63498 0.0
H884 H 0.36612 0.0681 0.63013 0.0
H885 H 0.44663 0.15438 0.67897 0.0
H886 H 0.46242 0.12154 0.67185 0.0
H887 H 0.46045 0.15142 0.65808 0.0
H888 H 0.49634 0.04556 0.64505 0.0
H889 H 0.48709 0.11074 0.60783 0.0
H890 H 0.42747 0.04995 0.66137 0.0
H891 H 0.4487 0.07271 0.67411 0.0
H892 H 0.46326 0.03947 0.66677 0.0
H893 H 0.41782 0.1301 0.61599 0.0
H894 H 0.45088 0.14444 0.60836 0.0
H895 H 0.43843 0.15307 0.62901 0.0
C896 C 0.66217 0.72766 0.36887 0.0
C897 C 0.68697 0.74117 0.37449 0.0
C898 C 0.65229 0.70267 0.37639 0.0
C899 C 0.66788 0.69041 0.38969 0.0
C900 C 0.69311 0.70373 0.39537 0.0
C901 C 0.70223 0.72917 0.3878 0.0
C902 C 0.62501 0.68946 0.37011 0.0
C903 C 0.71054 0.69096 0.4093 0.0
C904 C 0.62309 0.64004 0.41559 0.0
C905 C 0.62754 0.61425 0.40718 0.0
C906 C 0.63757 0.66483 0.41076 0.0
C907 C 0.65735 0.66363 0.39745 0.0
C908 C 0.66375 0.63712 0.38995 0.0
C909 C 0.64853 0.61279 0.39478 0.0
C910 C 0.62983 0.6927 0.41895 0.0
C911 C 0.68521 0.63477 0.376 0.0
H912 H 0.6501 0.73692 0.3587 0.0
H913 H 0.72147 0.73946 0.39215 0.0
H914 H 0.62929 0.66777 0.36528 0.0
H915 H 0.60956 0.68737 0.38051 0.0
H916 H 0.61498 0.70217 0.36001 0.0
H917 H 0.72976 0.7038 0.41217 0.0
H918 H 0.69746 0.68915 0.42076 0.0
H919 H 0.71735 0.66913 0.40585 0.0
H920 H 0.60687 0.64134 0.42517 0.0
H921 H 0.6523 0.59284 0.38837 0.0
H922 H 0.61709 0.70571 0.41013 0.0
H923 H 0.64921 0.70503 0.42208 0.0
H924 H 0.61716 0.68955 0.43051 0.0
H925 H 0.67608 0.64399 0.36443 0.0
H926 H 0.69119 0.61232 0.37346 0.0
H927 H 0.70474 0.64696 0.37903 0.0
C928 C 0.14108 0.89965 0.15483 0.0
C929 C 0.13777 0.87501 0.1645 0.0
C930 C 0.11739 0.91574 0.14982 0.0
C931 C 0.08973 0.90654 0.15424 0.0
C932 C 0.08645 0.88298 0.1651 0.0
C933 C 0.11058 0.86764 0.17024 0.0
C934 C 0.12191 0.94116 0.13863 0.0
C935 C 0.05735 0.87223 0.16997 0.0
C936 C 0.02412 0.9504 0.14278 0.0
C937 C 0.01662 0.93824 0.12741 0.0
C938 C 0.04815 0.94071 0.15165 0.0
C939 C 0.0646 0.91802 0.14512 0.0
C940 C 0.05706 0.90574 0.12962 0.0
C941 C 0.03341 0.91614 0.12094 0.0
C942 C 0.05591 0.95466 0.16797 0.0
C943 C 0.07375 0.88127 0.12226 0.0
H944 H 0.16211 0.90568 0.15055 0.0
H945 H 0.10787 0.84861 0.17771 0.0
H946 H 0.11664 0.93531 0.12559 0.0
H947 H 0.10769 0.95895 0.14229 0.0
H948 H 0.1443 0.94869 0.13896 0.0
H949 H 0.05842 0.85673 0.18042 0.0
H950 H 0.04325 0.89008 0.17365 0.0
H951 H 0.04743 0.86156 0.15908 0.0
H952 H 0.01129 0.96751 0.14785 0.0
H953 H 0.02774 0.9064 0.10914 0.0
H954 H 0.07816 0.96251 0.16746 0.0
H955 H 0.0548 0.93887 0.17823 0.0
H956 H 0.04163 0.97276 0.17103 0.0
H957 H 0.09609 0.88783 0.12002 0.0
H958 H 0.06464 0.87368 0.11027 0.0
H959 H 0.07421 0.86318 0.13115 0.0
C960 C 0.69545 0.78402 0.89159 0.0
C961 C 0.68323 0.77315 0.87694 0.0
C962 C 0.68494 0.80906 0.899 0.0
C963 C 0.66143 0.82327 0.89171 0.0
C964 C 0.64907 0.81237 0.87693 0.0
C965 C 0.66022 0.78764 0.86969 0.0
C966 C 0.69893 0.82031 0.9146 0.0
C967 C 0.62381 0.8267 0.86881 0.0
C968 C 0.61168 0.87258 0.91524 0.0
C969 C 0.61879 0.89898 0.90824 0.0
C970 C 0.62661 0.8478 0.91078 0.0
C971 C 0.64946 0.84961 0.89929 0.0
C972 C 0.65821 0.87656 0.89333 0.0
C973 C 0.64261 0.90088 0.89775 0.0
C974 C 0.61645 0.81947 0.91733 0.0
C975 C 0.68282 0.87951 0.88135 0.0
H976 H 0.71326 0.773 0.89725 0.0
H977 H 0.65049 0.77937 0.85844 0.0
H978 H 0.70628 0.84245 0.91252 0.0
H979 H 0.6833 0.82092 0.92496 0.0
H980 H 0.7174 0.80714 0.91851 0.0
H981 H 0.61635 0.81519 0.85753 0.0
H982 H 0.60591 0.82808 0.87781 0.0
H983 H 0.62945 0.84875 0.86516 0.0
H984 H 0.59327 0.87094 0.92333 0.0
H985 H 0.64843 0.92129 0.89246 0.0
H986 H 0.63465 0.80644 0.92173 0.0
H987 H 0.60594 0.80754 0.90711 0.0
H988 H 0.60102 0.82193 0.92773 0.0
H989 H 0.70126 0.86665 0.8856 0.0
H990 H 0.68969 0.90199 0.87995 0.0
H991 H 0.67643 0.87142 0.8689 0.0
C992 C 0.46814 0.45891 0.13763 0.0
C993 C 0.48152 0.44535 0.12413 0.0
C994 C 0.44324 0.44764 0.14476 0.0
C995 C 0.4317 0.42208 0.13836 0.0
C996 C 0.44479 0.40866 0.12453 0.0
C997 C 0.46938 0.42053 0.11754 0.0
C998 C 0.42959 0.46277 0.15931 0.0
C999 C 0.43321 0.3813 0.11735 0.0
C1000 C 0.38607 0.37162 0.16374 0.0
C1001 C 0.35943 0.37533 0.15617 0.0
C1002 C 0.40959 0.38797 0.15877 0.0
C1003 C 0.40621 0.40877 0.14612 0.0
C1004 C 0.37887 0.41416 0.13944 0.0
C1005 C 0.35585 0.39723 0.14446 0.0
C1006 C 0.43843 0.38147 0.16614 0.0
C1007 C 0.37425 0.43652 0.12619 0.0
H1008 H 0.47733 0.47812 0.14278 0.0
H1009 H 0.47954 0.40983 0.10715 0.0
H1010 H 0.40676 0.46681 0.15669 0.0
H1011 H 0.43063 0.4491 0.17058 0.0
H1012 H 0.44013 0.48335 0.16214 0.0
H1013 H 0.44585 0.37362 0.10653 0.0
H1014 H 0.43317 0.36449 0.12707 0.0
H1015 H 0.41087 0.38439 0.11326 0.0
H1016 H 0.389 0.35473 0.17279 0.0
H1017 H 0.33521 0.40044 0.1387 0.0
H1018 H 0.44932 0.40136 0.16994 0.0
H1019 H 0.45194 0.37103 0.15657 0.0
H1020 H 0.43697 0.36716 0.17714 0.0
H1021 H 0.38512 0.45661 0.12961 0.0
H1022 H 0.35129 0.44103 0.12415 0.0
H1023 H 0.38355 0.4291 0.11423 0.0
C1024 C 0.86364 0.11581 0.40336 0.0
C1025 C 0.88804 0.11888 0.41327 0.0
C1026 C 0.84772 0.1396 0.39836 0.0
C1027 C 0.85683 0.16716 0.40304 0.0
C1028 C 0.88014 0.17019 0.41411 0.0
C1029 C 0.89531 0.14594 0.41924 0.0
C1030 C 0.82256 0.13534 0.38693 0.0
C1031 C 0.89079 0.19916 0.41927 0.0
C1032 C 0.84778 0.22408 0.37003 0.0
C1033 C 0.82546 0.24064 0.37644 0.0
C1034 C 0.85812 0.20035 0.37866 0.0
C1035 C 0.84554 0.19248 0.39402 0.0
C1036 C 0.82267 0.20874 0.4005 0.0
C1037 C 0.81306 0.23288 0.3917 0.0
C1038 C 0.88282 0.18388 0.37136 0.0
C1039 C 0.80839 0.20063 0.41667 0.0
H1040 H 0.85769 0.09487 0.3989 0.0
H1041 H 0.91415 0.14848 0.42689 0.0
H1042 H 0.80467 0.14945 0.39056 0.0
H1043 H 0.82873 0.14094 0.37398 0.0
H1044 H 0.81504 0.11295 0.38702 0.0
H1045 H 0.90605 0.19786 0.42983 0.0
H1046 H 0.90173 0.20929 0.40853 0.0
H1047 H 0.87286 0.2132 0.4229 0.0
H1048 H 0.85772 0.22999 0.35833 0.0
H1049 H 0.79577 0.24553 0.39671 0.0
H1050 H 0.87634 0.16159 0.3689 0.0
H1051 H 0.9007 0.18324 0.3804 0.0
H1052 H 0.89068 0.19329 0.35952 0.0
H1053 H 0.80032 0.1785 0.41588 0.0
H1054 H 0.79038 0.21499 0.41979 0.0
H1055 H 0.82404 0.20125 0.42702 0.0
C1056 C 0.14939 0.6139 0.64862 0.0
C1057 C 0.14712 0.63533 0.66072 0.0
C1058 C 0.12538 0.59859 0.64338 0.0
C1059 C 0.09835 0.60533 0.65011 0.0
C1060 C 0.09624 0.6256 0.66313 0.0
C1061 C 0.12073 0.64017 0.6684 0.0
C1062 C 0.12869 0.57662 0.62978 0.0
C1063 C 0.06781 0.63371 0.6705 0.0
C1064 C 0.03622 0.59945 0.62014 0.0
C1065 C 0.02222 0.57496 0.62583 0.0
C1066 C 0.06079 0.60954 0.62806 0.0
C1067 C 0.0721 0.5945 0.64185 0.0
C1068 C 0.05835 0.56953 0.64756 0.0
C1069 C 0.03335 0.5602 0.63958 0.0
C1070 C 0.07449 0.63653 0.62171 0.0
C1071 C 0.07012 0.55264 0.66202 0.0
H1072 H 0.1698 0.60985 0.64277 0.0
H1073 H 0.11879 0.65675 0.67772 0.0
H1074 H 0.11624 0.55724 0.63276 0.0
H1075 H 0.12034 0.58532 0.61788 0.0
H1076 H 0.1513 0.57052 0.62787 0.0
H1077 H 0.07014 0.64687 0.68193 0.0
H1078 H 0.05546 0.64605 0.66118 0.0
H1079 H 0.05524 0.61448 0.67362 0.0
H1080 H 0.02766 0.61116 0.60963 0.0
H1081 H 0.02269 0.5412 0.644 0.0
H1082 H 0.09653 0.63203 0.61749 0.0
H1083 H 0.07584 0.65242 0.63191 0.0
H1084 H 0.06255 0.64612 0.61115 0.0
H1085 H 0.09227 0.54592 0.65925 0.0
H1086 H 0.0572 0.53343 0.66476 0.0
H1087 H 0.0709 0.5661 0.67336 0.0
C1088 C 0.6255 0.14352 0.59649 0.0
C1089 C 0.63146 0.11705 0.60378 0.0
C1090 C 0.6404 0.16803 0.60137 0.0
C1091 C 0.66218 0.16583 0.61352 0.0
C1092 C 0.67021 0.13868 0.61957 0.0
C1093 C 0.65448 0.11465 0.61481 0.0
C1094 C 0.63083 0.19655 0.59476 0.0
C1095 C 0.69384 0.13527 0.63217 0.0
C1096 C 0.70497 0.23225 0.62447 0.0
C1097 C 0.69082 0.2415 0.6389 0.0
C1098 C 0.6963 0.20736 0.61611 0.0
C1099 C 0.67256 0.19188 0.62214 0.0
C1100 C 0.65815 0.20133 0.63662 0.0
C1101 C 0.66762 0.22576 0.64488 0.0
C1102 C 0.71252 0.19755 0.60092 0.0
C1103 C 0.63244 0.1858 0.64336 0.0
H1104 H 0.6077 0.14554 0.58797 0.0
H1105 H 0.65941 0.09415 0.62031 0.0
H1106 H 0.61863 0.20784 0.6046 0.0
H1107 H 0.64935 0.21003 0.59149 0.0
H1108 H 0.61699 0.19437 0.5836 0.0
H1109 H 0.70109 0.11282 0.63312 0.0
H1110 H 0.71229 0.14884 0.62886 0.0
H1111 H 0.68615 0.14212 0.64462 0.0
H1112 H 0.72297 0.24429 0.61982 0.0
H1113 H 0.65635 0.23286 0.65592 0.0
H1114 H 0.69824 0.19715 0.58992 0.0
H1115 H 0.72035 0.17552 0.60285 0.0
H1116 H 0.73096 0.2115 0.59809 0.0
H1117 H 0.61579 0.1843 0.63359 0.0
H1118 H 0.62313 0.19649 0.65446 0.0
H1119 H 0.6384 0.16379 0.64693 0.0
C1120 C 0.14835 0.3945 0.86814 0.0
C1121 C 0.1458 0.37371 0.85569 0.0
C1122 C 0.12486 0.41105 0.87296 0.0
C1123 C 0.09804 0.40618 0.86543 0.0
C1124 C 0.09579 0.3865 0.85212 0.0
C1125 C 0.1198 0.37071 0.84729 0.0
C1126 C 0.12834 0.43235 0.88689 0.0
C1127 C 0.06754 0.38032 0.84393 0.0
C1128 C 0.03402 0.41422 0.89377 0.0
C1129 C 0.02158 0.4395 0.88799 0.0
C1130 C 0.05873 0.40323 0.88644 0.0
C1131 C 0.07182 0.41816 0.87317 0.0
C1132 C 0.05969 0.44396 0.8674 0.0
C1133 C 0.03446 0.45419 0.87476 0.0
C1134 C 0.07061 0.37537 0.89281 0.0
C1135 C 0.07343 0.46075 0.85353 0.0
H1136 H 0.16849 0.39715 0.87454 0.0
H1137 H 0.11766 0.35465 0.83767 0.0
H1138 H 0.11716 0.4525 0.88386 0.0
H1139 H 0.1187 0.42375 0.89847 0.0
H1140 H 0.15109 0.43711 0.88941 0.0
H1141 H 0.06999 0.36734 0.83244 0.0
H1142 H 0.0538 0.3685 0.8528 0.0
H1143 H 0.05635 0.40035 0.8407 0.0
H1144 H 0.02407 0.40257 0.90388 0.0
H1145 H 0.025 0.47379 0.87029 0.0
H1146 H 0.09249 0.37858 0.89764 0.0
H1147 H 0.07198 0.35976 0.88246 0.0
H1148 H 0.05742 0.36606 0.90293 0.0
H1149 H 0.09569 0.46603 0.85693 0.0
H1150 H 0.0618 0.4808 0.85079 0.0
H1151 H 0.07427 0.44776 0.84199 0.0
C1152 C 0.89035 0.86572 0.09645 0.0
C1153 C 0.88351 0.89285 0.10252 0.0
C1154 C 0.87497 0.84167 0.10162 0.0
C1155 C 0.85193 0.84498 0.11286 0.0
C1156 C 0.84324 0.87262 0.11768 0.0
C1157 C 0.85934 0.89621 0.1126 0.0
C1158 C 0.88513 0.81258 0.0963 0.0
C1159 C 0.81838 0.87716 0.1293 0.0
C1160 C 0.80765 0.77962 0.12389 0.0
C1161 C 0.82041 0.7711 0.13892 0.0
C1162 C 0.81723 0.80397 0.11533 0.0
C1163 C 0.84039 0.81974 0.12181 0.0
C1164 C 0.85316 0.81128 0.13702 0.0
C1165 C 0.84288 0.78731 0.14542 0.0
C1166 C 0.80275 0.8127 0.09932 0.0
C1167 C 0.87811 0.82728 0.14433 0.0
H1168 H 0.90901 0.86296 0.08867 0.0
H1169 H 0.85372 0.9172 0.11715 0.0
H1170 H 0.89593 0.80207 0.10697 0.0
H1171 H 0.86694 0.79896 0.09263 0.0
H1172 H 0.90035 0.81373 0.08572 0.0
H1173 H 0.81117 0.89968 0.12935 0.0
H1174 H 0.80021 0.86339 0.12574 0.0
H1175 H 0.82472 0.87131 0.14219 0.0
H1176 H 0.79025 0.76726 0.11881 0.0
H1177 H 0.85303 0.78087 0.15696 0.0
H1178 H 0.81803 0.81135 0.08881 0.0
H1179 H 0.79562 0.83517 0.10016 0.0
H1180 H 0.78408 0.79912 0.09642 0.0
H1181 H 0.89594 0.82771 0.13525 0.0
H1182 H 0.8859 0.81763 0.15612 0.0
H1183 H 0.87197 0.84965 0.14687 0.0
C1184 C 0.47866 0.55689 0.37566 0.0
C1185 C 0.4904 0.57165 0.38923 0.0
C1186 C 0.45323 0.56621 0.36813 0.0
C1187 C 0.43969 0.59115 0.3741 0.0
C1188 C 0.45159 0.60613 0.38772 0.0
C1189 C 0.47657 0.59606 0.39519 0.0
C1190 C 0.44081 0.54938 0.35386 0.0
C1191 C 0.43812 0.63308 0.39434 0.0
C1192 C 0.39019 0.63761 0.34863 0.0
C1193 C 0.36422 0.63305 0.35683 0.0
C1194 C 0.41476 0.62257 0.35331 0.0
C1195 C 0.41313 0.60211 0.36625 0.0
C1196 C 0.38641 0.59557 0.37345 0.0
C1197 C 0.36232 0.61137 0.36879 0.0
C1198 C 0.44286 0.63046 0.34546 0.0
C1199 C 0.38361 0.5734 0.38697 0.0
H1200 H 0.48919 0.53795 0.37103 0.0
H1201 H 0.48561 0.60775 0.40557 0.0
H1202 H 0.41874 0.54283 0.35692 0.0
H1203 H 0.43967 0.56283 0.34251 0.0
H1204 H 0.45353 0.53007 0.35096 0.0
H1205 H 0.45051 0.64259 0.40473 0.0
H1206 H 0.43631 0.64905 0.38419 0.0
H1207 H 0.41629 0.62857 0.39888 0.0
H1208 H 0.39182 0.65437 0.33939 0.0
H1209 H 0.34221 0.60752 0.37503 0.0
H1210 H 0.45519 0.61115 0.34213 0.0
H1211 H 0.45571 0.64272 0.35457 0.0
H1212 H 0.44003 0.64365 0.33408 0.0
H1213 H 0.39593 0.55403 0.38375 0.0
H1214 H 0.36106 0.56734 0.38914 0.0
H1215 H 0.39239 0.58191 0.39881 0.0
C1216 C 0.36417 0.11398 0.11124 0.0
C1217 C 0.39096 0.11714 0.10374 0.0
C1218 C 0.34736 0.13774 0.11513 0.0
C1219 C 0.35784 0.16535 0.11176 0.0
C1220 C 0.38387 0.16856 0.10302 0.0
C1221 C 0.40004 0.14435 0.09898 0.0
C1222 C 0.31946 0.1333 0.1241 0.0
C1223 C 0.39592 0.19762 0.09928 0.0
C1224 C 0.31167 0.23083 0.11968 0.0
C1225 C 0.32018 0.23836 0.13588 0.0
C1226 C 0.32339 0.20689 0.11164 0.0
C1227 C 0.34434 0.19042 0.11992 0.0
C1228 C 0.35275 0.1978 0.13631 0.0
C1229 C 0.34046 0.22145 0.14409 0.0
C1230 C 0.31359 0.19935 0.09428 0.0
C1231 C 0.37512 0.18093 0.1456 0.0
H1232 H 0.35685 0.09294 0.11473 0.0
H1233 H 0.42072 0.14693 0.09318 0.0
H1234 H 0.32215 0.13849 0.13751 0.0
H1235 H 0.30279 0.14763 0.11904 0.0
H1236 H 0.31196 0.11097 0.12311 0.0
H1237 H 0.4139 0.19657 0.0903 0.0
H1238 H 0.37927 0.21187 0.09415 0.0
H1239 H 0.40376 0.20734 0.11102 0.0
H1240 H 0.29602 0.24375 0.11324 0.0
H1241 H 0.34732 0.22702 0.15657 0.0
H1242 H 0.30608 0.177 0.09394 0.0
H1243 H 0.33168 0.201 0.08544 0.0
H1244 H 0.29616 0.21345 0.08987 0.0
H1245 H 0.3681 0.15856 0.14707 0.0
H1246 H 0.37959 0.18979 0.15818 0.0
H1247 H 0.39526 0.18067 0.13837 0.0
C1248 C 0.55193 0.55676 0.89533 0.0
C1249 C 0.52645 0.55499 0.88631 0.0
C1250 C 0.57627 0.56917 0.88833 0.0
C1251 C 0.57494 0.58059 0.872 0.0
C1252 C 0.5499 0.57696 0.86239 0.0
C1253 C 0.52595 0.56395 0.86963 0.0
C1254 C 0.60268 0.57204 0.89892 0.0
C1255 C 0.54756 0.58895 0.84498 0.0
C1256 C 0.61983 0.64691 0.86719 0.0
C1257 C 0.64373 0.63651 0.85881 0.0
C1258 C 0.59678 0.62913 0.87085 0.0
C1259 C 0.59792 0.60005 0.86623 0.0
C1260 C 0.62183 0.5896 0.85734 0.0
C1261 C 0.64455 0.60809 0.85365 0.0
C1262 C 0.57162 0.64129 0.88019 0.0
C1263 C 0.62392 0.55874 0.85234 0.0
H1264 H 0.55248 0.54956 0.90818 0.0
H1265 H 0.50626 0.56271 0.86262 0.0
H1266 H 0.62192 0.56624 0.89165 0.0
H1267 H 0.6051 0.59451 0.9029 0.0
H1268 H 0.60175 0.55848 0.91025 0.0
H1269 H 0.5288 0.58037 0.83822 0.0
H1270 H 0.54541 0.61242 0.8457 0.0
H1271 H 0.56702 0.58424 0.83765 0.0
H1272 H 0.61941 0.66898 0.87113 0.0
H1273 H 0.66325 0.60018 0.84723 0.0
H1274 H 0.57027 0.63145 0.89274 0.0
H1275 H 0.55155 0.6363 0.87352 0.0
H1276 H 0.57314 0.66472 0.88173 0.0
H1277 H 0.62626 0.54538 0.86367 0.0
H1278 H 0.64236 0.55465 0.844 0.0
H1279 H 0.60418 0.55186 0.84593 0.0
C1280 C 0.20437 0.78325 0.62879 0.0
C1281 C 0.18968 0.77209 0.64256 0.0
C1282 C 0.19496 0.80828 0.62085 0.0
C1283 C 0.16999 0.82201 0.62663 0.0
C1284 C 0.1551 0.81073 0.64048 0.0
C1285 C 0.16527 0.78615 0.64834 0.0
C1286 C 0.21168 0.82003 0.60634 0.0
C1287 C 0.12813 0.82444 0.64692 0.0
C1288 C 0.14948 0.89897 0.61994 0.0
C1289 C 0.12775 0.89639 0.60806 0.0
C1290 C 0.16537 0.87519 0.62502 0.0
C1291 C 0.15888 0.8481 0.61833 0.0
C1292 C 0.13836 0.84574 0.60546 0.0
C1293 C 0.12323 0.87 0.60035 0.0
C1294 C 0.18758 0.87877 0.63845 0.0
C1295 C 0.13053 0.81723 0.59813 0.0
H1296 H 0.22331 0.77254 0.62428 0.0
H1297 H 0.15362 0.77757 0.65888 0.0
H1298 H 0.19822 0.82038 0.59498 0.0
H1299 H 0.21801 0.84232 0.60895 0.0
H1300 H 0.23112 0.80735 0.6037 0.0
H1301 H 0.11874 0.81258 0.65757 0.0
H1302 H 0.13258 0.84651 0.65103 0.0
H1303 H 0.11208 0.82564 0.63679 0.0
H1304 H 0.15331 0.9194 0.6258 0.0
H1305 H 0.10643 0.86784 0.59117 0.0
H1306 H 0.207 0.86636 0.63542 0.0
H1307 H 0.17915 0.87058 0.65045 0.0
H1308 H 0.19358 0.90143 0.6402 0.0
H1309 H 0.14987 0.80482 0.59499 0.0
H1310 H 0.11725 0.81942 0.58674 0.0
H1311 H 0.11837 0.80481 0.60751 0.0
C1312 C 0.97286 0.41783 0.39437 0.0
C1313 C 0.98992 0.43936 0.38753 0.0
C1314 C 0.94923 0.40722 0.38579 0.0
C1315 C 0.94195 0.41875 0.37004 0.0
C1316 C 0.95852 0.44105 0.36321 0.0
C1317 C 0.98256 0.45092 0.37196 0.0
C1318 C 0.93238 0.38318 0.39349 0.0
C1319 C 0.95101 0.45426 0.34663 0.0
C1320 C 0.89723 0.3668 0.3454 0.0
C1321 C 0.86982 0.37415 0.35081 0.0
C1322 C 0.92104 0.38262 0.35047 0.0
C1323 C 0.91719 0.40666 0.36089 0.0
C1324 C 0.88931 0.41581 0.36491 0.0
C1325 C 0.86596 0.39921 0.36001 0.0
C1326 C 0.95038 0.37189 0.34606 0.0
C1327 C 0.88422 0.44177 0.37558 0.0
H1328 H 0.9784 0.40859 0.40633 0.0
H1329 H 0.9956 0.46759 0.36661 0.0
H1330 H 0.90997 0.38986 0.39539 0.0
H1331 H 0.93221 0.3646 0.38496 0.0
H1332 H 0.9412 0.37628 0.4057 0.0
H1333 H 0.96477 0.47275 0.34361 0.0
H1334 H 0.95326 0.43822 0.33657 0.0
H1335 H 0.92847 0.46132 0.34666 0.0
H1336 H 0.90034 0.34743 0.33829 0.0
H1337 H 0.84475 0.40519 0.36404 0.0
H1338 H 0.96019 0.362 0.35724 0.0
H1339 H 0.96433 0.38965 0.34211 0.0
H1340 H 0.94976 0.35576 0.33594 0.0
H1341 H 0.88906 0.43662 0.38878 0.0
H1342 H 0.86178 0.44914 0.37484 0.0
H1343 H 0.89843 0.45945 0.37177 0.0
C1344 C 0.31152 0.78092 0.39119 0.0
C1345 C 0.32468 0.77038 0.37673 0.0
C1346 C 0.32164 0.80571 0.39905 0.0
C1347 C 0.34574 0.81986 0.39246 0.0
C1348 C 0.35908 0.80923 0.37791 0.0
C1349 C 0.34826 0.78484 0.37017 0.0
C1350 C 0.30657 0.81675 0.41436 0.0
C1351 C 0.38507 0.82344 0.37057 0.0
C1352 C 0.36551 0.89692 0.39942 0.0
C1353 C 0.38856 0.89429 0.41043 0.0
C1354 C 0.34966 0.87304 0.39456 0.0
C1355 C 0.35745 0.84581 0.40058 0.0
C1356 C 0.37944 0.84331 0.41258 0.0
C1357 C 0.39458 0.86766 0.41749 0.0
C1358 C 0.32593 0.87673 0.38206 0.0
C1359 C 0.38863 0.81465 0.41918 0.0
H1360 H 0.29324 0.76991 0.3963 0.0
H1361 H 0.35873 0.77676 0.35909 0.0
H1362 H 0.3214 0.81694 0.42512 0.0
H1363 H 0.29958 0.83902 0.41227 0.0
H1364 H 0.2877 0.80371 0.41768 0.0
H1365 H 0.39329 0.81208 0.35941 0.0
H1366 H 0.3799 0.84562 0.36693 0.0
H1367 H 0.40227 0.82442 0.38003 0.0
H1368 H 0.36053 0.91752 0.39408 0.0
H1369 H 0.41239 0.86546 0.42599 0.0
H1370 H 0.30706 0.86402 0.38573 0.0
H1371 H 0.33307 0.86894 0.36968 0.0
H1372 H 0.31945 0.89936 0.38075 0.0
H1373 H 0.36992 0.80186 0.42299 0.0
H1374 H 0.40327 0.81662 0.43 0.0
H1375 H 0.39976 0.80275 0.40916 0.0
C1376 C 0.98084 0.56073 0.13798 0.0
C1377 C 0.99067 0.57501 0.12374 0.0
C1378 C 0.95594 0.56976 0.14623 0.0
C1379 C 0.94106 0.59396 0.14028 0.0
C1380 C 0.9511 0.6085 0.12598 0.0
C1381 C 0.97552 0.59869 0.11783 0.0
C1382 C 0.94548 0.55342 0.16122 0.0
C1383 C 0.93621 0.63469 0.11935 0.0
C1384 C 0.86393 0.61306 0.14753 0.0
C1385 C 0.8665 0.63563 0.15886 0.0
C1386 C 0.88785 0.59726 0.14258 0.0
C1387 C 0.91504 0.6047 0.14881 0.0
C1388 C 0.91742 0.62608 0.16117 0.0
C1389 C 0.89304 0.6411 0.16618 0.0
C1390 C 0.88428 0.57411 0.12972 0.0
C1391 C 0.94602 0.63497 0.16797 0.0
H1392 H 0.99241 0.54237 0.14257 0.0
H1393 H 0.9831 0.61006 0.10694 0.0
H1394 H 0.94497 0.5675 0.17232 0.0
H1395 H 0.92339 0.546 0.15904 0.0
H1396 H 0.9591 0.53471 0.16407 0.0
H1397 H 0.94728 0.64397 0.10838 0.0
H1398 H 0.91412 0.62933 0.11564 0.0
H1399 H 0.93491 0.65115 0.12924 0.0
H1400 H 0.84338 0.60846 0.14201 0.0
H1401 H 0.89518 0.6585 0.17496 0.0
H1402 H 0.89739 0.55526 0.13296 0.0
H1403 H 0.89164 0.58199 0.1174 0.0
H1404 H 0.86171 0.5674 0.12849 0.0
H1405 H 0.95908 0.61613 0.17124 0.0
H1406 H 0.94392 0.6487 0.17918 0.0
H1407 H 0.95772 0.64703 0.15824 0.0
C1408 C 0.2014 0.21988 0.88397 0.0
C1409 C 0.18505 0.23369 0.87177 0.0
C1410 C 0.19234 0.19395 0.89097 0.0
C1411 C 0.16603 0.18205 0.88591 0.0
C1412 C 0.14938 0.19613 0.87372 0.0
C1413 C 0.15924 0.22154 0.86669 0.0
C1414 C 0.21094 0.1792 0.90366 0.0
C1415 C 0.12092 0.18452 0.8682 0.0
C1416 C 0.14446 0.10473 0.88989 0.0
C1417 C 0.12558 0.10584 0.90342 0.0
C1418 C 0.1597 0.12896 0.88488 0.0
C1419 C 0.15536 0.15505 0.89333 0.0
C1420 C 0.13757 0.15587 0.90758 0.0
C1421 C 0.12314 0.13116 0.91257 0.0
C1422 C 0.17906 0.12701 0.8699 0.0
C1423 C 0.13195 0.18333 0.91678 0.0
H1424 H 0.22144 0.22912 0.88788 0.0
H1425 H 0.14635 0.23223 0.85737 0.0
H1426 H 0.19936 0.17702 0.91564 0.0
H1427 H 0.21615 0.1574 0.89931 0.0
H1428 H 0.23109 0.19087 0.90596 0.0
H1429 H 0.11024 0.1985 0.85894 0.0
H1430 H 0.12374 0.16316 0.86256 0.0
H1431 H 0.10666 0.18203 0.87914 0.0
H1432 H 0.14666 0.08514 0.88288 0.0
H1433 H 0.10852 0.1322 0.92301 0.0
H1434 H 0.19945 0.13813 0.87234 0.0
H1435 H 0.16884 0.13762 0.85908 0.0
H1436 H 0.1837 0.1046 0.86643 0.0
H1437 H 0.15217 0.19453 0.91953 0.0
H1438 H 0.12037 0.17979 0.92869 0.0
H1439 H 0.11896 0.19761 0.9088 0.0
C1440 C 0.52829 0.44955 0.64193 0.0
C1441 C 0.51997 0.43698 0.62683 0.0
C1442 C 0.55268 0.43996 0.65049 0.0
C1443 C 0.56863 0.41693 0.64394 0.0
C1444 C 0.56015 0.40413 0.62877 0.0
C1445 C 0.53618 0.41446 0.62036 0.0
C1446 C 0.56144 0.45447 0.66647 0.0
C1447 C 0.57625 0.37924 0.62142 0.0
C1448 C 0.64565 0.39893 0.6525 0.0
C1449 C 0.64291 0.37482 0.66268 0.0
C1450 C 0.62168 0.41471 0.64762 0.0
C1451 C 0.59427 0.40573 0.6527 0.0
C1452 C 0.59159 0.3827 0.66399 0.0
C1453 C 0.61602 0.36767 0.66898 0.0
C1454 C 0.62557 0.43959 0.63593 0.0
C1455 C 0.56278 0.37217 0.66957 0.0
H1456 H 0.5159 0.467 0.64698 0.0
H1457 H 0.52981 0.40439 0.60879 0.0
H1458 H 0.56136 0.43897 0.6769 0.0
H1459 H 0.5835 0.46262 0.66529 0.0
H1460 H 0.54714 0.47246 0.66972 0.0
H1461 H 0.56634 0.37119 0.60977 0.0
H1462 H 0.59846 0.38558 0.61861 0.0
H1463 H 0.57718 0.36155 0.63058 0.0
H1464 H 0.66645 0.40478 0.64776 0.0
H1465 H 0.61373 0.34905 0.67684 0.0
H1466 H 0.61166 0.4576 0.63962 0.0
H1467 H 0.61942 0.43317 0.62311 0.0
H1468 H 0.64799 0.44703 0.63564 0.0
H1469 H 0.5489 0.39018 0.67326 0.0
H1470 H 0.56442 0.3571 0.6802 0.0
H1471 H 0.55225 0.36109 0.65902 0.0
C1472 C 0.29249 0.25465 0.22365 0.0
C1473 C 0.28244 0.2806 0.21735 0.0
C1474 C 0.28189 0.24343 0.23864 0.0
C1475 C 0.26155 0.25909 0.2479 0.0
C1476 C 0.25187 0.28571 0.24178 0.0
C1477 C 0.262 0.29588 0.22637 0.0
C1478 C 0.29199 0.21452 0.24437 0.0
C1479 C 0.23093 0.3035 0.25154 0.0
C1480 C 0.21328 0.22118 0.27882 0.0
C1481 C 0.22783 0.22523 0.29388 0.0
C1482 C 0.22436 0.2315 0.26372 0.0
C1483 C 0.25002 0.2473 0.26379 0.0
C1484 C 0.26468 0.25163 0.27904 0.0
C1485 C 0.25367 0.24004 0.29387 0.0
C1486 C 0.20864 0.22544 0.24769 0.0
C1487 C 0.29157 0.26912 0.27974 0.0
H1488 H 0.30809 0.24267 0.21657 0.0
H1489 H 0.25437 0.31603 0.22153 0.0
H1490 H 0.30233 0.21622 0.25675 0.0
H1491 H 0.27352 0.20002 0.24578 0.0
H1492 H 0.30733 0.20477 0.23551 0.0
H1493 H 0.22695 0.32448 0.2456 0.0
H1494 H 0.21038 0.29209 0.25266 0.0
H1495 H 0.23902 0.30705 0.26438 0.0
H1496 H 0.19331 0.20965 0.27885 0.0
H1497 H 0.26471 0.24351 0.30557 0.0
H1498 H 0.22314 0.21509 0.23859 0.0
H1499 H 0.20124 0.24564 0.242 0.0
H1500 H 0.1899 0.21145 0.24966 0.0
H1501 H 0.30827 0.2593 0.27183 0.0
H1502 H 0.29994 0.27119 0.29264 0.0
H1503 H 0.28742 0.29072 0.2747 0.0
C1504 C 0.02273 0.00693 0.54809 0.0
C1505 C 0.03673 0.98061 0.54813 0.0
C1506 C 0.01153 0.01829 0.53325 0.0
C1507 C 0.01539 1.00343 0.51803 0.0
C1508 C 0.03039 0.97728 0.51797 0.0
C1509 C 0.04039 0.96592 0.53308 0.0
C1510 C 0.99493 0.04578 0.53392 0.0
C1511 C 0.0359 0.96129 0.50196 0.0
C1512 C 0.96675 0.01713 0.48085 0.0
C1513 C 0.98257 0.03704 0.47176 0.0
C1514 C 0.97684 0.00655 0.49617 0.0
C1515 C 1.00386 0.01526 0.50215 0.0
C1516 C 0.02008 0.03501 0.49281 0.0
C1517 C 0.009 0.04605 0.4779 0.0
C1518 C 0.95851 0.98622 0.50601 0.0
C1519 C 0.04939 0.04407 0.49841 0.0
H1520 H 0.01957 0.0181 0.55977 0.0
H1521 H 0.0513 0.94558 0.53312 0.0
H1522 H 0.00522 0.06204 0.52593 0.0
H1523 H 0.97316 0.04234 0.52895 0.0
H1524 H 0.99323 0.05432 0.5468 0.0
H1525 H 0.0493 0.9421 0.50394 0.0
H1526 H 0.01545 0.95457 0.49631 0.0
H1527 H 0.04668 0.97538 0.49283 0.0
H1528 H 0.94625 0.0103 0.47614 0.0
H1529 H 0.02139 0.06123 0.47077 0.0
H1530 H 0.9552 0.99452 0.51882 0.0
H1531 H 0.96937 0.96537 0.50718 0.0
H1532 H 0.9374 0.98281 0.5001 0.0
H1533 H 0.04815 0.05456 0.51077 0.0
H1534 H 0.05958 0.05897 0.48947 0.0
H1535 H 0.06327 0.0251 0.49983 0.0
C1536 C 0.21665 0.71964 0.7369 0.0
C1537 C 0.23096 0.72485 0.72188 0.0
C1538 C 0.22744 0.72975 0.75213 0.0
C1539 C 0.25246 0.74653 0.75222 0.0
C1540 C 0.26686 0.75203 0.73702 0.0
C1541 C 0.25622 0.74062 0.72206 0.0
C1542 C 0.21207 0.72242 0.7681 0.0
C1543 C 0.29303 0.7706 0.7365 0.0
C1544 C 0.26292 0.79404 0.79027 0.0
C1545 C 0.28413 0.77928 0.79897 0.0
C1546 C 0.25299 0.78408 0.77477 0.0
C1547 C 0.26366 0.75812 0.76825 0.0
C1548 C 0.28475 0.74294 0.77721 0.0
C1549 C 0.29513 0.75402 0.79228 0.0
C1550 C 0.23125 0.80141 0.76533 0.0
C1551 C 0.29589 0.71467 0.77107 0.0
H1552 H 0.19711 0.7074 0.73674 0.0
H1553 H 0.26703 0.745 0.71039 0.0
H1554 H 0.22705 0.71234 0.77704 0.0
H1555 H 0.20387 0.74206 0.77406 0.0
H1556 H 0.19393 0.70773 0.76598 0.0
H1557 H 0.3012 0.77354 0.72361 0.0
H1558 H 0.28807 0.7918 0.74185 0.0
H1559 H 0.31016 0.76113 0.74422 0.0
H1560 H 0.25453 0.81365 0.79542 0.0
H1561 H 0.3113 0.74241 0.79913 0.0
H1562 H 0.21115 0.78924 0.76414 0.0
H1563 H 0.23903 0.80578 0.75251 0.0
H1564 H 0.22652 0.82197 0.77157 0.0
H1565 H 0.27797 0.69954 0.76949 0.0
H1566 H 0.31165 0.70515 0.77977 0.0
H1567 H 0.30609 0.71726 0.7587 0.0
C1568 C 0.51159 0.04191 0.04167 0.0
C1569 C 0.4843 0.03479 0.04735 0.0
C1570 C 0.52165 0.03208 0.02622 0.0
C1571 C 0.50357 0.01561 0.01593 0.0
C1572 C 0.47574 0.00884 0.02149 0.0
C1573 C 0.46663 0.01806 0.0373 0.0
C1574 C 0.55179 0.03891 0.02106 0.0
C1575 C 0.45552 0.99208 0.01067 0.0
C1576 C 0.52173 0.01223 0.96967 0.0
C1577 C 0.53286 0.98468 0.96825 0.0
C1578 C 0.51177 0.02247 0.98508 0.0
C1579 C 0.51398 0.00511 0.99948 0.0
C1580 C 0.52617 0.97763 0.99816 0.0
C1581 C 0.53494 0.96755 0.9825 0.0
C1582 C 0.49814 0.05154 0.98585 0.0
C1583 C 0.5299 0.95885 0.01329 0.0
H1584 H 0.52538 0.05464 0.04951 0.0
H1585 H 0.44545 0.01273 0.04166 0.0
H1586 H 0.56366 0.01892 0.01861 0.0
H1587 H 0.55175 0.05133 0.0093 0.0
H1588 H 0.56337 0.05125 0.03072 0.0
H1589 H 0.43412 0.98993 0.01642 0.0
H1590 H 0.45318 1.00261 0.99835 0.0
H1591 H 0.46421 0.9705 0.00838 0.0
H1592 H 0.51978 0.02533 0.95859 0.0
H1593 H 0.54363 0.94625 0.9814 0.0
H1594 H 0.50995 0.06535 0.99466 0.0
H1595 H 0.47605 0.04965 0.99063 0.0
H1596 H 0.49752 0.06214 0.97347 0.0
H1597 H 0.54196 0.97036 0.02309 0.0
H1598 H 0.54133 0.93878 0.01031 0.0
H1599 H 0.50882 0.95339 0.01862 0.0
C1600 C 0.29212 0.7207 0.28289 0.0
C1601 C 0.27781 0.72415 0.29809 0.0
C1602 C 0.28037 0.73092 0.26794 0.0
C1603 C 0.25422 0.74592 0.2683 0.0
C1604 C 0.23974 0.74954 0.28367 0.0
C1605 C 0.25148 0.73814 0.29835 0.0
C1606 C 0.29597 0.72567 0.25175 0.0
C1607 C 0.21226 0.76613 0.28466 0.0
C1608 C 0.23984 0.79523 0.23152 0.0
C1609 C 0.21974 0.77959 0.22248 0.0
C1610 C 0.2507 0.78487 0.24671 0.0
C1611 C 0.24205 0.75777 0.25259 0.0
C1612 C 0.22208 0.74175 0.24331 0.0
C1613 C 0.21078 0.7531 0.22853 0.0
C1614 C 0.27126 0.80298 0.25651 0.0
C1615 C 0.21309 0.71237 0.2488 0.0
H1616 H 0.31246 0.70981 0.28269 0.0
H1617 H 0.2406 0.74114 0.31015 0.0
H1618 H 0.28163 0.71512 0.24267 0.0
H1619 H 0.30263 0.7462 0.24618 0.0
H1620 H 0.31517 0.71218 0.25349 0.0
H1621 H 0.20398 0.76755 0.29762 0.0
H1622 H 0.21561 0.788 0.27983 0.0
H1623 H 0.19582 0.75604 0.27672 0.0
H1624 H 0.24664 0.81578 0.22688 0.0
H1625 H 0.19545 0.74085 0.22143 0.0
H1626 H 0.29215 0.7921 0.25743 0.0
H1627 H 0.26326 0.80602 0.26941 0.0
H1628 H 0.27455 0.8242 0.25072 0.0
H1629 H 0.23206 0.69842 0.24995 0.0
H1630 H 0.19792 0.7024 0.23993 0.0
H1631 H 0.20292 0.71338 0.26126 0.0
C1632 C 0.46656 0.99519 0.47948 0.0
C1633 C 0.48196 0.97495 0.47038 0.0
C1634 C 0.47699 0.00567 0.49473 0.0
C1635 C 0.50394 0.9965 0.50062 0.0
C1636 C 0.5197 0.97633 0.4913 0.0
C1637 C 0.50826 0.96541 0.47646 0.0
C1638 C 0.45913 0.02643 0.50458 0.0
C1639 C 0.54893 0.96678 0.49679 0.0
C1640 C 0.54197 0.04577 0.53087 0.0
C1641 C 0.53849 0.03143 0.54605 0.0
C1642 C 0.53141 0.0343 0.51594 0.0
C1643 C 0.516 0.00843 0.51632 0.0
C1644 C 0.51229 0.99395 0.53168 0.0
C1645 C 0.52407 0.00538 0.54633 0.0
C1646 C 0.53677 0.04986 0.49976 0.0
C1647 C 0.49524 0.9668 0.53269 0.0
H1648 H 0.44615 1.00244 0.47481 0.0
H1649 H 0.52034 0.94997 0.46932 0.0
H1650 H 0.45608 0.01847 0.51749 0.0
H1651 H 0.47024 0.04717 0.50548 0.0
H1652 H 0.43791 0.03 0.49883 0.0
H1653 H 0.55866 0.95142 0.48793 0.0
H1654 H 0.5632 0.98547 0.49793 0.0
H1655 H 0.54775 0.95664 0.50926 0.0
H1656 H 0.55319 0.0659 0.53066 0.0
H1657 H 0.52103 0.9945 0.55812 0.0
H1658 H 0.51629 0.05685 0.49423 0.0
H1659 H 0.5471 0.03539 0.49064 0.0
H1660 H 0.55052 0.06884 0.50148 0.0
H1661 H 0.47341 0.97056 0.52789 0.0
H1662 H 0.49372 0.95856 0.54565 0.0
H1663 H 0.50506 0.95018 0.52474 0.0
C1664 C 0.21572 0.28892 0.77955 0.0
C1665 C 0.22994 0.28456 0.7947 0.0
C1666 C 0.22723 0.27903 0.76447 0.0
C1667 C 0.25304 0.26342 0.76465 0.0
C1668 C 0.26745 0.25891 0.77995 0.0
C1669 C 0.25596 0.27 0.79478 0.0
C1670 C 0.21175 0.28521 0.74837 0.0
C1671 C 0.29455 0.24168 0.78073 0.0
C1672 C 0.26626 0.21513 0.7273 0.0
C1673 C 0.28666 0.23065 0.71841 0.0
C1674 C 0.25567 0.22518 0.74261 0.0
C1675 C 0.26492 0.25187 0.7488 0.0
C1676 C 0.28521 0.26778 0.73969 0.0
C1677 C 0.29621 0.25673 0.72476 0.0
C1678 C 0.23472 0.20719 0.75222 0.0
C1679 C 0.29488 0.29675 0.74552 0.0
H1680 H 0.1956 0.30025 0.7795 0.0
H1681 H 0.26675 0.26629 0.80653 0.0
H1682 H 0.22632 0.29574 0.7394 0.0
H1683 H 0.2046 0.26504 0.74256 0.0
H1684 H 0.19287 0.29908 0.75028 0.0
H1685 H 0.30284 0.23967 0.79365 0.0
H1686 H 0.29069 0.22005 0.77568 0.0
H1687 H 0.31119 0.25166 0.77286 0.0
H1688 H 0.259 0.19489 0.72242 0.0
H1689 H 0.31178 0.2689 0.71779 0.0
H1690 H 0.21409 0.21851 0.75329 0.0
H1691 H 0.24268 0.20351 0.76507 0.0
H1692 H 0.23094 0.18627 0.74618 0.0
H1693 H 0.27623 0.31108 0.74684 0.0
H1694 H 0.31028 0.30668 0.73677 0.0
H1695 H 0.30502 0.29506 0.75797 0.0
C1696 C 0.02455 0.99712 0.96781 0.0
C1697 C 0.03964 0.0228 0.96757 0.0
C1698 C 0.01278 0.98665 0.98271 0.0
C1699 C 0.01711 1.00171 0.9978 0.0
C1700 C 0.0333 0.02711 0.99769 0.0
C1701 C 0.0439 0.03763 0.98251 0.0
C1702 C 0.99497 0.95995 0.98222 0.0
C1703 C 0.0393 0.04327 0.01358 0.0
C1704 C 0.96682 0.99146 0.0346 0.0
C1705 C 0.98139 0.97103 0.04403 0.0
C1706 C 0.97788 1.00118 0.01932 0.0
C1707 C 1.00464 0.99099 0.01371 0.0
C1708 C 0.01963 0.97072 0.02338 0.0
C1709 C 0.00757 0.96062 0.03826 0.0
C1710 C 0.96084 0.02214 0.00912 0.0
C1711 C 0.04863 0.96007 0.01817 0.0
H1712 H 0.02089 0.98586 0.95621 0.0
H1713 H 0.05562 0.05748 0.98233 0.0
H1714 H 1.00424 0.94354 0.99054 0.0
H1715 H 0.97323 0.96463 0.98688 0.0
H1716 H 0.99329 0.95098 0.96944 0.0
H1717 H 0.05377 0.0616 0.0115 0.0
H1718 H 0.01911 0.05132 0.01897 0.0
H1719 H 0.04907 0.02889 0.02296 0.0
H1720 H 0.9465 0.99941 0.03902 0.0
H1721 H 0.01903 0.94503 0.04565 0.0
H1722 H 0.95742 0.01363 0.99637 0.0
H1723 H 0.97277 0.04235 0.00783 0.0
H1724 H 0.93979 0.02684 0.01481 0.0
H1725 H 0.04724 0.94927 1.0059 0.0
H1726 H 0.05786 0.94495 0.02735 0.0
H1727 H 0.06342 0.97828 0.01669 0.0
C1728 C 0.76674 0.79484 0.73173 0.0
C1729 C 0.78719 0.77935 0.72284 0.0
C1730 C 0.75636 0.78489 0.74713 0.0
C1731 C 0.76587 0.75831 0.75339 0.0
C1732 C 0.78626 0.74246 0.7443 0.0
C1733 C 0.79705 0.75343 0.72929 0.0
C1734 C 0.73532 0.80285 0.75671 0.0
C1735 C 0.7962 0.7136 0.7502 0.0
C1736 C 0.75698 0.73996 0.79938 0.0
C1737 C 0.73112 0.72518 0.79927 0.0
C1738 C 0.76835 0.75126 0.78457 0.0
C1739 C 0.75402 0.74672 0.76925 0.0
C1740 C 0.72836 0.73095 0.76905 0.0
C1741 C 0.71694 0.72085 0.78412 0.0
C1742 C 0.79529 0.76868 0.78538 0.0
C1743 C 0.71295 0.72473 0.75294 0.0
H1744 H 0.75924 0.81497 0.72679 0.0
H1745 H 0.81266 0.74127 0.72233 0.0
H1746 H 0.71473 0.7915 0.75776 0.0
H1747 H 0.74322 0.80652 0.76958 0.0
H1748 H 0.73148 0.82377 0.75067 0.0
H1749 H 0.81175 0.70375 0.7415 0.0
H1750 H 0.80624 0.71541 0.76267 0.0
H1751 H 0.77769 0.69913 0.75151 0.0
H1752 H 0.76774 0.74364 0.81115 0.0
H1753 H 0.69696 0.70934 0.78404 0.0
H1754 H 0.79127 0.79026 0.78028 0.0
H1755 H 0.81207 0.75878 0.77758 0.0
H1756 H 0.80347 0.7708 0.79832 0.0
H1757 H 0.70573 0.74488 0.74711 0.0
H1758 H 0.69413 0.71081 0.75483 0.0
H1759 H 0.7276 0.71422 0.74399 0.0
C1760 C 0.76276 0.2364 0.21664 0.0
C1761 C 0.73618 0.22297 0.21633 0.0
C1762 C 0.77392 0.24721 0.23161 0.0
C1763 C 0.75858 0.24353 0.24668 0.0
C1764 C 0.73226 0.22888 0.24649 0.0
C1765 C 0.72111 0.21929 0.23125 0.0
C1766 C 0.80162 0.26345 0.23122 0.0
C1767 C 0.71575 0.22355 0.26234 0.0
C1768 C 0.79974 0.25044 0.28729 0.0
C1769 C 0.79056 0.27702 0.29313 0.0
C1770 C 0.78921 0.23912 0.27233 0.0
C1771 C 0.76985 0.25525 0.26264 0.0
C1772 C 0.76097 0.28241 0.26833 0.0
C1773 C 0.77101 0.29273 0.2837 0.0
C1774 C 0.79838 0.20967 0.26704 0.0
C1775 C 0.74106 0.30065 0.25812 0.0
H1776 H 0.7742 0.23961 0.20505 0.0
H1777 H 0.70055 0.20885 0.23099 0.0
H1778 H 0.79812 0.28542 0.23586 0.0
H1779 H 0.81739 0.25328 0.2396 0.0
H1780 H 0.81081 0.26462 0.21847 0.0
H1781 H 0.69674 0.21 0.2602 0.0
H1782 H 0.72959 0.21304 0.27172 0.0
H1783 H 0.70864 0.24406 0.26776 0.0
H1784 H 0.81465 0.23814 0.29469 0.0
H1785 H 0.76406 0.31336 0.28818 0.0
H1786 H 0.80932 0.2106 0.2548 0.0
H1787 H 0.77942 0.19587 0.26549 0.0
H1788 H 0.81294 0.19958 0.27623 0.0
H1789 H 0.74984 0.30366 0.24538 0.0
H1790 H 0.7375 0.32188 0.26383 0.0
H1791 H 0.72021 0.28989 0.25677 0.0
C1792 C 0.75496 0.23788 0.79729 0.0
C1793 C 0.78073 0.22289 0.79704 0.0
C1794 C 0.7436 0.24958 0.78258 0.0
C1795 C 0.75787 0.24524 0.76721 0.0
C1796 C 0.7834 0.2292 0.76686 0.0
C1797 C 0.79482 0.21871 0.78184 0.0
C1798 C 0.71681 0.26726 0.78356 0.0
C1799 C 0.79871 0.22318 0.75068 0.0
C1800 C 0.71453 0.25377 0.7275 0.0
C1801 C 0.72446 0.27986 0.72135 0.0
C1802 C 0.72546 0.24211 0.74229 0.0
C1803 C 0.7461 0.25741 0.75148 0.0
C1804 C 0.75574 0.28412 0.74551 0.0
C1805 C 0.74519 0.29478 0.73032 0.0
C1806 C 0.71535 0.21315 0.74788 0.0
C1807 C 0.77707 0.30148 0.75522 0.0
H1808 H 0.74428 0.24147 0.80909 0.0
H1809 H 0.81474 0.20705 0.78166 0.0
H1810 H 0.72102 0.28894 0.77868 0.0
H1811 H 0.69996 0.25778 0.77565 0.0
H1812 H 0.70863 0.26909 0.79651 0.0
H1813 H 0.81735 0.20894 0.75243 0.0
H1814 H 0.78391 0.21315 0.74164 0.0
H1815 H 0.80618 0.24338 0.74504 0.0
H1816 H 0.69872 0.24204 0.72046 0.0
H1817 H 0.75276 0.31502 0.72561 0.0
H1818 H 0.70531 0.21468 0.76037 0.0
H1819 H 0.73376 0.19848 0.74904 0.0
H1820 H 0.69973 0.20372 0.73908 0.0
H1821 H 0.76928 0.30494 0.76813 0.0
H1822 H 0.78117 0.3225 0.74936 0.0
H1823 H 0.79751 0.28978 0.75613 0.0
C1824 C 0.75768 0.77101 0.29635 0.0
C1825 C 0.7321 0.78631 0.29598 0.0
C1826 C 0.76899 0.75902 0.28172 0.0
C1827 C 0.7549 0.76339 0.2663 0.0
C1828 C 0.72954 0.7797 0.26583 0.0
C1829 C 0.71814 0.79046 0.28074 0.0
C1830 C 0.79556 0.74102 0.28283 0.0
C1831 C 0.71444 0.78578 0.24959 0.0
C1832 C 0.79827 0.75453 0.22663 0.0
C1833 C 0.78792 0.72869 0.2204 0.0
C1834 C 0.78754 0.76618 0.24147 0.0
C1835 C 0.7667 0.75107 0.25063 0.0
C1836 C 0.75672 0.72453 0.2446 0.0
C1837 C 0.76704 0.71393 0.22934 0.0
C1838 C 0.79798 0.79498 0.24711 0.0
C1839 C 0.7352 0.70734 0.25427 0.0
H1840 H 0.76824 0.76746 0.3082 0.0
H1841 H 0.69836 0.80235 0.28047 0.0
H1842 H 0.79115 0.71938 0.27795 0.0
H1843 H 0.81262 0.75029 0.27498 0.0
H1844 H 0.80356 0.73912 0.29582 0.0
H1845 H 0.69593 0.80021 0.25125 0.0
H1846 H 0.72942 0.79562 0.24057 0.0
H1847 H 0.70683 0.76563 0.24397 0.0
H1848 H 0.81419 0.76614 0.2196 0.0
H1849 H 0.75914 0.69388 0.22455 0.0
H1850 H 0.8078 0.79333 0.25965 0.0
H1851 H 0.77975 0.80991 0.24817 0.0
H1852 H 0.81385 0.80421 0.23839 0.0
H1853 H 0.74281 0.70394 0.26723 0.0
H1854 H 0.73108 0.6863 0.24846 0.0
H1855 H 0.7148 0.71914 0.25506 0.0
C1856 C 0.52484 0.51139 0.04837 0.0
C1857 C 0.54008 0.48582 0.0495 0.0
C1858 C 0.5139 0.52086 0.03302 0.0
C1859 C 0.51913 0.50481 0.01837 0.0
C1860 C 0.5354 0.47949 0.01938 0.0
C1861 C 0.54525 0.47005 0.03497 0.0
C1862 C 0.49604 0.54756 0.03254 0.0
C1863 C 0.54229 0.46226 1.004 0.0
C1864 C 0.47112 0.51239 0.98029 0.0
C1865 C 0.48638 0.53189 0.97058 0.0
C1866 C 0.48117 0.50392 0.99607 0.0
C1867 C 0.50758 0.51446 1.00197 0.0
C1868 C 0.5232 0.53389 0.99208 0.0
C1869 C 0.51218 0.54271 0.97664 0.0
C1870 C 0.46349 0.48379 1.00644 0.0
C1871 C 0.55183 0.54494 0.99764 0.0
H1872 H 0.52048 0.52343 0.05962 0.0
H1873 H 0.55709 0.45029 0.03581 0.0
H1874 H 0.50574 0.56338 0.02401 0.0
H1875 H 0.47456 0.54257 0.0276 0.0
H1876 H 0.49366 0.55742 0.04506 0.0
H1877 H 0.55655 0.44401 1.00678 0.0
H1878 H 0.5224 0.45396 0.99838 0.0
H1879 H 0.55267 0.47596 0.99451 0.0
H1880 H 0.4511 0.5041 0.97566 0.0
H1881 H 0.52421 0.55757 0.96908 0.0
H1882 H 0.45939 0.4932 0.0189 0.0
H1883 H 0.47528 0.46363 0.00845 0.0
H1884 H 0.44276 0.47877 1.00047 0.0
H1885 H 0.5497 0.55643 0.00965 0.0
H1886 H 0.56152 0.55954 0.98834 0.0
H1887 H 0.56661 0.52686 0.99976 0.0
C1888 C 1.0038 0.46473 0.47642 0.0
C1889 C 0.03021 0.47362 0.4702 0.0
C1890 C 0.99287 0.47585 0.49135 0.0
C1891 C 0.00924 0.49555 0.50062 0.0
C1892 C 0.03628 0.5041 0.49457 0.0
C1893 C 0.0462 0.49345 0.47923 0.0
C1894 C 0.96354 0.46696 0.49702 0.0
C1895 C 0.05476 0.52437 0.50434 0.0
C1896 C 0.97296 0.54532 0.53141 0.0
C1897 C 0.97651 0.53071 0.5465 0.0
C1898 C 0.98293 0.5338 0.51634 0.0
C1899 C 0.9978 0.50757 0.51647 0.0
C1900 C 1.00158 0.49282 0.53174 0.0
C1901 C 0.99041 0.50434 0.54654 0.0
C1902 C 0.97751 0.54969 0.50027 0.0
C1903 C 0.01805 0.46526 0.5325 0.0
H1904 H 0.99127 0.44962 0.46934 0.0
H1905 H 0.0667 0.5002 0.47446 0.0
H1906 H 0.96477 0.45661 0.50943 0.0
H1907 H 0.94974 0.486 0.49837 0.0
H1908 H 0.95327 0.45199 0.48816 0.0
H1909 H 0.0759 0.52756 0.49842 0.0
H1910 H 0.04407 0.54532 0.50543 0.0
H1911 H 0.058 0.51616 0.51718 0.0
H1912 H 0.96213 0.5657 0.53138 0.0
H1913 H 0.99348 0.49323 0.55826 0.0
H1914 H 0.96662 0.53559 0.49119 0.0
H1915 H 0.99799 0.55623 0.49459 0.0
H1916 H 0.96423 0.56898 0.5022 0.0
H1917 H 0.00766 0.44898 0.52458 0.0
H1918 H 0.01974 0.45683 0.54541 0.0
H1919 H 0.03983 0.46854 0.52749 0.0
C1920 C 1.00406 0.5512 0.03556 0.0
C1921 C 0.03028 0.54136 0.04161 0.0
C1922 C 0.99247 0.54045 0.02073 0.0
C1923 C 0.00798 0.52013 0.01138 0.0
C1924 C 0.03483 0.51061 0.01725 0.0
C1925 C 0.04541 0.52094 0.03249 0.0
C1926 C 0.96335 0.55038 0.01525 0.0
C1927 C 0.05241 0.48964 1.00738 0.0
C1928 C 0.96968 0.47147 0.98094 0.0
C1929 C 0.9736 0.48579 0.96579 0.0
C1930 C 0.98013 0.48279 0.99593 0.0
C1931 C 0.99584 0.50848 0.99564 0.0
C1932 C 0.9999 0.52299 0.98033 0.0
C1933 C 0.98825 0.51171 0.9656 0.0
C1934 C 0.97442 0.46722 0.01206 0.0
C1935 C 0.01723 0.54997 0.97942 0.0
H1936 H 0.99219 0.56677 0.04272 0.0
H1937 H 0.06575 0.51345 0.03714 0.0
H1938 H 0.96467 0.56058 1.0028 0.0
H1939 H 0.94887 0.53185 0.01406 0.0
H1940 H 0.9538 0.56578 0.02414 0.0
H1941 H 0.07354 0.4857 0.01316 0.0
H1942 H 0.04098 0.46908 1.00641 0.0
H1943 H 0.05565 0.49765 0.9945 0.0
H1944 H 0.95828 0.45144 0.98106 0.0
H1945 H 0.99162 0.52256 0.95383 0.0
H1946 H 0.96428 0.48179 0.0212 0.0
H1947 H 0.99475 0.45986 0.01761 0.0
H1948 H 0.96037 0.44848 0.01027 0.0
H1949 H 0.0076 0.56659 0.98745 0.0
H1950 H 0.01884 0.55835 0.9665 0.0
H1951 H 0.03902 0.54591 0.98421 0.0
C1952 C 0.54293 0.54307 0.48269 0.0
C1953 C 0.53915 0.52836 0.46766 0.0
C1954 C 0.53277 0.53192 0.4978 0.0
C1955 C 0.51745 0.50599 0.49777 0.0
C1956 C 0.51353 0.49108 0.48258 0.0
C1957 C 0.52491 0.50221 0.46773 0.0
C1958 C 0.53835 0.54794 0.51379 0.0
C1959 C 0.4966 0.46383 0.48193 0.0
C1960 C 0.5098 0.4639 0.538 0.0
C1961 C 0.48341 0.47342 0.54395 0.0
C1962 C 0.52129 0.47461 0.52311 0.0
C1963 C 0.50552 0.49454 0.51363 0.0
C1964 C 0.47853 0.50379 0.51943 0.0
C1965 C 0.46804 0.49352 0.53472 0.0
C1966 C 0.55055 0.46499 0.51771 0.0
C1967 C 0.46067 0.52433 0.50943 0.0
H1968 H 0.55402 0.56329 0.48262 0.0
H1969 H 0.52164 0.49104 0.45606 0.0
H1970 H 0.51794 0.55517 0.51931 0.0
H1971 H 0.54871 0.53372 0.52303 0.0
H1972 H 0.55214 0.56682 0.51181 0.0
H1973 H 0.49505 0.45512 0.46909 0.0
H1974 H 0.50651 0.44753 0.49008 0.0
H1975 H 0.47477 0.46768 0.48673 0.0
H1976 H 0.52184 0.44856 0.54523 0.0
H1977 H 0.44755 0.50074 0.53929 0.0
H1978 H 0.56473 0.4837 0.51629 0.0
H1979 H 0.54935 0.45438 0.50538 0.0
H1980 H 0.56038 0.45001 0.52675 0.0
H1981 H 0.47187 0.54497 0.50823 0.0
H1982 H 0.43953 0.52818 0.51521 0.0
H1983 H 0.45743 0.51595 0.49662 0.0
C1984 C 0.28657 0.12421 0.38797 0.0
C1985 C 0.28796 0.14424 0.37503 0.0
C1986 C 0.30905 0.10523 0.39096 0.0
C1987 C 0.33396 0.1068 0.38106 0.0
C1988 C 0.33612 0.12799 0.36854 0.0
C1989 C 0.31288 0.14618 0.36548 0.0
C1990 C 0.30548 0.08254 0.40414 0.0
C1991 C 0.36265 0.1309 0.35807 0.0
C1992 C 0.39667 0.06444 0.39818 0.0
C1993 C 0.3949 0.03939 0.38875 0.0
C1994 C 0.37795 0.0873 0.39522 0.0
C1995 C 0.35644 0.08461 0.38293 0.0
C1996 C 0.35496 0.05952 0.3732 0.0
C1997 C 0.37444 0.03744 0.37608 0.0
C1998 C 0.38075 0.11403 0.4055 0.0
C1999 C 0.33193 0.05539 0.36028 0.0
H2000 H 0.26729 0.12245 0.39533 0.0
H2001 H 0.31412 0.16176 0.35553 0.0
H2002 H 0.30586 0.06122 0.39819 0.0
H2003 H 0.32337 0.0833 0.41314 0.0
H2004 H 0.28521 0.08483 0.41114 0.0
H2005 H 0.36242 0.15058 0.3504 0.0
H2006 H 0.38182 0.1311 0.36615 0.0
H2007 H 0.36459 0.11236 0.3496 0.0
H2008 H 0.41258 0.06611 0.40792 0.0
H2009 H 0.37282 0.01806 0.36882 0.0
H2010 H 0.3623 0.11598 0.41405 0.0
H2011 H 0.38067 0.13304 0.39728 0.0
H2012 H 0.40055 0.11414 0.41307 0.0
H2013 H 0.31076 0.05582 0.36641 0.0
H2014 H 0.33418 0.03493 0.35347 0.0
H2015 H 0.33235 0.073 0.35108 0.0
C2016 C 0.11344 0.06425 0.61764 0.0
C2017 C 0.11449 0.04015 0.62793 0.0
C2018 C 0.13231 0.08711 0.62011 0.0
C2019 C 0.15327 0.08532 0.63278 0.0
C2020 C 0.15388 0.06131 0.64344 0.0
C2021 C 0.13424 0.03926 0.64103 0.0
C2022 C 0.1304 0.11274 0.60883 0.0
C2023 C 0.17631 0.05811 0.65682 0.0
C2024 C 0.22408 0.1226 0.62667 0.0
C2025 C 0.2228 0.14425 0.63867 0.0
C2026 C 0.20134 0.10372 0.62439 0.0
C2027 C 0.17627 0.10705 0.634 0.0
C2028 C 0.1743 0.12973 0.64559 0.0
C2029 C 0.19782 0.1478 0.648 0.0
C2030 C 0.2047 0.0794 0.61223 0.0
C2031 C 0.14762 0.13451 0.65569 0.0
H2032 H 0.0981 0.06512 0.60756 0.0
H2033 H 0.13531 0.0206 0.64896 0.0
H2034 H 0.13096 0.13261 0.61629 0.0
H2035 H 0.14898 0.11314 0.6003 0.0
H2036 H 0.11069 0.11262 0.60118 0.0
H2037 H 0.17319 0.03866 0.66447 0.0
H2038 H 0.19769 0.05706 0.65096 0.0
H2039 H 0.17615 0.07684 0.66521 0.0
H2040 H 0.24342 0.11962 0.6195 0.0
H2041 H 0.19667 0.16465 0.65721 0.0
H2042 H 0.18722 0.07972 0.60294 0.0
H2043 H 0.20336 0.05886 0.61901 0.0
H2044 H 0.22532 0.08017 0.60547 0.0
H2045 H 0.12867 0.13445 0.64743 0.0
H2046 H 0.14822 0.15493 0.66265 0.0
H2047 H 0.14492 0.11694 0.66479 0.0
C2048 C 0.19816 0.84972 0.88787 0.0
C2049 C 0.21885 0.85595 0.87584 0.0
C2050 C 0.17523 0.86836 0.89072 0.0
C2051 C 0.17388 0.8945 0.88194 0.0
C2052 C 0.19471 0.9007 0.86967 0.0
C2053 C 0.2166 0.88103 0.86652 0.0
C2054 C 0.1528 0.86033 0.90334 0.0
C2055 C 0.19475 0.92873 0.86047 0.0
C2056 C 0.10769 0.94111 0.87949 0.0
C2057 C 0.11265 0.96059 0.89238 0.0
C2058 C 0.1266 0.91844 0.87655 0.0
C2059 C 0.15176 0.91613 0.88621 0.0
C2060 C 0.15661 0.93563 0.89939 0.0
C2061 C 0.13666 0.95726 0.90253 0.0
C2062 C 0.11997 0.89739 0.86289 0.0
C2063 C 0.1836 0.93463 0.90959 0.0
H2064 H 0.19995 0.83026 0.89506 0.0
H2065 H 0.23289 0.88599 0.85739 0.0
H2066 H 0.15449 0.8743 0.91443 0.0
H2067 H 0.13123 0.86343 0.89799 0.0
H2068 H 0.15493 0.83788 0.9075 0.0
H2069 H 0.21248 0.93028 0.85135 0.0
H2070 H 0.17438 0.9317 0.85371 0.0
H2071 H 0.19669 0.94648 0.86952 0.0
H2072 H 0.08906 0.94371 0.87165 0.0
H2073 H 0.14069 0.97261 0.91234 0.0
H2074 H 0.12268 0.87531 0.86754 0.0
H2075 H 0.135 0.90032 0.85237 0.0
H2076 H 0.09795 0.89991 0.85807 0.0
H2077 H 0.18597 0.91354 0.91562 0.0
H2078 H 0.18407 0.95126 0.91943 0.0
H2079 H 0.20228 0.93765 0.9013 0.0
C2080 C 0.30845 0.86638 0.15269 0.0
C2081 C 0.28398 0.8683 0.14275 0.0
C2082 C 0.3318 0.88452 0.14998 0.0
C2083 C 0.33026 0.90554 0.13733 0.0
C2084 C 0.30582 0.90711 0.12704 0.0
C2085 C 0.28318 0.88827 0.12975 0.0
C2086 C 0.35779 0.88171 0.16091 0.0
C2087 C 0.30298 0.92957 0.11366 0.0
C2088 C 0.37056 0.97489 0.14226 0.0
C2089 C 0.39166 0.97246 0.12996 0.0
C2090 C 0.35099 0.95292 0.14509 0.0
C2091 C 0.35292 0.92753 0.13567 0.0
C2092 C 0.37504 0.92436 0.12379 0.0
C2093 C 0.39395 0.94704 0.12091 0.0
C2094 C 0.32739 0.95749 0.15761 0.0
C2095 C 0.37823 0.89734 0.11381 0.0
H2096 H 0.30926 0.85084 0.16268 0.0
H2097 H 0.26429 0.88999 0.12205 0.0
H2098 H 0.37734 0.88106 0.15315 0.0
H2099 H 0.35947 0.90053 0.16919 0.0
H2100 H 0.35705 0.8623 0.1688 0.0
H2101 H 0.28304 0.92727 0.10634 0.0
H2102 H 0.30317 0.951 0.11946 0.0
H2103 H 0.3213 0.92851 0.10496 0.0
H2104 H 0.36855 0.99451 0.14926 0.0
H2105 H 0.41033 0.94496 0.11147 0.0
H2106 H 0.32719 0.94 0.16689 0.0
H2107 H 0.30652 0.95724 0.15113 0.0
H2108 H 0.3295 0.97801 0.16436 0.0
H2109 H 0.37764 0.87854 0.12218 0.0
H2110 H 0.3984 0.8969 0.10658 0.0
H2111 H 0.3602 0.8953 0.10497 0.0
C2112 C 0.69722 0.86389 0.65014 0.0
C2113 C 0.7223 0.86537 0.6407 0.0
C2114 C 0.67452 0.88279 0.64713 0.0
C2115 C 0.67741 0.90419 0.63479 0.0
C2116 C 0.70251 0.90536 0.62504 0.0
C2117 C 0.72442 0.88571 0.62796 0.0
C2118 C 0.64776 0.88031 0.65743 0.0
C2119 C 0.70685 0.92825 0.61206 0.0
C2120 C 0.61626 0.94836 0.61735 0.0
C2121 C 0.6185 0.97327 0.62687 0.0
C2122 C 0.63422 0.92494 0.62042 0.0
C2123 C 0.65546 0.92691 0.63291 0.0
C2124 C 0.65734 0.95182 0.64277 0.0
C2125 C 0.63859 0.97448 0.63978 0.0
C2126 C 0.63097 0.89842 0.60999 0.0
C2127 C 0.68012 0.95517 0.65592 0.0
H2128 H 0.69541 0.84808 0.65992 0.0
H2129 H 0.74382 0.8871 0.62069 0.0
H2130 H 0.64605 0.89879 0.66597 0.0
H2131 H 0.62873 0.88062 0.64924 0.0
H2132 H 0.64743 0.86053 0.66502 0.0
H2133 H 0.72727 0.92573 0.60522 0.0
H2134 H 0.6892 0.928 0.60289 0.0
H2135 H 0.7067 0.94946 0.61814 0.0
H2136 H 0.60063 0.94726 0.60743 0.0
H2137 H 0.64057 0.99375 0.64712 0.0
H2138 H 0.63057 0.87929 0.6181 0.0
H2139 H 0.64948 0.89623 0.6015 0.0
H2140 H 0.61127 0.89885 0.60234 0.0
H2141 H 0.67916 0.93735 0.66496 0.0
H2142 H 0.67811 0.9755 0.66288 0.0
H2143 H 0.70143 0.95449 0.64995 0.0
C2144 C 0.87285 0.97522 0.37868 0.0
C2145 C 0.89414 0.97323 0.39088 0.0
C2146 C 0.85393 0.95271 0.37581 0.0
C2147 C 0.85682 0.92718 0.38503 0.0
C2148 C 0.87911 0.92453 0.39684 0.0
C2149 C 0.89725 0.9478 0.39984 0.0
C2150 C 0.83004 0.95678 0.36342 0.0
C2151 C 0.88341 0.89736 0.40656 0.0
C2152 C 0.78864 0.88503 0.39044 0.0
C2153 C 0.79002 0.86589 0.37705 0.0
C2154 C 0.81064 0.90449 0.39347 0.0
C2155 C 0.83507 0.90433 0.38313 0.0
C2156 C 0.83731 0.88399 0.37015 0.0
C2157 C 0.81454 0.86528 0.36708 0.0
C2158 C 0.80698 0.92625 0.40717 0.0
C2159 C 0.86337 0.88258 0.35918 0.0
H2160 H 0.87021 0.9949 0.3718 0.0
H2161 H 0.91382 0.9461 0.4092 0.0
H2162 H 0.83063 0.93979 0.35385 0.0
H2163 H 0.80925 0.95518 0.36992 0.0
H2164 H 0.83111 0.97772 0.35702 0.0
H2165 H 0.90355 0.89755 0.41382 0.0
H2166 H 0.86545 0.89425 0.41534 0.0
H2167 H 0.88367 0.87884 0.39798 0.0
H2168 H 0.76968 0.88576 0.39813 0.0
H2169 H 0.81579 0.8504 0.35678 0.0
H2170 H 0.80616 0.94789 0.40166 0.0
H2171 H 0.82541 0.92565 0.41579 0.0
H2172 H 0.78724 0.92278 0.41452 0.0
H2173 H 0.86416 0.90161 0.35101 0.0
H2174 H 0.86348 0.86331 0.35116 0.0
H2175 H 0.88296 0.88266 0.36691 0.0
C2176 C 0.80994 0.14748 0.14482 0.0
C2177 C 0.78583 0.14673 0.13454 0.0
C2178 C 0.83261 0.12833 0.14238 0.0
C2179 C 0.83063 0.10739 0.12972 0.0
C2180 C 0.8065 0.10692 0.11914 0.0
C2181 C 0.78463 0.12684 0.12153 0.0
C2182 C 0.85834 0.13006 0.15359 0.0
C2183 C 0.80311 0.0845 0.10579 0.0
C2184 C 0.89347 0.06336 0.11428 0.0
C2185 C 0.89027 0.03833 0.1236 0.0
C2186 C 0.87509 0.08666 0.11671 0.0
C2187 C 0.85246 0.08446 0.12833 0.0
C2188 C 0.84945 0.05934 0.13792 0.0
C2189 C 0.86862 0.0368 0.13561 0.0
C2190 C 0.8795 0.11339 0.10661 0.0
C2191 C 0.82522 0.05575 0.15013 0.0
H2192 H 0.81104 0.16295 0.15483 0.0
H2193 H 0.76594 0.12602 0.11362 0.0
H2194 H 0.85901 0.11123 0.16191 0.0
H2195 H 0.87814 0.12985 0.14604 0.0
H2196 H 0.85815 0.14952 0.16144 0.0
H2197 H 0.78347 0.0876 0.09829 0.0
H2198 H 0.82167 0.08471 0.09726 0.0
H2199 H 0.80228 0.06313 0.11166 0.0
H2200 H 0.91029 0.0647 0.10506 0.0
H2201 H 0.86588 0.01743 0.14277 0.0
H2202 H 0.87954 0.13228 0.11491 0.0
H2203 H 0.8617 0.1161 0.09767 0.0
H2204 H 0.89978 0.11289 0.09949 0.0
H2205 H 0.82545 0.07316 0.15945 0.0
H2206 H 0.82622 0.0351 0.15685 0.0
H2207 H 0.80462 0.057 0.14341 0.0
C2208 C 0.6087 0.06951 0.89514 0.0
C2209 C 0.61178 0.04431 0.88597 0.0
C2210 C 0.62735 0.09254 0.89266 0.0
C2211 C 0.65016 0.08983 0.88119 0.0
C2212 C 0.65294 0.0646 0.87168 0.0
C2213 C 0.63346 0.04238 0.874 0.0
C2214 C 0.62313 0.11944 0.90262 0.0
C2215 C 0.67737 0.06043 0.85967 0.0
C2216 C 0.69551 0.15101 0.86506 0.0
C2217 C 0.71926 0.14926 0.87559 0.0
C2218 C 0.67195 0.13296 0.86736 0.0
C2219 C 0.67268 0.11207 0.88011 0.0
C2220 C 0.69637 0.11073 0.89099 0.0
C2221 C 0.71913 0.12962 0.88876 0.0
C2222 C 0.64668 0.13568 0.85586 0.0
C2223 C 0.69846 0.0883 0.90445 0.0
H2224 H 0.59184 0.07115 0.90432 0.0
H2225 H 0.63609 0.02286 0.86697 0.0
H2226 H 0.64038 0.12154 0.91197 0.0
H2227 H 0.62425 0.13832 0.89433 0.0
H2228 H 0.60238 0.11964 0.90927 0.0
H2229 H 0.67604 0.03985 0.85291 0.0
H2230 H 0.67784 0.07789 0.85038 0.0
H2231 H 0.69782 0.06106 0.86659 0.0
H2232 H 0.69545 0.1663 0.85493 0.0
H2233 H 0.73752 0.12802 0.89687 0.0
H2234 H 0.6266 0.1358 0.86315 0.0
H2235 H 0.64588 0.11711 0.84735 0.0
H2236 H 0.64765 0.15534 0.84819 0.0
H2237 H 0.67958 0.08924 0.91272 0.0
H2238 H 0.71788 0.09074 0.91221 0.0
H2239 H 0.69881 0.06687 0.89865 0.0
C2240 C 0.78669 0.62701 0.89031 0.0
C2241 C 0.78729 0.6482 0.87801 0.0
C2242 C 0.80942 0.60793 0.89228 0.0
C2243 C 0.83385 0.61066 0.88205 0.0
C2244 C 0.8352 0.63296 0.87017 0.0
C2245 C 0.81164 0.65115 0.86806 0.0
C2246 C 0.80665 0.58398 0.90474 0.0
C2247 C 0.86123 0.63719 0.85944 0.0
C2248 C 0.89765 0.56777 0.89723 0.0
C2249 C 0.89599 0.54359 0.88705 0.0
C2250 C 0.87859 0.59062 0.89512 0.0
C2251 C 0.85676 0.58871 0.88296 0.0
C2252 C 0.85541 0.56453 0.87247 0.0
C2253 C 0.8753 0.54253 0.87446 0.0
C2254 C 0.88135 0.61645 0.90616 0.0
C2255 C 0.83202 0.56117 0.85969 0.0
H2256 H 0.7678 0.62448 0.89794 0.0
H2257 H 0.81225 0.66764 0.85861 0.0
H2258 H 0.80736 0.56325 0.89814 0.0
H2259 H 0.82473 0.58433 0.91362 0.0
H2260 H 0.7865 0.58518 0.91196 0.0
H2261 H 0.86037 0.65747 0.85234 0.0
H2262 H 0.88072 0.63706 0.86726 0.0
H2263 H 0.86315 0.61941 0.85042 0.0
H2264 H 0.91372 0.56874 0.90691 0.0
H2265 H 0.87375 0.52378 0.86665 0.0
H2266 H 0.86329 0.61722 0.91506 0.0
H2267 H 0.88048 0.63617 0.89856 0.0
H2268 H 0.9015 0.6163 0.91341 0.0
H2269 H 0.81106 0.56064 0.86607 0.0
H2270 H 0.83439 0.5414 0.85223 0.0
H2271 H 0.8318 0.57958 0.85105 0.0
C2272 C 0.7001 0.65309 0.13076 0.0
C2273 C 0.71842 0.64737 0.14413 0.0
C2274 C 0.67655 0.63554 0.12753 0.0
C2275 C 0.67217 0.61092 0.13739 0.0
C2276 C 0.69048 0.60535 0.15107 0.0
C2277 C 0.71305 0.62403 0.15448 0.0
C2278 C 0.65683 0.64294 0.11331 0.0
C2279 C 0.68724 0.57883 0.16153 0.0
C2280 C 0.6033 0.56842 0.13763 0.0
C2281 C 0.60938 0.54709 0.12597 0.0
C2282 C 0.62291 0.59031 0.14082 0.0
C2283 C 0.64975 0.58993 0.13277 0.0
C2284 C 0.65579 0.56849 0.12085 0.0
C2285 C 0.63525 0.54768 0.11733 0.0
C2286 C 0.61514 0.61349 0.15302 0.0
C2287 C 0.68448 0.56666 0.11241 0.0
H2288 H 0.70431 0.67123 0.12278 0.0
H2289 H 0.72753 0.61945 0.16467 0.0
H2290 H 0.6597 0.62749 0.103 0.0
H2291 H 0.63432 0.64157 0.11743 0.0
H2292 H 0.66086 0.66465 0.10837 0.0
H2293 H 0.70303 0.57781 0.17183 0.0
H2294 H 0.66558 0.57782 0.16698 0.0
H2295 H 0.68993 0.55974 0.15354 0.0
H2296 H 0.58322 0.5679 0.14429 0.0
H2297 H 0.64007 0.53089 0.1085 0.0
H2298 H 0.61981 0.6347 0.14758 0.0
H2299 H 0.62814 0.61133 0.16449 0.0
H2300 H 0.59231 0.61272 0.15659 0.0
H2301 H 0.68902 0.58661 0.10555 0.0
H2302 H 0.68581 0.54859 0.10352 0.0
H2303 H 0.70139 0.56405 0.12196 0.0
C2304 C 0.69936 0.36253 0.3652 0.0
C2305 C 0.72488 0.36614 0.37401 0.0
C2306 C 0.67595 0.38059 0.36807 0.0
C2307 C 0.67851 0.40331 0.3796 0.0
C2308 C 0.70412 0.40668 0.38869 0.0
C2309 C 0.72679 0.38783 0.38595 0.0
C2310 C 0.64871 0.37578 0.35852 0.0
C2311 C 0.7081 0.43102 0.40077 0.0
C2312 C 0.63574 0.47099 0.37341 0.0
C2313 C 0.6167 0.47 0.38687 0.0
C2314 C 0.65538 0.44901 0.37063 0.0
C2315 C 0.65551 0.425 0.38129 0.0
C2316 C 0.63528 0.42314 0.39437 0.0
C2317 C 0.6164 0.44591 0.39718 0.0
C2318 C 0.67701 0.45227 0.35682 0.0
C2319 C 0.63417 0.39751 0.40569 0.0
H2320 H 0.69773 0.34566 0.35604 0.0
H2321 H 0.74653 0.39086 0.39272 0.0
H2322 H 0.63026 0.37579 0.36716 0.0
H2323 H 0.6454 0.39335 0.3495 0.0
H2324 H 0.64898 0.35536 0.35155 0.0
H2325 H 0.7291 0.43027 0.40712 0.0
H2326 H 0.70631 0.45155 0.39401 0.0
H2327 H 0.69117 0.4307 0.41039 0.0
H2328 H 0.63623 0.48963 0.36546 0.0
H2329 H 0.60159 0.44496 0.40754 0.0
H2330 H 0.67645 0.43354 0.34842 0.0
H2331 H 0.69871 0.45336 0.36225 0.0
H2332 H 0.67336 0.47173 0.34924 0.0
H2333 H 0.63432 0.37764 0.39822 0.0
H2334 H 0.61497 0.39762 0.41377 0.0
H2335 H 0.65329 0.39712 0.41379 0.0
C2336 C 0.89776 0.44758 0.61734 0.0
C2337 C 0.89725 0.47198 0.62738 0.0
C2338 C 0.87884 0.42493 0.62027 0.0
C2339 C 0.85837 0.42719 0.63319 0.0
C2340 C 0.85829 0.45151 0.64361 0.0
C2341 C 0.87797 0.47337 0.64072 0.0
C2342 C 0.88016 0.39898 0.60922 0.0
C2343 C 0.83642 0.45519 0.65725 0.0
C2344 C 0.78722 0.38993 0.62847 0.0
C2345 C 0.78897 0.36856 0.64063 0.0
C2346 C 0.8099 0.40872 0.6257 0.0
C2347 C 0.83535 0.40558 0.63497 0.0
C2348 C 0.83775 0.38319 0.64674 0.0
C2349 C 0.81432 0.36521 0.64964 0.0
C2350 C 0.80609 0.43272 0.61336 0.0
C2351 C 0.86482 0.37863 0.65651 0.0
H2352 H 0.91274 0.44632 0.60708 0.0
H2353 H 0.8773 0.49224 0.64847 0.0
H2354 H 0.87987 0.37932 0.61688 0.0
H2355 H 0.86119 0.39841 0.60099 0.0
H2356 H 0.89951 0.39882 0.60126 0.0
H2357 H 0.83993 0.47485 0.66465 0.0
H2358 H 0.81482 0.45617 0.65168 0.0
H2359 H 0.83683 0.4367 0.66583 0.0
H2360 H 0.76761 0.39275 0.62155 0.0
H2361 H 0.81583 0.34858 0.65897 0.0
H2362 H 0.82317 0.4321 0.60383 0.0
H2363 H 0.80775 0.45343 0.61991 0.0
H2364 H 0.78519 0.43182 0.6069 0.0
H2365 H 0.88342 0.37832 0.64797 0.0
H2366 H 0.86444 0.35845 0.66372 0.0
H2367 H 0.86799 0.39649 0.66534 0.0
C2368 C 0.11161 0.44908 0.11264 0.0
C2369 C 0.1156 0.47415 0.12181 0.0
C2370 C 0.129 0.42513 0.11538 0.0
C2371 C 0.15145 0.42669 0.12715 0.0
C2372 C 0.15522 0.45185 0.1366 0.0
C2373 C 0.137 0.47507 0.13398 0.0
C2374 C 0.12375 0.39839 0.10545 0.0
C2375 C 0.17932 0.45476 0.14895 0.0
C2376 C 0.19226 0.36309 0.14434 0.0
C2377 C 0.21671 0.36336 0.13431 0.0
C2378 C 0.16991 0.38248 0.14152 0.0
C2379 C 0.17255 0.40313 0.12872 0.0
C2380 C 0.19686 0.4029 0.11829 0.0
C2381 C 0.2184 0.3828 0.12107 0.0
C2382 C 0.14395 0.3815 0.15258 0.0
C2383 C 0.20092 0.42493 0.10477 0.0
H2384 H 0.09494 0.44822 0.10331 0.0
H2385 H 0.14031 0.49445 0.14104 0.0
H2386 H 0.14148 0.39497 0.09654 0.0
H2387 H 0.12308 0.37964 0.11385 0.0
H2388 H 0.10352 0.39943 0.0983 0.0
H2389 H 0.17893 0.47552 0.15556 0.0
H2390 H 0.17832 0.4375 0.15836 0.0
H2391 H 0.2 0.45271 0.14236 0.0
H2392 H 0.19075 0.348 0.15453 0.0
H2393 H 0.23731 0.38327 0.11332 0.0
H2394 H 0.12428 0.38253 0.14495 0.0
H2395 H 0.14386 0.40021 0.16101 0.0
H2396 H 0.14336 0.36193 0.16034 0.0
H2397 H 0.18236 0.42514 0.09624 0.0
H2398 H 0.22045 0.42108 0.09729 0.0
H2399 H 0.20243 0.44638 0.11049 0.0
C2400 C 0.37472 0.46481 0.87559 0.0
C2401 C 0.39655 0.46221 0.88742 0.0
C2402 C 0.3552 0.44273 0.87293 0.0
C2403 C 0.35804 0.417 0.88197 0.0
C2404 C 0.38087 0.41371 0.89337 0.0
C2405 C 0.3996 0.43657 0.89618 0.0
C2406 C 0.33076 0.4475 0.86101 0.0
C2407 C 0.38513 0.3863 0.90285 0.0
C2408 C 0.28935 0.37613 0.88843 0.0
C2409 C 0.2896 0.35723 0.87489 0.0
C2410 C 0.31188 0.3951 0.89114 0.0
C2411 C 0.33573 0.39464 0.88034 0.0
C2412 C 0.33684 0.37451 0.8672 0.0
C2413 C 0.31352 0.35634 0.86445 0.0
C2414 C 0.30941 0.41668 0.90503 0.0
C2415 C 0.36226 0.37276 0.85574 0.0
H2416 H 0.37212 0.48466 0.86887 0.0
H2417 H 0.41657 0.43441 0.90525 0.0
H2418 H 0.33049 0.43066 0.85133 0.0
H2419 H 0.3103 0.44621 0.86788 0.0
H2420 H 0.33193 0.46852 0.85471 0.0
H2421 H 0.40568 0.38593 0.9097 0.0
H2422 H 0.36763 0.38345 0.91197 0.0
H2423 H 0.38447 0.36792 0.89417 0.0
H2424 H 0.27084 0.37707 0.89648 0.0
H2425 H 0.31389 0.34164 0.85404 0.0
H2426 H 0.3088 0.43844 0.89965 0.0
H2427 H 0.32826 0.41553 0.91331 0.0
H2428 H 0.28999 0.41352 0.9127 0.0
H2429 H 0.36301 0.3919 0.84767 0.0
H2430 H 0.36153 0.35363 0.84763 0.0
H2431 H 0.38225 0.3723 0.86311 0.0
C2432 C 0.37294 0.53537 0.63784 0.0
C2433 C 0.39433 0.53741 0.62571 0.0
C2434 C 0.35423 0.55805 0.64089 0.0
C2435 C 0.35745 0.58379 0.63191 0.0
C2436 C 0.37986 0.58646 0.62018 0.0
C2437 C 0.39778 0.56305 0.61701 0.0
C2438 C 0.33021 0.55395 0.65318 0.0
C2439 C 0.38451 0.61383 0.61072 0.0
C2440 C 0.28979 0.62698 0.62661 0.0
C2441 C 0.29126 0.64583 0.64014 0.0
C2442 C 0.31158 0.60726 0.62353 0.0
C2443 C 0.3359 0.60685 0.63395 0.0
C2444 C 0.33823 0.62686 0.6471 0.0
C2445 C 0.31564 0.64584 0.65021 0.0
C2446 C 0.30782 0.58586 0.60964 0.0
C2447 C 0.36418 0.62766 0.65817 0.0
H2448 H 0.37002 0.51554 0.64453 0.0
H2449 H 0.41442 0.56479 0.6077 0.0
H2450 H 0.33085 0.57072 0.66289 0.0
H2451 H 0.30949 0.55592 0.64663 0.0
H2452 H 0.33106 0.53286 0.65942 0.0
H2453 H 0.40472 0.61359 0.60353 0.0
H2454 H 0.36667 0.61736 0.6019 0.0
H2455 H 0.38483 0.63213 0.61946 0.0
H2456 H 0.27092 0.62671 0.61883 0.0
H2457 H 0.31696 0.66049 0.66062 0.0
H2458 H 0.30679 0.5641 0.61498 0.0
H2459 H 0.32631 0.58647 0.60106 0.0
H2460 H 0.28815 0.58971 0.60229 0.0
H2461 H 0.36472 0.60839 0.66615 0.0
H2462 H 0.36438 0.6467 0.66637 0.0
H2463 H 0.38385 0.62758 0.6505 0.0
C2464 C 0.11338 0.56309 0.39948 0.0
C2465 C 0.11672 0.53803 0.39021 0.0
C2466 C 0.1315 0.58651 0.3969 0.0
C2467 C 0.154 0.58438 0.38519 0.0
C2468 C 0.15713 0.55923 0.37565 0.0
C2469 C 0.13821 0.53658 0.3781 0.0
C2470 C 0.12695 0.61328 0.40694 0.0
C2471 C 0.18125 0.55571 0.36335 0.0
C2472 C 0.19657 0.64695 0.3683 0.0
C2473 C 0.22089 0.64597 0.37841 0.0
C2474 C 0.17373 0.62815 0.37099 0.0
C2475 C 0.17574 0.60733 0.38373 0.0
C2476 C 0.19997 0.60679 0.39423 0.0
C2477 C 0.22202 0.62636 0.39158 0.0
C2478 C 0.14788 0.62997 0.35988 0.0
C2479 C 0.20339 0.58451 0.40767 0.0
H2480 H 0.09666 0.56436 0.40877 0.0
H2481 H 0.14102 0.51718 0.37098 0.0
H2482 H 0.14472 0.61606 0.41589 0.0
H2483 H 0.12685 0.63214 0.39861 0.0
H2484 H 0.10666 0.61277 0.41405 0.0
H2485 H 0.18035 0.53502 0.35668 0.0
H2486 H 0.1808 0.57307 0.354 0.0
H2487 H 0.20192 0.5571 0.37 0.0
H2488 H 0.19552 0.6622 0.35817 0.0
H2489 H 0.24083 0.62534 0.39938 0.0
H2490 H 0.12814 0.62953 0.36748 0.0
H2491 H 0.14729 0.6113 0.35144 0.0
H2492 H 0.14789 0.64958 0.35214 0.0
H2493 H 0.18479 0.58476 0.41618 0.0
H2494 H 0.22298 0.58771 0.41519 0.0
H2495 H 0.20434 0.56309 0.40189 0.0
loop_
_geom_bond_atom_site_label_1
_geom_bond_atom_site_label_2
_geom_bond_distance
_geom_bond_site_symmetry_2
_ccdc_geom_bond_type
O0 Cd1 2.223 . S
O0 C8 1.315 . S
Cd1 O0 2.223 . S
Cd1 O4 2.297 . S
Cd1 O5 2.439 . S
Cd1 O11 2.240 . S
Cd2 O3 2.240 . S
Cd2 O10 2.223 . S
Cd2 O12 2.297 . S
Cd2 O13 2.439 . S
O3 Cd2 2.240 . S
O3 C8 1.279 . S
O4 Cd1 2.297 . S
O4 C6 1.247 . S
O5 Cd1 2.439 . S
O5 C6 1.208 . S
C6 O4 1.247 . S
C6 O5 1.208 . S
C7 O12 1.247 . S
C7 O13 1.208 . S
C8 O0 1.315 . S
C8 O3 1.279 . S
C9 O10 1.315 . S
C9 O11 1.279 . S
O10 Cd2 2.223 . S
O10 C9 1.315 . S
O11 Cd1 2.240 . S
O11 C9 1.279 . S
O12 Cd2 2.297 . S
O12 C7 1.247 . S
O13 Cd2 2.439 . S
O13 C7 1.208 . S
O14 Cd15 2.223 . S
O14 C22 1.315 . S
Cd15 O14 2.223 . S
Cd15 O18 2.297 . S
Cd15 O19 2.439 . S
Cd15 O25 2.240 . S
Cd16 O17 2.240 . S
Cd16 O24 2.223 . S
Cd16 O26 2.297 . S
Cd16 O27 2.439 . S
O17 Cd16 2.240 . S
O17 C22 1.279 . S
O18 Cd15 2.297 . S
O18 C20 1.247 . S
O19 Cd15 2.439 . S
O19 C20 1.208 . S
C20 O18 1.247 . S
C20 O19 1.208 . S
C21 O26 1.247 . S
C21 O27 1.208 . S
C22 O14 1.315 . S
C22 O17 1.279 . S
C23 O24 1.315 . S
C23 O25 1.279 . S
O24 Cd16 2.223 . S
O24 C23 1.315 . S
O25 Cd15 2.240 . S
O25 C23 1.279 . S
O26 Cd16 2.297 . S
O26 C21 1.247 . S
O27 Cd16 2.439 . S
O27 C21 1.208 . S
O28 Cd29 2.223 . S
O28 C36 1.315 . S
Cd29 O28 2.223 . S
Cd29 O32 2.297 . S
Cd29 O33 2.439 . S
Cd29 O39 2.240 . S
Cd30 O31 2.240 . S
Cd30 O38 2.223 . S
Cd30 O40 2.297 . S
Cd30 O41 2.439 . S
O31 Cd30 2.240 . S
O31 C36 1.279 . S
O32 Cd29 2.297 . S
O32 C34 1.247 . S
O33 Cd29 2.439 . S
O33 C34 1.208 . S
C34 O32 1.247 . S
C34 O33 1.208 . S
C35 O40 1.247 . S
C35 O41 1.208 . S
C36 O28 1.315 . S
C36 O31 1.279 . S
C37 O38 1.315 . S
C37 O39 1.279 . S
O38 Cd30 2.223 . S
O38 C37 1.315 . S
O39 Cd29 2.240 . S
O39 C37 1.279 . S
O40 Cd30 2.297 . S
O40 C35 1.247 . S
O41 Cd30 2.439 . S
O41 C35 1.208 . S
O42 Cd43 2.223 . S
O42 C50 1.315 . S
Cd43 O42 2.223 . S
Cd43 O46 2.297 . S
Cd43 O47 2.439 . S
Cd43 O53 2.240 . S
Cd44 O45 2.240 . S
Cd44 O52 2.223 . S
Cd44 O54 2.297 . S
Cd44 O55 2.439 . S
O45 Cd44 2.240 . S
O45 C50 1.279 . S
O46 Cd43 2.297 . S
O46 C48 1.247 . S
O47 Cd43 2.439 . S
O47 C48 1.208 . S
C48 O46 1.247 . S
C48 O47 1.208 . S
C49 O54 1.247 . S
C49 O55 1.208 . S
C50 O42 1.315 . S
C50 O45 1.279 . S
C51 O52 1.315 . S
C51 O53 1.279 . S
O52 Cd44 2.223 . S
O52 C51 1.315 . S
O53 Cd43 2.240 . S
O53 C51 1.279 . S
O54 Cd44 2.297 . S
O54 C49 1.247 . S
O55 Cd44 2.439 . S
O55 C49 1.208 . S
O56 Cd57 2.223 . S
O56 C64 1.315 . S
Cd57 O56 2.223 . S
Cd57 O60 2.297 . S
Cd57 O61 2.439 . S
Cd57 O67 2.240 . S
Cd58 O59 2.240 . S
Cd58 O66 2.223 . S
Cd58 O68 2.297 . S
Cd58 O69 2.439 . S
O59 Cd58 2.240 . S
O59 C64 1.279 . S
O60 Cd57 2.297 . S
O60 C62 1.247 . S
O61 Cd57 2.439 . S
O61 C62 1.208 . S
C62 O60 1.247 . S
C62 O61 1.208 . S
C63 O68 1.247 . S
C63 O69 1.208 . S
C64 O56 1.315 . S
C64 O59 1.279 . S
C65 O66 1.315 . S
C65 O67 1.279 . S
O66 Cd58 2.223 . S
O66 C65 1.315 . S
O67 Cd57 2.240 . S
O67 C65 1.279 . S
O68 Cd58 2.297 . S
O68 C63 1.247 . S
O69 Cd58 2.439 . S
O69 C63 1.208 . S
O70 Cd71 2.223 . S
O70 C78 1.315 . S
Cd71 O70 2.223 . S
Cd71 O74 2.297 . S
Cd71 O75 2.439 . S
Cd71 O81 2.240 . S
Cd72 O73 2.240 . S
Cd72 O80 2.223 . S
Cd72 O82 2.297 . S
Cd72 O83 2.439 . S
O73 Cd72 2.240 . S
O73 C78 1.279 . S
O74 Cd71 2.297 . S
O74 C76 1.247 . S
O75 Cd71 2.439 . S
O75 C76 1.208 . S
C76 O74 1.247 . S
C76 O75 1.208 . S
C77 O82 1.247 . S
C77 O83 1.208 . S
C78 O70 1.315 . S
C78 O73 1.279 . S
C79 O80 1.315 . S
C79 O81 1.279 . S
O80 Cd72 2.223 . S
O80 C79 1.315 . S
O81 Cd71 2.240 . S
O81 C79 1.279 . S
O82 Cd72 2.297 . S
O82 C77 1.247 . S
O83 Cd72 2.439 . S
O83 C77 1.208 . S
O84 Cd85 2.223 . S
O84 C92 1.315 . S
Cd85 O84 2.223 . S
Cd85 O88 2.297 . S
Cd85 O89 2.439 . S
Cd85 O95 2.240 . S
Cd86 O87 2.240 . S
Cd86 O94 2.223 . S
Cd86 O96 2.297 . S
Cd86 O97 2.439 . S
O87 Cd86 2.240 . S
O87 C92 1.279 . S
O88 Cd85 2.297 . S
O88 C90 1.247 . S
O89 Cd85 2.439 . S
O89 C90 1.208 . S
C90 O88 1.247 . S
C90 O89 1.208 . S
C91 O96 1.247 . S
C91 O97 1.208 . S
C92 O84 1.315 . S
C92 O87 1.279 . S
C93 O94 1.315 . S
C93 O95 1.279 . S
O94 Cd86 2.223 . S
O94 C93 1.315 . S
O95 Cd85 2.240 . S
O95 C93 1.279 . S
O96 Cd86 2.297 . S
O96 C91 1.247 . S
O97 Cd86 2.439 . S
O97 C91 1.208 . S
O98 Cd99 2.223 . S
O98 C106 1.315 . S
Cd99 O98 2.223 . S
Cd99 O102 2.297 . S
Cd99 O103 2.439 . S
Cd99 O109 2.240 . S
Cd100 O101 2.240 . S
Cd100 O108 2.223 . S
Cd100 O110 2.297 . S
Cd100 O111 2.439 . S
O101 Cd100 2.240 . S
O101 C106 1.279 . S
O102 Cd99 2.297 . S
O102 C104 1.247 . S
O103 Cd99 2.439 . S
O103 C104 1.208 . S
C104 O102 1.247 . S
C104 O103 1.208 . S
C105 O110 1.247 . S
C105 O111 1.208 . S
C106 O98 1.315 . S
C106 O101 1.279 . S
C107 O108 1.315 . S
C107 O109 1.279 . S
O108 Cd100 2.223 . S
O108 C107 1.315 . S
O109 Cd99 2.240 . S
O109 C107 1.279 . S
O110 Cd100 2.297 . S
O110 C105 1.247 . S
O111 Cd100 2.439 . S
O111 C105 1.208 . S
O112 Cd113 2.223 . S
O112 C120 1.315 . S
Cd113 O112 2.223 . S
Cd113 O116 2.297 . S
Cd113 O117 2.439 . S
Cd113 O123 2.240 . S
Cd114 O115 2.240 . S
Cd114 O122 2.223 . S
Cd114 O124 2.297 . S
Cd114 O125 2.439 . S
O115 Cd114 2.240 . S
O115 C120 1.279 . S
O116 Cd113 2.297 . S
O116 C118 1.247 . S
O117 Cd113 2.439 . S
O117 C118 1.208 . S
C118 O116 1.247 . S
C118 O117 1.208 . S
C119 O124 1.247 . S
C119 O125 1.208 . S
C120 O112 1.315 . S
C120 O115 1.279 . S
C121 O122 1.315 . S
C121 O123 1.279 . S
O122 Cd114 2.223 . S
O122 C121 1.315 . S
O123 Cd113 2.240 . S
O123 C121 1.279 . S
O124 Cd114 2.297 . S
O124 C119 1.247 . S
O125 Cd114 2.439 . S
O125 C119 1.208 . S
O126 Cd127 2.223 . S
O126 C134 1.315 . S
Cd127 O126 2.223 . S
Cd127 O130 2.297 . S
Cd127 O131 2.439 . S
Cd127 O137 2.240 . S
Cd128 O129 2.240 . S
Cd128 O136 2.223 . S
Cd128 O138 2.297 . S
Cd128 O139 2.439 . S
O129 Cd128 2.240 . S
O129 C134 1.279 . S
O130 Cd127 2.297 . S
O130 C132 1.247 . S
O131 Cd127 2.439 . S
O131 C132 1.208 . S
C132 O130 1.247 . S
C132 O131 1.208 . S
C133 O138 1.247 . S
C133 O139 1.208 . S
C134 O126 1.315 . S
C134 O129 1.279 . S
C135 O136 1.315 . S
C135 O137 1.279 . S
O136 Cd128 2.223 . S
O136 C135 1.315 . S
O137 Cd127 2.240 . S
O137 C135 1.279 . S
O138 Cd128 2.297 . S
O138 C133 1.247 . S
O139 Cd128 2.439 . S
O139 C133 1.208 . S
O140 Cd141 2.223 . S
O140 C148 1.315 . S
Cd141 O140 2.223 . S
Cd141 O144 2.297 . S
Cd141 O145 2.439 . S
Cd141 O151 2.240 . S
Cd142 O143 2.240 . S
Cd142 O150 2.223 . S
Cd142 O152 2.297 . S
Cd142 O153 2.439 . S
O143 Cd142 2.240 . S
O143 C148 1.279 . S
O144 Cd141 2.297 . S
O144 C146 1.247 . S
O145 Cd141 2.439 . S
O145 C146 1.208 . S
C146 O144 1.247 . S
C146 O145 1.208 . S
C147 O152 1.247 . S
C147 O153 1.208 . S
C148 O140 1.315 . S
C148 O143 1.279 . S
C149 O150 1.315 . S
C149 O151 1.279 . S
O150 Cd142 2.223 . S
O150 C149 1.315 . S
O151 Cd141 2.240 . S
O151 C149 1.279 . S
O152 Cd142 2.297 . S
O152 C147 1.247 . S
O153 Cd142 2.439 . S
O153 C147 1.208 . S
O154 Cd155 2.223 . S
O154 C162 1.315 . S
Cd155 O154 2.223 . S
Cd155 O158 2.297 . S
Cd155 O159 2.439 . S
Cd155 O165 2.240 . S
Cd156 O157 2.240 . S
Cd156 O164 2.223 . S
Cd156 O166 2.297 . S
Cd156 O167 2.439 . S
O157 Cd156 2.240 . S
O157 C162 1.279 . S
O158 Cd155 2.297 . S
O158 C160 1.247 . S
O159 Cd155 2.439 . S
O159 C160 1.208 . S
C160 O158 1.247 . S
C160 O159 1.208 . S
C161 O166 1.247 . S
C161 O167 1.208 . S
C162 O154 1.315 . S
C162 O157 1.279 . S
C163 O164 1.315 . S
C163 O165 1.279 . S
O164 Cd156 2.223 . S
O164 C163 1.315 . S
O165 Cd155 2.240 . S
O165 C163 1.279 . S
O166 Cd156 2.297 . S
O166 C161 1.247 . S
O167 Cd156 2.439 . S
O167 C161 1.208 . S
O168 Cd169 2.223 . S
O168 C176 1.315 . S
Cd169 O168 2.223 . S
Cd169 O172 2.297 . S
Cd169 O173 2.439 . S
Cd169 O179 2.240 . S
Cd170 O171 2.240 . S
Cd170 O178 2.223 . S
Cd170 O180 2.297 . S
Cd170 O181 2.439 . S
O171 Cd170 2.240 . S
O171 C176 1.279 . S
O172 Cd169 2.297 . S
O172 C174 1.247 . S
O173 Cd169 2.439 . S
O173 C174 1.208 . S
C174 O172 1.247 . S
C174 O173 1.208 . S
C175 O180 1.247 . S
C175 O181 1.208 . S
C176 O168 1.315 . S
C176 O171 1.279 . S
C177 O178 1.315 . S
C177 O179 1.279 . S
O178 Cd170 2.223 . S
O178 C177 1.315 . S
O179 Cd169 2.240 . S
O179 C177 1.279 . S
O180 Cd170 2.297 . S
O180 C175 1.247 . S
O181 Cd170 2.439 . S
O181 C175 1.208 . S
O182 Cd183 2.223 . S
O182 C190 1.315 . S
Cd183 O182 2.223 . S
Cd183 O186 2.297 . S
Cd183 O187 2.439 . S
Cd183 O193 2.240 . S
Cd184 O185 2.240 . S
Cd184 O192 2.223 . S
Cd184 O194 2.297 . S
Cd184 O195 2.439 . S
O185 Cd184 2.240 . S
O185 C190 1.279 . S
O186 Cd183 2.297 . S
O186 C188 1.247 . S
O187 Cd183 2.439 . S
O187 C188 1.208 . S
C188 O186 1.247 . S
C188 O187 1.208 . S
C189 O194 1.247 . S
C189 O195 1.208 . S
C190 O182 1.315 . S
C190 O185 1.279 . S
C191 O192 1.315 . S
C191 O193 1.279 . S
O192 Cd184 2.223 . S
O192 C191 1.315 . S
O193 Cd183 2.240 . S
O193 C191 1.279 . S
O194 Cd184 2.297 . S
O194 C189 1.247 . S
O195 Cd184 2.439 . S
O195 C189 1.208 . S
O196 Cd197 2.223 . S
O196 C204 1.315 . S
Cd197 O196 2.223 . S
Cd197 O200 2.297 . S
Cd197 O201 2.439 . S
Cd197 O207 2.240 . S
Cd198 O199 2.240 . S
Cd198 O206 2.223 . S
Cd198 O208 2.297 . S
Cd198 O209 2.439 . S
O199 Cd198 2.240 . S
O199 C204 1.279 . S
O200 Cd197 2.297 . S
O200 C202 1.247 . S
O201 Cd197 2.439 . S
O201 C202 1.208 . S
C202 O200 1.247 . S
C202 O201 1.208 . S
C203 O208 1.247 . S
C203 O209 1.208 . S
C204 O196 1.315 . S
C204 O199 1.279 . S
C205 O206 1.315 . S
C205 O207 1.279 . S
O206 Cd198 2.223 . S
O206 C205 1.315 . S
O207 Cd197 2.240 . S
O207 C205 1.279 . S
O208 Cd198 2.297 . S
O208 C203 1.247 . S
O209 Cd198 2.439 . S
O209 C203 1.208 . S
O210 Cd211 2.223 . S
O210 C218 1.315 . S
Cd211 O210 2.223 . S
Cd211 O214 2.297 . S
Cd211 O215 2.439 . S
Cd211 O221 2.240 . S
Cd212 O213 2.240 . S
Cd212 O220 2.223 . S
Cd212 O222 2.297 . S
Cd212 O223 2.439 . S
O213 Cd212 2.240 . S
O213 C218 1.279 . S
O214 Cd211 2.297 . S
O214 C216 1.247 . S
O215 Cd211 2.439 . S
O215 C216 1.208 . S
C216 O214 1.247 . S
C216 O215 1.208 . S
C217 O222 1.247 . S
C217 O223 1.208 . S
C218 O210 1.315 . S
C218 O213 1.279 . S
C219 O220 1.315 . S
C219 O221 1.279 . S
O220 Cd212 2.223 . S
O220 C219 1.315 . S
O221 Cd211 2.240 . S
O221 C219 1.279 . S
O222 Cd212 2.297 . S
O222 C217 1.247 . S
O223 Cd212 2.439 . S
O223 C217 1.208 . S
O224 Cd225 2.223 . S
O224 C232 1.315 . S
Cd225 O224 2.223 . S
Cd225 O228 2.297 . S
Cd225 O229 2.439 . S
Cd225 O235 2.240 . S
Cd226 O227 2.240 . S
Cd226 O234 2.223 . S
Cd226 O236 2.297 . S
Cd226 O237 2.439 . S
O227 Cd226 2.240 . S
O227 C232 1.279 . S
O228 Cd225 2.297 . S
O228 C230 1.247 . S
O229 Cd225 2.439 . S
O229 C230 1.208 . S
C230 O228 1.247 . S
C230 O229 1.208 . S
C231 O236 1.247 . S
C231 O237 1.208 . S
C232 O224 1.315 . S
C232 O227 1.279 . S
C233 O234 1.315 . S
C233 O235 1.279 . S
O234 Cd226 2.223 . S
O234 C233 1.315 . S
O235 Cd225 2.240 . S
O235 C233 1.279 . S
O236 Cd226 2.297 . S
O236 C231 1.247 . S
O237 Cd226 2.439 . S
O237 C231 1.208 . S
O238 Cd239 2.223 . S
O238 C246 1.315 . S
Cd239 O238 2.223 . S
Cd239 O242 2.297 . S
Cd239 O243 2.439 . S
Cd239 O249 2.240 . S
Cd240 O241 2.240 . S
Cd240 O248 2.223 . S
Cd240 O250 2.297 . S
Cd240 O251 2.439 . S
O241 Cd240 2.240 . S
O241 C246 1.279 . S
O242 Cd239 2.297 . S
O242 C244 1.247 . S
O243 Cd239 2.439 . S
O243 C244 1.208 . S
C244 O242 1.247 . S
C244 O243 1.208 . S
C245 O250 1.247 . S
C245 O251 1.208 . S
C246 O238 1.315 . S
C246 O241 1.279 . S
C247 O248 1.315 . S
C247 O249 1.279 . S
O248 Cd240 2.223 . S
O248 C247 1.315 . S
O249 Cd239 2.240 . S
O249 C247 1.279 . S
O250 Cd240 2.297 . S
O250 C245 1.247 . S
O251 Cd240 2.439 . S
O251 C245 1.208 . S
O252 Cd253 2.223 . S
O252 C260 1.315 . S
Cd253 O252 2.223 . S
Cd253 O256 2.297 . S
Cd253 O257 2.439 . S
Cd253 O263 2.240 . S
Cd254 O255 2.240 . S
Cd254 O262 2.223 . S
Cd254 O264 2.297 . S
Cd254 O265 2.439 . S
O255 Cd254 2.240 . S
O255 C260 1.279 . S
O256 Cd253 2.297 . S
O256 C258 1.247 . S
O257 Cd253 2.439 . S
O257 C258 1.208 . S
C258 O256 1.247 . S
C258 O257 1.208 . S
C259 O264 1.247 . S
C259 O265 1.208 . S
C260 O252 1.315 . S
C260 O255 1.279 . S
C261 O262 1.315 . S
C261 O263 1.279 . S
O262 Cd254 2.223 . S
O262 C261 1.315 . S
O263 Cd253 2.240 . S
O263 C261 1.279 . S
O264 Cd254 2.297 . S
O264 C259 1.247 . S
O265 Cd254 2.439 . S
O265 C259 1.208 . S
O266 Cd267 2.223 . S
O266 C274 1.315 . S
Cd267 O266 2.223 . S
Cd267 O270 2.297 . S
Cd267 O271 2.439 . S
Cd267 O277 2.240 . S
Cd268 O269 2.240 . S
Cd268 O276 2.223 . S
Cd268 O278 2.297 . S
Cd268 O279 2.439 . S
O269 Cd268 2.240 . S
O269 C274 1.279 . S
O270 Cd267 2.297 . S
O270 C272 1.247 . S
O271 Cd267 2.439 . S
O271 C272 1.208 . S
C272 O270 1.247 . S
C272 O271 1.208 . S
C273 O278 1.247 . S
C273 O279 1.208 . S
C274 O266 1.315 . S
C274 O269 1.279 . S
C275 O276 1.315 . S
C275 O277 1.279 . S
O276 Cd268 2.223 . S
O276 C275 1.315 . S
O277 Cd267 2.240 . S
O277 C275 1.279 . S
O278 Cd268 2.297 . S
O278 C273 1.247 . S
O279 Cd268 2.439 . S
O279 C273 1.208 . S
O280 Cd281 2.223 . S
O280 C288 1.315 . S
Cd281 O280 2.223 . S
Cd281 O284 2.297 . S
Cd281 O285 2.439 . S
Cd281 O291 2.240 . S
Cd282 O283 2.240 . S
Cd282 O290 2.223 . S
Cd282 O292 2.297 . S
Cd282 O293 2.439 . S
O283 Cd282 2.240 . S
O283 C288 1.279 . S
O284 Cd281 2.297 . S
O284 C286 1.247 . S
O285 Cd281 2.439 . S
O285 C286 1.208 . S
C286 O284 1.247 . S
C286 O285 1.208 . S
C287 O292 1.247 . S
C287 O293 1.208 . S
C288 O280 1.315 . S
C288 O283 1.279 . S
C289 O290 1.315 . S
C289 O291 1.279 . S
O290 Cd282 2.223 . S
O290 C289 1.315 . S
O291 Cd281 2.240 . S
O291 C289 1.279 . S
O292 Cd282 2.297 . S
O292 C287 1.247 . S
O293 Cd282 2.439 . S
O293 C287 1.208 . S
O294 Cd295 2.223 . S
O294 C302 1.315 . S
Cd295 O294 2.223 . S
Cd295 O298 2.297 . S
Cd295 O299 2.439 . S
Cd295 O305 2.240 . S
Cd296 O297 2.240 . S
Cd296 O304 2.223 . S
Cd296 O306 2.297 . S
Cd296 O307 2.439 . S
O297 Cd296 2.240 . S
O297 C302 1.279 . S
O298 Cd295 2.297 . S
O298 C300 1.247 . S
O299 Cd295 2.439 . S
O299 C300 1.208 . S
C300 O298 1.247 . S
C300 O299 1.208 . S
C301 O306 1.247 . S
C301 O307 1.208 . S
C302 O294 1.315 . S
C302 O297 1.279 . S
C303 O304 1.315 . S
C303 O305 1.279 . S
O304 Cd296 2.223 . S
O304 C303 1.315 . S
O305 Cd295 2.240 . S
O305 C303 1.279 . S
O306 Cd296 2.297 . S
O306 C301 1.247 . S
O307 Cd296 2.439 . S
O307 C301 1.208 . S
O308 Cd309 2.223 . S
O308 C316 1.315 . S
Cd309 O308 2.223 . S
Cd309 O312 2.297 . S
Cd309 O313 2.439 . S
Cd309 O319 2.240 . S
Cd310 O311 2.240 . S
Cd310 O318 2.223 . S
Cd310 O320 2.297 . S
Cd310 O321 2.439 . S
O311 Cd310 2.240 . S
O311 C316 1.279 . S
O312 Cd309 2.297 . S
O312 C314 1.247 . S
O313 Cd309 2.439 . S
O313 C314 1.208 . S
C314 O312 1.247 . S
C314 O313 1.208 . S
C315 O320 1.247 . S
C315 O321 1.208 . S
C316 O308 1.315 . S
C316 O311 1.279 . S
C317 O318 1.315 . S
C317 O319 1.279 . S
O318 Cd310 2.223 . S
O318 C317 1.315 . S
O319 Cd309 2.240 . S
O319 C317 1.279 . S
O320 Cd310 2.297 . S
O320 C315 1.247 . S
O321 Cd310 2.439 . S
O321 C315 1.208 . S
O322 Cd323 2.223 . S
O322 C330 1.315 . S
Cd323 O322 2.223 . S
Cd323 O326 2.297 . S
Cd323 O327 2.439 . S
Cd323 O333 2.240 . S
Cd324 O325 2.240 . S
Cd324 O332 2.223 . S
Cd324 O334 2.297 . S
Cd324 O335 2.439 . S
O325 Cd324 2.240 . S
O325 C330 1.279 . S
O326 Cd323 2.297 . S
O326 C328 1.247 . S
O327 Cd323 2.439 . S
O327 C328 1.208 . S
C328 O326 1.247 . S
C328 O327 1.208 . S
C329 O334 1.247 . S
C329 O335 1.208 . S
C330 O322 1.315 . S
C330 O325 1.279 . S
C331 O332 1.315 . S
C331 O333 1.279 . S
O332 Cd324 2.223 . S
O332 C331 1.315 . S
O333 Cd323 2.240 . S
O333 C331 1.279 . S
O334 Cd324 2.297 . S
O334 C329 1.247 . S
O335 Cd324 2.439 . S
O335 C329 1.208 . S
O336 Cd337 2.223 . S
O336 C344 1.315 . S
Cd337 O336 2.223 . S
Cd337 O340 2.297 . S
Cd337 O341 2.439 . S
Cd337 O347 2.240 . S
Cd338 O339 2.240 . S
Cd338 O346 2.223 . S
Cd338 O348 2.297 . S
Cd338 O349 2.439 . S
O339 Cd338 2.240 . S
O339 C344 1.279 . S
O340 Cd337 2.297 . S
O340 C342 1.247 . S
O341 Cd337 2.439 . S
O341 C342 1.208 . S
C342 O340 1.247 . S
C342 O341 1.208 . S
C343 O348 1.247 . S
C343 O349 1.208 . S
C344 O336 1.315 . S
C344 O339 1.279 . S
C345 O346 1.315 . S
C345 O347 1.279 . S
O346 Cd338 2.223 . S
O346 C345 1.315 . S
O347 Cd337 2.240 . S
O347 C345 1.279 . S
O348 Cd338 2.297 . S
O348 C343 1.247 . S
O349 Cd338 2.439 . S
O349 C343 1.208 . S
O350 Cd351 2.223 . S
O350 C358 1.315 . S
Cd351 O350 2.223 . S
Cd351 O354 2.297 . S
Cd351 O355 2.439 . S
Cd351 O361 2.240 . S
Cd352 O353 2.240 . S
Cd352 O360 2.223 . S
Cd352 O362 2.297 . S
Cd352 O363 2.439 . S
O353 Cd352 2.240 . S
O353 C358 1.279 . S
O354 Cd351 2.297 . S
O354 C356 1.247 . S
O355 Cd351 2.439 . S
O355 C356 1.208 . S
C356 O354 1.247 . S
C356 O355 1.208 . S
C357 O362 1.247 . S
C357 O363 1.208 . S
C358 O350 1.315 . S
C358 O353 1.279 . S
C359 O360 1.315 . S
C359 O361 1.279 . S
O360 Cd352 2.223 . S
O360 C359 1.315 . S
O361 Cd351 2.240 . S
O361 C359 1.279 . S
O362 Cd352 2.297 . S
O362 C357 1.247 . S
O363 Cd352 2.439 . S
O363 C357 1.208 . S
O364 Cd365 2.223 . S
O364 C372 1.315 . S
Cd365 O364 2.223 . S
Cd365 O368 2.297 . S
Cd365 O369 2.439 . S
Cd365 O375 2.240 . S
Cd366 O367 2.240 . S
Cd366 O374 2.223 . S
Cd366 O376 2.297 . S
Cd366 O377 2.439 . S
O367 Cd366 2.240 . S
O367 C372 1.279 . S
O368 Cd365 2.297 . S
O368 C370 1.247 . S
O369 Cd365 2.439 . S
O369 C370 1.208 . S
C370 O368 1.247 . S
C370 O369 1.208 . S
C371 O376 1.247 . S
C371 O377 1.208 . S
C372 O364 1.315 . S
C372 O367 1.279 . S
C373 O374 1.315 . S
C373 O375 1.279 . S
O374 Cd366 2.223 . S
O374 C373 1.315 . S
O375 Cd365 2.240 . S
O375 C373 1.279 . S
O376 Cd366 2.297 . S
O376 C371 1.247 . S
O377 Cd366 2.439 . S
O377 C371 1.208 . S
O378 Cd379 2.223 . S
O378 C386 1.315 . S
Cd379 O378 2.223 . S
Cd379 O382 2.297 . S
Cd379 O383 2.439 . S
Cd379 O389 2.240 . S
Cd380 O381 2.240 . S
Cd380 O388 2.223 . S
Cd380 O390 2.297 . S
Cd380 O391 2.439 . S
O381 Cd380 2.240 . S
O381 C386 1.279 . S
O382 Cd379 2.297 . S
O382 C384 1.247 . S
O383 Cd379 2.439 . S
O383 C384 1.208 . S
C384 O382 1.247 . S
C384 O383 1.208 . S
C385 O390 1.247 . S
C385 O391 1.208 . S
C386 O378 1.315 . S
C386 O381 1.279 . S
C387 O388 1.315 . S
C387 O389 1.279 . S
O388 Cd380 2.223 . S
O388 C387 1.315 . S
O389 Cd379 2.240 . S
O389 C387 1.279 . S
O390 Cd380 2.297 . S
O390 C385 1.247 . S
O391 Cd380 2.439 . S
O391 C385 1.208 . S
O392 Cd393 2.223 . S
O392 C400 1.315 . S
Cd393 O392 2.223 . S
Cd393 O396 2.297 . S
Cd393 O397 2.439 . S
Cd393 O403 2.240 . S
Cd394 O395 2.240 . S
Cd394 O402 2.223 . S
Cd394 O404 2.297 . S
Cd394 O405 2.439 . S
O395 Cd394 2.240 . S
O395 C400 1.279 . S
O396 Cd393 2.297 . S
O396 C398 1.247 . S
O397 Cd393 2.439 . S
O397 C398 1.208 . S
C398 O396 1.247 . S
C398 O397 1.208 . S
C399 O404 1.247 . S
C399 O405 1.208 . S
C400 O392 1.315 . S
C400 O395 1.279 . S
C401 O402 1.315 . S
C401 O403 1.279 . S
O402 Cd394 2.223 . S
O402 C401 1.315 . S
O403 Cd393 2.240 . S
O403 C401 1.279 . S
O404 Cd394 2.297 . S
O404 C399 1.247 . S
O405 Cd394 2.439 . S
O405 C399 1.208 . S
O406 Cd407 2.223 . S
O406 C414 1.315 . S
Cd407 O406 2.223 . S
Cd407 O410 2.297 . S
Cd407 O411 2.439 . S
Cd407 O417 2.240 . S
Cd408 O409 2.240 . S
Cd408 O416 2.223 . S
Cd408 O418 2.297 . S
Cd408 O419 2.439 . S
O409 Cd408 2.240 . S
O409 C414 1.279 . S
O410 Cd407 2.297 . S
O410 C412 1.247 . S
O411 Cd407 2.439 . S
O411 C412 1.208 . S
C412 O410 1.247 . S
C412 O411 1.208 . S
C413 O418 1.247 . S
C413 O419 1.208 . S
C414 O406 1.315 . S
C414 O409 1.279 . S
C415 O416 1.315 . S
C415 O417 1.279 . S
O416 Cd408 2.223 . S
O416 C415 1.315 . S
O417 Cd407 2.240 . S
O417 C415 1.279 . S
O418 Cd408 2.297 . S
O418 C413 1.247 . S
O419 Cd408 2.439 . S
O419 C413 1.208 . S
O420 Cd421 2.223 . S
O420 C428 1.315 . S
Cd421 O420 2.223 . S
Cd421 O424 2.297 . S
Cd421 O425 2.439 . S
Cd421 O431 2.240 . S
Cd422 O423 2.240 . S
Cd422 O430 2.223 . S
Cd422 O432 2.297 . S
Cd422 O433 2.439 . S
O423 Cd422 2.240 . S
O423 C428 1.279 . S
O424 Cd421 2.297 . S
O424 C426 1.247 . S
O425 Cd421 2.439 . S
O425 C426 1.208 . S
C426 O424 1.247 . S
C426 O425 1.208 . S
C427 O432 1.247 . S
C427 O433 1.208 . S
C428 O420 1.315 . S
C428 O423 1.279 . S
C429 O430 1.315 . S
C429 O431 1.279 . S
O430 Cd422 2.223 . S
O430 C429 1.315 . S
O431 Cd421 2.240 . S
O431 C429 1.279 . S
O432 Cd422 2.297 . S
O432 C427 1.247 . S
O433 Cd422 2.439 . S
O433 C427 1.208 . S
O434 Cd435 2.223 . S
O434 C442 1.315 . S
Cd435 O434 2.223 . S
Cd435 O438 2.297 . S
Cd435 O439 2.439 . S
Cd435 O445 2.240 . S
Cd436 O437 2.240 . S
Cd436 O444 2.223 . S
Cd436 O446 2.297 . S
Cd436 O447 2.439 . S
O437 Cd436 2.240 . S
O437 C442 1.279 . S
O438 Cd435 2.297 . S
O438 C440 1.247 . S
O439 Cd435 2.439 . S
O439 C440 1.208 . S
C440 O438 1.247 . S
C440 O439 1.208 . S
C441 O446 1.247 . S
C441 O447 1.208 . S
C442 O434 1.315 . S
C442 O437 1.279 . S
C443 O444 1.315 . S
C443 O445 1.279 . S
O444 Cd436 2.223 . S
O444 C443 1.315 . S
O445 Cd435 2.240 . S
O445 C443 1.279 . S
O446 Cd436 2.297 . S
O446 C441 1.247 . S
O447 Cd436 2.439 . S
O447 C441 1.208 . S
C448 C449 1.391 . S
C448 C450 1.394 . S
C448 H464 0.931 . S
C449 C448 1.391 . S
C449 C453 1.376 . S
C450 C448 1.394 . S
C450 C451 1.369 . S
C450 C454 1.531 . S
C451 C450 1.369 . S
C451 C452 1.410 . S
C451 C459 1.503 . S
C452 C451 1.410 . S
C452 C453 1.392 . S
C452 C455 1.511 . S
C453 C449 1.376 . S
C453 C452 1.392 . S
C453 H465 0.929 . S
C454 C450 1.531 . S
C454 H466 0.960 . S
C454 H467 0.962 . S
C454 H468 0.960 . S
C455 C452 1.511 . S
C455 H469 0.961 . S
C455 H470 0.961 . S
C455 H471 0.961 . S
C456 C457 1.370 . S
C456 C458 1.363 . S
C456 H472 0.931 . S
C457 C456 1.370 . S
C457 C461 1.408 . S
C458 C456 1.363 . S
C458 C459 1.370 . S
C458 C462 1.524 . S
C459 C451 1.503 . S
C459 C458 1.370 . S
C459 C460 1.403 . S
C460 C459 1.403 . S
C460 C461 1.404 . S
C460 C463 1.539 . S
C461 C457 1.408 . S
C461 C460 1.404 . S
C461 H473 0.930 . S
C462 C458 1.524 . S
C462 H474 0.956 . S
C462 H475 0.961 . S
C462 H476 0.961 . S
C463 C460 1.539 . S
C463 H477 0.958 . S
C463 H478 0.961 . S
C463 H479 0.960 . S
H464 C448 0.931 . S
H465 C453 0.929 . S
H466 C454 0.960 . S
H467 C454 0.962 . S
H468 C454 0.960 . S
H469 C455 0.961 . S
H470 C455 0.961 . S
H471 C455 0.961 . S
H472 C456 0.931 . S
H473 C461 0.930 . S
H474 C462 0.956 . S
H475 C462 0.961 . S
H476 C462 0.961 . S
H477 C463 0.958 . S
H478 C463 0.961 . S
H479 C463 0.960 . S
C480 C481 1.391 . S
C480 C482 1.394 . S
C480 H496 0.931 . S
C481 C480 1.391 . S
C481 C485 1.376 . S
C482 C480 1.394 . S
C482 C483 1.369 . S
C482 C486 1.531 . S
C483 C482 1.369 . S
C483 C484 1.410 . S
C483 C491 1.503 . S
C484 C483 1.410 . S
C484 C485 1.392 . S
C484 C487 1.511 . S
C485 C481 1.376 . S
C485 C484 1.392 . S
C485 H497 0.929 1_655 S
C486 C482 1.531 . S
C486 H498 0.960 . S
C486 H499 0.962 . S
C486 H500 0.960 . S
C487 C484 1.511 . S
C487 H501 0.961 . S
C487 H502 0.961 . S
C487 H503 0.961 . S
C488 C489 1.370 . S
C488 C490 1.363 . S
C488 H504 0.931 . S
C489 C488 1.370 . S
C489 C493 1.408 . S
C490 C488 1.363 . S
C490 C491 1.370 . S
C490 C494 1.524 . S
C491 C483 1.503 . S
C491 C490 1.370 . S
C491 C492 1.403 . S
C492 C491 1.403 . S
C492 C493 1.404 . S
C492 C495 1.539 . S
C493 C489 1.408 . S
C493 C492 1.404 . S
C493 H505 0.930 . S
C494 C490 1.524 . S
C494 H506 0.956 . S
C494 H507 0.961 . S
C494 H508 0.961 . S
C495 C492 1.539 . S
C495 H509 0.958 . S
C495 H510 0.961 . S
C495 H511 0.960 . S
H496 C480 0.931 . S
H497 C485 0.929 1_455 S
H498 C486 0.960 . S
H499 C486 0.962 . S
H500 C486 0.960 . S
H501 C487 0.961 . S
H502 C487 0.961 . S
H503 C487 0.961 . S
H504 C488 0.931 . S
H505 C493 0.930 . S
H506 C494 0.956 . S
H507 C494 0.961 . S
H508 C494 0.961 . S
H509 C495 0.958 . S
H510 C495 0.961 . S
H511 C495 0.960 . S
C512 C513 1.391 . S
C512 C514 1.394 . S
C512 H528 0.931 . S
C513 C512 1.391 . S
C513 C517 1.376 . S
C514 C512 1.394 . S
C514 C515 1.369 . S
C514 C518 1.531 . S
C515 C514 1.369 . S
C515 C516 1.410 . S
C515 C523 1.503 . S
C516 C515 1.410 . S
C516 C517 1.392 . S
C516 C519 1.511 . S
C517 C513 1.376 . S
C517 C516 1.392 . S
C517 H529 0.929 . S
C518 C514 1.531 . S
C518 H530 0.960 . S
C518 H531 0.962 . S
C518 H532 0.960 . S
C519 C516 1.511 . S
C519 H533 0.961 . S
C519 H534 0.961 . S
C519 H535 0.961 . S
C520 C521 1.370 . S
C520 C522 1.363 . S
C520 H536 0.931 . S
C521 C520 1.370 . S
C521 C525 1.408 . S
C522 C520 1.363 . S
C522 C523 1.370 . S
C522 C526 1.524 . S
C523 C515 1.503 . S
C523 C522 1.370 . S
C523 C524 1.403 . S
C524 C523 1.403 . S
C524 C525 1.404 . S
C524 C527 1.539 . S
C525 C521 1.408 . S
C525 C524 1.404 . S
C525 H537 0.930 . S
C526 C522 1.524 . S
C526 H538 0.956 . S
C526 H539 0.961 . S
C526 H540 0.961 . S
C527 C524 1.539 . S
C527 H541 0.958 . S
C527 H542 0.961 . S
C527 H543 0.960 . S
H528 C512 0.931 . S
H529 C517 0.929 . S
H530 C518 0.960 . S
H531 C518 0.962 . S
H532 C518 0.960 . S
H533 C519 0.961 . S
H534 C519 0.961 . S
H535 C519 0.961 . S
H536 C520 0.931 . S
H537 C525 0.930 . S
H538 C526 0.956 . S
H539 C526 0.961 . S
H540 C526 0.961 . S
H541 C527 0.958 . S
H542 C527 0.961 . S
H543 C527 0.960 . S
C544 C545 1.391 . S
C544 C546 1.394 . S
C544 H560 0.931 . S
C545 C544 1.391 . S
C545 C549 1.376 . S
C546 C544 1.394 . S
C546 C547 1.369 . S
C546 C550 1.531 . S
C547 C546 1.369 . S
C547 C548 1.410 . S
C547 C555 1.503 . S
C548 C547 1.410 . S
C548 C549 1.392 . S
C548 C551 1.511 . S
C549 C545 1.376 . S
C549 C548 1.392 . S
C549 H561 0.929 . S
C550 C546 1.531 . S
C550 H562 0.960 . S
C550 H563 0.962 . S
C550 H564 0.960 . S
C551 C548 1.511 . S
C551 H565 0.961 . S
C551 H566 0.961 . S
C551 H567 0.961 . S
C552 C553 1.370 . S
C552 C554 1.363 . S
C552 H568 0.931 . S
C553 C552 1.370 . S
C553 C557 1.408 . S
C554 C552 1.363 . S
C554 C555 1.370 . S
C554 C558 1.524 . S
C555 C547 1.503 . S
C555 C554 1.370 . S
C555 C556 1.403 . S
C556 C555 1.403 . S
C556 C557 1.404 . S
C556 C559 1.539 . S
C557 C553 1.408 . S
C557 C556 1.404 . S
C557 H569 0.930 . S
C558 C554 1.524 . S
C558 H570 0.956 . S
C558 H571 0.961 . S
C558 H572 0.961 . S
C559 C556 1.539 . S
C559 H573 0.958 . S
C559 H574 0.961 . S
C559 H575 0.960 . S
H560 C544 0.931 . S
H561 C549 0.929 . S
H562 C550 0.960 . S
H563 C550 0.962 . S
H564 C550 0.960 . S
H565 C551 0.961 . S
H566 C551 0.961 . S
H567 C551 0.961 . S
H568 C552 0.931 . S
H569 C557 0.930 . S
H570 C558 0.956 . S
H571 C558 0.961 . S
H572 C558 0.961 . S
H573 C559 0.958 . S
H574 C559 0.961 . S
H575 C559 0.960 . S
C576 C577 1.391 . S
C576 C578 1.394 . S
C576 H592 0.931 . S
C577 C576 1.391 . S
C577 C581 1.376 . S
C578 C576 1.394 . S
C578 C579 1.369 . S
C578 C582 1.531 . S
C579 C578 1.369 . S
C579 C580 1.410 . S
C579 C587 1.503 . S
C580 C579 1.410 . S
C580 C581 1.392 . S
C580 C583 1.511 . S
C581 C577 1.376 . S
C581 C580 1.392 . S
C581 H593 0.929 . S
C582 C578 1.531 . S
C582 H594 0.960 . S
C582 H595 0.962 . S
C582 H596 0.960 . S
C583 C580 1.511 . S
C583 H597 0.961 . S
C583 H598 0.961 . S
C583 H599 0.961 . S
C584 C585 1.370 . S
C584 C586 1.363 . S
C584 H600 0.931 . S
C585 C584 1.370 . S
C585 C589 1.408 . S
C586 C584 1.363 . S
C586 C587 1.370 . S
C586 C590 1.524 . S
C587 C579 1.503 . S
C587 C586 1.370 . S
C587 C588 1.403 . S
C588 C587 1.403 . S
C588 C589 1.404 . S
C588 C591 1.539 . S
C589 C585 1.408 . S
C589 C588 1.404 . S
C589 H601 0.930 . S
C590 C586 1.524 . S
C590 H602 0.956 . S
C590 H603 0.961 . S
C590 H604 0.961 . S
C591 C588 1.539 . S
C591 H605 0.958 . S
C591 H606 0.961 . S
C591 H607 0.960 . S
H592 C576 0.931 . S
H593 C581 0.929 . S
H594 C582 0.960 . S
H595 C582 0.962 . S
H596 C582 0.960 . S
H597 C583 0.961 . S
H598 C583 0.961 . S
H599 C583 0.961 . S
H600 C584 0.931 . S
H601 C589 0.930 . S
H602 C590 0.956 . S
H603 C590 0.961 . S
H604 C590 0.961 . S
H605 C591 0.958 . S
H606 C591 0.961 . S
H607 C591 0.960 . S
C608 C609 1.391 . S
C608 C610 1.394 . S
C608 H624 0.931 . S
C609 C608 1.391 . S
C609 C613 1.376 . S
C610 C608 1.394 . S
C610 C611 1.369 . S
C610 C614 1.531 . S
C611 C610 1.369 . S
C611 C612 1.410 . S
C611 C619 1.503 . S
C612 C611 1.410 . S
C612 C613 1.392 . S
C612 C615 1.511 . S
C613 C609 1.376 . S
C613 C612 1.392 . S
C613 H625 0.929 . S
C614 C610 1.531 . S
C614 H626 0.960 . S
C614 H627 0.962 . S
C614 H628 0.960 . S
C615 C612 1.511 . S
C615 H629 0.961 . S
C615 H630 0.961 . S
C615 H631 0.961 . S
C616 C617 1.370 . S
C616 C618 1.363 . S
C616 H632 0.931 . S
C617 C616 1.370 . S
C617 C621 1.408 . S
C618 C616 1.363 . S
C618 C619 1.370 . S
C618 C622 1.524 . S
C619 C611 1.503 . S
C619 C618 1.370 . S
C619 C620 1.403 . S
C620 C619 1.403 . S
C620 C621 1.404 . S
C620 C623 1.539 . S
C621 C617 1.408 . S
C621 C620 1.404 . S
C621 H633 0.930 . S
C622 C618 1.524 . S
C622 H634 0.956 . S
C622 H635 0.961 . S
C622 H636 0.961 . S
C623 C620 1.539 . S
C623 H637 0.958 . S
C623 H638 0.961 . S
C623 H639 0.960 . S
H624 C608 0.931 . S
H625 C613 0.929 . S
H626 C614 0.960 . S
H627 C614 0.962 . S
H628 C614 0.960 . S
H629 C615 0.961 . S
H630 C615 0.961 . S
H631 C615 0.961 . S
H632 C616 0.931 . S
H633 C621 0.930 . S
H634 C622 0.956 . S
H635 C622 0.961 . S
H636 C622 0.961 . S
H637 C623 0.958 . S
H638 C623 0.961 . S
H639 C623 0.960 . S
C640 C641 1.391 . S
C640 C642 1.394 . S
C640 H656 0.931 . S
C641 C640 1.391 . S
C641 C645 1.376 . S
C642 C640 1.394 . S
C642 C643 1.369 . S
C642 C646 1.531 . S
C643 C642 1.369 . S
C643 C644 1.410 . S
C643 C651 1.503 . S
C644 C643 1.410 . S
C644 C645 1.392 . S
C644 C647 1.511 . S
C645 C641 1.376 . S
C645 C644 1.392 . S
C645 H657 0.929 . S
C646 C642 1.531 . S
C646 H658 0.960 . S
C646 H659 0.962 . S
C646 H660 0.960 . S
C647 C644 1.511 . S
C647 H661 0.961 . S
C647 H662 0.961 . S
C647 H663 0.961 . S
C648 C649 1.370 . S
C648 C650 1.363 . S
C648 H664 0.931 . S
C649 C648 1.370 . S
C649 C653 1.408 . S
C650 C648 1.363 . S
C650 C651 1.370 . S
C650 C654 1.524 . S
C651 C643 1.503 . S
C651 C650 1.370 . S
C651 C652 1.403 . S
C652 C651 1.403 . S
C652 C653 1.404 . S
C652 C655 1.539 . S
C653 C649 1.408 . S
C653 C652 1.404 . S
C653 H665 0.930 . S
C654 C650 1.524 . S
C654 H666 0.956 . S
C654 H667 0.961 . S
C654 H668 0.961 . S
C655 C652 1.539 . S
C655 H669 0.958 . S
C655 H670 0.961 . S
C655 H671 0.960 . S
H656 C640 0.931 . S
H657 C645 0.929 . S
H658 C646 0.960 . S
H659 C646 0.962 . S
H660 C646 0.960 . S
H661 C647 0.961 . S
H662 C647 0.961 . S
H663 C647 0.961 . S
H664 C648 0.931 . S
H665 C653 0.930 . S
H666 C654 0.956 . S
H667 C654 0.961 . S
H668 C654 0.961 . S
H669 C655 0.958 . S
H670 C655 0.961 . S
H671 C655 0.960 . S
C672 C673 1.391 . S
C672 C674 1.394 . S
C672 H688 0.931 . S
C673 C672 1.391 . S
C673 C677 1.376 . S
C674 C672 1.394 . S
C674 C675 1.369 . S
C674 C678 1.531 . S
C675 C674 1.369 . S
C675 C676 1.410 . S
C675 C683 1.503 . S
C676 C675 1.410 . S
C676 C677 1.392 . S
C676 C679 1.511 . S
C677 C673 1.376 . S
C677 C676 1.392 . S
C677 H689 0.929 . S
C678 C674 1.531 . S
C678 H690 0.960 . S
C678 H691 0.962 . S
C678 H692 0.960 . S
C679 C676 1.511 . S
C679 H693 0.961 . S
C679 H694 0.961 . S
C679 H695 0.961 . S
C680 C681 1.370 . S
C680 C682 1.363 . S
C680 H696 0.931 . S
C681 C680 1.370 . S
C681 C685 1.408 . S
C682 C680 1.363 . S
C682 C683 1.370 . S
C682 C686 1.524 . S
C683 C675 1.503 . S
C683 C682 1.370 . S
C683 C684 1.403 . S
C684 C683 1.403 . S
C684 C685 1.404 . S
C684 C687 1.539 . S
C685 C681 1.408 . S
C685 C684 1.404 . S
C685 H697 0.930 . S
C686 C682 1.524 . S
C686 H698 0.956 . S
C686 H699 0.961 . S
C686 H700 0.961 . S
C687 C684 1.539 . S
C687 H701 0.958 . S
C687 H702 0.961 . S
C687 H703 0.960 . S
H688 C672 0.931 . S
H689 C677 0.929 . S
H690 C678 0.960 . S
H691 C678 0.962 . S
H692 C678 0.960 . S
H693 C679 0.961 . S
H694 C679 0.961 . S
H695 C679 0.961 . S
H696 C680 0.931 . S
H697 C685 0.930 . S
H698 C686 0.956 . S
H699 C686 0.961 . S
H700 C686 0.961 . S
H701 C687 0.958 . S
H702 C687 0.961 . S
H703 C687 0.960 . S
C704 C705 1.391 . S
C704 C706 1.394 . S
C704 H720 0.931 . S
C705 C704 1.391 . S
C705 C709 1.376 . S
C706 C704 1.394 . S
C706 C707 1.369 . S
C706 C710 1.531 . S
C707 C706 1.369 . S
C707 C708 1.410 . S
C707 C715 1.503 . S
C708 C707 1.410 . S
C708 C709 1.392 . S
C708 C711 1.511 . S
C709 C705 1.376 . S
C709 C708 1.392 . S
C709 H721 0.929 . S
C710 C706 1.531 . S
C710 H722 0.960 . S
C710 H723 0.962 . S
C710 H724 0.960 . S
C711 C708 1.511 . S
C711 H725 0.961 . S
C711 H726 0.961 . S
C711 H727 0.961 . S
C712 C713 1.370 . S
C712 C714 1.363 . S
C712 H728 0.931 . S
C713 C712 1.370 . S
C713 C717 1.408 . S
C714 C712 1.363 . S
C714 C715 1.370 . S
C714 C718 1.524 . S
C715 C707 1.503 . S
C715 C714 1.370 . S
C715 C716 1.403 . S
C716 C715 1.403 . S
C716 C717 1.404 . S
C716 C719 1.539 . S
C717 C713 1.408 . S
C717 C716 1.404 . S
C717 H729 0.930 . S
C718 C714 1.524 . S
C718 H730 0.956 . S
C718 H731 0.961 . S
C718 H732 0.961 . S
C719 C716 1.539 . S
C719 H733 0.958 . S
C719 H734 0.961 . S
C719 H735 0.960 . S
H720 C704 0.931 . S
H721 C709 0.929 . S
H722 C710 0.960 . S
H723 C710 0.962 . S
H724 C710 0.960 . S
H725 C711 0.961 . S
H726 C711 0.961 . S
H727 C711 0.961 . S
H728 C712 0.931 . S
H729 C717 0.930 . S
H730 C718 0.956 . S
H731 C718 0.961 . S
H732 C718 0.961 . S
H733 C719 0.958 . S
H734 C719 0.961 . S
H735 C719 0.960 . S
C736 C737 1.391 . S
C736 C738 1.394 . S
C736 H752 0.931 . S
C737 C736 1.391 . S
C737 C741 1.376 . S
C738 C736 1.394 . S
C738 C739 1.369 . S
C738 C742 1.531 . S
C739 C738 1.369 . S
C739 C740 1.410 . S
C739 C747 1.503 . S
C740 C739 1.410 . S
C740 C741 1.392 . S
C740 C743 1.511 . S
C741 C737 1.376 . S
C741 C740 1.392 . S
C741 H753 0.929 . S
C742 C738 1.531 . S
C742 H754 0.960 . S
C742 H755 0.962 . S
C742 H756 0.960 . S
C743 C740 1.511 . S
C743 H757 0.961 . S
C743 H758 0.961 . S
C743 H759 0.961 . S
C744 C745 1.370 . S
C744 C746 1.363 . S
C744 H760 0.931 . S
C745 C744 1.370 . S
C745 C749 1.408 . S
C746 C744 1.363 . S
C746 C747 1.370 . S
C746 C750 1.524 . S
C747 C739 1.503 . S
C747 C746 1.370 . S
C747 C748 1.403 . S
C748 C747 1.403 . S
C748 C749 1.404 . S
C748 C751 1.539 . S
C749 C745 1.408 . S
C749 C748 1.404 . S
C749 H761 0.930 . S
C750 C746 1.524 . S
C750 H762 0.956 . S
C750 H763 0.961 . S
C750 H764 0.961 . S
C751 C748 1.539 . S
C751 H765 0.958 . S
C751 H766 0.961 . S
C751 H767 0.960 . S
H752 C736 0.931 . S
H753 C741 0.929 . S
H754 C742 0.960 . S
H755 C742 0.962 . S
H756 C742 0.960 . S
H757 C743 0.961 . S
H758 C743 0.961 . S
H759 C743 0.961 . S
H760 C744 0.931 . S
H761 C749 0.930 . S
H762 C750 0.956 . S
H763 C750 0.961 . S
H764 C750 0.961 . S
H765 C751 0.958 . S
H766 C751 0.961 . S
H767 C751 0.960 . S
C768 C769 1.391 . S
C768 C770 1.394 . S
C768 H784 0.931 . S
C769 C768 1.391 . S
C769 C773 1.376 . S
C770 C768 1.394 . S
C770 C771 1.369 . S
C770 C774 1.531 . S
C771 C770 1.369 . S
C771 C772 1.410 . S
C771 C779 1.503 . S
C772 C771 1.410 . S
C772 C773 1.392 . S
C772 C775 1.511 . S
C773 C769 1.376 . S
C773 C772 1.392 . S
C773 H785 0.929 . S
C774 C770 1.531 . S
C774 H786 0.960 . S
C774 H787 0.962 . S
C774 H788 0.960 . S
C775 C772 1.511 . S
C775 H789 0.961 . S
C775 H790 0.961 . S
C775 H791 0.961 . S
C776 C777 1.370 . S
C776 C778 1.363 . S
C776 H792 0.931 . S
C777 C776 1.370 . S
C777 C781 1.408 . S
C778 C776 1.363 . S
C778 C779 1.370 . S
C778 C782 1.524 . S
C779 C771 1.503 . S
C779 C778 1.370 . S
C779 C780 1.403 . S
C780 C779 1.403 . S
C780 C781 1.404 . S
C780 C783 1.539 . S
C781 C777 1.408 . S
C781 C780 1.404 . S
C781 H793 0.930 . S
C782 C778 1.524 . S
C782 H794 0.956 . S
C782 H795 0.961 . S
C782 H796 0.961 . S
C783 C780 1.539 . S
C783 H797 0.958 . S
C783 H798 0.961 . S
C783 H799 0.960 . S
H784 C768 0.931 . S
H785 C773 0.929 . S
H786 C774 0.960 . S
H787 C774 0.962 . S
H788 C774 0.960 . S
H789 C775 0.961 . S
H790 C775 0.961 . S
H791 C775 0.961 . S
H792 C776 0.931 . S
H793 C781 0.930 . S
H794 C782 0.956 . S
H795 C782 0.961 . S
H796 C782 0.961 . S
H797 C783 0.958 . S
H798 C783 0.961 . S
H799 C783 0.960 . S
C800 C801 1.391 . S
C800 C802 1.394 . S
C800 H816 0.931 . S
C801 C800 1.391 . S
C801 C805 1.376 . S
C802 C800 1.394 . S
C802 C803 1.369 . S
C802 C806 1.531 . S
C803 C802 1.369 . S
C803 C804 1.410 . S
C803 C811 1.503 . S
C804 C803 1.410 . S
C804 C805 1.392 . S
C804 C807 1.511 . S
C805 C801 1.376 . S
C805 C804 1.392 . S
C805 H817 0.929 . S
C806 C802 1.531 . S
C806 H818 0.960 . S
C806 H819 0.962 . S
C806 H820 0.960 . S
C807 C804 1.511 . S
C807 H821 0.961 . S
C807 H822 0.961 . S
C807 H823 0.961 . S
C808 C809 1.370 . S
C808 C810 1.363 . S
C808 H824 0.931 . S
C809 C808 1.370 . S
C809 C813 1.408 . S
C810 C808 1.363 . S
C810 C811 1.370 . S
C810 C814 1.524 . S
C811 C803 1.503 . S
C811 C810 1.370 . S
C811 C812 1.403 . S
C812 C811 1.403 . S
C812 C813 1.404 . S
C812 C815 1.539 . S
C813 C809 1.408 . S
C813 C812 1.404 . S
C813 H825 0.930 . S
C814 C810 1.524 . S
C814 H826 0.956 . S
C814 H827 0.961 . S
C814 H828 0.961 . S
C815 C812 1.539 . S
C815 H829 0.958 . S
C815 H830 0.961 . S
C815 H831 0.960 . S
H816 C800 0.931 . S
H817 C805 0.929 . S
H818 C806 0.960 . S
H819 C806 0.962 . S
H820 C806 0.960 . S
H821 C807 0.961 . S
H822 C807 0.961 . S
H823 C807 0.961 . S
H824 C808 0.931 . S
H825 C813 0.930 . S
H826 C814 0.956 . S
H827 C814 0.961 . S
H828 C814 0.961 . S
H829 C815 0.958 . S
H830 C815 0.961 . S
H831 C815 0.960 . S
C832 C833 1.391 . S
C832 C834 1.394 . S
C832 H848 0.931 . S
C833 C832 1.391 . S
C833 C837 1.376 . S
C834 C832 1.394 . S
C834 C835 1.369 . S
C834 C838 1.531 . S
C835 C834 1.369 . S
C835 C836 1.410 . S
C835 C843 1.503 . S
C836 C835 1.410 . S
C836 C837 1.392 . S
C836 C839 1.511 . S
C837 C833 1.376 . S
C837 C836 1.392 . S
C837 H849 0.929 . S
C838 C834 1.531 . S
C838 H850 0.960 . S
C838 H851 0.962 . S
C838 H852 0.960 . S
C839 C836 1.511 . S
C839 H853 0.961 . S
C839 H854 0.961 . S
C839 H855 0.961 . S
C840 C841 1.370 . S
C840 C842 1.363 . S
C840 H856 0.931 . S
C841 C840 1.370 . S
C841 C845 1.408 . S
C842 C840 1.363 . S
C842 C843 1.370 . S
C842 C846 1.524 . S
C843 C835 1.503 . S
C843 C842 1.370 . S
C843 C844 1.403 . S
C844 C843 1.403 . S
C844 C845 1.404 . S
C844 C847 1.539 . S
C845 C841 1.408 . S
C845 C844 1.404 . S
C845 H857 0.930 . S
C846 C842 1.524 . S
C846 H858 0.956 . S
C846 H859 0.961 . S
C846 H860 0.961 . S
C847 C844 1.539 . S
C847 H861 0.958 . S
C847 H862 0.961 . S
C847 H863 0.960 . S
H848 C832 0.931 . S
H849 C837 0.929 . S
H850 C838 0.960 . S
H851 C838 0.962 . S
H852 C838 0.960 . S
H853 C839 0.961 . S
H854 C839 0.961 . S
H855 C839 0.961 . S
H856 C840 0.931 . S
H857 C845 0.930 . S
H858 C846 0.956 . S
H859 C846 0.961 . S
H860 C846 0.961 . S
H861 C847 0.958 . S
H862 C847 0.961 . S
H863 C847 0.960 . S
C864 C865 1.391 . S
C864 C866 1.394 . S
C864 H880 0.931 . S
C865 C864 1.391 . S
C865 C869 1.376 . S
C866 C864 1.394 . S
C866 C867 1.369 . S
C866 C870 1.531 . S
C867 C866 1.369 . S
C867 C868 1.410 . S
C867 C875 1.503 . S
C868 C867 1.410 . S
C868 C869 1.392 . S
C868 C871 1.511 . S
C869 C865 1.376 . S
C869 C868 1.392 . S
C869 H881 0.929 . S
C870 C866 1.531 . S
C870 H882 0.960 . S
C870 H883 0.962 . S
C870 H884 0.960 . S
C871 C868 1.511 . S
C871 H885 0.961 . S
C871 H886 0.961 . S
C871 H887 0.961 . S
C872 C873 1.370 . S
C872 C874 1.363 . S
C872 H888 0.931 . S
C873 C872 1.370 . S
C873 C877 1.408 . S
C874 C872 1.363 . S
C874 C875 1.370 . S
C874 C878 1.524 . S
C875 C867 1.503 . S
C875 C874 1.370 . S
C875 C876 1.403 . S
C876 C875 1.403 . S
C876 C877 1.404 . S
C876 C879 1.539 . S
C877 C873 1.408 . S
C877 C876 1.404 . S
C877 H889 0.930 . S
C878 C874 1.524 . S
C878 H890 0.956 . S
C878 H891 0.961 . S
C878 H892 0.961 . S
C879 C876 1.539 . S
C879 H893 0.958 . S
C879 H894 0.961 . S
C879 H895 0.960 . S
H880 C864 0.931 . S
H881 C869 0.929 . S
H882 C870 0.960 . S
H883 C870 0.962 . S
H884 C870 0.960 . S
H885 C871 0.961 . S
H886 C871 0.961 . S
H887 C871 0.961 . S
H888 C872 0.931 . S
H889 C877 0.930 . S
H890 C878 0.956 . S
H891 C878 0.961 . S
H892 C878 0.961 . S
H893 C879 0.958 . S
H894 C879 0.961 . S
H895 C879 0.960 . S
C896 C897 1.391 . S
C896 C898 1.394 . S
C896 H912 0.931 . S
C897 C896 1.391 . S
C897 C901 1.376 . S
C898 C896 1.394 . S
C898 C899 1.369 . S
C898 C902 1.531 . S
C899 C898 1.369 . S
C899 C900 1.410 . S
C899 C907 1.503 . S
C900 C899 1.410 . S
C900 C901 1.392 . S
C900 C903 1.511 . S
C901 C897 1.376 . S
C901 C900 1.392 . S
C901 H913 0.929 . S
C902 C898 1.531 . S
C902 H914 0.960 . S
C902 H915 0.962 . S
C902 H916 0.960 . S
C903 C900 1.511 . S
C903 H917 0.961 . S
C903 H918 0.961 . S
C903 H919 0.961 . S
C904 C905 1.370 . S
C904 C906 1.363 . S
C904 H920 0.931 . S
C905 C904 1.370 . S
C905 C909 1.408 . S
C906 C904 1.363 . S
C906 C907 1.370 . S
C906 C910 1.524 . S
C907 C899 1.503 . S
C907 C906 1.370 . S
C907 C908 1.403 . S
C908 C907 1.403 . S
C908 C909 1.404 . S
C908 C911 1.539 . S
C909 C905 1.408 . S
C909 C908 1.404 . S
C909 H921 0.930 . S
C910 C906 1.524 . S
C910 H922 0.956 . S
C910 H923 0.961 . S
C910 H924 0.961 . S
C911 C908 1.539 . S
C911 H925 0.958 . S
C911 H926 0.961 . S
C911 H927 0.960 . S
H912 C896 0.931 . S
H913 C901 0.929 . S
H914 C902 0.960 . S
H915 C902 0.962 . S
H916 C902 0.960 . S
H917 C903 0.961 . S
H918 C903 0.961 . S
H919 C903 0.961 . S
H920 C904 0.931 . S
H921 C909 0.930 . S
H922 C910 0.956 . S
H923 C910 0.961 . S
H924 C910 0.961 . S
H925 C911 0.958 . S
H926 C911 0.961 . S
H927 C911 0.960 . S
C928 C929 1.391 . S
C928 C930 1.394 . S
C928 H944 0.931 . S
C929 C928 1.391 . S
C929 C933 1.376 . S
C930 C928 1.394 . S
C930 C931 1.369 . S
C930 C934 1.531 . S
C931 C930 1.369 . S
C931 C932 1.410 . S
C931 C939 1.503 . S
C932 C931 1.410 . S
C932 C933 1.392 . S
C932 C935 1.511 . S
C933 C929 1.376 . S
C933 C932 1.392 . S
C933 H945 0.929 . S
C934 C930 1.531 . S
C934 H946 0.960 . S
C934 H947 0.962 . S
C934 H948 0.960 . S
C935 C932 1.511 . S
C935 H949 0.961 . S
C935 H950 0.961 . S
C935 H951 0.961 . S
C936 C937 1.370 . S
C936 C938 1.363 . S
C936 H952 0.931 1_455 S
C937 C936 1.370 . S
C937 C941 1.408 . S
C938 C936 1.363 . S
C938 C939 1.370 . S
C938 C942 1.524 . S
C939 C931 1.503 . S
C939 C938 1.370 . S
C939 C940 1.403 . S
C940 C939 1.403 . S
C940 C941 1.404 . S
C940 C943 1.539 . S
C941 C937 1.408 . S
C941 C940 1.404 . S
C941 H953 0.930 . S
C942 C938 1.524 . S
C942 H954 0.956 . S
C942 H955 0.961 . S
C942 H956 0.961 . S
C943 C940 1.539 . S
C943 H957 0.958 . S
C943 H958 0.961 . S
C943 H959 0.960 . S
H944 C928 0.931 . S
H945 C933 0.929 . S
H946 C934 0.960 . S
H947 C934 0.962 . S
H948 C934 0.960 . S
H949 C935 0.961 . S
H950 C935 0.961 . S
H951 C935 0.961 . S
H952 C936 0.931 1_655 S
H953 C941 0.930 . S
H954 C942 0.956 . S
H955 C942 0.961 . S
H956 C942 0.961 . S
H957 C943 0.958 . S
H958 C943 0.961 . S
H959 C943 0.960 . S
C960 C961 1.391 . S
C960 C962 1.394 . S
C960 H976 0.931 . S
C961 C960 1.391 . S
C961 C965 1.376 . S
C962 C960 1.394 . S
C962 C963 1.369 . S
C962 C966 1.531 . S
C963 C962 1.369 . S
C963 C964 1.410 . S
C963 C971 1.503 . S
C964 C963 1.410 . S
C964 C965 1.392 . S
C964 C967 1.511 . S
C965 C961 1.376 . S
C965 C964 1.392 . S
C965 H977 0.929 . S
C966 C962 1.531 . S
C966 H978 0.960 . S
C966 H979 0.962 . S
C966 H980 0.960 . S
C967 C964 1.511 . S
C967 H981 0.961 . S
C967 H982 0.961 . S
C967 H983 0.961 . S
C968 C969 1.370 . S
C968 C970 1.363 . S
C968 H984 0.931 . S
C969 C968 1.370 . S
C969 C973 1.408 . S
C970 C968 1.363 . S
C970 C971 1.370 . S
C970 C974 1.524 . S
C971 C963 1.503 . S
C971 C970 1.370 . S
C971 C972 1.403 . S
C972 C971 1.403 . S
C972 C973 1.404 . S
C972 C975 1.539 . S
C973 C969 1.408 . S
C973 C972 1.404 . S
C973 H985 0.930 . S
C974 C970 1.524 . S
C974 H986 0.956 . S
C974 H987 0.961 . S
C974 H988 0.961 . S
C975 C972 1.539 . S
C975 H989 0.958 . S
C975 H990 0.961 . S
C975 H991 0.960 . S
H976 C960 0.931 . S
H977 C965 0.929 . S
H978 C966 0.960 . S
H979 C966 0.962 . S
H980 C966 0.960 . S
H981 C967 0.961 . S
H982 C967 0.961 . S
H983 C967 0.961 . S
H984 C968 0.931 . S
H985 C973 0.930 . S
H986 C974 0.956 . S
H987 C974 0.961 . S
H988 C974 0.961 . S
H989 C975 0.958 . S
H990 C975 0.961 . S
H991 C975 0.960 . S
C992 C993 1.391 . S
C992 C994 1.394 . S
C992 H1008 0.931 . S
C993 C992 1.391 . S
C993 C997 1.376 . S
C994 C992 1.394 . S
C994 C995 1.369 . S
C994 C998 1.531 . S
C995 C994 1.369 . S
C995 C996 1.410 . S
C995 C1003 1.503 . S
C996 C995 1.410 . S
C996 C997 1.392 . S
C996 C999 1.511 . S
C997 C993 1.376 . S
C997 C996 1.392 . S
C997 H1009 0.929 . S
C998 C994 1.531 . S
C998 H1010 0.960 . S
C998 H1011 0.962 . S
C998 H1012 0.960 . S
C999 C996 1.511 . S
C999 H1013 0.961 . S
C999 H1014 0.961 . S
C999 H1015 0.961 . S
C1000 C1001 1.370 . S
C1000 C1002 1.363 . S
C1000 H1016 0.931 . S
C1001 C1000 1.370 . S
C1001 C1005 1.408 . S
C1002 C1000 1.363 . S
C1002 C1003 1.370 . S
C1002 C1006 1.524 . S
C1003 C995 1.503 . S
C1003 C1002 1.370 . S
C1003 C1004 1.403 . S
C1004 C1003 1.403 . S
C1004 C1005 1.404 . S
C1004 C1007 1.539 . S
C1005 C1001 1.408 . S
C1005 C1004 1.404 . S
C1005 H1017 0.930 . S
C1006 C1002 1.524 . S
C1006 H1018 0.956 . S
C1006 H1019 0.961 . S
C1006 H1020 0.961 . S
C1007 C1004 1.539 . S
C1007 H1021 0.958 . S
C1007 H1022 0.961 . S
C1007 H1023 0.960 . S
H1008 C992 0.931 . S
H1009 C997 0.929 . S
H1010 C998 0.960 . S
H1011 C998 0.962 . S
H1012 C998 0.960 . S
H1013 C999 0.961 . S
H1014 C999 0.961 . S
H1015 C999 0.961 . S
H1016 C1000 0.931 . S
H1017 C1005 0.930 . S
H1018 C1006 0.956 . S
H1019 C1006 0.961 . S
H1020 C1006 0.961 . S
H1021 C1007 0.958 . S
H1022 C1007 0.961 . S
H1023 C1007 0.960 . S
C1024 C1025 1.391 . S
C1024 C1026 1.394 . S
C1024 H1040 0.931 . S
C1025 C1024 1.391 . S
C1025 C1029 1.376 . S
C1026 C1024 1.394 . S
C1026 C1027 1.369 . S
C1026 C1030 1.531 . S
C1027 C1026 1.369 . S
C1027 C1028 1.410 . S
C1027 C1035 1.503 . S
C1028 C1027 1.410 . S
C1028 C1029 1.392 . S
C1028 C1031 1.511 . S
C1029 C1025 1.376 . S
C1029 C1028 1.392 . S
C1029 H1041 0.929 . S
C1030 C1026 1.531 . S
C1030 H1042 0.960 . S
C1030 H1043 0.962 . S
C1030 H1044 0.960 . S
C1031 C1028 1.511 . S
C1031 H1045 0.961 . S
C1031 H1046 0.961 . S
C1031 H1047 0.961 . S
C1032 C1033 1.370 . S
C1032 C1034 1.363 . S
C1032 H1048 0.931 . S
C1033 C1032 1.370 . S
C1033 C1037 1.408 . S
C1034 C1032 1.363 . S
C1034 C1035 1.370 . S
C1034 C1038 1.524 . S
C1035 C1027 1.503 . S
C1035 C1034 1.370 . S
C1035 C1036 1.403 . S
C1036 C1035 1.403 . S
C1036 C1037 1.404 . S
C1036 C1039 1.539 . S
C1037 C1033 1.408 . S
C1037 C1036 1.404 . S
C1037 H1049 0.930 . S
C1038 C1034 1.524 . S
C1038 H1050 0.956 . S
C1038 H1051 0.961 . S
C1038 H1052 0.961 . S
C1039 C1036 1.539 . S
C1039 H1053 0.958 . S
C1039 H1054 0.961 . S
C1039 H1055 0.960 . S
H1040 C1024 0.931 . S
H1041 C1029 0.929 . S
H1042 C1030 0.960 . S
H1043 C1030 0.962 . S
H1044 C1030 0.960 . S
H1045 C1031 0.961 . S
H1046 C1031 0.961 . S
H1047 C1031 0.961 . S
H1048 C1032 0.931 . S
H1049 C1037 0.930 . S
H1050 C1038 0.956 . S
H1051 C1038 0.961 . S
H1052 C1038 0.961 . S
H1053 C1039 0.958 . S
H1054 C1039 0.961 . S
H1055 C1039 0.960 . S
C1056 C1057 1.391 . S
C1056 C1058 1.394 . S
C1056 H1072 0.931 . S
C1057 C1056 1.391 . S
C1057 C1061 1.376 . S
C1058 C1056 1.394 . S
C1058 C1059 1.369 . S
C1058 C1062 1.531 . S
C1059 C1058 1.369 . S
C1059 C1060 1.410 . S
C1059 C1067 1.503 . S
C1060 C1059 1.410 . S
C1060 C1061 1.392 . S
C1060 C1063 1.511 . S
C1061 C1057 1.376 . S
C1061 C1060 1.392 . S
C1061 H1073 0.929 . S
C1062 C1058 1.531 . S
C1062 H1074 0.960 . S
C1062 H1075 0.962 . S
C1062 H1076 0.960 . S
C1063 C1060 1.511 . S
C1063 H1077 0.961 . S
C1063 H1078 0.961 . S
C1063 H1079 0.961 . S
C1064 C1065 1.370 . S
C1064 C1066 1.363 . S
C1064 H1080 0.931 . S
C1065 C1064 1.370 . S
C1065 C1069 1.408 . S
C1066 C1064 1.363 . S
C1066 C1067 1.370 . S
C1066 C1070 1.524 . S
C1067 C1059 1.503 . S
C1067 C1066 1.370 . S
C1067 C1068 1.403 . S
C1068 C1067 1.403 . S
C1068 C1069 1.404 . S
C1068 C1071 1.539 . S
C1069 C1065 1.408 . S
C1069 C1068 1.404 . S
C1069 H1081 0.930 1_455 S
C1070 C1066 1.524 . S
C1070 H1082 0.956 . S
C1070 H1083 0.961 . S
C1070 H1084 0.961 . S
C1071 C1068 1.539 . S
C1071 H1085 0.958 . S
C1071 H1086 0.961 . S
C1071 H1087 0.960 . S
H1072 C1056 0.931 . S
H1073 C1061 0.929 . S
H1074 C1062 0.960 . S
H1075 C1062 0.962 . S
H1076 C1062 0.960 . S
H1077 C1063 0.961 . S
H1078 C1063 0.961 . S
H1079 C1063 0.961 . S
H1080 C1064 0.931 . S
H1081 C1069 0.930 1_655 S
H1082 C1070 0.956 . S
H1083 C1070 0.961 . S
H1084 C1070 0.961 . S
H1085 C1071 0.958 . S
H1086 C1071 0.961 . S
H1087 C1071 0.960 . S
C1088 C1089 1.391 . S
C1088 C1090 1.394 . S
C1088 H1104 0.931 . S
C1089 C1088 1.391 . S
C1089 C1093 1.376 . S
C1090 C1088 1.394 . S
C1090 C1091 1.369 . S
C1090 C1094 1.531 . S
C1091 C1090 1.369 . S
C1091 C1092 1.410 . S
C1091 C1099 1.503 . S
C1092 C1091 1.410 . S
C1092 C1093 1.392 . S
C1092 C1095 1.511 . S
C1093 C1089 1.376 . S
C1093 C1092 1.392 . S
C1093 H1105 0.929 . S
C1094 C1090 1.531 . S
C1094 H1106 0.960 . S
C1094 H1107 0.962 . S
C1094 H1108 0.960 . S
C1095 C1092 1.511 . S
C1095 H1109 0.961 . S
C1095 H1110 0.961 . S
C1095 H1111 0.961 . S
C1096 C1097 1.370 . S
C1096 C1098 1.363 . S
C1096 H1112 0.931 . S
C1097 C1096 1.370 . S
C1097 C1101 1.408 . S
C1098 C1096 1.363 . S
C1098 C1099 1.370 . S
C1098 C1102 1.524 . S
C1099 C1091 1.503 . S
C1099 C1098 1.370 . S
C1099 C1100 1.403 . S
C1100 C1099 1.403 . S
C1100 C1101 1.404 . S
C1100 C1103 1.539 . S
C1101 C1097 1.408 . S
C1101 C1100 1.404 . S
C1101 H1113 0.930 . S
C1102 C1098 1.524 . S
C1102 H1114 0.956 . S
C1102 H1115 0.961 . S
C1102 H1116 0.961 . S
C1103 C1100 1.539 . S
C1103 H1117 0.958 . S
C1103 H1118 0.961 . S
C1103 H1119 0.960 . S
H1104 C1088 0.931 . S
H1105 C1093 0.929 . S
H1106 C1094 0.960 . S
H1107 C1094 0.962 . S
H1108 C1094 0.960 . S
H1109 C1095 0.961 . S
H1110 C1095 0.961 . S
H1111 C1095 0.961 . S
H1112 C1096 0.931 . S
H1113 C1101 0.930 . S
H1114 C1102 0.956 . S
H1115 C1102 0.961 . S
H1116 C1102 0.961 . S
H1117 C1103 0.958 . S
H1118 C1103 0.961 . S
H1119 C1103 0.960 . S
C1120 C1121 1.391 . S
C1120 C1122 1.394 . S
C1120 H1136 0.931 . S
C1121 C1120 1.391 . S
C1121 C1125 1.376 . S
C1122 C1120 1.394 . S
C1122 C1123 1.369 . S
C1122 C1126 1.531 . S
C1123 C1122 1.369 . S
C1123 C1124 1.410 . S
C1123 C1131 1.503 . S
C1124 C1123 1.410 . S
C1124 C1125 1.392 . S
C1124 C1127 1.511 . S
C1125 C1121 1.376 . S
C1125 C1124 1.392 . S
C1125 H1137 0.929 . S
C1126 C1122 1.531 . S
C1126 H1138 0.960 . S
C1126 H1139 0.962 . S
C1126 H1140 0.960 . S
C1127 C1124 1.511 . S
C1127 H1141 0.961 . S
C1127 H1142 0.961 . S
C1127 H1143 0.961 . S
C1128 C1129 1.370 . S
C1128 C1130 1.363 . S
C1128 H1144 0.931 1_455 S
C1129 C1128 1.370 . S
C1129 C1133 1.408 . S
C1130 C1128 1.363 . S
C1130 C1131 1.370 . S
C1130 C1134 1.524 . S
C1131 C1123 1.503 . S
C1131 C1130 1.370 . S
C1131 C1132 1.403 . S
C1132 C1131 1.403 . S
C1132 C1133 1.404 . S
C1132 C1135 1.539 . S
C1133 C1129 1.408 . S
C1133 C1132 1.404 . S
C1133 H1145 0.930 . S
C1134 C1130 1.524 . S
C1134 H1146 0.956 . S
C1134 H1147 0.961 . S
C1134 H1148 0.961 . S
C1135 C1132 1.539 . S
C1135 H1149 0.958 . S
C1135 H1150 0.961 . S
C1135 H1151 0.960 . S
H1136 C1120 0.931 . S
H1137 C1125 0.929 . S
H1138 C1126 0.960 . S
H1139 C1126 0.962 . S
H1140 C1126 0.960 . S
H1141 C1127 0.961 . S
H1142 C1127 0.961 . S
H1143 C1127 0.961 . S
H1144 C1128 0.931 1_655 S
H1145 C1133 0.930 . S
H1146 C1134 0.956 . S
H1147 C1134 0.961 . S
H1148 C1134 0.961 . S
H1149 C1135 0.958 . S
H1150 C1135 0.961 . S
H1151 C1135 0.960 . S
C1152 C1153 1.391 . S
C1152 C1154 1.394 . S
C1152 H1168 0.931 . S
C1153 C1152 1.391 . S
C1153 C1157 1.376 . S
C1154 C1152 1.394 . S
C1154 C1155 1.369 . S
C1154 C1158 1.531 . S
C1155 C1154 1.369 . S
C1155 C1156 1.410 . S
C1155 C1163 1.503 . S
C1156 C1155 1.410 . S
C1156 C1157 1.392 . S
C1156 C1159 1.511 . S
C1157 C1153 1.376 . S
C1157 C1156 1.392 . S
C1157 H1169 0.929 . S
C1158 C1154 1.531 . S
C1158 H1170 0.960 . S
C1158 H1171 0.962 . S
C1158 H1172 0.960 . S
C1159 C1156 1.511 . S
C1159 H1173 0.961 . S
C1159 H1174 0.961 . S
C1159 H1175 0.961 . S
C1160 C1161 1.370 . S
C1160 C1162 1.363 . S
C1160 H1176 0.931 . S
C1161 C1160 1.370 . S
C1161 C1165 1.408 . S
C1162 C1160 1.363 . S
C1162 C1163 1.370 . S
C1162 C1166 1.524 . S
C1163 C1155 1.503 . S
C1163 C1162 1.370 . S
C1163 C1164 1.403 . S
C1164 C1163 1.403 . S
C1164 C1165 1.404 . S
C1164 C1167 1.539 . S
C1165 C1161 1.408 . S
C1165 C1164 1.404 . S
C1165 H1177 0.930 . S
C1166 C1162 1.524 . S
C1166 H1178 0.956 . S
C1166 H1179 0.961 . S
C1166 H1180 0.961 . S
C1167 C1164 1.539 . S
C1167 H1181 0.958 . S
C1167 H1182 0.961 . S
C1167 H1183 0.960 . S
H1168 C1152 0.931 . S
H1169 C1157 0.929 . S
H1170 C1158 0.960 . S
H1171 C1158 0.962 . S
H1172 C1158 0.960 . S
H1173 C1159 0.961 . S
H1174 C1159 0.961 . S
H1175 C1159 0.961 . S
H1176 C1160 0.931 . S
H1177 C1165 0.930 . S
H1178 C1166 0.956 . S
H1179 C1166 0.961 . S
H1180 C1166 0.961 . S
H1181 C1167 0.958 . S
H1182 C1167 0.961 . S
H1183 C1167 0.960 . S
C1184 C1185 1.391 . S
C1184 C1186 1.394 . S
C1184 H1200 0.931 . S
C1185 C1184 1.391 . S
C1185 C1189 1.376 . S
C1186 C1184 1.394 . S
C1186 C1187 1.369 . S
C1186 C1190 1.531 . S
C1187 C1186 1.369 . S
C1187 C1188 1.410 . S
C1187 C1195 1.503 . S
C1188 C1187 1.410 . S
C1188 C1189 1.392 . S
C1188 C1191 1.511 . S
C1189 C1185 1.376 . S
C1189 C1188 1.392 . S
C1189 H1201 0.929 . S
C1190 C1186 1.531 . S
C1190 H1202 0.960 . S
C1190 H1203 0.962 . S
C1190 H1204 0.960 . S
C1191 C1188 1.511 . S
C1191 H1205 0.961 . S
C1191 H1206 0.961 . S
C1191 H1207 0.961 . S
C1192 C1193 1.370 . S
C1192 C1194 1.363 . S
C1192 H1208 0.931 . S
C1193 C1192 1.370 . S
C1193 C1197 1.408 . S
C1194 C1192 1.363 . S
C1194 C1195 1.370 . S
C1194 C1198 1.524 . S
C1195 C1187 1.503 . S
C1195 C1194 1.370 . S
C1195 C1196 1.403 . S
C1196 C1195 1.403 . S
C1196 C1197 1.404 . S
C1196 C1199 1.539 . S
C1197 C1193 1.408 . S
C1197 C1196 1.404 . S
C1197 H1209 0.930 . S
C1198 C1194 1.524 . S
C1198 H1210 0.956 . S
C1198 H1211 0.961 . S
C1198 H1212 0.961 . S
C1199 C1196 1.539 . S
C1199 H1213 0.958 . S
C1199 H1214 0.961 . S
C1199 H1215 0.960 . S
H1200 C1184 0.931 . S
H1201 C1189 0.929 . S
H1202 C1190 0.960 . S
H1203 C1190 0.962 . S
H1204 C1190 0.960 . S
H1205 C1191 0.961 . S
H1206 C1191 0.961 . S
H1207 C1191 0.961 . S
H1208 C1192 0.931 . S
H1209 C1197 0.930 . S
H1210 C1198 0.956 . S
H1211 C1198 0.961 . S
H1212 C1198 0.961 . S
H1213 C1199 0.958 . S
H1214 C1199 0.961 . S
H1215 C1199 0.960 . S
C1216 C1217 1.391 . S
C1216 C1218 1.394 . S
C1216 H1232 0.931 . S
C1217 C1216 1.391 . S
C1217 C1221 1.376 . S
C1218 C1216 1.394 . S
C1218 C1219 1.369 . S
C1218 C1222 1.531 . S
C1219 C1218 1.369 . S
C1219 C1220 1.410 . S
C1219 C1227 1.503 . S
C1220 C1219 1.410 . S
C1220 C1221 1.392 . S
C1220 C1223 1.511 . S
C1221 C1217 1.376 . S
C1221 C1220 1.392 . S
C1221 H1233 0.929 . S
C1222 C1218 1.531 . S
C1222 H1234 0.960 . S
C1222 H1235 0.962 . S
C1222 H1236 0.960 . S
C1223 C1220 1.511 . S
C1223 H1237 0.961 . S
C1223 H1238 0.961 . S
C1223 H1239 0.961 . S
C1224 C1225 1.370 . S
C1224 C1226 1.363 . S
C1224 H1240 0.931 . S
C1225 C1224 1.370 . S
C1225 C1229 1.408 . S
C1226 C1224 1.363 . S
C1226 C1227 1.370 . S
C1226 C1230 1.524 . S
C1227 C1219 1.503 . S
C1227 C1226 1.370 . S
C1227 C1228 1.403 . S
C1228 C1227 1.403 . S
C1228 C1229 1.404 . S
C1228 C1231 1.539 . S
C1229 C1225 1.408 . S
C1229 C1228 1.404 . S
C1229 H1241 0.930 . S
C1230 C1226 1.524 . S
C1230 H1242 0.956 . S
C1230 H1243 0.961 . S
C1230 H1244 0.961 . S
C1231 C1228 1.539 . S
C1231 H1245 0.958 . S
C1231 H1246 0.961 . S
C1231 H1247 0.960 . S
H1232 C1216 0.931 . S
H1233 C1221 0.929 . S
H1234 C1222 0.960 . S
H1235 C1222 0.962 . S
H1236 C1222 0.960 . S
H1237 C1223 0.961 . S
H1238 C1223 0.961 . S
H1239 C1223 0.961 . S
H1240 C1224 0.931 . S
H1241 C1229 0.930 . S
H1242 C1230 0.956 . S
H1243 C1230 0.961 . S
H1244 C1230 0.961 . S
H1245 C1231 0.958 . S
H1246 C1231 0.961 . S
H1247 C1231 0.960 . S
C1248 C1249 1.391 . S
C1248 C1250 1.394 . S
C1248 H1264 0.931 . S
C1249 C1248 1.391 . S
C1249 C1253 1.376 . S
C1250 C1248 1.394 . S
C1250 C1251 1.369 . S
C1250 C1254 1.531 . S
C1251 C1250 1.369 . S
C1251 C1252 1.410 . S
C1251 C1259 1.503 . S
C1252 C1251 1.410 . S
C1252 C1253 1.392 . S
C1252 C1255 1.511 . S
C1253 C1249 1.376 . S
C1253 C1252 1.392 . S
C1253 H1265 0.929 . S
C1254 C1250 1.531 . S
C1254 H1266 0.960 . S
C1254 H1267 0.962 . S
C1254 H1268 0.960 . S
C1255 C1252 1.511 . S
C1255 H1269 0.961 . S
C1255 H1270 0.961 . S
C1255 H1271 0.961 . S
C1256 C1257 1.370 . S
C1256 C1258 1.363 . S
C1256 H1272 0.931 . S
C1257 C1256 1.370 . S
C1257 C1261 1.408 . S
C1258 C1256 1.363 . S
C1258 C1259 1.370 . S
C1258 C1262 1.524 . S
C1259 C1251 1.503 . S
C1259 C1258 1.370 . S
C1259 C1260 1.403 . S
C1260 C1259 1.403 . S
C1260 C1261 1.404 . S
C1260 C1263 1.539 . S
C1261 C1257 1.408 . S
C1261 C1260 1.404 . S
C1261 H1273 0.930 . S
C1262 C1258 1.524 . S
C1262 H1274 0.956 . S
C1262 H1275 0.961 . S
C1262 H1276 0.961 . S
C1263 C1260 1.539 . S
C1263 H1277 0.958 . S
C1263 H1278 0.961 . S
C1263 H1279 0.960 . S
H1264 C1248 0.931 . S
H1265 C1253 0.929 . S
H1266 C1254 0.960 . S
H1267 C1254 0.962 . S
H1268 C1254 0.960 . S
H1269 C1255 0.961 . S
H1270 C1255 0.961 . S
H1271 C1255 0.961 . S
H1272 C1256 0.931 . S
H1273 C1261 0.930 . S
H1274 C1262 0.956 . S
H1275 C1262 0.961 . S
H1276 C1262 0.961 . S
H1277 C1263 0.958 . S
H1278 C1263 0.961 . S
H1279 C1263 0.960 . S
C1280 C1281 1.391 . S
C1280 C1282 1.394 . S
C1280 H1296 0.931 . S
C1281 C1280 1.391 . S
C1281 C1285 1.376 . S
C1282 C1280 1.394 . S
C1282 C1283 1.369 . S
C1282 C1286 1.531 . S
C1283 C1282 1.369 . S
C1283 C1284 1.410 . S
C1283 C1291 1.503 . S
C1284 C1283 1.410 . S
C1284 C1285 1.392 . S
C1284 C1287 1.511 . S
C1285 C1281 1.376 . S
C1285 C1284 1.392 . S
C1285 H1297 0.929 . S
C1286 C1282 1.531 . S
C1286 H1298 0.960 . S
C1286 H1299 0.962 . S
C1286 H1300 0.960 . S
C1287 C1284 1.511 . S
C1287 H1301 0.961 . S
C1287 H1302 0.961 . S
C1287 H1303 0.961 . S
C1288 C1289 1.370 . S
C1288 C1290 1.363 . S
C1288 H1304 0.931 . S
C1289 C1288 1.370 . S
C1289 C1293 1.408 . S
C1290 C1288 1.363 . S
C1290 C1291 1.370 . S
C1290 C1294 1.524 . S
C1291 C1283 1.503 . S
C1291 C1290 1.370 . S
C1291 C1292 1.403 . S
C1292 C1291 1.403 . S
C1292 C1293 1.404 . S
C1292 C1295 1.539 . S
C1293 C1289 1.408 . S
C1293 C1292 1.404 . S
C1293 H1305 0.930 . S
C1294 C1290 1.524 . S
C1294 H1306 0.956 . S
C1294 H1307 0.961 . S
C1294 H1308 0.961 . S
C1295 C1292 1.539 . S
C1295 H1309 0.958 . S
C1295 H1310 0.961 . S
C1295 H1311 0.960 . S
H1296 C1280 0.931 . S
H1297 C1285 0.929 . S
H1298 C1286 0.960 . S
H1299 C1286 0.962 . S
H1300 C1286 0.960 . S
H1301 C1287 0.961 . S
H1302 C1287 0.961 . S
H1303 C1287 0.961 . S
H1304 C1288 0.931 . S
H1305 C1293 0.930 . S
H1306 C1294 0.956 . S
H1307 C1294 0.961 . S
H1308 C1294 0.961 . S
H1309 C1295 0.958 . S
H1310 C1295 0.961 . S
H1311 C1295 0.960 . S
C1312 C1313 1.391 . S
C1312 C1314 1.394 . S
C1312 H1328 0.931 . S
C1313 C1312 1.391 . S
C1313 C1317 1.376 . S
C1314 C1312 1.394 . S
C1314 C1315 1.369 . S
C1314 C1318 1.531 . S
C1315 C1314 1.369 . S
C1315 C1316 1.410 . S
C1315 C1323 1.503 . S
C1316 C1315 1.410 . S
C1316 C1317 1.392 . S
C1316 C1319 1.511 . S
C1317 C1313 1.376 . S
C1317 C1316 1.392 . S
C1317 H1329 0.929 1_655 S
C1318 C1314 1.531 . S
C1318 H1330 0.960 . S
C1318 H1331 0.962 . S
C1318 H1332 0.960 . S
C1319 C1316 1.511 . S
C1319 H1333 0.961 . S
C1319 H1334 0.961 . S
C1319 H1335 0.961 . S
C1320 C1321 1.370 . S
C1320 C1322 1.363 . S
C1320 H1336 0.931 . S
C1321 C1320 1.370 . S
C1321 C1325 1.408 . S
C1322 C1320 1.363 . S
C1322 C1323 1.370 . S
C1322 C1326 1.524 . S
C1323 C1315 1.503 . S
C1323 C1322 1.370 . S
C1323 C1324 1.403 . S
C1324 C1323 1.403 . S
C1324 C1325 1.404 . S
C1324 C1327 1.539 . S
C1325 C1321 1.408 . S
C1325 C1324 1.404 . S
C1325 H1337 0.930 . S
C1326 C1322 1.524 . S
C1326 H1338 0.956 . S
C1326 H1339 0.961 . S
C1326 H1340 0.961 . S
C1327 C1324 1.539 . S
C1327 H1341 0.958 . S
C1327 H1342 0.961 . S
C1327 H1343 0.960 . S
H1328 C1312 0.931 . S
H1329 C1317 0.929 1_455 S
H1330 C1318 0.960 . S
H1331 C1318 0.962 . S
H1332 C1318 0.960 . S
H1333 C1319 0.961 . S
H1334 C1319 0.961 . S
H1335 C1319 0.961 . S
H1336 C1320 0.931 . S
H1337 C1325 0.930 . S
H1338 C1326 0.956 . S
H1339 C1326 0.961 . S
H1340 C1326 0.961 . S
H1341 C1327 0.958 . S
H1342 C1327 0.961 . S
H1343 C1327 0.960 . S
C1344 C1345 1.391 . S
C1344 C1346 1.394 . S
C1344 H1360 0.931 . S
C1345 C1344 1.391 . S
C1345 C1349 1.376 . S
C1346 C1344 1.394 . S
C1346 C1347 1.369 . S
C1346 C1350 1.531 . S
C1347 C1346 1.369 . S
C1347 C1348 1.410 . S
C1347 C1355 1.503 . S
C1348 C1347 1.410 . S
C1348 C1349 1.392 . S
C1348 C1351 1.511 . S
C1349 C1345 1.376 . S
C1349 C1348 1.392 . S
C1349 H1361 0.929 . S
C1350 C1346 1.531 . S
C1350 H1362 0.960 . S
C1350 H1363 0.962 . S
C1350 H1364 0.960 . S
C1351 C1348 1.511 . S
C1351 H1365 0.961 . S
C1351 H1366 0.961 . S
C1351 H1367 0.961 . S
C1352 C1353 1.370 . S
C1352 C1354 1.363 . S
C1352 H1368 0.931 . S
C1353 C1352 1.370 . S
C1353 C1357 1.408 . S
C1354 C1352 1.363 . S
C1354 C1355 1.370 . S
C1354 C1358 1.524 . S
C1355 C1347 1.503 . S
C1355 C1354 1.370 . S
C1355 C1356 1.403 . S
C1356 C1355 1.403 . S
C1356 C1357 1.404 . S
C1356 C1359 1.539 . S
C1357 C1353 1.408 . S
C1357 C1356 1.404 . S
C1357 H1369 0.930 . S
C1358 C1354 1.524 . S
C1358 H1370 0.956 . S
C1358 H1371 0.961 . S
C1358 H1372 0.961 . S
C1359 C1356 1.539 . S
C1359 H1373 0.958 . S
C1359 H1374 0.961 . S
C1359 H1375 0.960 . S
H1360 C1344 0.931 . S
H1361 C1349 0.929 . S
H1362 C1350 0.960 . S
H1363 C1350 0.962 . S
H1364 C1350 0.960 . S
H1365 C1351 0.961 . S
H1366 C1351 0.961 . S
H1367 C1351 0.961 . S
H1368 C1352 0.931 . S
H1369 C1357 0.930 . S
H1370 C1358 0.956 . S
H1371 C1358 0.961 . S
H1372 C1358 0.961 . S
H1373 C1359 0.958 . S
H1374 C1359 0.961 . S
H1375 C1359 0.960 . S
C1376 C1377 1.391 . S
C1376 C1378 1.394 . S
C1376 H1392 0.931 . S
C1377 C1376 1.391 . S
C1377 C1381 1.376 . S
C1378 C1376 1.394 . S
C1378 C1379 1.369 . S
C1378 C1382 1.531 . S
C1379 C1378 1.369 . S
C1379 C1380 1.410 . S
C1379 C1387 1.503 . S
C1380 C1379 1.410 . S
C1380 C1381 1.392 . S
C1380 C1383 1.511 . S
C1381 C1377 1.376 . S
C1381 C1380 1.392 . S
C1381 H1393 0.929 1_655 S
C1382 C1378 1.531 . S
C1382 H1394 0.960 . S
C1382 H1395 0.962 . S
C1382 H1396 0.960 . S
C1383 C1380 1.511 . S
C1383 H1397 0.961 . S
C1383 H1398 0.961 . S
C1383 H1399 0.961 . S
C1384 C1385 1.370 . S
C1384 C1386 1.363 . S
C1384 H1400 0.931 . S
C1385 C1384 1.370 . S
C1385 C1389 1.408 . S
C1386 C1384 1.363 . S
C1386 C1387 1.370 . S
C1386 C1390 1.524 . S
C1387 C1379 1.503 . S
C1387 C1386 1.370 . S
C1387 C1388 1.403 . S
C1388 C1387 1.403 . S
C1388 C1389 1.404 . S
C1388 C1391 1.539 . S
C1389 C1385 1.408 . S
C1389 C1388 1.404 . S
C1389 H1401 0.930 . S
C1390 C1386 1.524 . S
C1390 H1402 0.956 . S
C1390 H1403 0.961 . S
C1390 H1404 0.961 . S
C1391 C1388 1.539 . S
C1391 H1405 0.958 . S
C1391 H1406 0.961 . S
C1391 H1407 0.960 . S
H1392 C1376 0.931 . S
H1393 C1381 0.929 1_455 S
H1394 C1382 0.960 . S
H1395 C1382 0.962 . S
H1396 C1382 0.960 . S
H1397 C1383 0.961 . S
H1398 C1383 0.961 . S
H1399 C1383 0.961 . S
H1400 C1384 0.931 . S
H1401 C1389 0.930 . S
H1402 C1390 0.956 . S
H1403 C1390 0.961 . S
H1404 C1390 0.961 . S
H1405 C1391 0.958 . S
H1406 C1391 0.961 . S
H1407 C1391 0.960 . S
C1408 C1409 1.391 . S
C1408 C1410 1.394 . S
C1408 H1424 0.931 . S
C1409 C1408 1.391 . S
C1409 C1413 1.376 . S
C1410 C1408 1.394 . S
C1410 C1411 1.369 . S
C1410 C1414 1.531 . S
C1411 C1410 1.369 . S
C1411 C1412 1.410 . S
C1411 C1419 1.503 . S
C1412 C1411 1.410 . S
C1412 C1413 1.392 . S
C1412 C1415 1.511 . S
C1413 C1409 1.376 . S
C1413 C1412 1.392 . S
C1413 H1425 0.929 . S
C1414 C1410 1.531 . S
C1414 H1426 0.960 . S
C1414 H1427 0.962 . S
C1414 H1428 0.960 . S
C1415 C1412 1.511 . S
C1415 H1429 0.961 . S
C1415 H1430 0.961 . S
C1415 H1431 0.961 . S
C1416 C1417 1.370 . S
C1416 C1418 1.363 . S
C1416 H1432 0.931 . S
C1417 C1416 1.370 . S
C1417 C1421 1.408 . S
C1418 C1416 1.363 . S
C1418 C1419 1.370 . S
C1418 C1422 1.524 . S
C1419 C1411 1.503 . S
C1419 C1418 1.370 . S
C1419 C1420 1.403 . S
C1420 C1419 1.403 . S
C1420 C1421 1.404 . S
C1420 C1423 1.539 . S
C1421 C1417 1.408 . S
C1421 C1420 1.404 . S
C1421 H1433 0.930 . S
C1422 C1418 1.524 . S
C1422 H1434 0.956 . S
C1422 H1435 0.961 . S
C1422 H1436 0.961 . S
C1423 C1420 1.539 . S
C1423 H1437 0.958 . S
C1423 H1438 0.961 . S
C1423 H1439 0.960 . S
H1424 C1408 0.931 . S
H1425 C1413 0.929 . S
H1426 C1414 0.960 . S
H1427 C1414 0.962 . S
H1428 C1414 0.960 . S
H1429 C1415 0.961 . S
H1430 C1415 0.961 . S
H1431 C1415 0.961 . S
H1432 C1416 0.931 . S
H1433 C1421 0.930 . S
H1434 C1422 0.956 . S
H1435 C1422 0.961 . S
H1436 C1422 0.961 . S
H1437 C1423 0.958 . S
H1438 C1423 0.961 . S
H1439 C1423 0.960 . S
C1440 C1441 1.391 . S
C1440 C1442 1.394 . S
C1440 H1456 0.931 . S
C1441 C1440 1.391 . S
C1441 C1445 1.376 . S
C1442 C1440 1.394 . S
C1442 C1443 1.369 . S
C1442 C1446 1.531 . S
C1443 C1442 1.369 . S
C1443 C1444 1.410 . S
C1443 C1451 1.503 . S
C1444 C1443 1.410 . S
C1444 C1445 1.392 . S
C1444 C1447 1.511 . S
C1445 C1441 1.376 . S
C1445 C1444 1.392 . S
C1445 H1457 0.929 . S
C1446 C1442 1.531 . S
C1446 H1458 0.960 . S
C1446 H1459 0.962 . S
C1446 H1460 0.960 . S
C1447 C1444 1.511 . S
C1447 H1461 0.961 . S
C1447 H1462 0.961 . S
C1447 H1463 0.961 . S
C1448 C1449 1.370 . S
C1448 C1450 1.363 . S
C1448 H1464 0.931 . S
C1449 C1448 1.370 . S
C1449 C1453 1.408 . S
C1450 C1448 1.363 . S
C1450 C1451 1.370 . S
C1450 C1454 1.524 . S
C1451 C1443 1.503 . S
C1451 C1450 1.370 . S
C1451 C1452 1.403 . S
C1452 C1451 1.403 . S
C1452 C1453 1.404 . S
C1452 C1455 1.539 . S
C1453 C1449 1.408 . S
C1453 C1452 1.404 . S
C1453 H1465 0.930 . S
C1454 C1450 1.524 . S
C1454 H1466 0.956 . S
C1454 H1467 0.961 . S
C1454 H1468 0.961 . S
C1455 C1452 1.539 . S
C1455 H1469 0.958 . S
C1455 H1470 0.961 . S
C1455 H1471 0.960 . S
H1456 C1440 0.931 . S
H1457 C1445 0.929 . S
H1458 C1446 0.960 . S
H1459 C1446 0.962 . S
H1460 C1446 0.960 . S
H1461 C1447 0.961 . S
H1462 C1447 0.961 . S
H1463 C1447 0.961 . S
H1464 C1448 0.931 . S
H1465 C1453 0.930 . S
H1466 C1454 0.956 . S
H1467 C1454 0.961 . S
H1468 C1454 0.961 . S
H1469 C1455 0.958 . S
H1470 C1455 0.961 . S
H1471 C1455 0.960 . S
C1472 C1473 1.391 . S
C1472 C1474 1.394 . S
C1472 H1488 0.931 . S
C1473 C1472 1.391 . S
C1473 C1477 1.376 . S
C1474 C1472 1.394 . S
C1474 C1475 1.369 . S
C1474 C1478 1.531 . S
C1475 C1474 1.369 . S
C1475 C1476 1.410 . S
C1475 C1483 1.503 . S
C1476 C1475 1.410 . S
C1476 C1477 1.392 . S
C1476 C1479 1.511 . S
C1477 C1473 1.376 . S
C1477 C1476 1.392 . S
C1477 H1489 0.929 . S
C1478 C1474 1.531 . S
C1478 H1490 0.960 . S
C1478 H1491 0.962 . S
C1478 H1492 0.960 . S
C1479 C1476 1.511 . S
C1479 H1493 0.961 . S
C1479 H1494 0.961 . S
C1479 H1495 0.961 . S
C1480 C1481 1.370 . S
C1480 C1482 1.363 . S
C1480 H1496 0.931 . S
C1481 C1480 1.370 . S
C1481 C1485 1.408 . S
C1482 C1480 1.363 . S
C1482 C1483 1.370 . S
C1482 C1486 1.524 . S
C1483 C1475 1.503 . S
C1483 C1482 1.370 . S
C1483 C1484 1.403 . S
C1484 C1483 1.403 . S
C1484 C1485 1.404 . S
C1484 C1487 1.539 . S
C1485 C1481 1.408 . S
C1485 C1484 1.404 . S
C1485 H1497 0.930 . S
C1486 C1482 1.524 . S
C1486 H1498 0.956 . S
C1486 H1499 0.961 . S
C1486 H1500 0.961 . S
C1487 C1484 1.539 . S
C1487 H1501 0.958 . S
C1487 H1502 0.961 . S
C1487 H1503 0.960 . S
H1488 C1472 0.931 . S
H1489 C1477 0.929 . S
H1490 C1478 0.960 . S
H1491 C1478 0.962 . S
H1492 C1478 0.960 . S
H1493 C1479 0.961 . S
H1494 C1479 0.961 . S
H1495 C1479 0.961 . S
H1496 C1480 0.931 . S
H1497 C1485 0.930 . S
H1498 C1486 0.956 . S
H1499 C1486 0.961 . S
H1500 C1486 0.961 . S
H1501 C1487 0.958 . S
H1502 C1487 0.961 . S
H1503 C1487 0.960 . S
C1504 C1505 1.391 1_545 S
C1504 C1506 1.394 . S
C1504 H1520 0.931 . S
C1505 C1504 1.391 1_565 S
C1505 C1509 1.376 . S
C1506 C1504 1.394 . S
C1506 C1507 1.352 1_545 S
C1506 C1510 1.531 1_455 S
C1507 C1506 1.352 1_565 S
C1507 C1508 1.438 . S
C1507 C1515 1.495 1_465 S
C1508 C1507 1.438 . S
C1508 C1509 1.392 . S
C1508 C1511 1.511 . S
C1509 C1505 1.376 . S
C1509 C1508 1.392 . S
C1509 H1521 0.929 . S
C1510 C1506 1.531 1_655 S
C1510 H1522 0.960 . S
C1510 H1523 0.962 . S
C1510 H1524 0.960 . S
C1511 C1508 1.511 . S
C1511 H1525 0.961 . S
C1511 H1526 0.961 . S
C1511 H1527 0.961 . S
C1512 C1513 1.370 . S
C1512 C1514 1.363 1_545 S
C1512 H1528 0.931 1_545 S
C1513 C1512 1.370 . S
C1513 C1517 1.408 1_655 S
C1514 C1512 1.363 1_565 S
C1514 C1515 1.370 1_565 S
C1514 C1518 1.524 . S
C1515 C1507 1.495 1_645 S
C1515 C1514 1.370 1_545 S
C1515 C1516 1.403 1_655 S
C1516 C1515 1.403 1_455 S
C1516 C1517 1.404 . S
C1516 C1519 1.539 . S
C1517 C1513 1.408 1_455 S
C1517 C1516 1.404 . S
C1517 H1529 0.930 . S
C1518 C1514 1.524 . S
C1518 H1530 0.956 . S
C1518 H1531 0.961 . S
C1518 H1532 0.961 . S
C1519 C1516 1.539 . S
C1519 H1533 0.958 . S
C1519 H1534 0.961 . S
C1519 H1535 0.960 . S
H1520 C1504 0.931 . S
H1521 C1509 0.929 . S
H1522 C1510 0.960 . S
H1523 C1510 0.962 . S
H1524 C1510 0.960 . S
H1525 C1511 0.961 . S
H1526 C1511 0.961 . S
H1527 C1511 0.961 . S
H1528 C1512 0.931 1_565 S
H1529 C1517 0.930 . S
H1530 C1518 0.956 . S
H1531 C1518 0.961 . S
H1532 C1518 0.961 . S
H1533 C1519 0.958 . S
H1534 C1519 0.961 . S
H1535 C1519 0.960 . S
C1536 C1537 1.391 . S
C1536 C1538 1.394 . S
C1536 H1552 0.931 . S
C1537 C1536 1.391 . S
C1537 C1541 1.376 . S
C1538 C1536 1.394 . S
C1538 C1539 1.369 . S
C1538 C1542 1.531 . S
C1539 C1538 1.369 . S
C1539 C1540 1.410 . S
C1539 C1547 1.503 . S
C1540 C1539 1.410 . S
C1540 C1541 1.392 . S
C1540 C1543 1.511 . S
C1541 C1537 1.376 . S
C1541 C1540 1.392 . S
C1541 H1553 0.929 . S
C1542 C1538 1.531 . S
C1542 H1554 0.960 . S
C1542 H1555 0.962 . S
C1542 H1556 0.960 . S
C1543 C1540 1.511 . S
C1543 H1557 0.961 . S
C1543 H1558 0.961 . S
C1543 H1559 0.961 . S
C1544 C1545 1.370 . S
C1544 C1546 1.363 . S
C1544 H1560 0.931 . S
C1545 C1544 1.370 . S
C1545 C1549 1.408 . S
C1546 C1544 1.363 . S
C1546 C1547 1.370 . S
C1546 C1550 1.524 . S
C1547 C1539 1.503 . S
C1547 C1546 1.370 . S
C1547 C1548 1.403 . S
C1548 C1547 1.403 . S
C1548 C1549 1.404 . S
C1548 C1551 1.539 . S
C1549 C1545 1.408 . S
C1549 C1548 1.404 . S
C1549 H1561 0.930 . S
C1550 C1546 1.524 . S
C1550 H1562 0.956 . S
C1550 H1563 0.961 . S
C1550 H1564 0.961 . S
C1551 C1548 1.539 . S
C1551 H1565 0.958 . S
C1551 H1566 0.961 . S
C1551 H1567 0.960 . S
H1552 C1536 0.931 . S
H1553 C1541 0.929 . S
H1554 C1542 0.960 . S
H1555 C1542 0.962 . S
H1556 C1542 0.960 . S
H1557 C1543 0.961 . S
H1558 C1543 0.961 . S
H1559 C1543 0.961 . S
H1560 C1544 0.931 . S
H1561 C1549 0.930 . S
H1562 C1550 0.956 . S
H1563 C1550 0.961 . S
H1564 C1550 0.961 . S
H1565 C1551 0.958 . S
H1566 C1551 0.961 . S
H1567 C1551 0.960 . S
C1568 C1569 1.391 . S
C1568 C1570 1.394 . S
C1568 H1584 0.931 . S
C1569 C1568 1.391 . S
C1569 C1573 1.376 . S
C1570 C1568 1.394 . S
C1570 C1571 1.369 1_545 S
C1570 C1574 1.531 . S
C1571 C1570 1.369 1_565 S
C1571 C1572 1.410 . S
C1571 C1579 1.503 1_554 S
C1572 C1571 1.410 . S
C1572 C1573 1.392 1_565 S
C1572 C1575 1.489 1_554 S
C1573 C1569 1.376 . S
C1573 C1572 1.392 1_545 S
C1573 H1585 0.929 . S
C1574 C1570 1.531 . S
C1574 H1586 0.960 1_545 S
C1574 H1587 0.962 . S
C1574 H1588 0.960 . S
C1575 C1572 1.489 1_556 S
C1575 H1589 0.956 1_556 S
C1575 H1590 0.991 . S
C1575 H1591 0.957 1_556 S
C1576 C1577 1.370 1_545 S
C1576 C1578 1.363 . S
C1576 H1592 0.931 . S
C1577 C1576 1.370 1_565 S
C1577 C1581 1.408 . S
C1578 C1576 1.363 . S
C1578 C1579 1.370 1_545 S
C1578 C1582 1.524 . S
C1579 C1571 1.503 1_556 S
C1579 C1578 1.370 1_565 S
C1579 C1580 1.403 . S
C1580 C1579 1.403 . S
C1580 C1581 1.404 . S
C1580 C1583 1.539 1_556 S
C1581 C1577 1.408 . S
C1581 C1580 1.404 . S
C1581 H1593 0.930 . S
C1582 C1578 1.524 . S
C1582 H1594 0.956 . S
C1582 H1595 0.961 . S
C1582 H1596 0.961 . S
C1583 C1580 1.539 1_554 S
C1583 H1597 0.958 . S
C1583 H1598 0.961 1_554 S
C1583 H1599 0.960 . S
H1584 C1568 0.931 . S
H1585 C1573 0.929 . S
H1586 C1574 0.960 1_565 S
H1587 C1574 0.962 . S
H1588 C1574 0.960 . S
H1589 C1575 0.956 1_554 S
H1590 C1575 0.991 . S
H1591 C1575 0.957 1_554 S
H1592 C1576 0.931 . S
H1593 C1581 0.930 . S
H1594 C1582 0.956 . S
H1595 C1582 0.961 . S
H1596 C1582 0.961 . S
H1597 C1583 0.958 . S
H1598 C1583 0.961 1_556 S
H1599 C1583 0.960 . S
C1600 C1601 1.391 . S
C1600 C1602 1.394 . S
C1600 H1616 0.931 . S
C1601 C1600 1.391 . S
C1601 C1605 1.376 . S
C1602 C1600 1.394 . S
C1602 C1603 1.369 . S
C1602 C1606 1.531 . S
C1603 C1602 1.369 . S
C1603 C1604 1.410 . S
C1603 C1611 1.503 . S
C1604 C1603 1.410 . S
C1604 C1605 1.392 . S
C1604 C1607 1.511 . S
C1605 C1601 1.376 . S
C1605 C1604 1.392 . S
C1605 H1617 0.929 . S
C1606 C1602 1.531 . S
C1606 H1618 0.960 . S
C1606 H1619 0.962 . S
C1606 H1620 0.960 . S
C1607 C1604 1.511 . S
C1607 H1621 0.961 . S
C1607 H1622 0.961 . S
C1607 H1623 0.961 . S
C1608 C1609 1.370 . S
C1608 C1610 1.363 . S
C1608 H1624 0.931 . S
C1609 C1608 1.370 . S
C1609 C1613 1.408 . S
C1610 C1608 1.363 . S
C1610 C1611 1.370 . S
C1610 C1614 1.524 . S
C1611 C1603 1.503 . S
C1611 C1610 1.370 . S
C1611 C1612 1.403 . S
C1612 C1611 1.403 . S
C1612 C1613 1.404 . S
C1612 C1615 1.539 . S
C1613 C1609 1.408 . S
C1613 C1612 1.404 . S
C1613 H1625 0.930 . S
C1614 C1610 1.524 . S
C1614 H1626 0.956 . S
C1614 H1627 0.961 . S
C1614 H1628 0.961 . S
C1615 C1612 1.539 . S
C1615 H1629 0.958 . S
C1615 H1630 0.961 . S
C1615 H1631 0.960 . S
H1616 C1600 0.931 . S
H1617 C1605 0.929 . S
H1618 C1606 0.960 . S
H1619 C1606 0.962 . S
H1620 C1606 0.960 . S
H1621 C1607 0.961 . S
H1622 C1607 0.961 . S
H1623 C1607 0.961 . S
H1624 C1608 0.931 . S
H1625 C1613 0.930 . S
H1626 C1614 0.956 . S
H1627 C1614 0.961 . S
H1628 C1614 0.961 . S
H1629 C1615 0.958 . S
H1630 C1615 0.961 . S
H1631 C1615 0.960 . S
C1632 C1633 1.391 1_545 S
C1632 C1634 1.394 . S
C1632 H1648 0.931 . S
C1633 C1632 1.391 1_565 S
C1633 C1637 1.376 . S
C1634 C1632 1.394 . S
C1634 C1635 1.369 1_545 S
C1634 C1638 1.531 . S
C1635 C1634 1.369 1_565 S
C1635 C1636 1.410 . S
C1635 C1643 1.503 1_565 S
C1636 C1635 1.410 . S
C1636 C1637 1.392 . S
C1636 C1639 1.511 . S
C1637 C1633 1.376 . S
C1637 C1636 1.392 . S
C1637 H1649 0.929 . S
C1638 C1634 1.531 . S
C1638 H1650 0.960 . S
C1638 H1651 0.962 . S
C1638 H1652 0.960 . S
C1639 C1636 1.511 . S
C1639 H1653 0.961 . S
C1639 H1654 0.961 . S
C1639 H1655 0.961 . S
C1640 C1641 1.370 . S
C1640 C1642 1.363 . S
C1640 H1656 0.931 . S
C1641 C1640 1.370 . S
C1641 C1645 1.408 . S
C1642 C1640 1.363 . S
C1642 C1643 1.370 . S
C1642 C1646 1.524 . S
C1643 C1635 1.503 1_545 S
C1643 C1642 1.370 . S
C1643 C1644 1.403 1_545 S
C1644 C1643 1.403 1_565 S
C1644 C1645 1.404 1_565 S
C1644 C1647 1.539 . S
C1645 C1641 1.408 . S
C1645 C1644 1.404 1_545 S
C1645 H1657 0.938 . S
C1646 C1642 1.524 . S
C1646 H1658 0.956 . S
C1646 H1659 0.961 . S
C1646 H1660 0.961 . S
C1647 C1644 1.539 . S
C1647 H1661 0.958 . S
C1647 H1662 0.961 . S
C1647 H1663 0.960 . S
H1648 C1632 0.931 . S
H1649 C1637 0.929 . S
H1650 C1638 0.960 . S
H1651 C1638 0.962 . S
H1652 C1638 0.960 . S
H1653 C1639 0.961 . S
H1654 C1639 0.961 . S
H1655 C1639 0.961 . S
H1656 C1640 0.931 . S
H1657 C1645 0.938 . S
H1658 C1646 0.956 . S
H1659 C1646 0.961 . S
H1660 C1646 0.961 . S
H1661 C1647 0.958 . S
H1662 C1647 0.961 . S
H1663 C1647 0.960 . S
C1664 C1665 1.391 . S
C1664 C1666 1.394 . S
C1664 H1680 0.931 . S
C1665 C1664 1.391 . S
C1665 C1669 1.376 . S
C1666 C1664 1.394 . S
C1666 C1667 1.369 . S
C1666 C1670 1.531 . S
C1667 C1666 1.369 . S
C1667 C1668 1.410 . S
C1667 C1675 1.503 . S
C1668 C1667 1.410 . S
C1668 C1669 1.392 . S
C1668 C1671 1.511 . S
C1669 C1665 1.376 . S
C1669 C1668 1.392 . S
C1669 H1681 0.929 . S
C1670 C1666 1.531 . S
C1670 H1682 0.960 . S
C1670 H1683 0.962 . S
C1670 H1684 0.960 . S
C1671 C1668 1.511 . S
C1671 H1685 0.961 . S
C1671 H1686 0.961 . S
C1671 H1687 0.961 . S
C1672 C1673 1.370 . S
C1672 C1674 1.363 . S
C1672 H1688 0.931 . S
C1673 C1672 1.370 . S
C1673 C1677 1.408 . S
C1674 C1672 1.363 . S
C1674 C1675 1.370 . S
C1674 C1678 1.524 . S
C1675 C1667 1.503 . S
C1675 C1674 1.370 . S
C1675 C1676 1.403 . S
C1676 C1675 1.403 . S
C1676 C1677 1.404 . S
C1676 C1679 1.539 . S
C1677 C1673 1.408 . S
C1677 C1676 1.404 . S
C1677 H1689 0.930 . S
C1678 C1674 1.524 . S
C1678 H1690 0.956 . S
C1678 H1691 0.961 . S
C1678 H1692 0.961 . S
C1679 C1676 1.539 . S
C1679 H1693 0.958 . S
C1679 H1694 0.961 . S
C1679 H1695 0.960 . S
H1680 C1664 0.931 . S
H1681 C1669 0.929 . S
H1682 C1670 0.960 . S
H1683 C1670 0.962 . S
H1684 C1670 0.960 . S
H1685 C1671 0.961 . S
H1686 C1671 0.961 . S
H1687 C1671 0.961 . S
H1688 C1672 0.931 . S
H1689 C1677 0.930 . S
H1690 C1678 0.956 . S
H1691 C1678 0.961 . S
H1692 C1678 0.961 . S
H1693 C1679 0.958 . S
H1694 C1679 0.961 . S
H1695 C1679 0.960 . S
C1696 C1697 1.391 1_565 S
C1696 C1698 1.394 . S
C1696 H1712 0.931 . S
C1697 C1696 1.391 1_545 S
C1697 C1701 1.376 . S
C1698 C1696 1.394 . S
C1698 C1699 1.369 1_565 S
C1698 C1702 1.531 1_455 S
C1699 C1698 1.369 1_545 S
C1699 C1700 1.410 . S
C1699 C1707 1.503 1_446 S
C1700 C1699 1.410 . S
C1700 C1701 1.392 . S
C1700 C1703 1.511 1_556 S
C1701 C1697 1.376 . S
C1701 C1700 1.392 . S
C1701 H1713 0.929 . S
C1702 C1698 1.531 1_655 S
C1702 H1714 0.960 . S
C1702 H1715 0.962 . S
C1702 H1716 0.961 1_655 S
C1703 C1700 1.511 1_554 S
C1703 H1717 0.961 . S
C1703 H1718 0.961 . S
C1703 H1719 0.961 . S
C1704 C1705 1.370 . S
C1704 C1706 1.353 1_565 S
C1704 H1720 0.931 . S
C1705 C1704 1.370 . S
C1705 C1709 1.408 1_655 S
C1706 C1704 1.353 1_545 S
C1706 C1707 1.360 1_545 S
C1706 C1710 1.567 . S
C1707 C1699 1.503 1_664 S
C1707 C1706 1.360 1_565 S
C1707 C1708 1.403 1_655 S
C1708 C1707 1.403 1_455 S
C1708 C1709 1.404 . S
C1708 C1711 1.539 . S
C1709 C1705 1.408 1_455 S
C1709 C1708 1.404 . S
C1709 H1721 0.930 . S
C1710 C1706 1.567 . S
C1710 H1722 0.928 1_554 S
C1710 H1723 0.953 1_554 S
C1710 H1724 0.976 . S
C1711 C1708 1.539 . S
C1711 H1725 0.958 . S
C1711 H1726 0.961 . S
C1711 H1727 0.960 . S
H1712 C1696 0.931 . S
H1713 C1701 0.929 . S
H1714 C1702 0.960 . S
H1715 C1702 0.962 . S
H1716 C1702 0.961 1_455 S
H1717 C1703 0.961 . S
H1718 C1703 0.961 . S
H1719 C1703 0.961 . S
H1720 C1704 0.931 . S
H1721 C1709 0.930 . S
H1722 C1710 0.928 1_556 S
H1723 C1710 0.953 1_556 S
H1724 C1710 0.976 . S
H1725 C1711 0.958 . S
H1726 C1711 0.961 . S
H1727 C1711 0.960 . S
C1728 C1729 1.391 . S
C1728 C1730 1.394 . S
C1728 H1744 0.931 . S
C1729 C1728 1.391 . S
C1729 C1733 1.376 . S
C1730 C1728 1.394 . S
C1730 C1731 1.369 . S
C1730 C1734 1.531 . S
C1731 C1730 1.369 . S
C1731 C1732 1.410 . S
C1731 C1739 1.503 . S
C1732 C1731 1.410 . S
C1732 C1733 1.392 . S
C1732 C1735 1.511 . S
C1733 C1729 1.376 . S
C1733 C1732 1.392 . S
C1733 H1745 0.929 . S
C1734 C1730 1.531 . S
C1734 H1746 0.960 . S
C1734 H1747 0.962 . S
C1734 H1748 0.960 . S
C1735 C1732 1.511 . S
C1735 H1749 0.961 . S
C1735 H1750 0.961 . S
C1735 H1751 0.961 . S
C1736 C1737 1.370 . S
C1736 C1738 1.363 . S
C1736 H1752 0.931 . S
C1737 C1736 1.370 . S
C1737 C1741 1.408 . S
C1738 C1736 1.363 . S
C1738 C1739 1.370 . S
C1738 C1742 1.524 . S
C1739 C1731 1.503 . S
C1739 C1738 1.370 . S
C1739 C1740 1.403 . S
C1740 C1739 1.403 . S
C1740 C1741 1.404 . S
C1740 C1743 1.539 . S
C1741 C1737 1.408 . S
C1741 C1740 1.404 . S
C1741 H1753 0.930 . S
C1742 C1738 1.524 . S
C1742 H1754 0.956 . S
C1742 H1755 0.961 . S
C1742 H1756 0.961 . S
C1743 C1740 1.539 . S
C1743 H1757 0.958 . S
C1743 H1758 0.961 . S
C1743 H1759 0.960 . S
H1744 C1728 0.931 . S
H1745 C1733 0.929 . S
H1746 C1734 0.960 . S
H1747 C1734 0.962 . S
H1748 C1734 0.960 . S
H1749 C1735 0.961 . S
H1750 C1735 0.961 . S
H1751 C1735 0.961 . S
H1752 C1736 0.931 . S
H1753 C1741 0.930 . S
H1754 C1742 0.956 . S
H1755 C1742 0.961 . S
H1756 C1742 0.961 . S
H1757 C1743 0.958 . S
H1758 C1743 0.961 . S
H1759 C1743 0.960 . S
C1760 C1761 1.391 . S
C1760 C1762 1.394 . S
C1760 H1776 0.931 . S
C1761 C1760 1.391 . S
C1761 C1765 1.376 . S
C1762 C1760 1.394 . S
C1762 C1763 1.369 . S
C1762 C1766 1.531 . S
C1763 C1762 1.369 . S
C1763 C1764 1.410 . S
C1763 C1771 1.503 . S
C1764 C1763 1.410 . S
C1764 C1765 1.392 . S
C1764 C1767 1.511 . S
C1765 C1761 1.376 . S
C1765 C1764 1.392 . S
C1765 H1777 0.929 . S
C1766 C1762 1.531 . S
C1766 H1778 0.960 . S
C1766 H1779 0.962 . S
C1766 H1780 0.960 . S
C1767 C1764 1.511 . S
C1767 H1781 0.961 . S
C1767 H1782 0.961 . S
C1767 H1783 0.961 . S
C1768 C1769 1.370 . S
C1768 C1770 1.363 . S
C1768 H1784 0.931 . S
C1769 C1768 1.370 . S
C1769 C1773 1.408 . S
C1770 C1768 1.363 . S
C1770 C1771 1.370 . S
C1770 C1774 1.524 . S
C1771 C1763 1.503 . S
C1771 C1770 1.370 . S
C1771 C1772 1.403 . S
C1772 C1771 1.403 . S
C1772 C1773 1.404 . S
C1772 C1775 1.539 . S
C1773 C1769 1.408 . S
C1773 C1772 1.404 . S
C1773 H1785 0.930 . S
C1774 C1770 1.524 . S
C1774 H1786 0.956 . S
C1774 H1787 0.961 . S
C1774 H1788 0.961 . S
C1775 C1772 1.539 . S
C1775 H1789 0.958 . S
C1775 H1790 0.961 . S
C1775 H1791 0.960 . S
H1776 C1760 0.931 . S
H1777 C1765 0.929 . S
H1778 C1766 0.960 . S
H1779 C1766 0.962 . S
H1780 C1766 0.960 . S
H1781 C1767 0.961 . S
H1782 C1767 0.961 . S
H1783 C1767 0.961 . S
H1784 C1768 0.931 . S
H1785 C1773 0.930 . S
H1786 C1774 0.956 . S
H1787 C1774 0.961 . S
H1788 C1774 0.961 . S
H1789 C1775 0.958 . S
H1790 C1775 0.961 . S
H1791 C1775 0.960 . S
C1792 C1793 1.391 . S
C1792 C1794 1.394 . S
C1792 H1808 0.931 . S
C1793 C1792 1.391 . S
C1793 C1797 1.376 . S
C1794 C1792 1.394 . S
C1794 C1795 1.369 . S
C1794 C1798 1.531 . S
C1795 C1794 1.369 . S
C1795 C1796 1.410 . S
C1795 C1803 1.503 . S
C1796 C1795 1.410 . S
C1796 C1797 1.392 . S
C1796 C1799 1.511 . S
C1797 C1793 1.376 . S
C1797 C1796 1.392 . S
C1797 H1809 0.929 . S
C1798 C1794 1.531 . S
C1798 H1810 0.960 . S
C1798 H1811 0.962 . S
C1798 H1812 0.960 . S
C1799 C1796 1.511 . S
C1799 H1813 0.961 . S
C1799 H1814 0.961 . S
C1799 H1815 0.961 . S
C1800 C1801 1.370 . S
C1800 C1802 1.363 . S
C1800 H1816 0.931 . S
C1801 C1800 1.370 . S
C1801 C1805 1.408 . S
C1802 C1800 1.363 . S
C1802 C1803 1.370 . S
C1802 C1806 1.524 . S
C1803 C1795 1.503 . S
C1803 C1802 1.370 . S
C1803 C1804 1.403 . S
C1804 C1803 1.403 . S
C1804 C1805 1.404 . S
C1804 C1807 1.539 . S
C1805 C1801 1.408 . S
C1805 C1804 1.404 . S
C1805 H1817 0.930 . S
C1806 C1802 1.524 . S
C1806 H1818 0.956 . S
C1806 H1819 0.961 . S
C1806 H1820 0.961 . S
C1807 C1804 1.539 . S
C1807 H1821 0.958 . S
C1807 H1822 0.961 . S
C1807 H1823 0.960 . S
H1808 C1792 0.931 . S
H1809 C1797 0.929 . S
H1810 C1798 0.960 . S
H1811 C1798 0.962 . S
H1812 C1798 0.960 . S
H1813 C1799 0.961 . S
H1814 C1799 0.961 . S
H1815 C1799 0.961 . S
H1816 C1800 0.931 . S
H1817 C1805 0.930 . S
H1818 C1806 0.956 . S
H1819 C1806 0.961 . S
H1820 C1806 0.961 . S
H1821 C1807 0.958 . S
H1822 C1807 0.961 . S
H1823 C1807 0.960 . S
C1824 C1825 1.391 . S
C1824 C1826 1.394 . S
C1824 H1840 0.931 . S
C1825 C1824 1.391 . S
C1825 C1829 1.376 . S
C1826 C1824 1.394 . S
C1826 C1827 1.369 . S
C1826 C1830 1.531 . S
C1827 C1826 1.369 . S
C1827 C1828 1.410 . S
C1827 C1835 1.503 . S
C1828 C1827 1.410 . S
C1828 C1829 1.392 . S
C1828 C1831 1.511 . S
C1829 C1825 1.376 . S
C1829 C1828 1.392 . S
C1829 H1841 0.929 . S
C1830 C1826 1.531 . S
C1830 H1842 0.960 . S
C1830 H1843 0.962 . S
C1830 H1844 0.960 . S
C1831 C1828 1.511 . S
C1831 H1845 0.961 . S
C1831 H1846 0.961 . S
C1831 H1847 0.961 . S
C1832 C1833 1.370 . S
C1832 C1834 1.363 . S
C1832 H1848 0.931 . S
C1833 C1832 1.370 . S
C1833 C1837 1.408 . S
C1834 C1832 1.363 . S
C1834 C1835 1.370 . S
C1834 C1838 1.524 . S
C1835 C1827 1.503 . S
C1835 C1834 1.370 . S
C1835 C1836 1.403 . S
C1836 C1835 1.403 . S
C1836 C1837 1.404 . S
C1836 C1839 1.539 . S
C1837 C1833 1.408 . S
C1837 C1836 1.404 . S
C1837 H1849 0.930 . S
C1838 C1834 1.524 . S
C1838 H1850 0.956 . S
C1838 H1851 0.961 . S
C1838 H1852 0.961 . S
C1839 C1836 1.539 . S
C1839 H1853 0.958 . S
C1839 H1854 0.961 . S
C1839 H1855 0.960 . S
H1840 C1824 0.931 . S
H1841 C1829 0.929 . S
H1842 C1830 0.960 . S
H1843 C1830 0.962 . S
H1844 C1830 0.960 . S
H1845 C1831 0.961 . S
H1846 C1831 0.961 . S
H1847 C1831 0.961 . S
H1848 C1832 0.931 . S
H1849 C1837 0.930 . S
H1850 C1838 0.956 . S
H1851 C1838 0.961 . S
H1852 C1838 0.961 . S
H1853 C1839 0.958 . S
H1854 C1839 0.961 . S
H1855 C1839 0.960 . S
C1856 C1857 1.391 . S
C1856 C1858 1.394 . S
C1856 H1872 0.931 . S
C1857 C1856 1.391 . S
C1857 C1861 1.376 . S
C1858 C1856 1.394 . S
C1858 C1859 1.369 . S
C1858 C1862 1.531 . S
C1859 C1858 1.369 . S
C1859 C1860 1.410 . S
C1859 C1867 1.503 1_554 S
C1860 C1859 1.410 . S
C1860 C1861 1.392 . S
C1860 C1863 1.511 1_554 S
C1861 C1857 1.376 . S
C1861 C1860 1.392 . S
C1861 H1873 0.929 . S
C1862 C1858 1.531 . S
C1862 H1874 0.960 . S
C1862 H1875 0.962 . S
C1862 H1876 0.960 . S
C1863 C1860 1.511 1_556 S
C1863 H1877 0.961 1_556 S
C1863 H1878 0.961 . S
C1863 H1879 0.961 . S
C1864 C1865 1.370 . S
C1864 C1866 1.363 . S
C1864 H1880 0.931 . S
C1865 C1864 1.370 . S
C1865 C1869 1.408 . S
C1866 C1864 1.363 . S
C1866 C1867 1.370 . S
C1866 C1870 1.524 1_556 S
C1867 C1859 1.503 1_556 S
C1867 C1866 1.370 . S
C1867 C1868 1.403 . S
C1868 C1867 1.403 . S
C1868 C1869 1.404 . S
C1868 C1871 1.539 . S
C1869 C1865 1.408 . S
C1869 C1868 1.404 . S
C1869 H1881 0.930 . S
C1870 C1866 1.524 1_554 S
C1870 H1882 0.956 . S
C1870 H1883 0.961 . S
C1870 H1884 0.961 . S
C1871 C1868 1.539 . S
C1871 H1885 0.958 . S
C1871 H1886 0.961 . S
C1871 H1887 0.960 . S
H1872 C1856 0.931 . S
H1873 C1861 0.929 . S
H1874 C1862 0.960 . S
H1875 C1862 0.962 . S
H1876 C1862 0.960 . S
H1877 C1863 0.961 1_554 S
H1878 C1863 0.961 . S
H1879 C1863 0.961 . S
H1880 C1864 0.931 . S
H1881 C1869 0.930 . S
H1882 C1870 0.956 . S
H1883 C1870 0.961 . S
H1884 C1870 0.961 . S
H1885 C1871 0.958 . S
H1886 C1871 0.961 . S
H1887 C1871 0.960 . S
C1888 C1889 1.391 . S
C1888 C1890 1.394 1_455 S
C1888 H1904 0.931 1_455 S
C1889 C1888 1.391 . S
C1889 C1893 1.376 . S
C1890 C1888 1.394 1_655 S
C1890 C1891 1.369 1_655 S
C1890 C1894 1.531 . S
C1891 C1890 1.369 1_455 S
C1891 C1892 1.410 . S
C1891 C1899 1.503 1_455 S
C1892 C1891 1.410 . S
C1892 C1893 1.392 . S
C1892 C1895 1.511 . S
C1893 C1889 1.376 . S
C1893 C1892 1.392 . S
C1893 H1905 0.929 . S
C1894 C1890 1.531 . S
C1894 H1906 0.960 . S
C1894 H1907 0.962 . S
C1894 H1908 0.960 . S
C1895 C1892 1.511 . S
C1895 H1909 0.961 . S
C1895 H1910 0.961 . S
C1895 H1911 0.961 . S
C1896 C1897 1.370 . S
C1896 C1898 1.363 . S
C1896 H1912 0.931 . S
C1897 C1896 1.370 . S
C1897 C1901 1.408 . S
C1898 C1896 1.363 . S
C1898 C1899 1.370 . S
C1898 C1902 1.524 . S
C1899 C1891 1.503 1_655 S
C1899 C1898 1.370 . S
C1899 C1900 1.403 1_655 S
C1900 C1899 1.403 1_455 S
C1900 C1901 1.404 1_455 S
C1900 C1903 1.539 . S
C1901 C1897 1.408 . S
C1901 C1900 1.404 1_655 S
C1901 H1913 0.930 . S
C1902 C1898 1.524 . S
C1902 H1914 0.956 . S
C1902 H1915 0.961 . S
C1902 H1916 0.961 . S
C1903 C1900 1.539 . S
C1903 H1917 0.958 . S
C1903 H1918 0.961 . S
C1903 H1919 0.960 . S
H1904 C1888 0.931 1_655 S
H1905 C1893 0.929 . S
H1906 C1894 0.960 . S
H1907 C1894 0.962 . S
H1908 C1894 0.960 . S
H1909 C1895 0.961 . S
H1910 C1895 0.961 . S
H1911 C1895 0.961 . S
H1912 C1896 0.931 . S
H1913 C1901 0.930 . S
H1914 C1902 0.956 . S
H1915 C1902 0.961 . S
H1916 C1902 0.961 . S
H1917 C1903 0.958 . S
H1918 C1903 0.961 . S
H1919 C1903 0.960 . S
C1920 C1921 1.391 . S
C1920 C1922 1.394 1_455 S
C1920 H1936 0.931 1_455 S
C1921 C1920 1.391 . S
C1921 C1925 1.376 . S
C1922 C1920 1.394 1_655 S
C1922 C1923 1.369 1_655 S
C1922 C1926 1.531 . S
C1923 C1922 1.369 1_455 S
C1923 C1924 1.410 . S
C1923 C1931 1.503 1_454 S
C1924 C1923 1.410 . S
C1924 C1925 1.392 . S
C1924 C1927 1.524 . S
C1925 C1921 1.376 . S
C1925 C1924 1.392 . S
C1925 H1937 0.929 . S
C1926 C1922 1.531 . S
C1926 H1938 0.924 1_554 S
C1926 H1939 0.962 . S
C1926 H1940 0.960 . S
C1927 C1924 1.524 . S
C1927 H1941 0.972 . S
C1927 H1942 0.949 1_554 S
C1927 H1943 0.949 1_554 S
C1928 C1929 1.370 . S
C1928 C1930 1.363 . S
C1928 H1944 0.931 . S
C1929 C1928 1.370 . S
C1929 C1933 1.408 . S
C1930 C1928 1.363 . S
C1930 C1931 1.370 . S
C1930 C1934 1.524 1_556 S
C1931 C1923 1.503 1_656 S
C1931 C1930 1.370 . S
C1931 C1932 1.404 . S
C1932 C1931 1.404 . S
C1932 C1933 1.408 . S
C1932 C1935 1.533 1_655 S
C1933 C1929 1.408 . S
C1933 C1932 1.408 . S
C1933 H1945 0.930 . S
C1934 C1930 1.524 1_554 S
C1934 H1946 0.956 . S
C1934 H1947 0.961 . S
C1934 H1948 0.961 . S
C1935 C1932 1.533 1_455 S
C1935 H1949 0.958 . S
C1935 H1950 0.961 . S
C1935 H1951 0.960 . S
H1936 C1920 0.931 1_655 S
H1937 C1925 0.929 . S
H1938 C1926 0.924 1_556 S
H1939 C1926 0.962 . S
H1940 C1926 0.960 . S
H1941 C1927 0.972 . S
H1942 C1927 0.949 1_556 S
H1943 C1927 0.949 1_556 S
H1944 C1928 0.931 . S
H1945 C1933 0.930 . S
H1946 C1934 0.956 . S
H1947 C1934 0.961 . S
H1948 C1934 0.961 . S
H1949 C1935 0.958 . S
H1950 C1935 0.961 . S
H1951 C1935 0.960 . S
C1952 C1953 1.391 . S
C1952 C1954 1.394 . S
C1952 H1968 0.931 . S
C1953 C1952 1.391 . S
C1953 C1957 1.376 . S
C1954 C1952 1.394 . S
C1954 C1955 1.369 . S
C1954 C1958 1.531 . S
C1955 C1954 1.369 . S
C1955 C1956 1.410 . S
C1955 C1963 1.503 . S
C1956 C1955 1.410 . S
C1956 C1957 1.392 . S
C1956 C1959 1.511 . S
C1957 C1953 1.376 . S
C1957 C1956 1.392 . S
C1957 H1969 0.929 . S
C1958 C1954 1.531 . S
C1958 H1970 0.960 . S
C1958 H1971 0.962 . S
C1958 H1972 0.960 . S
C1959 C1956 1.511 . S
C1959 H1973 0.961 . S
C1959 H1974 0.961 . S
C1959 H1975 0.961 . S
C1960 C1961 1.370 . S
C1960 C1962 1.363 . S
C1960 H1976 0.931 . S
C1961 C1960 1.370 . S
C1961 C1965 1.408 . S
C1962 C1960 1.363 . S
C1962 C1963 1.370 . S
C1962 C1966 1.524 . S
C1963 C1955 1.503 . S
C1963 C1962 1.370 . S
C1963 C1964 1.403 . S
C1964 C1963 1.403 . S
C1964 C1965 1.404 . S
C1964 C1967 1.539 . S
C1965 C1961 1.408 . S
C1965 C1964 1.404 . S
C1965 H1977 0.930 . S
C1966 C1962 1.524 . S
C1966 H1978 0.956 . S
C1966 H1979 0.961 . S
C1966 H1980 0.961 . S
C1967 C1964 1.539 . S
C1967 H1981 0.958 . S
C1967 H1982 0.961 . S
C1967 H1983 0.960 . S
H1968 C1952 0.931 . S
H1969 C1957 0.929 . S
H1970 C1958 0.960 . S
H1971 C1958 0.962 . S
H1972 C1958 0.960 . S
H1973 C1959 0.961 . S
H1974 C1959 0.961 . S
H1975 C1959 0.961 . S
H1976 C1960 0.931 . S
H1977 C1965 0.930 . S
H1978 C1966 0.956 . S
H1979 C1966 0.961 . S
H1980 C1966 0.961 . S
H1981 C1967 0.958 . S
H1982 C1967 0.961 . S
H1983 C1967 0.960 . S
C1984 C1985 1.391 . S
C1984 C1986 1.394 . S
C1984 H2000 0.931 . S
C1985 C1984 1.391 . S
C1985 C1989 1.376 . S
C1986 C1984 1.394 . S
C1986 C1987 1.369 . S
C1986 C1990 1.531 . S
C1987 C1986 1.369 . S
C1987 C1988 1.410 . S
C1987 C1995 1.503 . S
C1988 C1987 1.410 . S
C1988 C1989 1.392 . S
C1988 C1991 1.511 . S
C1989 C1985 1.376 . S
C1989 C1988 1.392 . S
C1989 H2001 0.929 . S
C1990 C1986 1.531 . S
C1990 H2002 0.960 . S
C1990 H2003 0.962 . S
C1990 H2004 0.960 . S
C1991 C1988 1.511 . S
C1991 H2005 0.961 . S
C1991 H2006 0.961 . S
C1991 H2007 0.961 . S
C1992 C1993 1.370 . S
C1992 C1994 1.363 . S
C1992 H2008 0.931 . S
C1993 C1992 1.370 . S
C1993 C1997 1.408 . S
C1994 C1992 1.363 . S
C1994 C1995 1.370 . S
C1994 C1998 1.524 . S
C1995 C1987 1.503 . S
C1995 C1994 1.370 . S
C1995 C1996 1.403 . S
C1996 C1995 1.403 . S
C1996 C1997 1.404 . S
C1996 C1999 1.539 . S
C1997 C1993 1.408 . S
C1997 C1996 1.404 . S
C1997 H2009 0.930 1_545 S
C1998 C1994 1.524 . S
C1998 H2010 0.956 . S
C1998 H2011 0.961 . S
C1998 H2012 0.961 . S
C1999 C1996 1.539 . S
C1999 H2013 0.958 . S
C1999 H2014 0.961 1_545 S
C1999 H2015 0.960 . S
H2000 C1984 0.931 . S
H2001 C1989 0.929 . S
H2002 C1990 0.960 . S
H2003 C1990 0.962 . S
H2004 C1990 0.960 . S
H2005 C1991 0.961 . S
H2006 C1991 0.961 . S
H2007 C1991 0.961 . S
H2008 C1992 0.931 . S
H2009 C1997 0.930 1_565 S
H2010 C1998 0.956 . S
H2011 C1998 0.961 . S
H2012 C1998 0.961 . S
H2013 C1999 0.958 . S
H2014 C1999 0.961 1_565 S
H2015 C1999 0.960 . S
C2016 C2017 1.391 . S
C2016 C2018 1.394 . S
C2016 H2032 0.931 . S
C2017 C2016 1.391 . S
C2017 C2021 1.376 . S
C2018 C2016 1.394 . S
C2018 C2019 1.369 . S
C2018 C2022 1.531 . S
C2019 C2018 1.369 . S
C2019 C2020 1.410 . S
C2019 C2027 1.503 . S
C2020 C2019 1.410 . S
C2020 C2021 1.392 . S
C2020 C2023 1.511 . S
C2021 C2017 1.376 . S
C2021 C2020 1.392 . S
C2021 H2033 0.929 . S
C2022 C2018 1.531 . S
C2022 H2034 0.960 . S
C2022 H2035 0.962 . S
C2022 H2036 0.960 . S
C2023 C2020 1.511 . S
C2023 H2037 0.961 . S
C2023 H2038 0.961 . S
C2023 H2039 0.961 . S
C2024 C2025 1.370 . S
C2024 C2026 1.363 . S
C2024 H2040 0.931 . S
C2025 C2024 1.370 . S
C2025 C2029 1.408 . S
C2026 C2024 1.363 . S
C2026 C2027 1.370 . S
C2026 C2030 1.524 . S
C2027 C2019 1.503 . S
C2027 C2026 1.370 . S
C2027 C2028 1.403 . S
C2028 C2027 1.403 . S
C2028 C2029 1.404 . S
C2028 C2031 1.539 . S
C2029 C2025 1.408 . S
C2029 C2028 1.404 . S
C2029 H2041 0.930 . S
C2030 C2026 1.524 . S
C2030 H2042 0.956 . S
C2030 H2043 0.961 . S
C2030 H2044 0.961 . S
C2031 C2028 1.539 . S
C2031 H2045 0.958 . S
C2031 H2046 0.961 . S
C2031 H2047 0.960 . S
H2032 C2016 0.931 . S
H2033 C2021 0.929 . S
H2034 C2022 0.960 . S
H2035 C2022 0.962 . S
H2036 C2022 0.960 . S
H2037 C2023 0.961 . S
H2038 C2023 0.961 . S
H2039 C2023 0.961 . S
H2040 C2024 0.931 . S
H2041 C2029 0.930 . S
H2042 C2030 0.956 . S
H2043 C2030 0.961 . S
H2044 C2030 0.961 . S
H2045 C2031 0.958 . S
H2046 C2031 0.961 . S
H2047 C2031 0.960 . S
C2048 C2049 1.391 . S
C2048 C2050 1.394 . S
C2048 H2064 0.931 . S
C2049 C2048 1.391 . S
C2049 C2053 1.376 . S
C2050 C2048 1.394 . S
C2050 C2051 1.369 . S
C2050 C2054 1.531 . S
C2051 C2050 1.369 . S
C2051 C2052 1.410 . S
C2051 C2059 1.503 . S
C2052 C2051 1.410 . S
C2052 C2053 1.392 . S
C2052 C2055 1.511 . S
C2053 C2049 1.376 . S
C2053 C2052 1.392 . S
C2053 H2065 0.929 . S
C2054 C2050 1.531 . S
C2054 H2066 0.960 . S
C2054 H2067 0.962 . S
C2054 H2068 0.960 . S
C2055 C2052 1.511 . S
C2055 H2069 0.961 . S
C2055 H2070 0.961 . S
C2055 H2071 0.961 . S
C2056 C2057 1.370 . S
C2056 C2058 1.363 . S
C2056 H2072 0.931 . S
C2057 C2056 1.370 . S
C2057 C2061 1.408 . S
C2058 C2056 1.363 . S
C2058 C2059 1.370 . S
C2058 C2062 1.524 . S
C2059 C2051 1.503 . S
C2059 C2058 1.370 . S
C2059 C2060 1.403 . S
C2060 C2059 1.403 . S
C2060 C2061 1.404 . S
C2060 C2063 1.539 . S
C2061 C2057 1.408 . S
C2061 C2060 1.404 . S
C2061 H2073 0.930 . S
C2062 C2058 1.524 . S
C2062 H2074 0.956 . S
C2062 H2075 0.961 . S
C2062 H2076 0.961 . S
C2063 C2060 1.539 . S
C2063 H2077 0.958 . S
C2063 H2078 0.961 . S
C2063 H2079 0.960 . S
H2064 C2048 0.931 . S
H2065 C2053 0.929 . S
H2066 C2054 0.960 . S
H2067 C2054 0.962 . S
H2068 C2054 0.960 . S
H2069 C2055 0.961 . S
H2070 C2055 0.961 . S
H2071 C2055 0.961 . S
H2072 C2056 0.931 . S
H2073 C2061 0.930 . S
H2074 C2062 0.956 . S
H2075 C2062 0.961 . S
H2076 C2062 0.961 . S
H2077 C2063 0.958 . S
H2078 C2063 0.961 . S
H2079 C2063 0.960 . S
C2080 C2081 1.391 . S
C2080 C2082 1.394 . S
C2080 H2096 0.931 . S
C2081 C2080 1.391 . S
C2081 C2085 1.376 . S
C2082 C2080 1.394 . S
C2082 C2083 1.369 . S
C2082 C2086 1.531 . S
C2083 C2082 1.369 . S
C2083 C2084 1.410 . S
C2083 C2091 1.503 . S
C2084 C2083 1.410 . S
C2084 C2085 1.392 . S
C2084 C2087 1.511 . S
C2085 C2081 1.376 . S
C2085 C2084 1.392 . S
C2085 H2097 0.929 . S
C2086 C2082 1.531 . S
C2086 H2098 0.960 . S
C2086 H2099 0.962 . S
C2086 H2100 0.960 . S
C2087 C2084 1.511 . S
C2087 H2101 0.961 . S
C2087 H2102 0.961 . S
C2087 H2103 0.961 . S
C2088 C2089 1.370 . S
C2088 C2090 1.363 . S
C2088 H2104 0.931 1_565 S
C2089 C2088 1.370 . S
C2089 C2093 1.408 . S
C2090 C2088 1.363 . S
C2090 C2091 1.370 . S
C2090 C2094 1.524 . S
C2091 C2083 1.503 . S
C2091 C2090 1.370 . S
C2091 C2092 1.403 . S
C2092 C2091 1.403 . S
C2092 C2093 1.404 . S
C2092 C2095 1.539 . S
C2093 C2089 1.408 . S
C2093 C2092 1.404 . S
C2093 H2105 0.930 . S
C2094 C2090 1.524 . S
C2094 H2106 0.956 . S
C2094 H2107 0.961 . S
C2094 H2108 0.961 . S
C2095 C2092 1.539 . S
C2095 H2109 0.958 . S
C2095 H2110 0.961 . S
C2095 H2111 0.960 . S
H2096 C2080 0.931 . S
H2097 C2085 0.929 . S
H2098 C2086 0.960 . S
H2099 C2086 0.962 . S
H2100 C2086 0.960 . S
H2101 C2087 0.961 . S
H2102 C2087 0.961 . S
H2103 C2087 0.961 . S
H2104 C2088 0.931 1_545 S
H2105 C2093 0.930 . S
H2106 C2094 0.956 . S
H2107 C2094 0.961 . S
H2108 C2094 0.961 . S
H2109 C2095 0.958 . S
H2110 C2095 0.961 . S
H2111 C2095 0.960 . S
C2112 C2113 1.391 . S
C2112 C2114 1.394 . S
C2112 H2128 0.931 . S
C2113 C2112 1.391 . S
C2113 C2117 1.376 . S
C2114 C2112 1.394 . S
C2114 C2115 1.369 . S
C2114 C2118 1.531 . S
C2115 C2114 1.369 . S
C2115 C2116 1.410 . S
C2115 C2123 1.503 . S
C2116 C2115 1.410 . S
C2116 C2117 1.392 . S
C2116 C2119 1.511 . S
C2117 C2113 1.376 . S
C2117 C2116 1.392 . S
C2117 H2129 0.929 . S
C2118 C2114 1.531 . S
C2118 H2130 0.960 . S
C2118 H2131 0.962 . S
C2118 H2132 0.960 . S
C2119 C2116 1.511 . S
C2119 H2133 0.961 . S
C2119 H2134 0.961 . S
C2119 H2135 0.961 . S
C2120 C2121 1.370 . S
C2120 C2122 1.363 . S
C2120 H2136 0.931 . S
C2121 C2120 1.370 . S
C2121 C2125 1.408 . S
C2122 C2120 1.363 . S
C2122 C2123 1.370 . S
C2122 C2126 1.524 . S
C2123 C2115 1.503 . S
C2123 C2122 1.370 . S
C2123 C2124 1.403 . S
C2124 C2123 1.403 . S
C2124 C2125 1.404 . S
C2124 C2127 1.539 . S
C2125 C2121 1.408 . S
C2125 C2124 1.404 . S
C2125 H2137 0.930 1_565 S
C2126 C2122 1.524 . S
C2126 H2138 0.956 . S
C2126 H2139 0.961 . S
C2126 H2140 0.961 . S
C2127 C2124 1.539 . S
C2127 H2141 0.958 . S
C2127 H2142 0.961 1_565 S
C2127 H2143 0.960 . S
H2128 C2112 0.931 . S
H2129 C2117 0.929 . S
H2130 C2118 0.960 . S
H2131 C2118 0.962 . S
H2132 C2118 0.960 . S
H2133 C2119 0.961 . S
H2134 C2119 0.961 . S
H2135 C2119 0.961 . S
H2136 C2120 0.931 . S
H2137 C2125 0.930 1_545 S
H2138 C2126 0.956 . S
H2139 C2126 0.961 . S
H2140 C2126 0.961 . S
H2141 C2127 0.958 . S
H2142 C2127 0.961 1_545 S
H2143 C2127 0.960 . S
C2144 C2145 1.391 . S
C2144 C2146 1.394 . S
C2144 H2160 0.931 1_565 S
C2145 C2144 1.391 . S
C2145 C2149 1.376 . S
C2146 C2144 1.394 . S
C2146 C2147 1.369 . S
C2146 C2150 1.531 . S
C2147 C2146 1.369 . S
C2147 C2148 1.410 . S
C2147 C2155 1.503 . S
C2148 C2147 1.410 . S
C2148 C2149 1.392 . S
C2148 C2151 1.511 . S
C2149 C2145 1.376 . S
C2149 C2148 1.392 . S
C2149 H2161 0.929 . S
C2150 C2146 1.531 . S
C2150 H2162 0.960 . S
C2150 H2163 0.962 . S
C2150 H2164 0.960 1_565 S
C2151 C2148 1.511 . S
C2151 H2165 0.961 . S
C2151 H2166 0.961 . S
C2151 H2167 0.961 . S
C2152 C2153 1.370 . S
C2152 C2154 1.363 . S
C2152 H2168 0.931 . S
C2153 C2152 1.370 . S
C2153 C2157 1.408 . S
C2154 C2152 1.363 . S
C2154 C2155 1.370 . S
C2154 C2158 1.524 . S
C2155 C2147 1.503 . S
C2155 C2154 1.370 . S
C2155 C2156 1.403 . S
C2156 C2155 1.403 . S
C2156 C2157 1.404 . S
C2156 C2159 1.539 . S
C2157 C2153 1.408 . S
C2157 C2156 1.404 . S
C2157 H2169 0.930 . S
C2158 C2154 1.524 . S
C2158 H2170 0.956 . S
C2158 H2171 0.961 . S
C2158 H2172 0.961 . S
C2159 C2156 1.539 . S
C2159 H2173 0.958 . S
C2159 H2174 0.961 . S
C2159 H2175 0.960 . S
H2160 C2144 0.931 1_545 S
H2161 C2149 0.929 . S
H2162 C2150 0.960 . S
H2163 C2150 0.962 . S
H2164 C2150 0.960 1_545 S
H2165 C2151 0.961 . S
H2166 C2151 0.961 . S
H2167 C2151 0.961 . S
H2168 C2152 0.931 . S
H2169 C2157 0.930 . S
H2170 C2158 0.956 . S
H2171 C2158 0.961 . S
H2172 C2158 0.961 . S
H2173 C2159 0.958 . S
H2174 C2159 0.961 . S
H2175 C2159 0.960 . S
C2176 C2177 1.391 . S
C2176 C2178 1.394 . S
C2176 H2192 0.931 . S
C2177 C2176 1.391 . S
C2177 C2181 1.376 . S
C2178 C2176 1.394 . S
C2178 C2179 1.369 . S
C2178 C2182 1.531 . S
C2179 C2178 1.369 . S
C2179 C2180 1.410 . S
C2179 C2187 1.503 . S
C2180 C2179 1.410 . S
C2180 C2181 1.392 . S
C2180 C2183 1.511 . S
C2181 C2177 1.376 . S
C2181 C2180 1.392 . S
C2181 H2193 0.929 . S
C2182 C2178 1.531 . S
C2182 H2194 0.960 . S
C2182 H2195 0.962 . S
C2182 H2196 0.960 . S
C2183 C2180 1.511 . S
C2183 H2197 0.961 . S
C2183 H2198 0.961 . S
C2183 H2199 0.961 . S
C2184 C2185 1.370 . S
C2184 C2186 1.363 . S
C2184 H2200 0.931 . S
C2185 C2184 1.370 . S
C2185 C2189 1.408 . S
C2186 C2184 1.363 . S
C2186 C2187 1.370 . S
C2186 C2190 1.524 . S
C2187 C2179 1.503 . S
C2187 C2186 1.370 . S
C2187 C2188 1.403 . S
C2188 C2187 1.403 . S
C2188 C2189 1.404 . S
C2188 C2191 1.539 . S
C2189 C2185 1.408 . S
C2189 C2188 1.404 . S
C2189 H2201 0.930 . S
C2190 C2186 1.524 . S
C2190 H2202 0.956 . S
C2190 H2203 0.961 . S
C2190 H2204 0.961 . S
C2191 C2188 1.539 . S
C2191 H2205 0.958 . S
C2191 H2206 0.961 . S
C2191 H2207 0.960 . S
H2192 C2176 0.931 . S
H2193 C2181 0.929 . S
H2194 C2182 0.960 . S
H2195 C2182 0.962 . S
H2196 C2182 0.960 . S
H2197 C2183 0.961 . S
H2198 C2183 0.961 . S
H2199 C2183 0.961 . S
H2200 C2184 0.931 . S
H2201 C2189 0.930 . S
H2202 C2190 0.956 . S
H2203 C2190 0.961 . S
H2204 C2190 0.961 . S
H2205 C2191 0.958 . S
H2206 C2191 0.961 . S
H2207 C2191 0.960 . S
C2208 C2209 1.391 . S
C2208 C2210 1.394 . S
C2208 H2224 0.931 . S
C2209 C2208 1.391 . S
C2209 C2213 1.376 . S
C2210 C2208 1.394 . S
C2210 C2211 1.369 . S
C2210 C2214 1.531 . S
C2211 C2210 1.369 . S
C2211 C2212 1.410 . S
C2211 C2219 1.503 . S
C2212 C2211 1.410 . S
C2212 C2213 1.392 . S
C2212 C2215 1.511 . S
C2213 C2209 1.376 . S
C2213 C2212 1.392 . S
C2213 H2225 0.929 1_545 S
C2214 C2210 1.531 . S
C2214 H2226 0.960 . S
C2214 H2227 0.962 . S
C2214 H2228 0.960 . S
C2215 C2212 1.511 . S
C2215 H2229 0.961 1_545 S
C2215 H2230 0.961 . S
C2215 H2231 0.961 . S
C2216 C2217 1.370 . S
C2216 C2218 1.363 . S
C2216 H2232 0.931 . S
C2217 C2216 1.370 . S
C2217 C2221 1.408 . S
C2218 C2216 1.363 . S
C2218 C2219 1.370 . S
C2218 C2222 1.524 . S
C2219 C2211 1.503 . S
C2219 C2218 1.370 . S
C2219 C2220 1.403 . S
C2220 C2219 1.403 . S
C2220 C2221 1.404 . S
C2220 C2223 1.539 . S
C2221 C2217 1.408 . S
C2221 C2220 1.404 . S
C2221 H2233 0.930 . S
C2222 C2218 1.524 . S
C2222 H2234 0.956 . S
C2222 H2235 0.961 . S
C2222 H2236 0.961 . S
C2223 C2220 1.539 . S
C2223 H2237 0.958 . S
C2223 H2238 0.961 . S
C2223 H2239 0.960 . S
H2224 C2208 0.931 . S
H2225 C2213 0.929 1_565 S
H2226 C2214 0.960 . S
H2227 C2214 0.962 . S
H2228 C2214 0.960 . S
H2229 C2215 0.961 1_565 S
H2230 C2215 0.961 . S
H2231 C2215 0.961 . S
H2232 C2216 0.931 . S
H2233 C2221 0.930 . S
H2234 C2222 0.956 . S
H2235 C2222 0.961 . S
H2236 C2222 0.961 . S
H2237 C2223 0.958 . S
H2238 C2223 0.961 . S
H2239 C2223 0.960 . S
C2240 C2241 1.391 . S
C2240 C2242 1.394 . S
C2240 H2256 0.931 . S
C2241 C2240 1.391 . S
C2241 C2245 1.376 . S
C2242 C2240 1.394 . S
C2242 C2243 1.369 . S
C2242 C2246 1.531 . S
C2243 C2242 1.369 . S
C2243 C2244 1.410 . S
C2243 C2251 1.503 . S
C2244 C2243 1.410 . S
C2244 C2245 1.392 . S
C2244 C2247 1.511 . S
C2245 C2241 1.376 . S
C2245 C2244 1.392 . S
C2245 H2257 0.929 . S
C2246 C2242 1.531 . S
C2246 H2258 0.960 . S
C2246 H2259 0.962 . S
C2246 H2260 0.960 . S
C2247 C2244 1.511 . S
C2247 H2261 0.961 . S
C2247 H2262 0.961 . S
C2247 H2263 0.961 . S
C2248 C2249 1.370 . S
C2248 C2250 1.363 . S
C2248 H2264 0.931 . S
C2249 C2248 1.370 . S
C2249 C2253 1.408 . S
C2250 C2248 1.363 . S
C2250 C2251 1.370 . S
C2250 C2254 1.524 . S
C2251 C2243 1.503 . S
C2251 C2250 1.370 . S
C2251 C2252 1.403 . S
C2252 C2251 1.403 . S
C2252 C2253 1.404 . S
C2252 C2255 1.539 . S
C2253 C2249 1.408 . S
C2253 C2252 1.404 . S
C2253 H2265 0.930 . S
C2254 C2250 1.524 . S
C2254 H2266 0.956 . S
C2254 H2267 0.961 . S
C2254 H2268 0.961 . S
C2255 C2252 1.539 . S
C2255 H2269 0.958 . S
C2255 H2270 0.961 . S
C2255 H2271 0.960 . S
H2256 C2240 0.931 . S
H2257 C2245 0.929 . S
H2258 C2246 0.960 . S
H2259 C2246 0.962 . S
H2260 C2246 0.960 . S
H2261 C2247 0.961 . S
H2262 C2247 0.961 . S
H2263 C2247 0.961 . S
H2264 C2248 0.931 . S
H2265 C2253 0.930 . S
H2266 C2254 0.956 . S
H2267 C2254 0.961 . S
H2268 C2254 0.961 . S
H2269 C2255 0.958 . S
H2270 C2255 0.961 . S
H2271 C2255 0.960 . S
C2272 C2273 1.391 . S
C2272 C2274 1.394 . S
C2272 H2288 0.931 . S
C2273 C2272 1.391 . S
C2273 C2277 1.376 . S
C2274 C2272 1.394 . S
C2274 C2275 1.369 . S
C2274 C2278 1.531 . S
C2275 C2274 1.369 . S
C2275 C2276 1.410 . S
C2275 C2283 1.503 . S
C2276 C2275 1.410 . S
C2276 C2277 1.392 . S
C2276 C2279 1.511 . S
C2277 C2273 1.376 . S
C2277 C2276 1.392 . S
C2277 H2289 0.929 . S
C2278 C2274 1.531 . S
C2278 H2290 0.960 . S
C2278 H2291 0.962 . S
C2278 H2292 0.960 . S
C2279 C2276 1.511 . S
C2279 H2293 0.961 . S
C2279 H2294 0.961 . S
C2279 H2295 0.961 . S
C2280 C2281 1.370 . S
C2280 C2282 1.363 . S
C2280 H2296 0.931 . S
C2281 C2280 1.370 . S
C2281 C2285 1.408 . S
C2282 C2280 1.363 . S
C2282 C2283 1.370 . S
C2282 C2286 1.524 . S
C2283 C2275 1.503 . S
C2283 C2282 1.370 . S
C2283 C2284 1.403 . S
C2284 C2283 1.403 . S
C2284 C2285 1.404 . S
C2284 C2287 1.539 . S
C2285 C2281 1.408 . S
C2285 C2284 1.404 . S
C2285 H2297 0.930 . S
C2286 C2282 1.524 . S
C2286 H2298 0.956 . S
C2286 H2299 0.961 . S
C2286 H2300 0.961 . S
C2287 C2284 1.539 . S
C2287 H2301 0.958 . S
C2287 H2302 0.961 . S
C2287 H2303 0.960 . S
H2288 C2272 0.931 . S
H2289 C2277 0.929 . S
H2290 C2278 0.960 . S
H2291 C2278 0.962 . S
H2292 C2278 0.960 . S
H2293 C2279 0.961 . S
H2294 C2279 0.961 . S
H2295 C2279 0.961 . S
H2296 C2280 0.931 . S
H2297 C2285 0.930 . S
H2298 C2286 0.956 . S
H2299 C2286 0.961 . S
H2300 C2286 0.961 . S
H2301 C2287 0.958 . S
H2302 C2287 0.961 . S
H2303 C2287 0.960 . S
C2304 C2305 1.391 . S
C2304 C2306 1.394 . S
C2304 H2320 0.931 . S
C2305 C2304 1.391 . S
C2305 C2309 1.376 . S
C2306 C2304 1.394 . S
C2306 C2307 1.369 . S
C2306 C2310 1.531 . S
C2307 C2306 1.369 . S
C2307 C2308 1.410 . S
C2307 C2315 1.503 . S
C2308 C2307 1.410 . S
C2308 C2309 1.392 . S
C2308 C2311 1.511 . S
C2309 C2305 1.376 . S
C2309 C2308 1.392 . S
C2309 H2321 0.929 . S
C2310 C2306 1.531 . S
C2310 H2322 0.960 . S
C2310 H2323 0.962 . S
C2310 H2324 0.960 . S
C2311 C2308 1.511 . S
C2311 H2325 0.961 . S
C2311 H2326 0.961 . S
C2311 H2327 0.961 . S
C2312 C2313 1.370 . S
C2312 C2314 1.363 . S
C2312 H2328 0.931 . S
C2313 C2312 1.370 . S
C2313 C2317 1.408 . S
C2314 C2312 1.363 . S
C2314 C2315 1.370 . S
C2314 C2318 1.524 . S
C2315 C2307 1.503 . S
C2315 C2314 1.370 . S
C2315 C2316 1.403 . S
C2316 C2315 1.403 . S
C2316 C2317 1.404 . S
C2316 C2319 1.539 . S
C2317 C2313 1.408 . S
C2317 C2316 1.404 . S
C2317 H2329 0.930 . S
C2318 C2314 1.524 . S
C2318 H2330 0.956 . S
C2318 H2331 0.961 . S
C2318 H2332 0.961 . S
C2319 C2316 1.539 . S
C2319 H2333 0.958 . S
C2319 H2334 0.961 . S
C2319 H2335 0.960 . S
H2320 C2304 0.931 . S
H2321 C2309 0.929 . S
H2322 C2310 0.960 . S
H2323 C2310 0.962 . S
H2324 C2310 0.960 . S
H2325 C2311 0.961 . S
H2326 C2311 0.961 . S
H2327 C2311 0.961 . S
H2328 C2312 0.931 . S
H2329 C2317 0.930 . S
H2330 C2318 0.956 . S
H2331 C2318 0.961 . S
H2332 C2318 0.961 . S
H2333 C2319 0.958 . S
H2334 C2319 0.961 . S
H2335 C2319 0.960 . S
C2336 C2337 1.391 . S
C2336 C2338 1.394 . S
C2336 H2352 0.931 . S
C2337 C2336 1.391 . S
C2337 C2341 1.376 . S
C2338 C2336 1.394 . S
C2338 C2339 1.369 . S
C2338 C2342 1.531 . S
C2339 C2338 1.369 . S
C2339 C2340 1.410 . S
C2339 C2347 1.503 . S
C2340 C2339 1.410 . S
C2340 C2341 1.392 . S
C2340 C2343 1.511 . S
C2341 C2337 1.376 . S
C2341 C2340 1.392 . S
C2341 H2353 0.929 . S
C2342 C2338 1.531 . S
C2342 H2354 0.960 . S
C2342 H2355 0.962 . S
C2342 H2356 0.960 . S
C2343 C2340 1.511 . S
C2343 H2357 0.961 . S
C2343 H2358 0.961 . S
C2343 H2359 0.961 . S
C2344 C2345 1.370 . S
C2344 C2346 1.363 . S
C2344 H2360 0.931 . S
C2345 C2344 1.370 . S
C2345 C2349 1.408 . S
C2346 C2344 1.363 . S
C2346 C2347 1.370 . S
C2346 C2350 1.524 . S
C2347 C2339 1.503 . S
C2347 C2346 1.370 . S
C2347 C2348 1.403 . S
C2348 C2347 1.403 . S
C2348 C2349 1.404 . S
C2348 C2351 1.539 . S
C2349 C2345 1.408 . S
C2349 C2348 1.404 . S
C2349 H2361 0.930 . S
C2350 C2346 1.524 . S
C2350 H2362 0.956 . S
C2350 H2363 0.961 . S
C2350 H2364 0.961 . S
C2351 C2348 1.539 . S
C2351 H2365 0.958 . S
C2351 H2366 0.961 . S
C2351 H2367 0.960 . S
H2352 C2336 0.931 . S
H2353 C2341 0.929 . S
H2354 C2342 0.960 . S
H2355 C2342 0.962 . S
H2356 C2342 0.960 . S
H2357 C2343 0.961 . S
H2358 C2343 0.961 . S
H2359 C2343 0.961 . S
H2360 C2344 0.931 . S
H2361 C2349 0.930 . S
H2362 C2350 0.956 . S
H2363 C2350 0.961 . S
H2364 C2350 0.961 . S
H2365 C2351 0.958 . S
H2366 C2351 0.961 . S
H2367 C2351 0.960 . S
C2368 C2369 1.391 . S
C2368 C2370 1.394 . S
C2368 H2384 0.931 . S
C2369 C2368 1.391 . S
C2369 C2373 1.376 . S
C2370 C2368 1.394 . S
C2370 C2371 1.369 . S
C2370 C2374 1.531 . S
C2371 C2370 1.369 . S
C2371 C2372 1.410 . S
C2371 C2379 1.503 . S
C2372 C2371 1.410 . S
C2372 C2373 1.392 . S
C2372 C2375 1.511 . S
C2373 C2369 1.376 . S
C2373 C2372 1.392 . S
C2373 H2385 0.929 . S
C2374 C2370 1.531 . S
C2374 H2386 0.960 . S
C2374 H2387 0.962 . S
C2374 H2388 0.960 . S
C2375 C2372 1.511 . S
C2375 H2389 0.961 . S
C2375 H2390 0.961 . S
C2375 H2391 0.961 . S
C2376 C2377 1.370 . S
C2376 C2378 1.363 . S
C2376 H2392 0.931 . S
C2377 C2376 1.370 . S
C2377 C2381 1.408 . S
C2378 C2376 1.363 . S
C2378 C2379 1.370 . S
C2378 C2382 1.524 . S
C2379 C2371 1.503 . S
C2379 C2378 1.370 . S
C2379 C2380 1.403 . S
C2380 C2379 1.403 . S
C2380 C2381 1.404 . S
C2380 C2383 1.539 . S
C2381 C2377 1.408 . S
C2381 C2380 1.404 . S
C2381 H2393 0.930 . S
C2382 C2378 1.524 . S
C2382 H2394 0.956 . S
C2382 H2395 0.961 . S
C2382 H2396 0.961 . S
C2383 C2380 1.539 . S
C2383 H2397 0.958 . S
C2383 H2398 0.961 . S
C2383 H2399 0.960 . S
H2384 C2368 0.931 . S
H2385 C2373 0.929 . S
H2386 C2374 0.960 . S
H2387 C2374 0.962 . S
H2388 C2374 0.960 . S
H2389 C2375 0.961 . S
H2390 C2375 0.961 . S
H2391 C2375 0.961 . S
H2392 C2376 0.931 . S
H2393 C2381 0.930 . S
H2394 C2382 0.956 . S
H2395 C2382 0.961 . S
H2396 C2382 0.961 . S
H2397 C2383 0.958 . S
H2398 C2383 0.961 . S
H2399 C2383 0.960 . S
C2400 C2401 1.391 . S
C2400 C2402 1.394 . S
C2400 H2416 0.931 . S
C2401 C2400 1.391 . S
C2401 C2405 1.376 . S
C2402 C2400 1.394 . S
C2402 C2403 1.369 . S
C2402 C2406 1.531 . S
C2403 C2402 1.369 . S
C2403 C2404 1.410 . S
C2403 C2411 1.503 . S
C2404 C2403 1.410 . S
C2404 C2405 1.392 . S
C2404 C2407 1.511 . S
C2405 C2401 1.376 . S
C2405 C2404 1.392 . S
C2405 H2417 0.929 . S
C2406 C2402 1.531 . S
C2406 H2418 0.960 . S
C2406 H2419 0.962 . S
C2406 H2420 0.960 . S
C2407 C2404 1.511 . S
C2407 H2421 0.961 . S
C2407 H2422 0.961 . S
C2407 H2423 0.961 . S
C2408 C2409 1.370 . S
C2408 C2410 1.363 . S
C2408 H2424 0.931 . S
C2409 C2408 1.370 . S
C2409 C2413 1.408 . S
C2410 C2408 1.363 . S
C2410 C2411 1.370 . S
C2410 C2414 1.524 . S
C2411 C2403 1.503 . S
C2411 C2410 1.370 . S
C2411 C2412 1.403 . S
C2412 C2411 1.403 . S
C2412 C2413 1.404 . S
C2412 C2415 1.539 . S
C2413 C2409 1.408 . S
C2413 C2412 1.404 . S
C2413 H2425 0.930 . S
C2414 C2410 1.524 . S
C2414 H2426 0.956 . S
C2414 H2427 0.961 . S
C2414 H2428 0.961 . S
C2415 C2412 1.539 . S
C2415 H2429 0.958 . S
C2415 H2430 0.961 . S
C2415 H2431 0.960 . S
H2416 C2400 0.931 . S
H2417 C2405 0.929 . S
H2418 C2406 0.960 . S
H2419 C2406 0.962 . S
H2420 C2406 0.960 . S
H2421 C2407 0.961 . S
H2422 C2407 0.961 . S
H2423 C2407 0.961 . S
H2424 C2408 0.931 . S
H2425 C2413 0.930 . S
H2426 C2414 0.956 . S
H2427 C2414 0.961 . S
H2428 C2414 0.961 . S
H2429 C2415 0.958 . S
H2430 C2415 0.961 . S
H2431 C2415 0.960 . S
C2432 C2433 1.391 . S
C2432 C2434 1.394 . S
C2432 H2448 0.931 . S
C2433 C2432 1.391 . S
C2433 C2437 1.376 . S
C2434 C2432 1.394 . S
C2434 C2435 1.369 . S
C2434 C2438 1.531 . S
C2435 C2434 1.369 . S
C2435 C2436 1.410 . S
C2435 C2443 1.503 . S
C2436 C2435 1.410 . S
C2436 C2437 1.392 . S
C2436 C2439 1.511 . S
C2437 C2433 1.376 . S
C2437 C2436 1.392 . S
C2437 H2449 0.929 . S
C2438 C2434 1.531 . S
C2438 H2450 0.960 . S
C2438 H2451 0.962 . S
C2438 H2452 0.960 . S
C2439 C2436 1.511 . S
C2439 H2453 0.961 . S
C2439 H2454 0.961 . S
C2439 H2455 0.961 . S
C2440 C2441 1.370 . S
C2440 C2442 1.363 . S
C2440 H2456 0.931 . S
C2441 C2440 1.370 . S
C2441 C2445 1.408 . S
C2442 C2440 1.363 . S
C2442 C2443 1.370 . S
C2442 C2446 1.524 . S
C2443 C2435 1.503 . S
C2443 C2442 1.370 . S
C2443 C2444 1.403 . S
C2444 C2443 1.403 . S
C2444 C2445 1.404 . S
C2444 C2447 1.539 . S
C2445 C2441 1.408 . S
C2445 C2444 1.404 . S
C2445 H2457 0.930 . S
C2446 C2442 1.524 . S
C2446 H2458 0.956 . S
C2446 H2459 0.961 . S
C2446 H2460 0.961 . S
C2447 C2444 1.539 . S
C2447 H2461 0.958 . S
C2447 H2462 0.961 . S
C2447 H2463 0.960 . S
H2448 C2432 0.931 . S
H2449 C2437 0.929 . S
H2450 C2438 0.960 . S
H2451 C2438 0.962 . S
H2452 C2438 0.960 . S
H2453 C2439 0.961 . S
H2454 C2439 0.961 . S
H2455 C2439 0.961 . S
H2456 C2440 0.931 . S
H2457 C2445 0.930 . S
H2458 C2446 0.956 . S
H2459 C2446 0.961 . S
H2460 C2446 0.961 . S
H2461 C2447 0.958 . S
H2462 C2447 0.961 . S
H2463 C2447 0.960 . S
C2464 C2465 1.391 . S
C2464 C2466 1.394 . S
C2464 H2480 0.931 . S
C2465 C2464 1.391 . S
C2465 C2469 1.376 . S
C2466 C2464 1.394 . S
C2466 C2467 1.369 . S
C2466 C2470 1.531 . S
C2467 C2466 1.369 . S
C2467 C2468 1.410 . S
C2467 C2475 1.503 . S
C2468 C2467 1.410 . S
C2468 C2469 1.392 . S
C2468 C2471 1.511 . S
C2469 C2465 1.376 . S
C2469 C2468 1.392 . S
C2469 H2481 0.929 . S
C2470 C2466 1.531 . S
C2470 H2482 0.960 . S
C2470 H2483 0.962 . S
C2470 H2484 0.960 . S
C2471 C2468 1.511 . S
C2471 H2485 0.961 . S
C2471 H2486 0.961 . S
C2471 H2487 0.961 . S
C2472 C2473 1.370 . S
C2472 C2474 1.363 . S
C2472 H2488 0.931 . S
C2473 C2472 1.370 . S
C2473 C2477 1.408 . S
C2474 C2472 1.363 . S
C2474 C2475 1.370 . S
C2474 C2478 1.524 . S
C2475 C2467 1.503 . S
C2475 C2474 1.370 . S
C2475 C2476 1.403 . S
C2476 C2475 1.403 . S
C2476 C2477 1.404 . S
C2476 C2479 1.539 . S
C2477 C2473 1.408 . S
C2477 C2476 1.404 . S
C2477 H2489 0.930 . S
C2478 C2474 1.524 . S
C2478 H2490 0.956 . S
C2478 H2491 0.961 . S
C2478 H2492 0.961 . S
C2479 C2476 1.539 . S
C2479 H2493 0.958 . S
C2479 H2494 0.961 . S
C2479 H2495 0.960 . S
H2480 C2464 0.931 . S
H2481 C2469 0.929 . S
H2482 C2470 0.960 . S
H2483 C2470 0.962 . S
H2484 C2470 0.960 . S
H2485 C2471 0.961 . S
H2486 C2471 0.961 . S
H2487 C2471 0.961 . S
H2488 C2472 0.931 . S
H2489 C2477 0.930 . S
H2490 C2478 0.956 . S
H2491 C2478 0.961 . S
H2492 C2478 0.961 . S
H2493 C2479 0.958 . S
H2494 C2479 0.961 . S
H2495 C2479 0.960 . S
C449 C386 1.527 . S
C457 C9 1.546 . S
C481 C23 1.536 1_655 S
C489 C121 1.551 . S
C513 C358 1.550 . S
C521 C37 1.556 . S
C545 C51 1.526 . S
C553 C149 1.543 . S
C577 C65 1.529 . S
C585 C414 1.546 . S
C609 C79 1.527 . S
C617 C205 1.541 . S
C641 C93 1.547 . S
C649 C442 1.543 . S
C673 C107 1.538 1_655 S
C681 C177 1.541 . S
C705 C274 1.560 . S
C713 C120 1.557 . S
C737 C8 1.532 . S
C745 C135 1.542 1_455 S
C769 C246 1.528 . S
C777 C148 1.545 . S
C801 C163 1.563 . S
C809 C36 1.554 . S
C833 C302 1.527 . S
C841 C176 1.541 . S
C865 C92 1.532 . S
C873 C191 1.542 . S
C897 C204 1.538 . S
C905 C330 1.542 . S
C929 C64 1.527 . S
C937 C219 1.545 1_455 S
C961 C233 1.562 . S
C969 C162 1.550 . S
C993 C247 1.554 . S
C1001 C345 1.546 . S
C1025 C134 1.564 . S
C1033 C261 1.555 . S
C1057 C373 1.563 . S
C1065 C275 1.556 1_455 S
C1089 C190 1.526 . S
C1097 C289 1.546 . S
C1121 C429 1.541 . S
C1129 C303 1.554 1_455 S
C1153 C218 1.529 . S
C1161 C317 1.541 . S
C1185 C331 1.553 . S
C1193 C401 1.545 . S
C1217 C50 1.525 . S
C1225 C344 1.541 . S
C1249 C359 1.563 . S
C1257 C232 1.554 . S
C1281 C372 1.551 . S
C1289 C22 1.554 . S
C1313 C387 1.563 1_655 S
C1321 C260 1.554 . S
C1345 C400 1.534 . S
C1353 C78 1.547 . S
C1377 C415 1.557 1_655 S
C1385 C316 1.555 . S
C1409 C428 1.552 . S
C1417 C106 1.554 . S
C1441 C443 1.532 . S
C1449 C288 1.546 . S
C1473 C342 1.453 . S
C1481 C7 1.487 . S
C1505 C21 1.483 . S
C1513 C133 1.476 . S
C1537 C370 1.482 . S
C1545 C35 1.474 . S
C1569 C49 1.496 . S
C1577 C161 1.469 . S
C1601 C398 1.489 . S
C1609 C63 1.471 . S
C1633 C77 1.460 . S
C1641 C189 1.485 . S
C1665 C426 1.490 . S
C1673 C91 1.470 . S
C1697 C105 1.481 . S
C1705 C217 1.477 . S
C1729 C118 1.496 . S
C1737 C231 1.469 . S
C1761 C146 1.456 . S
C1769 C259 1.486 . S
C1793 C174 1.453 . S
C1801 C287 1.487 . S
C1825 C202 1.460 . S
C1833 C315 1.485 . S
C1857 C245 1.468 . S
C1865 C357 1.482 . S
C1889 C385 1.456 . S
C1897 C273 1.485 . S
C1921 C413 1.454 . S
C1929 C301 1.486 . S
C1953 C329 1.464 . S
C1961 C441 1.481 . S
C1985 C6 1.410 . S
C1993 C76 1.390 1_545 S
C2017 C20 1.384 1_545 S
C2025 C90 1.396 . S
C2049 C34 1.375 . S
C2057 C104 1.404 1_565 S
C2081 C62 1.370 . S
C2089 C48 1.403 1_565 S
C2113 C119 1.406 . S
C2121 C188 1.395 1_565 S
C2145 C132 1.370 1_565 S
C2153 C203 1.405 . S
C2177 C147 1.412 . S
C2185 C216 1.386 1_545 S
C2209 C160 1.414 1_545 S
C2217 C175 1.387 . S
C2241 C230 1.412 . S
C2249 C300 1.386 . S
C2273 C314 1.386 . S
C2281 C244 1.401 . S
C2305 C258 1.370 . S
C2313 C328 1.405 . S
C2337 C272 1.399 . S
C2345 C286 1.390 . S
C2369 C412 1.410 . S
C2377 C343 1.386 . S
C2401 C356 1.369 . S
C2409 C427 1.403 . S
C2433 C440 1.381 . S
C2441 C371 1.394 . S
C2465 C384 1.415 . S
C2473 C399 1.387 . S
