# Generated by pormake.
# Topology whz, (6)-cn, num edge types: 1
# Building blocks:
#     Node 0, Type 0, BuildingBlock: PAMTUU_clean_sbu_0, # of connection points: 6
#     Node 1, Type 0, BuildingBlock: PAMTUU_clean_sbu_0, # of connection points: 6
#     Node 2, Type 0, BuildingBlock: PAMTUU_clean_sbu_0, # of connection points: 6
#     Node 3, Type 0, BuildingBlock: PAMTUU_clean_sbu_0, # of connection points: 6
#     Node 4, Type 0, BuildingBlock: PAMTUU_clean_sbu_0, # of connection points: 6
#     Node 5, Type 0, BuildingBlock: PAMTUU_clean_sbu_0, # of connection points: 6
#     Node 6, Type 0, BuildingBlock: PAMTUU_clean_sbu_0, # of connection points: 6
#     Node 7, Type 0, BuildingBlock: PAMTUU_clean_sbu_0, # of connection points: 6
#     Node 8, Type 0, BuildingBlock: PAMTUU_clean_sbu_0, # of connection points: 6
#     Node 9, Type 0, BuildingBlock: PAMTUU_clean_sbu_0, # of connection points: 6
#     Node 10, Type 0, BuildingBlock: PAMTUU_clean_sbu_0, # of connection points: 6
#     Node 11, Type 0, BuildingBlock: PAMTUU_clean_sbu_0, # of connection points: 6
#     Node 12, Type 0, BuildingBlock: PAMTUU_clean_sbu_0, # of connection points: 6
#     Node 13, Type 0, BuildingBlock: PAMTUU_clean_sbu_0, # of connection points: 6
#     Node 14, Type 0, BuildingBlock: PAMTUU_clean_sbu_0, # of connection points: 6
#     Node 15, Type 0, BuildingBlock: PAMTUU_clean_sbu_0, # of connection points: 6
#     Edge 16, Type (0, 0), BuildingBlock: OJICUG_clean_linker_0, # of connection points: 2
#     Edge 17, Type (0, 0), BuildingBlock: OJICUG_clean_linker_0, # of connection points: 2
#     Edge 18, Type (0, 0), BuildingBlock: OJICUG_clean_linker_0, # of connection points: 2
#     Edge 19, Type (0, 0), BuildingBlock: OJICUG_clean_linker_0, # of connection points: 2
#     Edge 20, Type (0, 0), BuildingBlock: OJICUG_clean_linker_0, # of connection points: 2
#     Edge 21, Type (0, 0), BuildingBlock: OJICUG_clean_linker_0, # of connection points: 2
#     Edge 22, Type (0, 0), BuildingBlock: OJICUG_clean_linker_0, # of connection points: 2
#     Edge 23, Type (0, 0), BuildingBlock: OJICUG_clean_linker_0, # of connection points: 2
#     Edge 24, Type (0, 0), BuildingBlock: OJICUG_clean_linker_0, # of connection points: 2
#     Edge 25, Type (0, 0), BuildingBlock: OJICUG_clean_linker_0, # of connection points: 2
#     Edge 26, Type (0, 0), BuildingBlock: OJICUG_clean_linker_0, # of connection points: 2
#     Edge 27, Type (0, 0), BuildingBlock: OJICUG_clean_linker_0, # of connection points: 2
#     Edge 28, Type (0, 0), BuildingBlock: OJICUG_clean_linker_0, # of connection points: 2
#     Edge 29, Type (0, 0), BuildingBlock: OJICUG_clean_linker_0, # of connection points: 2
#     Edge 30, Type (0, 0), BuildingBlock: OJICUG_clean_linker_0, # of connection points: 2
#     Edge 31, Type (0, 0), BuildingBlock: OJICUG_clean_linker_0, # of connection points: 2
#     Edge 32, Type (0, 0), BuildingBlock: OJICUG_clean_linker_0, # of connection points: 2
#     Edge 33, Type (0, 0), BuildingBlock: OJICUG_clean_linker_0, # of connection points: 2
#     Edge 34, Type (0, 0), BuildingBlock: OJICUG_clean_linker_0, # of connection points: 2
#     Edge 35, Type (0, 0), BuildingBlock: OJICUG_clean_linker_0, # of connection points: 2
#     Edge 36, Type (0, 0), BuildingBlock: OJICUG_clean_linker_0, # of connection points: 2
#     Edge 37, Type (0, 0), BuildingBlock: OJICUG_clean_linker_0, # of connection points: 2
#     Edge 38, Type (0, 0), BuildingBlock: OJICUG_clean_linker_0, # of connection points: 2
#     Edge 39, Type (0, 0), BuildingBlock: OJICUG_clean_linker_0, # of connection points: 2
#     Edge 40, Type (0, 0), BuildingBlock: OJICUG_clean_linker_0, # of connection points: 2
#     Edge 41, Type (0, 0), BuildingBlock: OJICUG_clean_linker_0, # of connection points: 2
#     Edge 42, Type (0, 0), BuildingBlock: OJICUG_clean_linker_0, # of connection points: 2
#     Edge 43, Type (0, 0), BuildingBlock: OJICUG_clean_linker_0, # of connection points: 2
#     Edge 44, Type (0, 0), BuildingBlock: OJICUG_clean_linker_0, # of connection points: 2
#     Edge 45, Type (0, 0), BuildingBlock: OJICUG_clean_linker_0, # of connection points: 2
#     Edge 46, Type (0, 0), BuildingBlock: OJICUG_clean_linker_0, # of connection points: 2
#     Edge 47, Type (0, 0), BuildingBlock: OJICUG_clean_linker_0, # of connection points: 2
#     Edge 48, Type (0, 0), BuildingBlock: OJICUG_clean_linker_0, # of connection points: 2
#     Edge 49, Type (0, 0), BuildingBlock: OJICUG_clean_linker_0, # of connection points: 2
#     Edge 50, Type (0, 0), BuildingBlock: OJICUG_clean_linker_0, # of connection points: 2
#     Edge 51, Type (0, 0), BuildingBlock: OJICUG_clean_linker_0, # of connection points: 2
#     Edge 52, Type (0, 0), BuildingBlock: OJICUG_clean_linker_0, # of connection points: 2
#     Edge 53, Type (0, 0), BuildingBlock: OJICUG_clean_linker_0, # of connection points: 2
#     Edge 54, Type (0, 0), BuildingBlock: OJICUG_clean_linker_0, # of connection points: 2
#     Edge 55, Type (0, 0), BuildingBlock: OJICUG_clean_linker_0, # of connection points: 2
#     Edge 56, Type (0, 0), BuildingBlock: OJICUG_clean_linker_0, # of connection points: 2
#     Edge 57, Type (0, 0), BuildingBlock: OJICUG_clean_linker_0, # of connection points: 2
#     Edge 58, Type (0, 0), BuildingBlock: OJICUG_clean_linker_0, # of connection points: 2
#     Edge 59, Type (0, 0), BuildingBlock: OJICUG_clean_linker_0, # of connection points: 2
#     Edge 60, Type (0, 0), BuildingBlock: OJICUG_clean_linker_0, # of connection points: 2
#     Edge 61, Type (0, 0), BuildingBlock: OJICUG_clean_linker_0, # of connection points: 2
#     Edge 62, Type (0, 0), BuildingBlock: OJICUG_clean_linker_0, # of connection points: 2
#     Edge 63, Type (0, 0), BuildingBlock: OJICUG_clean_linker_0, # of connection points: 2
# Relax obj value: 0.815
# Max RMSD: 0.325
# Mean RMSD: 0.325
data_MOF--net-whz--node1-PAMTUU_clean_sbu_0--edge1-OJICUG_clean_linker_0
_symmetry_space_group_name_H-M    P1
_symmetry_Int_Tables_number       1
_symmetry_cell_setting            triclinic
loop_
_symmetry_equiv_pos_as_xyz
'x, y, z'
_cell_length_a     25.535786
_cell_length_b     24.508418
_cell_length_c     56.417344
_cell_angle_alpha  89.666752
_cell_angle_beta   89.600879
_cell_angle_gamma 91.551029
loop_
_atom_site_label
_atom_site_type_symbol
_atom_site_fract_x
_atom_site_fract_y
_atom_site_fract_z
_atom_type_partial_charge
Tb0 Tb 0.32902 0.21619 0.17087 0.0
Tb1 Tb 0.3266 0.30028 0.21519 0.0
C2 C 0.36928 0.18408 0.22276 0.0
C3 C 0.30729 0.16407 0.10872 0.0
C4 C 0.26266 0.16663 1.06263 0.0
C5 C 0.31728 0.16456 0.0656 0.0
C6 C 0.33921 0.16324 0.08833 0.0
C7 C 0.25275 0.16619 0.10589 0.0
C8 C 0.23076 0.16727 0.08317 0.0
C9 C 0.33189 0.16243 0.13254 0.0
O10 O 0.25261 0.19976 0.18703 0.0
O11 O 0.26214 0.24206 0.22353 0.0
O12 O 0.25993 0.31585 0.19369 0.0
O13 O 0.30154 0.29697 0.15948 0.0
O14 O 0.32042 0.32654 0.2503 0.0
O15 O 0.33342 0.38454 0.22165 0.0
O16 O 0.39422 0.31897 0.19197 0.0
O17 O 0.41037 0.23327 0.17977 0.0
O18 O 0.34737 0.16725 0.20272 0.0
O19 O 0.37553 0.23603 0.22791 0.0
C20 C 0.23738 0.20802 0.20907 0.0
O21 O 0.30233 0.14895 0.15072 0.0
O22 O 0.36395 0.2029 0.13755 0.0
C23 C 0.26469 0.32247 0.171 0.0
C24 C 0.3776 0.39971 0.25759 0.0
C25 C 0.45617 0.39196 0.29131 0.0
C26 C 0.40878 0.41702 0.29718 0.0
C27 C 0.36917 0.41996 0.28037 0.0
C28 C 0.42864 0.38714 0.25041 0.0
C29 C 0.4684 0.38467 0.26722 0.0
C30 C 0.33276 0.37701 0.24457 0.0
C31 C 0.42759 0.28239 0.18497 0.0
H32 H 0.34327 0.16455 1.05036 0.0
H33 H 0.3814 0.16166 0.08999 0.0
H34 H 0.22697 0.1668 0.12121 0.0
H35 H 0.18852 0.16774 0.08176 0.0
H36 H 0.39842 0.42486 0.31547 0.0
H37 H 0.33019 0.43076 0.28607 0.0
H38 H 0.43614 0.37222 0.23271 0.0
H39 H 0.50532 0.36722 0.26208 0.0
Tb40 Tb 0.62306 0.58089 0.42545 0.0
Tb41 Tb 0.54651 0.57764 0.47169 0.0
C42 C 0.65627 0.63334 0.47456 0.0
C43 C 0.67194 0.56685 0.36219 0.0
C44 C 0.67132 0.52796 0.31485 0.0
C45 C 0.68475 0.5828 0.31984 0.0
C46 C 0.68516 0.60185 0.34318 0.0
C47 C 0.65717 0.51247 0.35743 0.0
C48 C 0.65681 0.49333 0.33404 0.0
C49 C 0.67349 0.58873 0.38657 0.0
O50 O 0.64051 0.50359 0.44219 0.0
O51 O 0.60463 0.51555 0.47966 0.0
O52 O 0.5278 0.50443 0.45251 0.0
O53 O 0.54697 0.54167 0.41632 0.0
O54 O 0.53015 0.57869 0.50816 0.0
O55 O 0.4678 0.58188 0.4825 0.0
O56 O 0.51964 0.6367 0.44548 0.0
O57 O 0.59973 0.66381 0.4324 0.0
O58 O 0.67214 0.60589 0.45583 0.0
O59 O 0.6064 0.63908 0.47915 0.0
C60 C 0.63503 0.48949 0.46466 0.0
O61 O 0.68557 0.55585 0.40383 0.0
O62 O 0.63507 0.61977 0.39249 0.0
C63 C 0.52286 0.50412 0.42956 0.0
C64 C 0.4647 0.64106 0.51515 0.0
C65 C 0.46645 0.73942 0.54065 0.0
C66 C 0.44747 0.69026 0.55125 0.0
C67 C 0.44702 0.64144 0.53862 0.0
C68 C 0.47667 0.69085 0.50356 0.0
C69 C 0.47707 0.73979 0.51617 0.0
C70 C 0.48108 0.58961 0.50455 0.0
C71 C 0.55096 0.67504 0.43675 0.0
H72 H 0.69486 0.61134 0.30572 0.0
H73 H 0.69603 0.64419 0.34642 0.0
H74 H 0.64628 0.48468 0.37175 0.0
H75 H 0.64611 0.451 0.33112 0.0
H76 H 0.43898 0.68776 0.57006 0.0
H77 H 0.43762 0.60347 0.54783 0.0
H78 H 0.49031 0.69143 0.48535 0.0
H79 H 0.491 0.77685 0.50734 0.0
Tb80 Tb 0.22358 0.92153 0.66693 0.0
Tb81 Tb 0.24928 0.83866 0.70887 0.0
C82 C 0.19697 0.94774 0.72159 0.0
C83 C 0.22081 0.96688 0.60407 0.0
C84 C 0.24934 0.95047 0.55602 0.0
C85 C 0.20252 0.97648 0.56192 0.0
C86 C 0.18844 0.98453 0.58571 0.0
C87 C 0.26737 0.94076 0.59833 0.0
C88 C 0.28162 0.93296 0.57462 0.0
C89 C 0.20438 0.97318 0.62905 0.0
O90 O 0.30173 0.94769 0.67757 0.0
O91 O 0.30899 0.90445 0.71393 0.0
O92 O 0.30874 0.83704 0.68183 0.0
O93 O 0.24899 0.8414 0.65384 0.0
O94 O 0.26697 0.80698 0.74245 0.0
O95 O 0.2577 0.75413 0.71202 0.0
O96 O 0.17251 0.81551 0.69299 0.0
O97 O 0.1481 0.9 0.6817 0.0
O98 O 0.20837 0.96742 0.70006 0.0
O99 O 0.20132 0.89591 0.72715 0.0
C100 C 0.32475 0.942 0.69825 0.0
O101 O 0.2406 0.988 0.64407 0.0
O102 O 0.17488 0.93351 0.63756 0.0
C103 C 0.29406 0.82318 0.66087 0.0
C104 C 0.32387 0.73377 0.73911 0.0
C105 C 0.42543 0.71542 0.7557 0.0
C106 C 0.41794 0.73479 0.73247 0.0
C107 C 0.36747 0.74452 0.72433 0.0
C108 C 0.33061 0.70631 0.76058 0.0
C109 C 0.38097 0.69667 0.76876 0.0
C110 C 0.27322 0.758 0.73396 0.0
C111 C 0.13542 0.85002 0.68778 0.0
H112 H 0.1764 0.99009 0.5482 0.0
H113 H 0.15198 1.00418 0.58977 0.0
H114 H 0.29277 0.9263 0.6122 0.0
H115 H 0.31852 0.91388 0.57093 0.0
H116 H 0.45095 0.74817 0.72158 0.0
H117 H 0.36294 0.76456 0.70735 0.0
H118 H 0.29728 0.69669 0.772 0.0
H119 H 0.38441 0.6808 0.78661 0.0
Tb120 Tb 0.94002 0.52877 0.92047 0.0
Tb121 Tb 1.02624 0.54435 0.961 0.0
C122 C 0.91815 0.48958 0.97418 0.0
C123 C 0.88207 0.53556 0.85932 0.0
C124 C 0.87913 0.57309 0.81161 0.0
C125 C 0.85392 0.5235 0.81842 0.0
C126 C 0.85521 0.50516 0.84201 0.0
C127 C 0.90823 0.58426 0.85261 0.0
C128 C 0.90622 0.6032 0.82917 0.0
C129 C 0.88278 0.51571 0.88413 0.0
O130 O 0.91986 0.60628 0.93659 0.0
O131 O 0.96748 0.60353 0.97143 0.0
O132 O 1.02752 0.61385 0.93763 0.0
O133 O 1.01607 0.56106 0.9063 0.0
O134 O 0.10645 0.56494 0.96383 0.0
O135 O 0.05992 0.54138 0.99464 0.0
O136 O 0.04438 0.47216 0.93986 0.0
O137 O 0.96073 0.44717 0.93109 0.0
O138 O 0.89803 0.50624 0.95381 0.0
O139 O 0.96884 0.49113 0.97815 0.0
C140 C 0.93053 0.62429 0.95809 0.0
O141 O 0.87434 0.55135 0.90068 0.0
O142 O 0.92122 0.4844 0.88968 0.0
C143 C 1.03763 0.6051 0.91559 0.0
C144 C 0.1164 0.61605 0.99882 0.0
C145 C 0.0878 0.70162 1.02826 0.0
C146 C 0.08513 0.70801 1.00357 0.0
C147 C 0.09925 0.66518 0.98886 0.0
C148 C 0.1283 0.61394 1.02292 0.0
C149 C 0.11359 0.65629 1.03763 0.0
C150 C 0.10353 0.56453 0.98695 0.0
C151 C 1.00914 0.43384 0.93489 0.0
H152 H 0.83337 0.49853 0.80553 0.0
H153 H 0.83521 0.46704 0.84675 0.0
H154 H 0.92998 0.60773 0.86558 0.0
H155 H 0.92521 0.64206 0.825 0.0
H156 H 0.06598 0.7428 0.9959 0.0
H157 H 0.0902 0.66793 0.97017 0.0
H158 H 0.14169 0.5765 1.03088 0.0
H159 H 0.11633 0.64992 1.0566 0.0
Tb160 Tb 0.76278 0.81308 0.92379 0.0
Tb161 Tb 0.74635 0.90917 0.96141 0.0
C162 C 0.78903 0.79689 0.97301 0.0
C163 C 0.85118 0.74816 0.88597 0.0
C164 C 0.95019 0.77587 0.86626 0.0
C165 C 0.94092 0.7241 0.87654 0.0
C166 C 0.89177 0.71057 0.88665 0.0
C167 C 0.86085 0.79976 0.87577 0.0
C168 C 0.90951 0.81338 0.86607 0.0
C169 C 0.80277 0.73929 0.89988 0.0
O170 O 0.67909 0.8015 0.92945 0.0
O171 O 0.66871 0.86859 0.95785 0.0
O172 O 0.71243 0.94408 0.92883 0.0
O173 O 0.73541 0.87789 0.90141 0.0
O174 O 0.70587 0.92887 0.99262 0.0
O175 O 0.77151 0.97866 0.98071 0.0
O176 O 0.80334 0.94678 0.93762 0.0
O177 O 0.83445 0.86529 0.92518 0.0
O178 O 0.74962 0.78542 0.95955 0.0
O179 O 0.80335 0.84836 0.97282 0.0
C180 C 0.64969 0.82908 0.94421 0.0
O181 O 0.81001 0.74442 0.92258 0.0
O182 O 0.76175 0.76574 0.89276 0.0
C183 C 0.71446 0.92479 0.90682 0.0
C184 C 0.76053 0.96677 1.02235 0.0
C185 C 0.79906 0.96409 0.06956 0.0
C186 C 0.78422 1.01354 1.05896 0.0
C187 C 0.76513 1.01478 1.03568 0.0
C188 C 0.77562 0.91738 1.0327 0.0
C189 C 0.79439 0.916 1.056 0.0
C190 C 0.73866 0.96841 0.99803 0.0
C191 C 0.83868 0.91891 0.92643 0.0
H192 H 0.97152 0.69436 0.87662 0.0
H193 H 0.88565 0.6713 0.89528 0.0
H194 H 0.831 0.83037 0.87567 0.0
H195 H 0.91467 0.85309 0.8577 0.0
H196 H 0.78822 1.05163 0.06848 0.0
H197 H 0.75395 1.05341 1.02807 0.0
H198 H 0.77254 0.87968 1.02281 0.0
H199 H 0.80492 0.877 1.06342 0.0
Tb200 Tb 0.51422 0.56708 0.66859 0.0
Tb201 Tb 0.42626 0.54361 0.70861 0.0
C202 C 0.52042 0.62079 0.71502 0.0
C203 C 0.60315 0.65186 0.63378 0.0
C204 C 0.587 0.74965 0.60885 0.0
C205 C 0.58035 0.74771 0.63359 0.0
C206 C 0.58804 0.69896 0.64598 0.0
C207 C 0.61657 0.65589 0.6098 0.0
C208 C 0.60804 0.70405 0.5974 0.0
C209 C 0.59166 0.59734 0.64383 0.0
O210 O 0.53698 0.49357 0.68843 0.0
O211 O 0.45607 0.46364 0.70139 0.0
O212 O 0.38817 0.5179 0.67517 0.0
O213 O 0.46186 0.50911 0.65145 0.0
O214 O 0.37434 0.58049 0.73225 0.0
O215 O 0.38804 0.49444 0.73465 0.0
O216 O 0.39665 0.61304 0.68883 0.0
O217 O 0.4539 0.62242 0.65699 0.0
O218 O 0.50717 0.63263 0.69361 0.0
O219 O 0.50151 0.57421 0.72315 0.0
C220 C 0.50486 0.45388 0.6959 0.0
O221 O 0.59332 0.59296 0.6669 0.0
O222 O 0.54988 0.5732 0.63509 0.0
C223 C 0.41104 0.50295 0.65507 0.0
C224 C 0.36927 0.54175 0.77043 0.0
C225 C 0.37492 0.56408 0.81969 0.0
C226 C 0.32636 0.56161 0.80799 0.0
C227 C 0.32365 0.5506 0.78368 0.0
C228 C 0.41777 0.54289 0.78199 0.0
C229 C 0.42055 0.55366 0.80638 0.0
C230 C 0.3655 0.5359 0.74441 0.0
C231 C 0.41081 0.63538 0.66837 0.0
H232 H 0.564 0.78189 0.64291 0.0
H233 H 0.5773 0.69684 0.66457 0.0
H234 H 0.6279 0.62004 0.60005 0.0
H235 H 0.61218 0.70299 0.57829 0.0
H236 H 0.29048 0.57049 0.81736 0.0
H237 H 0.28588 0.55066 0.77505 0.0
H238 H 0.45358 0.53668 0.77207 0.0
H239 H 0.45863 0.55479 0.8147 0.0
Tb240 Tb 0.79283 0.28535 0.42397 0.0
Tb241 Tb 0.82017 0.20168 0.46617 0.0
C242 C 0.77699 0.31578 0.47363 0.0
C243 C 0.71071 0.35291 0.3814 0.0
C244 C 0.63382 0.31837 0.34902 0.0
C245 C 0.62503 0.31148 0.37344 0.0
C246 C 0.66334 0.32838 0.38954 0.0
C247 C 0.71693 0.36519 0.35732 0.0
C248 C 0.67904 0.34775 0.34124 0.0
C249 C 0.75672 0.35639 0.39685 0.0
O250 O 0.8784 0.28603 0.42341 0.0
O251 O 0.88835 0.25693 0.46188 0.0
O252 O 0.84991 0.16239 0.43333 0.0
O253 O 0.80493 0.21104 0.40482 0.0
O254 O 0.87481 0.17611 0.49164 0.0
O255 O 0.79544 0.14576 0.49259 0.0
O256 O 0.75758 0.15931 0.44756 0.0
O257 O 0.72112 0.23569 0.43177 0.0
O258 O 0.81094 0.32507 0.45686 0.0
O259 O 0.76541 0.2644 0.47791 0.0
C260 C 0.9081 0.27722 0.44197 0.0
O261 O 0.74699 0.35427 0.41957 0.0
O262 O 0.79514 0.32499 0.39085 0.0
C263 C 0.83452 0.17044 0.41106 0.0
C264 C 0.8365 0.1592 0.52959 0.0
C265 C 0.81721 0.17202 0.57912 0.0
C266 C 0.84587 0.12769 0.57042 0.0
C267 C 0.85497 0.12124 0.54601 0.0
C268 C 0.81201 0.20576 0.53809 0.0
C269 C 0.80285 0.21233 0.56246 0.0
C270 C 0.83977 0.14815 0.50378 0.0
C271 C 0.71826 0.18321 0.43728 0.0
H272 H 0.59045 0.28942 0.37995 0.0
H273 H 0.65738 0.3186 0.40813 0.0
H274 H 0.75305 0.38411 0.35072 0.0
H275 H 0.68761 0.35332 0.32254 0.0
H276 H 0.86005 0.09669 0.58228 0.0
H277 H 0.87481 0.08536 0.5399 0.0
H278 H 0.79786 0.23601 0.5258 0.0
H279 H 0.78146 0.24771 0.56774 0.0
Tb280 Tb 0.04372 0.58266 0.1716 0.0
Tb281 Tb 0.12763 0.5993 0.21359 0.0
C282 C 1.0284 0.52488 0.21774 0.0
C283 C 0.9387 0.6178 0.13183 0.0
C284 C 0.94059 0.69983 0.09749 0.0
C285 C 0.92142 0.64704 0.09183 0.0
C286 C 0.92109 0.6059 0.109 0.0
C287 C 0.94601 0.67253 0.13863 0.0
C288 C 0.94611 0.71374 0.12148 0.0
C289 C 0.96525 0.5752 0.14503 0.0
O290 O 1.02599 0.65645 0.19201 0.0
O291 O 0.1083 0.68154 0.20325 0.0
O292 O 0.17033 0.62289 0.1805 0.0
O293 O 0.10078 0.63813 0.1553 0.0
O294 O 0.19418 0.57722 0.23303 0.0
O295 O 0.1427 0.63836 0.24605 0.0
O296 O 0.14709 0.52121 0.198 0.0
O297 O 0.10352 0.52433 0.16214 0.0
O298 O 1.03821 0.51469 0.19574 0.0
O299 O 0.05044 0.56888 0.22677 0.0
C300 C 0.06049 0.69475 0.19798 0.0
O301 O 1.01327 0.56786 0.13785 0.0
O302 O 0.96184 0.57749 0.1681 0.0
C303 C 0.1512 0.64001 0.15996 0.0
C304 C 0.18516 0.58465 0.27489 0.0
C305 C 0.19229 0.53917 0.32124 0.0
C306 C 0.23203 0.57452 0.31208 0.0
C307 C 0.22846 0.59689 0.28925 0.0
C308 C 0.14481 0.55018 0.28398 0.0
C309 C 0.14828 0.52778 0.30694 0.0
C310 C 0.18299 0.60881 0.25074 0.0
C311 C 0.1394 0.50409 0.17613 0.0
H312 H 0.91556 0.63498 0.07358 0.0
H313 H 0.91463 0.56394 0.10356 0.0
H314 H 0.95879 0.68271 0.15635 0.0
H315 H 0.95924 0.75451 0.12641 0.0
H316 H 0.26618 0.58487 0.32258 0.0
H317 H 0.25984 0.62371 0.28273 0.0
H318 H 0.11091 0.5402 0.27324 0.0
H319 H 0.11721 0.50032 0.31322 0.0
Tb320 Tb 0.81204 0.72965 0.67378 0.0
Tb321 Tb 0.81816 0.80734 0.72022 0.0
C322 C 0.85388 0.68799 0.72339 0.0
C323 C 0.7984 0.67821 0.61031 0.0
C324 C 0.76445 0.67583 0.56239 0.0
C325 C 0.81049 0.64974 0.56937 0.0
C326 C 0.82698 0.65076 0.59298 0.0
C327 C 0.7538 0.7063 0.60352 0.0
C328 C 0.73723 0.70533 0.57984 0.0
C329 C 0.81727 0.67776 0.63501 0.0
O330 O 0.7365 0.71314 0.69059 0.0
O331 O 0.74811 0.75507 0.72718 0.0
O332 O 0.75163 0.83522 0.70135 0.0
O333 O 0.77889 0.81005 0.66437 0.0
O334 O 0.82036 0.82297 0.75669 0.0
O335 O 0.83504 0.88771 0.73109 0.0
O336 O 0.87873 0.8301 0.69427 0.0
O337 O 0.89442 0.74524 0.682 0.0
O338 O 0.82698 0.67494 0.70419 0.0
O339 O 0.86626 0.73878 0.72833 0.0
C340 C 0.72144 0.72284 0.71253 0.0
O341 O 0.78362 0.66605 0.6519 0.0
O342 O 0.84897 0.71779 0.6409 0.0
C343 C 0.74852 0.83896 0.67834 0.0
C344 C 0.89044 0.88301 0.76404 0.0
C345 C 0.98111 0.87196 0.79138 0.0
C346 C 0.93878 0.90261 0.79978 0.0
C347 C 0.89355 0.90756 0.78626 0.0
C348 C 0.93515 0.85936 0.75423 0.0
C349 C 0.98041 0.85424 0.76775 0.0
C350 C 0.83917 0.87245 0.75318 0.0
C351 C 0.9121 0.79425 0.68691 0.0
H352 H 0.83422 0.6284 0.55668 0.0
H353 H 0.86224 0.62978 0.59775 0.0
H354 H 0.73158 0.72861 0.61652 0.0
H355 H 0.7024 0.727 0.57547 0.0
H356 H 0.93753 0.91685 0.81791 0.0
H357 H 0.85948 0.92607 0.79406 0.0
H358 H 0.93343 0.84022 0.73701 0.0
H359 H 1.01236 0.83093 0.76069 0.0
Tb360 Tb 0.12806 0.10984 0.91992 0.0
Tb361 Tb 0.0445 0.08965 0.9615 0.0
C362 C 0.1512 0.14559 0.97405 0.0
C363 C 0.17917 0.10006 0.85771 0.0
C364 C 0.17507 1.05874 0.81074 0.0
C365 C 0.18446 0.11476 0.81491 0.0
C366 C 0.18654 0.13508 0.8381 0.0
C367 C 0.16927 1.04424 0.85368 0.0
C368 C 0.16753 1.02383 0.83053 0.0
C369 C 0.1813 0.12262 0.88206 0.0
O370 O 0.15097 1.03219 0.93491 0.0
O371 O 0.10402 1.02953 0.97026 0.0
O372 O 0.04466 1.02218 0.93747 0.0
O373 O 0.05097 0.07867 0.90712 0.0
O374 O 0.96284 0.07828 0.96278 0.0
O375 O 1.00898 0.07865 0.9949 0.0
O376 O 1.02715 0.16562 0.94219 0.0
O377 O 0.10992 0.19098 0.93129 0.0
O378 O 0.17055 0.13167 0.953 0.0
O379 O 0.10084 0.14193 0.97908 0.0
C380 C 0.14172 1.01186 0.95627 0.0
O381 O 0.19349 0.08949 0.8992 0.0
O382 O 0.14277 0.15343 0.88816 0.0
C383 C 1.03194 1.03272 0.91595 0.0
C384 C 0.94145 1.01285 0.99205 0.0
C385 C 0.94376 0.91014 1.01359 0.0
C386 C 0.95451 0.91543 0.98923 0.0
C387 C 0.95405 0.9669 0.97857 0.0
C388 C 0.91953 1.00542 1.01461 0.0
C389 C 0.91987 0.954 1.02526 0.0
C390 C 0.9635 0.06669 0.98539 0.0
C391 C 0.06208 0.20413 0.93649 0.0
H392 H 0.1898 0.14315 0.80027 0.0
H393 H 0.19385 0.17836 0.84074 0.0
H394 H 0.16314 1.01621 0.86842 0.0
H395 H 0.1612 0.98033 0.82824 0.0
H396 H 0.97099 0.88198 0.97946 0.0
H397 H 0.96961 0.9715 0.9608 0.0
H398 H 0.90843 1.04024 1.02509 0.0
H399 H 0.90952 0.95158 1.04388 0.0
Tb400 Tb 0.74851 0.40596 0.17179 0.0
Tb401 Tb 0.7552 0.31228 0.21178 0.0
C402 C 0.70535 0.42293 0.22487 0.0
C403 C 0.76849 0.46731 0.11109 0.0
C404 C 0.81059 0.46642 1.06429 0.0
C405 C 0.75607 0.46603 0.06818 0.0
C406 C 0.73535 0.46652 0.09128 0.0
C407 C 0.82296 0.46819 0.10728 0.0
C408 C 0.84367 0.46787 0.08421 0.0
C409 C 0.74543 0.46711 0.13539 0.0
O410 O 0.82086 0.42707 0.1902 0.0
O411 O 0.81549 0.37118 0.22356 0.0
O412 O 0.82408 0.31152 0.18989 0.0
O413 O 0.77788 0.32854 0.15753 0.0
O414 O 0.76002 0.27377 0.24489 0.0
O415 O 0.75803 0.22673 0.2125 0.0
O416 O 0.68619 0.29765 0.18918 0.0
O417 O 0.66772 0.38518 0.18034 0.0
O418 O 0.72459 0.44585 0.20512 0.0
O419 O 0.70459 0.36987 0.22856 0.0
C420 C 0.83664 0.41276 0.21152 0.0
O421 O 0.77695 0.47551 0.15317 0.0
O422 O 0.71117 0.42818 0.14013 0.0
C423 C 0.81829 0.30576 0.16734 0.0
C424 C 0.71015 0.19298 0.24545 0.0
C425 C 0.62363 0.18164 0.2755 0.0
C426 C 0.67233 0.16122 0.28247 0.0
C427 C 0.71585 0.16798 0.26757 0.0
C428 C 0.65963 0.20039 0.23647 0.0
C429 C 0.6161 0.19355 0.25139 0.0
C430 C 0.75433 0.22523 0.23559 0.0
C431 C 0.65175 0.33483 0.18407 0.0
H432 H 0.72928 0.46454 1.05339 0.0
H433 H 0.69321 0.46597 0.09369 0.0
H434 H 0.84974 0.46916 0.12208 0.0
H435 H 0.88585 0.46946 0.08203 0.0
H436 H 0.67935 0.14992 0.30074 0.0
H437 H 0.7545 0.16092 0.27459 0.0
H438 H 0.65429 0.21855 0.21917 0.0
H439 H 0.57859 0.20765 0.24532 0.0
Tb440 Tb 0.41539 0.9973 0.4226 0.0
Tb441 Tb 0.47242 0.97898 0.47311 0.0
C442 C 0.35672 0.94614 0.46709 0.0
C443 C 0.37907 1.02226 0.35775 0.0
C444 C 0.3866 0.06473 0.31084 0.0
C445 C 0.3621 1.01354 0.31547 0.0
C446 C 0.35832 0.99278 0.3386 0.0
C447 C 0.40487 0.07253 0.35338 0.0
C448 C 0.40876 0.09335 0.33018 0.0
C449 C 0.37439 0.99806 0.38173 0.0
O450 O 0.41316 0.07642 0.43966 0.0
O451 O 0.41786 1.04631 0.4784 0.0
O452 O 0.52396 1.0388 0.45669 0.0
O453 O 0.49483 1.03523 0.41789 0.0
O454 O 0.50133 0.91585 0.49418 0.0
O455 O 0.50421 0.9994 0.50619 0.0
O456 O 0.51076 0.93449 0.44514 0.0
O457 O 0.43449 0.91172 0.42833 0.0
O458 O 0.35256 0.98027 0.44908 0.0
O459 O 0.40246 0.92776 0.47264 0.0
C460 C 0.40605 0.08402 0.46252 0.0
O461 O 0.35933 1.02875 0.3992 0.0
O462 O 0.41191 0.96628 0.38805 0.0
C463 C 0.52861 1.05211 0.43425 0.0
C464 C 0.57873 0.94827 0.51155 0.0
C465 C 0.67973 0.99315 0.51576 0.0
C466 C 0.66142 0.97689 0.49339 0.0
C467 C 0.61051 0.95544 0.49126 0.0
C468 C 0.60115 0.95236 0.53394 0.0
C469 C 0.65209 0.97354 0.53607 0.0
C470 C 0.52183 0.95029 0.50918 0.0
C471 C 0.48217 0.89855 0.43382 0.0
H472 H 0.34592 0.98907 0.30126 0.0
H473 H 0.33903 0.95336 0.34154 0.0
H474 H 0.42178 0.09575 0.36785 0.0
H475 H 0.42828 0.13248 0.32761 0.0
H476 H 0.68254 0.98932 0.47744 0.0
H477 H 0.59407 0.95109 0.47372 0.0
H478 H 0.57749 0.94562 0.54976 0.0
H479 H 0.66542 0.98304 0.55378 0.0
Tb480 Tb 0.24607 0.2914 0.42064 0.0
Tb481 Tb 0.23311 0.38211 0.46199 0.0
C482 C 0.26885 0.26611 0.47004 0.0
C483 C 0.32433 0.21037 0.38237 0.0
C484 C 0.41574 0.23905 0.3567 0.0
C485 C 0.41674 0.23775 0.38153 0.0
C486 C 0.37134 0.22349 0.3943 0.0
C487 C 0.32516 0.20512 0.35773 0.0
C488 C 0.37036 0.2196 0.34498 0.0
C489 C 0.2736 0.21445 0.39468 0.0
O490 O 0.16141 0.29843 0.42148 0.0
O491 O 0.1555 0.34304 0.45737 0.0
O492 O 0.20325 0.42212 0.42954 0.0
O493 O 0.24226 0.36746 0.40134 0.0
O494 O 0.20143 0.39106 0.4961 0.0
O495 O 0.2477 0.45626 0.48011 0.0
O496 O 0.30169 0.41154 0.44287 0.0
O497 O 0.32393 0.3303 0.42575 0.0
O498 O 0.22977 0.26015 0.45567 0.0
O499 O 0.28567 0.31647 0.47262 0.0
C500 C 0.13371 0.31739 0.43925 0.0
O501 O 0.27567 0.21284 0.41771 0.0
O502 O 0.24399 0.25362 0.38722 0.0
C503 C 0.21817 0.41214 0.40736 0.0
C504 C 0.25205 0.44572 0.52216 0.0
C505 C 0.29953 0.45708 0.56741 0.0
C506 C 0.26591 0.49704 0.55863 0.0
C507 C 0.24246 0.49135 0.53631 0.0
C508 C 0.28574 0.40585 0.53071 0.0
C509 C 0.30913 0.41142 0.55304 0.0
C510 C 0.22407 0.43867 0.49936 0.0
C511 C 0.33449 0.38183 0.43092 0.0
H512 H 0.45112 0.25219 0.39101 0.0
H513 H 0.37208 0.2275 0.41341 0.0
H514 H 0.28954 0.19502 0.3482 0.0
H515 H 0.36788 0.22049 0.32582 0.0
H516 H 0.25817 0.53321 0.56887 0.0
H517 H 0.21644 0.52253 0.53016 0.0
H518 H 0.29345 0.37001 0.52023 0.0
H519 H 0.33422 0.37942 0.55917 0.0
Tb520 Tb 1.02186 1.02908 0.16543 0.0
Tb521 Tb 0.94054 1.02314 0.21031 0.0
C522 C 0.04631 0.09169 0.21032 0.0
C523 C 0.10134 0.97549 0.11838 0.0
C524 C 0.0795 0.8969 0.08373 0.0
C525 C 0.10723 0.94567 0.07775 0.0
C526 C 0.11779 0.98489 0.09501 0.0
C527 C 0.08161 0.92352 0.12505 0.0
C528 C 0.07114 0.88419 0.10781 0.0
C529 C 0.09016 1.02237 0.13336 0.0
O530 O 1.04065 0.96117 0.18907 0.0
O531 O 0.9582 0.93923 0.20137 0.0
O532 O 0.89323 1.00401 0.17843 0.0
O533 O 0.95958 0.97393 0.15438 0.0
O534 O 0.8789 1.0523 0.23144 0.0
O535 O 0.92144 0.98203 0.24227 0.0
O536 O 0.92652 0.1021 0.19402 0.0
O537 O 0.96645 0.09286 0.15726 0.0
O538 O 0.04134 0.09731 0.18756 0.0
O539 O 1.01873 1.0536 0.22179 0.0
C540 C 1.00581 0.92433 0.19636 0.0
O541 O 0.04365 1.04148 0.12996 0.0
O542 O 0.10057 1.01736 0.15586 0.0
C543 C 0.90964 0.9809 0.15861 0.0
C544 C 0.88361 1.03409 0.2731 0.0
C545 C 0.87536 0.06745 0.32122 0.0
C546 C 0.84771 1.02089 0.31297 0.0
C547 C 0.8518 1.00455 0.28929 0.0
C548 C 0.91233 0.07996 0.2812 0.0
C549 C 0.90829 0.09642 0.30503 0.0
C550 C 0.88518 1.0159 0.24802 0.0
C551 C 0.93446 0.11767 0.17184 0.0
H552 H 0.11453 0.95701 1.05942 0.0
H553 H 0.133 1.02478 0.08958 0.0
H554 H 0.06871 0.91546 0.14311 0.0
H555 H 0.05091 0.84657 0.11304 0.0
H556 H 0.82258 0.99698 0.32484 0.0
H557 H 0.82955 0.96881 0.28353 0.0
H558 H 0.9373 0.10338 0.26908 0.0
H559 H 0.92979 0.13277 0.31058 0.0
Tb560 Tb 0.3343 0.79228 0.91198 0.0
Tb561 Tb 0.32357 0.71379 0.9591 0.0
C562 C 0.26845 0.82863 0.95483 0.0
C563 C 0.40463 0.85261 0.86199 0.0
C564 C 0.48023 0.82395 0.82811 0.0
C565 C 0.44098 0.8614 0.82247 0.0
C566 C 0.40329 0.87518 0.83925 0.0
C567 C 0.44755 0.82144 0.8687 0.0
C568 C 0.48531 0.80742 0.85189 0.0
C569 C 0.35699 0.85164 0.87666 0.0
O570 O 0.39397 0.81515 0.9379 0.0
O571 O 0.40673 0.73001 0.9516 0.0
O572 O 0.33784 0.65918 0.92871 0.0
O573 O 0.38228 0.72262 0.90582 0.0
O574 O 0.29065 0.65154 0.98105 0.0
O575 O 0.35762 0.6995 0.99233 0.0
O576 O 0.2472 0.70397 0.94266 0.0
O577 O 0.26427 0.74071 0.90528 0.0
O578 O 0.27184 0.82742 0.93174 0.0
O579 O 0.29488 0.79531 0.96849 0.0
C580 C 0.42548 0.77897 0.94655 0.0
O581 O 0.32964 0.8061 0.87541 0.0
O582 O 0.36229 0.86789 0.89849 0.0
C583 C 0.36663 0.67214 0.9098 0.0
C584 C 0.30113 0.66571 1.02277 0.0
C585 C 0.26165 0.66935 0.07019 0.0
C586 C 0.30975 0.64492 1.0649 0.0
C587 C 0.32894 0.64296 1.04158 0.0
C588 C 0.2543 0.69211 1.02781 0.0
C589 C 0.23503 0.69417 1.0512 0.0
C590 C 0.32286 0.66209 0.99836 0.0
C591 C 0.23455 0.71205 0.92033 0.0
H592 H 0.43523 0.87512 0.80443 0.0
H593 H 0.37047 0.8993 0.83381 0.0
H594 H 0.44937 0.80394 0.88635 0.0
H595 H 0.51536 0.77938 0.85698 0.0
H596 H 0.33316 0.62724 0.07871 0.0
H597 H 0.36577 0.62335 1.03822 0.0
H598 H 0.2324 0.7108 1.01368 0.0
H599 H 0.19853 0.71436 1.05412 0.0
Tb600 Tb 0.57653 0.13993 0.65694 0.0
Tb601 Tb 0.6281 0.12404 0.70922 0.0
C602 C 0.51174 0.07724 0.69705 0.0
C603 C 0.57552 0.1744 0.59427 0.0
C604 C 0.64574 0.16765 0.55608 0.0
C605 C 0.59291 0.15073 0.55349 0.0
C606 C 0.55807 0.15377 0.57257 0.0
C607 C 0.62622 0.1977 0.59589 0.0
C608 C 0.66103 0.19433 0.57689 0.0
C609 C 0.54519 0.16241 0.6159 0.0
O610 O 0.53935 0.19396 0.6819 0.0
O611 O 0.61353 0.21071 0.70232 0.0
O612 O 0.69336 0.13328 0.68333 0.0
O613 O 0.64951 0.18697 0.65779 0.0
O614 O 0.68687 0.09656 0.73209 0.0
O615 O 0.62575 0.14813 0.74498 0.0
O616 O 0.62142 1.04283 0.69426 0.0
O617 O 0.62666 0.06792 0.65499 0.0
O618 O 0.51732 0.0903 0.67456 0.0
O619 O 0.54735 0.0896 0.71331 0.0
C620 C 0.56845 0.22743 0.69444 0.0
O621 O 0.54903 0.11265 0.62393 0.0
O622 O 0.5502 0.19821 0.63275 0.0
C623 C 0.69335 0.16645 0.66485 0.0
C624 C 0.66448 0.08962 0.77359 0.0
C625 C 0.67039 1.03791 0.81882 0.0
C626 C 0.65392 0.09204 0.8167 0.0
C627 C 0.65111 0.11749 0.79441 0.0
C628 C 0.68023 1.03528 0.77556 0.0
C629 C 0.6831 1.0098 0.79785 0.0
C630 C 0.66649 0.11992 0.75061 0.0
C631 C 0.63132 1.03104 0.67197 0.0
H632 H 0.57999 0.12928 0.53774 0.0
H633 H 0.51909 0.13561 0.57102 0.0
H634 H 0.64046 0.21433 0.61243 0.0
H635 H 0.70111 0.20768 0.57934 0.0
H636 H 0.64326 0.11493 0.83228 0.0
H637 H 0.63937 0.1596 0.7935 0.0
H638 H 0.69146 1.01273 0.75996 0.0
H639 H 0.69683 0.96843 0.79866 0.0
C640 C 0.47621 0.29752 0.30268 0.0
C641 C 0.47669 0.35308 0.30896 0.0
H642 H 0.4603 0.21584 0.3139 0.0
C643 C 0.47756 0.36656 0.33313 0.0
H644 H 0.47628 0.28496 0.2843 0.0
C645 C 0.46627 0.32621 0.35018 0.0
C646 C 0.45497 0.27219 0.34306 0.0
H647 H 0.47886 0.40892 0.33854 0.0
H648 H 0.45874 0.33897 0.36821 0.0
C649 C 0.46657 0.25736 0.31973 0.0
C650 C 0.57708 0.80186 0.57131 0.0
C651 C 0.5581 0.78926 0.59419 0.0
H652 H 0.56008 0.79634 0.53456 0.0
C653 C 0.50385 0.79239 0.59831 0.0
H654 H 0.61886 0.80298 0.56776 0.0
C655 C 0.46954 0.78917 0.57915 0.0
C656 C 0.48999 0.78239 0.55618 0.0
H657 H 0.48764 0.78622 0.61592 0.0
H658 H 0.4283 0.78115 0.58273 0.0
C659 C 0.5429 0.7979 0.55213 0.0
C660 C 0.48523 0.70376 0.79016 0.0
C661 C 0.47386 0.7312 0.76894 0.0
H662 H 0.49747 0.71355 0.82719 0.0
C663 C 0.49405 0.78497 0.76605 0.0
H664 H 0.47376 0.66119 0.79251 0.0
C665 C 0.50921 0.81499 0.78594 0.0
C666 C 0.50328 0.79141 0.80859 0.0
H667 H 0.48923 0.80717 0.7496 0.0
H668 H 0.51591 0.85863 0.78397 0.0
C669 C 0.49922 0.73405 0.81016 0.0
C670 C 0.99731 0.72887 1.03781 0.0
C671 C 0.05074 0.72987 1.04388 0.0
H672 H 0.91846 0.72047 1.0507 0.0
C673 C 0.0648 0.74074 0.06737 0.0
H674 H 0.98506 0.72103 1.01978 0.0
C675 C 1.02661 0.73992 0.0851 0.0
C676 C 0.9737 0.72862 0.07948 0.0
H677 H 0.10562 0.74294 0.0724 0.0
H678 H 1.03971 0.74095 0.10331 0.0
C679 C 0.95895 0.72815 1.05556 0.0
C680 C 1.00264 0.75869 0.83073 0.0
C681 C 0.99717 0.78887 0.85158 0.0
H682 H 1.00442 0.76374 0.79312 0.0
C683 C 1.01779 0.84271 0.8519 0.0
H684 H 0.98964 0.71631 0.83015 0.0
C685 C 1.0261 0.87056 0.83045 0.0
C686 C 1.01395 0.8439 0.8091 0.0
H687 H 1.01642 0.86624 0.86808 0.0
H688 H 1.03128 0.91458 0.8308 0.0
C689 C 1.01116 0.78638 0.8093 0.0
C690 C 0.59001 0.1934 0.31676 0.0
C691 C 0.59508 0.21344 0.29346 0.0
H692 H 0.59849 0.2122 0.35343 0.0
C693 C 0.59286 0.27018 0.28961 0.0
H694 H 0.59068 0.1499 0.32022 0.0
C695 C 0.59752 0.30594 0.30857 0.0
C696 C 0.60371 0.28554 0.3316 0.0
H697 H 0.59546 0.28751 0.27192 0.0
H698 H 0.60223 0.34921 0.30492 0.0
C699 C 0.59466 0.22935 0.33581 0.0
C700 C 0.99301 0.86052 0.06985 0.0
C701 C 0.04681 0.87005 0.06529 0.0
H702 H 0.91593 0.85778 1.05521 0.0
C703 C 0.06474 0.86803 1.04175 0.0
H704 H 0.97751 0.86011 0.08776 0.0
C705 C 1.02888 0.86901 1.02321 0.0
C706 C 0.97483 0.87226 1.0282 0.0
H707 H 0.10613 0.8729 1.03766 0.0
H708 H 0.04423 0.87627 1.00551 0.0
C709 C 0.95742 0.8595 1.05122 0.0
C710 C 0.68971 0.09022 0.50476 0.0
C711 C 0.7093 1.04607 0.51789 0.0
H712 H 0.65261 0.16722 0.50746 0.0
C713 C 0.73319 1.05795 0.53966 0.0
H714 H 0.67403 0.08428 0.48717 0.0
C715 C 0.71883 0.10484 0.55171 0.0
C716 C 0.68532 0.14203 0.54089 0.0
H717 H 0.75172 1.02595 0.54963 0.0
H718 H 0.72649 0.10683 0.57053 0.0
C719 C 0.67686 0.1381 0.51645 0.0
C720 C 0.16748 0.19335 1.01238 0.0
C721 C 0.18618 0.15996 0.99416 0.0
H722 H 0.17721 0.22279 1.04772 0.0
C723 C 0.2333 0.13286 0.99771 0.0
H724 H 0.1313 0.21488 1.0102 0.0
C725 C 0.25923 0.13636 1.01961 0.0
C726 C 0.23875 0.16733 1.03838 0.0
H727 H 0.24822 0.10603 0.9842 0.0
H728 H 0.2938 0.11247 1.02218 0.0
C729 C 0.19349 0.19725 1.03408 0.0
C730 C 0.71318 0.52675 0.27395 0.0
C731 C 0.67468 0.50638 0.29003 0.0
H732 H 0.75197 0.5173 0.24037 0.0
C733 C 0.64154 0.46299 0.28256 0.0
H734 H 0.74007 0.55951 0.27894 0.0
C735 C 0.64932 0.43811 0.26059 0.0
C736 C 0.68939 0.45694 0.24514 0.0
H737 H 0.61028 0.44718 0.29392 0.0
H738 H 0.62503 0.40283 0.256 0.0
C739 C 0.72008 0.50265 0.2517 0.0
C740 C 0.25776 0.98411 0.51356 0.0
C741 C 0.26598 0.94328 0.53074 0.0
H742 H 0.27752 1.01531 0.47905 0.0
C743 C 0.29427 0.89735 0.52399 0.0
H744 H 0.23585 1.01995 0.51791 0.0
C745 C 0.3188 0.89539 0.5018 0.0
C746 C 0.31536 0.93904 0.48561 0.0
H747 H 0.29982 0.86399 0.53631 0.0
H748 H 0.34377 0.86142 0.498 0.0
C749 C 0.28179 0.98163 0.49115 0.0
C750 C 0.91174 0.65337 0.75508 0.0
C751 C 0.86523 0.64743 0.74208 0.0
H752 H 0.95361 0.63326 0.78643 0.0
C753 C 0.82553 0.61174 0.75071 0.0
H754 H 0.94291 0.68094 0.74891 0.0
C755 C 0.83073 0.58577 0.77281 0.0
C756 C 0.87608 0.59442 0.78663 0.0
H757 H 0.78878 0.60741 0.74134 0.0
H758 H 0.79777 0.56165 0.77961 0.0
C759 C 0.91738 0.62675 0.77687 0.0
C760 C 0.88853 0.93118 0.12125 0.0
C761 C 0.87357 0.96881 0.13859 0.0
H762 H 0.87748 0.90043 0.08638 0.0
C763 C 0.83019 1.0013 0.13405 0.0
H764 H 0.9219 0.90557 0.12407 0.0
C765 C 0.80471 0.99866 0.11201 0.0
C766 C 0.82178 0.96314 0.09409 0.0
H767 H 0.81793 1.03106 0.14691 0.0
H768 H 0.77244 1.02544 0.10884 0.0
C769 C 0.86296 0.92827 0.09945 0.0
C770 C 0.33726 0.59358 0.88407 0.0
C771 C 0.37552 0.63322 0.89015 0.0
H772 H 0.30702 0.54012 0.85711 0.0
C773 C 0.41722 0.64387 0.87418 0.0
H774 H 0.30444 0.58477 0.89585 0.0
C775 C 0.41855 0.61885 0.85199 0.0
C776 C 0.37806 0.58257 0.84497 0.0
H777 H 0.44731 0.67437 0.87824 0.0
H778 H 0.44962 0.63088 0.83976 0.0
C779 C 0.3384 0.56867 0.86167 0.0
C780 C 0.78866 0.12387 0.61762 0.0
C781 C 0.79675 0.17281 0.60446 0.0
H782 H 0.75262 0.0844 0.64793 0.0
C783 C 0.7791 0.22138 0.61487 0.0
H784 H 0.80061 0.08507 0.61071 0.0
C785 C 0.74906 0.22002 0.63582 0.0
C786 C 0.738 0.17058 0.64779 0.0
H787 H 0.7858 0.26051 0.60629 0.0
H788 H 0.73209 0.25743 0.64202 0.0
C789 C 0.76059 0.12309 0.63915 0.0
C790 C 0.16318 0.47471 0.38239 0.0
C791 C 0.21184 0.45258 0.38791 0.0
H792 H 0.1184 0.51916 0.35684 0.0
C793 C 0.25409 0.46203 0.37217 0.0
H794 H 0.12971 0.46724 0.39397 0.0
C795 C 0.24782 0.49131 0.3511 0.0
C796 C 0.19882 0.51173 0.34487 0.0
H797 H 0.29197 0.445 0.3758 0.0
H798 H 0.28109 0.49583 0.33917 0.0
C799 C 0.15663 0.50371 0.36097 0.0
C800 C 0.70978 0.70847 0.52775 0.0
C801 C 0.7435 0.66975 0.53757 0.0
H802 H 0.65593 0.72736 0.50003 0.0
C803 C 0.75399 0.62296 0.52397 0.0
H804 H 0.70153 0.74593 0.53692 0.0
C805 C 0.72967 0.61397 0.50208 0.0
C806 C 0.69311 0.6506 0.49342 0.0
H807 H 0.77862 0.59126 0.53068 0.0
H808 H 0.73628 0.5761 0.49292 0.0
C809 C 0.68427 0.6985 0.50623 0.0
C810 C 0.20906 1.0571 0.76832 0.0
C811 C 0.17456 1.03622 0.78604 0.0
H812 H 0.2423 1.04614 0.73356 0.0
C813 C 0.14165 0.99123 0.78034 0.0
H814 H 0.23534 0.09138 0.77196 0.0
C815 C 0.14612 0.96525 0.75844 0.0
C816 C 0.18281 0.98407 0.74139 0.0
H817 H 0.11345 0.97479 0.7931 0.0
H818 H 0.12237 0.92874 0.75523 0.0
C819 C 0.21295 1.03142 0.74618 0.0
C820 C 0.81105 0.4956 1.02098 0.0
C821 C 0.8333 0.46584 1.0397 0.0
H822 H 0.8196 0.5252 0.98516 0.0
C823 C 0.87924 0.43728 1.03502 0.0
H824 H 0.77573 0.51819 1.02383 0.0
C825 C 0.90437 0.44169 1.01298 0.0
C826 C 0.88413 0.47432 0.9948 0.0
H827 H 0.89677 0.41253 1.04864 0.0
H828 H 0.94109 0.42125 1.01051 0.0
C829 C 0.8361 0.49956 0.99872 0.0
C830 C 0.3422 0.1052 0.24864 0.0
C831 C 0.38015 0.14501 0.24213 0.0
H832 H 0.31286 1.05077 0.27553 0.0
C833 C 0.42303 0.15443 0.25719 0.0
H834 H 0.30812 0.09802 0.23766 0.0
C835 C 0.42684 0.12611 0.27874 0.0
C836 C 0.38677 0.08913 0.28628 0.0
H837 H 0.45281 0.18516 0.25266 0.0
H838 H 0.46066 0.13441 0.28971 0.0
C839 C 0.34507 0.07812 0.27053 0.0
C840 C 0.32647 0.49742 0.63193 0.0
C841 C 0.37934 0.48393 0.63442 0.0
H842 H 0.25967 0.49942 0.60904 0.0
C843 C 0.40427 0.45826 0.6153 0.0
H844 H 0.30614 0.5177 0.64615 0.0
C845 C 0.37802 0.44843 0.59399 0.0
C846 C 0.32584 0.46392 0.591 0.0
H847 H 0.44499 0.44729 0.61647 0.0
H848 H 0.39958 0.43063 0.5795 0.0
C849 C 0.30009 0.48765 0.61047 0.0
C850 C 0.81659 0.08553 0.35631 0.0
C851 C 0.86716 0.08717 0.34614 0.0
H852 H 0.76726 0.10949 0.38514 0.0
C853 C 0.90859 0.10999 0.35962 0.0
H854 H 0.78345 0.06924 0.3465 0.0
C855 C 0.89916 0.1325 0.38214 0.0
C856 C 0.84812 0.13284 0.39161 0.0
H857 H 0.9481 0.11169 0.35251 0.0
H858 H 0.93114 0.15267 0.39144 0.0
C859 C 0.80723 0.10834 0.37859 0.0
C860 C 0.1752 0.69794 0.12452 0.0
C861 C 0.18669 0.65445 0.13979 0.0
H862 H 0.19177 0.73935 0.09181 0.0
C863 C 0.22586 0.61858 0.13301 0.0
H864 H 0.14479 0.72601 0.12919 0.0
C865 C 0.25081 0.62408 0.11083 0.0
C866 C 0.23847 0.66671 0.09497 0.0
H867 H 0.23453 0.58379 0.1441 0.0
H868 H 0.27786 0.59291 0.10585 0.0
C869 C 0.20151 0.70472 0.10271 0.0
C870 C 0.66365 0.95504 0.8455 0.0
C871 C 0.67557 1.01104 0.84267 0.0
H872 H 0.66559 0.88467 0.86804 0.0
C873 C 0.69462 1.04014 0.86253 0.0
H874 H 0.6476 0.93137 0.83098 0.0
C875 C 0.70406 1.01322 0.88417 0.0
C876 C 0.69497 0.95663 0.88632 0.0
H877 H 0.70458 0.08325 0.86109 0.0
H878 H 0.72126 1.03604 0.89868 0.0
C879 C 0.67346 0.92828 0.8669 0.0
C880 C 0.52177 0.2542 0.1821 0.0
C881 C 0.48493 0.29586 0.1838 0.0
H882 H 0.603 0.23347 0.18096 0.0
C883 C 0.50364 0.3502 0.18517 0.0
H884 H 0.50887 0.21181 0.18121 0.0
C885 C 0.55761 0.36258 0.18479 0.0
C886 C 0.59449 0.32094 0.18338 0.0
H887 H 0.47657 0.38332 0.18659 0.0
H888 H 0.57042 0.40495 0.18605 0.0
C889 C 0.57584 0.26655 0.18206 0.0
C890 C 0.47936 0.74333 0.43306 0.0
C891 C 0.53298 0.73195 0.43415 0.0
H892 H 0.42122 0.80492 0.43148 0.0
C893 C 0.56963 0.77586 0.43385 0.0
H894 H 0.45016 0.71044 0.43331 0.0
C895 C 0.55307 0.82986 0.43323 0.0
C896 C 0.4995 0.84131 0.43235 0.0
H897 H 0.61121 0.76861 0.43485 0.0
H898 H 0.58227 0.86274 0.43371 0.0
C899 C 0.46282 0.79744 0.43189 0.0
C900 C 1.00686 0.76632 0.6856 0.0
C901 C 0.96945 0.8076 0.68669 0.0
H902 H 0.08867 0.74681 0.68553 0.0
C903 C 0.98739 0.862 0.68871 0.0
H904 H 0.99439 0.72386 0.68433 0.0
C905 C 1.04104 0.87499 0.68928 0.0
C906 C 0.07862 0.83399 0.68813 0.0
H907 H 0.9599 0.8948 0.68982 0.0
H908 H 0.05306 0.91756 0.69074 0.0
C909 C 0.06089 0.77934 0.68649 0.0
C910 C 0.98319 0.33397 0.93532 0.0
C911 C 1.02289 0.37511 0.93469 0.0
H912 H 0.96412 0.24808 0.93665 0.0
C913 C 0.07535 0.35933 0.93451 0.0
H914 H 0.94228 0.34454 0.93565 0.0
C915 C 0.08778 0.30393 0.93484 0.0
C916 C 0.04811 0.26279 0.9357 0.0
H917 H 0.10689 0.38978 0.93408 0.0
H918 H 0.1287 0.2934 0.93472 0.0
C919 C 0.99563 0.27855 0.936 0.0
C920 C 0.55635 0.85667 0.95043 0.0
C921 C 0.59242 0.81566 0.9456 0.0
H922 H 0.47547 0.8775 0.95408 0.0
C923 C 0.57306 0.76217 0.9418 0.0
H924 H 0.56991 0.89836 0.95328 0.0
C925 C 0.51901 0.74995 0.94297 0.0
C926 C 0.48291 0.79122 0.94726 0.0
H927 H 0.59974 0.72964 0.93808 0.0
H928 H 0.50537 0.7084 0.93982 0.0
C929 C 0.50224 0.84476 0.95086 0.0
C930 C 0.48475 0.35312 0.69594 0.0
C931 C 0.52228 0.39621 0.69699 0.0
H932 H 0.46987 0.26676 0.69414 0.0
C933 C 0.57552 0.3831 0.69836 0.0
H934 H 0.4434 0.36146 0.69472 0.0
C935 C 0.59066 0.32822 0.69856 0.0
C936 C 0.55297 0.28539 0.69679 0.0
H937 H 0.60544 0.41519 0.69921 0.0
H938 H 0.63195 0.3194 0.69931 0.0
C939 C 0.49989 0.29865 0.69556 0.0
C940 C 0.04765 0.29849 0.41857 0.0
C941 C 0.07575 0.30829 0.43957 0.0
H942 H 0.97251 0.28225 0.40273 0.0
C943 C 0.0478 0.30971 0.46113 0.0
H944 H 0.06788 0.29748 0.40164 0.0
C945 C 0.99347 0.30035 0.46177 0.0
C946 C 0.96531 0.29048 0.44083 0.0
H947 H 0.06804 0.31707 0.47766 0.0
H948 H 0.97348 0.3008 0.47877 0.0
C949 C 0.99295 0.29024 0.41916 0.0
C950 C 0.08525 0.7949 0.19799 0.0
C951 C 0.046 0.75338 0.19833 0.0
H952 H 0.10358 0.88085 0.19688 0.0
C953 C 0.99331 0.76873 0.19841 0.0
H954 H 0.12627 0.78473 0.19771 0.0
C955 C 0.9803 0.82411 0.19832 0.0
C956 C 1.01962 0.86557 0.1977 0.0
H957 H 0.96205 0.73797 0.19859 0.0
H958 H 0.93932 0.83441 0.19828 0.0
C959 C 0.07226 0.85016 0.19747 0.0
C960 C 0.18323 0.36476 0.15741 0.0
C961 C 0.23744 0.36974 0.16146 0.0
H962 H 0.10908 0.40446 0.15847 0.0
C963 C 0.25952 0.42153 0.16624 0.0
H964 H 0.16505 0.32489 0.15457 0.0
C965 C 0.22745 0.4662 0.16953 0.0
C966 C 0.17287 0.46022 0.16744 0.0
H967 H 0.30087 0.4261 0.17023 0.0
H968 H 0.245 0.50464 0.17523 0.0
C969 C 0.15115 0.41001 0.16004 0.0
C970 C 0.38552 0.4632 0.41623 0.0
C971 C 0.38478 0.40829 0.42368 0.0
H972 H 0.43177 0.53661 0.41086 0.0
C973 C 0.4324 0.3823 0.42709 0.0
H974 H 0.34919 0.48397 0.41326 0.0
C975 C 0.47966 0.41275 0.42596 0.0
C976 C 0.47987 0.46896 0.42064 0.0
H977 H 0.4328 0.34001 0.43279 0.0
H978 H 0.51551 0.39354 0.43126 0.0
C979 C 0.43278 0.49316 0.41446 0.0
C980 C 0.37147 0.7743 0.6467 0.0
C981 C 0.31753 0.77292 0.65202 0.0
H982 H 0.44352 0.73102 0.64742 0.0
C983 C 0.29329 0.72283 0.65838 0.0
H984 H 0.3914 0.81276 0.64245 0.0
C985 C 0.32343 0.67671 0.66219 0.0
C986 C 0.3781 0.67949 0.65901 0.0
H987 H 0.25213 0.72093 0.66322 0.0
H988 H 0.30442 0.63984 0.66911 0.0
C989 C 0.40144 0.72772 0.64985 0.0
C990 C 0.09094 0.68896 0.90696 0.0
C991 C 0.08676 0.63153 0.90683 0.0
H992 H 0.14165 0.75983 0.91095 0.0
C993 C 0.1329 0.60165 0.9073 0.0
H994 H 0.05589 0.71292 0.90742 0.0
C995 C 0.18169 0.62844 0.91015 0.0
C996 C 0.18535 0.68559 0.91196 0.0
H997 H 0.13079 0.55746 0.90815 0.0
H998 H 0.21617 0.60428 0.9125 0.0
C999 C 0.13989 0.7158 0.90928 0.0
C1000 C 0.80916 0.6984 0.97505 0.0
C1001 C 0.82748 0.75296 0.9763 0.0
H1002 H 0.82767 0.61559 0.96758 0.0
C1003 C 0.88198 0.76371 0.9754 0.0
H1004 H 0.76754 0.6886 0.97573 0.0
C1005 C 0.91677 0.7211 0.97119 0.0
C1006 C 0.8973 0.66758 0.96759 0.0
H1007 H 0.89738 0.80525 0.97613 0.0
H1008 H 0.95824 0.73055 0.96911 0.0
C1009 C 0.84353 0.65646 0.97032 0.0
C1010 C 0.62628 0.72837 0.72249 0.0
C1011 C 0.67115 0.69701 0.72033 0.0
H1012 H 0.54235 0.72803 0.72265 0.0
C1013 C 0.66569 0.63979 0.72132 0.0
H1014 H 0.62939 0.77246 0.72139 0.0
C1015 C 0.61591 0.61429 0.72304 0.0
C1016 C 0.57067 0.64564 0.72301 0.0
H1017 H 0.69974 0.61476 0.71929 0.0
H1018 H 0.61267 0.57021 0.72191 0.0
C1019 C 0.57646 0.70289 0.72345 0.0
C1020 C 0.75857 0.41441 0.47556 0.0
C1021 C 0.74014 0.36023 0.47858 0.0
H1022 H 0.73928 0.49717 0.46837 0.0
C1023 C 0.68574 0.35013 0.48089 0.0
H1024 H 0.80014 0.42355 0.47357 0.0
C1025 C 0.65058 0.3931 0.47827 0.0
C1026 C 0.66954 0.44636 0.47328 0.0
H1027 H 0.67027 0.30874 0.48281 0.0
H1028 H 0.60882 0.38408 0.47844 0.0
C1029 C 0.72374 0.45672 0.47263 0.0
C1030 C 0.88517 0.49996 0.2199 0.0
C1031 C 0.8828 0.44266 0.22105 0.0
H1032 H 0.93443 0.57218 0.21985 0.0
C1033 C 0.92777 0.41466 0.22753 0.0
H1034 H 0.85092 0.52238 0.21489 0.0
C1035 C 0.97577 0.44319 0.23002 0.0
C1036 C 0.97904 0.50013 0.22681 0.0
H1037 H 0.92697 0.37047 0.22829 0.0
H1038 H 1.01112 0.42023 0.23215 0.0
C1039 C 0.93278 0.52854 0.22311 0.0
C1040 C 0.7252 0.92091 0.65328 0.0
C1041 C 0.71073 0.87938 0.66955 0.0
H1042 H 0.7096 1.00182 0.64042 0.0
C1043 C 0.66367 0.88426 0.68238 0.0
H1044 H 0.76136 0.9185 0.64324 0.0
C1045 C 0.63538 0.9321 0.68139 0.0
C1046 C 0.65269 0.97623 0.66718 0.0
H1047 H 0.65114 0.85278 0.6949 0.0
H1048 H 0.60179 0.93596 0.69305 0.0
C1049 C 0.69589 0.96891 0.6519 0.0
C1050 C 0.88838 1.00544 0.91513 0.0
C1051 C 0.88677 0.94812 0.9174 0.0
H1052 H 0.93666 0.07806 0.91118 0.0
C1053 C 0.93269 0.91967 0.91262 0.0
H1054 H 0.85354 1.02864 0.91831 0.0
C1055 C 0.98018 0.94818 0.90837 0.0
C1056 C 0.98264 1.0056 0.90834 0.0
H1057 H 0.9329 0.87557 0.91401 0.0
H1058 H 1.01591 0.92538 0.90742 0.0
C1059 C 0.9358 1.03388 0.91046 0.0
C1060 C 0.84961 0.16052 0.16297 0.0
C1061 C 0.90456 0.16426 0.16312 0.0
H1062 H 0.77796 0.20399 0.16202 0.0
C1063 C 0.92969 0.21461 0.15807 0.0
H1064 H 0.82949 0.12205 0.16695 0.0
C1065 C 0.90013 0.26169 0.15552 0.0
C1066 C 0.84514 0.25872 0.15738 0.0
H1067 H 0.97205 0.2184 0.15828 0.0
H1068 H 0.92041 0.30106 0.15452 0.0
C1069 C 0.82011 0.20726 0.15973 0.0
C1070 C 0.57603 0.14053 0.42398 0.0
C1071 C 0.577 0.08391 0.42814 0.0
H1072 H 0.61997 0.21685 0.42354 0.0
C1073 C 0.62517 1.06024 0.43304 0.0
H1074 H 0.53912 0.16005 0.42086 0.0
C1075 C 0.67096 0.09242 0.43494 0.0
C1076 C 0.66994 0.14953 0.43227 0.0
H1077 H 0.62687 1.01693 0.43686 0.0
H1078 H 0.70686 0.07247 0.43955 0.0
C1079 C 0.62222 0.17309 0.42588 0.0
C1080 C 0.28433 0.16645 0.46695 0.0
C1081 C 0.30364 0.21863 0.47326 0.0
H1082 H 0.3026 0.08548 0.45672 0.0
C1083 C 0.35725 0.2248 0.47883 0.0
H1084 H 0.24351 0.15991 0.46236 0.0
C1085 C 0.39089 0.18017 0.47691 0.0
C1086 C 0.37144 0.12914 0.46912 0.0
H1087 H 0.37364 0.26449 0.48349 0.0
H1088 H 0.43234 0.18626 0.48028 0.0
C1089 C 0.318 0.12309 0.46415 0.0
C1090 C 0.09476 0.17626 0.22201 0.0
C1091 C 0.09324 0.119 0.22026 0.0
H1092 H 0.14261 0.24986 0.22046 0.0
C1093 C 0.14067 0.09148 0.21902 0.0
H1094 H 0.05865 0.1985 0.22208 0.0
C1095 C 0.18835 0.12084 0.2172 0.0
C1096 C 0.18953 0.17815 0.21721 0.0
H1097 H 0.14051 1.0476 0.21675 0.0
H1098 H 0.22395 0.09883 0.2141 0.0
C1099 C 0.14269 0.20566 0.22081 0.0
C1100 C 0.22929 0.97255 0.9612 0.0
C1101 C 0.17473 0.96632 0.96375 0.0
H1102 H 0.30248 0.93273 0.9576 0.0
C1103 C 0.15293 0.91429 0.96891 0.0
H1104 H 0.24692 1.01223 0.95707 0.0
C1105 C 0.18497 0.86844 0.96907 0.0
C1106 C 0.23911 0.87447 0.96456 0.0
H1107 H 0.11086 0.90842 0.97058 0.0
H1108 H 0.16685 0.82806 0.97056 0.0
C1109 C 0.26116 0.92715 0.96173 0.0
C1110 C 0.41509 0.96333 0.71536 0.0
C1111 C 0.37036 0.97947 0.70291 0.0
H1112 H 0.49607 0.98234 0.72358 0.0
C1113 C 0.37087 1.03158 0.69239 0.0
H1114 H 0.41588 0.92337 0.72363 0.0
C1115 C 0.4159 0.06498 0.69255 0.0
C1116 C 0.46201 1.04754 0.70327 0.0
H1117 H 0.33688 1.0458 0.68303 0.0
H1118 H 0.41551 0.10356 0.68306 0.0
C1119 C 0.46082 0.99718 0.71547 0.0
loop_
_geom_bond_atom_site_label_1
_geom_bond_atom_site_label_2
_geom_bond_distance
_geom_bond_site_symmetry_2
_ccdc_geom_bond_type
Tb0 C9 2.764 . S
Tb0 O10 2.325 . S
Tb0 O13 2.303 . S
Tb0 O17 2.322 . S
Tb0 O18 2.349 . S
Tb0 O21 2.415 . S
Tb0 O22 2.399 . S
Tb1 O11 2.322 . S
Tb1 O12 2.349 . S
Tb1 O14 2.415 . S
Tb1 O15 2.399 . S
Tb1 O16 2.325 . S
Tb1 O19 2.303 . S
Tb1 C30 2.764 . S
C2 O18 1.261 . S
C2 O19 1.257 . S
C3 C6 1.358 1_545 S
C3 C7 1.332 . S
C3 C9 1.504 . S
C4 C5 1.372 1_545 S
C4 C8 1.310 . S
C5 C4 1.372 1_565 S
C5 C6 1.429 . S
C5 H32 0.932 . S
C6 C3 1.358 1_565 S
C6 C5 1.429 . S
C6 H33 0.930 . S
C7 C3 1.332 . S
C7 C8 1.394 . S
C7 H34 0.932 . S
C8 C4 1.310 . S
C8 C7 1.394 . S
C8 H35 0.929 . S
C9 Tb0 2.764 . S
C9 C3 1.504 . S
C9 O21 1.239 . S
C9 O22 1.263 . S
O10 Tb0 2.325 . S
O10 C20 1.236 . S
O11 Tb1 2.322 . S
O11 C20 1.257 . S
O12 Tb1 2.349 . S
O12 C23 1.261 . S
O13 Tb0 2.303 . S
O13 C23 1.257 . S
O14 Tb1 2.415 . S
O14 C30 1.239 . S
O15 Tb1 2.399 . S
O15 C30 1.263 . S
O16 Tb1 2.325 . S
O16 C31 1.236 . S
O17 Tb0 2.322 . S
O17 C31 1.257 . S
O18 Tb0 2.349 . S
O18 C2 1.261 . S
O19 Tb1 2.303 . S
O19 C2 1.257 . S
C20 O10 1.236 . S
C20 O11 1.257 . S
O21 Tb0 2.415 . S
O21 C9 1.239 . S
O22 Tb0 2.399 . S
O22 C9 1.263 . S
C23 O12 1.261 . S
C23 O13 1.257 . S
C24 C27 1.358 . S
C24 C28 1.332 . S
C24 C30 1.504 . S
C25 C26 1.373 . S
C25 C29 1.308 . S
C26 C25 1.373 . S
C26 C27 1.429 . S
C26 H36 0.932 . S
C27 C24 1.358 . S
C27 C26 1.429 . S
C27 H37 0.930 . S
C28 C24 1.332 . S
C28 C29 1.394 . S
C28 H38 0.932 . S
C29 C25 1.308 . S
C29 C28 1.394 . S
C29 H39 0.929 . S
C30 Tb1 2.764 . S
C30 O14 1.239 . S
C30 O15 1.263 . S
C30 C24 1.504 . S
C31 O16 1.236 . S
C31 O17 1.257 . S
H32 C5 0.932 . S
H33 C6 0.930 . S
H34 C7 0.932 . S
H35 C8 0.929 . S
H36 C26 0.932 . S
H37 C27 0.930 . S
H38 C28 0.932 . S
H39 C29 0.929 . S
Tb40 C49 2.764 . S
Tb40 O50 2.325 . S
Tb40 O53 2.303 . S
Tb40 O57 2.322 . S
Tb40 O58 2.349 . S
Tb40 O61 2.415 . S
Tb40 O62 2.399 . S
Tb41 O51 2.322 . S
Tb41 O52 2.349 . S
Tb41 O54 2.415 . S
Tb41 O55 2.399 . S
Tb41 O56 2.325 . S
Tb41 O59 2.303 . S
Tb41 C70 2.764 . S
C42 O58 1.261 . S
C42 O59 1.257 . S
C43 C46 1.358 . S
C43 C47 1.332 . S
C43 C49 1.504 . S
C44 C45 1.373 . S
C44 C48 1.308 . S
C45 C44 1.373 . S
C45 C46 1.429 . S
C45 H72 0.932 . S
C46 C43 1.358 . S
C46 C45 1.429 . S
C46 H73 0.930 . S
C47 C43 1.332 . S
C47 C48 1.394 . S
C47 H74 0.932 . S
C48 C44 1.308 . S
C48 C47 1.394 . S
C48 H75 0.929 . S
C49 Tb40 2.764 . S
C49 C43 1.504 . S
C49 O61 1.239 . S
C49 O62 1.263 . S
O50 Tb40 2.325 . S
O50 C60 1.236 . S
O51 Tb41 2.322 . S
O51 C60 1.257 . S
O52 Tb41 2.349 . S
O52 C63 1.261 . S
O53 Tb40 2.303 . S
O53 C63 1.257 . S
O54 Tb41 2.415 . S
O54 C70 1.239 . S
O55 Tb41 2.399 . S
O55 C70 1.263 . S
O56 Tb41 2.325 . S
O56 C71 1.236 . S
O57 Tb40 2.322 . S
O57 C71 1.257 . S
O58 Tb40 2.349 . S
O58 C42 1.261 . S
O59 Tb41 2.303 . S
O59 C42 1.257 . S
C60 O50 1.236 . S
C60 O51 1.257 . S
O61 Tb40 2.415 . S
O61 C49 1.239 . S
O62 Tb40 2.399 . S
O62 C49 1.263 . S
C63 O52 1.261 . S
C63 O53 1.257 . S
C64 C67 1.358 . S
C64 C68 1.332 . S
C64 C70 1.504 . S
C65 C66 1.373 . S
C65 C69 1.308 . S
C66 C65 1.373 . S
C66 C67 1.429 . S
C66 H76 0.932 . S
C67 C64 1.358 . S
C67 C66 1.429 . S
C67 H77 0.930 . S
C68 C64 1.332 . S
C68 C69 1.394 . S
C68 H78 0.932 . S
C69 C65 1.308 . S
C69 C68 1.394 . S
C69 H79 0.929 . S
C70 Tb41 2.764 . S
C70 O54 1.239 . S
C70 O55 1.263 . S
C70 C64 1.504 . S
C71 O56 1.236 . S
C71 O57 1.257 . S
H72 C45 0.932 . S
H73 C46 0.930 . S
H74 C47 0.932 . S
H75 C48 0.929 . S
H76 C66 0.932 . S
H77 C67 0.930 . S
H78 C68 0.932 . S
H79 C69 0.929 . S
Tb80 C89 2.764 . S
Tb80 O90 2.325 . S
Tb80 O93 2.303 . S
Tb80 O97 2.322 . S
Tb80 O98 2.349 . S
Tb80 O101 2.415 . S
Tb80 O102 2.399 . S
Tb81 O91 2.322 . S
Tb81 O92 2.349 . S
Tb81 O94 2.415 . S
Tb81 O95 2.399 . S
Tb81 O96 2.325 . S
Tb81 O99 2.303 . S
Tb81 C110 2.764 . S
C82 O98 1.261 . S
C82 O99 1.257 . S
C83 C86 1.358 1_565 S
C83 C87 1.332 . S
C83 C89 1.504 . S
C84 C85 1.372 1_565 S
C84 C88 1.311 . S
C85 C84 1.372 1_545 S
C85 C86 1.429 . S
C85 H112 0.932 . S
C86 C83 1.358 1_545 S
C86 C85 1.429 . S
C86 H113 0.930 . S
C87 C83 1.332 . S
C87 C88 1.394 . S
C87 H114 0.932 . S
C88 C84 1.311 . S
C88 C87 1.394 . S
C88 H115 0.929 . S
C89 Tb80 2.764 . S
C89 C83 1.504 . S
C89 O101 1.239 . S
C89 O102 1.263 . S
O90 Tb80 2.325 . S
O90 C100 1.236 . S
O91 Tb81 2.322 . S
O91 C100 1.257 . S
O92 Tb81 2.349 . S
O92 C103 1.261 . S
O93 Tb80 2.303 . S
O93 C103 1.257 . S
O94 Tb81 2.415 . S
O94 C110 1.239 . S
O95 Tb81 2.399 . S
O95 C110 1.263 . S
O96 Tb81 2.325 . S
O96 C111 1.236 . S
O97 Tb80 2.322 . S
O97 C111 1.257 . S
O98 Tb80 2.349 . S
O98 C82 1.261 . S
O99 Tb81 2.303 . S
O99 C82 1.257 . S
C100 O90 1.236 . S
C100 O91 1.257 . S
O101 Tb80 2.415 . S
O101 C89 1.239 . S
O102 Tb80 2.399 . S
O102 C89 1.263 . S
C103 O92 1.261 . S
C103 O93 1.257 . S
C104 C107 1.358 . S
C104 C108 1.332 . S
C104 C110 1.504 . S
C105 C106 1.373 . S
C105 C109 1.308 . S
C106 C105 1.373 . S
C106 C107 1.429 . S
C106 H116 0.932 . S
C107 C104 1.358 . S
C107 C106 1.429 . S
C107 H117 0.930 . S
C108 C104 1.332 . S
C108 C109 1.394 . S
C108 H118 0.932 . S
C109 C105 1.308 . S
C109 C108 1.394 . S
C109 H119 0.929 . S
C110 Tb81 2.764 . S
C110 O94 1.239 . S
C110 O95 1.263 . S
C110 C104 1.504 . S
C111 O96 1.236 . S
C111 O97 1.257 . S
H112 C85 0.932 . S
H113 C86 0.930 . S
H114 C87 0.932 . S
H115 C88 0.929 . S
H116 C106 0.932 . S
H117 C107 0.930 . S
H118 C108 0.932 . S
H119 C109 0.929 . S
Tb120 C129 2.764 . S
Tb120 O130 2.325 . S
Tb120 O133 2.303 . S
Tb120 O137 2.322 . S
Tb120 O138 2.349 . S
Tb120 O141 2.415 . S
Tb120 O142 2.399 . S
Tb121 O131 2.322 . S
Tb121 O132 2.349 . S
Tb121 O134 2.415 . S
Tb121 O135 2.399 . S
Tb121 O136 2.325 . S
Tb121 O139 2.303 . S
Tb121 C150 2.764 . S
C122 O138 1.261 . S
C122 O139 1.257 . S
C123 C126 1.358 . S
C123 C127 1.332 . S
C123 C129 1.504 . S
C124 C125 1.373 . S
C124 C128 1.308 . S
C125 C124 1.373 . S
C125 C126 1.429 . S
C125 H152 0.932 . S
C126 C123 1.358 . S
C126 C125 1.429 . S
C126 H153 0.930 . S
C127 C123 1.332 . S
C127 C128 1.394 . S
C127 H154 0.932 . S
C128 C124 1.308 . S
C128 C127 1.394 . S
C128 H155 0.929 . S
C129 Tb120 2.764 . S
C129 C123 1.504 . S
C129 O141 1.239 . S
C129 O142 1.263 . S
O130 Tb120 2.325 . S
O130 C140 1.236 . S
O131 Tb121 2.322 . S
O131 C140 1.257 . S
O132 Tb121 2.349 . S
O132 C143 1.261 . S
O133 Tb120 2.303 . S
O133 C143 1.257 . S
O134 Tb121 2.415 . S
O134 C150 1.239 . S
O135 Tb121 2.399 . S
O135 C150 1.263 . S
O136 Tb121 2.325 . S
O136 C151 1.236 . S
O137 Tb120 2.322 . S
O137 C151 1.257 . S
O138 Tb120 2.349 . S
O138 C122 1.261 . S
O139 Tb121 2.303 . S
O139 C122 1.257 . S
C140 O130 1.236 . S
C140 O131 1.257 . S
O141 Tb120 2.415 . S
O141 C129 1.239 . S
O142 Tb120 2.399 . S
O142 C129 1.263 . S
C143 O132 1.261 . S
C143 O133 1.257 . S
C144 C147 1.358 1_655 S
C144 C148 1.332 . S
C144 C150 1.504 . S
C145 C146 1.373 . S
C145 C149 1.308 1_455 S
C146 C145 1.373 . S
C146 C147 1.429 . S
C146 H156 0.932 . S
C147 C144 1.358 1_455 S
C147 C146 1.429 . S
C147 H157 0.930 . S
C148 C144 1.332 . S
C148 C149 1.394 . S
C148 H158 0.932 . S
C149 C145 1.308 1_655 S
C149 C148 1.394 . S
C149 H159 0.929 . S
C150 Tb121 2.764 . S
C150 O134 1.239 . S
C150 O135 1.263 . S
C150 C144 1.504 . S
C151 O136 1.236 . S
C151 O137 1.257 . S
H152 C125 0.932 . S
H153 C126 0.930 . S
H154 C127 0.932 . S
H155 C128 0.929 . S
H156 C146 0.932 . S
H157 C147 0.930 . S
H158 C148 0.932 . S
H159 C149 0.929 . S
Tb160 C169 2.764 . S
Tb160 O170 2.325 . S
Tb160 O173 2.303 . S
Tb160 O177 2.322 . S
Tb160 O178 2.349 . S
Tb160 O181 2.415 . S
Tb160 O182 2.399 . S
Tb161 O171 2.322 . S
Tb161 O172 2.349 . S
Tb161 O174 2.415 . S
Tb161 O175 2.399 . S
Tb161 O176 2.325 . S
Tb161 O179 2.303 . S
Tb161 C190 2.764 . S
C162 O178 1.261 . S
C162 O179 1.257 . S
C163 C166 1.358 . S
C163 C167 1.332 . S
C163 C169 1.504 . S
C164 C165 1.373 . S
C164 C168 1.308 . S
C165 C164 1.373 . S
C165 C166 1.429 . S
C165 H192 0.932 . S
C166 C163 1.358 . S
C166 C165 1.429 . S
C166 H193 0.930 . S
C167 C163 1.332 . S
C167 C168 1.394 . S
C167 H194 0.932 . S
C168 C164 1.308 . S
C168 C167 1.394 . S
C168 H195 0.929 . S
C169 Tb160 2.764 . S
C169 C163 1.504 . S
C169 O181 1.239 . S
C169 O182 1.263 . S
O170 Tb160 2.325 . S
O170 C180 1.236 . S
O171 Tb161 2.322 . S
O171 C180 1.257 . S
O172 Tb161 2.349 . S
O172 C183 1.261 . S
O173 Tb160 2.303 . S
O173 C183 1.257 . S
O174 Tb161 2.415 . S
O174 C190 1.239 . S
O175 Tb161 2.399 . S
O175 C190 1.263 . S
O176 Tb161 2.325 . S
O176 C191 1.236 . S
O177 Tb160 2.322 . S
O177 C191 1.257 . S
O178 Tb160 2.349 . S
O178 C162 1.261 . S
O179 Tb161 2.303 . S
O179 C162 1.257 . S
C180 O170 1.236 . S
C180 O171 1.257 . S
O181 Tb160 2.415 . S
O181 C169 1.239 . S
O182 Tb160 2.399 . S
O182 C169 1.263 . S
C183 O172 1.261 . S
C183 O173 1.257 . S
C184 C187 1.358 1_565 S
C184 C188 1.332 . S
C184 C190 1.504 . S
C185 C186 1.372 1_565 S
C185 C189 1.310 . S
C186 C185 1.372 1_545 S
C186 C187 1.429 . S
C186 H196 0.932 . S
C187 C184 1.358 1_545 S
C187 C186 1.429 . S
C187 H197 0.930 . S
C188 C184 1.332 . S
C188 C189 1.394 . S
C188 H198 0.932 . S
C189 C185 1.310 . S
C189 C188 1.394 . S
C189 H199 0.929 . S
C190 Tb161 2.764 . S
C190 O174 1.239 . S
C190 O175 1.263 . S
C190 C184 1.504 . S
C191 O176 1.236 . S
C191 O177 1.257 . S
H192 C165 0.932 . S
H193 C166 0.930 . S
H194 C167 0.932 . S
H195 C168 0.929 . S
H196 C186 0.932 . S
H197 C187 0.930 . S
H198 C188 0.932 . S
H199 C189 0.929 . S
Tb200 C209 2.764 . S
Tb200 O210 2.325 . S
Tb200 O213 2.303 . S
Tb200 O217 2.322 . S
Tb200 O218 2.349 . S
Tb200 O221 2.415 . S
Tb200 O222 2.399 . S
Tb201 O211 2.322 . S
Tb201 O212 2.349 . S
Tb201 O214 2.415 . S
Tb201 O215 2.399 . S
Tb201 O216 2.325 . S
Tb201 O219 2.303 . S
Tb201 C230 2.764 . S
C202 O218 1.261 . S
C202 O219 1.257 . S
C203 C206 1.358 . S
C203 C207 1.332 . S
C203 C209 1.504 . S
C204 C205 1.373 . S
C204 C208 1.308 . S
C205 C204 1.373 . S
C205 C206 1.429 . S
C205 H232 0.932 . S
C206 C203 1.358 . S
C206 C205 1.429 . S
C206 H233 0.930 . S
C207 C203 1.332 . S
C207 C208 1.394 . S
C207 H234 0.932 . S
C208 C204 1.308 . S
C208 C207 1.394 . S
C208 H235 0.929 . S
C209 Tb200 2.764 . S
C209 C203 1.504 . S
C209 O221 1.239 . S
C209 O222 1.263 . S
O210 Tb200 2.325 . S
O210 C220 1.236 . S
O211 Tb201 2.322 . S
O211 C220 1.257 . S
O212 Tb201 2.349 . S
O212 C223 1.261 . S
O213 Tb200 2.303 . S
O213 C223 1.257 . S
O214 Tb201 2.415 . S
O214 C230 1.239 . S
O215 Tb201 2.399 . S
O215 C230 1.263 . S
O216 Tb201 2.325 . S
O216 C231 1.236 . S
O217 Tb200 2.322 . S
O217 C231 1.257 . S
O218 Tb200 2.349 . S
O218 C202 1.261 . S
O219 Tb201 2.303 . S
O219 C202 1.257 . S
C220 O210 1.236 . S
C220 O211 1.257 . S
O221 Tb200 2.415 . S
O221 C209 1.239 . S
O222 Tb200 2.399 . S
O222 C209 1.263 . S
C223 O212 1.261 . S
C223 O213 1.257 . S
C224 C227 1.358 . S
C224 C228 1.332 . S
C224 C230 1.504 . S
C225 C226 1.373 . S
C225 C229 1.308 . S
C226 C225 1.373 . S
C226 C227 1.429 . S
C226 H236 0.932 . S
C227 C224 1.358 . S
C227 C226 1.429 . S
C227 H237 0.930 . S
C228 C224 1.332 . S
C228 C229 1.394 . S
C228 H238 0.932 . S
C229 C225 1.308 . S
C229 C228 1.394 . S
C229 H239 0.929 . S
C230 Tb201 2.764 . S
C230 O214 1.239 . S
C230 O215 1.263 . S
C230 C224 1.504 . S
C231 O216 1.236 . S
C231 O217 1.257 . S
H232 C205 0.932 . S
H233 C206 0.930 . S
H234 C207 0.932 . S
H235 C208 0.929 . S
H236 C226 0.932 . S
H237 C227 0.930 . S
H238 C228 0.932 . S
H239 C229 0.929 . S
Tb240 C249 2.764 . S
Tb240 O250 2.325 . S
Tb240 O253 2.303 . S
Tb240 O257 2.322 . S
Tb240 O258 2.349 . S
Tb240 O261 2.415 . S
Tb240 O262 2.399 . S
Tb241 O251 2.322 . S
Tb241 O252 2.349 . S
Tb241 O254 2.415 . S
Tb241 O255 2.399 . S
Tb241 O256 2.325 . S
Tb241 O259 2.303 . S
Tb241 C270 2.764 . S
C242 O258 1.261 . S
C242 O259 1.257 . S
C243 C246 1.358 . S
C243 C247 1.332 . S
C243 C249 1.504 . S
C244 C245 1.373 . S
C244 C248 1.308 . S
C245 C244 1.373 . S
C245 C246 1.429 . S
C245 H272 0.932 . S
C246 C243 1.358 . S
C246 C245 1.429 . S
C246 H273 0.930 . S
C247 C243 1.332 . S
C247 C248 1.394 . S
C247 H274 0.932 . S
C248 C244 1.308 . S
C248 C247 1.394 . S
C248 H275 0.929 . S
C249 Tb240 2.764 . S
C249 C243 1.504 . S
C249 O261 1.239 . S
C249 O262 1.263 . S
O250 Tb240 2.325 . S
O250 C260 1.236 . S
O251 Tb241 2.322 . S
O251 C260 1.257 . S
O252 Tb241 2.349 . S
O252 C263 1.261 . S
O253 Tb240 2.303 . S
O253 C263 1.257 . S
O254 Tb241 2.415 . S
O254 C270 1.239 . S
O255 Tb241 2.399 . S
O255 C270 1.263 . S
O256 Tb241 2.325 . S
O256 C271 1.236 . S
O257 Tb240 2.322 . S
O257 C271 1.257 . S
O258 Tb240 2.349 . S
O258 C242 1.261 . S
O259 Tb241 2.303 . S
O259 C242 1.257 . S
C260 O250 1.236 . S
C260 O251 1.257 . S
O261 Tb240 2.415 . S
O261 C249 1.239 . S
O262 Tb240 2.399 . S
O262 C249 1.263 . S
C263 O252 1.261 . S
C263 O253 1.257 . S
C264 C267 1.358 1_545 S
C264 C268 1.332 . S
C264 C270 1.504 . S
C265 C266 1.372 1_545 S
C265 C269 1.311 . S
C266 C265 1.372 1_565 S
C266 C267 1.429 . S
C266 H276 0.932 . S
C267 C264 1.358 1_565 S
C267 C266 1.429 . S
C267 H277 0.930 . S
C268 C264 1.332 . S
C268 C269 1.394 . S
C268 H278 0.932 . S
C269 C265 1.311 . S
C269 C268 1.394 . S
C269 H279 0.929 . S
C270 Tb241 2.764 . S
C270 O254 1.239 . S
C270 O255 1.263 . S
C270 C264 1.504 . S
C271 O256 1.236 . S
C271 O257 1.257 . S
H272 C245 0.932 . S
H273 C246 0.930 . S
H274 C247 0.932 . S
H275 C248 0.929 . S
H276 C266 0.932 . S
H277 C267 0.930 . S
H278 C268 0.932 . S
H279 C269 0.929 . S
Tb280 C289 2.764 . S
Tb280 O290 2.325 . S
Tb280 O293 2.303 . S
Tb280 O297 2.322 . S
Tb280 O298 2.349 . S
Tb280 O301 2.415 . S
Tb280 O302 2.399 . S
Tb281 O291 2.322 . S
Tb281 O292 2.349 . S
Tb281 O294 2.415 . S
Tb281 O295 2.399 . S
Tb281 O296 2.325 . S
Tb281 O299 2.303 . S
Tb281 C310 2.764 . S
C282 O298 1.261 . S
C282 O299 1.257 . S
C283 C286 1.358 1_455 S
C283 C287 1.332 . S
C283 C289 1.504 . S
C284 C285 1.373 . S
C284 C288 1.308 1_655 S
C285 C284 1.373 . S
C285 C286 1.429 . S
C285 H312 0.932 . S
C286 C283 1.358 1_655 S
C286 C285 1.429 . S
C286 H313 0.930 . S
C287 C283 1.332 . S
C287 C288 1.394 . S
C287 H314 0.932 . S
C288 C284 1.308 1_455 S
C288 C287 1.394 . S
C288 H315 0.929 . S
C289 Tb280 2.764 . S
C289 C283 1.504 . S
C289 O301 1.239 . S
C289 O302 1.263 . S
O290 Tb280 2.325 . S
O290 C300 1.236 . S
O291 Tb281 2.322 . S
O291 C300 1.257 . S
O292 Tb281 2.349 . S
O292 C303 1.261 . S
O293 Tb280 2.303 . S
O293 C303 1.257 . S
O294 Tb281 2.415 . S
O294 C310 1.239 . S
O295 Tb281 2.399 . S
O295 C310 1.263 . S
O296 Tb281 2.325 . S
O296 C311 1.236 . S
O297 Tb280 2.322 . S
O297 C311 1.257 . S
O298 Tb280 2.349 . S
O298 C282 1.261 . S
O299 Tb281 2.303 . S
O299 C282 1.257 . S
C300 O290 1.236 . S
C300 O291 1.257 . S
O301 Tb280 2.415 . S
O301 C289 1.239 . S
O302 Tb280 2.399 . S
O302 C289 1.263 . S
C303 O292 1.261 . S
C303 O293 1.257 . S
C304 C307 1.358 . S
C304 C308 1.332 . S
C304 C310 1.504 . S
C305 C306 1.373 . S
C305 C309 1.308 . S
C306 C305 1.373 . S
C306 C307 1.429 . S
C306 H316 0.932 . S
C307 C304 1.358 . S
C307 C306 1.429 . S
C307 H317 0.930 . S
C308 C304 1.332 . S
C308 C309 1.394 . S
C308 H318 0.932 . S
C309 C305 1.308 . S
C309 C308 1.394 . S
C309 H319 0.929 . S
C310 Tb281 2.764 . S
C310 O294 1.239 . S
C310 O295 1.263 . S
C310 C304 1.504 . S
C311 O296 1.236 . S
C311 O297 1.257 . S
H312 C285 0.932 . S
H313 C286 0.930 . S
H314 C287 0.932 . S
H315 C288 0.929 . S
H316 C306 0.932 . S
H317 C307 0.930 . S
H318 C308 0.932 . S
H319 C309 0.929 . S
Tb320 C329 2.764 . S
Tb320 O330 2.325 . S
Tb320 O333 2.303 . S
Tb320 O337 2.322 . S
Tb320 O338 2.349 . S
Tb320 O341 2.415 . S
Tb320 O342 2.399 . S
Tb321 O331 2.322 . S
Tb321 O332 2.349 . S
Tb321 O334 2.415 . S
Tb321 O335 2.399 . S
Tb321 O336 2.325 . S
Tb321 O339 2.303 . S
Tb321 C350 2.764 . S
C322 O338 1.261 . S
C322 O339 1.257 . S
C323 C326 1.358 . S
C323 C327 1.332 . S
C323 C329 1.504 . S
C324 C325 1.373 . S
C324 C328 1.308 . S
C325 C324 1.373 . S
C325 C326 1.429 . S
C325 H352 0.932 . S
C326 C323 1.358 . S
C326 C325 1.429 . S
C326 H353 0.930 . S
C327 C323 1.332 . S
C327 C328 1.394 . S
C327 H354 0.932 . S
C328 C324 1.308 . S
C328 C327 1.394 . S
C328 H355 0.929 . S
C329 Tb320 2.764 . S
C329 C323 1.504 . S
C329 O341 1.239 . S
C329 O342 1.263 . S
O330 Tb320 2.325 . S
O330 C340 1.236 . S
O331 Tb321 2.322 . S
O331 C340 1.257 . S
O332 Tb321 2.349 . S
O332 C343 1.261 . S
O333 Tb320 2.303 . S
O333 C343 1.257 . S
O334 Tb321 2.415 . S
O334 C350 1.239 . S
O335 Tb321 2.399 . S
O335 C350 1.263 . S
O336 Tb321 2.325 . S
O336 C351 1.236 . S
O337 Tb320 2.322 . S
O337 C351 1.257 . S
O338 Tb320 2.349 . S
O338 C322 1.261 . S
O339 Tb321 2.303 . S
O339 C322 1.257 . S
C340 O330 1.236 . S
C340 O331 1.257 . S
O341 Tb320 2.415 . S
O341 C329 1.239 . S
O342 Tb320 2.399 . S
O342 C329 1.263 . S
C343 O332 1.261 . S
C343 O333 1.257 . S
C344 C347 1.358 . S
C344 C348 1.332 . S
C344 C350 1.504 . S
C345 C346 1.373 . S
C345 C349 1.308 . S
C346 C345 1.373 . S
C346 C347 1.429 . S
C346 H356 0.932 . S
C347 C344 1.358 . S
C347 C346 1.429 . S
C347 H357 0.930 . S
C348 C344 1.332 . S
C348 C349 1.394 . S
C348 H358 0.932 . S
C349 C345 1.308 . S
C349 C348 1.394 . S
C349 H359 0.929 . S
C350 Tb321 2.764 . S
C350 O334 1.239 . S
C350 O335 1.263 . S
C350 C344 1.504 . S
C351 O336 1.236 . S
C351 O337 1.257 . S
H352 C325 0.932 . S
H353 C326 0.930 . S
H354 C327 0.932 . S
H355 C328 0.929 . S
H356 C346 0.932 . S
H357 C347 0.930 . S
H358 C348 0.932 . S
H359 C349 0.929 . S
Tb360 C369 2.764 . S
Tb360 O370 2.325 1_545 S
Tb360 O373 2.303 . S
Tb360 O377 2.322 . S
Tb360 O378 2.349 . S
Tb360 O381 2.415 . S
Tb360 O382 2.399 . S
Tb361 O371 2.322 . S
Tb361 O372 2.349 . S
Tb361 O374 2.415 1_565 S
Tb361 O375 2.399 1_565 S
Tb361 O376 2.325 1_565 S
Tb361 O379 2.303 1_565 S
Tb361 C390 2.764 1_565 S
C362 O378 1.261 . S
C362 O379 1.257 . S
C363 C366 1.364 . S
C363 C367 1.322 1_545 S
C363 C369 1.508 . S
C364 C365 1.373 1_565 S
C364 C368 1.308 . S
C365 C364 1.373 1_545 S
C365 C366 1.429 . S
C365 H392 0.932 . S
C366 C363 1.364 . S
C366 C365 1.429 . S
C366 H393 0.930 . S
C367 C363 1.322 1_565 S
C367 C368 1.394 . S
C367 H394 0.932 . S
C368 C364 1.308 . S
C368 C367 1.394 . S
C368 H395 0.929 . S
C369 Tb360 2.764 . S
C369 C363 1.508 . S
C369 O381 1.239 . S
C369 O382 1.263 . S
O370 Tb360 2.325 1_565 S
O370 C380 1.236 . S
O371 Tb361 2.322 . S
O371 C380 1.257 . S
O372 Tb361 2.349 . S
O372 C383 1.261 . S
O373 Tb360 2.303 . S
O373 C383 1.257 1_545 S
O374 Tb361 2.415 1_545 S
O374 C390 1.239 . S
O375 Tb361 2.399 1_545 S
O375 C390 1.263 . S
O376 Tb361 2.325 1_545 S
O376 C391 1.236 . S
O377 Tb360 2.322 . S
O377 C391 1.257 . S
O378 Tb360 2.349 . S
O378 C362 1.261 . S
O379 Tb361 2.303 1_545 S
O379 C362 1.257 . S
C380 O370 1.236 . S
C380 O371 1.257 . S
O381 Tb360 2.415 . S
O381 C369 1.239 . S
O382 Tb360 2.399 . S
O382 C369 1.263 . S
C383 O372 1.261 . S
C383 O373 1.257 1_565 S
C384 C387 1.358 1_455 S
C384 C388 1.332 . S
C384 C390 1.504 . S
C385 C386 1.373 . S
C385 C389 1.308 1_655 S
C386 C385 1.373 . S
C386 C387 1.429 . S
C386 H396 0.932 . S
C387 C384 1.358 1_655 S
C387 C386 1.429 . S
C387 H397 0.930 . S
C388 C384 1.332 . S
C388 C389 1.394 . S
C388 H398 0.932 . S
C389 C385 1.308 1_455 S
C389 C388 1.394 . S
C389 H399 0.929 . S
C390 Tb361 2.764 1_545 S
C390 O374 1.239 . S
C390 O375 1.263 . S
C390 C384 1.504 . S
C391 O376 1.236 . S
C391 O377 1.257 . S
H392 C365 0.932 . S
H393 C366 0.930 . S
H394 C367 0.932 . S
H395 C368 0.929 . S
H396 C386 0.932 . S
H397 C387 0.930 . S
H398 C388 0.932 . S
H399 C389 0.929 . S
Tb400 C409 2.764 . S
Tb400 O410 2.325 . S
Tb400 O413 2.303 . S
Tb400 O417 2.322 . S
Tb400 O418 2.349 . S
Tb400 O421 2.415 . S
Tb400 O422 2.399 . S
Tb401 O411 2.322 . S
Tb401 O412 2.349 . S
Tb401 O414 2.415 . S
Tb401 O415 2.399 . S
Tb401 O416 2.325 . S
Tb401 O419 2.303 . S
Tb401 C430 2.764 . S
C402 O418 1.261 . S
C402 O419 1.257 . S
C403 C406 1.358 . S
C403 C407 1.332 . S
C403 C409 1.504 . S
C404 C405 1.373 . S
C404 C408 1.308 . S
C405 C404 1.373 . S
C405 C406 1.429 . S
C405 H432 0.932 . S
C406 C403 1.358 . S
C406 C405 1.429 . S
C406 H433 0.930 . S
C407 C403 1.332 . S
C407 C408 1.394 . S
C407 H434 0.932 . S
C408 C404 1.308 . S
C408 C407 1.394 . S
C408 H435 0.929 . S
C409 Tb400 2.764 . S
C409 C403 1.504 . S
C409 O421 1.239 . S
C409 O422 1.263 . S
O410 Tb400 2.325 . S
O410 C420 1.236 . S
O411 Tb401 2.322 . S
O411 C420 1.257 . S
O412 Tb401 2.349 . S
O412 C423 1.261 . S
O413 Tb400 2.303 . S
O413 C423 1.257 . S
O414 Tb401 2.415 . S
O414 C430 1.239 . S
O415 Tb401 2.399 . S
O415 C430 1.263 . S
O416 Tb401 2.325 . S
O416 C431 1.236 . S
O417 Tb400 2.322 . S
O417 C431 1.257 . S
O418 Tb400 2.349 . S
O418 C402 1.261 . S
O419 Tb401 2.303 . S
O419 C402 1.257 . S
C420 O410 1.236 . S
C420 O411 1.257 . S
O421 Tb400 2.415 . S
O421 C409 1.239 . S
O422 Tb400 2.399 . S
O422 C409 1.263 . S
C423 O412 1.261 . S
C423 O413 1.257 . S
C424 C427 1.358 . S
C424 C428 1.332 . S
C424 C430 1.504 . S
C425 C426 1.373 . S
C425 C429 1.308 . S
C426 C425 1.373 . S
C426 C427 1.429 . S
C426 H436 0.932 . S
C427 C424 1.358 . S
C427 C426 1.429 . S
C427 H437 0.930 . S
C428 C424 1.332 . S
C428 C429 1.394 . S
C428 H438 0.932 . S
C429 C425 1.308 . S
C429 C428 1.394 . S
C429 H439 0.929 . S
C430 Tb401 2.764 . S
C430 O414 1.239 . S
C430 O415 1.263 . S
C430 C424 1.504 . S
C431 O416 1.236 . S
C431 O417 1.257 . S
H432 C405 0.932 . S
H433 C406 0.930 . S
H434 C407 0.932 . S
H435 C408 0.929 . S
H436 C426 0.932 . S
H437 C427 0.930 . S
H438 C428 0.932 . S
H439 C429 0.929 . S
Tb440 C449 2.764 . S
Tb440 O450 2.325 1_565 S
Tb440 O453 2.303 . S
Tb440 O457 2.322 . S
Tb440 O458 2.349 . S
Tb440 O461 2.415 . S
Tb440 O462 2.399 . S
Tb441 O451 2.322 . S
Tb441 O452 2.349 . S
Tb441 O454 2.415 1_545 S
Tb441 O455 2.399 1_545 S
Tb441 O456 2.325 1_545 S
Tb441 O459 2.303 1_545 S
Tb441 C470 2.764 1_545 S
C442 O458 1.261 . S
C442 O459 1.257 . S
C443 C446 1.363 . S
C443 C447 1.322 1_565 S
C443 C449 1.508 . S
C444 C445 1.373 1_545 S
C444 C448 1.308 . S
C445 C444 1.373 1_565 S
C445 C446 1.429 . S
C445 H472 0.932 . S
C446 C443 1.363 . S
C446 C445 1.429 . S
C446 H473 0.930 . S
C447 C443 1.322 1_545 S
C447 C448 1.394 . S
C447 H474 0.932 . S
C448 C444 1.308 . S
C448 C447 1.394 . S
C448 H475 0.929 . S
C449 Tb440 2.764 . S
C449 C443 1.508 . S
C449 O461 1.239 . S
C449 O462 1.263 . S
O450 Tb440 2.325 1_545 S
O450 C460 1.236 . S
O451 Tb441 2.322 . S
O451 C460 1.257 . S
O452 Tb441 2.349 . S
O452 C463 1.261 . S
O453 Tb440 2.303 . S
O453 C463 1.257 1_565 S
O454 Tb441 2.415 1_565 S
O454 C470 1.239 . S
O455 Tb441 2.399 1_565 S
O455 C470 1.263 . S
O456 Tb441 2.325 1_565 S
O456 C471 1.236 . S
O457 Tb440 2.322 . S
O457 C471 1.257 . S
O458 Tb440 2.349 . S
O458 C442 1.261 . S
O459 Tb441 2.303 1_565 S
O459 C442 1.257 . S
C460 O450 1.236 . S
C460 O451 1.257 . S
O461 Tb440 2.415 . S
O461 C449 1.239 . S
O462 Tb440 2.399 . S
O462 C449 1.263 . S
C463 O452 1.261 . S
C463 O453 1.257 1_545 S
C464 C467 1.358 . S
C464 C468 1.332 . S
C464 C470 1.504 . S
C465 C466 1.373 . S
C465 C469 1.308 . S
C466 C465 1.373 . S
C466 C467 1.429 . S
C466 H476 0.932 . S
C467 C464 1.358 . S
C467 C466 1.429 . S
C467 H477 0.930 . S
C468 C464 1.332 . S
C468 C469 1.394 . S
C468 H478 0.932 . S
C469 C465 1.308 . S
C469 C468 1.394 . S
C469 H479 0.929 . S
C470 Tb441 2.764 1_565 S
C470 O454 1.239 . S
C470 O455 1.263 . S
C470 C464 1.504 . S
C471 O456 1.236 . S
C471 O457 1.257 . S
H472 C445 0.932 . S
H473 C446 0.930 . S
H474 C447 0.932 . S
H475 C448 0.929 . S
H476 C466 0.932 . S
H477 C467 0.930 . S
H478 C468 0.932 . S
H479 C469 0.929 . S
Tb480 C489 2.764 . S
Tb480 O490 2.325 . S
Tb480 O493 2.303 . S
Tb480 O497 2.322 . S
Tb480 O498 2.349 . S
Tb480 O501 2.415 . S
Tb480 O502 2.399 . S
Tb481 O491 2.322 . S
Tb481 O492 2.349 . S
Tb481 O494 2.415 . S
Tb481 O495 2.399 . S
Tb481 O496 2.325 . S
Tb481 O499 2.303 . S
Tb481 C510 2.764 . S
C482 O498 1.261 . S
C482 O499 1.257 . S
C483 C486 1.358 . S
C483 C487 1.332 . S
C483 C489 1.504 . S
C484 C485 1.373 . S
C484 C488 1.308 . S
C485 C484 1.373 . S
C485 C486 1.429 . S
C485 H512 0.932 . S
C486 C483 1.358 . S
C486 C485 1.429 . S
C486 H513 0.930 . S
C487 C483 1.332 . S
C487 C488 1.394 . S
C487 H514 0.932 . S
C488 C484 1.308 . S
C488 C487 1.394 . S
C488 H515 0.929 . S
C489 Tb480 2.764 . S
C489 C483 1.504 . S
C489 O501 1.239 . S
C489 O502 1.263 . S
O490 Tb480 2.325 . S
O490 C500 1.236 . S
O491 Tb481 2.322 . S
O491 C500 1.257 . S
O492 Tb481 2.349 . S
O492 C503 1.261 . S
O493 Tb480 2.303 . S
O493 C503 1.257 . S
O494 Tb481 2.415 . S
O494 C510 1.239 . S
O495 Tb481 2.399 . S
O495 C510 1.263 . S
O496 Tb481 2.325 . S
O496 C511 1.236 . S
O497 Tb480 2.322 . S
O497 C511 1.257 . S
O498 Tb480 2.349 . S
O498 C482 1.261 . S
O499 Tb481 2.303 . S
O499 C482 1.257 . S
C500 O490 1.236 . S
C500 O491 1.257 . S
O501 Tb480 2.415 . S
O501 C489 1.239 . S
O502 Tb480 2.399 . S
O502 C489 1.263 . S
C503 O492 1.261 . S
C503 O493 1.257 . S
C504 C507 1.358 . S
C504 C508 1.332 . S
C504 C510 1.504 . S
C505 C506 1.373 . S
C505 C509 1.308 . S
C506 C505 1.373 . S
C506 C507 1.429 . S
C506 H516 0.932 . S
C507 C504 1.358 . S
C507 C506 1.429 . S
C507 H517 0.930 . S
C508 C504 1.332 . S
C508 C509 1.394 . S
C508 H518 0.932 . S
C509 C505 1.308 . S
C509 C508 1.394 . S
C509 H519 0.929 . S
C510 Tb481 2.764 . S
C510 O494 1.239 . S
C510 O495 1.263 . S
C510 C504 1.504 . S
C511 O496 1.236 . S
C511 O497 1.257 . S
H512 C485 0.932 . S
H513 C486 0.930 . S
H514 C487 0.932 . S
H515 C488 0.929 . S
H516 C506 0.932 . S
H517 C507 0.930 . S
H518 C508 0.932 . S
H519 C509 0.929 . S
Tb520 C529 2.764 1_545 S
Tb520 O530 2.325 1_545 S
Tb520 O533 2.303 1_545 S
Tb520 O537 2.322 . S
Tb520 O538 2.349 . S
Tb520 O541 2.415 1_545 S
Tb520 O542 2.399 1_545 S
Tb521 O531 2.322 . S
Tb521 O532 2.349 . S
Tb521 O534 2.415 . S
Tb521 O535 2.399 . S
Tb521 O536 2.325 1_565 S
Tb521 O539 2.303 . S
Tb521 C550 2.764 . S
C522 O538 1.261 . S
C522 O539 1.257 1_545 S
C523 C526 1.358 1_655 S
C523 C527 1.332 . S
C523 C529 1.504 . S
C524 C525 1.373 . S
C524 C528 1.308 1_455 S
C525 C524 1.373 . S
C525 C526 1.429 . S
C525 H552 0.932 . S
C526 C523 1.358 1_455 S
C526 C525 1.429 . S
C526 H553 0.930 . S
C527 C523 1.332 . S
C527 C528 1.394 . S
C527 H554 0.932 . S
C528 C524 1.308 1_655 S
C528 C527 1.394 . S
C528 H555 0.929 . S
C529 Tb520 2.764 1_565 S
C529 C523 1.504 . S
C529 O541 1.239 . S
C529 O542 1.263 . S
O530 Tb520 2.325 1_565 S
O530 C540 1.236 . S
O531 Tb521 2.322 . S
O531 C540 1.257 . S
O532 Tb521 2.349 . S
O532 C543 1.261 . S
O533 Tb520 2.303 1_565 S
O533 C543 1.257 . S
O534 Tb521 2.415 . S
O534 C550 1.239 . S
O535 Tb521 2.399 . S
O535 C550 1.263 . S
O536 Tb521 2.325 1_545 S
O536 C551 1.236 . S
O537 Tb520 2.322 . S
O537 C551 1.257 . S
O538 Tb520 2.349 . S
O538 C522 1.261 . S
O539 Tb521 2.303 . S
O539 C522 1.257 1_565 S
C540 O530 1.236 . S
C540 O531 1.257 . S
O541 Tb520 2.415 1_565 S
O541 C529 1.239 . S
O542 Tb520 2.399 1_565 S
O542 C529 1.263 . S
C543 O532 1.261 . S
C543 O533 1.257 . S
C544 C547 1.364 . S
C544 C548 1.322 1_565 S
C544 C550 1.508 . S
C545 C546 1.373 1_545 S
C545 C549 1.308 . S
C546 C545 1.373 1_565 S
C546 C547 1.429 . S
C546 H556 0.932 . S
C547 C544 1.364 . S
C547 C546 1.429 . S
C547 H557 0.930 . S
C548 C544 1.322 1_545 S
C548 C549 1.394 . S
C548 H558 0.932 . S
C549 C545 1.308 . S
C549 C548 1.394 . S
C549 H559 0.929 . S
C550 Tb521 2.764 . S
C550 O534 1.239 . S
C550 O535 1.263 . S
C550 C544 1.508 . S
C551 O536 1.236 . S
C551 O537 1.257 . S
H552 C525 0.932 . S
H553 C526 0.930 . S
H554 C527 0.932 . S
H555 C528 0.929 . S
H556 C546 0.932 . S
H557 C547 0.930 . S
H558 C548 0.932 . S
H559 C549 0.929 . S
Tb560 C569 2.764 . S
Tb560 O570 2.325 . S
Tb560 O573 2.303 . S
Tb560 O577 2.322 . S
Tb560 O578 2.349 . S
Tb560 O581 2.415 . S
Tb560 O582 2.399 . S
Tb561 O571 2.322 . S
Tb561 O572 2.349 . S
Tb561 O574 2.415 . S
Tb561 O575 2.399 . S
Tb561 O576 2.325 . S
Tb561 O579 2.303 . S
Tb561 C590 2.764 . S
C562 O578 1.261 . S
C562 O579 1.257 . S
C563 C566 1.358 . S
C563 C567 1.332 . S
C563 C569 1.504 . S
C564 C565 1.373 . S
C564 C568 1.308 . S
C565 C564 1.373 . S
C565 C566 1.429 . S
C565 H592 0.932 . S
C566 C563 1.358 . S
C566 C565 1.429 . S
C566 H593 0.930 . S
C567 C563 1.332 . S
C567 C568 1.394 . S
C567 H594 0.932 . S
C568 C564 1.308 . S
C568 C567 1.394 . S
C568 H595 0.929 . S
C569 Tb560 2.764 . S
C569 C563 1.504 . S
C569 O581 1.239 . S
C569 O582 1.263 . S
O570 Tb560 2.325 . S
O570 C580 1.236 . S
O571 Tb561 2.322 . S
O571 C580 1.257 . S
O572 Tb561 2.349 . S
O572 C583 1.261 . S
O573 Tb560 2.303 . S
O573 C583 1.257 . S
O574 Tb561 2.415 . S
O574 C590 1.239 . S
O575 Tb561 2.399 . S
O575 C590 1.263 . S
O576 Tb561 2.325 . S
O576 C591 1.236 . S
O577 Tb560 2.322 . S
O577 C591 1.257 . S
O578 Tb560 2.349 . S
O578 C562 1.261 . S
O579 Tb561 2.303 . S
O579 C562 1.257 . S
C580 O570 1.236 . S
C580 O571 1.257 . S
O581 Tb560 2.415 . S
O581 C569 1.239 . S
O582 Tb560 2.399 . S
O582 C569 1.263 . S
C583 O572 1.261 . S
C583 O573 1.257 . S
C584 C587 1.358 . S
C584 C588 1.332 . S
C584 C590 1.504 . S
C585 C586 1.373 . S
C585 C589 1.308 . S
C586 C585 1.373 . S
C586 C587 1.429 . S
C586 H596 0.932 . S
C587 C584 1.358 . S
C587 C586 1.429 . S
C587 H597 0.930 . S
C588 C584 1.332 . S
C588 C589 1.394 . S
C588 H598 0.932 . S
C589 C585 1.308 . S
C589 C588 1.394 . S
C589 H599 0.929 . S
C590 Tb561 2.764 . S
C590 O574 1.239 . S
C590 O575 1.263 . S
C590 C584 1.504 . S
C591 O576 1.236 . S
C591 O577 1.257 . S
H592 C565 0.932 . S
H593 C566 0.930 . S
H594 C567 0.932 . S
H595 C568 0.929 . S
H596 C586 0.932 . S
H597 C587 0.930 . S
H598 C588 0.932 . S
H599 C589 0.929 . S
Tb600 C609 2.764 1_565 S
Tb600 O610 2.325 1_565 S
Tb600 O613 2.303 1_565 S
Tb600 O617 2.322 . S
Tb600 O618 2.349 . S
Tb600 O621 2.415 1_565 S
Tb600 O622 2.399 1_565 S
Tb601 O611 2.322 . S
Tb601 O612 2.349 . S
Tb601 O614 2.415 . S
Tb601 O615 2.399 . S
Tb601 O616 2.325 1_545 S
Tb601 O619 2.303 . S
Tb601 C630 2.764 . S
C602 O618 1.261 . S
C602 O619 1.257 1_565 S
C603 C606 1.358 . S
C603 C607 1.332 . S
C603 C609 1.504 . S
C604 C605 1.373 . S
C604 C608 1.308 . S
C605 C604 1.373 . S
C605 C606 1.429 . S
C605 H632 0.932 . S
C606 C603 1.358 . S
C606 C605 1.429 . S
C606 H633 0.930 . S
C607 C603 1.332 . S
C607 C608 1.394 . S
C607 H634 0.932 . S
C608 C604 1.308 . S
C608 C607 1.394 . S
C608 H635 0.929 . S
C609 Tb600 2.764 1_545 S
C609 C603 1.504 . S
C609 O621 1.239 . S
C609 O622 1.263 . S
O610 Tb600 2.325 1_545 S
O610 C620 1.236 . S
O611 Tb601 2.322 . S
O611 C620 1.257 . S
O612 Tb601 2.349 . S
O612 C623 1.261 . S
O613 Tb600 2.303 1_545 S
O613 C623 1.257 . S
O614 Tb601 2.415 . S
O614 C630 1.239 . S
O615 Tb601 2.399 . S
O615 C630 1.263 . S
O616 Tb601 2.325 1_565 S
O616 C631 1.236 . S
O617 Tb600 2.322 . S
O617 C631 1.257 . S
O618 Tb600 2.349 . S
O618 C602 1.261 . S
O619 Tb601 2.303 . S
O619 C602 1.257 1_545 S
C620 O610 1.236 . S
C620 O611 1.257 . S
O621 Tb600 2.415 1_545 S
O621 C609 1.239 . S
O622 Tb600 2.399 1_545 S
O622 C609 1.263 . S
C623 O612 1.261 . S
C623 O613 1.257 . S
C624 C627 1.363 . S
C624 C628 1.322 1_545 S
C624 C630 1.508 . S
C625 C626 1.373 1_565 S
C625 C629 1.308 . S
C626 C625 1.373 1_545 S
C626 C627 1.429 . S
C626 H636 0.932 . S
C627 C624 1.363 . S
C627 C626 1.429 . S
C627 H637 0.930 . S
C628 C624 1.322 1_565 S
C628 C629 1.394 . S
C628 H638 0.932 . S
C629 C625 1.308 . S
C629 C628 1.394 . S
C629 H639 0.929 . S
C630 Tb601 2.764 . S
C630 O614 1.239 . S
C630 O615 1.263 . S
C630 C624 1.508 . S
C631 O616 1.236 . S
C631 O617 1.257 . S
H632 C605 0.932 . S
H633 C606 0.930 . S
H634 C607 0.932 . S
H635 C608 0.929 . S
H636 C626 0.932 . S
H637 C627 0.930 . S
H638 C628 0.932 . S
H639 C629 0.929 . S
C640 C641 1.387 . S
C640 H644 0.950 . S
C640 C649 1.390 . S
C641 C640 1.387 . S
C641 C643 1.387 . S
H642 C649 0.950 . S
C643 C641 1.387 . S
C643 C645 1.390 . S
C643 H647 0.950 . S
H644 C640 0.950 . S
C645 C643 1.390 . S
C645 C646 1.387 . S
C645 H648 0.950 . S
C646 C645 1.387 . S
C646 C649 1.387 . S
H647 C643 0.950 . S
H648 C645 0.950 . S
C649 C640 1.390 . S
C649 H642 0.950 . S
C649 C646 1.387 . S
C650 C651 1.387 . S
C650 H654 0.950 . S
C650 C659 1.390 . S
C651 C650 1.387 . S
C651 C653 1.387 . S
H652 C659 0.950 . S
C653 C651 1.387 . S
C653 C655 1.390 . S
C653 H657 0.950 . S
H654 C650 0.950 . S
C655 C653 1.390 . S
C655 C656 1.387 . S
C655 H658 0.950 . S
C656 C655 1.387 . S
C656 C659 1.387 . S
H657 C653 0.950 . S
H658 C655 0.950 . S
C659 C650 1.390 . S
C659 H652 0.950 . S
C659 C656 1.387 . S
C660 C661 1.387 . S
C660 H664 0.950 . S
C660 C669 1.390 . S
C661 C660 1.387 . S
C661 C663 1.387 . S
H662 C669 0.950 . S
C663 C661 1.387 . S
C663 C665 1.390 . S
C663 H667 0.950 . S
H664 C660 0.950 . S
C665 C663 1.390 . S
C665 C666 1.387 . S
C665 H668 0.950 . S
C666 C665 1.387 . S
C666 C669 1.387 . S
H667 C663 0.950 . S
H668 C665 0.950 . S
C669 C660 1.390 . S
C669 H662 0.950 . S
C669 C666 1.387 . S
C670 C671 1.387 1_556 S
C670 H674 0.950 . S
C670 C679 1.390 1_455 S
C671 C670 1.387 1_554 S
C671 C673 1.387 . S
H672 C679 0.950 . S
C673 C671 1.387 . S
C673 C675 1.390 1_455 S
C673 H677 0.950 . S
H674 C670 0.950 . S
C675 C673 1.390 1_655 S
C675 C676 1.387 1_554 S
C675 H678 0.950 . S
C676 C675 1.387 1_556 S
C676 C679 1.387 . S
H677 C673 0.950 . S
H678 C675 0.950 . S
C679 C670 1.390 1_655 S
C679 H672 0.950 . S
C679 C676 1.387 . S
C680 C681 1.387 . S
C680 H684 0.950 . S
C680 C689 1.390 . S
C681 C680 1.387 . S
C681 C683 1.387 . S
H682 C689 0.950 . S
C683 C681 1.387 . S
C683 C685 1.390 . S
C683 H687 0.950 . S
H684 C680 0.950 . S
C685 C683 1.390 . S
C685 C686 1.387 . S
C685 H688 0.950 . S
C686 C685 1.387 . S
C686 C689 1.387 . S
H687 C683 0.950 . S
H688 C685 0.950 . S
C689 C680 1.390 . S
C689 H682 0.950 . S
C689 C686 1.387 . S
C690 C691 1.387 . S
C690 H694 0.950 . S
C690 C699 1.390 . S
C691 C690 1.387 . S
C691 C693 1.387 . S
H692 C699 0.950 . S
C693 C691 1.387 . S
C693 C695 1.390 . S
C693 H697 0.950 . S
H694 C690 0.950 . S
C695 C693 1.390 . S
C695 C696 1.387 . S
C695 H698 0.950 . S
C696 C695 1.387 . S
C696 C699 1.387 . S
H697 C693 0.950 . S
H698 C695 0.950 . S
C699 C690 1.390 . S
C699 H692 0.950 . S
C699 C696 1.387 . S
C700 C701 1.387 1_554 S
C700 H704 0.950 . S
C700 C709 1.390 1_465 S
C701 C700 1.387 1_556 S
C701 C703 1.387 . S
H702 C709 0.950 . S
C703 C701 1.387 . S
C703 C705 1.390 1_465 S
C703 H707 0.950 . S
H704 C700 0.950 . S
C705 C703 1.390 1_645 S
C705 C706 1.387 1_556 S
C705 H708 0.950 . S
C706 C705 1.387 1_554 S
C706 C709 1.387 . S
H707 C703 0.950 . S
H708 C705 0.950 . S
C709 C700 1.390 1_645 S
C709 H702 0.950 . S
C709 C706 1.387 . S
C710 C711 1.387 . S
C710 H714 0.950 . S
C710 C719 1.390 1_565 S
C711 C710 1.387 . S
C711 C713 1.387 . S
H712 C719 0.950 . S
C713 C711 1.387 . S
C713 C715 1.390 1_565 S
C713 H717 0.950 . S
H714 C710 0.950 . S
C715 C713 1.390 1_545 S
C715 C716 1.387 . S
C715 H718 0.950 . S
C716 C715 1.387 . S
C716 C719 1.387 . S
H717 C713 0.950 . S
H718 C715 0.950 . S
C719 C710 1.390 1_545 S
C719 H712 0.950 . S
C719 C716 1.387 . S
C720 C721 1.387 . S
C720 H724 0.950 . S
C720 C729 1.390 . S
C721 C720 1.387 . S
C721 C723 1.387 . S
H722 C729 0.950 . S
C723 C721 1.387 . S
C723 C725 1.390 1_545 S
C723 H727 0.950 . S
H724 C720 0.950 . S
C725 C723 1.390 1_565 S
C725 C726 1.387 1_565 S
C725 H728 0.950 . S
C726 C725 1.387 1_545 S
C726 C729 1.387 . S
H727 C723 0.950 . S
H728 C725 0.950 . S
C729 C720 1.390 . S
C729 H722 0.950 . S
C729 C726 1.387 . S
C730 C731 1.387 . S
C730 H734 0.950 . S
C730 C739 1.390 . S
C731 C730 1.387 . S
C731 C733 1.387 . S
H732 C739 0.950 . S
C733 C731 1.387 . S
C733 C735 1.390 . S
C733 H737 0.950 . S
H734 C730 0.950 . S
C735 C733 1.390 . S
C735 C736 1.387 . S
C735 H738 0.950 . S
C736 C735 1.387 . S
C736 C739 1.387 . S
H737 C733 0.950 . S
H738 C735 0.950 . S
C739 C730 1.390 . S
C739 H732 0.950 . S
C739 C736 1.387 . S
C740 C741 1.387 1_545 S
C740 H744 0.950 . S
C740 C749 1.390 1_545 S
C741 C740 1.387 1_565 S
C741 C743 1.387 . S
H742 C749 0.950 . S
C743 C741 1.387 . S
C743 C745 1.390 . S
C743 H747 0.950 . S
H744 C740 0.950 . S
C745 C743 1.390 . S
C745 C746 1.387 . S
C745 H748 0.950 . S
C746 C745 1.387 . S
C746 C749 1.387 . S
H747 C743 0.950 . S
H748 C745 0.950 . S
C749 C740 1.390 1_565 S
C749 H742 0.950 . S
C749 C746 1.387 . S
C750 C751 1.387 . S
C750 H754 0.950 . S
C750 C759 1.390 . S
C751 C750 1.387 . S
C751 C753 1.387 . S
H752 C759 0.950 . S
C753 C751 1.387 . S
C753 C755 1.390 . S
C753 H757 0.950 . S
H754 C750 0.950 . S
C755 C753 1.390 . S
C755 C756 1.387 . S
C755 H758 0.950 . S
C756 C755 1.387 . S
C756 C759 1.387 . S
H757 C753 0.950 . S
H758 C755 0.950 . S
C759 C750 1.390 . S
C759 H752 0.950 . S
C759 C756 1.387 . S
C760 C761 1.387 . S
C760 H764 0.950 . S
C760 C769 1.390 . S
C761 C760 1.387 . S
C761 C763 1.387 . S
H762 C769 0.950 . S
C763 C761 1.387 . S
C763 C765 1.390 1_565 S
C763 H767 0.950 1_565 S
H764 C760 0.950 . S
C765 C763 1.390 1_545 S
C765 C766 1.387 1_545 S
C765 H768 0.950 . S
C766 C765 1.387 1_565 S
C766 C769 1.387 . S
H767 C763 0.950 1_545 S
H768 C765 0.950 . S
C769 C760 1.390 . S
C769 H762 0.950 . S
C769 C766 1.387 . S
C770 C771 1.387 . S
C770 H774 0.950 . S
C770 C779 1.390 . S
C771 C770 1.387 . S
C771 C773 1.387 . S
H772 C779 0.950 . S
C773 C771 1.387 . S
C773 C775 1.390 . S
C773 H777 0.950 . S
H774 C770 0.950 . S
C775 C773 1.390 . S
C775 C776 1.387 . S
C775 H778 0.950 . S
C776 C775 1.387 . S
C776 C779 1.387 . S
H777 C773 0.950 . S
H778 C775 0.950 . S
C779 C770 1.390 . S
C779 H772 0.950 . S
C779 C776 1.387 . S
C780 C781 1.387 1_565 S
C780 H784 0.952 . S
C780 C789 1.389 1_565 S
C781 C780 1.387 1_545 S
C781 C783 1.387 . S
H782 C789 0.950 . S
C783 C781 1.387 . S
C783 C785 1.390 . S
C783 H787 0.950 . S
H784 C780 0.952 . S
C785 C783 1.390 . S
C785 C786 1.387 . S
C785 H788 0.950 . S
C786 C785 1.387 . S
C786 C789 1.387 . S
H787 C783 0.950 . S
H788 C785 0.950 . S
C789 C780 1.389 1_545 S
C789 H782 0.950 . S
C789 C786 1.387 . S
C790 C791 1.387 . S
C790 H794 0.950 . S
C790 C799 1.390 . S
C791 C790 1.387 . S
C791 C793 1.387 . S
H792 C799 0.950 . S
C793 C791 1.387 . S
C793 C795 1.390 . S
C793 H797 0.950 . S
H794 C790 0.950 . S
C795 C793 1.390 . S
C795 C796 1.387 . S
C795 H798 0.950 . S
C796 C795 1.387 . S
C796 C799 1.387 . S
H797 C793 0.950 . S
H798 C795 0.950 . S
C799 C790 1.390 . S
C799 H792 0.950 . S
C799 C796 1.387 . S
C800 C801 1.387 . S
C800 H804 0.950 . S
C800 C809 1.390 . S
C801 C800 1.387 . S
C801 C803 1.387 . S
H802 C809 0.950 . S
C803 C801 1.387 . S
C803 C805 1.390 . S
C803 H807 0.950 . S
H804 C800 0.950 . S
C805 C803 1.390 . S
C805 C806 1.387 . S
C805 H808 0.950 . S
C806 C805 1.387 . S
C806 C809 1.387 . S
H807 C803 0.950 . S
H808 C805 0.950 . S
C809 C800 1.390 . S
C809 H802 0.950 . S
C809 C806 1.387 . S
C810 C811 1.387 1_545 S
C810 H814 0.950 . S
C810 C819 1.392 . S
C811 C810 1.387 1_565 S
C811 C813 1.387 . S
H812 C819 0.967 . S
C813 C811 1.387 . S
C813 C815 1.390 . S
C813 H817 0.950 . S
H814 C810 0.950 . S
C815 C813 1.390 . S
C815 C816 1.387 . S
C815 H818 0.950 . S
C816 C815 1.387 . S
C816 C819 1.368 1_565 S
H817 C813 0.950 . S
H818 C815 0.950 . S
C819 C810 1.392 . S
C819 H812 0.967 . S
C819 C816 1.368 1_545 S
C820 C821 1.387 . S
C820 H824 0.950 . S
C820 C829 1.390 . S
C821 C820 1.387 . S
C821 C823 1.387 . S
H822 C829 0.950 . S
C823 C821 1.387 . S
C823 C825 1.390 . S
C823 H827 0.950 . S
H824 C820 0.950 . S
C825 C823 1.390 . S
C825 C826 1.387 . S
C825 H828 0.950 . S
C826 C825 1.387 . S
C826 C829 1.387 . S
H827 C823 0.950 . S
H828 C825 0.950 . S
C829 C820 1.390 . S
C829 H822 0.950 . S
C829 C826 1.387 . S
C830 C831 1.368 1_565 S
C830 H834 0.967 . S
C830 C839 1.392 . S
C831 C830 1.368 1_545 S
C831 C833 1.387 . S
H832 C839 0.950 . S
C833 C831 1.387 . S
C833 C835 1.390 . S
C833 H837 0.950 . S
H834 C830 0.967 . S
C835 C833 1.390 . S
C835 C836 1.387 . S
C835 H838 0.950 . S
C836 C835 1.387 . S
C836 C839 1.387 1_545 S
H837 C833 0.950 . S
H838 C835 0.950 . S
C839 C830 1.392 . S
C839 H832 0.950 . S
C839 C836 1.387 1_565 S
C840 C841 1.387 . S
C840 H844 0.950 . S
C840 C849 1.390 . S
C841 C840 1.387 . S
C841 C843 1.387 . S
H842 C849 0.950 . S
C843 C841 1.387 . S
C843 C845 1.390 . S
C843 H847 0.950 . S
H844 C840 0.950 . S
C845 C843 1.390 . S
C845 C846 1.387 . S
C845 H848 0.950 . S
C846 C845 1.387 . S
C846 C849 1.387 . S
H847 C843 0.950 . S
H848 C845 0.950 . S
C849 C840 1.390 . S
C849 H842 0.950 . S
C849 C846 1.387 . S
C850 C851 1.387 1_565 S
C850 H854 0.950 . S
C850 C859 1.391 . S
C851 C850 1.387 1_545 S
C851 C853 1.387 . S
H852 C859 0.954 . S
C853 C851 1.387 . S
C853 C855 1.390 . S
C853 H857 0.950 . S
H854 C850 0.950 . S
C855 C853 1.390 . S
C855 C856 1.387 . S
C855 H858 0.950 . S
C856 C855 1.387 . S
C856 C859 1.383 1_545 S
H857 C853 0.950 . S
H858 C855 0.950 . S
C859 C850 1.391 . S
C859 H852 0.954 . S
C859 C856 1.383 1_565 S
C860 C861 1.387 . S
C860 H864 0.950 . S
C860 C869 1.390 . S
C861 C860 1.387 . S
C861 C863 1.387 . S
H862 C869 0.950 . S
C863 C861 1.387 . S
C863 C865 1.390 . S
C863 H867 0.950 . S
H864 C860 0.950 . S
C865 C863 1.390 . S
C865 C866 1.387 . S
C865 H868 0.950 . S
C866 C865 1.387 . S
C866 C869 1.387 . S
H867 C863 0.950 . S
H868 C865 0.950 . S
C869 C860 1.390 . S
C869 H862 0.950 . S
C869 C866 1.387 . S
C870 C871 1.387 . S
C870 H874 0.950 . S
C870 C879 1.390 . S
C871 C870 1.387 . S
C871 C873 1.387 1_565 S
H872 C879 0.950 . S
C873 C871 1.387 1_545 S
C873 C875 1.392 . S
C873 H877 0.950 . S
H874 C870 0.950 . S
C875 C873 1.392 . S
C875 C876 1.371 1_545 S
C875 H878 0.964 . S
C876 C875 1.371 1_565 S
C876 C879 1.387 . S
H877 C873 0.950 . S
H878 C875 0.964 . S
C879 C870 1.390 . S
C879 H872 0.950 . S
C879 C876 1.387 . S
C880 C881 1.387 . S
C880 H884 0.950 . S
C880 C889 1.390 . S
C881 C880 1.387 . S
C881 C883 1.387 . S
H882 C889 0.950 . S
C883 C881 1.387 . S
C883 C885 1.390 . S
C883 H887 0.950 . S
H884 C880 0.950 . S
C885 C883 1.390 . S
C885 C886 1.387 . S
C885 H888 0.950 . S
C886 C885 1.387 . S
C886 C889 1.387 . S
H887 C883 0.950 . S
H888 C885 0.950 . S
C889 C880 1.390 . S
C889 H882 0.950 . S
C889 C886 1.387 . S
C890 C891 1.387 . S
C890 H894 0.950 . S
C890 C899 1.390 . S
C891 C890 1.387 . S
C891 C893 1.387 . S
H892 C899 0.950 . S
C893 C891 1.387 . S
C893 C895 1.390 . S
C893 H897 0.950 . S
H894 C890 0.950 . S
C895 C893 1.390 . S
C895 C896 1.387 . S
C895 H898 0.950 . S
C896 C895 1.387 . S
C896 C899 1.387 . S
H897 C893 0.950 . S
H898 C895 0.950 . S
C899 C890 1.390 . S
C899 H892 0.950 . S
C899 C896 1.387 . S
C900 C901 1.387 . S
C900 H904 0.950 . S
C900 C909 1.390 1_655 S
C901 C900 1.387 . S
C901 C903 1.387 . S
H902 C909 0.950 . S
C903 C901 1.387 . S
C903 C905 1.390 1_655 S
C903 H907 0.950 . S
H904 C900 0.950 . S
C905 C903 1.390 1_455 S
C905 C906 1.387 . S
C905 H908 0.950 . S
C906 C905 1.387 . S
C906 C909 1.387 . S
H907 C903 0.950 . S
H908 C905 0.950 . S
C909 C900 1.390 1_455 S
C909 H902 0.950 . S
C909 C906 1.387 . S
C910 C911 1.387 . S
C910 H914 0.950 . S
C910 C919 1.390 1_655 S
C911 C910 1.387 . S
C911 C913 1.387 . S
H912 C919 0.950 . S
C913 C911 1.387 . S
C913 C915 1.390 1_655 S
C913 H917 0.950 . S
H914 C910 0.950 . S
C915 C913 1.390 1_455 S
C915 C916 1.387 . S
C915 H918 0.950 . S
C916 C915 1.387 . S
C916 C919 1.387 . S
H917 C913 0.950 . S
H918 C915 0.950 . S
C919 C910 1.390 1_455 S
C919 H912 0.950 . S
C919 C916 1.387 . S
C920 C921 1.387 . S
C920 H924 0.950 . S
C920 C929 1.390 . S
C921 C920 1.387 . S
C921 C923 1.387 . S
H922 C929 0.950 . S
C923 C921 1.387 . S
C923 C925 1.390 . S
C923 H927 0.950 . S
H924 C920 0.950 . S
C925 C923 1.390 . S
C925 C926 1.387 . S
C925 H928 0.950 . S
C926 C925 1.387 . S
C926 C929 1.387 . S
H927 C923 0.950 . S
H928 C925 0.950 . S
C929 C920 1.390 . S
C929 H922 0.950 . S
C929 C926 1.387 . S
C930 C931 1.387 . S
C930 H934 0.950 . S
C930 C939 1.390 . S
C931 C930 1.387 . S
C931 C933 1.387 . S
H932 C939 0.950 . S
C933 C931 1.387 . S
C933 C935 1.390 . S
C933 H937 0.950 . S
H934 C930 0.950 . S
C935 C933 1.390 . S
C935 C936 1.387 . S
C935 H938 0.950 . S
C936 C935 1.387 . S
C936 C939 1.387 . S
H937 C933 0.950 . S
H938 C935 0.950 . S
C939 C930 1.390 . S
C939 H932 0.950 . S
C939 C936 1.387 . S
C940 C941 1.387 . S
C940 H944 0.950 . S
C940 C949 1.390 1_455 S
C941 C940 1.387 . S
C941 C943 1.387 . S
H942 C949 0.950 . S
C943 C941 1.387 . S
C943 C945 1.390 1_455 S
C943 H947 0.950 . S
H944 C940 0.950 . S
C945 C943 1.390 1_655 S
C945 C946 1.387 . S
C945 H948 0.950 . S
C946 C945 1.387 . S
C946 C949 1.387 . S
H947 C943 0.950 . S
H948 C945 0.950 . S
C949 C940 1.390 1_655 S
C949 H942 0.950 . S
C949 C946 1.387 . S
C950 C951 1.387 . S
C950 H954 0.950 . S
C950 C959 1.390 1_455 S
C951 C950 1.387 . S
C951 C953 1.387 . S
H952 C959 0.950 . S
C953 C951 1.387 . S
C953 C955 1.390 1_455 S
C953 H957 0.950 . S
H954 C950 0.950 . S
C955 C953 1.390 1_655 S
C955 C956 1.387 . S
C955 H958 0.950 . S
C956 C955 1.387 . S
C956 C959 1.387 . S
H957 C953 0.950 . S
H958 C955 0.950 . S
C959 C950 1.390 1_655 S
C959 H952 0.950 . S
C959 C956 1.387 . S
C960 C961 1.387 . S
C960 H964 0.950 . S
C960 C969 1.390 . S
C961 C960 1.387 . S
C961 C963 1.387 . S
H962 C969 0.950 . S
C963 C961 1.387 . S
C963 C965 1.390 . S
C963 H967 0.950 . S
H964 C960 0.950 . S
C965 C963 1.390 . S
C965 C966 1.387 . S
C965 H968 0.950 . S
C966 C965 1.387 . S
C966 C969 1.387 . S
H967 C963 0.950 . S
H968 C965 0.950 . S
C969 C960 1.390 . S
C969 H962 0.950 . S
C969 C966 1.387 . S
C970 C971 1.387 . S
C970 H974 0.950 . S
C970 C979 1.390 . S
C971 C970 1.387 . S
C971 C973 1.387 . S
H972 C979 0.950 . S
C973 C971 1.387 . S
C973 C975 1.390 . S
C973 H977 0.950 . S
H974 C970 0.950 . S
C975 C973 1.390 . S
C975 C976 1.387 . S
C975 H978 0.950 . S
C976 C975 1.387 . S
C976 C979 1.387 . S
H977 C973 0.950 . S
H978 C975 0.950 . S
C979 C970 1.390 . S
C979 H972 0.950 . S
C979 C976 1.387 . S
C980 C981 1.387 . S
C980 H984 0.950 . S
C980 C989 1.390 . S
C981 C980 1.387 . S
C981 C983 1.387 . S
H982 C989 0.950 . S
C983 C981 1.387 . S
C983 C985 1.390 . S
C983 H987 0.950 . S
H984 C980 0.950 . S
C985 C983 1.390 . S
C985 C986 1.387 . S
C985 H988 0.950 . S
C986 C985 1.387 . S
C986 C989 1.387 . S
H987 C983 0.950 . S
H988 C985 0.950 . S
C989 C980 1.390 . S
C989 H982 0.950 . S
C989 C986 1.387 . S
C990 C991 1.387 . S
C990 H994 0.950 . S
C990 C999 1.390 . S
C991 C990 1.387 . S
C991 C993 1.387 . S
H992 C999 0.950 . S
C993 C991 1.387 . S
C993 C995 1.390 . S
C993 H997 0.950 . S
H994 C990 0.950 . S
C995 C993 1.390 . S
C995 C996 1.387 . S
C995 H998 0.950 . S
C996 C995 1.387 . S
C996 C999 1.387 . S
H997 C993 0.950 . S
H998 C995 0.950 . S
C999 C990 1.390 . S
C999 H992 0.950 . S
C999 C996 1.387 . S
C1000 C1001 1.387 . S
C1000 H1004 0.950 . S
C1000 C1009 1.390 . S
C1001 C1000 1.387 . S
C1001 C1003 1.387 . S
H1002 C1009 0.950 . S
C1003 C1001 1.387 . S
C1003 C1005 1.390 . S
C1003 H1007 0.950 . S
H1004 C1000 0.950 . S
C1005 C1003 1.390 . S
C1005 C1006 1.387 . S
C1005 H1008 0.950 . S
C1006 C1005 1.387 . S
C1006 C1009 1.387 . S
H1007 C1003 0.950 . S
H1008 C1005 0.950 . S
C1009 C1000 1.390 . S
C1009 H1002 0.950 . S
C1009 C1006 1.387 . S
C1010 C1011 1.387 . S
C1010 H1014 0.950 . S
C1010 C1019 1.390 . S
C1011 C1010 1.387 . S
C1011 C1013 1.387 . S
H1012 C1019 0.950 . S
C1013 C1011 1.387 . S
C1013 C1015 1.390 . S
C1013 H1017 0.950 . S
H1014 C1010 0.950 . S
C1015 C1013 1.390 . S
C1015 C1016 1.387 . S
C1015 H1018 0.950 . S
C1016 C1015 1.387 . S
C1016 C1019 1.387 . S
H1017 C1013 0.950 . S
H1018 C1015 0.950 . S
C1019 C1010 1.390 . S
C1019 H1012 0.950 . S
C1019 C1016 1.387 . S
C1020 C1021 1.387 . S
C1020 H1024 0.950 . S
C1020 C1029 1.390 . S
C1021 C1020 1.387 . S
C1021 C1023 1.387 . S
H1022 C1029 0.950 . S
C1023 C1021 1.387 . S
C1023 C1025 1.390 . S
C1023 H1027 0.950 . S
H1024 C1020 0.950 . S
C1025 C1023 1.390 . S
C1025 C1026 1.387 . S
C1025 H1028 0.950 . S
C1026 C1025 1.387 . S
C1026 C1029 1.387 . S
H1027 C1023 0.950 . S
H1028 C1025 0.950 . S
C1029 C1020 1.390 . S
C1029 H1022 0.950 . S
C1029 C1026 1.387 . S
C1030 C1031 1.387 . S
C1030 H1034 0.950 . S
C1030 C1039 1.390 . S
C1031 C1030 1.387 . S
C1031 C1033 1.387 . S
H1032 C1039 0.950 . S
C1033 C1031 1.387 . S
C1033 C1035 1.390 . S
C1033 H1037 0.950 . S
H1034 C1030 0.950 . S
C1035 C1033 1.390 . S
C1035 C1036 1.387 . S
C1035 H1038 0.950 . S
C1036 C1035 1.387 . S
C1036 C1039 1.387 . S
H1037 C1033 0.950 . S
H1038 C1035 0.950 . S
C1039 C1030 1.390 . S
C1039 H1032 0.950 . S
C1039 C1036 1.387 . S
C1040 C1041 1.387 . S
C1040 H1044 0.950 . S
C1040 C1049 1.390 . S
C1041 C1040 1.387 . S
C1041 C1043 1.387 . S
H1042 C1049 0.950 . S
C1043 C1041 1.387 . S
C1043 C1045 1.390 . S
C1043 H1047 0.950 . S
H1044 C1040 0.950 . S
C1045 C1043 1.390 . S
C1045 C1046 1.387 . S
C1045 H1048 0.950 . S
C1046 C1045 1.387 . S
C1046 C1049 1.387 . S
H1047 C1043 0.950 . S
H1048 C1045 0.950 . S
C1049 C1040 1.390 . S
C1049 H1042 0.950 . S
C1049 C1046 1.387 . S
C1050 C1051 1.387 . S
C1050 H1054 0.950 . S
C1050 C1059 1.390 . S
C1051 C1050 1.387 . S
C1051 C1053 1.387 . S
H1052 C1059 0.950 . S
C1053 C1051 1.387 . S
C1053 C1055 1.390 . S
C1053 H1057 0.950 . S
H1054 C1050 0.950 . S
C1055 C1053 1.390 . S
C1055 C1056 1.387 . S
C1055 H1058 0.950 . S
C1056 C1055 1.387 . S
C1056 C1059 1.387 . S
H1057 C1053 0.950 . S
H1058 C1055 0.950 . S
C1059 C1050 1.390 . S
C1059 H1052 0.950 . S
C1059 C1056 1.387 . S
C1060 C1061 1.387 . S
C1060 H1064 0.950 . S
C1060 C1069 1.390 . S
C1061 C1060 1.387 . S
C1061 C1063 1.387 . S
H1062 C1069 0.950 . S
C1063 C1061 1.387 . S
C1063 C1065 1.390 . S
C1063 H1067 0.950 . S
H1064 C1060 0.950 . S
C1065 C1063 1.390 . S
C1065 C1066 1.387 . S
C1065 H1068 0.950 . S
C1066 C1065 1.387 . S
C1066 C1069 1.387 . S
H1067 C1063 0.950 . S
H1068 C1065 0.950 . S
C1069 C1060 1.390 . S
C1069 H1062 0.950 . S
C1069 C1066 1.387 . S
C1070 C1071 1.387 . S
C1070 H1074 0.950 . S
C1070 C1079 1.390 . S
C1071 C1070 1.387 . S
C1071 C1073 1.387 . S
H1072 C1079 0.950 . S
C1073 C1071 1.387 . S
C1073 C1075 1.390 . S
C1073 H1077 0.950 . S
H1074 C1070 0.950 . S
C1075 C1073 1.390 . S
C1075 C1076 1.387 . S
C1075 H1078 0.950 . S
C1076 C1075 1.387 . S
C1076 C1079 1.387 . S
H1077 C1073 0.950 . S
H1078 C1075 0.950 . S
C1079 C1070 1.390 . S
C1079 H1072 0.950 . S
C1079 C1076 1.387 . S
C1080 C1081 1.387 . S
C1080 H1084 0.950 . S
C1080 C1089 1.390 . S
C1081 C1080 1.387 . S
C1081 C1083 1.387 . S
H1082 C1089 0.950 . S
C1083 C1081 1.387 . S
C1083 C1085 1.390 . S
C1083 H1087 0.950 . S
H1084 C1080 0.950 . S
C1085 C1083 1.390 . S
C1085 C1086 1.387 . S
C1085 H1088 0.950 . S
C1086 C1085 1.387 . S
C1086 C1089 1.387 . S
H1087 C1083 0.950 . S
H1088 C1085 0.950 . S
C1089 C1080 1.390 . S
C1089 H1082 0.950 . S
C1089 C1086 1.387 . S
C1090 C1091 1.387 . S
C1090 H1094 0.965 . S
C1090 C1099 1.390 . S
C1091 C1090 1.387 . S
C1091 C1093 1.387 . S
H1092 C1099 0.950 . S
C1093 C1091 1.387 . S
C1093 C1095 1.390 . S
C1093 H1097 0.950 1_545 S
H1094 C1090 0.965 . S
C1095 C1093 1.390 . S
C1095 C1096 1.387 . S
C1095 H1098 0.950 . S
C1096 C1095 1.387 . S
C1096 C1099 1.387 . S
H1097 C1093 0.950 1_565 S
H1098 C1095 0.950 . S
C1099 C1090 1.390 . S
C1099 H1092 0.950 . S
C1099 C1096 1.387 . S
C1100 C1101 1.387 . S
C1100 H1104 0.950 . S
C1100 C1109 1.390 . S
C1101 C1100 1.387 . S
C1101 C1103 1.387 . S
H1102 C1109 0.950 . S
C1103 C1101 1.387 . S
C1103 C1105 1.390 . S
C1103 H1107 0.950 . S
H1104 C1100 0.950 . S
C1105 C1103 1.390 . S
C1105 C1106 1.387 . S
C1105 H1108 0.950 . S
C1106 C1105 1.387 . S
C1106 C1109 1.387 . S
H1107 C1103 0.950 . S
H1108 C1105 0.950 . S
C1109 C1100 1.390 . S
C1109 H1102 0.950 . S
C1109 C1106 1.387 . S
C1110 C1111 1.387 . S
C1110 H1114 0.950 . S
C1110 C1119 1.390 . S
C1111 C1110 1.387 . S
C1111 C1113 1.387 . S
H1112 C1119 0.950 . S
C1113 C1111 1.387 . S
C1113 C1115 1.390 . S
C1113 H1117 0.950 . S
H1114 C1110 0.950 . S
C1115 C1113 1.390 . S
C1115 C1116 1.387 . S
C1115 H1118 0.950 1_565 S
C1116 C1115 1.387 . S
C1116 C1119 1.387 . S
H1117 C1113 0.950 . S
H1118 C1115 0.950 1_545 S
C1119 C1110 1.390 . S
C1119 H1112 0.950 . S
C1119 C1116 1.387 . S
C641 C25 1.060 . S
C646 C484 1.060 . S
C651 C204 1.058 . S
C656 C65 1.058 . S
C661 C105 1.056 . S
C666 C564 1.056 . S
C671 C145 1.058 1_554 S
C676 C284 1.058 1_556 S
C681 C164 1.059 . S
C686 C345 1.059 . S
C691 C425 1.055 . S
C696 C244 1.055 . S
C701 C524 1.057 1_556 S
C706 C385 1.057 1_554 S
C711 C465 1.059 . S
C716 C604 1.059 . S
C721 C362 2.417 . S
C726 C4 2.401 1_556 S
C731 C44 2.398 . S
C736 C402 2.414 . S
C741 C84 2.399 . S
C746 C442 2.414 . S
C751 C322 2.416 . S
C756 C124 2.401 . S
C761 C543 2.414 . S
C766 C185 2.399 1_554 S
C771 C583 2.416 . S
C776 C225 2.401 . S
C781 C265 2.401 . S
C786 C623 2.416 . S
C791 C503 2.414 . S
C796 C305 2.398 . S
C801 C324 2.398 . S
C806 C42 2.414 . S
C811 C364 2.398 . S
C816 C82 2.414 . S
C821 C404 2.399 1_556 S
C826 C122 2.414 . S
C831 C2 2.414 . S
C836 C444 2.398 . S
C841 C223 2.416 . S
C846 C505 2.400 . S
C851 C545 2.401 . S
C856 C263 2.416 . S
C861 C303 2.414 . S
C866 C585 2.398 1_554 S
C871 C625 2.398 . S
C876 C183 2.413 . S
C881 C31 2.910 . S
C886 C431 2.910 . S
C891 C71 2.910 . S
C896 C471 2.910 . S
C901 C351 2.909 . S
C906 C111 2.909 . S
C911 C151 2.910 . S
C916 C391 2.910 . S
C921 C180 2.910 . S
C926 C580 2.910 . S
C931 C220 2.909 . S
C936 C620 2.909 . S
C941 C500 2.910 . S
C946 C260 2.910 . S
C951 C300 2.909 . S
C956 C540 2.909 . S
C961 C23 1.845 . S
C966 C311 2.185 . S
C971 C511 2.183 . S
C976 C63 1.843 . S
C981 C103 1.844 . S
C986 C231 2.184 . S
C991 C143 1.847 1_455 S
C996 C591 2.185 . S
C1001 C162 1.843 . S
C1006 C140 2.184 . S
C1011 C340 2.183 . S
C1016 C202 1.843 . S
C1021 C242 1.846 . S
C1026 C60 2.185 . S
C1031 C420 2.185 . S
C1036 C282 1.846 1_655 S
C1041 C343 1.844 . S
C1046 C631 2.184 . S
C1051 C191 2.184 . S
C1056 C383 1.844 1_655 S
C1061 C551 2.183 . S
C1066 C423 1.842 . S
C1071 C463 1.845 . S
C1076 C271 2.184 . S
C1081 C482 1.843 . S
C1086 C460 2.183 . S
C1091 C522 1.842 1_455 S
C1096 C20 2.183 . S
C1101 C380 2.184 . S
C1106 C562 1.844 . S
C1111 C100 2.184 . S
C1116 C602 1.843 . S
