# Generated by pormake.
# Topology sod, (4)-cn, num edge types: 1
# Building blocks:
#     Node 0, Type 0, BuildingBlock: QUQFOY_clean_sbu_1, # of connection points: 4
#     Node 1, Type 0, BuildingBlock: QUQFOY_clean_sbu_1, # of connection points: 4
#     Node 2, Type 0, BuildingBlock: QUQFOY_clean_sbu_1, # of connection points: 4
#     Node 3, Type 0, BuildingBlock: QUQFOY_clean_sbu_1, # of connection points: 4
#     Node 4, Type 0, BuildingBlock: QUQFOY_clean_sbu_1, # of connection points: 4
#     Node 5, Type 0, BuildingBlock: QUQFOY_clean_sbu_1, # of connection points: 4
#     Node 6, Type 0, BuildingBlock: QUQFOY_clean_sbu_1, # of connection points: 4
#     Node 7, Type 0, BuildingBlock: QUQFOY_clean_sbu_1, # of connection points: 4
#     Node 8, Type 0, BuildingBlock: QUQFOY_clean_sbu_1, # of connection points: 4
#     Node 9, Type 0, BuildingBlock: QUQFOY_clean_sbu_1, # of connection points: 4
#     Node 10, Type 0, BuildingBlock: QUQFOY_clean_sbu_1, # of connection points: 4
#     Node 11, Type 0, BuildingBlock: QUQFOY_clean_sbu_1, # of connection points: 4
#     Edge 12, Type (0, 0), BuildingBlock: XIVTED_clean_linker_0, # of connection points: 2
#     Edge 13, Type (0, 0), BuildingBlock: XIVTED_clean_linker_0, # of connection points: 2
#     Edge 14, Type (0, 0), BuildingBlock: XIVTED_clean_linker_0, # of connection points: 2
#     Edge 15, Type (0, 0), BuildingBlock: XIVTED_clean_linker_0, # of connection points: 2
#     Edge 16, Type (0, 0), BuildingBlock: XIVTED_clean_linker_0, # of connection points: 2
#     Edge 17, Type (0, 0), BuildingBlock: XIVTED_clean_linker_0, # of connection points: 2
#     Edge 18, Type (0, 0), BuildingBlock: XIVTED_clean_linker_0, # of connection points: 2
#     Edge 19, Type (0, 0), BuildingBlock: XIVTED_clean_linker_0, # of connection points: 2
#     Edge 20, Type (0, 0), BuildingBlock: XIVTED_clean_linker_0, # of connection points: 2
#     Edge 21, Type (0, 0), BuildingBlock: XIVTED_clean_linker_0, # of connection points: 2
#     Edge 22, Type (0, 0), BuildingBlock: XIVTED_clean_linker_0, # of connection points: 2
#     Edge 23, Type (0, 0), BuildingBlock: XIVTED_clean_linker_0, # of connection points: 2
#     Edge 24, Type (0, 0), BuildingBlock: XIVTED_clean_linker_0, # of connection points: 2
#     Edge 25, Type (0, 0), BuildingBlock: XIVTED_clean_linker_0, # of connection points: 2
#     Edge 26, Type (0, 0), BuildingBlock: XIVTED_clean_linker_0, # of connection points: 2
#     Edge 27, Type (0, 0), BuildingBlock: XIVTED_clean_linker_0, # of connection points: 2
#     Edge 28, Type (0, 0), BuildingBlock: XIVTED_clean_linker_0, # of connection points: 2
#     Edge 29, Type (0, 0), BuildingBlock: XIVTED_clean_linker_0, # of connection points: 2
#     Edge 30, Type (0, 0), BuildingBlock: XIVTED_clean_linker_0, # of connection points: 2
#     Edge 31, Type (0, 0), BuildingBlock: XIVTED_clean_linker_0, # of connection points: 2
#     Edge 32, Type (0, 0), BuildingBlock: XIVTED_clean_linker_0, # of connection points: 2
#     Edge 33, Type (0, 0), BuildingBlock: XIVTED_clean_linker_0, # of connection points: 2
#     Edge 34, Type (0, 0), BuildingBlock: XIVTED_clean_linker_0, # of connection points: 2
#     Edge 35, Type (0, 0), BuildingBlock: XIVTED_clean_linker_0, # of connection points: 2
# Relax obj value: 0.195
# Max RMSD: 0.259
# Mean RMSD: 0.229
data_MOF--net-sod--node1-QUQFOY_clean_sbu_1--edge1-XIVTED_clean_linker_0
_symmetry_space_group_name_H-M    P1
_symmetry_Int_Tables_number       1
_symmetry_cell_setting            triclinic
loop_
_symmetry_equiv_pos_as_xyz
'x, y, z'
_cell_length_a     44.64757
_cell_length_b     44.582402
_cell_length_c     44.4963
_cell_angle_alpha  93.591755
_cell_angle_beta   89.405933
_cell_angle_gamma 97.381987
loop_
_atom_site_label
_atom_site_type_symbol
_atom_site_fract_x
_atom_site_fract_y
_atom_site_fract_z
_atom_type_partial_charge
O0 O 0.03071 0.2312 0.49137 0.0
Cd1 Cd 0.06583 0.26508 0.48514 0.0
Cd2 Cd 0.03425 0.29749 0.52716 0.0
O3 O 0.01271 0.25428 0.53163 0.0
O4 O 0.10084 0.2453 0.47023 0.0
O5 O 0.09971 0.27037 0.51483 0.0
C6 C 0.11384 0.2543 0.49556 0.0
C7 C 0.03419 0.3299 0.57068 0.0
C8 C 0.01279 0.23098 0.51373 0.0
C9 C 0.04193 0.31774 0.46267 0.0
O10 O 0.0291 0.31943 0.48825 0.0
O11 O 0.05976 0.29821 0.45677 0.0
O12 O 0.0101 0.32115 0.55531 0.0
O13 O 0.05881 0.31981 0.56168 0.0
O14 O 0.75083 0.0541 0.57579 0.0
Cd15 Cd 0.77552 0.04942 0.53654 0.0
Cd16 Cd 0.80646 0.01625 0.57352 0.0
O17 O 0.77156 0.02223 0.6025 0.0
O18 O 0.75216 0.06777 0.50631 0.0
O19 O 0.75811 0.01919 0.50377 0.0
C20 C 0.74676 0.04132 0.49264 0.0
C21 C 0.81878 0.96753 0.5645 0.0
C22 C 0.75175 0.03981 0.59953 0.0
C23 C 0.84154 0.07046 0.54852 0.0
O24 O 0.84086 0.05114 0.56839 0.0
O25 O 0.81847 0.07198 0.53252 0.0
O26 O 0.82564 0.98292 0.58952 0.0
O27 O 0.80437 0.97979 0.54445 0.0
O28 O 0.03966 0.8425 0.51639 0.0
Cd29 Cd 0.00557 0.80715 0.51205 0.0
Cd30 Cd 0.04167 0.7803 0.55046 0.0
O31 O 0.06485 0.82362 0.55159 0.0
O32 O 0.97129 0.82436 0.49476 0.0
O33 O 0.97025 0.80676 0.54029 0.0
C34 C 0.95708 0.81953 0.51971 0.0
C35 C 0.03804 0.75596 0.59549 0.0
C36 C 0.06121 0.84514 0.53512 0.0
C37 C 0.02892 0.75096 0.48783 0.0
O38 O 0.04298 0.75107 0.51253 0.0
O39 O 0.01211 0.7711 0.48341 0.0
O40 O 0.06314 0.76035 0.58095 0.0
O41 O 0.01478 0.76613 0.58478 0.0
O42 O 0.23176 0.03763 0.56561 0.0
Cd43 Cd 0.2671 0.07241 0.5654 0.0
Cd44 Cd 0.29187 0.03216 0.52814 0.0
O45 O 0.24773 0.01261 0.52555 0.0
O46 O 0.25011 0.1099 0.57901 0.0
O47 O 0.26805 0.10169 0.53298 0.0
C48 C 0.25524 0.11894 0.55224 0.0
C49 C 0.32126 0.02979 0.48469 0.0
C50 C 0.2274 0.01651 0.54501 0.0
C51 C 0.31967 0.0485 0.58921 0.0
O52 O 0.31605 0.02927 0.56687 0.0
O53 O 0.30396 0.07028 0.59176 0.0
O54 O 0.31273 0.00613 0.49925 0.0
O55 O 0.31218 0.05506 0.49425 0.0
O56 O 0.51588 0.00228 0.23945 0.0
Cd57 Cd 0.51212 0.03902 0.26933 0.0
Cd58 Cd 0.54218 0.00202 0.30681 0.0
O59 O 0.54284 0.97612 0.26694 0.0
O60 O 0.4935 0.0671 0.24449 0.0
O61 O 0.5392 0.07822 0.26399 0.0
C62 C 0.5177 0.08599 0.24815 0.0
C63 C 0.58633 0.00906 0.33528 0.0
C64 C 0.53007 0.97967 0.24229 0.0
C65 C 0.48158 0.01889 0.32701 0.0
O66 O 0.50249 0.00272 0.33095 0.0
O67 O 0.48226 0.03536 0.30471 0.0
O68 O 0.56904 0.98355 0.33366 0.0
O69 O 0.57866 0.03082 0.32034 0.0
O70 O 0.01141 0.55979 0.33025 0.0
Cd71 Cd 0.00367 0.5219 0.30068 0.0
Cd72 Cd 0.03481 0.56201 0.26329 0.0
O73 O 0.03885 0.59071 0.30092 0.0
O74 O 0.98582 0.49066 0.32764 0.0
O75 O 0.02947 0.48834 0.30427 0.0
C76 C 0.00918 0.47689 0.32265 0.0
C77 C 0.07771 0.5576 0.23433 0.0
C78 C 0.02674 0.58527 0.32622 0.0
C79 C 0.97173 0.53709 0.24566 0.0
O80 O 0.99442 0.55647 0.24107 0.0
O81 O 0.97149 0.51979 0.26729 0.0
O82 O 0.06386 0.58122 0.23414 0.0
O83 O 0.06724 0.53625 0.25141 0.0
O84 O 0.49597 0.04238 0.83079 0.0
Cd85 Cd 0.49637 0.00641 0.79938 0.0
Cd86 Cd 0.53598 0.04594 0.77229 0.0
O87 O 0.53745 0.06826 0.81402 0.0
O88 O 0.47852 0.97081 0.82073 0.0
O89 O 0.52592 0.97683 0.80464 0.0
C90 C 0.5045 0.96112 0.81878 0.0
C91 C 0.58126 0.04518 0.74617 0.0
C92 C 0.51692 0.06446 0.83382 0.0
C93 C 0.47568 0.02722 0.74293 0.0
O94 O 0.49882 0.04696 0.74542 0.0
O95 O 0.4715 0.00614 0.76096 0.0
O96 O 0.56843 0.06943 0.74968 0.0
O97 O 0.5686 0.02111 0.75823 0.0
O98 O 0.01296 0.50979 0.73499 0.0
Cd99 Cd 0.00784 0.54757 0.76223 0.0
Cd100 Cd 0.04436 0.51758 0.80248 0.0
O101 O 0.04177 0.48775 0.76462 0.0
O102 O 0.99049 0.57487 0.73543 0.0
O103 O 0.0352 0.58646 0.7571 0.0
C104 C 0.01467 0.59374 0.73967 0.0
C105 C 0.08921 0.52035 0.82981 0.0
C106 C 0.02795 0.48825 0.73986 0.0
C107 C 0.98245 0.53404 0.82306 0.0
O108 O 0.00687 0.52379 0.829 0.0
O109 O 0.97805 0.54365 0.79745 0.0
O110 O 0.06902 0.497 0.8298 0.0
O111 O 0.08411 0.54246 0.81397 0.0
O112 O 0.34135 0.54566 0.06681 0.0
Cd113 Cd 0.30712 0.51079 0.07246 0.0
Cd114 Cd 0.27721 0.54211 0.03082 0.0
O115 O 0.32067 0.56382 0.02811 0.0
O116 O 0.32616 0.47892 0.09143 0.0
O117 O 0.30659 0.47294 0.04555 0.0
C118 C 0.32051 0.46215 0.06697 0.0
C119 C 0.24966 0.53683 0.986 0.0
C120 C 0.34293 0.56354 0.04558 0.0
C121 C 0.25103 0.53497 0.09381 0.0
O122 O 0.25108 0.54761 0.06898 0.0
O123 O 0.27086 0.51805 0.09918 0.0
O124 O 0.25602 0.5627 0.00053 0.0
O125 O 0.25936 0.51361 -0.00328 0.0
O126 O 0.5367 0.32192 0.01833 0.0
Cd127 Cd 0.50044 0.28817 0.02078 0.0
Cd128 Cd 0.54175 0.26233 0.05367 0.0
O129 O 0.56817 0.30227 0.04711 0.0
O130 O 0.46651 0.30631 0.00381 0.0
O131 O 0.46802 0.29461 0.05132 0.0
C132 C 0.45428 0.30591 0.03014 0.0
C133 C 0.53918 0.24347 0.10126 0.0
C134 C 0.56212 0.32339 0.03127 0.0
C135 C 0.5179 0.22787 -0.00248 0.0
O136 O 0.53727 0.23029 0.01847 0.0
O137 O 0.50019 0.24776 0.99539 0.0
O138 O 0.56322 0.24362 0.08498 0.0
O139 O 0.51658 0.25498 0.09079 0.0
O140 O 0.72731 0.5171 0.04913 0.0
Cd141 Cd 0.76142 0.55248 0.05788 0.0
Cd142 Cd 0.7954 0.51557 0.02579 0.0
O143 O 0.75441 0.48991 0.01915 0.0
O144 O 0.74081 0.58731 0.07295 0.0
O145 O 0.76626 0.58648 0.02997 0.0
C146 C 0.74997 0.60049 0.04895 0.0
C147 C 0.82614 0.52413 0.9841 0.0
C148 C 0.72941 0.49385 0.0316 0.0
C149 C 0.813 0.53081 0.08963 0.0
O150 O 0.81662 0.51384 0.06624 0.0
O151 O 0.79326 0.54897 0.09023 0.0
O152 O 0.82125 0.49776 0.9948 0.0
O153 O 0.81345 0.546 -0.00296 0.0
O154 O 0.53349 0.72428 0.9943 0.0
Cd155 Cd 0.56898 0.7577 0.98747 0.0
Cd156 Cd 0.53675 0.79093 0.0276 0.0
O157 O 0.51525 0.74815 0.03395 0.0
O158 O 0.60307 0.73681 0.97194 0.0
O159 O 0.60349 0.76213 0.01649 0.0
C160 C 0.61671 0.74548 -0.00299 0.0
C161 C 0.53843 0.82523 0.06974 0.0
C162 C 0.51543 0.7245 0.01654 0.0
C163 C 0.54428 0.80877 0.96262 0.0
O164 O 0.53063 0.8107 0.98772 0.0
O165 O 0.56326 0.79011 0.95808 0.0
O166 O 0.51378 0.81627 0.05531 0.0
O167 O 0.56255 0.81424 0.06061 0.0
H168 H -0.00302 0.35372 0.4632 0.0
H169 H 0.05705 0.44352 0.3208 0.0
H170 H 0.07301 0.32991 0.41025 0.0
H171 H 0.97 0.44906 0.36247 0.0
H172 H 0.06424 0.40212 0.35282 0.0
H173 H 0.98783 0.38963 0.42645 0.0
C174 C 0.01176 0.35602 0.44379 0.0
C175 C 0.03588 0.33887 0.43986 0.0
C176 C 0.04347 0.41227 0.35466 0.0
C177 C 0.02556 0.38014 0.39759 0.0
C178 C 0.03936 0.43585 0.33642 0.0
C179 C 0.013 0.44992 0.33916 0.0
C180 C 0.02117 0.40301 0.37586 0.0
C181 C 0.99078 0.43908 0.35972 0.0
C182 C 0.00644 0.37646 0.42271 0.0
C183 C 0.05416 0.34269 0.41414 0.0
N184 N -0.00451 0.41649 0.37741 0.0
N185 N 0.04876 0.36314 0.39404 0.0
H186 H 0.72548 0.0845 0.46086 0.0
H187 H 0.61138 0.96566 0.36337 0.0
H188 H 0.72303 0.98759 0.46349 0.0
H189 H 0.62284 0.06182 0.35146 0.0
H190 H 0.65365 0.9731 0.39848 0.0
H191 H 0.68955 0.0766 0.41931 0.0
C192 C 0.71753 0.06152 0.45255 0.0
C193 C 0.72708 0.03663 0.46582 0.0
C194 C 0.64711 0.99256 0.38803 0.0
C195 C 0.68574 0.02745 0.41831 0.0
C196 C 0.62292 0.98836 0.368 0.0
C197 C 0.61341 0.01321 0.35464 0.0
C198 C 0.6618 0.02189 0.39502 0.0
C199 C 0.62936 0.04203 0.36133 0.0
C200 C 0.69704 0.05705 0.42877 0.0
C201 C 0.71618 0.00742 0.45398 0.0
N202 N 0.6526 0.04563 0.38128 0.0
N203 N 0.69587 0.00362 0.43108 0.0
H204 H 0.01832 0.57889 0.38667 0.0
H205 H 0.0209 0.754 0.42765 0.0
H206 H 0.04203 0.64599 0.32165 0.0
H207 H 0.04286 0.6936 0.49389 0.0
H208 H 0.02299 0.71345 0.38843 0.0
H209 H 0.02178 0.61955 0.42674 0.0
C210 C 0.0243 0.60213 0.38086 0.0
C211 C 0.0298 0.60914 0.35083 0.0
C212 C 0.02756 0.70916 0.41153 0.0
C213 C 0.03347 0.65544 0.39627 0.0
C214 C 0.02623 0.73219 0.4339 0.0
C215 C 0.03167 0.72704 0.464 0.0
C216 C 0.03373 0.68061 0.4194 0.0
C217 C 0.03864 0.69845 0.47089 0.0
C218 C 0.02643 0.62522 0.40369 0.0
C219 C 0.03765 0.63959 0.34451 0.0
N220 N 0.03913 0.67609 0.44874 0.0
N221 N 0.03893 0.66167 0.36702 0.0
H222 H 0.34141 0.07391 0.4461 0.0
H223 H 0.46617 0.97985 0.3714 0.0
H224 H 0.34936 0.98147 0.46513 0.0
H225 H 0.44004 0.05902 0.33266 0.0
H226 H 0.42539 0.98191 0.40822 0.0
H227 H 0.37931 0.07068 0.40611 0.0
C228 C 0.35095 0.05291 0.44174 0.0
C229 C 0.34228 0.02796 0.459 0.0
C230 C 0.4285 -0.00126 0.39155 0.0
C231 C 0.38573 0.02424 0.41373 0.0
C232 C 0.45184 -0.00237 0.3706 0.0
C233 C 0.45653 0.01928 0.34893 0.0
C234 C 0.40995 0.02189 0.39109 0.0
C235 C 0.43718 0.04178 0.34892 0.0
C236 C 0.37253 0.05107 0.41894 0.0
C237 C 0.35536 0.00129 0.45241 0.0
N238 N 0.41485 0.04263 0.36981 0.0
N239 N 0.37658 0.00022 0.43048 0.0
H240 H 0.06435 0.63705 0.74 0.0
H241 H 0.08422 0.73734 0.62611 0.0
H242 H 0.97431 0.61549 0.70374 0.0
H243 H 0.9871 0.7329 0.62558 0.0
H244 H 0.08039 0.70201 0.66578 0.0
H245 H 0.07167 0.68191 0.71059 0.0
C246 C 0.04615 0.64175 0.72583 0.0
C247 C 0.01889 0.62222 0.72393 0.0
C248 C 0.05989 0.70931 0.65775 0.0
C249 C 0.02731 0.67305 0.68953 0.0
C250 C 0.06206 0.72937 0.63479 0.0
C251 C 0.03591 0.73796 0.62238 0.0
C252 C 0.03128 0.69765 0.66839 0.0
C253 C 0.00783 0.72686 0.63448 0.0
C254 C 0.05042 0.66724 0.70877 0.0
C255 C -0.00412 0.62967 0.70558 0.0
N256 N 0.00625 0.70692 0.65653 0.0
N257 N 0.00068 0.65437 0.68899 0.0
H258 H 0.43324 0.98243 0.71944 0.0
H259 H 0.34674 0.09255 0.62903 0.0
H260 H 0.46648 0.07724 0.71381 0.0
H261 H 0.34428 -0.00234 0.60148 0.0
H262 H 0.38526 0.08714 0.66639 0.0
H263 H 0.3949 0.98737 0.68166 0.0
C264 C 0.43246 0.00425 0.71024 0.0
C265 C 0.45303 0.02947 0.71966 0.0
C266 C 0.37625 0.06757 0.6521 0.0
C267 C 0.40921 0.03529 0.67704 0.0
C268 C 0.35422 0.07058 0.63094 0.0
C269 C 0.34242 0.04552 0.61215 0.0
C270 C 0.38605 0.0392 0.6548 0.0
C271 C 0.35295 0.01758 0.61545 0.0
C272 C 0.41071 0.007 0.68869 0.0
C273 C 0.45114 0.05721 0.70701 0.0
N274 N 0.37409 0.0151 0.63655 0.0
N275 N 0.4294 0.05945 0.68649 0.0
H276 H 0.98721 0.35976 0.58898 0.0
H277 H 0.06745 0.44567 0.73508 0.0
H278 H 0.07884 0.34966 0.61236 0.0
H279 H 0.99158 0.47478 0.69071 0.0
H280 H 0.06942 0.40576 0.69475 0.0
H281 H 0.98574 0.39704 0.63106 0.0
C282 C 0.00704 0.36528 0.60306 0.0
C283 C 0.03327 0.35164 0.59704 0.0
C284 C 0.0524 0.42095 0.69395 0.0
C285 C 0.03165 0.39448 0.64546 0.0
C286 C 0.05116 0.44361 0.71697 0.0
C287 C 0.02933 0.46362 0.71623 0.0
C288 C 0.03138 0.41807 0.67037 0.0
C289 C 0.00887 0.45999 0.69217 0.0
C290 C 0.00619 0.3867 0.62704 0.0
C291 C 0.05823 0.35975 0.61614 0.0
N292 N 0.01034 0.43762 0.67031 0.0
N293 N 0.05681 0.38068 0.63959 0.0
H294 H 0.61675 -0.00052 0.73658 0.0
H295 H 0.71218 0.08182 0.60621 0.0
H296 H 0.60828 0.09056 0.71319 0.0
H297 H 0.73879 0.00385 0.64682 0.0
H298 H 0.6725 0.08414 0.64413 0.0
H299 H 0.66043 -0.00072 0.70273 0.0
C300 C 0.62418 0.01946 0.7245 0.0
C301 C 0.60881 0.04501 0.7276 0.0
C302 C 0.68716 0.06665 0.64487 0.0
C303 C 0.65837 0.04484 0.6888 0.0
C304 C 0.70977 0.06527 0.62318 0.0
C305 C 0.72877 0.04257 0.62331 0.0
C306 C 0.68327 0.04494 0.66662 0.0
C307 C 0.72467 0.02177 0.64591 0.0
C308 C 0.6491 0.01936 0.70525 0.0
C309 C 0.6194 0.07033 0.71146 0.0
N310 N 0.70218 0.0233 0.66652 0.0
N311 N 0.64336 0.0695 0.69259 0.0
H312 H 0.41632 0.32356 0.98896 0.0
H313 H 0.34377 0.43081 0.11 0.0
H314 H 0.42991 0.32191 0.0847 0.0
H315 H 0.32325 0.42603 0.0151 0.0
H316 H 0.36936 0.38582 0.10204 0.0
H317 H 0.37636 0.3554 -0.00127 0.0
C318 C 0.41058 0.32955 0.01209 0.0
C319 C 0.42678 0.32051 0.03607 0.0
C320 C 0.35891 0.39431 0.083 0.0
C321 C 0.38128 0.35728 0.04741 0.0
C322 C 0.34432 0.42005 0.08751 0.0
C323 C 0.3318 0.43246 0.06307 0.0
C324 C 0.36133 0.38107 0.05376 0.0
C325 C 0.33285 0.41737 0.03453 0.0
C326 C 0.38773 0.34773 0.01765 0.0
C327 C 0.41815 0.32861 0.06555 0.0
N328 N 0.34781 0.39272 0.03058 0.0
N329 N 0.3963 0.34697 0.07039 0.0
H330 H 0.36267 0.58867 0.99354 0.0
H331 H 0.4878 0.70907 0.06935 0.0
H332 H 0.38645 0.5858 0.087 0.0
H333 H 0.49287 0.67918 0.9755 0.0
H334 H 0.44818 0.66684 0.07672 0.0
H335 H 0.40774 0.62497 0.98652 0.0
C336 C 0.37743 0.59566 0.01257 0.0
C337 C 0.37079 0.58438 0.04095 0.0
C338 C 0.45823 0.66937 0.05461 0.0
C339 C 0.42209 0.62601 0.03309 0.0
C340 C 0.48069 0.69349 0.05035 0.0
C341 C 0.49347 0.69766 0.02173 0.0
C342 C 0.44802 0.64974 0.02994 0.0
C343 C 0.48361 0.67673 -0.00208 0.0
C344 C 0.40321 0.61618 0.00848 0.0
C345 C 0.3908 0.59396 0.06476 0.0
N346 N 0.4611 0.65388 0.00246 0.0
N347 N 0.4154 0.6146 0.06041 0.0
H348 H 0.55406 0.38211 0.02201 0.0
H349 H 0.72994 0.43656 0.00675 0.0
H350 H 0.62285 0.32383 0.03237 0.0
H351 H 0.66969 0.49684 0.04587 0.0
H352 H 0.68792 0.39586 0.00303 0.0
H353 H 0.59396 0.42542 0.01864 0.0
C354 C 0.57751 0.37844 0.0233 0.0
C355 C 0.5853 0.34951 0.02768 0.0
C356 C 0.6839 0.41807 0.01223 0.0
C357 C 0.63051 0.39834 0.02332 0.0
C358 C 0.70781 0.44136 0.01429 0.0
C359 C 0.70337 0.47008 0.02697 0.0
C360 C 0.65524 0.42355 0.02254 0.0
C361 C 0.67412 0.47493 0.03626 0.0
C362 C 0.60013 0.40306 0.02151 0.0
C363 C 0.61593 0.34584 0.0293 0.0
N364 N 0.65105 0.4518 0.03391 0.0
N365 N 0.63743 0.36996 0.02698 0.0
H366 H 0.72562 0.64001 0.0884 0.0
H367 H 0.65461 0.71915 0.95804 0.0
H368 H 0.75097 0.62722 0.99508 0.0
H369 H 0.64314 0.74475 0.05218 0.0
H370 H 0.69551 0.69102 0.97114 0.0
H371 H 0.70111 0.6835 0.07614 0.0
C372 C 0.7264 0.64664 0.06537 0.0
C373 C 0.73988 0.62968 0.04261 0.0
C374 C 0.68446 0.70323 0.98892 0.0
C375 C 0.71151 0.67924 0.02833 0.0
C376 C 0.66107 0.71928 0.98145 0.0
C377 C 0.64513 0.73385 0.00413 0.0
C378 C 0.69161 0.7013 0.01933 0.0
C379 C 0.65467 0.73359 0.03402 0.0
C380 C 0.71245 0.67155 0.05839 0.0
C381 C 0.74058 0.63952 0.01326 0.0
N382 N 0.67693 0.71703 0.04083 0.0
N383 N 0.72606 0.66334 0.00684 0.0
H384 H 0.49518 0.83859 0.95844 0.0
H385 H 0.55719 0.93562 0.82253 0.0
H386 H 0.57791 0.82329 0.91227 0.0
H387 H 0.464 0.92549 0.85145 0.0
H388 H 0.5664 0.89513 0.85485 0.0
H389 H 0.48458 0.87196 0.91975 0.0
C390 C 0.51113 0.84225 0.94011 0.0
C391 C 0.53755 0.82828 0.93864 0.0
C392 C 0.54388 0.90157 0.85374 0.0
C393 C 0.52557 0.86662 0.89422 0.0
C394 C 0.53861 0.92463 0.83532 0.0
C395 C 0.50987 0.93416 0.83456 0.0
C396 C 0.52031 0.88834 0.87166 0.0
C397 C 0.48659 0.91912 0.85152 0.0
C398 C 0.50497 0.86117 0.91791 0.0
C399 C 0.55727 0.83366 0.91422 0.0
N400 N 0.49242 0.89723 0.86962 0.0
N401 N 0.55105 0.8527 0.89306 0.0
H402 H 0.23318 0.5825 0.95429 0.0
H403 H 0.10961 0.4742 0.85772 0.0
H404 H 0.22241 0.485 0.95593 0.0
H405 H 0.13108 0.56966 0.84452 0.0
H406 H 0.15227 0.47742 0.89204 0.0
H407 H 0.19759 0.57809 0.91253 0.0
C408 C 0.2235 0.56011 0.94569 0.0
C409 C 0.23057 0.53406 0.95879 0.0
C410 C 0.14787 0.49763 0.88146 0.0
C411 C 0.18958 0.52889 0.91106 0.0
C412 C 0.12345 0.49584 0.86189 0.0
C413 C 0.11662 0.52179 0.84843 0.0
C414 C 0.16547 0.52565 0.88795 0.0
C415 C 0.13548 0.54913 0.85449 0.0
C416 C 0.20321 0.55763 0.92179 0.0
C417 C 0.21752 0.50568 0.94657 0.0
N418 N 0.15887 0.55042 0.87407 0.0
N419 N 0.19739 0.50386 0.9236 0.0
H420 H 0.56542 0.1004 0.8586 0.0
H421 H 0.47067 0.2046 0.96081 0.0
H422 H 0.46891 0.07848 0.86813 0.0
H423 H 0.56206 0.19251 0.98312 0.0
H424 H 0.46979 0.16247 0.92251 0.0
H425 H 0.56512 0.13869 0.9004 0.0
C426 C 0.54419 0.10362 0.86958 0.0
C427 C 0.51713 0.08636 0.85997 0.0
C428 C 0.4899 0.169 0.936 0.0
C429 C 0.51662 0.13024 0.90729 0.0
C430 C 0.4905 0.19306 0.95766 0.0
C431 C 0.51651 0.20204 0.97505 0.0
C432 C 0.51571 0.15436 0.93134 0.0
C433 C 0.54153 0.18625 0.97023 0.0
C434 C 0.54407 0.12533 0.89345 0.0
C435 C 0.49026 0.09129 0.875 0.0
N436 N 0.54064 0.16336 0.94856 0.0
N437 N 0.4906 0.11311 0.89777 0.0
H438 H 0.98993 0.54629 0.88353 0.0
H439 H 0.82753 0.48762 0.93324 0.0
H440 H 0.92148 0.524 0.81518 0.0
H441 H 0.8712 0.5706 0.97691 0.0
H442 H 0.86481 0.4928 0.89229 0.0
H443 H 0.94993 0.54762 0.92186 0.0
C444 C 0.9665 0.54161 0.87667 0.0
C445 C 0.95884 0.53495 0.84629 0.0
C446 C 0.86595 0.50999 0.91071 0.0
C447 C 0.91351 0.53596 0.88968 0.0
C448 C 0.84485 0.50705 0.93397 0.0
C449 C 0.8464 0.52883 0.95818 0.0
C450 C 0.88929 0.53424 0.91238 0.0
C451 C 0.86924 0.55355 0.95836 0.0
C452 C 0.94384 0.54263 0.89841 0.0
C453 C 0.92821 0.52928 0.83841 0.0
N454 N 0.89028 0.55533 0.936 0.0
N455 N 0.90656 0.52941 0.86009 0.0
H456 H 0.47273 0.11337 0.22507 0.0
H457 H 0.58496 0.22509 0.13275 0.0
H458 H 0.56933 0.12444 0.23758 0.0
H459 H 0.48844 0.22624 0.13427 0.0
H460 H 0.58011 0.19213 0.17476 0.0
H461 H 0.4781 0.15793 0.19548 0.0
C462 C 0.4951 0.12538 0.2218 0.0
C463 C 0.5207 0.11497 0.23343 0.0
C464 C 0.56003 0.19996 0.16625 0.0
C465 C 0.52703 0.16593 0.19931 0.0
C466 C 0.56277 0.21876 0.14223 0.0
C467 C 0.53699 0.22805 0.12974 0.0
C468 C 0.53125 0.19002 0.17759 0.0
C469 C 0.50888 0.21942 0.14309 0.0
C470 C 0.49813 0.15092 0.20498 0.0
C471 C 0.54904 0.13161 0.22884 0.0
N472 N 0.50669 0.20047 0.16599 0.0
N473 N 0.55151 0.15604 0.21171 0.0
H474 H 0.93193 0.48691 0.22929 0.0
H475 H 0.82724 0.57595 0.13325 0.0
H476 H 0.95202 0.58258 0.21663 0.0
H477 H 0.8439 0.48503 0.1054 0.0
H478 H 0.86347 0.57662 0.17429 0.0
H479 H 0.88994 0.48406 0.19338 0.0
C480 C 0.92728 0.5073 0.21919 0.0
C481 C 0.94547 0.53498 0.22563 0.0
C482 C 0.85893 0.55648 0.15929 0.0
C483 C 0.89761 0.53197 0.18545 0.0
C484 C 0.83824 0.556 0.136 0.0
C485 C 0.83285 0.53049 0.1158 0.0
C486 C 0.87379 0.53105 0.1627 0.0
C487 C 0.84773 0.50527 0.12034 0.0
C488 C 0.90353 0.50563 0.19873 0.0
C489 C 0.93867 0.56077 0.21197 0.0
N490 N 0.86758 0.50614 0.14342 0.0
N491 N 0.91516 0.55868 0.19259 0.0
H492 H 0.58288 0.84235 0.1121 0.0
H493 H 0.49672 0.97294 0.19055 0.0
H494 H 0.49434 0.85993 0.08563 0.0
H495 H 0.56757 0.93557 0.2353 0.0
H496 H 0.49972 0.93566 0.1484 0.0
H497 H 0.5817 0.88045 0.15435 0.0
C498 C 0.56326 0.85422 0.11515 0.0
C499 C 0.53864 0.84792 0.09541 0.0
C500 C 0.51459 0.9356 0.16747 0.0
C501 C 0.53727 0.89149 0.14324 0.0
C502 C 0.51295 0.95693 0.1915 0.0
C503 C 0.53182 0.95729 0.21656 0.0
C504 C 0.53549 0.91467 0.16828 0.0
C505 C 0.55244 0.93597 0.21652 0.0
C506 C 0.56256 0.87584 0.13925 0.0
C507 C 0.51376 0.86393 0.10037 0.0
N508 N 0.55381 0.91555 0.19269 0.0
N509 N 0.51378 0.88503 0.12368 0.0
H510 H 0.23797 0.50461 0.145 0.0
H511 H 0.10084 0.59641 0.19257 0.0
H512 H 0.20929 0.57483 0.09361 0.0
H513 H 0.1154 0.51338 0.23194 0.0
H514 H 0.14413 0.59187 0.15967 0.0
H515 H 0.19672 0.51062 0.18055 0.0
C516 C 0.22312 0.5214 0.14126 0.0
C517 C 0.22705 0.53921 0.11622 0.0
C518 C 0.13791 0.57464 0.1755 0.0
C519 C 0.1799 0.54615 0.15682 0.0
C520 C 0.11321 0.57723 0.19438 0.0
C521 C 0.10443 0.55516 0.21498 0.0
C522 C 0.15414 0.54988 0.1773 0.0
C523 C 0.12134 0.53084 0.21629 0.0
C524 C 0.19953 0.52472 0.16151 0.0
C525 C 0.20707 0.56054 0.11251 0.0
N526 N 0.14545 0.52883 0.19767 0.0
N527 N 0.18438 0.56341 0.13259 0.0
H528 H 0.83942 0.93176 0.60508 0.0
H529 H 0.92039 0.83941 0.47865 0.0
H530 H 0.82256 0.93567 0.51017 0.0
H531 H 0.92776 0.82676 0.57354 0.0
H532 H 0.87806 0.86796 0.4894 0.0
H533 H 0.865 0.88721 0.59405 0.0
C534 C 0.84074 0.92296 0.58192 0.0
C535 C 0.82938 0.93774 0.55843 0.0
C536 C 0.88854 0.85851 0.50785 0.0
C537 C 0.85897 0.88694 0.54559 0.0
C538 C 0.91275 0.84221 0.50173 0.0
C539 C 0.92797 0.83123 0.52533 0.0
C540 C 0.87979 0.86426 0.53783 0.0
C541 C 0.91687 0.83514 0.55471 0.0
C542 C 0.8553 0.89745 0.57563 0.0
C543 C 0.8313 0.92512 0.52892 0.0
N544 N 0.89379 0.85185 0.5602 0.0
N545 N 0.84637 0.90074 0.52326 0.0
H546 H 0.98913 0.18684 0.47196 0.0
H547 H 0.88692 0.09032 0.58871 0.0
H548 H 0.98679 0.21386 0.56673 0.0
H549 H 0.85935 0.09778 0.49708 0.0
H550 H 0.93176 0.12693 0.58022 0.0
H551 H 0.94942 0.14473 0.48034 0.0
C552 C 0.98054 0.18367 0.49455 0.0
C553 C 0.99099 0.20395 0.51866 0.0
C554 C 0.9159 0.12033 0.562 0.0
C555 C 0.94611 0.15592 0.52834 0.0
C556 C 0.89045 0.09946 0.56678 0.0
C557 C 0.86933 0.0913 0.54363 0.0
C558 C 0.9205 0.13246 0.53372 0.0
C559 C 0.87493 0.10378 0.51562 0.0
C560 C 0.95786 0.1598 0.49926 0.0
C561 C 0.97908 0.19889 0.54749 0.0
N562 N 0.90005 0.12369 0.5114 0.0
N563 N 0.95726 0.17532 0.55156 0.0
H564 H 0.07372 0.88633 0.49241 0.0
H565 H 0.19095 -0.00068 0.59233 0.0
H566 H 0.09728 0.86781 0.58266 0.0
H567 H 0.20035 0.98518 0.49603 0.0
H568 H 0.14727 0.95964 0.59081 0.0
H569 H 0.11137 0.9315 0.49541 0.0
C570 C 0.08661 0.89193 0.51295 0.0
C571 C 0.08263 0.87322 0.53725 0.0
C572 C 0.15881 0.96554 0.57006 0.0
C573 C 0.12517 0.92486 0.54088 0.0
C574 C 0.18352 0.9882 0.57086 0.0
C575 C 0.19929 0.99526 0.54428 0.0
C576 C 0.14958 0.95048 0.54242 0.0
C577 C 0.18892 0.98013 0.51705 0.0
C578 C 0.10807 0.91759 0.51457 0.0
C579 C 0.09993 0.88149 0.56331 0.0
N580 N 0.16464 0.95844 0.51679 0.0
N581 N 0.12047 0.9068 0.56449 0.0
H582 H 0.1422 0.25919 0.55033 0.0
H583 H 0.25252 0.13939 0.49563 0.0
H584 H 0.15122 0.22545 0.45805 0.0
H585 H 0.23225 0.16196 0.58875 0.0
H586 H 0.22554 0.18058 0.48097 0.0
H587 H 0.18499 0.2336 0.56387 0.0
C588 C 0.15352 0.24689 0.53282 0.0
C589 C 0.14279 0.24394 0.50314 0.0
C590 C 0.22741 0.1768 0.50465 0.0
C591 C 0.19153 0.2145 0.51847 0.0
C592 C 0.24289 0.15335 0.51303 0.0
C593 C 0.2441 0.14688 0.5434 0.0
C594 C 0.21309 0.19382 0.52682 0.0
C595 C 0.23141 0.16583 0.56501 0.0
C596 C 0.17788 0.23221 0.54058 0.0
C597 C 0.15843 0.22788 0.48132 0.0
N598 N 0.21608 0.18819 0.55628 0.0
N599 N 0.18177 0.21343 0.4895 0.0
loop_
_geom_bond_atom_site_label_1
_geom_bond_atom_site_label_2
_geom_bond_distance
_geom_bond_site_symmetry_2
_ccdc_geom_bond_type
O0 Cd1 2.223 . S
O0 C8 1.315 1_455 S
Cd1 O0 2.223 . S
Cd1 O4 2.297 . S
Cd1 O5 2.439 . S
Cd1 O11 2.240 . S
Cd2 O3 2.240 . S
Cd2 O10 2.223 . S
Cd2 O12 2.297 1_655 S
Cd2 O13 2.439 1_655 S
O3 Cd2 2.240 . S
O3 C8 1.279 . S
O4 Cd1 2.297 . S
O4 C6 1.247 . S
O5 Cd1 2.439 . S
O5 C6 1.208 . S
C6 O4 1.247 . S
C6 O5 1.208 . S
C7 O12 1.247 . S
C7 O13 1.208 . S
C8 O0 1.315 1_655 S
C8 O3 1.279 . S
C9 O10 1.315 1_455 S
C9 O11 1.279 . S
O10 Cd2 2.223 . S
O10 C9 1.315 1_655 S
O11 Cd1 2.240 . S
O11 C9 1.279 . S
O12 Cd2 2.297 1_455 S
O12 C7 1.247 . S
O13 Cd2 2.439 1_455 S
O13 C7 1.208 . S
O14 Cd15 2.223 . S
O14 C22 1.315 . S
Cd15 O14 2.223 . S
Cd15 O18 2.297 . S
Cd15 O19 2.439 . S
Cd15 O25 2.240 . S
Cd16 O17 2.240 . S
Cd16 O24 2.223 . S
Cd16 O26 2.297 1_545 S
Cd16 O27 2.439 1_545 S
O17 Cd16 2.240 . S
O17 C22 1.279 . S
O18 Cd15 2.297 . S
O18 C20 1.247 . S
O19 Cd15 2.439 . S
O19 C20 1.208 . S
C20 O18 1.247 . S
C20 O19 1.208 . S
C21 O26 1.247 . S
C21 O27 1.208 . S
C22 O14 1.315 . S
C22 O17 1.279 . S
C23 O24 1.315 . S
C23 O25 1.279 . S
O24 Cd16 2.223 . S
O24 C23 1.315 . S
O25 Cd15 2.240 . S
O25 C23 1.279 . S
O26 Cd16 2.297 1_565 S
O26 C21 1.247 . S
O27 Cd16 2.439 1_565 S
O27 C21 1.208 . S
O28 Cd29 2.223 . S
O28 C36 1.315 . S
Cd29 O28 2.223 . S
Cd29 O32 2.297 1_455 S
Cd29 O33 2.439 1_455 S
Cd29 O39 2.240 . S
Cd30 O31 2.240 . S
Cd30 O38 2.223 . S
Cd30 O40 2.297 . S
Cd30 O41 2.439 . S
O31 Cd30 2.240 . S
O31 C36 1.279 . S
O32 Cd29 2.297 1_655 S
O32 C34 1.247 . S
O33 Cd29 2.439 1_655 S
O33 C34 1.208 . S
C34 O32 1.247 . S
C34 O33 1.208 . S
C35 O40 1.247 . S
C35 O41 1.208 . S
C36 O28 1.315 . S
C36 O31 1.279 . S
C37 O38 1.315 . S
C37 O39 1.279 . S
O38 Cd30 2.223 . S
O38 C37 1.315 . S
O39 Cd29 2.240 . S
O39 C37 1.279 . S
O40 Cd30 2.297 . S
O40 C35 1.247 . S
O41 Cd30 2.439 . S
O41 C35 1.208 . S
O42 Cd43 2.223 . S
O42 C50 1.315 1_545 S
Cd43 O42 2.223 . S
Cd43 O46 2.297 . S
Cd43 O47 2.439 . S
Cd43 O53 2.240 . S
Cd44 O45 2.240 . S
Cd44 O52 2.223 1_545 S
Cd44 O54 2.297 . S
Cd44 O55 2.439 . S
O45 Cd44 2.240 . S
O45 C50 1.279 1_545 S
O46 Cd43 2.297 . S
O46 C48 1.247 . S
O47 Cd43 2.439 . S
O47 C48 1.208 . S
C48 O46 1.247 . S
C48 O47 1.208 . S
C49 O54 1.247 . S
C49 O55 1.208 . S
C50 O42 1.315 1_565 S
C50 O45 1.279 1_565 S
C51 O52 1.315 1_545 S
C51 O53 1.279 . S
O52 Cd44 2.223 1_565 S
O52 C51 1.315 1_565 S
O53 Cd43 2.240 . S
O53 C51 1.279 . S
O54 Cd44 2.297 . S
O54 C49 1.247 . S
O55 Cd44 2.439 . S
O55 C49 1.208 . S
O56 Cd57 2.223 . S
O56 C64 1.315 . S
Cd57 O56 2.223 . S
Cd57 O60 2.297 . S
Cd57 O61 2.439 . S
Cd57 O67 2.240 . S
Cd58 O59 2.240 . S
Cd58 O66 2.223 . S
Cd58 O68 2.297 . S
Cd58 O69 2.439 . S
O59 Cd58 2.240 . S
O59 C64 1.279 . S
O60 Cd57 2.297 . S
O60 C62 1.247 . S
O61 Cd57 2.439 . S
O61 C62 1.208 . S
C62 O60 1.247 . S
C62 O61 1.208 . S
C63 O68 1.247 . S
C63 O69 1.208 . S
C64 O56 1.315 . S
C64 O59 1.279 . S
C65 O66 1.315 . S
C65 O67 1.279 . S
O66 Cd58 2.223 . S
O66 C65 1.315 . S
O67 Cd57 2.240 . S
O67 C65 1.279 . S
O68 Cd58 2.297 . S
O68 C63 1.247 . S
O69 Cd58 2.439 . S
O69 C63 1.208 . S
O70 Cd71 2.231 . S
O70 C78 1.315 1_655 S
Cd71 O70 2.231 . S
Cd71 O74 2.292 1_655 S
Cd71 O75 2.415 1_655 S
Cd71 O81 2.238 1_655 S
Cd72 O73 2.240 . S
Cd72 O80 2.223 . S
Cd72 O82 2.297 . S
Cd72 O83 2.439 . S
O73 Cd72 2.240 . S
O73 C78 1.279 . S
O74 Cd71 2.292 1_455 S
O74 C76 1.247 . S
O75 Cd71 2.415 1_455 S
O75 C76 1.208 . S
C76 O74 1.247 . S
C76 O75 1.208 . S
C77 O82 1.247 . S
C77 O83 1.208 . S
C78 O70 1.315 1_455 S
C78 O73 1.279 . S
C79 O80 1.315 1_655 S
C79 O81 1.279 1_655 S
O80 Cd72 2.223 . S
O80 C79 1.315 1_455 S
O81 Cd71 2.238 1_455 S
O81 C79 1.279 1_455 S
O82 Cd72 2.297 . S
O82 C77 1.247 . S
O83 Cd72 2.439 . S
O83 C77 1.208 . S
O84 Cd85 2.220 1_545 S
O84 C92 1.315 . S
Cd85 O84 2.220 1_565 S
Cd85 O88 2.299 . S
Cd85 O89 2.440 . S
Cd85 O95 2.239 1_565 S
Cd86 O87 2.240 . S
Cd86 O94 2.223 . S
Cd86 O96 2.297 . S
Cd86 O97 2.439 . S
O87 Cd86 2.240 . S
O87 C92 1.279 . S
O88 Cd85 2.299 . S
O88 C90 1.247 . S
O89 Cd85 2.440 . S
O89 C90 1.208 . S
C90 O88 1.247 . S
C90 O89 1.208 . S
C91 O96 1.247 . S
C91 O97 1.208 . S
C92 O84 1.315 . S
C92 O87 1.279 . S
C93 O94 1.315 . S
C93 O95 1.279 . S
O94 Cd86 2.223 . S
O94 C93 1.315 . S
O95 Cd85 2.239 1_545 S
O95 C93 1.279 . S
O96 Cd86 2.297 . S
O96 C91 1.247 . S
O97 Cd86 2.439 . S
O97 C91 1.208 . S
O98 Cd99 2.223 1_655 S
O98 C106 1.315 1_655 S
Cd99 O98 2.223 1_455 S
Cd99 O102 2.297 . S
Cd99 O103 2.439 . S
Cd99 O109 2.240 . S
Cd100 O101 2.240 . S
Cd100 O108 2.223 . S
Cd100 O110 2.297 . S
Cd100 O111 2.439 . S
O101 Cd100 2.240 . S
O101 C106 1.279 . S
O102 Cd99 2.297 . S
O102 C104 1.247 . S
O103 Cd99 2.439 . S
O103 C104 1.208 . S
C104 O102 1.247 . S
C104 O103 1.208 . S
C105 O110 1.247 . S
C105 O111 1.208 . S
C106 O98 1.315 1_455 S
C106 O101 1.279 . S
C107 O108 1.332 . S
C107 O109 1.287 . S
O108 Cd100 2.223 . S
O108 C107 1.332 . S
O109 Cd99 2.240 . S
O109 C107 1.287 . S
O110 Cd100 2.297 . S
O110 C105 1.247 . S
O111 Cd100 2.439 . S
O111 C105 1.208 . S
O112 Cd113 2.223 . S
O112 C120 1.315 . S
Cd113 O112 2.223 . S
Cd113 O116 2.297 . S
Cd113 O117 2.439 . S
Cd113 O123 2.240 . S
Cd114 O115 2.240 . S
Cd114 O122 2.223 . S
Cd114 O124 2.297 1_554 S
Cd114 O125 2.439 1_554 S
O115 Cd114 2.240 . S
O115 C120 1.279 . S
O116 Cd113 2.297 . S
O116 C118 1.247 . S
O117 Cd113 2.439 . S
O117 C118 1.208 . S
C118 O116 1.247 . S
C118 O117 1.208 . S
C119 O124 1.247 . S
C119 O125 1.208 . S
C120 O112 1.315 . S
C120 O115 1.279 . S
C121 O122 1.315 . S
C121 O123 1.279 . S
O122 Cd114 2.223 . S
O122 C121 1.315 . S
O123 Cd113 2.240 . S
O123 C121 1.279 . S
O124 Cd114 2.297 1_556 S
O124 C119 1.247 . S
O125 Cd114 2.439 1_556 S
O125 C119 1.208 . S
O126 Cd127 2.223 . S
O126 C134 1.315 1_556 S
Cd127 O126 2.223 . S
Cd127 O130 2.297 1_556 S
Cd127 O131 2.439 1_556 S
Cd127 O137 2.240 . S
Cd128 O129 2.240 . S
Cd128 O136 2.223 . S
Cd128 O138 2.297 . S
Cd128 O139 2.439 . S
O129 Cd128 2.240 . S
O129 C134 1.279 . S
O130 Cd127 2.297 1_554 S
O130 C132 1.247 . S
O131 Cd127 2.439 1_554 S
O131 C132 1.208 . S
C132 O130 1.247 . S
C132 O131 1.208 . S
C133 O138 1.247 . S
C133 O139 1.208 . S
C134 O126 1.315 1_554 S
C134 O129 1.279 . S
C135 O136 1.315 1_556 S
C135 O137 1.279 . S
O136 Cd128 2.223 . S
O136 C135 1.315 1_554 S
O137 Cd127 2.240 . S
O137 C135 1.279 . S
O138 Cd128 2.297 . S
O138 C133 1.247 . S
O139 Cd128 2.439 . S
O139 C133 1.208 . S
O140 Cd141 2.223 . S
O140 C148 1.315 . S
Cd141 O140 2.223 . S
Cd141 O144 2.297 . S
Cd141 O145 2.439 . S
Cd141 O151 2.240 . S
Cd142 O143 2.240 . S
Cd142 O150 2.223 . S
Cd142 O152 2.297 1_554 S
Cd142 O153 2.439 1_554 S
O143 Cd142 2.240 . S
O143 C148 1.279 . S
O144 Cd141 2.297 . S
O144 C146 1.247 . S
O145 Cd141 2.439 . S
O145 C146 1.208 . S
C146 O144 1.247 . S
C146 O145 1.208 . S
C147 O152 1.247 . S
C147 O153 1.208 . S
C148 O140 1.315 . S
C148 O143 1.279 . S
C149 O150 1.315 . S
C149 O151 1.279 . S
O150 Cd142 2.223 . S
O150 C149 1.315 . S
O151 Cd141 2.240 . S
O151 C149 1.279 . S
O152 Cd142 2.297 1_556 S
O152 C147 1.247 . S
O153 Cd142 2.439 1_556 S
O153 C147 1.208 . S
O154 Cd155 2.223 . S
O154 C162 1.315 . S
Cd155 O154 2.223 . S
Cd155 O158 2.297 . S
Cd155 O159 2.439 . S
Cd155 O165 2.240 . S
Cd156 O157 2.240 . S
Cd156 O164 2.223 . S
Cd156 O166 2.297 . S
Cd156 O167 2.439 . S
O157 Cd156 2.240 . S
O157 C162 1.279 . S
O158 Cd155 2.297 . S
O158 C160 1.247 . S
O159 Cd155 2.439 . S
O159 C160 1.208 . S
C160 O158 1.247 . S
C160 O159 1.208 . S
C161 O166 1.247 . S
C161 O167 1.208 . S
C162 O154 1.315 . S
C162 O157 1.279 . S
C163 O164 1.315 . S
C163 O165 1.279 . S
O164 Cd156 2.223 . S
O164 C163 1.315 . S
O165 Cd155 2.240 . S
O165 C163 1.279 . S
O166 Cd156 2.297 . S
O166 C161 1.247 . S
O167 Cd156 2.439 . S
O167 C161 1.208 . S
H168 C174 0.930 . S
H169 C178 0.930 . S
H170 C183 0.929 . S
H171 C181 0.929 1_655 S
H172 C176 0.929 . S
H173 C182 0.929 . S
C174 H168 0.930 . S
C174 C175 1.367 1_655 S
C174 C182 1.378 . S
C175 C174 1.367 1_455 S
C175 C183 1.433 . S
C176 H172 0.929 . S
C176 C178 1.378 . S
C176 C180 1.350 . S
C177 C180 1.463 . S
C177 C182 1.350 1_455 S
C177 N185 1.427 . S
C178 H169 0.930 . S
C178 C176 1.378 . S
C178 C179 1.367 . S
C179 C178 1.367 . S
C179 C181 1.433 . S
C180 C176 1.350 . S
C180 C177 1.463 . S
C180 N184 1.427 . S
C181 H171 0.929 1_455 S
C181 C179 1.433 . S
C181 N184 1.384 . S
C182 H173 0.929 . S
C182 C174 1.378 . S
C182 C177 1.350 1_655 S
C183 H170 0.929 . S
C183 C175 1.433 . S
C183 N185 1.384 . S
N184 C180 1.427 . S
N184 C181 1.384 . S
N185 C177 1.427 . S
N185 C183 1.384 . S
H186 C192 0.930 . S
H187 C196 0.930 . S
H188 C201 0.929 1_565 S
H189 C199 0.929 . S
H190 C194 0.929 . S
H191 C200 0.929 . S
C192 H186 0.930 . S
C192 C193 1.367 . S
C192 C200 1.378 . S
C193 C192 1.367 . S
C193 C201 1.433 . S
C194 H190 0.929 . S
C194 C196 1.378 . S
C194 C198 1.350 . S
C195 C198 1.463 . S
C195 C200 1.350 . S
C195 N203 1.427 . S
C196 H187 0.930 . S
C196 C194 1.378 . S
C196 C197 1.367 . S
C197 C196 1.367 . S
C197 C199 1.433 . S
C198 C194 1.350 . S
C198 C195 1.463 . S
C198 N202 1.427 . S
C199 H189 0.929 . S
C199 C197 1.433 . S
C199 N202 1.384 . S
C200 H191 0.929 . S
C200 C192 1.378 . S
C200 C195 1.350 . S
C201 H188 0.929 1_545 S
C201 C193 1.433 . S
C201 N203 1.384 . S
N202 C198 1.427 . S
N202 C199 1.384 . S
N203 C195 1.427 . S
N203 C201 1.384 . S
H204 C210 0.930 . S
H205 C214 0.930 . S
H206 C219 0.929 . S
H207 C217 0.929 . S
H208 C212 0.929 . S
H209 C218 0.929 . S
C210 H204 0.930 . S
C210 C211 1.367 . S
C210 C218 1.378 . S
C211 C210 1.367 . S
C211 C219 1.433 . S
C212 H208 0.929 . S
C212 C214 1.378 . S
C212 C216 1.350 . S
C213 C216 1.463 . S
C213 C218 1.350 . S
C213 N221 1.427 . S
C214 H205 0.930 . S
C214 C212 1.378 . S
C214 C215 1.367 . S
C215 C214 1.367 . S
C215 C217 1.433 . S
C216 C212 1.350 . S
C216 C213 1.463 . S
C216 N220 1.427 . S
C217 H207 0.929 . S
C217 C215 1.433 . S
C217 N220 1.384 . S
C218 H209 0.929 . S
C218 C210 1.378 . S
C218 C213 1.350 . S
C219 H206 0.929 . S
C219 C211 1.433 . S
C219 N221 1.384 . S
N220 C216 1.427 . S
N220 C217 1.384 . S
N221 C213 1.427 . S
N221 C219 1.384 . S
H222 C228 0.930 . S
H223 C232 0.930 1_565 S
H224 C237 0.929 . S
H225 C235 0.929 . S
H226 C230 0.929 1_565 S
H227 C236 0.929 . S
C228 H222 0.930 . S
C228 C229 1.367 . S
C228 C236 1.378 . S
C229 C228 1.367 . S
C229 C237 1.433 . S
C230 H226 0.929 1_545 S
C230 C232 1.378 . S
C230 C234 1.350 . S
C231 C234 1.463 . S
C231 C236 1.350 . S
C231 N239 1.427 . S
C232 H223 0.930 1_545 S
C232 C230 1.378 . S
C232 C233 1.367 . S
C233 C232 1.367 . S
C233 C235 1.433 . S
C234 C230 1.350 . S
C234 C231 1.463 . S
C234 N238 1.427 . S
C235 H225 0.929 . S
C235 C233 1.433 . S
C235 N238 1.384 . S
C236 H227 0.929 . S
C236 C228 1.378 . S
C236 C231 1.350 . S
C237 H224 0.929 . S
C237 C229 1.433 . S
C237 N239 1.384 . S
N238 C234 1.427 . S
N238 C235 1.384 . S
N239 C231 1.427 . S
N239 C237 1.384 . S
H240 C246 0.930 . S
H241 C250 0.930 . S
H242 C255 0.929 . S
H243 C253 0.929 . S
H244 C248 0.929 . S
H245 C254 0.929 . S
C246 H240 0.930 . S
C246 C247 1.367 . S
C246 C254 1.378 . S
C247 C246 1.367 . S
C247 C255 1.433 . S
C248 H244 0.929 . S
C248 C250 1.378 . S
C248 C252 1.350 . S
C249 C252 1.463 . S
C249 C254 1.350 . S
C249 N257 1.427 . S
C250 H241 0.930 . S
C250 C248 1.378 . S
C250 C251 1.367 . S
C251 C250 1.367 . S
C251 C253 1.433 . S
C252 C248 1.350 . S
C252 C249 1.463 . S
C252 N256 1.427 . S
C253 H243 0.929 . S
C253 C251 1.433 . S
C253 N256 1.384 . S
C254 H245 0.929 . S
C254 C246 1.378 . S
C254 C249 1.350 . S
C255 H242 0.929 . S
C255 C247 1.433 . S
C255 N257 1.384 . S
N256 C252 1.427 . S
N256 C253 1.384 . S
N257 C249 1.427 . S
N257 C255 1.384 . S
H258 C264 0.930 1_565 S
H259 C268 0.930 . S
H260 C273 0.929 . S
H261 C271 0.929 . S
H262 C266 0.929 . S
H263 C272 0.929 1_565 S
C264 H258 0.930 1_545 S
C264 C265 1.367 . S
C264 C272 1.378 . S
C265 C264 1.367 . S
C265 C273 1.433 . S
C266 H262 0.929 . S
C266 C268 1.378 . S
C266 C270 1.350 . S
C267 C270 1.463 . S
C267 C272 1.350 . S
C267 N275 1.427 . S
C268 H259 0.930 . S
C268 C266 1.378 . S
C268 C269 1.367 . S
C269 C268 1.367 . S
C269 C271 1.433 1_545 S
C270 C266 1.350 . S
C270 C267 1.463 . S
C270 N274 1.427 1_545 S
C271 H261 0.929 . S
C271 C269 1.433 1_565 S
C271 N274 1.384 . S
C272 H263 0.929 1_545 S
C272 C264 1.378 . S
C272 C267 1.350 . S
C273 H260 0.929 . S
C273 C265 1.433 . S
C273 N275 1.384 . S
N274 C270 1.427 1_565 S
N274 C271 1.384 . S
N275 C267 1.427 . S
N275 C273 1.384 . S
H276 C282 0.911 1_655 S
H277 C286 0.930 . S
H278 C291 0.929 . S
H279 C289 0.929 . S
H280 C284 0.929 . S
H281 C290 0.929 1_655 S
C282 H276 0.911 1_455 S
C282 C283 1.367 . S
C282 C290 1.378 . S
C283 C282 1.367 . S
C283 C291 1.433 . S
C284 H280 0.929 . S
C284 C286 1.378 . S
C284 C288 1.350 . S
C285 C288 1.463 . S
C285 C290 1.350 . S
C285 N293 1.427 . S
C286 H277 0.930 . S
C286 C284 1.378 . S
C286 C287 1.367 . S
C287 C286 1.367 . S
C287 C289 1.433 1_455 S
C288 C284 1.350 . S
C288 C285 1.463 . S
C288 N292 1.427 1_455 S
C289 H279 0.929 . S
C289 C287 1.433 1_655 S
C289 N292 1.384 . S
C290 H281 0.929 1_455 S
C290 C282 1.378 . S
C290 C285 1.350 . S
C291 H278 0.929 . S
C291 C283 1.433 . S
C291 N293 1.384 . S
N292 C288 1.427 1_655 S
N292 C289 1.384 . S
N293 C285 1.427 . S
N293 C291 1.384 . S
H294 C300 0.930 . S
H295 C304 0.930 . S
H296 C309 0.929 . S
H297 C307 0.929 . S
H298 C302 0.929 . S
H299 C308 0.929 1_565 S
C300 H294 0.930 . S
C300 C301 1.367 1_565 S
C300 C308 1.378 1_565 S
C301 C300 1.367 1_545 S
C301 C309 1.433 . S
C302 H298 0.929 . S
C302 C304 1.378 . S
C302 C306 1.350 . S
C303 C306 1.463 . S
C303 C308 1.350 . S
C303 N311 1.427 . S
C304 H295 0.930 . S
C304 C302 1.378 . S
C304 C305 1.367 . S
C305 C304 1.367 . S
C305 C307 1.433 . S
C306 C302 1.350 . S
C306 C303 1.463 . S
C306 N310 1.427 . S
C307 H297 0.929 . S
C307 C305 1.433 . S
C307 N310 1.384 . S
C308 H299 0.929 1_545 S
C308 C300 1.378 1_545 S
C308 C303 1.350 . S
C309 H296 0.929 . S
C309 C301 1.433 . S
C309 N311 1.384 . S
N310 C306 1.427 . S
N310 C307 1.384 . S
N311 C303 1.427 . S
N311 C309 1.384 . S
H312 C318 0.930 1_556 S
H313 C322 0.930 . S
H314 C327 0.929 . S
H315 C325 0.929 . S
H316 C320 0.929 . S
H317 C326 0.929 1_556 S
C318 H312 0.930 1_554 S
C318 C319 1.367 . S
C318 C326 1.378 . S
C319 C318 1.367 . S
C319 C327 1.433 . S
C320 H316 0.929 . S
C320 C322 1.378 . S
C320 C324 1.350 . S
C321 C324 1.463 . S
C321 C326 1.350 . S
C321 N329 1.427 . S
C322 H313 0.930 . S
C322 C320 1.378 . S
C322 C323 1.367 . S
C323 C322 1.367 . S
C323 C325 1.433 1_554 S
C324 C320 1.350 . S
C324 C321 1.463 . S
C324 N328 1.427 1_554 S
C325 H315 0.929 . S
C325 C323 1.433 1_556 S
C325 N328 1.384 . S
C326 H317 0.929 1_554 S
C326 C318 1.378 . S
C326 C321 1.350 . S
C327 H314 0.929 . S
C327 C319 1.433 . S
C327 N329 1.384 . S
N328 C324 1.427 1_556 S
N328 C325 1.384 . S
N329 C321 1.427 . S
N329 C327 1.384 . S
H330 C336 0.930 . S
H331 C340 0.930 . S
H332 C345 0.929 . S
H333 C343 0.929 . S
H334 C338 0.929 . S
H335 C344 0.929 . S
C336 H330 0.930 . S
C336 C337 1.367 . S
C336 C344 1.378 . S
C337 C336 1.367 . S
C337 C345 1.433 . S
C338 H334 0.929 . S
C338 C340 1.378 . S
C338 C342 1.350 . S
C339 C342 1.463 . S
C339 C344 1.350 . S
C339 N347 1.427 . S
C340 H331 0.930 . S
C340 C338 1.378 . S
C340 C341 1.367 . S
C341 C340 1.367 . S
C341 C343 1.433 . S
C342 C338 1.350 . S
C342 C339 1.463 . S
C342 N346 1.427 . S
C343 H333 0.929 . S
C343 C341 1.433 . S
C343 N346 1.384 . S
C344 H335 0.929 . S
C344 C336 1.378 . S
C344 C339 1.350 . S
C345 H332 0.929 . S
C345 C337 1.433 . S
C345 N347 1.384 . S
N346 C342 1.427 . S
N346 C343 1.384 . S
N347 C339 1.427 . S
N347 C345 1.384 . S
H348 C354 0.930 . S
H349 C358 0.930 . S
H350 C363 0.929 . S
H351 C361 0.929 . S
H352 C356 0.929 . S
H353 C362 0.929 . S
C354 H348 0.930 . S
C354 C355 1.367 . S
C354 C362 1.378 . S
C355 C354 1.367 . S
C355 C363 1.433 . S
C356 H352 0.929 . S
C356 C358 1.378 . S
C356 C360 1.350 . S
C357 C360 1.463 . S
C357 C362 1.350 . S
C357 N365 1.427 . S
C358 H349 0.930 . S
C358 C356 1.378 . S
C358 C359 1.367 . S
C359 C358 1.367 . S
C359 C361 1.433 . S
C360 C356 1.350 . S
C360 C357 1.463 . S
C360 N364 1.427 . S
C361 H351 0.929 . S
C361 C359 1.433 . S
C361 N364 1.384 . S
C362 H353 0.929 . S
C362 C354 1.378 . S
C362 C357 1.350 . S
C363 H350 0.929 . S
C363 C355 1.433 . S
C363 N365 1.384 . S
N364 C360 1.427 . S
N364 C361 1.384 . S
N365 C357 1.427 . S
N365 C363 1.384 . S
H366 C372 0.930 . S
H367 C376 0.930 . S
H368 C381 0.929 1_556 S
H369 C379 0.929 . S
H370 C374 0.929 . S
H371 C380 0.929 . S
C372 H366 0.930 . S
C372 C373 1.367 . S
C372 C380 1.378 . S
C373 C372 1.367 . S
C373 C381 1.433 . S
C374 H370 0.929 . S
C374 C376 1.378 . S
C374 C378 1.350 . S
C375 C378 1.463 . S
C375 C380 1.350 . S
C375 N383 1.427 . S
C376 H367 0.930 . S
C376 C374 1.378 . S
C376 C377 1.367 . S
C377 C376 1.367 . S
C377 C379 1.433 . S
C378 C374 1.350 . S
C378 C375 1.463 . S
C378 N382 1.427 . S
C379 H369 0.929 . S
C379 C377 1.433 . S
C379 N382 1.384 . S
C380 H371 0.929 . S
C380 C372 1.378 . S
C380 C375 1.350 . S
C381 H368 0.929 1_554 S
C381 C373 1.433 . S
C381 N383 1.384 . S
N382 C378 1.427 . S
N382 C379 1.384 . S
N383 C375 1.427 . S
N383 C381 1.384 . S
H384 C390 0.930 . S
H385 C394 0.930 . S
H386 C399 0.929 . S
H387 C397 0.929 . S
H388 C392 0.929 . S
H389 C398 0.929 . S
C390 H384 0.930 . S
C390 C391 1.367 . S
C390 C398 1.378 . S
C391 C390 1.367 . S
C391 C399 1.433 . S
C392 H388 0.929 . S
C392 C394 1.378 . S
C392 C396 1.350 . S
C393 C396 1.463 . S
C393 C398 1.350 . S
C393 N401 1.427 . S
C394 H385 0.930 . S
C394 C392 1.378 . S
C394 C395 1.367 . S
C395 C394 1.367 . S
C395 C397 1.433 . S
C396 C392 1.350 . S
C396 C393 1.463 . S
C396 N400 1.427 . S
C397 H387 0.929 . S
C397 C395 1.433 . S
C397 N400 1.384 . S
C398 H389 0.929 . S
C398 C390 1.378 . S
C398 C393 1.350 . S
C399 H386 0.929 . S
C399 C391 1.433 . S
C399 N401 1.384 . S
N400 C396 1.427 . S
N400 C397 1.384 . S
N401 C393 1.427 . S
N401 C399 1.384 . S
H402 C408 0.930 . S
H403 C412 0.930 . S
H404 C417 0.929 . S
H405 C415 0.929 . S
H406 C410 0.929 . S
H407 C416 0.929 . S
C408 H402 0.930 . S
C408 C409 1.367 . S
C408 C416 1.378 . S
C409 C408 1.367 . S
C409 C417 1.433 . S
C410 H406 0.929 . S
C410 C412 1.378 . S
C410 C414 1.350 . S
C411 C414 1.463 . S
C411 C416 1.350 . S
C411 N419 1.427 . S
C412 H403 0.930 . S
C412 C410 1.378 . S
C412 C413 1.367 . S
C413 C412 1.367 . S
C413 C415 1.433 . S
C414 C410 1.350 . S
C414 C411 1.463 . S
C414 N418 1.427 . S
C415 H405 0.929 . S
C415 C413 1.433 . S
C415 N418 1.384 . S
C416 H407 0.929 . S
C416 C408 1.378 . S
C416 C411 1.350 . S
C417 H404 0.929 . S
C417 C409 1.433 . S
C417 N419 1.384 . S
N418 C414 1.427 . S
N418 C415 1.384 . S
N419 C411 1.427 . S
N419 C417 1.384 . S
H420 C426 0.930 . S
H421 C430 0.930 . S
H422 C435 0.929 . S
H423 C433 0.929 . S
H424 C428 0.929 . S
H425 C434 0.929 . S
C426 H420 0.930 . S
C426 C427 1.367 . S
C426 C434 1.378 . S
C427 C426 1.367 . S
C427 C435 1.433 . S
C428 H424 0.929 . S
C428 C430 1.378 . S
C428 C432 1.350 . S
C429 C432 1.463 . S
C429 C434 1.350 . S
C429 N437 1.427 . S
C430 H421 0.930 . S
C430 C428 1.378 . S
C430 C431 1.367 . S
C431 C430 1.367 . S
C431 C433 1.433 . S
C432 C428 1.350 . S
C432 C429 1.463 . S
C432 N436 1.427 . S
C433 H423 0.929 . S
C433 C431 1.433 . S
C433 N436 1.384 . S
C434 H425 0.929 . S
C434 C426 1.378 . S
C434 C429 1.350 . S
C435 H422 0.929 . S
C435 C427 1.433 . S
C435 N437 1.384 . S
N436 C432 1.427 . S
N436 C433 1.384 . S
N437 C429 1.427 . S
N437 C435 1.384 . S
H438 C444 0.930 1_455 S
H439 C448 0.930 . S
H440 C453 0.929 . S
H441 C451 0.929 . S
H442 C446 0.929 . S
H443 C452 0.929 . S
C444 H438 0.930 1_655 S
C444 C445 1.367 . S
C444 C452 1.378 . S
C445 C444 1.367 . S
C445 C453 1.433 . S
C446 H442 0.929 . S
C446 C448 1.378 . S
C446 C450 1.350 . S
C447 C450 1.463 . S
C447 C452 1.350 . S
C447 N455 1.427 . S
C448 H439 0.930 . S
C448 C446 1.378 . S
C448 C449 1.367 . S
C449 C448 1.367 . S
C449 C451 1.433 . S
C450 C446 1.350 . S
C450 C447 1.463 . S
C450 N454 1.427 . S
C451 H441 0.929 . S
C451 C449 1.433 . S
C451 N454 1.384 . S
C452 H443 0.929 . S
C452 C444 1.378 . S
C452 C447 1.350 . S
C453 H440 0.929 . S
C453 C445 1.433 . S
C453 N455 1.384 . S
N454 C450 1.427 . S
N454 C451 1.384 . S
N455 C447 1.427 . S
N455 C453 1.384 . S
H456 C462 0.930 . S
H457 C466 0.930 . S
H458 C471 0.929 . S
H459 C469 0.929 . S
H460 C464 0.929 . S
H461 C470 0.929 . S
C462 H456 0.930 . S
C462 C463 1.367 . S
C462 C470 1.378 . S
C463 C462 1.367 . S
C463 C471 1.433 . S
C464 H460 0.929 . S
C464 C466 1.378 . S
C464 C468 1.350 . S
C465 C468 1.463 . S
C465 C470 1.350 . S
C465 N473 1.427 . S
C466 H457 0.930 . S
C466 C464 1.378 . S
C466 C467 1.367 . S
C467 C466 1.367 . S
C467 C469 1.433 . S
C468 C464 1.350 . S
C468 C465 1.463 . S
C468 N472 1.427 . S
C469 H459 0.929 . S
C469 C467 1.433 . S
C469 N472 1.384 . S
C470 H461 0.929 . S
C470 C462 1.378 . S
C470 C465 1.350 . S
C471 H458 0.929 . S
C471 C463 1.433 . S
C471 N473 1.384 . S
N472 C468 1.427 . S
N472 C469 1.384 . S
N473 C465 1.427 . S
N473 C471 1.384 . S
H474 C480 0.930 . S
H475 C484 0.930 . S
H476 C489 0.929 . S
H477 C487 0.929 . S
H478 C482 0.929 . S
H479 C488 0.929 . S
C480 H474 0.930 . S
C480 C481 1.367 . S
C480 C488 1.378 . S
C481 C480 1.367 . S
C481 C489 1.433 . S
C482 H478 0.929 . S
C482 C484 1.378 . S
C482 C486 1.350 . S
C483 C486 1.463 . S
C483 C488 1.350 . S
C483 N491 1.427 . S
C484 H475 0.930 . S
C484 C482 1.378 . S
C484 C485 1.367 . S
C485 C484 1.367 . S
C485 C487 1.433 . S
C486 C482 1.350 . S
C486 C483 1.463 . S
C486 N490 1.427 . S
C487 H477 0.929 . S
C487 C485 1.433 . S
C487 N490 1.384 . S
C488 H479 0.929 . S
C488 C480 1.378 . S
C488 C483 1.350 . S
C489 H476 0.929 . S
C489 C481 1.433 . S
C489 N491 1.384 . S
N490 C486 1.427 . S
N490 C487 1.384 . S
N491 C483 1.427 . S
N491 C489 1.384 . S
H492 C498 0.930 . S
H493 C502 0.930 . S
H494 C507 0.929 . S
H495 C505 0.929 . S
H496 C500 0.929 . S
H497 C506 0.929 . S
C498 H492 0.930 . S
C498 C499 1.367 . S
C498 C506 1.378 . S
C499 C498 1.367 . S
C499 C507 1.433 . S
C500 H496 0.929 . S
C500 C502 1.378 . S
C500 C504 1.350 . S
C501 C504 1.463 . S
C501 C506 1.350 . S
C501 N509 1.427 . S
C502 H493 0.930 . S
C502 C500 1.378 . S
C502 C503 1.367 . S
C503 C502 1.367 . S
C503 C505 1.433 . S
C504 C500 1.350 . S
C504 C501 1.463 . S
C504 N508 1.427 . S
C505 H495 0.929 . S
C505 C503 1.433 . S
C505 N508 1.384 . S
C506 H497 0.929 . S
C506 C498 1.378 . S
C506 C501 1.350 . S
C507 H494 0.929 . S
C507 C499 1.433 . S
C507 N509 1.384 . S
N508 C504 1.427 . S
N508 C505 1.384 . S
N509 C501 1.427 . S
N509 C507 1.384 . S
H510 C516 0.930 . S
H511 C520 0.930 . S
H512 C525 0.929 . S
H513 C523 0.929 . S
H514 C518 0.929 . S
H515 C524 0.929 . S
C516 H510 0.930 . S
C516 C517 1.367 . S
C516 C524 1.378 . S
C517 C516 1.367 . S
C517 C525 1.433 . S
C518 H514 0.929 . S
C518 C520 1.378 . S
C518 C522 1.350 . S
C519 C522 1.463 . S
C519 C524 1.350 . S
C519 N527 1.427 . S
C520 H511 0.930 . S
C520 C518 1.378 . S
C520 C521 1.367 . S
C521 C520 1.367 . S
C521 C523 1.433 . S
C522 C518 1.350 . S
C522 C519 1.463 . S
C522 N526 1.427 . S
C523 H513 0.929 . S
C523 C521 1.433 . S
C523 N526 1.384 . S
C524 H515 0.929 . S
C524 C516 1.378 . S
C524 C519 1.350 . S
C525 H512 0.929 . S
C525 C517 1.433 . S
C525 N527 1.384 . S
N526 C522 1.427 . S
N526 C523 1.384 . S
N527 C519 1.427 . S
N527 C525 1.384 . S
H528 C534 0.930 . S
H529 C538 0.930 . S
H530 C543 0.929 . S
H531 C541 0.929 . S
H532 C536 0.929 . S
H533 C542 0.929 . S
C534 H528 0.930 . S
C534 C535 1.367 . S
C534 C542 1.378 . S
C535 C534 1.367 . S
C535 C543 1.433 . S
C536 H532 0.929 . S
C536 C538 1.378 . S
C536 C540 1.350 . S
C537 C540 1.463 . S
C537 C542 1.350 . S
C537 N545 1.427 . S
C538 H529 0.930 . S
C538 C536 1.378 . S
C538 C539 1.367 . S
C539 C538 1.367 . S
C539 C541 1.433 . S
C540 C536 1.350 . S
C540 C537 1.463 . S
C540 N544 1.427 . S
C541 H531 0.929 . S
C541 C539 1.433 . S
C541 N544 1.384 . S
C542 H533 0.929 . S
C542 C534 1.378 . S
C542 C537 1.350 . S
C543 H530 0.929 . S
C543 C535 1.433 . S
C543 N545 1.384 . S
N544 C540 1.427 . S
N544 C541 1.384 . S
N545 C537 1.427 . S
N545 C543 1.384 . S
H546 C552 0.930 . S
H547 C556 0.930 . S
H548 C561 0.929 . S
H549 C559 0.929 . S
H550 C554 0.929 . S
H551 C560 0.929 . S
C552 H546 0.930 . S
C552 C553 1.367 . S
C552 C560 1.378 . S
C553 C552 1.367 . S
C553 C561 1.433 . S
C554 H550 0.929 . S
C554 C556 1.378 . S
C554 C558 1.350 . S
C555 C558 1.463 . S
C555 C560 1.350 . S
C555 N563 1.427 . S
C556 H547 0.930 . S
C556 C554 1.378 . S
C556 C557 1.367 . S
C557 C556 1.367 . S
C557 C559 1.433 . S
C558 C554 1.350 . S
C558 C555 1.463 . S
C558 N562 1.427 . S
C559 H549 0.929 . S
C559 C557 1.433 . S
C559 N562 1.384 . S
C560 H551 0.929 . S
C560 C552 1.378 . S
C560 C555 1.350 . S
C561 H548 0.929 . S
C561 C553 1.433 . S
C561 N563 1.384 . S
N562 C558 1.427 . S
N562 C559 1.384 . S
N563 C555 1.427 . S
N563 C561 1.384 . S
H564 C570 0.930 . S
H565 C574 0.930 . S
H566 C579 0.929 . S
H567 C577 0.929 . S
H568 C572 0.929 . S
H569 C578 0.929 . S
C570 H564 0.930 . S
C570 C571 1.367 . S
C570 C578 1.378 . S
C571 C570 1.367 . S
C571 C579 1.433 . S
C572 H568 0.929 . S
C572 C574 1.378 . S
C572 C576 1.350 . S
C573 C576 1.463 . S
C573 C578 1.350 . S
C573 N581 1.427 . S
C574 H565 0.930 . S
C574 C572 1.378 . S
C574 C575 1.367 . S
C575 C574 1.367 . S
C575 C577 1.433 . S
C576 C572 1.350 . S
C576 C573 1.463 . S
C576 N580 1.427 . S
C577 H567 0.929 . S
C577 C575 1.433 . S
C577 N580 1.384 . S
C578 H569 0.929 . S
C578 C570 1.378 . S
C578 C573 1.350 . S
C579 H566 0.929 . S
C579 C571 1.433 . S
C579 N581 1.384 . S
N580 C576 1.427 . S
N580 C577 1.384 . S
N581 C573 1.427 . S
N581 C579 1.384 . S
H582 C588 0.930 . S
H583 C592 0.930 . S
H584 C597 0.929 . S
H585 C595 0.929 . S
H586 C590 0.929 . S
H587 C596 0.929 . S
C588 H582 0.930 . S
C588 C589 1.367 . S
C588 C596 1.378 . S
C589 C588 1.367 . S
C589 C597 1.433 . S
C590 H586 0.929 . S
C590 C592 1.378 . S
C590 C594 1.350 . S
C591 C594 1.463 . S
C591 C596 1.350 . S
C591 N599 1.427 . S
C592 H583 0.930 . S
C592 C590 1.378 . S
C592 C593 1.367 . S
C593 C592 1.367 . S
C593 C595 1.433 . S
C594 C590 1.350 . S
C594 C591 1.463 . S
C594 N598 1.427 . S
C595 H585 0.929 . S
C595 C593 1.433 . S
C595 N598 1.384 . S
C596 H587 0.929 . S
C596 C588 1.378 . S
C596 C591 1.350 . S
C597 H584 0.929 . S
C597 C589 1.433 . S
C597 N599 1.384 . S
N598 C594 1.427 . S
N598 C595 1.384 . S
N599 C591 1.427 . S
N599 C597 1.384 . S
C175 C9 1.891 . S
C179 C76 1.852 . S
C193 C20 1.052 . S
C197 C63 1.040 . S
C211 C78 1.813 . S
C215 C37 1.805 . S
C229 C49 1.397 . S
C233 C65 1.435 . S
C247 C104 1.225 . S
C251 C35 1.223 . S
C265 C93 2.027 . S
C269 C51 2.026 . S
C283 C7 1.183 . S
C287 C106 1.232 . S
C301 C91 1.640 . S
C305 C22 1.695 . S
C319 C132 1.419 . S
C323 C118 1.405 . S
C337 C120 1.328 . S
C341 C162 1.319 . S
C355 C134 1.610 . S
C359 C148 1.619 . S
C373 C146 1.659 . S
C377 C160 1.644 . S
C391 C163 1.893 1_556 S
C395 C90 1.851 . S
C409 C119 1.055 . S
C413 C105 1.043 . S
C427 C92 1.813 . S
C431 C135 1.803 . S
C445 C107 1.406 1_655 S
C449 C147 1.383 . S
C463 C62 1.218 . S
C467 C133 1.215 . S
C481 C79 2.028 . S
C485 C149 2.025 . S
C499 C161 1.204 . S
C503 C64 1.244 1_565 S
C517 C121 1.695 . S
C521 C77 1.630 . S
C535 C21 1.409 . S
C539 C34 1.423 . S
C553 C8 1.330 . S
C557 C23 1.330 . S
C571 C36 1.617 . S
C575 C50 1.617 . S
C589 C6 1.657 . S
C593 C48 1.671 . S
