# Generated by pormake.
# Topology lcy-e, (6)-cn, num edge types: 1
# Building blocks:
#     Node 0, Type 0, BuildingBlock: KUMBOL_clean_sbu_0, # of connection points: 6
#     Node 1, Type 0, BuildingBlock: KUMBOL_clean_sbu_0, # of connection points: 6
#     Node 2, Type 0, BuildingBlock: KUMBOL_clean_sbu_0, # of connection points: 6
#     Node 3, Type 0, BuildingBlock: KUMBOL_clean_sbu_0, # of connection points: 6
#     Node 4, Type 0, BuildingBlock: KUMBOL_clean_sbu_0, # of connection points: 6
#     Node 5, Type 0, BuildingBlock: KUMBOL_clean_sbu_0, # of connection points: 6
#     Node 6, Type 0, BuildingBlock: KUMBOL_clean_sbu_0, # of connection points: 6
#     Node 7, Type 0, BuildingBlock: KUMBOL_clean_sbu_0, # of connection points: 6
#     Node 8, Type 0, BuildingBlock: KUMBOL_clean_sbu_0, # of connection points: 6
#     Node 9, Type 0, BuildingBlock: KUMBOL_clean_sbu_0, # of connection points: 6
#     Node 10, Type 0, BuildingBlock: KUMBOL_clean_sbu_0, # of connection points: 6
#     Node 11, Type 0, BuildingBlock: KUMBOL_clean_sbu_0, # of connection points: 6
#     Edge 12, Type (0, 0), BuildingBlock: MIFKUJ_clean_linker_0, # of connection points: 2
#     Edge 13, Type (0, 0), BuildingBlock: MIFKUJ_clean_linker_0, # of connection points: 2
#     Edge 14, Type (0, 0), BuildingBlock: MIFKUJ_clean_linker_0, # of connection points: 2
#     Edge 15, Type (0, 0), BuildingBlock: MIFKUJ_clean_linker_0, # of connection points: 2
#     Edge 16, Type (0, 0), BuildingBlock: MIFKUJ_clean_linker_0, # of connection points: 2
#     Edge 17, Type (0, 0), BuildingBlock: MIFKUJ_clean_linker_0, # of connection points: 2
#     Edge 18, Type (0, 0), BuildingBlock: MIFKUJ_clean_linker_0, # of connection points: 2
#     Edge 19, Type (0, 0), BuildingBlock: MIFKUJ_clean_linker_0, # of connection points: 2
#     Edge 20, Type (0, 0), BuildingBlock: MIFKUJ_clean_linker_0, # of connection points: 2
#     Edge 21, Type (0, 0), BuildingBlock: MIFKUJ_clean_linker_0, # of connection points: 2
#     Edge 22, Type (0, 0), BuildingBlock: MIFKUJ_clean_linker_0, # of connection points: 2
#     Edge 23, Type (0, 0), BuildingBlock: MIFKUJ_clean_linker_0, # of connection points: 2
#     Edge 24, Type (0, 0), BuildingBlock: MIFKUJ_clean_linker_0, # of connection points: 2
#     Edge 25, Type (0, 0), BuildingBlock: MIFKUJ_clean_linker_0, # of connection points: 2
#     Edge 26, Type (0, 0), BuildingBlock: MIFKUJ_clean_linker_0, # of connection points: 2
#     Edge 27, Type (0, 0), BuildingBlock: MIFKUJ_clean_linker_0, # of connection points: 2
#     Edge 28, Type (0, 0), BuildingBlock: MIFKUJ_clean_linker_0, # of connection points: 2
#     Edge 29, Type (0, 0), BuildingBlock: MIFKUJ_clean_linker_0, # of connection points: 2
#     Edge 30, Type (0, 0), BuildingBlock: MIFKUJ_clean_linker_0, # of connection points: 2
#     Edge 31, Type (0, 0), BuildingBlock: MIFKUJ_clean_linker_0, # of connection points: 2
#     Edge 32, Type (0, 0), BuildingBlock: MIFKUJ_clean_linker_0, # of connection points: 2
#     Edge 33, Type (0, 0), BuildingBlock: MIFKUJ_clean_linker_0, # of connection points: 2
#     Edge 34, Type (0, 0), BuildingBlock: MIFKUJ_clean_linker_0, # of connection points: 2
#     Edge 35, Type (0, 0), BuildingBlock: MIFKUJ_clean_linker_0, # of connection points: 2
#     Edge 36, Type (0, 0), BuildingBlock: MIFKUJ_clean_linker_0, # of connection points: 2
#     Edge 37, Type (0, 0), BuildingBlock: MIFKUJ_clean_linker_0, # of connection points: 2
#     Edge 38, Type (0, 0), BuildingBlock: MIFKUJ_clean_linker_0, # of connection points: 2
#     Edge 39, Type (0, 0), BuildingBlock: MIFKUJ_clean_linker_0, # of connection points: 2
#     Edge 40, Type (0, 0), BuildingBlock: MIFKUJ_clean_linker_0, # of connection points: 2
#     Edge 41, Type (0, 0), BuildingBlock: MIFKUJ_clean_linker_0, # of connection points: 2
#     Edge 42, Type (0, 0), BuildingBlock: MIFKUJ_clean_linker_0, # of connection points: 2
#     Edge 43, Type (0, 0), BuildingBlock: MIFKUJ_clean_linker_0, # of connection points: 2
#     Edge 44, Type (0, 0), BuildingBlock: MIFKUJ_clean_linker_0, # of connection points: 2
#     Edge 45, Type (0, 0), BuildingBlock: MIFKUJ_clean_linker_0, # of connection points: 2
#     Edge 46, Type (0, 0), BuildingBlock: MIFKUJ_clean_linker_0, # of connection points: 2
#     Edge 47, Type (0, 0), BuildingBlock: MIFKUJ_clean_linker_0, # of connection points: 2
# Relax obj value: 0.117
# Max RMSD: 0.279
# Mean RMSD: 0.278
data_MOF--net-lcy-e--node1-KUMBOL_clean_sbu_0--edge1-MIFKUJ_clean_linker_0
_symmetry_space_group_name_H-M    P1
_symmetry_Int_Tables_number       1
_symmetry_cell_setting            triclinic
loop_
_symmetry_equiv_pos_as_xyz
'x, y, z'
_cell_length_a     53.944485
_cell_length_b     53.977605
_cell_length_c     53.954337
_cell_angle_alpha  89.437413
_cell_angle_beta   90.334958
_cell_angle_gamma 90.76735
loop_
_atom_site_label
_atom_site_type_symbol
_atom_site_fract_x
_atom_site_fract_y
_atom_site_fract_z
_atom_type_partial_charge
Gd0 Gd 0.12903 0.25622 0.47602 0.0
Gd1 Gd 0.15221 0.21128 0.52306 0.0
C2 C 0.22942 0.22051 0.55762 0.0
C3 C 0.25114 0.18506 0.54138 0.0
C4 C 0.20806 0.19206 0.53019 0.0
C5 C 0.20801 0.21322 0.54427 0.0
C6 C 0.22949 0.17748 0.52884 0.0
C7 C 0.25112 0.20656 0.55573 0.0
C8 C 0.22812 0.24113 0.57303 0.0
C9 C 0.20561 0.25328 0.57555 0.0
N10 N 0.18657 0.22588 0.54607 0.0
C11 C 0.18484 0.24502 0.56222 0.0
H12 H 0.16754 0.25429 0.5645 0.0
C13 C 0.18536 0.16351 0.50573 0.0
N14 N 0.18682 0.18544 0.5182 0.0
C15 C 0.20616 0.14848 0.50375 0.0
C16 C 0.2284 0.15559 0.51518 0.0
H17 H 0.16826 0.1577 0.49697 0.0
H18 H 0.26779 0.21195 0.56571 0.0
H19 H 0.13953 0.21154 0.43053 0.0
H20 H 0.24415 0.2474 0.58354 0.0
H21 H 0.2042 0.26892 0.58784 0.0
H22 H 0.26786 0.17422 0.54043 0.0
H23 H 0.08783 0.29832 0.49666 0.0
H24 H 0.07144 0.19646 0.39416 0.0
H25 H 0.1162 0.18959 0.39948 0.0
H26 H 0.01372 0.24969 0.43238 0.0
H27 H 0.20501 0.13138 0.49348 0.0
H28 H 0.24447 0.14388 0.51366 0.0
H29 H 0.03353 0.2184 0.40683 0.0
H30 H 0.04374 0.30752 0.4922 0.0
N31 N 0.1089 0.23261 0.44416 0.0
C32 C 0.08173 0.20681 0.40803 0.0
C33 C 0.10695 0.20289 0.41099 0.0
C34 C 0.07005 0.22402 0.42293 0.0
C35 C 0.08424 0.23705 0.44089 0.0
C36 C 0.12028 0.21588 0.42905 0.0
N37 N 0.08666 0.267 0.47263 0.0
C38 C 0.07287 0.2545 0.45559 0.0
C39 C 0.05154 0.29229 0.48206 0.0
C40 C 0.03673 0.27839 0.46609 0.0
C41 C 0.07659 0.28668 0.48473 0.0
C42 C 0.04737 0.25957 0.45227 0.0
H43 H 0.01729 0.28282 0.46399 0.0
O44 O 0.13048 0.2965 0.47533 0.0
O45 O 0.15216 0.25098 0.51034 0.0
O46 O 0.12941 0.23937 0.5427 0.0
O47 O 0.10915 0.26346 0.51276 0.0
O48 O 0.16808 0.2704 0.48188 0.0
O49 O 0.13764 0.27581 0.44172 0.0
O50 O 0.13433 0.17675 0.53531 0.0
O51 O 0.12184 0.22141 0.49678 0.0
O52 O 0.15951 0.23331 0.45942 0.0
O53 O 0.17974 0.21274 0.49203 0.0
O54 O 0.13259 0.18503 0.49681 0.0
O55 O 0.14416 0.20456 0.56201 0.0
C56 C 0.1711 0.26381 0.5046 0.0
C57 C 0.03331 0.24619 0.43491 0.0
C58 C 0.04461 0.22845 0.42031 0.0
C59 C 0.13572 0.29765 0.45169 0.0
C60 C 0.12466 0.31756 0.4363 0.0
C61 C 0.1045 0.33123 0.44472 0.0
C62 C 0.13582 0.32429 0.41354 0.0
C63 C 0.12694 0.34446 0.39931 0.0
C64 C 0.09549 0.35103 0.43073 0.0
C65 C 0.10662 0.3577 0.40833 0.0
C66 C 0.11266 0.25585 0.53602 0.0
C67 C 0.11718 0.20057 0.48758 0.0
C68 C 0.13597 0.18202 0.5587 0.0
C69 C 0.14647 0.16264 0.57513 0.0
C70 C 0.17178 0.1634 0.58128 0.0
C71 C 0.13132 0.14342 0.58503 0.0
C72 C 0.14147 0.12553 0.60137 0.0
C73 C 0.18193 0.14552 0.59696 0.0
C74 C 0.16693 0.1268 0.60702 0.0
C75 C 0.17796 0.22002 0.46864 0.0
H76 H 0.09607 0.32717 0.4624 0.0
H77 H 0.15148 0.31385 0.40704 0.0
H78 H 0.08009 0.3616 0.43755 0.0
H79 H 0.09957 0.37364 0.39834 0.0
H80 H 0.18373 0.17797 0.57415 0.0
H81 H 0.11173 0.14273 0.5805 0.0
H82 H 0.20149 0.14628 0.60149 0.0
H83 H 0.17531 0.11315 0.61919 0.0
Gd84 Gd 0.0607 0.89374 0.78031 0.0
Gd85 Gd 0.01365 0.87363 0.73508 0.0
C86 C 0.96525 0.80617 0.75342 0.0
C87 C 0.97739 0.77702 0.72183 0.0
C88 C 0.99695 0.81779 0.72376 0.0
C89 C 0.98251 0.8236 0.7439 0.0
C90 C 0.99394 0.79479 0.71196 0.0
C91 C 0.96324 0.78262 0.74269 0.0
C92 C 0.94994 0.81325 0.77286 0.0
C93 C 0.95111 0.83759 0.78128 0.0
N94 N 0.98406 0.84691 0.75303 0.0
C95 C 0.96776 0.85456 0.77047 0.0
H96 H 0.96834 0.8735 0.77677 0.0
C97 C 0.02512 0.83171 0.693 0.0
N98 N 0.01276 0.83538 0.71466 0.0
C99 C 0.02252 0.80927 0.68048 0.0
C100 C 1.00683 0.79076 0.69 0.0
H101 H 0.03694 0.84615 0.68538 0.0
H102 H 0.95018 0.76894 0.74984 0.0
H103 H 0.11521 0.87652 0.75353 0.0
H104 H 0.93671 0.80033 0.78102 0.0
H105 H 0.93924 0.84319 0.79614 0.0
H106 H 0.97503 0.75911 0.71316 0.0
H107 H 0.04165 0.94011 0.81864 0.0
H108 H 0.15245 0.94105 0.7265 0.0
H109 H 0.14949 0.89557 0.73098 0.0
H110 H 0.10821 1.00692 0.76293 0.0
H111 H 0.03231 0.80643 0.66331 0.0
H112 H 1.00409 0.77377 0.67986 0.0
H113 H 0.13641 0.98246 0.73779 0.0
H114 H 0.0463 0.98497 0.82218 0.0
N115 N 0.0958 0.91042 0.75912 0.0
C116 C 0.13661 0.9327 0.7358 0.0
C117 C 0.13496 0.90706 0.73819 0.0
C118 C 0.11866 0.9473 0.74682 0.0
C119 C 0.09834 0.93553 0.75882 0.0
C120 C 0.11475 0.89624 0.75046 0.0
N121 N 0.06484 0.93729 0.78664 0.0
C122 C 0.08222 0.94938 0.77278 0.0
C123 C 0.05615 0.97533 0.80784 0.0
C124 C 0.07246 0.9882 0.79241 0.0
C125 C 0.05317 0.94977 0.80526 0.0
C126 C 0.08627 0.97522 0.77514 0.0
H127 H 0.07524 1.00794 0.79491 0.0
O128 O 0.06796 0.8999 0.81959 0.0
O129 O 0.02374 0.8746 0.77554 0.0
O130 O 0.99859 0.90607 0.755 0.0
O131 O 0.02436 0.91385 0.78896 0.0
O132 O 0.04911 0.85744 0.79789 0.0
O133 O 0.09112 0.87512 0.79899 0.0
O134 O 1.0061 0.88745 0.6978 0.0
O135 O 0.04356 0.90123 0.74362 0.0
O136 O 0.07472 0.864 0.75411 0.0
O137 O 0.0397 0.84217 0.74105 0.0
O138 O 0.04455 0.88588 0.70926 0.0
O139 O 0.97668 0.88566 0.72475 0.0
C140 C 0.02678 0.85605 0.78974 0.0
C141 C 0.10516 0.98709 0.76159 0.0
C142 C 0.12124 0.97317 0.74732 0.0
C143 C 0.08806 0.88663 0.81983 0.0
C144 C 0.11086 0.89775 0.83076 0.0
C145 C 0.1155 0.92333 0.8286 0.0
C146 C 0.12897 0.88257 0.8421 0.0
C147 C 0.15163 0.89292 0.85061 0.0
C148 C 0.13772 0.93362 0.83721 0.0
C149 C 0.15571 0.91858 0.84799 0.0
C150 C 1.0045 0.91865 0.77501 0.0
C151 C 0.05466 0.90254 0.72314 0.0
C152 C 0.98254 0.89027 0.70176 0.0
C153 C 0.96564 0.88046 0.68257 0.0
C154 C 0.95669 0.85597 0.68398 0.0
C155 C 0.95875 0.89555 0.66231 0.0
C156 C 0.94336 0.88607 0.64334 0.0
C157 C 0.94154 0.84646 0.66523 0.0
C158 C 0.93497 0.86132 0.64499 0.0
C159 C 0.06371 0.84392 0.74507 0.0
H160 H 0.10209 0.93543 0.82009 0.0
H161 H 0.12573 0.86275 0.84365 0.0
H162 H 0.1411 0.95337 0.83534 0.0
H163 H 0.17285 0.92706 0.85446 0.0
H164 H 0.96134 0.84422 0.69956 0.0
H165 H 0.9656 0.9145 0.66117 0.0
H166 H 0.93477 0.82752 0.66645 0.0
H167 H 0.92293 0.85359 0.63083 0.0
Gd168 Gd 0.379 0.80406 0.0248 0.0
Gd169 Gd 0.39928 0.75509 0.98123 0.0
C170 C 0.46555 0.70593 0.99889 0.0
C171 C 0.49434 0.71739 0.96616 0.0
C172 C 0.45413 0.73705 0.96848 0.0
C173 C 0.44851 0.72331 0.98944 0.0
C174 C 0.47671 0.73358 0.95605 0.0
C175 C 0.48883 0.7037 0.98767 0.0
C176 C 0.45816 0.6904 0.01845 0.0
C177 C 0.43379 0.69122 0.02683 0.0
N178 N 0.42542 0.72507 0.999 0.0
C179 C 0.41733 0.70813 0.01618 0.0
H180 H 0.39836 0.70807 0.02238 0.0
C181 C 0.43973 0.76337 0.93636 0.0
N182 N 0.43658 0.75226 0.95905 0.0
C183 C 0.46179 0.76047 0.9233 0.0
C184 C 0.48038 0.74553 0.93324 0.0
H185 H 0.42527 0.77476 0.92854 0.0
H186 H 0.50224 0.69064 0.99482 0.0
H187 H 0.39078 0.84626 0.97974 0.0
H188 H 0.47074 0.67698 0.02642 0.0
H189 H 0.42765 0.67883 0.04149 0.0
H190 H 0.51194 0.71473 0.95705 0.0
H191 H 0.34095 0.78704 0.07091 0.0
H192 H 0.32478 0.88691 0.96543 0.0
H193 H 0.36881 0.87866 0.95655 0.0
H194 H 0.26774 0.85465 0.02572 0.0
H195 H 0.46433 0.7695 0.90548 0.0
H196 H 0.49712 0.74262 0.92277 0.0
H197 H 0.28707 0.87759 0.99109 0.0
H198 H 0.29809 0.7949 0.08459 0.0
N199 N 0.35958 0.83579 1.00174 0.0
C200 C 0.3344 0.8727 0.97586 0.0
C201 C 0.35925 0.86811 0.97082 0.0
C202 C 0.3224 0.85919 0.99462 0.0
C203 C 0.33574 0.84079 1.00757 0.0
C204 C 0.37168 0.84966 0.98414 0.0
N205 N 0.33844 0.81066 0.0392 0.0
C206 C 0.32479 0.82772 0.02681 0.0
C207 C 0.30527 0.80409 0.06817 0.0
C208 C 0.2905 0.82054 0.05473 0.0
C209 C 0.32946 0.79964 0.06036 0.0
C210 C 0.30031 0.83289 0.03399 0.0
H211 H 0.27179 0.82404 0.06087 0.0
O212 O 0.3873 0.813 0.06321 0.0
O213 O 0.40495 0.77241 0.01907 0.0
O214 O 0.37046 0.74004 1.00761 0.0
O215 O 0.34949 0.77354 0.02482 0.0
O216 O 0.38792 0.7757 0.05363 0.0
O217 O 0.39755 0.83898 0.0343 0.0
O218 O 0.38593 0.74554 0.94417 0.0
O219 O 0.37295 0.78517 0.98908 0.0
O220 O 0.41352 0.81642 1.00318 0.0
O221 O 0.43004 0.7834 0.98095 0.0
O222 O 0.38456 0.78302 0.95319 0.0
O223 O 0.38088 0.71966 0.97444 0.0
C224 C 0.40308 0.76286 0.04078 0.0
C225 C 0.28666 0.85061 0.02067 0.0
C226 C 0.29768 0.86372 1.00099 0.0
C227 C 0.39625 0.83502 0.05812 0.0
C228 C 0.38738 0.85571 0.07357 0.0
C229 C 0.36246 0.85638 0.08086 0.0
C230 C 0.40387 0.87456 0.08182 0.0
C231 C 0.39538 0.89339 0.0976 0.0
C232 C 0.35408 0.87501 0.0963 0.0
C233 C 0.37041 0.8933 0.10474 0.0
C234 C 0.35164 0.7497 0.01958 0.0
C235 C 0.36983 0.79435 0.9678 0.0
C236 C 0.37867 0.72332 0.95059 0.0
C237 C 0.38641 0.70282 0.93435 0.0
C238 C 0.40793 0.68962 0.94019 0.0
C239 C 0.3722 0.69593 0.91326 0.0
C240 C 0.37927 0.67556 0.89864 0.0
C241 C 0.41511 0.66979 0.92566 0.0
C242 C 0.4009 0.66272 0.90518 0.0
C243 C 0.43072 0.80638 0.98906 0.0
H244 H 0.34941 0.84242 0.07489 0.0
H245 H 0.42317 0.87437 0.07638 0.0
H246 H 0.33482 0.87519 0.10183 0.0
H247 H 0.36349 0.90759 0.11675 0.0
H248 H 0.41911 0.69447 0.95616 0.0
H249 H 0.35549 0.70594 0.90861 0.0
H250 H 0.43173 0.65973 0.93041 0.0
H251 H 0.40694 0.6472 0.89427 0.0
Gd252 Gd 0.47406 0.12041 0.2662 0.0
Gd253 Gd 0.52127 0.15137 0.22614 0.0
C254 C 0.56598 0.22095 0.24507 0.0
C255 C 0.54724 0.25181 0.21798 0.0
C256 C 0.53243 0.20908 0.21738 0.0
C257 C 0.54937 0.20288 0.23573 0.0
C258 C 0.53138 0.23354 0.20806 0.0
C259 C 0.56451 0.24552 0.23642 0.0
C260 C 0.58402 0.21362 0.26229 0.0
C261 C 0.58565 0.18869 0.26917 0.0
N262 N 0.55043 0.17893 0.24354 0.0
C263 C 0.56879 0.17146 0.25935 0.0
H264 H 0.5703 0.15223 0.26476 0.0
C265 C 0.50202 0.19567 0.18851 0.0
N266 N 0.51745 0.19096 0.20812 0.0
C267 C 0.50017 0.21969 0.17878 0.0
C268 C 0.51474 0.23877 0.18875 0.0
H269 H 0.4906 0.18104 0.18082 0.0
H270 H 0.57699 0.2597 0.24351 0.0
H271 H 0.4309 0.12667 0.22125 0.0
H272 H 0.59712 0.22693 0.26992 0.0
H273 H 0.59987 0.18273 0.28203 0.0
H274 H 0.54661 0.27074 0.21117 0.0
H275 H 0.49528 0.08495 0.3122 0.0
H276 H 0.39538 0.05652 0.20972 0.0
H277 H 0.40028 0.10098 0.19911 0.0
H278 H 0.43277 1.00419 0.27135 0.0
H279 H 0.4875 0.22349 0.16363 0.0
H280 H 0.51332 0.25735 0.18114 0.0
H281 H 0.40776 0.02043 0.23665 0.0
H282 H 0.49127 0.04177 0.32745 0.0
N283 N 0.44394 0.09713 0.24413 0.0
C284 C 0.40889 0.06776 0.21962 0.0
C285 C 0.4116 0.09283 0.21359 0.0
C286 C 0.42338 0.05758 0.23863 0.0
C287 C 0.44082 0.073 0.25079 0.0
C288 C 0.42907 0.10738 0.22629 0.0
N289 N 0.4712 0.07942 0.28135 0.0
C290 C 0.45511 0.06378 0.26989 0.0
C291 C 0.48113 0.04764 0.3111 0.0
C292 C 0.46564 0.03093 0.29864 0.0
C293 C 0.48339 0.07205 0.30239 0.0
C294 C 0.45208 0.039 0.27796 0.0
H295 H 0.46383 0.01205 0.30546 0.0
O296 O 0.4636 0.12791 0.30408 0.0
O297 O 0.50438 0.14876 0.26393 0.0
O298 O 0.53843 0.12237 0.25057 0.0
O299 O 0.5072 0.09444 0.26334 0.0
O300 O 0.4997 0.13 0.29743 0.0
O301 O 0.4384 0.13694 0.27405 0.0
O302 O 0.52979 0.14042 0.1886 0.0
O303 O 0.49368 0.12092 0.2306 0.0
O304 O 0.45934 0.15311 0.24286 0.0
O305 O 0.4932 0.17939 0.23649 0.0
O306 O 0.49431 0.13741 0.19642 0.0
O307 O 0.55883 0.14101 0.21645 0.0
C308 C 0.51258 0.14681 0.28607 0.0
C309 C 0.43521 0.02335 0.26558 0.0
C310 C 0.42091 0.03261 0.24589 0.0
C311 C 0.4416 0.13562 0.29798 0.0
C312 C 0.42094 0.12518 0.31249 0.0
C313 C 0.41908 0.09959 0.31713 0.0
C314 C 0.40342 0.14107 0.3227 0.0
C315 C 0.38455 0.13147 0.33801 0.0
C316 C 0.40018 0.08999 0.33207 0.0
C317 C 0.38308 0.10584 0.34263 0.0
C318 C 0.53083 0.10036 0.25873 0.0
C319 C 0.48467 0.11941 0.20914 0.0
C320 C 0.55328 0.13742 0.19317 0.0
C321 C 0.57017 0.14796 0.17443 0.0
C322 C 0.57682 0.17316 0.17475 0.0
C323 C 0.57815 0.13304 0.15484 0.0
C324 C 0.59218 0.14341 0.13532 0.0
C325 C 0.59101 0.18343 0.15559 0.0
C326 C 0.59849 0.16874 0.13588 0.0
C327 C 0.46912 0.1754 0.2382 0.0
H328 H 0.43234 0.08703 0.30954 0.0
H329 H 0.40481 0.16087 0.31927 0.0
H330 H 0.39891 0.07025 0.33563 0.0
H331 H 0.36855 0.09808 0.35424 0.0
H332 H 0.57079 0.18492 0.1896 0.0
H333 H 0.57282 0.11361 0.15438 0.0
H334 H 0.59601 0.20291 0.15588 0.0
H335 H 0.60937 0.17711 0.12112 0.0
Gd336 Gd 0.65205 0.30414 0.50673 0.0
Gd337 Gd 0.63188 0.25399 0.54943 0.0
C338 C 0.55772 0.21512 0.53326 0.0
C339 C 0.53283 0.2271 0.5685 0.0
C340 C 0.57559 0.24137 0.56491 0.0
C341 C 0.57775 0.22929 0.54267 0.0
C342 C 0.55345 0.23964 0.57861 0.0
C343 C 0.53495 0.21487 0.54581 0.0
C344 C 0.56161 0.2006 0.51233 0.0
C345 C 0.58531 0.19953 0.50216 0.0
N346 N 0.60023 0.22935 0.53158 0.0
C347 C 0.60458 0.21383 0.51233 0.0
H348 H 0.6228 0.21279 0.50444 0.0
C349 C 0.59625 0.26149 0.59797 0.0
N350 N 0.59598 0.25311 0.57413 0.0
C351 C 0.57479 0.26003 0.61241 0.0
C352 C 0.55313 0.24952 0.6025 0.0
H353 H 0.61292 0.26962 0.60573 0.0
H354 H 0.51923 0.20441 0.53868 0.0
H355 H 0.6327 0.34978 0.54814 0.0
H356 H 0.54673 0.18941 0.50453 0.0
H357 H 0.58875 0.18777 0.48645 0.0
H358 H 0.5155 0.22592 0.57851 0.0
H359 H 0.69932 0.28946 0.46824 0.0
H360 H 0.69656 0.38705 0.57532 0.0
H361 H 0.65132 0.38032 0.57475 0.0
H362 H 0.7633 0.35321 0.52993 0.0
H363 H 0.57494 0.26712 0.6311 0.0
H364 H 0.53654 0.24844 0.61369 0.0
H365 H 0.738 0.37653 0.55897 0.0
H366 H 0.74415 0.29592 0.46553 0.0
N367 N 0.66699 0.33671 0.53304 0.0
C368 C 0.68852 0.3731 0.56329 0.0
C369 C 0.66302 0.36928 0.56307 0.0
C370 C 0.70331 0.35921 0.54768 0.0
C371 C 0.69194 0.34114 0.53232 0.0
C372 C 0.6525 0.35125 0.54773 0.0
N373 N 0.6952 0.31081 0.5012 0.0
C374 C 0.70638 0.32772 0.51617 0.0
C375 C 0.73388 0.30464 0.48018 0.0
C376 C 0.74599 0.32014 0.49689 0.0
C377 C 0.70834 0.30071 0.48216 0.0
C378 C 0.73222 0.33243 0.51472 0.0
H379 H 0.7658 0.32327 0.49525 0.0
O380 O 0.65463 0.30503 0.4666 0.0
O381 O 0.63114 0.26824 0.51022 0.0
O382 O 0.65776 0.23694 0.52212 0.0
O383 O 0.67301 0.2688 0.49649 0.0
O384 O 0.61347 0.29635 0.49221 0.0
O385 O 0.64525 0.33889 0.48645 0.0
O386 O 0.65009 0.24216 0.58382 0.0
O387 O 0.66106 0.28274 0.54094 0.0
O388 O 0.61813 0.31713 0.52746 0.0
O389 O 0.60299 0.28384 0.5515 0.0
O390 O 0.64771 0.28143 0.57669 0.0
O391 O 0.64189 0.21548 0.55564 0.0
C392 C 0.61199 0.27305 0.49742 0.0
C393 C 0.74348 0.34969 0.53058 0.0
C394 C 0.72907 0.36302 0.54704 0.0
C395 C 0.64887 0.3284 0.4651 0.0
C396 C 0.64735 0.34178 0.4409 0.0
C397 C 0.65615 0.33007 0.41959 0.0
C398 C 0.6363 0.36541 0.43839 0.0
C399 C 0.63359 0.37657 0.41466 0.0
C400 C 0.65383 0.34125 0.39633 0.0
C401 C 0.64252 0.36419 0.39383 0.0
C402 C 0.67258 0.24541 0.50451 0.0
C403 C 0.66372 0.29182 0.56227 0.0
C404 C 0.64924 0.21879 0.5784 0.0
C405 C 0.63819 0.20202 0.59739 0.0
C406 C 0.61317 0.19488 0.59522 0.0
C407 C 0.65217 0.19337 0.61793 0.0
C408 C 0.64102 0.1778 0.63616 0.0
C409 C 0.60194 0.18022 0.61338 0.0
C410 C 0.61559 0.17191 0.63372 0.0
C411 C 0.60172 0.30686 0.54285 0.0
H412 H 0.66474 0.31207 0.42085 0.0
H413 H 0.62922 0.37468 0.45454 0.0
H414 H 0.66066 0.33197 0.38009 0.0
H415 H 0.6408 0.3724 0.37549 0.0
H416 H 0.60221 0.20066 0.57947 0.0
H417 H 0.67162 0.19844 0.61944 0.0
H418 H 0.5825 0.17525 0.61167 0.0
H419 H 0.60606 0.16085 0.64764 0.0
Gd420 Gd 0.01541 0.38703 0.80763 0.0
Gd421 Gd 0.96977 0.40185 0.75983 0.0
C422 C 0.99977 0.46157 0.7074 0.0
C423 C 0.97192 0.49569 0.71494 0.0
C424 C 0.96643 0.45654 0.737 0.0
C425 C 0.98678 0.44706 0.72503 0.0
C426 C 0.95809 0.48056 0.73123 0.0
C427 C 0.9928 0.48623 0.70311 0.0
C428 C 0.01855 0.45048 0.69375 0.0
C429 C 0.02306 0.42522 0.69697 0.0
N430 N 0.99244 0.42293 0.72897 0.0
C431 C 1.00948 0.41156 0.71453 0.0
H432 H 0.01301 0.3921 0.71691 0.0
C433 C 0.93018 0.44774 0.7601 0.0
N434 N 0.95327 0.44129 0.75229 0.0
C435 C 0.92107 0.47138 0.75486 0.0
C436 C 0.93538 0.48809 0.74087 0.0
H437 H 0.91923 0.43484 0.77108 0.0
H438 H 1.00275 0.49778 0.68986 0.0
H439 H 0.97391 0.40087 0.85406 0.0
H440 H 0.02901 0.46099 0.68006 0.0
H441 H 0.03704 0.41628 0.68601 0.0
H442 H 0.96605 0.51435 0.71057 0.0
H443 H 0.05588 0.34353 0.78701 0.0
H444 H 0.96292 0.33651 0.8984 0.0
H445 H 0.95457 0.38045 0.88914 0.0
H446 H 0.01154 0.27504 0.86003 0.0
H447 H 0.90312 0.47672 0.76171 0.0
H448 H 0.92826 0.50636 0.73677 0.0
H449 H 0.98287 0.29726 0.88672 0.0
H450 H 0.06409 0.29961 0.79311 0.0
N451 N 0.99358 0.36898 0.84175 0.0
C452 C 0.97134 0.34535 0.88239 0.0
C453 C 0.96677 0.37014 0.87731 0.0
C454 C 0.98703 0.33224 0.86702 0.0
C455 C 0.99841 0.34474 0.84681 0.0
C456 C 0.9781 0.38174 0.85701 0.0
N457 N 0.02588 0.34459 0.81282 0.0
C458 C 0.01466 0.33216 0.83177 0.0
C459 C 0.04975 0.30833 0.80378 0.0
C460 C 0.03711 0.29494 0.82197 0.0
C461 C 0.04436 0.33328 0.79988 0.0
C462 C 0.01977 0.3069 0.83661 0.0
H463 H 0.04151 0.27563 0.82515 0.0
O464 O 0.05571 0.3864 0.80956 0.0
O465 O 1.01027 0.40477 0.77017 0.0
O466 O 0.98657 0.36491 0.75254 0.0
O467 O 0.02501 0.36867 0.77103 0.0
O468 O 0.02728 0.42575 0.79701 0.0
O469 O 0.03478 0.4009 0.84021 0.0
O470 O 0.93178 0.39046 0.75112 0.0
O471 O 0.97866 0.37659 0.79141 0.0
O472 O 0.99249 0.41909 0.82119 0.0
O473 O 0.96916 0.43316 0.7873 0.0
O474 O 0.94372 0.39197 0.79101 0.0
O475 O 0.96034 0.38607 0.72393 0.0
C476 C 0.02216 0.42492 0.77372 0.0
C477 C 1.00793 0.29441 0.85622 0.0
C478 C 0.99167 0.30708 0.87144 0.0
C479 C 0.05664 0.39522 0.83199 0.0
C480 C 0.07388 0.38372 0.85008 0.0
C481 C 0.08401 0.36029 0.84591 0.0
C482 C 0.08076 0.39666 0.87173 0.0
C483 C 0.09687 0.38586 0.88926 0.0
C484 C 0.0999 0.34956 0.86332 0.0
C485 C 0.10616 0.36215 0.88496 0.0
C486 C 1.00986 0.35837 0.75458 0.0
C487 C 0.95781 0.37605 0.80204 0.0
C488 C 0.93672 0.38418 0.7285 0.0
C489 C 0.91963 0.39337 0.70905 0.0
C490 C 0.92297 0.41723 0.69896 0.0
C491 C 0.89955 0.3785 0.7007 0.0
C492 C 0.88272 0.3878 0.68288 0.0
C493 C 0.90632 0.42645 0.68139 0.0
C494 C 0.88624 0.41193 0.67351 0.0
C495 C 0.97747 0.43521 0.81033 0.0
H496 H 0.07993 0.35027 0.82917 0.0
H497 H 0.07346 0.41494 0.87502 0.0
H498 H 0.10748 0.33144 0.85996 0.0
H499 H 0.1186 0.35354 0.89823 0.0
H500 H 0.93844 0.42875 0.70463 0.0
H501 H 0.89685 0.35998 0.70824 0.0
H502 H 0.909 0.44495 0.67386 0.0
H503 H 0.87354 0.41945 0.65983 0.0
Gd504 Gd 0.87099 0.72439 0.01459 0.0
Gd505 Gd 0.88936 0.77125 0.05975 0.0
C506 C 0.95566 0.81868 0.03564 0.0
C507 C 0.98667 0.80794 0.06666 0.0
C508 C 0.94568 0.78869 0.06791 0.0
C509 C 0.93884 0.80184 0.04685 0.0
C510 C 0.9693 0.79245 0.07867 0.0
C511 C 0.97988 0.82098 0.04512 0.0
C512 C 0.9473 0.83347 0.0159 0.0
C513 C 0.92248 0.83191 1.00847 0.0
N514 N 0.91505 0.79985 0.03873 0.0
C515 C 0.90644 0.81515 0.02042 0.0
H516 H 0.88732 0.81409 0.01464 0.0
C517 C 0.9322 0.76561 0.10296 0.0
N518 N 0.92823 0.77444 0.07943 0.0
C519 C 0.95537 0.76877 0.11437 0.0
C520 C 0.97419 0.78177 0.10193 0.0
H521 H 0.91762 0.75555 0.11254 0.0
H522 H 0.99316 0.83358 0.03656 0.0
H523 H 0.88613 0.67737 0.05683 0.0
H524 H 0.95965 0.84658 1.00674 0.0
H525 H 0.91569 0.84358 0.99355 0.0
H526 H 1.00504 0.81077 0.07443 0.0
H527 H 0.82593 0.74515 0.97545 0.0
H528 H 0.82047 0.63764 0.07485 0.0
H529 H 0.86544 0.64473 0.07961 0.0
H530 H 0.75778 0.67543 0.02546 0.0
H531 H 0.9587 0.76116 0.1327 0.0
H532 H 0.99206 0.78433 0.11087 0.0
H533 H 0.78069 0.64921 0.05479 0.0
H534 H 0.78135 0.74024 0.96923 0.0
N535 N 0.85345 0.69082 0.03828 0.0
C536 C 0.8295 0.65239 0.06438 0.0
C537 C 0.85484 0.65638 0.06715 0.0
C538 C 0.81613 0.66733 0.04801 0.0
C539 C 0.82872 0.68649 0.03484 0.0
C540 C 0.86657 0.67548 0.05387 0.0
N541 N 0.82796 0.7199 1.00616 0.0
C542 C 0.81566 0.70151 0.01853 0.0
C543 C 0.7906 0.72958 0.98357 0.0
C544 C 0.77741 0.71204 0.99738 0.0
C545 C 0.81597 0.73288 0.98782 0.0
C546 C 0.78994 0.6974 0.01473 0.0
H547 H 0.75775 0.70939 0.99394 0.0
O548 O 0.86742 0.7212 0.97448 0.0
O549 O 0.89173 0.76032 0.01971 0.0
O550 O 0.85568 0.78417 0.03908 0.0
O551 O 0.85505 0.76213 1.00239 0.0
O552 O 0.91003 0.73252 1.00237 0.0
O553 O 0.88416 0.69167 0.99603 0.0
O554 O 0.87643 0.7808 0.09667 0.0
O555 O 0.86123 0.74219 0.05024 0.0
O556 O 0.90342 0.70965 0.03703 0.0
O557 O 0.91897 0.74207 0.06123 0.0
O558 O 0.87536 0.74141 0.08598 0.0
O559 O 0.87764 0.80869 0.06797 0.0
C560 C 0.91153 0.75553 1.00816 0.0
C561 C 0.7775 0.67864 0.02804 0.0
C562 C 0.79055 0.66367 0.04466 0.0
C563 C 0.87717 0.69919 0.97412 0.0
C564 C 0.86595 0.68019 0.95785 0.0
C565 C 0.84054 0.67999 0.95221 0.0
C566 C 0.88122 0.66197 0.94759 0.0
C567 C 0.87127 0.64396 0.93146 0.0
C568 C 0.83055 0.6621 0.93641 0.0
C569 C 0.84575 0.64427 0.92601 0.0
C570 C 0.84814 0.78128 0.01601 0.0
C571 C 0.85908 0.73174 0.07121 0.0
C572 C 0.87386 0.80418 0.09139 0.0
C573 C 0.88525 0.82184 0.10906 0.0
C574 C 0.91012 0.82907 0.10624 0.0
C575 C 0.87152 0.83147 0.1289 0.0
C576 C 0.88284 0.84791 0.146 0.0
C577 C 0.92165 0.84444 0.12345 0.0
C578 C 0.90829 0.85356 0.14329 0.0
C579 C 0.92008 0.71932 0.05244 0.0
H580 H 0.8284 0.69361 0.95989 0.0
H581 H 0.9009 0.66209 0.95182 0.0
H582 H 0.81091 0.66206 0.93217 0.0
H583 H 0.83747 0.63051 0.91393 0.0
H584 H 0.92069 0.82292 0.0907 0.0
H585 H 0.85207 0.82653 0.13064 0.0
H586 H 0.94104 0.84939 0.12134 0.0
H587 H 0.91803 0.86516 0.1565 0.0
Gd588 Gd 0.55291 0.62388 0.25903 0.0
Gd589 Gd 0.50679 0.63846 0.30608 0.0
C590 C 0.46261 0.70645 0.28276 0.0
C591 C 0.47458 0.73637 0.31414 0.0
C592 C 0.49086 0.69461 0.3156 0.0
C593 C 0.47796 0.68878 0.2943 0.0
C594 C 0.48847 0.71811 0.32643 0.0
C595 C 0.46175 0.73058 0.29223 0.0
C596 C 0.4477 0.69896 0.26284 0.0
C597 C 0.44726 0.67408 0.256 0.0
N598 N 0.47851 0.66505 0.28635 0.0
C599 C 0.46239 0.65712 0.26849 0.0
H600 H 0.46193 0.63793 0.26311 0.0
C601 C 0.5118 0.67929 0.35096 0.0
N602 N 0.50364 0.67635 0.32711 0.0
C603 C 0.50998 0.7023 0.36253 0.0
C604 C 0.49886 0.72201 0.34992 0.0
H605 H 0.52074 0.66415 0.36058 0.0
H606 H 0.45031 0.74452 0.28343 0.0
H607 H 0.60699 0.63704 0.29132 0.0
H608 H 0.43584 0.71199 0.25322 0.0
H609 H 0.43573 0.66808 0.24076 0.0
H610 H 0.47275 0.75465 0.32198 0.0
H611 H 0.52963 0.58096 0.21849 0.0
H612 H 0.63926 0.56898 0.31361 0.0
H613 H 0.63875 0.61468 0.31394 0.0
H614 H 0.59134 0.50788 0.27079 0.0
H615 H 0.51729 0.70484 0.38106 0.0
H616 H 0.49742 0.73979 0.35891 0.0
H617 H 0.62124 0.52935 0.29781 0.0
H618 H 0.53019 0.53612 0.21302 0.0
N619 N 0.5869 0.60455 0.2796 0.0
C620 C 0.6247 0.57873 0.30382 0.0
C621 C 0.62438 0.60449 0.30416 0.0
C622 C 0.60678 0.5659 0.29007 0.0
C623 C 0.5881 0.57948 0.27765 0.0
C624 C 0.60564 0.61715 0.29157 0.0
N625 N 0.55432 0.58097 0.24976 0.0
C626 C 0.57116 0.56735 0.26255 0.0
C627 C 0.54144 0.54454 0.22741 0.0
C628 C 0.55697 0.53003 0.24204 0.0
C629 C 0.54082 0.5701 0.23107 0.0
C630 C 0.57262 0.54143 0.25934 0.0
H631 H 0.55758 0.51022 0.23902 0.0
O632 O 0.55481 0.62356 0.2187 0.0
O633 O 0.51742 0.64399 0.26586 0.0
O634 O 0.49336 0.60574 0.28386 0.0
O635 O 0.51471 0.60932 0.24673 0.0
O636 O 0.54612 0.66404 0.25044 0.0
O637 O 0.58582 0.63783 0.24002 0.0
O638 O 0.49784 0.62398 0.34303 0.0
O639 O 0.53595 0.6118 0.29485 0.0
O640 O 0.56896 0.65304 0.28461 0.0
O641 O 0.53723 0.66735 0.30988 0.0
O642 O 0.53737 0.62439 0.33093 0.0
O643 O 0.46991 0.62399 0.31456 0.0
C644 C 0.52286 0.66462 0.25548 0.0
C645 C 0.59026 0.5278 0.27273 0.0
C646 C 0.60732 0.54003 0.28805 0.0
C647 C 0.5773 0.6328 0.21801 0.0
C648 C 0.5951 0.62276 0.1999 0.0
C649 C 0.59083 0.59964 0.18885 0.0
C650 C 0.61595 0.63718 0.19242 0.0
C651 C 0.63189 0.62878 0.17368 0.0
C652 C 0.60672 0.59118 0.17054 0.0
C653 C 0.62696 0.60567 0.16286 0.0
C654 C 0.49622 0.60011 0.26032 0.0
C655 C 0.54713 0.60939 0.31541 0.0
C656 C 0.47458 0.62003 0.33795 0.0
C657 C 0.45633 0.62968 0.35581 0.0
C658 C 0.44644 0.65335 0.35202 0.0
C659 C 0.44813 0.61522 0.37634 0.0
C660 C 0.42974 0.62431 0.39241 0.0
C661 C 0.42869 0.66249 0.36808 0.0
C662 C 0.42028 0.64808 0.38799 0.0
C663 C 0.56014 0.66839 0.30129 0.0
H664 H 0.57505 0.58821 0.1941 0.0
H665 H 0.61936 0.65515 0.20066 0.0
H666 H 0.6032 0.57337 0.16207 0.0
H667 H 0.63892 0.59875 0.14849 0.0
H668 H 0.45223 0.66471 0.33644 0.0
H669 H 0.45552 0.59688 0.37943 0.0
H670 H 0.42122 0.68078 0.36493 0.0
H671 H 0.40635 0.65559 0.4001 0.0
Gd672 Gd 0.26234 0.46237 0.12892 0.0
Gd673 Gd 0.2183 0.50996 0.14631 0.0
C674 C 0.254 0.5559 0.20791 0.0
C675 C 0.22931 0.54396 0.24372 0.0
C676 C 0.21948 0.52725 0.20309 0.0
C677 C 0.23931 0.54009 0.19303 0.0
C678 C 0.21356 0.52989 0.22834 0.0
C679 C 0.24952 0.55698 0.2335 0.0
C680 C 0.27191 0.57101 0.1964 0.0
C681 C 0.27394 0.57092 0.17061 0.0
N682 N 0.24276 0.5389 0.16822 0.0
C683 C 0.25895 0.5548 0.15671 0.0
H684 H 0.26061 0.55487 0.13684 0.0
C685 C 0.18135 0.5068 0.19525 0.0
N686 N 0.20438 0.51445 0.18752 0.0
C687 C 0.1748 0.50848 0.22022 0.0
C688 C 0.19128 0.51953 0.23699 0.0
H689 H 0.16861 0.49818 0.18228 0.0
H690 H 0.26088 0.56868 0.24532 0.0
H691 H 0.23177 0.40936 0.15078 0.0
H692 H 0.28356 0.58346 0.20714 0.0
H693 H 0.28716 0.58309 0.16142 0.0
H694 H 0.22535 0.54584 0.26327 0.0
H695 H 0.29358 0.48409 0.07831 0.0
H696 H 0.19917 0.37259 0.0894 0.0
H697 H 0.20552 0.37666 0.13447 0.0
H698 H 0.23284 0.41508 0.01916 0.0
H699 H 0.15706 0.50132 0.22649 0.0
H700 H 0.18608 0.52105 0.25628 0.0
H701 H 0.20964 0.38684 0.04666 0.0
H702 H 0.29186 0.48026 0.03336 0.0
N703 N 0.23851 0.4272 0.11558 0.0
C704 C 0.21039 0.38777 0.09648 0.0
C705 C 0.21379 0.39011 0.1219 0.0
C706 C 0.22239 0.40438 0.08046 0.0
C707 C 0.23673 0.42399 0.09062 0.0
C708 C 0.22839 0.40954 0.13114 0.0
N709 N 0.26384 0.45827 0.08523 0.0
C710 C 0.24973 0.43996 0.07507 0.0
C711 C 0.27951 0.46913 0.04479 0.0
C712 C 0.26355 0.45186 0.03396 0.0
C713 C 0.2799 0.47164 0.07052 0.0
C714 C 0.2489 0.43656 0.04909 0.0
H715 H 0.26339 0.44983 1.014 0.0
O716 O 0.3022 0.4642 0.12276 0.0
O717 O 0.25801 0.49796 0.14928 0.0
O718 O 0.23653 0.52015 0.11018 0.0
O719 O 0.27405 0.5 0.11266 0.0
O720 O 0.27373 0.46881 0.16844 0.0
O721 O 0.28497 0.42991 0.13676 0.0
O722 O 0.18024 0.5205 0.13811 0.0
O723 O 0.227 0.48072 0.11909 0.0
O724 O 0.24152 0.44805 0.16263 0.0
O725 O 0.2127 0.47817 0.17309 0.0
O726 O 0.19147 0.48039 0.1333 0.0
O727 O 0.21006 0.54614 0.13043 0.0
C728 C 0.26923 0.49221 0.16925 0.0
C729 C 0.23394 0.4177 0.03902 0.0
C730 C 0.22072 0.40165 0.05467 0.0
C731 C 0.3053 0.44145 0.13032 0.0
C732 C 0.3299 0.42962 0.13103 0.0
C733 C 0.35003 0.44141 0.11921 0.0
C734 C 0.33384 0.40724 0.14425 0.0
C735 C 0.35785 0.39725 0.14613 0.0
C736 C 0.37365 0.43134 0.12065 0.0
C737 C 0.3776 0.40953 0.13408 0.0
C738 C 0.25976 0.51766 0.10339 0.0
C739 C 0.20596 0.47033 0.11743 0.0
C740 C 0.18618 0.5428 0.13087 0.0
C741 C 0.17162 0.56301 0.14141 0.0
C742 C 0.17737 0.57199 0.16506 0.0
C743 C 0.15183 0.57339 0.12785 0.0
C744 C 0.13775 0.5927 0.13795 0.0
C745 C 0.16346 0.59086 0.17526 0.0
C746 C 0.14378 0.60108 0.16193 0.0
C747 C 0.22317 0.45642 0.17631 0.0
H748 H 0.34756 0.45855 0.10893 0.0
H749 H 0.31853 0.39808 0.15368 0.0
H750 H 0.38903 0.44058 0.11147 0.0
H751 H 0.39616 0.40213 0.13491 0.0
H752 H 0.19261 0.56442 0.17566 0.0
H753 H 0.14764 0.56663 0.10943 0.0
H754 H 0.16788 0.59755 0.19363 0.0
H755 H 0.13307 0.61539 0.17063 0.0
Gd756 Gd 0.72444 0.01825 0.87117 0.0
Gd757 Gd 0.76569 0.06346 0.90276 0.0
C758 C 0.80511 0.05027 0.97659 0.0
C759 C 0.78177 0.07609 1.00454 0.0
C760 C 0.77099 0.07459 0.96076 0.0
C761 C 0.78958 0.05771 0.95685 0.0
C762 C 0.76687 0.08403 0.98463 0.0
C763 C 0.8009 0.05929 1.00051 0.0
C764 C 0.82478 0.03447 0.97155 0.0
C765 C 0.829 0.02718 0.94719 0.0
N766 N 0.79318 0.04941 0.9335 0.0
C767 C 0.81311 0.03519 0.92825 0.0
H768 H 0.81682 0.02995 0.90943 0.0
C769 C 0.73897 0.09918 0.94384 0.0
N770 N 0.75694 0.08183 0.94109 0.0
C771 C 0.73407 0.10895 0.9672 0.0
C772 C 0.74799 0.10126 0.98771 0.0
H773 H 0.72794 0.10505 0.92816 0.0
H774 H 0.81254 0.05367 0.01595 0.0
H775 H 0.67483 0.05513 0.87452 0.0
H776 H 0.83716 0.02833 0.98618 0.0
H777 H 0.84453 0.0155 0.94296 0.0
H778 H 0.77886 0.08307 0.02304 0.0
H779 H 0.74904 0.97307 0.83812 0.0
H780 H 0.64724 0.06856 0.80128 0.0
H781 H 0.64478 0.07496 0.84654 0.0
H782 H 0.69602 0.01495 0.75143 0.0
H783 H 0.71952 0.12235 0.96938 0.0
H784 H 0.74415 0.10886 1.00578 0.0
H785 H 0.66712 0.04669 0.76568 0.0
H786 H 0.75041 0.95921 0.79461 0.0
N787 N 0.69457 0.03763 0.84556 0.0
C788 C 0.66046 0.05965 0.81352 0.0
C789 C 0.65897 0.06323 0.83905 0.0
C790 C 0.67841 0.04383 0.80423 0.0
C791 C 0.69511 0.03267 0.82102 0.0
C792 C 0.67615 0.05191 0.8549 0.0
N793 N 0.72529 1.00331 0.83029 0.0
C794 C 0.71118 0.01493 0.81307 0.0
C795 C 0.73941 0.97503 0.7995 0.0
C796 C 0.72605 0.98777 0.78127 0.0
C797 C 0.73855 0.98289 0.82411 0.0
C798 C 0.71129 1.00771 0.78803 0.0
H799 H 0.72663 0.98159 0.76224 0.0
O800 O 0.71513 0.97937 0.87756 0.0
O801 O 0.75211 0.02394 0.90138 0.0
O802 O 0.78723 0.04114 0.87582 0.0
O803 O 0.75965 0.02271 0.84751 0.0
O804 O 0.75339 0.99094 0.8824 0.0
O805 O 0.6896 1.00744 0.88873 0.0
O806 O 0.77492 0.10245 0.89642 0.0
O807 O 0.74057 0.05588 0.87112 0.0
O808 O 0.70619 0.04043 0.90248 0.0
O809 O 0.73833 0.04846 0.92994 0.0
O810 O 0.73718 0.09002 0.88634 0.0
O811 O 0.80215 0.07416 0.88952 0.0
C812 C 0.76357 1.00357 0.89995 0.0
C813 C 0.69595 0.01994 0.77083 0.0
C814 C 0.67951 0.038 0.77894 0.0
C815 C 0.69327 0.98382 0.88648 0.0
C816 C 0.6723 0.96907 0.87644 0.0
C817 C 0.67081 0.96444 0.85095 0.0
C818 C 0.65352 0.95972 0.89228 0.0
C819 C 0.63337 0.94572 0.88261 0.0
C820 C 0.65122 0.9504 0.84135 0.0
C821 C 0.63276 0.94103 0.85695 0.0
C822 C 0.78242 0.02974 0.85468 0.0
C823 C 0.72951 0.07603 0.86864 0.0
C824 C 0.79766 0.09786 0.88989 0.0
C825 C 0.81741 0.11394 0.90019 0.0
C826 C 0.82836 0.10826 0.92314 0.0
C827 C 0.8262 0.13459 0.88645 0.0
C828 C 0.84624 0.14909 0.89536 0.0
C829 C 0.84803 0.12267 0.93214 0.0
C830 C 0.85703 0.14283 0.91833 0.0
C831 C 0.71461 0.04504 0.92521 0.0
H832 H 0.68486 0.97155 0.83845 0.0
H833 H 0.65446 0.96362 0.91193 0.0
H834 H 0.65038 0.94668 0.82168 0.0
H835 H 0.61809 0.92981 0.84885 0.0
H836 H 0.82193 0.09254 0.93399 0.0
H837 H 0.81786 0.139 0.86864 0.0
H838 H 0.85643 0.11811 0.94984 0.0
H839 H 0.87229 0.15376 0.92577 0.0
Gd840 Gd 0.80885 0.01526 0.38017 0.0
Gd841 Gd 0.76387 0.96904 0.40592 0.0
C842 C 0.72065 0.98984 0.47515 0.0
C843 C 0.7365 0.96079 0.50582 0.0
C844 C 0.75153 0.96012 0.46344 0.0
C845 C 0.73661 0.97984 0.45731 0.0
C846 C 0.75093 0.94972 0.48751 0.0
C847 C 0.72148 0.98094 0.49968 0.0
C848 C 0.70308 1.00714 0.4674 0.0
C849 C 0.70062 0.01268 0.4422 0.0
N850 N 0.73541 0.98706 0.4332 0.0
C851 C 0.71663 1.00194 0.4252 0.0
H852 H 0.71439 1.00632 0.40577 0.0
C853 C 0.77462 0.9265 0.44869 0.0
N854 N 0.76432 0.94927 0.44503 0.0
C855 C 0.77492 0.91563 0.47234 0.0
C856 C 0.76351 0.9276 0.492 0.0
H857 H 0.78359 0.91733 0.43351 0.0
H858 H 0.70954 0.98856 0.51369 0.0
H859 H 0.85046 0.97142 0.39753 0.0
H860 H 0.69046 0.01526 0.48049 0.0
H861 H 0.68636 0.02517 0.43584 0.0
H862 H 0.73579 0.95309 0.52442 0.0
H863 H 0.7906 0.05471 0.33617 0.0
H864 H 0.89913 0.95922 0.33721 0.0
H865 H 0.88636 0.95079 0.38039 0.0
H866 H 0.87076 0.01532 0.27465 0.0
H867 H 0.78393 0.89807 0.47539 0.0
H868 H 0.76354 0.91904 0.51024 0.0
H869 H 0.89307 0.98326 0.29785 0.0
H870 H 0.80153 0.0666 0.29327 0.0
N871 N 0.84201 0.99182 0.36448 0.0
C872 C 0.88309 0.9684 0.34463 0.0
C873 C 0.87602 0.9637 0.36902 0.0
C874 C 0.86966 0.98526 0.33025 0.0
C875 C 0.84885 0.9967 0.34075 0.0
C876 C 0.85549 0.9757 0.37874 0.0
N877 N 0.81635 0.02525 0.33826 0.0
C878 C 0.83561 0.01394 0.32723 0.0
C879 C 0.81107 0.05154 0.30246 0.0
C880 C 0.8305 0.03971 0.29067 0.0
C881 C 0.80462 0.04445 0.32657 0.0
C882 C 0.84329 0.02092 0.30316 0.0
H883 H 0.83592 0.04572 0.27225 0.0
O884 O 0.81532 0.05504 0.38133 0.0
O885 O 0.77943 1.00812 0.4087 0.0
O886 O 0.74563 0.99259 0.3767 0.0
O887 O 0.77619 0.01314 0.35317 0.0
O888 O 0.77889 0.04157 0.3886 0.0
O889 O 0.84164 0.03045 0.3987 0.0
O890 O 0.7552 0.93134 0.39442 0.0
O891 O 0.79096 0.97868 0.37676 0.0
O892 O 0.82338 0.99885 0.41653 0.0
O893 O 0.79558 0.96925 0.43278 0.0
O894 O 0.79118 0.94261 0.38832 0.0
O895 O 0.72685 0.95914 0.39295 0.0
C896 C 0.76833 0.0287 0.40591 0.0
C897 C 0.86411 1.00975 0.29277 0.0
C898 C 0.877 0.99166 0.3061 0.0
C899 C 0.83667 0.05327 0.39258 0.0
C900 C 0.85734 0.06847 0.38246 0.0
C901 C 0.86016 0.07144 0.35676 0.0
C902 C 0.87415 0.08063 0.39853 0.0
C903 C 0.89323 0.09598 0.38883 0.0
C904 C 0.87913 0.08632 0.34713 0.0
C905 C 0.89551 0.09857 0.36299 0.0
C906 C 0.75301 1.0054 0.35701 0.0
C907 C 0.8007 0.95816 0.37266 0.0
C908 C 0.73185 0.93576 0.39048 0.0
C909 C 0.71417 0.91788 0.40157 0.0
C910 C 0.7065 0.92058 0.42617 0.0
C911 C 0.70533 0.89757 0.38774 0.0
C912 C 0.68919 0.87983 0.3986 0.0
C913 C 0.69051 0.90315 0.43699 0.0
C914 C 0.68195 0.88288 0.42338 0.0
C915 C 0.81665 0.98193 0.4333 0.0
H916 H 0.84768 0.06246 0.34402 0.0
H917 H 0.87213 0.07853 0.41842 0.0
H918 H 0.8811 0.08839 0.32726 0.0
H919 H 0.91022 0.10989 0.35502 0.0
H920 H 0.71287 0.93614 0.43703 0.0
H921 H 0.71133 0.89536 0.36875 0.0
H922 H 0.6847 0.90536 0.456 0.0
H923 H 0.66936 0.86973 0.43216 0.0
Gd924 Gd 0.25886 0.54806 0.62574 0.0
Gd925 Gd 0.29983 0.49966 0.65178 0.0
C926 C 0.28185 0.45427 0.72126 0.0
C927 C 0.31197 0.4704 0.7509 0.0
C928 C 0.31112 0.48631 0.70861 0.0
C929 C 0.29126 0.47079 0.70311 0.0
C930 C 0.32197 0.48603 0.73244 0.0
C931 C 0.29195 0.45455 0.74533 0.0
C932 C 0.26318 0.43738 0.71445 0.0
C933 C 0.25515 0.43656 0.68983 0.0
N934 N 0.28227 0.47068 0.67957 0.0
C935 C 0.2653 0.45313 0.67244 0.0
H936 H 0.25912 0.45212 0.65342 0.0
C937 C 0.34146 0.51494 0.69411 0.0
N938 N 0.32041 0.50107 0.6903 0.0
C939 C 0.35276 0.51543 0.7175 0.0
C940 C 0.34284 0.50109 0.73682 0.0
H941 H 0.34914 0.52615 0.67928 0.0
H942 H 0.28483 0.44214 0.75958 0.0
H943 H 0.30501 0.59042 0.63168 0.0
H944 H 0.25542 0.42441 0.72785 0.0
H945 H 0.2412 0.42312 0.68418 0.0
H946 H 0.31992 0.47004 0.76939 0.0
H947 H 0.21052 0.52964 0.59147 0.0
H948 H 0.31638 0.62626 0.56171 0.0
H949 H 0.32754 0.62077 0.60593 0.0
H950 H 0.25232 0.59134 0.51041 0.0
H951 H 0.36909 0.52688 0.72061 0.0
H952 H 0.35168 0.50145 0.7549 0.0
H953 H 0.28838 0.61497 0.52609 0.0
H954 H 0.19437 0.53483 0.54879 0.0
N955 N 0.2813 0.57804 0.60242 0.0
C956 C 0.30629 0.61286 0.57299 0.0
C957 C 0.31263 0.60982 0.59792 0.0
C958 C 0.28668 0.59891 0.56303 0.0
C959 C 0.27428 0.58158 0.57848 0.0
C960 C 0.29968 0.5925 0.61252 0.0
N961 N 0.24249 0.55233 0.58532 0.0
C962 C 0.25437 0.56807 0.56956 0.0
C963 C 0.2114 0.54413 0.5543 0.0
C964 C 0.22423 0.55923 0.53743 0.0
C965 C 0.2206 0.54122 0.57842 0.0
C966 C 0.24577 0.57178 0.54509 0.0
H967 H 0.21699 0.56161 0.5188 0.0
O968 O 0.22121 0.55988 0.63277 0.0
O969 O 0.26262 0.51748 0.65355 0.0
O970 O 0.27396 0.48306 0.62322 0.0
O971 O 0.25779 0.51554 0.59899 0.0
O972 O 0.22824 0.52177 0.6366 0.0
O973 O 0.25213 0.58255 0.64501 0.0
O974 O 0.33698 0.48995 0.64026 0.0
O975 O 0.29404 0.52793 0.62212 0.0
O976 O 0.28341 0.56208 0.65794 0.0
O977 O 0.2937 0.52753 0.68173 0.0
O978 O 0.32892 0.52689 0.63713 0.0
O979 O 0.3073 0.46266 0.63821 0.0
C980 C 0.24059 0.50881 0.65242 0.0
C981 C 0.25848 0.58841 0.52935 0.0
C982 C 0.27895 0.60192 0.53829 0.0
C983 C 0.22814 0.5809 0.64242 0.0
C984 C 0.21573 0.60326 0.63285 0.0
C985 C 0.2126 0.60692 0.60725 0.0
C986 C 0.20726 0.62133 0.64931 0.0
C987 C 0.19608 0.64308 0.64015 0.0
C988 C 0.20148 0.62831 0.59811 0.0
C989 C 0.19331 0.64631 0.61438 0.0
C990 C 0.26234 0.49172 0.60333 0.0
C991 C 0.31558 0.53691 0.61998 0.0
C992 C 0.33101 0.46702 0.63548 0.0
C993 C 0.34812 0.4482 0.64533 0.0
C994 C 0.34594 0.43983 0.66988 0.0
C995 C 0.36737 0.43916 0.63043 0.0
C996 C 0.38446 0.42186 0.6401 0.0
C997 C 0.3628 0.42298 0.67964 0.0
C998 C 0.38195 0.41417 0.66501 0.0
C999 C 0.29092 0.55167 0.67909 0.0
H1000 H 0.21864 0.59328 0.59426 0.0
H1001 H 0.20966 0.61863 0.66911 0.0
H1002 H 0.19911 0.63091 0.57832 0.0
H1003 H 0.18446 0.66263 0.6068 0.0
H1004 H 0.33132 0.44645 0.68157 0.0
H1005 H 0.36886 0.44548 0.61136 0.0
H1006 H 0.36113 0.41684 0.69873 0.0
H1007 H 0.39501 0.40151 0.67343 0.0
H1008 H 0.14767 0.29277 0.53808 0.0
H1009 H 0.16354 0.33092 0.55648 0.0
H1010 H 0.23484 0.31862 0.52337 0.0
H1011 H 0.219 0.27983 0.5054 0.0
H1012 H 0.23913 0.33998 0.56999 0.0
H1013 H 0.19222 0.35469 0.49385 0.0
H1014 H 0.15511 0.3522 0.46704 0.0
H1015 H 0.11241 0.38878 0.52237 0.0
H1016 H 0.14927 0.39137 0.54959 0.0
H1017 H 0.28814 0.45973 0.5756 0.0
H1018 H 0.27238 0.421 0.5579 0.0
H1019 H 0.19817 0.4401 0.5796 0.0
H1020 H 0.21386 0.47982 0.59541 0.0
H1021 H 0.19452 0.4146 0.54045 0.0
H1022 H 0.23875 0.4018 0.61646 0.0
H1023 H 0.27452 0.40581 0.6449 0.0
H1024 H 0.3197 0.36573 0.59426 0.0
H1025 H 0.28426 0.36163 0.56538 0.0
C1026 C 0.167 0.29755 0.53562 0.0
C1027 C 0.18227 0.28294 0.5208 0.0
C1028 C 0.17599 0.31964 0.54584 0.0
C1029 C 0.20028 0.32793 0.54097 0.0
C1030 C 0.21603 0.31265 0.52738 0.0
C1031 C 0.20702 0.29045 0.5172 0.0
C1032 C 0.20853 0.35337 0.54814 0.0
C1033 C 0.22954 0.35631 0.56335 0.0
C1034 C 0.1956 0.37473 0.54013 0.0
C1035 C 0.17345 0.37307 0.5238 0.0
C1036 C 0.17487 0.36204 0.50036 0.0
C1037 C 0.15388 0.36062 0.4851 0.0
C1038 C 0.13138 0.37023 0.49306 0.0
C1039 C 0.12983 0.3813 0.51628 0.0
C1040 C 0.15077 0.3828 0.5316 0.0
C1041 C 0.26834 0.45602 0.57562 0.0
C1042 C 0.25215 0.47269 0.58668 0.0
C1043 C 0.25937 0.43367 0.56596 0.0
C1044 C 0.23417 0.42701 0.5683 0.0
C1045 C 0.21772 0.44455 0.57778 0.0
C1046 C 0.22664 0.46731 0.58672 0.0
C1047 C 0.22533 0.40138 0.56219 0.0
C1048 C 0.20414 0.39835 0.54723 0.0
C1049 C 0.23779 0.37993 0.57091 0.0
C1050 C 0.25889 0.38157 0.58866 0.0
C1051 C 0.25632 0.39387 0.61136 0.0
C1052 C 0.27654 0.3962 0.62755 0.0
C1053 C 0.29939 0.38615 0.62134 0.0
C1054 C 0.302 0.37355 0.59902 0.0
C1055 C 0.28184 0.37116 0.58276 0.0
H1056 H 0.31505 0.38808 0.63385 0.0
H1057 H 0.11517 0.36926 0.48122 0.0
H1058 H 0.83029 0.04079 0.86646 0.0
H1059 H 0.86745 0.02598 0.84835 0.0
H1060 H 0.8248 0.98814 0.79201 0.0
H1061 H 0.78625 1.00223 0.81131 0.0
H1062 H 0.8591 0.95918 0.80664 0.0
H1063 H 0.86242 0.0409 0.77875 0.0
H1064 H 0.85917 0.08639 0.7788 0.0
H1065 H 0.91867 0.09128 0.83179 0.0
H1066 H 0.92206 0.04576 0.83238 0.0
H1067 H 0.97392 0.94329 0.74404 0.0
H1068 H 0.93767 0.96714 0.75464 0.0
H1069 H 0.95689 0.96144 0.83209 0.0
H1070 H 0.99323 0.93635 0.82166 0.0
H1071 H 0.93392 0.01348 0.80037 0.0
H1072 H 0.9241 0.92453 0.82494 0.0
H1073 H 0.9291 0.88147 0.81218 0.0
H1074 H 0.87858 0.89289 0.75137 0.0
H1075 H 0.87487 0.93684 0.76276 0.0
C1076 C 0.82831 0.02945 0.85014 0.0
C1077 C 0.80483 0.02255 0.84061 0.0
C1078 C 0.84997 0.02118 0.83953 0.0
C1079 C 0.84921 1.00635 0.81844 0.0
C1080 C 0.82592 0.99972 0.80827 0.0
C1081 C 0.80386 1.00781 0.81926 0.0
C1082 C 0.87297 0.99679 0.80862 0.0
C1083 C 0.87529 0.97122 0.80504 0.0
C1084 C 0.89425 0.01237 0.80592 0.0
C1085 C 0.8924 0.03984 0.80571 0.0
C1086 C 0.87471 0.05164 0.79056 0.0
C1087 C 0.87285 0.07745 0.79046 0.0
C1088 C 0.88868 0.09172 0.80531 0.0
C1089 C 0.90642 0.0802 0.82029 0.0
C1090 C 0.90835 0.05438 0.82048 0.0
C1091 C 0.97072 0.94729 0.7634 0.0
C1092 C 0.98616 0.93744 0.78211 0.0
C1093 C 0.95005 0.96111 0.76933 0.0
C1094 C 0.94449 0.96576 0.79408 0.0
C1095 C 0.96098 0.95794 0.81282 0.0
C1096 C 0.9817 0.94367 0.80688 0.0
C1097 C 0.91996 0.97604 0.80005 0.0
C1098 C 0.91759 1.0017 0.80234 0.0
C1099 C 0.89844 0.96077 0.80032 0.0
C1100 C 0.89957 0.93407 0.79446 0.0
C1101 C 0.91445 0.91803 0.80856 0.0
C1102 C 0.91712 0.89344 0.80148 0.0
C1103 C 0.90408 0.88432 0.78095 0.0
C1104 C 0.88866 0.89995 0.76726 0.0
C1105 C 0.88646 0.92478 0.77389 0.0
H1106 H 0.90574 0.86515 0.77568 0.0
H1107 H 0.88722 0.1117 0.8052 0.0
H1108 H 0.34725 0.73357 0.06699 0.0
H1109 H 0.32876 0.69357 0.07969 0.0
H1110 H 0.29767 0.6848 1.00646 0.0
H1111 H 0.31755 0.72389 0.99332 0.0
H1112 H 0.27391 0.67088 0.07126 0.0
H1113 H 0.32219 0.65105 0.99262 0.0
H1114 H 0.35975 0.65777 0.96737 0.0
H1115 H 0.40539 0.64162 0.0308 0.0
H1116 H 0.3681 0.63639 0.05672 0.0
H1117 H 0.23524 0.54698 0.0707 0.0
H1118 H 0.24904 0.58706 0.05438 0.0
H1119 H 0.32136 0.57602 0.08687 0.0
H1120 H 0.30787 0.53523 0.1025 0.0
H1121 H 0.32479 0.60054 0.0432 0.0
H1122 H 0.27614 0.60918 0.11806 0.0
H1123 H 0.23904 0.60286 0.14417 0.0
H1124 H 0.19399 0.63823 0.08886 0.0
H1125 H 0.23073 0.64497 0.06247 0.0
C1126 C 0.33581 0.7234 0.05391 0.0
C1127 C 0.33359 0.73167 0.02929 0.0
C1128 C 0.32543 0.70056 0.06109 0.0
C1129 C 0.31246 0.68602 0.04378 0.0
C1130 C 0.30815 0.69551 0.01988 0.0
C1131 C 0.31908 0.71798 1.01252 0.0
C1132 C 0.30549 0.6601 0.04996 0.0
C1133 C 0.28479 0.65544 0.06492 0.0
C1134 C 0.32005 0.64009 0.04208 0.0
C1135 C 0.34242 0.64399 0.0267 0.0
C1136 C 0.34026 0.64961 1.0013 0.0
C1137 C 0.3615 0.65318 0.98688 0.0
C1138 C 0.38498 0.65051 0.99756 0.0
C1139 C 0.38723 0.64422 0.02266 0.0
C1140 C 0.36607 0.64112 0.03726 0.0
C1141 C 0.25429 0.5528 0.07388 0.0
C1142 C 0.27033 0.5382 0.08835 0.0
C1143 C 0.26208 0.57583 0.06472 0.0
C1144 C 0.28592 0.58495 0.07021 0.0
C1145 C 0.30273 0.56949 0.08276 0.0
C1146 C 0.29503 0.54616 0.09164 0.0
C1147 C 0.29268 0.61105 0.06404 0.0
C1148 C 0.31363 0.61585 0.04939 0.0
C1149 C 0.27816 0.63115 0.07209 0.0
C1150 C 0.25617 0.62744 0.08821 0.0
C1151 C 0.25831 0.61554 0.11143 0.0
C1152 C 0.23737 0.61188 0.12627 0.0
C1153 C 0.2142 0.61995 0.1181 0.0
C1154 C 0.21194 0.63194 0.09515 0.0
C1155 C 0.23282 0.63579 0.08029 0.0
H1156 H 0.19802 0.61702 0.12959 0.0
H1157 H 0.40141 0.6531 0.98636 0.0
H1158 H 0.57474 0.0993 0.23545 0.0
H1159 H 0.6118 0.07861 0.24852 0.0
H1160 H 0.57067 0.03929 0.30531 0.0
H1161 H 0.53318 0.06196 0.29327 0.0
H1162 H 0.61012 0.05864 0.32464 0.0
H1163 H 0.59974 1.00861 0.2504 0.0
H1164 H 0.59296 1.00105 0.20572 0.0
H1165 H 0.65486 0.04851 0.18789 0.0
H1166 H 0.66244 0.05588 0.23234 0.0
H1167 H 0.7135 0.97716 0.34448 0.0
H1168 H 0.67566 0.99062 0.32372 0.0
H1169 H 0.70881 0.06254 0.31016 0.0
H1170 H 0.74686 0.04932 0.33164 0.0
H1171 H 0.67367 0.02393 0.2691 0.0
H1172 H 0.67594 0.08279 0.34015 0.0
H1173 H 0.6849 0.09173 0.38405 0.0
H1174 H 0.64021 0.02903 0.40637 0.0
H1175 H 0.63085 0.0199 0.36244 0.0
C1176 C 0.5733 0.08608 0.25059 0.0
C1177 C 0.55101 0.08269 0.26365 0.0
C1178 C 0.59462 0.07381 0.25778 0.0
C1179 C 0.59414 0.05696 0.27765 0.0
C1180 C 0.57149 0.05217 0.28981 0.0
C1181 C 0.55 0.06495 0.28283 0.0
C1182 C 0.61792 0.04703 0.28729 0.0
C1183 C 0.6237 0.0506 0.31246 0.0
C1184 C 0.63624 0.03734 0.2714 0.0
C1185 C 0.63158 0.03286 0.24468 0.0
C1186 C 0.61184 0.01748 0.23694 0.0
C1187 C 0.60787 0.01322 0.21168 0.0
C1188 C 0.62328 0.02448 0.19402 0.0
C1189 C 0.6429 0.03982 0.20157 0.0
C1190 C 0.64717 0.04389 0.22679 0.0
C1191 C 0.71295 0.99572 0.33668 0.0
C1192 C 0.7331 0.01223 0.33963 0.0
C1193 C 0.69133 1.00334 0.32489 0.0
C1194 C 0.68952 0.02755 0.31573 0.0
C1195 C 0.71003 0.04375 0.31725 0.0
C1196 C 0.7318 0.03612 0.32921 0.0
C1197 C 0.66548 0.0359 0.30596 0.0
C1198 C 0.65976 0.0318 0.28103 0.0
C1199 C 0.64733 0.04536 0.32185 0.0
C1200 C 0.6529 0.05058 0.34815 0.0
C1201 C 0.66816 0.07086 0.35445 0.0
C1202 C 0.67326 0.07598 0.37932 0.0
C1203 C 0.66322 0.06089 0.39802 0.0
C1204 C 0.64798 0.04069 0.39187 0.0
C1205 C 0.64271 0.03557 0.367 0.0
H1206 H 0.66719 0.06491 0.41726 0.0
H1207 H 0.62007 0.02123 0.1745 0.0
H1208 H 0.65348 0.21033 0.47454 0.0
H1209 H 0.67296 0.17158 0.46314 0.0
H1210 H 0.74218 0.19731 0.49463 0.0
H1211 H 0.72232 0.23632 0.50663 0.0
H1212 H 0.74496 0.16866 0.44707 0.0
H1213 H 0.71383 0.16293 0.52968 0.0
H1214 H 0.68234 0.16953 0.56181 0.0
H1215 H 0.6316 0.1211 0.52356 0.0
H1216 H 0.66263 0.11459 0.49091 0.0
H1217 H 0.77608 0.03399 0.45613 0.0
H1218 H 0.76121 0.06939 0.48029 0.0
H1219 H 0.714 0.09072 0.41928 0.0
H1220 H 0.72885 0.05599 0.39523 0.0
H1221 H 0.70749 0.09531 0.48974 0.0
H1222 H 0.74062 0.14427 0.40207 0.0
H1223 H 0.77047 0.13741 0.36837 0.0
H1224 H 0.81881 0.09961 0.41921 0.0
H1225 H 0.78934 0.1064 0.45318 0.0
C1226 C 0.673 0.20805 0.47846 0.0
C1227 C 0.68645 0.22631 0.49135 0.0
C1228 C 0.6841 0.18583 0.47204 0.0
C1229 C 0.7089 0.18141 0.47839 0.0
C1230 C 0.72299 0.20037 0.48962 0.0
C1231 C 0.71174 0.22268 0.49626 0.0
C1232 C 0.71907 0.15623 0.47489 0.0
C1233 C 0.73714 0.15271 0.45676 0.0
C1234 C 0.70896 0.13536 0.48766 0.0
C1235 C 0.69054 0.13838 0.50775 0.0
C1236 C 0.69592 0.15377 0.52804 0.0
C1237 C 0.67815 0.15751 0.54635 0.0
C1238 C 0.65497 0.14578 0.5447 0.0
C1239 C 0.64957 0.13018 0.52481 0.0
C1240 C 0.66726 0.12643 0.5064 0.0
C1241 C 0.76157 0.04551 0.4485 0.0
C1242 C 0.75342 0.04224 0.42394 0.0
C1243 C 0.75318 0.06578 0.46222 0.0
C1244 C 0.73666 0.08276 0.4514 0.0
C1245 C 0.72669 0.07783 0.42792 0.0
C1246 C 0.73515 0.05795 0.41424 0.0
C1247 C 0.73315 0.10785 0.46178 0.0
C1248 C 0.71598 0.11135 0.48079 0.0
C1249 C 0.74437 0.12877 0.45016 0.0
C1250 C 0.76278 0.12582 0.43012 0.0
C1251 C 0.75773 0.13471 0.40607 0.0
C1252 C 0.77454 0.13074 0.38691 0.0
C1253 C 0.7965 0.11802 0.39162 0.0
C1254 C 0.80177 0.10936 0.41554 0.0
C1255 C 0.78501 0.11325 0.43475 0.0
H1256 H 0.80944 0.11488 0.37676 0.0
H1257 H 0.64121 0.14876 0.55886 0.0
H1258 H 0.05455 0.39685 0.74763 0.0
H1259 H 0.09358 0.41038 0.72911 0.0
H1260 H 0.07679 0.4862 0.74601 0.0
H1261 H 0.03731 0.47254 0.76468 0.0
H1262 H 0.09987 0.48192 0.70025 0.0
H1263 H 0.11328 0.45487 0.78385 0.0
H1264 H 0.10954 0.42556 0.81902 0.0
H1265 H 0.15115 0.3718 0.77918 0.0
H1266 H 0.15473 0.40061 0.74355 0.0
H1267 H 0.23754 0.51132 0.7033 0.0
H1268 H 0.20222 0.49503 0.72767 0.0
H1269 H 0.17594 0.45484 0.66388 0.0
H1270 H 0.21074 0.47102 0.63981 0.0
H1271 H 0.17561 0.44524 0.73751 0.0
H1272 H 0.11766 0.47682 0.65361 0.0
H1273 H 0.12153 0.50597 0.61827 0.0
H1274 H 0.1693 0.55319 0.66147 0.0
H1275 H 0.16529 0.52459 0.6972 0.0
C1276 C 0.05871 0.41646 0.7468 0.0
C1277 C 0.04253 0.43367 0.75725 0.0
C1278 C 0.08126 0.42418 0.7364 0.0
C1279 C 0.08843 0.44929 0.7365 0.0
C1280 C 0.07175 0.46671 0.74576 0.0
C1281 C 0.04914 0.45893 0.7563 0.0
C1282 C 0.11385 0.457 0.72824 0.0
C1283 C 0.11636 0.47397 0.70852 0.0
C1284 C 0.13557 0.44697 0.73923 0.0
C1285 C 0.13413 0.42987 0.76094 0.0
C1286 C 0.12153 0.43676 0.78252 0.0
C1287 C 0.11942 0.42022 0.80254 0.0
C1288 C 0.13006 0.39682 0.80132 0.0
C1289 C 0.1429 0.38993 0.7801 0.0
C1290 C 0.145 0.40637 0.75999 0.0
C1291 C 0.22492 0.49798 0.69497 0.0
C1292 C 0.22698 0.49224 0.66971 0.0
C1293 C 0.20462 0.48883 0.70882 0.0
C1294 C 0.18618 0.47401 0.69747 0.0
C1295 C 0.18976 0.46635 0.67301 0.0
C1296 C 0.20978 0.47551 0.65928 0.0
C1297 C 0.16145 0.46967 0.70921 0.0
C1298 C 0.15907 0.45332 0.72948 0.0
C1299 C 0.13982 0.48049 0.69898 0.0
C1300 C 0.14132 0.49844 0.678 0.0
C1301 C 0.1288 0.49353 0.65563 0.0
C1302 C 0.13105 0.50994 0.63552 0.0
C1303 C 0.14571 0.53138 0.6376 0.0
C1304 C 0.158 0.53655 0.65986 0.0
C1305 C 0.15574 0.52025 0.68004 0.0
H1306 H 0.14752 0.544 0.62198 0.0
H1307 H 0.1284 0.38404 0.81682 0.0
H1308 H 0.73911 0.98346 0.93844 0.0
H1309 H 0.75065 0.94507 0.95896 0.0
H1310 H 0.82422 0.95188 0.92802 0.0
H1311 H 0.81063 0.98737 0.90368 0.0
H1312 H 0.81516 0.91004 0.92301 0.0
H1313 H 0.80341 0.95667 0.99709 0.0
H1314 H 0.78154 0.98391 0.02592 0.0
H1315 H 0.72211 0.9305 0.03192 0.0
H1316 H 0.74345 0.90309 1.00285 0.0
H1317 H 0.83935 0.82532 0.03809 0.0
H1318 H 0.8241 0.86291 0.02004 0.0
H1319 H 0.80915 0.82499 0.95133 0.0
H1320 H 0.82754 0.78732 0.96871 0.0
H1321 H 0.78678 0.88105 1.00556 0.0
H1322 H 0.81 0.86465 0.9024 0.0
H1323 H 0.8387 0.83936 0.87806 0.0
H1324 H 0.89046 0.83906 0.93889 0.0
H1325 H 0.86248 0.86482 0.96317 0.0
C1326 C 0.7581 0.97733 0.937 0.0
C1327 C 0.77444 0.98932 0.92052 0.0
C1328 C 0.7648 0.95516 0.94879 0.0
C1329 C 0.78866 0.94528 0.94575 0.0
C1330 C 0.80563 0.95861 0.93081 0.0
C1331 C 0.79824 0.97966 0.91756 0.0
C1332 C 0.79526 0.92018 0.95603 0.0
C1333 C 0.8092 0.90407 0.9413 0.0
C1334 C 0.78761 0.91168 0.9798 0.0
C1335 C 0.77495 0.92792 0.99765 0.0
C1336 C 0.78564 0.95078 1.0045 0.0
C1337 C 0.77333 0.96625 0.02087 0.0
C1338 C 0.75043 0.95896 0.03071 0.0
C1339 C 0.73984 0.93613 0.02427 0.0
C1340 C 0.75204 0.92061 1.00787 0.0
C1341 C 0.83293 0.82462 0.01906 0.0
C1342 C 0.83498 0.80292 1.0049 0.0
C1343 C 0.82387 0.84642 1.00875 0.0
C1344 C 0.81562 0.8473 0.98408 0.0
C1345 C 0.81603 0.82524 0.97021 0.0
C1346 C 0.8262 0.80344 0.98031 0.0
C1347 C 0.80784 0.8717 0.97319 0.0
C1348 C 0.79318 0.88742 0.98755 0.0
C1349 C 0.81634 0.88052 0.94988 0.0
C1350 C 0.83395 0.86631 0.93473 0.0
C1351 C 0.82761 0.85935 0.91045 0.0
C1352 C 0.84376 0.84492 0.89666 0.0
C1353 C 0.8663 0.8374 0.90696 0.0
C1354 C 0.87299 0.84475 0.93088 0.0
C1355 C 0.85703 0.85933 0.94464 0.0
H1356 H 0.87856 0.82593 0.89636 0.0
H1357 H 0.74092 0.97098 0.04335 0.0
H1358 H 0.48078 0.60067 0.21143 0.0
H1359 H 0.44181 0.5832 0.19496 0.0
H1360 H 0.42591 0.55034 0.26637 0.0
H1361 H 0.46424 0.56812 0.28303 0.0
H1362 H 0.41562 0.51832 0.22747 0.0
H1363 H 0.39392 0.60091 0.25287 0.0
H1364 H 0.39564 0.64652 0.25476 0.0
H1365 H 0.38962 0.65113 0.17543 0.0
H1366 H 0.3873 0.60546 0.17318 0.0
H1367 H 0.28578 0.4932 0.21699 0.0
H1368 H 0.32499 0.51166 0.23203 0.0
H1369 H 0.3387 0.54242 0.15926 0.0
H1370 H 0.30023 0.52364 0.14429 0.0
H1371 H 0.35041 0.5755 0.19758 0.0
H1372 H 0.3661 0.49181 0.17376 0.0
H1373 H 0.35988 0.44654 0.174 0.0
H1374 H 0.37678 0.44355 0.25176 0.0
H1375 H 0.38277 0.48896 0.25214 0.0
C1376 C 0.46912 0.58951 0.22353 0.0
C1377 C 0.47548 0.58606 0.24864 0.0
C1378 C 0.44678 0.57965 0.21414 0.0
C1379 C 0.43076 0.56575 0.22956 0.0
C1380 C 0.43786 0.5611 0.25417 0.0
C1381 C 0.45984 0.57128 0.26365 0.0
C1382 C 0.40631 0.55643 0.22044 0.0
C1383 C 0.40131 0.53083 0.2211 0.0
C1384 C 0.38771 0.57265 0.21181 0.0
C1385 C 0.39077 0.59987 0.21284 0.0
C1386 C 0.39323 0.61167 0.23583 0.0
C1387 C 0.39408 0.63751 0.23697 0.0
C1388 C 0.39281 0.65172 0.21521 0.0
C1389 C 0.39062 0.6401 0.19226 0.0
C1390 C 0.38941 0.61425 0.19105 0.0
C1391 C 0.29692 0.50446 0.20446 0.0
C1392 C 0.28955 0.50763 0.17964 0.0
C1393 C 0.31935 0.5148 0.21297 0.0
C1394 C 0.33481 0.52833 0.1967 0.0
C1395 C 0.32704 0.53218 0.17217 0.0
C1396 C 0.3049 0.52157 0.16364 0.0
C1397 C 0.35968 0.53743 0.20471 0.0
C1398 C 0.36477 0.56296 0.20379 0.0
C1399 C 0.37831 0.52111 0.21316 0.0
C1400 C 0.3746 0.49383 0.21304 0.0
C1401 C 0.36825 0.48155 0.19098 0.0
C1402 C 0.36482 0.45585 0.19098 0.0
C1403 C 0.36786 0.44216 0.21285 0.0
C1404 C 0.37439 0.45417 0.23482 0.0
C1405 C 0.37781 0.4799 0.23494 0.0
H1406 H 0.36522 0.42224 0.21276 0.0
H1407 H 0.39352 0.67174 0.21614 0.0
H1408 H 0.52079 0.19783 0.28594 0.0
H1409 H 0.54332 0.22107 0.31829 0.0
H1410 H 0.56179 0.15185 0.35435 0.0
H1411 H 0.54284 0.12933 0.32075 0.0
H1412 H 0.53602 0.22864 0.36135 0.0
H1413 H 0.60385 0.15191 0.39655 0.0
H1414 H 0.63077 0.12009 0.37885 0.0
H1415 H 0.63494 0.16138 0.31055 0.0
H1416 H 0.60835 0.19365 0.32796 0.0
H1417 H 0.56488 0.25745 0.48555 0.0
H1418 H 0.55143 0.23625 0.44759 0.0
H1419 H 0.62731 0.23584 0.42243 0.0
H1420 H 0.64061 0.25507 0.46092 0.0
H1421 H 0.60982 0.1979 0.40668 0.0
H1422 H 0.57952 0.2796 0.40165 0.0
H1423 H 0.55749 0.31677 0.41525 0.0
H1424 H 0.48859 0.27598 0.41499 0.0
H1425 H 0.51028 0.23845 0.40167 0.0
C1426 C 0.53107 0.18779 0.30002 0.0
C1427 C 0.53085 0.16175 0.30028 0.0
C1428 C 0.54351 0.20103 0.31891 0.0
C1429 C 0.55501 0.18847 0.33898 0.0
C1430 C 0.55458 0.16243 0.33885 0.0
C1431 C 0.54337 0.1494 0.31955 0.0
C1432 C 0.56549 0.20201 0.36112 0.0
C1433 C 0.55235 0.22199 0.37097 0.0
C1434 C 0.58721 0.19408 0.37387 0.0
C1435 C 0.60394 0.17514 0.36352 0.0
C1436 C 0.61068 0.15433 0.37783 0.0
C1437 C 0.62583 0.13617 0.36783 0.0
C1438 C 0.63449 0.13868 0.34357 0.0
C1439 C 0.62815 0.15942 0.32932 0.0
C1440 C 0.61303 0.17765 0.33923 0.0
C1441 C 0.57863 0.25219 0.4721 0.0
C1442 C 0.60385 0.25724 0.47651 0.0
C1443 C 0.57095 0.24043 0.45016 0.0
C1444 C 0.5882 0.23477 0.43152 0.0
C1445 C 0.61346 0.23967 0.43627 0.0
C1446 C 0.62114 0.25064 0.45846 0.0
C1447 C 0.58018 0.22425 0.40695 0.0
C1448 C 0.59373 0.20476 0.39676 0.0
C1449 C 0.55978 0.2336 0.39318 0.0
C1450 C 0.54656 0.25617 0.40086 0.0
C1451 C 0.55968 0.27853 0.4046 0.0
C1452 C 0.54726 0.29966 0.41226 0.0
C1453 C 0.52166 0.29872 0.41604 0.0
C1454 C 0.50842 0.27667 0.41208 0.0
C1455 C 0.52077 0.25546 0.40444 0.0
H1456 H 0.51207 0.31509 0.42199 0.0
H1457 H 0.64613 0.12456 0.33584 0.0
H1458 H 0.06596 0.27627 0.53703 0.0
H1459 H 0.04526 0.29341 0.57356 0.0
H1460 H 0.11136 0.28111 0.6172 0.0
H1461 H 0.13135 0.26364 0.58178 0.0
H1462 H 0.07364 0.26316 0.64072 0.0
H1463 H 0.09386 0.33919 0.59752 0.0
H1464 H 0.09353 0.36844 0.56216 0.0
H1465 H 0.01415 0.37206 0.5658 0.0
H1466 H 0.01401 0.34253 0.60103 0.0
H1467 H 0.05854 0.34931 0.74291 0.0
H1468 H 0.07353 0.33015 0.70489 0.0
H1469 H 0.99823 0.31591 0.68145 0.0
H1470 H 0.98302 0.33377 0.7196 0.0
H1471 H 0.03609 0.34621 0.64715 0.0
H1472 H 0.01868 0.26964 0.69309 0.0
H1473 H 0.02246 0.24217 0.72967 0.0
H1474 H 0.10161 0.24223 0.72163 0.0
H1475 H 0.0983 0.27007 0.68522 0.0
C1476 C 0.07604 0.27759 0.55437 0.0
C1477 C 0.10024 0.26849 0.55652 0.0
C1478 C 0.06425 0.28731 0.5752 0.0
C1479 C 0.07676 0.28833 0.59816 0.0
C1480 C 0.1012 0.28017 0.59984 0.0
C1481 C 0.11269 0.27024 0.57939 0.0
C1482 C 0.06468 0.29693 0.62101 0.0
C1483 C 0.06551 0.28138 0.64206 0.0
C1484 C 0.05385 0.32056 0.62276 0.0
C1485 C 0.05389 0.33841 0.6017 0.0
C1486 C 0.07632 0.34606 0.59065 0.0
C1487 C 0.07622 0.36272 0.57065 0.0
C1488 C 0.05382 0.37203 0.56166 0.0
C1489 C 0.03148 0.36478 0.57274 0.0
C1490 C 0.03148 0.34809 0.59273 0.0
C1491 C 0.04519 0.34143 0.73008 0.0
C1492 C 0.01959 0.34311 0.73434 0.0
C1493 C 0.05378 0.33078 0.70827 0.0
C1494 C 0.03687 0.32202 0.69043 0.0
C1495 C 0.01145 0.32283 0.695 0.0
C1496 C 1.00288 0.33295 0.7169 0.0
C1497 C 0.04562 0.31259 0.6666 0.0
C1498 C 0.04405 0.32794 0.64552 0.0
C1499 C 0.05627 0.289 0.66486 0.0
C1500 C 0.05826 0.27217 0.68664 0.0
C1501 C 0.0369 0.26402 0.69929 0.0
C1502 C 0.03896 0.24833 0.71995 0.0
C1503 C 0.06227 0.24053 0.72802 0.0
C1504 C 0.08357 0.24833 0.71539 0.0
C1505 C 0.08161 0.26405 0.69474 0.0
H1506 H 0.06382 0.22837 0.74401 0.0
H1507 H 0.05378 0.38492 0.54617 0.0
H1508 H 0.01709 0.80785 0.80116 0.0
H1509 H 0.99324 0.79177 0.83652 0.0
H1510 H 0.97273 0.86635 0.85505 0.0
H1511 H 0.99603 0.88217 0.81938 0.0
H1512 H 1.00255 0.79639 0.88114 0.0
H1513 H 0.92402 0.86969 0.89051 0.0
H1514 H 0.88875 0.88709 0.86709 0.0
H1515 H 0.89251 0.82763 0.81504 0.0
H1516 H 0.92789 0.81 0.83803 0.0
H1517 H 0.95896 0.77362 1.00288 0.0
H1518 H 0.97649 0.79449 0.96625 0.0
H1519 H 0.90498 0.78925 0.9299 0.0
H1520 H 0.88723 0.77174 0.96742 0.0
H1521 H 0.92194 0.82502 0.9123 0.0
H1522 H 0.96173 0.74639 0.92345 0.0
H1523 H 0.98699 0.7144 0.94419 0.0
H1524 H 0.0491 0.76491 0.94688 0.0
H1525 H 0.02413 0.79727 0.92643 0.0
C1526 C 1.00679 0.82064 0.81237 0.0
C1527 C 1.008 0.84616 0.80725 0.0
C1528 C 0.9933 0.81151 0.83273 0.0
C1529 C 0.98108 0.82775 0.84874 0.0
C1530 C 0.9815 0.85325 0.84295 0.0
C1531 C 0.99488 0.86235 0.8225 0.0
C1532 C 0.9705 0.81848 0.87283 0.0
C1533 C 0.98472 0.80248 0.88778 0.0
C1534 C 0.94719 0.82599 0.88177 0.0
C1535 C 0.92879 0.83873 0.86581 0.0
C1536 C 0.9176 0.86061 0.8738 0.0
C1537 C 0.89747 0.87039 0.86072 0.0
C1538 C 0.88822 0.8583 0.83977 0.0
C1539 C 0.89955 0.83684 0.83141 0.0
C1540 C 0.91981 0.82709 0.84431 0.0
C1541 C 0.94693 0.77794 0.98733 0.0
C1542 C 0.92159 0.77179 0.98829 0.0
C1543 C 0.95705 0.7893 0.96605 0.0
C1544 C 0.94244 0.79295 0.94455 0.0
C1545 C 0.91695 0.78706 0.94592 0.0
C1546 C 0.90666 0.77697 0.96754 0.0
C1547 C 0.95332 0.80206 0.92039 0.0
C1548 C 0.93954 0.81858 0.90562 0.0
C1549 C 0.97616 0.79354 0.91088 0.0
C1550 C 0.991 0.77429 0.92364 0.0
C1551 C 0.98072 0.75071 0.92864 0.0
C1552 C 0.99499 0.73251 0.94031 0.0
C1553 C 0.01963 0.73763 0.94684 0.0
C1554 C 0.03002 0.76098 0.94182 0.0
C1555 C 0.01582 0.77925 0.9302 0.0
H1556 H 0.03073 0.72349 0.95568 0.0
H1557 H 0.87246 0.86574 0.82983 0.0
H1558 H 0.48864 0.64218 0.22501 0.0
H1559 H 0.46999 0.6589 0.18747 0.0
H1560 H 0.50656 0.72917 0.20055 0.0
H1561 H 0.52391 0.71266 0.23945 0.0
H1562 H 0.46492 0.73836 0.17882 0.0
H1563 H 0.53046 0.68384 0.16005 0.0
H1564 H 0.55409 0.64512 0.16291 0.0
H1565 H 0.49246 0.60472 0.13179 0.0
H1566 H 0.46833 0.64319 0.12902 0.0
H1567 H 0.45327 0.76941 0.04742 0.0
H1568 H 0.47741 0.75193 0.08228 0.0
H1569 H 0.41564 0.70424 0.1014 0.0
H1570 H 0.39125 0.72255 0.06783 0.0
H1571 H 0.47492 0.68591 0.10449 0.0
H1572 H 0.40861 0.74344 0.13236 0.0
H1573 H 0.38847 0.78397 0.12717 0.0
H1574 H 0.45846 0.82107 0.13864 0.0
H1575 H 0.47906 0.78067 0.14334 0.0
C1576 C 0.49207 0.6614 0.22047 0.0
C1577 C 0.5073 0.67619 0.23572 0.0
C1578 C 0.48168 0.67093 0.1986 0.0
C1579 C 0.4874 0.69517 0.1905 0.0
C1580 C 0.50186 0.71037 0.20615 0.0
C1581 C 0.51174 0.70095 0.22846 0.0
C1582 C 0.47936 0.70398 0.16523 0.0
C1583 C 0.46747 0.72693 0.16264 0.0
C1584 C 0.48281 0.68945 0.14368 0.0
C1585 C 0.49753 0.66639 0.14446 0.0
C1586 C 0.52193 0.66669 0.15385 0.0
C1587 C 0.5354 0.64479 0.15549 0.0
C1588 C 0.52476 0.62246 0.1476 0.0
C1589 C 0.50067 0.62203 0.13791 0.0
C1590 C 0.4871 0.64389 0.13626 0.0
C1591 C 0.44533 0.75441 0.05838 0.0
C1592 C 0.42059 0.74684 0.05447 0.0
C1593 C 0.45903 0.74459 0.07843 0.0
C1594 C 0.44831 0.72673 0.09444 0.0
C1595 C 0.42436 0.71782 0.08924 0.0
C1596 C 0.41047 0.72823 0.06994 0.0
C1597 C 0.46023 0.71981 0.11849 0.0
C1598 C 0.47274 0.69729 0.12077 0.0
C1599 C 0.45793 0.73492 0.1396 0.0
C1600 C 0.44538 0.75911 0.13796 0.0
C1601 C 0.4197 0.76025 0.13363 0.0
C1602 C 0.40821 0.78318 0.13076 0.0
C1603 C 0.42219 0.80509 0.1325 0.0
C1604 C 0.44766 0.80409 0.13725 0.0
C1605 C 0.45925 0.78119 0.14 0.0
H1606 H 0.41327 0.82283 0.13021 0.0
H1607 H 0.5352 0.60551 0.14896 0.0
H1608 H 0.10427 0.36153 0.35699 0.0
H1609 H 0.12343 0.3774 0.3193 0.0
H1610 H 0.19574 0.36 0.34864 0.0
H1611 H 0.17667 0.34536 0.38732 0.0
H1612 H 0.19775 0.40379 0.32689 0.0
H1613 H 0.16718 0.32457 0.30168 0.0
H1614 H 0.13666 0.29052 0.29677 0.0
H1615 H 0.08963 0.33826 0.25382 0.0
H1616 H 0.11974 0.37269 0.25871 0.0
H1617 H 0.2508 0.42598 0.20604 0.0
H1618 H 0.23711 0.40359 0.24352 0.0
H1619 H 0.16288 0.4303 0.23215 0.0
H1620 H 0.17646 0.45274 0.1949 0.0
H1621 H 0.16597 0.37842 0.24432 0.0
H1622 H 0.19612 0.45822 0.27235 0.0
H1623 H 0.22789 0.4913 0.27559 0.0
H1624 H 0.2773 0.44083 0.31214 0.0
H1625 H 0.24594 0.40729 0.30873 0.0
C1626 C 0.12427 0.36119 0.35563 0.0
C1627 C 0.13885 0.35221 0.37541 0.0
C1628 C 0.13524 0.37001 0.33381 0.0
C1629 C 0.16108 0.3696 0.33081 0.0
C1630 C 0.17576 0.36044 0.35038 0.0
C1631 C 0.16478 0.3518 0.37242 0.0
C1632 C 0.17252 0.37935 0.30745 0.0
C1633 C 0.1911 0.39784 0.30887 0.0
C1634 C 0.16377 0.37193 0.28377 0.0
C1635 C 0.14564 0.35125 0.28071 0.0
C1636 C 0.15025 0.32785 0.29132 0.0
C1637 C 0.13304 0.30847 0.28852 0.0
C1638 C 0.1112 0.31224 0.27503 0.0
C1639 C 0.10655 0.33537 0.26426 0.0
C1640 C 0.1237 0.35481 0.26701 0.0
C1641 C 0.23152 0.42684 0.21143 0.0
C1642 C 0.21471 0.44125 0.19769 0.0
C1643 C 0.22376 0.41417 0.23288 0.0
C1644 C 0.19901 0.41541 0.24067 0.0
C1645 C 0.18207 0.42913 0.22648 0.0
C1646 C 0.18988 0.44207 0.20531 0.0
C1647 C 0.19072 0.40296 0.26392 0.0
C1648 C 0.17276 0.38404 0.26241 0.0
C1649 C 0.20018 0.40985 0.28741 0.0
C1650 C 0.21878 0.43017 0.29006 0.0
C1651 C 0.21382 0.45412 0.28093 0.0
C1652 C 0.23174 0.47297 0.28281 0.0
C1653 C 0.25462 0.46816 0.294 0.0
C1654 C 0.25957 0.44452 0.30344 0.0
C1655 C 0.24173 0.42558 0.30155 0.0
H1656 H 0.26849 0.48276 0.29541 0.0
H1657 H 0.09789 0.29722 0.27289 0.0
H1658 H 0.94413 0.87443 0.59426 0.0
H1659 H 0.9273 0.89829 0.55941 0.0
H1660 H 0.90775 0.95687 0.60915 0.0
H1661 H 0.92456 0.93293 0.64421 0.0
H1662 H 0.86893 0.94276 0.57934 0.0
H1663 H 0.95346 0.96711 0.5685 0.0
H1664 H 0.99848 0.96095 0.5647 0.0
H1665 H 0.98638 0.91741 0.49946 0.0
H1666 H 0.94125 0.92303 0.50304 0.0
H1667 H 0.85199 0.01269 0.4543 0.0
H1668 H 0.8781 1.00371 0.49086 0.0
H1669 H 0.84606 0.93025 0.4956 0.0
H1670 H 0.82124 0.9386 0.45883 0.0
H1671 H 0.91285 0.96176 0.50067 0.0
H1672 H 0.82994 0.92285 0.55695 0.0
H1673 H 0.78506 0.92978 0.56132 0.0
H1674 H 0.79472 1.00511 0.53661 0.0
H1675 H 0.83968 0.99877 0.53244 0.0
C1676 C 0.93646 0.8925 0.59773 0.0
C1677 C 0.93557 0.90178 0.62197 0.0
C1678 C 0.92701 0.9062 0.57778 0.0
C1679 C 0.91639 0.92944 0.58163 0.0
C1680 C 0.91596 0.93902 0.60574 0.0
C1681 C 0.92567 0.92541 0.62572 0.0
C1682 C 0.90414 0.9427 0.5607 0.0
C1683 C 0.87863 0.94718 0.56227 0.0
C1684 C 0.9168 0.94872 0.53846 0.0
C1685 C 0.94394 0.94539 0.53613 0.0
C1686 C 0.96038 0.95608 0.55343 0.0
C1687 C 0.98592 0.95271 0.5513 0.0
C1688 C 0.99528 0.93877 0.53187 0.0
C1689 C 0.9791 0.92821 0.5145 0.0
C1690 C 0.95354 0.93152 0.51655 0.0
C1691 C 0.85072 0.99457 0.46305 0.0
C1692 C 0.83381 0.97661 0.4542 0.0
C1693 C 0.86561 0.9895 0.48389 0.0
C1694 C 0.86361 0.96648 0.49616 0.0
C1695 C 0.8475 0.9483 0.48672 0.0
C1696 C 0.83298 0.95324 0.46588 0.0
C1697 C 0.87767 0.96113 0.51924 0.0
C1698 C 0.90336 0.95786 0.51798 0.0
C1699 C 0.86524 0.95632 0.54183 0.0
C1700 C 0.83819 0.96029 0.54433 0.0
C1701 C 0.82251 0.94093 0.55256 0.0
C1702 C 0.79705 0.94475 0.55499 0.0
C1703 C 0.78709 0.96789 0.54933 0.0
C1704 C 0.80249 0.9872 0.54101 0.0
C1705 C 0.82795 0.98349 0.53857 0.0
H1706 H 0.76745 0.97093 0.55154 0.0
H1707 H 0.01506 0.93617 0.53025 0.0
H1708 H 0.29847 0.60243 0.68079 0.0
H1709 H 0.30979 0.62749 0.71701 0.0
H1710 H 0.30863 0.56176 0.76307 0.0
H1711 H 0.29694 0.53689 0.72735 0.0
H1712 H 0.28667 0.59887 0.78644 0.0
H1713 H 0.3631 0.58805 0.74267 0.0
H1714 H 0.39065 0.59057 0.70641 0.0
H1715 H 0.38322 0.66968 0.70416 0.0
H1716 H 0.3553 0.66758 0.74022 0.0
H1717 H 0.36191 0.62887 0.88998 0.0
H1718 H 0.34309 0.61254 0.85211 0.0
H1719 H 0.34522 0.68563 0.81916 0.0
H1720 H 0.36415 0.70214 0.85742 0.0
H1721 H 0.36385 0.64985 0.7876 0.0
H1722 H 0.29025 0.66031 0.83463 0.0
H1723 H 0.2631 0.65682 0.87113 0.0
H1724 H 0.2657 0.57746 0.86759 0.0
H1725 H 0.29314 0.58047 0.83124 0.0
C1726 C 0.30053 0.59334 0.69865 0.0
C1727 C 0.29705 0.56751 0.70095 0.0
C1728 C 0.30713 0.60769 0.71938 0.0
C1729 C 0.31034 0.59658 0.7429 0.0
C1730 C 0.30633 0.5709 0.74525 0.0
C1731 C 0.29982 0.5566 0.72463 0.0
C1732 C 0.31813 0.61136 0.76513 0.0
C1733 C 0.30363 0.60988 0.78668 0.0
C1734 C 0.33995 0.62631 0.76548 0.0
C1735 C 0.35689 0.62764 0.74396 0.0
C1736 C 0.36719 0.60597 0.73433 0.0
C1737 C 0.38289 0.60732 0.71383 0.0
C1738 C 0.38862 0.63027 0.70294 0.0
C1739 C 0.37872 0.65191 0.71258 0.0
C1740 C 0.36297 0.65066 0.73306 0.0
C1741 C 0.35803 0.64156 0.87482 0.0
C1742 C 0.36449 0.66682 0.87676 0.0
C1743 C 0.34722 0.6322 0.85312 0.0
C1744 C 0.34261 0.64777 0.83263 0.0
C1745 C 0.34856 0.67318 0.83465 0.0
C1746 C 0.35916 0.68266 0.8566 0.0
C1747 C 0.33256 0.63704 0.809 0.0
C1748 C 0.34668 0.63916 0.78723 0.0
C1749 C 0.31044 0.62256 0.80846 0.0
C1750 C 0.29391 0.62063 0.83031 0.0
C1751 C 0.28519 0.64211 0.84174 0.0
C1752 C 0.26971 0.64022 0.86238 0.0
C1753 C 0.26272 0.61693 0.8717 0.0
C1754 C 0.27114 0.59549 0.86036 0.0
C1755 C 0.28663 0.59728 0.83971 0.0
H1756 H 0.25073 0.61551 0.88769 0.0
H1757 H 0.40078 0.63128 0.68706 0.0
H1758 H 0.61997 0.10145 0.1366 0.0
H1759 H 0.63716 0.07935 0.10106 0.0
H1760 H 0.59918 0.12882 0.05092 0.0
H1761 H 0.58254 0.15131 0.08634 0.0
H1762 H 0.59931 0.07447 0.03724 0.0
H1763 H 0.65315 0.1438 0.06164 0.0
H1764 H 0.6781 0.16716 0.09215 0.0
H1765 H 0.72297 0.10325 0.10565 0.0
H1766 H 0.69794 0.07936 0.07555 0.0
H1767 H 0.66788 0.06481 0.92466 0.0
H1768 H 0.64386 0.07724 0.96091 0.0
H1769 H 0.69967 0.04623 1.00932 0.0
H1770 H 0.72389 0.03472 0.97339 0.0
H1771 H 0.68953 0.08885 0.02526 0.0
H1772 H 0.64005 0.01917 1.00173 0.0
H1773 H 0.61738 0.99347 0.97134 0.0
H1774 H 0.56615 0.05243 0.95825 0.0
H1775 H 0.58869 0.07861 0.98838 0.0
C1776 C 0.61501 0.10729 0.11798 0.0
C1777 C 0.60011 0.12815 0.11413 0.0
C1778 C 0.62479 0.09468 0.09774 0.0
C1779 C 0.61942 0.10247 0.07337 0.0
C1780 C 0.60344 0.12245 0.06955 0.0
C1781 C 0.59409 0.13536 0.08975 0.0
C1782 C 0.63246 0.0916 0.05197 0.0
C1783 C 0.619 0.07766 0.03449 0.0
C1784 C 0.65826 0.09523 0.04876 0.0
C1785 C 0.67348 0.10971 0.06659 0.0
C1786 C 0.66818 0.13466 0.0713 0.0
C1787 C 0.68236 0.14801 0.08848 0.0
C1788 C 0.70206 0.13668 0.10089 0.0
C1789 C 0.70767 0.11199 0.09607 0.0
C1790 C 0.69349 0.09854 0.07896 0.0
C1791 C 0.67464 0.06019 0.94305 0.0
C1792 C 0.69765 0.04874 0.94622 0.0
C1793 C 0.66097 0.06732 0.9638 0.0
C1794 C 0.66984 0.06259 0.988 0.0
C1795 C 0.6924 0.05025 0.99097 0.0
C1796 C 0.70616 0.04351 0.97037 0.0
C1797 C 0.65648 0.07155 1.01028 0.0
C1798 C 0.66988 0.08528 0.02798 0.0
C1799 C 0.6308 0.06713 1.01397 0.0
C1800 C 0.61621 0.05094 0.9971 0.0
C1801 C 0.62395 0.02666 0.99236 0.0
C1802 C 0.61116 0.01202 0.97516 0.0
C1803 C 0.5905 0.02142 0.96271 0.0
C1804 C 0.58226 0.04525 0.96782 0.0
C1805 C 0.59499 0.05998 0.98501 0.0
H1806 H 0.58089 0.01023 0.94907 0.0
H1807 H 0.71302 0.14704 0.11418 0.0
H1808 H 0.67805 0.19999 0.66447 0.0
H1809 H 0.69805 0.18332 0.70193 0.0
H1810 H 0.65443 0.11609 0.69524 0.0
H1811 H 0.63612 0.13165 0.65719 0.0
H1812 H 0.68304 0.17286 0.74457 0.0
H1813 H 0.67902 0.06663 0.72147 0.0
H1814 H 0.68578 0.03969 0.68556 0.0
H1815 H 0.72946 0.09697 0.65047 0.0
H1816 H 0.72331 0.12412 0.68631 0.0
H1817 H 0.69284 0.10913 0.85899 0.0
H1818 H 0.6802 0.12599 0.8187 0.0
H1819 H 0.73966 0.0865 0.78388 0.0
H1820 H 0.74998 0.06737 0.82361 0.0
H1821 H 0.70825 0.08527 0.75376 0.0
H1822 H 0.73694 0.15608 0.79843 0.0
H1823 H 0.73929 0.18525 0.83331 0.0
H1824 H 0.66272 0.20343 0.82242 0.0
H1825 H 0.65984 0.17416 0.78765 0.0
C1826 C 0.67321 0.18141 0.67064 0.0
C1827 C 0.6552 0.16735 0.65778 0.0
C1828 C 0.68448 0.17196 0.69229 0.0
C1829 C 0.678 0.14825 0.70159 0.0
C1830 C 0.66033 0.13416 0.68846 0.0
C1831 C 0.64946 0.14335 0.66674 0.0
C1832 C 0.68856 0.13851 0.72552 0.0
C1833 C 0.68881 0.15376 0.74649 0.0
C1834 C 0.69682 0.11378 0.72821 0.0
C1835 C 0.70045 0.09753 0.70651 0.0
C1836 C 0.69012 0.07347 0.70613 0.0
C1837 C 0.69385 0.05815 0.68578 0.0
C1838 C 0.70796 0.06664 0.6657 0.0
C1839 C 0.71843 0.09045 0.66597 0.0
C1840 C 0.7148 0.10582 0.68629 0.0
C1841 C 0.70298 0.10398 0.84259 0.0
C1842 C 0.72203 0.08661 0.84433 0.0
C1843 C 0.69605 0.11395 0.81951 0.0
C1844 C 0.70929 0.10827 0.79785 0.0
C1845 C 0.7288 0.09126 0.79991 0.0
C1846 C 0.73485 0.08034 0.82276 0.0
C1847 C 0.70271 0.11955 0.77307 0.0
C1848 C 0.70295 0.1045 0.75191 0.0
C1849 C 0.69636 0.14488 0.76996 0.0
C1850 C 0.69814 0.16282 0.79056 0.0
C1851 C 0.72059 0.16626 0.80353 0.0
C1852 C 0.72201 0.1828 0.82328 0.0
C1853 C 0.70116 0.19615 0.83011 0.0
C1854 C 0.67886 0.19307 0.81712 0.0
C1855 C 0.67733 0.17654 0.79737 0.0
H1856 H 0.70228 0.20891 0.84543 0.0
H1857 H 0.71082 0.05476 0.64997 0.0
H1858 H 0.21782 0.48693 0.0711 0.0
H1859 H 0.19893 0.47455 0.03173 0.0
H1860 H 0.14981 0.42416 0.07084 0.0
H1861 H 0.16927 0.43613 0.11031 0.0
H1862 H 0.16828 0.40286 0.0305 0.0
H1863 H 0.13085 0.48176 0.04822 0.0
H1864 H 0.13247 0.52629 0.05805 0.0
H1865 H 0.17123 0.54145 0.99017 0.0
H1866 H 0.17014 0.49695 0.98011 0.0
H1867 H 0.08422 0.37384 0.93645 0.0
H1868 H 0.10146 0.39112 0.97474 0.0
H1869 H 0.14534 0.44325 0.93184 0.0
H1870 H 0.12712 0.42655 0.89348 0.0
H1871 H 0.13131 0.46466 0.97302 0.0
H1872 H 0.16963 0.38811 0.95429 0.0
H1873 H 0.17137 0.34383 0.94373 0.0
H1874 H 0.1355 0.32453 1.01222 0.0
H1875 H 0.13319 0.36874 0.02301 0.0
C1876 C 0.20317 0.473 0.07124 0.0
C1877 C 0.19535 0.46197 0.09362 0.0
C1878 C 0.19219 0.46615 0.04876 0.0
C1879 C 0.17273 0.44861 0.04828 0.0
C1880 C 0.16481 0.43771 0.07072 0.0
C1881 C 0.17586 0.44453 0.09322 0.0
C1882 C 0.16067 0.44147 0.02445 0.0
C1883 C 0.15993 0.41635 0.0181 0.0
C1884 C 0.15054 0.45916 1.00778 0.0
C1885 C 0.15055 0.486 1.01349 0.0
C1886 C 0.13979 0.49458 0.03543 0.0
C1887 C 0.14062 0.51981 0.04105 0.0
C1888 C 0.15198 0.53668 0.02476 0.0
C1889 C 0.16244 0.52836 1.00277 0.0
C1890 C 0.1617 0.50314 0.99709 0.0
C1891 C 0.09714 0.38934 0.9353 0.0
C1892 C 0.10439 0.39891 0.91216 0.0
C1893 C 0.10717 0.39908 0.95713 0.0
C1894 C 0.12526 0.41808 0.95623 0.0
C1895 C 0.13156 0.42852 0.93308 0.0
C1896 C 0.12115 0.41903 0.91119 0.0
C1897 C 0.13849 0.42591 0.9793 0.0
C1898 C 0.13964 0.45115 0.98542 0.0
C1899 C 0.14942 0.40839 0.99564 0.0
C1900 C 0.15103 0.38176 0.98934 0.0
C1901 C 0.16197 0.37443 0.96703 0.0
C1902 C 0.16307 0.34935 0.961 0.0
C1903 C 0.1535 0.33138 0.97727 0.0
C1904 C 0.14288 0.33847 0.99963 0.0
C1905 C 0.14168 0.36354 1.00571 0.0
H1906 H 0.15436 0.31197 0.97257 0.0
H1907 H 0.15265 0.5562 0.02916 0.0
H1908 H 0.83757 0.92646 0.36056 0.0
H1909 H 0.84781 0.91095 0.31956 0.0
H1910 H 0.78606 0.95118 0.28859 0.0
H1911 H 0.77872 0.96955 0.32856 0.0
H1912 H 0.82767 0.88187 0.29348 0.0
H1913 H 0.77724 0.94926 0.24147 0.0
H1914 H 0.76798 0.99282 0.23097 0.0
H1915 H 0.84477 0.01235 0.23998 0.0
H1916 H 0.85415 0.96922 0.2525 0.0
H1917 H 0.84422 0.82829 0.17415 0.0
H1918 H 0.82384 0.84733 0.20954 0.0
H1919 H 0.87036 0.91245 0.20067 0.0
H1920 H 0.88886 0.89474 0.16429 0.0
H1921 H 0.82882 0.9271 0.21322 0.0
H1922 H 0.88044 0.85961 0.2453 0.0
H1923 H 0.8921 0.81566 0.24912 0.0
H1924 H 0.81866 0.79677 0.27388 0.0
H1925 H 0.80653 0.84058 0.26996 0.0
C1926 C 0.82703 0.93285 0.34465 0.0
C1927 C 0.80808 0.95003 0.34761 0.0
C1928 C 0.83257 0.92369 0.32114 0.0
C1929 C 0.81818 0.93012 0.30013 0.0
C1930 C 0.79873 0.94688 0.30346 0.0
C1931 C 0.79418 0.95717 0.32671 0.0
C1932 C 0.82254 0.91754 0.27574 0.0
C1933 C 0.82811 0.89207 0.27606 0.0
C1934 C 0.82219 0.92995 0.25237 0.0
C1935 C 0.81614 0.95637 0.24902 0.0
C1936 C 0.79197 0.96309 0.2421 0.0
C1937 C 0.7867 0.98768 0.23592 0.0
C1938 C 0.80572 1.00548 0.2355 0.0
C1939 C 0.82998 0.9987 0.24131 0.0
C1940 C 0.8352 0.9743 0.24837 0.0
C1941 C 0.84976 0.84686 0.17943 0.0
C1942 C 0.86873 0.85964 0.16655 0.0
C1943 C 0.83832 0.85762 0.19998 0.0
C1944 C 0.84599 0.88114 0.20843 0.0
C1945 C 0.86413 0.89423 0.19489 0.0
C1946 C 0.87507 0.88381 0.17416 0.0
C1947 C 0.83598 0.89233 0.23156 0.0
C1948 C 0.82877 0.91721 0.23084 0.0
C1949 C 0.83514 0.87948 0.25455 0.0
C1950 C 0.84254 0.85326 0.2571 0.0
C1951 C 0.86678 0.84604 0.25146 0.0
C1952 C 0.87346 0.82117 0.25364 0.0
C1953 C 0.85611 0.80343 0.26167 0.0
C1954 C 0.83206 0.81053 0.26762 0.0
C1955 C 0.82528 0.83536 0.26543 0.0
H1956 H 0.86131 0.78418 0.26334 0.0
H1957 H 0.80175 0.02443 0.23026 0.0
H1958 H 0.29617 0.53398 0.57278 0.0
H1959 H 0.31487 0.54827 0.53414 0.0
H1960 H 0.38181 0.56823 0.57395 0.0
H1961 H 0.36152 0.55726 0.61299 0.0
H1962 H 0.37916 0.59917 0.5418 0.0
H1963 H 0.36933 0.51065 0.53375 0.0
H1964 H 0.34599 0.47102 0.53379 0.0
H1965 H 0.29949 0.49781 0.47476 0.0
H1966 H 0.32236 0.53771 0.47459 0.0
H1967 H 0.4547 0.60602 0.43309 0.0
H1968 H 0.43641 0.58839 0.47122 0.0
H1969 H 0.36361 0.59262 0.43817 0.0
H1970 H 0.38177 0.61045 0.40036 0.0
H1971 H 0.37044 0.54863 0.46593 0.0
H1972 H 0.38283 0.63734 0.47534 0.0
H1973 H 0.40829 0.67563 0.47581 0.0
H1974 H 0.45411 0.64499 0.53347 0.0
H1975 H 0.42913 0.60636 0.53307 0.0
C1976 C 0.31459 0.54211 0.57336 0.0
C1977 C 0.32696 0.54533 0.59613 0.0
C1978 C 0.32568 0.54969 0.55102 0.0
C1979 C 0.35029 0.55884 0.55054 0.0
C1980 C 0.36283 0.56145 0.57338 0.0
C1981 C 0.35127 0.55499 0.59582 0.0
C1982 C 0.36297 0.56582 0.52653 0.0
C1983 C 0.37753 0.58767 0.52549 0.0
C1984 C 0.36079 0.55142 0.50463 0.0
C1985 C 0.34745 0.52721 0.50428 0.0
C1986 C 0.3541 0.50809 0.52082 0.0
C1987 C 0.34094 0.4856 0.52088 0.0
C1988 C 0.32124 0.48192 0.50432 0.0
C1989 C 0.31474 0.50069 0.48759 0.0
C1990 C 0.32781 0.52323 0.48747 0.0
C1991 C 0.43487 0.60264 0.43382 0.0
C1992 C 0.41967 0.60956 0.41373 0.0
C1993 C 0.42439 0.59274 0.45567 0.0
C1994 C 0.39853 0.58936 0.45774 0.0
C1995 C 0.38355 0.59502 0.43713 0.0
C1996 C 0.39395 0.60521 0.41551 0.0
C1997 C 0.38679 0.58145 0.4817 0.0
C1998 C 0.37227 0.55968 0.48255 0.0
C1999 C 0.38949 0.59554 0.50357 0.0
C2000 C 0.40427 0.61888 0.504 0.0
C2001 C 0.39844 0.63871 0.48799 0.0
C2002 C 0.41277 0.66048 0.48826 0.0
C2003 C 0.43284 0.66272 0.50461 0.0
C2004 C 0.43858 0.64322 0.52078 0.0
C2005 C 0.42434 0.62139 0.52056 0.0
H2006 H 0.44392 0.67958 0.50479 0.0
H2007 H 0.31104 0.46451 0.50444 0.0
H2008 H 0.22323 0.20233 0.48214 0.0
H2009 H 0.25833 0.19385 0.456 0.0
H2010 H 0.21708 0.21834 0.39177 0.0
H2011 H 0.18116 0.22626 0.418 0.0
H2012 H 0.24203 0.17566 0.38318 0.0
H2013 H 0.26169 0.25523 0.41543 0.0
H2014 H 0.26612 0.28675 0.44796 0.0
H2015 H 0.32188 0.24323 0.48426 0.0
H2016 H 0.31751 0.21122 0.45216 0.0
H2017 H 0.35382 0.16404 0.31465 0.0
H2018 H 0.3196 0.18685 0.33334 0.0
H2019 H 0.34037 0.1587 0.40553 0.0
H2020 H 0.3742 0.1356 0.3869 0.0
H2021 H 0.32518 0.21005 0.40462 0.0
H2022 H 0.29939 0.12812 0.37749 0.0
H2023 H 0.29434 0.09521 0.34642 0.0
H2024 H 0.24959 0.14326 0.30135 0.0
H2025 H 0.25477 0.17664 0.33201 0.0
C2026 C 0.22127 0.20556 0.46248 0.0
C2027 C 0.1991 0.21459 0.45224 0.0
C2028 C 0.2416 0.20103 0.44754 0.0
C2029 C 0.24045 0.20584 0.422 0.0
C2030 C 0.21835 0.21464 0.4115 0.0
C2031 C 0.19785 0.21912 0.42653 0.0
C2032 C 0.26238 0.20105 0.40648 0.0
C2033 C 0.26009 0.18369 0.38742 0.0
C2034 C 0.28601 0.21126 0.41233 0.0
C2035 C 0.28919 0.23075 0.4314 0.0
C2036 C 0.27483 0.25231 0.4304 0.0
C2037 C 0.27732 0.27027 0.44877 0.0
C2038 C 0.29425 0.26698 0.46818 0.0
C2039 C 0.30878 0.24575 0.4692 0.0
C2040 C 0.30633 0.22771 0.45089 0.0
C2041 C 0.35128 0.16317 0.33455 0.0
C2042 C 0.36633 0.14795 0.34939 0.0
C2043 C 0.33182 0.17614 0.34516 0.0
C2044 C 0.32748 0.1743 0.37076 0.0
C2045 C 0.34351 0.16038 0.38576 0.0
C2046 C 0.36266 0.14709 0.37512 0.0
C2047 C 0.30476 0.18445 0.38168 0.0
C2048 C 0.30696 0.20265 0.39995 0.0
C2049 C 0.28104 0.17504 0.37515 0.0
C2050 C 0.27776 0.15497 0.35683 0.0
C2051 C 0.28868 0.13174 0.36083 0.0
C2052 C 0.28577 0.113 0.34332 0.0
C2053 C 0.27173 0.11717 0.32188 0.0
C2054 C 0.26052 0.14008 0.31794 0.0
C2055 C 0.26345 0.15892 0.33536 0.0
H2056 H 0.26947 0.10263 0.30835 0.0
H2057 H 0.29613 0.28089 0.4824 0.0
H2058 H 0.1391 0.11294 0.65027 0.0
H2059 H 0.1189 0.07658 0.6691 0.0
H2060 H 0.08945 0.05578 0.59772 0.0
H2061 H 0.10969 0.09239 0.57871 0.0
H2062 H 0.06895 0.05871 0.67088 0.0
H2063 H 0.09699 1.00051 0.59171 0.0
H2064 H 0.12974 0.99822 0.55996 0.0
H2065 H 0.18349 0.0257 0.61229 0.0
H2066 H 0.15098 0.02834 0.64417 0.0
H2067 H 0.02415 0.9413 0.71539 0.0
H2068 H 0.03219 0.97874 0.69116 0.0
H2069 H 0.1083 0.95647 0.68184 0.0
H2070 H 0.09814 0.91668 0.70132 0.0
H2071 H 0.10109 0.9773 0.64536 0.0
H2072 H 0.07481 0.01088 0.72765 0.0
H2073 H 0.04422 0.01682 0.76109 0.0
H2074 H 0.99066 0.04158 0.70767 0.0
H2075 H 0.02086 0.03592 0.67408 0.0
C2076 C 0.12803 0.1008 0.63863 0.0
C2077 C 0.12609 0.10545 0.61298 0.0
C2078 C 0.11643 0.08007 0.64944 0.0
C2079 C 0.10285 0.06329 0.63483 0.0
C2080 C 0.1 0.06837 0.60934 0.0
C2081 C 0.11141 0.08936 0.59852 0.0
C2082 C 0.09318 0.0398 0.64619 0.0
C2083 C 0.0759 0.04081 0.66541 0.0
C2084 C 0.10218 0.01653 0.63912 0.0
C2085 C 0.12168 0.01456 0.62019 0.0
C2086 C 0.11584 1.00593 0.59639 0.0
C2087 C 0.13431 1.00468 0.57838 0.0
C2088 C 0.15868 0.01179 0.58411 0.0
C2089 C 0.16462 0.02023 0.60786 0.0
C2090 C 0.14618 0.02167 0.62586 0.0
C2091 C 0.04265 0.94465 0.70826 0.0
C2092 C 0.06103 0.92669 0.7114 0.0
C2093 C 0.04748 0.96646 0.69469 0.0
C2094 C 0.07138 0.97182 0.6854 0.0
C2095 C 0.08965 0.95349 0.68861 0.0
C2096 C 0.08415 0.93083 0.70043 0.0
C2097 C 0.07745 0.99569 0.67162 0.0
C2098 C 0.09398 0.9949 0.65143 0.0
C2099 C 0.06793 0.01927 0.67821 0.0
C2100 C 0.04997 0.02267 0.69846 0.0
C2101 C 0.05648 0.01745 0.72316 0.0
C2102 C 0.03924 0.02077 0.74208 0.0
C2103 C 0.01552 0.02935 0.7365 0.0
C2104 C 1.00901 0.03485 0.71198 0.0
C2105 C 0.02618 0.03166 0.69302 0.0
H2106 H 1.00222 0.03183 0.75118 0.0
H2107 H 0.17296 0.01077 0.57016 0.0
H2108 H 0.14868 0.86112 0.89064 0.0
H2109 H 0.18327 0.84067 0.9123 0.0
H2110 H 0.23413 0.87018 0.85779 0.0
H2111 H 0.19981 0.89064 0.83638 0.0
H2112 H 0.24439 0.82156 0.87021 0.0
H2113 H 0.22689 0.89838 0.91219 0.0
H2114 H 0.20051 0.92723 0.93498 0.0
H2115 H 0.18996 0.87277 0.99264 0.0
H2116 H 0.21596 0.84343 0.96997 0.0
H2117 H 0.36264 0.82163 0.92594 0.0
H2118 H 0.32323 0.83508 0.90773 0.0
H2119 H 0.28371 0.8019 0.96913 0.0
H2120 H 0.32303 0.78804 0.98709 0.0
H2121 H 0.26482 0.84798 0.95586 0.0
H2122 H 0.28374 0.77226 0.91707 0.0
H2123 H 0.30979 0.7422 0.89552 0.0
H2124 H 0.31643 0.79202 0.83331 0.0
H2125 H 0.29077 0.8226 0.85469 0.0
C2126 C 0.16719 0.86282 0.8831 0.0
C2127 C 0.17157 0.87753 0.86187 0.0
C2128 C 0.18697 0.8513 0.89556 0.0
C2129 C 0.21142 0.85409 0.88685 0.0
C2130 C 0.21552 0.86777 0.86495 0.0
C2131 C 0.19589 0.87949 0.85273 0.0
C2132 C 0.23304 0.84388 0.90088 0.0
C2133 C 0.2489 0.82747 0.88888 0.0
C2134 C 0.23864 0.85092 0.92557 0.0
C2135 C 0.22307 0.86858 0.93921 0.0
C2136 C 0.21874 0.89246 0.9296 0.0
C2137 C 0.20389 0.90892 0.94252 0.0
C2138 C 0.19348 0.9018 0.96519 0.0
C2139 C 0.19797 0.87823 0.97504 0.0
C2140 C 0.21276 0.86168 0.96216 0.0
C2141 C 0.34554 0.81742 0.93564 0.0
C2142 C 0.34602 0.80429 0.95823 0.0
C2143 C 0.32303 0.82504 0.92522 0.0
C2144 C 0.30043 0.81942 0.93698 0.0
C2145 C 0.30086 0.80657 0.95974 0.0
C2146 C 0.3234 0.79875 0.97006 0.0
C2147 C 0.27643 0.82618 0.92493 0.0
C2148 C 0.26016 0.84188 0.93729 0.0
C2149 C 0.27026 0.81825 0.90068 0.0
C2150 C 0.2855 0.79983 0.88759 0.0
C2151 C 0.29091 0.7769 0.89887 0.0
C2152 C 0.30559 0.75975 0.88668 0.0
C2153 C 0.3148 0.76521 0.86308 0.0
C2154 C 0.3093 0.78782 0.85161 0.0
C2155 C 0.29467 0.80507 0.86375 0.0
H2156 H 0.32616 0.75191 0.85367 0.0
H2157 H 0.18201 0.91458 0.97517 0.0
H2158 H 0.48782 0.07219 0.22793 0.0
H2159 H 0.47302 0.03397 0.2098 0.0
H2160 H 0.45439 0.07358 0.14242 0.0
H2161 H 0.4651 0.11273 0.16271 0.0
H2162 H 0.42303 0.04115 0.14587 0.0
H2163 H 0.51285 0.03256 0.15733 0.0
H2164 H 0.54994 0.03405 0.18441 0.0
H2165 H 0.51864 0.97673 0.23075 0.0
H2166 H 0.48135 0.97504 0.20414 0.0
H2167 H 0.41398 0.93327 0.07202 0.0
H2168 H 0.43273 0.971 0.08971 0.0
H2169 H 0.43081 0.93724 0.16246 0.0
H2170 H 0.4119 0.89971 0.1448 0.0
H2171 H 0.4737 0.96558 0.15519 0.0
H2172 H 0.38555 0.97388 0.14565 0.0
H2173 H 0.346 0.97344 0.12249 0.0
H2174 H 0.3734 0.03121 0.07426 0.0
H2175 H 0.4133 0.0317 0.0969 0.0
C2176 C 0.47984 0.07296 0.20959 0.0
C2177 C 0.47668 0.09575 0.19729 0.0
C2178 C 0.47208 0.05074 0.19874 0.0
C2179 C 0.46336 0.05024 0.17412 0.0
C2180 C 0.46097 0.07307 0.16141 0.0
C2181 C 0.46729 0.09554 0.17295 0.0
C2182 C 0.45652 0.02618 0.16173 0.0
C2183 C 0.43458 0.02492 0.14751 0.0
C2184 C 0.47085 1.00431 0.16433 0.0
C2185 C 0.49428 1.00378 0.17882 0.0
C2186 C 0.514 0.02015 0.17318 0.0
C2187 C 0.535 0.0211 0.18851 0.0
C2188 C 0.53653 1.00561 0.20937 0.0
C2189 C 0.51737 0.98875 0.21463 0.0
C2190 C 0.49635 0.98773 0.1994 0.0
C2191 C 0.4183 0.9337 0.09165 0.0
C2192 C 0.41179 0.91353 0.10703 0.0
C2193 C 0.42878 0.95531 0.10179 0.0
C2194 C 0.43296 0.95711 0.1275 0.0
C2195 C 0.42782 0.93635 0.14262 0.0
C2196 C 0.4171 0.91488 0.13252 0.0
C2197 C 0.44082 0.98109 0.13893 0.0
C2198 C 0.46268 0.98215 0.15312 0.0
C2199 C 0.42652 1.00278 0.13629 0.0
C2200 C 0.4025 1.00263 0.12278 0.0
C2201 C 0.38321 0.98634 0.12997 0.0
C2202 C 0.36073 0.98611 0.11696 0.0
C2203 C 0.35722 1.00224 0.09688 0.0
C2204 C 0.37617 0.01869 0.0898 0.0
C2205 C 0.39872 0.01896 0.10271 0.0
H2206 H 0.33979 1.00204 0.08683 0.0
H2207 H 0.55247 1.00673 0.22156 0.0
H2208 H 0.88331 0.34768 0.6524 0.0
H2209 H 0.84749 0.32777 0.6318 0.0
H2210 H 0.79817 0.37533 0.67143 0.0
H2211 H 0.83392 0.39543 0.69162 0.0
H2212 H 0.78091 0.3256 0.66867 0.0
H2213 H 0.81408 0.39013 0.61458 0.0
H2214 H 0.84699 0.41067 0.59003 0.0
H2215 H 0.85458 0.34516 0.54634 0.0
H2216 H 0.82198 0.32408 0.57092 0.0
H2217 H 0.66948 0.32263 0.60113 0.0
H2218 H 0.70807 0.33583 0.62141 0.0
H2219 H 0.74998 0.29386 0.56885 0.0
H2220 H 0.7112 0.28104 0.54821 0.0
H2221 H 0.77321 0.33648 0.57753 0.0
H2222 H 0.73997 0.27207 0.62808 0.0
H2223 H 0.70822 0.24918 0.6521 0.0
H2224 H 0.70233 0.31037 0.70188 0.0
H2225 H 0.73379 0.3338 0.67793 0.0
C2226 C 0.86476 0.35344 0.65704 0.0
C2227 C 0.86128 0.37291 0.6737 0.0
C2228 C 0.84434 0.34222 0.64516 0.0
C2229 C 0.8201 0.35017 0.64991 0.0
C2230 C 0.81664 0.36885 0.66746 0.0
C2231 C 0.83703 0.38029 0.67902 0.0
C2232 C 0.79838 0.34012 0.63577 0.0
C2233 C 0.77913 0.32815 0.64878 0.0
C2234 C 0.79636 0.34268 0.60966 0.0
C2235 C 0.81583 0.35542 0.5948 0.0
C2236 C 0.82293 0.38002 0.59989 0.0
C2237 C 0.8415 0.39178 0.58595 0.0
C2238 C 0.85293 0.3792 0.56669 0.0
C2239 C 0.84575 0.35486 0.5613 0.0
C2240 C 0.82724 0.343 0.57523 0.0
C2241 C 0.68697 0.31645 0.59378 0.0
C2242 C 0.68739 0.30126 0.57283 0.0
C2243 C 0.70903 0.32383 0.60548 0.0
C2244 C 0.73205 0.31556 0.59697 0.0
C2245 C 0.73252 0.30051 0.57583 0.0
C2246 C 0.71038 0.29325 0.56399 0.0
C2247 C 0.75541 0.32236 0.61049 0.0
C2248 C 0.77499 0.33372 0.59739 0.0
C2249 C 0.75793 0.31885 0.63647 0.0
C2250 C 0.73912 0.30478 0.65108 0.0
C2251 C 0.73179 0.28072 0.64405 0.0
C2252 C 0.71385 0.26764 0.65767 0.0
C2253 C 0.70323 0.27833 0.67848 0.0
C2254 C 0.71056 0.30212 0.68575 0.0
C2255 C 0.72847 0.3153 0.67217 0.0
H2256 H 0.68935 0.26817 0.68899 0.0
H2257 H 0.86729 0.38833 0.55591 0.0
H2258 H 0.95622 0.47755 0.79252 0.0
H2259 H 0.94228 0.51312 0.81543 0.0
H2260 H 0.97082 0.4809 0.88312 0.0
H2261 H 0.9834 0.44423 0.86029 0.0
H2262 H 0.92802 0.50034 0.8922 0.0
H2263 H 1.00069 0.5304 0.85212 0.0
H2264 H 0.02917 0.53757 0.81714 0.0
H2265 H 0.97424 0.58137 0.77988 0.0
H2266 H 0.94526 0.57416 0.81448 0.0
H2267 H 0.90598 0.61472 0.9544 0.0
H2268 H 0.92935 0.58069 0.93621 0.0
H2269 H 0.89569 0.59579 0.86506 0.0
H2270 H 0.87243 0.62973 0.88307 0.0
H2271 H 0.94614 0.58561 0.86156 0.0
H2272 H 0.87263 0.55091 0.90115 0.0
H2273 H 0.84501 0.54305 0.93672 0.0
H2274 H 0.9044 0.50788 0.97634 0.0
H2275 H 0.93248 0.51588 0.94112 0.0
C2276 C 0.959 0.4776 0.81231 0.0
C2277 C 0.97023 0.4575 0.82451 0.0
C2278 C 0.95148 0.49834 0.82542 0.0
C2279 C 0.95574 0.5 0.85106 0.0
C2280 C 0.96727 0.48012 0.86336 0.0
C2281 C 0.97451 0.45914 0.85023 0.0
C2282 C 0.94762 0.52228 0.86488 0.0
C2283 C 0.93246 0.51897 0.88576 0.0
C2284 C 0.95316 0.54672 0.85649 0.0
C2285 C 0.97074 0.55162 0.83586 0.0
C2286 C 0.99463 0.54148 0.83643 0.0
C2287 C 0.01087 0.54555 0.81666 0.0
C2288 C 1.00351 0.55989 0.79628 0.0
C2289 C 0.97992 0.57027 0.79568 0.0
C2290 C 0.96359 0.56623 0.81539 0.0
C2291 C 0.90385 0.61097 0.93481 0.0
C2292 C 0.88719 0.62476 0.92021 0.0
C2293 C 0.91711 0.59147 0.92447 0.0
C2294 C 0.91409 0.58553 0.8993 0.0
C2295 C 0.89829 0.59998 0.88451 0.0
C2296 C 0.88487 0.61926 0.89487 0.0
C2297 C 0.92625 0.56354 0.88848 0.0
C2298 C 0.94213 0.56695 0.86817 0.0
C2299 C 0.92165 0.53922 0.89758 0.0
C2300 C 0.90472 0.53427 0.91865 0.0
C2301 C 0.87985 0.54169 0.91753 0.0
C2302 C 0.8641 0.53718 0.93761 0.0
C2303 C 0.87297 0.52505 0.95881 0.0
C2304 C 0.89758 0.51733 0.95994 0.0
C2305 C 0.91341 0.52184 0.93992 0.0
H2306 H 0.86075 0.52157 0.97433 0.0
H2307 H 0.01609 0.56299 0.78098 0.0
H2308 H 0.81189 0.73942 0.05376 0.0
H2309 H 0.77307 0.72264 0.07022 0.0
H2310 H 0.8133 0.68908 0.13105 0.0
H2311 H 0.85235 0.70325 0.11259 0.0
H2312 H 0.78056 0.65963 0.12223 0.0
H2313 H 0.77448 0.74786 0.13186 0.0
H2314 H 0.775 0.79157 0.11801 0.0
H2315 H 0.71458 0.77661 0.06796 0.0
H2316 H 0.7139 0.73275 0.0813 0.0
H2317 H 0.67343 0.64309 0.19967 0.0
H2318 H 0.71145 0.66264 0.18302 0.0
H2319 H 0.67722 0.66748 0.11078 0.0
H2320 H 0.63956 0.64741 0.12722 0.0
H2321 H 0.7057 0.71176 0.12605 0.0
H2322 H 0.71326 0.6224 0.11977 0.0
H2323 H 0.71338 0.57993 0.13703 0.0
H2324 H 0.77271 0.60002 0.18661 0.0
H2325 H 0.77266 0.64275 0.16991 0.0
C2326 C 0.81245 0.72786 0.07027 0.0
C2327 C 0.83527 0.7218 0.0813 0.0
C2328 C 0.79008 0.71876 0.08015 0.0
C2329 C 0.78973 0.70488 0.10242 0.0
C2330 C 0.81266 0.6995 0.11381 0.0
C2331 C 0.83508 0.70774 0.10334 0.0
C2332 C 0.76577 0.69574 0.11379 0.0
C2333 C 0.76447 0.67139 0.1234 0.0
C2334 C 0.74419 0.71054 0.11516 0.0
C2335 C 0.74426 0.737 0.10745 0.0
C2336 C 0.76136 0.75389 0.11785 0.0
C2337 C 0.76169 0.77868 0.11008 0.0
C2338 C 0.74487 0.78684 0.09208 0.0
C2339 C 0.72761 0.77025 0.08188 0.0
C2340 C 0.72722 0.74544 0.08956 0.0
C2341 C 0.67393 0.64874 0.18035 0.0
C2342 C 0.65353 0.64381 0.16475 0.0
C2343 C 0.69567 0.65979 0.17082 0.0
C2344 C 0.69728 0.66647 0.14558 0.0
C2345 C 0.67647 0.66257 0.13028 0.0
C2346 C 0.65496 0.65109 0.13968 0.0
C2347 C 0.72102 0.67615 0.13474 0.0
C2348 C 0.72209 0.70038 0.12508 0.0
C2349 C 0.7426 0.66156 0.13396 0.0
C2350 C 0.74277 0.63582 0.14378 0.0
C2351 C 0.72618 0.61782 0.1345 0.0
C2352 C 0.72626 0.59369 0.14415 0.0
C2353 C 0.74299 0.5873 0.16295 0.0
C2354 C 0.75973 0.60501 0.17208 0.0
C2355 C 0.75969 0.62917 0.16252 0.0
H2356 H 0.74303 0.56861 0.1704 0.0
H2357 H 0.74517 0.80603 0.08607 0.0
H2358 H 0.59175 0.38531 0.38798 0.0
H2359 H 0.57607 0.42534 0.37366 0.0
H2360 H 0.63308 0.46284 0.41595 0.0
H2361 H 0.64836 0.42255 0.43091 0.0
H2362 H 0.59062 0.48916 0.41608 0.0
H2363 H 0.6399 0.45052 0.35351 0.0
H2364 H 0.65148 0.41655 0.3258 0.0
H2365 H 0.58017 0.4198 0.29021 0.0
H2366 H 0.56801 0.45352 0.31799 0.0
H2367 H 0.5837 0.60322 0.34965 0.0
H2368 H 0.59836 0.56434 0.36808 0.0
H2369 H 0.54629 0.52338 0.32271 0.0
H2370 H 0.53234 0.56225 0.30369 0.0
H2371 H 0.58712 0.49913 0.32461 0.0
H2372 H 0.53678 0.53615 0.38673 0.0
H2373 H 0.52361 0.56953 0.41442 0.0
H2374 H 0.59472 0.56899 0.45059 0.0
H2375 H 0.60843 0.53581 0.42288 0.0
C2376 C 0.60053 0.40214 0.39471 0.0
C2377 C 0.62125 0.40083 0.41059 0.0
C2378 C 0.59172 0.42504 0.38633 0.0
C2379 C 0.60376 0.44724 0.39312 0.0
C2380 C 0.62353 0.44604 0.41025 0.0
C2381 C 0.6322 0.42303 0.41891 0.0
C2382 C 0.59664 0.47135 0.38116 0.0
C2383 C 0.59018 0.49142 0.39609 0.0
C2384 C 0.59549 0.47435 0.35501 0.0
C2385 C 0.60297 0.4544 0.33798 0.0
C2386 C 0.62664 0.4439 0.33986 0.0
C2387 C 0.63331 0.42469 0.32415 0.0
C2388 C 0.61655 0.41599 0.3063 0.0
C2389 C 0.59312 0.42654 0.30407 0.0
C2390 C 0.58634 0.44571 0.31978 0.0
C2391 C 0.57564 0.58585 0.34347 0.0
C2392 C 0.55729 0.5857 0.3249 0.0
C2393 C 0.58383 0.56361 0.35417 0.0
C2394 C 0.57319 0.54074 0.34721 0.0
C2395 C 0.55487 0.54064 0.32851 0.0
C2396 C 0.54693 0.56287 0.31757 0.0
C2397 C 0.58091 0.51697 0.3595 0.0
C2398 C 0.58757 0.49694 0.34461 0.0
C2399 C 0.58202 0.51398 0.38566 0.0
C2400 C 0.5737 0.53365 0.4026 0.0
C2401 C 0.54965 0.54324 0.40051 0.0
C2402 C 0.54208 0.56212 0.41621 0.0
C2403 C 0.55834 0.57141 0.43422 0.0
C2404 C 0.58216 0.56179 0.43662 0.0
C2405 C 0.58983 0.54293 0.42094 0.0
H2406 H 0.55246 0.58604 0.44634 0.0
H2407 H 0.62174 0.4011 0.29416 0.0
H2408 H 0.39371 0.39039 0.18108 0.0
H2409 H 0.4071 0.35128 0.19966 0.0
H2410 H 0.34748 0.31269 0.16221 0.0
H2411 H 0.3338 0.35209 0.14365 0.0
H2412 H 0.35784 0.29318 0.21076 0.0
H2413 H 0.40194 0.31431 0.13575 0.0
H2414 H 0.42626 0.34211 0.10836 0.0
H2415 H 0.48391 0.34687 0.16338 0.0
H2416 H 0.45975 0.31943 0.19128 0.0
H2417 H 0.42085 0.17552 0.22089 0.0
H2418 H 0.39697 0.21178 0.20743 0.0
H2419 H 0.45738 0.25987 0.22999 0.0
H2420 H 0.48125 0.22405 0.24277 0.0
H2421 H 0.44358 0.27257 0.18624 0.0
H2422 H 0.40064 0.25402 0.26216 0.0
H2423 H 0.37714 0.22749 0.29144 0.0
H2424 H 0.31876 0.21879 0.23766 0.0
H2425 H 0.3421 0.24499 0.20791 0.0
C2426 C 0.38322 0.37363 0.17709 0.0
C2427 C 0.36295 0.37422 0.16059 0.0
C2428 C 0.39086 0.35129 0.18775 0.0
C2429 C 0.37861 0.32894 0.18196 0.0
C2430 C 0.35727 0.32967 0.16688 0.0
C2431 C 0.34947 0.35217 0.15629 0.0
C2432 C 0.38973 0.30489 0.18965 0.0
C2433 C 0.37646 0.28846 0.20517 0.0
C2434 C 0.41416 0.29886 0.18265 0.0
C2435 C 0.42894 0.31496 0.16567 0.0
C2436 C 0.41974 0.32139 0.14206 0.0
C2437 C 0.4335 0.33709 0.12645 0.0
C2438 C 0.45659 0.34628 0.13414 0.0
C2439 C 0.46601 0.33974 0.15745 0.0
C2440 C 0.4523 0.32411 0.17316 0.0
C2441 C 0.42881 0.19387 0.22328 0.0
C2442 C 0.453 0.19687 0.23275 0.0
C2443 C 0.41515 0.21461 0.2156 0.0
C2444 C 0.4253 0.2387 0.21767 0.0
C2445 C 0.44911 0.24159 0.22797 0.0
C2446 C 0.46276 0.22101 0.23535 0.0
C2447 C 0.41207 0.26099 0.20805 0.0
C2448 C 0.42492 0.27711 0.19189 0.0
C2449 C 0.38743 0.26676 0.21476 0.0
C2450 C 0.37324 0.25125 0.23271 0.0
C2451 C 0.38287 0.2463 0.25651 0.0
C2452 C 0.36957 0.23134 0.2732 0.0
C2453 C 0.34651 0.2214 0.26639 0.0
C2454 C 0.33665 0.22647 0.2429 0.0
C2455 C 0.3499 0.24139 0.22611 0.0
H2456 H 0.33625 0.20981 0.27934 0.0
H2457 H 0.46721 0.35844 0.12203 0.0
H2458 H 0.91273 0.37079 0.82398 0.0
H2459 H 0.89129 0.33259 0.83582 0.0
H2460 H 0.9562 0.2909 0.81669 0.0
H2461 H 0.97533 0.32866 0.80025 0.0
H2462 H 0.92381 0.26415 0.80551 0.0
H2463 H 0.92924 0.30743 0.88488 0.0
H2464 H 0.92243 0.34204 0.91383 0.0
H2465 H 0.84436 0.3388 0.89853 0.0
H2466 H 0.85063 0.30426 0.86972 0.0
H2467 H 0.89441 0.1595 0.88353 0.0
H2468 H 0.91135 0.19742 0.8645 0.0
H2469 H 0.83748 0.22615 0.8567 0.0
H2470 H 0.8204 0.18802 0.87561 0.0
H2471 H 0.87115 0.25864 0.88035 0.0
H2472 H 0.86732 0.20994 0.80633 0.0
H2473 H 0.87533 0.17298 0.78123 0.0
H2474 H 0.95377 0.18455 0.79015 0.0
H2475 H 0.94623 0.22137 0.81562 0.0
C2476 C 0.92245 0.35344 0.82252 0.0
C2477 C 0.94639 0.35298 0.81246 0.0
C2478 C 0.9103 0.33144 0.82976 0.0
C2479 C 0.92226 0.30841 0.82852 0.0
C2480 C 0.94626 0.3081 0.8183 0.0
C2481 C 0.95769 0.32991 0.80954 0.0
C2482 C 0.90957 0.28459 0.83653 0.0
C2483 C 0.91279 0.26311 0.82223 0.0
C2484 C 0.89414 0.28271 0.85779 0.0
C2485 C 0.89047 0.30355 0.87497 0.0
C2486 C 0.91069 0.31428 0.88761 0.0
C2487 C 0.90693 0.33381 0.90398 0.0
C2488 C 0.88306 0.34269 0.90783 0.0
C2489 C 0.86285 0.33196 0.89548 0.0
C2490 C 0.86648 0.31237 0.87921 0.0
C2491 C 0.88176 0.17379 0.87748 0.0
C2492 C 0.85608 0.17085 0.88115 0.0
C2493 C 0.89145 0.1954 0.8665 0.0
C2494 C 0.87571 0.21466 0.85914 0.0
C2495 C 0.84998 0.21153 0.86222 0.0
C2496 C 0.84023 0.18971 0.87288 0.0
C2497 C 0.8863 0.23864 0.84987 0.0
C2498 C 0.88248 0.25999 0.86382 0.0
C2499 C 0.90163 0.24023 0.82874 0.0
C2500 C 0.90619 0.21831 0.81306 0.0
C2501 C 0.88627 0.20451 0.80309 0.0
C2502 C 0.89073 0.1836 0.78877 0.0
C2503 C 0.91504 0.17639 0.78415 0.0
C2504 C 0.93494 0.19014 0.79376 0.0
C2505 C 0.93059 0.21105 0.80811 0.0
H2506 H 0.91845 0.16017 0.77309 0.0
H2507 H 0.88023 0.35782 0.92048 0.0
H2508 H 0.12481 0.64157 0.1362 0.0
H2509 H 0.08747 0.65959 0.11835 0.0
H2510 H 0.06557 0.5884 0.08946 0.0
H2511 H 0.1027 0.56984 0.10807 0.0
H2512 H 0.05725 0.63218 0.05594 0.0
H2513 H 0.03874 0.60188 0.13792 0.0
H2514 H 0.04621 0.59645 0.18276 0.0
H2515 H 0.04283 0.67517 0.19268 0.0
H2516 H 0.03573 0.6811 0.1478 0.0
H2517 H 0.92929 0.67049 0.04124 0.0
H2518 H 0.96596 0.6463 0.05235 0.0
H2519 H 0.99773 0.70976 0.08924 0.0
H2520 H 0.96201 0.73414 0.07733 0.0
H2521 H 0.99903 0.6654 0.11792 0.0
H2522 H 0.01905 0.69653 0.03715 0.0
H2523 H 0.01162 0.7036 0.99263 0.0
H2524 H 0.01301 0.6252 0.98004 0.0
H2525 H 0.01968 0.6176 0.02477 0.0
C2526 C 0.1121 0.62962 0.12611 0.0
C2527 C 0.11661 0.60408 0.12408 0.0
C2528 C 0.09083 0.64005 0.11572 0.0
C2529 C 0.0736 0.6253 0.10281 0.0
C2530 C 0.07865 0.60011 0.09936 0.0
C2531 C 0.09992 0.58956 0.10999 0.0
C2532 C 0.04956 0.63607 0.09482 0.0
C2533 C 0.04425 0.639 0.06944 0.0
C2534 C 0.03284 0.64542 0.11245 0.0
C2535 C 0.03693 0.64194 0.13947 0.0
C2536 C 0.0398 0.61805 0.14963 0.0
C2537 C 0.04393 0.61488 0.17506 0.0
C2538 C 0.04505 0.63546 0.19055 0.0
C2539 C 0.04198 0.65925 0.18065 0.0
C2540 C 0.03788 0.66252 0.15522 0.0
C2541 C 0.94401 0.67932 0.05181 0.0
C2542 C 0.94217 0.70424 0.05908 0.0
C2543 C 0.965 0.66544 0.05808 0.0
C2544 C 0.98447 0.67615 0.07185 0.0
C2545 C 0.98277 0.70098 0.07893 0.0
C2546 C 0.96209 0.71489 0.07233 0.0
C2547 C 1.00673 0.66173 0.07904 0.0
C2548 C 0.01178 0.65822 0.10435 0.0
C2549 C 0.02316 0.65201 0.06133 0.0
C2550 C 0.0195 0.65647 0.03438 0.0
C2551 C 0.01749 0.68076 0.02495 0.0
C2552 C 0.01347 0.68488 0.99965 0.0
C2553 C 0.01184 0.66487 0.98347 0.0
C2554 C 0.01424 0.64069 0.9926 0.0
C2555 C 0.01809 0.63646 0.01795 0.0
H2556 H 1.00876 0.66811 0.96387 0.0
H2557 H 0.04824 0.63297 0.21024 0.0
H2558 H 0.68717 0.83147 0.41372 0.0
H2559 H 0.66838 0.79626 0.39213 0.0
H2560 H 0.65067 0.84373 0.32993 0.0
H2561 H 0.6694 0.87923 0.35163 0.0
H2562 H 0.61074 0.8148 0.34457 0.0
H2563 H 0.69558 0.8024 0.3237 0.0
H2564 H 0.74043 0.79834 0.33157 0.0
H2565 H 0.72645 0.7351 0.37859 0.0
H2566 H 0.68149 0.73897 0.37125 0.0
H2567 H 0.60055 0.68817 0.27725 0.0
H2568 H 0.62544 0.72454 0.28911 0.0
H2569 H 0.5818 0.73184 0.35526 0.0
H2570 H 0.55757 0.69529 0.34391 0.0
H2571 H 0.65401 0.73552 0.33103 0.0
H2572 H 0.57053 0.7926 0.36351 0.0
H2573 H 0.52577 0.79553 0.35444 0.0
H2574 H 0.53785 0.76986 0.28048 0.0
H2575 H 0.5827 0.76712 0.28897 0.0
C2576 C 0.67939 0.8344 0.39539 0.0
C2577 C 0.67969 0.85815 0.38441 0.0
C2578 C 0.66879 0.81423 0.383 0.0
C2579 C 0.6582 0.81731 0.35936 0.0
C2580 C 0.65876 0.84092 0.34815 0.0
C2581 C 0.66961 0.86113 0.36048 0.0
C2582 C 0.64567 0.79599 0.34701 0.0
C2583 C 0.62027 0.79755 0.34144 0.0
C2584 C 0.65811 0.77351 0.34262 0.0
C2585 C 0.68515 0.77108 0.34705 0.0
C2586 C 0.70206 0.78773 0.33586 0.0
C2587 C 0.7275 0.78544 0.3402 0.0
C2588 C 0.73628 0.7665 0.35561 0.0
C2589 C 0.71963 0.74977 0.36667 0.0
C2590 C 0.69416 0.75198 0.36239 0.0
C2591 C 0.5964 0.69737 0.29445 0.0
C2592 C 0.57652 0.68915 0.30936 0.0
C2593 C 0.61063 0.71818 0.30116 0.0
C2594 C 0.60515 0.73119 0.32281 0.0
C2595 C 0.586 0.72244 0.33817 0.0
C2596 C 0.57193 0.70162 0.33154 0.0
C2597 C 0.61904 0.75418 0.32934 0.0
C2598 C 0.64462 0.75289 0.33387 0.0
C2599 C 0.60682 0.77696 0.33256 0.0
C2600 C 0.57998 0.77955 0.32694 0.0
C2601 C 0.56367 0.78779 0.34525 0.0
C2602 C 0.53827 0.78936 0.34022 0.0
C2603 C 0.52898 0.78287 0.31691 0.0
C2604 C 0.54507 0.77485 0.29854 0.0
C2605 C 0.57048 0.77328 0.30346 0.0
H2606 H 0.50933 0.78413 0.31306 0.0
H2607 H 0.75598 0.76476 0.35895 0.0
H2608 H 0.56512 0.2941 0.57551 0.0
H2609 H 0.52897 0.31703 0.58713 0.0
H2610 H 0.5504 0.37617 0.53707 0.0
H2611 H 0.58788 0.3534 0.52619 0.0
H2612 H 0.5319 0.39431 0.58005 0.0
H2613 H 0.50425 0.33399 0.52085 0.0
H2614 H 0.50268 0.29169 0.50396 0.0
H2615 H 0.46831 0.26478 0.57075 0.0
H2616 H 0.4699 0.30687 0.58815 0.0
H2617 H 0.41288 0.44587 0.60439 0.0
H2618 H 0.44825 0.42953 0.58178 0.0
H2619 H 0.43889 0.3592 0.61949 0.0
H2620 H 0.40277 0.37474 0.64067 0.0
H2621 H 0.45074 0.35025 0.57511 0.0
H2622 H 0.48353 0.40733 0.63657 0.0
H2623 H 0.4887 0.44798 0.65661 0.0
H2624 H 0.51517 0.4797 0.58827 0.0
H2625 H 0.50987 0.43928 0.56775 0.0
C2626 C 0.56257 0.312 0.56713 0.0
C2627 C 0.57971 0.32167 0.54996 0.0
C2628 C 0.54155 0.32513 0.57363 0.0
C2629 C 0.53651 0.34814 0.56258 0.0
C2630 C 0.55375 0.35834 0.54575 0.0
C2631 C 0.57517 0.34524 0.5395 0.0
C2632 C 0.51297 0.36099 0.56856 0.0
C2633 C 0.51406 0.38492 0.57848 0.0
C2634 C 0.48968 0.34863 0.56687 0.0
C2635 C 0.48722 0.3236 0.55581 0.0
C2636 C 0.49628 0.31906 0.5319 0.0
C2637 C 0.49544 0.29511 0.52226 0.0
C2638 C 0.48542 0.27556 0.53629 0.0
C2639 C 0.47603 0.27995 0.5599 0.0
C2640 C 0.47682 0.30387 0.56963 0.0
C2641 C 0.41806 0.42678 0.60754 0.0
C2642 C 0.40505 0.41181 0.62476 0.0
C2643 C 0.43857 0.41753 0.5948 0.0
C2644 C 0.44677 0.39322 0.59926 0.0
C2645 C 0.43321 0.37805 0.61573 0.0
C2646 C 0.41262 0.38713 0.62815 0.0
C2647 C 0.46966 0.38339 0.58745 0.0
C2648 C 0.46844 0.35995 0.5763 0.0
C2649 C 0.49285 0.39614 0.58823 0.0
C2650 C 0.496 0.42039 0.60056 0.0
C2651 C 0.49028 0.42303 0.62578 0.0
C2652 C 0.49325 0.44601 0.63723 0.0
C2653 C 0.50217 0.46643 0.6237 0.0
C2654 C 0.5082 0.46388 0.59871 0.0
C2655 C 0.50522 0.44095 0.58716 0.0
H2656 H 0.50447 0.4842 0.6326 0.0
H2657 H 0.48494 0.257 0.52886 0.0
H2658 H 0.20324 0.69307 0.63644 0.0
H2659 H 0.18337 0.72526 0.66049 0.0
H2660 H 0.14779 0.66922 0.70597 0.0
H2661 H 0.16747 0.63679 0.68161 0.0
H2662 H 0.11516 0.70245 0.68683 0.0
H2663 H 0.19243 0.70699 0.73069 0.0
H2664 H 0.23795 0.71008 0.73434 0.0
H2665 H 0.23727 0.78073 0.6971 0.0
H2666 H 0.19177 0.77794 0.69294 0.0
H2667 H 0.05326 0.79532 0.75341 0.0
H2668 H 0.07756 0.75958 0.74143 0.0
H2669 H 0.13118 0.8086 0.70651 0.0
H2670 H 0.1078 0.84438 0.72045 0.0
H2671 H 0.15556 0.77561 0.72549 0.0
H2672 H 0.08423 0.76491 0.66889 0.0
H2673 H 0.0407 0.75891 0.65574 0.0
H2674 H 0.03106 0.70172 0.71089 0.0
H2675 H 0.07492 0.70668 0.72357 0.0
C2676 C 0.19143 0.6876 0.65177 0.0
C2677 C 0.18678 0.66241 0.65705 0.0
C2678 C 0.18025 0.70603 0.66565 0.0
C2679 C 0.16422 0.69969 0.68517 0.0
C2680 C 0.1602 0.67454 0.69106 0.0
C2681 C 0.17153 0.65604 0.67724 0.0
C2682 C 0.14986 0.71929 0.69761 0.0
C2683 C 0.12397 0.71822 0.69579 0.0
C2684 C 0.16136 0.74025 0.70851 0.0
C2685 C 0.18868 0.74219 0.71141 0.0
C2686 C 0.20199 0.72313 0.72317 0.0
C2687 C 0.2278 0.72484 0.72535 0.0
C2688 C 0.2405 0.74557 0.71594 0.0
C2689 C 0.22741 0.76469 0.7044 0.0
C2690 C 0.20161 0.76308 0.70217 0.0
C2691 C 0.07037 0.79837 0.74332 0.0
C2692 C 0.07883 0.82254 0.73803 0.0
C2693 C 0.0841 0.77789 0.73608 0.0
C2694 C 0.10606 0.78107 0.72239 0.0
C2695 C 0.11443 0.8054 0.7171 0.0
C2696 C 0.1011 0.82592 0.72509 0.0
C2697 C 0.12063 0.75926 0.71406 0.0
C2698 C 0.14662 0.75981 0.71677 0.0
C2699 C 0.1093 0.73798 0.7034 0.0
C2700 C 0.08259 0.73645 0.69741 0.0
C2701 C 0.07271 0.75126 0.67836 0.0
C2702 C 0.04809 0.74785 0.67083 0.0
C2703 C 0.03306 0.73008 0.68261 0.0
C2704 C 0.04269 0.71552 0.70183 0.0
C2705 C 0.06747 0.71846 0.70905 0.0
H2706 H 0.01396 0.72752 0.6768 0.0
H2707 H 0.26048 0.74684 0.7176 0.0
H2708 H 0.44277 0.8199 0.94222 0.0
H2709 H 0.47829 0.84475 0.92841 0.0
H2710 H 0.50342 0.85127 1.00428 0.0
H2711 H 0.46651 0.82791 0.01812 0.0
H2712 H 0.51446 0.89109 0.98522 0.0
H2713 H 0.53457 0.81118 0.95657 0.0
H2714 H 0.53116 0.77064 0.93618 0.0
H2715 H 0.51459 0.80664 0.86679 0.0
H2716 H 0.51851 0.84749 0.88674 0.0
H2717 H 0.63648 0.92544 0.92989 0.0
H2718 H 0.60338 0.90402 0.95322 0.0
H2719 H 0.55133 0.92083 0.89481 0.0
H2720 H 0.58372 0.94294 0.87193 0.0
H2721 H 0.55879 0.86722 0.90901 0.0
H2722 H 0.5372 0.94873 0.9455 0.0
H2723 H 0.54814 0.98614 0.96934 0.0
H2724 H 0.57706 0.9408 0.02831 0.0
H2725 H 0.56554 0.9031 1.00509 0.0
C2726 C 0.45588 0.82675 0.9559 0.0
C2727 C 0.45202 0.82199 0.98118 0.0
C2728 C 0.47646 0.84071 0.948 0.0
C2729 C 0.49433 0.84941 0.96511 0.0
C2730 C 0.49018 0.84483 0.99054 0.0
C2731 C 0.46911 0.83145 0.9985 0.0
C2732 C 0.51679 0.86373 0.95636 0.0
C2733 C 0.52428 0.88546 0.96878 0.0
C2734 C 0.53023 0.85672 0.93504 0.0
C2735 C 0.52661 0.83231 0.92318 0.0
C2736 C 0.52999 0.81042 0.93702 0.0
C2737 C 0.52812 0.78741 0.92549 0.0
C2738 C 0.52254 0.78605 0.9002 0.0
C2739 C 0.51891 0.80773 0.88637 0.0
C2740 C 0.52112 0.83081 0.89774 0.0
C2741 C 0.61786 0.92514 0.92229 0.0
C2742 C 0.61298 0.93557 0.89872 0.0
C2743 C 0.59897 0.91281 0.93564 0.0
C2744 C 0.57492 0.91068 0.92565 0.0
C2745 C 0.56977 0.92211 0.9028 0.0
C2746 C 0.58844 0.93458 0.88964 0.0
C2747 C 0.55562 0.89456 0.93743 0.0
C2748 C 0.54889 0.8725 0.92556 0.0
C2749 C 0.5437 0.9007 0.95972 0.0
C2750 C 0.55072 0.92323 0.97354 0.0
C2751 C 0.54598 0.9468 0.96351 0.0
C2752 C 0.55224 0.96803 0.97693 0.0
C2753 C 0.56358 0.96588 1.0002 0.0
C2754 C 0.56837 0.94246 1.01026 0.0
C2755 C 0.56181 0.92116 0.99706 0.0
H2756 H 0.56854 0.98236 1.01048 0.0
H2757 H 0.52109 0.76821 0.89129 0.0
H2758 H 0.90664 0.14472 0.38675 0.0
H2759 H 0.94178 0.1648 0.40759 0.0
H2760 H 0.95647 0.09708 0.4478 0.0
H2761 H 0.92098 0.07691 0.42708 0.0
H2762 H 0.96647 0.13902 0.47623 0.0
H2763 H 0.98579 0.10844 0.39492 0.0
H2764 H 0.97967 0.10444 0.3498 0.0
H2765 H 0.99102 0.18285 0.34034 0.0
H2766 H 0.9968 0.18737 0.38549 0.0
H2767 H 0.10748 0.16212 0.45721 0.0
H2768 H 0.06693 0.14622 0.44369 0.0
H2769 H 0.03099 0.20332 0.48521 0.0
H2770 H 0.07167 0.21897 0.49912 0.0
H2771 H 0.03099 0.1673 0.41671 0.0
H2772 H 0.97492 0.17896 0.50611 0.0
H2773 H 0.98205 0.18144 0.55125 0.0
H2774 H 0.04701 0.13693 0.54462 0.0
H2775 H 0.04006 0.13388 0.49953 0.0
C2776 C 0.91709 0.13425 0.40039 0.0
C2777 C 0.91131 0.10916 0.40506 0.0
C2778 C 0.93715 0.14574 0.41228 0.0
C2779 C 0.95207 0.13231 0.42888 0.0
C2780 C 0.94526 0.10778 0.435 0.0
C2781 C 0.92499 0.09627 0.42318 0.0
C2782 C 0.97605 0.14304 0.4377 0.0
C2783 C 0.98054 0.14529 0.46324 0.0
C2784 C 0.99457 0.15102 0.42077 0.0
C2785 C 0.99146 0.14828 0.39359 0.0
C2786 C 0.98681 0.12485 0.38323 0.0
C2787 C 0.98341 0.12248 0.35766 0.0
C2788 C 0.98489 0.14338 0.34222 0.0
C2789 C 0.98984 0.16668 0.35233 0.0
C2790 C 0.99318 0.16916 0.3779 0.0
C2791 C 0.09089 0.1713 0.46332 0.0
C2792 C 0.09263 0.19212 0.4786 0.0
C2793 C 0.06776 0.16227 0.45558 0.0
C2794 C 0.04589 0.17353 0.46344 0.0
C2795 C 0.04758 0.19421 0.47904 0.0
C2796 C 0.07079 0.20328 0.48677 0.0
C2797 C 0.02145 0.16339 0.45526 0.0
C2798 C 0.01686 0.16125 0.42975 0.0
C2799 C 1.00305 0.15528 0.47225 0.0
C2800 C 1.00708 0.15641 0.49942 0.0
C2801 C 0.99065 0.1696 0.51431 0.0
C2802 C 0.99467 0.17112 0.53988 0.0
C2803 C 0.01501 0.15942 0.55078 0.0
C2804 C 0.03131 0.14605 0.53615 0.0
C2805 C 0.02734 0.14444 0.51058 0.0
H2806 H 0.01812 0.16066 0.57057 0.0
H2807 H 0.98225 0.14152 0.32242 0.0
loop_
_geom_bond_atom_site_label_1
_geom_bond_atom_site_label_2
_geom_bond_distance
_geom_bond_site_symmetry_2
_ccdc_geom_bond_type
Gd0 N31 2.661 . S
Gd0 N37 2.601 . S
Gd0 O44 2.545 . S
Gd0 O45 2.606 . S
Gd0 O47 2.429 . S
Gd0 O48 2.545 . S
Gd0 O49 2.412 . S
Gd0 O51 2.362 . S
Gd0 O52 2.324 . S
Gd0 C59 2.828 . S
Gd1 N10 2.661 . S
Gd1 N14 2.601 . S
Gd1 O45 2.362 . S
Gd1 O46 2.324 . S
Gd1 O50 2.545 . S
Gd1 O51 2.606 . S
Gd1 O53 2.429 . S
Gd1 O54 2.545 . S
Gd1 O55 2.412 . S
Gd1 C68 2.828 . S
C2 C5 1.417 . S
C2 C7 1.431 . S
C2 C8 1.412 . S
C3 C6 1.437 . S
C3 C7 1.317 . S
C3 H22 0.929 . S
C4 C5 1.426 . S
C4 C6 1.413 . S
C4 N14 1.359 . S
C5 C2 1.417 . S
C5 C4 1.426 . S
C5 N10 1.350 . S
C6 C3 1.437 . S
C6 C4 1.413 . S
C6 C16 1.391 . S
C7 C2 1.431 . S
C7 C3 1.317 . S
C7 H18 0.930 . S
C8 C2 1.412 . S
C8 C9 1.355 . S
C8 H20 0.930 . S
C9 C8 1.355 . S
C9 C11 1.402 . S
C9 H21 0.930 . S
N10 Gd1 2.661 . S
N10 C5 1.350 . S
N10 C11 1.307 . S
C11 C9 1.402 . S
C11 N10 1.307 . S
C11 H12 0.930 . S
H12 C11 0.930 . S
C13 N14 1.334 . S
C13 C15 1.394 . S
C13 H17 0.930 . S
N14 Gd1 2.601 . S
N14 C4 1.359 . S
N14 C13 1.334 . S
C15 C13 1.394 . S
C15 C16 1.359 . S
C15 H27 0.930 . S
C16 C6 1.391 . S
C16 C15 1.359 . S
C16 H28 0.929 . S
H17 C13 0.930 . S
H18 C7 0.930 . S
H19 C36 0.930 . S
H20 C8 0.930 . S
H21 C9 0.930 . S
H22 C3 0.929 . S
H23 C41 0.930 . S
H24 C32 0.930 . S
H25 C33 0.930 . S
H26 C57 0.929 . S
H27 C15 0.930 . S
H28 C16 0.929 . S
H29 C58 0.930 . S
H30 C39 0.930 . S
N31 Gd0 2.661 . S
N31 C35 1.350 . S
N31 C36 1.307 . S
C32 H24 0.930 . S
C32 C33 1.355 . S
C32 C34 1.412 . S
C33 H25 0.930 . S
C33 C32 1.355 . S
C33 C36 1.402 . S
C34 C32 1.412 . S
C34 C35 1.417 . S
C34 C58 1.431 . S
C35 N31 1.350 . S
C35 C34 1.417 . S
C35 C38 1.426 . S
C36 H19 0.930 . S
C36 N31 1.307 . S
C36 C33 1.402 . S
N37 Gd0 2.601 . S
N37 C38 1.359 . S
N37 C41 1.334 . S
C38 C35 1.426 . S
C38 N37 1.359 . S
C38 C42 1.413 . S
C39 H30 0.930 . S
C39 C40 1.359 . S
C39 C41 1.394 . S
C40 C39 1.359 . S
C40 C42 1.391 . S
C40 H43 0.929 . S
C41 H23 0.930 . S
C41 N37 1.334 . S
C41 C39 1.394 . S
C42 C38 1.413 . S
C42 C40 1.391 . S
C42 C57 1.437 . S
H43 C40 0.929 . S
O44 Gd0 2.545 . S
O44 C59 1.258 . S
O45 Gd0 2.606 . S
O45 Gd1 2.362 . S
O45 C56 1.284 . S
O46 Gd1 2.324 . S
O46 C66 1.254 . S
O47 Gd0 2.429 . S
O47 C66 1.268 . S
O48 Gd0 2.545 . S
O48 C56 1.250 . S
O49 Gd0 2.412 . S
O49 C59 1.252 . S
O50 Gd1 2.545 . S
O50 C68 1.258 . S
O51 Gd0 2.362 . S
O51 Gd1 2.606 . S
O51 C67 1.284 . S
O52 Gd0 2.324 . S
O52 C75 1.254 . S
O53 Gd1 2.429 . S
O53 C75 1.268 . S
O54 Gd1 2.545 . S
O54 C67 1.250 . S
O55 Gd1 2.412 . S
O55 C68 1.252 . S
C56 O45 1.284 . S
C56 O48 1.250 . S
C57 H26 0.929 . S
C57 C42 1.437 . S
C57 C58 1.317 . S
C58 H29 0.930 . S
C58 C34 1.431 . S
C58 C57 1.317 . S
C59 Gd0 2.828 . S
C59 O44 1.258 . S
C59 O49 1.252 . S
C59 C60 1.497 . S
C60 C59 1.497 . S
C60 C61 1.395 . S
C60 C62 1.380 . S
C61 C60 1.395 . S
C61 C64 1.398 . S
C61 H76 0.930 . S
C62 C60 1.380 . S
C62 C63 1.391 . S
C62 H77 0.930 . S
C63 C62 1.391 . S
C63 C65 1.387 . S
C64 C61 1.398 . S
C64 C65 1.380 . S
C64 H78 0.930 . S
C65 C63 1.387 . S
C65 C64 1.380 . S
C65 H79 0.930 . S
C66 O46 1.254 . S
C66 O47 1.268 . S
C67 O51 1.284 . S
C67 O54 1.250 . S
C68 Gd1 2.828 . S
C68 O50 1.258 . S
C68 O55 1.252 . S
C68 C69 1.497 . S
C69 C68 1.497 . S
C69 C70 1.395 . S
C69 C71 1.380 . S
C70 C69 1.395 . S
C70 C73 1.398 . S
C70 H80 0.930 . S
C71 C69 1.380 . S
C71 C72 1.391 . S
C71 H81 0.930 . S
C72 C71 1.391 . S
C72 C74 1.387 . S
C73 C70 1.398 . S
C73 C74 1.380 . S
C73 H82 0.930 . S
C74 C72 1.387 . S
C74 C73 1.380 . S
C74 H83 0.930 . S
C75 O52 1.254 . S
C75 O53 1.268 . S
H76 C61 0.930 . S
H77 C62 0.930 . S
H78 C64 0.930 . S
H79 C65 0.930 . S
H80 C70 0.930 . S
H81 C71 0.930 . S
H82 C73 0.930 . S
H83 C74 0.930 . S
Gd84 N115 2.661 . S
Gd84 N121 2.601 . S
Gd84 O128 2.545 . S
Gd84 O129 2.606 . S
Gd84 O131 2.429 . S
Gd84 O132 2.545 . S
Gd84 O133 2.412 . S
Gd84 O135 2.362 . S
Gd84 O136 2.324 . S
Gd84 C143 2.828 . S
Gd85 N94 2.661 . S
Gd85 N98 2.601 . S
Gd85 O129 2.362 1_655 S
Gd85 O130 2.324 . S
Gd85 O134 2.545 . S
Gd85 O135 2.606 1_655 S
Gd85 O137 2.429 1_655 S
Gd85 O138 2.545 1_655 S
Gd85 O139 2.412 . S
Gd85 C152 2.828 . S
C86 C89 1.417 . S
C86 C91 1.431 . S
C86 C92 1.412 . S
C87 C90 1.437 . S
C87 C91 1.317 . S
C87 H106 0.929 . S
C88 C89 1.426 . S
C88 C90 1.413 . S
C88 N98 1.359 . S
C89 C86 1.417 . S
C89 C88 1.426 . S
C89 N94 1.350 . S
C90 C87 1.437 . S
C90 C88 1.413 . S
C90 C100 1.391 . S
C91 C86 1.431 . S
C91 C87 1.317 . S
C91 H102 0.930 . S
C92 C86 1.412 . S
C92 C93 1.355 . S
C92 H104 0.930 . S
C93 C92 1.355 . S
C93 C95 1.402 . S
C93 H105 0.930 . S
N94 Gd85 2.661 . S
N94 C89 1.350 . S
N94 C95 1.307 . S
C95 C93 1.402 . S
C95 N94 1.307 . S
C95 H96 0.930 . S
H96 C95 0.930 . S
C97 N98 1.334 . S
C97 C99 1.394 . S
C97 H101 0.930 1_655 S
N98 Gd85 2.601 . S
N98 C88 1.359 . S
N98 C97 1.334 . S
C99 C97 1.394 . S
C99 C100 1.359 . S
C99 H111 0.930 . S
C100 C90 1.391 . S
C100 C99 1.359 . S
C100 H112 0.929 . S
H101 C97 0.930 1_455 S
H102 C91 0.930 . S
H103 C120 0.930 . S
H104 C92 0.930 . S
H105 C93 0.930 . S
H106 C87 0.929 . S
H107 C125 0.930 . S
H108 C116 0.930 . S
H109 C117 0.930 . S
H110 C141 0.929 . S
H111 C99 0.930 . S
H112 C100 0.929 . S
H113 C142 0.930 . S
H114 C123 0.930 . S
N115 Gd84 2.661 . S
N115 C119 1.350 . S
N115 C120 1.307 . S
C116 H108 0.930 . S
C116 C117 1.355 . S
C116 C118 1.412 . S
C117 H109 0.930 . S
C117 C116 1.355 . S
C117 C120 1.402 . S
C118 C116 1.412 . S
C118 C119 1.417 . S
C118 C142 1.431 . S
C119 N115 1.350 . S
C119 C118 1.417 . S
C119 C122 1.426 . S
C120 H103 0.930 . S
C120 N115 1.307 . S
C120 C117 1.402 . S
N121 Gd84 2.601 . S
N121 C122 1.359 . S
N121 C125 1.334 . S
C122 C119 1.426 . S
C122 N121 1.359 . S
C122 C126 1.413 . S
C123 H114 0.930 . S
C123 C124 1.359 . S
C123 C125 1.394 . S
C124 C123 1.359 . S
C124 C126 1.391 . S
C124 H127 0.929 . S
C125 H107 0.930 . S
C125 N121 1.334 . S
C125 C123 1.394 . S
C126 C122 1.413 . S
C126 C124 1.391 . S
C126 C141 1.437 . S
H127 C124 0.929 . S
O128 Gd84 2.545 . S
O128 C143 1.258 . S
O129 Gd84 2.606 . S
O129 Gd85 2.362 1_455 S
O129 C140 1.284 . S
O130 Gd85 2.324 . S
O130 C150 1.254 . S
O131 Gd84 2.429 . S
O131 C150 1.268 1_455 S
O132 Gd84 2.545 . S
O132 C140 1.250 . S
O133 Gd84 2.412 . S
O133 C143 1.252 . S
O134 Gd85 2.545 . S
O134 C152 1.258 . S
O135 Gd84 2.362 . S
O135 Gd85 2.606 1_455 S
O135 C151 1.284 . S
O136 Gd84 2.324 . S
O136 C159 1.254 . S
O137 Gd85 2.429 1_455 S
O137 C159 1.268 . S
O138 Gd85 2.545 1_455 S
O138 C151 1.250 . S
O139 Gd85 2.412 . S
O139 C152 1.252 . S
C140 O129 1.284 . S
C140 O132 1.250 . S
C141 H110 0.929 . S
C141 C126 1.437 . S
C141 C142 1.317 . S
C142 H113 0.930 . S
C142 C118 1.431 . S
C142 C141 1.317 . S
C143 Gd84 2.828 . S
C143 O128 1.258 . S
C143 O133 1.252 . S
C143 C144 1.497 . S
C144 C143 1.497 . S
C144 C145 1.395 . S
C144 C146 1.380 . S
C145 C144 1.395 . S
C145 C148 1.398 . S
C145 H160 0.930 . S
C146 C144 1.380 . S
C146 C147 1.391 . S
C146 H161 0.930 . S
C147 C146 1.391 . S
C147 C149 1.387 . S
C148 C145 1.398 . S
C148 C149 1.380 . S
C148 H162 0.930 . S
C149 C147 1.387 . S
C149 C148 1.380 . S
C149 H163 0.930 . S
C150 O130 1.254 . S
C150 O131 1.268 1_655 S
C151 O135 1.284 . S
C151 O138 1.250 . S
C152 Gd85 2.828 . S
C152 O134 1.258 . S
C152 O139 1.252 . S
C152 C153 1.497 . S
C153 C152 1.497 . S
C153 C154 1.395 . S
C153 C155 1.380 . S
C154 C153 1.395 . S
C154 C157 1.398 . S
C154 H164 0.930 . S
C155 C153 1.380 . S
C155 C156 1.391 . S
C155 H165 0.930 . S
C156 C155 1.391 . S
C156 C158 1.387 . S
C157 C154 1.398 . S
C157 C158 1.380 . S
C157 H166 0.930 . S
C158 C156 1.387 . S
C158 C157 1.380 . S
C158 H167 0.930 . S
C159 O136 1.254 . S
C159 O137 1.268 . S
H160 C145 0.930 . S
H161 C146 0.930 . S
H162 C148 0.930 . S
H163 C149 0.930 . S
H164 C154 0.930 . S
H165 C155 0.930 . S
H166 C157 0.930 . S
H167 C158 0.930 . S
Gd168 N199 2.661 1_554 S
Gd168 N205 2.601 . S
Gd168 O212 2.545 . S
Gd168 O213 2.605 1_554 S
Gd168 O215 2.429 . S
Gd168 O216 2.545 . S
Gd168 O217 2.412 . S
Gd168 O219 2.362 1_554 S
Gd168 O220 2.324 1_554 S
Gd168 C227 2.828 . S
Gd169 N178 2.661 . S
Gd169 N182 2.601 . S
Gd169 O213 2.368 . S
Gd169 O214 2.324 . S
Gd169 O218 2.545 . S
Gd169 O219 2.606 . S
Gd169 O221 2.429 . S
Gd169 O222 2.545 . S
Gd169 O223 2.412 . S
Gd169 C236 2.828 . S
C170 C173 1.417 . S
C170 C175 1.431 . S
C170 C176 1.412 1_556 S
C171 C174 1.437 . S
C171 C175 1.317 . S
C171 H190 0.929 . S
C172 C173 1.426 . S
C172 C174 1.413 . S
C172 N182 1.359 . S
C173 C170 1.417 . S
C173 C172 1.426 . S
C173 N178 1.350 . S
C174 C171 1.437 . S
C174 C172 1.413 . S
C174 C184 1.391 . S
C175 C170 1.431 . S
C175 C171 1.317 . S
C175 H186 0.930 . S
C176 C170 1.412 1_554 S
C176 C177 1.355 . S
C176 H188 0.930 . S
C177 C176 1.355 . S
C177 C179 1.402 . S
C177 H189 0.930 . S
N178 Gd169 2.661 . S
N178 C173 1.350 . S
N178 C179 1.307 1_556 S
C179 C177 1.402 . S
C179 N178 1.307 1_554 S
C179 H180 0.930 . S
H180 C179 0.930 . S
C181 N182 1.334 . S
C181 C183 1.394 . S
C181 H185 0.930 . S
N182 Gd169 2.601 . S
N182 C172 1.359 . S
N182 C181 1.334 . S
C183 C181 1.394 . S
C183 C184 1.359 . S
C183 H195 0.930 . S
C184 C174 1.391 . S
C184 C183 1.359 . S
C184 H196 0.929 . S
H185 C181 0.930 . S
H186 C175 0.930 . S
H187 C204 0.930 . S
H188 C176 0.930 . S
H189 C177 0.930 . S
H190 C171 0.929 . S
H191 C209 0.930 . S
H192 C200 0.930 . S
H193 C201 0.930 . S
H194 C225 0.929 . S
H195 C183 0.930 . S
H196 C184 0.929 . S
H197 C226 0.930 . S
H198 C207 0.930 . S
N199 Gd168 2.661 1_556 S
N199 C203 1.350 . S
N199 C204 1.307 . S
C200 H192 0.930 . S
C200 C201 1.355 . S
C200 C202 1.412 . S
C201 H193 0.930 . S
C201 C200 1.355 . S
C201 C204 1.402 . S
C202 C200 1.412 . S
C202 C203 1.417 . S
C202 C226 1.431 . S
C203 N199 1.350 . S
C203 C202 1.417 . S
C203 C206 1.426 1_556 S
C204 H187 0.930 . S
C204 N199 1.307 . S
C204 C201 1.402 . S
N205 Gd168 2.601 . S
N205 C206 1.359 . S
N205 C209 1.334 . S
C206 C203 1.426 1_554 S
C206 N205 1.359 . S
C206 C210 1.413 . S
C207 H198 0.930 . S
C207 C208 1.359 . S
C207 C209 1.394 . S
C208 C207 1.359 . S
C208 C210 1.391 . S
C208 H211 0.929 . S
C209 H191 0.930 . S
C209 N205 1.334 . S
C209 C207 1.394 . S
C210 C206 1.413 . S
C210 C208 1.391 . S
C210 C225 1.437 . S
H211 C208 0.929 . S
O212 Gd168 2.545 . S
O212 C227 1.258 . S
O213 Gd168 2.605 1_556 S
O213 Gd169 2.368 . S
O213 C224 1.278 1_556 S
O214 Gd169 2.324 . S
O214 C234 1.229 1_556 S
O215 Gd168 2.429 . S
O215 C234 1.294 . S
O216 Gd168 2.545 . S
O216 C224 1.250 . S
O217 Gd168 2.412 . S
O217 C227 1.252 . S
O218 Gd169 2.545 . S
O218 C236 1.258 . S
O219 Gd168 2.362 1_556 S
O219 Gd169 2.606 . S
O219 C235 1.284 . S
O220 Gd168 2.324 1_556 S
O220 C243 1.254 . S
O221 Gd169 2.429 . S
O221 C243 1.268 . S
O222 Gd169 2.545 . S
O222 C235 1.250 . S
O223 Gd169 2.412 . S
O223 C236 1.252 . S
C224 O213 1.278 1_554 S
C224 O216 1.250 . S
C225 H194 0.929 . S
C225 C210 1.437 . S
C225 C226 1.317 1_554 S
C226 H197 0.930 . S
C226 C202 1.431 . S
C226 C225 1.317 1_556 S
C227 Gd168 2.828 . S
C227 O212 1.258 . S
C227 O217 1.252 . S
C227 C228 1.497 . S
C228 C227 1.497 . S
C228 C229 1.395 . S
C228 C230 1.380 . S
C229 C228 1.395 . S
C229 C232 1.398 . S
C229 H244 0.930 . S
C230 C228 1.380 . S
C230 C231 1.391 . S
C230 H245 0.930 . S
C231 C230 1.391 . S
C231 C233 1.387 . S
C232 C229 1.398 . S
C232 C233 1.380 . S
C232 H246 0.930 . S
C233 C231 1.387 . S
C233 C232 1.380 . S
C233 H247 0.930 . S
C234 O214 1.229 1_554 S
C234 O215 1.294 . S
C235 O219 1.284 . S
C235 O222 1.250 . S
C236 Gd169 2.828 . S
C236 O218 1.258 . S
C236 O223 1.252 . S
C236 C237 1.497 . S
C237 C236 1.497 . S
C237 C238 1.395 . S
C237 C239 1.380 . S
C238 C237 1.395 . S
C238 C241 1.398 . S
C238 H248 0.930 . S
C239 C237 1.380 . S
C239 C240 1.391 . S
C239 H249 0.930 . S
C240 C239 1.391 . S
C240 C242 1.387 . S
C241 C238 1.398 . S
C241 C242 1.380 . S
C241 H250 0.930 . S
C242 C240 1.387 . S
C242 C241 1.380 . S
C242 H251 0.930 . S
C243 O220 1.254 . S
C243 O221 1.268 . S
H244 C229 0.930 . S
H245 C230 0.930 . S
H246 C232 0.930 . S
H247 C233 0.930 . S
H248 C238 0.930 . S
H249 C239 0.930 . S
H250 C241 0.930 . S
H251 C242 0.930 . S
Gd252 N283 2.661 . S
Gd252 N289 2.601 . S
Gd252 O296 2.545 . S
Gd252 O297 2.606 . S
Gd252 O299 2.429 . S
Gd252 O300 2.545 . S
Gd252 O301 2.412 . S
Gd252 O303 2.362 . S
Gd252 O304 2.324 . S
Gd252 C311 2.828 . S
Gd253 N262 2.661 . S
Gd253 N266 2.601 . S
Gd253 O297 2.362 . S
Gd253 O298 2.324 . S
Gd253 O302 2.545 . S
Gd253 O303 2.606 . S
Gd253 O305 2.429 . S
Gd253 O306 2.545 . S
Gd253 O307 2.412 . S
Gd253 C320 2.828 . S
C254 C257 1.417 . S
C254 C259 1.431 . S
C254 C260 1.412 . S
C255 C258 1.437 . S
C255 C259 1.317 . S
C255 H274 0.929 . S
C256 C257 1.426 . S
C256 C258 1.413 . S
C256 N266 1.359 . S
C257 C254 1.417 . S
C257 C256 1.426 . S
C257 N262 1.350 . S
C258 C255 1.437 . S
C258 C256 1.413 . S
C258 C268 1.391 . S
C259 C254 1.431 . S
C259 C255 1.317 . S
C259 H270 0.930 . S
C260 C254 1.412 . S
C260 C261 1.355 . S
C260 H272 0.930 . S
C261 C260 1.355 . S
C261 C263 1.402 . S
C261 H273 0.930 . S
N262 Gd253 2.661 . S
N262 C257 1.350 . S
N262 C263 1.307 . S
C263 C261 1.402 . S
C263 N262 1.307 . S
C263 H264 0.930 . S
H264 C263 0.930 . S
C265 N266 1.334 . S
C265 C267 1.394 . S
C265 H269 0.930 . S
N266 Gd253 2.601 . S
N266 C256 1.359 . S
N266 C265 1.334 . S
C267 C265 1.394 . S
C267 C268 1.359 . S
C267 H279 0.930 . S
C268 C258 1.391 . S
C268 C267 1.359 . S
C268 H280 0.929 . S
H269 C265 0.930 . S
H270 C259 0.930 . S
H271 C288 0.930 . S
H272 C260 0.930 . S
H273 C261 0.930 . S
H274 C255 0.929 . S
H275 C293 0.930 . S
H276 C284 0.930 . S
H277 C285 0.930 . S
H278 C309 0.929 . S
H279 C267 0.930 . S
H280 C268 0.929 . S
H281 C310 0.930 . S
H282 C291 0.930 . S
N283 Gd252 2.661 . S
N283 C287 1.350 . S
N283 C288 1.307 . S
C284 H276 0.930 . S
C284 C285 1.355 . S
C284 C286 1.412 . S
C285 H277 0.930 . S
C285 C284 1.355 . S
C285 C288 1.402 . S
C286 C284 1.412 . S
C286 C287 1.417 . S
C286 C310 1.431 . S
C287 N283 1.350 . S
C287 C286 1.417 . S
C287 C290 1.426 . S
C288 H271 0.930 . S
C288 N283 1.307 . S
C288 C285 1.402 . S
N289 Gd252 2.601 . S
N289 C290 1.359 . S
N289 C293 1.334 . S
C290 C287 1.426 . S
C290 N289 1.359 . S
C290 C294 1.413 . S
C291 H282 0.930 . S
C291 C292 1.359 . S
C291 C293 1.394 . S
C292 C291 1.359 . S
C292 C294 1.391 . S
C292 H295 0.929 . S
C293 H275 0.930 . S
C293 N289 1.334 . S
C293 C291 1.394 . S
C294 C290 1.413 . S
C294 C292 1.391 . S
C294 C309 1.437 . S
H295 C292 0.929 . S
O296 Gd252 2.545 . S
O296 C311 1.258 . S
O297 Gd252 2.606 . S
O297 Gd253 2.362 . S
O297 C308 1.284 . S
O298 Gd253 2.324 . S
O298 C318 1.254 . S
O299 Gd252 2.429 . S
O299 C318 1.268 . S
O300 Gd252 2.545 . S
O300 C308 1.250 . S
O301 Gd252 2.412 . S
O301 C311 1.252 . S
O302 Gd253 2.545 . S
O302 C320 1.258 . S
O303 Gd252 2.362 . S
O303 Gd253 2.606 . S
O303 C319 1.284 . S
O304 Gd252 2.324 . S
O304 C327 1.254 . S
O305 Gd253 2.429 . S
O305 C327 1.268 . S
O306 Gd253 2.545 . S
O306 C319 1.250 . S
O307 Gd253 2.412 . S
O307 C320 1.252 . S
C308 O297 1.284 . S
C308 O300 1.250 . S
C309 H278 0.929 . S
C309 C294 1.437 . S
C309 C310 1.317 . S
C310 H281 0.930 . S
C310 C286 1.431 . S
C310 C309 1.317 . S
C311 Gd252 2.828 . S
C311 O296 1.258 . S
C311 O301 1.252 . S
C311 C312 1.497 . S
C312 C311 1.497 . S
C312 C313 1.395 . S
C312 C314 1.380 . S
C313 C312 1.395 . S
C313 C316 1.398 . S
C313 H328 0.930 . S
C314 C312 1.380 . S
C314 C315 1.391 . S
C314 H329 0.930 . S
C315 C314 1.391 . S
C315 C317 1.387 . S
C316 C313 1.398 . S
C316 C317 1.380 . S
C316 H330 0.930 . S
C317 C315 1.387 . S
C317 C316 1.380 . S
C317 H331 0.930 . S
C318 O298 1.254 . S
C318 O299 1.268 . S
C319 O303 1.284 . S
C319 O306 1.250 . S
C320 Gd253 2.828 . S
C320 O302 1.258 . S
C320 O307 1.252 . S
C320 C321 1.497 . S
C321 C320 1.497 . S
C321 C322 1.395 . S
C321 C323 1.380 . S
C322 C321 1.395 . S
C322 C325 1.398 . S
C322 H332 0.930 . S
C323 C321 1.380 . S
C323 C324 1.391 . S
C323 H333 0.930 . S
C324 C323 1.391 . S
C324 C326 1.387 . S
C325 C322 1.398 . S
C325 C326 1.380 . S
C325 H334 0.930 . S
C326 C324 1.387 . S
C326 C325 1.380 . S
C326 H335 0.930 . S
C327 O304 1.254 . S
C327 O305 1.268 . S
H328 C313 0.930 . S
H329 C314 0.930 . S
H330 C316 0.930 . S
H331 C317 0.930 . S
H332 C322 0.930 . S
H333 C323 0.930 . S
H334 C325 0.930 . S
H335 C326 0.930 . S
Gd336 N367 2.661 . S
Gd336 N373 2.601 . S
Gd336 O380 2.545 . S
Gd336 O381 2.606 . S
Gd336 O383 2.429 . S
Gd336 O384 2.545 . S
Gd336 O385 2.412 . S
Gd336 O387 2.362 . S
Gd336 O388 2.324 . S
Gd336 C395 2.828 . S
Gd337 N346 2.661 . S
Gd337 N350 2.601 . S
Gd337 O381 2.362 . S
Gd337 O382 2.324 . S
Gd337 O386 2.545 . S
Gd337 O387 2.606 . S
Gd337 O389 2.429 . S
Gd337 O390 2.545 . S
Gd337 O391 2.412 . S
Gd337 C404 2.828 . S
C338 C341 1.417 . S
C338 C343 1.431 . S
C338 C344 1.412 . S
C339 C342 1.437 . S
C339 C343 1.317 . S
C339 H358 0.929 . S
C340 C341 1.426 . S
C340 C342 1.413 . S
C340 N350 1.359 . S
C341 C338 1.417 . S
C341 C340 1.426 . S
C341 N346 1.350 . S
C342 C339 1.437 . S
C342 C340 1.413 . S
C342 C352 1.391 . S
C343 C338 1.431 . S
C343 C339 1.317 . S
C343 H354 0.930 . S
C344 C338 1.412 . S
C344 C345 1.355 . S
C344 H356 0.930 . S
C345 C344 1.355 . S
C345 C347 1.402 . S
C345 H357 0.930 . S
N346 Gd337 2.661 . S
N346 C341 1.350 . S
N346 C347 1.307 . S
C347 C345 1.402 . S
C347 N346 1.307 . S
C347 H348 0.930 . S
H348 C347 0.930 . S
C349 N350 1.334 . S
C349 C351 1.394 . S
C349 H353 0.930 . S
N350 Gd337 2.601 . S
N350 C340 1.359 . S
N350 C349 1.334 . S
C351 C349 1.394 . S
C351 C352 1.359 . S
C351 H363 0.930 . S
C352 C342 1.391 . S
C352 C351 1.359 . S
C352 H364 0.929 . S
H353 C349 0.930 . S
H354 C343 0.930 . S
H355 C372 0.930 . S
H356 C344 0.930 . S
H357 C345 0.930 . S
H358 C339 0.929 . S
H359 C377 0.930 . S
H360 C368 0.930 . S
H361 C369 0.930 . S
H362 C393 0.929 . S
H363 C351 0.930 . S
H364 C352 0.929 . S
H365 C394 0.930 . S
H366 C375 0.930 . S
N367 Gd336 2.661 . S
N367 C371 1.350 . S
N367 C372 1.307 . S
C368 H360 0.930 . S
C368 C369 1.355 . S
C368 C370 1.412 . S
C369 H361 0.930 . S
C369 C368 1.355 . S
C369 C372 1.402 . S
C370 C368 1.412 . S
C370 C371 1.417 . S
C370 C394 1.431 . S
C371 N367 1.350 . S
C371 C370 1.417 . S
C371 C374 1.426 . S
C372 H355 0.930 . S
C372 N367 1.307 . S
C372 C369 1.402 . S
N373 Gd336 2.601 . S
N373 C374 1.359 . S
N373 C377 1.334 . S
C374 C371 1.426 . S
C374 N373 1.359 . S
C374 C378 1.413 . S
C375 H366 0.930 . S
C375 C376 1.359 . S
C375 C377 1.394 . S
C376 C375 1.359 . S
C376 C378 1.391 . S
C376 H379 0.929 . S
C377 H359 0.930 . S
C377 N373 1.334 . S
C377 C375 1.394 . S
C378 C374 1.413 . S
C378 C376 1.391 . S
C378 C393 1.437 . S
H379 C376 0.929 . S
O380 Gd336 2.545 . S
O380 C395 1.258 . S
O381 Gd336 2.606 . S
O381 Gd337 2.362 . S
O381 C392 1.284 . S
O382 Gd337 2.324 . S
O382 C402 1.254 . S
O383 Gd336 2.429 . S
O383 C402 1.268 . S
O384 Gd336 2.545 . S
O384 C392 1.250 . S
O385 Gd336 2.412 . S
O385 C395 1.252 . S
O386 Gd337 2.545 . S
O386 C404 1.258 . S
O387 Gd336 2.362 . S
O387 Gd337 2.606 . S
O387 C403 1.284 . S
O388 Gd336 2.324 . S
O388 C411 1.254 . S
O389 Gd337 2.429 . S
O389 C411 1.268 . S
O390 Gd337 2.545 . S
O390 C403 1.250 . S
O391 Gd337 2.412 . S
O391 C404 1.252 . S
C392 O381 1.284 . S
C392 O384 1.250 . S
C393 H362 0.929 . S
C393 C378 1.437 . S
C393 C394 1.317 . S
C394 H365 0.930 . S
C394 C370 1.431 . S
C394 C393 1.317 . S
C395 Gd336 2.828 . S
C395 O380 1.258 . S
C395 O385 1.252 . S
C395 C396 1.497 . S
C396 C395 1.497 . S
C396 C397 1.395 . S
C396 C398 1.380 . S
C397 C396 1.395 . S
C397 C400 1.398 . S
C397 H412 0.930 . S
C398 C396 1.380 . S
C398 C399 1.391 . S
C398 H413 0.930 . S
C399 C398 1.391 . S
C399 C401 1.387 . S
C400 C397 1.398 . S
C400 C401 1.380 . S
C400 H414 0.930 . S
C401 C399 1.387 . S
C401 C400 1.380 . S
C401 H415 0.930 . S
C402 O382 1.254 . S
C402 O383 1.268 . S
C403 O387 1.284 . S
C403 O390 1.250 . S
C404 Gd337 2.828 . S
C404 O386 1.258 . S
C404 O391 1.252 . S
C404 C405 1.497 . S
C405 C404 1.497 . S
C405 C406 1.395 . S
C405 C407 1.380 . S
C406 C405 1.395 . S
C406 C409 1.398 . S
C406 H416 0.930 . S
C407 C405 1.380 . S
C407 C408 1.391 . S
C407 H417 0.930 . S
C408 C407 1.391 . S
C408 C410 1.387 . S
C409 C406 1.398 . S
C409 C410 1.380 . S
C409 H418 0.930 . S
C410 C408 1.387 . S
C410 C409 1.380 . S
C410 H419 0.930 . S
C411 O388 1.254 . S
C411 O389 1.268 . S
H412 C397 0.930 . S
H413 C398 0.930 . S
H414 C400 0.930 . S
H415 C401 0.930 . S
H416 C406 0.930 . S
H417 C407 0.930 . S
H418 C409 0.930 . S
H419 C410 0.930 . S
Gd420 N451 2.661 1_455 S
Gd420 N457 2.601 . S
Gd420 O464 2.545 . S
Gd420 O465 2.606 . S
Gd420 O467 2.429 . S
Gd420 O468 2.545 . S
Gd420 O469 2.412 . S
Gd420 O471 2.362 1_455 S
Gd420 O472 2.324 1_455 S
Gd420 C479 2.828 . S
Gd421 N430 2.661 . S
Gd421 N434 2.601 . S
Gd421 O465 2.360 1_655 S
Gd421 O466 2.324 . S
Gd421 O470 2.545 . S
Gd421 O471 2.606 . S
Gd421 O473 2.429 . S
Gd421 O474 2.545 . S
Gd421 O475 2.412 . S
Gd421 C488 2.828 . S
C422 C425 1.417 . S
C422 C427 1.431 . S
C422 C428 1.412 1_655 S
C423 C426 1.437 . S
C423 C427 1.317 . S
C423 H442 0.929 . S
C424 C425 1.426 . S
C424 C426 1.413 . S
C424 N434 1.359 . S
C425 C422 1.417 . S
C425 C424 1.426 . S
C425 N430 1.350 . S
C426 C423 1.437 . S
C426 C424 1.413 . S
C426 C436 1.391 . S
C427 C422 1.431 . S
C427 C423 1.317 . S
C427 H438 0.930 . S
C428 C422 1.412 1_455 S
C428 C429 1.355 . S
C428 H440 0.930 . S
C429 C428 1.355 . S
C429 C431 1.402 . S
C429 H441 0.930 . S
N430 Gd421 2.661 . S
N430 C425 1.350 . S
N430 C431 1.307 1_655 S
C431 C429 1.402 . S
C431 N430 1.307 1_455 S
C431 H432 0.930 . S
H432 C431 0.930 . S
C433 N434 1.334 . S
C433 C435 1.394 . S
C433 H437 0.930 . S
N434 Gd421 2.601 . S
N434 C424 1.359 . S
N434 C433 1.334 . S
C435 C433 1.394 . S
C435 C436 1.359 . S
C435 H447 0.930 . S
C436 C426 1.391 . S
C436 C435 1.359 . S
C436 H448 0.929 . S
H437 C433 0.930 . S
H438 C427 0.930 . S
H439 C456 0.930 . S
H440 C428 0.930 . S
H441 C429 0.930 . S
H442 C423 0.929 . S
H443 C461 0.930 . S
H444 C452 0.930 . S
H445 C453 0.930 . S
H446 C477 0.929 . S
H447 C435 0.930 . S
H448 C436 0.929 . S
H449 C478 0.930 . S
H450 C459 0.930 . S
N451 Gd420 2.661 1_655 S
N451 C455 1.350 . S
N451 C456 1.307 . S
C452 H444 0.930 . S
C452 C453 1.355 . S
C452 C454 1.412 . S
C453 H445 0.930 . S
C453 C452 1.355 . S
C453 C456 1.402 . S
C454 C452 1.412 . S
C454 C455 1.417 . S
C454 C478 1.431 . S
C455 N451 1.350 . S
C455 C454 1.417 . S
C455 C458 1.426 1_655 S
C456 H439 0.930 . S
C456 N451 1.307 . S
C456 C453 1.402 . S
N457 Gd420 2.601 . S
N457 C458 1.359 . S
N457 C461 1.334 . S
C458 C455 1.426 1_455 S
C458 N457 1.359 . S
C458 C462 1.413 . S
C459 H450 0.930 . S
C459 C460 1.359 . S
C459 C461 1.394 . S
C460 C459 1.359 . S
C460 C462 1.391 . S
C460 H463 0.929 . S
C461 H443 0.930 . S
C461 N457 1.334 . S
C461 C459 1.394 . S
C462 C458 1.413 . S
C462 C460 1.391 . S
C462 C477 1.437 . S
H463 C460 0.929 . S
O464 Gd420 2.545 . S
O464 C479 1.258 . S
O465 Gd420 2.606 . S
O465 Gd421 2.360 1_455 S
O465 C476 1.286 . S
O466 Gd421 2.324 . S
O466 C486 1.254 1_655 S
O467 Gd420 2.429 . S
O467 C486 1.268 . S
O468 Gd420 2.545 . S
O468 C476 1.250 . S
O469 Gd420 2.412 . S
O469 C479 1.252 . S
O470 Gd421 2.545 . S
O470 C488 1.258 . S
O471 Gd420 2.362 1_655 S
O471 Gd421 2.606 . S
O471 C487 1.284 . S
O472 Gd420 2.324 1_655 S
O472 C495 1.254 . S
O473 Gd421 2.429 . S
O473 C495 1.268 . S
O474 Gd421 2.545 . S
O474 C487 1.250 . S
O475 Gd421 2.412 . S
O475 C488 1.252 . S
C476 O465 1.286 . S
C476 O468 1.250 . S
C477 H446 0.929 . S
C477 C462 1.437 . S
C477 C478 1.317 1_455 S
C478 H449 0.930 . S
C478 C454 1.431 . S
C478 C477 1.317 1_655 S
C479 Gd420 2.828 . S
C479 O464 1.258 . S
C479 O469 1.252 . S
C479 C480 1.497 . S
C480 C479 1.497 . S
C480 C481 1.395 . S
C480 C482 1.380 . S
C481 C480 1.395 . S
C481 C484 1.398 . S
C481 H496 0.930 . S
C482 C480 1.380 . S
C482 C483 1.391 . S
C482 H497 0.930 . S
C483 C482 1.391 . S
C483 C485 1.387 . S
C484 C481 1.398 . S
C484 C485 1.380 . S
C484 H498 0.930 . S
C485 C483 1.387 . S
C485 C484 1.380 . S
C485 H499 0.930 . S
C486 O466 1.254 1_455 S
C486 O467 1.268 . S
C487 O471 1.284 . S
C487 O474 1.250 . S
C488 Gd421 2.828 . S
C488 O470 1.258 . S
C488 O475 1.252 . S
C488 C489 1.497 . S
C489 C488 1.497 . S
C489 C490 1.395 . S
C489 C491 1.380 . S
C490 C489 1.395 . S
C490 C493 1.398 . S
C490 H500 0.930 . S
C491 C489 1.380 . S
C491 C492 1.391 . S
C491 H501 0.930 . S
C492 C491 1.391 . S
C492 C494 1.387 . S
C493 C490 1.398 . S
C493 C494 1.380 . S
C493 H502 0.930 . S
C494 C492 1.387 . S
C494 C493 1.380 . S
C494 H503 0.930 . S
C495 O472 1.254 . S
C495 O473 1.268 . S
H496 C481 0.930 . S
H497 C482 0.930 . S
H498 C484 0.930 . S
H499 C485 0.930 . S
H500 C490 0.930 . S
H501 C491 0.930 . S
H502 C493 0.930 . S
H503 C494 0.930 . S
Gd504 N535 2.661 1_556 S
Gd504 N541 2.601 . S
Gd504 O548 2.545 . S
Gd504 O549 2.606 1_556 S
Gd504 O551 2.429 . S
Gd504 O552 2.545 . S
Gd504 O553 2.412 . S
Gd504 O555 2.362 1_556 S
Gd504 O556 2.324 1_556 S
Gd504 C563 2.828 . S
Gd505 N514 2.661 . S
Gd505 N518 2.601 . S
Gd505 O549 2.362 . S
Gd505 O550 2.324 . S
Gd505 O554 2.545 . S
Gd505 O555 2.606 . S
Gd505 O557 2.429 . S
Gd505 O558 2.545 . S
Gd505 O559 2.412 . S
Gd505 C572 2.828 . S
C506 C509 1.417 . S
C506 C511 1.431 . S
C506 C512 1.412 1_554 S
C507 C510 1.437 . S
C507 C511 1.317 . S
C507 H526 0.929 . S
C508 C509 1.426 . S
C508 C510 1.413 . S
C508 N518 1.359 . S
C509 C506 1.417 . S
C509 C508 1.426 . S
C509 N514 1.350 . S
C510 C507 1.437 . S
C510 C508 1.413 . S
C510 C520 1.391 . S
C511 C506 1.431 . S
C511 C507 1.317 . S
C511 H522 0.930 . S
C512 C506 1.412 1_556 S
C512 C513 1.355 . S
C512 H524 0.930 . S
C513 C512 1.355 . S
C513 C515 1.402 . S
C513 H525 0.930 . S
N514 Gd505 2.661 . S
N514 C509 1.350 . S
N514 C515 1.307 1_554 S
C515 C513 1.402 . S
C515 N514 1.307 1_556 S
C515 H516 0.930 . S
H516 C515 0.930 . S
C517 N518 1.334 . S
C517 C519 1.394 . S
C517 H521 0.930 . S
N518 Gd505 2.601 . S
N518 C508 1.359 . S
N518 C517 1.334 . S
C519 C517 1.394 . S
C519 C520 1.359 . S
C519 H531 0.930 . S
C520 C510 1.391 . S
C520 C519 1.359 . S
C520 H532 0.929 . S
H521 C517 0.930 . S
H522 C511 0.930 . S
H523 C540 0.930 . S
H524 C512 0.930 . S
H525 C513 0.930 . S
H526 C507 0.929 . S
H527 C545 0.930 . S
H528 C536 0.930 . S
H529 C537 0.930 . S
H530 C561 0.929 1_556 S
H531 C519 0.930 . S
H532 C520 0.929 . S
H533 C562 0.930 . S
H534 C543 0.930 . S
N535 Gd504 2.661 1_554 S
N535 C539 1.350 . S
N535 C540 1.307 . S
C536 H528 0.930 . S
C536 C537 1.355 . S
C536 C538 1.412 . S
C537 H529 0.930 . S
C537 C536 1.355 . S
C537 C540 1.402 . S
C538 C536 1.412 . S
C538 C539 1.417 . S
C538 C562 1.431 . S
C539 N535 1.350 . S
C539 C538 1.417 . S
C539 C542 1.426 1_554 S
C540 H523 0.930 . S
C540 N535 1.307 . S
C540 C537 1.402 . S
N541 Gd504 2.601 . S
N541 C542 1.359 . S
N541 C545 1.334 . S
C542 C539 1.426 1_556 S
C542 N541 1.359 . S
C542 C546 1.413 . S
C543 H534 0.930 . S
C543 C544 1.359 . S
C543 C545 1.394 . S
C544 C543 1.359 . S
C544 C546 1.391 . S
C544 H547 0.929 . S
C545 H527 0.930 . S
C545 N541 1.334 . S
C545 C543 1.394 . S
C546 C542 1.413 . S
C546 C544 1.391 . S
C546 C561 1.437 1_556 S
H547 C544 0.929 . S
O548 Gd504 2.545 . S
O548 C563 1.258 . S
O549 Gd504 2.606 1_554 S
O549 Gd505 2.362 . S
O549 C560 1.284 1_554 S
O550 Gd505 2.324 . S
O550 C570 1.254 . S
O551 Gd504 2.429 . S
O551 C570 1.268 1_556 S
O552 Gd504 2.545 . S
O552 C560 1.250 . S
O553 Gd504 2.412 . S
O553 C563 1.252 . S
O554 Gd505 2.545 . S
O554 C572 1.258 . S
O555 Gd504 2.362 1_554 S
O555 Gd505 2.606 . S
O555 C571 1.284 . S
O556 Gd504 2.324 1_554 S
O556 C579 1.254 . S
O557 Gd505 2.429 . S
O557 C579 1.268 . S
O558 Gd505 2.545 . S
O558 C571 1.250 . S
O559 Gd505 2.412 . S
O559 C572 1.252 . S
C560 O549 1.284 1_556 S
C560 O552 1.250 . S
C561 H530 0.929 1_554 S
C561 C546 1.437 1_554 S
C561 C562 1.317 . S
C562 H533 0.930 . S
C562 C538 1.431 . S
C562 C561 1.317 . S
C563 Gd504 2.828 . S
C563 O548 1.258 . S
C563 O553 1.252 . S
C563 C564 1.497 . S
C564 C563 1.497 . S
C564 C565 1.395 . S
C564 C566 1.380 . S
C565 C564 1.395 . S
C565 C568 1.398 . S
C565 H580 0.930 . S
C566 C564 1.380 . S
C566 C567 1.391 . S
C566 H581 0.930 . S
C567 C566 1.391 . S
C567 C569 1.387 . S
C568 C565 1.398 . S
C568 C569 1.380 . S
C568 H582 0.930 . S
C569 C567 1.387 . S
C569 C568 1.380 . S
C569 H583 0.930 . S
C570 O550 1.254 . S
C570 O551 1.268 1_554 S
C571 O555 1.284 . S
C571 O558 1.250 . S
C572 Gd505 2.828 . S
C572 O554 1.258 . S
C572 O559 1.252 . S
C572 C573 1.497 . S
C573 C572 1.497 . S
C573 C574 1.395 . S
C573 C575 1.380 . S
C574 C573 1.395 . S
C574 C577 1.398 . S
C574 H584 0.930 . S
C575 C573 1.380 . S
C575 C576 1.391 . S
C575 H585 0.930 . S
C576 C575 1.391 . S
C576 C578 1.387 . S
C577 C574 1.398 . S
C577 C578 1.380 . S
C577 H586 0.930 . S
C578 C576 1.387 . S
C578 C577 1.380 . S
C578 H587 0.930 . S
C579 O556 1.254 . S
C579 O557 1.268 . S
H580 C565 0.930 . S
H581 C566 0.930 . S
H582 C568 0.930 . S
H583 C569 0.930 . S
H584 C574 0.930 . S
H585 C575 0.930 . S
H586 C577 0.930 . S
H587 C578 0.930 . S
Gd588 N619 2.661 . S
Gd588 N625 2.601 . S
Gd588 O632 2.545 . S
Gd588 O633 2.606 . S
Gd588 O635 2.429 . S
Gd588 O636 2.545 . S
Gd588 O637 2.412 . S
Gd588 O639 2.362 . S
Gd588 O640 2.324 . S
Gd588 C647 2.828 . S
Gd589 N598 2.661 . S
Gd589 N602 2.601 . S
Gd589 O633 2.362 . S
Gd589 O634 2.324 . S
Gd589 O638 2.545 . S
Gd589 O639 2.606 . S
Gd589 O641 2.429 . S
Gd589 O642 2.545 . S
Gd589 O643 2.412 . S
Gd589 C656 2.828 . S
C590 C593 1.417 . S
C590 C595 1.431 . S
C590 C596 1.412 . S
C591 C594 1.437 . S
C591 C595 1.317 . S
C591 H610 0.929 . S
C592 C593 1.426 . S
C592 C594 1.413 . S
C592 N602 1.359 . S
C593 C590 1.417 . S
C593 C592 1.426 . S
C593 N598 1.350 . S
C594 C591 1.437 . S
C594 C592 1.413 . S
C594 C604 1.391 . S
C595 C590 1.431 . S
C595 C591 1.317 . S
C595 H606 0.930 . S
C596 C590 1.412 . S
C596 C597 1.355 . S
C596 H608 0.930 . S
C597 C596 1.355 . S
C597 C599 1.402 . S
C597 H609 0.930 . S
N598 Gd589 2.661 . S
N598 C593 1.350 . S
N598 C599 1.307 . S
C599 C597 1.402 . S
C599 N598 1.307 . S
C599 H600 0.930 . S
H600 C599 0.930 . S
C601 N602 1.334 . S
C601 C603 1.394 . S
C601 H605 0.930 . S
N602 Gd589 2.601 . S
N602 C592 1.359 . S
N602 C601 1.334 . S
C603 C601 1.394 . S
C603 C604 1.359 . S
C603 H615 0.930 . S
C604 C594 1.391 . S
C604 C603 1.359 . S
C604 H616 0.929 . S
H605 C601 0.930 . S
H606 C595 0.930 . S
H607 C624 0.930 . S
H608 C596 0.930 . S
H609 C597 0.930 . S
H610 C591 0.929 . S
H611 C629 0.930 . S
H612 C620 0.930 . S
H613 C621 0.930 . S
H614 C645 0.929 . S
H615 C603 0.930 . S
H616 C604 0.929 . S
H617 C646 0.930 . S
H618 C627 0.930 . S
N619 Gd588 2.661 . S
N619 C623 1.350 . S
N619 C624 1.307 . S
C620 H612 0.930 . S
C620 C621 1.355 . S
C620 C622 1.412 . S
C621 H613 0.930 . S
C621 C620 1.355 . S
C621 C624 1.402 . S
C622 C620 1.412 . S
C622 C623 1.417 . S
C622 C646 1.431 . S
C623 N619 1.350 . S
C623 C622 1.417 . S
C623 C626 1.426 . S
C624 H607 0.930 . S
C624 N619 1.307 . S
C624 C621 1.402 . S
N625 Gd588 2.601 . S
N625 C626 1.359 . S
N625 C629 1.334 . S
C626 C623 1.426 . S
C626 N625 1.359 . S
C626 C630 1.413 . S
C627 H618 0.930 . S
C627 C628 1.359 . S
C627 C629 1.394 . S
C628 C627 1.359 . S
C628 C630 1.391 . S
C628 H631 0.929 . S
C629 H611 0.930 . S
C629 N625 1.334 . S
C629 C627 1.394 . S
C630 C626 1.413 . S
C630 C628 1.391 . S
C630 C645 1.437 . S
H631 C628 0.929 . S
O632 Gd588 2.545 . S
O632 C647 1.258 . S
O633 Gd588 2.606 . S
O633 Gd589 2.362 . S
O633 C644 1.284 . S
O634 Gd589 2.324 . S
O634 C654 1.254 . S
O635 Gd588 2.429 . S
O635 C654 1.268 . S
O636 Gd588 2.545 . S
O636 C644 1.250 . S
O637 Gd588 2.412 . S
O637 C647 1.252 . S
O638 Gd589 2.545 . S
O638 C656 1.258 . S
O639 Gd588 2.362 . S
O639 Gd589 2.606 . S
O639 C655 1.284 . S
O640 Gd588 2.324 . S
O640 C663 1.254 . S
O641 Gd589 2.429 . S
O641 C663 1.268 . S
O642 Gd589 2.545 . S
O642 C655 1.250 . S
O643 Gd589 2.412 . S
O643 C656 1.252 . S
C644 O633 1.284 . S
C644 O636 1.250 . S
C645 H614 0.929 . S
C645 C630 1.437 . S
C645 C646 1.317 . S
C646 H617 0.930 . S
C646 C622 1.431 . S
C646 C645 1.317 . S
C647 Gd588 2.828 . S
C647 O632 1.258 . S
C647 O637 1.252 . S
C647 C648 1.497 . S
C648 C647 1.497 . S
C648 C649 1.395 . S
C648 C650 1.380 . S
C649 C648 1.395 . S
C649 C652 1.398 . S
C649 H664 0.930 . S
C650 C648 1.380 . S
C650 C651 1.391 . S
C650 H665 0.930 . S
C651 C650 1.391 . S
C651 C653 1.387 . S
C652 C649 1.398 . S
C652 C653 1.380 . S
C652 H666 0.930 . S
C653 C651 1.387 . S
C653 C652 1.380 . S
C653 H667 0.930 . S
C654 O634 1.254 . S
C654 O635 1.268 . S
C655 O639 1.284 . S
C655 O642 1.250 . S
C656 Gd589 2.828 . S
C656 O638 1.258 . S
C656 O643 1.252 . S
C656 C657 1.497 . S
C657 C656 1.497 . S
C657 C658 1.395 . S
C657 C659 1.380 . S
C658 C657 1.395 . S
C658 C661 1.398 . S
C658 H668 0.930 . S
C659 C657 1.380 . S
C659 C660 1.391 . S
C659 H669 0.930 . S
C660 C659 1.391 . S
C660 C662 1.387 . S
C661 C658 1.398 . S
C661 C662 1.380 . S
C661 H670 0.930 . S
C662 C660 1.387 . S
C662 C661 1.380 . S
C662 H671 0.930 . S
C663 O640 1.254 . S
C663 O641 1.268 . S
H664 C649 0.930 . S
H665 C650 0.930 . S
H666 C652 0.930 . S
H667 C653 0.930 . S
H668 C658 0.930 . S
H669 C659 0.930 . S
H670 C661 0.930 . S
H671 C662 0.930 . S
Gd672 N703 2.661 . S
Gd672 N709 2.601 . S
Gd672 O716 2.545 . S
Gd672 O717 2.606 . S
Gd672 O719 2.429 . S
Gd672 O720 2.545 . S
Gd672 O721 2.412 . S
Gd672 O723 2.362 . S
Gd672 O724 2.324 . S
Gd672 C731 2.828 . S
Gd673 N682 2.661 . S
Gd673 N686 2.601 . S
Gd673 O717 2.362 . S
Gd673 O718 2.324 . S
Gd673 O722 2.545 . S
Gd673 O723 2.606 . S
Gd673 O725 2.429 . S
Gd673 O726 2.545 . S
Gd673 O727 2.412 . S
Gd673 C740 2.828 . S
C674 C677 1.417 . S
C674 C679 1.431 . S
C674 C680 1.412 . S
C675 C678 1.437 . S
C675 C679 1.317 . S
C675 H694 0.929 . S
C676 C677 1.426 . S
C676 C678 1.413 . S
C676 N686 1.359 . S
C677 C674 1.417 . S
C677 C676 1.426 . S
C677 N682 1.350 . S
C678 C675 1.437 . S
C678 C676 1.413 . S
C678 C688 1.391 . S
C679 C674 1.431 . S
C679 C675 1.317 . S
C679 H690 0.930 . S
C680 C674 1.412 . S
C680 C681 1.355 . S
C680 H692 0.930 . S
C681 C680 1.355 . S
C681 C683 1.402 . S
C681 H693 0.930 . S
N682 Gd673 2.661 . S
N682 C677 1.350 . S
N682 C683 1.307 . S
C683 C681 1.402 . S
C683 N682 1.307 . S
C683 H684 0.930 . S
H684 C683 0.930 . S
C685 N686 1.334 . S
C685 C687 1.394 . S
C685 H689 0.930 . S
N686 Gd673 2.601 . S
N686 C676 1.359 . S
N686 C685 1.334 . S
C687 C685 1.394 . S
C687 C688 1.359 . S
C687 H699 0.930 . S
C688 C678 1.391 . S
C688 C687 1.359 . S
C688 H700 0.929 . S
H689 C685 0.930 . S
H690 C679 0.930 . S
H691 C708 0.930 . S
H692 C680 0.930 . S
H693 C681 0.930 . S
H694 C675 0.929 . S
H695 C713 0.930 . S
H696 C704 0.930 . S
H697 C705 0.930 . S
H698 C729 0.929 . S
H699 C687 0.930 . S
H700 C688 0.929 . S
H701 C730 0.930 . S
H702 C711 0.930 . S
N703 Gd672 2.661 . S
N703 C707 1.350 . S
N703 C708 1.307 . S
C704 H696 0.930 . S
C704 C705 1.355 . S
C704 C706 1.412 . S
C705 H697 0.930 . S
C705 C704 1.355 . S
C705 C708 1.402 . S
C706 C704 1.412 . S
C706 C707 1.417 . S
C706 C730 1.431 . S
C707 N703 1.350 . S
C707 C706 1.417 . S
C707 C710 1.426 . S
C708 H691 0.930 . S
C708 N703 1.307 . S
C708 C705 1.402 . S
N709 Gd672 2.601 . S
N709 C710 1.359 . S
N709 C713 1.334 . S
C710 C707 1.426 . S
C710 N709 1.359 . S
C710 C714 1.413 . S
C711 H702 0.930 . S
C711 C712 1.359 . S
C711 C713 1.394 . S
C712 C711 1.359 . S
C712 C714 1.391 . S
C712 H715 0.929 . S
C713 H695 0.930 . S
C713 N709 1.334 . S
C713 C711 1.394 . S
C714 C710 1.413 . S
C714 C712 1.391 . S
C714 C729 1.437 . S
H715 C712 0.929 . S
O716 Gd672 2.545 . S
O716 C731 1.258 . S
O717 Gd672 2.606 . S
O717 Gd673 2.362 . S
O717 C728 1.284 . S
O718 Gd673 2.324 . S
O718 C738 1.254 . S
O719 Gd672 2.429 . S
O719 C738 1.268 . S
O720 Gd672 2.545 . S
O720 C728 1.250 . S
O721 Gd672 2.412 . S
O721 C731 1.252 . S
O722 Gd673 2.545 . S
O722 C740 1.258 . S
O723 Gd672 2.362 . S
O723 Gd673 2.606 . S
O723 C739 1.284 . S
O724 Gd672 2.324 . S
O724 C747 1.254 . S
O725 Gd673 2.429 . S
O725 C747 1.268 . S
O726 Gd673 2.545 . S
O726 C739 1.250 . S
O727 Gd673 2.412 . S
O727 C740 1.252 . S
C728 O717 1.284 . S
C728 O720 1.250 . S
C729 H698 0.929 . S
C729 C714 1.437 . S
C729 C730 1.317 . S
C730 H701 0.930 . S
C730 C706 1.431 . S
C730 C729 1.317 . S
C731 Gd672 2.828 . S
C731 O716 1.258 . S
C731 O721 1.252 . S
C731 C732 1.497 . S
C732 C731 1.497 . S
C732 C733 1.395 . S
C732 C734 1.380 . S
C733 C732 1.395 . S
C733 C736 1.398 . S
C733 H748 0.930 . S
C734 C732 1.380 . S
C734 C735 1.391 . S
C734 H749 0.930 . S
C735 C734 1.391 . S
C735 C737 1.387 . S
C736 C733 1.398 . S
C736 C737 1.380 . S
C736 H750 0.930 . S
C737 C735 1.387 . S
C737 C736 1.380 . S
C737 H751 0.930 . S
C738 O718 1.254 . S
C738 O719 1.268 . S
C739 O723 1.284 . S
C739 O726 1.250 . S
C740 Gd673 2.828 . S
C740 O722 1.258 . S
C740 O727 1.252 . S
C740 C741 1.497 . S
C741 C740 1.497 . S
C741 C742 1.395 . S
C741 C743 1.380 . S
C742 C741 1.395 . S
C742 C745 1.398 . S
C742 H752 0.930 . S
C743 C741 1.380 . S
C743 C744 1.391 . S
C743 H753 0.930 . S
C744 C743 1.391 . S
C744 C746 1.387 . S
C745 C742 1.398 . S
C745 C746 1.380 . S
C745 H754 0.930 . S
C746 C744 1.387 . S
C746 C745 1.380 . S
C746 H755 0.930 . S
C747 O724 1.254 . S
C747 O725 1.268 . S
H748 C733 0.930 . S
H749 C734 0.930 . S
H750 C736 0.930 . S
H751 C737 0.930 . S
H752 C742 0.930 . S
H753 C743 0.930 . S
H754 C745 0.930 . S
H755 C746 0.930 . S
Gd756 N787 2.661 1_565 S
Gd756 N793 2.601 . S
Gd756 O800 2.545 . S
Gd756 O801 2.606 1_565 S
Gd756 O803 2.429 . S
Gd756 O804 2.545 . S
Gd756 O805 2.412 . S
Gd756 O807 2.362 1_565 S
Gd756 O808 2.324 1_565 S
Gd756 C815 2.828 . S
Gd757 N766 2.661 . S
Gd757 N770 2.601 . S
Gd757 O801 2.362 . S
Gd757 O802 2.324 . S
Gd757 O806 2.545 . S
Gd757 O807 2.606 . S
Gd757 O809 2.429 . S
Gd757 O810 2.545 . S
Gd757 O811 2.412 . S
Gd757 C824 2.828 . S
C758 C761 1.417 . S
C758 C763 1.431 . S
C758 C764 1.412 1_545 S
C759 C762 1.437 . S
C759 C763 1.317 . S
C759 H778 0.929 . S
C760 C761 1.426 . S
C760 C762 1.413 . S
C760 N770 1.359 . S
C761 C758 1.417 . S
C761 C760 1.426 . S
C761 N766 1.350 . S
C762 C759 1.437 . S
C762 C760 1.413 . S
C762 C772 1.391 . S
C763 C758 1.431 . S
C763 C759 1.317 . S
C763 H774 0.930 . S
C764 C758 1.412 1_565 S
C764 C765 1.355 . S
C764 H776 0.930 . S
C765 C764 1.355 . S
C765 C767 1.402 1_565 S
C765 H777 0.930 . S
N766 Gd757 2.661 . S
N766 C761 1.350 . S
N766 C767 1.308 . S
C767 C765 1.402 1_545 S
C767 N766 1.308 . S
C767 H768 0.929 1_545 S
H768 C767 0.929 1_565 S
C769 N770 1.334 . S
C769 C771 1.394 . S
C769 H773 0.930 . S
N770 Gd757 2.601 . S
N770 C760 1.359 . S
N770 C769 1.334 . S
C771 C769 1.394 . S
C771 C772 1.359 . S
C771 H783 0.930 . S
C772 C762 1.391 . S
C772 C771 1.359 . S
C772 H784 0.929 . S
H773 C769 0.930 . S
H774 C763 0.930 . S
H775 C792 0.930 . S
H776 C764 0.930 . S
H777 C765 0.930 . S
H778 C759 0.929 . S
H779 C797 0.930 . S
H780 C788 0.930 . S
H781 C789 0.930 . S
H782 C813 0.929 1_565 S
H783 C771 0.930 . S
H784 C772 0.929 . S
H785 C814 0.930 . S
H786 C795 0.930 . S
N787 Gd756 2.661 1_545 S
N787 C791 1.350 . S
N787 C792 1.307 . S
C788 H780 0.930 . S
C788 C789 1.355 . S
C788 C790 1.412 . S
C789 H781 0.930 . S
C789 C788 1.355 . S
C789 C792 1.402 . S
C790 C788 1.412 . S
C790 C791 1.417 . S
C790 C814 1.431 . S
C791 N787 1.350 . S
C791 C790 1.417 . S
C791 C794 1.426 1_545 S
C792 H775 0.930 . S
C792 N787 1.307 . S
C792 C789 1.402 . S
N793 Gd756 2.601 . S
N793 C794 1.359 . S
N793 C797 1.334 . S
C794 C791 1.426 1_565 S
C794 N793 1.359 . S
C794 C798 1.413 . S
C795 H786 0.930 . S
C795 C796 1.359 . S
C795 C797 1.394 . S
C796 C795 1.359 . S
C796 C798 1.391 . S
C796 H799 0.929 . S
C797 H779 0.930 . S
C797 N793 1.334 . S
C797 C795 1.394 . S
C798 C794 1.413 . S
C798 C796 1.391 . S
C798 C813 1.437 1_565 S
H799 C796 0.929 . S
O800 Gd756 2.545 . S
O800 C815 1.258 . S
O801 Gd756 2.606 1_545 S
O801 Gd757 2.362 . S
O801 C812 1.284 1_545 S
O802 Gd757 2.324 . S
O802 C822 1.254 . S
O803 Gd756 2.429 . S
O803 C822 1.268 1_565 S
O804 Gd756 2.545 . S
O804 C812 1.250 . S
O805 Gd756 2.412 . S
O805 C815 1.252 . S
O806 Gd757 2.545 . S
O806 C824 1.258 . S
O807 Gd756 2.362 1_545 S
O807 Gd757 2.606 . S
O807 C823 1.284 . S
O808 Gd756 2.324 1_545 S
O808 C831 1.254 . S
O809 Gd757 2.429 . S
O809 C831 1.268 . S
O810 Gd757 2.545 . S
O810 C823 1.250 . S
O811 Gd757 2.412 . S
O811 C824 1.252 . S
C812 O801 1.284 1_565 S
C812 O804 1.250 . S
C813 H782 0.929 1_545 S
C813 C798 1.437 1_545 S
C813 C814 1.317 . S
C814 H785 0.930 . S
C814 C790 1.431 . S
C814 C813 1.317 . S
C815 Gd756 2.828 . S
C815 O800 1.258 . S
C815 O805 1.252 . S
C815 C816 1.497 . S
C816 C815 1.497 . S
C816 C817 1.395 . S
C816 C818 1.380 . S
C817 C816 1.395 . S
C817 C820 1.398 . S
C817 H832 0.930 . S
C818 C816 1.380 . S
C818 C819 1.391 . S
C818 H833 0.930 . S
C819 C818 1.391 . S
C819 C821 1.387 . S
C820 C817 1.398 . S
C820 C821 1.380 . S
C820 H834 0.930 . S
C821 C819 1.387 . S
C821 C820 1.380 . S
C821 H835 0.930 . S
C822 O802 1.254 . S
C822 O803 1.268 1_545 S
C823 O807 1.284 . S
C823 O810 1.250 . S
C824 Gd757 2.828 . S
C824 O806 1.258 . S
C824 O811 1.252 . S
C824 C825 1.497 . S
C825 C824 1.497 . S
C825 C826 1.395 . S
C825 C827 1.380 . S
C826 C825 1.395 . S
C826 C829 1.398 . S
C826 H836 0.930 . S
C827 C825 1.380 . S
C827 C828 1.391 . S
C827 H837 0.930 . S
C828 C827 1.391 . S
C828 C830 1.387 . S
C829 C826 1.398 . S
C829 C830 1.380 . S
C829 H838 0.930 . S
C830 C828 1.387 . S
C830 C829 1.380 . S
C830 H839 0.930 . S
C831 O808 1.254 . S
C831 O809 1.268 . S
H832 C817 0.930 . S
H833 C818 0.930 . S
H834 C820 0.930 . S
H835 C821 0.930 . S
H836 C826 0.930 . S
H837 C827 0.930 . S
H838 C829 0.930 . S
H839 C830 0.930 . S
Gd840 N871 2.661 1_545 S
Gd840 N877 2.601 . S
Gd840 O884 2.545 . S
Gd840 O885 2.606 1_545 S
Gd840 O887 2.429 . S
Gd840 O888 2.545 . S
Gd840 O889 2.412 . S
Gd840 O891 2.362 1_545 S
Gd840 O892 2.324 1_545 S
Gd840 C899 2.828 . S
Gd841 N850 2.661 . S
Gd841 N854 2.601 . S
Gd841 O885 2.362 . S
Gd841 O886 2.324 . S
Gd841 O890 2.545 . S
Gd841 O891 2.606 . S
Gd841 O893 2.429 . S
Gd841 O894 2.545 . S
Gd841 O895 2.412 . S
Gd841 C908 2.828 . S
C842 C845 1.417 . S
C842 C847 1.431 . S
C842 C848 1.412 1_565 S
C843 C846 1.437 . S
C843 C847 1.317 . S
C843 H862 0.929 . S
C844 C845 1.426 . S
C844 C846 1.413 . S
C844 N854 1.359 . S
C845 C842 1.417 . S
C845 C844 1.426 . S
C845 N850 1.350 . S
C846 C843 1.437 . S
C846 C844 1.413 . S
C846 C856 1.391 . S
C847 C842 1.431 . S
C847 C843 1.317 . S
C847 H858 0.930 . S
C848 C842 1.412 1_545 S
C848 C849 1.355 . S
C848 H860 0.930 . S
C849 C848 1.355 . S
C849 C851 1.402 . S
C849 H861 0.930 . S
N850 Gd841 2.661 . S
N850 C845 1.350 . S
N850 C851 1.307 1_565 S
C851 C849 1.402 . S
C851 N850 1.307 1_545 S
C851 H852 0.930 . S
H852 C851 0.930 . S
C853 N854 1.334 . S
C853 C855 1.394 . S
C853 H857 0.930 . S
N854 Gd841 2.601 . S
N854 C844 1.359 . S
N854 C853 1.334 . S
C855 C853 1.394 . S
C855 C856 1.359 . S
C855 H867 0.930 . S
C856 C846 1.391 . S
C856 C855 1.359 . S
C856 H868 0.929 . S
H857 C853 0.930 . S
H858 C847 0.930 . S
H859 C876 0.930 . S
H860 C848 0.930 . S
H861 C849 0.930 . S
H862 C843 0.929 . S
H863 C881 0.930 . S
H864 C872 0.930 . S
H865 C873 0.930 . S
H866 C897 0.931 . S
H867 C855 0.930 . S
H868 C856 0.929 . S
H869 C898 0.930 . S
H870 C879 0.930 . S
N871 Gd840 2.661 1_565 S
N871 C875 1.350 . S
N871 C876 1.307 . S
C872 H864 0.930 . S
C872 C873 1.355 . S
C872 C874 1.412 . S
C873 H865 0.930 . S
C873 C872 1.355 . S
C873 C876 1.402 . S
C874 C872 1.412 . S
C874 C875 1.417 . S
C874 C898 1.431 . S
C875 N871 1.350 . S
C875 C874 1.417 . S
C875 C878 1.426 1_565 S
C876 H859 0.930 . S
C876 N871 1.307 . S
C876 C873 1.402 . S
N877 Gd840 2.601 . S
N877 C878 1.359 . S
N877 C881 1.334 . S
C878 C875 1.426 1_545 S
C878 N877 1.359 . S
C878 C882 1.413 . S
C879 H870 0.930 . S
C879 C880 1.359 . S
C879 C881 1.394 . S
C880 C879 1.359 . S
C880 C882 1.391 . S
C880 H883 0.929 . S
C881 H863 0.930 . S
C881 N877 1.334 . S
C881 C879 1.394 . S
C882 C878 1.413 . S
C882 C880 1.391 . S
C882 C897 1.440 . S
H883 C880 0.929 . S
O884 Gd840 2.545 . S
O884 C899 1.258 . S
O885 Gd840 2.606 1_565 S
O885 Gd841 2.362 . S
O885 C896 1.284 1_565 S
O886 Gd841 2.324 . S
O886 C906 1.274 . S
O887 Gd840 2.429 . S
O887 C906 1.247 1_545 S
O888 Gd840 2.545 . S
O888 C896 1.250 . S
O889 Gd840 2.412 . S
O889 C899 1.252 . S
O890 Gd841 2.545 . S
O890 C908 1.258 . S
O891 Gd840 2.362 1_565 S
O891 Gd841 2.606 . S
O891 C907 1.284 . S
O892 Gd840 2.324 1_565 S
O892 C915 1.254 . S
O893 Gd841 2.429 . S
O893 C915 1.268 . S
O894 Gd841 2.545 . S
O894 C907 1.250 . S
O895 Gd841 2.412 . S
O895 C908 1.252 . S
C896 O885 1.284 1_545 S
C896 O888 1.250 . S
C897 H866 0.931 . S
C897 C882 1.440 . S
C897 C898 1.312 1_545 S
C898 H869 0.930 . S
C898 C874 1.431 . S
C898 C897 1.312 1_565 S
C899 Gd840 2.828 . S
C899 O884 1.258 . S
C899 O889 1.252 . S
C899 C900 1.497 . S
C900 C899 1.497 . S
C900 C901 1.395 . S
C900 C902 1.380 . S
C901 C900 1.395 . S
C901 C904 1.398 . S
C901 H916 0.930 . S
C902 C900 1.380 . S
C902 C903 1.391 . S
C902 H917 0.930 . S
C903 C902 1.391 . S
C903 C905 1.387 . S
C904 C901 1.398 . S
C904 C905 1.380 . S
C904 H918 0.930 . S
C905 C903 1.387 . S
C905 C904 1.380 . S
C905 H919 0.930 . S
C906 O886 1.274 . S
C906 O887 1.247 1_565 S
C907 O891 1.284 . S
C907 O894 1.250 . S
C908 Gd841 2.828 . S
C908 O890 1.258 . S
C908 O895 1.252 . S
C908 C909 1.497 . S
C909 C908 1.497 . S
C909 C910 1.395 . S
C909 C911 1.380 . S
C910 C909 1.395 . S
C910 C913 1.398 . S
C910 H920 0.930 . S
C911 C909 1.380 . S
C911 C912 1.391 . S
C911 H921 0.930 . S
C912 C911 1.391 . S
C912 C914 1.387 . S
C913 C910 1.398 . S
C913 C914 1.380 . S
C913 H922 0.930 . S
C914 C912 1.387 . S
C914 C913 1.380 . S
C914 H923 0.930 . S
C915 O892 1.254 . S
C915 O893 1.268 . S
H916 C901 0.930 . S
H917 C902 0.930 . S
H918 C904 0.930 . S
H919 C905 0.930 . S
H920 C910 0.930 . S
H921 C911 0.930 . S
H922 C913 0.930 . S
H923 C914 0.930 . S
Gd924 N955 2.661 . S
Gd924 N961 2.601 . S
Gd924 O968 2.545 . S
Gd924 O969 2.606 . S
Gd924 O971 2.429 . S
Gd924 O972 2.545 . S
Gd924 O973 2.412 . S
Gd924 O975 2.362 . S
Gd924 O976 2.324 . S
Gd924 C983 2.828 . S
Gd925 N934 2.661 . S
Gd925 N938 2.601 . S
Gd925 O969 2.362 . S
Gd925 O970 2.324 . S
Gd925 O974 2.545 . S
Gd925 O975 2.606 . S
Gd925 O977 2.429 . S
Gd925 O978 2.545 . S
Gd925 O979 2.412 . S
Gd925 C992 2.828 . S
C926 C929 1.417 . S
C926 C931 1.431 . S
C926 C932 1.412 . S
C927 C930 1.437 . S
C927 C931 1.317 . S
C927 H946 0.929 . S
C928 C929 1.426 . S
C928 C930 1.413 . S
C928 N938 1.359 . S
C929 C926 1.417 . S
C929 C928 1.426 . S
C929 N934 1.350 . S
C930 C927 1.437 . S
C930 C928 1.413 . S
C930 C940 1.391 . S
C931 C926 1.431 . S
C931 C927 1.317 . S
C931 H942 0.930 . S
C932 C926 1.412 . S
C932 C933 1.355 . S
C932 H944 0.930 . S
C933 C932 1.355 . S
C933 C935 1.402 . S
C933 H945 0.930 . S
N934 Gd925 2.661 . S
N934 C929 1.350 . S
N934 C935 1.307 . S
C935 C933 1.402 . S
C935 N934 1.307 . S
C935 H936 0.930 . S
H936 C935 0.930 . S
C937 N938 1.334 . S
C937 C939 1.394 . S
C937 H941 0.930 . S
N938 Gd925 2.601 . S
N938 C928 1.359 . S
N938 C937 1.334 . S
C939 C937 1.394 . S
C939 C940 1.359 . S
C939 H951 0.930 . S
C940 C930 1.391 . S
C940 C939 1.359 . S
C940 H952 0.929 . S
H941 C937 0.930 . S
H942 C931 0.930 . S
H943 C960 0.930 . S
H944 C932 0.930 . S
H945 C933 0.930 . S
H946 C927 0.929 . S
H947 C965 0.930 . S
H948 C956 0.930 . S
H949 C957 0.930 . S
H950 C981 0.929 . S
H951 C939 0.930 . S
H952 C940 0.929 . S
H953 C982 0.930 . S
H954 C963 0.930 . S
N955 Gd924 2.661 . S
N955 C959 1.350 . S
N955 C960 1.307 . S
C956 H948 0.930 . S
C956 C957 1.355 . S
C956 C958 1.412 . S
C957 H949 0.930 . S
C957 C956 1.355 . S
C957 C960 1.402 . S
C958 C956 1.412 . S
C958 C959 1.417 . S
C958 C982 1.431 . S
C959 N955 1.350 . S
C959 C958 1.417 . S
C959 C962 1.426 . S
C960 H943 0.930 . S
C960 N955 1.307 . S
C960 C957 1.402 . S
N961 Gd924 2.601 . S
N961 C962 1.359 . S
N961 C965 1.334 . S
C962 C959 1.426 . S
C962 N961 1.359 . S
C962 C966 1.413 . S
C963 H954 0.930 . S
C963 C964 1.359 . S
C963 C965 1.394 . S
C964 C963 1.359 . S
C964 C966 1.391 . S
C964 H967 0.929 . S
C965 H947 0.930 . S
C965 N961 1.334 . S
C965 C963 1.394 . S
C966 C962 1.413 . S
C966 C964 1.391 . S
C966 C981 1.437 . S
H967 C964 0.929 . S
O968 Gd924 2.545 . S
O968 C983 1.258 . S
O969 Gd924 2.606 . S
O969 Gd925 2.362 . S
O969 C980 1.284 . S
O970 Gd925 2.324 . S
O970 C990 1.254 . S
O971 Gd924 2.429 . S
O971 C990 1.268 . S
O972 Gd924 2.545 . S
O972 C980 1.250 . S
O973 Gd924 2.412 . S
O973 C983 1.252 . S
O974 Gd925 2.545 . S
O974 C992 1.258 . S
O975 Gd924 2.362 . S
O975 Gd925 2.606 . S
O975 C991 1.284 . S
O976 Gd924 2.324 . S
O976 C999 1.254 . S
O977 Gd925 2.429 . S
O977 C999 1.268 . S
O978 Gd925 2.545 . S
O978 C991 1.250 . S
O979 Gd925 2.412 . S
O979 C992 1.252 . S
C980 O969 1.284 . S
C980 O972 1.250 . S
C981 H950 0.929 . S
C981 C966 1.437 . S
C981 C982 1.317 . S
C982 H953 0.930 . S
C982 C958 1.431 . S
C982 C981 1.317 . S
C983 Gd924 2.828 . S
C983 O968 1.258 . S
C983 O973 1.252 . S
C983 C984 1.497 . S
C984 C983 1.497 . S
C984 C985 1.395 . S
C984 C986 1.380 . S
C985 C984 1.395 . S
C985 C988 1.398 . S
C985 H1000 0.930 . S
C986 C984 1.380 . S
C986 C987 1.391 . S
C986 H1001 0.930 . S
C987 C986 1.391 . S
C987 C989 1.387 . S
C988 C985 1.398 . S
C988 C989 1.380 . S
C988 H1002 0.930 . S
C989 C987 1.387 . S
C989 C988 1.380 . S
C989 H1003 0.930 . S
C990 O970 1.254 . S
C990 O971 1.268 . S
C991 O975 1.284 . S
C991 O978 1.250 . S
C992 Gd925 2.828 . S
C992 O974 1.258 . S
C992 O979 1.252 . S
C992 C993 1.497 . S
C993 C992 1.497 . S
C993 C994 1.395 . S
C993 C995 1.380 . S
C994 C993 1.395 . S
C994 C997 1.398 . S
C994 H1004 0.930 . S
C995 C993 1.380 . S
C995 C996 1.391 . S
C995 H1005 0.930 . S
C996 C995 1.391 . S
C996 C998 1.387 . S
C997 C994 1.398 . S
C997 C998 1.380 . S
C997 H1006 0.930 . S
C998 C996 1.387 . S
C998 C997 1.380 . S
C998 H1007 0.930 . S
C999 O976 1.254 . S
C999 O977 1.268 . S
H1000 C985 0.930 . S
H1001 C986 0.930 . S
H1002 C988 0.930 . S
H1003 C989 0.930 . S
H1004 C994 0.930 . S
H1005 C995 0.930 . S
H1006 C997 0.930 . S
H1007 C998 0.930 . S
H1008 C1026 0.951 . S
H1009 C1028 0.951 . S
H1010 C1030 0.950 . S
H1011 C1031 0.950 . S
H1012 C1033 0.950 . S
H1013 C1036 0.950 . S
H1014 C1037 0.950 . S
H1015 C1039 0.950 . S
H1016 C1040 0.950 . S
H1017 C1041 0.951 . S
H1018 C1043 0.951 . S
H1019 C1045 0.950 . S
H1020 C1046 0.950 . S
H1021 C1048 0.950 . S
H1022 C1051 0.950 . S
H1023 C1052 0.950 . S
H1024 C1054 0.950 . S
H1025 C1055 0.950 . S
C1026 H1008 0.951 . S
C1026 C1027 1.366 . S
C1026 C1028 1.388 . S
C1027 C1026 1.366 . S
C1027 C1031 1.385 . S
C1028 H1009 0.951 . S
C1028 C1026 1.388 . S
C1028 C1029 1.366 . S
C1029 C1028 1.366 . S
C1029 C1030 1.414 . S
C1029 C1032 1.499 . S
C1030 H1010 0.950 . S
C1030 C1029 1.414 . S
C1030 C1031 1.374 . S
C1031 H1011 0.950 . S
C1031 C1027 1.385 . S
C1031 C1030 1.374 . S
C1032 C1029 1.499 . S
C1032 C1033 1.373 . S
C1032 C1034 1.389 . S
C1033 H1012 0.950 . S
C1033 C1032 1.373 . S
C1033 C1049 1.377 . S
C1034 C1032 1.389 . S
C1034 C1035 1.524 . S
C1034 C1048 1.377 . S
C1035 C1034 1.524 . S
C1035 C1036 1.397 . S
C1035 C1040 1.363 . S
C1036 H1013 0.950 . S
C1036 C1035 1.397 . S
C1036 C1037 1.334 . S
C1037 H1014 0.950 . S
C1037 C1036 1.334 . S
C1037 C1038 1.287 . S
C1038 C1037 1.287 . S
C1038 C1039 1.524 . S
C1038 H1057 0.913 . S
C1039 H1015 0.950 . S
C1039 C1038 1.524 . S
C1039 C1040 1.415 . S
C1040 H1016 0.950 . S
C1040 C1035 1.363 . S
C1040 C1039 1.415 . S
C1041 H1017 0.951 . S
C1041 C1042 1.366 . S
C1041 C1043 1.388 . S
C1042 C1041 1.366 . S
C1042 C1046 1.385 . S
C1043 H1018 0.951 . S
C1043 C1041 1.388 . S
C1043 C1044 1.366 . S
C1044 C1043 1.366 . S
C1044 C1045 1.414 . S
C1044 C1047 1.499 . S
C1045 H1019 0.950 . S
C1045 C1044 1.414 . S
C1045 C1046 1.374 . S
C1046 H1020 0.950 . S
C1046 C1042 1.385 . S
C1046 C1045 1.374 . S
C1047 C1044 1.499 . S
C1047 C1048 1.373 . S
C1047 C1049 1.389 . S
C1048 H1021 0.950 . S
C1048 C1034 1.377 . S
C1048 C1047 1.373 . S
C1049 C1033 1.377 . S
C1049 C1047 1.389 . S
C1049 C1050 1.524 . S
C1050 C1049 1.524 . S
C1050 C1051 1.397 . S
C1050 C1055 1.363 . S
C1051 H1022 0.950 . S
C1051 C1050 1.397 . S
C1051 C1052 1.334 . S
C1052 H1023 0.950 . S
C1052 C1051 1.334 . S
C1052 C1053 1.287 . S
C1053 C1052 1.287 . S
C1053 C1054 1.524 . S
C1053 H1056 0.999 . S
C1054 H1024 0.950 . S
C1054 C1053 1.524 . S
C1054 C1055 1.415 . S
C1055 H1025 0.950 . S
C1055 C1050 1.363 . S
C1055 C1054 1.415 . S
H1056 C1053 0.999 . S
H1057 C1038 0.913 . S
H1058 C1076 0.951 . S
H1059 C1078 0.951 1_545 S
H1060 C1080 0.950 . S
H1061 C1081 0.950 . S
H1062 C1083 0.950 . S
H1063 C1086 0.950 . S
H1064 C1087 0.950 . S
H1065 C1089 0.950 . S
H1066 C1090 0.950 . S
H1067 C1091 0.951 . S
H1068 C1093 0.951 . S
H1069 C1095 0.950 . S
H1070 C1096 0.950 . S
H1071 C1098 0.950 . S
H1072 C1101 0.950 . S
H1073 C1102 0.950 . S
H1074 C1104 0.950 . S
H1075 C1105 0.950 . S
C1076 H1058 0.951 . S
C1076 C1077 1.366 1_545 S
C1076 C1078 1.388 1_545 S
C1077 C1076 1.366 1_565 S
C1077 C1081 1.385 . S
C1078 H1059 0.951 1_565 S
C1078 C1076 1.388 1_565 S
C1078 C1079 1.366 . S
C1079 C1078 1.366 . S
C1079 C1080 1.414 . S
C1079 C1082 1.499 . S
C1080 H1060 0.950 . S
C1080 C1079 1.414 . S
C1080 C1081 1.374 . S
C1081 H1061 0.950 . S
C1081 C1077 1.385 . S
C1081 C1080 1.374 . S
C1082 C1079 1.499 . S
C1082 C1083 1.373 . S
C1082 C1084 1.389 . S
C1083 H1062 0.950 . S
C1083 C1082 1.373 . S
C1083 C1099 1.377 . S
C1084 C1082 1.389 . S
C1084 C1085 1.524 1_565 S
C1084 C1098 1.377 . S
C1085 C1084 1.524 1_545 S
C1085 C1086 1.397 . S
C1085 C1090 1.363 . S
C1086 H1063 0.950 . S
C1086 C1085 1.397 . S
C1086 C1087 1.334 . S
C1087 H1064 0.950 . S
C1087 C1086 1.334 . S
C1087 C1088 1.287 . S
C1088 C1087 1.287 . S
C1088 C1089 1.524 . S
C1088 H1107 0.913 . S
C1089 H1065 0.950 . S
C1089 C1088 1.524 . S
C1089 C1090 1.415 . S
C1090 H1066 0.950 . S
C1090 C1085 1.363 . S
C1090 C1089 1.415 . S
C1091 H1067 0.951 . S
C1091 C1092 1.366 . S
C1091 C1093 1.388 . S
C1092 C1091 1.366 . S
C1092 C1096 1.385 . S
C1093 H1068 0.951 . S
C1093 C1091 1.388 . S
C1093 C1094 1.366 . S
C1094 C1093 1.366 . S
C1094 C1095 1.414 . S
C1094 C1097 1.499 . S
C1095 H1069 0.950 . S
C1095 C1094 1.414 . S
C1095 C1096 1.374 . S
C1096 H1070 0.950 . S
C1096 C1092 1.385 . S
C1096 C1095 1.374 . S
C1097 C1094 1.499 . S
C1097 C1098 1.373 . S
C1097 C1099 1.389 . S
C1098 H1071 0.950 . S
C1098 C1084 1.377 . S
C1098 C1097 1.373 . S
C1099 C1083 1.377 . S
C1099 C1097 1.389 . S
C1099 C1100 1.524 . S
C1100 C1099 1.524 . S
C1100 C1101 1.397 . S
C1100 C1105 1.363 . S
C1101 H1072 0.950 . S
C1101 C1100 1.397 . S
C1101 C1102 1.334 . S
C1102 H1073 0.950 . S
C1102 C1101 1.334 . S
C1102 C1103 1.287 . S
C1103 C1102 1.287 . S
C1103 C1104 1.524 . S
C1103 H1106 0.999 . S
C1104 H1074 0.950 . S
C1104 C1103 1.524 . S
C1104 C1105 1.415 . S
C1105 H1075 0.950 . S
C1105 C1100 1.363 . S
C1105 C1104 1.415 . S
H1106 C1103 0.999 . S
H1107 C1088 0.913 . S
H1108 C1126 0.951 . S
H1109 C1128 0.951 . S
H1110 C1130 0.950 . S
H1111 C1131 0.946 1_556 S
H1112 C1133 0.950 . S
H1113 C1136 0.950 . S
H1114 C1137 0.950 . S
H1115 C1139 0.950 . S
H1116 C1140 0.950 . S
H1117 C1141 0.951 . S
H1118 C1143 0.951 . S
H1119 C1145 0.950 . S
H1120 C1146 0.950 . S
H1121 C1148 0.950 . S
H1122 C1151 0.950 . S
H1123 C1152 0.950 . S
H1124 C1154 0.950 . S
H1125 C1155 0.950 . S
C1126 H1108 0.951 . S
C1126 C1127 1.366 . S
C1126 C1128 1.388 . S
C1127 C1126 1.366 . S
C1127 C1131 1.385 . S
C1128 H1109 0.951 . S
C1128 C1126 1.388 . S
C1128 C1129 1.366 . S
C1129 C1128 1.366 . S
C1129 C1130 1.414 . S
C1129 C1132 1.499 . S
C1130 H1110 0.950 . S
C1130 C1129 1.414 . S
C1130 C1131 1.374 . S
C1131 H1111 0.946 1_554 S
C1131 C1127 1.385 . S
C1131 C1130 1.374 . S
C1132 C1129 1.499 . S
C1132 C1133 1.373 . S
C1132 C1134 1.389 . S
C1133 H1112 0.950 . S
C1133 C1132 1.373 . S
C1133 C1149 1.377 . S
C1134 C1132 1.389 . S
C1134 C1135 1.524 . S
C1134 C1148 1.377 . S
C1135 C1134 1.524 . S
C1135 C1136 1.397 1_554 S
C1135 C1140 1.363 . S
C1136 H1113 0.950 . S
C1136 C1135 1.397 1_556 S
C1136 C1137 1.334 . S
C1137 H1114 0.950 . S
C1137 C1136 1.334 . S
C1137 C1138 1.287 . S
C1138 C1137 1.287 . S
C1138 C1139 1.524 . S
C1138 H1157 0.913 . S
C1139 H1115 0.950 . S
C1139 C1138 1.524 . S
C1139 C1140 1.415 1_556 S
C1140 H1116 0.950 . S
C1140 C1135 1.363 . S
C1140 C1139 1.415 1_554 S
C1141 H1117 0.951 . S
C1141 C1142 1.366 . S
C1141 C1143 1.388 . S
C1142 C1141 1.366 . S
C1142 C1146 1.385 . S
C1143 H1118 0.951 . S
C1143 C1141 1.388 . S
C1143 C1144 1.366 . S
C1144 C1143 1.366 . S
C1144 C1145 1.414 . S
C1144 C1147 1.499 . S
C1145 H1119 0.950 . S
C1145 C1144 1.414 . S
C1145 C1146 1.374 . S
C1146 H1120 0.950 . S
C1146 C1142 1.385 . S
C1146 C1145 1.374 . S
C1147 C1144 1.499 . S
C1147 C1148 1.373 . S
C1147 C1149 1.389 . S
C1148 H1121 0.950 . S
C1148 C1134 1.377 . S
C1148 C1147 1.373 . S
C1149 C1133 1.377 . S
C1149 C1147 1.389 . S
C1149 C1150 1.524 . S
C1150 C1149 1.524 . S
C1150 C1151 1.397 . S
C1150 C1155 1.363 . S
C1151 H1122 0.950 . S
C1151 C1150 1.397 . S
C1151 C1152 1.334 . S
C1152 H1123 0.950 . S
C1152 C1151 1.334 . S
C1152 C1153 1.287 . S
C1153 C1152 1.287 . S
C1153 C1154 1.524 . S
C1153 H1156 0.999 . S
C1154 H1124 0.950 . S
C1154 C1153 1.524 . S
C1154 C1155 1.415 . S
C1155 H1125 0.950 . S
C1155 C1150 1.363 . S
C1155 C1154 1.415 . S
H1156 C1153 0.999 . S
H1157 C1138 0.913 . S
H1158 C1176 0.951 . S
H1159 C1178 0.951 . S
H1160 C1180 0.950 . S
H1161 C1181 0.950 . S
H1162 C1183 0.950 . S
H1163 C1186 0.950 . S
H1164 C1187 0.950 . S
H1165 C1189 0.950 . S
H1166 C1190 0.950 . S
H1167 C1191 0.951 . S
H1168 C1193 0.959 . S
H1169 C1195 0.950 . S
H1170 C1196 0.950 . S
H1171 C1198 0.950 . S
H1172 C1201 0.950 . S
H1173 C1202 0.950 . S
H1174 C1204 0.950 1_565 S
H1175 C1205 0.950 . S
C1176 H1158 0.951 . S
C1176 C1177 1.366 . S
C1176 C1178 1.388 . S
C1177 C1176 1.366 . S
C1177 C1181 1.385 . S
C1178 H1159 0.951 . S
C1178 C1176 1.388 . S
C1178 C1179 1.366 . S
C1179 C1178 1.366 . S
C1179 C1180 1.414 . S
C1179 C1182 1.499 . S
C1180 H1160 0.950 . S
C1180 C1179 1.414 . S
C1180 C1181 1.374 . S
C1181 H1161 0.950 . S
C1181 C1177 1.385 . S
C1181 C1180 1.374 . S
C1182 C1179 1.499 . S
C1182 C1183 1.373 . S
C1182 C1184 1.389 . S
C1183 H1162 0.950 . S
C1183 C1182 1.373 . S
C1183 C1199 1.377 . S
C1184 C1182 1.389 . S
C1184 C1185 1.524 . S
C1184 C1198 1.377 . S
C1185 C1184 1.524 . S
C1185 C1186 1.397 . S
C1185 C1190 1.363 . S
C1186 H1163 0.950 . S
C1186 C1185 1.397 . S
C1186 C1187 1.334 . S
C1187 H1164 0.950 . S
C1187 C1186 1.334 . S
C1187 C1188 1.287 . S
C1188 C1187 1.287 . S
C1188 C1189 1.524 . S
C1188 H1207 0.913 . S
C1189 H1165 0.950 . S
C1189 C1188 1.524 . S
C1189 C1190 1.415 . S
C1190 H1166 0.950 . S
C1190 C1185 1.363 . S
C1190 C1189 1.415 . S
C1191 H1167 0.951 . S
C1191 C1192 1.366 1_565 S
C1191 C1193 1.393 . S
C1192 C1191 1.366 1_545 S
C1192 C1196 1.385 . S
C1193 H1168 0.959 . S
C1193 C1191 1.393 . S
C1193 C1194 1.352 1_565 S
C1194 C1193 1.352 1_545 S
C1194 C1195 1.414 . S
C1194 C1197 1.499 . S
C1195 H1169 0.950 . S
C1195 C1194 1.414 . S
C1195 C1196 1.374 . S
C1196 H1170 0.950 . S
C1196 C1192 1.385 . S
C1196 C1195 1.374 . S
C1197 C1194 1.499 . S
C1197 C1198 1.373 . S
C1197 C1199 1.389 . S
C1198 H1171 0.950 . S
C1198 C1184 1.377 . S
C1198 C1197 1.373 . S
C1199 C1183 1.377 . S
C1199 C1197 1.389 . S
C1199 C1200 1.524 . S
C1200 C1199 1.524 . S
C1200 C1201 1.397 . S
C1200 C1205 1.363 . S
C1201 H1172 0.950 . S
C1201 C1200 1.397 . S
C1201 C1202 1.334 . S
C1202 H1173 0.950 . S
C1202 C1201 1.334 . S
C1202 C1203 1.287 . S
C1203 C1202 1.287 . S
C1203 C1204 1.524 . S
C1203 H1206 0.999 . S
C1204 H1174 0.950 1_545 S
C1204 C1203 1.524 . S
C1204 C1205 1.415 . S
C1205 H1175 0.950 . S
C1205 C1200 1.363 . S
C1205 C1204 1.415 . S
H1206 C1203 0.999 . S
H1207 C1188 0.913 . S
H1208 C1226 0.951 . S
H1209 C1228 0.951 . S
H1210 C1230 0.950 . S
H1211 C1231 0.950 . S
H1212 C1233 0.950 . S
H1213 C1236 0.950 . S
H1214 C1237 0.950 . S
H1215 C1239 0.950 . S
H1216 C1240 0.950 . S
H1217 C1241 0.951 . S
H1218 C1243 0.951 . S
H1219 C1245 0.950 . S
H1220 C1246 0.950 . S
H1221 C1248 0.950 . S
H1222 C1251 0.950 . S
H1223 C1252 0.950 . S
H1224 C1254 0.950 . S
H1225 C1255 0.950 . S
C1226 H1208 0.951 . S
C1226 C1227 1.366 . S
C1226 C1228 1.388 . S
C1227 C1226 1.366 . S
C1227 C1231 1.385 . S
C1228 H1209 0.951 . S
C1228 C1226 1.388 . S
C1228 C1229 1.366 . S
C1229 C1228 1.366 . S
C1229 C1230 1.414 . S
C1229 C1232 1.499 . S
C1230 H1210 0.950 . S
C1230 C1229 1.414 . S
C1230 C1231 1.374 . S
C1231 H1211 0.950 . S
C1231 C1227 1.385 . S
C1231 C1230 1.374 . S
C1232 C1229 1.499 . S
C1232 C1233 1.373 . S
C1232 C1234 1.389 . S
C1233 H1212 0.950 . S
C1233 C1232 1.373 . S
C1233 C1249 1.377 . S
C1234 C1232 1.389 . S
C1234 C1235 1.524 . S
C1234 C1248 1.377 . S
C1235 C1234 1.524 . S
C1235 C1236 1.397 . S
C1235 C1240 1.363 . S
C1236 H1213 0.950 . S
C1236 C1235 1.397 . S
C1236 C1237 1.334 . S
C1237 H1214 0.950 . S
C1237 C1236 1.334 . S
C1237 C1238 1.287 . S
C1238 C1237 1.287 . S
C1238 C1239 1.524 . S
C1238 H1257 0.913 . S
C1239 H1215 0.950 . S
C1239 C1238 1.524 . S
C1239 C1240 1.415 . S
C1240 H1216 0.950 . S
C1240 C1235 1.363 . S
C1240 C1239 1.415 . S
C1241 H1217 0.951 . S
C1241 C1242 1.366 . S
C1241 C1243 1.388 . S
C1242 C1241 1.366 . S
C1242 C1246 1.385 . S
C1243 H1218 0.951 . S
C1243 C1241 1.388 . S
C1243 C1244 1.366 . S
C1244 C1243 1.366 . S
C1244 C1245 1.414 . S
C1244 C1247 1.499 . S
C1245 H1219 0.950 . S
C1245 C1244 1.414 . S
C1245 C1246 1.374 . S
C1246 H1220 0.950 . S
C1246 C1242 1.385 . S
C1246 C1245 1.374 . S
C1247 C1244 1.499 . S
C1247 C1248 1.373 . S
C1247 C1249 1.389 . S
C1248 H1221 0.950 . S
C1248 C1234 1.377 . S
C1248 C1247 1.373 . S
C1249 C1233 1.377 . S
C1249 C1247 1.389 . S
C1249 C1250 1.524 . S
C1250 C1249 1.524 . S
C1250 C1251 1.397 . S
C1250 C1255 1.363 . S
C1251 H1222 0.950 . S
C1251 C1250 1.397 . S
C1251 C1252 1.334 . S
C1252 H1223 0.950 . S
C1252 C1251 1.334 . S
C1252 C1253 1.287 . S
C1253 C1252 1.287 . S
C1253 C1254 1.524 . S
C1253 H1256 0.999 . S
C1254 H1224 0.950 . S
C1254 C1253 1.524 . S
C1254 C1255 1.415 . S
C1255 H1225 0.950 . S
C1255 C1250 1.363 . S
C1255 C1254 1.415 . S
H1256 C1253 0.999 . S
H1257 C1238 0.913 . S
H1258 C1276 0.951 . S
H1259 C1278 0.951 . S
H1260 C1280 0.950 . S
H1261 C1281 0.950 . S
H1262 C1283 0.950 . S
H1263 C1286 0.950 . S
H1264 C1287 0.950 . S
H1265 C1289 0.950 . S
H1266 C1290 0.950 . S
H1267 C1291 0.951 . S
H1268 C1293 0.951 . S
H1269 C1295 0.950 . S
H1270 C1296 0.950 . S
H1271 C1298 0.950 . S
H1272 C1301 0.950 . S
H1273 C1302 0.950 . S
H1274 C1304 0.950 . S
H1275 C1305 0.950 . S
C1276 H1258 0.951 . S
C1276 C1277 1.366 . S
C1276 C1278 1.388 . S
C1277 C1276 1.366 . S
C1277 C1281 1.385 . S
C1278 H1259 0.951 . S
C1278 C1276 1.388 . S
C1278 C1279 1.366 . S
C1279 C1278 1.366 . S
C1279 C1280 1.414 . S
C1279 C1282 1.499 . S
C1280 H1260 0.950 . S
C1280 C1279 1.414 . S
C1280 C1281 1.374 . S
C1281 H1261 0.950 . S
C1281 C1277 1.385 . S
C1281 C1280 1.374 . S
C1282 C1279 1.499 . S
C1282 C1283 1.373 . S
C1282 C1284 1.389 . S
C1283 H1262 0.950 . S
C1283 C1282 1.373 . S
C1283 C1299 1.377 . S
C1284 C1282 1.389 . S
C1284 C1285 1.524 . S
C1284 C1298 1.377 . S
C1285 C1284 1.524 . S
C1285 C1286 1.397 . S
C1285 C1290 1.363 . S
C1286 H1263 0.950 . S
C1286 C1285 1.397 . S
C1286 C1287 1.334 . S
C1287 H1264 0.950 . S
C1287 C1286 1.334 . S
C1287 C1288 1.287 . S
C1288 C1287 1.287 . S
C1288 C1289 1.524 . S
C1288 H1307 0.913 . S
C1289 H1265 0.950 . S
C1289 C1288 1.524 . S
C1289 C1290 1.415 . S
C1290 H1266 0.950 . S
C1290 C1285 1.363 . S
C1290 C1289 1.415 . S
C1291 H1267 0.951 . S
C1291 C1292 1.366 . S
C1291 C1293 1.388 . S
C1292 C1291 1.366 . S
C1292 C1296 1.385 . S
C1293 H1268 0.951 . S
C1293 C1291 1.388 . S
C1293 C1294 1.366 . S
C1294 C1293 1.366 . S
C1294 C1295 1.414 . S
C1294 C1297 1.499 . S
C1295 H1269 0.950 . S
C1295 C1294 1.414 . S
C1295 C1296 1.374 . S
C1296 H1270 0.950 . S
C1296 C1292 1.385 . S
C1296 C1295 1.374 . S
C1297 C1294 1.499 . S
C1297 C1298 1.373 . S
C1297 C1299 1.389 . S
C1298 H1271 0.950 . S
C1298 C1284 1.377 . S
C1298 C1297 1.373 . S
C1299 C1283 1.377 . S
C1299 C1297 1.389 . S
C1299 C1300 1.524 . S
C1300 C1299 1.524 . S
C1300 C1301 1.397 . S
C1300 C1305 1.363 . S
C1301 H1272 0.950 . S
C1301 C1300 1.397 . S
C1301 C1302 1.334 . S
C1302 H1273 0.950 . S
C1302 C1301 1.334 . S
C1302 C1303 1.287 . S
C1303 C1302 1.287 . S
C1303 C1304 1.524 . S
C1303 H1306 0.999 . S
C1304 H1274 0.950 . S
C1304 C1303 1.524 . S
C1304 C1305 1.415 . S
C1305 H1275 0.950 . S
C1305 C1300 1.363 . S
C1305 C1304 1.415 . S
H1306 C1303 0.999 . S
H1307 C1288 0.913 . S
H1308 C1326 0.951 . S
H1309 C1328 0.951 . S
H1310 C1330 0.950 . S
H1311 C1331 0.950 . S
H1312 C1333 0.950 . S
H1313 C1336 0.950 . S
H1314 C1337 0.950 . S
H1315 C1339 0.950 . S
H1316 C1340 0.950 . S
H1317 C1341 0.951 . S
H1318 C1343 0.951 . S
H1319 C1345 0.950 . S
H1320 C1346 0.950 . S
H1321 C1348 0.950 . S
H1322 C1351 0.950 . S
H1323 C1352 0.950 . S
H1324 C1354 0.950 . S
H1325 C1355 0.950 . S
C1326 H1308 0.951 . S
C1326 C1327 1.366 . S
C1326 C1328 1.388 . S
C1327 C1326 1.366 . S
C1327 C1331 1.385 . S
C1328 H1309 0.951 . S
C1328 C1326 1.388 . S
C1328 C1329 1.366 . S
C1329 C1328 1.366 . S
C1329 C1330 1.414 . S
C1329 C1332 1.499 . S
C1330 H1310 0.950 . S
C1330 C1329 1.414 . S
C1330 C1331 1.374 . S
C1331 H1311 0.950 . S
C1331 C1327 1.385 . S
C1331 C1330 1.374 . S
C1332 C1329 1.499 . S
C1332 C1333 1.373 . S
C1332 C1334 1.389 . S
C1333 H1312 0.950 . S
C1333 C1332 1.373 . S
C1333 C1349 1.377 . S
C1334 C1332 1.389 . S
C1334 C1335 1.524 . S
C1334 C1348 1.377 . S
C1335 C1334 1.524 . S
C1335 C1336 1.397 . S
C1335 C1340 1.363 . S
C1336 H1313 0.950 . S
C1336 C1335 1.397 . S
C1336 C1337 1.334 1_556 S
C1337 H1314 0.950 . S
C1337 C1336 1.334 1_554 S
C1337 C1338 1.287 . S
C1338 C1337 1.287 . S
C1338 C1339 1.524 . S
C1338 H1357 0.913 . S
C1339 H1315 0.950 . S
C1339 C1338 1.524 . S
C1339 C1340 1.415 1_554 S
C1340 H1316 0.950 . S
C1340 C1335 1.363 . S
C1340 C1339 1.415 1_556 S
C1341 H1317 0.951 . S
C1341 C1342 1.366 . S
C1341 C1343 1.388 . S
C1342 C1341 1.366 . S
C1342 C1346 1.385 . S
C1343 H1318 0.951 . S
C1343 C1341 1.388 . S
C1343 C1344 1.366 . S
C1344 C1343 1.366 . S
C1344 C1345 1.414 . S
C1344 C1347 1.499 . S
C1345 H1319 0.950 . S
C1345 C1344 1.414 . S
C1345 C1346 1.374 . S
C1346 H1320 0.950 . S
C1346 C1342 1.385 . S
C1346 C1345 1.374 . S
C1347 C1344 1.499 . S
C1347 C1348 1.373 . S
C1347 C1349 1.389 . S
C1348 H1321 0.950 . S
C1348 C1334 1.377 . S
C1348 C1347 1.373 . S
C1349 C1333 1.377 . S
C1349 C1347 1.389 . S
C1349 C1350 1.524 . S
C1350 C1349 1.524 . S
C1350 C1351 1.397 . S
C1350 C1355 1.363 . S
C1351 H1322 0.950 . S
C1351 C1350 1.397 . S
C1351 C1352 1.334 . S
C1352 H1323 0.950 . S
C1352 C1351 1.334 . S
C1352 C1353 1.287 . S
C1353 C1352 1.287 . S
C1353 C1354 1.524 . S
C1353 H1356 0.999 . S
C1354 H1324 0.950 . S
C1354 C1353 1.524 . S
C1354 C1355 1.415 . S
C1355 H1325 0.950 . S
C1355 C1350 1.363 . S
C1355 C1354 1.415 . S
H1356 C1353 0.999 . S
H1357 C1338 0.913 . S
H1358 C1376 0.951 . S
H1359 C1378 0.951 . S
H1360 C1380 0.950 . S
H1361 C1381 0.950 . S
H1362 C1383 0.950 . S
H1363 C1386 0.950 . S
H1364 C1387 0.950 . S
H1365 C1389 0.950 . S
H1366 C1390 0.950 . S
H1367 C1391 0.951 . S
H1368 C1393 0.951 . S
H1369 C1395 0.950 . S
H1370 C1396 0.950 . S
H1371 C1398 0.950 . S
H1372 C1401 0.950 . S
H1373 C1402 0.950 . S
H1374 C1404 0.950 . S
H1375 C1405 0.950 . S
C1376 H1358 0.951 . S
C1376 C1377 1.366 . S
C1376 C1378 1.388 . S
C1377 C1376 1.366 . S
C1377 C1381 1.385 . S
C1378 H1359 0.951 . S
C1378 C1376 1.388 . S
C1378 C1379 1.366 . S
C1379 C1378 1.366 . S
C1379 C1380 1.414 . S
C1379 C1382 1.499 . S
C1380 H1360 0.950 . S
C1380 C1379 1.414 . S
C1380 C1381 1.374 . S
C1381 H1361 0.950 . S
C1381 C1377 1.385 . S
C1381 C1380 1.374 . S
C1382 C1379 1.499 . S
C1382 C1383 1.373 . S
C1382 C1384 1.389 . S
C1383 H1362 0.950 . S
C1383 C1382 1.373 . S
C1383 C1399 1.377 . S
C1384 C1382 1.389 . S
C1384 C1385 1.524 . S
C1384 C1398 1.377 . S
C1385 C1384 1.524 . S
C1385 C1386 1.397 . S
C1385 C1390 1.363 . S
C1386 H1363 0.950 . S
C1386 C1385 1.397 . S
C1386 C1387 1.334 . S
C1387 H1364 0.950 . S
C1387 C1386 1.334 . S
C1387 C1388 1.287 . S
C1388 C1387 1.287 . S
C1388 C1389 1.524 . S
C1388 H1407 0.913 . S
C1389 H1365 0.950 . S
C1389 C1388 1.524 . S
C1389 C1390 1.415 . S
C1390 H1366 0.950 . S
C1390 C1385 1.363 . S
C1390 C1389 1.415 . S
C1391 H1367 0.951 . S
C1391 C1392 1.366 . S
C1391 C1393 1.388 . S
C1392 C1391 1.366 . S
C1392 C1396 1.385 . S
C1393 H1368 0.951 . S
C1393 C1391 1.388 . S
C1393 C1394 1.366 . S
C1394 C1393 1.366 . S
C1394 C1395 1.414 . S
C1394 C1397 1.499 . S
C1395 H1369 0.950 . S
C1395 C1394 1.414 . S
C1395 C1396 1.374 . S
C1396 H1370 0.950 . S
C1396 C1392 1.385 . S
C1396 C1395 1.374 . S
C1397 C1394 1.499 . S
C1397 C1398 1.373 . S
C1397 C1399 1.389 . S
C1398 H1371 0.950 . S
C1398 C1384 1.377 . S
C1398 C1397 1.373 . S
C1399 C1383 1.377 . S
C1399 C1397 1.389 . S
C1399 C1400 1.524 . S
C1400 C1399 1.524 . S
C1400 C1401 1.397 . S
C1400 C1405 1.363 . S
C1401 H1372 0.950 . S
C1401 C1400 1.397 . S
C1401 C1402 1.334 . S
C1402 H1373 0.950 . S
C1402 C1401 1.334 . S
C1402 C1403 1.287 . S
C1403 C1402 1.287 . S
C1403 C1404 1.524 . S
C1403 H1406 0.999 . S
C1404 H1374 0.950 . S
C1404 C1403 1.524 . S
C1404 C1405 1.415 . S
C1405 H1375 0.950 . S
C1405 C1400 1.363 . S
C1405 C1404 1.415 . S
H1406 C1403 0.999 . S
H1407 C1388 0.913 . S
H1408 C1426 0.951 . S
H1409 C1428 0.951 . S
H1410 C1430 0.950 . S
H1411 C1431 0.950 . S
H1412 C1433 0.950 . S
H1413 C1436 0.950 . S
H1414 C1437 0.950 . S
H1415 C1439 0.950 . S
H1416 C1440 0.950 . S
H1417 C1441 0.951 . S
H1418 C1443 0.951 . S
H1419 C1445 0.950 . S
H1420 C1446 0.950 . S
H1421 C1448 0.950 . S
H1422 C1451 0.950 . S
H1423 C1452 0.950 . S
H1424 C1454 0.950 . S
H1425 C1455 0.950 . S
C1426 H1408 0.951 . S
C1426 C1427 1.366 . S
C1426 C1428 1.388 . S
C1427 C1426 1.366 . S
C1427 C1431 1.385 . S
C1428 H1409 0.951 . S
C1428 C1426 1.388 . S
C1428 C1429 1.366 . S
C1429 C1428 1.366 . S
C1429 C1430 1.414 . S
C1429 C1432 1.499 . S
C1430 H1410 0.950 . S
C1430 C1429 1.414 . S
C1430 C1431 1.374 . S
C1431 H1411 0.950 . S
C1431 C1427 1.385 . S
C1431 C1430 1.374 . S
C1432 C1429 1.499 . S
C1432 C1433 1.373 . S
C1432 C1434 1.389 . S
C1433 H1412 0.950 . S
C1433 C1432 1.373 . S
C1433 C1449 1.377 . S
C1434 C1432 1.389 . S
C1434 C1435 1.524 . S
C1434 C1448 1.377 . S
C1435 C1434 1.524 . S
C1435 C1436 1.397 . S
C1435 C1440 1.363 . S
C1436 H1413 0.950 . S
C1436 C1435 1.397 . S
C1436 C1437 1.334 . S
C1437 H1414 0.950 . S
C1437 C1436 1.334 . S
C1437 C1438 1.287 . S
C1438 C1437 1.287 . S
C1438 C1439 1.524 . S
C1438 H1457 0.913 . S
C1439 H1415 0.950 . S
C1439 C1438 1.524 . S
C1439 C1440 1.415 . S
C1440 H1416 0.950 . S
C1440 C1435 1.363 . S
C1440 C1439 1.415 . S
C1441 H1417 0.951 . S
C1441 C1442 1.366 . S
C1441 C1443 1.388 . S
C1442 C1441 1.366 . S
C1442 C1446 1.385 . S
C1443 H1418 0.951 . S
C1443 C1441 1.388 . S
C1443 C1444 1.366 . S
C1444 C1443 1.366 . S
C1444 C1445 1.414 . S
C1444 C1447 1.499 . S
C1445 H1419 0.950 . S
C1445 C1444 1.414 . S
C1445 C1446 1.374 . S
C1446 H1420 0.950 . S
C1446 C1442 1.385 . S
C1446 C1445 1.374 . S
C1447 C1444 1.499 . S
C1447 C1448 1.373 . S
C1447 C1449 1.389 . S
C1448 H1421 0.950 . S
C1448 C1434 1.377 . S
C1448 C1447 1.373 . S
C1449 C1433 1.377 . S
C1449 C1447 1.389 . S
C1449 C1450 1.524 . S
C1450 C1449 1.524 . S
C1450 C1451 1.397 . S
C1450 C1455 1.363 . S
C1451 H1422 0.950 . S
C1451 C1450 1.397 . S
C1451 C1452 1.334 . S
C1452 H1423 0.950 . S
C1452 C1451 1.334 . S
C1452 C1453 1.287 . S
C1453 C1452 1.287 . S
C1453 C1454 1.524 . S
C1453 H1456 0.999 . S
C1454 H1424 0.950 . S
C1454 C1453 1.524 . S
C1454 C1455 1.415 . S
C1455 H1425 0.950 . S
C1455 C1450 1.363 . S
C1455 C1454 1.415 . S
H1456 C1453 0.999 . S
H1457 C1438 0.913 . S
H1458 C1476 0.951 . S
H1459 C1478 0.951 . S
H1460 C1480 0.950 . S
H1461 C1481 0.950 . S
H1462 C1483 0.950 . S
H1463 C1486 0.950 . S
H1464 C1487 0.950 . S
H1465 C1489 0.950 . S
H1466 C1490 0.950 1_655 S
H1467 C1491 0.951 . S
H1468 C1493 0.951 . S
H1469 C1495 0.950 . S
H1470 C1496 0.950 . S
H1471 C1498 0.950 . S
H1472 C1501 0.950 . S
H1473 C1502 0.950 . S
H1474 C1504 0.950 . S
H1475 C1505 0.950 . S
C1476 H1458 0.951 . S
C1476 C1477 1.366 . S
C1476 C1478 1.388 . S
C1477 C1476 1.366 . S
C1477 C1481 1.385 . S
C1478 H1459 0.951 . S
C1478 C1476 1.388 . S
C1478 C1479 1.366 . S
C1479 C1478 1.366 . S
C1479 C1480 1.414 . S
C1479 C1482 1.499 . S
C1480 H1460 0.950 . S
C1480 C1479 1.414 . S
C1480 C1481 1.374 . S
C1481 H1461 0.950 . S
C1481 C1477 1.385 . S
C1481 C1480 1.374 . S
C1482 C1479 1.499 . S
C1482 C1483 1.373 . S
C1482 C1484 1.389 . S
C1483 H1462 0.950 . S
C1483 C1482 1.373 . S
C1483 C1499 1.377 . S
C1484 C1482 1.389 . S
C1484 C1485 1.524 . S
C1484 C1498 1.377 . S
C1485 C1484 1.524 . S
C1485 C1486 1.397 . S
C1485 C1490 1.363 . S
C1486 H1463 0.950 . S
C1486 C1485 1.397 . S
C1486 C1487 1.334 . S
C1487 H1464 0.950 . S
C1487 C1486 1.334 . S
C1487 C1488 1.287 . S
C1488 C1487 1.287 . S
C1488 C1489 1.524 1_455 S
C1488 H1507 0.913 . S
C1489 H1465 0.950 . S
C1489 C1488 1.524 1_655 S
C1489 C1490 1.415 1_655 S
C1490 H1466 0.950 1_455 S
C1490 C1485 1.363 . S
C1490 C1489 1.415 1_455 S
C1491 H1467 0.951 . S
C1491 C1492 1.366 . S
C1491 C1493 1.388 . S
C1492 C1491 1.366 . S
C1492 C1496 1.385 1_455 S
C1493 H1468 0.951 . S
C1493 C1491 1.388 . S
C1493 C1494 1.366 . S
C1494 C1493 1.366 . S
C1494 C1495 1.414 1_455 S
C1494 C1497 1.499 . S
C1495 H1469 0.950 . S
C1495 C1494 1.414 1_655 S
C1495 C1496 1.374 . S
C1496 H1470 0.950 . S
C1496 C1492 1.385 1_655 S
C1496 C1495 1.374 . S
C1497 C1494 1.499 . S
C1497 C1498 1.373 . S
C1497 C1499 1.389 . S
C1498 H1471 0.950 . S
C1498 C1484 1.377 . S
C1498 C1497 1.373 . S
C1499 C1483 1.377 . S
C1499 C1497 1.389 . S
C1499 C1500 1.524 . S
C1500 C1499 1.524 . S
C1500 C1501 1.397 . S
C1500 C1505 1.363 . S
C1501 H1472 0.950 . S
C1501 C1500 1.397 . S
C1501 C1502 1.334 . S
C1502 H1473 0.950 . S
C1502 C1501 1.334 . S
C1502 C1503 1.287 . S
C1503 C1502 1.287 . S
C1503 C1504 1.524 . S
C1503 H1506 0.999 . S
C1504 H1474 0.950 . S
C1504 C1503 1.524 . S
C1504 C1505 1.415 . S
C1505 H1475 0.950 . S
C1505 C1500 1.363 . S
C1505 C1504 1.415 . S
H1506 C1503 0.999 . S
H1507 C1488 0.913 . S
H1508 C1526 0.951 . S
H1509 C1528 0.951 . S
H1510 C1530 0.955 . S
H1511 C1531 0.950 . S
H1512 C1533 0.950 1_455 S
H1513 C1536 0.950 . S
H1514 C1537 0.950 . S
H1515 C1539 0.950 . S
H1516 C1540 0.950 . S
H1517 C1541 0.951 . S
H1518 C1543 0.951 . S
H1519 C1545 0.950 . S
H1520 C1546 0.950 . S
H1521 C1548 0.950 . S
H1522 C1551 0.950 . S
H1523 C1552 0.950 . S
H1524 C1554 0.950 . S
H1525 C1555 0.950 . S
C1526 H1508 0.951 . S
C1526 C1527 1.356 1_655 S
C1526 C1528 1.388 . S
C1527 C1526 1.356 1_455 S
C1527 C1531 1.390 . S
C1528 H1509 0.951 . S
C1528 C1526 1.388 . S
C1528 C1529 1.366 . S
C1529 C1528 1.366 . S
C1529 C1530 1.405 1_655 S
C1529 C1532 1.499 . S
C1530 H1510 0.955 . S
C1530 C1529 1.405 1_455 S
C1530 C1531 1.378 . S
C1531 H1511 0.950 . S
C1531 C1527 1.390 . S
C1531 C1530 1.378 . S
C1532 C1529 1.499 . S
C1532 C1533 1.373 . S
C1532 C1534 1.389 . S
C1533 H1512 0.950 1_655 S
C1533 C1532 1.373 . S
C1533 C1549 1.377 . S
C1534 C1532 1.389 . S
C1534 C1535 1.524 . S
C1534 C1548 1.377 . S
C1535 C1534 1.524 . S
C1535 C1536 1.397 . S
C1535 C1540 1.363 . S
C1536 H1513 0.950 . S
C1536 C1535 1.397 . S
C1536 C1537 1.334 . S
C1537 H1514 0.950 . S
C1537 C1536 1.334 . S
C1537 C1538 1.287 . S
C1538 C1537 1.287 . S
C1538 C1539 1.524 . S
C1538 H1557 0.913 . S
C1539 H1515 0.950 . S
C1539 C1538 1.524 . S
C1539 C1540 1.415 . S
C1540 H1516 0.950 . S
C1540 C1535 1.363 . S
C1540 C1539 1.415 . S
C1541 H1517 0.951 . S
C1541 C1542 1.366 . S
C1541 C1543 1.388 . S
C1542 C1541 1.366 . S
C1542 C1546 1.385 . S
C1543 H1518 0.951 . S
C1543 C1541 1.388 . S
C1543 C1544 1.366 . S
C1544 C1543 1.366 . S
C1544 C1545 1.414 . S
C1544 C1547 1.499 . S
C1545 H1519 0.950 . S
C1545 C1544 1.414 . S
C1545 C1546 1.374 . S
C1546 H1520 0.950 . S
C1546 C1542 1.385 . S
C1546 C1545 1.374 . S
C1547 C1544 1.499 . S
C1547 C1548 1.373 . S
C1547 C1549 1.389 . S
C1548 H1521 0.950 . S
C1548 C1534 1.377 . S
C1548 C1547 1.373 . S
C1549 C1533 1.377 . S
C1549 C1547 1.389 . S
C1549 C1550 1.524 . S
C1550 C1549 1.524 . S
C1550 C1551 1.397 . S
C1550 C1555 1.363 1_655 S
C1551 H1522 0.950 . S
C1551 C1550 1.397 . S
C1551 C1552 1.334 1_655 S
C1552 H1523 0.950 . S
C1552 C1551 1.334 1_455 S
C1552 C1553 1.287 . S
C1553 C1552 1.287 . S
C1553 C1554 1.524 . S
C1553 H1556 0.999 . S
C1554 H1524 0.950 . S
C1554 C1553 1.524 . S
C1554 C1555 1.415 . S
C1555 H1525 0.950 . S
C1555 C1550 1.363 1_455 S
C1555 C1554 1.415 . S
H1556 C1553 0.999 . S
H1557 C1538 0.913 . S
H1558 C1576 0.951 . S
H1559 C1578 0.951 . S
H1560 C1580 0.950 . S
H1561 C1581 0.950 . S
H1562 C1583 0.950 . S
H1563 C1586 0.950 . S
H1564 C1587 0.950 . S
H1565 C1589 0.950 . S
H1566 C1590 0.950 . S
H1567 C1591 0.951 . S
H1568 C1593 0.951 . S
H1569 C1595 0.950 . S
H1570 C1596 0.950 . S
H1571 C1598 0.950 . S
H1572 C1601 0.950 . S
H1573 C1602 0.950 . S
H1574 C1604 0.950 . S
H1575 C1605 0.950 . S
C1576 H1558 0.951 . S
C1576 C1577 1.366 . S
C1576 C1578 1.388 . S
C1577 C1576 1.366 . S
C1577 C1581 1.385 . S
C1578 H1559 0.951 . S
C1578 C1576 1.388 . S
C1578 C1579 1.366 . S
C1579 C1578 1.366 . S
C1579 C1580 1.414 . S
C1579 C1582 1.499 . S
C1580 H1560 0.950 . S
C1580 C1579 1.414 . S
C1580 C1581 1.374 . S
C1581 H1561 0.950 . S
C1581 C1577 1.385 . S
C1581 C1580 1.374 . S
C1582 C1579 1.499 . S
C1582 C1583 1.373 . S
C1582 C1584 1.389 . S
C1583 H1562 0.950 . S
C1583 C1582 1.373 . S
C1583 C1599 1.377 . S
C1584 C1582 1.389 . S
C1584 C1585 1.524 . S
C1584 C1598 1.377 . S
C1585 C1584 1.524 . S
C1585 C1586 1.397 . S
C1585 C1590 1.363 . S
C1586 H1563 0.950 . S
C1586 C1585 1.397 . S
C1586 C1587 1.334 . S
C1587 H1564 0.950 . S
C1587 C1586 1.334 . S
C1587 C1588 1.287 . S
C1588 C1587 1.287 . S
C1588 C1589 1.524 . S
C1588 H1607 0.913 . S
C1589 H1565 0.950 . S
C1589 C1588 1.524 . S
C1589 C1590 1.415 . S
C1590 H1566 0.950 . S
C1590 C1585 1.363 . S
C1590 C1589 1.415 . S
C1591 H1567 0.951 . S
C1591 C1592 1.366 . S
C1591 C1593 1.388 . S
C1592 C1591 1.366 . S
C1592 C1596 1.385 . S
C1593 H1568 0.951 . S
C1593 C1591 1.388 . S
C1593 C1594 1.366 . S
C1594 C1593 1.366 . S
C1594 C1595 1.414 . S
C1594 C1597 1.499 . S
C1595 H1569 0.950 . S
C1595 C1594 1.414 . S
C1595 C1596 1.374 . S
C1596 H1570 0.950 . S
C1596 C1592 1.385 . S
C1596 C1595 1.374 . S
C1597 C1594 1.499 . S
C1597 C1598 1.373 . S
C1597 C1599 1.389 . S
C1598 H1571 0.950 . S
C1598 C1584 1.377 . S
C1598 C1597 1.373 . S
C1599 C1583 1.377 . S
C1599 C1597 1.389 . S
C1599 C1600 1.524 . S
C1600 C1599 1.524 . S
C1600 C1601 1.397 . S
C1600 C1605 1.363 . S
C1601 H1572 0.950 . S
C1601 C1600 1.397 . S
C1601 C1602 1.334 . S
C1602 H1573 0.950 . S
C1602 C1601 1.334 . S
C1602 C1603 1.287 . S
C1603 C1602 1.287 . S
C1603 C1604 1.524 . S
C1603 H1606 0.999 . S
C1604 H1574 0.950 . S
C1604 C1603 1.524 . S
C1604 C1605 1.415 . S
C1605 H1575 0.950 . S
C1605 C1600 1.363 . S
C1605 C1604 1.415 . S
H1606 C1603 0.999 . S
H1607 C1588 0.913 . S
H1608 C1626 0.951 . S
H1609 C1628 0.951 . S
H1610 C1630 0.950 . S
H1611 C1631 0.950 . S
H1612 C1633 0.950 . S
H1613 C1636 0.950 . S
H1614 C1637 0.950 . S
H1615 C1639 0.950 . S
H1616 C1640 0.950 . S
H1617 C1641 0.951 . S
H1618 C1643 0.951 . S
H1619 C1645 0.950 . S
H1620 C1646 0.950 . S
H1621 C1648 0.950 . S
H1622 C1651 0.950 . S
H1623 C1652 0.950 . S
H1624 C1654 0.950 . S
H1625 C1655 0.950 . S
C1626 H1608 0.951 . S
C1626 C1627 1.366 . S
C1626 C1628 1.388 . S
C1627 C1626 1.366 . S
C1627 C1631 1.385 . S
C1628 H1609 0.951 . S
C1628 C1626 1.388 . S
C1628 C1629 1.366 . S
C1629 C1628 1.366 . S
C1629 C1630 1.414 . S
C1629 C1632 1.499 . S
C1630 H1610 0.950 . S
C1630 C1629 1.414 . S
C1630 C1631 1.374 . S
C1631 H1611 0.950 . S
C1631 C1627 1.385 . S
C1631 C1630 1.374 . S
C1632 C1629 1.499 . S
C1632 C1633 1.373 . S
C1632 C1634 1.389 . S
C1633 H1612 0.950 . S
C1633 C1632 1.373 . S
C1633 C1649 1.377 . S
C1634 C1632 1.389 . S
C1634 C1635 1.524 . S
C1634 C1648 1.377 . S
C1635 C1634 1.524 . S
C1635 C1636 1.397 . S
C1635 C1640 1.363 . S
C1636 H1613 0.950 . S
C1636 C1635 1.397 . S
C1636 C1637 1.334 . S
C1637 H1614 0.950 . S
C1637 C1636 1.334 . S
C1637 C1638 1.287 . S
C1638 C1637 1.287 . S
C1638 C1639 1.524 . S
C1638 H1657 0.913 . S
C1639 H1615 0.950 . S
C1639 C1638 1.524 . S
C1639 C1640 1.415 . S
C1640 H1616 0.950 . S
C1640 C1635 1.363 . S
C1640 C1639 1.415 . S
C1641 H1617 0.951 . S
C1641 C1642 1.366 . S
C1641 C1643 1.388 . S
C1642 C1641 1.366 . S
C1642 C1646 1.385 . S
C1643 H1618 0.951 . S
C1643 C1641 1.388 . S
C1643 C1644 1.366 . S
C1644 C1643 1.366 . S
C1644 C1645 1.414 . S
C1644 C1647 1.499 . S
C1645 H1619 0.950 . S
C1645 C1644 1.414 . S
C1645 C1646 1.374 . S
C1646 H1620 0.950 . S
C1646 C1642 1.385 . S
C1646 C1645 1.374 . S
C1647 C1644 1.499 . S
C1647 C1648 1.373 . S
C1647 C1649 1.389 . S
C1648 H1621 0.950 . S
C1648 C1634 1.377 . S
C1648 C1647 1.373 . S
C1649 C1633 1.377 . S
C1649 C1647 1.389 . S
C1649 C1650 1.524 . S
C1650 C1649 1.524 . S
C1650 C1651 1.397 . S
C1650 C1655 1.363 . S
C1651 H1622 0.950 . S
C1651 C1650 1.397 . S
C1651 C1652 1.334 . S
C1652 H1623 0.950 . S
C1652 C1651 1.334 . S
C1652 C1653 1.287 . S
C1653 C1652 1.287 . S
C1653 C1654 1.524 . S
C1653 H1656 0.999 . S
C1654 H1624 0.950 . S
C1654 C1653 1.524 . S
C1654 C1655 1.415 . S
C1655 H1625 0.950 . S
C1655 C1650 1.363 . S
C1655 C1654 1.415 . S
H1656 C1653 0.999 . S
H1657 C1638 0.913 . S
H1658 C1676 0.951 . S
H1659 C1678 0.951 . S
H1660 C1680 0.950 . S
H1661 C1681 0.950 . S
H1662 C1683 0.950 . S
H1663 C1686 0.950 . S
H1664 C1687 0.950 . S
H1665 C1689 0.950 . S
H1666 C1690 0.950 . S
H1667 C1691 0.951 . S
H1668 C1693 0.951 . S
H1669 C1695 0.950 . S
H1670 C1696 0.950 . S
H1671 C1698 0.950 . S
H1672 C1701 0.950 . S
H1673 C1702 0.950 . S
H1674 C1704 0.950 . S
H1675 C1705 0.950 . S
C1676 H1658 0.951 . S
C1676 C1677 1.366 . S
C1676 C1678 1.388 . S
C1677 C1676 1.366 . S
C1677 C1681 1.385 . S
C1678 H1659 0.951 . S
C1678 C1676 1.388 . S
C1678 C1679 1.366 . S
C1679 C1678 1.366 . S
C1679 C1680 1.414 . S
C1679 C1682 1.499 . S
C1680 H1660 0.950 . S
C1680 C1679 1.414 . S
C1680 C1681 1.374 . S
C1681 H1661 0.950 . S
C1681 C1677 1.385 . S
C1681 C1680 1.374 . S
C1682 C1679 1.499 . S
C1682 C1683 1.373 . S
C1682 C1684 1.389 . S
C1683 H1662 0.950 . S
C1683 C1682 1.373 . S
C1683 C1699 1.377 . S
C1684 C1682 1.389 . S
C1684 C1685 1.524 . S
C1684 C1698 1.377 . S
C1685 C1684 1.524 . S
C1685 C1686 1.397 . S
C1685 C1690 1.363 . S
C1686 H1663 0.950 . S
C1686 C1685 1.397 . S
C1686 C1687 1.334 . S
C1687 H1664 0.950 . S
C1687 C1686 1.334 . S
C1687 C1688 1.287 . S
C1688 C1687 1.287 . S
C1688 C1689 1.524 . S
C1688 H1707 0.913 . S
C1689 H1665 0.950 . S
C1689 C1688 1.524 . S
C1689 C1690 1.415 . S
C1690 H1666 0.950 . S
C1690 C1685 1.363 . S
C1690 C1689 1.415 . S
C1691 H1667 0.951 . S
C1691 C1692 1.366 . S
C1691 C1693 1.388 . S
C1692 C1691 1.366 . S
C1692 C1696 1.385 . S
C1693 H1668 0.951 . S
C1693 C1691 1.388 . S
C1693 C1694 1.366 . S
C1694 C1693 1.366 . S
C1694 C1695 1.414 . S
C1694 C1697 1.499 . S
C1695 H1669 0.950 . S
C1695 C1694 1.414 . S
C1695 C1696 1.374 . S
C1696 H1670 0.950 . S
C1696 C1692 1.385 . S
C1696 C1695 1.374 . S
C1697 C1694 1.499 . S
C1697 C1698 1.373 . S
C1697 C1699 1.389 . S
C1698 H1671 0.950 . S
C1698 C1684 1.377 . S
C1698 C1697 1.373 . S
C1699 C1683 1.377 . S
C1699 C1697 1.389 . S
C1699 C1700 1.524 . S
C1700 C1699 1.524 . S
C1700 C1701 1.397 . S
C1700 C1705 1.363 . S
C1701 H1672 0.950 . S
C1701 C1700 1.397 . S
C1701 C1702 1.334 . S
C1702 H1673 0.950 . S
C1702 C1701 1.334 . S
C1702 C1703 1.287 . S
C1703 C1702 1.287 . S
C1703 C1704 1.524 . S
C1703 H1706 0.999 . S
C1704 H1674 0.950 . S
C1704 C1703 1.524 . S
C1704 C1705 1.415 . S
C1705 H1675 0.950 . S
C1705 C1700 1.363 . S
C1705 C1704 1.415 . S
H1706 C1703 0.999 . S
H1707 C1688 0.913 . S
H1708 C1726 0.951 . S
H1709 C1728 0.951 . S
H1710 C1730 0.950 . S
H1711 C1731 0.950 . S
H1712 C1733 0.950 . S
H1713 C1736 0.950 . S
H1714 C1737 0.950 . S
H1715 C1739 0.950 . S
H1716 C1740 0.950 . S
H1717 C1741 0.951 . S
H1718 C1743 0.951 . S
H1719 C1745 0.950 . S
H1720 C1746 0.950 . S
H1721 C1748 0.950 . S
H1722 C1751 0.950 . S
H1723 C1752 0.950 . S
H1724 C1754 0.950 . S
H1725 C1755 0.950 . S
C1726 H1708 0.951 . S
C1726 C1727 1.366 . S
C1726 C1728 1.388 . S
C1727 C1726 1.366 . S
C1727 C1731 1.385 . S
C1728 H1709 0.951 . S
C1728 C1726 1.388 . S
C1728 C1729 1.366 . S
C1729 C1728 1.366 . S
C1729 C1730 1.414 . S
C1729 C1732 1.499 . S
C1730 H1710 0.950 . S
C1730 C1729 1.414 . S
C1730 C1731 1.374 . S
C1731 H1711 0.950 . S
C1731 C1727 1.385 . S
C1731 C1730 1.374 . S
C1732 C1729 1.499 . S
C1732 C1733 1.373 . S
C1732 C1734 1.389 . S
C1733 H1712 0.950 . S
C1733 C1732 1.373 . S
C1733 C1749 1.377 . S
C1734 C1732 1.389 . S
C1734 C1735 1.524 . S
C1734 C1748 1.377 . S
C1735 C1734 1.524 . S
C1735 C1736 1.397 . S
C1735 C1740 1.363 . S
C1736 H1713 0.950 . S
C1736 C1735 1.397 . S
C1736 C1737 1.334 . S
C1737 H1714 0.950 . S
C1737 C1736 1.334 . S
C1737 C1738 1.287 . S
C1738 C1737 1.287 . S
C1738 C1739 1.524 . S
C1738 H1757 0.913 . S
C1739 H1715 0.950 . S
C1739 C1738 1.524 . S
C1739 C1740 1.415 . S
C1740 H1716 0.950 . S
C1740 C1735 1.363 . S
C1740 C1739 1.415 . S
C1741 H1717 0.951 . S
C1741 C1742 1.366 . S
C1741 C1743 1.388 . S
C1742 C1741 1.366 . S
C1742 C1746 1.385 . S
C1743 H1718 0.951 . S
C1743 C1741 1.388 . S
C1743 C1744 1.366 . S
C1744 C1743 1.366 . S
C1744 C1745 1.414 . S
C1744 C1747 1.499 . S
C1745 H1719 0.950 . S
C1745 C1744 1.414 . S
C1745 C1746 1.374 . S
C1746 H1720 0.950 . S
C1746 C1742 1.385 . S
C1746 C1745 1.374 . S
C1747 C1744 1.499 . S
C1747 C1748 1.373 . S
C1747 C1749 1.389 . S
C1748 H1721 0.950 . S
C1748 C1734 1.377 . S
C1748 C1747 1.373 . S
C1749 C1733 1.377 . S
C1749 C1747 1.389 . S
C1749 C1750 1.524 . S
C1750 C1749 1.524 . S
C1750 C1751 1.397 . S
C1750 C1755 1.363 . S
C1751 H1722 0.950 . S
C1751 C1750 1.397 . S
C1751 C1752 1.334 . S
C1752 H1723 0.950 . S
C1752 C1751 1.334 . S
C1752 C1753 1.287 . S
C1753 C1752 1.287 . S
C1753 C1754 1.524 . S
C1753 H1756 0.999 . S
C1754 H1724 0.950 . S
C1754 C1753 1.524 . S
C1754 C1755 1.415 . S
C1755 H1725 0.950 . S
C1755 C1750 1.363 . S
C1755 C1754 1.415 . S
H1756 C1753 0.999 . S
H1757 C1738 0.913 . S
H1758 C1776 0.951 . S
H1759 C1778 0.951 . S
H1760 C1780 0.950 . S
H1761 C1781 0.950 . S
H1762 C1783 0.950 . S
H1763 C1786 0.950 . S
H1764 C1787 0.950 . S
H1765 C1789 0.950 . S
H1766 C1790 0.950 . S
H1767 C1791 0.951 . S
H1768 C1793 0.951 . S
H1769 C1795 0.950 . S
H1770 C1796 0.950 . S
H1771 C1798 0.950 . S
H1772 C1801 0.950 . S
H1773 C1802 0.934 1_565 S
H1774 C1804 0.950 . S
H1775 C1805 0.950 . S
C1776 H1758 0.951 . S
C1776 C1777 1.366 . S
C1776 C1778 1.388 . S
C1777 C1776 1.366 . S
C1777 C1781 1.385 . S
C1778 H1759 0.951 . S
C1778 C1776 1.388 . S
C1778 C1779 1.366 . S
C1779 C1778 1.366 . S
C1779 C1780 1.414 . S
C1779 C1782 1.499 . S
C1780 H1760 0.950 . S
C1780 C1779 1.414 . S
C1780 C1781 1.374 . S
C1781 H1761 0.950 . S
C1781 C1777 1.385 . S
C1781 C1780 1.374 . S
C1782 C1779 1.499 . S
C1782 C1783 1.373 . S
C1782 C1784 1.389 . S
C1783 H1762 0.950 . S
C1783 C1782 1.373 . S
C1783 C1799 1.377 . S
C1784 C1782 1.389 . S
C1784 C1785 1.524 . S
C1784 C1798 1.377 . S
C1785 C1784 1.524 . S
C1785 C1786 1.397 . S
C1785 C1790 1.363 . S
C1786 H1763 0.950 . S
C1786 C1785 1.397 . S
C1786 C1787 1.334 . S
C1787 H1764 0.950 . S
C1787 C1786 1.334 . S
C1787 C1788 1.287 . S
C1788 C1787 1.287 . S
C1788 C1789 1.524 . S
C1788 H1807 0.913 . S
C1789 H1765 0.950 . S
C1789 C1788 1.524 . S
C1789 C1790 1.415 . S
C1790 H1766 0.950 . S
C1790 C1785 1.363 . S
C1790 C1789 1.415 . S
C1791 H1767 0.951 . S
C1791 C1792 1.366 . S
C1791 C1793 1.388 . S
C1792 C1791 1.366 . S
C1792 C1796 1.385 . S
C1793 H1768 0.951 . S
C1793 C1791 1.388 . S
C1793 C1794 1.366 . S
C1794 C1793 1.366 . S
C1794 C1795 1.414 . S
C1794 C1797 1.499 1_556 S
C1795 H1769 0.950 . S
C1795 C1794 1.414 . S
C1795 C1796 1.374 . S
C1796 H1770 0.950 . S
C1796 C1792 1.385 . S
C1796 C1795 1.374 . S
C1797 C1794 1.499 1_554 S
C1797 C1798 1.373 . S
C1797 C1799 1.389 . S
C1798 H1771 0.950 . S
C1798 C1784 1.377 . S
C1798 C1797 1.373 . S
C1799 C1783 1.377 . S
C1799 C1797 1.389 . S
C1799 C1800 1.524 1_554 S
C1800 C1799 1.524 1_556 S
C1800 C1801 1.397 . S
C1800 C1805 1.363 . S
C1801 H1772 0.950 . S
C1801 C1800 1.397 . S
C1801 C1802 1.345 . S
C1802 H1773 0.934 1_545 S
C1802 C1801 1.345 . S
C1802 C1803 1.293 . S
C1803 C1802 1.293 . S
C1803 C1804 1.524 . S
C1803 H1806 0.985 1_545 S
C1804 H1774 0.950 . S
C1804 C1803 1.524 . S
C1804 C1805 1.415 . S
C1805 H1775 0.950 . S
C1805 C1800 1.363 . S
C1805 C1804 1.415 . S
H1806 C1803 0.985 1_565 S
H1807 C1788 0.913 . S
H1808 C1826 0.951 . S
H1809 C1828 0.951 . S
H1810 C1830 0.950 . S
H1811 C1831 0.950 . S
H1812 C1833 0.950 . S
H1813 C1836 0.950 . S
H1814 C1837 0.950 . S
H1815 C1839 0.950 . S
H1816 C1840 0.950 . S
H1817 C1841 0.951 . S
H1818 C1843 0.951 . S
H1819 C1845 0.950 . S
H1820 C1846 0.950 . S
H1821 C1848 0.950 . S
H1822 C1851 0.950 . S
H1823 C1852 0.950 . S
H1824 C1854 0.950 . S
H1825 C1855 0.950 . S
C1826 H1808 0.951 . S
C1826 C1827 1.366 . S
C1826 C1828 1.388 . S
C1827 C1826 1.366 . S
C1827 C1831 1.385 . S
C1828 H1809 0.951 . S
C1828 C1826 1.388 . S
C1828 C1829 1.366 . S
C1829 C1828 1.366 . S
C1829 C1830 1.414 . S
C1829 C1832 1.499 . S
C1830 H1810 0.950 . S
C1830 C1829 1.414 . S
C1830 C1831 1.374 . S
C1831 H1811 0.950 . S
C1831 C1827 1.385 . S
C1831 C1830 1.374 . S
C1832 C1829 1.499 . S
C1832 C1833 1.373 . S
C1832 C1834 1.389 . S
C1833 H1812 0.950 . S
C1833 C1832 1.373 . S
C1833 C1849 1.377 . S
C1834 C1832 1.389 . S
C1834 C1835 1.524 . S
C1834 C1848 1.377 . S
C1835 C1834 1.524 . S
C1835 C1836 1.397 . S
C1835 C1840 1.363 . S
C1836 H1813 0.950 . S
C1836 C1835 1.397 . S
C1836 C1837 1.334 . S
C1837 H1814 0.950 . S
C1837 C1836 1.334 . S
C1837 C1838 1.287 . S
C1838 C1837 1.287 . S
C1838 C1839 1.524 . S
C1838 H1857 0.913 . S
C1839 H1815 0.950 . S
C1839 C1838 1.524 . S
C1839 C1840 1.415 . S
C1840 H1816 0.950 . S
C1840 C1835 1.363 . S
C1840 C1839 1.415 . S
C1841 H1817 0.951 . S
C1841 C1842 1.366 . S
C1841 C1843 1.388 . S
C1842 C1841 1.366 . S
C1842 C1846 1.385 . S
C1843 H1818 0.951 . S
C1843 C1841 1.388 . S
C1843 C1844 1.366 . S
C1844 C1843 1.366 . S
C1844 C1845 1.414 . S
C1844 C1847 1.499 . S
C1845 H1819 0.950 . S
C1845 C1844 1.414 . S
C1845 C1846 1.374 . S
C1846 H1820 0.950 . S
C1846 C1842 1.385 . S
C1846 C1845 1.374 . S
C1847 C1844 1.499 . S
C1847 C1848 1.373 . S
C1847 C1849 1.389 . S
C1848 H1821 0.950 . S
C1848 C1834 1.377 . S
C1848 C1847 1.373 . S
C1849 C1833 1.377 . S
C1849 C1847 1.389 . S
C1849 C1850 1.524 . S
C1850 C1849 1.524 . S
C1850 C1851 1.397 . S
C1850 C1855 1.363 . S
C1851 H1822 0.950 . S
C1851 C1850 1.397 . S
C1851 C1852 1.334 . S
C1852 H1823 0.950 . S
C1852 C1851 1.334 . S
C1852 C1853 1.287 . S
C1853 C1852 1.287 . S
C1853 C1854 1.524 . S
C1853 H1856 0.999 . S
C1854 H1824 0.950 . S
C1854 C1853 1.524 . S
C1854 C1855 1.415 . S
C1855 H1825 0.950 . S
C1855 C1850 1.363 . S
C1855 C1854 1.415 . S
H1856 C1853 0.999 . S
H1857 C1838 0.913 . S
H1858 C1876 0.951 . S
H1859 C1878 0.951 . S
H1860 C1880 0.950 . S
H1861 C1881 0.950 . S
H1862 C1883 0.950 1_554 S
H1863 C1886 0.950 . S
H1864 C1887 0.950 . S
H1865 C1889 0.950 . S
H1866 C1890 0.950 . S
H1867 C1891 0.951 . S
H1868 C1893 0.951 . S
H1869 C1895 0.950 . S
H1870 C1896 0.950 . S
H1871 C1898 0.950 . S
H1872 C1901 0.950 . S
H1873 C1902 0.950 . S
H1874 C1904 0.950 . S
H1875 C1905 0.950 . S
C1876 H1858 0.951 . S
C1876 C1877 1.366 . S
C1876 C1878 1.388 . S
C1877 C1876 1.366 . S
C1877 C1881 1.385 . S
C1878 H1859 0.951 . S
C1878 C1876 1.388 . S
C1878 C1879 1.366 . S
C1879 C1878 1.366 . S
C1879 C1880 1.414 . S
C1879 C1882 1.456 1_554 S
C1880 H1860 0.950 . S
C1880 C1879 1.414 . S
C1880 C1881 1.374 . S
C1881 H1861 0.950 . S
C1881 C1877 1.385 . S
C1881 C1880 1.374 . S
C1882 C1879 1.456 1_556 S
C1882 C1883 1.386 . S
C1882 C1884 1.423 . S
C1883 H1862 0.950 1_556 S
C1883 C1882 1.386 . S
C1883 C1899 1.377 . S
C1884 C1882 1.423 . S
C1884 C1885 1.524 . S
C1884 C1898 1.377 . S
C1885 C1884 1.524 . S
C1885 C1886 1.397 1_556 S
C1885 C1890 1.363 . S
C1886 H1863 0.950 . S
C1886 C1885 1.397 1_554 S
C1886 C1887 1.334 . S
C1887 H1864 0.950 . S
C1887 C1886 1.334 . S
C1887 C1888 1.287 1_554 S
C1888 C1887 1.287 1_556 S
C1888 C1889 1.524 . S
C1888 H1907 0.913 1_556 S
C1889 H1865 0.950 . S
C1889 C1888 1.524 . S
C1889 C1890 1.415 . S
C1890 H1866 0.950 . S
C1890 C1885 1.363 . S
C1890 C1889 1.415 . S
C1891 H1867 0.951 . S
C1891 C1892 1.366 . S
C1891 C1893 1.388 . S
C1892 C1891 1.366 . S
C1892 C1896 1.385 . S
C1893 H1868 0.951 . S
C1893 C1891 1.388 . S
C1893 C1894 1.366 . S
C1894 C1893 1.366 . S
C1894 C1895 1.414 . S
C1894 C1897 1.499 . S
C1895 H1869 0.950 . S
C1895 C1894 1.414 . S
C1895 C1896 1.374 . S
C1896 H1870 0.950 . S
C1896 C1892 1.385 . S
C1896 C1895 1.374 . S
C1897 C1894 1.499 . S
C1897 C1898 1.373 . S
C1897 C1899 1.389 . S
C1898 H1871 0.950 . S
C1898 C1884 1.377 . S
C1898 C1897 1.373 . S
C1899 C1883 1.377 . S
C1899 C1897 1.389 . S
C1899 C1900 1.524 . S
C1900 C1899 1.524 . S
C1900 C1901 1.397 . S
C1900 C1905 1.363 . S
C1901 H1872 0.950 . S
C1901 C1900 1.397 . S
C1901 C1902 1.334 . S
C1902 H1873 0.950 . S
C1902 C1901 1.334 . S
C1902 C1903 1.287 . S
C1903 C1902 1.287 . S
C1903 C1904 1.524 . S
C1903 H1906 0.999 . S
C1904 H1874 0.950 . S
C1904 C1903 1.524 . S
C1904 C1905 1.415 . S
C1905 H1875 0.950 . S
C1905 C1900 1.363 . S
C1905 C1904 1.415 . S
H1906 C1903 0.999 . S
H1907 C1888 0.913 1_554 S
H1908 C1926 0.951 . S
H1909 C1928 0.951 . S
H1910 C1930 0.950 . S
H1911 C1931 0.950 . S
H1912 C1933 0.950 . S
H1913 C1936 0.950 . S
H1914 C1937 0.950 . S
H1915 C1939 0.950 . S
H1916 C1940 0.950 . S
H1917 C1941 0.951 . S
H1918 C1943 0.951 . S
H1919 C1945 0.950 . S
H1920 C1946 0.950 . S
H1921 C1948 0.950 . S
H1922 C1951 0.950 . S
H1923 C1952 0.950 . S
H1924 C1954 0.950 . S
H1925 C1955 0.950 . S
C1926 H1908 0.951 . S
C1926 C1927 1.366 . S
C1926 C1928 1.388 . S
C1927 C1926 1.366 . S
C1927 C1931 1.385 . S
C1928 H1909 0.951 . S
C1928 C1926 1.388 . S
C1928 C1929 1.366 . S
C1929 C1928 1.366 . S
C1929 C1930 1.414 . S
C1929 C1932 1.499 . S
C1930 H1910 0.950 . S
C1930 C1929 1.414 . S
C1930 C1931 1.374 . S
C1931 H1911 0.950 . S
C1931 C1927 1.385 . S
C1931 C1930 1.374 . S
C1932 C1929 1.499 . S
C1932 C1933 1.373 . S
C1932 C1934 1.389 . S
C1933 H1912 0.950 . S
C1933 C1932 1.373 . S
C1933 C1949 1.377 . S
C1934 C1932 1.389 . S
C1934 C1935 1.524 . S
C1934 C1948 1.377 . S
C1935 C1934 1.524 . S
C1935 C1936 1.397 . S
C1935 C1940 1.363 . S
C1936 H1913 0.950 . S
C1936 C1935 1.397 . S
C1936 C1937 1.334 . S
C1937 H1914 0.950 . S
C1937 C1936 1.334 . S
C1937 C1938 1.287 . S
C1938 C1937 1.287 . S
C1938 C1939 1.524 . S
C1938 H1957 0.913 1_565 S
C1939 H1915 0.950 . S
C1939 C1938 1.524 . S
C1939 C1940 1.415 . S
C1940 H1916 0.950 . S
C1940 C1935 1.363 . S
C1940 C1939 1.415 . S
C1941 H1917 0.951 . S
C1941 C1942 1.366 . S
C1941 C1943 1.388 . S
C1942 C1941 1.366 . S
C1942 C1946 1.385 . S
C1943 H1918 0.951 . S
C1943 C1941 1.388 . S
C1943 C1944 1.366 . S
C1944 C1943 1.366 . S
C1944 C1945 1.414 . S
C1944 C1947 1.499 . S
C1945 H1919 0.950 . S
C1945 C1944 1.414 . S
C1945 C1946 1.374 . S
C1946 H1920 0.950 . S
C1946 C1942 1.385 . S
C1946 C1945 1.374 . S
C1947 C1944 1.499 . S
C1947 C1948 1.373 . S
C1947 C1949 1.389 . S
C1948 H1921 0.950 . S
C1948 C1934 1.377 . S
C1948 C1947 1.373 . S
C1949 C1933 1.377 . S
C1949 C1947 1.389 . S
C1949 C1950 1.524 . S
C1950 C1949 1.524 . S
C1950 C1951 1.397 . S
C1950 C1955 1.363 . S
C1951 H1922 0.950 . S
C1951 C1950 1.397 . S
C1951 C1952 1.334 . S
C1952 H1923 0.950 . S
C1952 C1951 1.334 . S
C1952 C1953 1.287 . S
C1953 C1952 1.287 . S
C1953 C1954 1.524 . S
C1953 H1956 0.999 . S
C1954 H1924 0.950 . S
C1954 C1953 1.524 . S
C1954 C1955 1.415 . S
C1955 H1925 0.950 . S
C1955 C1950 1.363 . S
C1955 C1954 1.415 . S
H1956 C1953 0.999 . S
H1957 C1938 0.913 1_545 S
H1958 C1976 0.951 . S
H1959 C1978 0.951 . S
H1960 C1980 0.950 . S
H1961 C1981 0.950 . S
H1962 C1983 0.950 . S
H1963 C1986 0.950 . S
H1964 C1987 0.950 . S
H1965 C1989 0.950 . S
H1966 C1990 0.950 . S
H1967 C1991 0.951 . S
H1968 C1993 0.951 . S
H1969 C1995 0.950 . S
H1970 C1996 0.950 . S
H1971 C1998 0.950 . S
H1972 C2001 0.950 . S
H1973 C2002 0.950 . S
H1974 C2004 0.950 . S
H1975 C2005 0.950 . S
C1976 H1958 0.951 . S
C1976 C1977 1.366 . S
C1976 C1978 1.388 . S
C1977 C1976 1.366 . S
C1977 C1981 1.385 . S
C1978 H1959 0.951 . S
C1978 C1976 1.388 . S
C1978 C1979 1.366 . S
C1979 C1978 1.366 . S
C1979 C1980 1.414 . S
C1979 C1982 1.499 . S
C1980 H1960 0.950 . S
C1980 C1979 1.414 . S
C1980 C1981 1.374 . S
C1981 H1961 0.950 . S
C1981 C1977 1.385 . S
C1981 C1980 1.374 . S
C1982 C1979 1.499 . S
C1982 C1983 1.373 . S
C1982 C1984 1.389 . S
C1983 H1962 0.950 . S
C1983 C1982 1.373 . S
C1983 C1999 1.377 . S
C1984 C1982 1.389 . S
C1984 C1985 1.524 . S
C1984 C1998 1.377 . S
C1985 C1984 1.524 . S
C1985 C1986 1.397 . S
C1985 C1990 1.363 . S
C1986 H1963 0.950 . S
C1986 C1985 1.397 . S
C1986 C1987 1.334 . S
C1987 H1964 0.950 . S
C1987 C1986 1.334 . S
C1987 C1988 1.287 . S
C1988 C1987 1.287 . S
C1988 C1989 1.524 . S
C1988 H2007 0.913 . S
C1989 H1965 0.950 . S
C1989 C1988 1.524 . S
C1989 C1990 1.415 . S
C1990 H1966 0.950 . S
C1990 C1985 1.363 . S
C1990 C1989 1.415 . S
C1991 H1967 0.951 . S
C1991 C1992 1.366 . S
C1991 C1993 1.388 . S
C1992 C1991 1.366 . S
C1992 C1996 1.385 . S
C1993 H1968 0.951 . S
C1993 C1991 1.388 . S
C1993 C1994 1.366 . S
C1994 C1993 1.366 . S
C1994 C1995 1.414 . S
C1994 C1997 1.499 . S
C1995 H1969 0.950 . S
C1995 C1994 1.414 . S
C1995 C1996 1.374 . S
C1996 H1970 0.950 . S
C1996 C1992 1.385 . S
C1996 C1995 1.374 . S
C1997 C1994 1.499 . S
C1997 C1998 1.373 . S
C1997 C1999 1.389 . S
C1998 H1971 0.950 . S
C1998 C1984 1.377 . S
C1998 C1997 1.373 . S
C1999 C1983 1.377 . S
C1999 C1997 1.389 . S
C1999 C2000 1.524 . S
C2000 C1999 1.524 . S
C2000 C2001 1.397 . S
C2000 C2005 1.363 . S
C2001 H1972 0.950 . S
C2001 C2000 1.397 . S
C2001 C2002 1.334 . S
C2002 H1973 0.950 . S
C2002 C2001 1.334 . S
C2002 C2003 1.287 . S
C2003 C2002 1.287 . S
C2003 C2004 1.524 . S
C2003 H2006 0.999 . S
C2004 H1974 0.950 . S
C2004 C2003 1.524 . S
C2004 C2005 1.415 . S
C2005 H1975 0.950 . S
C2005 C2000 1.363 . S
C2005 C2004 1.415 . S
H2006 C2003 0.999 . S
H2007 C1988 0.913 . S
H2008 C2026 0.951 . S
H2009 C2028 0.951 . S
H2010 C2030 0.950 . S
H2011 C2031 0.950 . S
H2012 C2033 0.950 . S
H2013 C2036 0.950 . S
H2014 C2037 0.950 . S
H2015 C2039 0.950 . S
H2016 C2040 0.950 . S
H2017 C2041 0.951 . S
H2018 C2043 0.951 . S
H2019 C2045 0.950 . S
H2020 C2046 0.950 . S
H2021 C2048 0.950 . S
H2022 C2051 0.950 . S
H2023 C2052 0.950 . S
H2024 C2054 0.950 . S
H2025 C2055 0.950 . S
C2026 H2008 0.951 . S
C2026 C2027 1.366 . S
C2026 C2028 1.388 . S
C2027 C2026 1.366 . S
C2027 C2031 1.385 . S
C2028 H2009 0.951 . S
C2028 C2026 1.388 . S
C2028 C2029 1.366 . S
C2029 C2028 1.366 . S
C2029 C2030 1.414 . S
C2029 C2032 1.499 . S
C2030 H2010 0.950 . S
C2030 C2029 1.414 . S
C2030 C2031 1.374 . S
C2031 H2011 0.950 . S
C2031 C2027 1.385 . S
C2031 C2030 1.374 . S
C2032 C2029 1.499 . S
C2032 C2033 1.373 . S
C2032 C2034 1.389 . S
C2033 H2012 0.950 . S
C2033 C2032 1.373 . S
C2033 C2049 1.377 . S
C2034 C2032 1.389 . S
C2034 C2035 1.524 . S
C2034 C2048 1.377 . S
C2035 C2034 1.524 . S
C2035 C2036 1.397 . S
C2035 C2040 1.363 . S
C2036 H2013 0.950 . S
C2036 C2035 1.397 . S
C2036 C2037 1.334 . S
C2037 H2014 0.950 . S
C2037 C2036 1.334 . S
C2037 C2038 1.287 . S
C2038 C2037 1.287 . S
C2038 C2039 1.524 . S
C2038 H2057 0.913 . S
C2039 H2015 0.950 . S
C2039 C2038 1.524 . S
C2039 C2040 1.415 . S
C2040 H2016 0.950 . S
C2040 C2035 1.363 . S
C2040 C2039 1.415 . S
C2041 H2017 0.951 . S
C2041 C2042 1.366 . S
C2041 C2043 1.388 . S
C2042 C2041 1.366 . S
C2042 C2046 1.385 . S
C2043 H2018 0.951 . S
C2043 C2041 1.388 . S
C2043 C2044 1.366 . S
C2044 C2043 1.366 . S
C2044 C2045 1.414 . S
C2044 C2047 1.499 . S
C2045 H2019 0.950 . S
C2045 C2044 1.414 . S
C2045 C2046 1.374 . S
C2046 H2020 0.950 . S
C2046 C2042 1.385 . S
C2046 C2045 1.374 . S
C2047 C2044 1.499 . S
C2047 C2048 1.373 . S
C2047 C2049 1.389 . S
C2048 H2021 0.950 . S
C2048 C2034 1.377 . S
C2048 C2047 1.373 . S
C2049 C2033 1.377 . S
C2049 C2047 1.389 . S
C2049 C2050 1.524 . S
C2050 C2049 1.524 . S
C2050 C2051 1.397 . S
C2050 C2055 1.363 . S
C2051 H2022 0.950 . S
C2051 C2050 1.397 . S
C2051 C2052 1.334 . S
C2052 H2023 0.950 . S
C2052 C2051 1.334 . S
C2052 C2053 1.287 . S
C2053 C2052 1.287 . S
C2053 C2054 1.524 . S
C2053 H2056 0.999 . S
C2054 H2024 0.950 . S
C2054 C2053 1.524 . S
C2054 C2055 1.415 . S
C2055 H2025 0.950 . S
C2055 C2050 1.363 . S
C2055 C2054 1.415 . S
H2056 C2053 0.999 . S
H2057 C2038 0.913 . S
H2058 C2076 0.951 . S
H2059 C2078 0.951 . S
H2060 C2080 0.950 . S
H2061 C2081 0.950 . S
H2062 C2083 0.950 . S
H2063 C2086 0.950 . S
H2064 C2087 0.950 . S
H2065 C2089 0.950 . S
H2066 C2090 0.950 . S
H2067 C2091 0.951 . S
H2068 C2093 0.951 . S
H2069 C2095 0.950 . S
H2070 C2096 0.950 . S
H2071 C2098 0.950 1_565 S
H2072 C2101 0.950 . S
H2073 C2102 0.950 . S
H2074 C2104 0.950 . S
H2075 C2105 0.950 . S
C2076 H2058 0.951 . S
C2076 C2077 1.366 . S
C2076 C2078 1.388 . S
C2077 C2076 1.366 . S
C2077 C2081 1.385 . S
C2078 H2059 0.951 . S
C2078 C2076 1.388 . S
C2078 C2079 1.366 . S
C2079 C2078 1.366 . S
C2079 C2080 1.414 . S
C2079 C2082 1.499 . S
C2080 H2060 0.950 . S
C2080 C2079 1.414 . S
C2080 C2081 1.374 . S
C2081 H2061 0.950 . S
C2081 C2077 1.385 . S
C2081 C2080 1.374 . S
C2082 C2079 1.499 . S
C2082 C2083 1.373 . S
C2082 C2084 1.389 . S
C2083 H2062 0.950 . S
C2083 C2082 1.373 . S
C2083 C2099 1.377 . S
C2084 C2082 1.389 . S
C2084 C2085 1.524 . S
C2084 C2098 1.377 . S
C2085 C2084 1.524 . S
C2085 C2086 1.397 . S
C2085 C2090 1.363 . S
C2086 H2063 0.950 . S
C2086 C2085 1.397 . S
C2086 C2087 1.334 . S
C2087 H2064 0.950 . S
C2087 C2086 1.334 . S
C2087 C2088 1.287 . S
C2088 C2087 1.287 . S
C2088 C2089 1.524 . S
C2088 H2107 0.913 . S
C2089 H2065 0.950 . S
C2089 C2088 1.524 . S
C2089 C2090 1.415 . S
C2090 H2066 0.950 . S
C2090 C2085 1.363 . S
C2090 C2089 1.415 . S
C2091 H2067 0.951 . S
C2091 C2092 1.366 . S
C2091 C2093 1.388 . S
C2092 C2091 1.366 . S
C2092 C2096 1.385 . S
C2093 H2068 0.951 . S
C2093 C2091 1.388 . S
C2093 C2094 1.366 . S
C2094 C2093 1.366 . S
C2094 C2095 1.414 . S
C2094 C2097 1.498 1_565 S
C2095 H2069 0.950 . S
C2095 C2094 1.414 . S
C2095 C2096 1.374 . S
C2096 H2070 0.950 . S
C2096 C2092 1.385 . S
C2096 C2095 1.374 . S
C2097 C2094 1.498 1_545 S
C2097 C2098 1.373 . S
C2097 C2099 1.390 . S
C2098 H2071 0.950 1_545 S
C2098 C2084 1.377 . S
C2098 C2097 1.373 . S
C2099 C2083 1.377 . S
C2099 C2097 1.390 . S
C2099 C2100 1.524 . S
C2100 C2099 1.524 . S
C2100 C2101 1.397 . S
C2100 C2105 1.363 1_455 S
C2101 H2072 0.950 . S
C2101 C2100 1.397 . S
C2101 C2102 1.334 1_455 S
C2102 H2073 0.950 . S
C2102 C2101 1.334 1_655 S
C2102 C2103 1.287 . S
C2103 C2102 1.287 . S
C2103 C2104 1.524 . S
C2103 H2106 0.999 . S
C2104 H2074 0.950 . S
C2104 C2103 1.524 . S
C2104 C2105 1.415 . S
C2105 H2075 0.950 . S
C2105 C2100 1.363 1_655 S
C2105 C2104 1.415 . S
H2106 C2103 0.999 . S
H2107 C2088 0.913 . S
H2108 C2126 0.951 . S
H2109 C2128 0.951 . S
H2110 C2130 0.950 . S
H2111 C2131 0.950 . S
H2112 C2133 0.950 . S
H2113 C2136 0.950 . S
H2114 C2137 0.950 . S
H2115 C2139 0.950 . S
H2116 C2140 0.950 . S
H2117 C2141 0.951 . S
H2118 C2143 0.951 . S
H2119 C2145 0.950 . S
H2120 C2146 0.950 . S
H2121 C2148 0.950 . S
H2122 C2151 0.950 . S
H2123 C2152 0.950 . S
H2124 C2154 0.950 . S
H2125 C2155 0.950 . S
C2126 H2108 0.951 . S
C2126 C2127 1.366 . S
C2126 C2128 1.388 . S
C2127 C2126 1.366 . S
C2127 C2131 1.385 . S
C2128 H2109 0.951 . S
C2128 C2126 1.388 . S
C2128 C2129 1.366 . S
C2129 C2128 1.366 . S
C2129 C2130 1.414 . S
C2129 C2132 1.499 . S
C2130 H2110 0.950 . S
C2130 C2129 1.414 . S
C2130 C2131 1.374 . S
C2131 H2111 0.950 . S
C2131 C2127 1.385 . S
C2131 C2130 1.374 . S
C2132 C2129 1.499 . S
C2132 C2133 1.373 . S
C2132 C2134 1.389 . S
C2133 H2112 0.950 . S
C2133 C2132 1.373 . S
C2133 C2149 1.377 . S
C2134 C2132 1.389 . S
C2134 C2135 1.524 . S
C2134 C2148 1.377 . S
C2135 C2134 1.524 . S
C2135 C2136 1.397 . S
C2135 C2140 1.363 . S
C2136 H2113 0.950 . S
C2136 C2135 1.397 . S
C2136 C2137 1.334 . S
C2137 H2114 0.950 . S
C2137 C2136 1.334 . S
C2137 C2138 1.287 . S
C2138 C2137 1.287 . S
C2138 C2139 1.524 . S
C2138 H2157 0.913 . S
C2139 H2115 0.950 . S
C2139 C2138 1.524 . S
C2139 C2140 1.415 . S
C2140 H2116 0.950 . S
C2140 C2135 1.363 . S
C2140 C2139 1.415 . S
C2141 H2117 0.951 . S
C2141 C2142 1.366 . S
C2141 C2143 1.388 . S
C2142 C2141 1.366 . S
C2142 C2146 1.385 . S
C2143 H2118 0.951 . S
C2143 C2141 1.388 . S
C2143 C2144 1.366 . S
C2144 C2143 1.366 . S
C2144 C2145 1.414 . S
C2144 C2147 1.499 . S
C2145 H2119 0.950 . S
C2145 C2144 1.414 . S
C2145 C2146 1.374 . S
C2146 H2120 0.950 . S
C2146 C2142 1.385 . S
C2146 C2145 1.374 . S
C2147 C2144 1.499 . S
C2147 C2148 1.373 . S
C2147 C2149 1.389 . S
C2148 H2121 0.950 . S
C2148 C2134 1.377 . S
C2148 C2147 1.373 . S
C2149 C2133 1.377 . S
C2149 C2147 1.389 . S
C2149 C2150 1.524 . S
C2150 C2149 1.524 . S
C2150 C2151 1.397 . S
C2150 C2155 1.363 . S
C2151 H2122 0.950 . S
C2151 C2150 1.397 . S
C2151 C2152 1.334 . S
C2152 H2123 0.950 . S
C2152 C2151 1.334 . S
C2152 C2153 1.287 . S
C2153 C2152 1.287 . S
C2153 C2154 1.524 . S
C2153 H2156 0.999 . S
C2154 H2124 0.950 . S
C2154 C2153 1.524 . S
C2154 C2155 1.415 . S
C2155 H2125 0.950 . S
C2155 C2150 1.363 . S
C2155 C2154 1.415 . S
H2156 C2153 0.999 . S
H2157 C2138 0.913 . S
H2158 C2176 0.951 . S
H2159 C2178 0.951 . S
H2160 C2180 0.950 . S
H2161 C2181 0.950 . S
H2162 C2183 0.950 1_545 S
H2163 C2186 0.938 1_545 S
H2164 C2187 0.950 1_545 S
H2165 C2189 0.950 . S
H2166 C2190 0.950 . S
H2167 C2191 0.951 . S
H2168 C2193 0.951 . S
H2169 C2195 0.950 . S
H2170 C2196 0.950 . S
H2171 C2198 0.950 . S
H2172 C2201 0.950 . S
H2173 C2202 0.950 . S
H2174 C2204 0.950 1_545 S
H2175 C2205 0.950 1_545 S
C2176 H2158 0.951 . S
C2176 C2177 1.366 . S
C2176 C2178 1.388 . S
C2177 C2176 1.366 . S
C2177 C2181 1.385 . S
C2178 H2159 0.951 . S
C2178 C2176 1.388 . S
C2178 C2179 1.366 . S
C2179 C2178 1.366 . S
C2179 C2180 1.414 . S
C2179 C2182 1.469 1_545 S
C2180 H2160 0.950 . S
C2180 C2179 1.414 . S
C2180 C2181 1.374 . S
C2181 H2161 0.950 . S
C2181 C2177 1.385 . S
C2181 C2180 1.374 . S
C2182 C2179 1.469 1_565 S
C2182 C2183 1.374 . S
C2182 C2184 1.420 . S
C2183 H2162 0.950 1_565 S
C2183 C2182 1.374 . S
C2183 C2199 1.377 . S
C2184 C2182 1.420 . S
C2184 C2185 1.524 . S
C2184 C2198 1.377 . S
C2185 C2184 1.524 . S
C2185 C2186 1.397 . S
C2185 C2190 1.363 . S
C2186 H2163 0.938 1_565 S
C2186 C2185 1.397 . S
C2186 C2187 1.334 . S
C2187 H2164 0.950 1_565 S
C2187 C2186 1.334 . S
C2187 C2188 1.287 . S
C2188 C2187 1.287 . S
C2188 C2189 1.524 . S
C2188 H2207 0.913 . S
C2189 H2165 0.950 . S
C2189 C2188 1.524 . S
C2189 C2190 1.415 . S
C2190 H2166 0.950 . S
C2190 C2185 1.363 . S
C2190 C2189 1.415 . S
C2191 H2167 0.951 . S
C2191 C2192 1.366 . S
C2191 C2193 1.388 . S
C2192 C2191 1.366 . S
C2192 C2196 1.385 . S
C2193 H2168 0.951 . S
C2193 C2191 1.388 . S
C2193 C2194 1.366 . S
C2194 C2193 1.366 . S
C2194 C2195 1.414 . S
C2194 C2197 1.499 . S
C2195 H2169 0.950 . S
C2195 C2194 1.414 . S
C2195 C2196 1.374 . S
C2196 H2170 0.950 . S
C2196 C2192 1.385 . S
C2196 C2195 1.374 . S
C2197 C2194 1.499 . S
C2197 C2198 1.373 . S
C2197 C2199 1.389 . S
C2198 H2171 0.950 . S
C2198 C2184 1.377 . S
C2198 C2197 1.373 . S
C2199 C2183 1.377 . S
C2199 C2197 1.389 . S
C2199 C2200 1.524 . S
C2200 C2199 1.524 . S
C2200 C2201 1.397 . S
C2200 C2205 1.363 . S
C2201 H2172 0.950 . S
C2201 C2200 1.397 . S
C2201 C2202 1.334 . S
C2202 H2173 0.950 . S
C2202 C2201 1.334 . S
C2202 C2203 1.287 . S
C2203 C2202 1.287 . S
C2203 C2204 1.524 . S
C2203 H2206 0.999 . S
C2204 H2174 0.950 1_565 S
C2204 C2203 1.524 . S
C2204 C2205 1.415 . S
C2205 H2175 0.950 1_565 S
C2205 C2200 1.363 . S
C2205 C2204 1.415 . S
H2206 C2203 0.999 . S
H2207 C2188 0.913 . S
H2208 C2226 0.951 . S
H2209 C2228 0.951 . S
H2210 C2230 0.950 . S
H2211 C2231 0.950 . S
H2212 C2233 0.950 . S
H2213 C2236 0.950 . S
H2214 C2237 0.950 . S
H2215 C2239 0.950 . S
H2216 C2240 0.950 . S
H2217 C2241 0.951 . S
H2218 C2243 0.951 . S
H2219 C2245 0.950 . S
H2220 C2246 0.950 . S
H2221 C2248 0.950 . S
H2222 C2251 0.950 . S
H2223 C2252 0.950 . S
H2224 C2254 0.950 . S
H2225 C2255 0.950 . S
C2226 H2208 0.951 . S
C2226 C2227 1.366 . S
C2226 C2228 1.388 . S
C2227 C2226 1.366 . S
C2227 C2231 1.385 . S
C2228 H2209 0.951 . S
C2228 C2226 1.388 . S
C2228 C2229 1.366 . S
C2229 C2228 1.366 . S
C2229 C2230 1.414 . S
C2229 C2232 1.499 . S
C2230 H2210 0.950 . S
C2230 C2229 1.414 . S
C2230 C2231 1.374 . S
C2231 H2211 0.950 . S
C2231 C2227 1.385 . S
C2231 C2230 1.374 . S
C2232 C2229 1.499 . S
C2232 C2233 1.373 . S
C2232 C2234 1.389 . S
C2233 H2212 0.950 . S
C2233 C2232 1.373 . S
C2233 C2249 1.377 . S
C2234 C2232 1.389 . S
C2234 C2235 1.524 . S
C2234 C2248 1.377 . S
C2235 C2234 1.524 . S
C2235 C2236 1.397 . S
C2235 C2240 1.363 . S
C2236 H2213 0.950 . S
C2236 C2235 1.397 . S
C2236 C2237 1.334 . S
C2237 H2214 0.950 . S
C2237 C2236 1.334 . S
C2237 C2238 1.287 . S
C2238 C2237 1.287 . S
C2238 C2239 1.524 . S
C2238 H2257 0.913 . S
C2239 H2215 0.950 . S
C2239 C2238 1.524 . S
C2239 C2240 1.415 . S
C2240 H2216 0.950 . S
C2240 C2235 1.363 . S
C2240 C2239 1.415 . S
C2241 H2217 0.951 . S
C2241 C2242 1.366 . S
C2241 C2243 1.388 . S
C2242 C2241 1.366 . S
C2242 C2246 1.385 . S
C2243 H2218 0.951 . S
C2243 C2241 1.388 . S
C2243 C2244 1.366 . S
C2244 C2243 1.366 . S
C2244 C2245 1.414 . S
C2244 C2247 1.499 . S
C2245 H2219 0.950 . S
C2245 C2244 1.414 . S
C2245 C2246 1.374 . S
C2246 H2220 0.950 . S
C2246 C2242 1.385 . S
C2246 C2245 1.374 . S
C2247 C2244 1.499 . S
C2247 C2248 1.373 . S
C2247 C2249 1.389 . S
C2248 H2221 0.950 . S
C2248 C2234 1.377 . S
C2248 C2247 1.373 . S
C2249 C2233 1.377 . S
C2249 C2247 1.389 . S
C2249 C2250 1.524 . S
C2250 C2249 1.524 . S
C2250 C2251 1.397 . S
C2250 C2255 1.363 . S
C2251 H2222 0.950 . S
C2251 C2250 1.397 . S
C2251 C2252 1.334 . S
C2252 H2223 0.950 . S
C2252 C2251 1.334 . S
C2252 C2253 1.287 . S
C2253 C2252 1.287 . S
C2253 C2254 1.524 . S
C2253 H2256 0.999 . S
C2254 H2224 0.950 . S
C2254 C2253 1.524 . S
C2254 C2255 1.415 . S
C2255 H2225 0.950 . S
C2255 C2250 1.363 . S
C2255 C2254 1.415 . S
H2256 C2253 0.999 . S
H2257 C2238 0.913 . S
H2258 C2276 0.951 . S
H2259 C2278 0.951 . S
H2260 C2280 0.950 . S
H2261 C2281 0.950 . S
H2262 C2283 0.950 . S
H2263 C2286 0.950 . S
H2264 C2287 0.950 . S
H2265 C2289 0.950 . S
H2266 C2290 0.950 . S
H2267 C2291 0.951 . S
H2268 C2293 0.951 . S
H2269 C2295 0.950 . S
H2270 C2296 0.950 . S
H2271 C2298 0.950 . S
H2272 C2301 0.950 . S
H2273 C2302 0.950 . S
H2274 C2304 0.950 . S
H2275 C2305 0.950 . S
C2276 H2258 0.951 . S
C2276 C2277 1.366 . S
C2276 C2278 1.388 . S
C2277 C2276 1.366 . S
C2277 C2281 1.385 . S
C2278 H2259 0.951 . S
C2278 C2276 1.388 . S
C2278 C2279 1.366 . S
C2279 C2278 1.366 . S
C2279 C2280 1.414 . S
C2279 C2282 1.499 . S
C2280 H2260 0.950 . S
C2280 C2279 1.414 . S
C2280 C2281 1.374 . S
C2281 H2261 0.950 . S
C2281 C2277 1.385 . S
C2281 C2280 1.374 . S
C2282 C2279 1.499 . S
C2282 C2283 1.373 . S
C2282 C2284 1.389 . S
C2283 H2262 0.950 . S
C2283 C2282 1.373 . S
C2283 C2299 1.377 . S
C2284 C2282 1.389 . S
C2284 C2285 1.524 . S
C2284 C2298 1.377 . S
C2285 C2284 1.524 . S
C2285 C2286 1.397 . S
C2285 C2290 1.363 . S
C2286 H2263 0.950 . S
C2286 C2285 1.397 . S
C2286 C2287 1.334 1_655 S
C2287 H2264 0.950 . S
C2287 C2286 1.334 1_455 S
C2287 C2288 1.287 . S
C2288 C2287 1.287 . S
C2288 C2289 1.523 1_455 S
C2288 H2307 0.914 . S
C2289 H2265 0.950 . S
C2289 C2288 1.523 1_655 S
C2289 C2290 1.415 . S
C2290 H2266 0.950 . S
C2290 C2285 1.363 . S
C2290 C2289 1.415 . S
C2291 H2267 0.951 . S
C2291 C2292 1.366 . S
C2291 C2293 1.388 . S
C2292 C2291 1.366 . S
C2292 C2296 1.385 . S
C2293 H2268 0.951 . S
C2293 C2291 1.388 . S
C2293 C2294 1.366 . S
C2294 C2293 1.366 . S
C2294 C2295 1.414 . S
C2294 C2297 1.499 . S
C2295 H2269 0.950 . S
C2295 C2294 1.414 . S
C2295 C2296 1.374 . S
C2296 H2270 0.950 . S
C2296 C2292 1.385 . S
C2296 C2295 1.374 . S
C2297 C2294 1.499 . S
C2297 C2298 1.373 . S
C2297 C2299 1.389 . S
C2298 H2271 0.950 . S
C2298 C2284 1.377 . S
C2298 C2297 1.373 . S
C2299 C2283 1.377 . S
C2299 C2297 1.389 . S
C2299 C2300 1.524 . S
C2300 C2299 1.524 . S
C2300 C2301 1.397 . S
C2300 C2305 1.363 . S
C2301 H2272 0.950 . S
C2301 C2300 1.397 . S
C2301 C2302 1.334 . S
C2302 H2273 0.950 . S
C2302 C2301 1.334 . S
C2302 C2303 1.287 . S
C2303 C2302 1.287 . S
C2303 C2304 1.524 . S
C2303 H2306 0.999 . S
C2304 H2274 0.950 . S
C2304 C2303 1.524 . S
C2304 C2305 1.415 . S
C2305 H2275 0.950 . S
C2305 C2300 1.363 . S
C2305 C2304 1.415 . S
H2306 C2303 0.999 . S
H2307 C2288 0.914 . S
H2308 C2326 0.951 . S
H2309 C2328 0.951 . S
H2310 C2330 0.950 . S
H2311 C2331 0.950 . S
H2312 C2333 0.950 . S
H2313 C2336 0.950 . S
H2314 C2337 0.950 . S
H2315 C2339 0.950 . S
H2316 C2340 0.950 . S
H2317 C2341 0.951 . S
H2318 C2343 0.951 . S
H2319 C2345 0.950 . S
H2320 C2346 0.950 . S
H2321 C2348 0.950 . S
H2322 C2351 0.950 . S
H2323 C2352 0.950 . S
H2324 C2354 0.950 . S
H2325 C2355 0.950 . S
C2326 H2308 0.951 . S
C2326 C2327 1.366 . S
C2326 C2328 1.388 . S
C2327 C2326 1.366 . S
C2327 C2331 1.385 . S
C2328 H2309 0.951 . S
C2328 C2326 1.388 . S
C2328 C2329 1.366 . S
C2329 C2328 1.366 . S
C2329 C2330 1.414 . S
C2329 C2332 1.499 . S
C2330 H2310 0.950 . S
C2330 C2329 1.414 . S
C2330 C2331 1.374 . S
C2331 H2311 0.950 . S
C2331 C2327 1.385 . S
C2331 C2330 1.374 . S
C2332 C2329 1.499 . S
C2332 C2333 1.373 . S
C2332 C2334 1.389 . S
C2333 H2312 0.950 . S
C2333 C2332 1.373 . S
C2333 C2349 1.377 . S
C2334 C2332 1.389 . S
C2334 C2335 1.524 . S
C2334 C2348 1.377 . S
C2335 C2334 1.524 . S
C2335 C2336 1.397 . S
C2335 C2340 1.363 . S
C2336 H2313 0.950 . S
C2336 C2335 1.397 . S
C2336 C2337 1.334 . S
C2337 H2314 0.950 . S
C2337 C2336 1.334 . S
C2337 C2338 1.287 . S
C2338 C2337 1.287 . S
C2338 C2339 1.524 . S
C2338 H2357 0.913 . S
C2339 H2315 0.950 . S
C2339 C2338 1.524 . S
C2339 C2340 1.415 . S
C2340 H2316 0.950 . S
C2340 C2335 1.363 . S
C2340 C2339 1.415 . S
C2341 H2317 0.951 . S
C2341 C2342 1.366 . S
C2341 C2343 1.388 . S
C2342 C2341 1.366 . S
C2342 C2346 1.385 . S
C2343 H2318 0.951 . S
C2343 C2341 1.388 . S
C2343 C2344 1.366 . S
C2344 C2343 1.366 . S
C2344 C2345 1.414 . S
C2344 C2347 1.499 . S
C2345 H2319 0.950 . S
C2345 C2344 1.414 . S
C2345 C2346 1.374 . S
C2346 H2320 0.950 . S
C2346 C2342 1.385 . S
C2346 C2345 1.374 . S
C2347 C2344 1.499 . S
C2347 C2348 1.373 . S
C2347 C2349 1.389 . S
C2348 H2321 0.950 . S
C2348 C2334 1.377 . S
C2348 C2347 1.373 . S
C2349 C2333 1.377 . S
C2349 C2347 1.389 . S
C2349 C2350 1.524 . S
C2350 C2349 1.524 . S
C2350 C2351 1.397 . S
C2350 C2355 1.363 . S
C2351 H2322 0.950 . S
C2351 C2350 1.397 . S
C2351 C2352 1.334 . S
C2352 H2323 0.950 . S
C2352 C2351 1.334 . S
C2352 C2353 1.287 . S
C2353 C2352 1.287 . S
C2353 C2354 1.524 . S
C2353 H2356 0.999 . S
C2354 H2324 0.950 . S
C2354 C2353 1.524 . S
C2354 C2355 1.415 . S
C2355 H2325 0.950 . S
C2355 C2350 1.363 . S
C2355 C2354 1.415 . S
H2356 C2353 0.999 . S
H2357 C2338 0.913 . S
H2358 C2376 0.951 . S
H2359 C2378 0.951 . S
H2360 C2380 0.950 . S
H2361 C2381 0.950 . S
H2362 C2383 0.950 . S
H2363 C2386 0.950 . S
H2364 C2387 0.950 . S
H2365 C2389 0.950 . S
H2366 C2390 0.950 . S
H2367 C2391 0.951 . S
H2368 C2393 0.951 . S
H2369 C2395 0.950 . S
H2370 C2396 0.950 . S
H2371 C2398 0.950 . S
H2372 C2401 0.950 . S
H2373 C2402 0.950 . S
H2374 C2404 0.950 . S
H2375 C2405 0.950 . S
C2376 H2358 0.951 . S
C2376 C2377 1.366 . S
C2376 C2378 1.388 . S
C2377 C2376 1.366 . S
C2377 C2381 1.385 . S
C2378 H2359 0.951 . S
C2378 C2376 1.388 . S
C2378 C2379 1.366 . S
C2379 C2378 1.366 . S
C2379 C2380 1.414 . S
C2379 C2382 1.499 . S
C2380 H2360 0.950 . S
C2380 C2379 1.414 . S
C2380 C2381 1.374 . S
C2381 H2361 0.950 . S
C2381 C2377 1.385 . S
C2381 C2380 1.374 . S
C2382 C2379 1.499 . S
C2382 C2383 1.373 . S
C2382 C2384 1.389 . S
C2383 H2362 0.950 . S
C2383 C2382 1.373 . S
C2383 C2399 1.377 . S
C2384 C2382 1.389 . S
C2384 C2385 1.524 . S
C2384 C2398 1.377 . S
C2385 C2384 1.524 . S
C2385 C2386 1.397 . S
C2385 C2390 1.363 . S
C2386 H2363 0.950 . S
C2386 C2385 1.397 . S
C2386 C2387 1.334 . S
C2387 H2364 0.950 . S
C2387 C2386 1.334 . S
C2387 C2388 1.287 . S
C2388 C2387 1.287 . S
C2388 C2389 1.524 . S
C2388 H2407 0.913 . S
C2389 H2365 0.950 . S
C2389 C2388 1.524 . S
C2389 C2390 1.415 . S
C2390 H2366 0.950 . S
C2390 C2385 1.363 . S
C2390 C2389 1.415 . S
C2391 H2367 0.951 . S
C2391 C2392 1.366 . S
C2391 C2393 1.388 . S
C2392 C2391 1.366 . S
C2392 C2396 1.385 . S
C2393 H2368 0.951 . S
C2393 C2391 1.388 . S
C2393 C2394 1.366 . S
C2394 C2393 1.366 . S
C2394 C2395 1.414 . S
C2394 C2397 1.499 . S
C2395 H2369 0.950 . S
C2395 C2394 1.414 . S
C2395 C2396 1.374 . S
C2396 H2370 0.950 . S
C2396 C2392 1.385 . S
C2396 C2395 1.374 . S
C2397 C2394 1.499 . S
C2397 C2398 1.373 . S
C2397 C2399 1.389 . S
C2398 H2371 0.950 . S
C2398 C2384 1.377 . S
C2398 C2397 1.373 . S
C2399 C2383 1.377 . S
C2399 C2397 1.389 . S
C2399 C2400 1.524 . S
C2400 C2399 1.524 . S
C2400 C2401 1.397 . S
C2400 C2405 1.363 . S
C2401 H2372 0.950 . S
C2401 C2400 1.397 . S
C2401 C2402 1.334 . S
C2402 H2373 0.950 . S
C2402 C2401 1.334 . S
C2402 C2403 1.287 . S
C2403 C2402 1.287 . S
C2403 C2404 1.524 . S
C2403 H2406 0.999 . S
C2404 H2374 0.950 . S
C2404 C2403 1.524 . S
C2404 C2405 1.415 . S
C2405 H2375 0.950 . S
C2405 C2400 1.363 . S
C2405 C2404 1.415 . S
H2406 C2403 0.999 . S
H2407 C2388 0.913 . S
H2408 C2426 0.951 . S
H2409 C2428 0.951 . S
H2410 C2430 0.950 . S
H2411 C2431 0.950 . S
H2412 C2433 0.950 . S
H2413 C2436 0.950 . S
H2414 C2437 0.950 . S
H2415 C2439 0.950 . S
H2416 C2440 0.950 . S
H2417 C2441 0.951 . S
H2418 C2443 0.951 . S
H2419 C2445 0.950 . S
H2420 C2446 0.950 . S
H2421 C2448 0.950 . S
H2422 C2451 0.950 . S
H2423 C2452 0.950 . S
H2424 C2454 0.950 . S
H2425 C2455 0.950 . S
C2426 H2408 0.951 . S
C2426 C2427 1.366 . S
C2426 C2428 1.388 . S
C2427 C2426 1.366 . S
C2427 C2431 1.385 . S
C2428 H2409 0.951 . S
C2428 C2426 1.388 . S
C2428 C2429 1.366 . S
C2429 C2428 1.366 . S
C2429 C2430 1.414 . S
C2429 C2432 1.499 . S
C2430 H2410 0.950 . S
C2430 C2429 1.414 . S
C2430 C2431 1.374 . S
C2431 H2411 0.950 . S
C2431 C2427 1.385 . S
C2431 C2430 1.374 . S
C2432 C2429 1.499 . S
C2432 C2433 1.373 . S
C2432 C2434 1.389 . S
C2433 H2412 0.950 . S
C2433 C2432 1.373 . S
C2433 C2449 1.377 . S
C2434 C2432 1.389 . S
C2434 C2435 1.524 . S
C2434 C2448 1.377 . S
C2435 C2434 1.524 . S
C2435 C2436 1.397 . S
C2435 C2440 1.363 . S
C2436 H2413 0.950 . S
C2436 C2435 1.397 . S
C2436 C2437 1.334 . S
C2437 H2414 0.950 . S
C2437 C2436 1.334 . S
C2437 C2438 1.287 . S
C2438 C2437 1.287 . S
C2438 C2439 1.524 . S
C2438 H2457 0.913 . S
C2439 H2415 0.950 . S
C2439 C2438 1.524 . S
C2439 C2440 1.415 . S
C2440 H2416 0.950 . S
C2440 C2435 1.363 . S
C2440 C2439 1.415 . S
C2441 H2417 0.951 . S
C2441 C2442 1.366 . S
C2441 C2443 1.388 . S
C2442 C2441 1.366 . S
C2442 C2446 1.385 . S
C2443 H2418 0.951 . S
C2443 C2441 1.388 . S
C2443 C2444 1.366 . S
C2444 C2443 1.366 . S
C2444 C2445 1.414 . S
C2444 C2447 1.499 . S
C2445 H2419 0.950 . S
C2445 C2444 1.414 . S
C2445 C2446 1.374 . S
C2446 H2420 0.950 . S
C2446 C2442 1.385 . S
C2446 C2445 1.374 . S
C2447 C2444 1.499 . S
C2447 C2448 1.373 . S
C2447 C2449 1.389 . S
C2448 H2421 0.950 . S
C2448 C2434 1.377 . S
C2448 C2447 1.373 . S
C2449 C2433 1.377 . S
C2449 C2447 1.389 . S
C2449 C2450 1.524 . S
C2450 C2449 1.524 . S
C2450 C2451 1.397 . S
C2450 C2455 1.363 . S
C2451 H2422 0.950 . S
C2451 C2450 1.397 . S
C2451 C2452 1.334 . S
C2452 H2423 0.950 . S
C2452 C2451 1.334 . S
C2452 C2453 1.287 . S
C2453 C2452 1.287 . S
C2453 C2454 1.524 . S
C2453 H2456 0.999 . S
C2454 H2424 0.950 . S
C2454 C2453 1.524 . S
C2454 C2455 1.415 . S
C2455 H2425 0.950 . S
C2455 C2450 1.363 . S
C2455 C2454 1.415 . S
H2456 C2453 0.999 . S
H2457 C2438 0.913 . S
H2458 C2476 0.951 . S
H2459 C2478 0.951 . S
H2460 C2480 0.950 . S
H2461 C2481 0.950 . S
H2462 C2483 0.950 . S
H2463 C2486 0.950 . S
H2464 C2487 0.950 . S
H2465 C2489 0.950 . S
H2466 C2490 0.950 . S
H2467 C2491 0.951 . S
H2468 C2493 0.951 . S
H2469 C2495 0.950 . S
H2470 C2496 0.950 . S
H2471 C2498 0.950 . S
H2472 C2501 0.950 . S
H2473 C2502 0.950 . S
H2474 C2504 0.950 . S
H2475 C2505 0.950 . S
C2476 H2458 0.951 . S
C2476 C2477 1.366 . S
C2476 C2478 1.388 . S
C2477 C2476 1.366 . S
C2477 C2481 1.385 . S
C2478 H2459 0.951 . S
C2478 C2476 1.388 . S
C2478 C2479 1.366 . S
C2479 C2478 1.366 . S
C2479 C2480 1.414 . S
C2479 C2482 1.499 . S
C2480 H2460 0.950 . S
C2480 C2479 1.414 . S
C2480 C2481 1.374 . S
C2481 H2461 0.950 . S
C2481 C2477 1.385 . S
C2481 C2480 1.374 . S
C2482 C2479 1.499 . S
C2482 C2483 1.373 . S
C2482 C2484 1.389 . S
C2483 H2462 0.950 . S
C2483 C2482 1.373 . S
C2483 C2499 1.377 . S
C2484 C2482 1.389 . S
C2484 C2485 1.524 . S
C2484 C2498 1.377 . S
C2485 C2484 1.524 . S
C2485 C2486 1.397 . S
C2485 C2490 1.363 . S
C2486 H2463 0.950 . S
C2486 C2485 1.397 . S
C2486 C2487 1.334 . S
C2487 H2464 0.950 . S
C2487 C2486 1.334 . S
C2487 C2488 1.287 . S
C2488 C2487 1.287 . S
C2488 C2489 1.524 . S
C2488 H2507 0.913 . S
C2489 H2465 0.950 . S
C2489 C2488 1.524 . S
C2489 C2490 1.415 . S
C2490 H2466 0.950 . S
C2490 C2485 1.363 . S
C2490 C2489 1.415 . S
C2491 H2467 0.951 . S
C2491 C2492 1.366 . S
C2491 C2493 1.388 . S
C2492 C2491 1.366 . S
C2492 C2496 1.385 . S
C2493 H2468 0.951 . S
C2493 C2491 1.388 . S
C2493 C2494 1.366 . S
C2494 C2493 1.366 . S
C2494 C2495 1.414 . S
C2494 C2497 1.499 . S
C2495 H2469 0.950 . S
C2495 C2494 1.414 . S
C2495 C2496 1.374 . S
C2496 H2470 0.950 . S
C2496 C2492 1.385 . S
C2496 C2495 1.374 . S
C2497 C2494 1.499 . S
C2497 C2498 1.373 . S
C2497 C2499 1.389 . S
C2498 H2471 0.950 . S
C2498 C2484 1.377 . S
C2498 C2497 1.373 . S
C2499 C2483 1.377 . S
C2499 C2497 1.389 . S
C2499 C2500 1.524 . S
C2500 C2499 1.524 . S
C2500 C2501 1.397 . S
C2500 C2505 1.363 . S
C2501 H2472 0.950 . S
C2501 C2500 1.397 . S
C2501 C2502 1.334 . S
C2502 H2473 0.950 . S
C2502 C2501 1.334 . S
C2502 C2503 1.287 . S
C2503 C2502 1.287 . S
C2503 C2504 1.524 . S
C2503 H2506 0.999 . S
C2504 H2474 0.950 . S
C2504 C2503 1.524 . S
C2504 C2505 1.415 . S
C2505 H2475 0.950 . S
C2505 C2500 1.363 . S
C2505 C2504 1.415 . S
H2506 C2503 0.999 . S
H2507 C2488 0.913 . S
H2508 C2526 0.951 . S
H2509 C2528 0.951 . S
H2510 C2530 0.950 . S
H2511 C2531 0.950 . S
H2512 C2533 0.950 . S
H2513 C2536 0.950 . S
H2514 C2537 0.950 . S
H2515 C2539 0.950 . S
H2516 C2540 0.950 . S
H2517 C2541 0.951 . S
H2518 C2543 0.951 . S
H2519 C2545 0.950 . S
H2520 C2546 0.950 . S
H2521 C2548 0.950 1_655 S
H2522 C2551 0.950 . S
H2523 C2552 0.950 . S
H2524 C2554 0.950 . S
H2525 C2555 0.950 . S
C2526 H2508 0.951 . S
C2526 C2527 1.366 . S
C2526 C2528 1.388 . S
C2527 C2526 1.366 . S
C2527 C2531 1.385 . S
C2528 H2509 0.951 . S
C2528 C2526 1.388 . S
C2528 C2529 1.366 . S
C2529 C2528 1.366 . S
C2529 C2530 1.414 . S
C2529 C2532 1.499 . S
C2530 H2510 0.950 . S
C2530 C2529 1.414 . S
C2530 C2531 1.374 . S
C2531 H2511 0.950 . S
C2531 C2527 1.385 . S
C2531 C2530 1.374 . S
C2532 C2529 1.499 . S
C2532 C2533 1.373 . S
C2532 C2534 1.389 . S
C2533 H2512 0.950 . S
C2533 C2532 1.373 . S
C2533 C2549 1.377 . S
C2534 C2532 1.389 . S
C2534 C2535 1.524 . S
C2534 C2548 1.377 . S
C2535 C2534 1.524 . S
C2535 C2536 1.397 . S
C2535 C2540 1.363 . S
C2536 H2513 0.950 . S
C2536 C2535 1.397 . S
C2536 C2537 1.334 . S
C2537 H2514 0.950 . S
C2537 C2536 1.334 . S
C2537 C2538 1.287 . S
C2538 C2537 1.287 . S
C2538 C2539 1.524 . S
C2538 H2557 0.913 . S
C2539 H2515 0.950 . S
C2539 C2538 1.524 . S
C2539 C2540 1.415 . S
C2540 H2516 0.950 . S
C2540 C2535 1.363 . S
C2540 C2539 1.415 . S
C2541 H2517 0.951 . S
C2541 C2542 1.366 . S
C2541 C2543 1.388 . S
C2542 C2541 1.366 . S
C2542 C2546 1.385 . S
C2543 H2518 0.951 . S
C2543 C2541 1.388 . S
C2543 C2544 1.366 . S
C2544 C2543 1.366 . S
C2544 C2545 1.414 . S
C2544 C2547 1.499 1_655 S
C2545 H2519 0.950 . S
C2545 C2544 1.414 . S
C2545 C2546 1.374 . S
C2546 H2520 0.950 . S
C2546 C2542 1.385 . S
C2546 C2545 1.374 . S
C2547 C2544 1.499 1_455 S
C2547 C2548 1.373 . S
C2547 C2549 1.389 . S
C2548 H2521 0.950 1_455 S
C2548 C2534 1.377 . S
C2548 C2547 1.373 . S
C2549 C2533 1.377 . S
C2549 C2547 1.389 . S
C2549 C2550 1.524 . S
C2550 C2549 1.524 . S
C2550 C2551 1.397 . S
C2550 C2555 1.363 1_554 S
C2551 H2522 0.950 . S
C2551 C2550 1.397 . S
C2551 C2552 1.334 1_554 S
C2552 H2523 0.950 . S
C2552 C2551 1.334 1_556 S
C2552 C2553 1.287 . S
C2553 C2552 1.287 . S
C2553 C2554 1.524 . S
C2553 H2556 0.999 . S
C2554 H2524 0.950 . S
C2554 C2553 1.524 . S
C2554 C2555 1.415 . S
C2555 H2525 0.950 . S
C2555 C2550 1.363 1_556 S
C2555 C2554 1.415 . S
H2556 C2553 0.999 . S
H2557 C2538 0.913 . S
H2558 C2576 0.951 . S
H2559 C2578 0.951 . S
H2560 C2580 0.950 . S
H2561 C2581 0.950 . S
H2562 C2583 0.950 . S
H2563 C2586 0.950 . S
H2564 C2587 0.950 . S
H2565 C2589 0.950 . S
H2566 C2590 0.950 . S
H2567 C2591 0.951 . S
H2568 C2593 0.951 . S
H2569 C2595 0.950 . S
H2570 C2596 0.950 . S
H2571 C2598 0.950 . S
H2572 C2601 0.950 . S
H2573 C2602 0.950 . S
H2574 C2604 0.950 . S
H2575 C2605 0.950 . S
C2576 H2558 0.951 . S
C2576 C2577 1.366 . S
C2576 C2578 1.388 . S
C2577 C2576 1.366 . S
C2577 C2581 1.385 . S
C2578 H2559 0.951 . S
C2578 C2576 1.388 . S
C2578 C2579 1.366 . S
C2579 C2578 1.366 . S
C2579 C2580 1.414 . S
C2579 C2582 1.499 . S
C2580 H2560 0.950 . S
C2580 C2579 1.414 . S
C2580 C2581 1.374 . S
C2581 H2561 0.950 . S
C2581 C2577 1.385 . S
C2581 C2580 1.374 . S
C2582 C2579 1.499 . S
C2582 C2583 1.373 . S
C2582 C2584 1.389 . S
C2583 H2562 0.950 . S
C2583 C2582 1.373 . S
C2583 C2599 1.377 . S
C2584 C2582 1.389 . S
C2584 C2585 1.524 . S
C2584 C2598 1.377 . S
C2585 C2584 1.524 . S
C2585 C2586 1.397 . S
C2585 C2590 1.363 . S
C2586 H2563 0.950 . S
C2586 C2585 1.397 . S
C2586 C2587 1.334 . S
C2587 H2564 0.950 . S
C2587 C2586 1.334 . S
C2587 C2588 1.287 . S
C2588 C2587 1.287 . S
C2588 C2589 1.524 . S
C2588 H2607 0.913 . S
C2589 H2565 0.950 . S
C2589 C2588 1.524 . S
C2589 C2590 1.415 . S
C2590 H2566 0.950 . S
C2590 C2585 1.363 . S
C2590 C2589 1.415 . S
C2591 H2567 0.951 . S
C2591 C2592 1.366 . S
C2591 C2593 1.388 . S
C2592 C2591 1.366 . S
C2592 C2596 1.385 . S
C2593 H2568 0.951 . S
C2593 C2591 1.388 . S
C2593 C2594 1.366 . S
C2594 C2593 1.366 . S
C2594 C2595 1.414 . S
C2594 C2597 1.499 . S
C2595 H2569 0.950 . S
C2595 C2594 1.414 . S
C2595 C2596 1.374 . S
C2596 H2570 0.950 . S
C2596 C2592 1.385 . S
C2596 C2595 1.374 . S
C2597 C2594 1.499 . S
C2597 C2598 1.373 . S
C2597 C2599 1.389 . S
C2598 H2571 0.950 . S
C2598 C2584 1.377 . S
C2598 C2597 1.373 . S
C2599 C2583 1.377 . S
C2599 C2597 1.389 . S
C2599 C2600 1.524 . S
C2600 C2599 1.524 . S
C2600 C2601 1.397 . S
C2600 C2605 1.363 . S
C2601 H2572 0.950 . S
C2601 C2600 1.397 . S
C2601 C2602 1.334 . S
C2602 H2573 0.950 . S
C2602 C2601 1.334 . S
C2602 C2603 1.287 . S
C2603 C2602 1.287 . S
C2603 C2604 1.524 . S
C2603 H2606 0.999 . S
C2604 H2574 0.950 . S
C2604 C2603 1.524 . S
C2604 C2605 1.415 . S
C2605 H2575 0.950 . S
C2605 C2600 1.363 . S
C2605 C2604 1.415 . S
H2606 C2603 0.999 . S
H2607 C2588 0.913 . S
H2608 C2626 0.951 . S
H2609 C2628 0.951 . S
H2610 C2630 0.950 . S
H2611 C2631 0.950 . S
H2612 C2633 0.950 . S
H2613 C2636 0.950 . S
H2614 C2637 0.950 . S
H2615 C2639 0.950 . S
H2616 C2640 0.950 . S
H2617 C2641 0.951 . S
H2618 C2643 0.951 . S
H2619 C2645 0.950 . S
H2620 C2646 0.950 . S
H2621 C2648 0.950 . S
H2622 C2651 0.950 . S
H2623 C2652 0.950 . S
H2624 C2654 0.950 . S
H2625 C2655 0.950 . S
C2626 H2608 0.951 . S
C2626 C2627 1.366 . S
C2626 C2628 1.388 . S
C2627 C2626 1.366 . S
C2627 C2631 1.385 . S
C2628 H2609 0.951 . S
C2628 C2626 1.388 . S
C2628 C2629 1.366 . S
C2629 C2628 1.366 . S
C2629 C2630 1.414 . S
C2629 C2632 1.499 . S
C2630 H2610 0.950 . S
C2630 C2629 1.414 . S
C2630 C2631 1.374 . S
C2631 H2611 0.950 . S
C2631 C2627 1.385 . S
C2631 C2630 1.374 . S
C2632 C2629 1.499 . S
C2632 C2633 1.373 . S
C2632 C2634 1.389 . S
C2633 H2612 0.950 . S
C2633 C2632 1.373 . S
C2633 C2649 1.377 . S
C2634 C2632 1.389 . S
C2634 C2635 1.524 . S
C2634 C2648 1.377 . S
C2635 C2634 1.524 . S
C2635 C2636 1.397 . S
C2635 C2640 1.363 . S
C2636 H2613 0.950 . S
C2636 C2635 1.397 . S
C2636 C2637 1.334 . S
C2637 H2614 0.950 . S
C2637 C2636 1.334 . S
C2637 C2638 1.287 . S
C2638 C2637 1.287 . S
C2638 C2639 1.524 . S
C2638 H2657 0.913 . S
C2639 H2615 0.950 . S
C2639 C2638 1.524 . S
C2639 C2640 1.415 . S
C2640 H2616 0.950 . S
C2640 C2635 1.363 . S
C2640 C2639 1.415 . S
C2641 H2617 0.951 . S
C2641 C2642 1.366 . S
C2641 C2643 1.388 . S
C2642 C2641 1.366 . S
C2642 C2646 1.385 . S
C2643 H2618 0.951 . S
C2643 C2641 1.388 . S
C2643 C2644 1.366 . S
C2644 C2643 1.366 . S
C2644 C2645 1.414 . S
C2644 C2647 1.499 . S
C2645 H2619 0.950 . S
C2645 C2644 1.414 . S
C2645 C2646 1.374 . S
C2646 H2620 0.950 . S
C2646 C2642 1.385 . S
C2646 C2645 1.374 . S
C2647 C2644 1.499 . S
C2647 C2648 1.373 . S
C2647 C2649 1.389 . S
C2648 H2621 0.950 . S
C2648 C2634 1.377 . S
C2648 C2647 1.373 . S
C2649 C2633 1.377 . S
C2649 C2647 1.389 . S
C2649 C2650 1.524 . S
C2650 C2649 1.524 . S
C2650 C2651 1.397 . S
C2650 C2655 1.363 . S
C2651 H2622 0.950 . S
C2651 C2650 1.397 . S
C2651 C2652 1.334 . S
C2652 H2623 0.950 . S
C2652 C2651 1.334 . S
C2652 C2653 1.287 . S
C2653 C2652 1.287 . S
C2653 C2654 1.524 . S
C2653 H2656 0.999 . S
C2654 H2624 0.950 . S
C2654 C2653 1.524 . S
C2654 C2655 1.415 . S
C2655 H2625 0.950 . S
C2655 C2650 1.363 . S
C2655 C2654 1.415 . S
H2656 C2653 0.999 . S
H2657 C2638 0.913 . S
H2658 C2676 0.951 . S
H2659 C2678 0.951 . S
H2660 C2680 0.950 . S
H2661 C2681 0.950 . S
H2662 C2683 0.950 . S
H2663 C2686 0.950 . S
H2664 C2687 0.950 . S
H2665 C2689 0.950 . S
H2666 C2690 0.950 . S
H2667 C2691 0.951 . S
H2668 C2693 0.951 . S
H2669 C2695 0.950 . S
H2670 C2696 0.950 . S
H2671 C2698 0.950 . S
H2672 C2701 0.950 . S
H2673 C2702 0.950 . S
H2674 C2704 0.950 . S
H2675 C2705 0.950 . S
C2676 H2658 0.951 . S
C2676 C2677 1.366 . S
C2676 C2678 1.388 . S
C2677 C2676 1.366 . S
C2677 C2681 1.385 . S
C2678 H2659 0.951 . S
C2678 C2676 1.388 . S
C2678 C2679 1.366 . S
C2679 C2678 1.366 . S
C2679 C2680 1.414 . S
C2679 C2682 1.499 . S
C2680 H2660 0.950 . S
C2680 C2679 1.414 . S
C2680 C2681 1.374 . S
C2681 H2661 0.950 . S
C2681 C2677 1.385 . S
C2681 C2680 1.374 . S
C2682 C2679 1.499 . S
C2682 C2683 1.373 . S
C2682 C2684 1.389 . S
C2683 H2662 0.950 . S
C2683 C2682 1.373 . S
C2683 C2699 1.377 . S
C2684 C2682 1.389 . S
C2684 C2685 1.524 . S
C2684 C2698 1.377 . S
C2685 C2684 1.524 . S
C2685 C2686 1.397 . S
C2685 C2690 1.363 . S
C2686 H2663 0.950 . S
C2686 C2685 1.397 . S
C2686 C2687 1.334 . S
C2687 H2664 0.950 . S
C2687 C2686 1.334 . S
C2687 C2688 1.287 . S
C2688 C2687 1.287 . S
C2688 C2689 1.524 . S
C2688 H2707 0.913 . S
C2689 H2665 0.950 . S
C2689 C2688 1.524 . S
C2689 C2690 1.415 . S
C2690 H2666 0.950 . S
C2690 C2685 1.363 . S
C2690 C2689 1.415 . S
C2691 H2667 0.951 . S
C2691 C2692 1.366 . S
C2691 C2693 1.388 . S
C2692 C2691 1.366 . S
C2692 C2696 1.385 . S
C2693 H2668 0.951 . S
C2693 C2691 1.388 . S
C2693 C2694 1.366 . S
C2694 C2693 1.366 . S
C2694 C2695 1.414 . S
C2694 C2697 1.499 . S
C2695 H2669 0.950 . S
C2695 C2694 1.414 . S
C2695 C2696 1.374 . S
C2696 H2670 0.950 . S
C2696 C2692 1.385 . S
C2696 C2695 1.374 . S
C2697 C2694 1.499 . S
C2697 C2698 1.373 . S
C2697 C2699 1.389 . S
C2698 H2671 0.950 . S
C2698 C2684 1.377 . S
C2698 C2697 1.373 . S
C2699 C2683 1.377 . S
C2699 C2697 1.389 . S
C2699 C2700 1.524 . S
C2700 C2699 1.524 . S
C2700 C2701 1.397 . S
C2700 C2705 1.363 . S
C2701 H2672 0.950 . S
C2701 C2700 1.397 . S
C2701 C2702 1.334 . S
C2702 H2673 0.950 . S
C2702 C2701 1.334 . S
C2702 C2703 1.287 . S
C2703 C2702 1.287 . S
C2703 C2704 1.524 . S
C2703 H2706 0.999 1_455 S
C2704 H2674 0.950 . S
C2704 C2703 1.524 . S
C2704 C2705 1.415 . S
C2705 H2675 0.950 . S
C2705 C2700 1.363 . S
C2705 C2704 1.415 . S
H2706 C2703 0.999 1_655 S
H2707 C2688 0.913 . S
H2708 C2726 0.951 . S
H2709 C2728 0.951 . S
H2710 C2730 0.950 . S
H2711 C2731 0.986 . S
H2712 C2733 0.950 . S
H2713 C2736 0.950 . S
H2714 C2737 0.950 . S
H2715 C2739 0.950 . S
H2716 C2740 0.950 . S
H2717 C2741 0.951 . S
H2718 C2743 0.951 . S
H2719 C2745 0.950 . S
H2720 C2746 0.950 . S
H2721 C2748 0.950 . S
H2722 C2751 0.950 . S
H2723 C2752 0.950 . S
H2724 C2754 0.950 . S
H2725 C2755 0.950 1_554 S
C2726 H2708 0.951 . S
C2726 C2727 1.366 . S
C2726 C2728 1.388 . S
C2727 C2726 1.366 . S
C2727 C2731 1.385 . S
C2728 H2709 0.951 . S
C2728 C2726 1.388 . S
C2728 C2729 1.366 . S
C2729 C2728 1.366 . S
C2729 C2730 1.414 . S
C2729 C2732 1.499 . S
C2730 H2710 0.950 . S
C2730 C2729 1.414 . S
C2730 C2731 1.374 . S
C2731 H2711 0.986 . S
C2731 C2727 1.385 . S
C2731 C2730 1.374 . S
C2732 C2729 1.499 . S
C2732 C2733 1.373 . S
C2732 C2734 1.389 . S
C2733 H2712 0.950 . S
C2733 C2732 1.373 . S
C2733 C2749 1.377 . S
C2734 C2732 1.389 . S
C2734 C2735 1.524 . S
C2734 C2748 1.377 . S
C2735 C2734 1.524 . S
C2735 C2736 1.397 . S
C2735 C2740 1.363 . S
C2736 H2713 0.950 . S
C2736 C2735 1.397 . S
C2736 C2737 1.334 . S
C2737 H2714 0.950 . S
C2737 C2736 1.334 . S
C2737 C2738 1.287 . S
C2738 C2737 1.287 . S
C2738 C2739 1.524 . S
C2738 H2757 0.913 . S
C2739 H2715 0.950 . S
C2739 C2738 1.524 . S
C2739 C2740 1.415 . S
C2740 H2716 0.950 . S
C2740 C2735 1.363 . S
C2740 C2739 1.415 . S
C2741 H2717 0.951 . S
C2741 C2742 1.366 . S
C2741 C2743 1.388 . S
C2742 C2741 1.366 . S
C2742 C2746 1.385 . S
C2743 H2718 0.951 . S
C2743 C2741 1.388 . S
C2743 C2744 1.366 . S
C2744 C2743 1.366 . S
C2744 C2745 1.414 . S
C2744 C2747 1.499 . S
C2745 H2719 0.950 . S
C2745 C2744 1.414 . S
C2745 C2746 1.374 . S
C2746 H2720 0.950 . S
C2746 C2742 1.385 . S
C2746 C2745 1.374 . S
C2747 C2744 1.499 . S
C2747 C2748 1.373 . S
C2747 C2749 1.389 . S
C2748 H2721 0.950 . S
C2748 C2734 1.377 . S
C2748 C2747 1.373 . S
C2749 C2733 1.377 . S
C2749 C2747 1.389 . S
C2749 C2750 1.524 . S
C2750 C2749 1.524 . S
C2750 C2751 1.397 . S
C2750 C2755 1.363 . S
C2751 H2722 0.950 . S
C2751 C2750 1.397 . S
C2751 C2752 1.334 . S
C2752 H2723 0.950 . S
C2752 C2751 1.334 . S
C2752 C2753 1.287 1_556 S
C2753 C2752 1.287 1_554 S
C2753 C2754 1.524 . S
C2753 H2756 0.999 . S
C2754 H2724 0.950 . S
C2754 C2753 1.524 . S
C2754 C2755 1.415 1_554 S
C2755 H2725 0.950 1_556 S
C2755 C2750 1.363 . S
C2755 C2754 1.415 1_556 S
H2756 C2753 0.999 . S
H2757 C2738 0.913 . S
H2758 C2776 0.951 . S
H2759 C2778 0.951 . S
H2760 C2780 0.950 . S
H2761 C2781 0.950 . S
H2762 C2783 0.950 . S
H2763 C2786 0.950 . S
H2764 C2787 0.950 . S
H2765 C2789 0.950 . S
H2766 C2790 0.950 . S
H2767 C2791 0.951 . S
H2768 C2793 0.951 . S
H2769 C2795 0.950 . S
H2770 C2796 0.950 . S
H2771 C2798 0.950 1_455 S
H2772 C2801 0.950 . S
H2773 C2802 0.950 . S
H2774 C2804 0.950 . S
H2775 C2805 0.950 . S
C2776 H2758 0.951 . S
C2776 C2777 1.366 . S
C2776 C2778 1.388 . S
C2777 C2776 1.366 . S
C2777 C2781 1.385 . S
C2778 H2759 0.951 . S
C2778 C2776 1.388 . S
C2778 C2779 1.366 . S
C2779 C2778 1.366 . S
C2779 C2780 1.414 . S
C2779 C2782 1.499 . S
C2780 H2760 0.950 . S
C2780 C2779 1.414 . S
C2780 C2781 1.374 . S
C2781 H2761 0.950 . S
C2781 C2777 1.385 . S
C2781 C2780 1.374 . S
C2782 C2779 1.499 . S
C2782 C2783 1.373 . S
C2782 C2784 1.389 . S
C2783 H2762 0.950 . S
C2783 C2782 1.373 . S
C2783 C2799 1.377 . S
C2784 C2782 1.389 . S
C2784 C2785 1.524 . S
C2784 C2798 1.377 . S
C2785 C2784 1.524 . S
C2785 C2786 1.397 . S
C2785 C2790 1.363 . S
C2786 H2763 0.950 . S
C2786 C2785 1.397 . S
C2786 C2787 1.334 . S
C2787 H2764 0.950 . S
C2787 C2786 1.334 . S
C2787 C2788 1.287 . S
C2788 C2787 1.287 . S
C2788 C2789 1.524 . S
C2788 H2807 0.913 . S
C2789 H2765 0.950 . S
C2789 C2788 1.524 . S
C2789 C2790 1.415 . S
C2790 H2766 0.950 . S
C2790 C2785 1.363 . S
C2790 C2789 1.415 . S
C2791 H2767 0.951 . S
C2791 C2792 1.366 . S
C2791 C2793 1.388 . S
C2792 C2791 1.366 . S
C2792 C2796 1.385 . S
C2793 H2768 0.951 . S
C2793 C2791 1.388 . S
C2793 C2794 1.366 . S
C2794 C2793 1.366 . S
C2794 C2795 1.414 . S
C2794 C2797 1.485 1_455 S
C2795 H2769 0.950 . S
C2795 C2794 1.414 . S
C2795 C2796 1.374 . S
C2796 H2770 0.950 . S
C2796 C2792 1.385 . S
C2796 C2795 1.374 . S
C2797 C2794 1.485 1_655 S
C2797 C2798 1.377 . S
C2797 C2799 1.400 . S
C2798 H2771 0.950 1_655 S
C2798 C2784 1.377 . S
C2798 C2797 1.377 . S
C2799 C2783 1.377 . S
C2799 C2797 1.400 . S
C2799 C2800 1.524 . S
C2800 C2799 1.524 . S
C2800 C2801 1.397 . S
C2800 C2805 1.363 . S
C2801 H2772 0.950 . S
C2801 C2800 1.397 . S
C2801 C2802 1.334 . S
C2802 H2773 0.950 . S
C2802 C2801 1.334 . S
C2802 C2803 1.287 . S
C2803 C2802 1.287 . S
C2803 C2804 1.524 . S
C2803 H2806 0.999 . S
C2804 H2774 0.950 . S
C2804 C2803 1.524 . S
C2804 C2805 1.415 . S
C2805 H2775 0.950 . S
C2805 C2800 1.363 . S
C2805 C2804 1.415 . S
H2806 C2803 0.999 . S
H2807 C2788 0.913 . S
C1027 C56 1.479 . S
C1042 C990 1.516 . S
C1077 C822 1.474 1_565 S
C1092 C150 1.485 . S
C1127 C234 1.403 . S
C1142 C738 1.395 . S
C1177 C318 1.437 . S
C1192 C906 1.432 1_545 S
C1227 C402 1.582 . S
C1242 C896 1.539 . S
C1277 C476 1.577 . S
C1292 C980 1.581 . S
C1327 C812 1.499 . S
C1342 C570 1.538 1_556 S
C1377 C654 1.497 . S
C1392 C728 1.459 . S
C1427 C308 1.580 . S
C1442 C392 1.579 . S
C1477 C66 1.461 . S
C1492 C486 1.466 . S
C1527 C140 1.583 . S
C1542 C560 1.583 . S
C1577 C644 1.585 . S
C1592 C224 1.582 . S
C1627 C63 1.621 . S
C1642 C747 1.754 . S
C1677 C156 1.413 . S
C1692 C915 1.605 . S
C1727 C999 1.673 . S
C1742 C240 1.468 . S
C1777 C324 1.505 . S
C1792 C831 1.716 . S
C1827 C408 1.484 . S
C1842 C823 1.683 . S
C1877 C739 1.834 . S
C1892 C483 1.694 . S
C1927 C907 1.792 . S
C1942 C576 1.579 . S
C1977 C991 1.750 . S
C1992 C660 1.542 . S
C2027 C75 1.761 . S
C2042 C315 1.625 . S
C2077 C72 1.598 . S
C2092 C151 1.812 . S
C2127 C147 1.725 . S
C2142 C235 1.869 . S
C2177 C319 1.834 . S
C2192 C231 1.694 . S
C2227 C492 1.473 . S
C2242 C403 1.667 . S
C2277 C495 1.610 . S
C2292 C567 1.491 . S
C2327 C571 1.685 . S
C2342 C651 1.559 . S
C2377 C399 1.588 . S
C2392 C655 1.719 . S
C2427 C735 1.552 . S
C2442 C327 1.680 . S
C2477 C487 1.731 . S
C2492 C828 1.522 . S
C2527 C744 1.485 . S
C2542 C579 1.690 . S
C2577 C912 1.419 . S
C2592 C663 1.615 . S
C2627 C411 1.598 . S
C2642 C996 1.403 . S
C2677 C987 1.460 . S
C2692 C159 1.584 . S
C2727 C243 1.603 . S
C2742 C819 1.479 . S
C2777 C903 1.588 . S
C2792 C67 1.720 . S
