# Generated by pormake.
# Topology zfd, (5)-cn, num edge types: 1
# Building blocks:
#     Node 0, Type 0, BuildingBlock: BEQFEK_clean_sbu_0, # of connection points: 5
#     Node 1, Type 0, BuildingBlock: BEQFEK_clean_sbu_0, # of connection points: 5
#     Node 2, Type 0, BuildingBlock: BEQFEK_clean_sbu_0, # of connection points: 5
#     Node 3, Type 0, BuildingBlock: BEQFEK_clean_sbu_0, # of connection points: 5
#     Node 4, Type 0, BuildingBlock: BEQFEK_clean_sbu_0, # of connection points: 5
#     Node 5, Type 0, BuildingBlock: BEQFEK_clean_sbu_0, # of connection points: 5
#     Node 6, Type 0, BuildingBlock: BEQFEK_clean_sbu_0, # of connection points: 5
#     Node 7, Type 0, BuildingBlock: BEQFEK_clean_sbu_0, # of connection points: 5
#     Node 8, Type 0, BuildingBlock: BEQFEK_clean_sbu_0, # of connection points: 5
#     Node 9, Type 0, BuildingBlock: BEQFEK_clean_sbu_0, # of connection points: 5
#     Node 10, Type 0, BuildingBlock: BEQFEK_clean_sbu_0, # of connection points: 5
#     Node 11, Type 0, BuildingBlock: BEQFEK_clean_sbu_0, # of connection points: 5
#     Node 12, Type 0, BuildingBlock: BEQFEK_clean_sbu_0, # of connection points: 5
#     Node 13, Type 0, BuildingBlock: BEQFEK_clean_sbu_0, # of connection points: 5
#     Node 14, Type 0, BuildingBlock: BEQFEK_clean_sbu_0, # of connection points: 5
#     Node 15, Type 0, BuildingBlock: BEQFEK_clean_sbu_0, # of connection points: 5
#     Edge 16, Type (0, 0), BuildingBlock: AJUNOK_clean_linker_0, # of connection points: 2
#     Edge 17, Type (0, 0), BuildingBlock: AJUNOK_clean_linker_0, # of connection points: 2
#     Edge 18, Type (0, 0), BuildingBlock: AJUNOK_clean_linker_0, # of connection points: 2
#     Edge 19, Type (0, 0), BuildingBlock: AJUNOK_clean_linker_0, # of connection points: 2
#     Edge 20, Type (0, 0), BuildingBlock: AJUNOK_clean_linker_0, # of connection points: 2
#     Edge 21, Type (0, 0), BuildingBlock: AJUNOK_clean_linker_0, # of connection points: 2
#     Edge 22, Type (0, 0), BuildingBlock: AJUNOK_clean_linker_0, # of connection points: 2
#     Edge 23, Type (0, 0), BuildingBlock: AJUNOK_clean_linker_0, # of connection points: 2
#     Edge 24, Type (0, 0), BuildingBlock: AJUNOK_clean_linker_0, # of connection points: 2
#     Edge 25, Type (0, 0), BuildingBlock: AJUNOK_clean_linker_0, # of connection points: 2
#     Edge 26, Type (0, 0), BuildingBlock: AJUNOK_clean_linker_0, # of connection points: 2
#     Edge 27, Type (0, 0), BuildingBlock: AJUNOK_clean_linker_0, # of connection points: 2
#     Edge 28, Type (0, 0), BuildingBlock: AJUNOK_clean_linker_0, # of connection points: 2
#     Edge 29, Type (0, 0), BuildingBlock: AJUNOK_clean_linker_0, # of connection points: 2
#     Edge 30, Type (0, 0), BuildingBlock: AJUNOK_clean_linker_0, # of connection points: 2
#     Edge 31, Type (0, 0), BuildingBlock: AJUNOK_clean_linker_0, # of connection points: 2
#     Edge 32, Type (0, 0), BuildingBlock: AJUNOK_clean_linker_0, # of connection points: 2
#     Edge 33, Type (0, 0), BuildingBlock: AJUNOK_clean_linker_0, # of connection points: 2
#     Edge 34, Type (0, 0), BuildingBlock: AJUNOK_clean_linker_0, # of connection points: 2
#     Edge 35, Type (0, 0), BuildingBlock: AJUNOK_clean_linker_0, # of connection points: 2
#     Edge 36, Type (0, 0), BuildingBlock: AJUNOK_clean_linker_0, # of connection points: 2
#     Edge 37, Type (0, 0), BuildingBlock: AJUNOK_clean_linker_0, # of connection points: 2
#     Edge 38, Type (0, 0), BuildingBlock: AJUNOK_clean_linker_0, # of connection points: 2
#     Edge 39, Type (0, 0), BuildingBlock: AJUNOK_clean_linker_0, # of connection points: 2
#     Edge 40, Type (0, 0), BuildingBlock: AJUNOK_clean_linker_0, # of connection points: 2
#     Edge 41, Type (0, 0), BuildingBlock: AJUNOK_clean_linker_0, # of connection points: 2
#     Edge 42, Type (0, 0), BuildingBlock: AJUNOK_clean_linker_0, # of connection points: 2
#     Edge 43, Type (0, 0), BuildingBlock: AJUNOK_clean_linker_0, # of connection points: 2
#     Edge 44, Type (0, 0), BuildingBlock: AJUNOK_clean_linker_0, # of connection points: 2
#     Edge 45, Type (0, 0), BuildingBlock: AJUNOK_clean_linker_0, # of connection points: 2
#     Edge 46, Type (0, 0), BuildingBlock: AJUNOK_clean_linker_0, # of connection points: 2
#     Edge 47, Type (0, 0), BuildingBlock: AJUNOK_clean_linker_0, # of connection points: 2
#     Edge 48, Type (0, 0), BuildingBlock: AJUNOK_clean_linker_0, # of connection points: 2
#     Edge 49, Type (0, 0), BuildingBlock: AJUNOK_clean_linker_0, # of connection points: 2
#     Edge 50, Type (0, 0), BuildingBlock: AJUNOK_clean_linker_0, # of connection points: 2
#     Edge 51, Type (0, 0), BuildingBlock: AJUNOK_clean_linker_0, # of connection points: 2
#     Edge 52, Type (0, 0), BuildingBlock: AJUNOK_clean_linker_0, # of connection points: 2
#     Edge 53, Type (0, 0), BuildingBlock: AJUNOK_clean_linker_0, # of connection points: 2
#     Edge 54, Type (0, 0), BuildingBlock: AJUNOK_clean_linker_0, # of connection points: 2
#     Edge 55, Type (0, 0), BuildingBlock: AJUNOK_clean_linker_0, # of connection points: 2
# Relax obj value: 0.270
# Max RMSD: 0.096
# Mean RMSD: 0.096
data_MOF--net-zfd--node1-BEQFEK_clean_sbu_0--edge1-AJUNOK_clean_linker_0
_symmetry_space_group_name_H-M    P1
_symmetry_Int_Tables_number       1
_symmetry_cell_setting            triclinic
loop_
_symmetry_equiv_pos_as_xyz
'x, y, z'
_cell_length_a     48.212997
_cell_length_b     48.366023
_cell_length_c     17.75891
_cell_angle_alpha  89.961591
_cell_angle_beta   89.84177
_cell_angle_gamma 90.043235
loop_
_atom_site_label
_atom_site_type_symbol
_atom_site_fract_x
_atom_site_fract_y
_atom_site_fract_z
_atom_type_partial_charge
Co0 Co 0.15513 0.23911 1.01094 0.0
Co1 Co 0.1269 0.27701 0.10907 0.0
C2 C 0.15603 0.22651 0.18127 0.0
O3 O 0.16184 0.2213 0.11295 0.0
O4 O 0.14014 0.24747 0.19384 0.0
C5 C 0.15401 0.18543 0.96015 0.0
O6 O 0.1322 0.18208 1.00366 0.0
C7 C 0.0874 0.30789 0.20097 0.0
C8 C 0.09475 0.35048 0.15942 0.0
C9 C 0.07859 0.33494 0.20753 0.0
N10 N 0.10831 0.30734 0.15162 0.0
N11 N 0.1129 0.33288 0.1277 0.0
C12 C 0.07426 0.28276 0.23488 0.0
H13 H 0.05182 0.28228 0.22108 0.0
H14 H 0.07605 0.28379 0.29711 0.0
H15 H 0.08439 0.26366 0.21383 0.0
C16 C 0.10221 0.24339 0.91085 0.0
N17 N 0.11757 0.24841 0.97432 0.0
N18 N 0.10396 0.26535 1.01817 0.0
C19 C 0.07937 0.27182 0.98281 0.0
C20 C 0.07682 0.25795 0.9122 0.0
C21 C 0.11237 0.22632 0.84625 0.0
H22 H 0.1353 0.22735 0.8421 0.0
H23 H 0.10614 0.20452 0.85563 0.0
H24 H 0.10306 0.2334 0.79249 0.0
O25 O 0.18418 0.26978 1.00011 0.0
O26 O 0.16204 0.29707 0.07867 0.0
H27 H 0.03888 0.29105 0.9833 0.0
H28 H 0.0543 0.28537 0.07486 0.0
C29 C 0.05854 0.29124 1.0156 0.0
H30 H 0.0673 0.31247 1.0157 0.0
H31 H 0.12754 0.33818 0.0868 0.0
O32 O 0.16542 0.20896 0.95247 0.0
C33 C 0.18301 0.29238 1.03708 0.0
Co34 Co 0.82765 0.15781 0.99219 0.0
Co35 Co 0.78883 0.13064 0.09457 0.0
C36 C 0.84186 0.16002 0.16001 0.0
O37 O 0.84818 0.16516 0.09156 0.0
O38 O 0.81997 0.14522 0.17251 0.0
C39 C 0.87797 0.16234 0.91216 0.0
O40 O 0.88943 0.14906 0.96861 0.0
C41 C 0.75822 0.0958 0.20148 0.0
C42 C 0.71569 0.1003 0.15595 0.0
C43 C 0.73094 0.08763 0.21171 0.0
N44 N 0.75901 0.11308 0.14285 0.0
N45 N 0.73351 0.11602 0.11657 0.0
C46 C 0.78343 0.08507 0.24079 0.0
H47 H 0.8024 0.08974 0.20757 0.0
H48 H 0.78164 0.06243 0.25006 0.0
H49 H 0.78516 0.09517 0.29666 0.0
C50 C 0.82241 0.10096 0.90175 0.0
N51 N 0.81759 0.11854 0.96138 0.0
N52 N 0.79908 0.10692 1.00528 0.0
C53 C 0.7908 0.08239 0.97267 0.0
C54 C 0.80502 0.07746 0.90351 0.0
C55 C 0.84531 0.10439 0.84619 0.0
H56 H 0.86394 0.11234 0.87462 0.0
H57 H 0.85094 0.0844 0.81963 0.0
H58 H 0.83825 0.11849 0.80137 0.0
O59 O 0.7955 0.18633 0.98701 0.0
O60 O 0.76779 0.1642 0.06412 0.0
H61 H 0.76482 0.04582 0.97096 0.0
H62 H 0.77332 0.05917 0.06361 0.0
C63 C 0.76815 0.0648 1.00471 0.0
H64 H 0.74863 0.0769 1.00611 0.0
H65 H 0.72839 0.12785 0.0695 0.0
O66 O 0.85289 0.16992 0.91654 0.0
C67 C 0.77255 0.18501 1.0229 0.0
Co68 Co 0.8994 0.82313 0.9783 0.0
Co69 Co 0.93036 0.79374 0.09178 0.0
C70 C 0.897 0.84463 0.14361 0.0
O71 O 0.89056 0.84686 0.07391 0.0
O72 O 0.91422 0.82546 0.16187 0.0
C73 C 0.89993 0.86613 0.87966 0.0
O74 O 0.91893 0.87537 0.9262 0.0
C75 C 0.95448 0.76393 0.2186 0.0
C76 C 0.97687 0.73131 0.15642 0.0
C77 C 0.97167 0.74106 0.22855 0.0
N78 N 0.95103 0.76783 0.14464 0.0
N79 N 0.96346 0.74764 0.10792 0.0
C80 C 0.93865 0.77981 0.27691 0.0
H81 H 0.91733 0.78392 0.25642 0.0
H82 H 0.94887 0.80008 0.28636 0.0
H83 H 0.93731 0.76815 0.33066 0.0
C84 C 0.95495 0.81587 0.88431 0.0
N85 N 0.9389 0.81447 0.94828 0.0
N86 N 0.95408 0.80429 1.00248 0.0
C87 C 0.98067 0.80067 0.97526 0.0
C88 C 0.98269 0.80823 0.89806 0.0
C89 C 0.94328 0.81846 0.80725 0.0
H90 H 0.9222 0.80957 0.80727 0.0
H91 H 0.94311 0.84046 0.79057 0.0
H92 H 0.95607 0.80708 0.76547 0.0
O93 O 0.8738 0.79008 0.98157 0.0
O94 O 0.89803 0.76815 0.06708 0.0
H95 H 1.00748 0.76793 1.00951 0.0
H96 H 1.0236 0.8013 1.00676 0.0
C97 C 1.00421 0.79018 1.02176 0.0
H98 H 0.9997 0.79278 0.08265 0.0
H99 H 0.96301 0.74524 0.04955 0.0
O100 O 0.88615 0.84481 0.89689 0.0
C101 C 0.87688 0.7693 1.02457 0.0
Co102 Co 0.24157 0.90362 0.99982 0.0
Co103 Co 0.27657 0.93329 0.10072 0.0
C104 C 0.22653 0.90343 0.16977 0.0
O105 O 0.22288 0.89649 0.1015 0.0
O106 O 0.24642 0.92048 0.18326 0.0
C107 C 0.18862 0.90625 0.94897 0.0
O108 O 0.1869 0.92812 0.99251 0.0
C109 C 0.30571 0.97045 0.20112 0.0
C110 C 0.34809 0.96884 0.15261 0.0
C111 C 0.33222 0.98106 0.20817 0.0
N112 N 0.30597 0.95235 0.14458 0.0
N113 N 0.33134 0.95113 0.11632 0.0
C114 C 0.27981 0.98028 0.23929 0.0
H115 H 0.26115 0.9731 0.20852 0.0
H116 H 0.27965 1.00321 0.2427 0.0
H117 H 0.27919 0.97201 0.29757 0.0
C118 C 0.24633 0.95635 0.89849 0.0
N119 N 0.25058 0.94137 0.96302 0.0
N120 N 0.26558 0.95596 1.00947 0.0
C121 C 0.27122 0.98099 0.97546 0.0
C122 C 0.25888 0.98282 0.90259 0.0
C123 C 0.23278 0.94453 0.83007 0.0
H124 H 0.23517 0.92172 0.82886 0.0
H125 H 0.21039 0.94946 0.83169 0.0
H126 H 0.24172 0.95366 0.77802 0.0
O127 O 0.27283 0.87528 0.99112 0.0
O128 O 0.29758 0.89833 0.07354 0.0
H129 H 0.31091 0.99749 1.00313 0.0
H130 H 0.28473 1.02338 0.98577 0.0
C131 C 0.28872 1.00281 1.01128 0.0
H132 H 0.28457 1.00356 0.07271 0.0
H133 H 0.33685 0.93942 0.06937 0.0
O134 O 0.21146 0.89345 0.94063 0.0
C135 C 0.29456 0.87721 1.03161 0.0
Co136 Co 0.15983 0.82566 0.57829 0.0
Co137 Co 0.13118 0.78866 0.47656 0.0
C138 C 0.16271 0.84158 0.41405 0.0
O139 O 0.16779 0.84774 0.48245 0.0
O140 O 0.14762 0.81997 0.4014 0.0
C141 C 0.16736 0.87184 0.66877 0.0
O142 O 0.15405 0.88544 0.61597 0.0
C143 C 0.08531 0.7674 0.39211 0.0
C144 C 0.08999 0.72235 0.41089 0.0
C145 C 0.07176 0.74218 0.38478 0.0
N146 N 0.10978 0.76268 0.42441 0.0
N147 N 0.11285 0.73573 0.43389 0.0
C148 C 0.07558 0.79577 0.37095 0.0
H149 H 0.09361 0.80894 0.35583 0.0
H150 H 0.06513 0.80551 0.41989 0.0
H151 H 0.06097 0.79491 0.32282 0.0
C152 C 0.1018 0.82428 0.66784 0.0
N153 N 0.11988 0.81805 0.60981 0.0
N154 N 0.10815 0.79911 0.56783 0.0
C155 C 0.08351 0.79142 0.60168 0.0
C156 C 0.07802 0.80736 0.66687 0.0
C157 C 0.10666 0.8456 0.72677 0.0
H158 H 0.12114 0.83703 0.7684 0.0
H159 H 0.11468 0.86472 0.70083 0.0
H160 H 0.08744 0.85087 0.75783 0.0
O161 O 0.18667 0.79213 0.57757 0.0
O162 O 0.16308 0.76465 0.50354 0.0
H163 H 0.07855 0.75101 0.55447 0.0
H164 H 0.0515 0.76092 0.61997 0.0
C165 C 0.06554 0.76836 0.57465 0.0
H166 H 0.05261 0.77592 0.52763 0.0
H167 H 0.12961 0.72653 0.46109 0.0
O168 O 0.17463 0.84717 0.65729 0.0
C169 C 0.18442 0.76912 0.54302 0.0
Co170 Co 0.2384 0.15922 0.58731 0.0
Co171 Co 0.27328 0.13162 0.47674 0.0
C172 C 0.22 0.16336 0.42269 0.0
O173 O 0.21537 0.16855 0.49216 0.0
O174 O 0.24091 0.14777 0.40669 0.0
C175 C 0.19251 0.16223 0.68181 0.0
O176 O 0.18031 0.14677 0.63085 0.0
C177 C 0.29832 0.08983 0.38064 0.0
C178 C 0.34162 0.10508 0.37258 0.0
C179 C 0.32439 0.08356 0.3532 0.0
N180 N 0.30007 0.114 0.4165 0.0
N181 N 0.32587 0.12324 0.41052 0.0
C182 C 0.27204 0.07373 0.37133 0.0
H183 H 0.27543 0.05151 0.38343 0.0
H184 H 0.26519 0.07535 0.31188 0.0
H185 H 0.2555 0.08206 0.40855 0.0
C186 C 0.24326 0.10154 0.67397 0.0
N187 N 0.24756 0.11919 0.61403 0.0
N188 N 0.26415 0.10684 0.56606 0.0
C189 C 0.27147 0.0815 0.59618 0.0
C190 C 0.25803 0.07659 0.66636 0.0
C191 C 0.22779 0.10906 0.74342 0.0
H192 H 0.236 0.12892 0.76293 0.0
H193 H 0.20539 0.11054 0.73065 0.0
H194 H 0.23063 0.09379 0.78934 0.0
O195 O 0.27118 0.18656 0.58907 0.0
O196 O 0.29645 0.1641 0.50704 0.0
H197 H 0.30154 0.04861 0.60287 0.0
H198 H 0.28074 0.04901 0.51935 0.0
C199 C 0.2918 0.06228 0.56031 0.0
H200 H 0.30809 0.07415 0.53027 0.0
H201 H 0.33317 0.14156 0.43404 0.0
O202 O 0.21642 0.17176 0.66901 0.0
C203 C 0.29331 0.18471 0.55008 0.0
Co204 Co 0.9071 0.23687 0.57591 0.0
Co205 Co 0.93544 0.27167 0.47021 0.0
C206 C 0.90547 0.22231 0.40364 0.0
O207 O 0.89855 0.21921 0.47247 0.0
O208 O 0.92328 0.24142 0.38886 0.0
C209 C 0.9143 0.18455 0.63197 0.0
O210 O 0.93696 0.1846 0.59079 0.0
C211 C 0.97009 0.30459 0.36872 0.0
C212 C 0.96545 0.3459 0.42112 0.0
C213 C 0.97828 0.33193 0.36301 0.0
N214 N 0.95261 0.30254 0.42686 0.0
N215 N 0.94956 0.32732 0.45732 0.0
C216 C 0.98122 0.28035 0.32594 0.0
H217 H 0.97634 0.26075 0.35573 0.0
H218 H 1.004 0.28234 0.31828 0.0
H219 H 0.97159 0.27986 0.26929 0.0
C220 C 0.95998 0.24391 0.67427 0.0
N221 N 0.94479 0.24687 0.60959 0.0
N222 N 0.95892 0.26158 0.56117 0.0
C223 C 0.98401 0.26807 0.5939 0.0
C224 C 0.98617 0.25675 0.66803 0.0
C225 C 0.9485 0.23227 0.74582 0.0
H226 H 0.92583 0.22883 0.74194 0.0
H227 H 0.95912 0.21259 0.75853 0.0
H228 H 0.95289 0.24658 0.79317 0.0
O229 O 0.87933 0.26805 0.59089 0.0
O230 O 0.89917 0.29054 0.49759 0.0
H231 H 0.99977 0.30762 0.56253 0.0
H232 H 1.02623 0.28207 0.58073 0.0
C233 C 1.00543 0.28552 0.55578 0.0
H234 H 1.00591 0.28087 0.49461 0.0
H235 H 0.93749 0.33132 0.50494 0.0
O236 O 0.89881 0.20583 0.63532 0.0
C237 C 0.87943 0.28835 0.54492 0.0
Co238 Co 0.82258 0.90867 0.55827 0.0
Co239 Co 0.78462 0.93672 0.4607 0.0
C240 C 0.83466 0.90832 0.38677 0.0
O241 O 0.83965 0.90121 0.45434 0.0
O242 O 0.81442 0.92523 0.37621 0.0
C243 C 0.87753 0.90461 0.60202 0.0
O244 O 0.88331 0.92354 0.55132 0.0
C245 C 0.75546 0.98003 0.38198 0.0
C246 C 0.71162 0.96678 0.39357 0.0
C247 C 0.72847 0.98782 0.36783 0.0
N248 N 0.75482 0.95549 0.41619 0.0
N249 N 0.72864 0.94749 0.42257 0.0
C250 C 0.78146 0.99562 0.36387 0.0
H251 H 0.78037 1.01687 0.38706 0.0
H252 H 0.78353 0.99752 0.30181 0.0
H253 H 0.79988 0.9848 0.38689 0.0
C254 C 0.81925 0.96135 0.65868 0.0
N255 N 0.81384 0.94616 0.59514 0.0
N256 N 0.79575 0.95922 0.55363 0.0
C257 C 0.78857 0.98309 0.59132 0.0
C258 C 0.80346 0.98607 0.66038 0.0
C259 C 0.83977 0.95235 0.71679 0.0
H260 H 0.85981 0.94784 0.68895 0.0
H261 H 0.84346 0.96842 0.75997 0.0
H262 H 0.83239 0.93303 0.74398 0.0
O263 O 0.79097 0.88077 0.57289 0.0
O264 O 0.76553 0.90067 0.48589 0.0
H265 H 0.75653 1.01309 0.61449 0.0
H266 H 0.7737 1.01634 0.52451 0.0
C267 C 0.76547 1.00144 0.56639 0.0
H268 H 0.7489 0.98904 0.53955 0.0
H269 H 0.72223 0.92925 0.44877 0.0
O270 O 0.85269 0.89743 0.6161 0.0
C271 C 0.76951 0.88065 0.53093 0.0
Co272 Co 0.66193 0.7359 0.48416 0.0
Co273 Co 0.63372 0.76823 0.59829 0.0
C274 C 0.66601 0.71607 0.64961 0.0
O275 O 0.6723 0.71339 0.57997 0.0
O276 O 0.6489 0.73545 0.66738 0.0
C277 C 0.66884 0.68941 0.39439 0.0
O278 O 0.65698 0.67607 0.45036 0.0
C279 C 0.60964 0.79778 0.72758 0.0
C280 C 0.59294 0.83414 0.66808 0.0
C281 C 0.5945 0.8221 0.73893 0.0
N282 N 0.61494 0.7953 0.6538 0.0
N283 N 0.60609 0.81771 0.61918 0.0
C284 C 0.62281 0.77946 0.78528 0.0
H285 H 0.64306 0.77186 0.76428 0.0
H286 H 0.60928 0.76131 0.79616 0.0
H287 H 0.62669 0.7909 0.83836 0.0
C288 C 0.60408 0.73898 0.39921 0.0
N289 N 0.62183 0.74343 0.45863 0.0
N290 N 0.60918 0.75921 0.50787 0.0
C291 C 0.58327 0.76561 0.47953 0.0
C292 C 0.57904 0.75364 0.40718 0.0
C293 C 0.60883 0.71851 0.33798 0.0
H294 H 0.61738 0.69934 0.3619 0.0
H295 H 0.58925 0.71293 0.30905 0.0
H296 H 0.62286 0.72773 0.29591 0.0
O297 O 0.6868 0.7703 0.47945 0.0
O298 O 0.66718 0.79156 0.57441 0.0
H299 H 0.5663 0.8054 0.50293 0.0
H300 H 0.54127 0.77807 0.50426 0.0
C301 C 0.56282 0.78358 0.51965 0.0
H302 H 0.56538 0.78162 0.58146 0.0
H303 H 0.6087 0.82153 0.56176 0.0
O304 O 0.67537 0.71449 0.40259 0.0
C305 C 0.68636 0.79048 0.52552 0.0
Co306 Co 0.32471 0.65702 0.49657 0.0
Co307 Co 0.28961 0.62709 0.59906 0.0
C308 C 0.33935 0.65709 0.6674 0.0
O309 O 0.343 0.66409 0.599 0.0
O310 O 0.31957 0.63991 0.68119 0.0
C311 C 0.37692 0.6505 0.44212 0.0
O312 O 0.37638 0.62818 0.48426 0.0
C313 C 0.25935 0.59029 0.69997 0.0
C314 C 0.21833 0.58989 0.64399 0.0
C315 C 0.23307 0.57889 0.70333 0.0
N316 N 0.25998 0.6078 0.64192 0.0
N317 N 0.23534 0.60786 0.60934 0.0
C318 C 0.28442 0.58175 0.74371 0.0
H319 H 0.30366 0.58771 0.71333 0.0
H320 H 0.28432 0.55909 0.75382 0.0
H321 H 0.2841 0.59225 0.79924 0.0
C322 C 0.31792 0.60461 0.39452 0.0
N323 N 0.31484 0.61944 0.45986 0.0
N324 N 0.30067 0.60466 0.50807 0.0
C325 C 0.29471 0.57963 0.47483 0.0
C326 C 0.30573 0.57811 0.40038 0.0
C327 C 0.32889 0.61662 0.32284 0.0
H328 H 0.33421 0.63876 0.32926 0.0
H329 H 0.34728 0.60478 0.30447 0.0
H330 H 0.31306 0.61439 0.27796 0.0
O331 O 0.29347 0.68528 0.48782 0.0
O332 O 0.26871 0.66195 0.57047 0.0
H333 H 0.25568 0.5625 0.50694 0.0
H334 H 0.28206 0.53707 0.48702 0.0
C335 C 0.27804 0.55758 0.51281 0.0
H336 H 0.28299 0.55698 0.57376 0.0
H337 H 0.23069 0.61888 0.56051 0.0
O338 O 0.35571 0.66608 0.4373 0.0
C339 C 0.27161 0.68303 0.52814 0.0
Co340 Co 0.40802 0.3235 0.50569 0.0
Co341 Co 0.43746 0.28684 0.60482 0.0
C342 C 0.40784 0.33655 0.67687 0.0
O343 O 0.40107 0.34135 0.60887 0.0
O344 O 0.4246 0.31627 0.68872 0.0
C345 C 0.41282 0.37614 0.44871 0.0
O346 O 0.43584 0.37735 0.48789 0.0
C347 C 0.47178 0.25362 0.7064 0.0
C348 C 0.47113 0.21369 0.64529 0.0
C349 C 0.48141 0.22664 0.70856 0.0
N350 N 0.45592 0.25628 0.64532 0.0
N351 N 0.4553 0.23232 0.60955 0.0
C352 C 0.48022 0.27731 0.75551 0.0
H353 H 0.47657 0.29727 0.72631 0.0
H354 H 0.50241 0.27559 0.77134 0.0
H355 H 0.46763 0.2769 0.80789 0.0
C356 C 0.4607 0.31772 0.40311 0.0
N357 N 0.44566 0.31382 0.46801 0.0
N358 N 0.45998 0.29833 0.51396 0.0
C359 C 0.48481 0.29208 0.47943 0.0
C360 C 0.48675 0.30438 0.40658 0.0
C361 C 0.44947 0.33158 0.33444 0.0
H362 H 0.42655 0.33298 0.33678 0.0
H363 H 0.45842 0.3526 0.33035 0.0
H364 H 0.45581 0.3201 0.2831 0.0
O365 O 0.37922 0.29253 0.49593 0.0
O366 O 0.40231 0.26669 0.57587 0.0
H367 H 0.50092 0.25213 0.50495 0.0
H368 H 0.52713 0.27828 0.49051 0.0
C369 C 0.50633 0.27413 0.51498 0.0
H370 H 0.50669 0.27759 0.57674 0.0
H371 H 0.44508 0.22906 0.55864 0.0
O372 O 0.39844 0.35408 0.44671 0.0
C373 C 0.38115 0.27031 0.53443 0.0
Co374 Co 0.74064 0.40029 0.48156 0.0
Co375 Co 0.77151 0.42913 0.598 0.0
C376 C 0.71994 0.39748 0.64905 0.0
O377 O 0.71839 0.39074 0.57939 0.0
O378 O 0.73866 0.41517 0.66809 0.0
C379 C 0.69478 0.39872 0.38911 0.0
O380 O 0.68421 0.4159 0.43875 0.0
C381 C 0.80031 0.46713 0.70116 0.0
C382 C 0.84381 0.45852 0.66823 0.0
C383 C 0.82753 0.47469 0.71425 0.0
N384 N 0.80041 0.44687 0.65002 0.0
N385 N 0.82649 0.44156 0.63142 0.0
C386 C 0.77473 0.48074 0.73114 0.0
H387 H 0.75593 0.47234 0.70336 0.0
H388 H 0.77598 0.50343 0.72218 0.0
H389 H 0.77339 0.47713 0.79276 0.0
C390 C 0.74629 0.45691 0.39358 0.0
N391 N 0.74911 0.43981 0.45501 0.0
N392 N 0.76293 0.45314 0.50697 0.0
C393 C 0.76916 0.47909 0.47929 0.0
C394 C 0.75847 0.48293 0.40534 0.0
C395 C 0.73577 0.44776 0.31915 0.0
H396 H 0.74465 0.42728 0.30769 0.0
H397 H 0.71285 0.4471 0.32066 0.0
H398 H 0.74218 0.46189 0.27304 0.0
O399 O 0.77417 0.37484 0.47672 0.0
O400 O 0.79271 0.39387 0.57623 0.0
H401 H 0.80686 0.49144 0.53152 0.0
H402 H 0.78725 0.51977 0.49123 0.0
C403 C 0.78576 0.49984 0.52199 0.0
H404 H 0.77604 0.50334 0.57778 0.0
H405 H 0.83253 0.42731 0.59051 0.0
O406 O 0.71789 0.38745 0.40199 0.0
C407 C 0.79268 0.37469 0.52754 0.0
Co408 Co 0.65533 0.32277 0.05928 0.0
Co409 Co 0.62712 0.28385 0.96444 0.0
C410 C 0.65533 0.33428 0.88892 0.0
O411 O 0.66138 0.34037 0.95649 0.0
O412 O 0.63975 0.31293 0.87845 0.0
C413 C 0.65491 0.37675 0.11115 0.0
O414 O 0.63297 0.38086 0.06895 0.0
C415 C 0.58891 0.25126 0.87313 0.0
C416 C 0.59475 0.2098 0.92382 0.0
C417 C 0.57987 0.22419 0.87055 0.0
N418 N 0.60876 0.25291 0.92513 0.0
N419 N 0.61248 0.22802 0.95451 0.0
C420 C 0.57658 0.27562 0.83353 0.0
H421 H 0.55396 0.27657 0.84516 0.0
H422 H 0.57927 0.27307 0.77184 0.0
H423 H 0.58657 0.29512 0.85209 0.0
C424 C 0.60252 0.31854 0.1612 0.0
N425 N 0.61792 0.31327 0.09772 0.0
N426 N 0.6044 0.29591 0.055 0.0
C427 C 0.57985 0.28946 0.09087 0.0
C428 C 0.57723 0.3037 0.16088 0.0
C429 C 0.61257 0.33613 0.22475 0.0
H430 H 0.63548 0.33501 0.22914 0.0
H431 H 0.60657 0.35789 0.21381 0.0
H432 H 0.60305 0.3296 0.2789 0.0
O433 O 0.6849 0.29246 0.06939 0.0
O434 O 0.66256 0.26446 0.99361 0.0
H435 H 0.5388 0.27149 0.08827 0.0
H436 H 0.55628 0.2741 0.99804 0.0
C437 C 0.55907 0.26982 0.05889 0.0
H438 H 0.56703 0.2484 0.06457 0.0
H439 H 0.62619 0.2237 0.99831 0.0
O440 O 0.66578 0.35294 0.11723 0.0
C441 C 0.68378 0.26966 1.03339 0.0
Co442 Co 0.73933 0.6523 0.06393 0.0
Co443 Co 0.77854 0.62431 0.96891 0.0
C444 C 0.72822 0.65292 0.89344 0.0
O445 O 0.72176 0.65879 0.96098 0.0
O446 O 0.74969 0.63749 0.88338 0.0
C447 C 0.68558 0.65023 0.1162 0.0
O448 O 0.68307 0.62782 0.07509 0.0
C449 C 0.80844 0.58713 0.87023 0.0
C450 C 0.85034 0.58826 0.92108 0.0
C451 C 0.8348 0.57619 0.86481 0.0
N452 N 0.8084 0.60535 0.92652 0.0
N453 N 0.83356 0.60639 0.95596 0.0
C454 C 0.78288 0.57781 0.82978 0.0
H455 H 0.76399 0.58391 0.86148 0.0
H456 H 0.7831 0.55505 0.8217 0.0
H457 H 0.78236 0.58765 0.77333 0.0
C458 C 0.74438 0.59978 0.16611 0.0
N459 N 0.74908 0.61498 0.10205 0.0
N460 N 0.76632 0.6015 0.05866 0.0
C461 C 0.77306 0.57711 0.09426 0.0
C462 C 0.75925 0.57461 0.16508 0.0
C463 C 0.72773 0.61001 0.23149 0.0
H464 H 0.72692 0.63291 0.23195 0.0
H465 H 0.70638 0.6017 0.22699 0.0
H466 H 0.73666 0.60252 0.28533 0.0
O467 O 0.7701 0.68115 0.07471 0.0
O468 O 0.79895 0.65878 1.00051 0.0
H469 H 0.81426 0.5637 0.07015 0.0
H470 H 0.7901 0.53588 0.08847 0.0
C471 C 0.79267 0.55643 0.06145 0.0
H472 H 0.78919 0.55462 0.99994 0.0
H473 H 0.83889 0.61845 1.00244 0.0
O474 O 0.70874 0.66262 0.12191 0.0
C475 C 0.79345 0.67977 0.04085 0.0
Co476 Co 0.40555 0.73266 0.07799 0.0
Co477 Co 0.43333 0.77132 0.9777 0.0
C478 C 0.40274 0.71832 0.9127 0.0
O479 O 0.39786 0.71152 0.98079 0.0
O480 O 0.41747 0.74026 0.90103 0.0
C481 C 0.39923 0.68377 0.16038 0.0
O482 O 0.41177 0.67155 0.10372 0.0
C483 C 0.48009 0.7937 0.89916 0.0
C484 C 0.47227 0.83871 0.90771 0.0
C485 C 0.49234 0.81946 0.88904 0.0
N486 N 0.4545 0.79767 0.92568 0.0
N487 N 0.44963 0.82455 0.92932 0.0
C488 C 0.49204 0.76553 0.88589 0.0
H489 H 0.47518 0.75061 0.87325 0.0
H490 H 0.50263 0.75827 0.9376 0.0
H491 H 0.50714 0.76589 0.83862 0.0
C492 C 0.46306 0.73544 0.16767 0.0
N493 N 0.4452 0.7412 0.10916 0.0
N494 N 0.45611 0.76121 0.06921 0.0
C495 C 0.47974 0.77024 0.10528 0.0
C496 C 0.48568 0.75398 0.17004 0.0
C497 C 0.46109 0.71072 0.21745 0.0
H498 H 0.45114 0.69346 0.18755 0.0
H499 H 0.48205 0.70371 0.23477 0.0
H500 H 0.4497 0.71641 0.26917 0.0
O501 O 0.37805 0.76608 0.08009 0.0
O502 O 0.40118 0.79433 1.00622 0.0
H503 H 0.5046 0.80568 0.13477 0.0
H504 H 0.51049 0.79197 0.04199 0.0
C505 C 0.49439 0.79643 0.0848 0.0
H506 H 0.47951 0.81152 0.06107 0.0
H507 H 0.43158 0.83332 0.95121 0.0
O508 O 0.39217 0.70889 0.15505 0.0
C509 C 0.38001 0.78937 0.04626 0.0
Co510 Co 0.32572 0.40313 0.08585 0.0
Co511 Co 0.2912 0.431 0.97415 0.0
C512 C 0.34366 0.3997 0.91819 0.0
O513 O 0.34761 0.3945 0.98797 0.0
O514 O 0.32308 0.41552 0.90098 0.0
C515 C 0.37374 0.40374 0.17209 0.0
O516 O 0.3831 0.42071 0.12012 0.0
C517 C 0.26346 0.46913 0.87035 0.0
C518 C 0.2196 0.46171 0.90205 0.0
C519 C 0.23654 0.4774 0.85641 0.0
N520 N 0.26258 0.44893 0.92163 0.0
N521 N 0.23629 0.44431 0.93952 0.0
C522 C 0.28955 0.48209 0.8413 0.0
H523 H 0.30796 0.47335 0.87017 0.0
H524 H 0.2888 0.50483 0.84965 0.0
H525 H 0.2912 0.47826 0.77984 0.0
C526 C 0.31877 0.45948 0.1744 0.0
N527 N 0.31579 0.44242 0.113 0.0
N528 N 0.30109 0.45549 0.06236 0.0
C529 C 0.29456 0.48125 0.09062 0.0
C530 C 0.30597 0.48528 0.16362 0.0
C531 C 0.32996 0.45033 0.24811 0.0
H532 H 0.32184 0.42941 0.25966 0.0
H533 H 0.35288 0.45047 0.24538 0.0
H534 H 0.32345 0.46418 0.29469 0.0
O535 O 0.29341 0.37555 0.09004 0.0
O536 O 0.26899 0.39742 1.00487 0.0
H537 H 0.2561 0.4922 0.03997 0.0
H538 H 0.27444 0.52107 0.08188 0.0
C539 C 0.2768 0.50153 0.04974 0.0
H540 H 0.28618 0.50606 0.99403 0.0
H541 H 0.22968 0.43029 0.98042 0.0
O542 O 0.35035 0.39219 0.16394 0.0
C543 C 0.27179 0.37702 0.04912 0.0
C544 C 0.20034 0.34182 0.03905 0.0
C545 C 0.20634 0.31327 1.03629 0.0
C546 C 0.2215 0.36201 0.04381 0.0
C547 C 0.24978 0.35475 0.04917 0.0
H548 H 0.17898 0.34871 1.03693 0.0
H549 H 0.21557 0.3836 0.04412 0.0
S550 S 0.27699 0.28295 0.04614 0.0
N551 N 0.24304 0.27892 0.03913 0.0
N552 N 0.28251 0.31663 0.05117 0.0
C553 C 0.25611 0.32628 0.04753 0.0
C554 C 0.23456 0.30568 0.04028 0.0
C555 C 0.70133 0.22044 1.02718 0.0
C556 C 0.70727 0.24892 1.03355 0.0
C557 C 0.72249 0.20034 1.0222 0.0
C558 C 0.75087 0.20756 1.02053 0.0
H559 H 0.67997 0.21348 1.02678 0.0
H560 H 0.71649 0.17878 1.01937 0.0
S561 S 0.77811 0.27923 1.03345 0.0
N562 N 0.74409 0.28323 0.0375 0.0
N563 N 0.78368 0.24563 1.02559 0.0
C564 C 0.75722 0.23599 1.02556 0.0
C565 C 0.73558 0.25652 1.03278 0.0
C566 C 0.84287 0.69761 0.04368 0.0
C567 C 0.81411 0.70319 0.04263 0.0
C568 C 0.86287 0.71896 0.03857 0.0
C569 C 0.85516 0.74687 1.02892 0.0
H570 H 0.85002 0.67646 0.04858 0.0
H571 H 0.88463 0.71346 0.04064 0.0
S572 S 0.78271 0.77282 1.0219 0.0
N573 N 0.77913 0.73906 1.0325 0.0
N574 N 0.81645 0.7788 1.01956 0.0
C575 C 0.82649 0.75273 1.02736 0.0
C576 C 0.80611 0.73107 1.03506 0.0
C577 C 0.32948 0.80507 1.03614 0.0
C578 C 0.3577 0.81123 0.04953 0.0
C579 C 0.30928 0.8263 1.02798 0.0
C580 C 0.3163 0.85462 1.0342 0.0
H581 H 0.32308 0.78374 1.02955 0.0
H582 H 0.28794 0.82044 1.01773 0.0
S583 S 0.38722 0.88175 0.06999 0.0
N584 N 0.39131 0.84788 0.06852 0.0
N585 N 0.35387 0.88716 0.05536 0.0
C586 C 0.34439 0.86082 0.04867 0.0
C587 C 0.36487 0.83939 0.05564 0.0
C588 C 0.23522 0.75427 0.5349 0.0
C589 C 0.20691 0.74742 0.5443 0.0
C590 C 0.25595 0.73358 0.52694 0.0
C591 C 0.2494 0.7051 0.52964 0.0
H592 H 0.24132 0.77579 0.53166 0.0
H593 H 0.27734 0.73997 0.52001 0.0
S594 S 0.17854 0.6761 0.55442 0.0
N595 N 0.17375 0.70989 0.55571 0.0
N596 N 0.21222 0.67154 0.5431 0.0
C597 C 0.22122 0.69814 0.53997 0.0
C598 C 0.20019 0.71907 0.54658 0.0
C599 C 0.33013 0.25554 0.53534 0.0
C600 C 0.3586 0.24853 0.53529 0.0
C601 C 0.30908 0.23515 0.54364 0.0
C602 C 0.31551 0.20675 0.55068 0.0
H603 H 0.32407 0.27702 0.53049 0.0
H604 H 0.28758 0.24161 0.54264 0.0
S605 S 0.38656 0.17722 0.55311 0.0
N606 N 0.39167 0.21079 0.54358 0.0
N607 N 0.35261 0.17299 0.55679 0.0
C608 C 0.34382 0.19956 0.55007 0.0
C609 C 0.36514 0.22023 0.54313 0.0
C610 C 0.82636 0.34059 0.46783 0.0
C611 C 0.81395 0.35188 0.53279 0.0
C612 C 0.84734 0.3202 0.47268 0.0
C613 C 0.85629 0.30934 0.54253 0.0
H614 H 0.82036 0.34809 0.41276 0.0
H615 H 0.85658 0.31273 0.42088 0.0
S616 S 0.82958 0.33081 0.7296 0.0
N617 N 0.81207 0.35017 0.66958 0.0
N618 N 0.8503 0.31122 0.67807 0.0
C619 C 0.84348 0.31987 0.60774 0.0
C620 C 0.82272 0.34123 0.60301 0.0
C621 C 0.73821 0.8454 0.59609 0.0
C622 C 0.74957 0.85659 0.52953 0.0
C623 C 0.71786 0.82423 0.594 0.0
C624 C 0.70857 0.81254 0.52544 0.0
H625 H 0.74447 0.85362 0.65016 0.0
H626 H 0.7094 0.81683 0.64687 0.0
S627 S 0.73271 0.83355 0.33528 0.0
N628 N 0.75012 0.85395 0.39289 0.0
N629 N 0.71321 0.81362 0.38943 0.0
C630 C 0.72041 0.82301 0.45874 0.0
C631 C 0.74046 0.8451 0.46071 0.0
C632 C 1.02674 0.34748 0.35867 0.0
C633 C 1.00202 0.34179 0.32008 0.0
C634 C 0.05198 0.34806 0.32005 0.0
C635 C 0.05273 0.34354 0.24223 0.0
H636 H 1.02689 0.34879 0.4196 0.0
H637 H 0.07107 0.34982 0.35178 0.0
S638 S 0.9932 0.33196 0.11514 0.0
N639 N 0.97928 0.33452 0.19997 0.0
N640 N 1.02689 0.33647 0.12667 0.0
C641 C 1.02791 0.34064 0.20226 0.0
C642 C 1.00234 0.33956 0.2416 0.0
C643 C 0.71269 1.01491 0.25911 0.0
C644 C 0.71982 1.01399 0.33543 0.0
C645 C 0.71348 0.03996 0.22012 0.0
C646 C 0.72172 0.0643 0.2569 0.0
H647 H 0.70896 0.99597 0.22813 0.0
H648 H 0.71021 0.03983 0.15976 0.0
S649 S 0.737 0.07298 0.45934 0.0
N650 N 0.73074 0.03961 0.44908 0.0
N651 N 0.73309 0.08681 0.37494 0.0
C652 C 0.72611 0.06398 0.33463 0.0
C653 C 0.7249 0.03863 0.37436 0.0
C654 C 1.02258 0.75709 0.37876 0.0
C655 C 0.04286 0.7372 0.36275 0.0
C656 C 0.997 0.75638 0.34313 0.0
C657 C 0.99053 0.73518 0.29199 0.0
H658 H 1.02693 0.77447 0.41497 0.0
H659 H 0.98403 0.77426 0.35056 0.0
S660 S 0.03232 0.67204 0.2571 0.0
N661 N 0.05227 0.69173 0.3102 0.0
N662 N 1.00303 0.68929 0.24666 0.0
C663 C 1.00852 0.71228 0.28805 0.0
C664 C 0.03507 0.71352 0.32255 0.0
C665 C 0.32956 0.03311 0.36103 0.0
C666 C 0.33313 0.05761 0.31993 0.0
C667 C 0.33247 1.00757 0.32586 0.0
C668 C 0.33907 1.00615 0.24909 0.0
H669 H 0.32289 0.03374 0.41933 0.0
H670 H 0.32744 0.98898 0.35716 0.0
S671 S 0.35441 0.06463 0.12081 0.0
N672 N 0.34681 0.07928 0.20231 0.0
N673 N 0.3522 0.03095 0.13518 0.0
C674 C 0.3454 0.03047 0.20949 0.0
C675 C 0.34239 0.05646 0.2454 0.0
C676 C 0.04796 0.78474 0.77524 0.0
C677 C 0.05308 0.80694 0.7242 0.0
C678 C 1.02617 0.78527 0.83133 0.0
C679 C 1.00758 0.80795 0.84029 0.0
H680 H 0.06122 0.76672 0.77258 0.0
H681 H 1.02366 0.76739 0.86735 0.0
S682 S 1.01184 0.87197 0.72361 0.0
N683 N 0.03699 0.85256 0.68903 0.0
N684 N 0.99742 0.85379 0.79205 0.0
C685 C 1.01269 0.83023 0.78971 0.0
C686 C 0.0348 0.82969 0.73305 0.0
C687 C 0.28336 1.02093 0.81771 0.0
C688 C 0.25893 1.00675 0.84186 0.0
C689 C 0.28335 0.0423 0.76057 0.0
C690 C 0.25883 0.05153 0.72347 0.0
H691 H 0.30299 1.0153 0.84284 0.0
H692 H 0.30286 0.05213 0.74655 0.0
S693 S 0.18874 1.0229 0.76594 0.0
N694 N 0.20916 1.00519 0.82277 0.0
N695 N 0.20916 0.04414 0.71853 0.0
C696 C 0.23435 0.03767 0.74762 0.0
C697 C 0.23439 1.01587 0.80508 0.0
C698 C 1.01989 0.2336 0.76515 0.0
C699 C 1.00984 0.25793 0.7291 0.0
C700 C 0.04104 0.23385 0.82235 0.0
C701 C 0.05337 0.25851 0.85045 0.0
H702 H 1.01154 0.21379 0.7482 0.0
H703 H 0.0476 0.21423 0.8456 0.0
S704 S 0.035 0.3285 0.77822 0.0
N705 N 1.01485 0.30784 0.72835 0.0
N706 N 0.05319 0.30835 0.83477 0.0
C707 C 0.04336 0.28304 0.81549 0.0
C708 C 1.02224 0.28274 0.75587 0.0
C709 C 0.80264 1.02522 0.85862 0.0
C710 C 0.80243 0.05401 0.84178 0.0
C711 C 0.80247 1.00395 0.80149 0.0
C712 C 0.8024 1.00955 0.72245 0.0
H713 H 0.80352 1.01885 0.917 0.0
H714 H 0.80233 0.98265 0.82014 0.0
S715 S 0.80023 0.08119 0.64505 0.0
N716 N 0.80002 0.0862 0.73699 0.0
N717 N 0.80163 0.04739 0.63281 0.0
C718 C 0.8017 0.03825 0.70509 0.0
C719 C 0.80136 0.05985 0.7631 0.0
C720 C 0.56835 0.80863 0.85581 0.0
C721 C 0.57417 0.82837 0.79968 0.0
C722 C 0.54243 0.80751 0.89011 0.0
C723 C 0.52123 0.82559 0.86842 0.0
H724 H 0.58242 0.79231 0.87009 0.0
H725 H 0.53867 0.79119 0.93044 0.0
S726 S 0.52947 0.88834 0.75081 0.0
N727 N 0.5597 0.87244 0.74525 0.0
N728 N 0.51002 0.86894 0.80635 0.0
C729 C 0.52819 0.84845 0.82369 0.0
C730 C 0.555 0.85018 0.79031 0.0
C731 C 0.22591 0.5036 0.74119 0.0
C732 C 0.22852 0.50293 0.81962 0.0
C733 C 0.22438 0.52888 0.70357 0.0
C734 C 0.22597 0.55379 0.74389 0.0
H735 H 0.22673 0.48465 0.70875 0.0
H736 H 0.2243 0.52897 0.64253 0.0
S737 S 0.23042 0.56244 0.95026 0.0
N738 N 0.23011 0.52864 0.93695 0.0
N739 N 0.22816 0.57644 0.8656 0.0
C740 C 0.2268 0.55327 0.82251 0.0
C741 C 0.22789 0.52761 0.86076 0.0
C742 C 0.55465 0.21075 0.75655 0.0
C743 C 0.55452 0.21507 0.83446 0.0
C744 C 0.52987 0.21134 0.71626 0.0
C745 C 0.5047 0.21689 0.7532 0.0
H746 H 0.57409 0.20922 0.72606 0.0
H747 H 0.53077 0.2102 0.65535 0.0
S748 S 0.49355 0.22588 0.95778 0.0
N749 N 0.52739 0.22169 0.94841 0.0
N750 N 0.48057 0.22342 0.87201 0.0
C751 C 0.50412 0.21872 0.83179 0.0
C752 C 0.52925 0.21769 0.87283 0.0
C753 C 0.84264 0.52609 0.86546 0.0
C754 C 0.84161 0.55095 0.82471 0.0
C755 C 0.83987 0.50079 0.82846 0.0
C756 C 0.83652 0.50005 0.75023 0.0
H757 H 0.84313 0.52632 0.92647 0.0
H758 H 0.83866 0.48194 0.86133 0.0
S759 S 0.83557 0.55933 0.61853 0.0
N760 N 0.8391 0.5734 0.70272 0.0
N761 N 0.83483 0.52557 0.63253 0.0
C762 C 0.83773 0.52461 0.70855 0.0
C763 C 0.8401 0.55028 0.74617 0.0
C764 C 0.54168 0.32774 0.252 0.0
C765 C 0.5538 0.3031 0.22295 0.0
C766 C 0.52049 0.32787 0.30941 0.0
C767 C 0.51019 0.30344 0.34457 0.0
H768 H 0.54844 0.34742 0.22938 0.0
H769 H 0.51231 0.34766 0.32724 0.0
S770 S 0.53458 0.23289 0.2923 0.0
N771 N 0.55307 0.25319 0.23655 0.0
N772 N 0.5146 0.25348 0.34311 0.0
C773 C 0.52232 0.27866 0.31664 0.0
C774 C 0.5435 0.27849 0.25693 0.0
C775 C 0.73528 0.54005 0.2585 0.0
C776 C 0.76001 0.55136 0.22719 0.0
C777 C 0.73513 0.51885 0.31542 0.0
C778 C 0.75967 0.50769 0.34783 0.0
H779 H 0.71551 0.54732 0.23766 0.0
H780 H 0.71525 0.511 0.33431 0.0
S781 S 0.83055 0.53 0.28996 0.0
N782 N 0.81019 0.54918 0.23644 0.0
N783 N 0.80985 0.51055 0.34217 0.0
C784 C 0.78458 0.5191 0.31811 0.0
C785 C 0.78476 0.54035 0.25887 0.0
C786 C 0.52648 0.75086 0.36496 0.0
C787 C 0.55484 0.75603 0.34771 0.0
C788 C 0.50485 0.75084 0.30896 0.0
C789 C 0.50962 0.75573 0.23062 0.0
H790 H 0.52079 0.74594 0.42239 0.0
H791 H 0.4839 0.74679 0.32797 0.0
S792 S 0.57991 0.7708 0.15272 0.0
N793 N 0.5857 0.7673 0.24382 0.0
N794 N 0.54631 0.76582 0.14097 0.0
C795 C 0.53787 0.76119 0.21284 0.0
C796 C 0.55983 0.76156 0.26993 0.0
C797 C 0.32938 0.54447 0.30405 0.0
C798 C 0.30484 0.5545 0.33937 0.0
C799 C 0.3294 0.5229 0.24819 0.0
C800 C 0.30481 0.51011 0.22084 0.0
H801 H 0.34916 0.55303 0.32093 0.0
H802 H 0.34919 0.51613 0.22597 0.0
S803 S 0.23434 0.52833 0.29139 0.0
N804 N 0.25479 0.54906 0.34018 0.0
N805 N 0.25481 0.50993 0.23593 0.0
C806 C 0.28006 0.52017 0.25479 0.0
C807 C 0.28008 0.54173 0.3131 0.0
C808 C 0.18309 0.19939 0.37828 0.0
C809 C 0.20215 0.17773 0.36084 0.0
C810 C 0.16791 0.21446 0.322 0.0
C811 C 0.17043 0.20889 0.24382 0.0
H812 H 0.18022 0.20533 0.43653 0.0
H813 H 0.15438 0.23102 0.34025 0.0
S814 S 0.21639 0.15357 0.16566 0.0
N815 N 0.22162 0.15149 0.25729 0.0
N816 N 0.19362 0.17865 0.15377 0.0
C817 C 0.18898 0.18681 0.22592 0.0
C818 C 0.20453 0.1717 0.28312 0.0
C819 C 0.88045 0.19348 0.20711 0.0
C820 C 0.85918 0.17387 0.22383 0.0
C821 C 0.89552 0.20833 0.26381 0.0
C822 C 0.89065 0.20467 0.34199 0.0
H823 H 0.88531 0.19798 0.14882 0.0
H824 H 0.91092 0.22324 0.24574 0.0
S825 S 0.83812 0.15522 0.41907 0.0
N826 N 0.83493 0.15158 0.32706 0.0
N827 N 0.86271 0.17853 0.43175 0.0
C828 C 0.86979 0.18467 0.35956 0.0
C829 C 0.85437 0.16969 0.3017 0.0
C830 C 0.8726 0.87462 0.33878 0.0
C831 C 0.85161 0.89443 0.32225 0.0
C832 C 0.88736 0.85952 0.28209 0.0
C833 C 0.88241 0.863 0.20399 0.0
H834 H 0.87753 0.87018 0.397 0.0
H835 H 0.90257 0.84447 0.30022 0.0
S836 S 0.83037 0.91262 0.12714 0.0
N837 N 0.82742 0.91668 0.21917 0.0
N838 N 0.85466 0.88901 0.11422 0.0
C839 C 0.86183 0.88314 0.18637 0.0
C840 C 0.84672 0.8985 0.24437 0.0
C841 C 0.21279 0.89364 0.31001 0.0
C842 C 0.20853 0.8893 0.23196 0.0
C843 C 0.19755 0.87894 0.36691 0.0
C844 C 0.17699 0.85862 0.35037 0.0
H845 H 0.22847 0.90826 0.32777 0.0
H846 H 0.20251 0.88327 0.42514 0.0
S847 S 0.15639 0.83948 0.15554 0.0
N848 N 0.18071 0.86308 0.14254 0.0
N849 N 0.1531 0.83594 0.24761 0.0
C850 C 0.1722 0.85441 0.27265 0.0
C851 C 0.18754 0.86946 0.21464 0.0
C852 C 0.91042 0.9013 0.78121 0.0
C853 C 0.89988 0.87517 0.80106 0.0
C854 C 0.9092 0.91035 0.70645 0.0
C855 C 0.89839 0.89292 0.65071 0.0
H856 H 0.91761 0.91549 0.82412 0.0
H857 H 0.91316 0.93196 0.69431 0.0
S858 S 0.87523 0.8207 0.66891 0.0
N859 N 0.88078 0.83131 0.75577 0.0
N860 N 0.88484 0.8467 0.61475 0.0
C861 C 0.89365 0.86514 0.66746 0.0
C862 C 0.89155 0.85693 0.74343 0.0
C863 C 0.16088 0.90892 0.76457 0.0
C864 C 0.16607 0.88104 0.74726 0.0
C865 C 0.16126 0.91784 0.83947 0.0
C866 C 0.16674 0.89889 0.89731 0.0
H867 H 0.15851 0.92411 0.7202 0.0
H868 H 0.16132 0.93984 0.85083 0.0
S869 S 0.17222 0.82313 0.885 0.0
N870 N 0.17182 0.83404 0.79703 0.0
N871 N 0.16806 0.85112 0.93668 0.0
C872 C 0.16552 0.87068 0.88198 0.0
C873 C 0.16772 0.86167 0.80675 0.0
C874 C 0.15514 0.15495 0.77706 0.0
C875 C 0.1827 0.1622 0.75999 0.0
C876 C 0.14548 0.15635 0.85134 0.0
C877 C 0.16357 0.16413 0.90926 0.0
H878 H 0.14056 0.15024 0.73256 0.0
H879 H 0.12337 0.15496 0.86171 0.0
S880 S 0.23853 0.17795 0.8985 0.0
N881 N 0.22826 0.17501 0.81042 0.0
N882 N 0.21086 0.17098 0.94976 0.0
C883 C 0.19199 0.16536 0.89489 0.0
C884 C 0.20128 0.16735 0.81977 0.0
C885 C 0.87119 0.16085 0.77514 0.0
C886 C 0.88974 0.16056 0.83622 0.0
C887 C 0.88059 0.15956 0.70178 0.0
C888 C 0.9088 0.16311 0.68701 0.0
H889 H 0.84903 0.163 0.78336 0.0
H890 H 0.86549 0.16189 0.65701 0.0
S891 S 0.96621 0.15559 0.82337 0.0
N892 N 0.93779 0.15553 0.87576 0.0
N893 N 0.95574 0.15856 0.73511 0.0
C894 C 0.92783 0.15904 0.74559 0.0
C895 C 0.91818 0.15763 0.82135 0.0
C896 C 0.68996 0.68608 0.84499 0.0
C897 C 0.71145 0.66675 0.82866 0.0
C898 C 0.67524 0.7011 0.78822 0.0
C899 C 0.68067 0.69792 0.71021 0.0
H900 H 0.68462 0.69024 0.90314 0.0
H901 H 0.65963 0.71578 0.80619 0.0
S902 S 0.7341 0.64949 0.63386 0.0
N903 N 0.73664 0.64526 0.72589 0.0
N904 N 0.70941 0.67266 0.62073 0.0
C905 C 0.70175 0.67822 0.69278 0.0
C906 C 0.71687 0.66301 0.75089 0.0
C907 C 0.35333 0.66618 0.80754 0.0
C908 C 0.35722 0.67122 0.72958 0.0
C909 C 0.36848 0.6807 0.86465 0.0
C910 C 0.38859 0.70155 0.84849 0.0
H911 H 0.33803 0.65108 0.8251 0.0
H912 H 0.36381 0.67578 0.9228 0.0
S913 S 0.40803 0.72274 0.65402 0.0
N914 N 0.38416 0.69876 0.64061 0.0
N915 N 0.4116 0.72558 0.74613 0.0
C916 C 0.39299 0.70651 0.77085 0.0
C917 C 0.37774 0.69163 0.71258 0.0
C918 C 0.3577 0.38878 0.77922 0.0
C919 C 0.36195 0.38501 0.85753 0.0
C920 C 0.37296 0.37384 0.72309 0.0
C921 C 0.39363 0.35374 0.74044 0.0
H922 H 0.34201 0.40323 0.7606 0.0
H923 H 0.36796 0.37785 0.6647 0.0
S924 S 0.41402 0.33572 0.93628 0.0
N925 N 0.38967 0.35934 0.94823 0.0
N926 N 0.41746 0.33171 0.84438 0.0
C927 C 0.3984 0.35001 0.81844 0.0
C928 C 0.38296 0.36535 0.87583 0.0
C929 C 0.70335 0.38824 0.7864 0.0
C930 C 0.70125 0.38261 0.70834 0.0
C931 C 0.68798 0.37328 0.84219 0.0
C932 C 0.66929 0.35135 0.82477 0.0
H933 H 0.7175 0.40418 0.80524 0.0
H934 H 0.69136 0.3788 0.90053 0.0
S935 S 0.65486 0.32805 0.62919 0.0
N936 N 0.67767 0.3532 0.61743 0.0
N937 N 0.64955 0.32556 0.72088 0.0
C938 C 0.66657 0.34576 0.74687 0.0
C939 C 0.68218 0.3611 0.68973 0.0
C940 C 0.3673 0.39935 0.30867 0.0
C941 C 0.38548 0.40386 0.24788 0.0
C942 C 0.37677 0.39883 0.38177 0.0
C943 C 0.40523 0.39747 0.39529 0.0
H944 H 0.3456 0.39478 0.30028 0.0
H945 H 0.36203 0.39361 0.42587 0.0
S946 S 0.46148 0.41349 0.2599 0.0
N947 N 0.43289 0.41369 0.20867 0.0
N948 N 0.4516 0.40675 0.34725 0.0
C949 C 0.42373 0.40486 0.33756 0.0
C950 C 0.41367 0.4084 0.26284 0.0
C951 C 0.65743 0.40697 0.29499 0.0
C952 C 0.68468 0.39862 0.31142 0.0
C953 C 0.6476 0.40584 0.22096 0.0
C954 C 0.66533 0.39747 0.16255 0.0
H955 H 0.64316 0.41237 0.33985 0.0
H956 H 0.62554 0.40803 0.21113 0.0
S957 S 0.73952 0.38016 0.17186 0.0
N958 N 0.72939 0.3834 0.26012 0.0
N959 N 0.71227 0.38867 0.12115 0.0
C960 C 0.69369 0.39508 0.17639 0.0
C961 C 0.70289 0.39252 0.2513 0.0
C962 C 0.6597 0.6408 0.23006 0.0
C963 C 0.66442 0.6587 0.16923 0.0
C964 C 0.66074 0.65091 0.30378 0.0
C965 C 0.66659 0.67897 0.31713 0.0
H966 H 0.65918 0.61864 0.22135 0.0
H967 H 0.65882 0.63647 0.35014 0.0
S968 S 0.67168 0.73446 0.17183 0.0
N969 N 0.66591 0.7058 0.12421 0.0
N970 N 0.67263 0.72495 0.26096 0.0
C971 C 0.66759 0.69732 0.25519 0.0
C972 C 0.66389 0.68716 0.18145 0.0
C973 C 0.40309 0.68287 0.37065 0.0
C974 C 0.39857 0.655 0.38682 0.0
C975 C 0.40244 0.69172 0.29674 0.0
C976 C 0.40149 0.67269 0.23679 0.0
H977 H 0.40136 0.69831 0.4147 0.0
H978 H 0.40185 0.71383 0.2871 0.0
S979 S 0.40434 0.59647 0.25355 0.0
N980 N 0.40174 0.60771 0.34126 0.0
N981 N 0.40501 0.62437 0.19965 0.0
C982 C 0.40354 0.6444 0.25304 0.0
C983 C 0.40202 0.63544 0.32927 0.0
loop_
_geom_bond_atom_site_label_1
_geom_bond_atom_site_label_2
_geom_bond_distance
_geom_bond_site_symmetry_2
_ccdc_geom_bond_type
Co0 O3 1.970 1_556 S
Co0 N17 1.989 . S
Co0 O25 1.967 . S
Co0 O32 1.920 . S
Co1 O4 1.966 . S
Co1 N10 2.022 . S
Co1 N18 1.993 1_554 S
Co1 O26 1.941 . S
C2 O3 1.258 . S
C2 O4 1.263 . S
O3 Co0 1.970 1_554 S
O3 C2 1.258 . S
O4 Co1 1.966 . S
O4 C2 1.263 . S
C5 O6 1.235 . S
C5 O32 1.289 . S
O6 C5 1.235 . S
C7 C9 1.400 . S
C7 N10 1.351 . S
C7 C12 1.501 . S
C8 C9 1.387 . S
C8 N11 1.341 . S
C9 C7 1.400 . S
C9 C8 1.387 . S
N10 Co1 2.022 . S
N10 C7 1.351 . S
N10 N11 1.365 . S
N11 C8 1.341 . S
N11 N10 1.365 . S
N11 H31 0.862 . S
C12 C7 1.501 . S
C12 H13 0.961 . S
C12 H14 0.961 . S
C12 H15 0.960 . S
H13 C12 0.961 . S
H14 C12 0.961 . S
H15 C12 0.960 . S
C16 N17 1.342 . S
C16 C20 1.401 . S
C16 C21 1.499 . S
N17 Co0 1.989 . S
N17 C16 1.342 . S
N17 N18 1.388 . S
N18 Co1 1.993 1_556 S
N18 N17 1.388 . S
N18 C19 1.346 . S
C19 N18 1.346 . S
C19 C20 1.396 . S
C19 C29 1.510 . S
C20 C16 1.401 . S
C20 C19 1.396 . S
C21 C16 1.499 . S
C21 H22 0.959 . S
C21 H23 0.960 . S
C21 H24 0.961 . S
H22 C21 0.959 . S
H23 C21 0.960 . S
H24 C21 0.961 . S
O25 Co0 1.967 . S
O25 C33 1.258 1_556 S
O26 Co1 1.941 . S
O26 C33 1.266 . S
H27 C29 0.959 . S
H28 C29 0.961 . S
C29 C19 1.510 . S
C29 H27 0.959 . S
C29 H28 0.961 . S
C29 H30 0.960 1_556 S
H30 C29 0.960 1_554 S
H31 N11 0.862 . S
O32 Co0 1.920 . S
O32 C5 1.289 . S
C33 O25 1.258 1_554 S
C33 O26 1.266 . S
Co34 O37 1.970 1_556 S
Co34 N51 1.989 . S
Co34 O59 1.967 . S
Co34 O66 1.920 . S
Co35 O38 1.966 . S
Co35 N44 2.022 . S
Co35 N52 1.993 1_554 S
Co35 O60 1.941 . S
C36 O37 1.258 . S
C36 O38 1.263 . S
O37 Co34 1.970 1_554 S
O37 C36 1.258 . S
O38 Co35 1.966 . S
O38 C36 1.263 . S
C39 O40 1.235 . S
C39 O66 1.289 . S
O40 C39 1.235 . S
C41 C43 1.400 . S
C41 N44 1.351 . S
C41 C46 1.501 . S
C42 C43 1.387 . S
C42 N45 1.341 . S
C43 C41 1.400 . S
C43 C42 1.387 . S
N44 Co35 2.022 . S
N44 C41 1.351 . S
N44 N45 1.365 . S
N45 C42 1.341 . S
N45 N44 1.365 . S
N45 H65 0.862 . S
C46 C41 1.501 . S
C46 H47 0.961 . S
C46 H48 0.961 . S
C46 H49 0.960 . S
H47 C46 0.961 . S
H48 C46 0.961 . S
H49 C46 0.960 . S
C50 N51 1.342 . S
C50 C54 1.401 . S
C50 C55 1.499 . S
N51 Co34 1.989 . S
N51 C50 1.342 . S
N51 N52 1.388 . S
N52 Co35 1.993 1_556 S
N52 N51 1.388 . S
N52 C53 1.346 . S
C53 N52 1.346 . S
C53 C54 1.396 . S
C53 C63 1.510 . S
C54 C50 1.401 . S
C54 C53 1.396 . S
C55 C50 1.499 . S
C55 H56 0.959 . S
C55 H57 0.960 . S
C55 H58 0.961 . S
H56 C55 0.959 . S
H57 C55 0.960 . S
H58 C55 0.961 . S
O59 Co34 1.967 . S
O59 C67 1.258 1_556 S
O60 Co35 1.941 . S
O60 C67 1.266 . S
H61 C63 0.959 . S
H62 C63 0.961 . S
C63 C53 1.510 . S
C63 H61 0.959 . S
C63 H62 0.961 . S
C63 H64 0.960 1_556 S
H64 C63 0.960 1_554 S
H65 N45 0.862 . S
O66 Co34 1.920 . S
O66 C39 1.289 . S
C67 O59 1.258 1_554 S
C67 O60 1.266 . S
Co68 O71 1.970 1_556 S
Co68 N85 1.989 . S
Co68 O93 1.967 . S
Co68 O100 1.920 . S
Co69 O72 1.966 . S
Co69 N78 2.022 . S
Co69 N86 1.993 1_554 S
Co69 O94 1.941 . S
C70 O71 1.258 . S
C70 O72 1.263 . S
O71 Co68 1.970 1_554 S
O71 C70 1.258 . S
O72 Co69 1.966 . S
O72 C70 1.263 . S
C73 O74 1.235 . S
C73 O100 1.289 . S
O74 C73 1.235 . S
C75 C77 1.400 . S
C75 N78 1.351 . S
C75 C80 1.501 . S
C76 C77 1.387 . S
C76 N79 1.341 . S
C77 C75 1.400 . S
C77 C76 1.387 . S
N78 Co69 2.022 . S
N78 C75 1.351 . S
N78 N79 1.365 . S
N79 C76 1.341 . S
N79 N78 1.365 . S
N79 H99 0.862 . S
C80 C75 1.501 . S
C80 H81 0.961 . S
C80 H82 0.961 . S
C80 H83 0.960 . S
H81 C80 0.961 . S
H82 C80 0.961 . S
H83 C80 0.960 . S
C84 N85 1.342 . S
C84 C88 1.401 . S
C84 C89 1.499 . S
N85 Co68 1.989 . S
N85 C84 1.342 . S
N85 N86 1.388 . S
N86 Co69 1.993 1_556 S
N86 N85 1.388 . S
N86 C87 1.346 . S
C87 N86 1.346 . S
C87 C88 1.396 . S
C87 C97 1.510 . S
C88 C84 1.401 . S
C88 C87 1.396 . S
C89 C84 1.499 . S
C89 H90 0.959 . S
C89 H91 0.960 . S
C89 H92 0.961 . S
H90 C89 0.959 . S
H91 C89 0.960 . S
H92 C89 0.961 . S
O93 Co68 1.967 . S
O93 C101 1.258 1_556 S
O94 Co69 1.941 . S
O94 C101 1.266 . S
H95 C97 0.959 . S
H96 C97 0.961 . S
C97 C87 1.510 . S
C97 H95 0.959 . S
C97 H96 0.961 . S
C97 H98 0.960 1_556 S
H98 C97 0.960 1_554 S
H99 N79 0.862 . S
O100 Co68 1.920 . S
O100 C73 1.289 . S
C101 O93 1.258 1_554 S
C101 O94 1.266 . S
Co102 O105 1.970 1_556 S
Co102 N119 1.989 . S
Co102 O127 1.967 . S
Co102 O134 1.920 . S
Co103 O106 1.966 . S
Co103 N112 2.022 . S
Co103 N120 1.993 1_554 S
Co103 O128 1.941 . S
C104 O105 1.258 . S
C104 O106 1.263 . S
O105 Co102 1.970 1_554 S
O105 C104 1.258 . S
O106 Co103 1.966 . S
O106 C104 1.263 . S
C107 O108 1.235 . S
C107 O134 1.289 . S
O108 C107 1.235 . S
C109 C111 1.400 . S
C109 N112 1.351 . S
C109 C114 1.501 . S
C110 C111 1.387 . S
C110 N113 1.341 . S
C111 C109 1.400 . S
C111 C110 1.387 . S
N112 Co103 2.022 . S
N112 C109 1.351 . S
N112 N113 1.365 . S
N113 C110 1.341 . S
N113 N112 1.365 . S
N113 H133 0.862 . S
C114 C109 1.501 . S
C114 H115 0.961 . S
C114 H116 0.961 . S
C114 H117 0.960 . S
H115 C114 0.961 . S
H116 C114 0.961 . S
H117 C114 0.960 . S
C118 N119 1.342 . S
C118 C122 1.401 . S
C118 C123 1.499 . S
N119 Co102 1.989 . S
N119 C118 1.342 . S
N119 N120 1.388 . S
N120 Co103 1.993 1_556 S
N120 N119 1.388 . S
N120 C121 1.346 . S
C121 N120 1.346 . S
C121 C122 1.396 . S
C121 C131 1.510 . S
C122 C118 1.401 . S
C122 C121 1.396 . S
C123 C118 1.499 . S
C123 H124 0.959 . S
C123 H125 0.960 . S
C123 H126 0.961 . S
H124 C123 0.959 . S
H125 C123 0.960 . S
H126 C123 0.961 . S
O127 Co102 1.967 . S
O127 C135 1.258 1_556 S
O128 Co103 1.941 . S
O128 C135 1.266 . S
H129 C131 0.959 . S
H130 C131 0.961 . S
C131 C121 1.510 . S
C131 H129 0.959 . S
C131 H130 0.961 . S
C131 H132 0.960 1_556 S
H132 C131 0.960 1_554 S
H133 N113 0.862 . S
O134 Co102 1.920 . S
O134 C107 1.289 . S
C135 O127 1.258 1_554 S
C135 O128 1.266 . S
Co136 O139 1.970 . S
Co136 N153 1.989 . S
Co136 O161 1.967 . S
Co136 O168 1.920 . S
Co137 O140 1.966 . S
Co137 N146 2.022 . S
Co137 N154 1.993 . S
Co137 O162 1.941 . S
C138 O139 1.258 . S
C138 O140 1.263 . S
O139 Co136 1.970 . S
O139 C138 1.258 . S
O140 Co137 1.966 . S
O140 C138 1.263 . S
C141 O142 1.235 . S
C141 O168 1.289 . S
O142 C141 1.235 . S
C143 C145 1.400 . S
C143 N146 1.351 . S
C143 C148 1.501 . S
C144 C145 1.387 . S
C144 N147 1.341 . S
C145 C143 1.400 . S
C145 C144 1.387 . S
N146 Co137 2.022 . S
N146 C143 1.351 . S
N146 N147 1.365 . S
N147 C144 1.341 . S
N147 N146 1.365 . S
N147 H167 0.862 . S
C148 C143 1.501 . S
C148 H149 0.961 . S
C148 H150 0.961 . S
C148 H151 0.960 . S
H149 C148 0.961 . S
H150 C148 0.961 . S
H151 C148 0.960 . S
C152 N153 1.342 . S
C152 C156 1.401 . S
C152 C157 1.499 . S
N153 Co136 1.989 . S
N153 C152 1.342 . S
N153 N154 1.388 . S
N154 Co137 1.993 . S
N154 N153 1.388 . S
N154 C155 1.346 . S
C155 N154 1.346 . S
C155 C156 1.396 . S
C155 C165 1.510 . S
C156 C152 1.401 . S
C156 C155 1.396 . S
C157 C152 1.499 . S
C157 H158 0.959 . S
C157 H159 0.960 . S
C157 H160 0.961 . S
H158 C157 0.959 . S
H159 C157 0.960 . S
H160 C157 0.961 . S
O161 Co136 1.967 . S
O161 C169 1.258 . S
O162 Co137 1.941 . S
O162 C169 1.266 . S
H163 C165 0.959 . S
H164 C165 0.961 . S
C165 C155 1.510 . S
C165 H163 0.959 . S
C165 H164 0.961 . S
C165 H166 0.960 . S
H166 C165 0.960 . S
H167 N147 0.862 . S
O168 Co136 1.920 . S
O168 C141 1.289 . S
C169 O161 1.258 . S
C169 O162 1.266 . S
Co170 O173 1.970 . S
Co170 N187 1.989 . S
Co170 O195 1.967 . S
Co170 O202 1.920 . S
Co171 O174 1.966 . S
Co171 N180 2.022 . S
Co171 N188 1.993 . S
Co171 O196 1.941 . S
C172 O173 1.258 . S
C172 O174 1.263 . S
O173 Co170 1.970 . S
O173 C172 1.258 . S
O174 Co171 1.966 . S
O174 C172 1.263 . S
C175 O176 1.235 . S
C175 O202 1.289 . S
O176 C175 1.235 . S
C177 C179 1.400 . S
C177 N180 1.351 . S
C177 C182 1.501 . S
C178 C179 1.387 . S
C178 N181 1.341 . S
C179 C177 1.400 . S
C179 C178 1.387 . S
N180 Co171 2.022 . S
N180 C177 1.351 . S
N180 N181 1.365 . S
N181 C178 1.341 . S
N181 N180 1.365 . S
N181 H201 0.862 . S
C182 C177 1.501 . S
C182 H183 0.961 . S
C182 H184 0.961 . S
C182 H185 0.960 . S
H183 C182 0.961 . S
H184 C182 0.961 . S
H185 C182 0.960 . S
C186 N187 1.342 . S
C186 C190 1.401 . S
C186 C191 1.499 . S
N187 Co170 1.989 . S
N187 C186 1.342 . S
N187 N188 1.388 . S
N188 Co171 1.993 . S
N188 N187 1.388 . S
N188 C189 1.346 . S
C189 N188 1.346 . S
C189 C190 1.396 . S
C189 C199 1.510 . S
C190 C186 1.401 . S
C190 C189 1.396 . S
C191 C186 1.499 . S
C191 H192 0.959 . S
C191 H193 0.960 . S
C191 H194 0.961 . S
H192 C191 0.959 . S
H193 C191 0.960 . S
H194 C191 0.961 . S
O195 Co170 1.967 . S
O195 C203 1.258 . S
O196 Co171 1.941 . S
O196 C203 1.266 . S
H197 C199 0.959 . S
H198 C199 0.961 . S
C199 C189 1.510 . S
C199 H197 0.959 . S
C199 H198 0.961 . S
C199 H200 0.960 . S
H200 C199 0.960 . S
H201 N181 0.862 . S
O202 Co170 1.920 . S
O202 C175 1.289 . S
C203 O195 1.258 . S
C203 O196 1.266 . S
Co204 O207 1.970 . S
Co204 N221 1.989 . S
Co204 O229 1.967 . S
Co204 O236 1.920 . S
Co205 O208 1.966 . S
Co205 N214 2.022 . S
Co205 N222 1.993 . S
Co205 O230 1.941 . S
C206 O207 1.258 . S
C206 O208 1.263 . S
O207 Co204 1.970 . S
O207 C206 1.258 . S
O208 Co205 1.966 . S
O208 C206 1.263 . S
C209 O210 1.235 . S
C209 O236 1.289 . S
O210 C209 1.235 . S
C211 C213 1.400 . S
C211 N214 1.351 . S
C211 C216 1.501 . S
C212 C213 1.387 . S
C212 N215 1.341 . S
C213 C211 1.400 . S
C213 C212 1.387 . S
N214 Co205 2.022 . S
N214 C211 1.351 . S
N214 N215 1.365 . S
N215 C212 1.341 . S
N215 N214 1.365 . S
N215 H235 0.862 . S
C216 C211 1.501 . S
C216 H217 0.961 . S
C216 H218 0.961 . S
C216 H219 0.960 . S
H217 C216 0.961 . S
H218 C216 0.961 . S
H219 C216 0.960 . S
C220 N221 1.342 . S
C220 C224 1.401 . S
C220 C225 1.499 . S
N221 Co204 1.989 . S
N221 C220 1.342 . S
N221 N222 1.388 . S
N222 Co205 1.993 . S
N222 N221 1.388 . S
N222 C223 1.346 . S
C223 N222 1.346 . S
C223 C224 1.396 . S
C223 C233 1.510 . S
C224 C220 1.401 . S
C224 C223 1.396 . S
C225 C220 1.499 . S
C225 H226 0.959 . S
C225 H227 0.960 . S
C225 H228 0.961 . S
H226 C225 0.959 . S
H227 C225 0.960 . S
H228 C225 0.961 . S
O229 Co204 1.967 . S
O229 C237 1.258 . S
O230 Co205 1.941 . S
O230 C237 1.266 . S
H231 C233 0.959 . S
H232 C233 0.961 . S
C233 C223 1.510 . S
C233 H231 0.959 . S
C233 H232 0.961 . S
C233 H234 0.960 . S
H234 C233 0.960 . S
H235 N215 0.862 . S
O236 Co204 1.920 . S
O236 C209 1.289 . S
C237 O229 1.258 . S
C237 O230 1.266 . S
Co238 O241 1.970 . S
Co238 N255 1.989 . S
Co238 O263 1.967 . S
Co238 O270 1.920 . S
Co239 O242 1.966 . S
Co239 N248 2.022 . S
Co239 N256 1.993 . S
Co239 O264 1.941 . S
C240 O241 1.258 . S
C240 O242 1.263 . S
O241 Co238 1.970 . S
O241 C240 1.258 . S
O242 Co239 1.966 . S
O242 C240 1.263 . S
C243 O244 1.235 . S
C243 O270 1.289 . S
O244 C243 1.235 . S
C245 C247 1.400 . S
C245 N248 1.351 . S
C245 C250 1.501 . S
C246 C247 1.387 . S
C246 N249 1.341 . S
C247 C245 1.400 . S
C247 C246 1.387 . S
N248 Co239 2.022 . S
N248 C245 1.351 . S
N248 N249 1.365 . S
N249 C246 1.341 . S
N249 N248 1.365 . S
N249 H269 0.862 . S
C250 C245 1.501 . S
C250 H251 0.961 . S
C250 H252 0.961 . S
C250 H253 0.960 . S
H251 C250 0.961 . S
H252 C250 0.961 . S
H253 C250 0.960 . S
C254 N255 1.342 . S
C254 C258 1.401 . S
C254 C259 1.499 . S
N255 Co238 1.989 . S
N255 C254 1.342 . S
N255 N256 1.388 . S
N256 Co239 1.993 . S
N256 N255 1.388 . S
N256 C257 1.346 . S
C257 N256 1.346 . S
C257 C258 1.396 . S
C257 C267 1.510 . S
C258 C254 1.401 . S
C258 C257 1.396 . S
C259 C254 1.499 . S
C259 H260 0.959 . S
C259 H261 0.960 . S
C259 H262 0.961 . S
H260 C259 0.959 . S
H261 C259 0.960 . S
H262 C259 0.961 . S
O263 Co238 1.967 . S
O263 C271 1.258 . S
O264 Co239 1.941 . S
O264 C271 1.266 . S
H265 C267 0.959 . S
H266 C267 0.961 . S
C267 C257 1.510 . S
C267 H265 0.959 . S
C267 H266 0.961 . S
C267 H268 0.960 . S
H268 C267 0.960 . S
H269 N249 0.862 . S
O270 Co238 1.920 . S
O270 C243 1.289 . S
C271 O263 1.258 . S
C271 O264 1.266 . S
Co272 O275 1.970 . S
Co272 N289 1.989 . S
Co272 O297 1.967 . S
Co272 O304 1.920 . S
Co273 O276 1.966 . S
Co273 N282 2.022 . S
Co273 N290 1.993 . S
Co273 O298 1.941 . S
C274 O275 1.258 . S
C274 O276 1.263 . S
O275 Co272 1.970 . S
O275 C274 1.258 . S
O276 Co273 1.966 . S
O276 C274 1.263 . S
C277 O278 1.235 . S
C277 O304 1.289 . S
O278 C277 1.235 . S
C279 C281 1.400 . S
C279 N282 1.351 . S
C279 C284 1.501 . S
C280 C281 1.387 . S
C280 N283 1.341 . S
C281 C279 1.400 . S
C281 C280 1.387 . S
N282 Co273 2.022 . S
N282 C279 1.351 . S
N282 N283 1.365 . S
N283 C280 1.341 . S
N283 N282 1.365 . S
N283 H303 0.862 . S
C284 C279 1.501 . S
C284 H285 0.961 . S
C284 H286 0.961 . S
C284 H287 0.960 . S
H285 C284 0.961 . S
H286 C284 0.961 . S
H287 C284 0.960 . S
C288 N289 1.342 . S
C288 C292 1.401 . S
C288 C293 1.499 . S
N289 Co272 1.989 . S
N289 C288 1.342 . S
N289 N290 1.388 . S
N290 Co273 1.993 . S
N290 N289 1.388 . S
N290 C291 1.346 . S
C291 N290 1.346 . S
C291 C292 1.396 . S
C291 C301 1.510 . S
C292 C288 1.401 . S
C292 C291 1.396 . S
C293 C288 1.499 . S
C293 H294 0.959 . S
C293 H295 0.960 . S
C293 H296 0.961 . S
H294 C293 0.959 . S
H295 C293 0.960 . S
H296 C293 0.961 . S
O297 Co272 1.967 . S
O297 C305 1.258 . S
O298 Co273 1.941 . S
O298 C305 1.266 . S
H299 C301 0.959 . S
H300 C301 0.961 . S
C301 C291 1.510 . S
C301 H299 0.959 . S
C301 H300 0.961 . S
C301 H302 0.960 . S
H302 C301 0.960 . S
H303 N283 0.862 . S
O304 Co272 1.920 . S
O304 C277 1.289 . S
C305 O297 1.258 . S
C305 O298 1.266 . S
Co306 O309 1.970 . S
Co306 N323 1.989 . S
Co306 O331 1.967 . S
Co306 O338 1.920 . S
Co307 O310 1.966 . S
Co307 N316 2.022 . S
Co307 N324 1.993 . S
Co307 O332 1.941 . S
C308 O309 1.258 . S
C308 O310 1.263 . S
O309 Co306 1.970 . S
O309 C308 1.258 . S
O310 Co307 1.966 . S
O310 C308 1.263 . S
C311 O312 1.235 . S
C311 O338 1.289 . S
O312 C311 1.235 . S
C313 C315 1.400 . S
C313 N316 1.351 . S
C313 C318 1.501 . S
C314 C315 1.387 . S
C314 N317 1.341 . S
C315 C313 1.400 . S
C315 C314 1.387 . S
N316 Co307 2.022 . S
N316 C313 1.351 . S
N316 N317 1.365 . S
N317 C314 1.341 . S
N317 N316 1.365 . S
N317 H337 0.862 . S
C318 C313 1.501 . S
C318 H319 0.961 . S
C318 H320 0.961 . S
C318 H321 0.960 . S
H319 C318 0.961 . S
H320 C318 0.961 . S
H321 C318 0.960 . S
C322 N323 1.342 . S
C322 C326 1.401 . S
C322 C327 1.499 . S
N323 Co306 1.989 . S
N323 C322 1.342 . S
N323 N324 1.388 . S
N324 Co307 1.993 . S
N324 N323 1.388 . S
N324 C325 1.346 . S
C325 N324 1.346 . S
C325 C326 1.396 . S
C325 C335 1.510 . S
C326 C322 1.401 . S
C326 C325 1.396 . S
C327 C322 1.499 . S
C327 H328 0.959 . S
C327 H329 0.960 . S
C327 H330 0.961 . S
H328 C327 0.959 . S
H329 C327 0.960 . S
H330 C327 0.961 . S
O331 Co306 1.967 . S
O331 C339 1.258 . S
O332 Co307 1.941 . S
O332 C339 1.266 . S
H333 C335 0.959 . S
H334 C335 0.961 . S
C335 C325 1.510 . S
C335 H333 0.959 . S
C335 H334 0.961 . S
C335 H336 0.960 . S
H336 C335 0.960 . S
H337 N317 0.862 . S
O338 Co306 1.920 . S
O338 C311 1.289 . S
C339 O331 1.258 . S
C339 O332 1.266 . S
Co340 O343 1.970 . S
Co340 N357 1.989 . S
Co340 O365 1.967 . S
Co340 O372 1.920 . S
Co341 O344 1.966 . S
Co341 N350 2.022 . S
Co341 N358 1.993 . S
Co341 O366 1.941 . S
C342 O343 1.258 . S
C342 O344 1.263 . S
O343 Co340 1.970 . S
O343 C342 1.258 . S
O344 Co341 1.966 . S
O344 C342 1.263 . S
C345 O346 1.235 . S
C345 O372 1.289 . S
O346 C345 1.235 . S
C347 C349 1.400 . S
C347 N350 1.351 . S
C347 C352 1.501 . S
C348 C349 1.387 . S
C348 N351 1.341 . S
C349 C347 1.400 . S
C349 C348 1.387 . S
N350 Co341 2.022 . S
N350 C347 1.351 . S
N350 N351 1.365 . S
N351 C348 1.341 . S
N351 N350 1.365 . S
N351 H371 0.862 . S
C352 C347 1.501 . S
C352 H353 0.961 . S
C352 H354 0.961 . S
C352 H355 0.960 . S
H353 C352 0.961 . S
H354 C352 0.961 . S
H355 C352 0.960 . S
C356 N357 1.342 . S
C356 C360 1.401 . S
C356 C361 1.499 . S
N357 Co340 1.989 . S
N357 C356 1.342 . S
N357 N358 1.388 . S
N358 Co341 1.993 . S
N358 N357 1.388 . S
N358 C359 1.346 . S
C359 N358 1.346 . S
C359 C360 1.396 . S
C359 C369 1.510 . S
C360 C356 1.401 . S
C360 C359 1.396 . S
C361 C356 1.499 . S
C361 H362 0.959 . S
C361 H363 0.960 . S
C361 H364 0.961 . S
H362 C361 0.959 . S
H363 C361 0.960 . S
H364 C361 0.961 . S
O365 Co340 1.967 . S
O365 C373 1.258 . S
O366 Co341 1.941 . S
O366 C373 1.266 . S
H367 C369 0.959 . S
H368 C369 0.961 . S
C369 C359 1.510 . S
C369 H367 0.959 . S
C369 H368 0.961 . S
C369 H370 0.960 . S
H370 C369 0.960 . S
H371 N351 0.862 . S
O372 Co340 1.920 . S
O372 C345 1.289 . S
C373 O365 1.258 . S
C373 O366 1.266 . S
Co374 O377 1.970 . S
Co374 N391 1.989 . S
Co374 O399 1.967 . S
Co374 O406 1.920 . S
Co375 O378 1.966 . S
Co375 N384 2.022 . S
Co375 N392 1.993 . S
Co375 O400 1.941 . S
C376 O377 1.258 . S
C376 O378 1.263 . S
O377 Co374 1.970 . S
O377 C376 1.258 . S
O378 Co375 1.966 . S
O378 C376 1.263 . S
C379 O380 1.235 . S
C379 O406 1.289 . S
O380 C379 1.235 . S
C381 C383 1.400 . S
C381 N384 1.351 . S
C381 C386 1.501 . S
C382 C383 1.387 . S
C382 N385 1.341 . S
C383 C381 1.400 . S
C383 C382 1.387 . S
N384 Co375 2.022 . S
N384 C381 1.351 . S
N384 N385 1.365 . S
N385 C382 1.341 . S
N385 N384 1.365 . S
N385 H405 0.862 . S
C386 C381 1.501 . S
C386 H387 0.961 . S
C386 H388 0.961 . S
C386 H389 0.960 . S
H387 C386 0.961 . S
H388 C386 0.961 . S
H389 C386 0.960 . S
C390 N391 1.342 . S
C390 C394 1.401 . S
C390 C395 1.499 . S
N391 Co374 1.989 . S
N391 C390 1.342 . S
N391 N392 1.388 . S
N392 Co375 1.993 . S
N392 N391 1.388 . S
N392 C393 1.346 . S
C393 N392 1.346 . S
C393 C394 1.396 . S
C393 C403 1.510 . S
C394 C390 1.401 . S
C394 C393 1.396 . S
C395 C390 1.499 . S
C395 H396 0.959 . S
C395 H397 0.960 . S
C395 H398 0.961 . S
H396 C395 0.959 . S
H397 C395 0.960 . S
H398 C395 0.961 . S
O399 Co374 1.967 . S
O399 C407 1.258 . S
O400 Co375 1.941 . S
O400 C407 1.266 . S
H401 C403 0.959 . S
H402 C403 0.961 . S
C403 C393 1.510 . S
C403 H401 0.959 . S
C403 H402 0.961 . S
C403 H404 0.960 . S
H404 C403 0.960 . S
H405 N385 0.862 . S
O406 Co374 1.920 . S
O406 C379 1.289 . S
C407 O399 1.258 . S
C407 O400 1.266 . S
Co408 O411 1.970 1_554 S
Co408 N425 1.989 . S
Co408 O433 1.967 . S
Co408 O440 1.920 . S
Co409 O412 1.966 . S
Co409 N418 2.022 . S
Co409 N426 1.993 1_556 S
Co409 O434 1.941 . S
C410 O411 1.258 . S
C410 O412 1.263 . S
O411 Co408 1.970 1_556 S
O411 C410 1.258 . S
O412 Co409 1.966 . S
O412 C410 1.263 . S
C413 O414 1.235 . S
C413 O440 1.289 . S
O414 C413 1.235 . S
C415 C417 1.400 . S
C415 N418 1.351 . S
C415 C420 1.501 . S
C416 C417 1.387 . S
C416 N419 1.341 . S
C417 C415 1.400 . S
C417 C416 1.387 . S
N418 Co409 2.022 . S
N418 C415 1.351 . S
N418 N419 1.365 . S
N419 C416 1.341 . S
N419 N418 1.365 . S
N419 H439 0.862 . S
C420 C415 1.501 . S
C420 H421 0.961 . S
C420 H422 0.961 . S
C420 H423 0.960 . S
H421 C420 0.961 . S
H422 C420 0.961 . S
H423 C420 0.960 . S
C424 N425 1.342 . S
C424 C428 1.401 . S
C424 C429 1.499 . S
N425 Co408 1.989 . S
N425 C424 1.342 . S
N425 N426 1.388 . S
N426 Co409 1.993 1_554 S
N426 N425 1.388 . S
N426 C427 1.346 . S
C427 N426 1.346 . S
C427 C428 1.396 . S
C427 C437 1.510 . S
C428 C424 1.401 . S
C428 C427 1.396 . S
C429 C424 1.499 . S
C429 H430 0.959 . S
C429 H431 0.960 . S
C429 H432 0.961 . S
H430 C429 0.959 . S
H431 C429 0.960 . S
H432 C429 0.961 . S
O433 Co408 1.967 . S
O433 C441 1.258 1_554 S
O434 Co409 1.941 . S
O434 C441 1.266 . S
H435 C437 0.959 . S
H436 C437 0.961 . S
C437 C427 1.510 . S
C437 H435 0.959 . S
C437 H436 0.961 . S
C437 H438 0.960 1_554 S
H438 C437 0.960 1_556 S
H439 N419 0.862 . S
O440 Co408 1.920 . S
O440 C413 1.289 . S
C441 O433 1.258 1_556 S
C441 O434 1.266 . S
Co442 O445 1.970 1_554 S
Co442 N459 1.989 . S
Co442 O467 1.967 . S
Co442 O474 1.920 . S
Co443 O446 1.966 . S
Co443 N452 2.022 . S
Co443 N460 1.993 1_556 S
Co443 O468 1.941 . S
C444 O445 1.258 . S
C444 O446 1.263 . S
O445 Co442 1.970 1_556 S
O445 C444 1.258 . S
O446 Co443 1.966 . S
O446 C444 1.263 . S
C447 O448 1.235 . S
C447 O474 1.289 . S
O448 C447 1.235 . S
C449 C451 1.400 . S
C449 N452 1.351 . S
C449 C454 1.501 . S
C450 C451 1.387 . S
C450 N453 1.341 . S
C451 C449 1.400 . S
C451 C450 1.387 . S
N452 Co443 2.022 . S
N452 C449 1.351 . S
N452 N453 1.365 . S
N453 C450 1.341 . S
N453 N452 1.365 . S
N453 H473 0.862 . S
C454 C449 1.501 . S
C454 H455 0.961 . S
C454 H456 0.961 . S
C454 H457 0.960 . S
H455 C454 0.961 . S
H456 C454 0.961 . S
H457 C454 0.960 . S
C458 N459 1.342 . S
C458 C462 1.401 . S
C458 C463 1.499 . S
N459 Co442 1.989 . S
N459 C458 1.342 . S
N459 N460 1.388 . S
N460 Co443 1.993 1_554 S
N460 N459 1.388 . S
N460 C461 1.346 . S
C461 N460 1.346 . S
C461 C462 1.396 . S
C461 C471 1.510 . S
C462 C458 1.401 . S
C462 C461 1.396 . S
C463 C458 1.499 . S
C463 H464 0.959 . S
C463 H465 0.960 . S
C463 H466 0.961 . S
H464 C463 0.959 . S
H465 C463 0.960 . S
H466 C463 0.961 . S
O467 Co442 1.967 . S
O467 C475 1.258 1_554 S
O468 Co443 1.941 . S
O468 C475 1.266 . S
H469 C471 0.959 . S
H470 C471 0.961 . S
C471 C461 1.510 . S
C471 H469 0.959 . S
C471 H470 0.961 . S
C471 H472 0.960 1_554 S
H472 C471 0.960 1_556 S
H473 N453 0.862 . S
O474 Co442 1.920 . S
O474 C447 1.289 . S
C475 O467 1.258 1_556 S
C475 O468 1.266 . S
Co476 O479 1.970 1_554 S
Co476 N493 1.989 . S
Co476 O501 1.967 . S
Co476 O508 1.920 . S
Co477 O480 1.966 . S
Co477 N486 2.022 . S
Co477 N494 1.993 1_556 S
Co477 O502 1.941 . S
C478 O479 1.258 . S
C478 O480 1.263 . S
O479 Co476 1.970 1_556 S
O479 C478 1.258 . S
O480 Co477 1.966 . S
O480 C478 1.263 . S
C481 O482 1.235 . S
C481 O508 1.289 . S
O482 C481 1.235 . S
C483 C485 1.400 . S
C483 N486 1.351 . S
C483 C488 1.501 . S
C484 C485 1.387 . S
C484 N487 1.341 . S
C485 C483 1.400 . S
C485 C484 1.387 . S
N486 Co477 2.022 . S
N486 C483 1.351 . S
N486 N487 1.365 . S
N487 C484 1.341 . S
N487 N486 1.365 . S
N487 H507 0.862 . S
C488 C483 1.501 . S
C488 H489 0.961 . S
C488 H490 0.961 . S
C488 H491 0.960 . S
H489 C488 0.961 . S
H490 C488 0.961 . S
H491 C488 0.960 . S
C492 N493 1.342 . S
C492 C496 1.401 . S
C492 C497 1.499 . S
N493 Co476 1.989 . S
N493 C492 1.342 . S
N493 N494 1.388 . S
N494 Co477 1.993 1_554 S
N494 N493 1.388 . S
N494 C495 1.346 . S
C495 N494 1.346 . S
C495 C496 1.396 . S
C495 C505 1.510 . S
C496 C492 1.401 . S
C496 C495 1.396 . S
C497 C492 1.499 . S
C497 H498 0.959 . S
C497 H499 0.960 . S
C497 H500 0.961 . S
H498 C497 0.959 . S
H499 C497 0.960 . S
H500 C497 0.961 . S
O501 Co476 1.967 . S
O501 C509 1.258 1_554 S
O502 Co477 1.941 . S
O502 C509 1.266 . S
H503 C505 0.959 . S
H504 C505 0.961 . S
C505 C495 1.510 . S
C505 H503 0.959 . S
C505 H504 0.961 . S
C505 H506 0.960 1_554 S
H506 C505 0.960 1_556 S
H507 N487 0.862 . S
O508 Co476 1.920 . S
O508 C481 1.289 . S
C509 O501 1.258 1_556 S
C509 O502 1.266 . S
Co510 O513 1.970 1_554 S
Co510 N527 1.989 . S
Co510 O535 1.967 . S
Co510 O542 1.920 . S
Co511 O514 1.966 . S
Co511 N520 2.022 . S
Co511 N528 1.993 1_556 S
Co511 O536 1.941 . S
C512 O513 1.258 . S
C512 O514 1.263 . S
O513 Co510 1.970 1_556 S
O513 C512 1.258 . S
O514 Co511 1.966 . S
O514 C512 1.263 . S
C515 O516 1.235 . S
C515 O542 1.289 . S
O516 C515 1.235 . S
C517 C519 1.400 . S
C517 N520 1.351 . S
C517 C522 1.501 . S
C518 C519 1.387 . S
C518 N521 1.341 . S
C519 C517 1.400 . S
C519 C518 1.387 . S
N520 Co511 2.022 . S
N520 C517 1.351 . S
N520 N521 1.365 . S
N521 C518 1.341 . S
N521 N520 1.365 . S
N521 H541 0.862 . S
C522 C517 1.501 . S
C522 H523 0.961 . S
C522 H524 0.961 . S
C522 H525 0.960 . S
H523 C522 0.961 . S
H524 C522 0.961 . S
H525 C522 0.960 . S
C526 N527 1.342 . S
C526 C530 1.401 . S
C526 C531 1.499 . S
N527 Co510 1.989 . S
N527 C526 1.342 . S
N527 N528 1.388 . S
N528 Co511 1.993 1_554 S
N528 N527 1.388 . S
N528 C529 1.346 . S
C529 N528 1.346 . S
C529 C530 1.396 . S
C529 C539 1.510 . S
C530 C526 1.401 . S
C530 C529 1.396 . S
C531 C526 1.499 . S
C531 H532 0.959 . S
C531 H533 0.960 . S
C531 H534 0.961 . S
H532 C531 0.959 . S
H533 C531 0.960 . S
H534 C531 0.961 . S
O535 Co510 1.967 . S
O535 C543 1.258 1_554 S
O536 Co511 1.941 . S
O536 C543 1.266 . S
H537 C539 0.959 . S
H538 C539 0.961 . S
C539 C529 1.510 . S
C539 H537 0.959 . S
C539 H538 0.961 . S
C539 H540 0.960 1_554 S
H540 C539 0.960 1_556 S
H541 N521 0.862 . S
O542 Co510 1.920 . S
O542 C515 1.289 . S
C543 O535 1.258 1_556 S
C543 O536 1.266 . S
C544 C545 1.369 . S
C544 C546 1.419 . S
C544 H548 0.930 . S
C545 C544 1.369 . S
C545 C554 1.429 1_554 S
C546 C544 1.419 . S
C546 C547 1.363 1_554 S
C546 H549 0.929 . S
C547 C546 1.363 1_556 S
C547 C553 1.428 . S
H548 C544 0.930 . S
H549 C546 0.929 . S
S550 N551 1.613 . S
S550 N552 1.610 . S
N551 S550 1.613 . S
N551 C554 1.350 . S
N552 S550 1.610 . S
N552 C553 1.351 . S
C553 C547 1.428 . S
C553 N552 1.351 . S
C553 C554 1.434 . S
C554 C545 1.429 1_556 S
C554 N551 1.350 . S
C554 C553 1.434 . S
C555 C556 1.369 1_554 S
C555 C557 1.419 . S
C555 H559 0.930 . S
C556 C555 1.369 1_556 S
C556 C565 1.429 . S
C557 C555 1.419 . S
C557 C558 1.363 . S
C557 H560 0.929 . S
C558 C557 1.363 . S
C558 C564 1.428 1_554 S
H559 C555 0.930 . S
H560 C557 0.929 . S
S561 N562 1.613 . S
S561 N563 1.610 . S
N562 S561 1.613 . S
N562 C565 1.350 . S
N563 S561 1.610 . S
N563 C564 1.351 . S
C564 C558 1.428 1_556 S
C564 N563 1.351 . S
C564 C565 1.434 . S
C565 C556 1.429 . S
C565 N562 1.350 . S
C565 C564 1.434 . S
C566 C567 1.369 . S
C566 C568 1.419 . S
C566 H570 0.930 . S
C567 C566 1.369 . S
C567 C576 1.429 1_556 S
C568 C566 1.419 . S
C568 C569 1.363 1_556 S
C568 H571 0.929 . S
C569 C568 1.363 1_554 S
C569 C575 1.428 . S
H570 C566 0.930 . S
H571 C568 0.929 . S
S572 N573 1.613 . S
S572 N574 1.610 . S
N573 S572 1.613 . S
N573 C576 1.350 . S
N574 S572 1.610 . S
N574 C575 1.351 . S
C575 C569 1.428 . S
C575 N574 1.351 . S
C575 C576 1.434 . S
C576 C567 1.429 1_554 S
C576 N573 1.350 . S
C576 C575 1.434 . S
C577 C578 1.369 . S
C577 C579 1.419 . S
C577 H581 0.930 . S
C578 C577 1.369 . S
C578 C587 1.429 1_556 S
C579 C577 1.419 . S
C579 C580 1.363 1_556 S
C579 H582 0.929 . S
C580 C579 1.363 1_554 S
C580 C586 1.428 . S
H581 C577 0.930 . S
H582 C579 0.929 . S
S583 N584 1.613 . S
S583 N585 1.610 . S
N584 S583 1.613 . S
N584 C587 1.350 . S
N585 S583 1.610 . S
N585 C586 1.351 . S
C586 C580 1.428 . S
C586 N585 1.351 . S
C586 C587 1.434 . S
C587 C578 1.429 1_554 S
C587 N584 1.350 . S
C587 C586 1.434 . S
C588 C589 1.369 . S
C588 C590 1.419 . S
C588 H592 0.930 . S
C589 C588 1.369 . S
C589 C598 1.429 . S
C590 C588 1.419 . S
C590 C591 1.363 . S
C590 H593 0.929 . S
C591 C590 1.363 . S
C591 C597 1.428 . S
H592 C588 0.930 . S
H593 C590 0.929 . S
S594 N595 1.613 . S
S594 N596 1.610 . S
N595 S594 1.613 . S
N595 C598 1.350 . S
N596 S594 1.610 . S
N596 C597 1.351 . S
C597 C591 1.428 . S
C597 N596 1.351 . S
C597 C598 1.434 . S
C598 C589 1.429 . S
C598 N595 1.350 . S
C598 C597 1.434 . S
C599 C600 1.369 . S
C599 C601 1.419 . S
C599 H603 0.930 . S
C600 C599 1.369 . S
C600 C609 1.429 . S
C601 C599 1.419 . S
C601 C602 1.363 . S
C601 H604 0.929 . S
C602 C601 1.363 . S
C602 C608 1.428 . S
H603 C599 0.930 . S
H604 C601 0.929 . S
S605 N606 1.613 . S
S605 N607 1.610 . S
N606 S605 1.613 . S
N606 C609 1.350 . S
N607 S605 1.610 . S
N607 C608 1.351 . S
C608 C602 1.428 . S
C608 N607 1.351 . S
C608 C609 1.434 . S
C609 C600 1.429 . S
C609 N606 1.350 . S
C609 C608 1.434 . S
C610 C611 1.369 . S
C610 C612 1.419 . S
C610 H614 0.930 . S
C611 C610 1.369 . S
C611 C620 1.429 . S
C612 C610 1.419 . S
C612 C613 1.363 . S
C612 H615 0.929 . S
C613 C612 1.363 . S
C613 C619 1.428 . S
H614 C610 0.930 . S
H615 C612 0.929 . S
S616 N617 1.613 . S
S616 N618 1.610 . S
N617 S616 1.613 . S
N617 C620 1.350 . S
N618 S616 1.610 . S
N618 C619 1.351 . S
C619 C613 1.428 . S
C619 N618 1.351 . S
C619 C620 1.434 . S
C620 C611 1.429 . S
C620 N617 1.350 . S
C620 C619 1.434 . S
C621 C622 1.369 . S
C621 C623 1.419 . S
C621 H625 0.930 . S
C622 C621 1.369 . S
C622 C631 1.429 . S
C623 C621 1.419 . S
C623 C624 1.363 . S
C623 H626 0.929 . S
C624 C623 1.363 . S
C624 C630 1.428 . S
H625 C621 0.930 . S
H626 C623 0.929 . S
S627 N628 1.613 . S
S627 N629 1.610 . S
N628 S627 1.613 . S
N628 C631 1.350 . S
N629 S627 1.610 . S
N629 C630 1.351 . S
C630 C624 1.428 . S
C630 N629 1.351 . S
C630 C631 1.434 . S
C631 C622 1.429 . S
C631 N628 1.350 . S
C631 C630 1.434 . S
C632 C633 1.369 . S
C632 C634 1.419 1_655 S
C632 H636 0.930 . S
C633 C632 1.369 . S
C633 C642 1.429 . S
C634 C632 1.419 1_455 S
C634 C635 1.363 . S
C634 H637 0.929 . S
C635 C634 1.363 . S
C635 C641 1.428 . S
H636 C632 0.930 . S
H637 C634 0.929 . S
S638 N639 1.613 . S
S638 N640 1.610 1_655 S
N639 S638 1.613 . S
N639 C642 1.350 . S
N640 S638 1.610 1_455 S
N640 C641 1.351 . S
C641 C635 1.428 . S
C641 N640 1.351 . S
C641 C642 1.434 1_455 S
C642 C633 1.429 . S
C642 N639 1.350 . S
C642 C641 1.434 1_655 S
C643 C644 1.369 . S
C643 C645 1.419 1_565 S
C643 H647 0.930 . S
C644 C643 1.369 . S
C644 C653 1.429 . S
C645 C643 1.419 1_545 S
C645 C646 1.363 . S
C645 H648 0.929 . S
C646 C645 1.363 . S
C646 C652 1.428 . S
H647 C643 0.930 . S
H648 C645 0.929 . S
S649 N650 1.613 1_545 S
S649 N651 1.610 . S
N650 S649 1.613 1_565 S
N650 C653 1.350 . S
N651 S649 1.610 . S
N651 C652 1.351 . S
C652 C646 1.428 . S
C652 N651 1.351 . S
C652 C653 1.434 1_545 S
C653 C644 1.429 . S
C653 N650 1.350 . S
C653 C652 1.434 1_565 S
C654 C655 1.369 . S
C654 C656 1.419 1_455 S
C654 H658 0.930 . S
C655 C654 1.369 . S
C655 C664 1.429 . S
C656 C654 1.419 1_655 S
C656 C657 1.363 . S
C656 H659 0.929 . S
C657 C656 1.363 . S
C657 C663 1.428 . S
H658 C654 0.930 . S
H659 C656 0.929 . S
S660 N661 1.613 . S
S660 N662 1.610 1_455 S
N661 S660 1.613 . S
N661 C664 1.350 . S
N662 S660 1.610 1_655 S
N662 C663 1.351 . S
C663 C657 1.428 . S
C663 N662 1.351 . S
C663 C664 1.434 1_655 S
C664 C655 1.429 . S
C664 N661 1.350 . S
C664 C663 1.434 1_455 S
C665 C666 1.369 . S
C665 C667 1.419 1_545 S
C665 H669 0.930 . S
C666 C665 1.369 . S
C666 C675 1.429 . S
C667 C665 1.419 1_565 S
C667 C668 1.363 . S
C667 H670 0.929 . S
C668 C667 1.363 . S
C668 C674 1.428 . S
H669 C665 0.930 . S
H670 C667 0.929 . S
S671 N672 1.613 . S
S671 N673 1.610 1_545 S
N672 S671 1.613 . S
N672 C675 1.350 . S
N673 S671 1.610 1_565 S
N673 C674 1.351 . S
C674 C668 1.428 . S
C674 N673 1.351 . S
C674 C675 1.434 1_565 S
C675 C666 1.429 . S
C675 N672 1.350 . S
C675 C674 1.434 1_545 S
C676 C677 1.369 . S
C676 C678 1.389 1_455 S
C676 H680 0.930 . S
C677 C676 1.369 . S
C677 C686 1.437 . S
C678 C676 1.389 1_655 S
C678 C679 1.394 . S
C678 H681 0.929 . S
C679 C678 1.394 . S
C679 C685 1.428 . S
H680 C676 0.930 . S
H681 C678 0.929 . S
S682 N683 1.613 . S
S682 N684 1.610 . S
N683 S682 1.613 . S
N683 C686 1.349 1_655 S
N684 S682 1.610 . S
N684 C685 1.351 . S
C685 C679 1.428 . S
C685 N684 1.351 . S
C685 C686 1.426 1_655 S
C686 C677 1.437 . S
C686 N683 1.349 1_455 S
C686 C685 1.426 1_455 S
C687 C688 1.369 1_545 S
C687 C689 1.419 . S
C687 H691 0.930 . S
C688 C687 1.369 1_565 S
C688 C697 1.429 . S
C689 C687 1.419 . S
C689 C690 1.363 . S
C689 H692 0.929 . S
C690 C689 1.363 . S
C690 C696 1.428 1_545 S
H691 C687 0.930 . S
H692 C689 0.929 . S
S693 N694 1.613 . S
S693 N695 1.610 . S
N694 S693 1.613 . S
N694 C697 1.350 . S
N695 S693 1.610 . S
N695 C696 1.351 . S
C696 C690 1.428 1_565 S
C696 N695 1.351 . S
C696 C697 1.434 . S
C697 C688 1.429 . S
C697 N694 1.350 . S
C697 C696 1.434 . S
C698 C699 1.369 . S
C698 C700 1.419 1_655 S
C698 H702 0.930 . S
C699 C698 1.369 . S
C699 C708 1.429 . S
C700 C698 1.419 1_455 S
C700 C701 1.363 . S
C700 H703 0.929 . S
C701 C700 1.363 . S
C701 C707 1.428 . S
H702 C698 0.930 . S
H703 C700 0.929 . S
S704 N705 1.613 1_455 S
S704 N706 1.610 . S
N705 S704 1.613 1_655 S
N705 C708 1.350 . S
N706 S704 1.610 . S
N706 C707 1.351 . S
C707 C701 1.428 . S
C707 N706 1.351 . S
C707 C708 1.434 1_455 S
C708 C699 1.429 . S
C708 N705 1.350 . S
C708 C707 1.434 1_655 S
C709 C710 1.369 1_565 S
C709 C711 1.419 . S
C709 H713 0.930 . S
C710 C709 1.369 1_545 S
C710 C719 1.429 . S
C711 C709 1.419 . S
C711 C712 1.363 . S
C711 H714 0.929 . S
C712 C711 1.363 . S
C712 C718 1.428 1_565 S
H713 C709 0.930 . S
H714 C711 0.929 . S
S715 N716 1.613 . S
S715 N717 1.610 . S
N716 S715 1.613 . S
N716 C719 1.350 . S
N717 S715 1.610 . S
N717 C718 1.351 . S
C718 C712 1.428 1_545 S
C718 N717 1.351 . S
C718 C719 1.434 . S
C719 C710 1.429 . S
C719 N716 1.350 . S
C719 C718 1.434 . S
C720 C721 1.369 . S
C720 C722 1.419 . S
C720 H724 0.930 . S
C721 C720 1.369 . S
C721 C730 1.429 . S
C722 C720 1.419 . S
C722 C723 1.363 . S
C722 H725 0.929 . S
C723 C722 1.363 . S
C723 C729 1.428 . S
H724 C720 0.930 . S
H725 C722 0.929 . S
S726 N727 1.613 . S
S726 N728 1.610 . S
N727 S726 1.613 . S
N727 C730 1.350 . S
N728 S726 1.610 . S
N728 C729 1.351 . S
C729 C723 1.428 . S
C729 N728 1.351 . S
C729 C730 1.434 . S
C730 C721 1.429 . S
C730 N727 1.350 . S
C730 C729 1.434 . S
C731 C732 1.369 . S
C731 C733 1.419 . S
C731 H735 0.930 . S
C732 C731 1.369 . S
C732 C741 1.429 . S
C733 C731 1.419 . S
C733 C734 1.363 . S
C733 H736 0.929 . S
C734 C733 1.363 . S
C734 C740 1.428 . S
H735 C731 0.930 . S
H736 C733 0.929 . S
S737 N738 1.613 . S
S737 N739 1.610 . S
N738 S737 1.613 . S
N738 C741 1.350 . S
N739 S737 1.610 . S
N739 C740 1.351 . S
C740 C734 1.428 . S
C740 N739 1.351 . S
C740 C741 1.434 . S
C741 C732 1.429 . S
C741 N738 1.350 . S
C741 C740 1.434 . S
C742 C743 1.369 . S
C742 C744 1.419 . S
C742 H746 0.930 . S
C743 C742 1.369 . S
C743 C752 1.429 . S
C744 C742 1.419 . S
C744 C745 1.363 . S
C744 H747 0.929 . S
C745 C744 1.363 . S
C745 C751 1.428 . S
H746 C742 0.930 . S
H747 C744 0.929 . S
S748 N749 1.613 . S
S748 N750 1.610 . S
N749 S748 1.613 . S
N749 C752 1.350 . S
N750 S748 1.610 . S
N750 C751 1.351 . S
C751 C745 1.428 . S
C751 N750 1.351 . S
C751 C752 1.434 . S
C752 C743 1.429 . S
C752 N749 1.350 . S
C752 C751 1.434 . S
C753 C754 1.369 . S
C753 C755 1.419 . S
C753 H757 0.930 . S
C754 C753 1.369 . S
C754 C763 1.429 . S
C755 C753 1.419 . S
C755 C756 1.363 . S
C755 H758 0.929 . S
C756 C755 1.363 . S
C756 C762 1.428 . S
H757 C753 0.930 . S
H758 C755 0.929 . S
S759 N760 1.613 . S
S759 N761 1.610 . S
N760 S759 1.613 . S
N760 C763 1.350 . S
N761 S759 1.610 . S
N761 C762 1.351 . S
C762 C756 1.428 . S
C762 N761 1.351 . S
C762 C763 1.434 . S
C763 C754 1.429 . S
C763 N760 1.350 . S
C763 C762 1.434 . S
C764 C765 1.369 . S
C764 C766 1.419 . S
C764 H768 0.930 . S
C765 C764 1.369 . S
C765 C774 1.429 . S
C766 C764 1.419 . S
C766 C767 1.363 . S
C766 H769 0.929 . S
C767 C766 1.363 . S
C767 C773 1.428 . S
H768 C764 0.930 . S
H769 C766 0.929 . S
S770 N771 1.613 . S
S770 N772 1.610 . S
N771 S770 1.613 . S
N771 C774 1.350 . S
N772 S770 1.610 . S
N772 C773 1.351 . S
C773 C767 1.428 . S
C773 N772 1.351 . S
C773 C774 1.434 . S
C774 C765 1.429 . S
C774 N771 1.350 . S
C774 C773 1.434 . S
C775 C776 1.369 . S
C775 C777 1.419 . S
C775 H779 0.930 . S
C776 C775 1.369 . S
C776 C785 1.429 . S
C777 C775 1.419 . S
C777 C778 1.363 . S
C777 H780 0.929 . S
C778 C777 1.363 . S
C778 C784 1.428 . S
H779 C775 0.930 . S
H780 C777 0.929 . S
S781 N782 1.613 . S
S781 N783 1.610 . S
N782 S781 1.613 . S
N782 C785 1.350 . S
N783 S781 1.610 . S
N783 C784 1.351 . S
C784 C778 1.428 . S
C784 N783 1.351 . S
C784 C785 1.434 . S
C785 C776 1.429 . S
C785 N782 1.350 . S
C785 C784 1.434 . S
C786 C787 1.369 . S
C786 C788 1.419 . S
C786 H790 0.930 . S
C787 C786 1.369 . S
C787 C796 1.429 . S
C788 C786 1.419 . S
C788 C789 1.363 . S
C788 H791 0.929 . S
C789 C788 1.363 . S
C789 C795 1.428 . S
H790 C786 0.930 . S
H791 C788 0.929 . S
S792 N793 1.613 . S
S792 N794 1.610 . S
N793 S792 1.613 . S
N793 C796 1.350 . S
N794 S792 1.610 . S
N794 C795 1.351 . S
C795 C789 1.428 . S
C795 N794 1.351 . S
C795 C796 1.434 . S
C796 C787 1.429 . S
C796 N793 1.350 . S
C796 C795 1.434 . S
C797 C798 1.369 . S
C797 C799 1.419 . S
C797 H801 0.930 . S
C798 C797 1.369 . S
C798 C807 1.429 . S
C799 C797 1.419 . S
C799 C800 1.363 . S
C799 H802 0.929 . S
C800 C799 1.363 . S
C800 C806 1.428 . S
H801 C797 0.930 . S
H802 C799 0.929 . S
S803 N804 1.613 . S
S803 N805 1.610 . S
N804 S803 1.613 . S
N804 C807 1.350 . S
N805 S803 1.610 . S
N805 C806 1.351 . S
C806 C800 1.428 . S
C806 N805 1.351 . S
C806 C807 1.434 . S
C807 C798 1.429 . S
C807 N804 1.350 . S
C807 C806 1.434 . S
C808 C809 1.369 . S
C808 C810 1.419 . S
C808 H812 0.930 . S
C809 C808 1.369 . S
C809 C818 1.429 . S
C810 C808 1.419 . S
C810 C811 1.363 . S
C810 H813 0.929 . S
C811 C810 1.363 . S
C811 C817 1.428 . S
H812 C808 0.930 . S
H813 C810 0.929 . S
S814 N815 1.613 . S
S814 N816 1.610 . S
N815 S814 1.613 . S
N815 C818 1.350 . S
N816 S814 1.610 . S
N816 C817 1.351 . S
C817 C811 1.428 . S
C817 N816 1.351 . S
C817 C818 1.434 . S
C818 C809 1.429 . S
C818 N815 1.350 . S
C818 C817 1.434 . S
C819 C820 1.369 . S
C819 C821 1.419 . S
C819 H823 0.930 . S
C820 C819 1.369 . S
C820 C829 1.429 . S
C821 C819 1.419 . S
C821 C822 1.363 . S
C821 H824 0.929 . S
C822 C821 1.363 . S
C822 C828 1.428 . S
H823 C819 0.930 . S
H824 C821 0.929 . S
S825 N826 1.613 . S
S825 N827 1.610 . S
N826 S825 1.613 . S
N826 C829 1.350 . S
N827 S825 1.610 . S
N827 C828 1.351 . S
C828 C822 1.428 . S
C828 N827 1.351 . S
C828 C829 1.434 . S
C829 C820 1.429 . S
C829 N826 1.350 . S
C829 C828 1.434 . S
C830 C831 1.369 . S
C830 C832 1.419 . S
C830 H834 0.930 . S
C831 C830 1.369 . S
C831 C840 1.429 . S
C832 C830 1.419 . S
C832 C833 1.363 . S
C832 H835 0.929 . S
C833 C832 1.363 . S
C833 C839 1.428 . S
H834 C830 0.930 . S
H835 C832 0.929 . S
S836 N837 1.613 . S
S836 N838 1.610 . S
N837 S836 1.613 . S
N837 C840 1.350 . S
N838 S836 1.610 . S
N838 C839 1.351 . S
C839 C833 1.428 . S
C839 N838 1.351 . S
C839 C840 1.434 . S
C840 C831 1.429 . S
C840 N837 1.350 . S
C840 C839 1.434 . S
C841 C842 1.369 . S
C841 C843 1.419 . S
C841 H845 0.930 . S
C842 C841 1.369 . S
C842 C851 1.429 . S
C843 C841 1.419 . S
C843 C844 1.363 . S
C843 H846 0.929 . S
C844 C843 1.363 . S
C844 C850 1.428 . S
H845 C841 0.930 . S
H846 C843 0.929 . S
S847 N848 1.613 . S
S847 N849 1.610 . S
N848 S847 1.613 . S
N848 C851 1.350 . S
N849 S847 1.610 . S
N849 C850 1.351 . S
C850 C844 1.428 . S
C850 N849 1.351 . S
C850 C851 1.434 . S
C851 C842 1.429 . S
C851 N848 1.350 . S
C851 C850 1.434 . S
C852 C853 1.369 . S
C852 C854 1.419 . S
C852 H856 0.930 . S
C853 C852 1.369 . S
C853 C862 1.429 . S
C854 C852 1.419 . S
C854 C855 1.363 . S
C854 H857 0.929 . S
C855 C854 1.363 . S
C855 C861 1.428 . S
H856 C852 0.930 . S
H857 C854 0.929 . S
S858 N859 1.613 . S
S858 N860 1.610 . S
N859 S858 1.613 . S
N859 C862 1.350 . S
N860 S858 1.610 . S
N860 C861 1.351 . S
C861 C855 1.428 . S
C861 N860 1.351 . S
C861 C862 1.434 . S
C862 C853 1.429 . S
C862 N859 1.350 . S
C862 C861 1.434 . S
C863 C864 1.369 . S
C863 C865 1.419 . S
C863 H867 0.930 . S
C864 C863 1.369 . S
C864 C873 1.429 . S
C865 C863 1.419 . S
C865 C866 1.363 . S
C865 H868 0.929 . S
C866 C865 1.363 . S
C866 C872 1.428 . S
H867 C863 0.930 . S
H868 C865 0.929 . S
S869 N870 1.613 . S
S869 N871 1.610 . S
N870 S869 1.613 . S
N870 C873 1.350 . S
N871 S869 1.610 . S
N871 C872 1.351 . S
C872 C866 1.428 . S
C872 N871 1.351 . S
C872 C873 1.434 . S
C873 C864 1.429 . S
C873 N870 1.350 . S
C873 C872 1.434 . S
C874 C875 1.369 . S
C874 C876 1.419 . S
C874 H878 0.930 . S
C875 C874 1.369 . S
C875 C884 1.429 . S
C876 C874 1.419 . S
C876 C877 1.363 . S
C876 H879 0.929 . S
C877 C876 1.363 . S
C877 C883 1.428 . S
H878 C874 0.930 . S
H879 C876 0.929 . S
S880 N881 1.613 . S
S880 N882 1.610 . S
N881 S880 1.613 . S
N881 C884 1.350 . S
N882 S880 1.610 . S
N882 C883 1.351 . S
C883 C877 1.428 . S
C883 N882 1.351 . S
C883 C884 1.434 . S
C884 C875 1.429 . S
C884 N881 1.350 . S
C884 C883 1.434 . S
C885 C886 1.369 . S
C885 C887 1.419 . S
C885 H889 0.930 . S
C886 C885 1.369 . S
C886 C895 1.429 . S
C887 C885 1.419 . S
C887 C888 1.363 . S
C887 H890 0.929 . S
C888 C887 1.363 . S
C888 C894 1.428 . S
H889 C885 0.930 . S
H890 C887 0.929 . S
S891 N892 1.613 . S
S891 N893 1.610 . S
N892 S891 1.613 . S
N892 C895 1.350 . S
N893 S891 1.610 . S
N893 C894 1.351 . S
C894 C888 1.428 . S
C894 N893 1.351 . S
C894 C895 1.434 . S
C895 C886 1.429 . S
C895 N892 1.350 . S
C895 C894 1.434 . S
C896 C897 1.369 . S
C896 C898 1.419 . S
C896 H900 0.930 . S
C897 C896 1.369 . S
C897 C906 1.429 . S
C898 C896 1.419 . S
C898 C899 1.363 . S
C898 H901 0.929 . S
C899 C898 1.363 . S
C899 C905 1.428 . S
H900 C896 0.930 . S
H901 C898 0.929 . S
S902 N903 1.613 . S
S902 N904 1.610 . S
N903 S902 1.613 . S
N903 C906 1.350 . S
N904 S902 1.610 . S
N904 C905 1.351 . S
C905 C899 1.428 . S
C905 N904 1.351 . S
C905 C906 1.434 . S
C906 C897 1.429 . S
C906 N903 1.350 . S
C906 C905 1.434 . S
C907 C908 1.369 . S
C907 C909 1.419 . S
C907 H911 0.930 . S
C908 C907 1.369 . S
C908 C917 1.429 . S
C909 C907 1.419 . S
C909 C910 1.363 . S
C909 H912 0.929 . S
C910 C909 1.363 . S
C910 C916 1.428 . S
H911 C907 0.930 . S
H912 C909 0.929 . S
S913 N914 1.613 . S
S913 N915 1.610 . S
N914 S913 1.613 . S
N914 C917 1.350 . S
N915 S913 1.610 . S
N915 C916 1.351 . S
C916 C910 1.428 . S
C916 N915 1.351 . S
C916 C917 1.434 . S
C917 C908 1.429 . S
C917 N914 1.350 . S
C917 C916 1.434 . S
C918 C919 1.369 . S
C918 C920 1.419 . S
C918 H922 0.930 . S
C919 C918 1.369 . S
C919 C928 1.429 . S
C920 C918 1.419 . S
C920 C921 1.363 . S
C920 H923 0.929 . S
C921 C920 1.363 . S
C921 C927 1.428 . S
H922 C918 0.930 . S
H923 C920 0.929 . S
S924 N925 1.613 . S
S924 N926 1.610 . S
N925 S924 1.613 . S
N925 C928 1.350 . S
N926 S924 1.610 . S
N926 C927 1.351 . S
C927 C921 1.428 . S
C927 N926 1.351 . S
C927 C928 1.434 . S
C928 C919 1.429 . S
C928 N925 1.350 . S
C928 C927 1.434 . S
C929 C930 1.369 . S
C929 C931 1.419 . S
C929 H933 0.930 . S
C930 C929 1.369 . S
C930 C939 1.429 . S
C931 C929 1.419 . S
C931 C932 1.363 . S
C931 H934 0.929 . S
C932 C931 1.363 . S
C932 C938 1.428 . S
H933 C929 0.930 . S
H934 C931 0.929 . S
S935 N936 1.613 . S
S935 N937 1.610 . S
N936 S935 1.613 . S
N936 C939 1.350 . S
N937 S935 1.610 . S
N937 C938 1.351 . S
C938 C932 1.428 . S
C938 N937 1.351 . S
C938 C939 1.434 . S
C939 C930 1.429 . S
C939 N936 1.350 . S
C939 C938 1.434 . S
C940 C941 1.369 . S
C940 C942 1.419 . S
C940 H944 0.930 . S
C941 C940 1.369 . S
C941 C950 1.429 . S
C942 C940 1.419 . S
C942 C943 1.363 . S
C942 H945 0.929 . S
C943 C942 1.363 . S
C943 C949 1.428 . S
H944 C940 0.930 . S
H945 C942 0.929 . S
S946 N947 1.613 . S
S946 N948 1.610 . S
N947 S946 1.613 . S
N947 C950 1.350 . S
N948 S946 1.610 . S
N948 C949 1.351 . S
C949 C943 1.428 . S
C949 N948 1.351 . S
C949 C950 1.434 . S
C950 C941 1.429 . S
C950 N947 1.350 . S
C950 C949 1.434 . S
C951 C952 1.369 . S
C951 C953 1.419 . S
C951 H955 0.930 . S
C952 C951 1.369 . S
C952 C961 1.429 . S
C953 C951 1.419 . S
C953 C954 1.363 . S
C953 H956 0.929 . S
C954 C953 1.363 . S
C954 C960 1.428 . S
H955 C951 0.930 . S
H956 C953 0.929 . S
S957 N958 1.613 . S
S957 N959 1.610 . S
N958 S957 1.613 . S
N958 C961 1.350 . S
N959 S957 1.610 . S
N959 C960 1.351 . S
C960 C954 1.428 . S
C960 N959 1.351 . S
C960 C961 1.434 . S
C961 C952 1.429 . S
C961 N958 1.350 . S
C961 C960 1.434 . S
C962 C963 1.369 . S
C962 C964 1.419 . S
C962 H966 0.930 . S
C963 C962 1.369 . S
C963 C972 1.429 . S
C964 C962 1.419 . S
C964 C965 1.363 . S
C964 H967 0.929 . S
C965 C964 1.363 . S
C965 C971 1.428 . S
H966 C962 0.930 . S
H967 C964 0.929 . S
S968 N969 1.613 . S
S968 N970 1.610 . S
N969 S968 1.613 . S
N969 C972 1.350 . S
N970 S968 1.610 . S
N970 C971 1.351 . S
C971 C965 1.428 . S
C971 N970 1.351 . S
C971 C972 1.434 . S
C972 C963 1.429 . S
C972 N969 1.350 . S
C972 C971 1.434 . S
C973 C974 1.369 . S
C973 C975 1.419 . S
C973 H977 0.930 . S
C974 C973 1.369 . S
C974 C983 1.429 . S
C975 C973 1.419 . S
C975 C976 1.363 . S
C975 H978 0.929 . S
C976 C975 1.363 . S
C976 C982 1.428 . S
H977 C973 0.930 . S
H978 C975 0.929 . S
S979 N980 1.613 . S
S979 N981 1.610 . S
N980 S979 1.613 . S
N980 C983 1.350 . S
N981 S979 1.610 . S
N981 C982 1.351 . S
C982 C976 1.428 . S
C982 N981 1.351 . S
C982 C983 1.434 . S
C983 C974 1.429 . S
C983 N980 1.350 . S
C983 C982 1.434 . S
C545 C33 1.183 . S
C547 C543 1.183 . S
C556 C441 1.184 . S
C558 C67 1.183 . S
C567 C475 1.183 . S
C569 C101 1.183 . S
C578 C509 1.185 . S
C580 C135 1.186 . S
C589 C169 1.186 . S
C591 C339 1.185 . S
C600 C373 1.185 . S
C602 C203 1.185 . S
C611 C407 1.184 . S
C613 C237 1.184 . S
C622 C271 1.186 . S
C624 C305 1.185 . S
C633 C213 0.687 . S
C635 C9 0.676 . S
C644 C247 0.675 . S
C646 C43 0.684 . S
C655 C145 0.676 . S
C657 C77 0.670 . S
C666 C179 0.681 . S
C668 C111 0.670 . S
C677 C156 2.276 . S
C679 C88 2.277 . S
C688 C122 2.277 . S
C690 C190 2.277 . S
C699 C224 2.277 . S
C701 C20 2.277 . S
C710 C54 2.277 . S
C712 C258 2.277 . S
C721 C281 0.673 . S
C723 C485 0.670 . S
C732 C519 0.672 . S
C734 C315 0.683 . S
C743 C417 0.674 . S
C745 C349 0.684 . S
C754 C451 0.686 . S
C756 C383 0.673 . S
C765 C428 2.277 . S
C767 C360 2.277 . S
C776 C462 2.277 . S
C778 C394 2.277 . S
C787 C292 2.277 . S
C789 C496 2.277 . S
C798 C326 2.277 . S
C800 C530 2.277 . S
C809 C172 2.826 . S
C811 C2 2.826 . S
C820 C36 2.826 . S
C822 C206 2.826 . S
C831 C240 2.826 . S
C833 C70 2.826 . S
C842 C104 2.826 . S
C844 C138 2.826 . S
C853 C73 0.923 . S
C855 C243 0.921 . S
C864 C141 0.918 . S
C866 C107 0.916 . S
C875 C175 0.923 . S
C877 C5 0.920 . S
C886 C39 0.917 . S
C888 C209 0.920 . S
C897 C444 2.826 . S
C899 C274 2.826 . S
C908 C308 2.826 . S
C910 C478 2.826 . S
C919 C512 2.826 . S
C921 C342 2.826 . S
C930 C376 2.826 . S
C932 C410 2.826 . S
C941 C515 0.917 . S
C943 C345 0.919 . S
C952 C379 0.924 . S
C954 C413 0.921 . S
C963 C447 0.923 . S
C965 C277 0.923 . S
C974 C311 0.917 . S
C976 C481 0.916 . S
