# Generated by pormake.
# Topology nfb, (4)-cn, num edge types: 1
# Building blocks:
#     Node 0, Type 0, BuildingBlock: QUQFOY_clean_sbu_1, # of connection points: 4
#     Node 1, Type 0, BuildingBlock: QUQFOY_clean_sbu_1, # of connection points: 4
#     Node 2, Type 0, BuildingBlock: QUQFOY_clean_sbu_1, # of connection points: 4
#     Node 3, Type 0, BuildingBlock: QUQFOY_clean_sbu_1, # of connection points: 4
#     Node 4, Type 0, BuildingBlock: QUQFOY_clean_sbu_1, # of connection points: 4
#     Node 5, Type 0, BuildingBlock: QUQFOY_clean_sbu_1, # of connection points: 4
#     Node 6, Type 0, BuildingBlock: QUQFOY_clean_sbu_1, # of connection points: 4
#     Node 7, Type 0, BuildingBlock: QUQFOY_clean_sbu_1, # of connection points: 4
#     Node 8, Type 0, BuildingBlock: QUQFOY_clean_sbu_1, # of connection points: 4
#     Node 9, Type 0, BuildingBlock: QUQFOY_clean_sbu_1, # of connection points: 4
#     Node 10, Type 0, BuildingBlock: QUQFOY_clean_sbu_1, # of connection points: 4
#     Node 11, Type 0, BuildingBlock: QUQFOY_clean_sbu_1, # of connection points: 4
#     Node 12, Type 0, BuildingBlock: QUQFOY_clean_sbu_1, # of connection points: 4
#     Node 13, Type 0, BuildingBlock: QUQFOY_clean_sbu_1, # of connection points: 4
#     Node 14, Type 0, BuildingBlock: QUQFOY_clean_sbu_1, # of connection points: 4
#     Node 15, Type 0, BuildingBlock: QUQFOY_clean_sbu_1, # of connection points: 4
#     Node 16, Type 0, BuildingBlock: QUQFOY_clean_sbu_1, # of connection points: 4
#     Node 17, Type 0, BuildingBlock: QUQFOY_clean_sbu_1, # of connection points: 4
#     Node 18, Type 0, BuildingBlock: QUQFOY_clean_sbu_1, # of connection points: 4
#     Node 19, Type 0, BuildingBlock: QUQFOY_clean_sbu_1, # of connection points: 4
#     Node 20, Type 0, BuildingBlock: QUQFOY_clean_sbu_1, # of connection points: 4
#     Node 21, Type 0, BuildingBlock: QUQFOY_clean_sbu_1, # of connection points: 4
#     Node 22, Type 0, BuildingBlock: QUQFOY_clean_sbu_1, # of connection points: 4
#     Node 23, Type 0, BuildingBlock: QUQFOY_clean_sbu_1, # of connection points: 4
#     Node 24, Type 0, BuildingBlock: QUQFOY_clean_sbu_1, # of connection points: 4
#     Node 25, Type 0, BuildingBlock: QUQFOY_clean_sbu_1, # of connection points: 4
#     Node 26, Type 0, BuildingBlock: QUQFOY_clean_sbu_1, # of connection points: 4
#     Node 27, Type 0, BuildingBlock: QUQFOY_clean_sbu_1, # of connection points: 4
#     Node 28, Type 0, BuildingBlock: QUQFOY_clean_sbu_1, # of connection points: 4
#     Node 29, Type 0, BuildingBlock: QUQFOY_clean_sbu_1, # of connection points: 4
#     Node 30, Type 0, BuildingBlock: QUQFOY_clean_sbu_1, # of connection points: 4
#     Node 31, Type 0, BuildingBlock: QUQFOY_clean_sbu_1, # of connection points: 4
#     Node 32, Type 0, BuildingBlock: QUQFOY_clean_sbu_1, # of connection points: 4
#     Node 33, Type 0, BuildingBlock: QUQFOY_clean_sbu_1, # of connection points: 4
#     Node 34, Type 0, BuildingBlock: QUQFOY_clean_sbu_1, # of connection points: 4
#     Node 35, Type 0, BuildingBlock: QUQFOY_clean_sbu_1, # of connection points: 4
#     Node 36, Type 0, BuildingBlock: QUQFOY_clean_sbu_1, # of connection points: 4
#     Node 37, Type 0, BuildingBlock: QUQFOY_clean_sbu_1, # of connection points: 4
#     Node 38, Type 0, BuildingBlock: QUQFOY_clean_sbu_1, # of connection points: 4
#     Node 39, Type 0, BuildingBlock: QUQFOY_clean_sbu_1, # of connection points: 4
#     Node 40, Type 0, BuildingBlock: QUQFOY_clean_sbu_1, # of connection points: 4
#     Node 41, Type 0, BuildingBlock: QUQFOY_clean_sbu_1, # of connection points: 4
#     Node 42, Type 0, BuildingBlock: QUQFOY_clean_sbu_1, # of connection points: 4
#     Node 43, Type 0, BuildingBlock: QUQFOY_clean_sbu_1, # of connection points: 4
#     Node 44, Type 0, BuildingBlock: QUQFOY_clean_sbu_1, # of connection points: 4
#     Node 45, Type 0, BuildingBlock: QUQFOY_clean_sbu_1, # of connection points: 4
#     Node 46, Type 0, BuildingBlock: QUQFOY_clean_sbu_1, # of connection points: 4
#     Node 47, Type 0, BuildingBlock: QUQFOY_clean_sbu_1, # of connection points: 4
#     Edge 48, Type (0, 0), BuildingBlock: AJUNOK_clean_linker_0, # of connection points: 2
#     Edge 49, Type (0, 0), BuildingBlock: AJUNOK_clean_linker_0, # of connection points: 2
#     Edge 50, Type (0, 0), BuildingBlock: AJUNOK_clean_linker_0, # of connection points: 2
#     Edge 51, Type (0, 0), BuildingBlock: AJUNOK_clean_linker_0, # of connection points: 2
#     Edge 52, Type (0, 0), BuildingBlock: AJUNOK_clean_linker_0, # of connection points: 2
#     Edge 53, Type (0, 0), BuildingBlock: AJUNOK_clean_linker_0, # of connection points: 2
#     Edge 54, Type (0, 0), BuildingBlock: AJUNOK_clean_linker_0, # of connection points: 2
#     Edge 55, Type (0, 0), BuildingBlock: AJUNOK_clean_linker_0, # of connection points: 2
#     Edge 56, Type (0, 0), BuildingBlock: AJUNOK_clean_linker_0, # of connection points: 2
#     Edge 57, Type (0, 0), BuildingBlock: AJUNOK_clean_linker_0, # of connection points: 2
#     Edge 58, Type (0, 0), BuildingBlock: AJUNOK_clean_linker_0, # of connection points: 2
#     Edge 59, Type (0, 0), BuildingBlock: AJUNOK_clean_linker_0, # of connection points: 2
#     Edge 60, Type (0, 0), BuildingBlock: AJUNOK_clean_linker_0, # of connection points: 2
#     Edge 61, Type (0, 0), BuildingBlock: AJUNOK_clean_linker_0, # of connection points: 2
#     Edge 62, Type (0, 0), BuildingBlock: AJUNOK_clean_linker_0, # of connection points: 2
#     Edge 63, Type (0, 0), BuildingBlock: AJUNOK_clean_linker_0, # of connection points: 2
#     Edge 64, Type (0, 0), BuildingBlock: AJUNOK_clean_linker_0, # of connection points: 2
#     Edge 65, Type (0, 0), BuildingBlock: AJUNOK_clean_linker_0, # of connection points: 2
#     Edge 66, Type (0, 0), BuildingBlock: AJUNOK_clean_linker_0, # of connection points: 2
#     Edge 67, Type (0, 0), BuildingBlock: AJUNOK_clean_linker_0, # of connection points: 2
#     Edge 68, Type (0, 0), BuildingBlock: AJUNOK_clean_linker_0, # of connection points: 2
#     Edge 69, Type (0, 0), BuildingBlock: AJUNOK_clean_linker_0, # of connection points: 2
#     Edge 70, Type (0, 0), BuildingBlock: AJUNOK_clean_linker_0, # of connection points: 2
#     Edge 71, Type (0, 0), BuildingBlock: AJUNOK_clean_linker_0, # of connection points: 2
#     Edge 72, Type (0, 0), BuildingBlock: AJUNOK_clean_linker_0, # of connection points: 2
#     Edge 73, Type (0, 0), BuildingBlock: AJUNOK_clean_linker_0, # of connection points: 2
#     Edge 74, Type (0, 0), BuildingBlock: AJUNOK_clean_linker_0, # of connection points: 2
#     Edge 75, Type (0, 0), BuildingBlock: AJUNOK_clean_linker_0, # of connection points: 2
#     Edge 76, Type (0, 0), BuildingBlock: AJUNOK_clean_linker_0, # of connection points: 2
#     Edge 77, Type (0, 0), BuildingBlock: AJUNOK_clean_linker_0, # of connection points: 2
#     Edge 78, Type (0, 0), BuildingBlock: AJUNOK_clean_linker_0, # of connection points: 2
#     Edge 79, Type (0, 0), BuildingBlock: AJUNOK_clean_linker_0, # of connection points: 2
#     Edge 80, Type (0, 0), BuildingBlock: AJUNOK_clean_linker_0, # of connection points: 2
#     Edge 81, Type (0, 0), BuildingBlock: AJUNOK_clean_linker_0, # of connection points: 2
#     Edge 82, Type (0, 0), BuildingBlock: AJUNOK_clean_linker_0, # of connection points: 2
#     Edge 83, Type (0, 0), BuildingBlock: AJUNOK_clean_linker_0, # of connection points: 2
#     Edge 84, Type (0, 0), BuildingBlock: AJUNOK_clean_linker_0, # of connection points: 2
#     Edge 85, Type (0, 0), BuildingBlock: AJUNOK_clean_linker_0, # of connection points: 2
#     Edge 86, Type (0, 0), BuildingBlock: AJUNOK_clean_linker_0, # of connection points: 2
#     Edge 87, Type (0, 0), BuildingBlock: AJUNOK_clean_linker_0, # of connection points: 2
#     Edge 88, Type (0, 0), BuildingBlock: AJUNOK_clean_linker_0, # of connection points: 2
#     Edge 89, Type (0, 0), BuildingBlock: AJUNOK_clean_linker_0, # of connection points: 2
#     Edge 90, Type (0, 0), BuildingBlock: AJUNOK_clean_linker_0, # of connection points: 2
#     Edge 91, Type (0, 0), BuildingBlock: AJUNOK_clean_linker_0, # of connection points: 2
#     Edge 92, Type (0, 0), BuildingBlock: AJUNOK_clean_linker_0, # of connection points: 2
#     Edge 93, Type (0, 0), BuildingBlock: AJUNOK_clean_linker_0, # of connection points: 2
#     Edge 94, Type (0, 0), BuildingBlock: AJUNOK_clean_linker_0, # of connection points: 2
#     Edge 95, Type (0, 0), BuildingBlock: AJUNOK_clean_linker_0, # of connection points: 2
#     Edge 96, Type (0, 0), BuildingBlock: AJUNOK_clean_linker_0, # of connection points: 2
#     Edge 97, Type (0, 0), BuildingBlock: AJUNOK_clean_linker_0, # of connection points: 2
#     Edge 98, Type (0, 0), BuildingBlock: AJUNOK_clean_linker_0, # of connection points: 2
#     Edge 99, Type (0, 0), BuildingBlock: AJUNOK_clean_linker_0, # of connection points: 2
#     Edge 100, Type (0, 0), BuildingBlock: AJUNOK_clean_linker_0, # of connection points: 2
#     Edge 101, Type (0, 0), BuildingBlock: AJUNOK_clean_linker_0, # of connection points: 2
#     Edge 102, Type (0, 0), BuildingBlock: AJUNOK_clean_linker_0, # of connection points: 2
#     Edge 103, Type (0, 0), BuildingBlock: AJUNOK_clean_linker_0, # of connection points: 2
#     Edge 104, Type (0, 0), BuildingBlock: AJUNOK_clean_linker_0, # of connection points: 2
#     Edge 105, Type (0, 0), BuildingBlock: AJUNOK_clean_linker_0, # of connection points: 2
#     Edge 106, Type (0, 0), BuildingBlock: AJUNOK_clean_linker_0, # of connection points: 2
#     Edge 107, Type (0, 0), BuildingBlock: AJUNOK_clean_linker_0, # of connection points: 2
#     Edge 108, Type (0, 0), BuildingBlock: AJUNOK_clean_linker_0, # of connection points: 2
#     Edge 109, Type (0, 0), BuildingBlock: AJUNOK_clean_linker_0, # of connection points: 2
#     Edge 110, Type (0, 0), BuildingBlock: AJUNOK_clean_linker_0, # of connection points: 2
#     Edge 111, Type (0, 0), BuildingBlock: AJUNOK_clean_linker_0, # of connection points: 2
#     Edge 112, Type (0, 0), BuildingBlock: AJUNOK_clean_linker_0, # of connection points: 2
#     Edge 113, Type (0, 0), BuildingBlock: AJUNOK_clean_linker_0, # of connection points: 2
#     Edge 114, Type (0, 0), BuildingBlock: AJUNOK_clean_linker_0, # of connection points: 2
#     Edge 115, Type (0, 0), BuildingBlock: AJUNOK_clean_linker_0, # of connection points: 2
#     Edge 116, Type (0, 0), BuildingBlock: AJUNOK_clean_linker_0, # of connection points: 2
#     Edge 117, Type (0, 0), BuildingBlock: AJUNOK_clean_linker_0, # of connection points: 2
#     Edge 118, Type (0, 0), BuildingBlock: AJUNOK_clean_linker_0, # of connection points: 2
#     Edge 119, Type (0, 0), BuildingBlock: AJUNOK_clean_linker_0, # of connection points: 2
#     Edge 120, Type (0, 0), BuildingBlock: AJUNOK_clean_linker_0, # of connection points: 2
#     Edge 121, Type (0, 0), BuildingBlock: AJUNOK_clean_linker_0, # of connection points: 2
#     Edge 122, Type (0, 0), BuildingBlock: AJUNOK_clean_linker_0, # of connection points: 2
#     Edge 123, Type (0, 0), BuildingBlock: AJUNOK_clean_linker_0, # of connection points: 2
#     Edge 124, Type (0, 0), BuildingBlock: AJUNOK_clean_linker_0, # of connection points: 2
#     Edge 125, Type (0, 0), BuildingBlock: AJUNOK_clean_linker_0, # of connection points: 2
#     Edge 126, Type (0, 0), BuildingBlock: AJUNOK_clean_linker_0, # of connection points: 2
#     Edge 127, Type (0, 0), BuildingBlock: AJUNOK_clean_linker_0, # of connection points: 2
#     Edge 128, Type (0, 0), BuildingBlock: AJUNOK_clean_linker_0, # of connection points: 2
#     Edge 129, Type (0, 0), BuildingBlock: AJUNOK_clean_linker_0, # of connection points: 2
#     Edge 130, Type (0, 0), BuildingBlock: AJUNOK_clean_linker_0, # of connection points: 2
#     Edge 131, Type (0, 0), BuildingBlock: AJUNOK_clean_linker_0, # of connection points: 2
#     Edge 132, Type (0, 0), BuildingBlock: AJUNOK_clean_linker_0, # of connection points: 2
#     Edge 133, Type (0, 0), BuildingBlock: AJUNOK_clean_linker_0, # of connection points: 2
#     Edge 134, Type (0, 0), BuildingBlock: AJUNOK_clean_linker_0, # of connection points: 2
#     Edge 135, Type (0, 0), BuildingBlock: AJUNOK_clean_linker_0, # of connection points: 2
#     Edge 136, Type (0, 0), BuildingBlock: AJUNOK_clean_linker_0, # of connection points: 2
#     Edge 137, Type (0, 0), BuildingBlock: AJUNOK_clean_linker_0, # of connection points: 2
#     Edge 138, Type (0, 0), BuildingBlock: AJUNOK_clean_linker_0, # of connection points: 2
#     Edge 139, Type (0, 0), BuildingBlock: AJUNOK_clean_linker_0, # of connection points: 2
#     Edge 140, Type (0, 0), BuildingBlock: AJUNOK_clean_linker_0, # of connection points: 2
#     Edge 141, Type (0, 0), BuildingBlock: AJUNOK_clean_linker_0, # of connection points: 2
#     Edge 142, Type (0, 0), BuildingBlock: AJUNOK_clean_linker_0, # of connection points: 2
#     Edge 143, Type (0, 0), BuildingBlock: AJUNOK_clean_linker_0, # of connection points: 2
# Relax obj value: 0.339
# Max RMSD: 0.148
# Mean RMSD: 0.114
data_MOF--net-nfb--node1-QUQFOY_clean_sbu_1--edge1-AJUNOK_clean_linker_0
_symmetry_space_group_name_H-M    P1
_symmetry_Int_Tables_number       1
_symmetry_cell_setting            triclinic
loop_
_symmetry_equiv_pos_as_xyz
'x, y, z'
_cell_length_a     43.962806
_cell_length_b     44.145849
_cell_length_c     44.320668
_cell_angle_alpha  91.239169
_cell_angle_beta   91.236385
_cell_angle_gamma 94.619008
loop_
_atom_site_label
_atom_site_type_symbol
_atom_site_fract_x
_atom_site_fract_y
_atom_site_fract_z
_atom_type_partial_charge
O0 O 0.13988 0.14649 0.42195 0.0
Cd1 Cd 0.18073 0.16455 0.44037 0.0
Cd2 Cd 0.20105 0.12474 0.40369 0.0
O3 O 0.15839 0.12983 0.37953 0.0
O4 O 0.16578 0.19689 0.46643 0.0
O5 O 0.19457 0.20636 0.42692 0.0
C6 C 0.17816 0.21633 0.44822 0.0
C7 C 0.25445 0.14199 0.40047 0.0
C8 C 0.13534 0.1362 0.39519 0.0
C9 C 0.19697 0.11019 0.46688 0.0
O10 O 0.19144 0.09837 0.44079 0.0
O11 O 0.20421 0.13855 0.46914 0.0
O12 O 0.243 0.11753 0.38632 0.0
O13 O 0.23515 0.15813 0.41376 0.0
O14 O 0.3904 0.68244 0.93404 0.0
Cd15 Cd 0.38634 0.63789 0.94562 0.0
Cd16 Cd 0.40394 0.6284 0.88931 0.0
O17 O 0.41797 0.67678 0.89355 0.0
O18 O 0.38762 0.63886 0.99071 0.0
O19 O 0.42216 0.6182 0.96305 0.0
C20 C 0.41232 0.62507 0.98917 0.0
C21 C 0.42634 0.58031 0.8868 0.0
C22 C 0.40526 0.69418 0.91245 0.0
C23 C 0.33778 0.61597 0.903 0.0
O24 O 0.35749 0.62278 0.88318 0.0
O25 O 0.34569 0.61539 0.93074 0.0
O26 O 0.42246 0.59557 0.86256 0.0
O27 O 0.42034 0.59356 0.91188 0.0
O28 O 0.90762 0.89891 0.43052 0.0
Cd29 Cd 0.86775 0.88562 0.45233 0.0
Cd30 Cd 0.84958 0.92949 0.41619 0.0
O31 O 0.88978 0.92205 0.39109 0.0
O32 O 0.88308 0.85598 0.48075 0.0
O33 O 0.84942 0.84341 0.44381 0.0
C34 C 0.86658 0.83522 0.4657 0.0
C35 C 0.7956 0.91414 0.41237 0.0
C36 C 0.91218 0.91119 0.40517 0.0
C37 C 0.85771 0.94211 0.47992 0.0
O38 O 0.86393 0.95422 0.45489 0.0
O39 O 0.84605 0.91499 0.47944 0.0
O40 O 0.80715 0.93868 0.4 0.0
O41 O 0.81488 0.89703 0.42439 0.0
O42 O 0.70193 0.34974 0.92593 0.0
Cd43 Cd 0.71229 0.39424 0.93756 0.0
Cd44 Cd 0.68596 0.40489 0.8807 0.0
O45 O 0.67492 0.35559 0.88399 0.0
O46 O 0.71279 0.39894 0.98278 0.0
O47 O 0.67996 0.41918 0.9521 0.0
C48 C 0.68986 0.41512 0.97904 0.0
C49 C 0.66007 0.45112 0.87705 0.0
C50 C 0.68638 0.33806 0.90354 0.0
C51 C 0.75415 0.41882 0.89098 0.0
O52 O 0.73143 0.41511 0.87273 0.0
O53 O 0.75142 0.41352 0.91892 0.0
O54 O 0.66472 0.43497 0.85311 0.0
O55 O 0.6667 0.43937 0.90242 0.0
O56 O 0.21815 0.91092 0.62127 0.0
Cd57 Cd 0.17255 0.90942 0.61017 0.0
Cd58 Cd 0.16441 0.90525 0.6697 0.0
O59 O 0.21349 0.91669 0.67052 0.0
O60 O 0.17016 0.92053 0.5669 0.0
O61 O 0.14963 0.94652 0.60326 0.0
C62 C 0.15379 0.94207 0.575 0.0
C63 C 0.11722 0.92802 0.67848 0.0
C64 C 0.23054 0.91412 0.64742 0.0
C65 C 0.14791 0.84943 0.63337 0.0
O66 O 0.15532 0.85993 0.65962 0.0
O67 O 0.14992 0.86657 0.6107 0.0
O68 O 0.13208 0.91663 0.70052 0.0
O69 O 0.1307 0.9293 0.653 0.0
O70 O 0.62079 0.70213 0.11126 0.0
Cd71 Cd 0.64362 0.71131 0.15196 0.0
Cd72 Cd 0.68684 0.69256 0.12116 0.0
O73 O 0.66352 0.71329 0.08787 0.0
O74 O 0.6315 0.75149 0.17061 0.0
O75 O 0.67496 0.74788 0.14762 0.0
C76 C 0.65602 0.76516 0.15989 0.0
C77 C 0.73934 0.69363 0.12677 0.0
C78 C 0.6347 0.70782 0.08696 0.0
C79 C 0.65666 0.64622 0.15971 0.0
O80 O 0.66859 0.65104 0.13435 0.0
O81 O 0.64824 0.66895 0.17521 0.0
O82 O 0.72527 0.68036 0.10371 0.0
O83 O 0.72386 0.7094 0.14491 0.0
O84 O 0.83507 0.17058 0.61993 0.0
Cd85 Cd 0.87867 0.16715 0.60455 0.0
Cd86 Cd 0.89628 0.18577 0.66197 0.0
O87 O 0.84729 0.17908 0.66822 0.0
O88 O 0.87398 0.14775 0.56355 0.0
O89 O 0.90143 0.12953 0.6002 0.0
C90 C 0.8931 0.12892 0.57222 0.0
C91 C 0.94097 0.15918 0.67254 0.0
C92 C 0.8269 0.17578 0.64679 0.0
C93 C 0.9121 0.22911 0.61362 0.0
O94 O 0.90892 0.22645 0.6419 0.0
O95 O 0.90297 0.20748 0.59551 0.0
O96 O 0.93117 0.17781 0.69239 0.0
O97 O 0.92369 0.15347 0.64892 0.0
O98 O 0.44458 0.34849 0.13059 0.0
Cd99 Cd 0.41746 0.34195 0.16763 0.0
Cd100 Cd 0.37941 0.36061 0.13082 0.0
O101 O 0.40421 0.33587 0.10181 0.0
O102 O 0.42521 0.30099 0.18688 0.0
O103 O 0.38524 0.30671 0.15763 0.0
C104 C 0.40168 0.28841 0.17189 0.0
C105 C 0.32718 0.36164 0.13339 0.0
C106 C 0.43304 0.34045 0.10487 0.0
C107 C 0.40608 0.40827 0.17178 0.0
O108 O 0.39852 0.40238 0.14443 0.0
O109 O 0.41076 0.38596 0.18912 0.0
O110 O 0.34168 0.37174 0.11017 0.0
O111 O 0.342 0.3474 0.15337 0.0
O112 O 0.42149 0.03666 0.14858 0.0
Cd113 Cd 0.44298 0.07607 0.16428 0.0
Cd114 Cd 0.40387 0.10548 0.12979 0.0
O115 O 0.38232 0.05831 0.12867 0.0
O116 O 0.46456 0.06638 0.20209 0.0
O117 O 0.42608 0.09578 0.20021 0.0
C118 C 0.44617 0.08292 0.21598 0.0
C119 C 0.39113 0.15474 0.14869 0.0
C120 C 0.39537 0.03416 0.13586 0.0
C121 C 0.46923 0.1117 0.1134 0.0
O122 O 0.44215 0.11422 0.10367 0.0
O123 O 0.47408 0.0988 0.13812 0.0
O124 O 0.37891 0.14273 0.12393 0.0
O125 O 0.40716 0.13732 0.16449 0.0
O126 O 0.37983 0.92107 0.67194 0.0
Cd127 Cd 0.42589 0.93238 0.66885 0.0
Cd128 Cd 0.42561 0.87972 0.64777 0.0
O129 O 0.37925 0.88794 0.63434 0.0
O130 O 0.42881 0.97453 0.68364 0.0
O131 O 0.43876 0.96185 0.6364 0.0
C132 C 0.4362 0.98256 0.65693 0.0
C133 C 0.4758 0.88045 0.62677 0.0
C134 C 0.36459 0.90422 0.6526 0.0
C135 C 0.44412 0.88951 0.71037 0.0
O136 O 0.42728 0.87126 0.69348 0.0
O137 O 0.45397 0.91482 0.70004 0.0
O138 O 0.45765 0.85579 0.62639 0.0
O139 O 0.46419 0.90504 0.6356 0.0
O140 O 0.63851 1.013 0.1531 0.0
Cd141 Cd 0.61956 0.97269 0.16779 0.0
Cd142 Cd 0.65125 0.94664 0.1241 0.0
O143 O 0.67141 0.99383 0.12251 0.0
O144 O 0.59958 0.9842 0.2054 0.0
O145 O 0.63727 0.95388 0.20422 0.0
C146 C 0.61767 0.96758 0.21957 0.0
C147 C 0.66504 0.89845 0.14211 0.0
C148 C 0.66047 1.01703 0.13524 0.0
C149 C 0.58494 0.93771 0.11691 0.0
O150 O 0.60944 0.9372 0.10229 0.0
O151 O 0.58516 0.94927 0.14335 0.0
O152 O 0.67468 0.90869 0.11656 0.0
O153 O 0.65168 0.9173 0.15902 0.0
O154 O 0.68212 0.1631 0.67472 0.0
Cd155 Cd 0.63671 0.14754 0.67333 0.0
Cd156 Cd 0.63193 0.20537 0.66723 0.0
O157 O 0.67665 0.20359 0.64773 0.0
O158 O 0.64084 0.1054 0.6844 0.0
O159 O 0.62156 0.11775 0.64009 0.0
C160 C 0.62944 0.09725 0.65832 0.0
C161 C 0.57906 0.2065 0.65108 0.0
C162 C 0.69415 0.18499 0.65989 0.0
C163 C 0.62456 0.17863 0.72556 0.0
O164 O 0.63803 0.20162 0.71348 0.0
O165 O 0.6102 0.15917 0.70817 0.0
O166 O 0.59629 0.2313 0.6567 0.0
O167 O 0.59256 0.1815 0.65158 0.0
O168 O 0.40682 0.88951 0.85032 0.0
Cd169 Cd 0.39742 0.89198 0.89562 0.0
Cd170 Cd 0.45527 0.88495 0.90189 0.0
O171 O 0.45661 0.8958 0.85738 0.0
O172 O 0.36668 0.92419 0.90092 0.0
O173 O 0.41459 0.93217 0.9163 0.0
C174 C 0.38849 0.94316 0.91164 0.0
C175 C 0.5009 0.89935 0.92778 0.0
C176 C 0.43346 0.89306 0.83974 0.0
C177 C 0.41339 0.82877 0.9113 0.0
O178 O 0.44012 0.84078 0.90777 0.0
O179 O 0.39112 0.84597 0.91187 0.0
O180 O 0.49826 0.87741 0.9083 0.0
O181 O 0.47723 0.91376 0.93327 0.0
O182 O 0.54831 0.91262 0.40598 0.0
Cd183 Cd 0.58839 0.93605 0.39634 0.0
Cd184 Cd 0.61169 0.91076 0.44545 0.0
O185 O 0.56506 0.88884 0.44551 0.0
O186 O 0.57708 0.95745 0.35953 0.0
O187 O 0.61301 0.92532 0.36037 0.0
C188 C 0.59806 0.94443 0.34572 0.0
C189 C 0.66178 0.89906 0.43024 0.0
C190 C 0.54298 0.89472 0.42754 0.0
C191 C 0.61104 0.9764 0.45016 0.0
O192 O 0.61598 0.95347 0.4658 0.0
O193 O 0.60156 0.97307 0.423 0.0
O194 O 0.65081 0.89011 0.45576 0.0
O195 O 0.64301 0.911 0.41199 0.0
O196 O 0.70485 0.14456 0.84297 0.0
Cd197 Cd 0.70824 0.14203 0.88938 0.0
Cd198 Cd 0.6445 0.14366 0.87781 0.0
O199 O 0.66444 0.1149 0.8492 0.0
O200 O 0.73542 0.10842 0.90218 0.0
O201 O 0.68543 0.10365 0.90564 0.0
C202 C 0.71101 0.09108 0.90755 0.0
C203 C 0.59209 0.13474 0.87856 0.0
C204 C 0.68159 0.12964 0.8313 0.0
C205 C 0.68258 0.203 0.89525 0.0
O206 O 0.65979 0.18909 0.88144 0.0
O207 O 0.70353 0.18754 0.90665 0.0
O208 O 0.6057 0.14637 0.85565 0.0
O209 O 0.60845 0.12819 0.90169 0.0
O210 O 0.50306 0.14093 0.40735 0.0
Cd211 Cd 0.46297 0.11722 0.39627 0.0
Cd212 Cd 0.43909 0.15033 0.44 0.0
O213 O 0.48539 0.17311 0.44008 0.0
O214 O 0.47516 0.09233 0.36166 0.0
O215 O 0.44065 0.12577 0.35782 0.0
C216 C 0.45612 0.1056 0.34514 0.0
C217 C 0.38867 0.15985 0.42201 0.0
C218 C 0.50786 0.16337 0.42552 0.0
C219 C 0.43809 0.08541 0.45134 0.0
O220 O 0.43485 0.11082 0.46437 0.0
O221 O 0.44725 0.08417 0.42446 0.0
O222 O 0.40013 0.17207 0.44701 0.0
O223 O 0.40713 0.14564 0.40552 0.0
O224 O 0.09838 0.42126 0.17862 0.0
Cd225 Cd 0.1257 0.38609 0.18583 0.0
Cd226 Cd 0.16186 0.42237 0.16024 0.0
O227 O 0.1389 0.45313 0.18473 0.0
O228 O 0.11792 0.36595 0.22714 0.0
O229 O 0.1568 0.39912 0.22031 0.0
C230 C 0.14105 0.38251 0.23891 0.0
C231 C 0.21137 0.40881 0.16113 0.0
C232 C 0.11002 0.44844 0.18203 0.0
C233 C 0.13462 0.37949 0.11789 0.0
O234 O 0.14077 0.40789 0.12096 0.0
O235 O 0.13265 0.36337 0.14189 0.0
O236 O 0.20485 0.43449 0.15011 0.0
O237 O 0.1902 0.39254 0.17444 0.0
O238 O 0.14375 0.60788 0.81369 0.0
Cd239 Cd 0.14627 0.59365 0.85769 0.0
Cd240 Cd 0.15487 0.65468 0.86962 0.0
O241 O 0.14291 0.65738 0.82188 0.0
O242 O 0.13247 0.54926 0.8568 0.0
O243 O 0.11066 0.58302 0.8846 0.0
C244 C 0.11299 0.55512 0.87698 0.0
C245 C 0.1336 0.65949 0.91916 0.0
C246 C 0.14305 0.63449 0.8033 0.0
C247 C 0.2087 0.61871 0.87728 0.0
O248 O 0.19939 0.64487 0.87346 0.0
O249 O 0.19033 0.59499 0.87534 0.0
O250 O 0.14692 0.68297 0.90639 0.0
O251 O 0.12971 0.63505 0.90267 0.0
O252 O 0.87692 0.69017 0.4511 0.0
Cd253 Cd 0.89032 0.64739 0.44952 0.0
Cd254 Cd 0.94086 0.67256 0.44107 0.0
O255 O 0.92278 0.70513 0.46887 0.0
O256 O 0.8701 0.62398 0.48545 0.0
O257 O 0.91691 0.64519 0.48779 0.0
C258 C 0.89444 0.6318 0.50176 0.0
C259 C 0.9765 0.63676 0.44525 0.0
C260 C 0.89495 0.71041 0.46422 0.0
C261 C 0.91486 0.65521 0.38458 0.0
O262 O 0.93036 0.67773 0.397 0.0
O263 O 0.90034 0.6359 0.40185 0.0
O264 O 0.98488 0.66558 0.44617 0.0
O265 O 0.94776 0.62832 0.44515 0.0
O266 O 0.93003 0.45714 0.76591 0.0
Cd267 Cd 0.92595 0.47049 0.81009 0.0
Cd268 Cd 0.93005 0.40907 0.82135 0.0
O269 O 0.93956 0.40923 0.77287 0.0
O270 O 0.93594 0.51529 0.81623 0.0
O271 O 0.96182 0.4803 0.83772 0.0
C272 C 0.95664 0.50842 0.83546 0.0
C273 C 0.95392 0.40123 0.86972 0.0
C274 C 0.93551 0.43133 0.75491 0.0
C275 C 0.87116 0.43552 0.83467 0.0
O276 O 0.88482 0.41163 0.83018 0.0
O277 O 0.88397 0.46155 0.82917 0.0
O278 O 0.94243 0.37836 0.85324 0.0
O279 O 0.95576 0.42724 0.85695 0.0
O280 O 0.13519 0.40863 0.4913 0.0
Cd281 Cd 0.12103 0.38656 0.45282 0.0
Cd282 Cd 0.1594 0.42048 0.42309 0.0
O283 O 0.17955 0.41724 0.46942 0.0
O284 O 0.11018 0.3424 0.4596 0.0
O285 O 0.15334 0.36071 0.43938 0.0
C286 C 0.13656 0.33774 0.44876 0.0
C287 C 0.16332 0.40108 0.37147 0.0
C288 C 0.16365 0.4156 0.49369 0.0
C289 C 0.09879 0.43576 0.41598 0.0
O290 O 0.12522 0.44913 0.42031 0.0
O291 O 0.0934 0.4082 0.42349 0.0
O292 O 0.18165 0.42344 0.38214 0.0
O293 O 0.1459 0.38747 0.39084 0.0
O294 O 0.90466 0.62627 0.23653 0.0
Cd295 Cd 0.90341 0.6197 0.19076 0.0
Cd296 Cd 0.9216 0.67886 0.18705 0.0
O297 O 0.93211 0.67033 0.23469 0.0
O298 O 0.90438 0.57569 0.17833 0.0
O299 O 0.94302 0.61018 0.17254 0.0
C300 C 0.93126 0.58284 0.16822 0.0
C301 C 0.94419 0.68313 0.13774 0.0
C302 C 0.91941 0.64854 0.2503 0.0
C303 C 0.85906 0.66433 0.16917 0.0
O304 O 0.87667 0.68517 0.18187 0.0
O305 O 0.86727 0.63731 0.167 0.0
O306 O 0.94454 0.70665 0.15581 0.0
O307 O 0.93383 0.65768 0.14854 0.0
O308 O 0.96247 0.40217 0.50485 0.0
Cd309 Cd 0.97601 0.39096 0.54681 0.0
Cd310 Cd 0.94435 0.43558 0.56792 0.0
O311 O 0.92478 0.42763 0.52173 0.0
O312 O 0.98493 0.34704 0.54938 0.0
O313 O 0.94392 0.36595 0.56794 0.0
C314 C 0.95984 0.34306 0.56398 0.0
C315 C 0.93235 0.42712 0.62049 0.0
C316 C 0.93848 0.41551 0.49952 0.0
C317 C 1.00851 0.44838 0.57446 0.0
O318 O 0.98466 0.46199 0.56936 0.0
O319 O 1.00832 0.41975 0.57004 0.0
O320 O 0.92091 0.44857 0.60546 0.0
O321 O 0.94737 0.40865 0.605 0.0
O322 O 0.12117 0.65697 0.55422 0.0
Cd323 Cd 0.10666 0.67024 0.5954 0.0
Cd324 Cd 0.13857 0.62614 0.61753 0.0
O325 O 0.15716 0.62956 0.57191 0.0
O326 O 0.09264 0.71201 0.59185 0.0
O327 O 0.13394 0.70145 0.61779 0.0
C328 C 0.11601 0.72127 0.60871 0.0
C329 C 0.15298 0.6373 0.66963 0.0
C330 C 0.14395 0.64177 0.54944 0.0
C331 C 0.07423 0.61533 0.62403 0.0
O332 O 0.09757 0.60079 0.61997 0.0
O333 O 0.07473 0.64342 0.6181 0.0
O334 O 0.16209 0.6139 0.65527 0.0
O335 O 0.13979 0.65656 0.65338 0.0
O336 O 0.98268 0.90711 0.64397 0.0
Cd337 Cd 0.94064 0.89647 0.62609 0.0
Cd338 Cd 0.91555 0.91478 0.67324 0.0
O339 O 0.96216 0.93771 0.6765 0.0
O340 O 0.93898 0.89888 0.5811 0.0
O341 O 0.92173 0.93363 0.61183 0.0
C342 C 0.92567 0.92374 0.58478 0.0
C343 C 0.86258 0.91966 0.65728 0.0
C344 C 0.98603 0.92737 0.66467 0.0
C345 C 0.9156 0.85109 0.67064 0.0
O346 O 0.91796 0.87281 0.68997 0.0
O347 O 0.91856 0.85639 0.64257 0.0
O348 O 0.87369 0.93196 0.68245 0.0
O349 O 0.88174 0.90704 0.64057 0.0
O350 O 0.62652 0.45965 0.10214 0.0
Cd351 Cd 0.63984 0.46214 0.14711 0.0
Cd352 Cd 0.69863 0.45033 0.11041 0.0
O353 O 0.67084 0.48327 0.09824 0.0
O354 O 0.62137 0.49775 0.16886 0.0
O355 O 0.66974 0.49903 0.15678 0.0
C356 C 0.64739 0.51351 0.16675 0.0
C357 C 0.74649 0.44988 0.09016 0.0
C358 C 0.64666 0.47175 0.08525 0.0
C359 C 0.66332 0.39835 0.14608 0.0
O360 O 0.6815 0.40851 0.12598 0.0
O361 O 0.64759 0.41673 0.16111 0.0
O362 O 0.74311 0.46153 0.11678 0.0
O363 O 0.72247 0.43977 0.07475 0.0
O364 O 0.07026 0.13725 0.62675 0.0
Cd365 Cd 0.10814 0.14941 0.60313 0.0
Cd366 Cd 0.13756 0.16047 0.65753 0.0
O367 O 0.09242 0.14269 0.67215 0.0
O368 O 0.10477 0.13109 0.5613 0.0
O369 O 0.13905 0.11967 0.59553 0.0
C370 C 0.1282 0.11661 0.56836 0.0
C371 C 0.19152 0.15451 0.65665 0.0
C372 C 0.06822 0.13703 0.65527 0.0
C373 C 0.12542 0.21404 0.62204 0.0
O374 O 0.13315 0.20406 0.64742 0.0
O375 O 0.11652 0.19622 0.6001 0.0
O376 O 0.17843 0.16045 0.68182 0.0
O377 O 0.17367 0.14813 0.63355 0.0
O378 O 0.44701 0.5971 0.12732 0.0
Cd379 Cd 0.42252 0.59344 0.16639 0.0
Cd380 Cd 0.3785 0.59622 0.12534 0.0
O381 O 0.40921 0.56932 0.10619 0.0
O382 O 0.43669 0.55881 0.19251 0.0
O383 O 0.3938 0.55475 0.16575 0.0
C384 C 0.41333 0.54161 0.18216 0.0
C385 C 0.32667 0.58411 0.11918 0.0
C386 C 0.43565 0.58264 0.10419 0.0
C387 C 0.39931 0.65511 0.15687 0.0
O388 O 0.3897 0.64231 0.13211 0.0
O389 O 0.40925 0.63844 0.17789 0.0
O390 O 0.34292 0.59369 0.09693 0.0
O391 O 0.34022 0.57998 0.14474 0.0
O392 O 0.89901 0.16646 0.42417 0.0
Cd393 Cd 0.94447 0.17596 0.42873 0.0
Cd394 Cd 0.94925 0.12535 0.3993 0.0
O395 O 0.90342 0.1366 0.38437 0.0
O396 O 0.94992 0.2213 0.43372 0.0
O397 O 0.96276 0.19604 0.3927 0.0
C398 C 0.95952 0.22154 0.40635 0.0
C399 C 1.00214 0.1284 0.38421 0.0
C400 C 0.88658 0.15182 0.40172 0.0
C401 C 0.9537 0.12342 0.46499 0.0
O402 O 0.94478 0.10817 0.44137 0.0
O403 O 0.96307 0.15144 0.46297 0.0
O404 O 0.98345 0.10536 0.3759 0.0
O405 O 0.99036 0.15002 0.39866 0.0
O406 O 0.43191 0.44549 0.93182 0.0
Cd407 Cd 0.41693 0.40634 0.9524 0.0
Cd408 Cd 0.40411 0.38442 0.89682 0.0
O409 O 0.42775 0.42758 0.88495 0.0
O410 O 0.43077 0.4125 0.9954 0.0
O411 O 0.44487 0.37515 0.9664 0.0
C412 C 0.44499 0.38824 0.99258 0.0
C413 C 0.41064 0.33068 0.89983 0.0
C414 C 0.43403 0.45001 0.90373 0.0
C415 C 0.35111 0.39798 0.93246 0.0
O416 O 0.36032 0.39317 0.90593 0.0
O417 O 0.36978 0.4004 0.95487 0.0
O418 O 0.40571 0.34293 0.87403 0.0
O419 O 0.41473 0.34911 0.92277 0.0
O420 O 0.15082 0.89703 0.43563 0.0
Cd421 Cd 0.10553 0.88629 0.44002 0.0
Cd422 Cd 0.09868 0.93105 0.40406 0.0
O423 O 0.14394 0.91749 0.39143 0.0
O424 O 0.10154 0.84337 0.45382 0.0
O425 O 0.08801 0.85734 0.40804 0.0
C426 C 0.09163 0.83598 0.42678 0.0
C427 C 0.04493 0.92178 0.39029 0.0
C428 C 0.16194 0.90658 0.41116 0.0
C429 C 0.09268 0.94355 0.46768 0.0
O430 O 0.10375 0.95516 0.44393 0.0
O431 O 0.08334 0.91546 0.46735 0.0
O432 O 0.06132 0.94436 0.37909 0.0
O433 O 0.05943 0.90372 0.40664 0.0
O434 O 0.65469 0.58794 0.92098 0.0
Cd435 Cd 0.66715 0.62915 0.94108 0.0
Cd436 Cd 0.6814 0.64768 0.88689 0.0
O437 O 0.65787 0.60358 0.8742 0.0
O438 O 0.6513 0.62646 0.98278 0.0
O439 O 0.63668 0.6597 0.94999 0.0
C440 C 0.63562 0.64911 0.97678 0.0
C441 C 0.6764 0.702 0.88952 0.0
C442 C 0.65213 0.58199 0.89288 0.0
C443 C 0.73333 0.63896 0.92581 0.0
O444 O 0.72494 0.63964 0.89827 0.0
O445 O 0.71394 0.63889 0.94673 0.0
O446 O 0.68016 0.68818 0.86391 0.0
O447 O 0.6726 0.68492 0.91257 0.0
O448 O 0.71731 0.88951 0.84632 0.0
Cd449 Cd 0.70865 0.88936 0.89192 0.0
Cd450 Cd 0.66346 0.91401 0.87443 0.0
O451 O 0.66764 0.88425 0.83893 0.0
O452 O 0.72249 0.84904 0.9083 0.0
O453 O 0.67474 0.85484 0.89568 0.0
C454 C 0.69515 0.83658 0.90285 0.0
C455 C 0.62117 0.91582 0.90372 0.0
C456 C 0.69428 0.88121 0.8294 0.0
C457 C 0.70621 0.95838 0.89906 0.0
O458 O 0.68984 0.95374 0.8754 0.0
O459 O 0.71333 0.93507 0.91401 0.0
O460 O 0.62164 0.92656 0.87685 0.0
O461 O 0.64444 0.90251 0.91348 0.0
O462 O 0.73678 0.12631 0.38695 0.0
Cd463 Cd 0.69028 0.12363 0.38087 0.0
Cd464 Cd 0.68975 0.1532 0.43406 0.0
O465 O 0.73654 0.16441 0.42 0.0
O466 O 0.67869 0.11402 0.33739 0.0
O467 O 0.67425 0.15871 0.35954 0.0
C468 C 0.67042 0.14138 0.33584 0.0
C469 C 0.64043 0.17369 0.43246 0.0
C470 C 0.75144 0.14726 0.40267 0.0
C471 C 0.66733 0.09165 0.43647 0.0
O472 O 0.6839 0.11104 0.45228 0.0
O473 O 0.66363 0.09502 0.40818 0.0
O474 O 0.65915 0.18001 0.45512 0.0
O475 O 0.65096 0.15902 0.41011 0.0
O476 O 0.34667 0.14718 0.86381 0.0
Cd477 Cd 0.37642 0.14438 0.90053 0.0
Cd478 Cd 0.40855 0.11919 0.86323 0.0
O479 O 0.38862 0.15023 0.83767 0.0
O480 O 0.37285 0.18359 0.92579 0.0
O481 O 0.40987 0.17878 0.89401 0.0
C482 C 0.39538 0.19649 0.91114 0.0
C483 C 0.46056 0.12138 0.86962 0.0
C484 C 0.36099 0.15575 0.8405 0.0
C485 C 0.38156 0.07485 0.9008 0.0
O486 O 0.38571 0.0788 0.87296 0.0
O487 O 0.38184 0.09855 0.91845 0.0
O488 O 0.44744 0.1107 0.84484 0.0
O489 O 0.44388 0.13125 0.89074 0.0
O490 O 0.31056 0.92975 0.39237 0.0
Cd491 Cd 0.35695 0.9353 0.38708 0.0
Cd492 Cd 0.36092 0.90726 0.4406 0.0
O493 O 0.31339 0.89496 0.42718 0.0
O494 O 0.36642 0.94584 0.34415 0.0
O495 O 0.3754 0.90201 0.36415 0.0
C496 C 0.377 0.91951 0.34132 0.0
C497 C 0.41032 0.88718 0.4376 0.0
C498 C 0.29719 0.91004 0.40908 0.0
C499 C 0.38048 0.97026 0.44375 0.0
O500 O 0.3671 0.94998 0.45967 0.0
O501 O 0.3822 0.96658 0.41526 0.0
O502 O 0.39315 0.88132 0.4605 0.0
O503 O 0.39821 0.90126 0.41586 0.0
O504 O 0.6264 0.25239 0.16972 0.0
Cd505 Cd 0.61308 0.20793 0.17706 0.0
Cd506 Cd 0.64549 0.19688 0.12491 0.0
O507 O 0.65941 0.24529 0.13383 0.0
O508 O 0.60228 0.20391 0.22073 0.0
O509 O 0.64135 0.18353 0.19998 0.0
C510 C 0.62552 0.188 0.22349 0.0
C511 C 0.66805 0.14875 0.12722 0.0
C512 C 0.64646 0.26338 0.15195 0.0
C513 C 0.57807 0.18322 0.12157 0.0
O514 O 0.6021 0.18819 0.10645 0.0
O515 O 0.57839 0.18755 0.15004 0.0
O516 O 0.67061 0.16516 0.1034 0.0
O517 O 0.65617 0.16115 0.15025 0.0
O518 O 0.44031 0.18178 0.68272 0.0
Cd519 Cd 0.40172 0.15295 0.68183 0.0
Cd520 Cd 0.37617 0.19743 0.66293 0.0
O521 O 0.4219 0.20374 0.64343 0.0
O522 O 0.42026 0.11598 0.69321 0.0
O523 O 0.39848 0.12142 0.64829 0.0
C524 C 0.41401 0.10555 0.66625 0.0
C525 C 0.32525 0.1799 0.64699 0.0
C526 C 0.44519 0.19737 0.65951 0.0
C527 C 0.36334 0.18327 0.72324 0.0
O528 O 0.37269 0.20678 0.70891 0.0
O529 O 0.36852 0.15727 0.71283 0.0
O530 O 0.33577 0.20779 0.64316 0.0
O531 O 0.3448 0.16111 0.65514 0.0
O532 O 0.42578 0.80311 0.17937 0.0
Cd533 Cd 0.43877 0.84835 0.18601 0.0
Cd534 Cd 0.40699 0.85478 0.13126 0.0
O535 O 0.39409 0.80676 0.14039 0.0
O536 O 0.44857 0.85602 0.23029 0.0
O537 O 0.40992 0.87441 0.20605 0.0
C538 C 0.4253 0.87209 0.23077 0.0
C539 C 0.38396 0.90269 0.13046 0.0
C540 C 0.40664 0.79039 0.16027 0.0
C541 C 0.47437 0.86908 0.13172 0.0
O542 O 0.45052 0.86284 0.1154 0.0
O543 O 0.47386 0.86686 0.16029 0.0
O544 O 0.3818 0.88439 0.10713 0.0
O545 O 0.39542 0.89214 0.15468 0.0
O546 O 0.61348 0.89515 0.66106 0.0
Cd547 Cd 0.65272 0.92203 0.66895 0.0
Cd548 Cd 0.67702 0.88241 0.64042 0.0
O549 O 0.63208 0.88188 0.61782 0.0
O550 O 0.63614 0.95885 0.68485 0.0
O551 O 0.6598 0.95689 0.64119 0.0
C552 C 0.64429 0.97168 0.66014 0.0
C553 C 0.72911 0.90082 0.63225 0.0
C554 C 0.60877 0.88493 0.63439 0.0
C555 C 0.68601 0.88141 0.70361 0.0
O556 O 0.67685 0.86274 0.68248 0.0
O557 O 0.68367 0.90957 0.70032 0.0
O558 O 0.71787 0.87476 0.62121 0.0
O559 O 0.70986 0.91817 0.64384 0.0
O560 O 0.93844 0.63963 1.00219 0.0
Cd561 Cd 0.9256 0.62243 0.96058 0.0
Cd562 Cd 0.9195 0.67716 0.94198 0.0
O563 O 0.94452 0.68635 0.98514 0.0
O564 O 0.93795 0.58046 0.95255 0.0
O565 O 0.95923 0.62121 0.93078 0.0
C566 C 0.95618 0.59208 0.93261 0.0
C567 C 0.92191 0.6712 0.88723 0.0
C568 C 0.94621 0.66765 1.00703 0.0
C569 C 0.8627 0.64512 0.95022 0.0
O570 O 0.87505 0.67207 0.95228 0.0
O571 O 0.87903 0.62251 0.9491 0.0
O572 O 0.92535 0.69792 0.90026 0.0
O573 O 0.92015 0.64854 0.90504 0.0
O574 O 0.95176 0.43914 1.00925 0.0
Cd575 Cd 0.93625 0.45592 0.04932 0.0
Cd576 Cd 0.92298 0.39687 0.06378 0.0
O577 O 0.9449 0.39058 1.02073 0.0
O578 O 0.94647 0.5007 0.05227 0.0
O579 O 0.96293 0.4688 0.08531 0.0
C580 C 0.95927 0.49638 0.07812 0.0
C581 C 0.93383 0.39353 0.11726 0.0
C582 C 0.9529 0.41127 1.00173 0.0
C583 C 0.86989 0.43138 0.0567 0.0
O584 O 0.87798 0.40445 0.05756 0.0
O585 O 0.88967 0.45386 0.05511 0.0
O586 O 0.92677 0.36935 0.10065 0.0
O587 O 0.93792 0.41867 0.10308 0.0
O588 O 0.11905 0.38678 0.72715 0.0
Cd589 Cd 0.1113 0.38289 0.68184 0.0
Cd590 Cd 0.15711 0.4273 0.67489 0.0
O591 O 0.16435 0.41133 0.72139 0.0
O592 O 0.08969 0.34296 0.66864 0.0
O593 O 0.13871 0.35551 0.66194 0.0
C594 C 0.11544 0.33621 0.65786 0.0
C595 C 0.17621 0.42003 0.62455 0.0
C596 C 0.14448 0.39752 0.73861 0.0
C597 C 0.09796 0.44505 0.6591 0.0
O598 O 0.12339 0.45647 0.6699 0.0
O599 O 0.09115 0.41652 0.65932 0.0
O600 O 0.18952 0.44042 0.64292 0.0
O601 O 0.15501 0.40222 0.63576 0.0
O602 O 0.12106 0.60945 0.05296 0.0
Cd603 Cd 0.13211 0.58661 0.09089 0.0
Cd604 Cd 0.15103 0.64246 0.11579 0.0
O605 O 0.13405 0.65573 0.07152 0.0
O606 O 0.11183 0.54439 0.08889 0.0
O607 O 0.10349 0.5779 0.12477 0.0
C608 C 0.09965 0.5504 0.11435 0.0
C609 C 0.14078 0.64664 0.16874 0.0
C610 C 0.12451 0.63798 0.04917 0.0
C611 C 0.19912 0.60049 0.10587 0.0
O612 O 0.19349 0.62747 0.11284 0.0
O613 O 0.17798 0.58066 0.09729 0.0
O614 O 0.15164 0.67006 0.15412 0.0
O615 O 0.13223 0.62257 0.15281 0.0
O616 O 0.88649 0.70578 0.69343 0.0
Cd617 Cd 0.89227 0.66073 0.70067 0.0
Cd618 Cd 0.9419 0.67416 0.68146 0.0
O619 O 0.9356 0.71481 0.70331 0.0
O620 O 0.87567 0.647 0.74225 0.0
O621 O 0.92384 0.66211 0.736 0.0
C622 C 0.90241 0.65443 0.75438 0.0
C623 C 0.97874 0.64039 0.68614 0.0
C624 C 0.90934 0.72455 0.69968 0.0
C625 C 0.90421 0.64835 0.63382 0.0
O626 O 0.92374 0.67061 0.63908 0.0
O627 O 0.89066 0.6359 0.65657 0.0
O628 O 0.98537 0.66792 0.6777 0.0
O629 O 0.95151 0.63269 0.69501 0.0
O630 O 0.10386 0.42346 0.93197 0.0
Cd631 Cd 0.1268 0.38495 0.93499 0.0
Cd632 Cd 0.17344 0.42467 0.92942 0.0
O633 O 0.14367 0.4535 0.94755 0.0
O634 O 0.10921 0.35846 0.96959 0.0
O635 O 0.15326 0.38561 0.97337 0.0
C636 C 0.13242 0.36866 0.98646 0.0
C637 C 0.22493 0.42358 0.94218 0.0
C638 C 0.11552 0.44977 0.93981 0.0
C639 C 0.15308 0.39154 0.87215 0.0
O640 O 0.16622 0.41544 0.88436 0.0
O641 O 0.13851 0.37212 0.88904 0.0
O642 O 0.2148 0.44666 0.9291 0.0
O643 O 0.20545 0.40218 0.95045 0.0
O644 O 0.11221 0.66102 0.31187 0.0
Cd645 Cd 0.09863 0.66665 0.35522 0.0
Cd646 Cd 0.13406 0.61912 0.36786 0.0
O647 O 0.14582 0.62746 0.32058 0.0
O648 O 0.07532 0.70343 0.35545 0.0
O649 O 0.11797 0.70004 0.38208 0.0
C650 C 0.09524 0.71537 0.37487 0.0
C651 C 0.1548 0.63081 0.41761 0.0
C652 C 0.13233 0.6445 0.30207 0.0
C653 C 0.06989 0.60733 0.3802 0.0
O654 O 0.09365 0.59363 0.3754 0.0
O655 O 0.06915 0.63526 0.37444 0.0
O656 O 0.16234 0.60717 0.40258 0.0
O657 O 0.13973 0.64979 0.4027 0.0
O658 O 0.96142 0.37785 0.26175 0.0
Cd659 Cd 0.97384 0.37309 0.30612 0.0
Cd660 Cd 0.94218 0.42511 0.31665 0.0
O661 O 0.9296 0.41363 0.26928 0.0
O662 O 0.99023 0.33257 0.31349 0.0
O663 O 0.94653 0.34586 0.33105 0.0
C664 C 0.96671 0.32635 0.32987 0.0
C665 C 0.92409 0.41764 0.36724 0.0
C666 C 0.94213 0.39511 0.25128 0.0
C667 C 1.00659 0.43351 0.32957 0.0
O668 O 0.98408 0.44823 0.32219 0.0
O669 O 1.00516 0.4047 0.32675 0.0
O670 O 0.9165 0.44067 0.35193 0.0
O671 O 0.93802 0.39764 0.35249 0.0
C672 C 0.13545 0.28493 0.46761 0.0
C673 C 0.14803 0.30721 0.44836 0.0
C674 C 0.14645 0.2561 0.46837 0.0
C675 C 0.17024 0.24827 0.44965 0.0
H676 H 0.11702 0.28979 0.48234 0.0
H677 H 0.13557 0.23961 0.48327 0.0
S678 S 0.21136 0.29877 0.39547 0.0
N679 N 0.18601 0.31987 0.41049 0.0
N680 N 0.2065 0.26549 0.41171 0.0
C681 C 0.18336 0.27051 0.43058 0.0
C682 C 0.17229 0.30001 0.42997 0.0
C683 C 0.28346 0.59647 0.91088 0.0
C684 C 0.3051 0.61397 0.89427 0.0
C685 C 0.25207 0.59712 0.90461 0.0
C686 C 0.2415 0.61603 0.88223 0.0
H687 H 0.29082 0.58252 0.92904 0.0
H688 H 0.23598 0.58366 0.91806 0.0
S689 S 0.2886 0.66557 0.83189 0.0
N690 N 0.31355 0.64988 0.85371 0.0
N691 N 0.25473 0.65162 0.84269 0.0
C692 C 0.26284 0.63315 0.86517 0.0
C693 C 0.29464 0.63198 0.87098 0.0
C694 C 0.89831 0.79456 0.48306 0.0
C695 C 0.87047 0.80289 0.47082 0.0
C696 C 0.90537 0.76422 0.48257 0.0
C697 C 0.88471 0.74109 0.4701 0.0
H698 H 0.91563 0.81175 0.49137 0.0
H699 H 0.92778 0.75914 0.49068 0.0
S700 S 0.80628 0.7507 0.44063 0.0
N701 N 0.82055 0.78551 0.4497 0.0
N702 N 0.83333 0.72829 0.44922 0.0
C703 C 0.85565 0.74891 0.46031 0.0
C704 C 0.84867 0.77988 0.4605 0.0
C705 C 0.83633 0.41157 0.87218 0.0
C706 C 0.84143 0.43294 0.84936 0.0
C707 C 0.80845 0.40842 0.88685 0.0
C708 C 0.78452 0.42598 0.87862 0.0
H709 H 0.85408 0.39722 0.87883 0.0
H710 H 0.80519 0.39126 0.90386 0.0
S711 S 0.78665 0.48593 0.82125 0.0
N712 N 0.82088 0.47302 0.82034 0.0
N713 N 0.76778 0.46611 0.84708 0.0
C714 C 0.78941 0.44775 0.85621 0.0
C715 C 0.8181 0.45152 0.84181 0.0
C716 C 0.11153 0.77602 0.59807 0.0
C717 C 0.1227 0.75379 0.61664 0.0
C718 C 0.11947 0.80699 0.60387 0.0
C719 C 0.13831 0.81682 0.62881 0.0
H720 H 0.09728 0.76945 0.57838 0.0
H721 H 0.11091 0.82334 0.5886 0.0
S722 S 0.17229 0.76767 0.68518 0.0
N723 N 0.15285 0.7437 0.66144 0.0
N724 N 0.16725 0.80191 0.67272 0.0
C725 C 0.14884 0.79485 0.6481 0.0
C726 C 0.1412 0.76332 0.6419 0.0
C727 C 0.78815 0.70629 0.15581 0.0
C728 C 0.77113 0.68754 0.13449 0.0
C729 C 0.81673 0.69877 0.16649 0.0
C730 C 0.82918 0.67194 0.15666 0.0
H731 H 0.77911 0.72667 0.16474 0.0
H732 H 0.82879 0.71382 0.18316 0.0
S733 S 0.79412 0.61546 0.10032 0.0
N734 N 0.76918 0.64132 0.10321 0.0
N735 N 0.82272 0.6271 0.12357 0.0
C736 C 0.81266 0.65325 0.13492 0.0
C737 C 0.78372 0.66111 0.12372 0.0
C738 C 0.92136 0.28554 0.61568 0.0
C739 C 0.926 0.25765 0.6014 0.0
C740 C 0.93257 0.31301 0.60333 0.0
C741 C 0.94953 0.31354 0.57674 0.0
H742 H 0.90821 0.2862 0.63605 0.0
H743 H 0.92786 0.33403 0.61471 0.0
S744 S 0.96939 0.24661 0.53159 0.0
N745 N 0.94934 0.23206 0.55966 0.0
N746 N 0.97122 0.28387 0.537 0.0
C747 C 0.95518 0.28582 0.56274 0.0
C748 C 0.94316 0.25781 0.57493 0.0
C749 C 0.28561 0.39541 0.12348 0.0
C750 C 0.29624 0.3709 0.13933 0.0
C751 C 0.25869 0.40809 0.13142 0.0
C752 C 0.24105 0.39656 0.15529 0.0
H753 H 0.29859 0.40557 0.10526 0.0
H754 H 0.25149 0.42684 0.1184 0.0
S755 S 0.25798 0.3317 0.20314 0.0
N756 N 0.28657 0.33502 0.17956 0.0
N757 N 0.23556 0.35858 0.19421 0.0
C758 C 0.25098 0.37162 0.17095 0.0
C759 C 0.27864 0.35885 0.16302 0.0
C760 C 0.43313 0.11079 0.2628 0.0
C761 C 0.44821 0.08742 0.24902 0.0
C762 C 0.43542 0.11622 0.29399 0.0
C763 C 0.45283 0.09842 0.31252 0.0
H764 H 0.41981 0.12539 0.24937 0.0
H765 H 0.42381 0.1348 0.30351 0.0
S766 S 0.49466 0.03271 0.28776 0.0
N767 N 0.47973 0.04521 0.25639 0.0
N768 N 0.48404 0.05531 0.31504 0.0
C769 C 0.46741 0.07444 0.29911 0.0
C770 C 0.46511 0.06897 0.26734 0.0
C771 C 0.41897 0.87214 0.75721 0.0
C772 C 0.44473 0.8861 0.74332 0.0
C773 C 0.41542 0.87483 0.7884 0.0
C774 C 0.43775 0.89114 0.80687 0.0
H775 H 0.40058 0.86043 0.74376 0.0
H776 H 0.39493 0.86416 0.79806 0.0
S777 S 0.51067 0.9297 0.78172 0.0
N778 N 0.4937 0.91537 0.75038 0.0
N779 N 0.4874 0.9199 0.80924 0.0
C780 C 0.46432 0.90398 0.79344 0.0
C781 C 0.46773 0.90156 0.7616 0.0
C782 C 0.62464 0.93696 0.26544 0.0
C783 C 0.61491 0.96331 0.25223 0.0
C784 C 0.61963 0.93118 0.29595 0.0
C785 C 0.60471 0.95157 0.31413 0.0
H786 H 0.63534 0.92022 0.25194 0.0
H787 H 0.62677 0.91026 0.30511 0.0
S788 S 0.57895 1.02597 0.29127 0.0
N789 N 0.59253 1.01138 0.26024 0.0
N790 N 0.58311 1.00059 0.31753 0.0
C791 C 0.59612 0.97864 0.30147 0.0
C792 C 0.60123 0.9845 0.2705 0.0
C793 C 0.67901 0.16876 0.79132 0.0
C794 C 0.66736 0.14116 0.80361 0.0
C795 C 0.66382 0.18195 0.76746 0.0
C796 C 0.63642 0.16802 0.75473 0.0
H797 H 0.69991 0.18055 0.80035 0.0
H798 H 0.67428 0.20273 0.75832 0.0
S799 S 0.59583 0.09591 0.77913 0.0
N800 N 0.62646 0.10052 0.80144 0.0
N801 N 0.59773 0.12551 0.75694 0.0
C802 C 0.6242 0.14072 0.7672 0.0
C803 C 0.63976 0.12719 0.79137 0.0
C804 C 0.8925 0.79797 0.66371 0.0
C805 C 0.91112 0.8196 0.6808 0.0
C806 C 0.89014 0.76733 0.67155 0.0
C807 C 0.90703 0.7573 0.69618 0.0
H808 H 0.88015 0.80469 0.64385 0.0
H809 H 0.87643 0.75117 0.65715 0.0
S810 S 0.95789 0.80515 0.74886 0.0
N811 N 0.9453 0.82927 0.72446 0.0
N812 N 0.94177 0.77135 0.7384 0.0
C813 C 0.92495 0.77881 0.71398 0.0
C814 C 0.92674 0.81011 0.70649 0.0
C815 C 0.83161 0.46229 0.08009 0.0
C816 C 0.83789 0.4372 0.06182 0.0
C817 C 0.8018 0.46665 0.08859 0.0
C818 C 0.77717 0.44652 0.07847 0.0
H819 H 0.85001 0.47798 0.08901 0.0
H820 H 0.79809 0.48567 0.10356 0.0
S821 S 0.78128 0.3788 0.02802 0.0
N822 N 0.8171 0.39282 0.03263 0.0
N823 N 0.76073 0.40153 0.04773 0.0
C824 C 0.78296 0.42215 0.05896 0.0
C825 C 0.81344 0.41732 0.0509 0.0
C826 C 0.09482 0.25809 0.62318 0.0
C827 C 0.12352 0.24671 0.62036 0.0
C828 C 0.09235 0.28778 0.63402 0.0
C829 C 0.11855 0.30688 0.64215 0.0
H830 H 0.07418 0.24315 0.61964 0.0
H831 H 0.06977 0.29521 0.63751 0.0
S832 S 0.19904 0.28838 0.63426 0.0
N833 N 0.17845 0.257 0.6233 0.0
N834 N 0.17425 0.31322 0.64282 0.0
C835 C 0.14744 0.29644 0.63665 0.0
C836 C 0.14981 0.26616 0.62596 0.0
C837 C 0.24589 0.59807 0.13736 0.0
C838 C 0.23044 0.59194 0.10958 0.0
C839 C 0.27672 0.59301 0.14094 0.0
C840 C 0.29322 0.58253 0.11656 0.0
H841 H 0.2342 0.60747 0.15625 0.0
H842 H 0.28811 0.59915 0.16238 0.0
S843 S 0.26241 0.56117 0.03981 0.0
N844 N 0.23288 0.57272 0.05804 0.0
N845 N 0.29146 0.56441 0.06428 0.0
C846 C 0.27768 0.57521 0.08898 0.0
C847 C 0.24604 0.57961 0.08561 0.0
C848 C 0.9882 0.25705 0.37228 0.0
C849 C 0.96208 0.24953 0.38907 0.0
C850 C 0.98939 0.28169 0.35277 0.0
C851 C 0.96414 0.29906 0.3488 0.0
H852 H 1.00781 0.24377 0.37425 0.0
H853 H 1.01029 0.28719 0.34084 0.0
S854 S 0.88878 0.28523 0.38471 0.0
N855 N 0.90976 0.25949 0.39912 0.0
N856 N 0.9112 0.30491 0.36151 0.0
C857 C 0.93744 0.29086 0.36477 0.0
C858 C 0.93662 0.26631 0.38517 0.0
C859 C 0.27541 0.43022 0.91856 0.0
C860 C 0.2578 0.41929 0.94269 0.0
C861 C 0.30545 0.42273 0.91536 0.0
C862 C 0.31923 0.40468 0.93658 0.0
H863 H 0.26556 0.44365 0.90125 0.0
H864 H 0.31804 0.43128 0.89615 0.0
S865 S 0.28362 0.37194 1.00487 0.0
N866 N 0.25645 0.39012 0.98862 0.0
N867 N 0.31371 0.37715 0.9833 0.0
C868 C 0.30236 0.39453 0.96147 0.0
C869 C 0.27139 0.40152 0.96433 0.0
C870 C 0.10705 0.78313 0.42884 0.0
C871 C 0.08843 0.80409 0.41603 0.0
C872 C 0.1089 0.75436 0.41545 0.0
C873 C 0.09187 0.74543 0.38904 0.0
H874 H 0.12146 0.78947 0.44847 0.0
H875 H 0.12413 0.7392 0.42568 0.0
S876 S 0.03718 0.79102 0.34864 0.0
N877 N 0.05101 0.81339 0.37684 0.0
N878 N 0.054 0.7591 0.3519 0.0
C879 C 0.07193 0.76564 0.37694 0.0
C880 C 0.07034 0.79505 0.39039 0.0
C881 C 0.81074 0.65933 0.9622 0.0
C882 C 0.82945 0.6406 0.94614 0.0
C883 C 0.77926 0.65786 0.95629 0.0
C884 C 0.76583 0.63832 0.93349 0.0
H885 H 0.82058 0.67551 0.97914 0.0
H886 H 0.76555 0.67291 0.9688 0.0
S887 S 0.80461 0.58384 0.88592 0.0
N888 N 0.83215 0.60091 0.90761 0.0
N889 N 0.773 0.59896 0.89572 0.0
C890 C 0.78413 0.61906 0.9177 0.0
C891 C 0.81601 0.61995 0.92427 0.0
C892 C 0.72079 0.888 0.7809 0.0
C893 C 0.69776 0.87266 0.79752 0.0
C894 C 0.7189 0.88773 0.74936 0.0
C895 C 0.6944 0.87151 0.73371 0.0
H896 H 0.73858 0.90276 0.79222 0.0
H897 H 0.73516 0.90242 0.73727 0.0
S898 S 0.63229 0.82232 0.7668 0.0
N899 N 0.6526 0.83697 0.79615 0.0
N900 N 0.64961 0.8359 0.73667 0.0
C901 C 0.67357 0.85294 0.74991 0.0
C902 C 0.67509 0.8537 0.78201 0.0
C903 C 0.65105 0.14951 0.2529 0.0
C904 C 0.63454 0.1755 0.25263 0.0
C905 C 0.66195 0.13816 0.27996 0.0
C906 C 0.65721 0.15277 0.30773 0.0
H907 H 0.65568 0.1379 0.23196 0.0
H908 H 0.6748 0.11824 0.27898 0.0
S909 S 0.61428 0.22106 0.31938 0.0
N910 N 0.61286 0.21487 0.28249 0.0
N911 N 0.63394 0.1941 0.33343 0.0
C912 C 0.64023 0.17853 0.30784 0.0
C913 C 0.62868 0.18973 0.28027 0.0
C914 C 0.33186 0.15944 0.76322 0.0
C915 C 0.35051 0.18475 0.75361 0.0
C916 C 0.33006 0.1526 0.79384 0.0
C917 C 0.34683 0.17096 0.81548 0.0
H918 H 0.32162 0.14287 0.74683 0.0
H919 H 0.31924 0.13074 0.8 0.0
S920 S 0.39089 0.24445 0.80282 0.0
N921 N 0.3798 0.23187 0.76862 0.0
N922 N 0.37629 0.21894 0.82634 0.0
C923 C 0.36087 0.19898 0.80661 0.0
C924 C 0.36278 0.20597 0.77544 0.0
C925 C 0.41985 0.87226 0.28664 0.0
C926 C 0.41536 0.88627 0.25895 0.0
C927 C 0.40758 0.88343 0.31316 0.0
C928 C 0.39076 0.90931 0.31305 0.0
H929 H 0.43199 0.85188 0.28767 0.0
H930 H 0.4111 0.87145 0.33387 0.0
S931 S 0.37559 0.95616 0.24672 0.0
N932 N 0.39495 0.92855 0.2332 0.0
N933 N 0.3722 0.94984 0.28312 0.0
C934 C 0.38731 0.92431 0.28569 0.0
C935 C 0.3995 0.91269 0.25862 0.0
C936 C 0.17781 0.10494 0.54734 0.0
C937 C 0.14572 0.10223 0.54479 0.0
C938 C 0.19565 0.10249 0.52176 0.0
C939 C 0.18191 0.0965 0.49314 0.0
H940 H 0.18918 0.11261 0.5684 0.0
H941 H 0.21995 0.10882 0.52385 0.0
S942 S 0.09929 0.07887 0.47626 0.0
N943 N 0.10129 0.08717 0.51281 0.0
N944 N 0.13489 0.0814 0.46482 0.0
C945 C 0.15022 0.08876 0.49127 0.0
C946 C 0.13201 0.09207 0.51715 0.0
C947 C 0.43167 0.58473 1.02057 0.0
C948 C 0.42763 0.61563 1.01661 0.0
C949 C 0.43892 0.57407 0.04917 0.0
C950 C 0.44313 0.59418 0.07421 0.0
H951 H 0.4264 0.56841 1.00221 0.0
H952 H 0.43832 0.54975 0.05228 0.0
S953 S 0.44161 0.67812 0.07338 0.0
N954 N 0.43263 0.66669 0.03836 0.0
N955 N 0.44782 0.64705 0.09187 0.0
C956 C 0.44311 0.62561 0.06941 0.0
C957 C 0.43473 0.63627 0.04059 0.0
C958 C 0.86369 0.95064 0.535 0.0
C959 C 0.8771 0.95076 0.50654 0.0
C960 C 0.88074 0.94491 0.56103 0.0
C961 C 0.91132 0.93797 0.55907 0.0
H962 H 0.83932 0.95222 0.5368 0.0
H963 H 0.86908 0.94296 0.58228 0.0
S964 S 0.95803 0.9398 0.49057 0.0
N965 N 0.92384 0.94788 0.47858 0.0
N966 N 0.95535 0.93528 0.52736 0.0
C967 C 0.92566 0.94061 0.53125 0.0
C968 C 0.90864 0.9476 0.50496 0.0
C969 C 0.66559 0.41187 0.02908 0.0
C970 C 0.67556 0.42938 1.00463 0.0
C971 C 0.65288 0.42548 0.05415 0.0
C972 C 0.65071 0.45712 0.05579 0.0
H973 H 0.66807 0.38764 0.02901 0.0
H974 H 0.6467 0.4115 0.0732 0.0
S975 S 0.67287 0.51254 0.99711 0.0
N976 N 0.68084 0.47939 0.98257 0.0
N977 N 0.65871 0.5053 0.03067 0.0
C978 C 0.65981 0.47464 0.03109 0.0
C979 C 0.67183 0.46066 1.0052 0.0
C980 C 0.14868 0.96942 0.52739 0.0
C981 C 0.13488 0.95574 0.55239 0.0
C982 C 0.13223 0.97108 0.50019 0.0
C983 C 0.1021 0.95764 0.49711 0.0
H984 H 0.17297 0.97604 0.52793 0.0
H985 H 0.14467 0.97875 0.48056 0.0
S986 S 0.05421 0.92555 0.55815 0.0
N987 N 0.08807 0.93422 0.57438 0.0
N988 N 0.0574 0.93627 0.5228 0.0
C989 C 0.08693 0.94812 0.52318 0.0
C990 C 0.10344 0.94717 0.55103 0.0
C991 C 0.62953 0.69764 1.00377 0.0
C992 C 0.62248 0.66603 1.00148 0.0
C993 C 0.62919 0.71289 0.03176 0.0
C994 C 0.62088 0.69706 0.05786 0.0
H995 H 0.63906 0.70993 0.9848 0.0
H996 H 0.63862 0.73633 0.03356 0.0
S997 S 0.5928 0.61579 0.06172 0.0
N998 N 0.60167 0.62059 0.02602 0.0
N999 N 0.59962 0.6495 0.0785 0.0
C1000 C 0.60912 0.66654 0.05477 0.0
C1001 C 0.61036 0.65085 0.0265 0.0
C1002 C 0.95795 0.12408 0.52109 0.0
C1003 C 0.94288 0.11263 0.49447 0.0
C1004 C 0.94249 0.12462 0.54839 0.0
C1005 C 0.91133 0.11467 0.54947 0.0
H1006 H 0.98075 0.13529 0.52023 0.0
H1007 H 0.95389 0.13645 0.56769 0.0
S1008 S 0.86346 0.07688 0.48789 0.0
N1009 N 0.89679 0.08558 0.47246 0.0
N1010 N 0.86748 0.0886 0.52349 0.0
C1011 C 0.89718 0.09989 0.52409 0.0
C1012 C 0.91312 0.09832 0.49656 0.0
C1013 C 0.4637 0.39075 0.04572 0.0
C1014 C 0.45532 0.37305 1.0197 0.0
C1015 C 0.4615 0.37815 0.07434 0.0
C1016 C 0.45002 0.34778 0.07758 0.0
H1017 H 0.46897 0.41506 0.04416 0.0
H1018 H 0.46479 0.39329 0.09392 0.0
S1019 S 0.43303 0.29021 1.01646 0.0
N1020 N 0.44202 0.32212 0.99874 0.0
N1021 N 0.43633 0.29893 0.05288 0.0
C1022 C 0.44578 0.32895 0.05178 0.0
C1023 C 0.44887 0.34153 1.02259 0.0
C1024 C 0.52269 0.18024 0.10889 0.0
C1025 C 0.55075 0.16727 0.10735 0.0
C1026 C 0.49512 0.1621 0.10533 0.0
C1027 C 0.49502 0.1304 0.10131 0.0
H1028 H 0.52205 0.20398 0.11537 0.0
H1029 H 0.47401 0.17238 0.10964 0.0
S1030 S 0.56251 0.08639 0.09179 0.0
N1031 N 0.57691 0.12185 0.09738 0.0
N1032 N 0.52503 0.08745 0.09238 0.0
C1033 C 0.52287 0.11775 0.09682 0.0
C1034 C 0.55087 0.13633 0.09953 0.0
C1035 C 0.455 0.03458 0.67097 0.0
C1036 C 0.43831 1.01485 0.65044 0.0
C1037 C 0.44838 0.06476 0.67414 0.0
C1038 C 0.42459 0.07606 0.6571 0.0
H1039 H 0.47148 1.02597 0.68647 0.0
H1040 H 0.46069 0.07874 0.69151 0.0
S1041 S 0.37787 0.03445 0.59654 0.0
N1042 N 0.4001 1.00916 0.60989 0.0
N1043 N 0.3874 0.06639 0.61582 0.0
C1044 C 0.41 0.05742 0.63414 0.0
C1045 C 0.41696 1.02655 0.63081 0.0
C1046 C 0.5022 0.91332 0.1086 0.0
C1047 C 0.50201 0.88317 0.11818 0.0
C1048 C 0.52983 0.9306 0.10403 0.0
C1049 C 0.55784 0.91784 0.10799 0.0
H1050 H 0.48112 0.92445 0.10746 0.0
H1051 H 0.52938 0.95469 0.10001 0.0
S1052 S 0.56905 0.83863 0.12889 0.0
N1053 N 0.53165 0.84046 0.12882 0.0
N1054 N 0.58359 0.87251 0.11886 0.0
C1055 C 0.55765 0.88682 0.11447 0.0
C1056 C 0.52965 0.86954 0.12002 0.0
C1057 C 0.64953 0.05267 0.63385 0.0
C1058 C 0.62646 0.06501 0.65042 0.0
C1059 C 0.65415 1.02171 0.63551 0.0
C1060 C 0.63602 1.00262 0.65414 0.0
H1061 H 0.66562 0.06742 0.62163 0.0
H1062 H 0.67328 1.01323 0.6239 0.0
S1063 S 0.56926 1.02367 0.69756 0.0
N1064 N 0.58307 0.05575 0.68269 0.0
N1065 N 0.59122 0.99743 0.68567 0.0
C1066 C 0.61115 1.01436 0.66855 0.0
C1067 C 0.60651 0.04571 0.66674 0.0
C1068 C 0.54383 0.93746 0.92511 0.0
C1069 C 0.53168 0.91041 0.93779 0.0
C1070 C 0.57437 0.94052 0.91667 0.0
C1071 C 0.59351 0.91696 0.92153 0.0
H1072 H 0.52882 0.95423 0.91756 0.0
H1073 H 0.58221 0.96013 0.90382 0.0
S1074 S 0.57425 0.84595 0.96237 0.0
N1075 N 0.54209 0.86287 0.9608 0.0
N1076 N 0.59999 0.86905 0.94599 0.0
C1077 C 0.58288 0.89232 0.93892 0.0
C1078 C 0.55169 0.88902 0.94701 0.0
C1079 C 0.65234 1.01401 0.46856 0.0
C1080 C 0.62141 1.00747 0.46022 0.0
C1081 C 0.66698 0.04292 0.46375 0.0
C1082 C 0.6509 0.06567 0.45055 0.0
H1083 H 0.6661 0.99591 0.4753 0.0
H1084 H 0.69146 0.04648 0.4675 0.0
S1085 S 0.56817 0.06194 0.43209 0.0
N1086 N 0.5741 0.02761 0.44389 0.0
N1087 N 0.60167 0.08177 0.43468 0.0
C1088 C 0.61928 0.06051 0.44593 0.0
C1089 C 0.60443 0.03138 0.45101 0.0
C1090 C 0.51168 0.12398 0.84711 0.0
C1091 C 0.49395 0.12316 0.87307 0.0
C1092 C 0.54343 0.12725 0.84933 0.0
C1093 C 0.55867 0.12934 0.8776 0.0
H1094 H 0.50098 0.12286 0.82481 0.0
H1095 H 0.5561 0.12836 0.82863 0.0
S1096 S 0.5227 0.12628 0.95249 0.0
N1097 N 0.49371 0.12336 0.92799 0.0
N1098 N 0.55382 0.1291 0.93217 0.0
C1099 C 0.54131 0.12755 0.90382 0.0
C1100 C 0.5088 0.12463 0.90155 0.0
C1101 C 0.42796 1.00203 0.45523 0.0
C1102 C 0.39621 0.99757 0.4579 0.0
C1103 C 0.4429 0.03109 0.45855 0.0
C1104 C 0.42637 0.05652 0.46412 0.0
H1105 H 0.44089 0.98346 0.44779 0.0
H1106 H 0.46686 0.03413 0.45311 0.0
S1107 S 0.34361 0.05562 0.47835 0.0
N1108 N 0.34935 1.01968 0.47101 0.0
N1109 N 0.37743 0.07474 0.4768 0.0
C1110 C 0.39526 0.05174 0.47066 0.0
C1111 C 0.38005 1.02201 0.46742 0.0
C1112 C 0.085 0.47018 0.13838 0.0
C1113 C 0.09368 0.47302 0.1691 0.0
C1114 C 0.08267 0.49596 0.12092 0.0
C1115 C 0.08846 0.52528 0.13383 0.0
H1116 H 0.0838 0.44816 0.1269 0.0
H1117 H 0.07952 0.49286 0.0967 0.0
S1118 S 0.10103 0.54391 0.21547 0.0
N1119 N 0.10089 0.50651 0.2131 0.0
N1120 N 0.09492 0.55526 0.18074 0.0
C1121 C 0.09178 0.5281 0.16551 0.0
C1122 C 0.09498 0.5018 0.18309 0.0
C1123 C 0.10843 0.53181 0.92676 0.0
C1124 C 0.10024 0.53063 0.89589 0.0
C1125 C 0.10914 0.50506 0.94309 0.0
C1126 C 0.10092 0.47661 0.92912 0.0
H1127 H 0.11807 0.55292 0.9373 0.0
H1128 H 0.11936 0.50638 0.9656 0.0
S1129 S 0.06899 0.46307 0.85128 0.0
N1130 N 0.07793 0.50012 0.85375 0.0
N1131 N 0.07749 0.4498 0.88471 0.0
C1132 C 0.08772 0.47592 0.89979 0.0
C1133 C 0.08797 0.50304 0.88296 0.0
C1134 C 1.01672 0.59072 0.39034 0.0
C1135 C 0.04692 0.59562 0.4013 0.0
C1136 C 0.99256 0.60001 0.40749 0.0
C1137 C 0.99826 0.61515 0.43558 0.0
H1138 H 1.01218 0.58386 0.36695 0.0
H1139 H 0.97007 0.59925 0.39683 0.0
S1140 S 0.07224 0.62554 0.47722 0.0
N1141 N 0.08025 0.60938 0.44469 0.0
N1142 N 0.03504 0.62878 0.47609 0.0
C1143 C 1.0276 0.6159 0.44853 0.0
C1144 C 0.05193 0.60524 0.4316 0.0
C1145 C 0.9685 0.54125 0.91356 0.0
C1146 C 0.96775 0.57251 0.9087 0.0
C1147 C 0.96886 0.52059 0.88923 0.0
C1148 C 0.96788 0.53049 0.85928 0.0
H1149 H 0.96621 0.53244 0.9361 0.0
H1150 H 0.96644 0.49656 0.89393 0.0
S1151 S 0.97316 0.61023 0.83464 0.0
N1152 N 0.97226 0.61279 0.87184 0.0
N1153 N 0.97161 0.57353 0.82613 0.0
C1154 C 0.97071 0.56177 0.85421 0.0
C1155 C 0.97108 0.58294 0.879 0.0
C1156 C 0.08445 0.44723 0.36385 0.0
C1157 C 0.07744 0.44807 0.39465 0.0
C1158 C 0.06125 0.44652 0.34164 0.0
C1159 C 0.03068 0.44763 0.34972 0.0
H1160 H 0.10741 0.44353 0.35699 0.0
H1161 H 0.06688 0.44216 0.31834 0.0
S1162 S 1.00138 0.45436 0.42713 0.0
N1163 N 0.03859 0.45288 0.43205 0.0
N1164 N 0.99503 0.45323 0.39022 0.0
C1165 C 1.02396 0.45207 0.38027 0.0
C1166 C 0.04741 0.45181 0.40287 0.0
C1167 C 0.95222 0.54966 0.09373 0.0
C1168 C 0.96175 0.52108 0.1014 0.0
C1169 C 0.94392 0.57014 0.11597 0.0
C1170 C 0.94501 0.56284 0.14657 0.0
H1171 H 0.9489 0.55544 0.07032 0.0
H1172 H 0.93482 0.59108 0.10904 0.0
S1173 S 0.97501 0.49463 0.17931 0.0
N1174 N 0.97694 0.48907 0.14243 0.0
N1175 N 0.96065 0.52781 0.18412 0.0
C1176 C 0.95716 0.53586 0.15492 0.0
C1177 C 0.96597 0.515 0.1323 0.0
C1178 C 1.02665 0.46784 0.62445 0.0
C1179 C 0.03305 0.46299 0.59384 0.0
C1180 C 0.04966 0.46705 0.64673 0.0
C1181 C 0.07967 0.46234 0.63878 0.0
H1182 H 1.0032 0.46799 0.63152 0.0
H1183 H 0.04325 0.46641 0.6702 0.0
S1184 S 0.10888 0.45541 0.56142 0.0
N1185 N 0.07185 0.45808 0.55645 0.0
N1186 N 0.11551 0.45827 0.59825 0.0
C1187 C 0.087 0.46223 0.60809 0.0
C1188 C 0.06347 0.46206 0.58551 0.0
C1189 C 1.02036 0.59818 0.63143 0.0
C1190 C 0.05002 0.60346 0.64369 0.0
C1191 C 0.99517 0.60439 0.64867 0.0
C1192 C 0.99938 0.61745 0.67782 0.0
H1193 H 1.01687 0.59303 0.60753 0.0
H1194 H 0.9729 0.60332 0.63761 0.0
S1195 S 0.07138 0.62683 0.72251 0.0
N1196 N 0.08139 0.61444 0.689 0.0
N1197 N 0.03402 0.62861 0.72046 0.0
C1198 C 1.0282 0.61812 0.69172 0.0
C1199 C 0.05367 0.61047 0.6747 0.0
C1200 C 0.05387 0.15781 0.38527 0.0
C1201 C 0.03637 0.12987 0.38009 0.0
C1202 C 0.08604 0.15978 0.38713 0.0
C1203 C 0.10276 0.13402 0.38363 0.0
H1204 H 0.04259 0.17839 0.38937 0.0
H1205 H 0.09795 0.18162 0.39305 0.0
S1206 S 0.06877 0.05538 0.36839 0.0
N1207 N 0.03886 0.07573 0.37012 0.0
N1208 N 0.0992 0.07959 0.37375 0.0
C1209 C 0.08584 0.10611 0.37691 0.0
C1210 C 0.05281 0.10402 0.37505 0.0
C1211 C 0.45035 0.50493 0.91646 0.0
C1212 C 0.43904 0.48288 0.89449 0.0
C1213 C 0.44789 0.53628 0.91278 0.0
C1214 C 0.43447 0.54768 0.88668 0.0
H1215 H 0.45967 0.49782 0.93775 0.0
H1216 H 0.45546 0.55168 0.9313 0.0
S1217 S 0.40398 0.50061 0.8206 0.0
N1218 N 0.41577 0.47545 0.84437 0.0
N1219 N 0.41187 0.53432 0.83716 0.0
C1220 C 0.42513 0.52628 0.86343 0.0
C1221 C 0.42729 0.49404 0.86736 0.0
C1222 C 0.99248 0.94226 0.38149 0.0
C1223 C 1.01038 0.91771 0.38756 0.0
C1224 C 0.96019 0.93968 0.38461 0.0
C1225 C 0.94441 0.91241 0.39385 0.0
H1226 H 1.00362 0.96415 0.37598 0.0
H1227 H 0.94784 0.95971 0.38166 0.0
S1228 S 0.97963 0.84027 0.4086 0.0
N1229 N 1.00876 0.86434 0.4003 0.0
N1230 N 0.94916 0.85968 0.40614 0.0
C1231 C 0.96188 0.88734 0.39806 0.0
C1232 C 0.99444 0.88991 0.39492 0.0
C1233 C 0.66366 0.50435 0.85513 0.0
C1234 C 0.65127 0.48351 0.87633 0.0
C1235 C 0.66157 0.53624 0.85874 0.0
C1236 C 0.64677 0.54869 0.88358 0.0
H1237 H 0.67698 0.49621 0.83682 0.0
H1238 H 0.67352 0.55129 0.84317 0.0
S1239 S 0.60597 0.50356 0.94249 0.0
N1240 N 0.62069 0.47773 0.921 0.0
N1241 N 0.61606 0.53661 0.92738 0.0
C1242 C 0.63217 0.52771 0.90337 0.0
C1243 C 0.63463 0.49554 0.8999 0.0
C1244 C 0.0321 0.91953 0.69742 0.0
C1245 C 1.01829 0.93649 0.67502 0.0
C1246 C 0.06425 0.91903 0.70028 0.0
C1247 C 0.08416 0.93502 0.68046 0.0
H1248 H 1.01788 0.90463 0.71137 0.0
H1249 H 0.07339 0.90408 0.71663 0.0
S1250 S 0.05983 0.98621 0.62056 0.0
N1251 N 1.02739 0.97198 0.63465 0.0
N1252 N 0.08726 0.97124 0.63986 0.0
C1253 C 0.07063 0.95372 0.65937 0.0
C1254 C 0.03797 0.95433 0.65664 0.0
C1255 C 0.62483 0.56463 0.17538 0.0
C1256 C 0.65069 0.54777 0.17175 0.0
C1257 C 0.62691 0.59692 0.17449 0.0
C1258 C 0.65499 0.61386 0.17008 0.0
H1259 H 0.60244 0.55276 0.17724 0.0
H1260 H 0.60612 0.60848 0.17521 0.0
S1261 S 0.73007 0.58173 0.16249 0.0
N1262 N 0.70578 0.55158 0.16613 0.0
N1263 N 0.70946 0.61133 0.16427 0.0
C1264 C 0.68113 0.59742 0.16822 0.0
C1265 C 0.67909 0.56477 0.16915 0.0
C1266 C 0.99644 0.16339 0.69188 0.0
C1267 C 0.97262 0.1479 0.67419 0.0
C1268 C 1.0275 0.15744 0.68837 0.0
C1269 C 0.03617 0.13562 0.6671 0.0
H1270 H 0.99136 0.18178 0.70704 0.0
H1271 H 0.04495 0.1718 0.7006 0.0
S1272 S 0.98259 0.08527 0.61875 0.0
N1273 N 0.96014 0.10701 0.63731 0.0
N1274 N 1.01767 0.09604 0.63083 0.0
C1275 C 1.01232 0.11831 0.65125 0.0
C1276 C 0.9809 0.12437 0.65472 0.0
C1277 C 0.3844 0.49019 0.17324 0.0
C1278 C 0.41027 0.50736 0.18572 0.0
C1279 C 0.38261 0.45816 0.17125 0.0
C1280 C 0.40638 0.44119 0.18188 0.0
H1281 H 0.36572 0.5016 0.16355 0.0
H1282 H 0.36275 0.44653 0.15994 0.0
S1283 S 0.47847 0.47425 0.21857 0.0
N1284 N 0.45981 0.50425 0.21062 0.0
N1285 N 0.45616 0.44417 0.20687 0.0
C1286 C 0.43171 0.45775 0.19596 0.0
C1287 C 0.4337 0.49066 0.19787 0.0
C1288 C 0.37584 0.98463 0.15743 0.0
C1289 C 0.38124 1.00213 0.13152 0.0
C1290 C 0.37409 0.95252 0.15628 0.0
C1291 C 0.37792 0.93598 0.12921 0.0
H1292 H 0.37525 0.99595 0.17932 0.0
H1293 H 0.37145 0.94055 0.17721 0.0
S1294 S 0.39077 0.97056 0.05436 0.0
N1295 N 0.38884 1.00015 0.07753 0.0
N1296 N 0.38534 0.94008 0.0752 0.0
C1297 C 0.38127 0.95309 0.10271 0.0
C1298 C 0.3831 0.98596 0.10393 0.0
C1299 C 0.5282 0.90819 0.62218 0.0
C1300 C 0.50977 0.88044 0.62132 0.0
C1301 C 0.5604 0.90918 0.62321 0.0
C1302 C 0.57614 0.88255 0.62309 0.0
H1303 H 0.51771 0.92952 0.62375 0.0
H1304 H 0.57316 0.93115 0.62602 0.0
S1305 S 0.53952 0.80389 0.61895 0.0
N1306 N 0.51041 0.82536 0.61851 0.0
N1307 N 0.57068 0.82751 0.62064 0.0
C1308 C 0.55824 0.85467 0.62054 0.0
C1309 C 0.52526 0.85356 0.61951 0.0
C1310 C 0.66886 0.09642 0.10152 0.0
C1311 C 0.6743 0.11551 0.12749 0.0
C1312 C 0.66762 0.06418 0.10315 0.0
C1313 C 0.67217 0.04962 0.13076 0.0
H1314 H 0.66328 0.10631 0.08015 0.0
H1315 H 0.66077 0.05062 0.08313 0.0
S1316 S 0.69147 0.08884 0.20444 0.0
N1317 N 0.68745 0.1169 0.181 0.0
N1318 N 0.68524 0.05718 0.18395 0.0
C1319 C 0.67979 0.06856 0.15627 0.0
C1320 C 0.68086 0.10114 0.15469 0.0
C1321 C 0.52671 0.17791 0.6449 0.0
C1322 C 0.54448 0.206 0.64752 0.0
C1323 C 0.49451 0.17592 0.64631 0.0
C1324 C 0.47798 0.20185 0.64994 0.0
H1325 H 0.53779 0.15693 0.64317 0.0
H1326 H 0.48243 0.15352 0.64597 0.0
S1327 S 0.51256 0.28122 0.65612 0.0
N1328 N 0.54225 0.26081 0.65248 0.0
N1329 N 0.48201 0.25679 0.65496 0.0
C1330 C 0.49513 0.23021 0.65114 0.0
C1331 C 0.52814 0.23234 0.64992 0.0
C1332 C 0.35713 1.02111 0.89895 0.0
C1333 C 0.37992 0.04246 0.91129 0.0
C1334 C 0.35913 0.98935 0.90104 0.0
C1335 C 0.38455 0.97703 0.91481 0.0
H1336 H 0.33814 0.02906 0.88622 0.0
H1337 H 0.3413 0.97435 0.89015 0.0
S1338 S 0.45047 1.02301 0.95134 0.0
N1339 N 0.42837 0.04877 0.93873 0.0
N1340 N 0.43263 0.98957 0.94221 0.0
C1341 C 0.40707 0.9982 0.92817 0.0
C1342 C 0.40468 0.03062 0.92647 0.0
C1343 C 0.49 0.88195 0.40615 0.0
C1344 C 0.50981 0.88406 0.43181 0.0
C1345 C 0.45802 0.88075 0.40848 0.0
C1346 C 0.44373 0.88133 0.43662 0.0
H1347 H 0.4994 0.88306 0.38377 0.0
H1348 H 0.4444 0.88085 0.38782 0.0
S1349 S 0.48443 0.88378 0.51116 0.0
N1350 N 0.51223 0.88444 0.4866 0.0
N1351 N 0.45218 0.88174 0.49105 0.0
C1352 C 0.463 0.88118 0.46261 0.0
C1353 C 0.49589 0.88259 0.4602 0.0
C1354 C 0.73785 0.04178 0.90452 0.0
C1355 C 0.71183 0.05709 0.91211 0.0
C1356 C 0.73724 1.00951 0.90331 0.0
C1357 C 0.71082 0.99093 0.91029 0.0
H1358 H 0.75837 0.05476 0.89761 0.0
H1359 H 0.757 0.9991 0.89498 0.0
S1360 S 0.6373 1.01882 0.93382 0.0
N1361 N 0.65936 0.05026 0.92855 0.0
N1362 N 0.6585 0.99046 0.92648 0.0
C1363 C 0.68532 1.00592 0.9195 0.0
C1364 C 0.68577 0.03862 0.92045 0.0
C1365 C 0.55858 0.17742 0.40306 0.0
C1366 C 0.54067 0.17595 0.42913 0.0
C1367 C 0.5907 0.17905 0.40465 0.0
C1368 C 0.60699 0.1795 0.43241 0.0
H1369 H 0.54755 0.17516 0.38093 0.0
H1370 H 0.60281 0.17818 0.3837 0.0
S1371 S 0.57154 0.17857 0.5078 0.0
N1372 N 0.54202 0.17696 0.48391 0.0
N1373 N 0.60238 0.18053 0.487 0.0
C1374 C 0.58956 0.18027 0.45885 0.0
C1375 C 0.55653 0.17841 0.45719 0.0
C1376 C 0.10712 0.3581 0.03708 0.0
C1377 C 0.13392 0.36418 1.02032 0.0
C1378 C 0.10755 0.35978 0.06919 0.0
C1379 C 0.13489 0.36692 0.08606 0.0
H1380 H 0.08528 0.35401 0.02532 0.0
H1381 H 0.08606 0.3575 0.08073 0.0
S1382 S 0.21175 0.3818 0.0539 0.0
N1383 N 0.18895 0.37543 1.02394 0.0
N1384 N 0.1896 0.37817 0.08342 0.0
C1385 C 0.16194 0.37112 0.06963 0.0
C1386 C 0.16152 0.3698 0.03714 0.0
C1387 C 0.14316 0.67758 0.97415 0.0
C1388 C 0.12622 0.65877 0.95244 0.0
C1389 C 0.14076 0.67266 1.0057 0.0
C1390 C 0.12121 0.64876 1.01705 0.0
H1391 H 0.15984 0.69506 0.96672 0.0
H1392 H 0.15584 0.68641 1.02111 0.0
S1393 S 0.06813 0.5962 0.97018 0.0
N1394 N 0.08655 0.61755 0.94526 0.0
N1395 N 0.08185 0.60858 1.00356 0.0
C1396 C 0.10254 0.63139 0.99557 0.0
C1397 C 0.10509 0.63628 0.96368 0.0
C1398 C 0.87004 0.62772 0.55399 0.0
C1399 C 0.89628 0.62913 0.53585 0.0
C1400 C 0.87222 0.63148 0.58606 0.0
C1401 C 0.90075 0.6369 0.60135 0.0
H1402 H 0.84759 0.62544 0.54326 0.0
H1403 H 0.85143 0.63204 0.59865 0.0
S1404 S 0.97644 0.63877 0.56514 0.0
N1405 N 0.95173 0.63307 0.53666 0.0
N1406 N 0.95573 0.64077 0.5956 0.0
C1407 C 0.92698 0.63651 0.58351 0.0
C1408 C 0.9248 0.63246 0.55126 0.0
C1409 C 0.94317 0.37756 0.92086 0.0
C1410 C 0.95989 0.39932 0.90341 0.0
C1411 C 0.94299 0.37984 0.95291 0.0
C1412 C 0.95951 0.404 0.96906 0.0
H1413 H 0.92844 0.35974 0.90964 0.0
H1414 H 0.9281 0.36374 0.9649 0.0
S1415 S 1.01147 0.46371 0.93477 0.0
N1416 N 0.99671 0.44341 0.90548 0.0
N1417 N 0.99626 0.44777 0.96488 0.0
C1418 C 0.97814 0.42443 0.95194 0.0
C1419 C 0.97836 0.42209 0.91949 0.0
C1420 C 0.17327 0.39126 0.57463 0.0
C1421 C 0.18162 0.41856 0.59095 0.0
C1422 C 0.17101 0.39015 0.54281 0.0
C1423 C 0.1769 0.41624 0.52534 0.0
H1424 H 0.16674 0.37071 0.58663 0.0
H1425 H 0.16247 0.3689 0.5318 0.0
S1426 S 0.20055 0.49347 0.55631 0.0
N1427 N 0.19724 0.47237 0.58662 0.0
N1428 N 0.19242 0.47022 0.527 0.0
C1429 C 0.18687 0.44342 0.54111 0.0
C1430 C 0.18944 0.44457 0.57375 0.0
C1431 C 0.93945 0.70168 0.05337 0.0
C1432 C 0.95356 0.67751 0.03945 0.0
C1433 C 0.93877 0.70521 0.08535 0.0
C1434 C 0.95204 0.68466 0.10477 0.0
H1435 H 0.92683 0.71655 0.03961 0.0
H1436 H 0.92579 0.72279 0.09486 0.0
S1437 S 0.99665 0.62113 0.07993 0.0
N1438 N 0.9847 0.63538 0.04806 0.0
N1439 N 0.98313 0.64181 0.10729 0.0
C1440 C 0.96815 0.66197 0.09104 0.0
C1441 C 0.96901 0.65849 0.05873 0.0
C1442 C 0.91601 0.44136 0.41974 0.0
C1443 C 0.92108 0.41568 0.40127 0.0
C1444 C 0.91911 0.441 0.45184 0.0
C1445 C 0.92736 0.41489 0.46691 0.0
H1446 H 0.91134 0.46249 0.40928 0.0
H1447 H 0.91693 0.46182 0.46468 0.0
S1448 S 0.93988 0.3407 0.42999 0.0
N1449 N 0.93231 0.36268 0.4016 0.0
N1450 N 0.93772 0.36199 0.46075 0.0
C1451 C 0.93054 0.3887 0.44879 0.0
C1452 C 0.92752 0.38906 0.41645 0.0
C1453 C 0.14909 0.6639 0.49776 0.0
C1454 C 0.15378 0.63947 0.51699 0.0
C1455 C 0.15158 0.66143 0.46614 0.0
C1456 C 0.15885 0.63429 0.45164 0.0
H1457 H 0.14208 0.68503 0.50716 0.0
H1458 H 0.14633 0.68072 0.45284 0.0
S1459 S 0.17522 0.5637 0.49128 0.0
N1460 N 0.16772 0.58748 0.51895 0.0
N1461 N 0.17239 0.58262 0.45969 0.0
C1462 C 0.16523 0.61005 0.47064 0.0
C1463 C 0.16274 0.61267 0.50312 0.0
C1464 C 0.34143 0.13764 0.39233 0.0
C1465 C 0.35473 0.15875 0.41426 0.0
C1466 C 0.30939 0.1331 0.38736 0.0
C1467 C 0.28874 0.14966 0.40373 0.0
H1468 H 0.35585 0.12356 0.37955 0.0
H1469 H 0.30073 0.11586 0.37091 0.0
S1470 S 0.31135 0.20913 0.46257 0.0
N1471 N 0.34415 0.19728 0.45168 0.0
N1472 N 0.28462 0.18924 0.44212 0.0
C1473 C 0.30179 0.17167 0.42493 0.0
C1474 C 0.33442 0.17604 0.43023 0.0
C1475 C 0.43222 0.74552 0.90033 0.0
C1476 C 0.40621 0.7283 0.91008 0.0
C1477 C 0.43399 0.77764 0.90119 0.0
C1478 C 0.40969 0.79438 0.91136 0.0
H1479 H 0.45173 0.73417 0.89279 0.0
H1480 H 0.4549 0.78945 0.89362 0.0
S1481 S 0.33532 0.76004 0.93711 0.0
N1482 N 0.35474 0.73053 0.92898 0.0
N1483 N 0.35811 0.79048 0.92989 0.0
C1484 C 0.38316 0.77737 0.92022 0.0
C1485 C 0.38146 0.74461 0.91978 0.0
C1486 C 0.70864 0.91904 0.40176 0.0
C1487 C 0.69556 0.8994 0.42363 0.0
C1488 C 0.74061 0.92306 0.39772 0.0
C1489 C 0.76134 0.90723 0.41492 0.0
H1490 H 0.69413 0.93246 0.38831 0.0
H1491 H 0.74915 0.93919 0.38125 0.0
S1492 S 0.73928 0.85159 0.47406 0.0
N1493 N 0.7064 0.8631 0.46204 0.0
N1494 N 0.76581 0.86995 0.45406 0.0
C1495 C 0.7485 0.88663 0.43608 0.0
C1496 C 0.71596 0.88292 0.44053 0.0
C1497 C 0.70101 0.25457 0.91915 0.0
C1498 C 0.68384 0.23745 0.89671 0.0
C1499 C 0.70103 0.28661 0.92114 0.0
C1500 C 0.6842 0.30357 0.90061 0.0
H1501 H 0.71425 0.24314 0.93564 0.0
H1502 H 0.71476 0.29818 0.93912 0.0
S1503 S 0.63659 0.26996 0.83635 0.0
N1504 N 0.65007 0.24034 0.8526 0.0
N1505 N 0.65058 0.30005 0.8564 0.0
C1506 C 0.66729 0.28675 0.87776 0.0
C1507 C 0.66702 0.25403 0.87583 0.0
C1508 C 0.31264 0.89906 0.62533 0.0
C1509 C 0.33021 0.9051 0.65197 0.0
C1510 C 0.28091 0.90259 0.62426 0.0
C1511 C 0.2648 0.91198 0.64985 0.0
H1512 H 0.32356 0.89221 0.60489 0.0
H1513 H 0.26887 0.89766 0.60292 0.0
S1514 S 0.29975 0.92909 0.72585 0.0
N1515 N 0.32862 0.9201 0.70513 0.0
N1516 N 0.26945 0.92617 0.703 0.0
C1517 C 0.28203 0.91747 0.67679 0.0
C1518 C 0.31442 0.9142 0.67785 0.0
C1519 C 0.68078 0.81358 0.13758 0.0
C1520 C 0.66075 0.79957 0.15864 0.0
C1521 C 0.68291 0.84541 0.13313 0.0
C1522 C 0.66559 0.86514 0.14993 0.0
H1523 H 0.69415 0.7997 0.12341 0.0
H1524 H 0.69782 0.85451 0.11582 0.0
S1525 S 0.61095 0.84067 0.20937 0.0
N1526 N 0.62399 0.80863 0.19727 0.0
N1527 N 0.62848 0.86787 0.18964 0.0
C1528 C 0.64638 0.85156 0.17194 0.0
C1529 C 0.64382 0.8191 0.17607 0.0
C1530 C 0.77456 0.18773 0.62692 0.0
C1531 C 0.79343 0.18011 0.65161 0.0
C1532 C 0.743 0.19137 0.62987 0.0
C1533 C 0.72849 0.18712 0.65759 0.0
H1534 H 0.78421 0.19074 0.60481 0.0
H1535 H 0.72967 0.19622 0.60998 0.0
S1536 S 0.76694 0.16851 0.72974 0.0
N1537 N 0.79474 0.17003 0.70518 0.0
N1538 N 0.73584 0.17597 0.71064 0.0
C1539 C 0.74714 0.18022 0.6826 0.0
C1540 C 0.77934 0.17701 0.6797 0.0
C1541 C 0.41047 0.20233 0.17928 0.0
C1542 C 0.39023 0.18831 0.15691 0.0
C1543 C 0.41323 0.23424 0.18474 0.0
C1544 C 0.39565 0.25404 0.1684 0.0
H1545 H 0.42529 0.18864 0.19207 0.0
H1546 H 0.42993 0.24351 0.20148 0.0
S1547 S 0.33776 0.22926 0.10849 0.0
N1548 N 0.35132 0.19726 0.11913 0.0
N1549 N 0.35605 0.25649 0.12953 0.0
C1550 C 0.37446 0.2402 0.14676 0.0
C1551 C 0.37189 0.20772 0.141 0.0
C1552 C 0.17196 0.40509 0.28476 0.0
C1553 C 0.14819 0.38445 0.27275 0.0
C1554 C 0.17745 0.40953 0.31631 0.0
C1555 C 0.15961 0.39345 0.3378 0.0
H1556 H 0.18614 0.41867 0.26963 0.0
H1557 H 0.19546 0.42632 0.32389 0.0
S1558 S 0.09504 0.33583 0.31884 0.0
N1559 N 0.10713 0.34716 0.2856 0.0
N1560 N 0.11737 0.35515 0.34414 0.0
C1561 C 0.13628 0.37213 0.32609 0.0
C1562 C 0.13062 0.36773 0.29396 0.0
C1563 C 0.15967 0.61378 0.72069 0.0
C1564 C 0.1533 0.63935 0.70392 0.0
C1565 C 0.15602 0.61286 0.75222 0.0
C1566 C 0.14607 0.63757 0.76931 0.0
H1567 H 0.1667 0.59366 0.70926 0.0
H1568 H 0.16116 0.59218 0.76329 0.0
S1569 S 0.12695 0.71071 0.7369 0.0
N1570 N 0.13671 0.69058 0.70729 0.0
N1571 N 0.13074 0.68905 0.76648 0.0
C1572 C 0.14045 0.66375 0.75306 0.0
C1573 C 0.1438 0.66457 0.72059 0.0
C1574 C 0.93067 0.6752 0.30158 0.0
C1575 C 0.91954 0.64914 0.28467 0.0
C1576 C 0.92878 0.67668 0.33343 0.0
C1577 C 0.91554 0.65226 0.35039 0.0
H1578 H 0.9406 0.69492 0.29014 0.0
H1579 H 0.93771 0.69756 0.34485 0.0
S1580 S 0.88406 0.57797 0.31769 0.0
N1581 N 0.89551 0.59752 0.28809 0.0
N1582 N 0.89199 0.60073 0.34734 0.0
C1583 C 0.90464 0.62592 0.33388 0.0
C1584 C 0.90665 0.62428 0.30139 0.0
C1585 C 0.92215 0.45097 0.70338 0.0
C1586 C 0.93456 0.42801 0.72062 0.0
C1587 C 0.92051 0.44982 0.67153 0.0
C1588 C 0.93137 0.42574 0.65467 0.0
H1589 H 0.91345 0.47043 0.71457 0.0
H1590 H 0.91117 0.46852 0.66002 0.0
S1591 S 0.96552 0.35907 0.68787 0.0
N1592 N 0.95723 0.37972 0.71767 0.0
N1593 N 0.95479 0.37772 0.65804 0.0
C1594 C 0.94355 0.40229 0.67144 0.0
C1595 C 0.94494 0.40334 0.70414 0.0
C1596 C 0.7755 0.92713 0.66017 0.0
C1597 C 0.76326 0.90861 0.63566 0.0
C1598 C 0.80736 0.93133 0.6666 0.0
C1599 C 0.8288 0.91761 0.64859 0.0
H1600 H 0.76023 0.93751 0.67543 0.0
H1601 H 0.81517 0.94493 0.68631 0.0
S1602 S 0.80908 0.86919 0.57992 0.0
N1603 N 0.77564 0.87783 0.59234 0.0
N1604 N 0.83486 0.88613 0.60362 0.0
C1605 C 0.81684 0.90011 0.6232 0.0
C1606 C 0.78441 0.89549 0.61698 0.0
C1607 C 0.67031 0.31271 0.12999 0.0
C1608 C 0.65271 0.29782 0.15224 0.0
C1609 C 0.67392 0.34485 0.12882 0.0
C1610 C 0.66009 0.36409 0.1497 0.0
H1611 H 0.68089 0.29951 0.11291 0.0
H1612 H 0.68736 0.35466 0.11069 0.0
S1613 S 0.61322 0.3371 0.21385 0.0
N1614 N 0.62249 0.30556 0.19698 0.0
N1615 N 0.62911 0.36523 0.19418 0.0
C1616 C 0.64303 0.34956 0.17247 0.0
C1617 C 0.63946 0.31682 0.17385 0.0
C1618 C 0.24641 0.15063 0.67561 0.0
C1619 C 0.22573 0.15883 0.65303 0.0
C1620 C 0.27845 0.1561 0.6726 0.0
C1621 C 0.29136 0.17106 0.6474 0.0
H1622 H 0.23779 0.13992 0.69582 0.0
H1623 H 0.29324 0.14961 0.6908 0.0
S1624 S 0.24749 0.19789 0.5822 0.0
N1625 N 0.22098 0.1824 0.60423 0.0
N1626 N 0.28052 0.19407 0.59962 0.0
C1627 C 0.27095 0.17952 0.62482 0.0
C1628 C 0.23845 0.17303 0.62735 0.0
C1629 C 0.39037 0.73856 0.13536 0.0
C1630 C 0.40141 0.75591 0.1609 0.0
C1631 C 0.38933 0.70635 0.13472 0.0
C1632 C 0.39926 0.68953 0.15957 0.0
H1633 H 0.38337 0.74992 0.11525 0.0
H1634 H 0.38115 0.69458 0.11407 0.0
S1635 S 0.42776 0.72357 0.23312 0.0
N1636 N 0.42065 0.75315 0.21273 0.0
N1637 N 0.41884 0.69334 0.21116 0.0
C1638 C 0.40936 0.70654 0.18559 0.0
C1639 C 0.41039 0.73934 0.18632 0.0
C1640 C 0.8014 0.12705 0.3863 0.0
C1641 C 0.78597 0.15027 0.40071 0.0
C1642 C 0.83368 0.12814 0.38506 0.0
C1643 C 0.8523 0.15259 0.39807 0.0
H1644 H 0.78845 0.10724 0.37645 0.0
H1645 H 0.84407 0.1091 0.37487 0.0
S1646 S 0.8239 0.22111 0.43536 0.0
N1647 N 0.79247 0.19958 0.4262 0.0
N1648 N 0.8524 0.2021 0.4236 0.0
C1649 C 0.83711 0.17662 0.41133 0.0
C1650 C 0.80432 0.17536 0.41276 0.0
C1651 C 0.42089 0.27669 0.88301 0.0
C1652 C 0.40857 0.29661 0.90391 0.0
C1653 C 0.41802 0.24469 0.88654 0.0
C1654 C 0.40176 0.23083 0.91056 0.0
H1655 H 0.43289 0.28586 0.86373 0.0
H1656 H 0.42777 0.23062 0.86955 0.0
S1657 S 0.36386 0.27277 0.97082 0.0
N1658 N 0.37938 0.29988 0.94959 0.0
N1659 N 0.37285 0.24039 0.95539 0.0
C1660 C 0.38932 0.25062 0.93155 0.0
C1661 C 0.39298 0.28318 0.92842 0.0
C1662 C 0.21353 0.92509 0.38944 0.0
C1663 C 0.19601 0.90482 0.40747 0.0
C1664 C 0.24587 0.92593 0.38964 0.0
C1665 C 0.26251 0.90652 0.40781 0.0
H1666 H 0.20233 0.94124 0.37592 0.0
H1667 H 0.25796 0.94265 0.37583 0.0
S1668 S 0.22747 0.84678 0.45673 0.0
N1669 N 0.19805 0.86289 0.44223 0.0
N1670 N 0.25807 0.86487 0.44261 0.0
C1671 C 0.24514 0.88531 0.42493 0.0
C1672 C 0.21228 0.88438 0.42473 0.0
C1673 C 0.70014 0.75054 0.91523 0.0
C1674 C 0.67954 0.73629 0.89333 0.0
C1675 C 0.70486 0.78266 0.91853 0.0
C1676 C 0.68829 0.80227 0.90094 0.0
H1677 H 0.71348 0.73668 0.92945 0.0
H1678 H 0.72169 0.7922 0.93503 0.0
S1679 S 0.63028 0.77666 0.84142 0.0
N1680 N 0.64218 0.74462 0.85406 0.0
N1681 N 0.64953 0.80434 0.86116 0.0
C1682 C 0.66689 0.78819 0.8796 0.0
C1683 C 0.66293 0.75553 0.87556 0.0
C1684 C 0.92977 0.68764 0.83263 0.0
C1685 C 0.91772 0.66621 0.85329 0.0
C1686 C 0.92543 0.68312 0.80094 0.0
C1687 C 0.90796 0.65745 0.78823 0.0
H1688 H 0.94287 0.70804 0.84096 0.0
H1689 H 0.93525 0.70039 0.78623 0.0
S1690 S 0.8718 0.59406 0.83188 0.0
N1691 N 0.8882 0.61753 0.85803 0.0
N1692 N 0.87908 0.61006 0.79919 0.0
C1693 C 0.89571 0.63594 0.80856 0.0
C1694 C 0.90083 0.64004 0.84074 0.0
C1695 C 0.93209 0.42035 0.20094 0.0
C1696 C 0.93644 0.39396 0.21737 0.0
C1697 C 0.93158 0.41998 0.16886 0.0
C1698 C 0.93504 0.39318 0.1515 0.0
H1699 H 0.93012 0.44172 0.21291 0.0
H1700 H 0.9283 0.44099 0.15753 0.0
S1701 S 0.94488 0.31736 0.18326 0.0
N1702 N 0.94291 0.33983 0.21331 0.0
N1703 N 0.94141 0.3392 0.15381 0.0
C1704 C 0.93834 0.36649 0.16768 0.0
C1705 C 0.93923 0.3669 0.20024 0.0
C1706 C 0.12935 0.37398 0.82094 0.0
C1707 C 0.15365 0.38899 0.83795 0.0
C1708 C 0.1273 0.37633 0.78912 0.0
C1709 C 0.14945 0.39372 0.77237 0.0
H1710 H 0.11101 0.3614 0.83236 0.0
H1711 H 0.10751 0.36483 0.77763 0.0
S1712 S 0.21943 0.43512 0.80568 0.0
N1713 N 0.20178 0.42018 0.83503 0.0
N1714 N 0.19771 0.42445 0.77586 0.0
C1715 C 0.17457 0.40768 0.78901 0.0
C1716 C 0.17667 0.40537 0.82143 0.0
C1717 C 0.12749 0.66948 0.25135 0.0
C1718 C 0.13797 0.64533 0.26838 0.0
C1719 C 0.12896 0.67014 0.21952 0.0
C1720 C 0.14032 0.64632 0.20278 0.0
H1721 H 0.1176 0.68818 0.26271 0.0
H1722 H 0.12035 0.68913 0.2079 0.0
S1723 S 0.1743 0.57952 0.23547 0.0
N1724 N 0.16285 0.59824 0.2653 0.0
N1725 N 0.16495 0.59909 0.20576 0.0
C1726 C 0.15181 0.62248 0.21931 0.0
C1727 C 0.15087 0.62209 0.25189 0.0
loop_
_geom_bond_atom_site_label_1
_geom_bond_atom_site_label_2
_geom_bond_distance
_geom_bond_site_symmetry_2
_ccdc_geom_bond_type
O0 Cd1 2.223 . S
O0 C8 1.315 . S
Cd1 O0 2.223 . S
Cd1 O4 2.297 . S
Cd1 O5 2.439 . S
Cd1 O11 2.240 . S
Cd2 O3 2.240 . S
Cd2 O10 2.223 . S
Cd2 O12 2.297 . S
Cd2 O13 2.439 . S
O3 Cd2 2.240 . S
O3 C8 1.279 . S
O4 Cd1 2.297 . S
O4 C6 1.247 . S
O5 Cd1 2.439 . S
O5 C6 1.208 . S
C6 O4 1.247 . S
C6 O5 1.208 . S
C7 O12 1.247 . S
C7 O13 1.208 . S
C8 O0 1.315 . S
C8 O3 1.279 . S
C9 O10 1.315 . S
C9 O11 1.279 . S
O10 Cd2 2.223 . S
O10 C9 1.315 . S
O11 Cd1 2.240 . S
O11 C9 1.279 . S
O12 Cd2 2.297 . S
O12 C7 1.247 . S
O13 Cd2 2.439 . S
O13 C7 1.208 . S
O14 Cd15 2.223 . S
O14 C22 1.315 . S
Cd15 O14 2.223 . S
Cd15 O18 2.297 . S
Cd15 O19 2.439 . S
Cd15 O25 2.240 . S
Cd16 O17 2.240 . S
Cd16 O24 2.223 . S
Cd16 O26 2.297 . S
Cd16 O27 2.439 . S
O17 Cd16 2.240 . S
O17 C22 1.279 . S
O18 Cd15 2.297 . S
O18 C20 1.247 . S
O19 Cd15 2.439 . S
O19 C20 1.208 . S
C20 O18 1.247 . S
C20 O19 1.208 . S
C21 O26 1.247 . S
C21 O27 1.208 . S
C22 O14 1.315 . S
C22 O17 1.279 . S
C23 O24 1.315 . S
C23 O25 1.279 . S
O24 Cd16 2.223 . S
O24 C23 1.315 . S
O25 Cd15 2.240 . S
O25 C23 1.279 . S
O26 Cd16 2.297 . S
O26 C21 1.247 . S
O27 Cd16 2.439 . S
O27 C21 1.208 . S
O28 Cd29 2.223 . S
O28 C36 1.315 . S
Cd29 O28 2.223 . S
Cd29 O32 2.297 . S
Cd29 O33 2.439 . S
Cd29 O39 2.240 . S
Cd30 O31 2.240 . S
Cd30 O38 2.223 . S
Cd30 O40 2.297 . S
Cd30 O41 2.439 . S
O31 Cd30 2.240 . S
O31 C36 1.279 . S
O32 Cd29 2.297 . S
O32 C34 1.247 . S
O33 Cd29 2.439 . S
O33 C34 1.208 . S
C34 O32 1.247 . S
C34 O33 1.208 . S
C35 O40 1.247 . S
C35 O41 1.208 . S
C36 O28 1.315 . S
C36 O31 1.279 . S
C37 O38 1.315 . S
C37 O39 1.279 . S
O38 Cd30 2.223 . S
O38 C37 1.315 . S
O39 Cd29 2.240 . S
O39 C37 1.279 . S
O40 Cd30 2.297 . S
O40 C35 1.247 . S
O41 Cd30 2.439 . S
O41 C35 1.208 . S
O42 Cd43 2.223 . S
O42 C50 1.315 . S
Cd43 O42 2.223 . S
Cd43 O46 2.297 . S
Cd43 O47 2.439 . S
Cd43 O53 2.240 . S
Cd44 O45 2.240 . S
Cd44 O52 2.223 . S
Cd44 O54 2.297 . S
Cd44 O55 2.439 . S
O45 Cd44 2.240 . S
O45 C50 1.279 . S
O46 Cd43 2.297 . S
O46 C48 1.247 . S
O47 Cd43 2.439 . S
O47 C48 1.208 . S
C48 O46 1.247 . S
C48 O47 1.208 . S
C49 O54 1.247 . S
C49 O55 1.208 . S
C50 O42 1.315 . S
C50 O45 1.279 . S
C51 O52 1.315 . S
C51 O53 1.279 . S
O52 Cd44 2.223 . S
O52 C51 1.315 . S
O53 Cd43 2.240 . S
O53 C51 1.279 . S
O54 Cd44 2.297 . S
O54 C49 1.247 . S
O55 Cd44 2.439 . S
O55 C49 1.208 . S
O56 Cd57 2.223 . S
O56 C64 1.315 . S
Cd57 O56 2.223 . S
Cd57 O60 2.297 . S
Cd57 O61 2.439 . S
Cd57 O67 2.240 . S
Cd58 O59 2.240 . S
Cd58 O66 2.223 . S
Cd58 O68 2.297 . S
Cd58 O69 2.439 . S
O59 Cd58 2.240 . S
O59 C64 1.279 . S
O60 Cd57 2.297 . S
O60 C62 1.247 . S
O61 Cd57 2.439 . S
O61 C62 1.208 . S
C62 O60 1.247 . S
C62 O61 1.208 . S
C63 O68 1.247 . S
C63 O69 1.208 . S
C64 O56 1.315 . S
C64 O59 1.279 . S
C65 O66 1.315 . S
C65 O67 1.279 . S
O66 Cd58 2.223 . S
O66 C65 1.315 . S
O67 Cd57 2.240 . S
O67 C65 1.279 . S
O68 Cd58 2.297 . S
O68 C63 1.247 . S
O69 Cd58 2.439 . S
O69 C63 1.208 . S
O70 Cd71 2.223 . S
O70 C78 1.315 . S
Cd71 O70 2.223 . S
Cd71 O74 2.297 . S
Cd71 O75 2.439 . S
Cd71 O81 2.240 . S
Cd72 O73 2.240 . S
Cd72 O80 2.223 . S
Cd72 O82 2.297 . S
Cd72 O83 2.439 . S
O73 Cd72 2.240 . S
O73 C78 1.279 . S
O74 Cd71 2.297 . S
O74 C76 1.247 . S
O75 Cd71 2.439 . S
O75 C76 1.208 . S
C76 O74 1.247 . S
C76 O75 1.208 . S
C77 O82 1.247 . S
C77 O83 1.208 . S
C78 O70 1.315 . S
C78 O73 1.279 . S
C79 O80 1.315 . S
C79 O81 1.279 . S
O80 Cd72 2.223 . S
O80 C79 1.315 . S
O81 Cd71 2.240 . S
O81 C79 1.279 . S
O82 Cd72 2.297 . S
O82 C77 1.247 . S
O83 Cd72 2.439 . S
O83 C77 1.208 . S
O84 Cd85 2.223 . S
O84 C92 1.315 . S
Cd85 O84 2.223 . S
Cd85 O88 2.297 . S
Cd85 O89 2.439 . S
Cd85 O95 2.240 . S
Cd86 O87 2.240 . S
Cd86 O94 2.223 . S
Cd86 O96 2.297 . S
Cd86 O97 2.439 . S
O87 Cd86 2.240 . S
O87 C92 1.279 . S
O88 Cd85 2.297 . S
O88 C90 1.247 . S
O89 Cd85 2.439 . S
O89 C90 1.208 . S
C90 O88 1.247 . S
C90 O89 1.208 . S
C91 O96 1.247 . S
C91 O97 1.208 . S
C92 O84 1.315 . S
C92 O87 1.279 . S
C93 O94 1.315 . S
C93 O95 1.279 . S
O94 Cd86 2.223 . S
O94 C93 1.315 . S
O95 Cd85 2.240 . S
O95 C93 1.279 . S
O96 Cd86 2.297 . S
O96 C91 1.247 . S
O97 Cd86 2.439 . S
O97 C91 1.208 . S
O98 Cd99 2.223 . S
O98 C106 1.315 . S
Cd99 O98 2.223 . S
Cd99 O102 2.297 . S
Cd99 O103 2.439 . S
Cd99 O109 2.240 . S
Cd100 O101 2.240 . S
Cd100 O108 2.223 . S
Cd100 O110 2.297 . S
Cd100 O111 2.439 . S
O101 Cd100 2.240 . S
O101 C106 1.279 . S
O102 Cd99 2.297 . S
O102 C104 1.247 . S
O103 Cd99 2.439 . S
O103 C104 1.208 . S
C104 O102 1.247 . S
C104 O103 1.208 . S
C105 O110 1.247 . S
C105 O111 1.208 . S
C106 O98 1.315 . S
C106 O101 1.279 . S
C107 O108 1.315 . S
C107 O109 1.279 . S
O108 Cd100 2.223 . S
O108 C107 1.315 . S
O109 Cd99 2.240 . S
O109 C107 1.279 . S
O110 Cd100 2.297 . S
O110 C105 1.247 . S
O111 Cd100 2.439 . S
O111 C105 1.208 . S
O112 Cd113 2.223 . S
O112 C120 1.315 . S
Cd113 O112 2.223 . S
Cd113 O116 2.297 . S
Cd113 O117 2.439 . S
Cd113 O123 2.240 . S
Cd114 O115 2.240 . S
Cd114 O122 2.223 . S
Cd114 O124 2.297 . S
Cd114 O125 2.439 . S
O115 Cd114 2.240 . S
O115 C120 1.279 . S
O116 Cd113 2.297 . S
O116 C118 1.247 . S
O117 Cd113 2.439 . S
O117 C118 1.208 . S
C118 O116 1.247 . S
C118 O117 1.208 . S
C119 O124 1.247 . S
C119 O125 1.208 . S
C120 O112 1.315 . S
C120 O115 1.279 . S
C121 O122 1.315 . S
C121 O123 1.279 . S
O122 Cd114 2.223 . S
O122 C121 1.315 . S
O123 Cd113 2.240 . S
O123 C121 1.279 . S
O124 Cd114 2.297 . S
O124 C119 1.247 . S
O125 Cd114 2.439 . S
O125 C119 1.208 . S
O126 Cd127 2.223 . S
O126 C134 1.315 . S
Cd127 O126 2.223 . S
Cd127 O130 2.297 . S
Cd127 O131 2.439 . S
Cd127 O137 2.240 . S
Cd128 O129 2.240 . S
Cd128 O136 2.223 . S
Cd128 O138 2.297 . S
Cd128 O139 2.439 . S
O129 Cd128 2.240 . S
O129 C134 1.279 . S
O130 Cd127 2.297 . S
O130 C132 1.247 . S
O131 Cd127 2.439 . S
O131 C132 1.208 . S
C132 O130 1.247 . S
C132 O131 1.208 . S
C133 O138 1.247 . S
C133 O139 1.208 . S
C134 O126 1.315 . S
C134 O129 1.279 . S
C135 O136 1.315 . S
C135 O137 1.279 . S
O136 Cd128 2.223 . S
O136 C135 1.315 . S
O137 Cd127 2.240 . S
O137 C135 1.279 . S
O138 Cd128 2.297 . S
O138 C133 1.247 . S
O139 Cd128 2.439 . S
O139 C133 1.208 . S
O140 Cd141 2.223 . S
O140 C148 1.315 . S
Cd141 O140 2.223 . S
Cd141 O144 2.297 . S
Cd141 O145 2.439 . S
Cd141 O151 2.240 . S
Cd142 O143 2.240 . S
Cd142 O150 2.223 . S
Cd142 O152 2.297 . S
Cd142 O153 2.439 . S
O143 Cd142 2.240 . S
O143 C148 1.279 . S
O144 Cd141 2.297 . S
O144 C146 1.247 . S
O145 Cd141 2.439 . S
O145 C146 1.208 . S
C146 O144 1.247 . S
C146 O145 1.208 . S
C147 O152 1.247 . S
C147 O153 1.208 . S
C148 O140 1.315 . S
C148 O143 1.279 . S
C149 O150 1.315 . S
C149 O151 1.279 . S
O150 Cd142 2.223 . S
O150 C149 1.315 . S
O151 Cd141 2.240 . S
O151 C149 1.279 . S
O152 Cd142 2.297 . S
O152 C147 1.247 . S
O153 Cd142 2.439 . S
O153 C147 1.208 . S
O154 Cd155 2.223 . S
O154 C162 1.315 . S
Cd155 O154 2.223 . S
Cd155 O158 2.297 . S
Cd155 O159 2.439 . S
Cd155 O165 2.240 . S
Cd156 O157 2.240 . S
Cd156 O164 2.223 . S
Cd156 O166 2.297 . S
Cd156 O167 2.439 . S
O157 Cd156 2.240 . S
O157 C162 1.279 . S
O158 Cd155 2.297 . S
O158 C160 1.247 . S
O159 Cd155 2.439 . S
O159 C160 1.208 . S
C160 O158 1.247 . S
C160 O159 1.208 . S
C161 O166 1.247 . S
C161 O167 1.208 . S
C162 O154 1.315 . S
C162 O157 1.279 . S
C163 O164 1.315 . S
C163 O165 1.279 . S
O164 Cd156 2.223 . S
O164 C163 1.315 . S
O165 Cd155 2.240 . S
O165 C163 1.279 . S
O166 Cd156 2.297 . S
O166 C161 1.247 . S
O167 Cd156 2.439 . S
O167 C161 1.208 . S
O168 Cd169 2.223 . S
O168 C176 1.315 . S
Cd169 O168 2.223 . S
Cd169 O172 2.297 . S
Cd169 O173 2.439 . S
Cd169 O179 2.240 . S
Cd170 O171 2.240 . S
Cd170 O178 2.223 . S
Cd170 O180 2.297 . S
Cd170 O181 2.439 . S
O171 Cd170 2.240 . S
O171 C176 1.279 . S
O172 Cd169 2.297 . S
O172 C174 1.247 . S
O173 Cd169 2.439 . S
O173 C174 1.208 . S
C174 O172 1.247 . S
C174 O173 1.208 . S
C175 O180 1.247 . S
C175 O181 1.208 . S
C176 O168 1.315 . S
C176 O171 1.279 . S
C177 O178 1.315 . S
C177 O179 1.279 . S
O178 Cd170 2.223 . S
O178 C177 1.315 . S
O179 Cd169 2.240 . S
O179 C177 1.279 . S
O180 Cd170 2.297 . S
O180 C175 1.247 . S
O181 Cd170 2.439 . S
O181 C175 1.208 . S
O182 Cd183 2.223 . S
O182 C190 1.315 . S
Cd183 O182 2.223 . S
Cd183 O186 2.297 . S
Cd183 O187 2.439 . S
Cd183 O193 2.240 . S
Cd184 O185 2.240 . S
Cd184 O192 2.223 . S
Cd184 O194 2.297 . S
Cd184 O195 2.439 . S
O185 Cd184 2.240 . S
O185 C190 1.279 . S
O186 Cd183 2.297 . S
O186 C188 1.247 . S
O187 Cd183 2.439 . S
O187 C188 1.208 . S
C188 O186 1.247 . S
C188 O187 1.208 . S
C189 O194 1.247 . S
C189 O195 1.208 . S
C190 O182 1.315 . S
C190 O185 1.279 . S
C191 O192 1.315 . S
C191 O193 1.279 . S
O192 Cd184 2.223 . S
O192 C191 1.315 . S
O193 Cd183 2.240 . S
O193 C191 1.279 . S
O194 Cd184 2.297 . S
O194 C189 1.247 . S
O195 Cd184 2.439 . S
O195 C189 1.208 . S
O196 Cd197 2.223 . S
O196 C204 1.315 . S
Cd197 O196 2.223 . S
Cd197 O200 2.297 . S
Cd197 O201 2.439 . S
Cd197 O207 2.240 . S
Cd198 O199 2.240 . S
Cd198 O206 2.223 . S
Cd198 O208 2.297 . S
Cd198 O209 2.439 . S
O199 Cd198 2.240 . S
O199 C204 1.279 . S
O200 Cd197 2.297 . S
O200 C202 1.247 . S
O201 Cd197 2.439 . S
O201 C202 1.208 . S
C202 O200 1.247 . S
C202 O201 1.208 . S
C203 O208 1.247 . S
C203 O209 1.208 . S
C204 O196 1.315 . S
C204 O199 1.279 . S
C205 O206 1.315 . S
C205 O207 1.279 . S
O206 Cd198 2.223 . S
O206 C205 1.315 . S
O207 Cd197 2.240 . S
O207 C205 1.279 . S
O208 Cd198 2.297 . S
O208 C203 1.247 . S
O209 Cd198 2.439 . S
O209 C203 1.208 . S
O210 Cd211 2.223 . S
O210 C218 1.315 . S
Cd211 O210 2.223 . S
Cd211 O214 2.297 . S
Cd211 O215 2.439 . S
Cd211 O221 2.240 . S
Cd212 O213 2.240 . S
Cd212 O220 2.223 . S
Cd212 O222 2.297 . S
Cd212 O223 2.439 . S
O213 Cd212 2.240 . S
O213 C218 1.279 . S
O214 Cd211 2.297 . S
O214 C216 1.247 . S
O215 Cd211 2.439 . S
O215 C216 1.208 . S
C216 O214 1.247 . S
C216 O215 1.208 . S
C217 O222 1.247 . S
C217 O223 1.208 . S
C218 O210 1.315 . S
C218 O213 1.279 . S
C219 O220 1.315 . S
C219 O221 1.279 . S
O220 Cd212 2.223 . S
O220 C219 1.315 . S
O221 Cd211 2.240 . S
O221 C219 1.279 . S
O222 Cd212 2.297 . S
O222 C217 1.247 . S
O223 Cd212 2.439 . S
O223 C217 1.208 . S
O224 Cd225 2.223 . S
O224 C232 1.315 . S
Cd225 O224 2.223 . S
Cd225 O228 2.297 . S
Cd225 O229 2.439 . S
Cd225 O235 2.240 . S
Cd226 O227 2.240 . S
Cd226 O234 2.223 . S
Cd226 O236 2.297 . S
Cd226 O237 2.439 . S
O227 Cd226 2.240 . S
O227 C232 1.279 . S
O228 Cd225 2.297 . S
O228 C230 1.247 . S
O229 Cd225 2.439 . S
O229 C230 1.208 . S
C230 O228 1.247 . S
C230 O229 1.208 . S
C231 O236 1.247 . S
C231 O237 1.208 . S
C232 O224 1.315 . S
C232 O227 1.279 . S
C233 O234 1.315 . S
C233 O235 1.279 . S
O234 Cd226 2.223 . S
O234 C233 1.315 . S
O235 Cd225 2.240 . S
O235 C233 1.279 . S
O236 Cd226 2.297 . S
O236 C231 1.247 . S
O237 Cd226 2.439 . S
O237 C231 1.208 . S
O238 Cd239 2.223 . S
O238 C246 1.315 . S
Cd239 O238 2.223 . S
Cd239 O242 2.297 . S
Cd239 O243 2.439 . S
Cd239 O249 2.240 . S
Cd240 O241 2.240 . S
Cd240 O248 2.223 . S
Cd240 O250 2.297 . S
Cd240 O251 2.439 . S
O241 Cd240 2.240 . S
O241 C246 1.279 . S
O242 Cd239 2.297 . S
O242 C244 1.247 . S
O243 Cd239 2.439 . S
O243 C244 1.208 . S
C244 O242 1.247 . S
C244 O243 1.208 . S
C245 O250 1.247 . S
C245 O251 1.208 . S
C246 O238 1.315 . S
C246 O241 1.279 . S
C247 O248 1.315 . S
C247 O249 1.279 . S
O248 Cd240 2.223 . S
O248 C247 1.315 . S
O249 Cd239 2.240 . S
O249 C247 1.279 . S
O250 Cd240 2.297 . S
O250 C245 1.247 . S
O251 Cd240 2.439 . S
O251 C245 1.208 . S
O252 Cd253 2.223 . S
O252 C260 1.315 . S
Cd253 O252 2.223 . S
Cd253 O256 2.297 . S
Cd253 O257 2.439 . S
Cd253 O263 2.240 . S
Cd254 O255 2.240 . S
Cd254 O262 2.223 . S
Cd254 O264 2.297 . S
Cd254 O265 2.439 . S
O255 Cd254 2.240 . S
O255 C260 1.279 . S
O256 Cd253 2.297 . S
O256 C258 1.247 . S
O257 Cd253 2.439 . S
O257 C258 1.208 . S
C258 O256 1.247 . S
C258 O257 1.208 . S
C259 O264 1.247 . S
C259 O265 1.208 . S
C260 O252 1.315 . S
C260 O255 1.279 . S
C261 O262 1.315 . S
C261 O263 1.279 . S
O262 Cd254 2.223 . S
O262 C261 1.315 . S
O263 Cd253 2.240 . S
O263 C261 1.279 . S
O264 Cd254 2.297 . S
O264 C259 1.247 . S
O265 Cd254 2.439 . S
O265 C259 1.208 . S
O266 Cd267 2.223 . S
O266 C274 1.315 . S
Cd267 O266 2.223 . S
Cd267 O270 2.297 . S
Cd267 O271 2.439 . S
Cd267 O277 2.240 . S
Cd268 O269 2.240 . S
Cd268 O276 2.223 . S
Cd268 O278 2.297 . S
Cd268 O279 2.439 . S
O269 Cd268 2.240 . S
O269 C274 1.279 . S
O270 Cd267 2.297 . S
O270 C272 1.247 . S
O271 Cd267 2.439 . S
O271 C272 1.208 . S
C272 O270 1.247 . S
C272 O271 1.208 . S
C273 O278 1.247 . S
C273 O279 1.208 . S
C274 O266 1.315 . S
C274 O269 1.279 . S
C275 O276 1.315 . S
C275 O277 1.279 . S
O276 Cd268 2.223 . S
O276 C275 1.315 . S
O277 Cd267 2.240 . S
O277 C275 1.279 . S
O278 Cd268 2.297 . S
O278 C273 1.247 . S
O279 Cd268 2.439 . S
O279 C273 1.208 . S
O280 Cd281 2.223 . S
O280 C288 1.315 . S
Cd281 O280 2.223 . S
Cd281 O284 2.297 . S
Cd281 O285 2.439 . S
Cd281 O291 2.240 . S
Cd282 O283 2.240 . S
Cd282 O290 2.223 . S
Cd282 O292 2.297 . S
Cd282 O293 2.439 . S
O283 Cd282 2.240 . S
O283 C288 1.279 . S
O284 Cd281 2.297 . S
O284 C286 1.247 . S
O285 Cd281 2.439 . S
O285 C286 1.208 . S
C286 O284 1.247 . S
C286 O285 1.208 . S
C287 O292 1.247 . S
C287 O293 1.208 . S
C288 O280 1.315 . S
C288 O283 1.279 . S
C289 O290 1.315 . S
C289 O291 1.279 . S
O290 Cd282 2.223 . S
O290 C289 1.315 . S
O291 Cd281 2.240 . S
O291 C289 1.279 . S
O292 Cd282 2.297 . S
O292 C287 1.247 . S
O293 Cd282 2.439 . S
O293 C287 1.208 . S
O294 Cd295 2.223 . S
O294 C302 1.315 . S
Cd295 O294 2.223 . S
Cd295 O298 2.297 . S
Cd295 O299 2.439 . S
Cd295 O305 2.240 . S
Cd296 O297 2.240 . S
Cd296 O304 2.223 . S
Cd296 O306 2.297 . S
Cd296 O307 2.439 . S
O297 Cd296 2.240 . S
O297 C302 1.279 . S
O298 Cd295 2.297 . S
O298 C300 1.247 . S
O299 Cd295 2.439 . S
O299 C300 1.208 . S
C300 O298 1.247 . S
C300 O299 1.208 . S
C301 O306 1.247 . S
C301 O307 1.208 . S
C302 O294 1.315 . S
C302 O297 1.279 . S
C303 O304 1.315 . S
C303 O305 1.279 . S
O304 Cd296 2.223 . S
O304 C303 1.315 . S
O305 Cd295 2.240 . S
O305 C303 1.279 . S
O306 Cd296 2.297 . S
O306 C301 1.247 . S
O307 Cd296 2.439 . S
O307 C301 1.208 . S
O308 Cd309 2.223 . S
O308 C316 1.315 . S
Cd309 O308 2.223 . S
Cd309 O312 2.297 . S
Cd309 O313 2.439 . S
Cd309 O319 2.240 . S
Cd310 O311 2.240 . S
Cd310 O318 2.223 . S
Cd310 O320 2.297 . S
Cd310 O321 2.439 . S
O311 Cd310 2.240 . S
O311 C316 1.279 . S
O312 Cd309 2.297 . S
O312 C314 1.247 . S
O313 Cd309 2.439 . S
O313 C314 1.208 . S
C314 O312 1.247 . S
C314 O313 1.208 . S
C315 O320 1.247 . S
C315 O321 1.208 . S
C316 O308 1.315 . S
C316 O311 1.279 . S
C317 O318 1.315 . S
C317 O319 1.279 . S
O318 Cd310 2.223 . S
O318 C317 1.315 . S
O319 Cd309 2.240 . S
O319 C317 1.279 . S
O320 Cd310 2.297 . S
O320 C315 1.247 . S
O321 Cd310 2.439 . S
O321 C315 1.208 . S
O322 Cd323 2.223 . S
O322 C330 1.315 . S
Cd323 O322 2.223 . S
Cd323 O326 2.297 . S
Cd323 O327 2.439 . S
Cd323 O333 2.240 . S
Cd324 O325 2.240 . S
Cd324 O332 2.223 . S
Cd324 O334 2.297 . S
Cd324 O335 2.439 . S
O325 Cd324 2.240 . S
O325 C330 1.279 . S
O326 Cd323 2.297 . S
O326 C328 1.247 . S
O327 Cd323 2.439 . S
O327 C328 1.208 . S
C328 O326 1.247 . S
C328 O327 1.208 . S
C329 O334 1.247 . S
C329 O335 1.208 . S
C330 O322 1.315 . S
C330 O325 1.279 . S
C331 O332 1.315 . S
C331 O333 1.279 . S
O332 Cd324 2.223 . S
O332 C331 1.315 . S
O333 Cd323 2.240 . S
O333 C331 1.279 . S
O334 Cd324 2.297 . S
O334 C329 1.247 . S
O335 Cd324 2.439 . S
O335 C329 1.208 . S
O336 Cd337 2.223 . S
O336 C344 1.315 . S
Cd337 O336 2.223 . S
Cd337 O340 2.297 . S
Cd337 O341 2.439 . S
Cd337 O347 2.240 . S
Cd338 O339 2.240 . S
Cd338 O346 2.223 . S
Cd338 O348 2.297 . S
Cd338 O349 2.439 . S
O339 Cd338 2.240 . S
O339 C344 1.279 . S
O340 Cd337 2.297 . S
O340 C342 1.247 . S
O341 Cd337 2.439 . S
O341 C342 1.208 . S
C342 O340 1.247 . S
C342 O341 1.208 . S
C343 O348 1.247 . S
C343 O349 1.208 . S
C344 O336 1.315 . S
C344 O339 1.279 . S
C345 O346 1.315 . S
C345 O347 1.279 . S
O346 Cd338 2.223 . S
O346 C345 1.315 . S
O347 Cd337 2.240 . S
O347 C345 1.279 . S
O348 Cd338 2.297 . S
O348 C343 1.247 . S
O349 Cd338 2.439 . S
O349 C343 1.208 . S
O350 Cd351 2.223 . S
O350 C358 1.315 . S
Cd351 O350 2.223 . S
Cd351 O354 2.297 . S
Cd351 O355 2.439 . S
Cd351 O361 2.240 . S
Cd352 O353 2.240 . S
Cd352 O360 2.223 . S
Cd352 O362 2.297 . S
Cd352 O363 2.439 . S
O353 Cd352 2.240 . S
O353 C358 1.279 . S
O354 Cd351 2.297 . S
O354 C356 1.247 . S
O355 Cd351 2.439 . S
O355 C356 1.208 . S
C356 O354 1.247 . S
C356 O355 1.208 . S
C357 O362 1.247 . S
C357 O363 1.208 . S
C358 O350 1.315 . S
C358 O353 1.279 . S
C359 O360 1.315 . S
C359 O361 1.279 . S
O360 Cd352 2.223 . S
O360 C359 1.315 . S
O361 Cd351 2.240 . S
O361 C359 1.279 . S
O362 Cd352 2.297 . S
O362 C357 1.247 . S
O363 Cd352 2.439 . S
O363 C357 1.208 . S
O364 Cd365 2.223 . S
O364 C372 1.315 . S
Cd365 O364 2.223 . S
Cd365 O368 2.297 . S
Cd365 O369 2.439 . S
Cd365 O375 2.240 . S
Cd366 O367 2.240 . S
Cd366 O374 2.223 . S
Cd366 O376 2.297 . S
Cd366 O377 2.439 . S
O367 Cd366 2.240 . S
O367 C372 1.279 . S
O368 Cd365 2.297 . S
O368 C370 1.247 . S
O369 Cd365 2.439 . S
O369 C370 1.208 . S
C370 O368 1.247 . S
C370 O369 1.208 . S
C371 O376 1.247 . S
C371 O377 1.208 . S
C372 O364 1.315 . S
C372 O367 1.279 . S
C373 O374 1.315 . S
C373 O375 1.279 . S
O374 Cd366 2.223 . S
O374 C373 1.315 . S
O375 Cd365 2.240 . S
O375 C373 1.279 . S
O376 Cd366 2.297 . S
O376 C371 1.247 . S
O377 Cd366 2.439 . S
O377 C371 1.208 . S
O378 Cd379 2.223 . S
O378 C386 1.315 . S
Cd379 O378 2.223 . S
Cd379 O382 2.297 . S
Cd379 O383 2.439 . S
Cd379 O389 2.240 . S
Cd380 O381 2.240 . S
Cd380 O388 2.223 . S
Cd380 O390 2.297 . S
Cd380 O391 2.439 . S
O381 Cd380 2.240 . S
O381 C386 1.279 . S
O382 Cd379 2.297 . S
O382 C384 1.247 . S
O383 Cd379 2.439 . S
O383 C384 1.208 . S
C384 O382 1.247 . S
C384 O383 1.208 . S
C385 O390 1.247 . S
C385 O391 1.208 . S
C386 O378 1.315 . S
C386 O381 1.279 . S
C387 O388 1.315 . S
C387 O389 1.279 . S
O388 Cd380 2.223 . S
O388 C387 1.315 . S
O389 Cd379 2.240 . S
O389 C387 1.279 . S
O390 Cd380 2.297 . S
O390 C385 1.247 . S
O391 Cd380 2.439 . S
O391 C385 1.208 . S
O392 Cd393 2.223 . S
O392 C400 1.315 . S
Cd393 O392 2.223 . S
Cd393 O396 2.297 . S
Cd393 O397 2.439 . S
Cd393 O403 2.240 . S
Cd394 O395 2.240 . S
Cd394 O402 2.223 . S
Cd394 O404 2.297 . S
Cd394 O405 2.439 . S
O395 Cd394 2.240 . S
O395 C400 1.279 . S
O396 Cd393 2.297 . S
O396 C398 1.247 . S
O397 Cd393 2.439 . S
O397 C398 1.208 . S
C398 O396 1.247 . S
C398 O397 1.208 . S
C399 O404 1.247 . S
C399 O405 1.208 . S
C400 O392 1.315 . S
C400 O395 1.279 . S
C401 O402 1.315 . S
C401 O403 1.279 . S
O402 Cd394 2.223 . S
O402 C401 1.315 . S
O403 Cd393 2.240 . S
O403 C401 1.279 . S
O404 Cd394 2.297 . S
O404 C399 1.247 . S
O405 Cd394 2.439 . S
O405 C399 1.208 . S
O406 Cd407 2.223 . S
O406 C414 1.315 . S
Cd407 O406 2.223 . S
Cd407 O410 2.297 . S
Cd407 O411 2.439 . S
Cd407 O417 2.240 . S
Cd408 O409 2.240 . S
Cd408 O416 2.223 . S
Cd408 O418 2.297 . S
Cd408 O419 2.439 . S
O409 Cd408 2.240 . S
O409 C414 1.279 . S
O410 Cd407 2.297 . S
O410 C412 1.247 . S
O411 Cd407 2.439 . S
O411 C412 1.208 . S
C412 O410 1.247 . S
C412 O411 1.208 . S
C413 O418 1.247 . S
C413 O419 1.208 . S
C414 O406 1.315 . S
C414 O409 1.279 . S
C415 O416 1.315 . S
C415 O417 1.279 . S
O416 Cd408 2.223 . S
O416 C415 1.315 . S
O417 Cd407 2.240 . S
O417 C415 1.279 . S
O418 Cd408 2.297 . S
O418 C413 1.247 . S
O419 Cd408 2.439 . S
O419 C413 1.208 . S
O420 Cd421 2.223 . S
O420 C428 1.315 . S
Cd421 O420 2.223 . S
Cd421 O424 2.297 . S
Cd421 O425 2.439 . S
Cd421 O431 2.240 . S
Cd422 O423 2.240 . S
Cd422 O430 2.223 . S
Cd422 O432 2.297 . S
Cd422 O433 2.439 . S
O423 Cd422 2.240 . S
O423 C428 1.279 . S
O424 Cd421 2.297 . S
O424 C426 1.247 . S
O425 Cd421 2.439 . S
O425 C426 1.208 . S
C426 O424 1.247 . S
C426 O425 1.208 . S
C427 O432 1.247 . S
C427 O433 1.208 . S
C428 O420 1.315 . S
C428 O423 1.279 . S
C429 O430 1.315 . S
C429 O431 1.279 . S
O430 Cd422 2.223 . S
O430 C429 1.315 . S
O431 Cd421 2.240 . S
O431 C429 1.279 . S
O432 Cd422 2.297 . S
O432 C427 1.247 . S
O433 Cd422 2.439 . S
O433 C427 1.208 . S
O434 Cd435 2.223 . S
O434 C442 1.315 . S
Cd435 O434 2.223 . S
Cd435 O438 2.297 . S
Cd435 O439 2.439 . S
Cd435 O445 2.240 . S
Cd436 O437 2.240 . S
Cd436 O444 2.223 . S
Cd436 O446 2.297 . S
Cd436 O447 2.439 . S
O437 Cd436 2.240 . S
O437 C442 1.279 . S
O438 Cd435 2.297 . S
O438 C440 1.247 . S
O439 Cd435 2.439 . S
O439 C440 1.208 . S
C440 O438 1.247 . S
C440 O439 1.208 . S
C441 O446 1.247 . S
C441 O447 1.208 . S
C442 O434 1.315 . S
C442 O437 1.279 . S
C443 O444 1.315 . S
C443 O445 1.279 . S
O444 Cd436 2.223 . S
O444 C443 1.315 . S
O445 Cd435 2.240 . S
O445 C443 1.279 . S
O446 Cd436 2.297 . S
O446 C441 1.247 . S
O447 Cd436 2.439 . S
O447 C441 1.208 . S
O448 Cd449 2.223 . S
O448 C456 1.315 . S
Cd449 O448 2.223 . S
Cd449 O452 2.297 . S
Cd449 O453 2.439 . S
Cd449 O459 2.240 . S
Cd450 O451 2.240 . S
Cd450 O458 2.223 . S
Cd450 O460 2.297 . S
Cd450 O461 2.439 . S
O451 Cd450 2.240 . S
O451 C456 1.279 . S
O452 Cd449 2.297 . S
O452 C454 1.247 . S
O453 Cd449 2.439 . S
O453 C454 1.208 . S
C454 O452 1.247 . S
C454 O453 1.208 . S
C455 O460 1.247 . S
C455 O461 1.208 . S
C456 O448 1.315 . S
C456 O451 1.279 . S
C457 O458 1.315 . S
C457 O459 1.279 . S
O458 Cd450 2.223 . S
O458 C457 1.315 . S
O459 Cd449 2.240 . S
O459 C457 1.279 . S
O460 Cd450 2.297 . S
O460 C455 1.247 . S
O461 Cd450 2.439 . S
O461 C455 1.208 . S
O462 Cd463 2.223 . S
O462 C470 1.315 . S
Cd463 O462 2.223 . S
Cd463 O466 2.297 . S
Cd463 O467 2.439 . S
Cd463 O473 2.240 . S
Cd464 O465 2.240 . S
Cd464 O472 2.223 . S
Cd464 O474 2.297 . S
Cd464 O475 2.439 . S
O465 Cd464 2.240 . S
O465 C470 1.279 . S
O466 Cd463 2.297 . S
O466 C468 1.247 . S
O467 Cd463 2.439 . S
O467 C468 1.208 . S
C468 O466 1.247 . S
C468 O467 1.208 . S
C469 O474 1.247 . S
C469 O475 1.208 . S
C470 O462 1.315 . S
C470 O465 1.279 . S
C471 O472 1.315 . S
C471 O473 1.279 . S
O472 Cd464 2.223 . S
O472 C471 1.315 . S
O473 Cd463 2.240 . S
O473 C471 1.279 . S
O474 Cd464 2.297 . S
O474 C469 1.247 . S
O475 Cd464 2.439 . S
O475 C469 1.208 . S
O476 Cd477 2.223 . S
O476 C484 1.315 . S
Cd477 O476 2.223 . S
Cd477 O480 2.297 . S
Cd477 O481 2.439 . S
Cd477 O487 2.240 . S
Cd478 O479 2.240 . S
Cd478 O486 2.223 . S
Cd478 O488 2.297 . S
Cd478 O489 2.439 . S
O479 Cd478 2.240 . S
O479 C484 1.279 . S
O480 Cd477 2.297 . S
O480 C482 1.247 . S
O481 Cd477 2.439 . S
O481 C482 1.208 . S
C482 O480 1.247 . S
C482 O481 1.208 . S
C483 O488 1.247 . S
C483 O489 1.208 . S
C484 O476 1.315 . S
C484 O479 1.279 . S
C485 O486 1.315 . S
C485 O487 1.279 . S
O486 Cd478 2.223 . S
O486 C485 1.315 . S
O487 Cd477 2.240 . S
O487 C485 1.279 . S
O488 Cd478 2.297 . S
O488 C483 1.247 . S
O489 Cd478 2.439 . S
O489 C483 1.208 . S
O490 Cd491 2.223 . S
O490 C498 1.315 . S
Cd491 O490 2.223 . S
Cd491 O494 2.297 . S
Cd491 O495 2.439 . S
Cd491 O501 2.240 . S
Cd492 O493 2.240 . S
Cd492 O500 2.223 . S
Cd492 O502 2.297 . S
Cd492 O503 2.439 . S
O493 Cd492 2.240 . S
O493 C498 1.279 . S
O494 Cd491 2.297 . S
O494 C496 1.247 . S
O495 Cd491 2.439 . S
O495 C496 1.208 . S
C496 O494 1.247 . S
C496 O495 1.208 . S
C497 O502 1.247 . S
C497 O503 1.208 . S
C498 O490 1.315 . S
C498 O493 1.279 . S
C499 O500 1.315 . S
C499 O501 1.279 . S
O500 Cd492 2.223 . S
O500 C499 1.315 . S
O501 Cd491 2.240 . S
O501 C499 1.279 . S
O502 Cd492 2.297 . S
O502 C497 1.247 . S
O503 Cd492 2.439 . S
O503 C497 1.208 . S
O504 Cd505 2.223 . S
O504 C512 1.315 . S
Cd505 O504 2.223 . S
Cd505 O508 2.297 . S
Cd505 O509 2.439 . S
Cd505 O515 2.240 . S
Cd506 O507 2.240 . S
Cd506 O514 2.223 . S
Cd506 O516 2.297 . S
Cd506 O517 2.439 . S
O507 Cd506 2.240 . S
O507 C512 1.279 . S
O508 Cd505 2.297 . S
O508 C510 1.247 . S
O509 Cd505 2.439 . S
O509 C510 1.208 . S
C510 O508 1.247 . S
C510 O509 1.208 . S
C511 O516 1.247 . S
C511 O517 1.208 . S
C512 O504 1.315 . S
C512 O507 1.279 . S
C513 O514 1.315 . S
C513 O515 1.279 . S
O514 Cd506 2.223 . S
O514 C513 1.315 . S
O515 Cd505 2.240 . S
O515 C513 1.279 . S
O516 Cd506 2.297 . S
O516 C511 1.247 . S
O517 Cd506 2.439 . S
O517 C511 1.208 . S
O518 Cd519 2.223 . S
O518 C526 1.315 . S
Cd519 O518 2.223 . S
Cd519 O522 2.297 . S
Cd519 O523 2.439 . S
Cd519 O529 2.240 . S
Cd520 O521 2.240 . S
Cd520 O528 2.223 . S
Cd520 O530 2.297 . S
Cd520 O531 2.439 . S
O521 Cd520 2.240 . S
O521 C526 1.279 . S
O522 Cd519 2.297 . S
O522 C524 1.247 . S
O523 Cd519 2.439 . S
O523 C524 1.208 . S
C524 O522 1.247 . S
C524 O523 1.208 . S
C525 O530 1.247 . S
C525 O531 1.208 . S
C526 O518 1.315 . S
C526 O521 1.279 . S
C527 O528 1.315 . S
C527 O529 1.279 . S
O528 Cd520 2.223 . S
O528 C527 1.315 . S
O529 Cd519 2.240 . S
O529 C527 1.279 . S
O530 Cd520 2.297 . S
O530 C525 1.247 . S
O531 Cd520 2.439 . S
O531 C525 1.208 . S
O532 Cd533 2.223 . S
O532 C540 1.315 . S
Cd533 O532 2.223 . S
Cd533 O536 2.297 . S
Cd533 O537 2.439 . S
Cd533 O543 2.240 . S
Cd534 O535 2.240 . S
Cd534 O542 2.223 . S
Cd534 O544 2.297 . S
Cd534 O545 2.439 . S
O535 Cd534 2.240 . S
O535 C540 1.279 . S
O536 Cd533 2.297 . S
O536 C538 1.247 . S
O537 Cd533 2.439 . S
O537 C538 1.208 . S
C538 O536 1.247 . S
C538 O537 1.208 . S
C539 O544 1.247 . S
C539 O545 1.208 . S
C540 O532 1.315 . S
C540 O535 1.279 . S
C541 O542 1.315 . S
C541 O543 1.279 . S
O542 Cd534 2.223 . S
O542 C541 1.315 . S
O543 Cd533 2.240 . S
O543 C541 1.279 . S
O544 Cd534 2.297 . S
O544 C539 1.247 . S
O545 Cd534 2.439 . S
O545 C539 1.208 . S
O546 Cd547 2.223 . S
O546 C554 1.315 . S
Cd547 O546 2.223 . S
Cd547 O550 2.297 . S
Cd547 O551 2.439 . S
Cd547 O557 2.240 . S
Cd548 O549 2.240 . S
Cd548 O556 2.223 . S
Cd548 O558 2.297 . S
Cd548 O559 2.439 . S
O549 Cd548 2.240 . S
O549 C554 1.279 . S
O550 Cd547 2.297 . S
O550 C552 1.247 . S
O551 Cd547 2.439 . S
O551 C552 1.208 . S
C552 O550 1.247 . S
C552 O551 1.208 . S
C553 O558 1.247 . S
C553 O559 1.208 . S
C554 O546 1.315 . S
C554 O549 1.279 . S
C555 O556 1.315 . S
C555 O557 1.279 . S
O556 Cd548 2.223 . S
O556 C555 1.315 . S
O557 Cd547 2.240 . S
O557 C555 1.279 . S
O558 Cd548 2.297 . S
O558 C553 1.247 . S
O559 Cd548 2.439 . S
O559 C553 1.208 . S
O560 Cd561 2.223 . S
O560 C568 1.315 . S
Cd561 O560 2.223 . S
Cd561 O564 2.297 . S
Cd561 O565 2.439 . S
Cd561 O571 2.240 . S
Cd562 O563 2.240 . S
Cd562 O570 2.223 . S
Cd562 O572 2.297 . S
Cd562 O573 2.439 . S
O563 Cd562 2.240 . S
O563 C568 1.279 . S
O564 Cd561 2.297 . S
O564 C566 1.247 . S
O565 Cd561 2.439 . S
O565 C566 1.208 . S
C566 O564 1.247 . S
C566 O565 1.208 . S
C567 O572 1.247 . S
C567 O573 1.208 . S
C568 O560 1.315 . S
C568 O563 1.279 . S
C569 O570 1.315 . S
C569 O571 1.279 . S
O570 Cd562 2.223 . S
O570 C569 1.315 . S
O571 Cd561 2.240 . S
O571 C569 1.279 . S
O572 Cd562 2.297 . S
O572 C567 1.247 . S
O573 Cd562 2.439 . S
O573 C567 1.208 . S
O574 Cd575 2.223 . S
O574 C582 1.315 . S
Cd575 O574 2.223 . S
Cd575 O578 2.297 . S
Cd575 O579 2.439 . S
Cd575 O585 2.240 . S
Cd576 O577 2.240 . S
Cd576 O584 2.223 . S
Cd576 O586 2.297 . S
Cd576 O587 2.439 . S
O577 Cd576 2.240 . S
O577 C582 1.279 . S
O578 Cd575 2.297 . S
O578 C580 1.247 . S
O579 Cd575 2.439 . S
O579 C580 1.208 . S
C580 O578 1.247 . S
C580 O579 1.208 . S
C581 O586 1.247 . S
C581 O587 1.208 . S
C582 O574 1.315 . S
C582 O577 1.279 . S
C583 O584 1.315 . S
C583 O585 1.279 . S
O584 Cd576 2.223 . S
O584 C583 1.315 . S
O585 Cd575 2.240 . S
O585 C583 1.279 . S
O586 Cd576 2.297 . S
O586 C581 1.247 . S
O587 Cd576 2.439 . S
O587 C581 1.208 . S
O588 Cd589 2.223 . S
O588 C596 1.315 . S
Cd589 O588 2.223 . S
Cd589 O592 2.297 . S
Cd589 O593 2.439 . S
Cd589 O599 2.240 . S
Cd590 O591 2.240 . S
Cd590 O598 2.223 . S
Cd590 O600 2.297 . S
Cd590 O601 2.439 . S
O591 Cd590 2.240 . S
O591 C596 1.279 . S
O592 Cd589 2.297 . S
O592 C594 1.247 . S
O593 Cd589 2.439 . S
O593 C594 1.208 . S
C594 O592 1.247 . S
C594 O593 1.208 . S
C595 O600 1.247 . S
C595 O601 1.208 . S
C596 O588 1.315 . S
C596 O591 1.279 . S
C597 O598 1.315 . S
C597 O599 1.279 . S
O598 Cd590 2.223 . S
O598 C597 1.315 . S
O599 Cd589 2.240 . S
O599 C597 1.279 . S
O600 Cd590 2.297 . S
O600 C595 1.247 . S
O601 Cd590 2.439 . S
O601 C595 1.208 . S
O602 Cd603 2.223 . S
O602 C610 1.315 . S
Cd603 O602 2.223 . S
Cd603 O606 2.297 . S
Cd603 O607 2.439 . S
Cd603 O613 2.240 . S
Cd604 O605 2.240 . S
Cd604 O612 2.223 . S
Cd604 O614 2.297 . S
Cd604 O615 2.439 . S
O605 Cd604 2.240 . S
O605 C610 1.279 . S
O606 Cd603 2.297 . S
O606 C608 1.247 . S
O607 Cd603 2.439 . S
O607 C608 1.208 . S
C608 O606 1.247 . S
C608 O607 1.208 . S
C609 O614 1.247 . S
C609 O615 1.208 . S
C610 O602 1.315 . S
C610 O605 1.279 . S
C611 O612 1.315 . S
C611 O613 1.279 . S
O612 Cd604 2.223 . S
O612 C611 1.315 . S
O613 Cd603 2.240 . S
O613 C611 1.279 . S
O614 Cd604 2.297 . S
O614 C609 1.247 . S
O615 Cd604 2.439 . S
O615 C609 1.208 . S
O616 Cd617 2.223 . S
O616 C624 1.315 . S
Cd617 O616 2.223 . S
Cd617 O620 2.297 . S
Cd617 O621 2.439 . S
Cd617 O627 2.240 . S
Cd618 O619 2.240 . S
Cd618 O626 2.223 . S
Cd618 O628 2.297 . S
Cd618 O629 2.439 . S
O619 Cd618 2.240 . S
O619 C624 1.279 . S
O620 Cd617 2.297 . S
O620 C622 1.247 . S
O621 Cd617 2.439 . S
O621 C622 1.208 . S
C622 O620 1.247 . S
C622 O621 1.208 . S
C623 O628 1.247 . S
C623 O629 1.208 . S
C624 O616 1.315 . S
C624 O619 1.279 . S
C625 O626 1.315 . S
C625 O627 1.279 . S
O626 Cd618 2.223 . S
O626 C625 1.315 . S
O627 Cd617 2.240 . S
O627 C625 1.279 . S
O628 Cd618 2.297 . S
O628 C623 1.247 . S
O629 Cd618 2.439 . S
O629 C623 1.208 . S
O630 Cd631 2.223 . S
O630 C638 1.315 . S
Cd631 O630 2.223 . S
Cd631 O634 2.297 . S
Cd631 O635 2.439 . S
Cd631 O641 2.240 . S
Cd632 O633 2.240 . S
Cd632 O640 2.223 . S
Cd632 O642 2.297 . S
Cd632 O643 2.439 . S
O633 Cd632 2.240 . S
O633 C638 1.279 . S
O634 Cd631 2.297 . S
O634 C636 1.247 . S
O635 Cd631 2.439 . S
O635 C636 1.208 . S
C636 O634 1.247 . S
C636 O635 1.208 . S
C637 O642 1.247 . S
C637 O643 1.208 . S
C638 O630 1.315 . S
C638 O633 1.279 . S
C639 O640 1.315 . S
C639 O641 1.279 . S
O640 Cd632 2.223 . S
O640 C639 1.315 . S
O641 Cd631 2.240 . S
O641 C639 1.279 . S
O642 Cd632 2.297 . S
O642 C637 1.247 . S
O643 Cd632 2.439 . S
O643 C637 1.208 . S
O644 Cd645 2.223 . S
O644 C652 1.315 . S
Cd645 O644 2.223 . S
Cd645 O648 2.297 . S
Cd645 O649 2.439 . S
Cd645 O655 2.240 . S
Cd646 O647 2.240 . S
Cd646 O654 2.223 . S
Cd646 O656 2.297 . S
Cd646 O657 2.439 . S
O647 Cd646 2.240 . S
O647 C652 1.279 . S
O648 Cd645 2.297 . S
O648 C650 1.247 . S
O649 Cd645 2.439 . S
O649 C650 1.208 . S
C650 O648 1.247 . S
C650 O649 1.208 . S
C651 O656 1.247 . S
C651 O657 1.208 . S
C652 O644 1.315 . S
C652 O647 1.279 . S
C653 O654 1.315 . S
C653 O655 1.279 . S
O654 Cd646 2.223 . S
O654 C653 1.315 . S
O655 Cd645 2.240 . S
O655 C653 1.279 . S
O656 Cd646 2.297 . S
O656 C651 1.247 . S
O657 Cd646 2.439 . S
O657 C651 1.208 . S
O658 Cd659 2.223 . S
O658 C666 1.315 . S
Cd659 O658 2.223 . S
Cd659 O662 2.297 . S
Cd659 O663 2.439 . S
Cd659 O669 2.240 . S
Cd660 O661 2.240 . S
Cd660 O668 2.223 . S
Cd660 O670 2.297 . S
Cd660 O671 2.439 . S
O661 Cd660 2.240 . S
O661 C666 1.279 . S
O662 Cd659 2.297 . S
O662 C664 1.247 . S
O663 Cd659 2.439 . S
O663 C664 1.208 . S
C664 O662 1.247 . S
C664 O663 1.208 . S
C665 O670 1.247 . S
C665 O671 1.208 . S
C666 O658 1.315 . S
C666 O661 1.279 . S
C667 O668 1.315 . S
C667 O669 1.279 . S
O668 Cd660 2.223 . S
O668 C667 1.315 . S
O669 Cd659 2.240 . S
O669 C667 1.279 . S
O670 Cd660 2.297 . S
O670 C665 1.247 . S
O671 Cd660 2.439 . S
O671 C665 1.208 . S
C672 C673 1.369 . S
C672 C674 1.419 . S
C672 H676 0.930 . S
C673 C672 1.369 . S
C673 C682 1.429 . S
C674 C672 1.419 . S
C674 C675 1.363 . S
C674 H677 0.929 . S
C675 C674 1.363 . S
C675 C681 1.428 . S
H676 C672 0.930 . S
H677 C674 0.929 . S
S678 N679 1.613 . S
S678 N680 1.610 . S
N679 S678 1.613 . S
N679 C682 1.350 . S
N680 S678 1.610 . S
N680 C681 1.351 . S
C681 C675 1.428 . S
C681 N680 1.351 . S
C681 C682 1.434 . S
C682 C673 1.429 . S
C682 N679 1.350 . S
C682 C681 1.434 . S
C683 C684 1.369 . S
C683 C685 1.419 . S
C683 H687 0.930 . S
C684 C683 1.369 . S
C684 C693 1.429 . S
C685 C683 1.419 . S
C685 C686 1.363 . S
C685 H688 0.929 . S
C686 C685 1.363 . S
C686 C692 1.428 . S
H687 C683 0.930 . S
H688 C685 0.929 . S
S689 N690 1.613 . S
S689 N691 1.610 . S
N690 S689 1.613 . S
N690 C693 1.350 . S
N691 S689 1.610 . S
N691 C692 1.351 . S
C692 C686 1.428 . S
C692 N691 1.351 . S
C692 C693 1.434 . S
C693 C684 1.429 . S
C693 N690 1.350 . S
C693 C692 1.434 . S
C694 C695 1.369 . S
C694 C696 1.419 . S
C694 H698 0.930 . S
C695 C694 1.369 . S
C695 C704 1.429 . S
C696 C694 1.419 . S
C696 C697 1.363 . S
C696 H699 0.929 . S
C697 C696 1.363 . S
C697 C703 1.428 . S
H698 C694 0.930 . S
H699 C696 0.929 . S
S700 N701 1.613 . S
S700 N702 1.610 . S
N701 S700 1.613 . S
N701 C704 1.350 . S
N702 S700 1.610 . S
N702 C703 1.351 . S
C703 C697 1.428 . S
C703 N702 1.351 . S
C703 C704 1.434 . S
C704 C695 1.429 . S
C704 N701 1.350 . S
C704 C703 1.434 . S
C705 C706 1.369 . S
C705 C707 1.419 . S
C705 H709 0.930 . S
C706 C705 1.369 . S
C706 C715 1.429 . S
C707 C705 1.419 . S
C707 C708 1.363 . S
C707 H710 0.929 . S
C708 C707 1.363 . S
C708 C714 1.428 . S
H709 C705 0.930 . S
H710 C707 0.929 . S
S711 N712 1.613 . S
S711 N713 1.610 . S
N712 S711 1.613 . S
N712 C715 1.350 . S
N713 S711 1.610 . S
N713 C714 1.351 . S
C714 C708 1.428 . S
C714 N713 1.351 . S
C714 C715 1.434 . S
C715 C706 1.429 . S
C715 N712 1.350 . S
C715 C714 1.434 . S
C716 C717 1.369 . S
C716 C718 1.419 . S
C716 H720 0.930 . S
C717 C716 1.369 . S
C717 C726 1.429 . S
C718 C716 1.419 . S
C718 C719 1.363 . S
C718 H721 0.929 . S
C719 C718 1.363 . S
C719 C725 1.428 . S
H720 C716 0.930 . S
H721 C718 0.929 . S
S722 N723 1.613 . S
S722 N724 1.610 . S
N723 S722 1.613 . S
N723 C726 1.350 . S
N724 S722 1.610 . S
N724 C725 1.351 . S
C725 C719 1.428 . S
C725 N724 1.351 . S
C725 C726 1.434 . S
C726 C717 1.429 . S
C726 N723 1.350 . S
C726 C725 1.434 . S
C727 C728 1.369 . S
C727 C729 1.419 . S
C727 H731 0.930 . S
C728 C727 1.369 . S
C728 C737 1.429 . S
C729 C727 1.419 . S
C729 C730 1.363 . S
C729 H732 0.929 . S
C730 C729 1.363 . S
C730 C736 1.428 . S
H731 C727 0.930 . S
H732 C729 0.929 . S
S733 N734 1.613 . S
S733 N735 1.610 . S
N734 S733 1.613 . S
N734 C737 1.350 . S
N735 S733 1.610 . S
N735 C736 1.351 . S
C736 C730 1.428 . S
C736 N735 1.351 . S
C736 C737 1.434 . S
C737 C728 1.429 . S
C737 N734 1.350 . S
C737 C736 1.434 . S
C738 C739 1.369 . S
C738 C740 1.419 . S
C738 H742 0.930 . S
C739 C738 1.369 . S
C739 C748 1.429 . S
C740 C738 1.419 . S
C740 C741 1.363 . S
C740 H743 0.929 . S
C741 C740 1.363 . S
C741 C747 1.428 . S
H742 C738 0.930 . S
H743 C740 0.929 . S
S744 N745 1.613 . S
S744 N746 1.610 . S
N745 S744 1.613 . S
N745 C748 1.350 . S
N746 S744 1.610 . S
N746 C747 1.351 . S
C747 C741 1.428 . S
C747 N746 1.351 . S
C747 C748 1.434 . S
C748 C739 1.429 . S
C748 N745 1.350 . S
C748 C747 1.434 . S
C749 C750 1.369 . S
C749 C751 1.419 . S
C749 H753 0.930 . S
C750 C749 1.369 . S
C750 C759 1.429 . S
C751 C749 1.419 . S
C751 C752 1.363 . S
C751 H754 0.929 . S
C752 C751 1.363 . S
C752 C758 1.428 . S
H753 C749 0.930 . S
H754 C751 0.929 . S
S755 N756 1.613 . S
S755 N757 1.610 . S
N756 S755 1.613 . S
N756 C759 1.350 . S
N757 S755 1.610 . S
N757 C758 1.351 . S
C758 C752 1.428 . S
C758 N757 1.351 . S
C758 C759 1.434 . S
C759 C750 1.429 . S
C759 N756 1.350 . S
C759 C758 1.434 . S
C760 C761 1.369 . S
C760 C762 1.419 . S
C760 H764 0.930 . S
C761 C760 1.369 . S
C761 C770 1.429 . S
C762 C760 1.419 . S
C762 C763 1.363 . S
C762 H765 0.929 . S
C763 C762 1.363 . S
C763 C769 1.428 . S
H764 C760 0.930 . S
H765 C762 0.929 . S
S766 N767 1.613 . S
S766 N768 1.610 . S
N767 S766 1.613 . S
N767 C770 1.350 . S
N768 S766 1.610 . S
N768 C769 1.351 . S
C769 C763 1.428 . S
C769 N768 1.351 . S
C769 C770 1.434 . S
C770 C761 1.429 . S
C770 N767 1.350 . S
C770 C769 1.434 . S
C771 C772 1.369 . S
C771 C773 1.419 . S
C771 H775 0.930 . S
C772 C771 1.369 . S
C772 C781 1.429 . S
C773 C771 1.419 . S
C773 C774 1.363 . S
C773 H776 0.929 . S
C774 C773 1.363 . S
C774 C780 1.428 . S
H775 C771 0.930 . S
H776 C773 0.929 . S
S777 N778 1.613 . S
S777 N779 1.610 . S
N778 S777 1.613 . S
N778 C781 1.350 . S
N779 S777 1.610 . S
N779 C780 1.351 . S
C780 C774 1.428 . S
C780 N779 1.351 . S
C780 C781 1.434 . S
C781 C772 1.429 . S
C781 N778 1.350 . S
C781 C780 1.434 . S
C782 C783 1.369 . S
C782 C784 1.419 . S
C782 H786 0.930 . S
C783 C782 1.369 . S
C783 C792 1.429 . S
C784 C782 1.419 . S
C784 C785 1.363 . S
C784 H787 0.929 . S
C785 C784 1.363 . S
C785 C791 1.428 . S
H786 C782 0.930 . S
H787 C784 0.929 . S
S788 N789 1.613 . S
S788 N790 1.610 . S
N789 S788 1.613 . S
N789 C792 1.350 . S
N790 S788 1.610 . S
N790 C791 1.351 . S
C791 C785 1.428 . S
C791 N790 1.351 . S
C791 C792 1.434 . S
C792 C783 1.429 . S
C792 N789 1.350 . S
C792 C791 1.434 . S
C793 C794 1.369 . S
C793 C795 1.419 . S
C793 H797 0.930 . S
C794 C793 1.369 . S
C794 C803 1.429 . S
C795 C793 1.419 . S
C795 C796 1.363 . S
C795 H798 0.929 . S
C796 C795 1.363 . S
C796 C802 1.428 . S
H797 C793 0.930 . S
H798 C795 0.929 . S
S799 N800 1.613 . S
S799 N801 1.610 . S
N800 S799 1.613 . S
N800 C803 1.350 . S
N801 S799 1.610 . S
N801 C802 1.351 . S
C802 C796 1.428 . S
C802 N801 1.351 . S
C802 C803 1.434 . S
C803 C794 1.429 . S
C803 N800 1.350 . S
C803 C802 1.434 . S
C804 C805 1.369 . S
C804 C806 1.419 . S
C804 H808 0.930 . S
C805 C804 1.369 . S
C805 C814 1.429 . S
C806 C804 1.419 . S
C806 C807 1.363 . S
C806 H809 0.929 . S
C807 C806 1.363 . S
C807 C813 1.428 . S
H808 C804 0.930 . S
H809 C806 0.929 . S
S810 N811 1.613 . S
S810 N812 1.610 . S
N811 S810 1.613 . S
N811 C814 1.350 . S
N812 S810 1.610 . S
N812 C813 1.351 . S
C813 C807 1.428 . S
C813 N812 1.351 . S
C813 C814 1.434 . S
C814 C805 1.429 . S
C814 N811 1.350 . S
C814 C813 1.434 . S
C815 C816 1.369 . S
C815 C817 1.419 . S
C815 H819 0.930 . S
C816 C815 1.369 . S
C816 C825 1.429 . S
C817 C815 1.419 . S
C817 C818 1.363 . S
C817 H820 0.929 . S
C818 C817 1.363 . S
C818 C824 1.428 . S
H819 C815 0.930 . S
H820 C817 0.929 . S
S821 N822 1.613 . S
S821 N823 1.610 . S
N822 S821 1.613 . S
N822 C825 1.350 . S
N823 S821 1.610 . S
N823 C824 1.351 . S
C824 C818 1.428 . S
C824 N823 1.351 . S
C824 C825 1.434 . S
C825 C816 1.429 . S
C825 N822 1.350 . S
C825 C824 1.434 . S
C826 C827 1.369 . S
C826 C828 1.419 . S
C826 H830 0.930 . S
C827 C826 1.369 . S
C827 C836 1.429 . S
C828 C826 1.419 . S
C828 C829 1.363 . S
C828 H831 0.929 . S
C829 C828 1.363 . S
C829 C835 1.428 . S
H830 C826 0.930 . S
H831 C828 0.929 . S
S832 N833 1.613 . S
S832 N834 1.610 . S
N833 S832 1.613 . S
N833 C836 1.350 . S
N834 S832 1.610 . S
N834 C835 1.351 . S
C835 C829 1.428 . S
C835 N834 1.351 . S
C835 C836 1.434 . S
C836 C827 1.429 . S
C836 N833 1.350 . S
C836 C835 1.434 . S
C837 C838 1.369 . S
C837 C839 1.419 . S
C837 H841 0.930 . S
C838 C837 1.369 . S
C838 C847 1.429 . S
C839 C837 1.419 . S
C839 C840 1.363 . S
C839 H842 0.929 . S
C840 C839 1.363 . S
C840 C846 1.428 . S
H841 C837 0.930 . S
H842 C839 0.929 . S
S843 N844 1.613 . S
S843 N845 1.610 . S
N844 S843 1.613 . S
N844 C847 1.350 . S
N845 S843 1.610 . S
N845 C846 1.351 . S
C846 C840 1.428 . S
C846 N845 1.351 . S
C846 C847 1.434 . S
C847 C838 1.429 . S
C847 N844 1.350 . S
C847 C846 1.434 . S
C848 C849 1.369 . S
C848 C850 1.419 . S
C848 H852 0.930 . S
C849 C848 1.369 . S
C849 C858 1.429 . S
C850 C848 1.419 . S
C850 C851 1.363 . S
C850 H853 0.929 . S
C851 C850 1.363 . S
C851 C857 1.428 . S
H852 C848 0.930 . S
H853 C850 0.929 . S
S854 N855 1.613 . S
S854 N856 1.610 . S
N855 S854 1.613 . S
N855 C858 1.350 . S
N856 S854 1.610 . S
N856 C857 1.351 . S
C857 C851 1.428 . S
C857 N856 1.351 . S
C857 C858 1.434 . S
C858 C849 1.429 . S
C858 N855 1.350 . S
C858 C857 1.434 . S
C859 C860 1.369 . S
C859 C861 1.419 . S
C859 H863 0.930 . S
C860 C859 1.369 . S
C860 C869 1.429 . S
C861 C859 1.419 . S
C861 C862 1.363 . S
C861 H864 0.929 . S
C862 C861 1.363 . S
C862 C868 1.428 . S
H863 C859 0.930 . S
H864 C861 0.929 . S
S865 N866 1.613 . S
S865 N867 1.610 . S
N866 S865 1.613 . S
N866 C869 1.350 . S
N867 S865 1.610 . S
N867 C868 1.351 . S
C868 C862 1.428 . S
C868 N867 1.351 . S
C868 C869 1.434 . S
C869 C860 1.429 . S
C869 N866 1.350 . S
C869 C868 1.434 . S
C870 C871 1.369 . S
C870 C872 1.419 . S
C870 H874 0.930 . S
C871 C870 1.369 . S
C871 C880 1.429 . S
C872 C870 1.419 . S
C872 C873 1.363 . S
C872 H875 0.929 . S
C873 C872 1.363 . S
C873 C879 1.428 . S
H874 C870 0.930 . S
H875 C872 0.929 . S
S876 N877 1.613 . S
S876 N878 1.610 . S
N877 S876 1.613 . S
N877 C880 1.350 . S
N878 S876 1.610 . S
N878 C879 1.351 . S
C879 C873 1.428 . S
C879 N878 1.351 . S
C879 C880 1.434 . S
C880 C871 1.429 . S
C880 N877 1.350 . S
C880 C879 1.434 . S
C881 C882 1.369 . S
C881 C883 1.419 . S
C881 H885 0.930 . S
C882 C881 1.369 . S
C882 C891 1.429 . S
C883 C881 1.419 . S
C883 C884 1.363 . S
C883 H886 0.929 . S
C884 C883 1.363 . S
C884 C890 1.428 . S
H885 C881 0.930 . S
H886 C883 0.929 . S
S887 N888 1.613 . S
S887 N889 1.610 . S
N888 S887 1.613 . S
N888 C891 1.350 . S
N889 S887 1.610 . S
N889 C890 1.351 . S
C890 C884 1.428 . S
C890 N889 1.351 . S
C890 C891 1.434 . S
C891 C882 1.429 . S
C891 N888 1.350 . S
C891 C890 1.434 . S
C892 C893 1.369 . S
C892 C894 1.419 . S
C892 H896 0.930 . S
C893 C892 1.369 . S
C893 C902 1.429 . S
C894 C892 1.419 . S
C894 C895 1.363 . S
C894 H897 0.929 . S
C895 C894 1.363 . S
C895 C901 1.428 . S
H896 C892 0.930 . S
H897 C894 0.929 . S
S898 N899 1.613 . S
S898 N900 1.610 . S
N899 S898 1.613 . S
N899 C902 1.350 . S
N900 S898 1.610 . S
N900 C901 1.351 . S
C901 C895 1.428 . S
C901 N900 1.351 . S
C901 C902 1.434 . S
C902 C893 1.429 . S
C902 N899 1.350 . S
C902 C901 1.434 . S
C903 C904 1.369 . S
C903 C905 1.419 . S
C903 H907 0.930 . S
C904 C903 1.369 . S
C904 C913 1.429 . S
C905 C903 1.419 . S
C905 C906 1.363 . S
C905 H908 0.929 . S
C906 C905 1.363 . S
C906 C912 1.428 . S
H907 C903 0.930 . S
H908 C905 0.929 . S
S909 N910 1.613 . S
S909 N911 1.610 . S
N910 S909 1.613 . S
N910 C913 1.350 . S
N911 S909 1.610 . S
N911 C912 1.351 . S
C912 C906 1.428 . S
C912 N911 1.351 . S
C912 C913 1.434 . S
C913 C904 1.429 . S
C913 N910 1.350 . S
C913 C912 1.434 . S
C914 C915 1.369 . S
C914 C916 1.419 . S
C914 H918 0.930 . S
C915 C914 1.369 . S
C915 C924 1.429 . S
C916 C914 1.419 . S
C916 C917 1.363 . S
C916 H919 0.929 . S
C917 C916 1.363 . S
C917 C923 1.428 . S
H918 C914 0.930 . S
H919 C916 0.929 . S
S920 N921 1.613 . S
S920 N922 1.610 . S
N921 S920 1.613 . S
N921 C924 1.350 . S
N922 S920 1.610 . S
N922 C923 1.351 . S
C923 C917 1.428 . S
C923 N922 1.351 . S
C923 C924 1.434 . S
C924 C915 1.429 . S
C924 N921 1.350 . S
C924 C923 1.434 . S
C925 C926 1.369 . S
C925 C927 1.419 . S
C925 H929 0.930 . S
C926 C925 1.369 . S
C926 C935 1.429 . S
C927 C925 1.419 . S
C927 C928 1.363 . S
C927 H930 0.929 . S
C928 C927 1.363 . S
C928 C934 1.428 . S
H929 C925 0.930 . S
H930 C927 0.929 . S
S931 N932 1.613 . S
S931 N933 1.610 . S
N932 S931 1.613 . S
N932 C935 1.350 . S
N933 S931 1.610 . S
N933 C934 1.351 . S
C934 C928 1.428 . S
C934 N933 1.351 . S
C934 C935 1.434 . S
C935 C926 1.429 . S
C935 N932 1.350 . S
C935 C934 1.434 . S
C936 C937 1.369 . S
C936 C938 1.419 . S
C936 H940 0.930 . S
C937 C936 1.369 . S
C937 C946 1.429 . S
C938 C936 1.419 . S
C938 C939 1.363 . S
C938 H941 0.929 . S
C939 C938 1.363 . S
C939 C945 1.428 . S
H940 C936 0.930 . S
H941 C938 0.929 . S
S942 N943 1.613 . S
S942 N944 1.610 . S
N943 S942 1.613 . S
N943 C946 1.350 . S
N944 S942 1.610 . S
N944 C945 1.351 . S
C945 C939 1.428 . S
C945 N944 1.351 . S
C945 C946 1.434 . S
C946 C937 1.429 . S
C946 N943 1.350 . S
C946 C945 1.434 . S
C947 C948 1.369 . S
C947 C949 1.419 1_556 S
C947 H951 0.930 . S
C948 C947 1.369 . S
C948 C957 1.429 . S
C949 C947 1.419 1_554 S
C949 C950 1.363 . S
C949 H952 0.929 . S
C950 C949 1.363 . S
C950 C956 1.428 . S
H951 C947 0.930 . S
H952 C949 0.929 . S
S953 N954 1.613 . S
S953 N955 1.610 1_556 S
N954 S953 1.613 . S
N954 C957 1.350 . S
N955 S953 1.610 1_554 S
N955 C956 1.351 . S
C956 C950 1.428 . S
C956 N955 1.351 . S
C956 C957 1.434 1_554 S
C957 C948 1.429 . S
C957 N954 1.350 . S
C957 C956 1.434 1_556 S
C958 C959 1.369 . S
C958 C960 1.419 . S
C958 H962 0.930 . S
C959 C958 1.369 . S
C959 C968 1.429 . S
C960 C958 1.419 . S
C960 C961 1.363 . S
C960 H963 0.929 . S
C961 C960 1.363 . S
C961 C967 1.428 . S
H962 C958 0.930 . S
H963 C960 0.929 . S
S964 N965 1.613 . S
S964 N966 1.610 . S
N965 S964 1.613 . S
N965 C968 1.350 . S
N966 S964 1.610 . S
N966 C967 1.351 . S
C967 C961 1.428 . S
C967 N966 1.351 . S
C967 C968 1.434 . S
C968 C959 1.429 . S
C968 N965 1.350 . S
C968 C967 1.434 . S
C969 C970 1.351 1_554 S
C969 C971 1.450 . S
C969 H973 0.916 1_554 S
C970 C969 1.351 1_556 S
C970 C979 1.429 1_556 S
C971 C969 1.450 . S
C971 C972 1.363 . S
C971 H974 0.929 . S
C972 C971 1.363 . S
C972 C978 1.428 . S
H973 C969 0.916 1_556 S
H974 C971 0.929 . S
S975 N976 1.613 1_554 S
S975 N977 1.610 . S
N976 S975 1.613 1_556 S
N976 C979 1.350 1_556 S
N977 S975 1.610 . S
N977 C978 1.351 . S
C978 C972 1.428 . S
C978 N977 1.351 . S
C978 C979 1.434 . S
C979 C970 1.429 1_554 S
C979 N976 1.350 1_554 S
C979 C978 1.434 . S
C980 C981 1.369 . S
C980 C982 1.419 . S
C980 H984 0.930 . S
C981 C980 1.369 . S
C981 C990 1.429 . S
C982 C980 1.419 . S
C982 C983 1.363 . S
C982 H985 0.929 . S
C983 C982 1.363 . S
C983 C989 1.428 . S
H984 C980 0.930 . S
H985 C982 0.929 . S
S986 N987 1.613 . S
S986 N988 1.610 . S
N987 S986 1.613 . S
N987 C990 1.350 . S
N988 S986 1.610 . S
N988 C989 1.351 . S
C989 C983 1.428 . S
C989 N988 1.351 . S
C989 C990 1.434 . S
C990 C981 1.429 . S
C990 N987 1.350 . S
C990 C989 1.434 . S
C991 C992 1.369 . S
C991 C993 1.419 1_556 S
C991 H995 0.930 . S
C992 C991 1.369 . S
C992 C1001 1.429 . S
C993 C991 1.419 1_554 S
C993 C994 1.363 . S
C993 H996 0.929 . S
C994 C993 1.363 . S
C994 C1000 1.428 . S
H995 C991 0.930 . S
H996 C993 0.929 . S
S997 N998 1.613 1_554 S
S997 N999 1.610 . S
N998 S997 1.613 1_556 S
N998 C1001 1.350 . S
N999 S997 1.610 . S
N999 C1000 1.351 . S
C1000 C994 1.428 . S
C1000 N999 1.351 . S
C1000 C1001 1.434 1_554 S
C1001 C992 1.429 . S
C1001 N998 1.350 . S
C1001 C1000 1.434 1_556 S
C1002 C1003 1.369 . S
C1002 C1004 1.419 . S
C1002 H1006 0.930 . S
C1003 C1002 1.369 . S
C1003 C1012 1.429 . S
C1004 C1002 1.419 . S
C1004 C1005 1.363 . S
C1004 H1007 0.929 . S
C1005 C1004 1.363 . S
C1005 C1011 1.428 . S
H1006 C1002 0.930 . S
H1007 C1004 0.929 . S
S1008 N1009 1.613 . S
S1008 N1010 1.610 . S
N1009 S1008 1.613 . S
N1009 C1012 1.350 . S
N1010 S1008 1.610 . S
N1010 C1011 1.351 . S
C1011 C1005 1.428 . S
C1011 N1010 1.351 . S
C1011 C1012 1.434 . S
C1012 C1003 1.429 . S
C1012 N1009 1.350 . S
C1012 C1011 1.434 . S
C1013 C1014 1.369 . S
C1013 C1015 1.389 1_556 S
C1013 H1017 0.930 . S
C1014 C1013 1.369 . S
C1014 C1023 1.429 . S
C1015 C1013 1.389 1_554 S
C1015 C1016 1.379 . S
C1015 H1018 0.944 . S
C1016 C1015 1.379 . S
C1016 C1022 1.428 1_554 S
H1017 C1013 0.930 . S
H1018 C1015 0.944 . S
S1019 N1020 1.613 . S
S1019 N1021 1.610 1_556 S
N1020 S1019 1.613 . S
N1020 C1023 1.350 . S
N1021 S1019 1.610 1_554 S
N1021 C1022 1.351 1_554 S
C1022 C1016 1.428 1_556 S
C1022 N1021 1.351 1_556 S
C1022 C1023 1.434 . S
C1023 C1014 1.429 . S
C1023 N1020 1.350 . S
C1023 C1022 1.434 . S
C1024 C1025 1.369 . S
C1024 C1026 1.419 . S
C1024 H1028 0.930 . S
C1025 C1024 1.369 . S
C1025 C1034 1.429 . S
C1026 C1024 1.419 . S
C1026 C1027 1.363 . S
C1026 H1029 0.929 . S
C1027 C1026 1.363 . S
C1027 C1033 1.428 . S
H1028 C1024 0.930 . S
H1029 C1026 0.929 . S
S1030 N1031 1.613 . S
S1030 N1032 1.610 . S
N1031 S1030 1.613 . S
N1031 C1034 1.350 . S
N1032 S1030 1.610 . S
N1032 C1033 1.351 . S
C1033 C1027 1.428 . S
C1033 N1032 1.351 . S
C1033 C1034 1.434 . S
C1034 C1025 1.429 . S
C1034 N1031 1.350 . S
C1034 C1033 1.434 . S
C1035 C1036 1.369 . S
C1035 C1037 1.419 1_565 S
C1035 H1039 0.930 . S
C1036 C1035 1.369 . S
C1036 C1045 1.429 . S
C1037 C1035 1.419 1_545 S
C1037 C1038 1.363 . S
C1037 H1040 0.929 . S
C1038 C1037 1.363 . S
C1038 C1044 1.428 . S
H1039 C1035 0.930 . S
H1040 C1037 0.929 . S
S1041 N1042 1.613 . S
S1041 N1043 1.610 1_565 S
N1042 S1041 1.613 . S
N1042 C1045 1.350 . S
N1043 S1041 1.610 1_545 S
N1043 C1044 1.351 . S
C1044 C1038 1.428 . S
C1044 N1043 1.351 . S
C1044 C1045 1.434 1_545 S
C1045 C1036 1.429 . S
C1045 N1042 1.350 . S
C1045 C1044 1.434 1_565 S
C1046 C1047 1.369 . S
C1046 C1048 1.419 . S
C1046 H1050 0.930 . S
C1047 C1046 1.369 . S
C1047 C1056 1.429 . S
C1048 C1046 1.419 . S
C1048 C1049 1.363 . S
C1048 H1051 0.929 . S
C1049 C1048 1.363 . S
C1049 C1055 1.428 . S
H1050 C1046 0.930 . S
H1051 C1048 0.929 . S
S1052 N1053 1.613 . S
S1052 N1054 1.610 . S
N1053 S1052 1.613 . S
N1053 C1056 1.350 . S
N1054 S1052 1.610 . S
N1054 C1055 1.351 . S
C1055 C1049 1.428 . S
C1055 N1054 1.351 . S
C1055 C1056 1.434 . S
C1056 C1047 1.429 . S
C1056 N1053 1.350 . S
C1056 C1055 1.434 . S
C1057 C1058 1.369 . S
C1057 C1059 1.419 1_545 S
C1057 H1061 0.930 . S
C1058 C1057 1.369 . S
C1058 C1067 1.429 . S
C1059 C1057 1.419 1_565 S
C1059 C1060 1.363 . S
C1059 H1062 0.929 . S
C1060 C1059 1.363 . S
C1060 C1066 1.428 . S
H1061 C1057 0.930 . S
H1062 C1059 0.929 . S
S1063 N1064 1.613 1_565 S
S1063 N1065 1.610 . S
N1064 S1063 1.613 1_545 S
N1064 C1067 1.350 . S
N1065 S1063 1.610 . S
N1065 C1066 1.351 . S
C1066 C1060 1.428 . S
C1066 N1065 1.351 . S
C1066 C1067 1.434 1_565 S
C1067 C1058 1.429 . S
C1067 N1064 1.350 . S
C1067 C1066 1.434 1_545 S
C1068 C1069 1.369 . S
C1068 C1070 1.419 . S
C1068 H1072 0.930 . S
C1069 C1068 1.369 . S
C1069 C1078 1.429 . S
C1070 C1068 1.419 . S
C1070 C1071 1.363 . S
C1070 H1073 0.929 . S
C1071 C1070 1.363 . S
C1071 C1077 1.428 . S
H1072 C1068 0.930 . S
H1073 C1070 0.929 . S
S1074 N1075 1.613 . S
S1074 N1076 1.610 . S
N1075 S1074 1.613 . S
N1075 C1078 1.350 . S
N1076 S1074 1.610 . S
N1076 C1077 1.351 . S
C1077 C1071 1.428 . S
C1077 N1076 1.351 . S
C1077 C1078 1.434 . S
C1078 C1069 1.429 . S
C1078 N1075 1.350 . S
C1078 C1077 1.434 . S
C1079 C1080 1.369 1_545 S
C1079 C1081 1.419 . S
C1079 H1083 0.930 1_545 S
C1080 C1079 1.369 1_565 S
C1080 C1089 1.429 . S
C1081 C1079 1.419 . S
C1081 C1082 1.363 . S
C1081 H1084 0.929 . S
C1082 C1081 1.363 . S
C1082 C1088 1.428 . S
H1083 C1079 0.930 1_565 S
H1084 C1081 0.929 . S
S1085 N1086 1.613 1_545 S
S1085 N1087 1.610 . S
N1086 S1085 1.613 1_565 S
N1086 C1089 1.350 . S
N1087 S1085 1.610 . S
N1087 C1088 1.351 . S
C1088 C1082 1.428 . S
C1088 N1087 1.351 . S
C1088 C1089 1.433 1_545 S
C1089 C1080 1.429 . S
C1089 N1086 1.350 . S
C1089 C1088 1.433 1_565 S
C1090 C1091 1.369 . S
C1090 C1092 1.419 . S
C1090 H1094 0.930 . S
C1091 C1090 1.369 . S
C1091 C1100 1.429 . S
C1092 C1090 1.419 . S
C1092 C1093 1.363 . S
C1092 H1095 0.929 . S
C1093 C1092 1.363 . S
C1093 C1099 1.428 . S
H1094 C1090 0.930 . S
H1095 C1092 0.929 . S
S1096 N1097 1.613 . S
S1096 N1098 1.610 . S
N1097 S1096 1.613 . S
N1097 C1100 1.350 . S
N1098 S1096 1.610 . S
N1098 C1099 1.351 . S
C1099 C1093 1.428 . S
C1099 N1098 1.351 . S
C1099 C1100 1.434 . S
C1100 C1091 1.429 . S
C1100 N1097 1.350 . S
C1100 C1099 1.434 . S
C1101 C1102 1.369 . S
C1101 C1103 1.419 1_565 S
C1101 H1105 0.930 . S
C1102 C1101 1.369 . S
C1102 C1111 1.429 . S
C1103 C1101 1.419 1_545 S
C1103 C1104 1.363 . S
C1103 H1106 0.929 . S
C1104 C1103 1.363 . S
C1104 C1110 1.428 . S
H1105 C1101 0.930 . S
H1106 C1103 0.929 . S
S1107 N1108 1.613 . S
S1107 N1109 1.610 1_565 S
N1108 S1107 1.613 . S
N1108 C1111 1.350 . S
N1109 S1107 1.610 1_545 S
N1109 C1110 1.351 . S
C1110 C1104 1.428 . S
C1110 N1109 1.351 . S
C1110 C1111 1.434 1_545 S
C1111 C1102 1.429 . S
C1111 N1108 1.350 . S
C1111 C1110 1.434 1_565 S
C1112 C1113 1.369 . S
C1112 C1114 1.419 . S
C1112 H1116 0.930 . S
C1113 C1112 1.369 . S
C1113 C1122 1.429 . S
C1114 C1112 1.419 . S
C1114 C1115 1.363 . S
C1114 H1117 0.929 . S
C1115 C1114 1.363 . S
C1115 C1121 1.428 . S
H1116 C1112 0.930 . S
H1117 C1114 0.929 . S
S1118 N1119 1.613 . S
S1118 N1120 1.610 . S
N1119 S1118 1.613 . S
N1119 C1122 1.350 . S
N1120 S1118 1.610 . S
N1120 C1121 1.351 . S
C1121 C1115 1.428 . S
C1121 N1120 1.351 . S
C1121 C1122 1.434 . S
C1122 C1113 1.429 . S
C1122 N1119 1.350 . S
C1122 C1121 1.434 . S
C1123 C1124 1.369 . S
C1123 C1125 1.419 . S
C1123 H1127 0.930 . S
C1124 C1123 1.369 . S
C1124 C1133 1.429 . S
C1125 C1123 1.419 . S
C1125 C1126 1.363 . S
C1125 H1128 0.929 . S
C1126 C1125 1.363 . S
C1126 C1132 1.428 . S
H1127 C1123 0.930 . S
H1128 C1125 0.929 . S
S1129 N1130 1.613 . S
S1129 N1131 1.610 . S
N1130 S1129 1.613 . S
N1130 C1133 1.350 . S
N1131 S1129 1.610 . S
N1131 C1132 1.351 . S
C1132 C1126 1.428 . S
C1132 N1131 1.351 . S
C1132 C1133 1.434 . S
C1133 C1124 1.429 . S
C1133 N1130 1.350 . S
C1133 C1132 1.434 . S
C1134 C1135 1.369 . S
C1134 C1136 1.419 . S
C1134 H1138 0.930 . S
C1135 C1134 1.369 . S
C1135 C1144 1.429 . S
C1136 C1134 1.419 . S
C1136 C1137 1.363 . S
C1136 H1139 0.929 . S
C1137 C1136 1.363 . S
C1137 C1143 1.428 . S
H1138 C1134 0.930 . S
H1139 C1136 0.929 . S
S1140 N1141 1.613 . S
S1140 N1142 1.610 . S
N1141 S1140 1.613 . S
N1141 C1144 1.350 . S
N1142 S1140 1.610 . S
N1142 C1143 1.351 . S
C1143 C1137 1.428 . S
C1143 N1142 1.351 . S
C1143 C1144 1.434 . S
C1144 C1135 1.429 . S
C1144 N1141 1.350 . S
C1144 C1143 1.434 . S
C1145 C1146 1.369 . S
C1145 C1147 1.419 . S
C1145 H1149 0.930 . S
C1146 C1145 1.369 . S
C1146 C1155 1.429 . S
C1147 C1145 1.419 . S
C1147 C1148 1.363 . S
C1147 H1150 0.929 . S
C1148 C1147 1.363 . S
C1148 C1154 1.428 . S
H1149 C1145 0.930 . S
H1150 C1147 0.929 . S
S1151 N1152 1.613 . S
S1151 N1153 1.610 . S
N1152 S1151 1.613 . S
N1152 C1155 1.350 . S
N1153 S1151 1.610 . S
N1153 C1154 1.351 . S
C1154 C1148 1.428 . S
C1154 N1153 1.351 . S
C1154 C1155 1.434 . S
C1155 C1146 1.429 . S
C1155 N1152 1.350 . S
C1155 C1154 1.434 . S
C1156 C1157 1.369 1_655 S
C1156 C1158 1.419 . S
C1156 H1160 0.930 . S
C1157 C1156 1.369 1_455 S
C1157 C1166 1.429 1_455 S
C1158 C1156 1.419 . S
C1158 C1159 1.363 . S
C1158 H1161 0.929 . S
C1159 C1158 1.363 . S
C1159 C1165 1.428 . S
H1160 C1156 0.930 . S
H1161 C1158 0.929 . S
S1162 N1163 1.622 . S
S1162 N1164 1.610 . S
N1163 S1162 1.622 . S
N1163 C1166 1.357 . S
N1164 S1162 1.610 . S
N1164 C1165 1.351 . S
C1165 C1159 1.428 . S
C1165 N1164 1.351 . S
C1165 C1166 1.434 . S
C1166 C1157 1.429 1_655 S
C1166 N1163 1.357 . S
C1166 C1165 1.434 . S
C1167 C1168 1.369 . S
C1167 C1169 1.419 . S
C1167 H1171 0.930 . S
C1168 C1167 1.369 . S
C1168 C1177 1.429 . S
C1169 C1167 1.419 . S
C1169 C1170 1.363 . S
C1169 H1172 0.929 . S
C1170 C1169 1.363 . S
C1170 C1176 1.428 . S
H1171 C1167 0.930 . S
H1172 C1169 0.929 . S
S1173 N1174 1.613 . S
S1173 N1175 1.610 . S
N1174 S1173 1.613 . S
N1174 C1177 1.350 . S
N1175 S1173 1.610 . S
N1175 C1176 1.351 . S
C1176 C1170 1.428 . S
C1176 N1175 1.351 . S
C1176 C1177 1.434 . S
C1177 C1168 1.429 . S
C1177 N1174 1.350 . S
C1177 C1176 1.434 . S
C1178 C1179 1.369 . S
C1178 C1180 1.419 1_655 S
C1178 H1182 0.930 . S
C1179 C1178 1.369 . S
C1179 C1188 1.429 . S
C1180 C1178 1.419 1_455 S
C1180 C1181 1.363 . S
C1180 H1183 0.929 . S
C1181 C1180 1.363 . S
C1181 C1187 1.428 . S
H1182 C1178 0.930 . S
H1183 C1180 0.929 . S
S1184 N1185 1.613 . S
S1184 N1186 1.610 1_655 S
N1185 S1184 1.613 . S
N1185 C1188 1.350 . S
N1186 S1184 1.610 1_455 S
N1186 C1187 1.351 . S
C1187 C1181 1.428 . S
C1187 N1186 1.351 . S
C1187 C1188 1.434 1_455 S
C1188 C1179 1.429 . S
C1188 N1185 1.350 . S
C1188 C1187 1.434 1_655 S
C1189 C1190 1.369 . S
C1189 C1191 1.419 . S
C1189 H1193 0.930 . S
C1190 C1189 1.369 . S
C1190 C1199 1.429 . S
C1191 C1189 1.419 . S
C1191 C1192 1.363 . S
C1191 H1194 0.929 . S
C1192 C1191 1.363 . S
C1192 C1198 1.428 . S
H1193 C1189 0.930 . S
H1194 C1191 0.929 . S
S1195 N1196 1.613 . S
S1195 N1197 1.610 . S
N1196 S1195 1.613 . S
N1196 C1199 1.350 . S
N1197 S1195 1.610 . S
N1197 C1198 1.351 . S
C1198 C1192 1.428 . S
C1198 N1197 1.351 . S
C1198 C1199 1.434 . S
C1199 C1190 1.429 . S
C1199 N1196 1.350 . S
C1199 C1198 1.434 . S
C1200 C1201 1.369 . S
C1200 C1202 1.419 . S
C1200 H1204 0.930 . S
C1201 C1200 1.369 . S
C1201 C1210 1.429 . S
C1202 C1200 1.419 . S
C1202 C1203 1.363 1_655 S
C1202 H1205 0.929 1_655 S
C1203 C1202 1.363 1_455 S
C1203 C1209 1.428 1_455 S
H1204 C1200 0.930 . S
H1205 C1202 0.929 1_455 S
S1206 N1207 1.613 1_565 S
S1206 N1208 1.610 1_665 S
N1207 S1206 1.613 1_545 S
N1207 C1210 1.350 . S
N1208 S1206 1.610 1_445 S
N1208 C1209 1.351 1_455 S
C1209 C1203 1.428 1_655 S
C1209 N1208 1.351 1_655 S
C1209 C1210 1.434 . S
C1210 C1201 1.429 . S
C1210 N1207 1.350 . S
C1210 C1209 1.434 . S
C1211 C1212 1.369 . S
C1211 C1213 1.419 . S
C1211 H1215 0.930 . S
C1212 C1211 1.369 . S
C1212 C1221 1.429 . S
C1213 C1211 1.419 . S
C1213 C1214 1.363 . S
C1213 H1216 0.929 . S
C1214 C1213 1.363 . S
C1214 C1220 1.428 . S
H1215 C1211 0.930 . S
H1216 C1213 0.929 . S
S1217 N1218 1.613 . S
S1217 N1219 1.610 . S
N1218 S1217 1.613 . S
N1218 C1221 1.350 . S
N1219 S1217 1.610 . S
N1219 C1220 1.351 . S
C1220 C1214 1.428 . S
C1220 N1219 1.351 . S
C1220 C1221 1.434 . S
C1221 C1212 1.429 . S
C1221 N1218 1.350 . S
C1221 C1220 1.434 . S
C1222 C1223 1.369 . S
C1222 C1224 1.419 . S
C1222 H1226 0.930 . S
C1223 C1222 1.369 . S
C1223 C1232 1.429 . S
C1224 C1222 1.419 . S
C1224 C1225 1.363 1_455 S
C1224 H1227 0.929 1_455 S
C1225 C1224 1.363 1_655 S
C1225 C1231 1.428 1_655 S
H1226 C1222 0.930 . S
H1227 C1224 0.929 1_655 S
S1228 N1229 1.613 . S
S1228 N1230 1.610 . S
N1229 S1228 1.613 . S
N1229 C1232 1.350 . S
N1230 S1228 1.610 . S
N1230 C1231 1.351 . S
C1231 C1225 1.428 1_455 S
C1231 N1230 1.351 . S
C1231 C1232 1.434 . S
C1232 C1223 1.429 . S
C1232 N1229 1.350 . S
C1232 C1231 1.434 . S
C1233 C1234 1.369 . S
C1233 C1235 1.419 . S
C1233 H1237 0.930 . S
C1234 C1233 1.369 . S
C1234 C1243 1.429 . S
C1235 C1233 1.419 . S
C1235 C1236 1.363 . S
C1235 H1238 0.929 . S
C1236 C1235 1.363 . S
C1236 C1242 1.428 . S
H1237 C1233 0.930 . S
H1238 C1235 0.929 . S
S1239 N1240 1.613 . S
S1239 N1241 1.610 . S
N1240 S1239 1.613 . S
N1240 C1243 1.350 . S
N1241 S1239 1.610 . S
N1241 C1242 1.351 . S
C1242 C1236 1.428 . S
C1242 N1241 1.351 . S
C1242 C1243 1.434 . S
C1243 C1234 1.429 . S
C1243 N1240 1.350 . S
C1243 C1242 1.434 . S
C1244 C1245 1.369 1_455 S
C1244 C1246 1.419 . S
C1244 H1248 0.930 . S
C1245 C1244 1.369 1_655 S
C1245 C1254 1.429 1_655 S
C1246 C1244 1.419 . S
C1246 C1247 1.363 . S
C1246 H1249 0.929 . S
C1247 C1246 1.363 . S
C1247 C1253 1.428 . S
H1248 C1244 0.930 . S
H1249 C1246 0.929 . S
S1250 N1251 1.613 . S
S1250 N1252 1.610 . S
N1251 S1250 1.613 . S
N1251 C1254 1.350 . S
N1252 S1250 1.610 . S
N1252 C1253 1.351 . S
C1253 C1247 1.428 . S
C1253 N1252 1.351 . S
C1253 C1254 1.434 . S
C1254 C1245 1.429 1_455 S
C1254 N1251 1.350 . S
C1254 C1253 1.434 . S
C1255 C1256 1.369 . S
C1255 C1257 1.419 . S
C1255 H1259 0.930 . S
C1256 C1255 1.369 . S
C1256 C1265 1.429 . S
C1257 C1255 1.419 . S
C1257 C1258 1.363 . S
C1257 H1260 0.929 . S
C1258 C1257 1.363 . S
C1258 C1264 1.428 . S
H1259 C1255 0.930 . S
H1260 C1257 0.929 . S
S1261 N1262 1.613 . S
S1261 N1263 1.610 . S
N1262 S1261 1.613 . S
N1262 C1265 1.350 . S
N1263 S1261 1.610 . S
N1263 C1264 1.351 . S
C1264 C1258 1.428 . S
C1264 N1263 1.351 . S
C1264 C1265 1.434 . S
C1265 C1256 1.429 . S
C1265 N1262 1.350 . S
C1265 C1264 1.434 . S
C1266 C1267 1.369 . S
C1266 C1268 1.419 1_655 S
C1266 H1270 0.930 . S
C1267 C1266 1.369 . S
C1267 C1276 1.429 . S
C1268 C1266 1.419 1_455 S
C1268 C1269 1.363 . S
C1268 H1271 0.929 . S
C1269 C1268 1.363 . S
C1269 C1275 1.428 . S
H1270 C1266 0.930 . S
H1271 C1268 0.929 . S
S1272 N1273 1.613 . S
S1272 N1274 1.610 1_655 S
N1273 S1272 1.613 . S
N1273 C1276 1.350 . S
N1274 S1272 1.610 1_455 S
N1274 C1275 1.351 . S
C1275 C1269 1.428 . S
C1275 N1274 1.351 . S
C1275 C1276 1.434 1_455 S
C1276 C1267 1.429 . S
C1276 N1273 1.350 . S
C1276 C1275 1.434 1_655 S
C1277 C1278 1.369 . S
C1277 C1279 1.419 . S
C1277 H1281 0.930 . S
C1278 C1277 1.369 . S
C1278 C1287 1.429 . S
C1279 C1277 1.419 . S
C1279 C1280 1.363 . S
C1279 H1282 0.929 . S
C1280 C1279 1.363 . S
C1280 C1286 1.428 . S
H1281 C1277 0.930 . S
H1282 C1279 0.929 . S
S1283 N1284 1.613 . S
S1283 N1285 1.610 . S
N1284 S1283 1.613 . S
N1284 C1287 1.350 . S
N1285 S1283 1.610 . S
N1285 C1286 1.351 . S
C1286 C1280 1.428 . S
C1286 N1285 1.351 . S
C1286 C1287 1.434 . S
C1287 C1278 1.429 . S
C1287 N1284 1.350 . S
C1287 C1286 1.434 . S
C1288 C1289 1.369 . S
C1288 C1290 1.419 1_545 S
C1288 H1292 0.930 . S
C1289 C1288 1.369 . S
C1289 C1298 1.429 . S
C1290 C1288 1.419 1_565 S
C1290 C1291 1.363 . S
C1290 H1293 0.929 . S
C1291 C1290 1.363 . S
C1291 C1297 1.428 . S
H1292 C1288 0.930 . S
H1293 C1290 0.929 . S
S1294 N1295 1.613 . S
S1294 N1296 1.610 1_545 S
N1295 S1294 1.613 . S
N1295 C1298 1.350 . S
N1296 S1294 1.610 1_565 S
N1296 C1297 1.351 . S
C1297 C1291 1.428 . S
C1297 N1296 1.351 . S
C1297 C1298 1.434 1_565 S
C1298 C1289 1.429 . S
C1298 N1295 1.350 . S
C1298 C1297 1.434 1_545 S
C1299 C1300 1.369 . S
C1299 C1301 1.419 . S
C1299 H1303 0.930 . S
C1300 C1299 1.369 . S
C1300 C1309 1.429 . S
C1301 C1299 1.419 . S
C1301 C1302 1.363 . S
C1301 H1304 0.929 . S
C1302 C1301 1.363 . S
C1302 C1308 1.428 . S
H1303 C1299 0.930 . S
H1304 C1301 0.929 . S
S1305 N1306 1.613 . S
S1305 N1307 1.610 . S
N1306 S1305 1.613 . S
N1306 C1309 1.350 . S
N1307 S1305 1.610 . S
N1307 C1308 1.351 . S
C1308 C1302 1.428 . S
C1308 N1307 1.351 . S
C1308 C1309 1.434 . S
C1309 C1300 1.429 . S
C1309 N1306 1.350 . S
C1309 C1308 1.434 . S
C1310 C1311 1.369 . S
C1310 C1312 1.419 1_545 S
C1310 H1314 0.930 . S
C1311 C1310 1.369 . S
C1311 C1320 1.429 . S
C1312 C1310 1.419 1_565 S
C1312 C1313 1.363 . S
C1312 H1315 0.929 . S
C1313 C1312 1.363 . S
C1313 C1319 1.428 . S
H1314 C1310 0.930 . S
H1315 C1312 0.929 . S
S1316 N1317 1.613 . S
S1316 N1318 1.610 1_545 S
N1317 S1316 1.613 . S
N1317 C1320 1.350 . S
N1318 S1316 1.610 1_565 S
N1318 C1319 1.351 . S
C1319 C1313 1.428 . S
C1319 N1318 1.351 . S
C1319 C1320 1.434 1_565 S
C1320 C1311 1.429 . S
C1320 N1317 1.350 . S
C1320 C1319 1.434 1_545 S
C1321 C1322 1.369 . S
C1321 C1323 1.419 . S
C1321 H1325 0.930 . S
C1322 C1321 1.369 . S
C1322 C1331 1.429 . S
C1323 C1321 1.419 . S
C1323 C1324 1.363 . S
C1323 H1326 0.929 . S
C1324 C1323 1.363 . S
C1324 C1330 1.428 . S
H1325 C1321 0.930 . S
H1326 C1323 0.929 . S
S1327 N1328 1.613 . S
S1327 N1329 1.610 . S
N1328 S1327 1.613 . S
N1328 C1331 1.350 . S
N1329 S1327 1.610 . S
N1329 C1330 1.351 . S
C1330 C1324 1.428 . S
C1330 N1329 1.351 . S
C1330 C1331 1.434 . S
C1331 C1322 1.429 . S
C1331 N1328 1.350 . S
C1331 C1330 1.434 . S
C1332 C1333 1.369 . S
C1332 C1334 1.419 1_545 S
C1332 H1336 0.930 . S
C1333 C1332 1.369 . S
C1333 C1342 1.429 . S
C1334 C1332 1.419 1_565 S
C1334 C1335 1.363 . S
C1334 H1337 0.929 . S
C1335 C1334 1.363 . S
C1335 C1341 1.428 . S
H1336 C1332 0.930 . S
H1337 C1334 0.929 . S
S1338 N1339 1.613 . S
S1338 N1340 1.610 1_545 S
N1339 S1338 1.613 . S
N1339 C1342 1.350 . S
N1340 S1338 1.610 1_565 S
N1340 C1341 1.351 . S
C1341 C1335 1.428 . S
C1341 N1340 1.351 . S
C1341 C1342 1.434 1_565 S
C1342 C1333 1.429 . S
C1342 N1339 1.350 . S
C1342 C1341 1.434 1_545 S
C1343 C1344 1.369 . S
C1343 C1345 1.419 . S
C1343 H1347 0.930 . S
C1344 C1343 1.369 . S
C1344 C1353 1.429 . S
C1345 C1343 1.419 . S
C1345 C1346 1.363 . S
C1345 H1348 0.929 . S
C1346 C1345 1.363 . S
C1346 C1352 1.428 . S
H1347 C1343 0.930 . S
H1348 C1345 0.929 . S
S1349 N1350 1.613 . S
S1349 N1351 1.610 . S
N1350 S1349 1.613 . S
N1350 C1353 1.350 . S
N1351 S1349 1.610 . S
N1351 C1352 1.351 . S
C1352 C1346 1.428 . S
C1352 N1351 1.351 . S
C1352 C1353 1.434 . S
C1353 C1344 1.429 . S
C1353 N1350 1.350 . S
C1353 C1352 1.434 . S
C1354 C1355 1.363 1_565 S
C1354 C1356 1.431 . S
C1354 H1358 0.923 1_565 S
C1355 C1354 1.363 1_545 S
C1355 C1364 1.429 1_545 S
C1356 C1354 1.431 . S
C1356 C1357 1.363 . S
C1356 H1359 0.929 . S
C1357 C1356 1.363 . S
C1357 C1363 1.428 . S
H1358 C1354 0.923 1_545 S
H1359 C1356 0.929 . S
S1360 N1361 1.613 1_565 S
S1360 N1362 1.610 . S
N1361 S1360 1.613 1_545 S
N1361 C1364 1.350 1_545 S
N1362 S1360 1.610 . S
N1362 C1363 1.351 . S
C1363 C1357 1.428 . S
C1363 N1362 1.351 . S
C1363 C1364 1.434 . S
C1364 C1355 1.429 1_565 S
C1364 N1361 1.350 1_565 S
C1364 C1363 1.434 . S
C1365 C1366 1.369 . S
C1365 C1367 1.419 . S
C1365 H1369 0.930 . S
C1366 C1365 1.369 . S
C1366 C1375 1.429 . S
C1367 C1365 1.419 . S
C1367 C1368 1.363 . S
C1367 H1370 0.929 . S
C1368 C1367 1.363 . S
C1368 C1374 1.428 . S
H1369 C1365 0.930 . S
H1370 C1367 0.929 . S
S1371 N1372 1.613 . S
S1371 N1373 1.610 . S
N1372 S1371 1.613 . S
N1372 C1375 1.350 . S
N1373 S1371 1.610 . S
N1373 C1374 1.351 . S
C1374 C1368 1.428 . S
C1374 N1373 1.351 . S
C1374 C1375 1.434 . S
C1375 C1366 1.429 . S
C1375 N1372 1.350 . S
C1375 C1374 1.434 . S
C1376 C1377 1.369 . S
C1376 C1378 1.419 1_556 S
C1376 H1380 0.930 . S
C1377 C1376 1.369 . S
C1377 C1386 1.429 . S
C1378 C1376 1.419 1_554 S
C1378 C1379 1.363 . S
C1378 H1381 0.929 . S
C1379 C1378 1.363 . S
C1379 C1385 1.428 . S
H1380 C1376 0.930 . S
H1381 C1378 0.929 . S
S1382 N1383 1.613 1_554 S
S1382 N1384 1.610 . S
N1383 S1382 1.613 1_556 S
N1383 C1386 1.350 . S
N1384 S1382 1.610 . S
N1384 C1385 1.351 . S
C1385 C1379 1.428 . S
C1385 N1384 1.351 . S
C1385 C1386 1.434 1_554 S
C1386 C1377 1.429 . S
C1386 N1383 1.350 . S
C1386 C1385 1.434 1_556 S
C1387 C1388 1.369 . S
C1387 C1389 1.419 1_556 S
C1387 H1391 0.930 . S
C1388 C1387 1.369 . S
C1388 C1397 1.429 . S
C1389 C1387 1.419 1_554 S
C1389 C1390 1.363 . S
C1389 H1392 0.929 . S
C1390 C1389 1.363 . S
C1390 C1396 1.428 . S
H1391 C1387 0.930 . S
H1392 C1389 0.929 . S
S1393 N1394 1.613 1_554 S
S1393 N1395 1.610 . S
N1394 S1393 1.613 1_556 S
N1394 C1397 1.350 . S
N1395 S1393 1.610 . S
N1395 C1396 1.351 . S
C1396 C1390 1.428 . S
C1396 N1395 1.351 . S
C1396 C1397 1.434 1_554 S
C1397 C1388 1.429 . S
C1397 N1394 1.350 . S
C1397 C1396 1.434 1_556 S
C1398 C1399 1.369 . S
C1398 C1400 1.419 . S
C1398 H1402 0.930 . S
C1399 C1398 1.369 . S
C1399 C1408 1.429 . S
C1400 C1398 1.419 . S
C1400 C1401 1.363 . S
C1400 H1403 0.929 . S
C1401 C1400 1.363 . S
C1401 C1407 1.428 . S
H1402 C1398 0.930 . S
H1403 C1400 0.929 . S
S1404 N1405 1.613 . S
S1404 N1406 1.610 . S
N1405 S1404 1.613 . S
N1405 C1408 1.350 . S
N1406 S1404 1.610 . S
N1406 C1407 1.351 . S
C1407 C1401 1.428 . S
C1407 N1406 1.351 . S
C1407 C1408 1.434 . S
C1408 C1399 1.429 . S
C1408 N1405 1.350 . S
C1408 C1407 1.434 . S
C1409 C1410 1.369 . S
C1409 C1411 1.419 . S
C1409 H1413 0.930 . S
C1410 C1409 1.369 . S
C1410 C1419 1.429 . S
C1411 C1409 1.419 . S
C1411 C1412 1.363 . S
C1411 H1414 0.929 . S
C1412 C1411 1.363 . S
C1412 C1418 1.428 . S
H1413 C1409 0.930 . S
H1414 C1411 0.929 . S
S1415 N1416 1.613 . S
S1415 N1417 1.610 . S
N1416 S1415 1.613 . S
N1416 C1419 1.350 . S
N1417 S1415 1.610 . S
N1417 C1418 1.351 . S
C1418 C1412 1.428 . S
C1418 N1417 1.351 . S
C1418 C1419 1.434 . S
C1419 C1410 1.429 . S
C1419 N1416 1.350 . S
C1419 C1418 1.434 . S
C1420 C1421 1.369 . S
C1420 C1422 1.419 . S
C1420 H1424 0.930 . S
C1421 C1420 1.369 . S
C1421 C1430 1.429 . S
C1422 C1420 1.419 . S
C1422 C1423 1.363 . S
C1422 H1425 0.929 . S
C1423 C1422 1.363 . S
C1423 C1429 1.428 . S
H1424 C1420 0.930 . S
H1425 C1422 0.929 . S
S1426 N1427 1.613 . S
S1426 N1428 1.610 . S
N1427 S1426 1.613 . S
N1427 C1430 1.350 . S
N1428 S1426 1.610 . S
N1428 C1429 1.351 . S
C1429 C1423 1.428 . S
C1429 N1428 1.351 . S
C1429 C1430 1.434 . S
C1430 C1421 1.429 . S
C1430 N1427 1.350 . S
C1430 C1429 1.434 . S
C1431 C1432 1.369 . S
C1431 C1433 1.419 1_556 S
C1431 H1435 0.930 . S
C1432 C1431 1.369 . S
C1432 C1441 1.429 . S
C1433 C1431 1.419 1_554 S
C1433 C1434 1.363 . S
C1433 H1436 0.929 . S
C1434 C1433 1.363 . S
C1434 C1440 1.428 . S
H1435 C1431 0.930 . S
H1436 C1433 0.929 . S
S1437 N1438 1.613 1_554 S
S1437 N1439 1.610 . S
N1438 S1437 1.613 1_556 S
N1438 C1441 1.350 . S
N1439 S1437 1.610 . S
N1439 C1440 1.351 . S
C1440 C1434 1.428 . S
C1440 N1439 1.351 . S
C1440 C1441 1.434 1_554 S
C1441 C1432 1.429 . S
C1441 N1438 1.350 . S
C1441 C1440 1.434 1_556 S
C1442 C1443 1.369 . S
C1442 C1444 1.419 . S
C1442 H1446 0.930 . S
C1443 C1442 1.369 . S
C1443 C1452 1.429 . S
C1444 C1442 1.419 . S
C1444 C1445 1.363 . S
C1444 H1447 0.929 . S
C1445 C1444 1.363 . S
C1445 C1451 1.428 . S
H1446 C1442 0.930 . S
H1447 C1444 0.929 . S
S1448 N1449 1.613 . S
S1448 N1450 1.610 . S
N1449 S1448 1.613 . S
N1449 C1452 1.350 . S
N1450 S1448 1.610 . S
N1450 C1451 1.351 . S
C1451 C1445 1.428 . S
C1451 N1450 1.351 . S
C1451 C1452 1.434 . S
C1452 C1443 1.429 . S
C1452 N1449 1.350 . S
C1452 C1451 1.434 . S
C1453 C1454 1.369 . S
C1453 C1455 1.419 . S
C1453 H1457 0.930 . S
C1454 C1453 1.369 . S
C1454 C1463 1.429 . S
C1455 C1453 1.419 . S
C1455 C1456 1.363 . S
C1455 H1458 0.929 . S
C1456 C1455 1.363 . S
C1456 C1462 1.428 . S
H1457 C1453 0.930 . S
H1458 C1455 0.929 . S
S1459 N1460 1.613 . S
S1459 N1461 1.610 . S
N1460 S1459 1.613 . S
N1460 C1463 1.350 . S
N1461 S1459 1.610 . S
N1461 C1462 1.351 . S
C1462 C1456 1.428 . S
C1462 N1461 1.351 . S
C1462 C1463 1.434 . S
C1463 C1454 1.429 . S
C1463 N1460 1.350 . S
C1463 C1462 1.434 . S
C1464 C1465 1.369 . S
C1464 C1466 1.419 . S
C1464 H1468 0.930 . S
C1465 C1464 1.369 . S
C1465 C1474 1.429 . S
C1466 C1464 1.419 . S
C1466 C1467 1.363 . S
C1466 H1469 0.929 . S
C1467 C1466 1.363 . S
C1467 C1473 1.428 . S
H1468 C1464 0.930 . S
H1469 C1466 0.929 . S
S1470 N1471 1.613 . S
S1470 N1472 1.610 . S
N1471 S1470 1.613 . S
N1471 C1474 1.350 . S
N1472 S1470 1.610 . S
N1472 C1473 1.351 . S
C1473 C1467 1.428 . S
C1473 N1472 1.351 . S
C1473 C1474 1.434 . S
C1474 C1465 1.429 . S
C1474 N1471 1.350 . S
C1474 C1473 1.434 . S
C1475 C1476 1.369 . S
C1475 C1477 1.419 . S
C1475 H1479 0.930 . S
C1476 C1475 1.369 . S
C1476 C1485 1.429 . S
C1477 C1475 1.419 . S
C1477 C1478 1.363 . S
C1477 H1480 0.929 . S
C1478 C1477 1.363 . S
C1478 C1484 1.428 . S
H1479 C1475 0.930 . S
H1480 C1477 0.929 . S
S1481 N1482 1.613 . S
S1481 N1483 1.610 . S
N1482 S1481 1.613 . S
N1482 C1485 1.350 . S
N1483 S1481 1.610 . S
N1483 C1484 1.351 . S
C1484 C1478 1.428 . S
C1484 N1483 1.351 . S
C1484 C1485 1.434 . S
C1485 C1476 1.429 . S
C1485 N1482 1.350 . S
C1485 C1484 1.434 . S
C1486 C1487 1.369 . S
C1486 C1488 1.419 . S
C1486 H1490 0.930 . S
C1487 C1486 1.369 . S
C1487 C1496 1.429 . S
C1488 C1486 1.419 . S
C1488 C1489 1.363 . S
C1488 H1491 0.929 . S
C1489 C1488 1.363 . S
C1489 C1495 1.428 . S
H1490 C1486 0.930 . S
H1491 C1488 0.929 . S
S1492 N1493 1.613 . S
S1492 N1494 1.610 . S
N1493 S1492 1.613 . S
N1493 C1496 1.350 . S
N1494 S1492 1.610 . S
N1494 C1495 1.351 . S
C1495 C1489 1.428 . S
C1495 N1494 1.351 . S
C1495 C1496 1.434 . S
C1496 C1487 1.429 . S
C1496 N1493 1.350 . S
C1496 C1495 1.434 . S
C1497 C1498 1.369 . S
C1497 C1499 1.419 . S
C1497 H1501 0.930 . S
C1498 C1497 1.369 . S
C1498 C1507 1.429 . S
C1499 C1497 1.419 . S
C1499 C1500 1.363 . S
C1499 H1502 0.929 . S
C1500 C1499 1.363 . S
C1500 C1506 1.428 . S
H1501 C1497 0.930 . S
H1502 C1499 0.929 . S
S1503 N1504 1.613 . S
S1503 N1505 1.610 . S
N1504 S1503 1.613 . S
N1504 C1507 1.350 . S
N1505 S1503 1.610 . S
N1505 C1506 1.351 . S
C1506 C1500 1.428 . S
C1506 N1505 1.351 . S
C1506 C1507 1.434 . S
C1507 C1498 1.429 . S
C1507 N1504 1.350 . S
C1507 C1506 1.434 . S
C1508 C1509 1.369 . S
C1508 C1510 1.419 . S
C1508 H1512 0.930 . S
C1509 C1508 1.369 . S
C1509 C1518 1.429 . S
C1510 C1508 1.419 . S
C1510 C1511 1.363 . S
C1510 H1513 0.929 . S
C1511 C1510 1.363 . S
C1511 C1517 1.428 . S
H1512 C1508 0.930 . S
H1513 C1510 0.929 . S
S1514 N1515 1.613 . S
S1514 N1516 1.610 . S
N1515 S1514 1.613 . S
N1515 C1518 1.350 . S
N1516 S1514 1.610 . S
N1516 C1517 1.351 . S
C1517 C1511 1.428 . S
C1517 N1516 1.351 . S
C1517 C1518 1.434 . S
C1518 C1509 1.429 . S
C1518 N1515 1.350 . S
C1518 C1517 1.434 . S
C1519 C1520 1.369 . S
C1519 C1521 1.419 . S
C1519 H1523 0.930 . S
C1520 C1519 1.369 . S
C1520 C1529 1.429 . S
C1521 C1519 1.419 . S
C1521 C1522 1.363 . S
C1521 H1524 0.929 . S
C1522 C1521 1.363 . S
C1522 C1528 1.428 . S
H1523 C1519 0.930 . S
H1524 C1521 0.929 . S
S1525 N1526 1.613 . S
S1525 N1527 1.610 . S
N1526 S1525 1.613 . S
N1526 C1529 1.350 . S
N1527 S1525 1.610 . S
N1527 C1528 1.351 . S
C1528 C1522 1.428 . S
C1528 N1527 1.351 . S
C1528 C1529 1.434 . S
C1529 C1520 1.429 . S
C1529 N1526 1.350 . S
C1529 C1528 1.434 . S
C1530 C1531 1.369 . S
C1530 C1532 1.419 . S
C1530 H1534 0.930 . S
C1531 C1530 1.369 . S
C1531 C1540 1.429 . S
C1532 C1530 1.419 . S
C1532 C1533 1.363 . S
C1532 H1535 0.929 . S
C1533 C1532 1.363 . S
C1533 C1539 1.428 . S
H1534 C1530 0.930 . S
H1535 C1532 0.929 . S
S1536 N1537 1.613 . S
S1536 N1538 1.610 . S
N1537 S1536 1.613 . S
N1537 C1540 1.350 . S
N1538 S1536 1.610 . S
N1538 C1539 1.351 . S
C1539 C1533 1.428 . S
C1539 N1538 1.351 . S
C1539 C1540 1.434 . S
C1540 C1531 1.429 . S
C1540 N1537 1.350 . S
C1540 C1539 1.434 . S
C1541 C1542 1.369 . S
C1541 C1543 1.419 . S
C1541 H1545 0.930 . S
C1542 C1541 1.369 . S
C1542 C1551 1.429 . S
C1543 C1541 1.419 . S
C1543 C1544 1.363 . S
C1543 H1546 0.929 . S
C1544 C1543 1.363 . S
C1544 C1550 1.428 . S
H1545 C1541 0.930 . S
H1546 C1543 0.929 . S
S1547 N1548 1.613 . S
S1547 N1549 1.610 . S
N1548 S1547 1.613 . S
N1548 C1551 1.350 . S
N1549 S1547 1.610 . S
N1549 C1550 1.351 . S
C1550 C1544 1.428 . S
C1550 N1549 1.351 . S
C1550 C1551 1.434 . S
C1551 C1542 1.429 . S
C1551 N1548 1.350 . S
C1551 C1550 1.434 . S
C1552 C1553 1.369 . S
C1552 C1554 1.419 . S
C1552 H1556 0.930 . S
C1553 C1552 1.369 . S
C1553 C1562 1.429 . S
C1554 C1552 1.419 . S
C1554 C1555 1.363 . S
C1554 H1557 0.929 . S
C1555 C1554 1.363 . S
C1555 C1561 1.428 . S
H1556 C1552 0.930 . S
H1557 C1554 0.929 . S
S1558 N1559 1.613 . S
S1558 N1560 1.610 . S
N1559 S1558 1.613 . S
N1559 C1562 1.350 . S
N1560 S1558 1.610 . S
N1560 C1561 1.351 . S
C1561 C1555 1.428 . S
C1561 N1560 1.351 . S
C1561 C1562 1.434 . S
C1562 C1553 1.429 . S
C1562 N1559 1.350 . S
C1562 C1561 1.434 . S
C1563 C1564 1.369 . S
C1563 C1565 1.419 . S
C1563 H1567 0.930 . S
C1564 C1563 1.369 . S
C1564 C1573 1.429 . S
C1565 C1563 1.419 . S
C1565 C1566 1.363 . S
C1565 H1568 0.929 . S
C1566 C1565 1.363 . S
C1566 C1572 1.428 . S
H1567 C1563 0.930 . S
H1568 C1565 0.929 . S
S1569 N1570 1.613 . S
S1569 N1571 1.610 . S
N1570 S1569 1.613 . S
N1570 C1573 1.350 . S
N1571 S1569 1.610 . S
N1571 C1572 1.351 . S
C1572 C1566 1.428 . S
C1572 N1571 1.351 . S
C1572 C1573 1.434 . S
C1573 C1564 1.429 . S
C1573 N1570 1.350 . S
C1573 C1572 1.434 . S
C1574 C1575 1.369 . S
C1574 C1576 1.419 . S
C1574 H1578 0.930 . S
C1575 C1574 1.369 . S
C1575 C1584 1.429 . S
C1576 C1574 1.419 . S
C1576 C1577 1.363 . S
C1576 H1579 0.929 . S
C1577 C1576 1.363 . S
C1577 C1583 1.428 . S
H1578 C1574 0.930 . S
H1579 C1576 0.929 . S
S1580 N1581 1.613 . S
S1580 N1582 1.610 . S
N1581 S1580 1.613 . S
N1581 C1584 1.350 . S
N1582 S1580 1.610 . S
N1582 C1583 1.351 . S
C1583 C1577 1.428 . S
C1583 N1582 1.351 . S
C1583 C1584 1.434 . S
C1584 C1575 1.429 . S
C1584 N1581 1.350 . S
C1584 C1583 1.434 . S
C1585 C1586 1.369 . S
C1585 C1587 1.419 . S
C1585 H1589 0.930 . S
C1586 C1585 1.369 . S
C1586 C1595 1.429 . S
C1587 C1585 1.419 . S
C1587 C1588 1.363 . S
C1587 H1590 0.929 . S
C1588 C1587 1.363 . S
C1588 C1594 1.428 . S
H1589 C1585 0.930 . S
H1590 C1587 0.929 . S
S1591 N1592 1.613 . S
S1591 N1593 1.610 . S
N1592 S1591 1.613 . S
N1592 C1595 1.350 . S
N1593 S1591 1.610 . S
N1593 C1594 1.351 . S
C1594 C1588 1.428 . S
C1594 N1593 1.351 . S
C1594 C1595 1.434 . S
C1595 C1586 1.429 . S
C1595 N1592 1.350 . S
C1595 C1594 1.434 . S
C1596 C1597 1.369 . S
C1596 C1598 1.419 . S
C1596 H1600 0.930 . S
C1597 C1596 1.369 . S
C1597 C1606 1.429 . S
C1598 C1596 1.419 . S
C1598 C1599 1.363 . S
C1598 H1601 0.929 . S
C1599 C1598 1.363 . S
C1599 C1605 1.428 . S
H1600 C1596 0.930 . S
H1601 C1598 0.929 . S
S1602 N1603 1.613 . S
S1602 N1604 1.610 . S
N1603 S1602 1.613 . S
N1603 C1606 1.350 . S
N1604 S1602 1.610 . S
N1604 C1605 1.351 . S
C1605 C1599 1.428 . S
C1605 N1604 1.351 . S
C1605 C1606 1.434 . S
C1606 C1597 1.429 . S
C1606 N1603 1.350 . S
C1606 C1605 1.434 . S
C1607 C1608 1.369 . S
C1607 C1609 1.419 . S
C1607 H1611 0.930 . S
C1608 C1607 1.369 . S
C1608 C1617 1.429 . S
C1609 C1607 1.419 . S
C1609 C1610 1.363 . S
C1609 H1612 0.929 . S
C1610 C1609 1.363 . S
C1610 C1616 1.428 . S
H1611 C1607 0.930 . S
H1612 C1609 0.929 . S
S1613 N1614 1.613 . S
S1613 N1615 1.610 . S
N1614 S1613 1.613 . S
N1614 C1617 1.350 . S
N1615 S1613 1.610 . S
N1615 C1616 1.351 . S
C1616 C1610 1.428 . S
C1616 N1615 1.351 . S
C1616 C1617 1.434 . S
C1617 C1608 1.429 . S
C1617 N1614 1.350 . S
C1617 C1616 1.434 . S
C1618 C1619 1.369 . S
C1618 C1620 1.419 . S
C1618 H1622 0.930 . S
C1619 C1618 1.369 . S
C1619 C1628 1.429 . S
C1620 C1618 1.419 . S
C1620 C1621 1.363 . S
C1620 H1623 0.929 . S
C1621 C1620 1.363 . S
C1621 C1627 1.428 . S
H1622 C1618 0.930 . S
H1623 C1620 0.929 . S
S1624 N1625 1.613 . S
S1624 N1626 1.610 . S
N1625 S1624 1.613 . S
N1625 C1628 1.350 . S
N1626 S1624 1.610 . S
N1626 C1627 1.351 . S
C1627 C1621 1.428 . S
C1627 N1626 1.351 . S
C1627 C1628 1.434 . S
C1628 C1619 1.429 . S
C1628 N1625 1.350 . S
C1628 C1627 1.434 . S
C1629 C1630 1.369 . S
C1629 C1631 1.419 . S
C1629 H1633 0.930 . S
C1630 C1629 1.369 . S
C1630 C1639 1.429 . S
C1631 C1629 1.419 . S
C1631 C1632 1.363 . S
C1631 H1634 0.929 . S
C1632 C1631 1.363 . S
C1632 C1638 1.428 . S
H1633 C1629 0.930 . S
H1634 C1631 0.929 . S
S1635 N1636 1.613 . S
S1635 N1637 1.610 . S
N1636 S1635 1.613 . S
N1636 C1639 1.350 . S
N1637 S1635 1.610 . S
N1637 C1638 1.351 . S
C1638 C1632 1.428 . S
C1638 N1637 1.351 . S
C1638 C1639 1.434 . S
C1639 C1630 1.429 . S
C1639 N1636 1.350 . S
C1639 C1638 1.434 . S
C1640 C1641 1.369 . S
C1640 C1642 1.419 . S
C1640 H1644 0.930 . S
C1641 C1640 1.369 . S
C1641 C1650 1.429 . S
C1642 C1640 1.419 . S
C1642 C1643 1.363 . S
C1642 H1645 0.929 . S
C1643 C1642 1.363 . S
C1643 C1649 1.428 . S
H1644 C1640 0.930 . S
H1645 C1642 0.929 . S
S1646 N1647 1.613 . S
S1646 N1648 1.610 . S
N1647 S1646 1.613 . S
N1647 C1650 1.350 . S
N1648 S1646 1.610 . S
N1648 C1649 1.351 . S
C1649 C1643 1.428 . S
C1649 N1648 1.351 . S
C1649 C1650 1.434 . S
C1650 C1641 1.429 . S
C1650 N1647 1.350 . S
C1650 C1649 1.434 . S
C1651 C1652 1.369 . S
C1651 C1653 1.419 . S
C1651 H1655 0.930 . S
C1652 C1651 1.369 . S
C1652 C1661 1.429 . S
C1653 C1651 1.419 . S
C1653 C1654 1.363 . S
C1653 H1656 0.929 . S
C1654 C1653 1.363 . S
C1654 C1660 1.428 . S
H1655 C1651 0.930 . S
H1656 C1653 0.929 . S
S1657 N1658 1.613 . S
S1657 N1659 1.610 . S
N1658 S1657 1.613 . S
N1658 C1661 1.350 . S
N1659 S1657 1.610 . S
N1659 C1660 1.351 . S
C1660 C1654 1.428 . S
C1660 N1659 1.351 . S
C1660 C1661 1.434 . S
C1661 C1652 1.429 . S
C1661 N1658 1.350 . S
C1661 C1660 1.434 . S
C1662 C1663 1.369 . S
C1662 C1664 1.419 . S
C1662 H1666 0.930 . S
C1663 C1662 1.369 . S
C1663 C1672 1.429 . S
C1664 C1662 1.419 . S
C1664 C1665 1.363 . S
C1664 H1667 0.929 . S
C1665 C1664 1.363 . S
C1665 C1671 1.428 . S
H1666 C1662 0.930 . S
H1667 C1664 0.929 . S
S1668 N1669 1.613 . S
S1668 N1670 1.610 . S
N1669 S1668 1.613 . S
N1669 C1672 1.350 . S
N1670 S1668 1.610 . S
N1670 C1671 1.351 . S
C1671 C1665 1.428 . S
C1671 N1670 1.351 . S
C1671 C1672 1.434 . S
C1672 C1663 1.429 . S
C1672 N1669 1.350 . S
C1672 C1671 1.434 . S
C1673 C1674 1.369 . S
C1673 C1675 1.419 . S
C1673 H1677 0.930 . S
C1674 C1673 1.369 . S
C1674 C1683 1.429 . S
C1675 C1673 1.419 . S
C1675 C1676 1.363 . S
C1675 H1678 0.929 . S
C1676 C1675 1.363 . S
C1676 C1682 1.428 . S
H1677 C1673 0.930 . S
H1678 C1675 0.929 . S
S1679 N1680 1.613 . S
S1679 N1681 1.610 . S
N1680 S1679 1.613 . S
N1680 C1683 1.350 . S
N1681 S1679 1.610 . S
N1681 C1682 1.351 . S
C1682 C1676 1.428 . S
C1682 N1681 1.351 . S
C1682 C1683 1.434 . S
C1683 C1674 1.429 . S
C1683 N1680 1.350 . S
C1683 C1682 1.434 . S
C1684 C1685 1.369 . S
C1684 C1686 1.419 . S
C1684 H1688 0.930 . S
C1685 C1684 1.369 . S
C1685 C1694 1.429 . S
C1686 C1684 1.419 . S
C1686 C1687 1.363 . S
C1686 H1689 0.929 . S
C1687 C1686 1.363 . S
C1687 C1693 1.428 . S
H1688 C1684 0.930 . S
H1689 C1686 0.929 . S
S1690 N1691 1.613 . S
S1690 N1692 1.610 . S
N1691 S1690 1.613 . S
N1691 C1694 1.350 . S
N1692 S1690 1.610 . S
N1692 C1693 1.351 . S
C1693 C1687 1.428 . S
C1693 N1692 1.351 . S
C1693 C1694 1.434 . S
C1694 C1685 1.429 . S
C1694 N1691 1.350 . S
C1694 C1693 1.434 . S
C1695 C1696 1.369 . S
C1695 C1697 1.419 . S
C1695 H1699 0.930 . S
C1696 C1695 1.369 . S
C1696 C1705 1.429 . S
C1697 C1695 1.419 . S
C1697 C1698 1.363 . S
C1697 H1700 0.929 . S
C1698 C1697 1.363 . S
C1698 C1704 1.428 . S
H1699 C1695 0.930 . S
H1700 C1697 0.929 . S
S1701 N1702 1.613 . S
S1701 N1703 1.610 . S
N1702 S1701 1.613 . S
N1702 C1705 1.350 . S
N1703 S1701 1.610 . S
N1703 C1704 1.351 . S
C1704 C1698 1.428 . S
C1704 N1703 1.351 . S
C1704 C1705 1.434 . S
C1705 C1696 1.429 . S
C1705 N1702 1.350 . S
C1705 C1704 1.434 . S
C1706 C1707 1.369 . S
C1706 C1708 1.419 . S
C1706 H1710 0.930 . S
C1707 C1706 1.369 . S
C1707 C1716 1.429 . S
C1708 C1706 1.419 . S
C1708 C1709 1.363 . S
C1708 H1711 0.929 . S
C1709 C1708 1.363 . S
C1709 C1715 1.428 . S
H1710 C1706 0.930 . S
H1711 C1708 0.929 . S
S1712 N1713 1.613 . S
S1712 N1714 1.610 . S
N1713 S1712 1.613 . S
N1713 C1716 1.350 . S
N1714 S1712 1.610 . S
N1714 C1715 1.351 . S
C1715 C1709 1.428 . S
C1715 N1714 1.351 . S
C1715 C1716 1.434 . S
C1716 C1707 1.429 . S
C1716 N1713 1.350 . S
C1716 C1715 1.434 . S
C1717 C1718 1.369 . S
C1717 C1719 1.419 . S
C1717 H1721 0.930 . S
C1718 C1717 1.369 . S
C1718 C1727 1.429 . S
C1719 C1717 1.419 . S
C1719 C1720 1.363 . S
C1719 H1722 0.929 . S
C1720 C1719 1.363 . S
C1720 C1726 1.428 . S
H1721 C1717 0.930 . S
H1722 C1719 0.929 . S
S1723 N1724 1.613 . S
S1723 N1725 1.610 . S
N1724 S1723 1.613 . S
N1724 C1727 1.350 . S
N1725 S1723 1.610 . S
N1725 C1726 1.351 . S
C1726 C1720 1.428 . S
C1726 N1725 1.351 . S
C1726 C1727 1.434 . S
C1727 C1718 1.429 . S
C1727 N1724 1.350 . S
C1727 C1726 1.434 . S
C673 C286 1.622 . S
C675 C6 1.581 . S
C684 C23 1.906 . S
C686 C247 1.921 . S
C695 C34 1.718 . S
C697 C260 1.895 . S
C706 C275 1.895 . S
C708 C51 1.897 . S
C717 C328 1.603 . S
C719 C65 1.807 . S
C728 C77 1.751 . S
C730 C303 1.905 . S
C739 C93 1.770 . S
C741 C314 1.615 . S
C750 C105 1.611 . S
C752 C231 1.623 . S
C761 C118 1.657 . S
C763 C216 1.649 . S
C772 C135 1.922 . S
C774 C176 1.923 . S
C783 C146 1.546 . S
C785 C188 1.542 . S
C794 C204 1.912 . S
C796 C163 1.913 . S
C805 C345 1.956 . S
C807 C624 1.947 . S
C816 C583 1.747 . S
C818 C357 1.571 . S
C827 C373 1.846 . S
C829 C594 1.690 . S
C838 C611 1.797 . S
C840 C385 1.634 . S
C849 C398 1.348 . S
C851 C664 1.350 . S
C860 C637 1.658 . S
C862 C415 1.825 . S
C871 C426 1.298 . S
C873 C650 1.281 . S
C882 C569 1.926 . S
C884 C443 1.937 . S
C893 C456 1.795 . S
C895 C555 1.799 . S
C904 C510 1.547 . S
C906 C468 1.551 . S
C915 C527 1.719 . S
C917 C484 1.718 . S
C926 C538 1.541 . S
C928 C496 1.538 . S
C937 C370 1.275 . S
C939 C9 1.347 . S
C948 C20 1.199 . S
C950 C386 1.285 . S
C959 C37 1.310 . S
C961 C342 1.254 . S
C970 C48 1.202 . S
C972 C358 1.292 . S
C981 C62 1.345 . S
C983 C429 1.413 . S
C992 C440 1.238 . S
C994 C78 1.307 . S
C1003 C401 1.410 . S
C1005 C90 1.341 . S
C1014 C412 1.252 . S
C1016 C106 1.346 . S
C1025 C513 1.503 . S
C1027 C121 1.514 . S
C1036 C132 1.092 . S
C1038 C524 1.106 . S
C1047 C541 1.475 . S
C1049 C149 1.481 . S
C1058 C160 1.071 . S
C1060 C552 1.081 . S
C1069 C175 1.193 . S
C1071 C455 1.205 . S
C1080 C191 1.355 . S
C1082 C471 1.352 . S
C1091 C483 1.222 . S
C1093 C203 1.206 . S
C1102 C499 1.386 . S
C1104 C219 1.388 . S
C1113 C232 1.400 . S
C1115 C608 1.285 . S
C1124 C244 1.213 . S
C1126 C638 1.316 . S
C1135 C653 1.325 . S
C1137 C259 1.254 1_455 S
C1146 C566 1.149 . S
C1148 C272 1.114 . S
C1157 C289 1.380 . S
C1159 C667 1.378 . S
C1168 C580 1.206 . S
C1170 C300 1.249 . S
C1179 C317 1.466 . S
C1181 C597 1.461 . S
C1190 C331 1.339 . S
C1192 C623 1.276 1_455 S
C1201 C399 1.842 . S
C1203 C8 1.790 . S
C1212 C414 1.748 . S
C1214 C21 1.837 . S
C1223 C427 1.943 . S
C1225 C36 1.911 . S
C1234 C49 1.871 . S
C1236 C442 1.780 . S
C1245 C344 1.776 . S
C1247 C63 1.832 . S
C1256 C356 1.967 . S
C1258 C79 1.912 . S
C1267 C91 1.798 . S
C1269 C372 1.731 . S
C1278 C384 1.873 . S
C1280 C107 1.797 . S
C1289 C120 1.829 . S
C1291 C539 1.871 . S
C1300 C133 1.907 . S
C1302 C554 1.835 . S
C1311 C511 1.866 . S
C1313 C148 1.806 . S
C1322 C161 1.919 . S
C1324 C526 1.825 . S
C1333 C485 1.833 . S
C1335 C174 1.920 . S
C1344 C190 1.770 . S
C1346 C497 1.823 . S
C1355 C202 1.911 . S
C1357 C457 1.848 . S
C1366 C218 1.798 . S
C1368 C469 1.839 . S
C1377 C636 1.886 . S
C1379 C233 1.815 . S
C1388 C245 1.891 . S
C1390 C610 1.779 . S
C1399 C258 1.794 . S
C1401 C625 1.731 . S
C1410 C273 1.862 1_554 S
C1412 C582 1.768 . S
C1421 C595 1.832 . S
C1423 C288 1.777 . S
C1432 C568 1.778 . S
C1434 C301 1.853 . S
C1443 C665 1.927 . S
C1445 C316 1.880 . S
C1454 C330 1.844 . S
C1456 C651 1.906 . S
C1465 C217 1.798 . S
C1467 C7 1.784 . S
C1476 C22 1.480 . S
C1478 C177 1.448 . S
C1487 C189 1.815 . S
C1489 C35 1.787 . S
C1498 C205 1.418 . S
C1500 C50 1.473 . S
C1509 C134 1.425 . S
C1511 C64 1.490 . S
C1520 C76 1.801 . S
C1522 C147 1.833 . S
C1531 C92 1.504 . S
C1533 C162 1.435 . S
C1542 C119 1.798 . S
C1544 C104 1.778 . S
C1553 C230 1.720 . S
C1555 C287 1.726 . S
C1564 C329 1.735 . S
C1566 C246 1.572 . S
C1575 C302 1.439 . S
C1577 C261 1.476 . S
C1586 C274 1.498 . S
C1588 C315 1.733 . S
C1597 C553 1.723 . S
C1599 C343 1.711 . S
C1608 C512 1.412 . S
C1610 C359 1.431 . S
C1619 C371 1.830 . S
C1621 C525 1.820 . S
C1630 C540 1.408 . S
C1632 C387 1.426 . S
C1641 C470 1.498 . S
C1643 C400 1.452 . S
C1652 C413 1.832 . S
C1654 C482 1.825 . S
C1663 C428 1.429 . S
C1665 C498 1.487 . S
C1674 C441 1.710 . S
C1676 C454 1.716 . S
C1685 C567 1.731 . S
C1687 C622 1.734 . S
C1696 C666 1.493 . S
C1698 C581 1.761 . S
C1707 C639 1.375 . S
C1709 C596 1.375 . S
C1718 C652 1.562 . S
C1720 C609 1.792 . S
