# Generated by pormake.
# Topology wji, (4)-cn, num edge types: 1
# Building blocks:
#     Node 0, Type 0, BuildingBlock: QUQFOY_clean_sbu_3, # of connection points: 4
#     Node 1, Type 0, BuildingBlock: QUQFOY_clean_sbu_3, # of connection points: 4
#     Node 2, Type 0, BuildingBlock: QUQFOY_clean_sbu_3, # of connection points: 4
#     Node 3, Type 0, BuildingBlock: QUQFOY_clean_sbu_3, # of connection points: 4
#     Node 4, Type 0, BuildingBlock: QUQFOY_clean_sbu_3, # of connection points: 4
#     Node 5, Type 0, BuildingBlock: QUQFOY_clean_sbu_3, # of connection points: 4
#     Node 6, Type 0, BuildingBlock: QUQFOY_clean_sbu_3, # of connection points: 4
#     Node 7, Type 0, BuildingBlock: QUQFOY_clean_sbu_3, # of connection points: 4
#     Node 8, Type 0, BuildingBlock: QUQFOY_clean_sbu_3, # of connection points: 4
#     Node 9, Type 0, BuildingBlock: QUQFOY_clean_sbu_3, # of connection points: 4
#     Node 10, Type 0, BuildingBlock: QUQFOY_clean_sbu_3, # of connection points: 4
#     Node 11, Type 0, BuildingBlock: QUQFOY_clean_sbu_3, # of connection points: 4
#     Edge 12, Type (0, 0), BuildingBlock: UVAHIK_clean_linker_0, # of connection points: 2
#     Edge 13, Type (0, 0), BuildingBlock: UVAHIK_clean_linker_0, # of connection points: 2
#     Edge 14, Type (0, 0), BuildingBlock: UVAHIK_clean_linker_0, # of connection points: 2
#     Edge 15, Type (0, 0), BuildingBlock: UVAHIK_clean_linker_0, # of connection points: 2
#     Edge 16, Type (0, 0), BuildingBlock: UVAHIK_clean_linker_0, # of connection points: 2
#     Edge 17, Type (0, 0), BuildingBlock: UVAHIK_clean_linker_0, # of connection points: 2
#     Edge 18, Type (0, 0), BuildingBlock: UVAHIK_clean_linker_0, # of connection points: 2
#     Edge 19, Type (0, 0), BuildingBlock: UVAHIK_clean_linker_0, # of connection points: 2
#     Edge 20, Type (0, 0), BuildingBlock: UVAHIK_clean_linker_0, # of connection points: 2
#     Edge 21, Type (0, 0), BuildingBlock: UVAHIK_clean_linker_0, # of connection points: 2
#     Edge 22, Type (0, 0), BuildingBlock: UVAHIK_clean_linker_0, # of connection points: 2
#     Edge 23, Type (0, 0), BuildingBlock: UVAHIK_clean_linker_0, # of connection points: 2
#     Edge 24, Type (0, 0), BuildingBlock: UVAHIK_clean_linker_0, # of connection points: 2
#     Edge 25, Type (0, 0), BuildingBlock: UVAHIK_clean_linker_0, # of connection points: 2
#     Edge 26, Type (0, 0), BuildingBlock: UVAHIK_clean_linker_0, # of connection points: 2
#     Edge 27, Type (0, 0), BuildingBlock: UVAHIK_clean_linker_0, # of connection points: 2
#     Edge 28, Type (0, 0), BuildingBlock: UVAHIK_clean_linker_0, # of connection points: 2
#     Edge 29, Type (0, 0), BuildingBlock: UVAHIK_clean_linker_0, # of connection points: 2
#     Edge 30, Type (0, 0), BuildingBlock: UVAHIK_clean_linker_0, # of connection points: 2
#     Edge 31, Type (0, 0), BuildingBlock: UVAHIK_clean_linker_0, # of connection points: 2
#     Edge 32, Type (0, 0), BuildingBlock: UVAHIK_clean_linker_0, # of connection points: 2
#     Edge 33, Type (0, 0), BuildingBlock: UVAHIK_clean_linker_0, # of connection points: 2
#     Edge 34, Type (0, 0), BuildingBlock: UVAHIK_clean_linker_0, # of connection points: 2
#     Edge 35, Type (0, 0), BuildingBlock: UVAHIK_clean_linker_0, # of connection points: 2
# Relax obj value: 0.220
# Max RMSD: 0.128
# Mean RMSD: 0.128
data_MOF--net-wji--node1-QUQFOY_clean_sbu_3--edge1-UVAHIK_clean_linker_0
_symmetry_space_group_name_H-M    P1
_symmetry_Int_Tables_number       1
_symmetry_cell_setting            triclinic
loop_
_symmetry_equiv_pos_as_xyz
'x, y, z'
_cell_length_a     77.743967
_cell_length_b     77.849058
_cell_length_c     30.287647
_cell_angle_alpha  90.619617
_cell_angle_beta   89.811635
_cell_angle_gamma 120.40482
loop_
_atom_site_label
_atom_site_type_symbol
_atom_site_fract_x
_atom_site_fract_y
_atom_site_fract_z
_atom_type_partial_charge
C0 C 0.42682 0.34817 0.3911 0.0
O1 O 0.41601 0.3553 0.40298 0.0
Cd2 Cd 0.38365 0.33745 0.43496 0.0
O3 O 0.42035 0.32952 0.39331 0.0
Cd4 Cd 0.38749 0.29985 0.4142 0.0
C5 C 0.35942 0.30939 0.34431 0.0
O6 O 0.38421 0.31402 0.48323 0.0
O7 O 0.35768 0.28756 0.46107 0.0
O8 O 0.40749 0.28598 0.44102 0.0
C9 C 0.36664 0.30026 0.49157 0.0
O10 O 0.36057 0.32151 0.37426 0.0
C11 C 0.39483 0.268 0.43153 0.0
O12 O 0.36962 0.30072 0.34677 0.0
O13 O 0.3795 0.26495 0.41003 0.0
C14 C 0.05849 0.4362 0.60126 0.0
O15 O 0.04146 0.42525 0.61834 0.0
Cd16 Cd 0.02559 0.39009 0.62456 0.0
O17 O 0.06897 0.42874 0.58813 0.0
Cd18 Cd 0.06653 0.39528 0.59009 0.0
C19 C 0.02902 0.37722 0.51589 0.0
O20 O 0.04925 0.38432 0.66005 0.0
O21 O 0.0481 0.36107 0.6188 0.0
O22 O 0.10025 0.41464 0.61932 0.0
C23 C 0.04466 0.36629 0.656 0.0
O24 O 0.01877 0.37698 0.54905 0.0
C25 C 0.10665 0.40393 0.60262 0.0
O26 O 0.04784 0.38451 0.51938 0.0
O27 O 0.09491 0.38999 0.57656 0.0
C28 C 0.60207 0.06805 0.77022 0.0
O29 O 0.59572 0.05132 0.78851 0.0
Cd30 Cd 0.61422 0.03482 0.79332 0.0
O31 O 0.61996 0.07793 0.75601 0.0
Cd32 Cd 0.65087 0.07512 0.75841 0.0
C33 C 0.62969 0.03764 0.68401 0.0
O34 O 0.64451 0.05806 0.8284 0.0
O35 O 0.66649 0.0568 0.78722 0.0
O36 O 0.66564 0.10886 0.78767 0.0
C37 C 0.65786 0.05341 0.82432 0.0
O38 O 0.61912 0.02793 0.71694 0.0
C39 C 0.68285 0.11518 0.77156 0.0
O40 O 0.64266 0.05615 0.68784 0.0
O41 O 0.68496 0.10337 0.74576 0.0
C42 C 0.52159 0.6092 0.95088 0.0
O43 O 0.53361 0.60414 0.96582 0.0
Cd44 Cd 0.56889 0.62503 0.96741 0.0
O45 O 0.52805 0.62685 0.93701 0.0
Cd46 Cd 0.56089 0.65894 0.93384 0.0
C47 C 0.5783 0.63957 0.85764 0.0
O48 O 0.57489 0.65505 0.00162 0.0
O49 O 0.59609 0.67758 0.95805 0.0
O50 O 0.54178 0.67128 0.97085 0.0
C51 C 0.59244 0.66938 -0.00449 0.0
O52 O 0.57971 0.63043 0.89083 0.0
C53 C 0.54928 0.68786 0.95144 0.0
O54 O 0.57048 0.65054 0.86164 0.0
O55 O 0.56146 0.69074 0.92026 0.0
C56 C 0.88473 0.52872 0.10345 0.0
O57 O 0.90072 0.53838 0.12555 0.0
Cd58 Cd 0.91862 0.57368 0.13049 0.0
O59 O 0.87611 0.5374 0.08682 0.0
Cd60 Cd 0.87973 0.57143 0.09189 0.0
C61 C 0.91795 0.58717 0.02095 0.0
O62 O 0.8959 0.58168 0.16355 0.0
O63 O 0.89857 0.60542 0.12281 0.0
O64 O 0.84568 0.55231 0.11842 0.0
C65 C 0.90121 0.5999 0.16012 0.0
O66 O 0.92692 0.58565 0.05454 0.0
C67 C 0.83974 0.56341 0.10256 0.0
O68 O 0.89962 0.58229 0.02328 0.0
O69 O 0.85193 0.57756 0.07806 0.0
C70 C 0.34202 0.90307 0.27701 0.0
O71 O 0.34749 0.91925 0.29787 0.0
Cd72 Cd 0.32807 0.93506 0.29961 0.0
O73 O 0.32458 0.89315 0.26027 0.0
Cd74 Cd 0.29275 0.89399 0.26309 0.0
C75 C 0.31305 0.93085 0.1893 0.0
O76 O 0.29737 0.91192 0.33193 0.0
O77 O 0.27565 0.91178 0.28757 0.0
O78 O 0.28053 0.86275 0.29999 0.0
C79 C 0.28375 0.916 0.32544 0.0
O80 O 0.32292 0.94099 0.22296 0.0
C81 C 0.26361 0.85347 0.28132 0.0
O82 O 0.301 0.9121 0.19214 0.0
O83 O 0.26043 0.86255 0.25051 0.0
C84 C 0.60198 0.53069 0.34728 0.0
O85 O 0.5967 0.54259 0.33294 0.0
Cd86 Cd 0.61736 0.57775 0.33075 0.0
O87 O 0.61979 0.53727 0.36094 0.0
Cd88 Cd 0.65153 0.57062 0.36534 0.0
C89 C 0.63176 0.58803 0.44065 0.0
O90 O 0.64705 0.58321 0.29598 0.0
O91 O 0.66936 0.60533 0.33922 0.0
O92 O 0.66544 0.55102 0.336 0.0
C93 C 0.66124 0.60092 0.30142 0.0
O94 O 0.62257 0.58929 0.40724 0.0
C95 C 0.68255 0.56139 0.35334 0.0
O96 O 0.64285 0.58034 0.43683 0.0
O97 O 0.68488 0.57516 0.37993 0.0
C98 C 0.05746 0.61196 0.52437 0.0
O99 O 0.04058 0.60563 0.50625 0.0
Cd100 Cd 0.024 0.62416 0.50396 0.0
O101 O 0.06747 0.62985 0.53892 0.0
Cd102 Cd 0.06517 0.66094 0.53708 0.0
C103 C 0.02913 0.6402 0.61386 0.0
O104 O 0.04636 0.65455 0.46936 0.0
O105 O 0.04644 0.67685 0.51239 0.0
O106 O 0.09647 0.67424 0.49875 0.0
C107 C 0.04197 0.66801 0.4752 0.0
O108 O 0.0189 0.62947 0.58119 0.0
C109 C 0.10521 0.69124 0.51731 0.0
O110 O 0.04756 0.65329 0.6092 0.0
O111 O 0.09586 0.694 0.54863 0.0
C112 C 0.42461 0.06706 0.69398 0.0
O113 O 0.41336 0.05006 0.67654 0.0
Cd114 Cd 0.37813 0.03493 0.67032 0.0
O115 O 0.41742 0.07772 0.70753 0.0
Cd116 Cd 0.38423 0.07592 0.70641 0.0
C117 C 0.36587 0.03825 0.77926 0.0
O118 O 0.37278 0.05899 0.63559 0.0
O119 O 0.35 0.05873 0.67671 0.0
O120 O 0.4045 0.1096 0.67897 0.0
C121 C 0.35497 0.05517 0.63935 0.0
O122 O 0.36533 0.02799 0.74566 0.0
C123 C 0.39409 0.11638 0.69542 0.0
O124 O 0.37337 0.05708 0.77644 0.0
O125 O 0.37988 0.10484 0.7207 0.0
C126 C 0.33781 0.43475 0.9185 0.0
O127 O 0.34518 0.42374 0.91044 0.0
Cd128 Cd 0.32893 0.39072 0.88107 0.0
O129 O 0.31921 0.42826 0.91325 0.0
Cd130 Cd 0.28946 0.39521 0.89202 0.0
C131 C 0.29789 0.36865 0.96911 0.0
O132 O 0.30593 0.39018 0.83014 0.0
O133 O 0.27753 0.36479 0.84562 0.0
O134 O 0.27648 0.41484 0.8585 0.0
C135 C 0.29256 0.37259 0.82042 0.0
O136 O 0.31115 0.36966 0.94275 0.0
C137 C 0.25833 0.40275 0.86752 0.0
O138 O 0.2889 0.37831 0.96216 0.0
O139 O 0.25475 0.38792 0.89116 0.0
C140 C 0.88721 0.35234 0.02581 0.0
O141 O 0.9036 0.35866 0.00556 0.0
Cd142 Cd 0.92024 0.34017 -0.00135 0.0
O143 O 0.87769 0.33461 0.04051 0.0
Cd144 Cd 0.88042 0.30382 0.03562 0.0
C145 C 0.91877 0.3248 0.10712 0.0
O146 O 0.89694 0.30968 0.96449 0.0
O147 O 0.89877 0.28827 0.00566 0.0
O148 O 0.84654 0.28893 0.0078 0.0
C149 C 0.90184 0.29653 0.96837 0.0
O150 O 0.92827 0.33494 0.07354 0.0
C151 C 0.84025 0.27185 0.02414 0.0
O152 O 0.90001 0.31253 0.10492 0.0
O153 O 0.85217 0.2699 0.04943 0.0
C154 C 0.51649 0.89652 0.19171 0.0
O155 O 0.52625 0.91228 0.16942 0.0
Cd156 Cd 0.5616 0.92938 0.16451 0.0
O157 O 0.525 0.88753 0.20732 0.0
Cd158 Cd 0.55821 0.88954 0.19952 0.0
C159 C 0.57471 0.92684 0.27377 0.0
O160 O 0.5696 0.90692 0.13023 0.0
O161 O 0.59266 0.90825 0.17204 0.0
O162 O 0.53939 0.85758 0.16336 0.0
C163 C 0.58772 0.91185 0.13494 0.0
O164 O 0.57338 0.93626 0.24101 0.0
C165 C 0.54794 0.8493 0.1816 0.0
O166 O 0.56955 0.90848 0.26993 0.0
O167 O 0.56061 0.85927 0.21176 0.0
C168 C 0.29141 0.33783 0.00681 0.0
C169 C 0.29461 0.35722 0.00979 0.0
C170 C 0.29325 0.32847 0.04411 0.0
C171 C 0.30197 0.3343 0.1668 0.0
H172 H 0.32731 0.30323 0.14283 0.0
C173 C 0.3289 0.30628 0.31031 0.0
C174 C 0.34724 0.3071 0.30502 0.0
C175 C 0.319 0.30821 0.27401 0.0
C176 C 0.3204 0.312 0.15031 0.0
H177 H 0.3016 0.3819 0.05395 0.0
H178 H 0.30567 0.36606 0.11895 0.0
H179 H 0.31632 0.31524 0.08198 0.0
H180 H 0.36935 0.30988 0.25763 0.0
H181 H 0.35264 0.31416 0.19427 0.0
H182 H 0.30754 0.33246 0.23497 0.0
C183 C 0.30103 0.35762 0.08834 0.0
C184 C 0.31369 0.31861 0.1152 0.0
C185 C 0.29868 0.36677 0.0511 0.0
C186 C 0.35507 0.30892 0.26244 0.0
C187 C 0.34541 0.31137 0.22612 0.0
C188 C 0.30904 0.32801 0.20187 0.0
C189 C 0.29901 0.33857 0.08505 0.0
C190 C 0.30455 0.33007 0.12284 0.0
C191 C 0.3275 0.31163 0.23159 0.0
C192 C 0.31857 0.31693 0.19419 0.0
H193 H 0.28832 0.33022 0.97513 0.0
H194 H 0.29089 0.31359 0.04031 0.0
H195 H 0.29475 0.34276 0.17431 0.0
H196 H 0.32252 0.30479 0.3429 0.0
H197 H 0.30496 0.30762 0.27959 0.0
C198 C -0.00238 0.3582 0.47175 0.0
C199 C 0.0186 0.36939 0.47297 0.0
C200 C -0.0126 0.35176 0.43164 0.0
C201 C -0.00735 0.36438 0.31431 0.0
H202 H 0.94533 0.31219 0.30078 0.0
C203 C 0.951 0.33857 0.14832 0.0
C204 C 0.93002 0.32782 0.14884 0.0
C205 C 0.96195 0.34237 0.18725 0.0
C206 C 0.95838 0.3269 0.30414 0.0
H207 H 0.04528 0.38218 0.43273 0.0
H208 H 0.02733 0.37095 0.36227 0.0
H209 H 0.96462 0.32086 0.36917 0.0
H210 H 0.90412 0.31233 0.19097 0.0
H211 H 0.92328 0.31931 0.25942 0.0
H212 H -0.01375 0.37067 0.2499 0.0
C213 C 0.01885 0.36728 0.39263 0.0
C214 C 0.96949 0.33184 0.3433 0.0
C215 C 0.02913 0.3736 0.43297 0.0
C216 C 0.92025 0.32063 0.18937 0.0
C217 C 0.93126 0.32456 0.22858 0.0
C218 C -0.01851 0.35949 0.2753 0.0
C219 C -0.00216 0.35642 0.39154 0.0
C220 C -0.01329 0.35067 0.34892 0.0
C221 C 0.95228 0.33568 0.22804 0.0
C222 C 0.96417 0.3407 0.26968 0.0
H223 H -0.01102 0.35459 0.50188 0.0
H224 H 0.97125 0.34363 0.43202 0.0
H225 H 0.00561 0.37913 0.31785 0.0
H226 H 0.95908 0.34415 0.11768 0.0
H227 H -0.02192 0.35055 0.18528 0.0
C228 C 0.58842 0.93023 0.35094 0.0
C229 C 0.58214 0.93772 0.31644 0.0
C230 C 0.59586 0.94114 0.39043 0.0
C231 C 0.59999 0.96164 0.47946 0.0
H232 H 0.62812 0.01936 0.47625 0.0
C233 C 0.60902 0.00819 0.63515 0.0
C234 C 0.62632 0.02691 0.64117 0.0
C235 C 0.6056 -0.00245 0.59566 0.0
C236 C 0.62056 0.00328 0.47791 0.0
H237 H 0.57836 0.96237 0.29692 0.0
H238 H 0.59055 0.98084 0.36551 0.0
H239 H 0.61938 0.00035 0.40757 0.0
H240 H 0.65366 0.04911 0.61011 0.0
H241 H 0.64794 0.03027 0.54113 0.0
H242 H 0.60169 0.96458 0.54979 0.0
C243 C 0.59046 0.96694 0.36193 0.0
C244 C 0.61524 -0.00769 0.43837 0.0
C245 C 0.58326 0.9562 0.32254 0.0
C246 C 0.64014 0.03477 0.60646 0.0
C247 C 0.63681 0.02397 0.56687 0.0
C248 C 0.60551 0.97261 0.519 0.0
C249 C 0.59702 0.95969 0.3964 0.0
C250 C 0.60445 0.97132 0.43855 0.0
C251 C 0.61948 0.00516 0.56101 0.0
C252 C 0.61544 -0.00641 0.51882 0.0
H253 H 0.58784 0.91609 0.34723 0.0
H254 H 0.60093 0.93512 0.41603 0.0
H255 H 0.59165 0.94554 0.48113 0.0
H256 H 0.5979 0.00173 0.66092 0.0
H257 H 0.59183 -0.01657 0.59217 0.0
C258 C 0.61843 0.60573 0.48614 0.0
C259 C 0.62884 0.59528 0.48407 0.0
C260 C 0.61463 0.6119 0.52659 0.0
C261 C 0.60934 0.60029 0.6449 0.0
H262 H 0.61215 0.6513 0.65758 0.0
C263 C 0.59709 0.62733 0.81289 0.0
C264 C 0.58569 0.63676 0.81437 0.0
C265 C 0.60337 0.62347 0.77274 0.0
C266 C 0.61107 0.63692 0.65445 0.0
H267 H 0.64373 0.58351 0.52328 0.0
H268 H 0.63708 0.59437 0.5943 0.0
H269 H 0.62202 0.64261 0.58806 0.0
H270 H 0.5724 0.64994 0.77441 0.0
H271 H 0.5832 0.64292 0.70374 0.0
H272 H 0.59816 0.59443 0.71092 0.0
C273 C 0.63174 0.5976 0.56434 0.0
C274 C 0.61679 0.63195 0.61464 0.0
C275 C 0.63566 0.59148 0.52365 0.0
C276 C 0.58115 0.64267 0.77447 0.0
C277 C 0.5874 0.63869 0.734 0.0
C278 C 0.60359 0.60523 0.68462 0.0
C279 C 0.62106 0.60779 0.56626 0.0
C280 C 0.61595 0.61354 0.60932 0.0
C281 C 0.59838 0.62879 0.73268 0.0
C282 C 0.60437 0.62361 0.68997 0.0
H283 H 0.61296 0.60899 0.45642 0.0
H284 H 0.60615 0.61946 0.52678 0.0
H285 H 0.60813 0.58584 0.64172 0.0
H286 H 0.60114 0.62278 0.84291 0.0
H287 H 0.61219 0.61628 0.77319 0.0
C288 C 0.02685 0.65103 0.6917 0.0
C289 C 0.01899 0.63687 0.65722 0.0
C290 C 0.01627 0.64781 0.73138 0.0
C291 C 0.96509 0.61646 0.77827 0.0
H292 H -0.00735 0.6315 0.89076 0.0
C293 C 0.92199 0.60058 0.94368 0.0
C294 C 0.9293 0.59457 0.97911 0.0
C295 C 0.93318 0.60785 0.90485 0.0
C296 C -0.01534 0.62705 0.85966 0.0
H297 H -0.00582 0.60789 0.63821 0.0
H298 H -0.02371 0.60207 0.707 0.0
H299 H 0.01184 0.63981 0.82272 0.0
H300 H 0.95402 0.59127 0.00106 0.0
H301 H -0.02698 0.60319 0.93351 0.0
H302 H 0.93792 0.60278 0.81506 0.0
C303 C -0.0098 0.616 0.70325 0.0
C304 C -0.00427 0.6321 0.82051 0.0
C305 C 0.00061 0.61928 0.66374 0.0
C306 C 0.94795 0.5959 0.97465 0.0
C307 C 0.959 0.60295 0.93587 0.0
C308 C 0.95403 0.61124 0.81737 0.0
C309 C -0.00231 0.63029 0.73748 0.0
C310 C -0.01392 0.62654 0.77925 0.0
C311 C 0.95186 0.60911 0.9004 0.0
C312 C 0.96364 0.61616 0.85868 0.0
H313 H 0.04094 0.66475 0.68768 0.0
H314 H 0.02248 0.6592 0.7569 0.0
H315 H 0.95709 0.6123 0.74717 0.0
H316 H 0.90774 0.59987 0.94611 0.0
H317 H 0.92726 0.61265 0.87851 0.0
C318 C 0.34725 0.00686 0.82263 0.0
C319 C 0.35815 0.02783 0.82189 0.0
C320 C 0.34088 -0.00333 0.86247 0.0
C321 C 0.35308 0.0024 0.98062 0.0
H322 H 0.30123 0.95459 -0.00805 0.0
C323 C 0.32653 0.96241 0.1467 0.0
C324 C 0.31614 0.94145 0.14685 0.0
C325 C 0.33046 0.97282 0.10726 0.0
C326 C 0.31585 0.96778 -0.01081 0.0
H327 H 0.37049 0.05449 0.86276 0.0
H328 H 0.35934 0.03662 0.93269 0.0
H329 H 0.30999 0.97345 0.92347 0.0
H330 H 0.30139 0.91502 0.10531 0.0
H331 H 0.30859 0.93329 0.03592 0.0
H332 H 0.35917 -0.00337 0.04582 0.0
C333 C 0.35587 0.02811 0.90217 0.0
C334 C 0.32084 0.97864 0.94998 0.0
C335 C 0.36215 0.03836 0.86212 0.0
C336 C 0.30941 0.93115 0.10639 0.0
C337 C 0.31348 0.94164 0.06665 0.0
C338 C 0.34814 -0.00849 0.01969 0.0
C339 C 0.34529 0.00713 0.90279 0.0
C340 C 0.33954 -0.00392 0.9452 0.0
C341 C 0.32427 0.96265 0.0666 0.0
C342 C 0.32945 0.97406 0.02458 0.0
H343 H 0.34381 -0.00179 0.79233 0.0
H344 H 0.33297 0.98054 0.8617 0.0
H345 H 0.36775 0.01553 0.97777 0.0
H346 H 0.33174 0.97089 0.17722 0.0
H347 H 0.33836 -0.01106 0.10875 0.0
C348 C 0.59127 0.49517 0.36662 0.0
C349 C 0.58722 0.50903 0.34685 0.0
C350 C 0.5769 0.47479 0.36609 0.0
C351 C 0.53041 0.43777 0.30838 0.0
H352 H 0.51607 0.40945 0.41928 0.0
C353 C 0.45109 0.37936 0.35345 0.0
C354 C 0.44728 0.36211 0.37593 0.0
C355 C 0.47058 0.39403 0.34365 0.0
C356 C 0.52018 0.41697 0.38781 0.0
H357 H 0.56496 0.51222 0.31055 0.0
H358 H 0.54019 0.47712 0.30991 0.0
H359 H 0.54656 0.44203 0.41466 0.0
H360 H 0.46075 0.34637 0.40482 0.0
H361 H 0.49522 0.37258 0.38869 0.0
H362 H 0.50343 0.41333 0.28231 0.0
C363 C 0.55446 0.48182 0.32537 0.0
C364 C 0.53763 0.43562 0.38517 0.0
C365 C 0.56866 0.50205 0.32616 0.0
C366 C 0.46332 0.35949 0.38718 0.0
C367 C 0.48298 0.37448 0.3782 0.0
C368 C 0.51298 0.41925 0.31111 0.0
C369 C 0.55835 0.46792 0.3453 0.0
C370 C 0.54245 0.44658 0.3459 0.0
C371 C 0.48675 0.39199 0.3568 0.0
C372 C 0.50729 0.40904 0.35129 0.0
H373 H 0.60544 0.50006 0.3828 0.0
H374 H 0.58031 0.46442 0.38175 0.0
H375 H 0.53398 0.44564 0.27737 0.0
H376 H 0.43899 0.38173 0.34435 0.0
H377 H 0.47303 0.40746 0.3276 0.0
C378 C 0.05654 0.46648 0.61978 0.0
C379 C 0.06585 0.45773 0.59634 0.0
C380 C 0.06225 0.48637 0.61335 0.0
C381 C 0.08231 0.5242 0.52878 0.0
H382 H 0.08115 0.55745 0.62373 0.0
C383 C 0.08058 0.6021 0.55892 0.0
C384 C 0.06513 0.59811 0.5291 0.0
C385 C 0.0864 0.58798 0.56572 0.0
C386 C 0.08193 0.54858 0.59685 0.0
H387 H 0.08894 0.46324 0.54875 0.0
H388 H 0.09878 0.49816 0.53699 0.0
H389 H 0.08153 0.52712 0.6411 0.0
H390 H 0.04442 0.57662 0.48143 0.0
H391 H 0.0545 0.55219 0.49326 0.0
H392 H 0.08197 0.5453 0.4845 0.0
C393 C 0.08706 0.4895 0.56042 0.0
C394 C 0.08196 0.53111 0.6068 0.0
C395 C 0.08147 0.46955 0.56724 0.0
C396 C 0.05627 0.58014 0.50488 0.0
C397 C 0.0622 0.56618 0.51132 0.0
C398 C 0.0822 0.54164 0.51882 0.0
C399 C 0.07733 0.49803 0.58309 0.0
C400 C 0.08141 0.51837 0.57285 0.0
C401 C 0.07706 0.56975 0.54236 0.0
C402 C 0.08127 0.55363 0.55274 0.0
H403 H 0.04454 0.45786 0.64267 0.0
H404 H 0.05425 0.49237 0.63085 0.0
H405 H 0.08183 0.51468 0.50188 0.0
H406 H 0.08772 0.61583 0.57801 0.0
H407 H 0.09796 0.59116 0.58973 0.0
C408 C 0.45452 0.06429 0.67616 0.0
C409 C 0.44618 0.07422 0.69867 0.0
C410 C 0.47451 0.07007 0.68206 0.0
C411 C 0.51944 0.08992 0.68635 0.0
H412 H 0.53602 0.09357 0.80832 0.0
C413 C 0.59166 0.09032 0.73378 0.0
C414 C 0.58819 0.07568 0.76502 0.0
C415 C 0.57736 0.0959 0.72651 0.0
C416 C 0.5317 0.09279 0.77406 0.0
H417 H 0.45254 0.09846 0.74414 0.0
H418 H 0.48763 0.10844 0.75493 0.0
H419 H 0.50493 0.0927 0.7913 0.0
H420 H 0.56754 0.05625 0.81474 0.0
H421 H 0.54283 0.06594 0.8022 0.0
H422 H 0.54562 0.08884 0.66928 0.0
C423 C 0.47856 0.09616 0.73266 0.0
C424 C 0.51398 0.09247 0.76429 0.0
C425 C 0.4585 0.09047 0.7264 0.0
C426 C 0.57063 0.06746 0.79019 0.0
C427 C 0.55652 0.07317 0.78332 0.0
C428 C 0.5372 0.09032 0.69611 0.0
C429 C 0.48671 0.08587 0.71084 0.0
C430 C 0.50728 0.09025 0.72044 0.0
C431 C 0.55951 0.08716 0.75086 0.0
C432 C 0.54312 0.09098 0.74018 0.0
H433 H 0.44551 0.05179 0.65435 0.0
H434 H 0.48022 0.06163 0.66529 0.0
H435 H 0.51479 0.08849 0.65218 0.0
H436 H 0.60507 0.09695 0.71392 0.0
H437 H 0.58009 0.10678 0.70138 0.0
C438 C 0.48603 0.59831 0.93052 0.0
C439 C 0.49991 0.5945 0.95133 0.0
C440 C 0.46559 0.58416 0.93155 0.0
C441 C 0.4285 0.53983 -0.00692 0.0
H442 H 0.39933 0.52248 0.88253 0.0
C443 C 0.3684 0.45984 0.95781 0.0
C444 C 0.35156 0.45552 0.93253 0.0
C445 C 0.38323 0.47949 0.96597 0.0
C446 C 0.40707 0.52745 0.91388 0.0
H447 H 0.50308 0.57289 -0.01014 0.0
H448 H 0.46778 0.54848 -0.00847 0.0
H449 H 0.4323 0.55259 0.88465 0.0
H450 H 0.33659 0.46831 0.89722 0.0
H451 H 0.36302 0.50303 0.91074 0.0
H452 H 0.40381 0.51415 0.02182 0.0
C453 C 0.47257 0.56241 0.97479 0.0
C454 C 0.42596 0.54467 0.91507 0.0
C455 C 0.49288 0.57637 0.97342 0.0
C456 C 0.3494 0.47128 0.91707 0.0
C457 C 0.36452 0.49108 0.92455 0.0
C458 C 0.4097 0.52266 -0.00812 0.0
C459 C 0.45866 0.56611 0.95394 0.0
C460 C 0.43721 0.55052 0.95431 0.0
C461 C 0.38174 0.49533 0.94847 0.0
C462 C 0.39915 0.51583 0.9519 0.0
H463 H 0.49095 0.61214 0.91324 0.0
H464 H 0.45519 0.58739 0.91514 0.0
H465 H 0.43664 0.54424 0.02403 0.0
H466 H 0.37042 0.44797 0.97018 0.0
H467 H 0.39641 0.48225 -0.01595 0.0
C468 C 0.86875 0.36495 0.07109 0.0
C469 C 0.87951 0.36604 0.03283 0.0
C470 C 0.86361 0.37949 0.07982 0.0
C471 C 0.8561 0.41807 0.03179 0.0
H472 H 0.88241 0.44948 0.13634 0.0
C473 C 0.87322 0.49897 0.05424 0.0
C474 C 0.87648 0.50721 0.09686 0.0
C475 C 0.86882 0.4793 0.04797 0.0
C476 C 0.8744 0.4407 0.10765 0.0
H477 H 0.89224 0.38234 0.97246 0.0
H478 H 0.88271 0.40734 -0.01288 0.0
H479 H 0.88223 0.41867 0.12243 0.0
H480 H 0.87624 0.50128 0.1665 0.0
H481 H 0.86706 0.46662 0.15615 0.0
H482 H 0.84803 0.43987 0.01696 0.0
C483 C 0.87849 0.39543 0.01053 0.0
C484 C 0.87444 0.42303 0.09964 0.0
C485 C 0.88405 0.38123 0.00234 0.0
C486 C 0.87394 0.4952 0.13327 0.0
C487 C 0.86892 0.4754 0.12717 0.0
C488 C 0.85563 0.43554 0.04029 0.0
C489 C 0.86867 0.39498 0.04981 0.0
C490 C 0.86573 0.41183 0.06116 0.0
C491 C 0.86711 0.46737 0.08437 0.0
C492 C 0.86524 0.44742 0.07779 0.0
H493 H 0.86512 0.35342 0.09517 0.0
H494 H 0.85608 0.37892 0.1104 0.0
H495 H 0.84924 0.40959 0.0019 0.0
H496 H 0.87531 0.50809 0.02569 0.0
H497 H 0.86782 0.47391 0.01446 0.0
C498 C 0.35826 0.88814 0.23191 0.0
C499 C 0.35621 0.8959 0.27227 0.0
C500 C 0.37334 0.8835 0.22631 0.0
C501 C 0.42168 0.89489 0.27781 0.0
H502 H 0.41946 0.85806 0.18769 0.0
C503 C 0.48718 0.8816 0.24269 0.0
C504 C 0.49531 0.88934 0.20113 0.0
C505 C 0.46809 0.87784 0.25376 0.0
C506 C 0.42012 0.8682 0.2133 0.0
H507 H 0.36714 0.90354 0.33938 0.0
H508 H 0.3924 0.89414 0.33095 0.0
H509 H 0.38951 0.85961 0.20469 0.0
H510 H 0.48951 0.89794 0.13756 0.0
H511 H 0.45585 0.89064 0.15641 0.0
H512 H 0.45225 0.90313 0.28666 0.0
C513 C 0.38329 0.89263 0.3026 0.0
C514 C 0.40307 0.86932 0.22276 0.0
C515 C 0.36866 0.89786 0.30769 0.0
C516 C 0.48358 0.89203 0.16988 0.0
C517 C 0.46434 0.88776 0.18051 0.0
C518 C 0.4385 0.89337 0.26913 0.0
C519 C 0.38632 0.886 0.26142 0.0
C520 C 0.40373 0.88305 0.25444 0.0
C521 C 0.45669 0.88121 0.22293 0.0
C522 C 0.43798 0.88035 0.2362 0.0
H523 H 0.34885 0.8866 0.20405 0.0
H524 H 0.37524 0.87874 0.19388 0.0
H525 H 0.42315 0.90601 0.30163 0.0
H526 H 0.49599 0.87953 0.26743 0.0
H527 H 0.46246 0.87289 0.28675 0.0
C528 C 0.28141 0.34143 0.77558 0.0
C529 C 0.29657 0.36053 0.78885 0.0
C530 C 0.28578 0.32977 0.74744 0.0
C531 C 0.32691 0.32278 0.71404 0.0
H532 H 0.30139 0.30596 0.59936 0.0
C533 C 0.36681 0.31557 0.56417 0.0
C534 C 0.35621 0.3011 0.53153 0.0
C535 C 0.35691 0.31765 0.60036 0.0
C536 C 0.30833 0.31006 0.63167 0.0
H537 H 0.32806 0.38246 0.78294 0.0
H538 H 0.33564 0.36205 0.73457 0.0
H539 H 0.28816 0.31941 0.65446 0.0
H540 H 0.32705 0.27686 0.51197 0.0
H541 H 0.30964 0.28053 0.57563 0.0
H542 H 0.34746 0.3141 0.69114 0.0
C543 C 0.32045 0.35609 0.74593 0.0
C544 C 0.30078 0.31779 0.66307 0.0
C545 C 0.31606 0.36781 0.77329 0.0
C546 C 0.33558 0.28822 0.53659 0.0
C547 C 0.32561 0.29035 0.57288 0.0
C548 C 0.33434 0.31492 0.68291 0.0
C549 C 0.30542 0.33694 0.73304 0.0
C550 C 0.31055 0.32497 0.70373 0.0
C551 C 0.33617 0.30528 0.6048 0.0
C552 C 0.32568 0.30931 0.64072 0.0
H553 H 0.26625 0.33549 0.78708 0.0
H554 H 0.27396 0.31506 0.73759 0.0
H555 H 0.33449 0.32798 0.74553 0.0
H556 H 0.38273 0.32568 0.56126 0.0
H557 H 0.36544 0.32953 0.62393 0.0
C558 C 0.91497 0.30145 0.89166 0.0
C559 C 0.91374 0.29378 0.93401 0.0
C560 C 0.92799 0.30108 0.86045 0.0
C561 C 0.95316 0.29396 0.79491 0.0
H562 H 0.00717 0.32053 0.84096 0.0
C563 C 0.02062 0.33131 0.67909 0.0
C564 C 0.03251 0.35164 0.68983 0.0
C565 C 0.00706 0.31804 0.70982 0.0
C566 C -0.00784 0.31279 0.82767 0.0
H567 H 0.92428 0.27868 0.97624 0.0
H568 H 0.94742 0.27837 0.92163 0.0
H569 H -0.02091 0.30711 0.89197 0.0
H570 H 0.0407 0.37379 0.74184 0.0
H571 H 0.01722 0.35073 0.79536 0.0
H572 H 0.96627 0.30097 0.73064 0.0
C573 C 0.93824 0.28461 0.91271 0.0
C574 C -0.02393 0.30497 0.85684 0.0
C575 C 0.92501 0.28478 0.94386 0.0
C576 C 0.0316 0.35822 0.7326 0.0
C577 C 0.01828 0.34496 0.76339 0.0
C578 C 0.96925 0.3017 0.76573 0.0
C579 C 0.94017 0.29317 0.87105 0.0
C580 C 0.95647 0.29638 0.8407 0.0
C581 C 0.00547 0.32486 0.75193 0.0
C582 C -0.0111 0.31207 0.78193 0.0
H583 H 0.90635 0.30835 0.88307 0.0
H584 H 0.92932 0.30803 0.82885 0.0
H585 H 0.93818 0.28719 0.78164 0.0
H586 H 0.02108 0.32584 0.64633 0.0
H587 H -0.00263 0.3026 0.70024 0.0
C588 C 0.62289 0.93599 0.11264 0.0
C589 C 0.60263 0.92401 0.10147 0.0
C590 C 0.63639 0.94948 0.08212 0.0
C591 C 0.64243 0.96402 0.96425 0.0
H592 H 0.66732 0.01803 0.01048 0.0
C593 C 0.65281 0.0404 0.9008 0.0
C594 C 0.66067 0.04167 0.85841 0.0
C595 C 0.65334 0.02761 0.93187 0.0
C596 C 0.66076 0.00304 -0.00284 0.0
H597 H 0.58084 0.91561 0.04897 0.0
H598 H 0.60429 0.93896 -0.00413 0.0
H599 H 0.65351 -0.00987 0.06137 0.0
H600 H 0.67625 0.03143 0.81593 0.0
H601 H 0.67682 0.00866 0.8703 0.0
H602 H 0.6483 0.97687 0.9 0.0
C603 C 0.60984 0.93802 0.02798 0.0
C604 C 0.653 -0.01293 0.02627 0.0
C605 C 0.59635 0.92478 0.05855 0.0
C606 C 0.67 0.03066 0.84835 0.0
C607 C 0.67032 0.01765 0.87937 0.0
C608 C 0.65026 0.98 0.93515 0.0
C609 C 0.62987 0.95091 0.03983 0.0
C610 C 0.64285 0.9674 0.01 0.0
C611 C 0.6616 0.0157 0.9211 0.0
C612 C 0.65856 -0.00041 0.95135 0.0
H613 H 0.62812 0.93564 0.14553 0.0
H614 H 0.65176 0.95924 0.09201 0.0
H615 H 0.63487 0.94899 0.9509 0.0
H616 H 0.64565 0.04882 0.90956 0.0
H617 H 0.64623 0.02624 0.96351 0.0
C618 C 0.62835 0.68276 0.01513 0.0
C619 C 0.60828 0.67386 0.02795 0.0
C620 C 0.64274 0.68415 0.04496 0.0
C621 C 0.66113 0.66503 0.10094 0.0
H622 H 0.65714 0.67085 0.22726 0.0
C623 C 0.65842 0.6102 0.22465 0.0
C624 C 0.66558 0.61615 0.26785 0.0
C625 C 0.6602 0.62417 0.19389 0.0
C626 C 0.65898 0.66965 0.19211 0.0
H627 H 0.58771 0.66096 0.08258 0.0
H628 H 0.61263 0.66344 0.13443 0.0
H629 H 0.64369 0.68524 0.17661 0.0
H630 H 0.68136 0.64151 0.31212 0.0
H631 H 0.68413 0.66604 0.25823 0.0
H632 H 0.67528 0.64835 0.1165 0.0
C633 C 0.61741 0.66937 0.10159 0.0
C634 C 0.65112 0.67776 0.16312 0.0
C635 C 0.60306 0.66773 0.07175 0.0
C636 C 0.67561 0.63651 0.27905 0.0
C637 C 0.6772 0.65053 0.24829 0.0
C638 C 0.66897 0.6569 0.12994 0.0
C639 C 0.63727 0.677 0.08818 0.0
C640 C 0.65105 0.67447 0.11739 0.0
C641 C 0.66905 0.6444 0.20573 0.0
C642 C 0.66687 0.65811 0.17579 0.0
H643 H 0.63276 0.68765 0.98151 0.0
H644 H 0.65795 0.69011 0.03382 0.0
H645 H 0.66132 0.66226 0.06587 0.0
H646 H 0.65078 0.59461 0.215 0.0
H647 H 0.65349 0.61889 0.16162 0.0
C648 C 0.01822 0.67951 0.45487 0.0
C649 C 0.02977 0.67102 0.44256 0.0
C650 C 0.00484 0.67997 0.42477 0.0
C651 C 0.9671 0.65989 0.36745 0.0
H652 H -0.02237 0.66658 0.24169 0.0
C653 C 0.91354 0.60741 0.23764 0.0
C654 C 0.91279 0.6143 0.19549 0.0
C655 C 0.92624 0.62057 0.2699 0.0
C656 C -0.02559 0.6651 0.27672 0.0
H657 H 0.03747 0.65765 0.38863 0.0
H658 H 0.01434 0.65854 0.33627 0.0
H659 H 0.00542 0.68032 0.2937 0.0
H660 H 0.9238 0.64054 0.15474 0.0
H661 H 0.94638 0.6636 0.21123 0.0
H662 H 0.93611 0.64362 0.35033 0.0
C663 C 0.01553 0.66485 0.36895 0.0
C664 C -0.00967 0.67283 0.30645 0.0
C665 C 0.02864 0.66414 0.39907 0.0
C666 C 0.92417 0.6348 0.18693 0.0
C667 C 0.93709 0.64799 0.21917 0.0
C668 C 0.95117 0.65209 0.33769 0.0
C669 C 0.00312 0.67228 0.38178 0.0
C670 C -0.01318 0.66939 0.35191 0.0
C671 C 0.93858 0.6409 0.26062 0.0
C672 C 0.95471 0.65373 0.29198 0.0
H673 H 0.01886 0.68496 0.48823 0.0
H674 H -0.00457 0.68577 0.43544 0.0
H675 H 0.96394 0.65698 0.40231 0.0
H676 H 0.9048 0.59171 0.24528 0.0
H677 H 0.92724 0.61458 0.30128 0.0
C678 C 0.28597 0.92872 0.40196 0.0
C679 C 0.28011 0.92801 0.35793 0.0
C680 C 0.28513 0.94195 0.43194 0.0
C681 C 0.27805 0.96837 0.49347 0.0
H682 H 0.31021 0.02213 0.44969 0.0
C683 C 0.31964 0.03424 0.61316 0.0
C684 C 0.3402 0.04427 0.60422 0.0
C685 C 0.30592 0.02189 0.58102 0.0
C686 C 0.30091 0.00723 0.4623 0.0
H687 H 0.26769 0.93972 0.31111 0.0
H688 H 0.26667 0.96338 0.36368 0.0
H689 H 0.2957 -0.00584 0.39771 0.0
H690 H 0.36245 0.0505 0.55391 0.0
H691 H 0.33867 0.02904 0.49812 0.0
H692 H 0.28467 0.98129 0.55825 0.0
C693 C 0.27177 0.95353 0.37489 0.0
C694 C 0.29245 -0.00878 0.43253 0.0
C695 C 0.27234 0.94002 0.34492 0.0
C696 C 0.3467 0.0428 0.56184 0.0
C697 C 0.33304 0.03067 0.52969 0.0
C698 C 0.28647 -0.01562 0.52323 0.0
C699 C 0.27862 0.95493 0.41842 0.0
C700 C 0.28192 0.97158 0.44805 0.0
C701 C 0.31256 0.01963 0.53931 0.0
C702 C 0.29893 0.00385 0.50801 0.0
H703 H 0.29189 0.91951 0.4129 0.0
H704 H 0.2908 0.94286 0.46504 0.0
H705 H 0.26975 0.95338 0.50622 0.0
H706 H 0.31421 0.03521 0.64553 0.0
H707 H 0.29022 0.01359 0.58923 0.0
C708 C 0.37897 0.23314 0.45924 0.0
C709 C 0.39634 0.25149 0.45121 0.0
C710 C 0.37966 0.219 0.48614 0.0
C711 C 0.41104 0.20116 0.53054 0.0
H712 H 0.37688 0.18618 0.63357 0.0
C713 C 0.41449 0.14967 0.66048 0.0
C714 C 0.3964 0.13529 0.67928 0.0
C715 C 0.41558 0.16542 0.6364 0.0
C716 C 0.38632 0.1899 0.60475 0.0
H717 H 0.42823 0.2689 0.46276 0.0
H718 H 0.42952 0.24374 0.50826 0.0
H719 H 0.37602 0.20882 0.57983 0.0
H720 H 0.36544 0.12654 0.68917 0.0
H721 H 0.367 0.1534 0.64593 0.0
H722 H 0.42076 0.18168 0.55378 0.0
C723 C 0.41536 0.24052 0.49434 0.0
C724 C 0.38585 0.20295 0.57404 0.0
C725 C 0.41461 0.25487 0.46824 0.0
C726 C 0.37966 0.13756 0.67553 0.0
C727 C 0.38061 0.15304 0.65059 0.0
C728 C 0.41122 0.18776 0.56071 0.0
C729 C 0.39779 0.22275 0.50465 0.0
C730 C 0.39818 0.20868 0.53666 0.0
C731 C 0.39845 0.16689 0.62951 0.0
C732 C 0.39886 0.18191 0.59836 0.0
H733 H 0.36464 0.23016 0.44694 0.0
H734 H 0.36594 0.20531 0.49335 0.0
H735 H 0.42064 0.20531 0.50186 0.0
H736 H 0.42766 0.14834 0.663 0.0
H737 H 0.42976 0.1761 0.62209 0.0
C738 C 0.22346 0.38733 0.83883 0.0
C739 C 0.24215 0.40443 0.84614 0.0
C740 C 0.20929 0.38806 0.81181 0.0
C741 C 0.20532 0.41968 0.72462 0.0
H742 H 0.14871 0.38291 0.73939 0.0
C743 C 0.14003 0.42348 0.63912 0.0
C744 C 0.12538 0.40567 0.61903 0.0
C745 C 0.15565 0.42401 0.66308 0.0
C746 C 0.1645 0.39315 0.73475 0.0
H747 H 0.26024 0.43598 0.83309 0.0
H748 H 0.23513 0.43763 0.78835 0.0
H749 H 0.17218 0.38324 0.79288 0.0
H750 H 0.11603 0.37466 0.60684 0.0
H751 H 0.14309 0.37549 0.64978 0.0
H752 H 0.1972 0.43015 0.66746 0.0
C753 C 0.23163 0.42338 0.80167 0.0
C754 C 0.17804 0.39333 0.7653 0.0
C755 C 0.24597 0.42253 0.82789 0.0
C756 C 0.12721 0.38865 0.62155 0.0
C757 C 0.14256 0.38906 0.64641 0.0
C758 C 0.1917 0.4198 0.69465 0.0
C759 C 0.21327 0.40603 0.79213 0.0
C760 C 0.1987 0.40647 0.76057 0.0
C761 C 0.15662 0.40662 0.66822 0.0
C762 C 0.17121 0.40641 0.69924 0.0
H763 H 0.22017 0.37309 0.85195 0.0
H764 H 0.19557 0.37427 0.80498 0.0
H765 H 0.22105 0.42975 0.719 0.0
H766 H 0.13893 0.4368 0.63788 0.0
H767 H 0.16631 0.43771 0.67968 0.0
C768 C 0.81958 0.23578 0.00403 0.0
C769 C 0.82138 0.25462 0.00812 0.0
C770 C 0.80394 0.22063 0.97942 0.0
C771 C 0.7541 0.20177 0.93543 0.0
H772 H 0.77165 0.18383 0.83409 0.0
C773 C 0.69703 0.14881 0.80692 0.0
C774 C 0.70002 0.13393 0.7883 0.0
C775 C 0.71221 0.16459 0.83106 0.0
C776 C 0.76636 0.18834 0.86252 0.0
H777 H 0.80756 0.27198 -0.00769 0.0
H778 H 0.7797 0.24514 0.95106 0.0
H779 H 0.79615 0.20746 0.88649 0.0
H780 H 0.72145 0.12425 0.77905 0.0
H781 H 0.74763 0.15117 0.82248 0.0
H782 H 0.72434 0.18218 0.91311 0.0
C783 C 0.79059 0.24227 0.96618 0.0
C784 C 0.78047 0.20196 0.89246 0.0
C785 C 0.80648 0.25757 -0.01015 0.0
C786 C 0.71881 0.13565 0.79251 0.0
C787 C 0.73386 0.15118 0.81756 0.0
C788 C 0.73994 0.1878 0.90609 0.0
C789 C 0.78958 0.22391 0.95948 0.0
C790 C 0.77446 0.20883 0.92907 0.0
C791 C 0.73061 0.16561 0.83824 0.0
C792 C 0.74584 0.18092 0.86898 0.0
H793 H 0.83096 0.23315 0.0173 0.0
H794 H 0.80338 0.20653 0.97487 0.0
H795 H 0.74913 0.20683 0.96353 0.0
H796 H 0.6827 0.14788 0.80405 0.0
H797 H 0.70926 0.1757 0.84503 0.0
C798 C 0.55718 0.82264 0.17712 0.0
C799 C 0.54492 0.83011 0.16395 0.0
C800 C 0.55638 0.80638 0.15472 0.0
C801 C 0.54338 0.78184 0.04547 0.0
H802 H 0.54479 0.73853 0.1039 0.0
C803 C 0.55728 0.72351 0.9548 0.0
C804 C 0.54576 0.7037 0.96888 0.0
C805 C 0.5562 0.73883 0.9771 0.0
C806 C 0.54429 0.75048 0.08709 0.0
H807 H 0.52142 0.82565 0.11852 0.0
H808 H 0.52 0.79741 0.07992 0.0
H809 H 0.54452 0.76485 0.14809 0.0
H810 H 0.52325 0.68433 0.0158 0.0
H811 H 0.52135 0.71091 0.0542 0.0
H812 H 0.54315 0.76747 -0.01553 0.0
C813 C 0.53046 0.80428 0.10698 0.0
C814 C 0.54431 0.76563 0.11243 0.0
C815 C 0.53118 0.82038 0.12942 0.0
C816 C 0.53244 0.69944 0.00419 0.0
C817 C 0.53145 0.71469 0.02652 0.0
C818 C 0.54355 0.76679 0.02013 0.0
C819 C 0.54338 0.79739 0.1186 0.0
C820 C 0.5437 0.7814 0.09191 0.0
C821 C 0.54368 0.73461 0.01401 0.0
C822 C 0.54384 0.75086 0.04065 0.0
H823 H 0.56798 0.82986 0.20344 0.0
H824 H 0.56653 0.8014 0.16444 0.0
H825 H 0.54317 0.79394 0.02866 0.0
H826 H 0.56776 0.7273 0.92787 0.0
H827 H 0.56582 0.75406 0.96669 0.0
C828 C 0.69614 0.54183 0.31676 0.0
C829 C 0.69952 0.55959 0.33696 0.0
C830 C 0.71128 0.54127 0.29285 0.0
C831 C 0.76585 0.57149 0.26474 0.0
H832 H 0.74868 0.53743 0.16044 0.0
C833 C 0.81954 0.57895 0.12383 0.0
C834 C 0.82094 0.56175 0.11835 0.0
C835 C 0.80391 0.57827 0.14836 0.0
C836 C 0.75363 0.547 0.18946 0.0
H837 H 0.7216 0.59053 0.3493 0.0
H838 H 0.74771 0.5899 0.30632 0.0
H839 H 0.72383 0.53687 0.21063 0.0
H840 H 0.80645 0.53015 0.13161 0.0
H841 H 0.77862 0.52882 0.17268 0.0
H842 H 0.7957 0.58216 0.24194 0.0
C843 C 0.73364 0.57613 0.30979 0.0
C844 C 0.73943 0.54655 0.21868 0.0
C845 C 0.71863 0.57654 0.3346 0.0
C846 C 0.80568 0.5436 0.13514 0.0
C847 C 0.7898 0.54284 0.15871 0.0
C848 C 0.78001 0.57225 0.23496 0.0
C849 C 0.73004 0.55861 0.2875 0.0
C850 C 0.7453 0.55873 0.25695 0.0
C851 C 0.78917 0.5603 0.16682 0.0
C852 C 0.77403 0.55998 0.19715 0.0
H853 H 0.68155 0.52851 0.31817 0.0
H854 H 0.70802 0.5273 0.27759 0.0
H855 H 0.77111 0.58081 0.29407 0.0
H856 H 0.8312 0.59318 0.11174 0.0
H857 H 0.80365 0.5919 0.15403 0.0
C858 C 0.13317 0.70332 0.46326 0.0
C859 C 0.12412 0.70748 0.49884 0.0
C860 C 0.1489 0.7187 0.4402 0.0
C861 C 0.18789 0.77161 0.44497 0.0
H862 H 0.18378 0.76762 0.31711 0.0
C863 C 0.25255 0.82537 0.33393 0.0
C864 C 0.24786 0.83419 0.29925 0.0
C865 C 0.23753 0.80926 0.3568 0.0
C866 C 0.18509 0.76898 0.35273 0.0
H867 H 0.12523 0.73111 0.53947 0.0
H868 H 0.15305 0.75811 0.49937 0.0
H869 H 0.15794 0.7413 0.36221 0.0
H870 H 0.22369 0.83226 0.25992 0.0
H871 H 0.19733 0.80377 0.29968 0.0
H872 H 0.215 0.79932 0.4355 0.0
C873 C 0.14782 0.74286 0.48932 0.0
C874 C 0.1704 0.75384 0.37859 0.0
C875 C 0.13192 0.7274 0.51235 0.0
C876 C 0.22781 0.82576 0.28634 0.0
C877 C 0.21272 0.80948 0.30918 0.0
C878 C 0.20268 0.78666 0.41911 0.0
C879 C 0.1561 0.73867 0.45222 0.0
C880 C 0.17167 0.75494 0.425 0.0
C881 C 0.21741 0.80144 0.34548 0.0
C882 C 0.20149 0.78548 0.37269 0.0
H883 H 0.12763 0.68814 0.45205 0.0
H884 H 0.15524 0.71496 0.41239 0.0
H885 H 0.18932 0.77287 0.48059 0.0
H886 H 0.26784 0.83139 0.34464 0.0
H887 H 0.24167 0.80313 0.38397 0.0
loop_
_geom_bond_atom_site_label_1
_geom_bond_atom_site_label_2
_geom_bond_distance
_geom_bond_site_symmetry_2
_ccdc_geom_bond_type
C0 O1 1.306 . S
C0 O3 1.160 . S
O1 C0 1.306 . S
O1 Cd2 2.228 . S
Cd2 O1 2.228 . S
Cd2 O6 2.273 . S
Cd2 O10 2.277 . S
O3 C0 1.160 . S
O3 Cd4 2.203 . S
Cd4 O3 2.203 . S
Cd4 O6 2.411 . S
Cd4 O7 2.333 . S
Cd4 O8 2.352 . S
Cd4 O12 2.277 . S
Cd4 O13 2.356 . S
C5 O10 1.209 . S
C5 O12 1.226 . S
O6 Cd2 2.273 . S
O6 Cd4 2.411 . S
O6 C9 1.320 . S
O7 Cd4 2.333 . S
O7 C9 1.214 . S
O8 Cd4 2.352 . S
O8 C11 1.258 . S
C9 O6 1.320 . S
C9 O7 1.214 . S
O10 Cd2 2.277 . S
O10 C5 1.209 . S
C11 O8 1.258 . S
C11 O13 1.282 . S
O12 Cd4 2.277 . S
O12 C5 1.226 . S
O13 Cd4 2.356 . S
O13 C11 1.282 . S
C14 O15 1.306 . S
C14 O17 1.160 . S
O15 C14 1.306 . S
O15 Cd16 2.228 . S
Cd16 O15 2.228 . S
Cd16 O20 2.273 . S
Cd16 O24 2.277 . S
O17 C14 1.160 . S
O17 Cd18 2.203 . S
Cd18 O17 2.203 . S
Cd18 O20 2.411 . S
Cd18 O21 2.333 . S
Cd18 O22 2.352 . S
Cd18 O26 2.277 . S
Cd18 O27 2.356 . S
C19 O24 1.209 . S
C19 O26 1.226 . S
O20 Cd16 2.273 . S
O20 Cd18 2.411 . S
O20 C23 1.320 . S
O21 Cd18 2.333 . S
O21 C23 1.214 . S
O22 Cd18 2.352 . S
O22 C25 1.258 . S
C23 O20 1.320 . S
C23 O21 1.214 . S
O24 Cd16 2.277 . S
O24 C19 1.209 . S
C25 O22 1.258 . S
C25 O27 1.282 . S
O26 Cd18 2.277 . S
O26 C19 1.226 . S
O27 Cd18 2.356 . S
O27 C25 1.282 . S
C28 O29 1.306 . S
C28 O31 1.160 . S
O29 C28 1.306 . S
O29 Cd30 2.228 . S
Cd30 O29 2.228 . S
Cd30 O34 2.273 . S
Cd30 O38 2.277 . S
O31 C28 1.160 . S
O31 Cd32 2.203 . S
Cd32 O31 2.203 . S
Cd32 O34 2.411 . S
Cd32 O35 2.333 . S
Cd32 O36 2.352 . S
Cd32 O40 2.277 . S
Cd32 O41 2.356 . S
C33 O38 1.209 . S
C33 O40 1.226 . S
O34 Cd30 2.273 . S
O34 Cd32 2.411 . S
O34 C37 1.320 . S
O35 Cd32 2.333 . S
O35 C37 1.214 . S
O36 Cd32 2.352 . S
O36 C39 1.258 . S
C37 O34 1.320 . S
C37 O35 1.214 . S
O38 Cd30 2.277 . S
O38 C33 1.209 . S
C39 O36 1.258 . S
C39 O41 1.282 . S
O40 Cd32 2.277 . S
O40 C33 1.226 . S
O41 Cd32 2.356 . S
O41 C39 1.282 . S
C42 O43 1.306 . S
C42 O45 1.160 . S
O43 C42 1.306 . S
O43 Cd44 2.228 . S
Cd44 O43 2.228 . S
Cd44 O48 2.273 . S
Cd44 O52 2.277 . S
O45 C42 1.160 . S
O45 Cd46 2.203 . S
Cd46 O45 2.203 . S
Cd46 O48 2.411 . S
Cd46 O49 2.333 . S
Cd46 O50 2.352 . S
Cd46 O54 2.277 . S
Cd46 O55 2.356 . S
C47 O52 1.209 . S
C47 O54 1.226 . S
O48 Cd44 2.273 . S
O48 Cd46 2.411 . S
O48 C51 1.320 . S
O49 Cd46 2.333 . S
O49 C51 1.214 . S
O50 Cd46 2.352 . S
O50 C53 1.258 . S
C51 O48 1.320 . S
C51 O49 1.214 . S
O52 Cd44 2.277 . S
O52 C47 1.209 . S
C53 O50 1.258 . S
C53 O55 1.282 . S
O54 Cd46 2.277 . S
O54 C47 1.226 . S
O55 Cd46 2.356 . S
O55 C53 1.282 . S
C56 O57 1.306 . S
C56 O59 1.160 . S
O57 C56 1.306 . S
O57 Cd58 2.228 . S
Cd58 O57 2.228 . S
Cd58 O62 2.273 . S
Cd58 O66 2.277 . S
O59 C56 1.160 . S
O59 Cd60 2.203 . S
Cd60 O59 2.203 . S
Cd60 O62 2.411 . S
Cd60 O63 2.333 . S
Cd60 O64 2.352 . S
Cd60 O68 2.277 . S
Cd60 O69 2.356 . S
C61 O66 1.209 . S
C61 O68 1.226 . S
O62 Cd58 2.273 . S
O62 Cd60 2.411 . S
O62 C65 1.320 . S
O63 Cd60 2.333 . S
O63 C65 1.214 . S
O64 Cd60 2.352 . S
O64 C67 1.258 . S
C65 O62 1.320 . S
C65 O63 1.214 . S
O66 Cd58 2.277 . S
O66 C61 1.209 . S
C67 O64 1.258 . S
C67 O69 1.282 . S
O68 Cd60 2.277 . S
O68 C61 1.226 . S
O69 Cd60 2.356 . S
O69 C67 1.282 . S
C70 O71 1.306 . S
C70 O73 1.160 . S
O71 C70 1.306 . S
O71 Cd72 2.228 . S
Cd72 O71 2.228 . S
Cd72 O76 2.273 . S
Cd72 O80 2.277 . S
O73 C70 1.160 . S
O73 Cd74 2.203 . S
Cd74 O73 2.203 . S
Cd74 O76 2.411 . S
Cd74 O77 2.333 . S
Cd74 O78 2.352 . S
Cd74 O82 2.277 . S
Cd74 O83 2.356 . S
C75 O80 1.209 . S
C75 O82 1.226 . S
O76 Cd72 2.273 . S
O76 Cd74 2.411 . S
O76 C79 1.320 . S
O77 Cd74 2.333 . S
O77 C79 1.214 . S
O78 Cd74 2.352 . S
O78 C81 1.258 . S
C79 O76 1.320 . S
C79 O77 1.214 . S
O80 Cd72 2.277 . S
O80 C75 1.209 . S
C81 O78 1.258 . S
C81 O83 1.282 . S
O82 Cd74 2.277 . S
O82 C75 1.226 . S
O83 Cd74 2.356 . S
O83 C81 1.282 . S
C84 O85 1.306 . S
C84 O87 1.160 . S
O85 C84 1.306 . S
O85 Cd86 2.228 . S
Cd86 O85 2.228 . S
Cd86 O90 2.273 . S
Cd86 O94 2.277 . S
O87 C84 1.160 . S
O87 Cd88 2.203 . S
Cd88 O87 2.203 . S
Cd88 O90 2.411 . S
Cd88 O91 2.333 . S
Cd88 O92 2.352 . S
Cd88 O96 2.277 . S
Cd88 O97 2.356 . S
C89 O94 1.209 . S
C89 O96 1.226 . S
O90 Cd86 2.273 . S
O90 Cd88 2.411 . S
O90 C93 1.320 . S
O91 Cd88 2.333 . S
O91 C93 1.214 . S
O92 Cd88 2.352 . S
O92 C95 1.258 . S
C93 O90 1.320 . S
C93 O91 1.214 . S
O94 Cd86 2.277 . S
O94 C89 1.209 . S
C95 O92 1.258 . S
C95 O97 1.282 . S
O96 Cd88 2.277 . S
O96 C89 1.226 . S
O97 Cd88 2.356 . S
O97 C95 1.282 . S
C98 O99 1.306 . S
C98 O101 1.160 . S
O99 C98 1.306 . S
O99 Cd100 2.228 . S
Cd100 O99 2.228 . S
Cd100 O104 2.273 . S
Cd100 O108 2.277 . S
O101 C98 1.160 . S
O101 Cd102 2.203 . S
Cd102 O101 2.203 . S
Cd102 O104 2.411 . S
Cd102 O105 2.333 . S
Cd102 O106 2.352 . S
Cd102 O110 2.277 . S
Cd102 O111 2.356 . S
C103 O108 1.209 . S
C103 O110 1.226 . S
O104 Cd100 2.273 . S
O104 Cd102 2.411 . S
O104 C107 1.320 . S
O105 Cd102 2.333 . S
O105 C107 1.214 . S
O106 Cd102 2.352 . S
O106 C109 1.258 . S
C107 O104 1.320 . S
C107 O105 1.214 . S
O108 Cd100 2.277 . S
O108 C103 1.209 . S
C109 O106 1.258 . S
C109 O111 1.282 . S
O110 Cd102 2.277 . S
O110 C103 1.226 . S
O111 Cd102 2.356 . S
O111 C109 1.282 . S
C112 O113 1.306 . S
C112 O115 1.160 . S
O113 C112 1.306 . S
O113 Cd114 2.228 . S
Cd114 O113 2.228 . S
Cd114 O118 2.273 . S
Cd114 O122 2.277 . S
O115 C112 1.160 . S
O115 Cd116 2.203 . S
Cd116 O115 2.203 . S
Cd116 O118 2.411 . S
Cd116 O119 2.333 . S
Cd116 O120 2.352 . S
Cd116 O124 2.277 . S
Cd116 O125 2.356 . S
C117 O122 1.209 . S
C117 O124 1.226 . S
O118 Cd114 2.273 . S
O118 Cd116 2.411 . S
O118 C121 1.320 . S
O119 Cd116 2.333 . S
O119 C121 1.214 . S
O120 Cd116 2.352 . S
O120 C123 1.258 . S
C121 O118 1.320 . S
C121 O119 1.214 . S
O122 Cd114 2.277 . S
O122 C117 1.209 . S
C123 O120 1.258 . S
C123 O125 1.282 . S
O124 Cd116 2.277 . S
O124 C117 1.226 . S
O125 Cd116 2.356 . S
O125 C123 1.282 . S
C126 O127 1.306 . S
C126 O129 1.160 . S
O127 C126 1.306 . S
O127 Cd128 2.228 . S
Cd128 O127 2.228 . S
Cd128 O132 2.273 . S
Cd128 O136 2.277 . S
O129 C126 1.160 . S
O129 Cd130 2.203 . S
Cd130 O129 2.203 . S
Cd130 O132 2.411 . S
Cd130 O133 2.333 . S
Cd130 O134 2.352 . S
Cd130 O138 2.277 . S
Cd130 O139 2.356 . S
C131 O136 1.209 . S
C131 O138 1.226 . S
O132 Cd128 2.273 . S
O132 Cd130 2.411 . S
O132 C135 1.320 . S
O133 Cd130 2.333 . S
O133 C135 1.214 . S
O134 Cd130 2.352 . S
O134 C137 1.258 . S
C135 O132 1.320 . S
C135 O133 1.214 . S
O136 Cd128 2.277 . S
O136 C131 1.209 . S
C137 O134 1.258 . S
C137 O139 1.282 . S
O138 Cd130 2.277 . S
O138 C131 1.226 . S
O139 Cd130 2.356 . S
O139 C137 1.282 . S
C140 O141 1.306 . S
C140 O143 1.160 . S
O141 C140 1.306 . S
O141 Cd142 2.228 . S
Cd142 O141 2.228 . S
Cd142 O146 2.273 . S
Cd142 O150 2.277 . S
O143 C140 1.160 . S
O143 Cd144 2.203 . S
Cd144 O143 2.203 . S
Cd144 O146 2.411 . S
Cd144 O147 2.333 . S
Cd144 O148 2.352 . S
Cd144 O152 2.277 . S
Cd144 O153 2.356 . S
C145 O150 1.209 . S
C145 O152 1.226 . S
O146 Cd142 2.273 . S
O146 Cd144 2.411 . S
O146 C149 1.320 . S
O147 Cd144 2.333 . S
O147 C149 1.214 . S
O148 Cd144 2.352 . S
O148 C151 1.258 . S
C149 O146 1.320 . S
C149 O147 1.214 . S
O150 Cd142 2.277 . S
O150 C145 1.209 . S
C151 O148 1.258 . S
C151 O153 1.282 . S
O152 Cd144 2.277 . S
O152 C145 1.226 . S
O153 Cd144 2.356 . S
O153 C151 1.282 . S
C154 O155 1.306 . S
C154 O157 1.160 . S
O155 C154 1.306 . S
O155 Cd156 2.228 . S
Cd156 O155 2.228 . S
Cd156 O160 2.273 . S
Cd156 O164 2.277 . S
O157 C154 1.160 . S
O157 Cd158 2.203 . S
Cd158 O157 2.203 . S
Cd158 O160 2.411 . S
Cd158 O161 2.333 . S
Cd158 O162 2.352 . S
Cd158 O166 2.277 . S
Cd158 O167 2.356 . S
C159 O164 1.209 . S
C159 O166 1.226 . S
O160 Cd156 2.273 . S
O160 Cd158 2.411 . S
O160 C163 1.320 . S
O161 Cd158 2.333 . S
O161 C163 1.214 . S
O162 Cd158 2.352 . S
O162 C165 1.258 . S
C163 O160 1.320 . S
C163 O161 1.214 . S
O164 Cd156 2.277 . S
O164 C159 1.209 . S
C165 O162 1.258 . S
C165 O167 1.282 . S
O166 Cd158 2.277 . S
O166 C159 1.226 . S
O167 Cd158 2.356 . S
O167 C165 1.282 . S
C168 C169 1.349 . S
C168 C170 1.327 . S
C168 H193 0.950 1_554 S
C169 C168 1.349 . S
C169 C185 1.349 . S
C170 C168 1.327 . S
C170 C189 1.429 . S
C170 H194 0.950 . S
C171 C188 1.574 . S
C171 C190 1.368 . S
C171 H195 0.949 . S
H172 C176 0.949 . S
C173 C174 1.349 . S
C173 C175 1.327 . S
C173 H196 0.950 . S
C174 C173 1.349 . S
C174 C186 1.349 . S
C175 C173 1.327 . S
C175 C191 1.429 . S
C175 H197 0.950 . S
C176 H172 0.949 . S
C176 C184 1.574 . S
C176 C192 1.368 . S
H177 C185 0.950 . S
H178 C183 0.950 . S
H179 C184 0.949 . S
H180 C186 0.950 . S
H181 C187 0.950 . S
H182 C188 0.949 . S
C183 H178 0.950 . S
C183 C185 1.327 . S
C183 C189 1.429 . S
C184 C176 1.574 . S
C184 H179 0.949 . S
C184 C190 1.368 . S
C185 C169 1.349 . S
C185 H177 0.950 . S
C185 C183 1.327 . S
C186 C174 1.349 . S
C186 H180 0.950 . S
C186 C187 1.327 . S
C187 H181 0.950 . S
C187 C186 1.327 . S
C187 C191 1.429 . S
C188 C171 1.574 . S
C188 H182 0.949 . S
C188 C192 1.368 . S
C189 C170 1.429 . S
C189 C183 1.429 . S
C189 C190 1.523 . S
C190 C171 1.368 . S
C190 C184 1.368 . S
C190 C189 1.523 . S
C191 C175 1.429 . S
C191 C187 1.429 . S
C191 C192 1.523 . S
C192 C176 1.368 . S
C192 C188 1.368 . S
C192 C191 1.523 . S
H193 C168 0.950 1_556 S
H194 C170 0.950 . S
H195 C171 0.949 . S
H196 C173 0.950 . S
H197 C175 0.950 . S
C198 C199 1.349 . S
C198 C200 1.327 . S
C198 H223 0.950 . S
C199 C198 1.349 . S
C199 C215 1.349 . S
C200 C198 1.327 . S
C200 C219 1.429 . S
C200 H224 0.950 . S
C201 C218 1.574 . S
C201 C220 1.368 . S
C201 H225 0.949 . S
H202 C206 0.949 . S
C203 C204 1.349 . S
C203 C205 1.327 . S
C203 H226 0.950 . S
C204 C203 1.349 . S
C204 C216 1.349 . S
C205 C203 1.327 . S
C205 C221 1.429 . S
C205 H227 0.950 . S
C206 H202 0.949 . S
C206 C214 1.574 . S
C206 C222 1.368 . S
H207 C215 0.950 . S
H208 C213 0.950 . S
H209 C214 0.949 . S
H210 C216 0.950 . S
H211 C217 0.950 . S
H212 C218 0.949 . S
C213 H208 0.950 . S
C213 C215 1.327 . S
C213 C219 1.429 . S
C214 C206 1.574 . S
C214 H209 0.949 . S
C214 C220 1.368 1_655 S
C215 C199 1.349 . S
C215 H207 0.950 . S
C215 C213 1.327 . S
C216 C204 1.349 . S
C216 H210 0.950 . S
C216 C217 1.327 . S
C217 H211 0.950 . S
C217 C216 1.327 . S
C217 C221 1.429 . S
C218 C201 1.574 . S
C218 H212 0.949 . S
C218 C222 1.368 1_455 S
C219 C200 1.429 . S
C219 C213 1.429 . S
C219 C220 1.523 . S
C220 C201 1.368 . S
C220 C214 1.368 1_455 S
C220 C219 1.523 . S
C221 C205 1.429 . S
C221 C217 1.429 . S
C221 C222 1.523 . S
C222 C206 1.368 . S
C222 C218 1.368 1_655 S
C222 C221 1.523 . S
H223 C198 0.950 . S
H224 C200 0.950 . S
H225 C201 0.949 . S
H226 C203 0.950 . S
H227 C205 0.950 . S
C228 C229 1.349 . S
C228 C230 1.327 . S
C228 H253 0.950 . S
C229 C228 1.349 . S
C229 C245 1.349 . S
C230 C228 1.327 . S
C230 C249 1.429 . S
C230 H254 0.950 . S
C231 C248 1.574 1_565 S
C231 C250 1.368 . S
C231 H255 0.949 . S
H232 C236 0.949 . S
C233 C234 1.349 . S
C233 C235 1.327 . S
C233 H256 0.950 . S
C234 C233 1.349 . S
C234 C246 1.349 . S
C235 C233 1.327 . S
C235 C251 1.429 . S
C235 H257 0.950 . S
C236 H232 0.949 . S
C236 C244 1.574 1_545 S
C236 C252 1.368 . S
H237 C245 0.950 . S
H238 C243 0.950 . S
H239 C244 0.949 . S
H240 C246 0.950 . S
H241 C247 0.950 . S
H242 C248 0.949 . S
C243 H238 0.950 . S
C243 C245 1.327 . S
C243 C249 1.429 . S
C244 C236 1.574 1_565 S
C244 H239 0.949 . S
C244 C250 1.368 . S
C245 C229 1.349 . S
C245 H237 0.950 . S
C245 C243 1.327 . S
C246 C234 1.349 . S
C246 H240 0.950 . S
C246 C247 1.327 . S
C247 H241 0.950 . S
C247 C246 1.327 . S
C247 C251 1.429 . S
C248 C231 1.574 1_545 S
C248 H242 0.949 . S
C248 C252 1.368 . S
C249 C230 1.429 . S
C249 C243 1.429 . S
C249 C250 1.523 . S
C250 C231 1.368 . S
C250 C244 1.368 . S
C250 C249 1.523 . S
C251 C235 1.429 . S
C251 C247 1.429 . S
C251 C252 1.523 . S
C252 C236 1.368 . S
C252 C248 1.368 . S
C252 C251 1.523 . S
H253 C228 0.950 . S
H254 C230 0.950 . S
H255 C231 0.949 . S
H256 C233 0.950 . S
H257 C235 0.950 . S
C258 C259 1.349 . S
C258 C260 1.327 . S
C258 H283 0.950 . S
C259 C258 1.349 . S
C259 C275 1.349 . S
C260 C258 1.327 . S
C260 C279 1.429 . S
C260 H284 0.950 . S
C261 C278 1.574 . S
C261 C280 1.368 . S
C261 H285 0.949 . S
H262 C266 0.949 . S
C263 C264 1.349 . S
C263 C265 1.327 . S
C263 H286 0.950 . S
C264 C263 1.349 . S
C264 C276 1.349 . S
C265 C263 1.327 . S
C265 C281 1.429 . S
C265 H287 0.950 . S
C266 H262 0.949 . S
C266 C274 1.574 . S
C266 C282 1.368 . S
H267 C275 0.950 . S
H268 C273 0.950 . S
H269 C274 0.949 . S
H270 C276 0.950 . S
H271 C277 0.950 . S
H272 C278 0.949 . S
C273 H268 0.950 . S
C273 C275 1.327 . S
C273 C279 1.429 . S
C274 C266 1.574 . S
C274 H269 0.949 . S
C274 C280 1.368 . S
C275 C259 1.349 . S
C275 H267 0.950 . S
C275 C273 1.327 . S
C276 C264 1.349 . S
C276 H270 0.950 . S
C276 C277 1.327 . S
C277 H271 0.950 . S
C277 C276 1.327 . S
C277 C281 1.429 . S
C278 C261 1.574 . S
C278 H272 0.949 . S
C278 C282 1.368 . S
C279 C260 1.429 . S
C279 C273 1.429 . S
C279 C280 1.523 . S
C280 C261 1.368 . S
C280 C274 1.368 . S
C280 C279 1.523 . S
C281 C265 1.429 . S
C281 C277 1.429 . S
C281 C282 1.523 . S
C282 C266 1.368 . S
C282 C278 1.368 . S
C282 C281 1.523 . S
H283 C258 0.950 . S
H284 C260 0.950 . S
H285 C261 0.949 . S
H286 C263 0.950 . S
H287 C265 0.950 . S
C288 C289 1.349 . S
C288 C290 1.327 . S
C288 H313 0.950 . S
C289 C288 1.349 . S
C289 C305 1.349 . S
C290 C288 1.327 . S
C290 C309 1.429 . S
C290 H314 0.950 . S
C291 C308 1.574 . S
C291 C310 1.368 1_655 S
C291 H315 0.949 . S
H292 C296 0.949 . S
C293 C294 1.349 . S
C293 C295 1.327 . S
C293 H316 0.950 . S
C294 C293 1.349 . S
C294 C306 1.349 . S
C295 C293 1.327 . S
C295 C311 1.429 . S
C295 H317 0.950 . S
C296 H292 0.949 . S
C296 C304 1.574 . S
C296 C312 1.368 1_455 S
H297 C305 0.950 . S
H298 C303 0.950 . S
H299 C304 0.949 . S
H300 C306 0.950 1_554 S
H301 C307 0.950 . S
H302 C308 0.949 . S
C303 H298 0.950 . S
C303 C305 1.327 . S
C303 C309 1.429 . S
C304 C296 1.574 . S
C304 H299 0.949 . S
C304 C310 1.368 . S
C305 C289 1.349 . S
C305 H297 0.950 . S
C305 C303 1.327 . S
C306 C294 1.349 . S
C306 H300 0.950 1_556 S
C306 C307 1.327 . S
C307 H301 0.950 . S
C307 C306 1.327 . S
C307 C311 1.429 . S
C308 C291 1.574 . S
C308 H302 0.949 . S
C308 C312 1.368 . S
C309 C290 1.429 . S
C309 C303 1.429 . S
C309 C310 1.523 . S
C310 C291 1.368 1_455 S
C310 C304 1.368 . S
C310 C309 1.523 . S
C311 C295 1.429 . S
C311 C307 1.429 . S
C311 C312 1.523 . S
C312 C296 1.368 1_655 S
C312 C308 1.368 . S
C312 C311 1.523 . S
H313 C288 0.950 . S
H314 C290 0.950 . S
H315 C291 0.949 . S
H316 C293 0.950 . S
H317 C295 0.950 . S
C318 C319 1.349 . S
C318 C320 1.327 . S
C318 H343 0.950 . S
C319 C318 1.349 . S
C319 C335 1.349 . S
C320 C318 1.327 . S
C320 C339 1.429 . S
C320 H344 0.950 . S
C321 C338 1.574 1_546 S
C321 C340 1.368 . S
C321 H345 0.949 . S
H322 C326 0.949 . S
C323 C324 1.349 . S
C323 C325 1.327 . S
C323 H346 0.950 . S
C324 C323 1.349 . S
C324 C336 1.349 . S
C325 C323 1.327 . S
C325 C341 1.429 . S
C325 H347 0.950 . S
C326 H322 0.949 . S
C326 C334 1.574 1_564 S
C326 C342 1.368 . S
H327 C335 0.950 . S
H328 C333 0.950 . S
H329 C334 0.949 . S
H330 C336 0.950 . S
H331 C337 0.950 . S
H332 C338 0.949 . S
C333 H328 0.950 . S
C333 C335 1.327 . S
C333 C339 1.429 . S
C334 C326 1.574 1_546 S
C334 H329 0.949 . S
C334 C340 1.368 . S
C335 C319 1.349 . S
C335 H327 0.950 . S
C335 C333 1.327 . S
C336 C324 1.349 . S
C336 H330 0.950 . S
C336 C337 1.327 . S
C337 H331 0.950 . S
C337 C336 1.327 . S
C337 C341 1.429 . S
C338 C321 1.574 1_564 S
C338 H332 0.949 . S
C338 C342 1.368 . S
C339 C320 1.429 . S
C339 C333 1.429 . S
C339 C340 1.523 . S
C340 C321 1.368 . S
C340 C334 1.368 . S
C340 C339 1.523 . S
C341 C325 1.429 . S
C341 C337 1.429 . S
C341 C342 1.523 . S
C342 C326 1.368 . S
C342 C338 1.368 . S
C342 C341 1.523 . S
H343 C318 0.950 . S
H344 C320 0.950 . S
H345 C321 0.949 . S
H346 C323 0.950 . S
H347 C325 0.950 . S
C348 C349 1.349 . S
C348 C350 1.327 . S
C348 H373 0.950 . S
C349 C348 1.349 . S
C349 C365 1.349 . S
C350 C348 1.327 . S
C350 C369 1.429 . S
C350 H374 0.950 . S
C351 C368 1.574 . S
C351 C370 1.368 . S
C351 H375 0.949 . S
H352 C356 0.949 . S
C353 C354 1.349 . S
C353 C355 1.327 . S
C353 H376 0.950 . S
C354 C353 1.349 . S
C354 C366 1.349 . S
C355 C353 1.327 . S
C355 C371 1.429 . S
C355 H377 0.950 . S
C356 H352 0.949 . S
C356 C364 1.574 . S
C356 C372 1.368 . S
H357 C365 0.950 . S
H358 C363 0.950 . S
H359 C364 0.949 . S
H360 C366 0.950 . S
H361 C367 0.950 . S
H362 C368 0.949 . S
C363 H358 0.950 . S
C363 C365 1.327 . S
C363 C369 1.429 . S
C364 C356 1.574 . S
C364 H359 0.949 . S
C364 C370 1.368 . S
C365 C349 1.349 . S
C365 H357 0.950 . S
C365 C363 1.327 . S
C366 C354 1.349 . S
C366 H360 0.950 . S
C366 C367 1.327 . S
C367 H361 0.950 . S
C367 C366 1.327 . S
C367 C371 1.429 . S
C368 C351 1.574 . S
C368 H362 0.949 . S
C368 C372 1.368 . S
C369 C350 1.429 . S
C369 C363 1.429 . S
C369 C370 1.523 . S
C370 C351 1.368 . S
C370 C364 1.368 . S
C370 C369 1.523 . S
C371 C355 1.429 . S
C371 C367 1.429 . S
C371 C372 1.523 . S
C372 C356 1.368 . S
C372 C368 1.368 . S
C372 C371 1.523 . S
H373 C348 0.950 . S
H374 C350 0.950 . S
H375 C351 0.949 . S
H376 C353 0.950 . S
H377 C355 0.950 . S
C378 C379 1.349 . S
C378 C380 1.327 . S
C378 H403 0.950 . S
C379 C378 1.349 . S
C379 C395 1.349 . S
C380 C378 1.327 . S
C380 C399 1.429 . S
C380 H404 0.950 . S
C381 C398 1.574 . S
C381 C400 1.368 . S
C381 H405 0.949 . S
H382 C386 0.949 . S
C383 C384 1.349 . S
C383 C385 1.327 . S
C383 H406 0.950 . S
C384 C383 1.349 . S
C384 C396 1.349 . S
C385 C383 1.327 . S
C385 C401 1.429 . S
C385 H407 0.950 . S
C386 H382 0.949 . S
C386 C394 1.574 . S
C386 C402 1.368 . S
H387 C395 0.950 . S
H388 C393 0.950 . S
H389 C394 0.949 . S
H390 C396 0.950 . S
H391 C397 0.950 . S
H392 C398 0.949 . S
C393 H388 0.950 . S
C393 C395 1.327 . S
C393 C399 1.429 . S
C394 C386 1.574 . S
C394 H389 0.949 . S
C394 C400 1.368 . S
C395 C379 1.349 . S
C395 H387 0.950 . S
C395 C393 1.327 . S
C396 C384 1.349 . S
C396 H390 0.950 . S
C396 C397 1.327 . S
C397 H391 0.950 . S
C397 C396 1.327 . S
C397 C401 1.429 . S
C398 C381 1.574 . S
C398 H392 0.949 . S
C398 C402 1.368 . S
C399 C380 1.429 . S
C399 C393 1.429 . S
C399 C400 1.523 . S
C400 C381 1.368 . S
C400 C394 1.368 . S
C400 C399 1.523 . S
C401 C385 1.429 . S
C401 C397 1.429 . S
C401 C402 1.523 . S
C402 C386 1.368 . S
C402 C398 1.368 . S
C402 C401 1.523 . S
H403 C378 0.950 . S
H404 C380 0.950 . S
H405 C381 0.949 . S
H406 C383 0.950 . S
H407 C385 0.950 . S
C408 C409 1.349 . S
C408 C410 1.327 . S
C408 H433 0.950 . S
C409 C408 1.349 . S
C409 C425 1.349 . S
C410 C408 1.327 . S
C410 C429 1.429 . S
C410 H434 0.950 . S
C411 C428 1.574 . S
C411 C430 1.368 . S
C411 H435 0.949 . S
H412 C416 0.949 . S
C413 C414 1.349 . S
C413 C415 1.327 . S
C413 H436 0.950 . S
C414 C413 1.349 . S
C414 C426 1.349 . S
C415 C413 1.327 . S
C415 C431 1.429 . S
C415 H437 0.950 . S
C416 H412 0.949 . S
C416 C424 1.574 . S
C416 C432 1.368 . S
H417 C425 0.950 . S
H418 C423 0.950 . S
H419 C424 0.949 . S
H420 C426 0.950 . S
H421 C427 0.950 . S
H422 C428 0.949 . S
C423 H418 0.950 . S
C423 C425 1.327 . S
C423 C429 1.429 . S
C424 C416 1.574 . S
C424 H419 0.949 . S
C424 C430 1.368 . S
C425 C409 1.349 . S
C425 H417 0.950 . S
C425 C423 1.327 . S
C426 C414 1.349 . S
C426 H420 0.950 . S
C426 C427 1.327 . S
C427 H421 0.950 . S
C427 C426 1.327 . S
C427 C431 1.429 . S
C428 C411 1.574 . S
C428 H422 0.949 . S
C428 C432 1.368 . S
C429 C410 1.429 . S
C429 C423 1.429 . S
C429 C430 1.523 . S
C430 C411 1.368 . S
C430 C424 1.368 . S
C430 C429 1.523 . S
C431 C415 1.429 . S
C431 C427 1.429 . S
C431 C432 1.523 . S
C432 C416 1.368 . S
C432 C428 1.368 . S
C432 C431 1.523 . S
H433 C408 0.950 . S
H434 C410 0.950 . S
H435 C411 0.949 . S
H436 C413 0.950 . S
H437 C415 0.950 . S
C438 C439 1.349 . S
C438 C440 1.327 . S
C438 H463 0.950 . S
C439 C438 1.349 . S
C439 C455 1.349 . S
C440 C438 1.327 . S
C440 C459 1.429 . S
C440 H464 0.950 . S
C441 C458 1.574 . S
C441 C460 1.368 . S
C441 H465 0.949 . S
H442 C446 0.949 . S
C443 C444 1.349 . S
C443 C445 1.327 . S
C443 H466 0.950 . S
C444 C443 1.349 . S
C444 C456 1.349 . S
C445 C443 1.327 . S
C445 C461 1.429 . S
C445 H467 0.950 . S
C446 H442 0.949 . S
C446 C454 1.574 . S
C446 C462 1.368 . S
H447 C455 0.950 . S
H448 C453 0.950 . S
H449 C454 0.949 . S
H450 C456 0.950 . S
H451 C457 0.950 . S
H452 C458 0.949 . S
C453 H448 0.950 . S
C453 C455 1.327 . S
C453 C459 1.429 . S
C454 C446 1.574 . S
C454 H449 0.949 . S
C454 C460 1.368 . S
C455 C439 1.349 . S
C455 H447 0.950 . S
C455 C453 1.327 . S
C456 C444 1.349 . S
C456 H450 0.950 . S
C456 C457 1.327 . S
C457 H451 0.950 . S
C457 C456 1.327 . S
C457 C461 1.429 . S
C458 C441 1.574 . S
C458 H452 0.949 . S
C458 C462 1.368 . S
C459 C440 1.429 . S
C459 C453 1.429 . S
C459 C460 1.523 . S
C460 C441 1.368 . S
C460 C454 1.368 . S
C460 C459 1.523 . S
C461 C445 1.429 . S
C461 C457 1.429 . S
C461 C462 1.523 . S
C462 C446 1.368 . S
C462 C458 1.368 . S
C462 C461 1.523 . S
H463 C438 0.950 . S
H464 C440 0.950 . S
H465 C441 0.949 . S
H466 C443 0.950 . S
H467 C445 0.950 . S
C468 C469 1.349 . S
C468 C470 1.327 . S
C468 H493 0.950 . S
C469 C468 1.349 . S
C469 C485 1.349 . S
C470 C468 1.327 . S
C470 C489 1.429 . S
C470 H494 0.950 . S
C471 C488 1.574 . S
C471 C490 1.368 . S
C471 H495 0.949 . S
H472 C476 0.949 . S
C473 C474 1.349 . S
C473 C475 1.327 . S
C473 H496 0.950 . S
C474 C473 1.349 . S
C474 C486 1.349 . S
C475 C473 1.327 . S
C475 C491 1.429 . S
C475 H497 0.950 . S
C476 H472 0.949 . S
C476 C484 1.574 . S
C476 C492 1.368 . S
H477 C485 0.950 . S
H478 C483 0.950 . S
H479 C484 0.949 . S
H480 C486 0.950 . S
H481 C487 0.950 . S
H482 C488 0.949 . S
C483 H478 0.950 . S
C483 C485 1.327 . S
C483 C489 1.429 . S
C484 C476 1.574 . S
C484 H479 0.949 . S
C484 C490 1.368 . S
C485 C469 1.349 . S
C485 H477 0.950 . S
C485 C483 1.327 . S
C486 C474 1.349 . S
C486 H480 0.950 . S
C486 C487 1.327 . S
C487 H481 0.950 . S
C487 C486 1.327 . S
C487 C491 1.429 . S
C488 C471 1.574 . S
C488 H482 0.949 . S
C488 C492 1.368 . S
C489 C470 1.429 . S
C489 C483 1.429 . S
C489 C490 1.523 . S
C490 C471 1.368 . S
C490 C484 1.368 . S
C490 C489 1.523 . S
C491 C475 1.429 . S
C491 C487 1.429 . S
C491 C492 1.523 . S
C492 C476 1.368 . S
C492 C488 1.368 . S
C492 C491 1.523 . S
H493 C468 0.950 . S
H494 C470 0.950 . S
H495 C471 0.949 . S
H496 C473 0.950 . S
H497 C475 0.950 . S
C498 C499 1.349 . S
C498 C500 1.327 . S
C498 H523 0.950 . S
C499 C498 1.349 . S
C499 C515 1.349 . S
C500 C498 1.327 . S
C500 C519 1.429 . S
C500 H524 0.950 . S
C501 C518 1.574 . S
C501 C520 1.368 . S
C501 H525 0.949 . S
H502 C506 0.949 . S
C503 C504 1.349 . S
C503 C505 1.327 . S
C503 H526 0.950 . S
C504 C503 1.349 . S
C504 C516 1.349 . S
C505 C503 1.327 . S
C505 C521 1.429 . S
C505 H527 0.950 . S
C506 H502 0.949 . S
C506 C514 1.574 . S
C506 C522 1.368 . S
H507 C515 0.950 . S
H508 C513 0.950 . S
H509 C514 0.949 . S
H510 C516 0.950 . S
H511 C517 0.950 . S
H512 C518 0.949 . S
C513 H508 0.950 . S
C513 C515 1.327 . S
C513 C519 1.429 . S
C514 C506 1.574 . S
C514 H509 0.949 . S
C514 C520 1.368 . S
C515 C499 1.349 . S
C515 H507 0.950 . S
C515 C513 1.327 . S
C516 C504 1.349 . S
C516 H510 0.950 . S
C516 C517 1.327 . S
C517 H511 0.950 . S
C517 C516 1.327 . S
C517 C521 1.429 . S
C518 C501 1.574 . S
C518 H512 0.949 . S
C518 C522 1.368 . S
C519 C500 1.429 . S
C519 C513 1.429 . S
C519 C520 1.523 . S
C520 C501 1.368 . S
C520 C514 1.368 . S
C520 C519 1.523 . S
C521 C505 1.429 . S
C521 C517 1.429 . S
C521 C522 1.523 . S
C522 C506 1.368 . S
C522 C518 1.368 . S
C522 C521 1.523 . S
H523 C498 0.950 . S
H524 C500 0.950 . S
H525 C501 0.949 . S
H526 C503 0.950 . S
H527 C505 0.950 . S
C528 C529 1.349 . S
C528 C530 1.327 . S
C528 H553 0.950 . S
C529 C528 1.349 . S
C529 C545 1.349 . S
C530 C528 1.327 . S
C530 C549 1.429 . S
C530 H554 0.950 . S
C531 C548 1.574 . S
C531 C550 1.368 . S
C531 H555 0.949 . S
H532 C536 0.949 . S
C533 C534 1.349 . S
C533 C535 1.327 . S
C533 H556 0.950 . S
C534 C533 1.349 . S
C534 C546 1.349 . S
C535 C533 1.327 . S
C535 C551 1.429 . S
C535 H557 0.950 . S
C536 H532 0.949 . S
C536 C544 1.574 . S
C536 C552 1.368 . S
H537 C545 0.950 . S
H538 C543 0.950 . S
H539 C544 0.949 . S
H540 C546 0.950 . S
H541 C547 0.950 . S
H542 C548 0.949 . S
C543 H538 0.950 . S
C543 C545 1.327 . S
C543 C549 1.429 . S
C544 C536 1.574 . S
C544 H539 0.949 . S
C544 C550 1.368 . S
C545 C529 1.349 . S
C545 H537 0.950 . S
C545 C543 1.327 . S
C546 C534 1.349 . S
C546 H540 0.950 . S
C546 C547 1.327 . S
C547 H541 0.950 . S
C547 C546 1.327 . S
C547 C551 1.429 . S
C548 C531 1.574 . S
C548 H542 0.949 . S
C548 C552 1.368 . S
C549 C530 1.429 . S
C549 C543 1.429 . S
C549 C550 1.523 . S
C550 C531 1.368 . S
C550 C544 1.368 . S
C550 C549 1.523 . S
C551 C535 1.429 . S
C551 C547 1.429 . S
C551 C552 1.523 . S
C552 C536 1.368 . S
C552 C548 1.368 . S
C552 C551 1.523 . S
H553 C528 0.950 . S
H554 C530 0.950 . S
H555 C531 0.949 . S
H556 C533 0.950 . S
H557 C535 0.950 . S
C558 C559 1.349 . S
C558 C560 1.327 . S
C558 H583 0.950 1_556 S
C559 C558 1.349 . S
C559 C575 1.349 . S
C560 C558 1.327 . S
C560 C579 1.429 . S
C560 H584 0.950 . S
C561 C578 1.574 . S
C561 C580 1.368 . S
C561 H585 0.949 . S
H562 C566 0.949 . S
C563 C564 1.349 . S
C563 C565 1.327 . S
C563 H586 0.950 . S
C564 C563 1.349 . S
C564 C576 1.349 . S
C565 C563 1.327 . S
C565 C581 1.429 . S
C565 H587 0.950 . S
C566 H562 0.949 . S
C566 C574 1.574 . S
C566 C582 1.368 . S
H567 C575 0.950 . S
H568 C573 0.950 . S
H569 C574 0.949 . S
H570 C576 0.950 . S
H571 C577 0.950 . S
H572 C578 0.949 . S
C573 H568 0.950 . S
C573 C575 1.327 . S
C573 C579 1.429 . S
C574 C566 1.574 . S
C574 H569 0.949 . S
C574 C580 1.368 1_455 S
C575 C559 1.349 . S
C575 H567 0.950 . S
C575 C573 1.327 . S
C576 C564 1.349 . S
C576 H570 0.950 . S
C576 C577 1.327 . S
C577 H571 0.950 . S
C577 C576 1.327 . S
C577 C581 1.429 . S
C578 C561 1.574 . S
C578 H572 0.949 . S
C578 C582 1.368 1_655 S
C579 C560 1.429 . S
C579 C573 1.429 . S
C579 C580 1.523 . S
C580 C561 1.368 . S
C580 C574 1.368 1_655 S
C580 C579 1.523 . S
C581 C565 1.429 . S
C581 C577 1.429 . S
C581 C582 1.523 . S
C582 C566 1.368 . S
C582 C578 1.368 1_455 S
C582 C581 1.523 . S
H583 C558 0.950 1_554 S
H584 C560 0.950 . S
H585 C561 0.949 . S
H586 C563 0.950 . S
H587 C565 0.950 . S
C588 C589 1.349 . S
C588 C590 1.327 . S
C588 H613 0.950 . S
C589 C588 1.349 . S
C589 C605 1.349 . S
C590 C588 1.327 . S
C590 C609 1.429 . S
C590 H614 0.950 . S
C591 C608 1.574 . S
C591 C610 1.368 1_556 S
C591 H615 0.949 . S
H592 C596 0.949 . S
C593 C594 1.349 . S
C593 C595 1.327 . S
C593 H616 0.950 . S
C594 C593 1.349 . S
C594 C606 1.349 . S
C595 C593 1.327 . S
C595 C611 1.429 . S
C595 H617 0.950 . S
C596 H592 0.949 . S
C596 C604 1.574 . S
C596 C612 1.368 1_554 S
H597 C605 0.950 . S
H598 C603 0.950 . S
H599 C604 0.949 . S
H600 C606 0.950 . S
H601 C607 0.950 . S
H602 C608 0.949 . S
C603 H598 0.950 . S
C603 C605 1.327 . S
C603 C609 1.429 . S
C604 C596 1.574 . S
C604 H599 0.949 . S
C604 C610 1.368 1_545 S
C605 C589 1.349 . S
C605 H597 0.950 . S
C605 C603 1.327 . S
C606 C594 1.349 . S
C606 H600 0.950 . S
C606 C607 1.327 . S
C607 H601 0.950 . S
C607 C606 1.327 . S
C607 C611 1.429 . S
C608 C591 1.574 . S
C608 H602 0.949 . S
C608 C612 1.368 1_565 S
C609 C590 1.429 . S
C609 C603 1.429 . S
C609 C610 1.523 . S
C610 C591 1.368 1_554 S
C610 C604 1.368 1_565 S
C610 C609 1.523 . S
C611 C595 1.429 . S
C611 C607 1.429 . S
C611 C612 1.523 . S
C612 C596 1.368 1_556 S
C612 C608 1.368 1_545 S
C612 C611 1.523 . S
H613 C588 0.950 . S
H614 C590 0.950 . S
H615 C591 0.949 . S
H616 C593 0.950 . S
H617 C595 0.950 . S
C618 C619 1.349 . S
C618 C620 1.327 . S
C618 H643 0.950 . S
C619 C618 1.349 . S
C619 C635 1.349 . S
C620 C618 1.327 . S
C620 C639 1.429 . S
C620 H644 0.950 . S
C621 C638 1.574 . S
C621 C640 1.368 . S
C621 H645 0.949 . S
H622 C626 0.949 . S
C623 C624 1.349 . S
C623 C625 1.327 . S
C623 H646 0.950 . S
C624 C623 1.349 . S
C624 C636 1.349 . S
C625 C623 1.327 . S
C625 C641 1.429 . S
C625 H647 0.950 . S
C626 H622 0.949 . S
C626 C634 1.574 . S
C626 C642 1.368 . S
H627 C635 0.950 1_556 S
H628 C633 0.950 . S
H629 C634 0.949 . S
H630 C636 0.950 . S
H631 C637 0.950 . S
H632 C638 0.949 . S
C633 H628 0.950 . S
C633 C635 1.327 . S
C633 C639 1.429 . S
C634 C626 1.574 . S
C634 H629 0.949 . S
C634 C640 1.368 . S
C635 C619 1.349 . S
C635 H627 0.950 1_554 S
C635 C633 1.327 . S
C636 C624 1.349 . S
C636 H630 0.950 . S
C636 C637 1.327 . S
C637 H631 0.950 . S
C637 C636 1.327 . S
C637 C641 1.429 . S
C638 C621 1.574 . S
C638 H632 0.949 . S
C638 C642 1.368 . S
C639 C620 1.429 . S
C639 C633 1.429 . S
C639 C640 1.523 . S
C640 C621 1.368 . S
C640 C634 1.368 . S
C640 C639 1.523 . S
C641 C625 1.429 . S
C641 C637 1.429 . S
C641 C642 1.523 . S
C642 C626 1.368 . S
C642 C638 1.368 . S
C642 C641 1.523 . S
H643 C618 0.950 . S
H644 C620 0.950 . S
H645 C621 0.949 . S
H646 C623 0.950 . S
H647 C625 0.950 . S
C648 C649 1.349 . S
C648 C650 1.327 . S
C648 H673 0.950 . S
C649 C648 1.349 . S
C649 C665 1.349 . S
C650 C648 1.327 . S
C650 C669 1.429 . S
C650 H674 0.950 . S
C651 C668 1.574 . S
C651 C670 1.368 1_655 S
C651 H675 0.949 . S
H652 C656 0.949 . S
C653 C654 1.349 . S
C653 C655 1.327 . S
C653 H676 0.950 . S
C654 C653 1.349 . S
C654 C666 1.349 . S
C655 C653 1.327 . S
C655 C671 1.429 . S
C655 H677 0.950 . S
C656 H652 0.949 . S
C656 C664 1.574 . S
C656 C672 1.368 1_455 S
H657 C665 0.950 . S
H658 C663 0.950 . S
H659 C664 0.949 . S
H660 C666 0.950 . S
H661 C667 0.950 . S
H662 C668 0.949 . S
C663 H658 0.950 . S
C663 C665 1.327 . S
C663 C669 1.429 . S
C664 C656 1.574 . S
C664 H659 0.949 . S
C664 C670 1.368 . S
C665 C649 1.349 . S
C665 H657 0.950 . S
C665 C663 1.327 . S
C666 C654 1.349 . S
C666 H660 0.950 . S
C666 C667 1.327 . S
C667 H661 0.950 . S
C667 C666 1.327 . S
C667 C671 1.429 . S
C668 C651 1.574 . S
C668 H662 0.949 . S
C668 C672 1.368 . S
C669 C650 1.429 . S
C669 C663 1.429 . S
C669 C670 1.523 . S
C670 C651 1.368 1_455 S
C670 C664 1.368 . S
C670 C669 1.523 . S
C671 C655 1.429 . S
C671 C667 1.429 . S
C671 C672 1.523 . S
C672 C656 1.368 1_655 S
C672 C668 1.368 . S
C672 C671 1.523 . S
H673 C648 0.950 . S
H674 C650 0.950 . S
H675 C651 0.949 . S
H676 C653 0.950 . S
H677 C655 0.950 . S
C678 C679 1.349 . S
C678 C680 1.327 . S
C678 H703 0.950 . S
C679 C678 1.349 . S
C679 C695 1.349 . S
C680 C678 1.327 . S
C680 C699 1.429 . S
C680 H704 0.950 . S
C681 C698 1.574 . S
C681 C700 1.368 . S
C681 H705 0.949 . S
H682 C686 0.949 . S
C683 C684 1.349 . S
C683 C685 1.327 . S
C683 H706 0.950 . S
C684 C683 1.349 . S
C684 C696 1.349 . S
C685 C683 1.327 . S
C685 C701 1.429 . S
C685 H707 0.950 . S
C686 H682 0.949 . S
C686 C694 1.574 . S
C686 C702 1.368 . S
H687 C695 0.950 . S
H688 C693 0.950 . S
H689 C694 0.949 . S
H690 C696 0.950 . S
H691 C697 0.950 . S
H692 C698 0.949 . S
C693 H688 0.950 . S
C693 C695 1.327 . S
C693 C699 1.429 . S
C694 C686 1.574 . S
C694 H689 0.949 . S
C694 C700 1.368 1_545 S
C695 C679 1.349 . S
C695 H687 0.950 . S
C695 C693 1.327 . S
C696 C684 1.349 . S
C696 H690 0.950 . S
C696 C697 1.327 . S
C697 H691 0.950 . S
C697 C696 1.327 . S
C697 C701 1.429 . S
C698 C681 1.574 . S
C698 H692 0.949 . S
C698 C702 1.368 1_565 S
C699 C680 1.429 . S
C699 C693 1.429 . S
C699 C700 1.523 . S
C700 C681 1.368 . S
C700 C694 1.368 1_565 S
C700 C699 1.523 . S
C701 C685 1.429 . S
C701 C697 1.429 . S
C701 C702 1.523 . S
C702 C686 1.368 . S
C702 C698 1.368 1_545 S
C702 C701 1.523 . S
H703 C678 0.950 . S
H704 C680 0.950 . S
H705 C681 0.949 . S
H706 C683 0.950 . S
H707 C685 0.950 . S
C708 C709 1.349 . S
C708 C710 1.327 . S
C708 H733 0.950 . S
C709 C708 1.349 . S
C709 C725 1.349 . S
C710 C708 1.327 . S
C710 C729 1.429 . S
C710 H734 0.950 . S
C711 C728 1.574 . S
C711 C730 1.368 . S
C711 H735 0.949 . S
H712 C716 0.949 . S
C713 C714 1.349 . S
C713 C715 1.327 . S
C713 H736 0.950 . S
C714 C713 1.349 . S
C714 C726 1.349 . S
C715 C713 1.327 . S
C715 C731 1.429 . S
C715 H737 0.950 . S
C716 H712 0.949 . S
C716 C724 1.574 . S
C716 C732 1.368 . S
H717 C725 0.950 . S
H718 C723 0.950 . S
H719 C724 0.949 . S
H720 C726 0.950 . S
H721 C727 0.950 . S
H722 C728 0.949 . S
C723 H718 0.950 . S
C723 C725 1.327 . S
C723 C729 1.429 . S
C724 C716 1.574 . S
C724 H719 0.949 . S
C724 C730 1.368 . S
C725 C709 1.349 . S
C725 H717 0.950 . S
C725 C723 1.327 . S
C726 C714 1.349 . S
C726 H720 0.950 . S
C726 C727 1.327 . S
C727 H721 0.950 . S
C727 C726 1.327 . S
C727 C731 1.429 . S
C728 C711 1.574 . S
C728 H722 0.949 . S
C728 C732 1.368 . S
C729 C710 1.429 . S
C729 C723 1.429 . S
C729 C730 1.523 . S
C730 C711 1.368 . S
C730 C724 1.368 . S
C730 C729 1.523 . S
C731 C715 1.429 . S
C731 C727 1.429 . S
C731 C732 1.523 . S
C732 C716 1.368 . S
C732 C728 1.368 . S
C732 C731 1.523 . S
H733 C708 0.950 . S
H734 C710 0.950 . S
H735 C711 0.949 . S
H736 C713 0.950 . S
H737 C715 0.950 . S
C738 C739 1.349 . S
C738 C740 1.327 . S
C738 H763 0.950 . S
C739 C738 1.349 . S
C739 C755 1.349 . S
C740 C738 1.327 . S
C740 C759 1.429 . S
C740 H764 0.950 . S
C741 C758 1.574 . S
C741 C760 1.368 . S
C741 H765 0.949 . S
H742 C746 0.949 . S
C743 C744 1.349 . S
C743 C745 1.327 . S
C743 H766 0.950 . S
C744 C743 1.349 . S
C744 C756 1.349 . S
C745 C743 1.327 . S
C745 C761 1.429 . S
C745 H767 0.950 . S
C746 H742 0.949 . S
C746 C754 1.574 . S
C746 C762 1.368 . S
H747 C755 0.950 . S
H748 C753 0.950 . S
H749 C754 0.949 . S
H750 C756 0.950 . S
H751 C757 0.950 . S
H752 C758 0.949 . S
C753 H748 0.950 . S
C753 C755 1.327 . S
C753 C759 1.429 . S
C754 C746 1.574 . S
C754 H749 0.949 . S
C754 C760 1.368 . S
C755 C739 1.349 . S
C755 H747 0.950 . S
C755 C753 1.327 . S
C756 C744 1.349 . S
C756 H750 0.950 . S
C756 C757 1.327 . S
C757 H751 0.950 . S
C757 C756 1.327 . S
C757 C761 1.429 . S
C758 C741 1.574 . S
C758 H752 0.949 . S
C758 C762 1.368 . S
C759 C740 1.429 . S
C759 C753 1.429 . S
C759 C760 1.523 . S
C760 C741 1.368 . S
C760 C754 1.368 . S
C760 C759 1.523 . S
C761 C745 1.429 . S
C761 C757 1.429 . S
C761 C762 1.523 . S
C762 C746 1.368 . S
C762 C758 1.368 . S
C762 C761 1.523 . S
H763 C738 0.950 . S
H764 C740 0.950 . S
H765 C741 0.949 . S
H766 C743 0.950 . S
H767 C745 0.950 . S
C768 C769 1.349 1_556 S
C768 C770 1.327 . S
C768 H793 0.950 . S
C769 C768 1.349 1_554 S
C769 C785 1.349 . S
C770 C768 1.327 . S
C770 C789 1.429 . S
C770 H794 0.950 . S
C771 C788 1.574 . S
C771 C790 1.368 . S
C771 H795 0.949 . S
H772 C776 0.949 . S
C773 C774 1.349 . S
C773 C775 1.327 . S
C773 H796 0.950 . S
C774 C773 1.349 . S
C774 C786 1.349 . S
C775 C773 1.327 . S
C775 C791 1.429 . S
C775 H797 0.950 . S
C776 H772 0.949 . S
C776 C784 1.574 . S
C776 C792 1.368 . S
H777 C785 0.950 . S
H778 C783 0.950 . S
H779 C784 0.949 . S
H780 C786 0.950 . S
H781 C787 0.950 . S
H782 C788 0.949 . S
C783 H778 0.950 . S
C783 C785 1.327 1_556 S
C783 C789 1.429 . S
C784 C776 1.574 . S
C784 H779 0.949 . S
C784 C790 1.368 . S
C785 C769 1.349 . S
C785 H777 0.950 . S
C785 C783 1.327 1_554 S
C786 C774 1.349 . S
C786 H780 0.950 . S
C786 C787 1.327 . S
C787 H781 0.950 . S
C787 C786 1.327 . S
C787 C791 1.429 . S
C788 C771 1.574 . S
C788 H782 0.949 . S
C788 C792 1.368 . S
C789 C770 1.429 . S
C789 C783 1.429 . S
C789 C790 1.523 . S
C790 C771 1.368 . S
C790 C784 1.368 . S
C790 C789 1.523 . S
C791 C775 1.429 . S
C791 C787 1.429 . S
C791 C792 1.523 . S
C792 C776 1.368 . S
C792 C788 1.368 . S
C792 C791 1.523 . S
H793 C768 0.950 . S
H794 C770 0.950 . S
H795 C771 0.949 . S
H796 C773 0.950 . S
H797 C775 0.950 . S
C798 C799 1.349 . S
C798 C800 1.327 . S
C798 H823 0.950 . S
C799 C798 1.349 . S
C799 C815 1.349 . S
C800 C798 1.327 . S
C800 C819 1.429 . S
C800 H824 0.950 . S
C801 C818 1.574 . S
C801 C820 1.368 . S
C801 H825 0.949 . S
H802 C806 0.949 . S
C803 C804 1.349 . S
C803 C805 1.327 . S
C803 H826 0.950 . S
C804 C803 1.349 . S
C804 C816 1.349 1_556 S
C805 C803 1.327 . S
C805 C821 1.429 1_556 S
C805 H827 0.950 . S
C806 H802 0.949 . S
C806 C814 1.574 . S
C806 C822 1.368 . S
H807 C815 0.950 . S
H808 C813 0.950 . S
H809 C814 0.949 . S
H810 C816 0.950 . S
H811 C817 0.950 . S
H812 C818 0.949 . S
C813 H808 0.950 . S
C813 C815 1.327 . S
C813 C819 1.429 . S
C814 C806 1.574 . S
C814 H809 0.949 . S
C814 C820 1.368 . S
C815 C799 1.349 . S
C815 H807 0.950 . S
C815 C813 1.327 . S
C816 C804 1.349 1_554 S
C816 H810 0.950 . S
C816 C817 1.327 . S
C817 H811 0.950 . S
C817 C816 1.327 . S
C817 C821 1.429 . S
C818 C801 1.574 . S
C818 H812 0.949 . S
C818 C822 1.368 . S
C819 C800 1.429 . S
C819 C813 1.429 . S
C819 C820 1.523 . S
C820 C801 1.368 . S
C820 C814 1.368 . S
C820 C819 1.523 . S
C821 C805 1.429 1_554 S
C821 C817 1.429 . S
C821 C822 1.523 . S
C822 C806 1.368 . S
C822 C818 1.368 . S
C822 C821 1.523 . S
H823 C798 0.950 . S
H824 C800 0.950 . S
H825 C801 0.949 . S
H826 C803 0.950 . S
H827 C805 0.950 . S
C828 C829 1.349 . S
C828 C830 1.327 . S
C828 H853 0.950 . S
C829 C828 1.349 . S
C829 C845 1.349 . S
C830 C828 1.327 . S
C830 C849 1.429 . S
C830 H854 0.950 . S
C831 C848 1.574 . S
C831 C850 1.368 . S
C831 H855 0.949 . S
H832 C836 0.949 . S
C833 C834 1.349 . S
C833 C835 1.327 . S
C833 H856 0.950 . S
C834 C833 1.349 . S
C834 C846 1.349 . S
C835 C833 1.327 . S
C835 C851 1.429 . S
C835 H857 0.950 . S
C836 H832 0.949 . S
C836 C844 1.574 . S
C836 C852 1.368 . S
H837 C845 0.950 . S
H838 C843 0.950 . S
H839 C844 0.949 . S
H840 C846 0.950 . S
H841 C847 0.950 . S
H842 C848 0.949 . S
C843 H838 0.950 . S
C843 C845 1.327 . S
C843 C849 1.429 . S
C844 C836 1.574 . S
C844 H839 0.949 . S
C844 C850 1.368 . S
C845 C829 1.349 . S
C845 H837 0.950 . S
C845 C843 1.327 . S
C846 C834 1.349 . S
C846 H840 0.950 . S
C846 C847 1.327 . S
C847 H841 0.950 . S
C847 C846 1.327 . S
C847 C851 1.429 . S
C848 C831 1.574 . S
C848 H842 0.949 . S
C848 C852 1.368 . S
C849 C830 1.429 . S
C849 C843 1.429 . S
C849 C850 1.523 . S
C850 C831 1.368 . S
C850 C844 1.368 . S
C850 C849 1.523 . S
C851 C835 1.429 . S
C851 C847 1.429 . S
C851 C852 1.523 . S
C852 C836 1.368 . S
C852 C848 1.368 . S
C852 C851 1.523 . S
H853 C828 0.950 . S
H854 C830 0.950 . S
H855 C831 0.949 . S
H856 C833 0.950 . S
H857 C835 0.950 . S
C858 C859 1.349 . S
C858 C860 1.327 . S
C858 H883 0.950 . S
C859 C858 1.349 . S
C859 C875 1.349 . S
C860 C858 1.327 . S
C860 C879 1.429 . S
C860 H884 0.950 . S
C861 C878 1.574 . S
C861 C880 1.368 . S
C861 H885 0.949 . S
H862 C866 0.949 . S
C863 C864 1.349 . S
C863 C865 1.327 . S
C863 H886 0.950 . S
C864 C863 1.349 . S
C864 C876 1.349 . S
C865 C863 1.327 . S
C865 C881 1.429 . S
C865 H887 0.950 . S
C866 H862 0.949 . S
C866 C874 1.574 . S
C866 C882 1.368 . S
H867 C875 0.950 . S
H868 C873 0.950 . S
H869 C874 0.949 . S
H870 C876 0.950 . S
H871 C877 0.950 . S
H872 C878 0.949 . S
C873 H868 0.950 . S
C873 C875 1.327 . S
C873 C879 1.429 . S
C874 C866 1.574 . S
C874 H869 0.949 . S
C874 C880 1.368 . S
C875 C859 1.349 . S
C875 H867 0.950 . S
C875 C873 1.327 . S
C876 C864 1.349 . S
C876 H870 0.950 . S
C876 C877 1.327 . S
C877 H871 0.950 . S
C877 C876 1.327 . S
C877 C881 1.429 . S
C878 C861 1.574 . S
C878 H872 0.949 . S
C878 C882 1.368 . S
C879 C860 1.429 . S
C879 C873 1.429 . S
C879 C880 1.523 . S
C880 C861 1.368 . S
C880 C874 1.368 . S
C880 C879 1.523 . S
C881 C865 1.429 . S
C881 C877 1.429 . S
C881 C882 1.523 . S
C882 C866 1.368 . S
C882 C878 1.368 . S
C882 C881 1.523 . S
H883 C858 0.950 . S
H884 C860 0.950 . S
H885 C861 0.949 . S
H886 C863 0.950 . S
H887 C865 0.950 . S
C169 C131 1.627 1_554 S
C174 C5 1.627 . S
C199 C19 1.627 . S
C204 C145 1.627 . S
C229 C159 1.627 . S
C234 C33 1.627 . S
C259 C89 1.627 . S
C264 C47 1.627 . S
C289 C103 1.627 . S
C294 C61 1.627 1_556 S
C319 C117 1.627 . S
C324 C75 1.627 . S
C349 C84 1.448 . S
C354 C0 1.448 . S
C379 C14 1.449 . S
C384 C98 1.449 . S
C409 C112 1.449 . S
C414 C28 1.449 . S
C439 C42 1.448 . S
C444 C126 1.448 . S
C469 C140 1.448 . S
C474 C56 1.448 . S
C499 C70 1.448 . S
C504 C154 1.448 . S
C529 C135 1.208 . S
C534 C9 1.208 . S
C559 C149 1.208 1_556 S
C564 C23 1.208 . S
C589 C163 1.208 . S
C594 C37 1.208 . S
C619 C51 1.209 1_554 S
C624 C93 1.209 . S
C649 C107 1.208 . S
C654 C65 1.208 . S
C679 C79 1.208 . S
C684 C121 1.208 . S
C709 C11 1.093 . S
C714 C123 1.093 . S
C739 C137 1.093 . S
C744 C25 1.093 . S
C769 C151 1.093 . S
C774 C39 1.093 . S
C799 C165 1.093 . S
C804 C53 1.093 . S
C829 C95 1.093 . S
C834 C67 1.093 . S
C859 C109 1.093 . S
C864 C81 1.093 . S
