# Generated by pormake.
# Topology uof, (4)-cn, num edge types: 1
# Building blocks:
#     Node 0, Type 0, BuildingBlock: NAHDIM_clean_sbu_0, # of connection points: 4
#     Node 1, Type 0, BuildingBlock: NAHDIM_clean_sbu_0, # of connection points: 4
#     Node 2, Type 0, BuildingBlock: NAHDIM_clean_sbu_0, # of connection points: 4
#     Node 3, Type 0, BuildingBlock: NAHDIM_clean_sbu_0, # of connection points: 4
#     Node 4, Type 0, BuildingBlock: NAHDIM_clean_sbu_0, # of connection points: 4
#     Node 5, Type 0, BuildingBlock: NAHDIM_clean_sbu_0, # of connection points: 4
#     Node 6, Type 0, BuildingBlock: NAHDIM_clean_sbu_0, # of connection points: 4
#     Node 7, Type 0, BuildingBlock: NAHDIM_clean_sbu_0, # of connection points: 4
#     Node 8, Type 0, BuildingBlock: NAHDIM_clean_sbu_0, # of connection points: 4
#     Node 9, Type 0, BuildingBlock: NAHDIM_clean_sbu_0, # of connection points: 4
#     Node 10, Type 0, BuildingBlock: NAHDIM_clean_sbu_0, # of connection points: 4
#     Node 11, Type 0, BuildingBlock: NAHDIM_clean_sbu_0, # of connection points: 4
#     Edge 12, Type (0, 0), BuildingBlock: KIFKEQ_clean_linker_1, # of connection points: 2
#     Edge 13, Type (0, 0), BuildingBlock: KIFKEQ_clean_linker_1, # of connection points: 2
#     Edge 14, Type (0, 0), BuildingBlock: KIFKEQ_clean_linker_1, # of connection points: 2
#     Edge 15, Type (0, 0), BuildingBlock: KIFKEQ_clean_linker_1, # of connection points: 2
#     Edge 16, Type (0, 0), BuildingBlock: KIFKEQ_clean_linker_1, # of connection points: 2
#     Edge 17, Type (0, 0), BuildingBlock: KIFKEQ_clean_linker_1, # of connection points: 2
#     Edge 18, Type (0, 0), BuildingBlock: KIFKEQ_clean_linker_1, # of connection points: 2
#     Edge 19, Type (0, 0), BuildingBlock: KIFKEQ_clean_linker_1, # of connection points: 2
#     Edge 20, Type (0, 0), BuildingBlock: KIFKEQ_clean_linker_1, # of connection points: 2
#     Edge 21, Type (0, 0), BuildingBlock: KIFKEQ_clean_linker_1, # of connection points: 2
#     Edge 22, Type (0, 0), BuildingBlock: KIFKEQ_clean_linker_1, # of connection points: 2
#     Edge 23, Type (0, 0), BuildingBlock: KIFKEQ_clean_linker_1, # of connection points: 2
#     Edge 24, Type (0, 0), BuildingBlock: KIFKEQ_clean_linker_1, # of connection points: 2
#     Edge 25, Type (0, 0), BuildingBlock: KIFKEQ_clean_linker_1, # of connection points: 2
#     Edge 26, Type (0, 0), BuildingBlock: KIFKEQ_clean_linker_1, # of connection points: 2
#     Edge 27, Type (0, 0), BuildingBlock: KIFKEQ_clean_linker_1, # of connection points: 2
#     Edge 28, Type (0, 0), BuildingBlock: KIFKEQ_clean_linker_1, # of connection points: 2
#     Edge 29, Type (0, 0), BuildingBlock: KIFKEQ_clean_linker_1, # of connection points: 2
#     Edge 30, Type (0, 0), BuildingBlock: KIFKEQ_clean_linker_1, # of connection points: 2
#     Edge 31, Type (0, 0), BuildingBlock: KIFKEQ_clean_linker_1, # of connection points: 2
#     Edge 32, Type (0, 0), BuildingBlock: KIFKEQ_clean_linker_1, # of connection points: 2
#     Edge 33, Type (0, 0), BuildingBlock: KIFKEQ_clean_linker_1, # of connection points: 2
#     Edge 34, Type (0, 0), BuildingBlock: KIFKEQ_clean_linker_1, # of connection points: 2
#     Edge 35, Type (0, 0), BuildingBlock: KIFKEQ_clean_linker_1, # of connection points: 2
# Relax obj value: 0.217
# Max RMSD: 0.169
# Mean RMSD: 0.169
data_MOF--net-uof--node1-NAHDIM_clean_sbu_0--edge1-KIFKEQ_clean_linker_1
_symmetry_space_group_name_H-M    P1
_symmetry_Int_Tables_number       1
_symmetry_cell_setting            triclinic
loop_
_symmetry_equiv_pos_as_xyz
'x, y, z'
_cell_length_a     33.022832
_cell_length_b     33.07076
_cell_length_c     61.601297
_cell_angle_alpha  89.994031
_cell_angle_beta   89.997025
_cell_angle_gamma 119.9701
loop_
_atom_site_label
_atom_site_type_symbol
_atom_site_fract_x
_atom_site_fract_y
_atom_site_fract_z
_atom_type_partial_charge
C0 C 0.14723 0.31297 0.20916 0.0
O1 O 0.14044 0.28719 0.22648 0.0
O2 O 0.22266 0.30124 0.24558 0.0
Zn3 Zn 0.24029 0.3292 0.21524 0.0
O4 O 0.24647 0.28317 0.19609 0.0
C5 C 0.33108 0.3912 0.23204 0.0
O6 O 0.31386 0.3596 0.24745 0.0
O7 O 0.18864 0.33753 0.20187 0.0
C8 C 0.28421 0.28189 0.19454 0.0
O9 O 0.3214 0.31254 0.20518 0.0
C10 C 0.21627 0.26079 0.24984 0.0
O11 O 0.21688 0.23463 0.23396 0.0
O12 O 0.30462 0.38819 0.21631 0.0
C13 C 0.82735 0.13296 0.54625 0.0
O14 O 0.84906 0.12752 0.56289 0.0
O15 O 0.90634 0.22285 0.58411 0.0
Zn16 Zn 0.90148 0.22661 0.55156 0.0
O17 O 0.95419 0.22221 0.53793 0.0
C18 C 0.95393 0.32385 0.54681 0.0
O19 O 0.98597 0.31351 0.55262 0.0
O20 O 0.84172 0.17394 0.53903 0.0
C21 C 0.96486 0.23284 0.51814 0.0
O22 O 0.93977 0.24526 0.5063 0.0
C23 C 0.93238 0.20903 0.59266 0.0
O24 O 0.95327 0.1929 0.58011 0.0
O25 O 0.91178 0.29097 0.54483 0.0
C26 C 0.68186 0.82918 0.8786 0.0
O27 O 0.69608 0.83711 0.89886 0.0
O28 O 0.69146 0.91484 0.91677 0.0
Zn29 Zn 0.66989 0.9095 0.88558 0.0
O30 O 0.71875 0.96655 0.86998 0.0
C31 C 0.60192 0.93326 0.89975 0.0
O32 O 0.62903 0.94615 0.91694 0.0
O33 O 0.66627 0.85374 0.87005 0.0
C34 C 0.73101 0.00701 0.87729 0.0
O35 O 0.71056 0.01107 0.89477 0.0
C36 C 0.73471 0.93856 0.92144 0.0
O37 O 0.76568 0.95486 0.90571 0.0
O38 O 0.6102 0.91293 0.88425 0.0
C39 C 0.86226 0.69973 0.2091 0.0
O40 O 0.86589 0.72955 0.22414 0.0
O41 O 0.77551 0.697 0.24508 0.0
Zn42 Zn 0.76788 0.67665 0.21369 0.0
O43 O 0.76909 0.72931 0.19728 0.0
C44 C 0.68285 0.59564 0.22671 0.0
O45 O 0.70665 0.60351 0.24481 0.0
O46 O 0.8217 0.66972 0.20244 0.0
C47 C 0.74641 0.72486 0.17997 0.0
O48 O 0.72183 0.68344 0.17106 0.0
C49 C 0.74867 0.71238 0.25083 0.0
O50 O 0.71973 0.7133 0.23646 0.0
O51 O 0.70332 0.6201 0.21005 0.0
C52 C 0.17217 0.85252 0.54321 0.0
O53 O 0.16124 0.8595 0.56281 0.0
O54 O 0.0923 0.76982 0.58236 0.0
Zn55 Zn 0.09137 0.76117 0.54986 0.0
O56 O 0.03677 0.76508 0.53786 0.0
C57 C 0.05571 0.66419 0.55749 0.0
O58 O 0.04307 0.67594 0.57554 0.0
O59 O 0.14905 0.81201 0.53487 0.0
C60 C 0.9959 0.7415 0.54577 0.0
O61 O 0.98867 0.71329 0.56215 0.0
C62 C 0.07456 0.79182 0.59154 0.0
O63 O 0.0602 0.81508 0.57957 0.0
O64 O 0.0796 0.69577 0.54359 0.0
C65 C 0.3089 0.17319 0.88051 0.0
O66 O 0.28089 0.15176 0.89693 0.0
O67 O 0.29824 0.08256 0.91578 0.0
Zn68 Zn 0.32259 0.09509 0.88476 0.0
O69 O 0.27289 0.04692 0.86541 0.0
C70 C 0.36805 0.04349 0.88893 0.0
O71 O 0.32449 0.01302 0.89377 0.0
O72 O 0.3344 0.15742 0.87329 0.0
C73 C 0.28079 0.02584 0.85021 0.0
O74 O 0.32394 0.03698 0.84554 0.0
C75 C 0.26151 0.04434 0.92052 0.0
O76 O 0.23773 0.01494 0.90492 0.0
O77 O 0.37843 0.08506 0.88412 0.0
C78 C 0.6834 0.85183 0.45313 0.0
O79 O 0.70988 0.85795 0.43613 0.0
O80 O 0.6789 0.76639 0.4152 0.0
Zn81 Zn 0.66696 0.75946 0.4475 0.0
O82 O 0.72336 0.76438 0.46207 0.0
C83 C 0.62407 0.66202 0.4512 0.0
O84 O 0.66784 0.67402 0.4475 0.0
O85 O 0.65787 0.81066 0.46041 0.0
C86 C 0.72661 0.76362 0.48257 0.0
O87 O 0.69239 0.76041 0.4947 0.0
C88 C 0.71963 0.78124 0.40743 0.0
O89 O 0.75535 0.79604 0.42072 0.0
O90 O 0.61325 0.69391 0.45253 0.0
C91 C 0.84172 0.70259 0.78793 0.0
O92 O 0.8707 0.7336 0.77396 0.0
O93 O 0.92294 0.69288 0.75175 0.0
Zn94 Zn 0.90907 0.67423 0.78348 0.0
O95 O 0.96153 0.72669 0.80007 0.0
C96 C 0.90784 0.58805 0.77342 0.0
O97 O 0.89106 0.59223 0.75474 0.0
O98 O 0.84908 0.67003 0.79396 0.0
C99 C 0.99744 0.72495 0.80611 0.0
O100 O 0.9995 0.68676 0.80291 0.0
C101 C 0.96271 0.70028 0.74532 0.0
O102 O 0.98905 0.69302 0.75888 0.0
O103 O 0.91351 0.61629 0.78867 0.0
C104 C 0.14957 0.83084 0.11928 0.0
O105 O 0.144 0.84454 0.10005 0.0
O106 O 0.23127 0.9162 0.08215 0.0
Zn107 Zn 0.24288 0.90922 0.11388 0.0
O108 O 0.24661 0.96408 0.12942 0.0
C109 C 0.33036 0.91621 0.10087 0.0
O110 O 0.3095 0.90404 0.0819 0.0
O111 O 0.19001 0.85133 0.12789 0.0
C112 C 0.28049 0.00458 0.12528 0.0
O113 O 0.31257 0.00917 0.11129 0.0
C114 C 0.21395 0.94136 0.07639 0.0
O115 O 0.19957 0.95965 0.09132 0.0
O116 O 0.30719 0.91651 0.1173 0.0
C117 C 0.29925 0.13199 0.44884 0.0
O118 O 0.2703 0.1267 0.43304 0.0
O119 O 0.30233 0.21591 0.41128 0.0
Zn120 Zn 0.3213 0.22634 0.44308 0.0
O121 O 0.26962 0.22742 0.45988 0.0
C122 C 0.38795 0.32123 0.43271 0.0
O123 O 0.36127 0.31005 0.4154 0.0
O124 O 0.32771 0.17305 0.45547 0.0
C125 C 0.26123 0.26079 0.45793 0.0
O126 O 0.28793 0.29616 0.44527 0.0
C127 C 0.26046 0.20236 0.40548 0.0
O128 O 0.22809 0.19104 0.42036 0.0
O129 O 0.3795 0.28994 0.44688 0.0
C130 C 0.16561 0.31216 0.78863 0.0
O131 O 0.14149 0.28338 0.77286 0.0
O132 O 0.0774 0.31121 0.75367 0.0
Zn133 Zn 0.09187 0.33317 0.78484 0.0
O134 O 0.04092 0.28233 0.80283 0.0
C135 C 0.08713 0.41519 0.77207 0.0
O136 O 0.09945 0.40715 0.75299 0.0
O137 O 0.15285 0.34018 0.79573 0.0
C138 C 0.0095 0.28739 0.81227 0.0
O139 O 0.01081 0.32766 0.81104 0.0
C140 C 0.03539 0.29686 0.74787 0.0
O141 O 0.00625 0.29812 0.76199 0.0
O142 O 0.08634 0.391 0.78827 0.0
C143 C 0.86611 0.17508 0.11523 0.0
O144 O 0.87179 0.15691 0.09733 0.0
O145 O 0.78205 0.08977 0.07835 0.0
Zn146 Zn 0.77187 0.09909 0.11006 0.0
O147 O 0.76934 0.04524 0.12607 0.0
C148 C 0.683 0.08969 0.09768 0.0
O149 O 0.70226 0.09943 0.07833 0.0
O150 O 0.82519 0.15803 0.12315 0.0
C151 C 0.73504 0.00447 0.12284 0.0
O152 O 0.70098 0.99905 0.10995 0.0
C153 C 0.799 0.06391 0.07327 0.0
O154 O 0.81434 0.04747 0.08864 0.0
O155 O 0.7076 0.09168 0.11397 0.0
H156 H 0.86848 0.21366 0.15502 0.0
H157 H 0.95795 0.21302 0.10401 0.0
H158 H 0.93692 0.2592 0.17789 0.0
H159 H 0.02587 0.25715 0.12696 0.0
H160 H 0.14653 0.34896 0.16902 0.0
H161 H 0.0786 0.32745 0.14592 0.0
H162 H 0.98783 0.23977 0.19718 0.0
H163 H 0.0552 0.26216 0.22031 0.0
C164 C 0.90275 0.2238 0.14855 0.0
C165 C 0.90762 0.20912 0.12778 0.0
C166 C 0.94199 0.24968 0.16171 0.0
C167 C 0.98697 0.2614 0.15442 0.0
C168 C 0.99197 0.24922 0.13311 0.0
C169 C 0.95282 0.22351 0.11996 0.0
C170 C 0.11199 0.32592 0.1755 0.0
C171 C 0.10639 0.30682 0.19642 0.0
C172 C 0.07304 0.31332 0.16221 0.0
C173 C 0.02767 0.28138 0.16955 0.0
C174 C 0.02206 0.26475 0.19098 0.0
C175 C 0.06088 0.27736 0.20424 0.0
H176 H 0.78577 0.13061 0.50732 0.0
H177 H 0.7903 0.04132 0.55733 0.0
H178 H 0.73867 0.06226 0.48467 0.0
H179 H 0.74431 0.97344 0.5346 0.0
H180 H 0.64843 0.85326 0.49338 0.0
H181 H 0.67142 0.92139 0.51647 0.0
H182 H 0.75815 0.01118 0.46476 0.0
H183 H 0.7345 0.94353 0.44165 0.0
C184 C 0.77607 0.09639 0.51365 0.0
C185 C 0.79233 0.09151 0.53403 0.0
C186 C 0.7493 0.05723 0.50061 0.0
C187 C 0.73811 0.01236 0.50769 0.0
C188 C 0.75185 0.00733 0.52866 0.0
C189 C 0.7786 0.04641 0.54167 0.0
C190 C 0.67153 0.88764 0.48678 0.0
C191 C 0.69009 0.8929 0.46575 0.0
C192 C 0.68496 0.92667 0.50007 0.0
C193 C 0.71709 0.97176 0.49259 0.0
C194 C 0.73306 0.97711 0.47104 0.0
C195 C 0.71973 0.93817 0.4578 0.0
H196 H 0.72228 0.77811 0.89096 0.0
H197 H 0.66418 0.81034 0.83517 0.0
H198 H 0.75085 0.73856 0.86758 0.0
H199 H 0.69189 0.76967 0.81178 0.0
H200 H 0.81774 0.76838 0.77835 0.0
H201 H 0.76887 0.78932 0.79947 0.0
H202 H 0.73518 0.67478 0.84332 0.0
H203 H 0.78518 0.65433 0.82233 0.0
C204 C 0.71465 0.77586 0.87376 0.0
C205 C 0.69153 0.79804 0.86492 0.0
C206 C 0.73082 0.75285 0.86033 0.0
C207 C 0.72416 0.75134 0.83773 0.0
C208 C 0.69836 0.77091 0.82907 0.0
C209 C 0.68224 0.79401 0.8425 0.0
C210 C 0.79937 0.74713 0.79229 0.0
C211 C 0.80588 0.71003 0.79879 0.0
C212 C 0.77098 0.75896 0.80435 0.0
C213 C 0.74828 0.73396 0.82323 0.0
C214 C 0.75271 0.69519 0.82905 0.0
C215 C 0.78114 0.68329 0.81694 0.0
H216 H 0.95294 0.75912 0.22028 0.0
H217 H 0.8682 0.65603 0.17229 0.0
H218 H 0.02245 0.78026 0.19889 0.0
H219 H 0.93833 0.67658 0.15098 0.0
H220 H 0.0582 0.78559 0.10644 0.0
H221 H 0.98933 0.74385 0.12917 0.0
H222 H 0.0773 0.75962 0.18415 0.0
H223 H 0.14654 0.80253 0.16144 0.0
C224 C 0.94923 0.74022 0.20537 0.0
C225 C 0.90488 0.7063 0.19787 0.0
C226 C 0.98928 0.75213 0.19314 0.0
C227 C 0.98606 0.73041 0.17309 0.0
C228 C 0.94198 0.6945 0.1662 0.0
C229 C 0.90181 0.6825 0.17848 0.0
C230 C 0.06294 0.77949 0.12328 0.0
C231 C 0.10799 0.79808 0.13217 0.0
C232 C 0.0233 0.75519 0.13632 0.0
C233 C 0.02769 0.74878 0.15859 0.0
C234 C 0.07268 0.76467 0.16715 0.0
C235 C 0.11239 0.78904 0.15409 0.0
H236 H 0.23999 0.04053 0.43911 0.0
H237 H 0.34448 0.12926 0.48578 0.0
H238 H 0.22011 0.97294 0.46159 0.0
H239 H 0.32538 0.06099 0.50815 0.0
H240 H 0.21906 0.94457 0.55468 0.0
H241 H 0.25999 0.01153 0.53085 0.0
H242 H 0.24079 0.91947 0.47718 0.0
H243 H 0.19843 0.85214 0.50098 0.0
C244 C 0.2595 0.04552 0.45396 0.0
C245 C 0.29337 0.09045 0.46078 0.0
C246 C 0.24832 0.00655 0.46682 0.0
C247 C 0.27085 0.01143 0.48682 0.0
C248 C 0.30679 0.05606 0.49301 0.0
C249 C 0.31795 0.09517 0.48012 0.0
C250 C 0.22424 0.93853 0.53789 0.0
C251 C 0.20473 0.89291 0.52967 0.0
C252 C 0.24809 0.97708 0.52421 0.0
C253 C 0.25323 0.97099 0.50198 0.0
C254 C 0.23663 0.92542 0.49411 0.0
C255 C 0.21258 0.8868 0.5078 0.0
H256 H 0.34423 0.20952 0.8403 0.0
H257 H 0.26004 0.21607 0.89237 0.0
H258 H 0.32189 0.25535 0.81729 0.0
H259 H 0.23723 0.26101 0.86936 0.0
H260 H 0.21037 0.35327 0.82673 0.0
H261 H 0.25798 0.33194 0.84903 0.0
H262 H 0.24773 0.23435 0.79974 0.0
H263 H 0.201 0.25611 0.77738 0.0
C264 C 0.32179 0.22155 0.84701 0.0
C265 C 0.30341 0.20858 0.86809 0.0
C266 C 0.30874 0.24756 0.83377 0.0
C267 C 0.2773 0.26138 0.84137 0.0
C268 C 0.26175 0.2513 0.86299 0.0
C269 C 0.27462 0.22519 0.87617 0.0
C270 C 0.21918 0.32804 0.82044 0.0
C271 C 0.20132 0.30592 0.80039 0.0
C272 C 0.24626 0.31564 0.83329 0.0
C273 C 0.25625 0.28105 0.82631 0.0
C274 C 0.24108 0.26138 0.80559 0.0
C275 C 0.21393 0.27364 0.7928 0.0
H276 H 0.62668 0.55903 0.26197 0.0
H277 H 0.62267 0.56297 0.19194 0.0
H278 H 0.54221 0.51348 0.26308 0.0
H279 H 0.53744 0.51493 0.19294 0.0
H280 H 0.38148 0.46395 0.20366 0.0
H281 H 0.46658 0.51391 0.20197 0.0
H282 H 0.48059 0.43905 0.25633 0.0
H283 H 0.39664 0.39144 0.25864 0.0
C284 C 0.60777 0.54938 0.24674 0.0
C285 C 0.6315 0.56433 0.22685 0.0
C286 C 0.5591 0.52303 0.24736 0.0
C287 C 0.53268 0.51008 0.22809 0.0
C288 C 0.55648 0.52473 0.20813 0.0
C289 C 0.60537 0.5518 0.20753 0.0
C290 C 0.40289 0.45875 0.21538 0.0
C291 C 0.38218 0.42397 0.23138 0.0
C292 C 0.45169 0.48701 0.21429 0.0
C293 C 0.48071 0.48072 0.22905 0.0
C294 C 0.45965 0.44584 0.24498 0.0
C295 C 0.41121 0.41823 0.24625 0.0
H296 H 0.08611 0.6265 0.52604 0.0
H297 H 0.98854 0.58919 0.57927 0.0
H298 H 0.05928 0.54357 0.51997 0.0
H299 H 0.96194 0.50707 0.57315 0.0
H300 H 0.89614 0.36113 0.54562 0.0
H301 H 0.9194 0.44396 0.5452 0.0
H302 H 0.06447 0.48093 0.5416 0.0
H303 H 0.04143 0.39849 0.54202 0.0
C304 C 0.05888 0.60068 0.53635 0.0
C305 C 0.0397 0.61441 0.55322 0.0
C306 C 0.04358 0.55331 0.53289 0.0
C307 C 0.00833 0.5189 0.54601 0.0
C308 C 0.98866 0.53272 0.56258 0.0
C309 C 0.0043 0.57987 0.56621 0.0
C310 C 0.93292 0.38694 0.54443 0.0
C311 C 0.96696 0.37333 0.54409 0.0
C312 C 0.94623 0.4343 0.54427 0.0
C313 C 0.99377 0.46885 0.54349 0.0
C314 C 0.0276 0.45511 0.54206 0.0
C315 C 0.01435 0.40787 0.54247 0.0
H316 H 0.46358 0.09781 0.89082 0.0
H317 H 0.35177 0.95465 0.88609 0.0
H318 H 0.52059 0.07091 0.89228 0.0
H319 H 0.40854 0.92806 0.88738 0.0
H320 H 0.53218 0.90504 0.86931 0.0
H321 H 0.47646 0.93299 0.865 0.0
H322 H 0.53709 0.02353 0.92039 0.0
H323 H 0.59222 0.99557 0.92488 0.0
C324 C 0.45126 0.06074 0.8899 0.0
C325 C 0.40326 0.02835 0.88851 0.0
C326 C 0.48378 0.04535 0.89083 0.0
C327 C 0.46887 0.99739 0.88999 0.0
C328 C 0.42101 0.9652 0.88791 0.0
C329 C 0.38854 0.98048 0.88733 0.0
C330 C 0.5334 0.93071 0.88061 0.0
C331 C 0.56645 0.94789 0.89749 0.0
C332 C 0.5016 0.94671 0.87814 0.0
C333 C 0.5028 0.9807 0.89226 0.0
C334 C 0.53581 0.99781 0.9091 0.0
C335 C 0.56706 0.98137 0.91177 0.0
H336 H 0.52898 0.62267 0.4476 0.0
H337 H 0.63806 0.58811 0.45616 0.0
H338 H 0.47118 0.53952 0.44486 0.0
H339 H 0.58041 0.50533 0.45341 0.0
H340 H 0.45399 0.35767 0.46505 0.0
H341 H 0.50973 0.44019 0.47207 0.0
H342 H 0.45674 0.47885 0.41652 0.0
H343 H 0.40143 0.39699 0.40946 0.0
C344 C 0.54052 0.59737 0.44918 0.0
C345 C 0.5881 0.61196 0.45193 0.0
C346 C 0.50751 0.54983 0.44748 0.0
C347 C 0.52138 0.516 0.44877 0.0
C348 C 0.56865 0.53055 0.45248 0.0
C349 C 0.60167 0.57801 0.45393 0.0
C350 C 0.4544 0.38381 0.45432 0.0
C351 C 0.42337 0.37072 0.43667 0.0
C352 C 0.48626 0.43099 0.45834 0.0
C353 C 0.48724 0.46593 0.44495 0.0
C354 C 0.45628 0.45276 0.42732 0.0
C355 C 0.4249 0.40575 0.42317 0.0
H356 H 0.90731 0.52732 0.74316 0.0
H357 H 0.9583 0.58212 0.8073 0.0
H358 H 0.95196 0.48689 0.74382 0.0
H359 H 0.00388 0.54268 0.8077 0.0
H360 H 0.04559 0.42875 0.80766 0.0
H361 H 0.99964 0.46777 0.80891 0.0
H362 H 0.03324 0.50784 0.74167 0.0
H363 H 0.07817 0.46777 0.74024 0.0
C364 C 0.92768 0.53041 0.75749 0.0
C365 C 0.92933 0.55813 0.77513 0.0
C366 C 0.95373 0.50766 0.75777 0.0
C367 C 0.98215 0.51217 0.77567 0.0
C368 C 0.98226 0.53829 0.79369 0.0
C369 C 0.95609 0.56095 0.79344 0.0
C370 C 0.04365 0.44634 0.7932 0.0
C371 C 0.06537 0.44486 0.7738 0.0
C372 C 0.01729 0.46876 0.79393 0.0
C373 C 0.01215 0.49037 0.7753 0.0
C374 C 0.03552 0.49057 0.75617 0.0
C375 C 0.06176 0.46804 0.75542 0.0
H376 H 0.38782 0.96366 0.13503 0.0
H377 H 0.38961 0.91784 0.06954 0.0
H378 H 0.47306 0.00777 0.1352 0.0
H379 H 0.47467 0.96086 0.0699 0.0
H380 H 0.62108 0.08386 0.06678 0.0
H381 H 0.53611 0.04089 0.06871 0.0
H382 H 0.54334 0.00253 0.13506 0.0
H383 H 0.6285 0.04661 0.1333 0.0
C384 C 0.40638 0.96226 0.12081 0.0
C385 C 0.38185 0.93738 0.10222 0.0
C386 C 0.45531 0.98759 0.12091 0.0
C387 C 0.48081 0.98848 0.10245 0.0
C388 C 0.4562 0.96195 0.08421 0.0
C389 C 0.40736 0.93684 0.08408 0.0
C390 C 0.60459 0.06676 0.08187 0.0
C391 C 0.63164 0.0686 0.09985 0.0
C392 C 0.55581 0.04167 0.08292 0.0
C393 C 0.53278 0.01753 0.10193 0.0
C394 C 0.55985 0.02083 0.12019 0.0
C395 C 0.60873 0.04615 0.11917 0.0
H396 H 0.34828 0.09589 0.12033 0.0
H397 H 0.21643 0.00714 0.15236 0.0
H398 H 0.34972 0.16455 0.13577 0.0
H399 H 0.2183 0.07566 0.16799 0.0
H400 H 0.21179 0.20915 0.17336 0.0
H401 H 0.21182 0.14313 0.15581 0.0
H402 H 0.35797 0.20136 0.17161 0.0
H403 H 0.35826 0.2678 0.18888 0.0
C404 C 0.31973 0.09101 0.13073 0.0
C405 C 0.28223 0.04611 0.13512 0.0
C406 C 0.32065 0.13031 0.13962 0.0
C407 C 0.28402 0.12544 0.15299 0.0
C408 C 0.24667 0.08052 0.15746 0.0
C409 C 0.2458 0.04126 0.14864 0.0
C410 C 0.24404 0.20809 0.17294 0.0
C411 C 0.28498 0.24361 0.18258 0.0
C412 C 0.24395 0.17013 0.16301 0.0
C413 C 0.28481 0.16695 0.16249 0.0
C414 C 0.32606 0.20306 0.17162 0.0
C415 C 0.32613 0.241 0.18159 0.0
H416 H 0.02368 0.20945 0.5385 0.0
H417 H 0.00226 0.26123 0.47764 0.0
H418 H 0.0961 0.21692 0.52454 0.0
H419 H 0.07443 0.26796 0.46358 0.0
H420 H 0.23104 0.3239 0.4554 0.0
H421 H 0.15904 0.31629 0.4701 0.0
H422 H 0.1234 0.18204 0.49723 0.0
H423 H 0.19573 0.18989 0.48286 0.0
C424 C 0.03422 0.22208 0.52208 0.0
C425 C 0.00728 0.23483 0.50917 0.0
C426 C 0.07563 0.22619 0.51407 0.0
C427 C 0.09101 0.2432 0.49301 0.0
C428 C 0.06377 0.25538 0.48 0.0
C429 C 0.02227 0.25118 0.48799 0.0
C430 C 0.20801 0.29289 0.46461 0.0
C431 C 0.21905 0.25747 0.46794 0.0
C432 C 0.1666 0.28839 0.47288 0.0
C433 C 0.13545 0.24843 0.48467 0.0
C434 C 0.14692 0.21341 0.48835 0.0
C435 C 0.18829 0.21787 0.48006 0.0
H436 H 0.93213 0.2839 0.83006 0.0
H437 H 0.99661 0.19987 0.81831 0.0
H438 H 0.86412 0.21632 0.84549 0.0
H439 H 0.92903 0.13257 0.83423 0.0
H440 H 0.77998 0.01125 0.84079 0.0
H441 H 0.84748 0.07966 0.82549 0.0
H442 H 0.84017 0.16502 0.87674 0.0
H443 H 0.77201 0.0969 0.89174 0.0
C444 C 0.93201 0.25114 0.83097 0.0
C445 C 0.96969 0.2472 0.82291 0.0
C446 C 0.89309 0.21245 0.83989 0.0
C447 C 0.89111 0.16905 0.84099 0.0
C448 C 0.92918 0.16534 0.83327 0.0
C449 C 0.96804 0.204 0.8243 0.0
C450 C 0.79263 0.04466 0.84872 0.0
C451 C 0.77066 0.04868 0.86746 0.0
C452 C 0.83152 0.08378 0.84006 0.0
C453 C 0.84932 0.12769 0.84999 0.0
C454 C 0.82699 0.13177 0.86859 0.0
C455 C 0.78802 0.09269 0.87722 0.0
H456 H 0.80701 0.00292 0.14371 0.0
H457 H 0.66526 0.91327 0.12165 0.0
H458 H 0.81019 0.93512 0.1566 0.0
H459 H 0.66794 0.84532 0.1352 0.0
H460 H 0.70714 0.73104 0.14182 0.0
H461 H 0.70426 0.79871 0.12787 0.0
H462 H 0.77866 0.87774 0.18464 0.0
H463 H 0.7828 0.81103 0.19818 0.0
C464 C 0.77631 0.96875 0.14185 0.0
C465 C 0.73583 0.96344 0.13172 0.0
C466 C 0.77808 0.92986 0.14929 0.0
C467 C 0.73929 0.88479 0.14695 0.0
C468 C 0.69865 0.8795 0.13696 0.0
C469 C 0.69698 0.91845 0.12937 0.0
C470 C 0.72307 0.76298 0.15123 0.0
C471 C 0.74537 0.76575 0.17103 0.0
C472 C 0.72113 0.80162 0.14332 0.0
C473 C 0.74127 0.84363 0.15514 0.0
C474 C 0.76351 0.84621 0.17495 0.0
C475 C 0.7657 0.80783 0.18275 0.0
H476 H 0.80096 0.76713 0.46162 0.0
H477 H 0.74456 0.76038 0.52572 0.0
H478 H 0.86645 0.76352 0.47747 0.0
H479 H 0.81092 0.75774 0.54164 0.0
H480 H 0.90437 0.69497 0.55832 0.0
H481 H 0.84027 0.70298 0.54358 0.0
H482 H 0.93605 0.80906 0.49927 0.0
H483 H 0.0 0.8004 0.51366 0.0
C484 C 0.80275 0.76531 0.47912 0.0
C485 C 0.76747 0.76388 0.49242 0.0
C486 C 0.84047 0.76352 0.48821 0.0
C487 C 0.84385 0.76034 0.5108 0.0
C488 C 0.80894 0.7596 0.52415 0.0
C489 C 0.77111 0.76138 0.51504 0.0
C490 C 0.91177 0.72003 0.54544 0.0
C491 C 0.9572 0.74685 0.53706 0.0
C492 C 0.87509 0.72486 0.53712 0.0
C493 C 0.88312 0.75664 0.52027 0.0
C494 C 0.92867 0.78383 0.51206 0.0
C495 C 0.96532 0.77897 0.52036 0.0
H496 H 0.27775 0.94447 0.84058 0.0
H497 H 0.19493 0.01213 0.83993 0.0
H498 H 0.20938 0.87094 0.83062 0.0
H499 H 0.127 0.93967 0.82817 0.0
H500 H 0.00144 0.79529 0.83058 0.0
H501 H 0.07091 0.86825 0.84054 0.0
H502 H 0.1566 0.82578 0.8049 0.0
H503 H 0.08741 0.7516 0.79667 0.0
C504 C 0.24504 0.94375 0.83762 0.0
C505 C 0.24137 0.9837 0.84094 0.0
C506 C 0.20573 0.9016 0.83185 0.0
C507 C 0.16217 0.89888 0.82868 0.0
C508 C 0.15938 0.93979 0.83106 0.0
C509 C 0.1984 0.98155 0.83749 0.0
C510 C 0.03536 0.8016 0.8252 0.0
C511 C 0.03934 0.7679 0.8131 0.0
C512 C 0.07521 0.84365 0.83061 0.0
C513 C 0.11975 0.85349 0.8234 0.0
C514 C 0.12332 0.81941 0.8112 0.0
C515 C 0.08362 0.77683 0.80638 0.0
H516 H 0.3126 0.20848 0.36983 0.0
H517 H 0.1832 0.20112 0.38906 0.0
H518 H 0.29643 0.21769 0.33195 0.0
H519 H 0.16752 0.21089 0.35125 0.0
H520 H 0.20296 0.29942 0.28651 0.0
H521 H 0.2094 0.28001 0.3242 0.0
H522 H 0.23477 0.17067 0.30227 0.0
H523 H 0.22784 0.18951 0.26464 0.0
C524 C 0.28057 0.20843 0.36595 0.0
C525 C 0.24921 0.2041 0.38241 0.0
C526 C 0.27126 0.21351 0.3443 0.0
C527 C 0.23079 0.2151 0.33876 0.0
C528 C 0.19907 0.21003 0.35515 0.0
C529 C 0.20799 0.20418 0.37674 0.0
C530 C 0.20926 0.27083 0.28974 0.0
C531 C 0.21501 0.2461 0.27261 0.0
C532 C 0.21281 0.25966 0.31128 0.0
C533 C 0.22284 0.22404 0.31606 0.0
C534 C 0.22739 0.19853 0.29898 0.0
C535 C 0.22313 0.20919 0.27746 0.0
H536 H 0.98831 0.18559 0.61583 0.0
H537 H 0.9022 0.2493 0.6225 0.0
H538 H 0.01191 0.20341 0.65373 0.0
H539 H 0.92658 0.26798 0.66018 0.0
H540 H 0.94676 0.25899 0.73216 0.0
H541 H 0.91962 0.23324 0.69536 0.0
H542 H 0.06014 0.2718 0.67598 0.0
H543 H 0.08725 0.29667 0.7131 0.0
C544 C 0.97419 0.20315 0.6254 0.0
C545 C 0.94341 0.21608 0.61612 0.0
C546 C 0.98803 0.21369 0.64707 0.0
C547 C 0.97138 0.23737 0.65995 0.0
C548 C 0.93968 0.24924 0.6508 0.0
C549 C 0.9258 0.23866 0.62915 0.0
C550 C 0.97193 0.26187 0.7201 0.0
C551 C 0.01925 0.28011 0.72554 0.0
C552 C 0.95635 0.24728 0.69895 0.0
C553 C 0.98771 0.25069 0.68269 0.0
C554 C 0.03496 0.26822 0.68819 0.0
C555 C 0.05057 0.28274 0.70942 0.0
H556 H 0.79216 0.10494 0.03595 0.0
H557 H 0.79764 0.98491 0.05986 0.0
H558 H 0.78102 0.07371 -0.00106 0.0
H559 H 0.78521 0.95337 0.02303 0.0
H560 H 0.68854 0.89659 0.95889 0.0
H561 H 0.709 0.92782 0.99585 0.0
H562 H 0.83231 0.04911 0.97146 0.0
H563 H 0.81282 0.01751 0.93461 0.0
C564 C 0.79132 0.07216 0.03327 0.0
C565 C 0.79589 0.04743 0.05074 0.0
C566 C 0.78506 0.05441 0.01217 0.0
C567 C 0.78221 0.0112 0.00832 0.0
C568 C 0.78724 0.98672 0.0257 0.0
C569 C 0.79458 0.00493 0.0467 0.0
C570 C 0.72039 0.92952 0.96149 0.0
C571 C 0.7492 0.95452 0.94393 0.0
C572 C 0.73205 0.9473 0.98257 0.0
C573 C 0.77205 0.99084 0.98632 0.0
C574 C 0.80123 0.01552 0.96886 0.0
C575 C 0.7902 0.99725 0.94786 0.0
H576 H 0.79657 0.70685 0.28603 0.0
H577 H 0.69915 0.75143 0.26668 0.0
H578 H 0.79138 0.72754 0.32359 0.0
H579 H 0.69479 0.77293 0.30398 0.0
H580 H 0.65253 0.74635 0.37586 0.0
H581 H 0.66209 0.73285 0.33786 0.0
H582 H 0.81083 0.79355 0.34766 0.0
H583 H 0.80119 0.80624 0.38586 0.0
C584 C 0.77444 0.72147 0.28975 0.0
C585 C 0.74803 0.72717 0.27341 0.0
C586 C 0.77165 0.73357 0.31124 0.0
C587 C 0.74247 0.75167 0.31678 0.0
C588 C 0.71697 0.75835 0.30032 0.0
C589 C 0.71967 0.7462 0.27891 0.0
C590 C 0.68735 0.75724 0.36989 0.0
C591 C 0.72606 0.77723 0.38392 0.0
C592 C 0.69287 0.74965 0.34807 0.0
C593 C 0.73722 0.76198 0.33975 0.0
C594 C 0.77611 0.78304 0.35365 0.0
C595 C 0.7706 0.79063 0.3755 0.0
H596 H 0.09379 0.74067 0.62015 0.0
H597 H 0.02863 0.82583 0.61578 0.0
H598 H 0.06705 0.72102 0.65741 0.0
H599 H 0.00266 0.80685 0.65341 0.0
H600 H 0.91621 0.71262 0.71121 0.0
H601 H 0.94598 0.73894 0.67446 0.0
H602 H 0.079 0.75416 0.69318 0.0
H603 H 0.04918 0.72699 0.72943 0.0
C604 C 0.07442 0.75586 0.62725 0.0
C605 C 0.06332 0.7848 0.61496 0.0
C606 C 0.05916 0.74466 0.64867 0.0
C607 C 0.03256 0.76224 0.65837 0.0
C608 C 0.02251 0.79222 0.64629 0.0
C609 C 0.0378 0.80345 0.62481 0.0
C610 C 0.95179 0.72165 0.70743 0.0
C611 C 0.98014 0.71728 0.72317 0.0
C612 C 0.96896 0.73704 0.68645 0.0
C613 C 0.01481 0.74842 0.68088 0.0
C614 C 0.0433 0.7449 0.6968 0.0
C615 C 0.02616 0.72943 0.71764 0.0
H616 H 0.2272 0.90004 0.04077 0.0
H617 H 0.20333 0.01213 0.05997 0.0
H618 H 0.23447 0.92521 0.00296 0.0
H619 H 0.21109 0.03742 0.02219 0.0
H620 H 0.29608 0.09822 0.95708 0.0
H621 H 0.27988 0.07206 0.99488 0.0
H622 H 0.18321 0.93199 0.97338 0.0
H623 H 0.19887 0.95789 0.93572 0.0
C624 C 0.22313 0.92977 0.0369 0.0
C625 C 0.21468 0.95407 0.05333 0.0
C626 C 0.22714 0.94407 0.01528 0.0
C627 C 0.22346 0.98333 0.00972 0.0
C628 C 0.21439 0.00725 0.02609 0.0
C629 C 0.20965 0.99253 0.04767 0.0
C630 C 0.27099 0.06198 0.96044 0.0
C631 C 0.24891 0.03012 0.94341 0.0
C632 C 0.26162 0.04707 0.98205 0.0
C633 C 0.23051 -4e-05 0.98698 0.0
C634 C 0.20766 0.9684 0.96999 0.0
C635 C 0.21649 0.98337 0.94844 0.0
loop_
_geom_bond_atom_site_label_1
_geom_bond_atom_site_label_2
_geom_bond_distance
_geom_bond_site_symmetry_2
_ccdc_geom_bond_type
C0 O1 1.160 . S
C0 O7 1.185 . S
O1 C0 1.160 . S
O2 Zn3 1.899 . S
O2 C10 1.284 . S
Zn3 O2 1.899 . S
Zn3 O4 2.032 . S
Zn3 O7 2.086 . S
Zn3 O12 1.977 . S
O4 Zn3 2.032 . S
O4 C8 1.278 . S
C5 O6 1.203 . S
C5 O12 1.267 . S
O6 C5 1.203 . S
O7 C0 1.185 . S
O7 Zn3 2.086 . S
C8 O4 1.278 . S
C8 O9 1.211 . S
O9 C8 1.211 . S
C10 O2 1.284 . S
C10 O11 1.273 . S
O11 C10 1.273 . S
O12 Zn3 1.977 . S
O12 C5 1.267 . S
C13 O14 1.160 . S
C13 O20 1.185 . S
O14 C13 1.160 . S
O15 Zn16 1.899 . S
O15 C23 1.284 . S
Zn16 O15 1.899 . S
Zn16 O17 2.032 . S
Zn16 O20 2.086 . S
Zn16 O25 1.977 . S
O17 Zn16 2.032 . S
O17 C21 1.278 1_655 S
C18 O19 1.203 . S
C18 O25 1.267 . S
O19 C18 1.203 . S
O20 C13 1.185 . S
O20 Zn16 2.086 . S
C21 O17 1.278 1_455 S
C21 O22 1.211 . S
O22 C21 1.211 . S
C23 O15 1.284 . S
C23 O24 1.273 1_655 S
O24 C23 1.273 1_455 S
O25 Zn16 1.977 . S
O25 C18 1.267 . S
C26 O27 1.160 . S
C26 O33 1.185 . S
O27 C26 1.160 . S
O28 Zn29 1.899 . S
O28 C36 1.284 . S
Zn29 O28 1.899 . S
Zn29 O30 2.032 . S
Zn29 O33 2.086 . S
Zn29 O38 1.977 . S
O30 Zn29 2.032 . S
O30 C34 1.278 1_565 S
C31 O32 1.203 . S
C31 O38 1.267 . S
O32 C31 1.203 . S
O33 C26 1.185 . S
O33 Zn29 2.086 . S
C34 O30 1.278 1_545 S
C34 O35 1.211 . S
O35 C34 1.211 . S
C36 O28 1.284 . S
C36 O37 1.273 1_565 S
O37 C36 1.273 1_545 S
O38 Zn29 1.977 . S
O38 C31 1.267 . S
C39 O40 1.160 . S
C39 O46 1.185 . S
O40 C39 1.160 . S
O41 Zn42 1.899 . S
O41 C49 1.284 . S
Zn42 O41 1.899 . S
Zn42 O43 2.032 . S
Zn42 O46 2.086 . S
Zn42 O51 1.977 . S
O43 Zn42 2.032 . S
O43 C47 1.278 . S
C44 O45 1.203 . S
C44 O51 1.267 . S
O45 C44 1.203 . S
O46 C39 1.185 . S
O46 Zn42 2.086 . S
C47 O43 1.278 . S
C47 O48 1.211 . S
O48 C47 1.211 . S
C49 O41 1.284 . S
C49 O50 1.273 . S
O50 C49 1.273 . S
O51 Zn42 1.977 . S
O51 C44 1.267 . S
C52 O53 1.160 . S
C52 O59 1.185 . S
O53 C52 1.160 . S
O54 Zn55 1.899 . S
O54 C62 1.284 . S
Zn55 O54 1.899 . S
Zn55 O56 2.032 . S
Zn55 O59 2.086 . S
Zn55 O64 1.977 . S
O56 Zn55 2.032 . S
O56 C60 1.278 1_455 S
C57 O58 1.203 . S
C57 O64 1.267 . S
O58 C57 1.203 . S
O59 C52 1.185 . S
O59 Zn55 2.086 . S
C60 O56 1.278 1_655 S
C60 O61 1.211 . S
O61 C60 1.211 . S
C62 O54 1.284 . S
C62 O63 1.273 1_455 S
O63 C62 1.273 1_655 S
O64 Zn55 1.977 . S
O64 C57 1.267 . S
C65 O66 1.160 . S
C65 O72 1.185 . S
O66 C65 1.160 . S
O67 Zn68 1.899 . S
O67 C75 1.284 . S
Zn68 O67 1.899 . S
Zn68 O69 2.032 . S
Zn68 O72 2.086 . S
Zn68 O77 1.977 . S
O69 Zn68 2.032 . S
O69 C73 1.278 1_545 S
C70 O71 1.203 . S
C70 O77 1.267 . S
O71 C70 1.203 . S
O72 C65 1.185 . S
O72 Zn68 2.086 . S
C73 O69 1.278 1_565 S
C73 O74 1.211 . S
O74 C73 1.211 . S
C75 O67 1.284 . S
C75 O76 1.273 1_545 S
O76 C75 1.273 1_565 S
O77 Zn68 1.977 . S
O77 C70 1.267 . S
C78 O79 1.160 . S
C78 O85 1.185 . S
O79 C78 1.160 . S
O80 Zn81 1.899 . S
O80 C88 1.284 . S
Zn81 O80 1.899 . S
Zn81 O82 2.032 . S
Zn81 O85 2.086 . S
Zn81 O90 1.977 . S
O82 Zn81 2.032 . S
O82 C86 1.278 . S
C83 O84 1.203 . S
C83 O90 1.267 . S
O84 C83 1.203 . S
O85 C78 1.185 . S
O85 Zn81 2.086 . S
C86 O82 1.278 . S
C86 O87 1.211 . S
O87 C86 1.211 . S
C88 O80 1.284 . S
C88 O89 1.273 . S
O89 C88 1.273 . S
O90 Zn81 1.977 . S
O90 C83 1.267 . S
C91 O92 1.160 . S
C91 O98 1.185 . S
O92 C91 1.160 . S
O93 Zn94 1.899 . S
O93 C101 1.284 . S
Zn94 O93 1.899 . S
Zn94 O95 2.032 . S
Zn94 O98 2.086 . S
Zn94 O103 1.977 . S
O95 Zn94 2.032 . S
O95 C99 1.278 1_655 S
C96 O97 1.203 . S
C96 O103 1.267 . S
O97 C96 1.203 . S
O98 C91 1.185 . S
O98 Zn94 2.086 . S
C99 O95 1.278 1_455 S
C99 O100 1.211 . S
O100 C99 1.211 . S
C101 O93 1.284 . S
C101 O102 1.273 1_655 S
O102 C101 1.273 1_455 S
O103 Zn94 1.977 . S
O103 C96 1.267 . S
C104 O105 1.160 . S
C104 O111 1.185 . S
O105 C104 1.160 . S
O106 Zn107 1.899 . S
O106 C114 1.284 . S
Zn107 O106 1.899 . S
Zn107 O108 2.032 . S
Zn107 O111 2.086 . S
Zn107 O116 1.977 . S
O108 Zn107 2.032 . S
O108 C112 1.278 1_565 S
C109 O110 1.203 . S
C109 O116 1.267 . S
O110 C109 1.203 . S
O111 C104 1.185 . S
O111 Zn107 2.086 . S
C112 O108 1.278 1_545 S
C112 O113 1.211 . S
O113 C112 1.211 . S
C114 O106 1.284 . S
C114 O115 1.273 1_565 S
O115 C114 1.273 1_545 S
O116 Zn107 1.977 . S
O116 C109 1.267 . S
C117 O118 1.160 . S
C117 O124 1.185 . S
O118 C117 1.160 . S
O119 Zn120 1.899 . S
O119 C127 1.284 . S
Zn120 O119 1.899 . S
Zn120 O121 2.032 . S
Zn120 O124 2.086 . S
Zn120 O129 1.977 . S
O121 Zn120 2.032 . S
O121 C125 1.278 . S
C122 O123 1.203 . S
C122 O129 1.267 . S
O123 C122 1.203 . S
O124 C117 1.185 . S
O124 Zn120 2.086 . S
C125 O121 1.278 . S
C125 O126 1.211 . S
O126 C125 1.211 . S
C127 O119 1.284 . S
C127 O128 1.273 . S
O128 C127 1.273 . S
O129 Zn120 1.977 . S
O129 C122 1.267 . S
C130 O131 1.160 . S
C130 O137 1.185 . S
O131 C130 1.160 . S
O132 Zn133 1.899 . S
O132 C140 1.284 . S
Zn133 O132 1.899 . S
Zn133 O134 2.032 . S
Zn133 O137 2.086 . S
Zn133 O142 1.977 . S
O134 Zn133 2.032 . S
O134 C138 1.278 1_455 S
C135 O136 1.203 . S
C135 O142 1.267 . S
O136 C135 1.203 . S
O137 C130 1.185 . S
O137 Zn133 2.086 . S
C138 O134 1.278 1_655 S
C138 O139 1.211 . S
O139 C138 1.211 . S
C140 O132 1.284 . S
C140 O141 1.273 1_455 S
O141 C140 1.273 1_655 S
O142 Zn133 1.977 . S
O142 C135 1.267 . S
C143 O144 1.160 . S
C143 O150 1.185 . S
O144 C143 1.160 . S
O145 Zn146 1.899 . S
O145 C153 1.284 . S
Zn146 O145 1.899 . S
Zn146 O147 2.032 . S
Zn146 O150 2.086 . S
Zn146 O155 1.977 . S
O147 Zn146 2.032 . S
O147 C151 1.278 1_545 S
C148 O149 1.203 . S
C148 O155 1.267 . S
O149 C148 1.203 . S
O150 C143 1.185 . S
O150 Zn146 2.086 . S
C151 O147 1.278 1_565 S
C151 O152 1.211 . S
O152 C151 1.211 . S
C153 O145 1.284 . S
C153 O154 1.273 1_545 S
O154 C153 1.273 1_565 S
O155 Zn146 1.977 . S
O155 C148 1.267 . S
H156 C164 0.950 . S
H157 C169 0.950 . S
H158 C166 0.950 . S
H159 C168 0.950 . S
H160 C170 0.950 . S
H161 C172 0.950 . S
H162 C174 0.950 . S
H163 C175 0.950 . S
C164 H156 0.950 . S
C164 C165 1.386 . S
C164 C166 1.391 . S
C165 C164 1.386 . S
C165 C169 1.393 . S
C166 H158 0.950 . S
C166 C164 1.391 . S
C166 C167 1.400 . S
C167 C166 1.400 . S
C167 C168 1.398 . S
C167 C173 1.491 1_655 S
C168 H159 0.950 . S
C168 C167 1.398 . S
C168 C169 1.391 . S
C169 H157 0.950 . S
C169 C165 1.393 . S
C169 C168 1.391 . S
C170 H160 0.950 . S
C170 C171 1.386 . S
C170 C172 1.391 . S
C171 C170 1.386 . S
C171 C175 1.393 . S
C172 H161 0.950 . S
C172 C170 1.391 . S
C172 C173 1.400 . S
C173 C167 1.491 1_455 S
C173 C172 1.400 . S
C173 C174 1.398 . S
C174 H162 0.950 . S
C174 C173 1.398 . S
C174 C175 1.391 . S
C175 H163 0.950 . S
C175 C171 1.393 . S
C175 C174 1.391 . S
H176 C184 0.950 . S
H177 C189 0.950 . S
H178 C186 0.950 . S
H179 C188 0.950 . S
H180 C190 0.950 . S
H181 C192 0.950 . S
H182 C194 0.950 . S
H183 C195 0.950 . S
C184 H176 0.950 . S
C184 C185 1.386 . S
C184 C186 1.391 . S
C185 C184 1.386 . S
C185 C189 1.393 . S
C186 H178 0.950 . S
C186 C184 1.391 . S
C186 C187 1.400 . S
C187 C186 1.400 . S
C187 C188 1.398 . S
C187 C193 1.491 1_545 S
C188 H179 0.950 . S
C188 C187 1.398 . S
C188 C189 1.391 . S
C189 H177 0.950 . S
C189 C185 1.393 . S
C189 C188 1.391 . S
C190 H180 0.950 . S
C190 C191 1.386 . S
C190 C192 1.391 . S
C191 C190 1.386 . S
C191 C195 1.393 . S
C192 H181 0.950 . S
C192 C190 1.391 . S
C192 C193 1.400 . S
C193 C187 1.491 1_565 S
C193 C192 1.400 . S
C193 C194 1.398 . S
C194 H182 0.950 . S
C194 C193 1.398 . S
C194 C195 1.391 . S
C195 H183 0.950 . S
C195 C191 1.393 . S
C195 C194 1.391 . S
H196 C204 0.950 . S
H197 C209 0.950 . S
H198 C206 0.950 . S
H199 C208 0.950 . S
H200 C210 0.950 . S
H201 C212 0.950 . S
H202 C214 0.950 . S
H203 C215 0.950 . S
C204 H196 0.950 . S
C204 C205 1.386 . S
C204 C206 1.391 . S
C205 C204 1.386 . S
C205 C209 1.393 . S
C206 H198 0.950 . S
C206 C204 1.391 . S
C206 C207 1.400 . S
C207 C206 1.400 . S
C207 C208 1.398 . S
C207 C213 1.491 . S
C208 H199 0.950 . S
C208 C207 1.398 . S
C208 C209 1.391 . S
C209 H197 0.950 . S
C209 C205 1.393 . S
C209 C208 1.391 . S
C210 H200 0.950 . S
C210 C211 1.386 . S
C210 C212 1.391 . S
C211 C210 1.386 . S
C211 C215 1.393 . S
C212 H201 0.950 . S
C212 C210 1.391 . S
C212 C213 1.400 . S
C213 C207 1.491 . S
C213 C212 1.400 . S
C213 C214 1.398 . S
C214 H202 0.950 . S
C214 C213 1.398 . S
C214 C215 1.391 . S
C215 H203 0.950 . S
C215 C211 1.393 . S
C215 C214 1.391 . S
H216 C224 0.950 . S
H217 C229 0.950 . S
H218 C226 0.950 . S
H219 C228 0.950 . S
H220 C230 0.950 . S
H221 C232 0.950 . S
H222 C234 0.950 . S
H223 C235 0.950 . S
C224 H216 0.950 . S
C224 C225 1.386 . S
C224 C226 1.391 . S
C225 C224 1.386 . S
C225 C229 1.393 . S
C226 H218 0.950 . S
C226 C224 1.391 . S
C226 C227 1.400 . S
C227 C226 1.400 . S
C227 C228 1.398 . S
C227 C233 1.491 1_655 S
C228 H219 0.950 . S
C228 C227 1.398 . S
C228 C229 1.391 . S
C229 H217 0.950 . S
C229 C225 1.393 . S
C229 C228 1.391 . S
C230 H220 0.950 . S
C230 C231 1.386 . S
C230 C232 1.391 . S
C231 C230 1.386 . S
C231 C235 1.393 . S
C232 H221 0.950 . S
C232 C230 1.391 . S
C232 C233 1.400 . S
C233 C227 1.491 1_455 S
C233 C232 1.400 . S
C233 C234 1.398 . S
C234 H222 0.950 . S
C234 C233 1.398 . S
C234 C235 1.391 . S
C235 H223 0.950 . S
C235 C231 1.393 . S
C235 C234 1.391 . S
H236 C244 0.950 . S
H237 C249 0.950 . S
H238 C246 0.950 . S
H239 C248 0.950 . S
H240 C250 0.950 . S
H241 C252 0.950 . S
H242 C254 0.950 . S
H243 C255 0.950 . S
C244 H236 0.950 . S
C244 C245 1.386 . S
C244 C246 1.391 . S
C245 C244 1.386 . S
C245 C249 1.393 . S
C246 H238 0.950 . S
C246 C244 1.391 . S
C246 C247 1.400 . S
C247 C246 1.400 . S
C247 C248 1.398 . S
C247 C253 1.491 1_545 S
C248 H239 0.950 . S
C248 C247 1.398 . S
C248 C249 1.391 . S
C249 H237 0.950 . S
C249 C245 1.393 . S
C249 C248 1.391 . S
C250 H240 0.950 . S
C250 C251 1.386 . S
C250 C252 1.391 . S
C251 C250 1.386 . S
C251 C255 1.393 . S
C252 H241 0.950 . S
C252 C250 1.391 . S
C252 C253 1.400 . S
C253 C247 1.491 1_565 S
C253 C252 1.400 . S
C253 C254 1.398 . S
C254 H242 0.950 . S
C254 C253 1.398 . S
C254 C255 1.391 . S
C255 H243 0.950 . S
C255 C251 1.393 . S
C255 C254 1.391 . S
H256 C264 0.950 . S
H257 C269 0.950 . S
H258 C266 0.950 . S
H259 C268 0.950 . S
H260 C270 0.950 . S
H261 C272 0.950 . S
H262 C274 0.950 . S
H263 C275 0.950 . S
C264 H256 0.950 . S
C264 C265 1.386 . S
C264 C266 1.391 . S
C265 C264 1.386 . S
C265 C269 1.393 . S
C266 H258 0.950 . S
C266 C264 1.391 . S
C266 C267 1.400 . S
C267 C266 1.400 . S
C267 C268 1.398 . S
C267 C273 1.491 . S
C268 H259 0.950 . S
C268 C267 1.398 . S
C268 C269 1.391 . S
C269 H257 0.950 . S
C269 C265 1.393 . S
C269 C268 1.391 . S
C270 H260 0.950 . S
C270 C271 1.386 . S
C270 C272 1.391 . S
C271 C270 1.386 . S
C271 C275 1.393 . S
C272 H261 0.950 . S
C272 C270 1.391 . S
C272 C273 1.400 . S
C273 C267 1.491 . S
C273 C272 1.400 . S
C273 C274 1.398 . S
C274 H262 0.950 . S
C274 C273 1.398 . S
C274 C275 1.391 . S
C275 H263 0.950 . S
C275 C271 1.393 . S
C275 C274 1.391 . S
H276 C284 0.950 . S
H277 C289 0.950 . S
H278 C286 0.950 . S
H279 C288 0.950 . S
H280 C290 0.950 . S
H281 C292 0.950 . S
H282 C294 0.950 . S
H283 C295 0.950 . S
C284 H276 0.950 . S
C284 C285 1.386 . S
C284 C286 1.391 . S
C285 C284 1.386 . S
C285 C289 1.393 . S
C286 H278 0.950 . S
C286 C284 1.391 . S
C286 C287 1.400 . S
C287 C286 1.400 . S
C287 C288 1.398 . S
C287 C293 1.491 . S
C288 H279 0.950 . S
C288 C287 1.398 . S
C288 C289 1.391 . S
C289 H277 0.950 . S
C289 C285 1.393 . S
C289 C288 1.391 . S
C290 H280 0.950 . S
C290 C291 1.386 . S
C290 C292 1.391 . S
C291 C290 1.386 . S
C291 C295 1.393 . S
C292 H281 0.950 . S
C292 C290 1.391 . S
C292 C293 1.400 . S
C293 C287 1.491 . S
C293 C292 1.400 . S
C293 C294 1.398 . S
C294 H282 0.950 . S
C294 C293 1.398 . S
C294 C295 1.391 . S
C295 H283 0.950 . S
C295 C291 1.393 . S
C295 C294 1.391 . S
H296 C304 0.950 . S
H297 C309 0.950 1_655 S
H298 C306 0.950 . S
H299 C308 0.950 . S
H300 C310 0.950 . S
H301 C312 0.950 . S
H302 C314 0.950 . S
H303 C315 0.950 1_455 S
C304 H296 0.950 . S
C304 C305 1.386 . S
C304 C306 1.391 . S
C305 C304 1.386 . S
C305 C309 1.393 . S
C306 H298 0.950 . S
C306 C304 1.391 . S
C306 C307 1.400 . S
C307 C306 1.400 . S
C307 C308 1.398 1_455 S
C307 C313 1.491 1_455 S
C308 H299 0.950 . S
C308 C307 1.398 1_655 S
C308 C309 1.391 1_655 S
C309 H297 0.950 1_455 S
C309 C305 1.393 . S
C309 C308 1.391 1_455 S
C310 H300 0.950 . S
C310 C311 1.386 . S
C310 C312 1.391 . S
C311 C310 1.386 . S
C311 C315 1.393 . S
C312 H301 0.950 . S
C312 C310 1.391 . S
C312 C313 1.400 . S
C313 C307 1.491 1_655 S
C313 C312 1.400 . S
C313 C314 1.398 1_655 S
C314 H302 0.950 . S
C314 C313 1.398 1_455 S
C314 C315 1.391 1_455 S
C315 H303 0.950 1_655 S
C315 C311 1.393 . S
C315 C314 1.391 1_655 S
H316 C324 0.950 . S
H317 C329 0.950 1_565 S
H318 C326 0.950 . S
H319 C328 0.950 . S
H320 C330 0.950 . S
H321 C332 0.950 . S
H322 C334 0.950 . S
H323 C335 0.950 1_545 S
C324 H316 0.950 . S
C324 C325 1.386 . S
C324 C326 1.391 . S
C325 C324 1.386 . S
C325 C329 1.393 . S
C326 H318 0.950 . S
C326 C324 1.391 . S
C326 C327 1.400 . S
C327 C326 1.400 . S
C327 C328 1.398 1_545 S
C327 C333 1.491 1_545 S
C328 H319 0.950 . S
C328 C327 1.398 1_565 S
C328 C329 1.391 1_565 S
C329 H317 0.950 1_545 S
C329 C325 1.393 . S
C329 C328 1.391 1_545 S
C330 H320 0.950 . S
C330 C331 1.386 . S
C330 C332 1.391 . S
C331 C330 1.386 . S
C331 C335 1.393 . S
C332 H321 0.950 . S
C332 C330 1.391 . S
C332 C333 1.400 . S
C333 C327 1.491 1_565 S
C333 C332 1.400 . S
C333 C334 1.398 1_565 S
C334 H322 0.950 . S
C334 C333 1.398 1_545 S
C334 C335 1.391 1_545 S
C335 H323 0.950 1_565 S
C335 C331 1.393 . S
C335 C334 1.391 1_565 S
H336 C344 0.950 . S
H337 C349 0.950 . S
H338 C346 0.950 . S
H339 C348 0.950 . S
H340 C350 0.950 . S
H341 C352 0.950 . S
H342 C354 0.950 . S
H343 C355 0.950 . S
C344 H336 0.950 . S
C344 C345 1.386 . S
C344 C346 1.391 . S
C345 C344 1.386 . S
C345 C349 1.393 . S
C346 H338 0.950 . S
C346 C344 1.391 . S
C346 C347 1.400 . S
C347 C346 1.400 . S
C347 C348 1.398 . S
C347 C353 1.491 . S
C348 H339 0.950 . S
C348 C347 1.398 . S
C348 C349 1.391 . S
C349 H337 0.950 . S
C349 C345 1.393 . S
C349 C348 1.391 . S
C350 H340 0.950 . S
C350 C351 1.386 . S
C350 C352 1.391 . S
C351 C350 1.386 . S
C351 C355 1.393 . S
C352 H341 0.950 . S
C352 C350 1.391 . S
C352 C353 1.400 . S
C353 C347 1.491 . S
C353 C352 1.400 . S
C353 C354 1.398 . S
C354 H342 0.950 . S
C354 C353 1.398 . S
C354 C355 1.391 . S
C355 H343 0.950 . S
C355 C351 1.393 . S
C355 C354 1.391 . S
H356 C364 0.950 . S
H357 C369 0.950 . S
H358 C366 0.950 . S
H359 C368 0.950 1_455 S
H360 C370 0.950 . S
H361 C372 0.950 . S
H362 C374 0.950 1_655 S
H363 C375 0.950 . S
C364 H356 0.950 . S
C364 C365 1.386 . S
C364 C366 1.391 . S
C365 C364 1.386 . S
C365 C369 1.393 . S
C366 H358 0.950 . S
C366 C364 1.391 . S
C366 C367 1.400 . S
C367 C366 1.400 . S
C367 C368 1.398 . S
C367 C373 1.491 1_655 S
C368 H359 0.950 1_655 S
C368 C367 1.398 . S
C368 C369 1.391 . S
C369 H357 0.950 . S
C369 C365 1.393 . S
C369 C368 1.391 . S
C370 H360 0.950 . S
C370 C371 1.386 . S
C370 C372 1.391 . S
C371 C370 1.386 . S
C371 C375 1.393 . S
C372 H361 0.950 . S
C372 C370 1.391 . S
C372 C373 1.400 . S
C373 C367 1.491 1_455 S
C373 C372 1.400 . S
C373 C374 1.398 . S
C374 H362 0.950 1_455 S
C374 C373 1.398 . S
C374 C375 1.391 . S
C375 H363 0.950 . S
C375 C371 1.393 . S
C375 C374 1.391 . S
H376 C384 0.950 . S
H377 C389 0.950 . S
H378 C386 0.950 . S
H379 C388 0.950 . S
H380 C390 0.950 . S
H381 C392 0.950 . S
H382 C394 0.950 . S
H383 C395 0.950 . S
C384 H376 0.950 . S
C384 C385 1.386 . S
C384 C386 1.391 . S
C385 C384 1.386 . S
C385 C389 1.393 . S
C386 H378 0.950 . S
C386 C384 1.391 . S
C386 C387 1.400 . S
C387 C386 1.400 . S
C387 C388 1.398 1_565 S
C387 C393 1.491 1_565 S
C388 H379 0.950 . S
C388 C387 1.398 1_545 S
C388 C389 1.391 1_545 S
C389 H377 0.950 . S
C389 C385 1.393 . S
C389 C388 1.391 1_565 S
C390 H380 0.950 . S
C390 C391 1.386 . S
C390 C392 1.391 . S
C391 C390 1.386 . S
C391 C395 1.393 . S
C392 H381 0.950 . S
C392 C390 1.391 . S
C392 C393 1.400 . S
C393 C387 1.491 1_545 S
C393 C392 1.400 . S
C393 C394 1.398 1_545 S
C394 H382 0.950 . S
C394 C393 1.398 1_565 S
C394 C395 1.391 1_565 S
C395 H383 0.950 . S
C395 C391 1.393 . S
C395 C394 1.391 1_545 S
H396 C404 0.950 . S
H397 C409 0.950 . S
H398 C406 0.950 . S
H399 C408 0.950 . S
H400 C410 0.950 . S
H401 C412 0.950 . S
H402 C414 0.950 . S
H403 C415 0.950 . S
C404 H396 0.950 . S
C404 C405 1.386 . S
C404 C406 1.391 . S
C405 C404 1.386 . S
C405 C409 1.393 . S
C406 H398 0.950 . S
C406 C404 1.391 . S
C406 C407 1.400 . S
C407 C406 1.400 . S
C407 C408 1.398 . S
C407 C413 1.491 . S
C408 H399 0.950 . S
C408 C407 1.398 . S
C408 C409 1.391 . S
C409 H397 0.950 . S
C409 C405 1.393 . S
C409 C408 1.391 . S
C410 H400 0.950 . S
C410 C411 1.386 . S
C410 C412 1.391 . S
C411 C410 1.386 . S
C411 C415 1.393 . S
C412 H401 0.950 . S
C412 C410 1.391 . S
C412 C413 1.400 . S
C413 C407 1.491 . S
C413 C412 1.400 . S
C413 C414 1.398 . S
C414 H402 0.950 . S
C414 C413 1.398 . S
C414 C415 1.391 . S
C415 H403 0.950 . S
C415 C411 1.393 . S
C415 C414 1.391 . S
H416 C424 0.950 . S
H417 C429 0.950 . S
H418 C426 0.950 . S
H419 C428 0.950 . S
H420 C430 0.950 . S
H421 C432 0.950 . S
H422 C434 0.950 . S
H423 C435 0.950 . S
C424 H416 0.950 . S
C424 C425 1.386 . S
C424 C426 1.391 . S
C425 C424 1.386 . S
C425 C429 1.393 . S
C426 H418 0.950 . S
C426 C424 1.391 . S
C426 C427 1.400 . S
C427 C426 1.400 . S
C427 C428 1.398 . S
C427 C433 1.491 . S
C428 H419 0.950 . S
C428 C427 1.398 . S
C428 C429 1.391 . S
C429 H417 0.950 . S
C429 C425 1.393 . S
C429 C428 1.391 . S
C430 H420 0.950 . S
C430 C431 1.386 . S
C430 C432 1.391 . S
C431 C430 1.386 . S
C431 C435 1.393 . S
C432 H421 0.950 . S
C432 C430 1.391 . S
C432 C433 1.400 . S
C433 C427 1.491 . S
C433 C432 1.400 . S
C433 C434 1.398 . S
C434 H422 0.950 . S
C434 C433 1.398 . S
C434 C435 1.391 . S
C435 H423 0.950 . S
C435 C431 1.393 . S
C435 C434 1.391 . S
H436 C444 0.950 . S
H437 C449 0.950 . S
H438 C446 0.950 . S
H439 C448 0.950 . S
H440 C450 0.950 . S
H441 C452 0.950 . S
H442 C454 0.950 . S
H443 C455 0.950 . S
C444 H436 0.950 . S
C444 C445 1.386 . S
C444 C446 1.391 . S
C445 C444 1.386 . S
C445 C449 1.393 . S
C446 H438 0.950 . S
C446 C444 1.391 . S
C446 C447 1.400 . S
C447 C446 1.400 . S
C447 C448 1.398 . S
C447 C453 1.491 . S
C448 H439 0.950 . S
C448 C447 1.398 . S
C448 C449 1.391 . S
C449 H437 0.950 . S
C449 C445 1.393 . S
C449 C448 1.391 . S
C450 H440 0.950 . S
C450 C451 1.386 . S
C450 C452 1.391 . S
C451 C450 1.386 . S
C451 C455 1.393 . S
C452 H441 0.950 . S
C452 C450 1.391 . S
C452 C453 1.400 . S
C453 C447 1.491 . S
C453 C452 1.400 . S
C453 C454 1.398 . S
C454 H442 0.950 . S
C454 C453 1.398 . S
C454 C455 1.391 . S
C455 H443 0.950 . S
C455 C451 1.393 . S
C455 C454 1.391 . S
H456 C464 0.950 . S
H457 C469 0.950 . S
H458 C466 0.950 . S
H459 C468 0.950 . S
H460 C470 0.950 . S
H461 C472 0.950 . S
H462 C474 0.950 . S
H463 C475 0.950 . S
C464 H456 0.950 . S
C464 C465 1.386 . S
C464 C466 1.391 . S
C465 C464 1.386 . S
C465 C469 1.393 . S
C466 H458 0.950 . S
C466 C464 1.391 . S
C466 C467 1.400 . S
C467 C466 1.400 . S
C467 C468 1.398 . S
C467 C473 1.491 . S
C468 H459 0.950 . S
C468 C467 1.398 . S
C468 C469 1.391 . S
C469 H457 0.950 . S
C469 C465 1.393 . S
C469 C468 1.391 . S
C470 H460 0.950 . S
C470 C471 1.386 . S
C470 C472 1.391 . S
C471 C470 1.386 . S
C471 C475 1.393 . S
C472 H461 0.950 . S
C472 C470 1.391 . S
C472 C473 1.400 . S
C473 C467 1.491 . S
C473 C472 1.400 . S
C473 C474 1.398 . S
C474 H462 0.950 . S
C474 C473 1.398 . S
C474 C475 1.391 . S
C475 H463 0.950 . S
C475 C471 1.393 . S
C475 C474 1.391 . S
H476 C484 0.950 . S
H477 C489 0.950 . S
H478 C486 0.950 . S
H479 C488 0.950 . S
H480 C490 0.950 . S
H481 C492 0.950 . S
H482 C494 0.950 . S
H483 C495 0.950 . S
C484 H476 0.950 . S
C484 C485 1.386 . S
C484 C486 1.391 . S
C485 C484 1.386 . S
C485 C489 1.393 . S
C486 H478 0.950 . S
C486 C484 1.391 . S
C486 C487 1.400 . S
C487 C486 1.400 . S
C487 C488 1.398 . S
C487 C493 1.491 . S
C488 H479 0.950 . S
C488 C487 1.398 . S
C488 C489 1.391 . S
C489 H477 0.950 . S
C489 C485 1.393 . S
C489 C488 1.391 . S
C490 H480 0.950 . S
C490 C491 1.386 . S
C490 C492 1.391 . S
C491 C490 1.386 . S
C491 C495 1.393 . S
C492 H481 0.950 . S
C492 C490 1.391 . S
C492 C493 1.400 . S
C493 C487 1.491 . S
C493 C492 1.400 . S
C493 C494 1.398 . S
C494 H482 0.950 . S
C494 C493 1.398 . S
C494 C495 1.391 . S
C495 H483 0.950 . S
C495 C491 1.393 . S
C495 C494 1.391 . S
H496 C504 0.950 . S
H497 C509 0.950 . S
H498 C506 0.950 . S
H499 C508 0.950 . S
H500 C510 0.950 . S
H501 C512 0.950 . S
H502 C514 0.950 . S
H503 C515 0.950 . S
C504 H496 0.950 . S
C504 C505 1.386 . S
C504 C506 1.391 . S
C505 C504 1.386 . S
C505 C509 1.393 . S
C506 H498 0.950 . S
C506 C504 1.391 . S
C506 C507 1.400 . S
C507 C506 1.400 . S
C507 C508 1.398 . S
C507 C513 1.491 . S
C508 H499 0.950 . S
C508 C507 1.398 . S
C508 C509 1.391 . S
C509 H497 0.950 . S
C509 C505 1.393 . S
C509 C508 1.391 . S
C510 H500 0.950 . S
C510 C511 1.386 . S
C510 C512 1.391 . S
C511 C510 1.386 . S
C511 C515 1.393 . S
C512 H501 0.950 . S
C512 C510 1.391 . S
C512 C513 1.400 . S
C513 C507 1.491 . S
C513 C512 1.400 . S
C513 C514 1.398 . S
C514 H502 0.950 . S
C514 C513 1.398 . S
C514 C515 1.391 . S
C515 H503 0.950 . S
C515 C511 1.393 . S
C515 C514 1.391 . S
H516 C524 0.950 . S
H517 C529 0.950 . S
H518 C526 0.950 . S
H519 C528 0.950 . S
H520 C530 0.950 . S
H521 C532 0.950 . S
H522 C534 0.950 . S
H523 C535 0.950 . S
C524 H516 0.950 . S
C524 C525 1.386 . S
C524 C526 1.391 . S
C525 C524 1.386 . S
C525 C529 1.393 . S
C526 H518 0.950 . S
C526 C524 1.391 . S
C526 C527 1.400 . S
C527 C526 1.400 . S
C527 C528 1.398 . S
C527 C533 1.491 . S
C528 H519 0.950 . S
C528 C527 1.398 . S
C528 C529 1.391 . S
C529 H517 0.950 . S
C529 C525 1.393 . S
C529 C528 1.391 . S
C530 H520 0.950 . S
C530 C531 1.386 . S
C530 C532 1.391 . S
C531 C530 1.386 . S
C531 C535 1.393 . S
C532 H521 0.950 . S
C532 C530 1.391 . S
C532 C533 1.400 . S
C533 C527 1.491 . S
C533 C532 1.400 . S
C533 C534 1.398 . S
C534 H522 0.950 . S
C534 C533 1.398 . S
C534 C535 1.391 . S
C535 H523 0.950 . S
C535 C531 1.393 . S
C535 C534 1.391 . S
H536 C544 0.950 . S
H537 C549 0.950 . S
H538 C546 0.950 . S
H539 C548 0.950 . S
H540 C550 0.950 . S
H541 C552 0.950 . S
H542 C554 0.950 . S
H543 C555 0.950 . S
C544 H536 0.950 . S
C544 C545 1.386 1_455 S
C544 C546 1.391 . S
C545 C544 1.386 1_655 S
C545 C549 1.393 . S
C546 H538 0.950 . S
C546 C544 1.391 . S
C546 C547 1.400 1_455 S
C547 C546 1.400 1_655 S
C547 C548 1.398 . S
C547 C553 1.491 1_655 S
C548 H539 0.950 . S
C548 C547 1.398 . S
C548 C549 1.391 . S
C549 H537 0.950 . S
C549 C545 1.393 . S
C549 C548 1.391 . S
C550 H540 0.950 . S
C550 C551 1.386 1_655 S
C550 C552 1.391 . S
C551 C550 1.386 1_455 S
C551 C555 1.393 . S
C552 H541 0.950 . S
C552 C550 1.391 . S
C552 C553 1.400 1_655 S
C553 C547 1.491 1_455 S
C553 C552 1.400 1_455 S
C553 C554 1.398 . S
C554 H542 0.950 . S
C554 C553 1.398 . S
C554 C555 1.391 . S
C555 H543 0.950 . S
C555 C551 1.393 . S
C555 C554 1.391 . S
H556 C564 0.950 . S
H557 C569 0.950 . S
H558 C566 0.950 . S
H559 C568 0.950 . S
H560 C570 0.950 . S
H561 C572 0.950 . S
H562 C574 0.950 . S
H563 C575 0.950 . S
C564 H556 0.950 . S
C564 C565 1.386 . S
C564 C566 1.391 . S
C565 C564 1.386 . S
C565 C569 1.393 1_545 S
C566 H558 0.950 . S
C566 C564 1.391 . S
C566 C567 1.400 . S
C567 C566 1.400 . S
C567 C568 1.398 1_545 S
C567 C573 1.491 1_544 S
C568 H559 0.950 . S
C568 C567 1.398 1_565 S
C568 C569 1.391 . S
C569 H557 0.950 . S
C569 C565 1.393 1_565 S
C569 C568 1.391 . S
C570 H560 0.950 . S
C570 C571 1.386 . S
C570 C572 1.391 . S
C571 C570 1.386 . S
C571 C575 1.393 1_565 S
C572 H561 0.950 . S
C572 C570 1.391 . S
C572 C573 1.400 . S
C573 C567 1.491 1_566 S
C573 C572 1.400 . S
C573 C574 1.398 1_565 S
C574 H562 0.950 . S
C574 C573 1.398 1_545 S
C574 C575 1.391 . S
C575 H563 0.950 . S
C575 C571 1.393 1_545 S
C575 C574 1.391 . S
H576 C584 0.950 . S
H577 C589 0.950 . S
H578 C586 0.950 . S
H579 C588 0.950 . S
H580 C590 0.950 . S
H581 C592 0.950 . S
H582 C594 0.950 . S
H583 C595 0.950 . S
C584 H576 0.950 . S
C584 C585 1.386 . S
C584 C586 1.391 . S
C585 C584 1.386 . S
C585 C589 1.393 . S
C586 H578 0.950 . S
C586 C584 1.391 . S
C586 C587 1.400 . S
C587 C586 1.400 . S
C587 C588 1.398 . S
C587 C593 1.491 . S
C588 H579 0.950 . S
C588 C587 1.398 . S
C588 C589 1.391 . S
C589 H577 0.950 . S
C589 C585 1.393 . S
C589 C588 1.391 . S
C590 H580 0.950 . S
C590 C591 1.386 . S
C590 C592 1.391 . S
C591 C590 1.386 . S
C591 C595 1.393 . S
C592 H581 0.950 . S
C592 C590 1.391 . S
C592 C593 1.400 . S
C593 C587 1.491 . S
C593 C592 1.400 . S
C593 C594 1.398 . S
C594 H582 0.950 . S
C594 C593 1.398 . S
C594 C595 1.391 . S
C595 H583 0.950 . S
C595 C591 1.393 . S
C595 C594 1.391 . S
H596 C604 0.950 . S
H597 C609 0.950 1_655 S
H598 C606 0.950 . S
H599 C608 0.950 . S
H600 C610 0.950 . S
H601 C612 0.950 . S
H602 C614 0.950 . S
H603 C615 0.950 1_455 S
C604 H596 0.950 . S
C604 C605 1.386 . S
C604 C606 1.391 . S
C605 C604 1.386 . S
C605 C609 1.393 . S
C606 H598 0.950 . S
C606 C604 1.391 . S
C606 C607 1.400 . S
C607 C606 1.400 . S
C607 C608 1.398 1_455 S
C607 C613 1.491 1_455 S
C608 H599 0.950 . S
C608 C607 1.398 1_655 S
C608 C609 1.391 1_655 S
C609 H597 0.950 1_455 S
C609 C605 1.393 . S
C609 C608 1.391 1_455 S
C610 H600 0.950 . S
C610 C611 1.386 . S
C610 C612 1.391 . S
C611 C610 1.386 . S
C611 C615 1.393 . S
C612 H601 0.950 . S
C612 C610 1.391 . S
C612 C613 1.400 . S
C613 C607 1.491 1_655 S
C613 C612 1.400 . S
C613 C614 1.398 1_655 S
C614 H602 0.950 . S
C614 C613 1.398 1_455 S
C614 C615 1.391 1_455 S
C615 H603 0.950 1_655 S
C615 C611 1.393 . S
C615 C614 1.391 1_655 S
H616 C624 0.950 . S
H617 C629 0.950 . S
H618 C626 0.950 . S
H619 C628 0.950 . S
H620 C630 0.950 . S
H621 C632 0.950 . S
H622 C634 0.950 . S
H623 C635 0.950 . S
C624 H616 0.950 . S
C624 C625 1.386 . S
C624 C626 1.391 . S
C625 C624 1.386 . S
C625 C629 1.393 1_565 S
C626 H618 0.950 . S
C626 C624 1.391 . S
C626 C627 1.400 . S
C627 C626 1.400 . S
C627 C628 1.398 1_565 S
C627 C633 1.491 1_564 S
C628 H619 0.950 . S
C628 C627 1.398 1_545 S
C628 C629 1.391 . S
C629 H617 0.950 . S
C629 C625 1.393 1_545 S
C629 C628 1.391 . S
C630 H620 0.950 . S
C630 C631 1.386 . S
C630 C632 1.391 . S
C631 C630 1.386 . S
C631 C635 1.393 1_545 S
C632 H621 0.950 . S
C632 C630 1.391 . S
C632 C633 1.400 . S
C633 C627 1.491 1_546 S
C633 C632 1.400 . S
C633 C634 1.398 1_545 S
C634 H622 0.950 . S
C634 C633 1.398 1_565 S
C634 C635 1.391 . S
C635 H623 0.950 . S
C635 C631 1.393 1_565 S
C635 C634 1.391 . S
C165 C143 1.454 . S
C171 C0 1.469 . S
C185 C13 1.462 . S
C191 C78 1.474 . S
C205 C26 1.474 . S
C211 C91 1.464 . S
C225 C39 1.473 . S
C231 C104 1.460 . S
C245 C117 1.473 . S
C251 C52 1.460 . S
C265 C65 1.452 . S
C271 C130 1.468 . S
C285 C44 1.108 . S
C291 C5 1.124 . S
C305 C57 1.118 . S
C311 C18 1.148 . S
C325 C70 1.112 . S
C331 C31 1.140 . S
C345 C83 1.109 . S
C351 C122 1.120 . S
C365 C96 1.109 . S
C371 C135 1.119 . S
C385 C109 1.131 . S
C391 C148 1.155 . S
C405 C112 0.602 . S
C411 C8 0.570 . S
C425 C21 0.601 . S
C431 C125 0.570 . S
C445 C138 0.574 . S
C451 C34 0.600 . S
C465 C151 0.569 . S
C471 C47 0.602 . S
C485 C86 0.597 . S
C491 C60 0.573 . S
C505 C73 0.589 . S
C511 C99 0.586 . S
C525 C127 1.547 . S
C531 C10 1.548 . S
C545 C23 1.557 . S
C551 C140 1.555 . S
C565 C153 1.554 . S
C571 C36 1.556 . S
C585 C49 1.549 . S
C591 C88 1.551 . S
C605 C62 1.561 . S
C611 C101 1.562 . S
C625 C114 1.548 . S
C631 C75 1.550 . S
