# Generated by pormake.
# Topology wkj, (6)-cn, num edge types: 1
# Building blocks:
#     Node 0, Type 0, BuildingBlock: PAMTOO_clean_sbu_0, # of connection points: 6
#     Node 1, Type 0, BuildingBlock: PAMTOO_clean_sbu_0, # of connection points: 6
#     Node 2, Type 0, BuildingBlock: PAMTOO_clean_sbu_0, # of connection points: 6
#     Node 3, Type 0, BuildingBlock: PAMTOO_clean_sbu_0, # of connection points: 6
#     Node 4, Type 0, BuildingBlock: PAMTOO_clean_sbu_0, # of connection points: 6
#     Node 5, Type 0, BuildingBlock: PAMTOO_clean_sbu_0, # of connection points: 6
#     Node 6, Type 0, BuildingBlock: PAMTOO_clean_sbu_0, # of connection points: 6
#     Node 7, Type 0, BuildingBlock: PAMTOO_clean_sbu_0, # of connection points: 6
#     Node 8, Type 0, BuildingBlock: PAMTOO_clean_sbu_0, # of connection points: 6
#     Node 9, Type 0, BuildingBlock: PAMTOO_clean_sbu_0, # of connection points: 6
#     Node 10, Type 0, BuildingBlock: PAMTOO_clean_sbu_0, # of connection points: 6
#     Node 11, Type 0, BuildingBlock: PAMTOO_clean_sbu_0, # of connection points: 6
#     Edge 12, Type (0, 0), BuildingBlock: AJUNOK_clean_linker_0, # of connection points: 2
#     Edge 13, Type (0, 0), BuildingBlock: AJUNOK_clean_linker_0, # of connection points: 2
#     Edge 14, Type (0, 0), BuildingBlock: AJUNOK_clean_linker_0, # of connection points: 2
#     Edge 15, Type (0, 0), BuildingBlock: AJUNOK_clean_linker_0, # of connection points: 2
#     Edge 16, Type (0, 0), BuildingBlock: AJUNOK_clean_linker_0, # of connection points: 2
#     Edge 17, Type (0, 0), BuildingBlock: AJUNOK_clean_linker_0, # of connection points: 2
#     Edge 18, Type (0, 0), BuildingBlock: AJUNOK_clean_linker_0, # of connection points: 2
#     Edge 19, Type (0, 0), BuildingBlock: AJUNOK_clean_linker_0, # of connection points: 2
#     Edge 20, Type (0, 0), BuildingBlock: AJUNOK_clean_linker_0, # of connection points: 2
#     Edge 21, Type (0, 0), BuildingBlock: AJUNOK_clean_linker_0, # of connection points: 2
#     Edge 22, Type (0, 0), BuildingBlock: AJUNOK_clean_linker_0, # of connection points: 2
#     Edge 23, Type (0, 0), BuildingBlock: AJUNOK_clean_linker_0, # of connection points: 2
#     Edge 24, Type (0, 0), BuildingBlock: AJUNOK_clean_linker_0, # of connection points: 2
#     Edge 25, Type (0, 0), BuildingBlock: AJUNOK_clean_linker_0, # of connection points: 2
#     Edge 26, Type (0, 0), BuildingBlock: AJUNOK_clean_linker_0, # of connection points: 2
#     Edge 27, Type (0, 0), BuildingBlock: AJUNOK_clean_linker_0, # of connection points: 2
#     Edge 28, Type (0, 0), BuildingBlock: AJUNOK_clean_linker_0, # of connection points: 2
#     Edge 29, Type (0, 0), BuildingBlock: AJUNOK_clean_linker_0, # of connection points: 2
#     Edge 30, Type (0, 0), BuildingBlock: AJUNOK_clean_linker_0, # of connection points: 2
#     Edge 31, Type (0, 0), BuildingBlock: AJUNOK_clean_linker_0, # of connection points: 2
#     Edge 32, Type (0, 0), BuildingBlock: AJUNOK_clean_linker_0, # of connection points: 2
#     Edge 33, Type (0, 0), BuildingBlock: AJUNOK_clean_linker_0, # of connection points: 2
#     Edge 34, Type (0, 0), BuildingBlock: AJUNOK_clean_linker_0, # of connection points: 2
#     Edge 35, Type (0, 0), BuildingBlock: AJUNOK_clean_linker_0, # of connection points: 2
#     Edge 36, Type (0, 0), BuildingBlock: AJUNOK_clean_linker_0, # of connection points: 2
#     Edge 37, Type (0, 0), BuildingBlock: AJUNOK_clean_linker_0, # of connection points: 2
#     Edge 38, Type (0, 0), BuildingBlock: AJUNOK_clean_linker_0, # of connection points: 2
#     Edge 39, Type (0, 0), BuildingBlock: AJUNOK_clean_linker_0, # of connection points: 2
#     Edge 40, Type (0, 0), BuildingBlock: AJUNOK_clean_linker_0, # of connection points: 2
#     Edge 41, Type (0, 0), BuildingBlock: AJUNOK_clean_linker_0, # of connection points: 2
#     Edge 42, Type (0, 0), BuildingBlock: AJUNOK_clean_linker_0, # of connection points: 2
#     Edge 43, Type (0, 0), BuildingBlock: AJUNOK_clean_linker_0, # of connection points: 2
#     Edge 44, Type (0, 0), BuildingBlock: AJUNOK_clean_linker_0, # of connection points: 2
#     Edge 45, Type (0, 0), BuildingBlock: AJUNOK_clean_linker_0, # of connection points: 2
#     Edge 46, Type (0, 0), BuildingBlock: AJUNOK_clean_linker_0, # of connection points: 2
#     Edge 47, Type (0, 0), BuildingBlock: AJUNOK_clean_linker_0, # of connection points: 2
# Relax obj value: 1.174
# Max RMSD: 0.190
# Mean RMSD: 0.190
data_MOF--net-wkj--node1-PAMTOO_clean_sbu_0--edge1-AJUNOK_clean_linker_0
_symmetry_space_group_name_H-M    P1
_symmetry_Int_Tables_number       1
_symmetry_cell_setting            triclinic
loop_
_symmetry_equiv_pos_as_xyz
'x, y, z'
_cell_length_a     38.876714
_cell_length_b     38.246595
_cell_length_c     21.085538
_cell_angle_alpha  89.940735
_cell_angle_beta   89.995487
_cell_angle_gamma 120.35215
loop_
_atom_site_label
_atom_site_type_symbol
_atom_site_fract_x
_atom_site_fract_y
_atom_site_fract_z
_atom_type_partial_charge
Dy0 Dy 0.5023 0.12848 0.45954 0.0
Dy1 Dy 0.42759 0.06312 0.50592 0.0
C2 C 0.44097 0.14738 0.47094 0.0
O3 O 0.52711 0.13047 0.56059 0.0
O4 O 0.46622 0.08399 0.60028 0.0
O5 O 0.51383 0.1713 0.38435 0.0
O6 O 0.56163 0.17919 0.44756 0.0
O7 O 0.46846 0.0408 0.531 0.0
O8 O 0.51934 0.08284 0.46481 0.0
O9 O 0.42354 0.02799 0.41572 0.0
O10 O 0.47529 0.08357 0.37101 0.0
O11 O 0.37273 0.00634 0.52056 0.0
O12 O 0.38021 0.0637 0.55899 0.0
C13 C 0.50558 0.10875 0.61015 0.0
O14 O 0.4692 0.15345 0.5091 0.0
O15 O 0.42504 0.11145 0.44515 0.0
C16 C 0.57284 0.18329 0.33996 0.0
C17 C 0.62574 0.17489 0.26214 0.0
C18 C 0.62293 0.21019 0.25833 0.0
C19 C 0.5966 0.21456 0.29801 0.0
C20 C 0.57152 0.1462 0.33652 0.0
C21 C 0.59864 0.14245 0.30004 0.0
C22 C 0.55225 0.18846 0.39289 0.0
C23 C 0.50383 0.05365 0.50605 0.0
C24 C 0.44631 0.04456 0.3654 0.0
C25 C 0.31654 0.00259 0.57663 0.0
C26 C 0.24462 0.97154 0.64366 0.0
C27 C 0.27316 0.96096 0.66097 0.0
C28 C 0.30881 0.97634 0.62764 0.0
C29 C 0.28722 0.01133 0.55646 0.0
C30 C 0.25131 -0.00413 0.59002 0.0
C31 C 0.35694 0.02468 0.55078 0.0
H32 H 0.64421 0.23597 0.23062 0.0
H33 H 0.59674 0.24287 0.29882 0.0
H34 H 0.55282 0.12155 0.36796 0.0
H35 H 0.60119 0.116 0.30848 0.0
H36 H 0.2693 0.94342 0.70355 0.0
H37 H 0.33147 0.96999 0.6444 0.0
H38 H 0.29293 0.03168 0.51692 0.0
H39 H 0.22997 0.00485 0.57665 0.0
Dy40 Dy 0.35254 0.51628 0.7307 0.0
Dy41 Dy 0.28625 0.42951 0.76903 0.0
C42 C 0.26272 0.48291 0.69202 0.0
O43 O 0.35451 0.52817 0.83953 0.0
O44 O 0.29925 0.46772 0.8662 0.0
O45 O 0.40431 0.5762 0.74209 0.0
O46 O 0.37318 0.55835 0.65241 0.0
O47 O 0.33151 0.4421 0.83729 0.0
O48 O 0.38037 0.48115 0.76723 0.0
O49 O 0.32067 0.41501 0.69048 0.0
O50 O 0.35627 0.47799 0.64679 0.0
O51 O 0.25983 0.36495 0.77341 0.0
O52 O 0.22514 0.39311 0.80002 0.0
C53 C 0.3297 0.50443 0.88493 0.0
O54 O 0.29273 0.51308 0.72157 0.0
O55 O 0.26191 0.44875 0.6902 0.0
C56 C 0.40073 0.62625 0.68174 0.0
C57 C 0.40623 0.72655 0.68783 0.0
C58 C 0.45098 0.72186 0.65197 0.0
C59 C 0.4461 0.67154 0.65261 0.0
C60 C 0.35686 0.6285 0.71017 0.0
C61 C 0.35653 0.67649 0.7128 0.0
C62 C 0.40068 0.58794 0.68559 0.0
C63 C 0.36784 0.45861 0.81872 0.0
C64 C 0.34435 0.43859 0.64357 0.0
C65 C 0.2108 0.33201 0.85025 0.0
C66 C 0.19045 0.27502 0.94764 0.0
C67 C 0.21877 0.31608 0.95818 0.0
C68 C 0.22899 0.34441 0.90968 0.0
C69 C 0.18101 0.29159 0.84052 0.0
C70 C 0.17083 0.26315 0.88904 0.0
C71 C 0.22616 0.35946 0.79613 0.0
H72 H 0.47894 0.74848 0.63924 0.0
H73 H 0.47105 0.66862 0.63709 0.0
H74 H 0.3311 0.60113 0.72734 0.0
H75 H 0.33187 0.67779 0.73404 0.0
H76 H 0.23478 0.32586 1.00272 0.0
H77 H 0.25242 0.37548 0.91752 0.0
H78 H 0.16698 0.28168 0.79451 0.0
H79 H 0.14889 0.23171 0.88006 0.0
Dy80 Dy 0.84356 0.42792 1.11637 0.0
Dy81 Dy 0.88947 0.38769 1.16195 0.0
C82 C 0.81017 0.33861 1.08559 0.0
O83 O 0.82961 0.42858 1.22459 0.0
O84 O 0.85694 0.39055 0.25717 0.0
O85 O 0.7877 0.42567 1.09734 0.0
O86 O 0.84102 0.46919 1.04819 0.0
O87 O 0.91807 0.4423 1.22149 0.0
O88 O 0.88642 0.47524 1.18236 0.0
O89 O 0.93332 0.42532 1.08098 0.0
O90 O 0.88778 0.43611 1.0322 0.0
O91 O 0.93621 0.37419 1.18173 0.0
O92 O 0.87362 0.32648 1.18283 0.0
C93 C 0.83833 0.41133 0.27272 0.0
O94 O 0.79972 0.36122 1.11579 0.0
O95 O 0.84834 0.35267 1.08134 0.0
C96 C 0.78543 0.42401 0.987 0.0
C97 C 0.7429 0.36299 0.89511 0.0
C98 C 0.77465 0.3644 0.92881 0.0
C99 C 0.79628 0.39517 0.97202 0.0
C100 C 0.75462 0.42403 0.95256 0.0
C101 C 0.73393 0.39411 0.90614 0.0
C102 C 0.80213 0.44743 1.04607 0.0
C103 C 0.90992 0.47168 1.22385 0.0
C104 C 0.92283 0.43751 1.02931 0.0
C105 C 0.9182 0.31349 0.2381 0.0
C106 C 0.9289 0.26741 0.33127 0.0
C107 C 0.91784 0.29613 0.34806 0.0
C108 C 0.9124 0.31887 0.30183 0.0
C109 C 0.92892 0.28482 1.22076 0.0
C110 C 0.93447 0.26197 0.26717 0.0
C111 C 0.91067 0.33544 1.18864 0.0
H112 H 0.7815 0.34041 0.92552 0.0
H113 H 0.8195 0.3941 0.998 0.0
H114 H 0.74518 0.44553 0.96376 0.0
H115 H 0.70877 0.39324 0.88253 0.0
H116 H 0.91461 0.302 0.39732 0.0
H117 H 0.90389 0.34074 0.31576 0.0
H118 H 0.93305 0.28017 1.1713 0.0
H119 H 0.94355 0.24058 0.2532 0.0
Dy120 Dy 0.466 0.88138 0.4442 0.0
Dy121 Dy 0.53924 0.8803 0.47219 0.0
C122 C 0.47757 0.80883 0.40072 0.0
O123 O 0.45985 0.88973 0.54834 0.0
O124 O 0.50346 0.8694 0.57371 0.0
O125 O 0.40513 0.86041 0.47161 0.0
O126 O 0.42618 0.88791 0.37953 0.0
O127 O 0.56501 0.93712 0.51868 0.0
O128 O 0.50945 0.94122 0.49244 0.0
O129 O 0.56007 0.92351 0.381 0.0
O130 O 0.49999 0.91571 0.35363 0.0
O131 O 0.59942 0.89199 0.47069 0.0
O132 O 0.55107 0.83354 0.50301 0.0
C133 C 0.47585 0.87913 0.59358 0.0
O134 O 0.45485 0.81618 0.43774 0.0
O135 O 0.51183 0.84014 0.3892 0.0
C136 C 0.36637 0.82477 0.38595 0.0
C137 C 0.31955 0.74162 0.35735 0.0
C138 C 0.35845 0.76502 0.33326 0.0
C139 C 0.38135 0.80591 0.34696 0.0
C140 C 0.32712 0.80204 0.409 0.0
C141 C 0.30351 0.76074 0.39375 0.0
C142 C 0.3951 0.86395 0.41417 0.0
C143 C 0.54466 0.95509 0.52108 0.0
C144 C 0.53831 0.9313 0.33956 0.0
C145 C 0.61474 0.85905 0.54886 0.0
C146 C 0.6712 0.884 0.64636 0.0
C147 C 0.63176 0.87407 0.65951 0.0
C148 C 0.60377 0.86185 0.61102 0.0
C149 C 0.6528 0.86506 0.53653 0.0
C150 C 0.68098 0.87754 0.58509 0.0
C151 C 0.58964 0.85692 0.49577 0.0
H152 H 0.3715 0.75185 0.30319 0.0
H153 H 0.41172 0.82227 0.32944 0.0
H154 H 0.31534 0.81581 0.44053 0.0
H155 H 0.27323 0.74361 0.41139 0.0
H156 H 0.62352 0.87975 0.70581 0.0
H157 H 0.57463 0.85775 0.62125 0.0
H158 H 0.66165 0.86315 0.48851 0.0
H159 H 0.71123 0.88536 0.57375 0.0
Dy160 Dy 0.51694 0.40536 0.72892 0.0
Dy161 Dy 0.54271 0.49035 0.78691 0.0
C162 C 0.60829 0.46934 0.74279 0.0
O163 O 0.51499 0.39539 0.84198 0.0
O164 O 0.53451 0.45849 0.88275 0.0
O165 O 0.53183 0.35824 0.73279 0.0
O166 O 0.49009 0.35536 0.66217 0.0
O167 O 0.47857 0.4515 0.81142 0.0
O168 O 0.46336 0.38669 0.78464 0.0
O169 O 0.51425 0.49511 0.69292 0.0
O170 O 0.49491 0.43355 0.64867 0.0
O171 O 0.54419 0.53674 0.84666 0.0
O172 O 0.58307 0.55314 0.76422 0.0
C173 C 0.52122 0.41937 0.89311 0.0
O174 O 0.58085 0.44624 0.70234 0.0
O175 O 0.59836 0.48538 0.78873 0.0
C176 C 0.53682 0.33538 0.6328 0.0
C177 C 0.59576 0.3337 0.55642 0.0
C178 C 0.58793 0.36582 0.55182 0.0
C179 C 0.55899 0.36671 0.58963 0.0
C180 C 0.54301 0.30219 0.63558 0.0
C181 C 0.57196 0.30106 0.59697 0.0
C182 C 0.51237 0.3407 0.68115 0.0
C183 C 0.45624 0.41161 0.81599 0.0
C184 C 0.49707 0.46979 0.64494 0.0
C185 C 0.60776 0.59609 0.8525 0.0
C186 C 0.66542 0.65717 0.93082 0.0
C187 C 0.64487 0.61619 0.95051 0.0
C188 C 0.61651 0.58603 0.91169 0.0
C189 C 0.63085 0.63583 0.82963 0.0
C190 C 0.65991 0.66611 0.86819 0.0
C191 C 0.57389 0.5659 0.81527 0.0
H192 H 0.60461 0.39074 0.51927 0.0
H193 H 0.55506 0.39278 0.58691 0.0
H194 H 0.5264 0.27783 0.66904 0.0
H195 H 0.5766 0.27548 0.60023 0.0
H196 H 0.64788 0.60744 0.9981 0.0
H197 H 0.59985 0.55526 0.92956 0.0
H198 H 0.62523 0.64379 0.783 0.0
H199 H 0.67619 0.69681 0.85023 0.0
Dy200 Dy 0.08687 0.60737 1.11281 0.0
Dy201 Dy 0.06373 0.67074 1.14969 0.0
C202 C 0.14768 0.70059 1.09162 0.0
O203 O 0.09949 0.61267 1.22051 0.0
O204 O 0.08024 0.65735 0.25209 0.0
O205 O 0.13795 0.60076 1.12592 0.0
O206 O 0.0893 0.55857 1.06522 0.0
O207 O 0.01131 0.61366 1.17472 0.0
O208 O 0.04046 0.57518 1.18573 0.0
O209 O 0.03146 0.64453 1.05109 0.0
O210 O 0.03241 0.58551 1.04552 0.0
O211 O 0.02712 0.6918 1.19074 0.0
O212 O 0.07543 0.73131 1.12785 0.0
C213 C 0.09357 0.6321 0.26768 0.0
O214 O 0.12836 0.66591 1.06202 0.0
O215 O 0.13031 0.70618 1.14012 0.0
C216 C 0.15607 0.58261 1.03256 0.0
C217 C 0.20107 0.57898 0.93423 0.0
C218 C 0.2196 0.59373 0.99406 0.0
C219 C 0.19433 0.58884 1.04562 0.0
C220 C 0.14938 0.59181 0.97138 0.0
C221 C 0.17592 0.59552 0.92387 0.0
C222 C 0.12649 0.57289 1.08269 0.0
C223 C 0.01399 0.58492 1.20269 0.0
C224 C 0.01719 0.60777 1.02465 0.0
C225 C 0.05682 0.76103 1.20952 0.0
C226 C 0.04293 0.79925 0.31103 0.0
C227 C 0.06551 0.78012 0.31996 0.0
C228 C 0.07243 0.76111 0.26933 0.0
C229 C 0.04087 0.78608 1.19811 0.0
C230 C 0.0346 0.80581 0.24863 0.0
C231 C 0.04733 0.7278 1.16566 0.0
H232 H 0.2485 0.59714 1.0039 0.0
H233 H 0.2041 0.58922 1.09385 0.0
H234 H 0.12494 0.59683 0.96075 0.0
H235 H 0.17473 0.60875 0.87967 0.0
H236 H 0.0726 0.77425 0.36697 0.0
H237 H 0.08517 0.74212 0.27868 0.0
H238 H 0.02908 0.78666 1.15179 0.0
H239 H 0.01802 0.82115 0.24007 0.0
Dy240 Dy 0.83191 0.45688 0.71233 0.0
Dy241 Dy 0.85621 0.54374 0.66066 0.0
C242 C 0.76909 0.48946 0.7121 0.0
O243 O 0.8343 0.44536 0.60338 0.0
O244 O 0.83868 0.50399 0.56565 0.0
O245 O 0.81623 0.39348 0.71102 0.0
O246 O 0.80995 0.42094 0.79658 0.0
O247 O 0.89555 0.52466 0.62012 0.0
O248 O 0.89862 0.49169 0.70539 0.0
O249 O 0.89219 0.56017 0.75645 0.0
O250 O 0.86818 0.49724 0.7989 0.0
O251 O 0.89927 0.60752 0.65926 0.0
O252 O 0.84244 0.5844 0.61016 0.0
C253 C 0.83484 0.46737 0.55328 0.0
O254 O 0.77464 0.459 0.69943 0.0
O255 O 0.8001 0.52573 0.71421 0.0
C256 C 0.76325 0.35314 0.78253 0.0
C257 C 0.66122 0.26672 0.81703 0.0
C258 C 0.70896 0.26322 0.83898 0.0
C259 C 0.75789 0.30668 0.81848 0.0
C260 C 0.71993 0.35922 0.76686 0.0
C261 C 0.66856 0.31866 0.78406 0.0
C262 C 0.80312 0.38752 0.76948 0.0
C263 C 0.91675 0.51753 0.6593 0.0
C264 C 0.89151 0.53732 0.80504 0.0
C265 C 0.89547 0.6504 0.58283 0.0
C266 C 0.93677 0.71795 0.50331 0.0
C267 C 0.92055 0.67838 0.47902 0.0
C268 C 0.90008 0.64476 0.5186 0.0
C269 C 0.91077 0.6897 0.60694 0.0
C270 C 0.93135 0.72335 0.56745 0.0
C271 C 0.87607 0.61636 0.62685 0.0
H272 H 0.70628 0.2352 0.85579 0.0
H273 H 0.78431 0.30478 0.82722 0.0
H274 H 0.72565 0.38791 0.74948 0.0
H275 H 0.64322 0.32165 0.77159 0.0
H276 H 0.92491 0.6735 0.42977 0.0
H277 H 0.88861 0.61459 0.49946 0.0
H278 H 0.90733 0.69438 0.65669 0.0
H279 H 0.94345 0.75346 0.58711 0.0
Dy280 Dy 0.40546 0.86718 1.02843 0.0
Dy281 Dy 0.37275 0.92173 0.97199 0.0
C282 C 0.30973 0.8304 1.02098 0.0
O283 O 0.4205 0.86883 0.91919 0.0
O284 O 0.38942 0.90093 0.87717 0.0
O285 O 0.40819 0.81272 1.014 0.0
O286 O 0.43723 0.85066 1.0952 0.0
O287 O 0.43542 0.95452 0.94518 0.0
O288 O 0.4574 0.92779 1.02028 0.0
O289 O 0.40213 0.95383 1.06705 0.0
O290 O 0.40574 0.90339 1.11883 0.0
O291 O 0.35992 0.95448 0.9017 0.0
O292 O 0.34365 0.95485 0.99976 0.0
C293 C 0.41119 0.883 0.8677 0.0
O294 O 0.3397 0.82808 1.04406 0.0
O295 O 0.31583 0.86194 0.98741 0.0
C296 C 0.39656 0.78055 1.11118 0.0
C297 C 0.33584 0.71293 1.17567 0.0
C298 C 0.33761 0.7506 1.17685 0.0
C299 C 0.36766 0.78385 1.14577 0.0
C300 C 0.39528 0.74318 1.10906 0.0
C301 C 0.36536 0.70957 1.14218 0.0
C302 C 0.42295 0.81471 1.07017 0.0
C303 C 0.46341 0.9497 0.96995 0.0
C304 C 0.40868 0.93984 1.12075 0.0
C305 C 0.29957 0.95315 0.92216 0.0
C306 C 0.22851 0.94259 0.86891 0.0
C307 C 0.24352 0.9171 0.85158 0.0
C308 C 0.27856 0.92232 0.87795 0.0
C309 C 0.2822 0.97482 0.94621 0.0
C310 C 0.24643 0.96899 0.92065 0.0
C311 C 0.33996 0.9636 0.94147 0.0
H312 H 0.31642 0.75516 1.20359 0.0
H313 H 0.36774 0.81219 1.14783 0.0
H314 H 0.41695 0.73991 1.08137 0.0
H315 H 0.36509 0.68113 1.14138 0.0
H316 H 0.23084 0.89569 0.81294 0.0
H317 H 0.29053 0.90398 0.86051 0.0
H318 H 0.29728 -0.00237 0.98247 0.0
H319 H 0.23466 -0.01255 0.93814 0.0
Dy320 Dy 0.47563 0.38462 0.32506 0.0
Dy321 Dy 0.39524 0.317 0.28807 0.0
C322 C 0.44855 0.29079 0.34895 0.0
O323 O 0.4862 0.38125 1.21729 0.0
O324 O 0.42396 0.33382 1.18489 0.0
O325 O 0.53567 0.42532 0.29109 0.0
O326 O 0.5234 0.41841 0.3914 0.0
O327 O 0.40047 0.36196 1.2216 0.0
O328 O 0.43952 0.41171 0.2909 0.0
O329 O 0.38721 0.34317 0.38756 0.0
O330 O 0.44428 0.40399 0.39764 0.0
O331 O 0.33165 0.29199 0.28803 0.0
O332 O 0.35614 0.25247 0.27761 0.0
C333 C 0.46192 0.36118 1.16948 0.0
O334 O 0.46227 0.32597 0.37704 0.0
O335 O 0.43012 0.2864 0.29625 0.0
C336 C 0.57733 0.4127 0.35467 0.0
C337 C 0.62298 0.37414 0.36412 0.0
C338 C 0.63954 0.4132 0.33704 0.0
C339 C 0.61658 0.43213 0.33143 0.0
C340 C 0.56088 0.37363 0.3794 0.0
C341 C 0.5825 0.3542 0.38205 0.0
C342 C 0.5507 0.42938 0.34757 0.0
C343 C 0.41444 0.39816 0.24284 0.0
C344 C 0.40768 0.37894 0.41842 0.0
C345 C 0.29369 0.23211 0.23151 0.0
C346 C 0.23432 0.20559 1.13884 0.0
C347 C 0.27454 0.22193 1.12128 0.0
C348 C 0.30409 0.2353 1.16743 0.0
C349 C 0.25347 0.21177 0.24942 0.0
C350 C 0.22381 0.19846 1.20322 0.0
C351 C 0.32395 0.25499 0.27916 0.0
H352 H 0.67048 0.42956 0.32244 0.0
H353 H 0.6296 0.46199 0.31034 0.0
H354 H 0.53119 0.35794 0.39853 0.0
H355 H 0.5675 0.3244 0.40334 0.0
H356 H 0.28372 0.22859 1.07215 0.0
H357 H 0.33511 0.25106 1.15303 0.0
H358 H 0.24516 0.20906 0.29902 0.0
H359 H 0.1931 0.18611 1.21785 0.0
Dy360 Dy 0.1104 0.55514 0.69268 0.0
Dy361 Dy 0.0421 0.49168 0.63188 0.0
C362 C 0.12614 0.49894 0.61877 0.0
O363 O 0.11571 0.58606 0.59094 0.0
O364 O 0.06431 0.53056 0.54252 0.0
O365 O 0.16968 0.56581 0.71065 0.0
O366 O 0.14419 0.58993 0.77471 0.0
O367 O 0.03393 0.54661 0.64028 0.0
O368 O 0.09169 0.59871 0.68384 0.0
O369 O 0.0082 0.4851 0.7241 0.0
O370 O 0.06573 0.51428 0.77571 0.0
O371 O 0.00783 0.45648 0.55129 0.0
O372 O -0.00924 0.43245 0.64658 0.0
C373 C 0.09337 0.56878 0.53831 0.0
O374 O 0.13361 0.53547 0.61317 0.0
O375 O 0.09092 0.47476 0.64375 0.0
C376 C 0.17358 0.55268 0.81769 0.0
C377 C 0.16763 0.46545 0.9069 0.0
C378 C 0.21456 0.50094 0.8537 0.0
C379 C 0.21452 0.54239 0.81107 0.0
C380 C 0.13011 0.52216 0.87088 0.0
C381 C 0.12589 0.47974 0.91808 0.0
C382 C 0.17059 0.57866 0.76764 0.0
C383 C 0.05687 0.58529 0.65841 0.0
C384 C 0.02589 0.4932 0.77947 0.0
C385 C -0.01256 0.38714 0.56854 0.0
C386 C -0.0139 0.31523 0.53289 0.0
C387 C 0.00736 0.35113 0.49686 0.0
C388 C 0.00805 0.3865 0.51449 0.0
C389 C -0.0316 0.35237 0.60707 0.0
C390 C -0.03197 0.31687 0.58973 0.0
C391 C -0.0131 0.42421 0.58619 0.0
H392 H 0.23694 0.49286 0.84331 0.0
H393 H 0.23827 0.55978 0.7777 0.0
H394 H 0.10634 0.5287 0.87207 0.0
H395 H 0.0987 0.46 0.94365 0.0
H396 H 0.021 0.35152 0.45194 0.0
H397 H 0.02364 0.41291 0.48427 0.0
H398 H 0.95287 0.35229 0.64978 0.0
H399 H 0.95145 0.28999 0.61864 0.0
Dy400 Dy 0.59835 0.10158 1.00367 0.0
Dy401 Dy 0.65417 0.09055 0.96029 0.0
C402 C 0.68887 0.17989 0.98596 0.0
O403 O 0.56639 0.10363 0.91811 0.0
O404 O 0.62232 0.10839 0.87278 0.0
O405 O 0.59843 0.15033 1.05747 0.0
O406 O 0.57511 0.09146 1.10036 0.0
O407 O 0.62441 0.05414 0.88099 0.0
O408 O 0.57377 0.04066 0.94812 0.0
O409 O 0.63251 0.05209 1.05903 0.0
O410 O 0.57265 0.04494 1.06475 0.0
O411 O 0.67871 0.05155 0.96786 0.0
O412 O 0.71334 0.11123 0.92404 0.0
C413 C 0.58662 0.10764 0.86546 0.0
O414 O 0.65054 0.16683 0.98467 0.0
O415 O 0.69882 0.15293 0.9815 0.0
C416 C 0.62938 0.1462 1.15346 0.0
C417 C 0.72553 0.18233 0.24167 0.0
C418 C 0.71827 0.21934 1.18395 0.0
C419 C 0.67038 0.19862 1.14198 0.0
C420 C 0.63369 0.11121 1.20981 0.0
C421 C 0.6794 0.12691 0.25682 0.0
C422 C 0.59411 0.13032 1.11015 0.0
C423 C 0.58845 0.03086 0.89787 0.0
C424 C 0.59695 0.03425 1.08857 0.0
C425 C 0.72659 0.05963 0.89362 0.0
C426 C 0.74159 0.01062 0.81356 0.0
C427 C 0.72185 0.03036 0.79042 0.0
C428 C 0.71416 0.05458 0.83039 0.0
C429 C 0.74905 0.04269 0.91547 0.0
C430 C 0.75652 0.0182 0.8756 0.0
C431 C 0.71197 0.07741 0.93964 0.0
H432 H 0.74285 0.24914 1.17244 0.0
H433 H 0.66548 0.21787 1.11067 0.0
H434 H 0.60918 0.08048 1.2142 0.0
H435 H 0.68251 0.10499 0.28497 0.0
H436 H 0.70952 0.02445 0.74293 0.0
H437 H 0.69652 0.06725 0.81309 0.0
H438 H 0.75868 0.04638 0.96447 0.0
H439 H 0.77169 0.0032 0.89428 0.0
Dy440 Dy 0.37497 0.55528 0.33368 0.0
Dy441 Dy 0.4496 0.56727 0.27417 0.0
C442 C 0.44012 0.64415 0.31903 0.0
O443 O 0.35791 0.54626 1.22179 0.0
O444 O 0.41991 0.56853 1.18032 0.0
O445 O 0.33806 0.58021 0.36071 0.0
O446 O 0.33265 0.52843 0.41088 0.0
O447 O 0.40043 0.50154 0.25853 0.0
O448 O 0.3416 0.49758 0.2889 0.0
O449 O 0.45104 0.52967 0.35713 0.0
O450 O 0.41243 0.54488 0.41582 0.0
O451 O 0.48647 0.56729 1.19781 0.0
O452 O 0.51197 0.58855 0.29091 0.0
C453 C 0.38129 0.5536 1.16973 0.0
O454 O 0.40293 0.61955 0.30749 0.0
O455 O 0.4641 0.62909 0.31764 0.0
C456 C 0.34147 0.58386 0.47133 0.0
C457 C 0.37243 0.63648 0.57687 0.0
C458 C 0.39796 0.63632 0.52986 0.0
C459 C 0.38273 0.60984 0.4786 0.0
C460 C 0.31559 0.58356 0.51778 0.0
C461 C 0.33094 0.60989 0.56989 0.0
C462 C 0.32697 0.55923 0.41316 0.0
C463 C 0.36068 0.48242 0.26129 0.0
C464 C 0.43766 0.53042 0.41398 0.0
C465 C 0.55398 0.6206 1.20322 0.0
C466 C 0.62311 0.68076 1.14124 0.0
C467 C 0.58496 0.66596 1.11433 0.0
C468 C 0.55089 0.63651 1.14507 0.0
C469 C 0.59144 0.63706 0.23254 0.0
C470 C 0.62572 0.6671 1.20203 0.0
C471 C 0.51903 0.58527 0.23154 0.0
H472 H 0.42958 0.65806 0.53074 0.0
H473 H 0.40326 0.61085 0.44297 0.0
H474 H 0.28365 0.56411 0.51275 0.0
H475 H 0.3103 0.6111 0.60298 0.0
H476 H 0.58125 0.67439 1.06691 0.0
H477 H 0.52241 0.62471 1.12144 0.0
H478 H 0.59444 0.62541 0.27779 0.0
H479 H 0.65445 0.67772 1.22419 0.0
C480 C 0.46352 0.22242 0.46708 0.0
C481 C 0.44098 0.18314 0.44057 0.0
C482 C 0.46627 0.25703 0.43754 0.0
C483 C 0.44695 0.2542 0.37958 0.0
H484 H 0.47947 0.22661 0.51115 0.0
H485 H 0.4838 0.28622 0.46031 0.0
S486 S 0.38461 0.15856 0.28945 0.0
N487 N 0.39913 0.14395 0.35258 0.0
N488 N 0.40457 0.20803 0.29666 0.0
C489 C 0.42451 0.21501 0.35246 0.0
C490 C 0.42142 0.17987 0.38294 0.0
C491 C 0.23264 0.52368 0.65208 0.0
C492 C 0.22873 0.48579 0.66391 0.0
C493 C 0.20026 0.52704 0.63022 0.0
C494 C 0.16153 0.4928 0.62322 0.0
H495 H 0.26079 0.5511 0.66072 0.0
H496 H 0.20557 0.55728 0.62186 0.0
S497 S 0.13833 0.38626 0.62813 0.0
N498 N 0.18516 0.41269 0.65199 0.0
N499 N 0.12438 0.41968 0.61292 0.0
C500 C 0.15845 0.4547 0.62707 0.0
C501 C 0.19178 0.45107 0.6479 0.0
C502 C 0.74068 0.2906 1.04255 0.0
C503 C 0.78029 0.29993 1.05357 0.0
C504 C 0.71196 0.25325 1.01532 0.0
C505 C 0.72095 0.22288 1.0006 0.0
H506 H 0.73162 0.31212 1.05573 0.0
H507 H 0.68182 0.24703 1.00944 0.0
S508 S 0.82171 0.23409 1.01289 0.0
N509 N 0.82784 0.27708 1.041 0.0
N510 N 0.7744 0.20732 0.99231 0.0
C511 C 0.76119 0.23303 1.00789 0.0
C512 C 0.79049 0.27118 1.0342 0.0
C513 C 0.42168 0.69447 0.36223 0.0
C514 C 0.45175 0.68659 0.34089 0.0
C515 C 0.43003 0.73331 0.38226 0.0
C516 C 0.46894 0.76693 0.38105 0.0
H517 H 0.39103 0.67005 0.36423 0.0
H518 H 0.40563 0.73701 0.3983 0.0
S519 S 0.55951 0.76307 0.3342 0.0
N520 N 0.52272 0.71604 0.32393 0.0
N521 N 0.53864 0.78884 0.35968 0.0
C522 C 0.49958 0.75944 0.36103 0.0
C523 C 0.49102 0.71956 0.34161 0.0
C524 C 0.68432 0.51121 0.75199 0.0
C525 C 0.64927 0.47446 0.73772 0.0
C526 C 0.72266 0.51578 0.74373 0.0
C527 C 0.7278 0.48378 0.72118 0.0
H528 H 0.6822 0.53684 0.76859 0.0
H529 H 0.74851 0.5448 0.75509 0.0
S530 S 0.64524 0.38034 0.6842 0.0
N531 N 0.62234 0.40461 0.70633 0.0
N532 N 0.69323 0.41394 0.68607 0.0
C533 C 0.69273 0.447 0.70757 0.0
C534 C 0.65396 0.44217 0.71706 0.0
C535 C 0.23661 0.80457 1.04529 0.0
C536 C 0.26792 0.7966 1.03523 0.0
C537 C 0.19801 0.77359 1.06371 0.0
C538 C 0.18854 0.73297 1.07071 0.0
H539 H 0.24225 0.83524 1.04076 0.0
H540 H 0.17529 0.78149 1.07219 0.0
S541 S 0.25914 0.69553 1.04919 0.0
N542 N 0.28628 0.74454 1.03426 0.0
N543 N 0.21389 0.68667 1.0658 0.0
C544 C 0.21926 0.72445 1.05948 0.0
C545 C 0.25878 0.75609 1.04262 0.0
C546 C 0.7324 0.20101 0.29785 0.0
C547 C 0.75607 0.18727 0.24636 0.0
C548 C 0.68946 0.19904 0.30486 0.0
C549 C 0.66484 0.17741 0.24594 0.0
H550 H 0.75087 0.21619 0.34009 0.0
H551 H 0.6808 0.21028 0.34547 0.0
S552 S 0.71889 0.12365 1.09125 0.0
N553 N 0.75405 0.14959 1.14483 0.0
N554 N 0.67928 0.12876 1.10487 0.0
C555 C 0.69218 0.1531 1.15697 0.0
C556 C 0.7363 0.16486 1.1816 0.0
C557 C 0.41688 0.68395 0.73788 0.0
C558 C 0.38829 0.67146 0.62512 0.0
C559 C 0.42276 0.72865 0.7535 0.0
C560 C 0.41258 0.75622 0.70694 0.0
H561 H 0.42419 0.66762 0.77316 0.0
H562 H 0.43476 0.74109 0.8002 0.0
S563 S 0.37082 0.74708 0.53165 0.0
N564 N 0.36804 0.70228 0.53119 0.0
N565 N 0.38843 0.76928 0.60163 0.0
C566 C 0.39461 0.74239 0.635 0.0
C567 C 0.38187 0.70288 0.5903 0.0
C568 C 0.70809 0.29489 0.74789 0.0
C569 C 0.71303 0.32391 0.85961 0.0
C570 C 0.66369 0.25424 0.74971 0.0
C571 C 0.63247 0.23836 0.8088 0.0
H572 H 0.72649 0.30342 0.7049 0.0
H573 H 0.65413 0.2361 0.70652 0.0
S574 S 0.62909 0.2769 0.98275 0.0
N575 N 0.67501 0.31417 0.96671 0.0
N576 N 0.61172 0.24565 0.92076 0.0
C577 C 0.64172 0.26206 0.87715 0.0
C578 C 0.67902 0.30284 0.90769 0.0
C579 C 0.32118 0.66806 0.26762 0.0
C580 C 0.30622 0.68027 1.21718 0.0
C581 C 0.31447 0.67673 0.32902 0.0
C582 C 0.29516 0.69911 0.33595 0.0
H583 H 0.34592 0.66303 0.26016 0.0
H584 H 0.33406 0.67762 0.36622 0.0
S585 S 0.18948 0.63854 0.24706 0.0
N586 N 0.23787 0.66297 0.2669 0.0
N587 N 0.2393 0.66071 0.25263 0.0
C588 C 0.26235 0.691 0.2922 0.0
C589 C 0.26806 0.67953 0.22561 0.0
C590 C 0.62803 0.31646 0.4041 0.0
C591 C 0.6485 0.35838 0.38994 0.0
C592 C 0.61435 0.30437 0.46678 0.0
C593 C 0.62677 0.33411 0.51446 0.0
H594 H 0.61185 0.29512 0.36671 0.0
H595 H 0.58898 0.27433 0.4745 0.0
S596 S 0.71527 0.43721 0.50254 0.0
N597 N 0.70473 0.4211 0.42849 0.0
N598 N 0.68235 0.39953 0.54712 0.0
C599 C 0.66184 0.37124 0.50212 0.0
C600 C 0.67397 0.38284 0.43824 0.0
C601 C 0.20204 0.51749 0.97264 0.0
C602 C 0.18973 0.5334 0.91345 0.0
C603 C 0.18379 0.4687 0.96314 0.0
C604 C 0.15895 0.43273 0.90915 0.0
H605 H 0.21719 0.53132 1.01635 0.0
H606 H 0.19035 0.45629 1.00594 0.0
S607 S 0.10718 0.43343 0.75271 0.0
N608 N 0.13141 0.48304 0.7673 0.0
N609 N 0.11976 0.40991 0.80603 0.0
C610 C 0.14491 0.44101 0.84361 0.0
C611 C 0.15258 0.48456 0.82005 0.0
C612 C 0.40809 0.95039 0.24576 0.0
C613 C 0.4201 0.96673 1.18345 0.0
C614 C 0.41636 0.97509 0.30224 0.0
C615 C 0.43847 0.01851 0.30233 0.0
H616 H 0.39107 0.91778 0.25119 0.0
H617 H 0.40521 0.95952 0.34702 0.0
S618 S 0.48051 0.07822 1.15372 0.0
N619 N 0.45733 0.03094 1.12799 0.0
N620 N 0.47382 0.0758 0.23134 0.0
C621 C 0.45182 0.03516 0.24061 0.0
C622 C 0.44249 0.01006 1.18288 0.0
C623 C 0.37435 0.41889 0.46921 0.0
C624 C 0.38943 0.39181 0.47621 0.0
C625 C 0.35945 0.43253 0.52135 0.0
C626 C 0.35857 0.42106 0.5863 0.0
H627 H 0.37443 0.43047 0.42236 0.0
H628 H 0.349 0.45324 0.51028 0.0
S629 S 0.39639 0.35267 0.63517 0.0
N630 N 0.40302 0.35552 0.55747 0.0
N631 N 0.37622 0.38056 0.65235 0.0
C632 C 0.3736 0.39403 0.59403 0.0
C633 C 0.38868 0.38003 0.54083 0.0
C634 C 0.01616 0.48889 0.90738 0.0
C635 C 0.00027 0.47797 0.84436 0.0
C636 C -0.00786 0.47571 0.96512 0.0
C637 C 0.94954 0.4512 0.96598 0.0
H638 H 0.04776 0.50866 0.91308 0.0
H639 H 0.00747 0.48596 1.01006 0.0
S640 S 0.89104 0.41118 0.81705 0.0
N641 N 0.93707 0.43821 0.79033 0.0
N642 N 0.89352 0.41567 0.89497 0.0
C643 C 0.93331 0.44008 0.90369 0.0
C644 C 0.95777 0.4527 0.8451 0.0
C645 C 0.53032 0.96331 0.23243 0.0
C646 C 0.55555 0.95755 0.27544 0.0
C647 C 0.54382 -0.01336 1.17416 0.0
C648 C 0.58411 0.00679 1.15164 0.0
H649 H 0.49898 0.94957 0.24394 0.0
H650 H 0.52172 -0.01101 1.14616 0.0
S651 S 0.66491 0.00491 0.24465 0.0
N652 N 0.62504 0.97688 0.28877 0.0
N653 N 0.64959 0.01942 1.18213 0.0
C654 C 0.60997 0.00164 1.19405 0.0
C655 C 0.59617 0.97783 0.25405 0.0
C656 C 0.45248 0.49732 0.59116 0.0
C657 C 0.4809 0.48398 0.58566 0.0
C658 C 0.43908 0.51232 0.53831 0.0
C659 C 0.45289 0.51573 0.47431 0.0
H660 H 0.43989 0.49596 0.63752 0.0
H661 H 0.41706 0.52097 0.5481 0.0
S662 S 0.53705 0.49866 0.43554 0.0
N663 N 0.52786 0.48421 0.51043 0.0
N664 N 0.50402 0.5115 0.41472 0.0
C665 C 0.48342 0.50527 0.46952 0.0
C666 C 0.4968 0.48986 0.52313 0.0
C667 C 0.9551 0.54877 0.9627 0.0
C668 C -0.01644 0.59094 0.97056 0.0
C669 C 0.92504 0.53243 0.91297 0.0
C670 C 0.92075 0.55653 0.86496 0.0
H671 H 0.95595 0.52766 0.99587 0.0
H672 H 0.90557 0.4999 0.91114 0.0
S673 S -0.01404 0.66927 0.86186 0.0
N674 N 0.00282 0.6564 0.92431 0.0
N675 N 0.94904 0.62675 0.83258 0.0
C676 C 0.94829 0.59893 0.8734 0.0
C677 C -0.02151 0.61557 0.92477 0.0
C678 C 0.51705 0.01513 0.58622 0.0
C679 C 0.5294 0.04005 0.53214 0.0
C680 C 0.53516 -0.00723 0.60043 0.0
C681 C 0.5617 -0.00761 0.55611 0.0
H682 H 0.49129 0.00989 0.61363 0.0
H683 H 0.52127 0.96891 0.63557 0.0
S684 S 0.62022 0.06974 0.43625 0.0
N685 N 0.58358 0.07765 0.45595 0.0
N686 N 0.61492 0.0323 0.48216 0.0
C687 C 0.58301 0.02601 0.51741 0.0
C688 C 0.56568 0.04964 0.50274 0.0
C689 C 0.36998 0.39689 0.81213 0.0
C690 C 0.38512 0.43578 0.83851 0.0
C691 C 0.38754 0.37428 0.82815 0.0
C692 C 0.42339 0.39458 0.86109 0.0
H693 H 0.3463 0.38507 0.77728 0.0
H694 H 0.37994 0.34735 0.80077 0.0
S695 S 0.45515 0.47934 0.97225 0.0
N696 N 0.42246 0.4816 0.92481 0.0
N697 N 0.45534 0.43766 0.95238 0.0
C698 C 0.42718 0.42318 0.90629 0.0
C699 C 0.41036 0.44717 0.89079 0.0
C700 C 0.91715 0.53042 0.2776 0.0
C701 C 0.92008 0.49555 0.28289 0.0
C702 C 0.95164 0.56544 0.25869 0.0
C703 C -0.01277 0.56422 0.2548 0.0
H704 H 0.88864 0.528 0.26811 0.0
H705 H 0.94884 0.58965 0.23728 0.0
S706 S 0.00647 0.49012 0.33688 0.0
N707 N 0.95758 0.47013 0.3384 0.0
N708 N 0.0244 0.53432 0.30062 0.0
C709 C -0.00974 0.53485 0.29051 0.0
C710 C 0.95471 0.5007 0.3109 0.0
C711 C 0.01527 0.60754 0.61541 0.0
C712 C 0.03773 0.609 0.66793 0.0
C713 C -0.02444 0.57658 0.61272 0.0
C714 C 0.95793 0.55041 0.66527 0.0
H715 H 0.02997 0.62343 0.57225 0.0
H716 H 0.95967 0.57174 0.56839 0.0
S717 S 0.00529 0.56406 0.8231 0.0
N718 N 0.0383 0.60252 0.78071 0.0
N719 N -0.03364 0.53786 0.77636 0.0
C720 C -0.021 0.5608 0.72311 0.0
C721 C 0.0179 0.59548 0.72542 0.0
C722 C 0.49887 0.97419 0.86821 0.0
C723 C 0.49589 0.95678 0.92856 0.0
C724 C 0.53415 -0.01074 0.83429 0.0
C725 C 0.56674 -0.00786 0.86643 0.0
H726 H 0.47573 0.97915 0.84952 0.0
H727 H 0.53856 0.00808 0.79313 0.0
S728 S 0.56564 0.92644 0.99395 0.0
N729 N 0.52174 0.92342 0.99738 0.0
N730 N 0.58854 0.95495 0.9315 0.0
C731 C 0.55953 0.96169 0.90959 0.0
C732 C 0.52417 0.9457 0.94552 0.0
C733 C 0.33141 0.41452 0.28334 0.0
C734 C 0.33698 0.44208 0.23559 0.0
C735 C 0.35902 0.40172 0.28671 0.0
C736 C 0.38628 0.41102 0.23672 0.0
H737 H 0.31431 0.41212 0.32541 0.0
H738 H 0.35976 0.38582 0.32857 0.0
S739 S 0.37691 0.4443 1.07671 0.0
N740 N 0.34672 0.45204 1.122 0.0
N741 N 0.39753 0.42514 1.12338 0.0
C742 C 0.37915 0.42386 1.17879 0.0
C743 C 0.35171 0.4376 1.17777 0.0
C744 C 0.18132 0.91767 0.77813 0.0
C745 C 0.20339 0.94911 0.8219 0.0
C746 C 0.18851 0.92531 0.71294 0.0
C747 C 0.21412 0.96499 0.69122 0.0
H748 H 0.16659 0.88641 0.79383 0.0
H749 H 0.17956 0.89988 0.68122 0.0
S750 S 0.25201 0.05886 0.7852 0.0
N751 N 0.23289 0.02192 0.83804 0.0
N752 N 0.24385 0.03647 0.71545 0.0
C753 C 0.22361 -0.0031 0.73336 0.0
C754 C 0.2179 -0.01106 0.79964 0.0
C755 C 0.19147 0.23308 1.10735 0.0
C756 C 0.20697 0.20782 1.09261 0.0
C757 C 0.18138 0.25143 1.05933 0.0
C758 C 0.18616 0.2448 0.9953 0.0
H759 H 0.19172 0.24273 1.15573 0.0
H760 H 0.17357 0.27396 1.07231 0.0
S761 S 0.21534 0.17284 0.93286 0.0
N762 N 0.21842 0.17032 1.01068 0.0
N763 N 0.20002 0.20539 0.91976 0.0
C764 C 0.19601 0.21511 0.98021 0.0
C765 C 0.20621 0.19634 1.02923 0.0
C766 C 0.91552 0.23544 0.43665 0.0
C767 C 0.94004 0.24861 0.38252 0.0
C768 C 0.9325 0.24885 0.49666 0.0
C769 C -0.02607 0.2756 0.50195 0.0
H770 H 0.88363 0.22268 0.43174 0.0
H771 H 0.9126 0.24564 0.53504 0.0
S772 S 0.04915 0.29078 0.38138 0.0
N773 N 0.00641 0.26972 0.34245 0.0
N774 N 0.038 0.29271 0.45647 0.0
C775 C -0.0023 0.27464 0.45251 0.0
C776 C -0.01934 0.26212 0.39111 0.0
C777 C 0.7489 0.98234 0.71208 0.0
C778 C 0.73878 0.9766 0.77667 0.0
C779 C 0.73127 0.94981 0.66982 0.0
C780 C 0.7028 0.9108 0.69113 0.0
H781 H 0.76684 0.0127 0.69315 0.0
H782 H 0.73602 0.95642 0.61955 0.0
S783 S 0.67493 0.87846 0.85781 0.0
N784 N 0.7053 0.92797 0.8618 0.0
N785 N 0.67253 0.86665 0.78199 0.0
C786 C 0.69761 0.90373 0.75668 0.0
C787 C 0.71553 0.93682 0.79974 0.0
C788 C 0.68397 0.68502 1.0954 0.0
C789 C 0.65878 0.70149 1.09926 0.0
C790 C 0.69755 0.68031 1.03623 0.0
C791 C 0.68362 0.68934 0.98041 0.0
H792 H 0.68755 0.66943 1.13548 0.0
H793 H 0.71121 0.66168 1.03383 0.0
S794 S 0.64257 0.7583 0.9722 0.0
N795 N 0.64107 0.74719 1.04823 0.0
N796 N 0.66263 0.73461 0.93601 0.0
C797 C 0.67002 0.71708 0.9862 0.0
C798 C 0.65817 0.72377 1.04673 0.0
C799 C -0.02473 0.77628 0.35258 0.0
C800 C 0.01673 0.79741 0.36383 0.0
C801 C 0.94841 0.7541 0.40083 0.0
C802 C 0.96206 0.7528 0.46184 0.0
H803 H 0.96356 0.77193 0.30484 0.0
H804 H 0.9173 0.7345 0.38869 0.0
S805 S 0.06569 0.81494 0.5206 0.0
N806 N 0.0687 0.82531 0.44403 0.0
N807 N 0.01813 0.78256 0.53496 0.0
C808 C 0.00237 0.77955 0.47633 0.0
C809 C 0.02976 0.80243 0.42712 0.0
C810 C 0.56872 0.1292 0.68437 0.0
C811 C 0.52634 0.10913 0.67577 0.0
C812 C 0.58805 0.12843 0.7431 0.0
C813 C 0.56679 0.10802 0.79927 0.0
H814 H 0.58766 0.14572 0.64465 0.0
H815 H 0.6203 0.14473 0.74449 0.0
S816 S 0.45535 0.04846 0.8049 0.0
N817 N 0.46443 0.06636 0.73175 0.0
N818 N 0.49929 0.06583 0.83886 0.0
C819 C 0.52445 0.08776 0.79106 0.0
C820 C 0.5049 0.088 0.73119 0.0
C821 C 0.38002 0.54619 0.97861 0.0
C822 C 0.34036 0.51747 0.95847 0.0
C823 C 0.39195 0.5576 1.04426 0.0
C824 C 0.36542 0.54265 1.09757 0.0
H825 H 0.4031 0.55967 0.94282 0.0
H826 H 0.42319 0.57871 1.0532 0.0
S827 S 0.25768 0.46603 1.07641 0.0
N828 N 0.27447 0.47359 1.00266 0.0
N829 N 0.29592 0.49608 1.12192 0.0
C830 C 0.32541 0.51449 1.07833 0.0
C831 C 0.3134 0.5018 1.01125 0.0
C832 C 0.82463 0.45304 0.36198 0.0
C833 C 0.83505 0.42313 0.34522 0.0
C834 C 0.82458 0.4668 0.42656 0.0
C835 C 0.83437 0.45175 0.48183 0.0
H836 H 0.81696 0.46698 0.3241 0.0
H837 H 0.81652 0.48983 0.43299 0.0
S838 S 0.86568 0.37416 0.46884 0.0
N839 N 0.85703 0.38037 0.39416 0.0
N840 N 0.85593 0.4044 0.51134 0.0
C841 C 0.84473 0.42175 0.4658 0.0
C842 C 0.84537 0.40821 0.39992 0.0
C843 C 0.46776 0.86276 0.72108 0.0
C844 C 0.4609 0.87984 0.66521 0.0
C845 C 0.45202 0.86341 0.78412 0.0
C846 C 0.42781 0.88117 0.79808 0.0
H847 H 0.48535 0.84823 0.71636 0.0
H848 H 0.45918 0.84957 0.82281 0.0
S849 S 0.40193 0.9329 0.67254 0.0
N850 N 0.4281 0.91699 0.63318 0.0
N851 N 0.40017 0.91802 0.74651 0.0
C852 C 0.42143 0.89878 0.74296 0.0
C853 C 0.4372 0.89812 0.67923 0.0
C854 C 0.47626 0.36251 0.9791 0.0
C855 C 0.50825 0.40232 0.96364 0.0
C856 C 0.4613 0.34928 1.04334 0.0
C857 C 0.47748 0.37435 1.09832 0.0
H858 H 0.46147 0.34139 0.94069 0.0
H859 H 0.43659 0.31874 1.04973 0.0
S860 S 0.56069 0.4818 1.0872 0.0
N861 N 0.55423 0.4666 1.01269 0.0
N862 N 0.52798 0.44242 1.12902 0.0
C863 C 0.50958 0.41396 1.08322 0.0
C864 C 0.52422 0.42754 1.01817 0.0
C865 C 0.09216 0.62244 0.45851 0.0
C866 C 0.09967 0.59018 0.47163 0.0
C867 C 0.09106 0.63654 0.39475 0.0
C868 C 0.09766 0.61981 0.33855 0.0
H869 H 0.08558 0.63621 0.49792 0.0
H870 H 0.0841 0.66046 0.38966 0.0
S871 S 0.11843 0.5342 0.3449 0.0
N872 N 0.11345 0.54218 0.42032 0.0
N873 N 0.11221 0.56766 0.3048 0.0
C874 C 0.10595 0.588 0.35195 0.0
C875 C 0.10649 0.57353 0.4163 0.0
loop_
_geom_bond_atom_site_label_1
_geom_bond_atom_site_label_2
_geom_bond_distance
_geom_bond_site_symmetry_2
_ccdc_geom_bond_type
Dy0 O3 2.307 . S
Dy0 O5 2.395 . S
Dy0 O6 2.379 . S
Dy0 O8 2.339 . S
Dy0 O10 2.298 . S
Dy0 O14 2.275 . S
Dy0 C22 2.738 . S
Dy1 O4 2.298 . S
Dy1 O7 2.275 . S
Dy1 O9 2.307 . S
Dy1 O11 2.395 . S
Dy1 O12 2.379 . S
Dy1 O15 2.339 . S
Dy1 C31 2.738 . S
C2 O14 1.254 . S
C2 O15 1.257 . S
O3 Dy0 2.307 . S
O3 C13 1.266 . S
O4 Dy1 2.298 . S
O4 C13 1.236 . S
O5 Dy0 2.395 . S
O5 C22 1.255 . S
O6 Dy0 2.379 . S
O6 C22 1.249 . S
O7 Dy1 2.275 . S
O7 C23 1.254 . S
O8 Dy0 2.339 . S
O8 C23 1.257 . S
O9 Dy1 2.307 . S
O9 C24 1.266 . S
O10 Dy0 2.298 . S
O10 C24 1.236 . S
O11 Dy1 2.395 . S
O11 C31 1.255 . S
O12 Dy1 2.379 . S
O12 C31 1.249 . S
C13 O3 1.266 . S
C13 O4 1.236 . S
O14 Dy0 2.275 . S
O14 C2 1.254 . S
O15 Dy1 2.339 . S
O15 C2 1.257 . S
C16 C19 1.344 . S
C16 C20 1.328 . S
C16 C22 1.516 . S
C17 C18 1.306 . S
C17 C21 1.327 . S
C18 C17 1.306 . S
C18 C19 1.371 . S
C18 H32 0.931 1_554 S
C19 C16 1.344 . S
C19 C18 1.371 . S
C19 H33 0.931 . S
C20 C16 1.328 . S
C20 C21 1.433 . S
C20 H34 0.931 . S
C21 C17 1.327 . S
C21 C20 1.433 . S
C21 H35 0.933 . S
C22 Dy0 2.738 . S
C22 O5 1.255 . S
C22 O6 1.249 . S
C22 C16 1.516 . S
C23 O7 1.254 . S
C23 O8 1.257 . S
C24 O9 1.266 . S
C24 O10 1.236 . S
C25 C28 1.344 . S
C25 C29 1.328 . S
C25 C31 1.516 . S
C26 C27 1.304 . S
C26 C30 1.323 . S
C27 C26 1.304 . S
C27 C28 1.371 . S
C27 H36 0.930 . S
C28 C25 1.344 . S
C28 C27 1.371 . S
C28 H37 0.931 . S
C29 C25 1.328 . S
C29 C30 1.433 . S
C29 H38 0.931 . S
C30 C26 1.323 . S
C30 C29 1.433 . S
C30 H39 0.933 . S
C31 Dy1 2.738 . S
C31 O11 1.255 . S
C31 O12 1.249 . S
C31 C25 1.516 . S
H32 C18 0.931 1_556 S
H33 C19 0.931 . S
H34 C20 0.931 . S
H35 C21 0.933 . S
H36 C27 0.930 . S
H37 C28 0.931 . S
H38 C29 0.931 . S
H39 C30 0.933 . S
Dy40 O43 2.307 . S
Dy40 O45 2.395 . S
Dy40 O46 2.379 . S
Dy40 O48 2.339 . S
Dy40 O50 2.298 . S
Dy40 O54 2.275 . S
Dy40 C62 2.738 . S
Dy41 O44 2.298 . S
Dy41 O47 2.275 . S
Dy41 O49 2.307 . S
Dy41 O51 2.395 . S
Dy41 O52 2.379 . S
Dy41 O55 2.339 . S
Dy41 C71 2.738 . S
C42 O54 1.254 . S
C42 O55 1.257 . S
O43 Dy40 2.307 . S
O43 C53 1.266 . S
O44 Dy41 2.298 . S
O44 C53 1.236 . S
O45 Dy40 2.395 . S
O45 C62 1.255 . S
O46 Dy40 2.379 . S
O46 C62 1.249 . S
O47 Dy41 2.275 . S
O47 C63 1.254 . S
O48 Dy40 2.339 . S
O48 C63 1.257 . S
O49 Dy41 2.307 . S
O49 C64 1.266 . S
O50 Dy40 2.298 . S
O50 C64 1.236 . S
O51 Dy41 2.395 . S
O51 C71 1.255 . S
O52 Dy41 2.379 . S
O52 C71 1.249 . S
C53 O43 1.266 . S
C53 O44 1.236 . S
O54 Dy40 2.275 . S
O54 C42 1.254 . S
O55 Dy41 2.339 . S
O55 C42 1.257 . S
C56 C59 1.344 . S
C56 C60 1.328 . S
C56 C62 1.516 . S
C57 C58 1.304 . S
C57 C61 1.323 . S
C58 C57 1.304 . S
C58 C59 1.371 . S
C58 H72 0.930 . S
C59 C56 1.344 . S
C59 C58 1.371 . S
C59 H73 0.931 . S
C60 C56 1.328 . S
C60 C61 1.433 . S
C60 H74 0.931 . S
C61 C57 1.323 . S
C61 C60 1.433 . S
C61 H75 0.933 . S
C62 Dy40 2.738 . S
C62 O45 1.255 . S
C62 O46 1.249 . S
C62 C56 1.516 . S
C63 O47 1.254 . S
C63 O48 1.257 . S
C64 O49 1.266 . S
C64 O50 1.236 . S
C65 C68 1.344 . S
C65 C69 1.328 . S
C65 C71 1.516 . S
C66 C67 1.304 . S
C66 C70 1.323 . S
C67 C66 1.304 . S
C67 C68 1.371 . S
C67 H76 0.930 . S
C68 C65 1.344 . S
C68 C67 1.371 . S
C68 H77 0.931 . S
C69 C65 1.328 . S
C69 C70 1.433 . S
C69 H78 0.931 . S
C70 C66 1.323 . S
C70 C69 1.433 . S
C70 H79 0.933 . S
C71 Dy41 2.738 . S
C71 O51 1.255 . S
C71 O52 1.249 . S
C71 C65 1.516 . S
H72 C58 0.930 . S
H73 C59 0.931 . S
H74 C60 0.931 . S
H75 C61 0.933 . S
H76 C67 0.930 . S
H77 C68 0.931 . S
H78 C69 0.931 . S
H79 C70 0.933 . S
Dy80 O83 2.307 . S
Dy80 O85 2.395 . S
Dy80 O86 2.379 . S
Dy80 O88 2.339 . S
Dy80 O90 2.298 . S
Dy80 O94 2.275 . S
Dy80 C102 2.738 . S
Dy81 O84 2.298 . S
Dy81 O87 2.275 . S
Dy81 O89 2.307 . S
Dy81 O91 2.395 1_556 S
Dy81 O92 2.379 1_556 S
Dy81 O95 2.339 . S
Dy81 C111 2.738 1_556 S
C82 O94 1.254 . S
C82 O95 1.257 . S
O83 Dy80 2.307 . S
O83 C93 1.266 . S
O84 Dy81 2.298 . S
O84 C93 1.236 . S
O85 Dy80 2.395 . S
O85 C102 1.255 . S
O86 Dy80 2.379 . S
O86 C102 1.249 . S
O87 Dy81 2.275 . S
O87 C103 1.254 . S
O88 Dy80 2.339 . S
O88 C103 1.257 . S
O89 Dy81 2.307 . S
O89 C104 1.266 . S
O90 Dy80 2.298 . S
O90 C104 1.236 . S
O91 Dy81 2.395 1_554 S
O91 C111 1.255 . S
O92 Dy81 2.379 1_554 S
O92 C111 1.249 . S
C93 O83 1.266 . S
C93 O84 1.236 . S
O94 Dy80 2.275 . S
O94 C82 1.254 . S
O95 Dy81 2.339 . S
O95 C82 1.257 . S
C96 C99 1.344 . S
C96 C100 1.328 . S
C96 C102 1.516 . S
C97 C98 1.304 . S
C97 C101 1.323 . S
C98 C97 1.304 . S
C98 C99 1.371 . S
C98 H112 0.930 . S
C99 C96 1.344 . S
C99 C98 1.371 . S
C99 H113 0.931 . S
C100 C96 1.328 . S
C100 C101 1.433 . S
C100 H114 0.931 . S
C101 C97 1.323 . S
C101 C100 1.433 . S
C101 H115 0.933 . S
C102 Dy80 2.738 . S
C102 O85 1.255 . S
C102 O86 1.249 . S
C102 C96 1.516 . S
C103 O87 1.254 . S
C103 O88 1.257 . S
C104 O89 1.266 . S
C104 O90 1.236 . S
C105 C108 1.344 . S
C105 C109 1.328 . S
C105 C111 1.516 . S
C106 C107 1.304 . S
C106 C110 1.323 . S
C107 C106 1.304 . S
C107 C108 1.371 . S
C107 H116 0.930 . S
C108 C105 1.344 . S
C108 C107 1.371 . S
C108 H117 0.931 . S
C109 C105 1.328 . S
C109 C110 1.433 . S
C109 H118 0.931 . S
C110 C106 1.323 . S
C110 C109 1.433 . S
C110 H119 0.933 . S
C111 Dy81 2.738 1_554 S
C111 O91 1.255 . S
C111 O92 1.249 . S
C111 C105 1.516 . S
H112 C98 0.930 . S
H113 C99 0.931 . S
H114 C100 0.931 . S
H115 C101 0.933 . S
H116 C107 0.930 . S
H117 C108 0.931 . S
H118 C109 0.931 . S
H119 C110 0.933 . S
Dy120 O123 2.307 . S
Dy120 O125 2.395 . S
Dy120 O126 2.379 . S
Dy120 O128 2.339 . S
Dy120 O130 2.298 . S
Dy120 O134 2.275 . S
Dy120 C142 2.738 . S
Dy121 O124 2.298 . S
Dy121 O127 2.275 . S
Dy121 O129 2.307 . S
Dy121 O131 2.395 . S
Dy121 O132 2.379 . S
Dy121 O135 2.339 . S
Dy121 C151 2.738 . S
C122 O134 1.254 . S
C122 O135 1.257 . S
O123 Dy120 2.307 . S
O123 C133 1.266 . S
O124 Dy121 2.298 . S
O124 C133 1.236 . S
O125 Dy120 2.395 . S
O125 C142 1.255 . S
O126 Dy120 2.379 . S
O126 C142 1.249 . S
O127 Dy121 2.275 . S
O127 C143 1.254 . S
O128 Dy120 2.339 . S
O128 C143 1.257 . S
O129 Dy121 2.307 . S
O129 C144 1.266 . S
O130 Dy120 2.298 . S
O130 C144 1.236 . S
O131 Dy121 2.395 . S
O131 C151 1.255 . S
O132 Dy121 2.379 . S
O132 C151 1.249 . S
C133 O123 1.266 . S
C133 O124 1.236 . S
O134 Dy120 2.275 . S
O134 C122 1.254 . S
O135 Dy121 2.339 . S
O135 C122 1.257 . S
C136 C139 1.344 . S
C136 C140 1.328 . S
C136 C142 1.516 . S
C137 C138 1.306 . S
C137 C141 1.327 . S
C138 C137 1.306 . S
C138 C139 1.371 . S
C138 H152 0.930 1_554 S
C139 C136 1.344 . S
C139 C138 1.371 . S
C139 H153 0.931 . S
C140 C136 1.328 . S
C140 C141 1.433 . S
C140 H154 0.931 . S
C141 C137 1.327 . S
C141 C140 1.433 . S
C141 H155 0.933 . S
C142 Dy120 2.738 . S
C142 O125 1.255 . S
C142 O126 1.249 . S
C142 C136 1.516 . S
C143 O127 1.254 . S
C143 O128 1.257 . S
C144 O129 1.266 . S
C144 O130 1.236 . S
C145 C148 1.344 . S
C145 C149 1.328 . S
C145 C151 1.516 . S
C146 C147 1.304 . S
C146 C150 1.323 . S
C147 C146 1.304 . S
C147 C148 1.371 . S
C147 H156 0.930 . S
C148 C145 1.344 . S
C148 C147 1.371 . S
C148 H157 0.931 . S
C149 C145 1.328 . S
C149 C150 1.433 . S
C149 H158 0.931 . S
C150 C146 1.323 . S
C150 C149 1.433 . S
C150 H159 0.933 . S
C151 Dy121 2.738 . S
C151 O131 1.255 . S
C151 O132 1.249 . S
C151 C145 1.516 . S
H152 C138 0.930 1_556 S
H153 C139 0.931 . S
H154 C140 0.931 . S
H155 C141 0.933 . S
H156 C147 0.930 . S
H157 C148 0.931 . S
H158 C149 0.931 . S
H159 C150 0.933 . S
Dy160 O163 2.307 . S
Dy160 O165 2.395 . S
Dy160 O166 2.379 . S
Dy160 O168 2.339 . S
Dy160 O170 2.298 . S
Dy160 O174 2.275 . S
Dy160 C182 2.738 . S
Dy161 O164 2.298 . S
Dy161 O167 2.275 . S
Dy161 O169 2.307 . S
Dy161 O171 2.395 . S
Dy161 O172 2.379 . S
Dy161 O175 2.339 . S
Dy161 C191 2.738 . S
C162 O174 1.254 . S
C162 O175 1.257 . S
O163 Dy160 2.307 . S
O163 C173 1.266 . S
O164 Dy161 2.298 . S
O164 C173 1.236 . S
O165 Dy160 2.395 . S
O165 C182 1.255 . S
O166 Dy160 2.379 . S
O166 C182 1.249 . S
O167 Dy161 2.275 . S
O167 C183 1.254 . S
O168 Dy160 2.339 . S
O168 C183 1.257 . S
O169 Dy161 2.307 . S
O169 C184 1.266 . S
O170 Dy160 2.298 . S
O170 C184 1.236 . S
O171 Dy161 2.395 . S
O171 C191 1.255 . S
O172 Dy161 2.379 . S
O172 C191 1.249 . S
C173 O163 1.266 . S
C173 O164 1.236 . S
O174 Dy160 2.275 . S
O174 C162 1.254 . S
O175 Dy161 2.339 . S
O175 C162 1.257 . S
C176 C179 1.344 . S
C176 C180 1.328 . S
C176 C182 1.516 . S
C177 C178 1.304 . S
C177 C181 1.323 . S
C178 C177 1.304 . S
C178 C179 1.371 . S
C178 H192 0.930 . S
C179 C176 1.344 . S
C179 C178 1.371 . S
C179 H193 0.931 . S
C180 C176 1.328 . S
C180 C181 1.433 . S
C180 H194 0.931 . S
C181 C177 1.323 . S
C181 C180 1.433 . S
C181 H195 0.933 . S
C182 Dy160 2.738 . S
C182 O165 1.255 . S
C182 O166 1.249 . S
C182 C176 1.516 . S
C183 O167 1.254 . S
C183 O168 1.257 . S
C184 O169 1.266 . S
C184 O170 1.236 . S
C185 C188 1.344 . S
C185 C189 1.328 . S
C185 C191 1.516 . S
C186 C187 1.304 . S
C186 C190 1.323 . S
C187 C186 1.304 . S
C187 C188 1.371 . S
C187 H196 0.930 . S
C188 C185 1.344 . S
C188 C187 1.371 . S
C188 H197 0.931 . S
C189 C185 1.328 . S
C189 C190 1.433 . S
C189 H198 0.931 . S
C190 C186 1.323 . S
C190 C189 1.433 . S
C190 H199 0.933 . S
C191 Dy161 2.738 . S
C191 O171 1.255 . S
C191 O172 1.249 . S
C191 C185 1.516 . S
H192 C178 0.930 . S
H193 C179 0.931 . S
H194 C180 0.931 . S
H195 C181 0.933 . S
H196 C187 0.930 . S
H197 C188 0.931 . S
H198 C189 0.931 . S
H199 C190 0.933 . S
Dy200 O203 2.307 . S
Dy200 O205 2.395 . S
Dy200 O206 2.379 . S
Dy200 O208 2.339 . S
Dy200 O210 2.298 . S
Dy200 O214 2.275 . S
Dy200 C222 2.738 . S
Dy201 O204 2.298 . S
Dy201 O207 2.275 . S
Dy201 O209 2.307 . S
Dy201 O211 2.395 1_556 S
Dy201 O212 2.379 1_556 S
Dy201 O215 2.339 . S
Dy201 C231 2.738 1_556 S
C202 O214 1.254 . S
C202 O215 1.257 . S
O203 Dy200 2.307 . S
O203 C213 1.266 . S
O204 Dy201 2.298 . S
O204 C213 1.236 . S
O205 Dy200 2.395 . S
O205 C222 1.255 . S
O206 Dy200 2.379 . S
O206 C222 1.249 . S
O207 Dy201 2.275 . S
O207 C223 1.254 . S
O208 Dy200 2.339 . S
O208 C223 1.257 . S
O209 Dy201 2.307 . S
O209 C224 1.266 . S
O210 Dy200 2.298 . S
O210 C224 1.236 . S
O211 Dy201 2.395 1_554 S
O211 C231 1.255 . S
O212 Dy201 2.379 1_554 S
O212 C231 1.249 . S
C213 O203 1.266 . S
C213 O204 1.236 . S
O214 Dy200 2.275 . S
O214 C202 1.254 . S
O215 Dy201 2.339 . S
O215 C202 1.257 . S
C216 C219 1.344 . S
C216 C220 1.328 . S
C216 C222 1.516 . S
C217 C218 1.304 . S
C217 C221 1.323 . S
C218 C217 1.304 . S
C218 C219 1.371 . S
C218 H232 0.930 . S
C219 C216 1.344 . S
C219 C218 1.371 . S
C219 H233 0.931 . S
C220 C216 1.328 . S
C220 C221 1.433 . S
C220 H234 0.931 . S
C221 C217 1.323 . S
C221 C220 1.433 . S
C221 H235 0.933 . S
C222 Dy200 2.738 . S
C222 O205 1.255 . S
C222 O206 1.249 . S
C222 C216 1.516 . S
C223 O207 1.254 . S
C223 O208 1.257 . S
C224 O209 1.266 . S
C224 O210 1.236 . S
C225 C228 1.344 . S
C225 C229 1.328 . S
C225 C231 1.516 . S
C226 C227 1.304 . S
C226 C230 1.323 . S
C227 C226 1.304 . S
C227 C228 1.371 . S
C227 H236 0.930 . S
C228 C225 1.344 . S
C228 C227 1.371 . S
C228 H237 0.931 . S
C229 C225 1.328 . S
C229 C230 1.433 . S
C229 H238 0.931 . S
C230 C226 1.323 . S
C230 C229 1.433 . S
C230 H239 0.933 . S
C231 Dy201 2.738 1_554 S
C231 O211 1.255 . S
C231 O212 1.249 . S
C231 C225 1.516 . S
H232 C218 0.930 . S
H233 C219 0.931 . S
H234 C220 0.931 . S
H235 C221 0.933 . S
H236 C227 0.930 . S
H237 C228 0.931 . S
H238 C229 0.931 . S
H239 C230 0.933 . S
Dy240 O243 2.307 . S
Dy240 O245 2.395 . S
Dy240 O246 2.379 . S
Dy240 O248 2.339 . S
Dy240 O250 2.298 . S
Dy240 O254 2.275 . S
Dy240 C262 2.738 . S
Dy241 O244 2.298 . S
Dy241 O247 2.275 . S
Dy241 O249 2.307 . S
Dy241 O251 2.395 . S
Dy241 O252 2.379 . S
Dy241 O255 2.339 . S
Dy241 C271 2.738 . S
C242 O254 1.254 . S
C242 O255 1.257 . S
O243 Dy240 2.307 . S
O243 C253 1.266 . S
O244 Dy241 2.298 . S
O244 C253 1.236 . S
O245 Dy240 2.395 . S
O245 C262 1.255 . S
O246 Dy240 2.379 . S
O246 C262 1.249 . S
O247 Dy241 2.275 . S
O247 C263 1.254 . S
O248 Dy240 2.339 . S
O248 C263 1.257 . S
O249 Dy241 2.307 . S
O249 C264 1.266 . S
O250 Dy240 2.298 . S
O250 C264 1.236 . S
O251 Dy241 2.395 . S
O251 C271 1.255 . S
O252 Dy241 2.379 . S
O252 C271 1.249 . S
C253 O243 1.266 . S
C253 O244 1.236 . S
O254 Dy240 2.275 . S
O254 C242 1.254 . S
O255 Dy241 2.339 . S
O255 C242 1.257 . S
C256 C259 1.344 . S
C256 C260 1.328 . S
C256 C262 1.516 . S
C257 C258 1.304 . S
C257 C261 1.323 . S
C258 C257 1.304 . S
C258 C259 1.371 . S
C258 H272 0.930 . S
C259 C256 1.344 . S
C259 C258 1.371 . S
C259 H273 0.931 . S
C260 C256 1.328 . S
C260 C261 1.433 . S
C260 H274 0.931 . S
C261 C257 1.323 . S
C261 C260 1.433 . S
C261 H275 0.933 . S
C262 Dy240 2.738 . S
C262 O245 1.255 . S
C262 O246 1.249 . S
C262 C256 1.516 . S
C263 O247 1.254 . S
C263 O248 1.257 . S
C264 O249 1.266 . S
C264 O250 1.236 . S
C265 C268 1.344 . S
C265 C269 1.328 . S
C265 C271 1.516 . S
C266 C267 1.304 . S
C266 C270 1.323 . S
C267 C266 1.304 . S
C267 C268 1.371 . S
C267 H276 0.930 . S
C268 C265 1.344 . S
C268 C267 1.371 . S
C268 H277 0.931 . S
C269 C265 1.328 . S
C269 C270 1.433 . S
C269 H278 0.931 . S
C270 C266 1.323 . S
C270 C269 1.433 . S
C270 H279 0.933 . S
C271 Dy241 2.738 . S
C271 O251 1.255 . S
C271 O252 1.249 . S
C271 C265 1.516 . S
H272 C258 0.930 . S
H273 C259 0.931 . S
H274 C260 0.931 . S
H275 C261 0.933 . S
H276 C267 0.930 . S
H277 C268 0.931 . S
H278 C269 0.931 . S
H279 C270 0.933 . S
Dy280 O283 2.307 . S
Dy280 O285 2.395 . S
Dy280 O286 2.379 . S
Dy280 O288 2.339 . S
Dy280 O290 2.298 . S
Dy280 O294 2.275 . S
Dy280 C302 2.738 . S
Dy281 O284 2.298 . S
Dy281 O287 2.275 . S
Dy281 O289 2.307 . S
Dy281 O291 2.395 . S
Dy281 O292 2.379 . S
Dy281 O295 2.339 . S
Dy281 C311 2.738 . S
C282 O294 1.254 . S
C282 O295 1.257 . S
O283 Dy280 2.307 . S
O283 C293 1.266 . S
O284 Dy281 2.298 . S
O284 C293 1.236 . S
O285 Dy280 2.395 . S
O285 C302 1.255 . S
O286 Dy280 2.379 . S
O286 C302 1.249 . S
O287 Dy281 2.275 . S
O287 C303 1.254 . S
O288 Dy280 2.339 . S
O288 C303 1.257 . S
O289 Dy281 2.307 . S
O289 C304 1.266 . S
O290 Dy280 2.298 . S
O290 C304 1.236 . S
O291 Dy281 2.395 . S
O291 C311 1.255 . S
O292 Dy281 2.379 . S
O292 C311 1.249 . S
C293 O283 1.266 . S
C293 O284 1.236 . S
O294 Dy280 2.275 . S
O294 C282 1.254 . S
O295 Dy281 2.339 . S
O295 C282 1.257 . S
C296 C299 1.344 . S
C296 C300 1.328 . S
C296 C302 1.516 . S
C297 C298 1.306 . S
C297 C301 1.327 . S
C298 C297 1.306 . S
C298 C299 1.371 . S
C298 H312 0.931 1_556 S
C299 C296 1.344 . S
C299 C298 1.371 . S
C299 H313 0.931 . S
C300 C296 1.328 . S
C300 C301 1.433 . S
C300 H314 0.931 . S
C301 C297 1.327 . S
C301 C300 1.433 . S
C301 H315 0.933 . S
C302 Dy280 2.738 . S
C302 O285 1.255 . S
C302 O286 1.249 . S
C302 C296 1.516 . S
C303 O287 1.254 . S
C303 O288 1.257 . S
C304 O289 1.266 . S
C304 O290 1.236 . S
C305 C308 1.344 . S
C305 C309 1.328 . S
C305 C311 1.516 . S
C306 C307 1.304 . S
C306 C310 1.323 . S
C307 C306 1.304 . S
C307 C308 1.371 . S
C307 H316 0.930 . S
C308 C305 1.344 . S
C308 C307 1.371 . S
C308 H317 0.931 . S
C309 C305 1.328 . S
C309 C310 1.433 . S
C309 H318 0.931 . S
C310 C306 1.323 . S
C310 C309 1.433 . S
C310 H319 0.933 . S
C311 Dy281 2.738 . S
C311 O291 1.255 . S
C311 O292 1.249 . S
C311 C305 1.516 . S
H312 C298 0.931 1_554 S
H313 C299 0.931 . S
H314 C300 0.931 . S
H315 C301 0.933 . S
H316 C307 0.930 . S
H317 C308 0.931 . S
H318 C309 0.931 . S
H319 C310 0.933 . S
Dy320 O323 2.307 . S
Dy320 O325 2.395 . S
Dy320 O326 2.379 . S
Dy320 O328 2.339 . S
Dy320 O330 2.298 . S
Dy320 O334 2.275 . S
Dy320 C342 2.738 . S
Dy321 O324 2.298 . S
Dy321 O327 2.275 . S
Dy321 O329 2.307 . S
Dy321 O331 2.395 1_554 S
Dy321 O332 2.379 1_554 S
Dy321 O335 2.339 . S
Dy321 C351 2.738 1_554 S
C322 O334 1.254 . S
C322 O335 1.257 . S
O323 Dy320 2.307 . S
O323 C333 1.266 . S
O324 Dy321 2.298 . S
O324 C333 1.236 . S
O325 Dy320 2.395 . S
O325 C342 1.255 . S
O326 Dy320 2.379 . S
O326 C342 1.249 . S
O327 Dy321 2.275 . S
O327 C343 1.254 . S
O328 Dy320 2.339 . S
O328 C343 1.257 . S
O329 Dy321 2.307 . S
O329 C344 1.266 . S
O330 Dy320 2.298 . S
O330 C344 1.236 . S
O331 Dy321 2.395 1_556 S
O331 C351 1.255 . S
O332 Dy321 2.379 1_556 S
O332 C351 1.249 . S
C333 O323 1.266 . S
C333 O324 1.236 . S
O334 Dy320 2.275 . S
O334 C322 1.254 . S
O335 Dy321 2.339 . S
O335 C322 1.257 . S
C336 C339 1.344 . S
C336 C340 1.328 . S
C336 C342 1.516 . S
C337 C338 1.304 . S
C337 C341 1.323 . S
C338 C337 1.304 . S
C338 C339 1.371 . S
C338 H352 0.930 . S
C339 C336 1.344 . S
C339 C338 1.371 . S
C339 H353 0.931 . S
C340 C336 1.328 . S
C340 C341 1.433 . S
C340 H354 0.931 . S
C341 C337 1.323 . S
C341 C340 1.433 . S
C341 H355 0.933 . S
C342 Dy320 2.738 . S
C342 O325 1.255 . S
C342 O326 1.249 . S
C342 C336 1.516 . S
C343 O327 1.254 . S
C343 O328 1.257 . S
C344 O329 1.266 . S
C344 O330 1.236 . S
C345 C348 1.344 . S
C345 C349 1.328 . S
C345 C351 1.516 . S
C346 C347 1.304 . S
C346 C350 1.323 . S
C347 C346 1.304 . S
C347 C348 1.371 . S
C347 H356 0.930 . S
C348 C345 1.344 . S
C348 C347 1.371 . S
C348 H357 0.931 . S
C349 C345 1.328 . S
C349 C350 1.433 . S
C349 H358 0.931 . S
C350 C346 1.323 . S
C350 C349 1.433 . S
C350 H359 0.933 . S
C351 Dy321 2.738 1_556 S
C351 O331 1.255 . S
C351 O332 1.249 . S
C351 C345 1.516 . S
H352 C338 0.930 . S
H353 C339 0.931 . S
H354 C340 0.931 . S
H355 C341 0.933 . S
H356 C347 0.930 . S
H357 C348 0.931 . S
H358 C349 0.931 . S
H359 C350 0.933 . S
Dy360 O363 2.307 . S
Dy360 O365 2.395 . S
Dy360 O366 2.379 . S
Dy360 O368 2.339 . S
Dy360 O370 2.298 . S
Dy360 O374 2.275 . S
Dy360 C382 2.738 . S
Dy361 O364 2.298 . S
Dy361 O367 2.275 . S
Dy361 O369 2.307 . S
Dy361 O371 2.395 . S
Dy361 O372 2.379 . S
Dy361 O375 2.339 . S
Dy361 C391 2.738 . S
C362 O374 1.254 . S
C362 O375 1.257 . S
O363 Dy360 2.307 . S
O363 C373 1.266 . S
O364 Dy361 2.298 . S
O364 C373 1.236 . S
O365 Dy360 2.395 . S
O365 C382 1.255 . S
O366 Dy360 2.379 . S
O366 C382 1.249 . S
O367 Dy361 2.275 . S
O367 C383 1.254 . S
O368 Dy360 2.339 . S
O368 C383 1.257 . S
O369 Dy361 2.307 . S
O369 C384 1.266 . S
O370 Dy360 2.298 . S
O370 C384 1.236 . S
O371 Dy361 2.395 . S
O371 C391 1.255 . S
O372 Dy361 2.379 . S
O372 C391 1.249 . S
C373 O363 1.266 . S
C373 O364 1.236 . S
O374 Dy360 2.275 . S
O374 C362 1.254 . S
O375 Dy361 2.339 . S
O375 C362 1.257 . S
C376 C379 1.344 . S
C376 C380 1.328 . S
C376 C382 1.516 . S
C377 C378 1.304 . S
C377 C381 1.323 . S
C378 C377 1.304 . S
C378 C379 1.371 . S
C378 H392 0.930 . S
C379 C376 1.344 . S
C379 C378 1.371 . S
C379 H393 0.931 . S
C380 C376 1.328 . S
C380 C381 1.433 . S
C380 H394 0.931 . S
C381 C377 1.323 . S
C381 C380 1.433 . S
C381 H395 0.933 . S
C382 Dy360 2.738 . S
C382 O365 1.255 . S
C382 O366 1.249 . S
C382 C376 1.516 . S
C383 O367 1.254 . S
C383 O368 1.257 . S
C384 O369 1.266 . S
C384 O370 1.236 . S
C385 C388 1.344 . S
C385 C389 1.328 . S
C385 C391 1.516 . S
C386 C387 1.304 . S
C386 C390 1.323 . S
C387 C386 1.304 . S
C387 C388 1.371 . S
C387 H396 0.930 . S
C388 C385 1.344 . S
C388 C387 1.371 . S
C388 H397 0.931 . S
C389 C385 1.328 . S
C389 C390 1.433 . S
C389 H398 0.931 . S
C390 C386 1.323 . S
C390 C389 1.433 . S
C390 H399 0.933 . S
C391 Dy361 2.738 . S
C391 O371 1.255 . S
C391 O372 1.249 . S
C391 C385 1.516 . S
H392 C378 0.930 . S
H393 C379 0.931 . S
H394 C380 0.931 . S
H395 C381 0.933 . S
H396 C387 0.930 . S
H397 C388 0.931 . S
H398 C389 0.931 . S
H399 C390 0.933 . S
Dy400 O403 2.307 . S
Dy400 O405 2.395 . S
Dy400 O406 2.379 . S
Dy400 O408 2.339 . S
Dy400 O410 2.298 . S
Dy400 O414 2.275 . S
Dy400 C422 2.738 . S
Dy401 O404 2.298 . S
Dy401 O407 2.275 . S
Dy401 O409 2.307 . S
Dy401 O411 2.395 . S
Dy401 O412 2.379 . S
Dy401 O415 2.339 . S
Dy401 C431 2.738 . S
C402 O414 1.254 . S
C402 O415 1.257 . S
O403 Dy400 2.307 . S
O403 C413 1.266 . S
O404 Dy401 2.298 . S
O404 C413 1.236 . S
O405 Dy400 2.395 . S
O405 C422 1.255 . S
O406 Dy400 2.379 . S
O406 C422 1.249 . S
O407 Dy401 2.275 . S
O407 C423 1.254 . S
O408 Dy400 2.339 . S
O408 C423 1.257 . S
O409 Dy401 2.307 . S
O409 C424 1.266 . S
O410 Dy400 2.298 . S
O410 C424 1.236 . S
O411 Dy401 2.395 . S
O411 C431 1.255 . S
O412 Dy401 2.379 . S
O412 C431 1.249 . S
C413 O403 1.266 . S
C413 O404 1.236 . S
O414 Dy400 2.275 . S
O414 C402 1.254 . S
O415 Dy401 2.339 . S
O415 C402 1.257 . S
C416 C419 1.344 . S
C416 C420 1.328 . S
C416 C422 1.516 . S
C417 C418 1.307 . S
C417 C421 1.327 . S
C418 C417 1.307 . S
C418 C419 1.371 . S
C418 H432 0.931 1_556 S
C419 C416 1.344 . S
C419 C418 1.371 . S
C419 H433 0.931 . S
C420 C416 1.328 . S
C420 C421 1.433 . S
C420 H434 0.931 . S
C421 C417 1.327 . S
C421 C420 1.433 . S
C421 H435 0.933 . S
C422 Dy400 2.738 . S
C422 O405 1.255 . S
C422 O406 1.249 . S
C422 C416 1.516 . S
C423 O407 1.254 . S
C423 O408 1.257 . S
C424 O409 1.266 . S
C424 O410 1.236 . S
C425 C428 1.344 . S
C425 C429 1.328 . S
C425 C431 1.516 . S
C426 C427 1.304 . S
C426 C430 1.323 . S
C427 C426 1.304 . S
C427 C428 1.371 . S
C427 H436 0.930 . S
C428 C425 1.344 . S
C428 C427 1.371 . S
C428 H437 0.931 . S
C429 C425 1.328 . S
C429 C430 1.433 . S
C429 H438 0.931 . S
C430 C426 1.323 . S
C430 C429 1.433 . S
C430 H439 0.933 . S
C431 Dy401 2.738 . S
C431 O411 1.255 . S
C431 O412 1.249 . S
C431 C425 1.516 . S
H432 C418 0.931 1_554 S
H433 C419 0.931 . S
H434 C420 0.931 . S
H435 C421 0.933 . S
H436 C427 0.930 . S
H437 C428 0.931 . S
H438 C429 0.931 . S
H439 C430 0.933 . S
Dy440 O443 2.307 . S
Dy440 O445 2.395 . S
Dy440 O446 2.379 . S
Dy440 O448 2.339 . S
Dy440 O450 2.298 . S
Dy440 O454 2.275 . S
Dy440 C462 2.738 . S
Dy441 O444 2.298 . S
Dy441 O447 2.275 . S
Dy441 O449 2.307 . S
Dy441 O451 2.395 1_554 S
Dy441 O452 2.379 1_554 S
Dy441 O455 2.339 . S
Dy441 C471 2.738 1_554 S
C442 O454 1.254 . S
C442 O455 1.257 . S
O443 Dy440 2.307 . S
O443 C453 1.266 . S
O444 Dy441 2.298 . S
O444 C453 1.236 . S
O445 Dy440 2.395 . S
O445 C462 1.255 . S
O446 Dy440 2.379 . S
O446 C462 1.249 . S
O447 Dy441 2.275 . S
O447 C463 1.254 . S
O448 Dy440 2.339 . S
O448 C463 1.257 . S
O449 Dy441 2.307 . S
O449 C464 1.266 . S
O450 Dy440 2.298 . S
O450 C464 1.236 . S
O451 Dy441 2.395 1_556 S
O451 C471 1.255 . S
O452 Dy441 2.379 1_556 S
O452 C471 1.249 . S
C453 O443 1.266 . S
C453 O444 1.236 . S
O454 Dy440 2.275 . S
O454 C442 1.254 . S
O455 Dy441 2.339 . S
O455 C442 1.257 . S
C456 C459 1.344 . S
C456 C460 1.328 . S
C456 C462 1.516 . S
C457 C458 1.304 . S
C457 C461 1.323 . S
C458 C457 1.304 . S
C458 C459 1.371 . S
C458 H472 0.930 . S
C459 C456 1.344 . S
C459 C458 1.371 . S
C459 H473 0.931 . S
C460 C456 1.328 . S
C460 C461 1.433 . S
C460 H474 0.931 . S
C461 C457 1.323 . S
C461 C460 1.433 . S
C461 H475 0.933 . S
C462 Dy440 2.738 . S
C462 O445 1.255 . S
C462 O446 1.249 . S
C462 C456 1.516 . S
C463 O447 1.254 . S
C463 O448 1.257 . S
C464 O449 1.266 . S
C464 O450 1.236 . S
C465 C468 1.344 . S
C465 C469 1.328 . S
C465 C471 1.516 . S
C466 C467 1.304 . S
C466 C470 1.323 . S
C467 C466 1.304 . S
C467 C468 1.371 . S
C467 H476 0.930 . S
C468 C465 1.344 . S
C468 C467 1.371 . S
C468 H477 0.931 . S
C469 C465 1.328 . S
C469 C470 1.433 . S
C469 H478 0.931 . S
C470 C466 1.323 . S
C470 C469 1.433 . S
C470 H479 0.933 . S
C471 Dy441 2.738 1_556 S
C471 O451 1.255 . S
C471 O452 1.249 . S
C471 C465 1.516 . S
H472 C458 0.930 . S
H473 C459 0.931 . S
H474 C460 0.931 . S
H475 C461 0.933 . S
H476 C467 0.930 . S
H477 C468 0.931 . S
H478 C469 0.931 . S
H479 C470 0.933 . S
C480 C481 1.369 . S
C480 C482 1.419 . S
C480 H484 0.930 . S
C481 C480 1.369 . S
C481 C490 1.429 . S
C482 C480 1.419 . S
C482 C483 1.363 . S
C482 H485 0.929 . S
C483 C482 1.363 . S
C483 C489 1.428 . S
H484 C480 0.930 . S
H485 C482 0.929 . S
S486 N487 1.613 . S
S486 N488 1.610 . S
N487 S486 1.613 . S
N487 C490 1.350 . S
N488 S486 1.610 . S
N488 C489 1.351 . S
C489 C483 1.428 . S
C489 N488 1.351 . S
C489 C490 1.434 . S
C490 C481 1.429 . S
C490 N487 1.350 . S
C490 C489 1.434 . S
C491 C492 1.369 . S
C491 C493 1.419 . S
C491 H495 0.930 . S
C492 C491 1.369 . S
C492 C501 1.429 . S
C493 C491 1.419 . S
C493 C494 1.363 . S
C493 H496 0.929 . S
C494 C493 1.363 . S
C494 C500 1.428 . S
H495 C491 0.930 . S
H496 C493 0.929 . S
S497 N498 1.613 . S
S497 N499 1.610 . S
N498 S497 1.613 . S
N498 C501 1.350 . S
N499 S497 1.610 . S
N499 C500 1.351 . S
C500 C494 1.428 . S
C500 N499 1.351 . S
C500 C501 1.434 . S
C501 C492 1.429 . S
C501 N498 1.350 . S
C501 C500 1.434 . S
C502 C503 1.369 . S
C502 C504 1.419 . S
C502 H506 0.930 . S
C503 C502 1.369 . S
C503 C512 1.429 . S
C504 C502 1.419 . S
C504 C505 1.363 . S
C504 H507 0.929 . S
C505 C504 1.363 . S
C505 C511 1.428 . S
H506 C502 0.930 . S
H507 C504 0.929 . S
S508 N509 1.613 . S
S508 N510 1.610 . S
N509 S508 1.613 . S
N509 C512 1.350 . S
N510 S508 1.610 . S
N510 C511 1.351 . S
C511 C505 1.428 . S
C511 N510 1.351 . S
C511 C512 1.434 . S
C512 C503 1.429 . S
C512 N509 1.350 . S
C512 C511 1.434 . S
C513 C514 1.369 . S
C513 C515 1.419 . S
C513 H517 0.930 . S
C514 C513 1.369 . S
C514 C523 1.429 . S
C515 C513 1.419 . S
C515 C516 1.363 . S
C515 H518 0.929 . S
C516 C515 1.363 . S
C516 C522 1.428 . S
H517 C513 0.930 . S
H518 C515 0.929 . S
S519 N520 1.613 . S
S519 N521 1.610 . S
N520 S519 1.613 . S
N520 C523 1.350 . S
N521 S519 1.610 . S
N521 C522 1.351 . S
C522 C516 1.428 . S
C522 N521 1.351 . S
C522 C523 1.434 . S
C523 C514 1.429 . S
C523 N520 1.350 . S
C523 C522 1.434 . S
C524 C525 1.369 . S
C524 C526 1.419 . S
C524 H528 0.930 . S
C525 C524 1.369 . S
C525 C534 1.429 . S
C526 C524 1.419 . S
C526 C527 1.363 . S
C526 H529 0.929 . S
C527 C526 1.363 . S
C527 C533 1.428 . S
H528 C524 0.930 . S
H529 C526 0.929 . S
S530 N531 1.613 . S
S530 N532 1.610 . S
N531 S530 1.613 . S
N531 C534 1.350 . S
N532 S530 1.610 . S
N532 C533 1.351 . S
C533 C527 1.428 . S
C533 N532 1.351 . S
C533 C534 1.434 . S
C534 C525 1.429 . S
C534 N531 1.350 . S
C534 C533 1.434 . S
C535 C536 1.369 . S
C535 C537 1.419 . S
C535 H539 0.930 . S
C536 C535 1.369 . S
C536 C545 1.429 . S
C537 C535 1.419 . S
C537 C538 1.363 . S
C537 H540 0.929 . S
C538 C537 1.363 . S
C538 C544 1.428 . S
H539 C535 0.930 . S
H540 C537 0.929 . S
S541 N542 1.613 . S
S541 N543 1.610 . S
N542 S541 1.613 . S
N542 C545 1.350 . S
N543 S541 1.610 . S
N543 C544 1.351 . S
C544 C538 1.428 . S
C544 N543 1.351 . S
C544 C545 1.434 . S
C545 C536 1.429 . S
C545 N542 1.350 . S
C545 C544 1.434 . S
C546 C547 1.369 . S
C546 C548 1.419 1_554 S
C546 H550 0.930 . S
C547 C546 1.369 . S
C547 C556 1.429 . S
C548 C546 1.419 1_556 S
C548 C549 1.363 . S
C548 H551 0.929 . S
C549 C548 1.363 . S
C549 C555 1.428 . S
H550 C546 0.930 . S
H551 C548 0.929 . S
S552 N553 1.624 . S
S552 N554 1.600 1_554 S
N553 S552 1.624 . S
N553 C556 1.350 . S
N554 S552 1.600 1_556 S
N554 C555 1.351 . S
C555 C549 1.428 . S
C555 N554 1.351 . S
C555 C556 1.434 1_556 S
C556 C547 1.429 . S
C556 N553 1.350 . S
C556 C555 1.434 1_554 S
C557 C558 1.369 . S
C557 C559 1.419 . S
C557 H561 0.930 . S
C558 C557 1.369 . S
C558 C567 1.429 . S
C559 C557 1.419 . S
C559 C560 1.363 . S
C559 H562 0.929 . S
C560 C559 1.363 . S
C560 C566 1.428 . S
H561 C557 0.930 . S
H562 C559 0.929 . S
S563 N564 1.613 . S
S563 N565 1.610 . S
N564 S563 1.613 . S
N564 C567 1.350 . S
N565 S563 1.610 . S
N565 C566 1.351 . S
C566 C560 1.428 . S
C566 N565 1.351 . S
C566 C567 1.434 . S
C567 C558 1.429 . S
C567 N564 1.350 . S
C567 C566 1.434 . S
C568 C569 1.369 . S
C568 C570 1.419 . S
C568 H572 0.930 . S
C569 C568 1.369 . S
C569 C578 1.429 . S
C570 C568 1.419 . S
C570 C571 1.363 . S
C570 H573 0.929 . S
C571 C570 1.363 . S
C571 C577 1.428 . S
H572 C568 0.930 . S
H573 C570 0.929 . S
S574 N575 1.613 . S
S574 N576 1.610 . S
N575 S574 1.613 . S
N575 C578 1.350 . S
N576 S574 1.610 . S
N576 C577 1.351 . S
C577 C571 1.428 . S
C577 N576 1.351 . S
C577 C578 1.434 . S
C578 C569 1.429 . S
C578 N575 1.350 . S
C578 C577 1.434 . S
C579 C580 1.369 . S
C579 C581 1.419 1_554 S
C579 H583 0.930 . S
C580 C579 1.369 . S
C580 C589 1.429 . S
C581 C579 1.419 1_556 S
C581 C582 1.363 . S
C581 H584 0.929 . S
C582 C581 1.363 . S
C582 C588 1.428 . S
H583 C579 0.930 . S
H584 C581 0.929 . S
S585 N586 1.612 . S
S585 N587 1.612 1_554 S
N586 S585 1.612 . S
N586 C589 1.350 . S
N587 S585 1.612 1_556 S
N587 C588 1.351 . S
C588 C582 1.428 . S
C588 N587 1.351 . S
C588 C589 1.434 1_556 S
C589 C580 1.429 . S
C589 N586 1.350 . S
C589 C588 1.434 1_554 S
C590 C591 1.369 . S
C590 C592 1.419 . S
C590 H594 0.930 . S
C591 C590 1.369 . S
C591 C600 1.429 . S
C592 C590 1.419 . S
C592 C593 1.363 . S
C592 H595 0.929 . S
C593 C592 1.363 . S
C593 C599 1.428 . S
H594 C590 0.930 . S
H595 C592 0.929 . S
S596 N597 1.613 . S
S596 N598 1.610 . S
N597 S596 1.613 . S
N597 C600 1.350 . S
N598 S596 1.610 . S
N598 C599 1.351 . S
C599 C593 1.428 . S
C599 N598 1.351 . S
C599 C600 1.434 . S
C600 C591 1.429 . S
C600 N597 1.350 . S
C600 C599 1.434 . S
C601 C602 1.369 . S
C601 C603 1.419 . S
C601 H605 0.930 . S
C602 C601 1.369 . S
C602 C611 1.429 . S
C603 C601 1.419 . S
C603 C604 1.363 . S
C603 H606 0.929 . S
C604 C603 1.363 . S
C604 C610 1.428 . S
H605 C601 0.930 . S
H606 C603 0.929 . S
S607 N608 1.613 . S
S607 N609 1.610 . S
N608 S607 1.613 . S
N608 C611 1.350 . S
N609 S607 1.610 . S
N609 C610 1.351 . S
C610 C604 1.428 . S
C610 N609 1.351 . S
C610 C611 1.434 . S
C611 C602 1.429 . S
C611 N608 1.350 . S
C611 C610 1.434 . S
C612 C613 1.369 . S
C612 C614 1.419 1_556 S
C612 H616 0.930 . S
C613 C612 1.369 . S
C613 C622 1.429 1_565 S
C614 C612 1.419 1_554 S
C614 C615 1.363 1_565 S
C614 H617 0.929 . S
C615 C614 1.363 1_545 S
C615 C621 1.428 . S
H616 C612 0.930 . S
H617 C614 0.929 . S
S618 N619 1.613 . S
S618 N620 1.610 1_556 S
N619 S618 1.613 . S
N619 C622 1.350 . S
N620 S618 1.610 1_554 S
N620 C621 1.351 . S
C621 C615 1.428 . S
C621 N620 1.351 . S
C621 C622 1.434 1_554 S
C622 C613 1.429 1_545 S
C622 N619 1.350 . S
C622 C621 1.434 1_556 S
C623 C624 1.369 . S
C623 C625 1.419 . S
C623 H627 0.930 . S
C624 C623 1.369 . S
C624 C633 1.429 . S
C625 C623 1.419 . S
C625 C626 1.363 . S
C625 H628 0.929 . S
C626 C625 1.363 . S
C626 C632 1.428 . S
H627 C623 0.930 . S
H628 C625 0.929 . S
S629 N630 1.613 . S
S629 N631 1.610 . S
N630 S629 1.613 . S
N630 C633 1.350 . S
N631 S629 1.610 . S
N631 C632 1.351 . S
C632 C626 1.428 . S
C632 N631 1.351 . S
C632 C633 1.434 . S
C633 C624 1.429 . S
C633 N630 1.350 . S
C633 C632 1.434 . S
C634 C635 1.369 . S
C634 C636 1.419 . S
C634 H638 0.930 . S
C635 C634 1.369 . S
C635 C644 1.429 1_455 S
C636 C634 1.419 . S
C636 C637 1.363 1_455 S
C636 H639 0.929 . S
C637 C636 1.363 1_655 S
C637 C643 1.428 . S
H638 C634 0.930 . S
H639 C636 0.929 . S
S640 N641 1.613 . S
S640 N642 1.610 . S
N641 S640 1.613 . S
N641 C644 1.350 . S
N642 S640 1.610 . S
N642 C643 1.351 . S
C643 C637 1.428 . S
C643 N642 1.351 . S
C643 C644 1.434 . S
C644 C635 1.429 1_655 S
C644 N641 1.350 . S
C644 C643 1.434 . S
C645 C646 1.369 1_545 S
C645 C647 1.419 1_554 S
C645 H649 0.930 . S
C646 C645 1.369 1_565 S
C646 C655 1.429 . S
C647 C645 1.419 1_556 S
C647 C648 1.363 . S
C647 H650 0.929 . S
C648 C647 1.363 . S
C648 C654 1.428 1_545 S
H649 C645 0.930 . S
H650 C647 0.929 . S
S651 N652 1.613 1_556 S
S651 N653 1.610 . S
N652 S651 1.613 1_554 S
N652 C655 1.350 . S
N653 S651 1.610 . S
N653 C654 1.351 . S
C654 C648 1.428 1_565 S
C654 N653 1.351 . S
C654 C655 1.434 1_556 S
C655 C646 1.429 . S
C655 N652 1.350 . S
C655 C654 1.434 1_554 S
C656 C657 1.369 . S
C656 C658 1.419 . S
C656 H660 0.930 . S
C657 C656 1.369 . S
C657 C666 1.429 . S
C658 C656 1.419 . S
C658 C659 1.363 . S
C658 H661 0.929 . S
C659 C658 1.363 . S
C659 C665 1.428 . S
H660 C656 0.930 . S
H661 C658 0.929 . S
S662 N663 1.613 . S
S662 N664 1.610 . S
N663 S662 1.613 . S
N663 C666 1.350 . S
N664 S662 1.610 . S
N664 C665 1.351 . S
C665 C659 1.428 . S
C665 N664 1.351 . S
C665 C666 1.434 . S
C666 C657 1.429 . S
C666 N663 1.350 . S
C666 C665 1.434 . S
C667 C668 1.369 1_655 S
C667 C669 1.419 . S
C667 H671 0.930 . S
C668 C667 1.369 1_455 S
C668 C677 1.429 . S
C669 C667 1.419 . S
C669 C670 1.363 . S
C669 H672 0.929 . S
C670 C669 1.363 . S
C670 C676 1.428 1_655 S
H671 C667 0.930 . S
H672 C669 0.929 . S
S673 N674 1.613 . S
S673 N675 1.610 . S
N674 S673 1.613 . S
N674 C677 1.350 . S
N675 S673 1.610 . S
N675 C676 1.351 . S
C676 C670 1.428 1_455 S
C676 N675 1.351 . S
C676 C677 1.434 . S
C677 C668 1.429 . S
C677 N674 1.350 . S
C677 C676 1.434 . S
C678 C679 1.369 1_565 S
C678 C680 1.419 . S
C678 H682 0.930 . S
C679 C678 1.369 1_545 S
C679 C688 1.429 . S
C680 C678 1.419 . S
C680 C681 1.363 . S
C680 H683 0.929 . S
C681 C680 1.363 . S
C681 C687 1.428 1_565 S
H682 C678 0.930 . S
H683 C680 0.929 . S
S684 N685 1.613 . S
S684 N686 1.610 . S
N685 S684 1.613 . S
N685 C688 1.350 . S
N686 S684 1.610 . S
N686 C687 1.351 . S
C687 C681 1.428 1_545 S
C687 N686 1.351 . S
C687 C688 1.434 . S
C688 C679 1.429 . S
C688 N685 1.350 . S
C688 C687 1.434 . S
C689 C690 1.369 . S
C689 C691 1.419 . S
C689 H693 0.930 . S
C690 C689 1.369 . S
C690 C699 1.429 . S
C691 C689 1.419 . S
C691 C692 1.363 . S
C691 H694 0.929 . S
C692 C691 1.363 . S
C692 C698 1.428 . S
H693 C689 0.930 . S
H694 C691 0.929 . S
S695 N696 1.613 . S
S695 N697 1.610 . S
N696 S695 1.613 . S
N696 C699 1.350 . S
N697 S695 1.610 . S
N697 C698 1.351 . S
C698 C692 1.428 . S
C698 N697 1.351 . S
C698 C699 1.434 . S
C699 C690 1.429 . S
C699 N696 1.350 . S
C699 C698 1.434 . S
C700 C701 1.369 . S
C700 C702 1.419 . S
C700 H704 0.930 . S
C701 C700 1.369 . S
C701 C710 1.429 1_655 S
C702 C700 1.419 . S
C702 C703 1.363 1_655 S
C702 H705 0.929 . S
C703 C702 1.363 1_455 S
C703 C709 1.428 . S
H704 C700 0.930 . S
H705 C702 0.929 . S
S706 N707 1.613 . S
S706 N708 1.610 . S
N707 S706 1.613 . S
N707 C710 1.350 . S
N708 S706 1.610 . S
N708 C709 1.351 . S
C709 C703 1.428 . S
C709 N708 1.351 . S
C709 C710 1.434 . S
C710 C701 1.429 1_455 S
C710 N707 1.350 . S
C710 C709 1.434 . S
C711 C712 1.369 . S
C711 C713 1.419 1_455 S
C711 H715 0.930 . S
C712 C711 1.369 . S
C712 C721 1.429 . S
C713 C711 1.419 1_655 S
C713 C714 1.363 . S
C713 H716 0.929 . S
C714 C713 1.363 . S
C714 C720 1.428 . S
H715 C711 0.930 . S
H716 C713 0.929 . S
S717 N718 1.613 . S
S717 N719 1.610 1_455 S
N718 S717 1.613 . S
N718 C721 1.350 . S
N719 S717 1.610 1_655 S
N719 C720 1.351 . S
C720 C714 1.428 . S
C720 N719 1.351 . S
C720 C721 1.434 1_655 S
C721 C712 1.429 . S
C721 N718 1.350 . S
C721 C720 1.434 1_455 S
C722 C723 1.369 1_545 S
C722 C724 1.419 . S
C722 H726 0.930 . S
C723 C722 1.369 1_565 S
C723 C732 1.429 . S
C724 C722 1.419 . S
C724 C725 1.363 . S
C724 H727 0.929 . S
C725 C724 1.363 . S
C725 C731 1.428 1_545 S
H726 C722 0.930 . S
H727 C724 0.929 . S
S728 N729 1.613 . S
S728 N730 1.610 . S
N729 S728 1.613 . S
N729 C732 1.350 . S
N730 S728 1.610 . S
N730 C731 1.351 . S
C731 C725 1.428 1_565 S
C731 N730 1.351 . S
C731 C732 1.434 . S
C732 C723 1.429 . S
C732 N729 1.350 . S
C732 C731 1.434 . S
C733 C734 1.369 . S
C733 C735 1.419 . S
C733 H737 0.930 . S
C734 C733 1.369 . S
C734 C743 1.429 . S
C735 C733 1.419 . S
C735 C736 1.363 . S
C735 H738 0.929 . S
C736 C735 1.363 . S
C736 C742 1.428 . S
H737 C733 0.930 . S
H738 C735 0.929 . S
S739 N740 1.613 . S
S739 N741 1.610 . S
N740 S739 1.613 . S
N740 C743 1.350 1_556 S
N741 S739 1.610 . S
N741 C742 1.351 1_556 S
C742 C736 1.428 . S
C742 N741 1.351 1_554 S
C742 C743 1.434 . S
C743 C734 1.429 . S
C743 N740 1.350 1_554 S
C743 C742 1.434 . S
C744 C745 1.369 . S
C744 C746 1.419 1_565 S
C744 H748 0.930 . S
C745 C744 1.369 . S
C745 C754 1.429 . S
C746 C744 1.419 1_545 S
C746 C747 1.363 . S
C746 H749 0.929 . S
C747 C746 1.363 . S
C747 C753 1.428 . S
H748 C744 0.930 . S
H749 C746 0.929 . S
S750 N751 1.613 . S
S750 N752 1.610 1_565 S
N751 S750 1.613 . S
N751 C754 1.350 . S
N752 S750 1.610 1_545 S
N752 C753 1.351 . S
C753 C747 1.428 . S
C753 N752 1.351 . S
C753 C754 1.434 1_545 S
C754 C745 1.429 . S
C754 N751 1.350 . S
C754 C753 1.434 1_565 S
C755 C756 1.369 . S
C755 C757 1.419 . S
C755 H759 0.930 . S
C756 C755 1.369 . S
C756 C765 1.429 . S
C757 C755 1.419 . S
C757 C758 1.363 . S
C757 H760 0.929 . S
C758 C757 1.363 . S
C758 C764 1.428 . S
H759 C755 0.930 . S
H760 C757 0.929 . S
S761 N762 1.613 . S
S761 N763 1.610 . S
N762 S761 1.613 . S
N762 C765 1.350 . S
N763 S761 1.610 . S
N763 C764 1.351 . S
C764 C758 1.428 . S
C764 N763 1.351 . S
C764 C765 1.434 . S
C765 C756 1.429 . S
C765 N762 1.350 . S
C765 C764 1.434 . S
C766 C767 1.369 . S
C766 C768 1.419 1_655 S
C766 H770 0.930 . S
C767 C766 1.369 . S
C767 C776 1.429 . S
C768 C766 1.419 1_455 S
C768 C769 1.363 . S
C768 H771 0.929 . S
C769 C768 1.363 . S
C769 C775 1.428 . S
H770 C766 0.930 . S
H771 C768 0.929 . S
S772 N773 1.613 . S
S772 N774 1.610 1_655 S
N773 S772 1.613 . S
N773 C776 1.350 . S
N774 S772 1.610 1_455 S
N774 C775 1.351 . S
C775 C769 1.428 . S
C775 N774 1.351 . S
C775 C776 1.434 1_455 S
C776 C767 1.429 . S
C776 N773 1.350 . S
C776 C775 1.434 1_655 S
C777 C778 1.369 . S
C777 C779 1.419 1_545 S
C777 H781 0.930 . S
C778 C777 1.369 . S
C778 C787 1.429 . S
C779 C777 1.419 1_565 S
C779 C780 1.363 . S
C779 H782 0.929 . S
C780 C779 1.363 . S
C780 C786 1.428 . S
H781 C777 0.930 . S
H782 C779 0.929 . S
S783 N784 1.613 . S
S783 N785 1.610 1_545 S
N784 S783 1.613 . S
N784 C787 1.350 . S
N785 S783 1.610 1_565 S
N785 C786 1.351 . S
C786 C780 1.428 . S
C786 N785 1.351 . S
C786 C787 1.434 1_565 S
C787 C778 1.429 . S
C787 N784 1.350 . S
C787 C786 1.434 1_545 S
C788 C789 1.369 . S
C788 C790 1.419 . S
C788 H792 0.930 . S
C789 C788 1.369 . S
C789 C798 1.429 . S
C790 C788 1.419 . S
C790 C791 1.363 . S
C790 H793 0.929 . S
C791 C790 1.363 . S
C791 C797 1.428 . S
H792 C788 0.930 . S
H793 C790 0.929 . S
S794 N795 1.613 . S
S794 N796 1.610 . S
N795 S794 1.613 . S
N795 C798 1.350 . S
N796 S794 1.610 . S
N796 C797 1.351 . S
C797 C791 1.428 . S
C797 N796 1.351 . S
C797 C798 1.434 . S
C798 C789 1.429 . S
C798 N795 1.350 . S
C798 C797 1.434 . S
C799 C800 1.369 . S
C799 C801 1.419 1_455 S
C799 H803 0.930 . S
C800 C799 1.369 . S
C800 C809 1.429 . S
C801 C799 1.419 1_655 S
C801 C802 1.363 . S
C801 H804 0.929 . S
C802 C801 1.363 . S
C802 C808 1.428 . S
H803 C799 0.930 . S
H804 C801 0.929 . S
S805 N806 1.613 1_655 S
S805 N807 1.610 . S
N806 S805 1.613 1_455 S
N806 C809 1.350 . S
N807 S805 1.610 . S
N807 C808 1.351 . S
C808 C802 1.428 . S
C808 N807 1.351 . S
C808 C809 1.434 1_655 S
C809 C800 1.429 . S
C809 N806 1.350 . S
C809 C808 1.434 1_455 S
C810 C811 1.369 . S
C810 C812 1.419 . S
C810 H814 0.930 . S
C811 C810 1.369 . S
C811 C820 1.429 . S
C812 C810 1.419 . S
C812 C813 1.363 . S
C812 H815 0.929 . S
C813 C812 1.363 . S
C813 C819 1.428 . S
H814 C810 0.930 . S
H815 C812 0.929 . S
S816 N817 1.613 . S
S816 N818 1.610 . S
N817 S816 1.613 . S
N817 C820 1.350 . S
N818 S816 1.610 . S
N818 C819 1.351 . S
C819 C813 1.428 . S
C819 N818 1.351 . S
C819 C820 1.434 . S
C820 C811 1.429 . S
C820 N817 1.350 . S
C820 C819 1.434 . S
C821 C822 1.369 . S
C821 C823 1.419 . S
C821 H825 0.930 . S
C822 C821 1.369 . S
C822 C831 1.429 . S
C823 C821 1.419 . S
C823 C824 1.363 . S
C823 H826 0.929 . S
C824 C823 1.363 . S
C824 C830 1.428 . S
H825 C821 0.930 . S
H826 C823 0.929 . S
S827 N828 1.613 . S
S827 N829 1.610 . S
N828 S827 1.613 . S
N828 C831 1.350 . S
N829 S827 1.610 . S
N829 C830 1.351 . S
C830 C824 1.428 . S
C830 N829 1.351 . S
C830 C831 1.434 . S
C831 C822 1.429 . S
C831 N828 1.350 . S
C831 C830 1.434 . S
C832 C833 1.369 . S
C832 C834 1.419 . S
C832 H836 0.930 . S
C833 C832 1.369 . S
C833 C842 1.429 . S
C834 C832 1.419 . S
C834 C835 1.363 . S
C834 H837 0.929 . S
C835 C834 1.363 . S
C835 C841 1.428 . S
H836 C832 0.930 . S
H837 C834 0.929 . S
S838 N839 1.613 . S
S838 N840 1.610 . S
N839 S838 1.613 . S
N839 C842 1.350 . S
N840 S838 1.610 . S
N840 C841 1.351 . S
C841 C835 1.428 . S
C841 N840 1.351 . S
C841 C842 1.434 . S
C842 C833 1.429 . S
C842 N839 1.350 . S
C842 C841 1.434 . S
C843 C844 1.369 . S
C843 C845 1.419 . S
C843 H847 0.930 . S
C844 C843 1.369 . S
C844 C853 1.429 . S
C845 C843 1.419 . S
C845 C846 1.363 . S
C845 H848 0.929 . S
C846 C845 1.363 . S
C846 C852 1.428 . S
H847 C843 0.930 . S
H848 C845 0.929 . S
S849 N850 1.613 . S
S849 N851 1.610 . S
N850 S849 1.613 . S
N850 C853 1.350 . S
N851 S849 1.610 . S
N851 C852 1.351 . S
C852 C846 1.428 . S
C852 N851 1.351 . S
C852 C853 1.434 . S
C853 C844 1.429 . S
C853 N850 1.350 . S
C853 C852 1.434 . S
C854 C855 1.369 . S
C854 C856 1.419 . S
C854 H858 0.930 . S
C855 C854 1.369 . S
C855 C864 1.429 . S
C856 C854 1.419 . S
C856 C857 1.363 . S
C856 H859 0.929 . S
C857 C856 1.363 . S
C857 C863 1.428 . S
H858 C854 0.930 . S
H859 C856 0.929 . S
S860 N861 1.613 . S
S860 N862 1.610 . S
N861 S860 1.613 . S
N861 C864 1.350 . S
N862 S860 1.610 . S
N862 C863 1.351 . S
C863 C857 1.428 . S
C863 N862 1.351 . S
C863 C864 1.434 . S
C864 C855 1.429 . S
C864 N861 1.350 . S
C864 C863 1.434 . S
C865 C866 1.369 . S
C865 C867 1.419 . S
C865 H869 0.930 . S
C866 C865 1.369 . S
C866 C875 1.429 . S
C867 C865 1.419 . S
C867 C868 1.363 . S
C867 H870 0.929 . S
C868 C867 1.363 . S
C868 C874 1.428 . S
H869 C865 0.930 . S
H870 C867 0.929 . S
S871 N872 1.613 . S
S871 N873 1.610 . S
N872 S871 1.613 . S
N872 C875 1.350 . S
N873 S871 1.610 . S
N873 C874 1.351 . S
C874 C868 1.428 . S
C874 N873 1.351 . S
C874 C875 1.434 . S
C875 C866 1.429 . S
C875 N872 1.350 . S
C875 C874 1.434 . S
C481 C2 1.188 . S
C483 C322 1.199 . S
C492 C42 1.192 . S
C494 C362 1.198 . S
C503 C82 1.201 . S
C505 C402 1.189 . S
C514 C442 1.187 . S
C516 C122 1.199 . S
C525 C162 1.197 . S
C527 C242 1.196 . S
C536 C282 1.199 . S
C538 C202 1.192 . S
C547 C417 1.513 1_554 S
C549 C17 1.520 1_556 S
C558 C457 1.522 . S
C560 C57 1.527 . S
C569 C97 1.525 . S
C571 C257 1.526 . S
C580 C297 1.513 1_554 S
C582 C137 1.517 1_556 S
C591 C337 1.522 . S
C593 C177 1.521 . S
C602 C217 1.523 . S
C604 C377 1.520 . S
C613 C304 4.542 . S
C615 C24 4.542 . S
C624 C344 4.543 . S
C626 C64 4.542 . S
C635 C384 4.542 . S
C637 C104 4.544 . S
C646 C144 4.544 . S
C648 C424 4.544 . S
C657 C184 4.544 . S
C659 C464 4.543 . S
C668 C224 4.544 . S
C670 C264 4.543 . S
C679 C23 1.432 . S
C681 C143 1.438 . S
C690 C63 1.437 . S
C692 C183 1.439 . S
C701 C103 1.440 . S
C703 C223 1.435 . S
C712 C383 1.432 . S
C714 C263 1.431 . S
C723 C303 1.430 . S
C725 C423 1.433 . S
C734 C463 1.437 . S
C736 C343 1.439 . S
C745 C306 0.908 . S
C747 C26 0.929 . S
C756 C346 0.933 . S
C758 C66 0.915 . S
C767 C106 0.922 . S
C769 C386 0.928 . S
C778 C426 0.905 . S
C780 C146 0.927 . S
C789 C466 0.928 . S
C791 C186 0.908 . S
C800 C226 0.932 . S
C802 C266 0.910 . S
C811 C13 4.691 . S
C813 C413 4.691 . S
C822 C53 4.692 . S
C824 C453 4.692 1_556 S
C833 C93 4.691 1_554 S
C835 C253 4.691 . S
C844 C133 4.691 . S
C846 C293 4.691 . S
C855 C173 4.692 . S
C857 C333 4.692 1_556 S
C866 C373 4.692 . S
C868 C213 4.692 1_554 S
