# Generated by pormake.
# Topology uoy, (4)-cn, num edge types: 1
# Building blocks:
#     Node 0, Type 0, BuildingBlock: AZAVOO_clean_sbu_0, # of connection points: 4
#     Node 1, Type 0, BuildingBlock: AZAVOO_clean_sbu_0, # of connection points: 4
#     Node 2, Type 0, BuildingBlock: AZAVOO_clean_sbu_0, # of connection points: 4
#     Node 3, Type 0, BuildingBlock: AZAVOO_clean_sbu_0, # of connection points: 4
#     Node 4, Type 0, BuildingBlock: AZAVOO_clean_sbu_0, # of connection points: 4
#     Node 5, Type 0, BuildingBlock: AZAVOO_clean_sbu_0, # of connection points: 4
#     Node 6, Type 0, BuildingBlock: AZAVOO_clean_sbu_0, # of connection points: 4
#     Node 7, Type 0, BuildingBlock: AZAVOO_clean_sbu_0, # of connection points: 4
#     Node 8, Type 0, BuildingBlock: AZAVOO_clean_sbu_0, # of connection points: 4
#     Node 9, Type 0, BuildingBlock: AZAVOO_clean_sbu_0, # of connection points: 4
#     Node 10, Type 0, BuildingBlock: AZAVOO_clean_sbu_0, # of connection points: 4
#     Node 11, Type 0, BuildingBlock: AZAVOO_clean_sbu_0, # of connection points: 4
#     Node 12, Type 0, BuildingBlock: AZAVOO_clean_sbu_0, # of connection points: 4
#     Node 13, Type 0, BuildingBlock: AZAVOO_clean_sbu_0, # of connection points: 4
#     Node 14, Type 0, BuildingBlock: AZAVOO_clean_sbu_0, # of connection points: 4
#     Node 15, Type 0, BuildingBlock: AZAVOO_clean_sbu_0, # of connection points: 4
#     Edge 16, Type (0, 0), BuildingBlock: AJUNOK_clean_linker_0, # of connection points: 2
#     Edge 17, Type (0, 0), BuildingBlock: AJUNOK_clean_linker_0, # of connection points: 2
#     Edge 18, Type (0, 0), BuildingBlock: AJUNOK_clean_linker_0, # of connection points: 2
#     Edge 19, Type (0, 0), BuildingBlock: AJUNOK_clean_linker_0, # of connection points: 2
#     Edge 20, Type (0, 0), BuildingBlock: AJUNOK_clean_linker_0, # of connection points: 2
#     Edge 21, Type (0, 0), BuildingBlock: AJUNOK_clean_linker_0, # of connection points: 2
#     Edge 22, Type (0, 0), BuildingBlock: AJUNOK_clean_linker_0, # of connection points: 2
#     Edge 23, Type (0, 0), BuildingBlock: AJUNOK_clean_linker_0, # of connection points: 2
#     Edge 24, Type (0, 0), BuildingBlock: AJUNOK_clean_linker_0, # of connection points: 2
#     Edge 25, Type (0, 0), BuildingBlock: AJUNOK_clean_linker_0, # of connection points: 2
#     Edge 26, Type (0, 0), BuildingBlock: AJUNOK_clean_linker_0, # of connection points: 2
#     Edge 27, Type (0, 0), BuildingBlock: AJUNOK_clean_linker_0, # of connection points: 2
#     Edge 28, Type (0, 0), BuildingBlock: AJUNOK_clean_linker_0, # of connection points: 2
#     Edge 29, Type (0, 0), BuildingBlock: AJUNOK_clean_linker_0, # of connection points: 2
#     Edge 30, Type (0, 0), BuildingBlock: AJUNOK_clean_linker_0, # of connection points: 2
#     Edge 31, Type (0, 0), BuildingBlock: AJUNOK_clean_linker_0, # of connection points: 2
#     Edge 32, Type (0, 0), BuildingBlock: AJUNOK_clean_linker_0, # of connection points: 2
#     Edge 33, Type (0, 0), BuildingBlock: AJUNOK_clean_linker_0, # of connection points: 2
#     Edge 34, Type (0, 0), BuildingBlock: AJUNOK_clean_linker_0, # of connection points: 2
#     Edge 35, Type (0, 0), BuildingBlock: AJUNOK_clean_linker_0, # of connection points: 2
#     Edge 36, Type (0, 0), BuildingBlock: AJUNOK_clean_linker_0, # of connection points: 2
#     Edge 37, Type (0, 0), BuildingBlock: AJUNOK_clean_linker_0, # of connection points: 2
#     Edge 38, Type (0, 0), BuildingBlock: AJUNOK_clean_linker_0, # of connection points: 2
#     Edge 39, Type (0, 0), BuildingBlock: AJUNOK_clean_linker_0, # of connection points: 2
#     Edge 40, Type (0, 0), BuildingBlock: AJUNOK_clean_linker_0, # of connection points: 2
#     Edge 41, Type (0, 0), BuildingBlock: AJUNOK_clean_linker_0, # of connection points: 2
#     Edge 42, Type (0, 0), BuildingBlock: AJUNOK_clean_linker_0, # of connection points: 2
#     Edge 43, Type (0, 0), BuildingBlock: AJUNOK_clean_linker_0, # of connection points: 2
#     Edge 44, Type (0, 0), BuildingBlock: AJUNOK_clean_linker_0, # of connection points: 2
#     Edge 45, Type (0, 0), BuildingBlock: AJUNOK_clean_linker_0, # of connection points: 2
#     Edge 46, Type (0, 0), BuildingBlock: AJUNOK_clean_linker_0, # of connection points: 2
#     Edge 47, Type (0, 0), BuildingBlock: AJUNOK_clean_linker_0, # of connection points: 2
# Relax obj value: 0.174
# Max RMSD: 0.202
# Mean RMSD: 0.202
data_MOF--net-uoy--node1-AZAVOO_clean_sbu_0--edge1-AJUNOK_clean_linker_0
_symmetry_space_group_name_H-M    P1
_symmetry_Int_Tables_number       1
_symmetry_cell_setting            triclinic
loop_
_symmetry_equiv_pos_as_xyz
'x, y, z'
_cell_length_a     19.392862
_cell_length_b     19.360158
_cell_length_c     82.719774
_cell_angle_alpha  90.022112
_cell_angle_beta   89.712667
_cell_angle_gamma 90.098447
loop_
_atom_site_label
_atom_site_type_symbol
_atom_site_fract_x
_atom_site_fract_y
_atom_site_fract_z
_atom_type_partial_charge
Mg0 Mg 0.24802 0.18704 0.1701 0.0
O1 O 0.34154 0.113 0.16731 0.0
O2 O 0.33777 0.07674 0.1417 0.0
Mg3 Mg 0.24706 0.12494 0.12827 0.0
C4 C 0.36673 0.07822 0.15552 0.0
C5 C 0.22098 0.23119 0.20472 0.0
O6 O 0.18273 0.27358 0.19622 0.0
O7 O 0.16666 0.10022 0.17063 0.0
O8 O 0.16467 0.07531 0.14433 0.0
O9 O 0.31461 0.2761 0.16139 0.0
O10 O 0.25153 0.20849 0.1458 0.0
C11 C 0.14001 0.06872 0.1586 0.0
C12 C 0.29522 0.25775 0.14707 0.0
O13 O 0.25676 0.18614 0.19732 0.0
Mg14 Mg 0.81006 0.73582 0.42175 0.0
O15 O 0.88306 0.8296 0.41755 0.0
O16 O 0.91074 0.8256 0.39134 0.0
Mg17 Mg 0.85838 0.73393 0.37897 0.0
C18 C 0.91391 0.85481 0.40517 0.0
C19 C 0.78702 0.70123 0.4571 0.0
O20 O 0.7539 0.65175 0.44952 0.0
O21 O 0.89678 0.6548 0.42065 0.0
O22 O 0.91435 0.65262 0.394 0.0
O23 O 0.71914 0.8026 0.4147 0.0
O24 O 0.78073 0.73778 0.39802 0.0
C25 C 0.9253 0.62845 0.40812 0.0
C26 C 0.73242 0.78184 0.40015 0.0
O27 O 0.81917 0.74622 0.4488 0.0
Mg28 Mg 0.26182 0.33238 0.66798 0.0
O29 O 0.17783 0.41426 0.66275 0.0
O30 O 0.18841 0.43818 0.63651 0.0
Mg31 Mg 0.27465 0.37391 0.62494 0.0
C32 C 0.15773 0.4461 0.65008 0.0
C33 C 0.2997 0.33339 0.70382 0.0
O34 O 0.35859 0.31698 0.69691 0.0
O35 O 0.35345 0.40894 0.66684 0.0
O36 O 0.362 0.41948 0.64001 0.0
O37 O 0.18495 0.24927 0.66096 0.0
O38 O 0.25942 0.29981 0.64442 0.0
C39 C 0.38573 0.42948 0.65419 0.0
C40 C 0.20911 0.25786 0.6465 0.0
O41 O 0.24828 0.3466 0.69491 0.0
Mg42 Mg 0.70395 0.77496 0.92356 0.0
O43 O 0.61191 0.69962 0.9218 0.0
O44 O 0.56734 0.71656 0.89731 0.0
Mg45 Mg 0.62827 0.79952 0.88352 0.0
C46 C 0.56871 0.6841 0.91076 0.0
C47 C 0.74782 0.79936 0.9587 0.0
O48 O 0.78947 0.84156 0.95093 0.0
O49 O 0.63733 0.87227 0.92671 0.0
O50 O 0.60564 0.8877 0.90105 0.0
O51 O 0.7703 0.69075 0.91267 0.0
O52 O 0.71533 0.77065 0.89871 0.0
C53 C 0.60941 0.90847 0.91565 0.0
C54 C 0.75092 0.7149 0.89883 0.0
O55 O 0.70673 0.76162 0.95068 0.0
Mg56 Mg 0.22557 0.35518 0.0547 0.0
O57 O 0.31265 0.43235 0.05063 0.0
O58 O 0.30461 0.51512 0.06932 0.0
Mg59 Mg 0.21285 0.48895 0.08563 0.0
C60 C 0.33463 0.48767 0.05716 0.0
C61 C 0.27459 0.26265 0.025 0.0
O62 O 0.29507 0.21885 0.0361 0.0
O63 O 0.14146 0.42639 0.04545 0.0
O64 O 0.13318 0.5035 0.06544 0.0
O65 O 0.29708 0.29762 0.07071 0.0
O66 O 0.22527 0.37832 0.0793 0.0
C67 C 0.11297 0.47882 0.05195 0.0
C68 C 0.27463 0.33602 0.08244 0.0
O69 O 0.24457 0.31799 0.02923 0.0
Mg70 Mg 0.66551 0.71075 0.30777 0.0
O71 O 0.58853 0.79529 0.30131 0.0
O72 O 0.49795 0.78809 0.31795 0.0
Mg73 Mg 0.51678 0.69722 0.33491 0.0
C74 C 0.53046 0.81724 0.30637 0.0
C75 C 0.73041 0.79146 0.27918 0.0
O76 O 0.71687 0.84289 0.28905 0.0
O77 O 0.60126 0.62424 0.29674 0.0
O78 O 0.51354 0.61764 0.31429 0.0
O79 O 0.71232 0.7848 0.325 0.0
O80 O 0.62918 0.71153 0.3315 0.0
C81 C 0.54516 0.59668 0.30164 0.0
C82 C 0.66845 0.76227 0.33563 0.0
O83 O 0.71868 0.72993 0.28378 0.0
Mg84 Mg 0.27805 0.19328 0.55402 0.0
O85 O 0.18885 0.12113 0.54759 0.0
O86 O 0.19095 0.03058 0.56429 0.0
Mg87 Mg 0.28279 0.04416 0.5811 0.0
C88 C 0.16334 0.06469 0.55284 0.0
C89 C 0.20548 0.26189 0.5246 0.0
O90 O 0.15131 0.25221 0.53389 0.0
O91 O 0.36083 0.1241 0.54308 0.0
O92 O 0.36291 0.03644 0.5606 0.0
O93 O 0.20629 0.24448 0.5713 0.0
O94 O 0.27423 0.15724 0.57769 0.0
C95 C 0.38572 0.06696 0.54798 0.0
C96 C 0.22569 0.1991 0.58184 0.0
O97 O 0.26486 0.24653 0.52987 0.0
Mg98 Mg 0.84517 0.71615 0.80493 0.0
O99 O 0.92593 0.63003 0.80454 0.0
O100 O 0.99457 0.64811 0.82572 0.0
Mg101 Mg 0.96346 0.74829 0.83834 0.0
C102 C 0.97543 0.61179 0.81367 0.0
C103 C 0.75559 0.69068 0.77401 0.0
O104 O 0.70595 0.71162 0.78368 0.0
O105 O 0.91754 0.79951 0.79514 0.0
O106 O 0.98495 0.81827 0.8165 0.0
O107 O 0.78153 0.65027 0.8215 0.0
O108 O 0.85803 0.72733 0.82978 0.0
C109 C 0.96621 0.83216 0.8021 0.0
C110 C 0.81555 0.6783 0.83324 0.0
O111 O 0.81647 0.68636 0.77944 0.0
Mg112 Mg 0.76451 0.67006 0.66909 0.0
O113 O 0.85882 0.59977 0.66329 0.0
O114 O 0.85289 0.57976 0.63674 0.0
Mg115 Mg 0.75784 0.63135 0.62585 0.0
C116 C 0.88379 0.57396 0.65026 0.0
C117 C 0.72337 0.66449 0.70448 0.0
O118 O 0.66579 0.68071 0.69711 0.0
O119 O 0.68462 0.58247 0.66758 0.0
O120 O 0.68014 0.56864 0.64082 0.0
O121 O 0.82999 0.76292 0.66275 0.0
O122 O 0.76394 0.70512 0.64568 0.0
C123 C 0.6583 0.55455 0.65504 0.0
C124 C 0.80866 0.75269 0.64814 0.0
O125 O 0.7771 0.65403 0.69597 0.0
Mg126 Mg 0.36157 0.27234 0.92128 0.0
O127 O 0.42207 0.37581 0.91994 0.0
O128 O 0.47444 0.37403 0.89579 0.0
Mg129 Mg 0.4511 0.27419 0.88214 0.0
C130 C 0.45986 0.40423 0.9091 0.0
C131 C 0.33602 0.2312 0.95654 0.0
O132 O 0.33935 0.1707 0.94939 0.0
O133 O 0.45745 0.20653 0.92585 0.0
O134 O 0.50101 0.20324 0.90087 0.0
O135 O 0.27055 0.32122 0.90882 0.0
O136 O 0.35674 0.26841 0.89643 0.0
C137 C 0.50069 0.18294 0.91557 0.0
C138 C 0.30067 0.30294 0.8955 0.0
O139 O 0.3434 0.2855 0.94807 0.0
Mg140 Mg 0.74836 0.8399 0.17519 0.0
O141 O 0.66231 0.91988 0.17015 0.0
O142 O 0.66865 0.94124 0.14369 0.0
Mg143 Mg 0.75538 0.87854 0.13198 0.0
C144 C 0.6398 0.94991 0.15746 0.0
C145 C 0.7789 0.81996 0.21049 0.0
O146 O 0.8216 0.7779 0.20302 0.0
O147 O 0.83739 0.91864 0.17332 0.0
O148 O 0.84083 0.93033 0.14652 0.0
O149 O 0.67197 0.75522 0.169 0.0
O150 O 0.74385 0.8052 0.15176 0.0
C151 C 0.86601 0.94215 0.16049 0.0
C152 C 0.69421 0.7629 0.15434 0.0
O153 O 0.73854 0.85678 0.20209 0.0
Mg154 Mg 0.15829 0.2387 0.4209 0.0
O155 O 0.07773 0.15107 0.41735 0.0
O156 O 0.04957 0.15674 0.39126 0.0
Mg157 Mg 0.10964 0.24242 0.37831 0.0
C158 C 0.04451 0.12815 0.40514 0.0
C159 C 0.18373 0.28061 0.45512 0.0
O160 O 0.21993 0.32391 0.44626 0.0
O161 O 0.07901 0.32662 0.41974 0.0
O162 O 0.06198 0.33037 0.39312 0.0
O163 O 0.24262 0.16313 0.4141 0.0
O164 O 0.18716 0.23102 0.39707 0.0
C165 C 0.05345 0.35557 0.40727 0.0
C166 C 0.23093 0.18263 0.3994 0.0
O167 O 0.1482 0.23446 0.44807 0.0
Mg168 Mg 0.76953 0.85458 0.55566 0.0
O169 O 0.8584 0.92735 0.54988 0.0
O170 O 0.85032 0.01891 0.56608 0.0
Mg171 Mg 0.75758 1.00229 0.58271 0.0
C172 C 0.88061 0.98543 0.55484 0.0
C173 C 0.75398 0.75668 0.52564 0.0
O174 O 0.70098 0.73336 0.53396 0.0
O175 O 0.68813 0.92265 0.54399 0.0
O176 O 0.67957 0.00834 0.56195 0.0
O177 O 0.83698 0.80296 0.57343 0.0
O178 O 0.7664 0.88841 0.57972 0.0
C179 C 0.65998 0.97813 0.54904 0.0
C180 C 0.8132 0.84537 0.58423 0.0
O181 O 0.7914 0.80372 0.53169 0.0
Mg182 Mg 0.18609 0.21923 0.80252 0.0
O183 O 0.1045 0.30465 0.8033 0.0
O184 O 0.04249 0.2885 0.82577 0.0
Mg185 Mg 0.07559 0.18785 0.83758 0.0
C186 C 0.0582 0.32399 0.81329 0.0
C187 C 0.26607 0.27428 0.77207 0.0
O188 O 0.31834 0.27477 0.78211 0.0
O189 O 0.11263 0.13512 0.79379 0.0
O190 O 0.04854 0.11859 0.81595 0.0
O191 O 0.25071 0.2873 0.81786 0.0
O192 O 0.17985 0.20793 0.82767 0.0
C193 C 0.06444 0.10387 0.80136 0.0
C194 C 0.22109 0.25903 0.83027 0.0
O195 O 0.20786 0.2521 0.77684 0.0
Mg196 Mg 0.73324 0.69561 0.06081 0.0
O197 O 0.64224 0.62664 0.05454 0.0
O198 O 0.64522 0.53288 0.07018 0.0
Mg199 Mg 0.73822 0.54359 0.0869 0.0
C200 C 0.61694 0.56931 0.05922 0.0
C201 C 0.76699 0.76842 0.02832 0.0
O202 O 0.82924 0.76561 0.03449 0.0
O203 O 0.81308 0.62582 0.04896 0.0
O204 O 0.81701 0.53684 0.0661 0.0
O205 O 0.66588 0.74639 0.07924 0.0
O206 O 0.73339 0.65735 0.08429 0.0
C207 C 0.83844 0.56834 0.05348 0.0
C208 C 0.6874 0.70014 0.08935 0.0
O209 O 0.71607 0.7491 0.0369 0.0
Mg210 Mg 0.32478 0.21698 0.30643 0.0
O211 O 0.39357 0.12475 0.30103 0.0
O212 O 0.48282 0.12784 0.31792 0.0
Mg213 Mg 0.46829 0.22054 0.33476 0.0
C214 C 0.44936 0.09942 0.30646 0.0
C215 C 0.25316 0.25292 0.27429 0.0
O216 O 0.25201 0.31341 0.28148 0.0
O217 O 0.3992 0.29567 0.29563 0.0
O218 O 0.48144 0.30038 0.31439 0.0
O219 O 0.26697 0.15095 0.32391 0.0
O220 O 0.35579 0.21655 0.33045 0.0
C221 C 0.45444 0.32186 0.30127 0.0
C222 C 0.3102 0.17174 0.33479 0.0
O223 O 0.27655 0.20127 0.28193 0.0
C224 C 0.27233 0.3699 0.11157 0.0
C225 C 0.30013 0.32814 0.0992 0.0
C226 C 0.28071 0.35267 0.12788 0.0
C227 C 0.317 0.29317 0.1323 0.0
H228 H 0.23898 0.41287 0.10874 0.0
H229 H 0.25216 0.3816 0.13691 0.0
S230 S 0.41312 0.17568 0.10508 0.0
N231 N 0.37624 0.23174 0.09281 0.0
N232 N 0.39072 0.19931 0.12355 0.0
C233 C 0.35199 0.25596 0.12028 0.0
C234 C 0.34389 0.27349 0.10366 0.0
C235 C 0.64048 0.76267 0.38067 0.0
C236 C 0.69465 0.80496 0.38593 0.0
C237 C 0.6272 0.75455 0.36417 0.0
C238 C 0.66804 0.78836 0.35246 0.0
H239 H 0.61396 0.72919 0.38918 0.0
H240 H 0.5893 0.71638 0.36065 0.0
S241 S 0.80357 0.91919 0.36063 0.0
N242 N 0.77972 0.89144 0.37869 0.0
N243 N 0.75484 0.87721 0.34756 0.0
C244 C 0.71561 0.83839 0.35776 0.0
C245 C 0.72887 0.84649 0.37458 0.0
C246 C 0.22777 0.15403 0.61006 0.0
C247 C 0.19843 0.19894 0.5986 0.0
C248 C 0.21967 0.1659 0.62663 0.0
C249 C 0.18203 0.22285 0.63224 0.0
H250 H 0.26283 0.11357 0.60633 0.0
H251 H 0.25036 0.13578 0.63497 0.0
S252 S 0.07888 0.34357 0.6076 0.0
N253 N 0.1175 0.2932 0.59422 0.0
N254 N 0.10329 0.31536 0.62552 0.0
C255 C 0.14406 0.26151 0.62109 0.0
C256 C 0.15217 0.2497 0.60417 0.0
C257 C 0.7307 0.66558 0.85539 0.0
C258 C 0.79961 0.66247 0.85025 0.0
C259 C 0.71461 0.67486 0.87175 0.0
C260 C 0.76686 0.68075 0.8834 0.0
H261 H 0.68936 0.66759 0.84664 0.0
H262 H 0.66118 0.68227 0.87511 0.0
S263 S 0.95373 0.65546 0.87652 0.0
N264 N 0.91927 0.65005 0.85833 0.0
N265 N 0.88884 0.66887 0.88915 0.0
C266 C 0.83512 0.66825 0.87868 0.0
C267 C 0.8516 0.659 0.862 0.0
C268 C 0.87061 0.77909 0.60619 0.0
C269 C 0.83105 0.83665 0.60153 0.0
C270 C 0.87134 0.75669 0.62227 0.0
C271 C 0.8339 0.79195 0.63423 0.0
H272 H 0.89607 0.74725 0.5972 0.0
H273 H 0.89604 0.70803 0.62507 0.0
S274 S 0.73491 0.95342 0.62925 0.0
N275 N 0.76285 0.93466 0.61088 0.0
N276 N 0.76549 0.89227 0.64112 0.0
C277 C 0.80157 0.85403 0.6302 0.0
C278 C 0.7999 0.8766 0.6138 0.0
C279 C 0.21082 0.27268 0.87594 0.0
C280 C 0.26921 0.31212 0.87962 0.0
C281 C 0.19367 0.25851 0.85987 0.0
C282 C 0.23371 0.28422 0.84693 0.0
H283 H 0.18187 0.24742 0.8855 0.0
H284 H 0.151 0.22396 0.85775 0.0
S285 S 0.38563 0.40014 0.85061 0.0
N286 N 0.36273 0.38331 0.86945 0.0
N287 N 0.32972 0.3587 0.83912 0.0
C288 C 0.2887 0.32915 0.85056 0.0
C289 C 0.30666 0.34258 0.86696 0.0
C290 C 0.70253 0.65791 0.11755 0.0
C291 C 0.66718 0.70095 0.10664 0.0
C292 C 0.7015 0.67132 0.13416 0.0
C293 C 0.66454 0.72753 0.1404 0.0
H294 H 0.73678 0.61785 0.11319 0.0
H295 H 0.73623 0.64264 0.14188 0.0
S296 S 0.54821 0.84332 0.11775 0.0
N297 N 0.58251 0.79286 0.10377 0.0
N298 N 0.58085 0.81745 0.13513 0.0
C299 C 0.62122 0.76442 0.13001 0.0
C300 C 0.62245 0.75126 0.11305 0.0
C301 C 0.32665 0.18529 0.38001 0.0
C302 C 0.26593 0.15307 0.38533 0.0
C303 C 0.34488 0.18481 0.36362 0.0
C304 C 0.30246 0.15258 0.35204 0.0
H305 H 0.35611 0.21733 0.38822 0.0
H306 H 0.38896 0.2154 0.35991 0.0
S307 S 0.14689 0.04689 0.36085 0.0
N308 N 0.17046 0.07769 0.3786 0.0
N309 N 0.2043 0.07617 0.3477 0.0
C310 C 0.24649 0.11264 0.35762 0.0
C311 C 0.22821 0.1132 0.37434 0.0
C312 C 0.25266 0.18242 0.23158 0.0
C313 C 0.22372 0.23653 0.22255 0.0
C314 C 0.25925 0.18715 0.24837 0.0
C315 C 0.23786 0.24656 0.25683 0.0
H316 H 0.27117 0.13612 0.22562 0.0
H317 H 0.2833 0.14454 0.25466 0.0
S318 S 0.15507 0.40137 0.239 0.0
N319 N 0.17037 0.35026 0.22342 0.0
N320 N 0.18336 0.35936 0.255 0.0
C321 C 0.20697 0.30032 0.24803 0.0
C322 C 0.19972 0.29525 0.2309 0.0
C323 C 0.82258 0.75851 0.48273 0.0
C324 C 0.78224 0.70839 0.4749 0.0
C325 C 0.81478 0.77158 0.49924 0.0
C326 C 0.76593 0.73543 0.50865 0.0
H327 H 0.85964 0.78919 0.476 0.0
H328 H 0.84607 0.81205 0.50452 0.0
S329 S 0.65186 0.59417 0.49433 0.0
N330 N 0.69501 0.61862 0.47805 0.0
N331 N 0.6801 0.64364 0.50915 0.0
C332 C 0.72728 0.68299 0.50115 0.0
C333 C 0.73552 0.66933 0.48428 0.0
C334 C 0.3478 0.30672 0.7311 0.0
C335 C 0.29134 0.32714 0.72158 0.0
C336 C 0.33979 0.29209 0.74759 0.0
C337 C 0.27492 0.29673 0.75513 0.0
H338 H 0.39836 0.29995 0.72571 0.0
H339 H 0.38425 0.27451 0.7543 0.0
S340 S 0.11245 0.35697 0.73629 0.0
N341 N 0.16956 0.35803 0.72143 0.0
N342 N 0.15464 0.32989 0.75236 0.0
C343 C 0.21875 0.32047 0.746 0.0
C344 C 0.22694 0.33594 0.72925 0.0
C345 C 0.81313 0.80961 0.00175 0.0
C346 C 0.75784 0.78268 0.01087 0.0
C347 C 0.80882 0.81633 0.98493 0.0
C348 C 0.74944 0.7954 0.97654 0.0
H349 H 0.86075 0.82449 0.0076 0.0
H350 H 0.85319 0.83622 0.97841 0.0
S351 S 0.58819 0.72628 -0.00525 0.0
N352 N 0.63998 0.73876 0.01025 0.0
N353 N 0.63248 0.75063 0.97864 0.0
C354 C 0.69294 0.77036 0.98552 0.0
C355 C 0.69693 0.76432 0.00267 0.0
C356 C 0.28628 0.30803 -0.00302 0.0
C357 C 0.2904 0.25164 0.00767 0.0
C358 C 0.30172 0.30077 0.98056 0.0
C359 C 0.32129 0.23665 0.97406 0.0
H360 H 0.27158 0.35876 0.0013 0.0
H361 H 0.29765 0.34597 0.97291 0.0
S362 S 0.33999 0.07242 -0.00319 0.0
N363 N 0.31576 0.12928 0.01059 0.0
N364 N 0.34437 0.11534 0.97959 0.0
C365 C 0.32557 0.17955 0.98456 0.0
C366 C 0.31033 0.18713 0.00139 0.0
C367 C 0.78444 0.75288 0.25338 0.0
C368 C 0.74998 0.8045 0.2622 0.0
C369 C 0.79621 0.75989 0.23677 0.0
C370 C 0.77275 0.81821 0.22829 0.0
H371 H 0.8012 0.70593 0.25929 0.0
H372 H 0.82145 0.71788 0.23044 0.0
S373 S 0.68362 0.97017 0.24598 0.0
N374 N 0.69597 0.91784 0.26145 0.0
N375 N 0.71715 0.93053 0.23011 0.0
C376 C 0.7404 0.87142 0.23706 0.0
C377 C 0.72933 0.86474 0.25405 0.0
C378 C 0.13395 0.25379 0.48228 0.0
C379 C 0.18717 0.28322 0.47294 0.0
C380 C 0.13836 0.25102 0.49916 0.0
C381 C 0.19679 0.27635 0.50724 0.0
H382 H 0.08901 0.23166 0.47651 0.0
H383 H 0.09719 0.22582 0.50583 0.0
S384 S 0.34802 0.36282 0.48853 0.0
N385 N 0.29811 0.34237 0.47314 0.0
N386 N 0.3069 0.33555 0.50486 0.0
C387 C 0.24919 0.30813 0.49813 0.0
C388 C 0.24423 0.31203 0.48097 0.0
C389 C 0.79073 0.65052 0.7299 0.0
C390 C 0.7275 0.66484 0.72237 0.0
C391 C 0.79837 0.65686 0.74663 0.0
C392 C 0.74314 0.67786 0.75658 0.0
H393 H 0.83545 0.63584 0.7228 0.0
H394 H 0.84873 0.64668 0.7517 0.0
S395 S 0.56478 0.71548 0.74309 0.0
N396 N 0.60701 0.69637 0.72631 0.0
N397 N 0.62155 0.70844 0.7578 0.0
C398 C 0.67871 0.68945 0.74933 0.0
C399 C 0.67086 0.68292 0.73223 0.0
C400 C 0.03723 0.01397 0.14602 0.0
C401 C 0.07231 0.03255 0.16023 0.0
C402 C 0.97055 0.98716 0.14643 0.0
C403 C 0.93507 0.97615 0.1611 0.0
H404 H 0.06067 0.0214 0.13423 0.0
H405 H 0.94715 0.97431 0.13495 0.0
S406 S 0.00375 0.01365 0.20202 0.0
N407 N 0.06657 0.03725 0.18962 0.0
N408 N 0.9409 0.98463 0.19042 0.0
C409 C 0.9695 0.9933 0.17553 0.0
C410 C 0.03798 0.02183 0.1751 0.0
C411 C 0.01577 0.46535 0.39442 0.0
C412 C 0.02104 0.42511 0.40852 0.0
C413 C 0.98847 0.53192 0.39475 0.0
C414 C 0.9638 0.56192 0.40918 0.0
H415 H 0.03335 0.44564 0.38285 0.0
H416 H 0.98533 0.55929 0.38337 0.0
S417 S 0.96849 0.48009 0.44979 0.0
N418 N 1.00228 0.4214 0.43762 0.0
N419 N 0.94892 0.5467 0.43821 0.0
C420 C 0.97006 0.52314 0.42353 0.0
C421 C 0.99896 0.45488 0.42322 0.0
C422 C 0.47901 0.49699 0.66858 0.0
C423 C 0.4574 0.45636 0.65543 0.0
C424 C 0.5461 0.52522 0.66903 0.0
C425 C 0.59394 0.51302 0.65643 0.0
H426 H 0.44317 0.50923 0.67825 0.0
H427 H 0.55932 0.5595 0.6789 0.0
S428 S 0.56691 0.399 0.62093 0.0
N429 N 0.49245 0.39785 0.63065 0.0
N430 N 0.61749 0.44996 0.63161 0.0
C431 C 0.57426 0.46835 0.64387 0.0
C432 C 0.50632 0.44033 0.64334 0.0
C433 C 0.59231 0.09911 0.90814 0.0
C434 C 0.5415 0.11999 0.91932 0.0
C435 C 0.61616 0.03117 0.90775 0.0
C436 C 0.59147 0.9814 0.9187 0.0
H437 H 0.61029 0.13416 0.89882 0.0
H438 H 0.65219 0.01668 0.89828 0.0
S439 S 0.46916 0.01167 0.95243 0.0
N440 N 0.4746 0.08711 0.94316 0.0
N441 N 0.52149 0.95911 0.94252 0.0
C442 C 0.5466 1.00274 0.93106 0.0
C443 C 0.5213 0.07227 0.93138 0.0
C444 C 0.02876 0.57262 0.04641 0.0
C445 C 0.04519 0.50198 0.04605 0.0
C446 C 0.95988 0.59459 0.04646 0.0
C447 C 0.90544 0.54642 0.04675 0.0
H448 H 0.06915 0.61077 0.04795 0.0
H449 H 0.94949 0.64913 0.04813 0.0
S450 S 0.92117 0.35642 0.04345 0.0
N451 N 1.00162 0.38459 0.04357 0.0
N452 N 0.87217 0.426 0.04453 0.0
C453 C 0.92118 0.47622 0.04484 0.0
C454 C 0.99124 0.45394 0.04427 0.0
C455 C 0.57198 0.47438 0.29563 0.0
C456 C 0.5243 0.52899 0.29512 0.0
C457 C 0.54956 0.40545 0.29579 0.0
C458 C 0.47898 0.38905 0.29497 0.0
H459 H 0.62611 0.48489 0.29772 0.0
H460 H 0.5871 0.36512 0.29792 0.0
S461 S 0.33533 0.51361 0.29012 0.0
N462 N 0.40494 0.56248 0.29156 0.0
N463 N 0.36272 0.43298 0.29106 0.0
C464 C 0.43184 0.44311 0.29236 0.0
C465 C 0.45454 0.51324 0.29267 0.0
C466 C 0.57657 0.07048 0.54178 0.0
C467 C 0.59313 0.99984 0.54226 0.0
C468 C 0.50771 0.09234 0.54125 0.0
C469 C 0.45329 0.04418 0.5417 0.0
H470 H 0.61671 0.10897 0.54321 0.0
H471 H 0.49715 0.14709 0.54236 0.0
S472 S 0.46949 0.85378 0.54009 0.0
N473 N 0.54988 0.88207 0.5405 0.0
N474 N 0.42039 0.92342 0.54028 0.0
C475 C 0.46931 0.97374 0.54047 0.0
C476 C 0.53943 0.95147 0.54053 0.0
C477 C 0.08461 0.98177 0.79411 0.0
C478 C 0.0384 0.03762 0.7951 0.0
C479 C 0.06067 0.91332 0.79458 0.0
C480 C 0.98977 0.89878 0.79544 0.0
H481 H 0.13968 0.99088 0.7948 0.0
H482 H 0.09784 0.87184 0.79559 0.0
S483 S 0.8479 0.02686 0.79575 0.0
N484 N 0.91892 0.07412 0.79539 0.0
N485 N 0.87356 0.94553 0.79532 0.0
C486 C 0.94307 0.95415 0.79458 0.0
C487 C 0.9675 0.02373 0.79466 0.0
C488 C 0.54114 0.00594 0.14324 0.0
C489 C 0.57255 0.98757 0.15793 0.0
C490 C 0.4747 0.03371 0.14274 0.0
C491 C 0.4362 0.04581 0.15694 0.0
H492 H 0.56733 0.99748 0.13181 0.0
H493 H 0.45374 0.04636 0.13101 0.0
S494 S 0.49501 0.01055 0.19877 0.0
N495 N 0.56013 0.98543 0.18725 0.0
N496 N 0.43539 0.0395 0.1863 0.0
C497 C 0.46728 0.02967 0.17182 0.0
C498 C 0.53519 1.0002 0.17233 0.0
C499 C 0.95973 0.96086 0.39163 0.0
C500 C 0.94762 0.92418 0.40607 0.0
C501 C 0.98816 0.02727 0.39167 0.0
C502 C 0.00716 0.06058 0.40613 0.0
H503 H 0.94663 0.93847 0.38005 0.0
H504 H 0.99657 0.05192 0.38007 0.0
S505 S 0.9857 0.98801 0.44743 0.0
N506 N 0.95561 0.92696 0.43541 0.0
N507 N 0.01078 0.05166 0.43546 0.0
C508 C 0.99509 0.02491 0.42075 0.0
C509 C 0.96501 0.957 0.42072 0.0
C510 C 0.04939 0.48586 0.6645 0.0
C511 C 0.09105 0.48511 0.65044 0.0
C512 C 0.98269 0.51474 0.66446 0.0
C513 C 0.95434 0.54311 0.65031 0.0
H514 H 0.06771 0.46265 0.67558 0.0
H515 H 0.95262 0.51356 0.67553 0.0
S516 S 0.04376 0.56034 0.61062 0.0
N517 N 0.09996 0.52059 0.62225 0.0
N518 N 0.97533 0.57316 0.62213 0.0
C519 C 0.99613 0.54449 0.6363 0.0
C520 C 0.06413 0.51608 0.63639 0.0
C521 C 0.481 0.51969 0.89696 0.0
C522 C 0.48107 0.47757 0.91079 0.0
C523 C 0.50418 0.58806 0.89748 0.0
C524 C 0.53006 0.61744 0.91183 0.0
H525 H 0.46364 0.49934 0.88546 0.0
H526 H 0.50496 0.61672 0.88624 0.0
S527 S 0.5351 0.53073 0.95189 0.0
N528 N 0.50316 0.47146 0.93963 0.0
N529 N 0.5491 0.59989 0.94063 0.0
C530 C 0.52733 0.57685 0.926 0.0
C531 C 0.50228 0.50707 0.92549 0.0
C532 C 0.52737 0.48145 0.0525 0.0
C533 C 0.54622 0.5511 0.05426 0.0
C534 C 0.45784 0.46197 0.05168 0.0
C535 C 0.40492 0.51136 0.05312 0.0
H536 H 0.56643 0.44151 0.05262 0.0
H537 H 0.44556 0.40737 0.05132 0.0
S538 S 0.42717 0.70087 0.05619 0.0
N539 N 0.50658 0.67023 0.0557 0.0
N540 N 0.37584 0.63296 0.05486 0.0
C541 C 0.42311 0.5814 0.05381 0.0
C542 C 0.49388 0.60146 0.05418 0.0
C543 C 0.53856 0.00971 0.30102 0.0
C544 C 0.46872 0.02855 0.30171 0.0
C545 C 0.55808 0.94008 0.30067 0.0
C546 C 0.50838 0.88704 0.3015 0.0
H547 H 0.57839 0.04892 0.30171 0.0
H548 H 0.61252 0.928 0.30126 0.0
S549 S 0.31876 0.90912 0.30147 0.0
N550 N 0.34959 0.9887 0.30131 0.0
N551 N 0.38669 0.85778 0.30131 0.0
C552 C 0.43846 0.90516 0.30098 0.0
C553 C 0.4185 0.97603 0.3009 0.0
C554 C 1.00222 0.95836 0.54743 0.0
C555 C 0.95013 0.00812 0.54973 0.0
C556 C 0.072 0.97742 0.54707 0.0
C557 C 0.09178 0.04694 0.54852 0.0
H558 H 0.98955 0.90384 0.54729 0.0
H559 H 0.1108 0.93724 0.54663 0.0
S560 S 0.97464 0.19752 0.55253 0.0
N561 N 0.92255 0.13007 0.55181 0.0
N562 N 0.05344 0.16613 0.55086 0.0
C563 C 0.03985 0.09757 0.54934 0.0
C564 C 0.969 0.07808 0.55001 0.0
C565 C 0.01048 0.50333 0.82713 0.0
C566 C 1.00024 0.53977 0.81265 0.0
C567 C 0.02606 0.43297 0.82707 0.0
C568 C 0.03359 0.39615 0.81251 0.0
H569 H 0.0046 0.52892 0.83871 0.0
H570 H 0.034 0.40768 0.83859 0.0
S571 S 0.01334 0.46755 0.77122 0.0
N572 N 0.99791 0.53387 0.78329 0.0
N573 N 0.0308 0.40146 0.78316 0.0
C574 C 0.02451 0.43194 0.79788 0.0
C575 C 0.00675 0.50368 0.79796 0.0
loop_
_geom_bond_atom_site_label_1
_geom_bond_atom_site_label_2
_geom_bond_distance
_geom_bond_site_symmetry_2
_ccdc_geom_bond_type
Mg0 O1 2.028 . S
Mg0 O7 1.986 . S
Mg0 O9 2.114 . S
Mg0 O10 2.251 . S
Mg0 O13 2.010 . S
O1 Mg0 2.028 . S
O1 C4 1.250 . S
O2 Mg3 2.028 . S
O2 C4 1.248 . S
Mg3 O2 2.028 . S
Mg3 O8 2.032 . S
Mg3 O10 2.079 . S
C4 O1 1.250 . S
C4 O2 1.248 . S
C5 O6 1.264 . S
C5 O13 1.249 . S
O6 C5 1.264 . S
O7 Mg0 1.986 . S
O7 C11 1.246 . S
O8 Mg3 2.032 . S
O8 C11 1.259 . S
O9 Mg0 2.114 . S
O9 C12 1.252 . S
O10 Mg0 2.251 . S
O10 Mg3 2.079 . S
O10 C12 1.273 . S
C11 O7 1.246 . S
C11 O8 1.259 . S
C12 O9 1.252 . S
C12 O10 1.273 . S
O13 Mg0 2.010 . S
O13 C5 1.249 . S
Mg14 O15 2.028 . S
Mg14 O21 1.986 . S
Mg14 O23 2.114 . S
Mg14 O24 2.251 . S
Mg14 O27 2.010 . S
O15 Mg14 2.028 . S
O15 C18 1.250 . S
O16 Mg17 2.028 . S
O16 C18 1.248 . S
Mg17 O16 2.028 . S
Mg17 O22 2.032 . S
Mg17 O24 2.079 . S
C18 O15 1.250 . S
C18 O16 1.248 . S
C19 O20 1.264 . S
C19 O27 1.249 . S
O20 C19 1.264 . S
O21 Mg14 1.986 . S
O21 C25 1.246 . S
O22 Mg17 2.032 . S
O22 C25 1.259 . S
O23 Mg14 2.114 . S
O23 C26 1.252 . S
O24 Mg14 2.251 . S
O24 Mg17 2.079 . S
O24 C26 1.273 . S
C25 O21 1.246 . S
C25 O22 1.259 . S
C26 O23 1.252 . S
C26 O24 1.273 . S
O27 Mg14 2.010 . S
O27 C19 1.249 . S
Mg28 O29 2.028 . S
Mg28 O35 1.986 . S
Mg28 O37 2.114 . S
Mg28 O38 2.251 . S
Mg28 O41 2.010 . S
O29 Mg28 2.028 . S
O29 C32 1.250 . S
O30 Mg31 2.028 . S
O30 C32 1.248 . S
Mg31 O30 2.028 . S
Mg31 O36 2.032 . S
Mg31 O38 2.079 . S
C32 O29 1.250 . S
C32 O30 1.248 . S
C33 O34 1.264 . S
C33 O41 1.249 . S
O34 C33 1.264 . S
O35 Mg28 1.986 . S
O35 C39 1.246 . S
O36 Mg31 2.032 . S
O36 C39 1.259 . S
O37 Mg28 2.114 . S
O37 C40 1.252 . S
O38 Mg28 2.251 . S
O38 Mg31 2.079 . S
O38 C40 1.273 . S
C39 O35 1.246 . S
C39 O36 1.259 . S
C40 O37 1.252 . S
C40 O38 1.273 . S
O41 Mg28 2.010 . S
O41 C33 1.249 . S
Mg42 O43 2.028 . S
Mg42 O49 1.986 . S
Mg42 O51 2.114 . S
Mg42 O52 2.251 . S
Mg42 O55 2.010 . S
O43 Mg42 2.028 . S
O43 C46 1.250 . S
O44 Mg45 2.028 . S
O44 C46 1.248 . S
Mg45 O44 2.028 . S
Mg45 O50 2.032 . S
Mg45 O52 2.079 . S
C46 O43 1.250 . S
C46 O44 1.248 . S
C47 O48 1.264 . S
C47 O55 1.249 . S
O48 C47 1.264 . S
O49 Mg42 1.986 . S
O49 C53 1.246 . S
O50 Mg45 2.032 . S
O50 C53 1.259 . S
O51 Mg42 2.114 . S
O51 C54 1.252 . S
O52 Mg42 2.251 . S
O52 Mg45 2.079 . S
O52 C54 1.273 . S
C53 O49 1.246 . S
C53 O50 1.259 . S
C54 O51 1.252 . S
C54 O52 1.273 . S
O55 Mg42 2.010 . S
O55 C47 1.249 . S
Mg56 O57 2.028 . S
Mg56 O63 1.986 . S
Mg56 O65 2.114 . S
Mg56 O66 2.251 . S
Mg56 O69 2.010 . S
O57 Mg56 2.028 . S
O57 C60 1.250 . S
O58 Mg59 2.028 . S
O58 C60 1.248 . S
Mg59 O58 2.028 . S
Mg59 O64 2.032 . S
Mg59 O66 2.079 . S
C60 O57 1.250 . S
C60 O58 1.248 . S
C61 O62 1.264 . S
C61 O69 1.249 . S
O62 C61 1.264 . S
O63 Mg56 1.986 . S
O63 C67 1.246 . S
O64 Mg59 2.032 . S
O64 C67 1.259 . S
O65 Mg56 2.114 . S
O65 C68 1.252 . S
O66 Mg56 2.251 . S
O66 Mg59 2.079 . S
O66 C68 1.273 . S
C67 O63 1.246 . S
C67 O64 1.259 . S
C68 O65 1.252 . S
C68 O66 1.273 . S
O69 Mg56 2.010 . S
O69 C61 1.249 . S
Mg70 O71 2.028 . S
Mg70 O77 1.986 . S
Mg70 O79 2.114 . S
Mg70 O80 2.251 . S
Mg70 O83 2.010 . S
O71 Mg70 2.028 . S
O71 C74 1.250 . S
O72 Mg73 2.028 . S
O72 C74 1.248 . S
Mg73 O72 2.028 . S
Mg73 O78 2.032 . S
Mg73 O80 2.079 . S
C74 O71 1.250 . S
C74 O72 1.248 . S
C75 O76 1.264 . S
C75 O83 1.249 . S
O76 C75 1.264 . S
O77 Mg70 1.986 . S
O77 C81 1.246 . S
O78 Mg73 2.032 . S
O78 C81 1.259 . S
O79 Mg70 2.114 . S
O79 C82 1.252 . S
O80 Mg70 2.251 . S
O80 Mg73 2.079 . S
O80 C82 1.273 . S
C81 O77 1.246 . S
C81 O78 1.259 . S
C82 O79 1.252 . S
C82 O80 1.273 . S
O83 Mg70 2.010 . S
O83 C75 1.249 . S
Mg84 O85 2.028 . S
Mg84 O91 1.986 . S
Mg84 O93 2.114 . S
Mg84 O94 2.251 . S
Mg84 O97 2.010 . S
O85 Mg84 2.028 . S
O85 C88 1.250 . S
O86 Mg87 2.028 . S
O86 C88 1.248 . S
Mg87 O86 2.028 . S
Mg87 O92 2.032 . S
Mg87 O94 2.079 . S
C88 O85 1.250 . S
C88 O86 1.248 . S
C89 O90 1.264 . S
C89 O97 1.249 . S
O90 C89 1.264 . S
O91 Mg84 1.986 . S
O91 C95 1.246 . S
O92 Mg87 2.032 . S
O92 C95 1.259 . S
O93 Mg84 2.114 . S
O93 C96 1.252 . S
O94 Mg84 2.251 . S
O94 Mg87 2.079 . S
O94 C96 1.273 . S
C95 O91 1.246 . S
C95 O92 1.259 . S
C96 O93 1.252 . S
C96 O94 1.273 . S
O97 Mg84 2.010 . S
O97 C89 1.249 . S
Mg98 O99 2.028 . S
Mg98 O105 1.986 . S
Mg98 O107 2.114 . S
Mg98 O108 2.251 . S
Mg98 O111 2.010 . S
O99 Mg98 2.028 . S
O99 C102 1.250 . S
O100 Mg101 2.028 . S
O100 C102 1.248 . S
Mg101 O100 2.028 . S
Mg101 O106 2.032 . S
Mg101 O108 2.079 . S
C102 O99 1.250 . S
C102 O100 1.248 . S
C103 O104 1.264 . S
C103 O111 1.249 . S
O104 C103 1.264 . S
O105 Mg98 1.986 . S
O105 C109 1.246 . S
O106 Mg101 2.032 . S
O106 C109 1.259 . S
O107 Mg98 2.114 . S
O107 C110 1.252 . S
O108 Mg98 2.251 . S
O108 Mg101 2.079 . S
O108 C110 1.273 . S
C109 O105 1.246 . S
C109 O106 1.259 . S
C110 O107 1.252 . S
C110 O108 1.273 . S
O111 Mg98 2.010 . S
O111 C103 1.249 . S
Mg112 O113 2.028 . S
Mg112 O119 1.986 . S
Mg112 O121 2.114 . S
Mg112 O122 2.251 . S
Mg112 O125 2.010 . S
O113 Mg112 2.028 . S
O113 C116 1.250 . S
O114 Mg115 2.028 . S
O114 C116 1.248 . S
Mg115 O114 2.028 . S
Mg115 O120 2.032 . S
Mg115 O122 2.079 . S
C116 O113 1.250 . S
C116 O114 1.248 . S
C117 O118 1.264 . S
C117 O125 1.249 . S
O118 C117 1.264 . S
O119 Mg112 1.986 . S
O119 C123 1.246 . S
O120 Mg115 2.032 . S
O120 C123 1.259 . S
O121 Mg112 2.114 . S
O121 C124 1.252 . S
O122 Mg112 2.251 . S
O122 Mg115 2.079 . S
O122 C124 1.273 . S
C123 O119 1.246 . S
C123 O120 1.259 . S
C124 O121 1.252 . S
C124 O122 1.273 . S
O125 Mg112 2.010 . S
O125 C117 1.249 . S
Mg126 O127 2.028 . S
Mg126 O133 1.986 . S
Mg126 O135 2.114 . S
Mg126 O136 2.251 . S
Mg126 O139 2.010 . S
O127 Mg126 2.028 . S
O127 C130 1.250 . S
O128 Mg129 2.028 . S
O128 C130 1.248 . S
Mg129 O128 2.028 . S
Mg129 O134 2.032 . S
Mg129 O136 2.079 . S
C130 O127 1.250 . S
C130 O128 1.248 . S
C131 O132 1.264 . S
C131 O139 1.249 . S
O132 C131 1.264 . S
O133 Mg126 1.986 . S
O133 C137 1.246 . S
O134 Mg129 2.032 . S
O134 C137 1.259 . S
O135 Mg126 2.114 . S
O135 C138 1.252 . S
O136 Mg126 2.251 . S
O136 Mg129 2.079 . S
O136 C138 1.273 . S
C137 O133 1.246 . S
C137 O134 1.259 . S
C138 O135 1.252 . S
C138 O136 1.273 . S
O139 Mg126 2.010 . S
O139 C131 1.249 . S
Mg140 O141 2.028 . S
Mg140 O147 1.986 . S
Mg140 O149 2.114 . S
Mg140 O150 2.251 . S
Mg140 O153 2.010 . S
O141 Mg140 2.028 . S
O141 C144 1.250 . S
O142 Mg143 2.028 . S
O142 C144 1.248 . S
Mg143 O142 2.028 . S
Mg143 O148 2.032 . S
Mg143 O150 2.079 . S
C144 O141 1.250 . S
C144 O142 1.248 . S
C145 O146 1.264 . S
C145 O153 1.249 . S
O146 C145 1.264 . S
O147 Mg140 1.986 . S
O147 C151 1.246 . S
O148 Mg143 2.032 . S
O148 C151 1.259 . S
O149 Mg140 2.114 . S
O149 C152 1.252 . S
O150 Mg140 2.251 . S
O150 Mg143 2.079 . S
O150 C152 1.273 . S
C151 O147 1.246 . S
C151 O148 1.259 . S
C152 O149 1.252 . S
C152 O150 1.273 . S
O153 Mg140 2.010 . S
O153 C145 1.249 . S
Mg154 O155 2.028 . S
Mg154 O161 1.986 . S
Mg154 O163 2.114 . S
Mg154 O164 2.251 . S
Mg154 O167 2.010 . S
O155 Mg154 2.028 . S
O155 C158 1.250 . S
O156 Mg157 2.028 . S
O156 C158 1.248 . S
Mg157 O156 2.028 . S
Mg157 O162 2.032 . S
Mg157 O164 2.079 . S
C158 O155 1.250 . S
C158 O156 1.248 . S
C159 O160 1.264 . S
C159 O167 1.249 . S
O160 C159 1.264 . S
O161 Mg154 1.986 . S
O161 C165 1.246 . S
O162 Mg157 2.032 . S
O162 C165 1.259 . S
O163 Mg154 2.114 . S
O163 C166 1.252 . S
O164 Mg154 2.251 . S
O164 Mg157 2.079 . S
O164 C166 1.273 . S
C165 O161 1.246 . S
C165 O162 1.259 . S
C166 O163 1.252 . S
C166 O164 1.273 . S
O167 Mg154 2.010 . S
O167 C159 1.249 . S
Mg168 O169 2.028 . S
Mg168 O175 1.986 . S
Mg168 O177 2.114 . S
Mg168 O178 2.251 . S
Mg168 O181 2.010 . S
O169 Mg168 2.028 . S
O169 C172 1.250 . S
O170 Mg171 2.028 . S
O170 C172 1.248 . S
Mg171 O170 2.028 . S
Mg171 O176 2.032 . S
Mg171 O178 2.079 . S
C172 O169 1.250 . S
C172 O170 1.248 . S
C173 O174 1.264 . S
C173 O181 1.249 . S
O174 C173 1.264 . S
O175 Mg168 1.986 . S
O175 C179 1.246 . S
O176 Mg171 2.032 . S
O176 C179 1.259 . S
O177 Mg168 2.114 . S
O177 C180 1.252 . S
O178 Mg168 2.251 . S
O178 Mg171 2.079 . S
O178 C180 1.273 . S
C179 O175 1.246 . S
C179 O176 1.259 . S
C180 O177 1.252 . S
C180 O178 1.273 . S
O181 Mg168 2.010 . S
O181 C173 1.249 . S
Mg182 O183 2.028 . S
Mg182 O189 1.986 . S
Mg182 O191 2.114 . S
Mg182 O192 2.251 . S
Mg182 O195 2.010 . S
O183 Mg182 2.028 . S
O183 C186 1.250 . S
O184 Mg185 2.028 . S
O184 C186 1.248 . S
Mg185 O184 2.028 . S
Mg185 O190 2.032 . S
Mg185 O192 2.079 . S
C186 O183 1.250 . S
C186 O184 1.248 . S
C187 O188 1.264 . S
C187 O195 1.249 . S
O188 C187 1.264 . S
O189 Mg182 1.986 . S
O189 C193 1.246 . S
O190 Mg185 2.032 . S
O190 C193 1.259 . S
O191 Mg182 2.114 . S
O191 C194 1.252 . S
O192 Mg182 2.251 . S
O192 Mg185 2.079 . S
O192 C194 1.273 . S
C193 O189 1.246 . S
C193 O190 1.259 . S
C194 O191 1.252 . S
C194 O192 1.273 . S
O195 Mg182 2.010 . S
O195 C187 1.249 . S
Mg196 O197 2.028 . S
Mg196 O203 1.986 . S
Mg196 O205 2.114 . S
Mg196 O206 2.251 . S
Mg196 O209 2.010 . S
O197 Mg196 2.028 . S
O197 C200 1.250 . S
O198 Mg199 2.028 . S
O198 C200 1.248 . S
Mg199 O198 2.028 . S
Mg199 O204 2.032 . S
Mg199 O206 2.079 . S
C200 O197 1.250 . S
C200 O198 1.248 . S
C201 O202 1.264 . S
C201 O209 1.249 . S
O202 C201 1.264 . S
O203 Mg196 1.986 . S
O203 C207 1.246 . S
O204 Mg199 2.032 . S
O204 C207 1.259 . S
O205 Mg196 2.114 . S
O205 C208 1.252 . S
O206 Mg196 2.251 . S
O206 Mg199 2.079 . S
O206 C208 1.273 . S
C207 O203 1.246 . S
C207 O204 1.259 . S
C208 O205 1.252 . S
C208 O206 1.273 . S
O209 Mg196 2.010 . S
O209 C201 1.249 . S
Mg210 O211 2.028 . S
Mg210 O217 1.986 . S
Mg210 O219 2.114 . S
Mg210 O220 2.251 . S
Mg210 O223 2.010 . S
O211 Mg210 2.028 . S
O211 C214 1.250 . S
O212 Mg213 2.028 . S
O212 C214 1.248 . S
Mg213 O212 2.028 . S
Mg213 O218 2.032 . S
Mg213 O220 2.079 . S
C214 O211 1.250 . S
C214 O212 1.248 . S
C215 O216 1.264 . S
C215 O223 1.249 . S
O216 C215 1.264 . S
O217 Mg210 1.986 . S
O217 C221 1.246 . S
O218 Mg213 2.032 . S
O218 C221 1.259 . S
O219 Mg210 2.114 . S
O219 C222 1.252 . S
O220 Mg210 2.251 . S
O220 Mg213 2.079 . S
O220 C222 1.273 . S
C221 O217 1.246 . S
C221 O218 1.259 . S
C222 O219 1.252 . S
C222 O220 1.273 . S
O223 Mg210 2.010 . S
O223 C215 1.249 . S
C224 C225 1.369 . S
C224 C226 1.419 . S
C224 H228 0.930 . S
C225 C224 1.369 . S
C225 C234 1.429 . S
C226 C224 1.419 . S
C226 C227 1.363 . S
C226 H229 0.929 . S
C227 C226 1.363 . S
C227 C233 1.428 . S
H228 C224 0.930 . S
H229 C226 0.929 . S
S230 N231 1.613 . S
S230 N232 1.610 . S
N231 S230 1.613 . S
N231 C234 1.350 . S
N232 S230 1.610 . S
N232 C233 1.351 . S
C233 C227 1.428 . S
C233 N232 1.351 . S
C233 C234 1.434 . S
C234 C225 1.429 . S
C234 N231 1.350 . S
C234 C233 1.434 . S
C235 C236 1.369 . S
C235 C237 1.419 . S
C235 H239 0.930 . S
C236 C235 1.369 . S
C236 C245 1.429 . S
C237 C235 1.419 . S
C237 C238 1.363 . S
C237 H240 0.929 . S
C238 C237 1.363 . S
C238 C244 1.428 . S
H239 C235 0.930 . S
H240 C237 0.929 . S
S241 N242 1.613 . S
S241 N243 1.610 . S
N242 S241 1.613 . S
N242 C245 1.350 . S
N243 S241 1.610 . S
N243 C244 1.351 . S
C244 C238 1.428 . S
C244 N243 1.351 . S
C244 C245 1.434 . S
C245 C236 1.429 . S
C245 N242 1.350 . S
C245 C244 1.434 . S
C246 C247 1.369 . S
C246 C248 1.419 . S
C246 H250 0.930 . S
C247 C246 1.369 . S
C247 C256 1.429 . S
C248 C246 1.419 . S
C248 C249 1.363 . S
C248 H251 0.929 . S
C249 C248 1.363 . S
C249 C255 1.428 . S
H250 C246 0.930 . S
H251 C248 0.929 . S
S252 N253 1.613 . S
S252 N254 1.610 . S
N253 S252 1.613 . S
N253 C256 1.350 . S
N254 S252 1.610 . S
N254 C255 1.351 . S
C255 C249 1.428 . S
C255 N254 1.351 . S
C255 C256 1.434 . S
C256 C247 1.429 . S
C256 N253 1.350 . S
C256 C255 1.434 . S
C257 C258 1.369 . S
C257 C259 1.419 . S
C257 H261 0.930 . S
C258 C257 1.369 . S
C258 C267 1.429 . S
C259 C257 1.419 . S
C259 C260 1.363 . S
C259 H262 0.929 . S
C260 C259 1.363 . S
C260 C266 1.428 . S
H261 C257 0.930 . S
H262 C259 0.929 . S
S263 N264 1.613 . S
S263 N265 1.610 . S
N264 S263 1.613 . S
N264 C267 1.350 . S
N265 S263 1.610 . S
N265 C266 1.351 . S
C266 C260 1.428 . S
C266 N265 1.351 . S
C266 C267 1.434 . S
C267 C258 1.429 . S
C267 N264 1.350 . S
C267 C266 1.434 . S
C268 C269 1.369 . S
C268 C270 1.419 . S
C268 H272 0.930 . S
C269 C268 1.369 . S
C269 C278 1.429 . S
C270 C268 1.419 . S
C270 C271 1.363 . S
C270 H273 0.929 . S
C271 C270 1.363 . S
C271 C277 1.428 . S
H272 C268 0.930 . S
H273 C270 0.929 . S
S274 N275 1.613 . S
S274 N276 1.610 . S
N275 S274 1.613 . S
N275 C278 1.350 . S
N276 S274 1.610 . S
N276 C277 1.351 . S
C277 C271 1.428 . S
C277 N276 1.351 . S
C277 C278 1.434 . S
C278 C269 1.429 . S
C278 N275 1.350 . S
C278 C277 1.434 . S
C279 C280 1.369 . S
C279 C281 1.419 . S
C279 H283 0.930 . S
C280 C279 1.369 . S
C280 C289 1.429 . S
C281 C279 1.419 . S
C281 C282 1.363 . S
C281 H284 0.929 . S
C282 C281 1.363 . S
C282 C288 1.428 . S
H283 C279 0.930 . S
H284 C281 0.929 . S
S285 N286 1.613 . S
S285 N287 1.610 . S
N286 S285 1.613 . S
N286 C289 1.350 . S
N287 S285 1.610 . S
N287 C288 1.351 . S
C288 C282 1.428 . S
C288 N287 1.351 . S
C288 C289 1.434 . S
C289 C280 1.429 . S
C289 N286 1.350 . S
C289 C288 1.434 . S
C290 C291 1.369 . S
C290 C292 1.419 . S
C290 H294 0.930 . S
C291 C290 1.369 . S
C291 C300 1.429 . S
C292 C290 1.419 . S
C292 C293 1.363 . S
C292 H295 0.929 . S
C293 C292 1.363 . S
C293 C299 1.428 . S
H294 C290 0.930 . S
H295 C292 0.929 . S
S296 N297 1.613 . S
S296 N298 1.610 . S
N297 S296 1.613 . S
N297 C300 1.350 . S
N298 S296 1.610 . S
N298 C299 1.351 . S
C299 C293 1.428 . S
C299 N298 1.351 . S
C299 C300 1.434 . S
C300 C291 1.429 . S
C300 N297 1.350 . S
C300 C299 1.434 . S
C301 C302 1.369 . S
C301 C303 1.419 . S
C301 H305 0.930 . S
C302 C301 1.369 . S
C302 C311 1.429 . S
C303 C301 1.419 . S
C303 C304 1.363 . S
C303 H306 0.929 . S
C304 C303 1.363 . S
C304 C310 1.428 . S
H305 C301 0.930 . S
H306 C303 0.929 . S
S307 N308 1.613 . S
S307 N309 1.610 . S
N308 S307 1.613 . S
N308 C311 1.350 . S
N309 S307 1.610 . S
N309 C310 1.351 . S
C310 C304 1.428 . S
C310 N309 1.351 . S
C310 C311 1.434 . S
C311 C302 1.429 . S
C311 N308 1.350 . S
C311 C310 1.434 . S
C312 C313 1.369 . S
C312 C314 1.419 . S
C312 H316 0.930 . S
C313 C312 1.369 . S
C313 C322 1.429 . S
C314 C312 1.419 . S
C314 C315 1.363 . S
C314 H317 0.929 . S
C315 C314 1.363 . S
C315 C321 1.428 . S
H316 C312 0.930 . S
H317 C314 0.929 . S
S318 N319 1.613 . S
S318 N320 1.610 . S
N319 S318 1.613 . S
N319 C322 1.350 . S
N320 S318 1.610 . S
N320 C321 1.351 . S
C321 C315 1.428 . S
C321 N320 1.351 . S
C321 C322 1.434 . S
C322 C313 1.429 . S
C322 N319 1.350 . S
C322 C321 1.434 . S
C323 C324 1.369 . S
C323 C325 1.419 . S
C323 H327 0.930 . S
C324 C323 1.369 . S
C324 C333 1.429 . S
C325 C323 1.419 . S
C325 C326 1.363 . S
C325 H328 0.929 . S
C326 C325 1.363 . S
C326 C332 1.428 . S
H327 C323 0.930 . S
H328 C325 0.929 . S
S329 N330 1.613 . S
S329 N331 1.610 . S
N330 S329 1.613 . S
N330 C333 1.350 . S
N331 S329 1.610 . S
N331 C332 1.351 . S
C332 C326 1.428 . S
C332 N331 1.351 . S
C332 C333 1.434 . S
C333 C324 1.429 . S
C333 N330 1.350 . S
C333 C332 1.434 . S
C334 C335 1.369 . S
C334 C336 1.419 . S
C334 H338 0.930 . S
C335 C334 1.369 . S
C335 C344 1.429 . S
C336 C334 1.419 . S
C336 C337 1.363 . S
C336 H339 0.929 . S
C337 C336 1.363 . S
C337 C343 1.428 . S
H338 C334 0.930 . S
H339 C336 0.929 . S
S340 N341 1.613 . S
S340 N342 1.610 . S
N341 S340 1.613 . S
N341 C344 1.350 . S
N342 S340 1.610 . S
N342 C343 1.351 . S
C343 C337 1.428 . S
C343 N342 1.351 . S
C343 C344 1.434 . S
C344 C335 1.429 . S
C344 N341 1.350 . S
C344 C343 1.434 . S
C345 C346 1.369 . S
C345 C347 1.419 1_554 S
C345 H349 0.930 . S
C346 C345 1.369 . S
C346 C355 1.429 . S
C347 C345 1.419 1_556 S
C347 C348 1.363 . S
C347 H350 0.929 . S
C348 C347 1.363 . S
C348 C354 1.428 . S
H349 C345 0.930 . S
H350 C347 0.929 . S
S351 N352 1.616 1_556 S
S351 N353 1.607 . S
N352 S351 1.616 1_554 S
N352 C355 1.350 . S
N353 S351 1.607 . S
N353 C354 1.351 . S
C354 C348 1.428 . S
C354 N353 1.351 . S
C354 C355 1.434 1_556 S
C355 C346 1.429 . S
C355 N352 1.350 . S
C355 C354 1.434 1_554 S
C356 C357 1.369 . S
C356 C358 1.419 1_554 S
C356 H360 0.930 . S
C357 C356 1.369 . S
C357 C366 1.429 . S
C358 C356 1.419 1_556 S
C358 C359 1.363 . S
C358 H361 0.929 . S
C359 C358 1.363 . S
C359 C365 1.428 . S
H360 C356 0.930 . S
H361 C358 0.929 . S
S362 N363 1.599 1_556 S
S362 N364 1.624 . S
N363 S362 1.599 1_554 S
N363 C366 1.350 . S
N364 S362 1.624 . S
N364 C365 1.351 . S
C365 C359 1.428 . S
C365 N364 1.351 . S
C365 C366 1.434 1_556 S
C366 C357 1.429 . S
C366 N363 1.350 . S
C366 C365 1.434 1_554 S
C367 C368 1.369 . S
C367 C369 1.419 . S
C367 H371 0.930 . S
C368 C367 1.369 . S
C368 C377 1.429 . S
C369 C367 1.419 . S
C369 C370 1.363 . S
C369 H372 0.929 . S
C370 C369 1.363 . S
C370 C376 1.428 . S
H371 C367 0.930 . S
H372 C369 0.929 . S
S373 N374 1.613 . S
S373 N375 1.610 . S
N374 S373 1.613 . S
N374 C377 1.350 . S
N375 S373 1.610 . S
N375 C376 1.351 . S
C376 C370 1.428 . S
C376 N375 1.351 . S
C376 C377 1.434 . S
C377 C368 1.429 . S
C377 N374 1.350 . S
C377 C376 1.434 . S
C378 C379 1.369 . S
C378 C380 1.419 . S
C378 H382 0.930 . S
C379 C378 1.369 . S
C379 C388 1.429 . S
C380 C378 1.419 . S
C380 C381 1.363 . S
C380 H383 0.929 . S
C381 C380 1.363 . S
C381 C387 1.428 . S
H382 C378 0.930 . S
H383 C380 0.929 . S
S384 N385 1.613 . S
S384 N386 1.610 . S
N385 S384 1.613 . S
N385 C388 1.350 . S
N386 S384 1.610 . S
N386 C387 1.351 . S
C387 C381 1.428 . S
C387 N386 1.351 . S
C387 C388 1.434 . S
C388 C379 1.429 . S
C388 N385 1.350 . S
C388 C387 1.434 . S
C389 C390 1.369 . S
C389 C391 1.419 . S
C389 H393 0.930 . S
C390 C389 1.369 . S
C390 C399 1.429 . S
C391 C389 1.419 . S
C391 C392 1.363 . S
C391 H394 0.929 . S
C392 C391 1.363 . S
C392 C398 1.428 . S
H393 C389 0.930 . S
H394 C391 0.929 . S
S395 N396 1.613 . S
S395 N397 1.610 . S
N396 S395 1.613 . S
N396 C399 1.350 . S
N397 S395 1.610 . S
N397 C398 1.351 . S
C398 C392 1.428 . S
C398 N397 1.351 . S
C398 C399 1.434 . S
C399 C390 1.429 . S
C399 N396 1.350 . S
C399 C398 1.434 . S
C400 C401 1.369 . S
C400 C402 1.419 1_455 S
C400 H404 0.930 . S
C401 C400 1.369 . S
C401 C410 1.429 1_545 S
C402 C400 1.419 1_655 S
C402 C403 1.363 1_545 S
C402 H405 0.929 . S
C403 C402 1.363 1_565 S
C403 C409 1.428 . S
H404 C400 0.930 . S
H405 C402 0.929 . S
S406 N407 1.613 . S
S406 N408 1.610 1_455 S
N407 S406 1.613 . S
N407 C410 1.350 . S
N408 S406 1.610 1_655 S
N408 C409 1.351 . S
C409 C403 1.428 . S
C409 N408 1.351 . S
C409 C410 1.434 1_655 S
C410 C401 1.429 1_565 S
C410 N407 1.350 . S
C410 C409 1.434 1_455 S
C411 C412 1.369 1_655 S
C411 C413 1.419 . S
C411 H415 0.930 . S
C412 C411 1.369 1_455 S
C412 C421 1.429 . S
C413 C411 1.419 . S
C413 C414 1.363 . S
C413 H416 0.929 . S
C414 C413 1.363 . S
C414 C420 1.428 1_655 S
H415 C411 0.930 . S
H416 C413 0.929 . S
S417 N418 1.613 . S
S417 N419 1.610 . S
N418 S417 1.613 . S
N418 C421 1.350 . S
N419 S417 1.610 . S
N419 C420 1.351 . S
C420 C414 1.428 1_455 S
C420 N419 1.351 . S
C420 C421 1.434 . S
C421 C412 1.429 . S
C421 N418 1.350 . S
C421 C420 1.434 . S
C422 C423 1.369 . S
C422 C424 1.419 . S
C422 H426 0.930 . S
C423 C422 1.369 . S
C423 C432 1.429 . S
C424 C422 1.419 . S
C424 C425 1.363 . S
C424 H427 0.929 . S
C425 C424 1.363 . S
C425 C431 1.428 . S
H426 C422 0.930 . S
H427 C424 0.929 . S
S428 N429 1.613 . S
S428 N430 1.610 . S
N429 S428 1.613 . S
N429 C432 1.350 . S
N430 S428 1.610 . S
N430 C431 1.351 . S
C431 C425 1.428 . S
C431 N430 1.351 . S
C431 C432 1.434 . S
C432 C423 1.429 . S
C432 N429 1.350 . S
C432 C431 1.434 . S
C433 C434 1.369 . S
C433 C435 1.419 1_545 S
C433 H437 0.930 . S
C434 C433 1.369 . S
C434 C443 1.429 . S
C435 C433 1.419 1_565 S
C435 C436 1.363 . S
C435 H438 0.929 . S
C436 C435 1.363 . S
C436 C442 1.428 . S
H437 C433 0.930 . S
H438 C435 0.929 . S
S439 N440 1.619 . S
S439 N441 1.604 1_545 S
N440 S439 1.619 . S
N440 C443 1.350 . S
N441 S439 1.604 1_565 S
N441 C442 1.351 . S
C442 C436 1.428 . S
C442 N441 1.351 . S
C442 C443 1.434 1_565 S
C443 C434 1.429 . S
C443 N440 1.350 . S
C443 C442 1.434 1_545 S
C444 C445 1.369 . S
C444 C446 1.419 1_455 S
C444 H448 0.930 . S
C445 C444 1.369 . S
C445 C454 1.429 . S
C446 C444 1.419 1_655 S
C446 C447 1.363 . S
C446 H449 0.929 . S
C447 C446 1.363 . S
C447 C453 1.428 . S
H448 C444 0.930 . S
H449 C446 0.929 . S
S450 N451 1.613 1_655 S
S450 N452 1.610 . S
N451 S450 1.613 1_455 S
N451 C454 1.350 . S
N452 S450 1.610 . S
N452 C453 1.351 . S
C453 C447 1.428 . S
C453 N452 1.351 . S
C453 C454 1.434 1_655 S
C454 C445 1.429 . S
C454 N451 1.350 . S
C454 C453 1.434 1_455 S
C455 C456 1.369 . S
C455 C457 1.419 . S
C455 H459 0.930 . S
C456 C455 1.369 . S
C456 C465 1.429 . S
C457 C455 1.419 . S
C457 C458 1.363 . S
C457 H460 0.929 . S
C458 C457 1.363 . S
C458 C464 1.428 . S
H459 C455 0.930 . S
H460 C457 0.929 . S
S461 N462 1.613 . S
S461 N463 1.610 . S
N462 S461 1.613 . S
N462 C465 1.350 . S
N463 S461 1.610 . S
N463 C464 1.351 . S
C464 C458 1.428 . S
C464 N463 1.351 . S
C464 C465 1.434 . S
C465 C456 1.429 . S
C465 N462 1.350 . S
C465 C464 1.434 . S
C466 C467 1.369 1_545 S
C466 C468 1.419 . S
C466 H470 0.930 . S
C467 C466 1.369 1_565 S
C467 C476 1.429 . S
C468 C466 1.419 . S
C468 C469 1.363 . S
C468 H471 0.929 . S
C469 C468 1.363 . S
C469 C475 1.428 1_545 S
H470 C466 0.930 . S
H471 C468 0.929 . S
S472 N473 1.613 . S
S472 N474 1.610 . S
N473 S472 1.613 . S
N473 C476 1.350 . S
N474 S472 1.610 . S
N474 C475 1.351 . S
C475 C469 1.428 1_565 S
C475 N474 1.351 . S
C475 C476 1.434 . S
C476 C467 1.429 . S
C476 N473 1.350 . S
C476 C475 1.434 . S
C477 C478 1.369 . S
C477 C479 1.419 1_545 S
C477 H481 0.930 . S
C478 C477 1.369 . S
C478 C487 1.429 1_455 S
C479 C477 1.419 1_565 S
C479 C480 1.363 1_455 S
C479 H482 0.929 . S
C480 C479 1.363 1_655 S
C480 C486 1.428 . S
H481 C477 0.930 . S
H482 C479 0.929 . S
S483 N484 1.613 . S
S483 N485 1.610 1_545 S
N484 S483 1.613 . S
N484 C487 1.350 . S
N485 S483 1.610 1_565 S
N485 C486 1.351 . S
C486 C480 1.428 . S
C486 N485 1.351 . S
C486 C487 1.434 1_565 S
C487 C478 1.429 1_655 S
C487 N484 1.350 . S
C487 C486 1.434 1_545 S
C488 C489 1.369 1_545 S
C488 C490 1.419 . S
C488 H492 0.930 . S
C489 C488 1.369 1_565 S
C489 C498 1.429 . S
C490 C488 1.419 . S
C490 C491 1.363 . S
C490 H493 0.929 . S
C491 C490 1.363 . S
C491 C497 1.428 1_545 S
H492 C488 0.930 . S
H493 C490 0.929 . S
S494 N495 1.613 . S
S494 N496 1.610 . S
N495 S494 1.613 . S
N495 C498 1.350 . S
N496 S494 1.610 . S
N496 C497 1.351 . S
C497 C491 1.428 1_565 S
C497 N496 1.351 . S
C497 C498 1.434 . S
C498 C489 1.429 . S
C498 N495 1.350 . S
C498 C497 1.434 . S
C499 C500 1.369 . S
C499 C501 1.419 1_565 S
C499 H503 0.930 . S
C500 C499 1.369 . S
C500 C509 1.429 1_655 S
C501 C499 1.419 1_545 S
C501 C502 1.363 1_655 S
C501 H504 0.929 . S
C502 C501 1.363 1_455 S
C502 C508 1.428 . S
H503 C499 0.930 . S
H504 C501 0.929 . S
S505 N506 1.613 . S
S505 N507 1.610 1_565 S
N506 S505 1.613 . S
N506 C509 1.350 . S
N507 S505 1.610 1_545 S
N507 C508 1.351 . S
C508 C502 1.428 . S
C508 N507 1.351 . S
C508 C509 1.434 1_545 S
C509 C500 1.429 1_455 S
C509 N506 1.350 . S
C509 C508 1.434 1_565 S
C510 C511 1.369 . S
C510 C512 1.419 1_455 S
C510 H514 0.930 . S
C511 C510 1.369 . S
C511 C520 1.429 . S
C512 C510 1.419 1_655 S
C512 C513 1.363 . S
C512 H515 0.929 . S
C513 C512 1.363 . S
C513 C519 1.428 . S
H514 C510 0.930 . S
H515 C512 0.929 . S
S516 N517 1.613 . S
S516 N518 1.610 1_455 S
N517 S516 1.613 . S
N517 C520 1.350 . S
N518 S516 1.610 1_655 S
N518 C519 1.351 . S
C519 C513 1.428 . S
C519 N518 1.351 . S
C519 C520 1.434 1_655 S
C520 C511 1.429 . S
C520 N517 1.350 . S
C520 C519 1.434 1_455 S
C521 C522 1.369 . S
C521 C523 1.419 . S
C521 H525 0.930 . S
C522 C521 1.369 . S
C522 C531 1.429 . S
C523 C521 1.419 . S
C523 C524 1.363 . S
C523 H526 0.929 . S
C524 C523 1.363 . S
C524 C530 1.428 . S
H525 C521 0.930 . S
H526 C523 0.929 . S
S527 N528 1.613 . S
S527 N529 1.610 . S
N528 S527 1.613 . S
N528 C531 1.350 . S
N529 S527 1.610 . S
N529 C530 1.351 . S
C530 C524 1.428 . S
C530 N529 1.351 . S
C530 C531 1.434 . S
C531 C522 1.429 . S
C531 N528 1.350 . S
C531 C530 1.434 . S
C532 C533 1.369 . S
C532 C534 1.419 . S
C532 H536 0.930 . S
C533 C532 1.369 . S
C533 C542 1.429 . S
C534 C532 1.419 . S
C534 C535 1.363 . S
C534 H537 0.929 . S
C535 C534 1.363 . S
C535 C541 1.428 . S
H536 C532 0.930 . S
H537 C534 0.929 . S
S538 N539 1.613 . S
S538 N540 1.610 . S
N539 S538 1.613 . S
N539 C542 1.350 . S
N540 S538 1.610 . S
N540 C541 1.351 . S
C541 C535 1.428 . S
C541 N540 1.351 . S
C541 C542 1.434 . S
C542 C533 1.429 . S
C542 N539 1.350 . S
C542 C541 1.434 . S
C543 C544 1.369 . S
C543 C545 1.419 1_545 S
C543 H547 0.930 . S
C544 C543 1.369 . S
C544 C553 1.429 . S
C545 C543 1.419 1_565 S
C545 C546 1.363 . S
C545 H548 0.929 . S
C546 C545 1.363 . S
C546 C552 1.428 . S
H547 C543 0.930 . S
H548 C545 0.929 . S
S549 N550 1.613 . S
S549 N551 1.610 1_545 S
N550 S549 1.613 . S
N550 C553 1.350 . S
N551 S549 1.610 1_565 S
N551 C552 1.351 . S
C552 C546 1.428 . S
C552 N551 1.351 . S
C552 C553 1.434 1_565 S
C553 C544 1.429 . S
C553 N550 1.350 . S
C553 C552 1.434 1_545 S
C554 C555 1.369 . S
C554 C556 1.419 1_655 S
C554 H558 0.930 . S
C555 C554 1.369 . S
C555 C564 1.429 1_565 S
C556 C554 1.419 1_455 S
C556 C557 1.363 1_565 S
C556 H559 0.929 . S
C557 C556 1.363 1_545 S
C557 C563 1.428 . S
H558 C554 0.930 . S
H559 C556 0.929 . S
S560 N561 1.613 . S
S560 N562 1.610 1_655 S
N561 S560 1.613 . S
N561 C564 1.350 . S
N562 S560 1.610 1_455 S
N562 C563 1.351 . S
C563 C557 1.428 . S
C563 N562 1.351 . S
C563 C564 1.434 1_455 S
C564 C555 1.429 1_545 S
C564 N561 1.350 . S
C564 C563 1.434 1_655 S
C565 C566 1.369 1_455 S
C565 C567 1.419 . S
C565 H569 0.930 . S
C566 C565 1.369 1_655 S
C566 C575 1.429 . S
C567 C565 1.419 . S
C567 C568 1.363 . S
C567 H570 0.929 . S
C568 C567 1.363 . S
C568 C574 1.428 1_455 S
H569 C565 0.930 . S
H570 C567 0.929 . S
S571 N572 1.613 . S
S571 N573 1.610 . S
N572 S571 1.613 . S
N572 C575 1.350 . S
N573 S571 1.610 . S
N573 C574 1.351 . S
C574 C568 1.428 1_655 S
C574 N573 1.351 . S
C574 C575 1.434 . S
C575 C566 1.429 . S
C575 N572 1.350 . S
C575 C574 1.434 . S
C225 C68 1.178 . S
C227 C12 1.176 . S
C236 C26 1.176 . S
C238 C82 1.179 . S
C247 C96 1.182 . S
C249 C40 1.173 . S
C258 C110 1.176 . S
C260 C54 1.179 . S
C269 C180 1.172 . S
C271 C124 1.180 . S
C280 C138 1.178 . S
C282 C194 1.177 . S
C291 C208 1.182 . S
C293 C152 1.173 . S
C302 C166 1.172 . S
C304 C222 1.181 . S
C313 C5 1.215 . S
C315 C215 1.211 . S
C324 C19 1.209 . S
C326 C173 1.212 . S
C335 C33 1.220 . S
C337 C187 1.224 . S
C346 C201 1.225 . S
C348 C47 1.225 . S
C357 C61 1.214 . S
C359 C131 1.211 . S
C368 C75 1.226 . S
C370 C145 1.219 . S
C379 C159 1.222 . S
C381 C89 1.214 . S
C390 C117 1.218 . S
C392 C103 1.212 . S
C401 C11 1.520 . S
C403 C151 1.517 . S
C412 C165 1.518 . S
C414 C25 1.519 . S
C423 C39 1.515 . S
C425 C123 1.518 . S
C434 C137 1.519 . S
C436 C53 1.518 . S
C445 C67 1.514 . S
C447 C207 1.517 . S
C456 C81 1.515 . S
C458 C221 1.514 . S
C467 C179 1.516 . S
C469 C95 1.519 . S
C478 C193 1.515 . S
C480 C109 1.514 . S
C489 C144 1.592 . S
C491 C4 1.593 . S
C500 C18 1.594 . S
C502 C158 1.591 . S
C511 C32 1.592 . S
C513 C116 1.590 . S
C522 C130 1.594 . S
C524 C46 1.591 . S
C533 C200 1.589 . S
C535 C60 1.592 . S
C544 C214 1.593 . S
C546 C74 1.593 . S
C555 C172 1.592 . S
C557 C88 1.590 . S
C566 C102 1.592 . S
C568 C186 1.593 . S
