# Generated by pormake.
# Topology ukf, (4)-cn, num edge types: 1
# Building blocks:
#     Node 0, Type 0, BuildingBlock: NAHDIM_clean_sbu_0, # of connection points: 4
#     Node 1, Type 0, BuildingBlock: NAHDIM_clean_sbu_0, # of connection points: 4
#     Node 2, Type 0, BuildingBlock: NAHDIM_clean_sbu_0, # of connection points: 4
#     Node 3, Type 0, BuildingBlock: NAHDIM_clean_sbu_0, # of connection points: 4
#     Node 4, Type 0, BuildingBlock: NAHDIM_clean_sbu_0, # of connection points: 4
#     Node 5, Type 0, BuildingBlock: NAHDIM_clean_sbu_0, # of connection points: 4
#     Node 6, Type 0, BuildingBlock: NAHDIM_clean_sbu_0, # of connection points: 4
#     Node 7, Type 0, BuildingBlock: NAHDIM_clean_sbu_0, # of connection points: 4
#     Node 8, Type 0, BuildingBlock: NAHDIM_clean_sbu_0, # of connection points: 4
#     Node 9, Type 0, BuildingBlock: NAHDIM_clean_sbu_0, # of connection points: 4
#     Node 10, Type 0, BuildingBlock: NAHDIM_clean_sbu_0, # of connection points: 4
#     Node 11, Type 0, BuildingBlock: NAHDIM_clean_sbu_0, # of connection points: 4
#     Edge 12, Type (0, 0), BuildingBlock: KIFKEQ_clean_linker_1, # of connection points: 2
#     Edge 13, Type (0, 0), BuildingBlock: KIFKEQ_clean_linker_1, # of connection points: 2
#     Edge 14, Type (0, 0), BuildingBlock: KIFKEQ_clean_linker_1, # of connection points: 2
#     Edge 15, Type (0, 0), BuildingBlock: KIFKEQ_clean_linker_1, # of connection points: 2
#     Edge 16, Type (0, 0), BuildingBlock: KIFKEQ_clean_linker_1, # of connection points: 2
#     Edge 17, Type (0, 0), BuildingBlock: KIFKEQ_clean_linker_1, # of connection points: 2
#     Edge 18, Type (0, 0), BuildingBlock: KIFKEQ_clean_linker_1, # of connection points: 2
#     Edge 19, Type (0, 0), BuildingBlock: KIFKEQ_clean_linker_1, # of connection points: 2
#     Edge 20, Type (0, 0), BuildingBlock: KIFKEQ_clean_linker_1, # of connection points: 2
#     Edge 21, Type (0, 0), BuildingBlock: KIFKEQ_clean_linker_1, # of connection points: 2
#     Edge 22, Type (0, 0), BuildingBlock: KIFKEQ_clean_linker_1, # of connection points: 2
#     Edge 23, Type (0, 0), BuildingBlock: KIFKEQ_clean_linker_1, # of connection points: 2
#     Edge 24, Type (0, 0), BuildingBlock: KIFKEQ_clean_linker_1, # of connection points: 2
#     Edge 25, Type (0, 0), BuildingBlock: KIFKEQ_clean_linker_1, # of connection points: 2
#     Edge 26, Type (0, 0), BuildingBlock: KIFKEQ_clean_linker_1, # of connection points: 2
#     Edge 27, Type (0, 0), BuildingBlock: KIFKEQ_clean_linker_1, # of connection points: 2
#     Edge 28, Type (0, 0), BuildingBlock: KIFKEQ_clean_linker_1, # of connection points: 2
#     Edge 29, Type (0, 0), BuildingBlock: KIFKEQ_clean_linker_1, # of connection points: 2
#     Edge 30, Type (0, 0), BuildingBlock: KIFKEQ_clean_linker_1, # of connection points: 2
#     Edge 31, Type (0, 0), BuildingBlock: KIFKEQ_clean_linker_1, # of connection points: 2
#     Edge 32, Type (0, 0), BuildingBlock: KIFKEQ_clean_linker_1, # of connection points: 2
#     Edge 33, Type (0, 0), BuildingBlock: KIFKEQ_clean_linker_1, # of connection points: 2
#     Edge 34, Type (0, 0), BuildingBlock: KIFKEQ_clean_linker_1, # of connection points: 2
#     Edge 35, Type (0, 0), BuildingBlock: KIFKEQ_clean_linker_1, # of connection points: 2
# Relax obj value: 0.169
# Max RMSD: 0.176
# Mean RMSD: 0.169
data_MOF--net-ukf--node1-NAHDIM_clean_sbu_0--edge1-KIFKEQ_clean_linker_1
_symmetry_space_group_name_H-M    P1
_symmetry_Int_Tables_number       1
_symmetry_cell_setting            triclinic
loop_
_symmetry_equiv_pos_as_xyz
'x, y, z'
_cell_length_a     33.427468
_cell_length_b     32.957395
_cell_length_c     62.521748
_cell_angle_alpha  89.986595
_cell_angle_beta   90.061666
_cell_angle_gamma 120.52716
loop_
_atom_site_label
_atom_site_type_symbol
_atom_site_fract_x
_atom_site_fract_y
_atom_site_fract_z
_atom_type_partial_charge
C0 C 0.43169 0.32364 0.02245 0.0
O1 O 0.44453 0.30447 0.00756 0.0
O2 O 0.45997 0.23752 0.03019 0.0
Zn3 Zn 0.40646 0.23746 0.04478 0.0
O4 O 0.41256 0.23202 0.07649 0.0
C5 C 0.34064 0.16828 0.01526 0.0
O6 O 0.37292 0.19382 0.00118 0.0
O7 O 0.41174 0.30005 0.03917 0.0
C8 C 0.39168 0.19273 0.0862 0.0
O9 O 0.36535 0.15409 0.07525 0.0
C10 C 0.46437 0.20151 0.02906 0.0
O11 O 0.43286 0.16188 0.03793 0.0
O12 O 0.34638 0.18189 0.03461 0.0
C13 C 0.11255 0.44191 0.37564 0.0
O14 O 0.15128 0.47138 0.38554 0.0
O15 O 0.2172 0.45157 0.36609 0.0
Zn16 Zn 0.16034 0.39358 0.37779 0.0
O17 O 0.16365 0.38916 0.41001 0.0
C18 C 0.19636 0.33924 0.36129 0.0
O19 O 0.23424 0.37954 0.36535 0.0
O20 O 0.10565 0.40149 0.37046 0.0
C21 C 0.1981 0.39057 0.41942 0.0
O22 O 0.23329 0.39556 0.40804 0.0
C23 C 0.24771 0.48614 0.37693 0.0
O24 O 0.24374 0.48619 0.39782 0.0
O25 O 0.15708 0.33564 0.36447 0.0
C26 C 0.84948 0.15921 0.70473 0.0
O27 O 0.85184 0.17 0.72509 0.0
O28 O 0.77003 0.16072 0.74048 0.0
Zn29 Zn 0.76308 0.15757 0.70829 0.0
O30 O 0.77323 0.21953 0.69748 0.0
C31 C 0.67453 0.06971 0.71004 0.0
O32 O 0.69508 0.05877 0.725 0.0
O33 O 0.81269 0.14877 0.69436 0.0
C34 C 0.74228 0.23082 0.69936 0.0
O35 O 0.70322 0.20195 0.70915 0.0
C36 C 0.73788 0.15497 0.75318 0.0
O37 O 0.69781 0.14624 0.74532 0.0
O38 O 0.69787 0.10831 0.7 0.0
C39 C 0.56228 0.67409 0.02738 0.0
O40 O 0.55181 0.69558 0.01263 0.0
O41 O 0.53449 0.75992 0.03655 0.0
Zn42 Zn 0.58808 0.75891 0.0508 0.0
O43 O 0.58503 0.76578 0.08265 0.0
C44 C 0.65515 0.82501 0.02058 0.0
O45 O 0.62334 0.79851 0.00647 0.0
O46 O 0.58091 0.6956 0.04473 0.0
C47 C 0.59784 0.80584 0.09084 0.0
O48 O 0.61251 0.8426 0.07825 0.0
C49 C 0.53346 0.79694 0.03197 0.0
O50 O 0.5688 0.83832 0.03721 0.0
O51 O 0.6484 0.81325 0.04017 0.0
C52 C 0.87541 0.54253 0.36186 0.0
O53 O 0.83684 0.51751 0.35096 0.0
O54 O 0.76552 0.52446 0.37198 0.0
Zn55 Zn 0.82402 0.58117 0.38247 0.0
O56 O 0.82228 0.5837 0.41464 0.0
C57 C 0.81288 0.66219 0.37859 0.0
O58 O 0.79585 0.64931 0.39795 0.0
O59 O 0.87831 0.57327 0.37507 0.0
C60 C 0.85196 0.61958 0.42507 0.0
O61 O 0.8839 0.65655 0.41468 0.0
C62 C 0.72601 0.51036 0.38037 0.0
O63 O 0.72265 0.53336 0.39677 0.0
O64 O 0.82817 0.63896 0.36883 0.0
C65 C 0.15654 0.86582 0.70096 0.0
O66 O 0.15981 0.86991 0.72188 0.0
O67 O 0.22166 0.84239 0.73759 0.0
Zn68 Zn 0.23331 0.84905 0.70575 0.0
O69 O 0.22455 0.78836 0.69403 0.0
C70 C 0.3273 0.92061 0.71563 0.0
O71 O 0.30948 0.91539 0.73484 0.0
O72 O 0.18635 0.86037 0.69072 0.0
C73 C 0.25435 0.77613 0.69766 0.0
O74 O 0.29055 0.80314 0.70969 0.0
C75 C 0.20166 0.80329 0.74747 0.0
O76 O 0.18569 0.76391 0.73662 0.0
O77 O 0.30049 0.89851 0.70004 0.0
C78 C 0.67582 0.55648 0.62137 0.0
O79 O 0.68714 0.5291 0.61101 0.0
O80 O 0.77425 0.55083 0.63665 0.0
Zn81 Zn 0.7729 0.60693 0.62447 0.0
O82 O 0.78691 0.61398 0.59288 0.0
C83 C 0.84895 0.70331 0.63091 0.0
O84 O 0.84244 0.70837 0.61059 0.0
O85 O 0.70805 0.59517 0.62902 0.0
C86 C 0.822 0.61389 0.58514 0.0
O87 O 0.85032 0.60884 0.59797 0.0
C88 C 0.77106 0.51645 0.62598 0.0
O89 O 0.76705 0.51599 0.60507 0.0
O90 O 0.82195 0.66436 0.64012 0.0
C91 C 0.11396 0.66399 0.949 0.0
O92 O 0.14215 0.67433 0.93265 0.0
O93 O 0.22802 0.77394 0.96263 0.0
Zn94 Zn 0.16682 0.76251 0.95114 0.0
O95 O 0.16813 0.76578 0.91903 0.0
C96 C 0.16924 0.82874 0.98142 0.0
O97 O 0.18019 0.80446 0.99437 0.0
O98 O 0.11666 0.69743 0.96028 0.0
C99 C 0.20008 0.80055 0.9089 0.0
O100 O 0.23359 0.83559 0.91968 0.0
C101 C 0.25396 0.76157 0.95336 0.0
O102 O 0.24138 0.74021 0.93474 0.0
O103 O 0.15836 0.81494 0.9622 0.0
C104 C 0.29888 0.13797 0.29502 0.0
O105 O 0.29893 0.13831 0.27401 0.0
O106 O 0.38497 0.15664 0.25779 0.0
Zn107 Zn 0.39089 0.15104 0.28956 0.0
O108 O 0.44233 0.21304 0.30052 0.0
C109 C 0.41297 0.07844 0.2811 0.0
O110 O 0.39723 0.07949 0.26198 0.0
O111 O 0.3327 0.13898 0.30486 0.0
C112 C 0.4488 0.21859 0.32059 0.0
O113 O 0.42127 0.18394 0.33341 0.0
C114 C 0.42099 0.17997 0.24634 0.0
O115 O 0.46205 0.20065 0.25552 0.0
O116 O 0.41044 0.10347 0.29591 0.0
C117 C 0.33736 0.45877 0.62377 0.0
O118 O 0.32642 0.48847 0.61543 0.0
O119 O 0.23954 0.46318 0.6362 0.0
Zn120 Zn 0.24141 0.40853 0.62288 0.0
O121 O 0.23495 0.40964 0.59084 0.0
C122 C 0.14825 0.34305 0.62974 0.0
O123 O 0.147 0.37391 0.61687 0.0
O124 O 0.30478 0.41788 0.62904 0.0
C125 C 0.21396 0.37233 0.57967 0.0
O126 O 0.19557 0.3311 0.58912 0.0
C127 C 0.22835 0.48943 0.62612 0.0
O128 O 0.21657 0.48085 0.60586 0.0
O129 O 0.18761 0.34911 0.63518 0.0
C130 C 0.87928 0.32088 0.97057 0.0
O131 O 0.83853 0.3078 0.97901 0.0
O132 O 0.77119 0.21772 0.96509 0.0
Zn133 Zn 0.83064 0.22657 0.95264 0.0
O134 O 0.82358 0.21988 0.92072 0.0
C135 C 0.82999 0.16198 0.98326 0.0
O136 O 0.8214 0.18797 0.99625 0.0
O137 O 0.88453 0.29139 0.9596 0.0
C138 C 0.78921 0.18317 0.91282 0.0
O139 O 0.75935 0.15036 0.92578 0.0
C140 C 0.74741 0.23281 0.95583 0.0
O141 O 0.76213 0.25545 0.9376 0.0
O142 O 0.83863 0.17395 0.96374 0.0
C143 C 0.69432 0.84319 0.3018 0.0
O144 O 0.69688 0.84494 0.28083 0.0
O145 O 0.61085 0.83333 0.26326 0.0
Zn146 Zn 0.60534 0.83793 0.29527 0.0
O147 O 0.5509 0.77757 0.30575 0.0
C148 C 0.6089 0.92792 0.29217 0.0
O149 O 0.64072 0.93744 0.27757 0.0
O150 O 0.66058 0.8436 0.31095 0.0
C151 C 0.50938 0.76886 0.30419 0.0
O152 O 0.50118 0.79955 0.29479 0.0
C153 C 0.58499 0.84001 0.25055 0.0
O154 O 0.55489 0.85041 0.25844 0.0
O155 O 0.592 0.88945 0.30246 0.0
H156 H 0.16112 0.89309 0.95687 0.0
H157 H 0.20022 0.87233 0.02006 0.0
H158 H 0.19122 0.976 0.96509 0.0
H159 H 0.23104 0.95515 0.02807 0.0
H160 H 0.27228 0.10351 0.04138 0.0
H161 H 0.21838 0.02057 0.03366 0.0
H162 H 0.27031 0.04133 0.96893 0.0
H163 H 0.32341 0.12424 0.97648 0.0
C164 C 0.17533 0.90595 0.97265 0.0
C165 C 0.17887 0.87621 0.98771 0.0
C166 C 0.19283 0.95356 0.9773 0.0
C167 C 0.21412 0.97238 0.99712 0.0
C168 C 0.21459 0.94183 0.0127 0.0
C169 C 0.19712 0.89428 0.00805 0.0
C170 C 0.27152 0.0906 0.02537 0.0
C171 C 0.3026 0.12039 0.00961 0.0
C172 C 0.24076 0.04299 0.02099 0.0
C173 C 0.24039 0.02415 0.00077 0.0
C174 C 0.26934 0.05468 0.98463 0.0
C175 C 0.30007 0.10226 0.989 0.0
H176 H 0.13243 0.25937 0.33965 0.0
H177 H 0.27039 0.32827 0.36686 0.0
H178 H 0.14432 0.19634 0.32583 0.0
H179 H 0.28201 0.2662 0.35334 0.0
H180 H 0.29175 0.14376 0.33834 0.0
H181 H 0.25496 0.18112 0.35701 0.0
H182 H 0.19799 0.19502 0.29731 0.0
H183 H 0.23411 0.15695 0.2786 0.0
C184 C 0.16491 0.2607 0.3429 0.0
C185 C 0.20065 0.29891 0.35413 0.0
C186 C 0.17171 0.22477 0.33501 0.0
C187 C 0.21394 0.22614 0.33866 0.0
C188 C 0.24877 0.26357 0.35057 0.0
C189 C 0.24229 0.29953 0.3581 0.0
C190 C 0.27028 0.15349 0.32925 0.0
C191 C 0.26685 0.14846 0.3069 0.0
C192 C 0.2493 0.175 0.33996 0.0
C193 C 0.22451 0.19194 0.32854 0.0
C194 C 0.2169 0.18237 0.30655 0.0
C195 C 0.23786 0.16074 0.29581 0.0
H196 H 0.85942 0.14777 0.66201 0.0
H197 H 0.93659 0.19422 0.72123 0.0
H198 H 0.93209 0.1803 0.64219 0.0
H199 H 0.00898 0.22787 0.70143 0.0
H200 H 0.13679 0.28002 0.66138 0.0
H201 H 0.06377 0.22186 0.67825 0.0
H202 H 0.9883 0.26134 0.63502 0.0
H203 H 0.06043 0.31811 0.61805 0.0
C204 C 0.8918 0.16411 0.67085 0.0
C205 C 0.89221 0.16926 0.69317 0.0
C206 C 0.93348 0.183 0.65947 0.0
C207 C 0.97641 0.2076 0.67018 0.0
C208 C 0.97664 0.20907 0.69265 0.0
C209 C 0.93499 0.18999 0.70402 0.0
C210 C 0.10446 0.27559 0.65529 0.0
C211 C 0.10444 0.30406 0.63856 0.0
C212 C 0.06268 0.24242 0.66499 0.0
C213 C 0.02014 0.23698 0.65805 0.0
C214 C 0.0202 0.26394 0.64061 0.0
C215 C 0.06177 0.29699 0.631 0.0
H216 H 0.67278 0.86691 0.98129 0.0
H217 H 0.72466 0.89016 0.04616 0.0
H218 H 0.727 0.94906 0.97292 0.0
H219 H 0.77981 0.97229 0.03761 0.0
H220 H 0.80036 0.12077 0.02241 0.0
H221 H 0.76892 0.03831 0.0313 0.0
H222 H 0.80591 0.01333 0.9685 0.0
H223 H 0.83649 0.09588 0.95938 0.0
C224 C 0.69655 0.88924 0.99363 0.0
C225 C 0.69386 0.87213 0.01447 0.0
C226 C 0.72793 0.93639 0.98879 0.0
C227 C 0.75746 0.96746 0.00467 0.0
C228 C 0.75697 0.94949 0.02512 0.0
C229 C 0.7255 0.90234 0.02998 0.0
C230 C 0.80271 0.09799 0.01063 0.0
C231 C 0.8202 0.11477 0.99007 0.0
C232 C 0.78489 0.05063 0.01578 0.0
C233 C 0.78433 0.01901 0.0005 0.0
C234 C 0.80504 0.03659 0.98048 0.0
C235 C 0.82281 0.08398 0.97531 0.0
H236 H 0.68586 0.81859 0.34392 0.0
H237 H 0.77009 0.83908 0.28806 0.0
H238 H 0.72439 0.78374 0.36263 0.0
H239 H 0.81056 0.80597 0.30723 0.0
H240 H 0.81162 0.67615 0.33558 0.0
H241 H 0.79294 0.73013 0.31778 0.0
H242 H 0.78931 0.78897 0.3791 0.0
H243 H 0.80555 0.7331 0.39686 0.0
C244 C 0.71357 0.81687 0.3358 0.0
C245 C 0.72438 0.83101 0.31436 0.0
C246 C 0.73604 0.79705 0.34663 0.0
C247 C 0.77043 0.79143 0.33643 0.0
C248 C 0.78353 0.80869 0.31546 0.0
C249 C 0.7606 0.82807 0.30451 0.0
C250 C 0.80752 0.70113 0.3452 0.0
C251 C 0.8093 0.69993 0.36762 0.0
C252 C 0.79708 0.73241 0.335 0.0
C253 C 0.78892 0.76369 0.34698 0.0
C254 C 0.79407 0.76459 0.36935 0.0
C255 C 0.80366 0.73276 0.37955 0.0
H256 H 0.92232 0.78314 0.614 0.0
H257 H 0.87235 0.70435 0.67286 0.0
H258 H 0.99739 0.83481 0.63086 0.0
H259 H 0.94732 0.75541 0.68952 0.0
H260 H 0.08021 0.86247 0.71884 0.0
H261 H 0.00464 0.83417 0.70209 0.0
H262 H 0.06 0.82119 0.64176 0.0
H263 H 0.1356 0.85011 0.65834 0.0
C264 C 0.92702 0.77732 0.63063 0.0
C265 C 0.89151 0.73924 0.64201 0.0
C266 C 0.97013 0.8068 0.64024 0.0
C267 C 0.9785 0.799 0.66147 0.0
C268 C 0.94198 0.76274 0.67322 0.0
C269 C 0.89901 0.7332 0.6636 0.0
C270 C 0.07657 0.8546 0.70189 0.0
C271 C 0.1138 0.85786 0.69 0.0
C272 C 0.03316 0.83814 0.69233 0.0
C273 C 0.02611 0.82478 0.67067 0.0
C274 C 0.06425 0.83141 0.65844 0.0
C275 C 0.10762 0.84777 0.668 0.0
H276 H 0.68963 0.2626 0.94103 0.0
H277 H 0.70786 0.18768 0.99335 0.0
H278 H 0.61969 0.25294 0.95804 0.0
H279 H 0.63839 0.17874 0.01048 0.0
H280 H 0.48674 0.1327 0.02466 0.0
H281 H 0.55368 0.13838 0.00613 0.0
H282 H 0.6002 0.28301 0.9897 0.0
H283 H 0.53315 0.27721 0.00785 0.0
C284 C 0.67875 0.24408 0.95615 0.0
C285 C 0.7044 0.22606 0.96586 0.0
C286 C 0.6388 0.23875 0.96594 0.0
C287 C 0.6236 0.2152 0.98563 0.0
C288 C 0.6489 0.1966 0.99519 0.0
C289 C 0.68889 0.202 0.98543 0.0
C290 C 0.5112 0.16566 0.01705 0.0
C291 C 0.50465 0.20451 0.01776 0.0
C292 C 0.54965 0.16897 0.00652 0.0
C293 C 0.5822 0.21113 0.99644 0.0
C294 C 0.57543 0.24984 0.99706 0.0
C295 C 0.53713 0.24658 0.0076 0.0
H296 H 0.32676 0.55772 0.39478 0.0
H297 H 0.25619 0.50614 0.33424 0.0
H298 H 0.39037 0.62526 0.37656 0.0
H299 H 0.31976 0.57379 0.31613 0.0
H300 H 0.41616 0.73228 0.29877 0.0
H301 H 0.35293 0.66283 0.31612 0.0
H302 H 0.45279 0.63922 0.34917 0.0
H303 H 0.51606 0.70844 0.33182 0.0
C304 C 0.32484 0.56078 0.37761 0.0
C305 C 0.2865 0.52666 0.36595 0.0
C306 C 0.36132 0.59927 0.36719 0.0
C307 C 0.35986 0.60463 0.34496 0.0
C308 C 0.32152 0.57061 0.3333 0.0
C309 C 0.28532 0.53182 0.34367 0.0
C310 C 0.42461 0.71216 0.30966 0.0
C311 C 0.47106 0.72584 0.31395 0.0
C312 C 0.38844 0.67236 0.31951 0.0
C313 C 0.39809 0.64587 0.33401 0.0
C314 C 0.44448 0.65934 0.3382 0.0
C315 C 0.48062 0.69877 0.32816 0.0
H316 H 0.81037 0.28918 0.67151 0.0
H317 H 0.68948 0.27157 0.70502 0.0
H318 H 0.81946 0.35977 0.65415 0.0
H319 H 0.69877 0.34221 0.68765 0.0
H320 H 0.76101 0.49777 0.66882 0.0
H321 H 0.7562 0.43009 0.6872 0.0
H322 H 0.77327 0.37668 0.62694 0.0
H323 H 0.77803 0.44433 0.60848 0.0
C324 C 0.78591 0.30051 0.67527 0.0
C325 C 0.74913 0.27476 0.68961 0.0
C326 C 0.791 0.34074 0.66524 0.0
C327 C 0.75977 0.35633 0.66954 0.0
C328 C 0.72355 0.33115 0.68418 0.0
C329 C 0.71813 0.29061 0.69403 0.0
C330 C 0.76396 0.47173 0.65949 0.0
C331 C 0.7698 0.47633 0.63718 0.0
C332 C 0.76097 0.4329 0.67001 0.0
C333 C 0.7643 0.39819 0.65848 0.0
C334 C 0.77097 0.40316 0.63623 0.0
C335 C 0.77343 0.44173 0.62567 0.0
H336 H 0.3112 0.72914 0.94102 0.0
H337 H 0.29392 0.81202 0.98975 0.0
H338 H 0.38017 0.73951 0.9595 0.0
H339 H 0.36267 0.82207 0.00823 0.0
H340 H 0.51469 0.86705 0.02335 0.0
H341 H 0.44866 0.86053 0.00347 0.0
H342 H 0.39584 0.712 0.99399 0.0
H343 H 0.46171 0.71839 0.0137 0.0
C344 C 0.3222 0.74973 0.9556 0.0
C345 C 0.29697 0.76958 0.96396 0.0
C346 C 0.36154 0.75544 0.96624 0.0
C347 C 0.37667 0.78145 0.98535 0.0
C348 C 0.35205 0.80217 0.99344 0.0
C349 C 0.31253 0.79617 0.98291 0.0
C350 C 0.48899 0.83302 0.01701 0.0
C351 C 0.49339 0.79323 0.02014 0.0
C352 C 0.45113 0.82928 0.0057 0.0
C353 C 0.4172 0.78578 0.99713 0.0
C354 C 0.42175 0.74609 0.00018 0.0
C355 C 0.45932 0.74973 0.01162 0.0
H356 H 0.47204 0.2414 0.36259 0.0
H357 H 0.51376 0.2956 0.29847 0.0
H358 H 0.53819 0.31273 0.37701 0.0
H359 H 0.57947 0.3672 0.31295 0.0
H360 H 0.721 0.45859 0.34533 0.0
H361 H 0.65293 0.38917 0.331 0.0
H362 H 0.56856 0.39792 0.38102 0.0
H363 H 0.63693 0.46724 0.3956 0.0
C364 C 0.49512 0.26865 0.35158 0.0
C365 C 0.48775 0.26273 0.32937 0.0
C366 C 0.53286 0.30964 0.35986 0.0
C367 C 0.56411 0.34552 0.34612 0.0
C368 C 0.55634 0.33989 0.32393 0.0
C369 C 0.51855 0.29896 0.31565 0.0
C370 C 0.68796 0.4458 0.35329 0.0
C371 C 0.6844 0.46844 0.37163 0.0
C372 C 0.64888 0.40617 0.34498 0.0
C373 C 0.60535 0.38815 0.35484 0.0
C374 C 0.60174 0.41075 0.37318 0.0
C375 C 0.64085 0.45057 0.38146 0.0
H376 H 0.2525 0.5173 0.6676 0.0
H377 H 0.20822 0.55367 0.60932 0.0
H378 H 0.25703 0.58523 0.6854 0.0
H379 H 0.2136 0.62215 0.62707 0.0
H380 H 0.18393 0.71313 0.67192 0.0
H381 H 0.17603 0.64267 0.65515 0.0
H382 H 0.30502 0.67099 0.68424 0.0
H383 H 0.31257 0.74101 0.70133 0.0
C384 C 0.24375 0.53979 0.65857 0.0
C385 C 0.23005 0.5301 0.63702 0.0
C386 C 0.24661 0.57888 0.66875 0.0
C387 C 0.23581 0.60915 0.65763 0.0
C388 C 0.22164 0.59919 0.63615 0.0
C389 C 0.21881 0.56009 0.62594 0.0
C390 C 0.21054 0.70425 0.67481 0.0
C391 C 0.24893 0.73271 0.68795 0.0
C392 C 0.20612 0.66402 0.66509 0.0
C393 C 0.23995 0.65132 0.66832 0.0
C394 C 0.27808 0.67952 0.68164 0.0
C395 C 0.28253 0.71979 0.69135 0.0
H396 H 0.44604 0.26548 0.11321 0.0
H397 H 0.34809 0.11561 0.11225 0.0
H398 H 0.45293 0.26252 0.15191 0.0
H399 H 0.35553 0.11267 0.15095 0.0
H400 H 0.3418 0.13705 0.22221 0.0
H401 H 0.33503 0.14028 0.1835 0.0
H402 H 0.48384 0.23075 0.17867 0.0
H403 H 0.49066 0.22809 0.21741 0.0
C404 C 0.4261 0.23186 0.12123 0.0
C405 C 0.39646 0.19077 0.10964 0.0
C406 C 0.43026 0.23016 0.1434 0.0
C407 C 0.40476 0.18738 0.15447 0.0
C408 C 0.3752 0.14626 0.14288 0.0
C409 C 0.37116 0.14792 0.1207 0.0
C410 C 0.37308 0.15771 0.2129 0.0
C411 C 0.41678 0.18235 0.22289 0.0
C412 C 0.3692 0.1593 0.19071 0.0
C413 C 0.4089 0.18569 0.17804 0.0
C414 C 0.45256 0.21051 0.18803 0.0
C415 C 0.45647 0.2088 0.21022 0.0
H416 H 0.12552 0.35942 0.44743 0.0
H417 H 0.27385 0.4165 0.44459 0.0
H418 H 0.12837 0.3551 0.48647 0.0
H419 H 0.27657 0.41267 0.48351 0.0
H420 H 0.2653 0.4486 0.55409 0.0
H421 H 0.26047 0.45326 0.51525 0.0
H422 H 0.14948 0.30811 0.51351 0.0
H423 H 0.15455 0.30307 0.55237 0.0
C424 C 0.15868 0.37116 0.45513 0.0
C425 C 0.19945 0.38823 0.44297 0.0
C426 C 0.16024 0.36849 0.47742 0.0
C427 C 0.20269 0.38363 0.48791 0.0
C428 C 0.24347 0.40111 0.47578 0.0
C429 C 0.24182 0.40304 0.45352 0.0
C430 C 0.2398 0.4177 0.54544 0.0
C431 C 0.21041 0.37541 0.55625 0.0
C432 C 0.23719 0.42036 0.52323 0.0
C433 C 0.20464 0.38103 0.51147 0.0
C434 C 0.17468 0.33898 0.52228 0.0
C435 C 0.1778 0.33607 0.54446 0.0
H436 H 0.84647 0.24225 0.88164 0.0
H437 H 0.71613 0.11252 0.891 0.0
H438 H 0.83405 0.23462 0.84306 0.0
H439 H 0.70406 0.10472 0.85239 0.0
H440 H 0.67491 0.13874 0.78469 0.0
H441 H 0.68773 0.14492 0.82324 0.0
H442 H 0.83071 0.18387 0.81318 0.0
H443 H 0.81813 0.17824 0.77459 0.0
C444 C 0.81528 0.21201 0.87547 0.0
C445 C 0.78225 0.17802 0.88939 0.0
C446 C 0.8083 0.20752 0.85336 0.0
C447 C 0.76807 0.16909 0.8447 0.0
C448 C 0.73515 0.135 0.85861 0.0
C449 C 0.74222 0.13936 0.88072 0.0
C450 C 0.70908 0.1486 0.79068 0.0
C451 C 0.74552 0.15809 0.77657 0.0
C452 C 0.71634 0.15186 0.81278 0.0
C453 C 0.76022 0.16487 0.82124 0.0
C454 C 0.79664 0.17426 0.80713 0.0
C455 C 0.78934 0.17079 0.78503 0.0
H456 H 0.58221 0.74066 0.12175 0.0
H457 H 0.6112 0.8832 0.11296 0.0
H458 H 0.58051 0.74976 0.16045 0.0
H459 H 0.60951 0.89215 0.15163 0.0
H460 H 0.54538 0.86582 0.21931 0.0
H461 H 0.54943 0.85791 0.18072 0.0
H462 H 0.63611 0.79716 0.1902 0.0
H463 H 0.63212 0.805 0.22891 0.0
C464 C 0.58822 0.77391 0.12806 0.0
C465 C 0.59675 0.81119 0.11429 0.0
C466 C 0.58753 0.77919 0.15022 0.0
C467 C 0.59489 0.82166 0.15902 0.0
C468 C 0.60334 0.85889 0.14526 0.0
C469 C 0.60449 0.85379 0.12313 0.0
C470 C 0.56537 0.85083 0.21319 0.0
C471 C 0.58837 0.83596 0.22716 0.0
C472 C 0.56787 0.84655 0.19109 0.0
C473 C 0.59306 0.82691 0.18248 0.0
C474 C 0.61612 0.81205 0.19643 0.0
C475 C 0.61402 0.81678 0.21856 0.0
H476 H 0.86797 0.58055 0.56171 0.0
H477 H 0.79255 0.6545 0.55597 0.0
H478 H 0.87691 0.5828 0.52274 0.0
H479 H 0.80269 0.65778 0.51709 0.0
H480 H 0.88481 0.69605 0.45135 0.0
H481 H 0.87946 0.69633 0.49046 0.0
H482 H 0.81007 0.54457 0.49099 0.0
H483 H 0.81415 0.544 0.4519 0.0
C484 C 0.85379 0.5977 0.55215 0.0
C485 C 0.82948 0.61726 0.5618 0.0
C486 C 0.85875 0.5988 0.52992 0.0
C487 C 0.84049 0.62048 0.51708 0.0
C488 C 0.81721 0.64107 0.52674 0.0
C489 C 0.81128 0.639 0.54891 0.0
C490 C 0.8685 0.66279 0.45983 0.0
C491 C 0.84981 0.61999 0.44863 0.0
C492 C 0.86535 0.66299 0.48213 0.0
C493 C 0.8445 0.62048 0.49357 0.0
C494 C 0.82653 0.57776 0.48244 0.0
C495 C 0.82868 0.57747 0.46013 0.0
H496 H 0.26556 0.8662 0.88208 0.0
H497 H 0.13307 0.73629 0.88222 0.0
H498 H 0.26476 0.86649 0.8431 0.0
H499 H 0.1317 0.73727 0.8433 0.0
H500 H 0.17053 0.72723 0.77403 0.0
H501 H 0.16997 0.72682 0.81299 0.0
H502 H 0.2252 0.8772 0.8133 0.0
H503 H 0.22692 0.87782 0.77436 0.0
C504 C 0.23614 0.83787 0.8738 0.0
C505 C 0.19944 0.80121 0.88525 0.0
C506 C 0.23553 0.83817 0.85145 0.0
C507 C 0.19813 0.80192 0.84006 0.0
C508 C 0.16134 0.76538 0.85155 0.0
C509 C 0.16203 0.76499 0.87388 0.0
C510 C 0.18236 0.76017 0.7824 0.0
C511 C 0.19888 0.80255 0.77109 0.0
C512 C 0.18185 0.75992 0.80475 0.0
C513 C 0.19767 0.80201 0.81629 0.0
C514 C 0.2135 0.84428 0.80493 0.0
C515 C 0.21418 0.84456 0.78259 0.0
H516 H 0.56699 0.61593 0.05715 0.0
H517 H 0.52143 0.61751 0.99257 0.0
H518 H 0.53383 0.531 0.05475 0.0
H519 H 0.48795 0.53231 0.9903 0.0
H520 H 0.47746 0.3854 0.98978 0.0
H521 H 0.5106 0.47069 0.99 0.0
H522 H 0.45366 0.46176 0.05295 0.0
H523 H 0.42083 0.37675 0.05288 0.0
C524 C 0.55027 0.59827 0.04238 0.0
C525 C 0.54666 0.62349 0.02509 0.0
C526 C 0.53092 0.54954 0.04108 0.0
C527 C 0.50777 0.52496 0.02244 0.0
C528 C 0.50566 0.55034 0.00485 0.0
C529 C 0.52478 0.59912 0.00619 0.0
C530 C 0.47155 0.40156 0.00357 0.0
C531 C 0.44674 0.37428 0.02137 0.0
C532 C 0.4905 0.4504 0.00367 0.0
C533 C 0.48525 0.47292 0.02161 0.0
C534 C 0.45904 0.44545 0.03907 0.0
C535 C 0.43988 0.39668 0.03893 0.0
H536 H 0.95405 0.57957 0.38614 0.0
H537 H 0.8807 0.47837 0.3359 0.0
H538 H 0.01112 0.55494 0.38752 0.0
H539 H 0.93901 0.45462 0.33682 0.0
H540 H 0.02028 0.38654 0.36503 0.0
H541 H 0.96408 0.41238 0.35956 0.0
H542 H 0.07334 0.55701 0.36859 0.0
H543 H 0.12855 0.53114 0.3748 0.0
C544 C 0.95052 0.5526 0.37511 0.0
C545 C 0.91273 0.53091 0.36094 0.0
C546 C 0.98345 0.53855 0.37583 0.0
C547 C 0.97974 0.50273 0.36227 0.0
C548 C 0.94257 0.48183 0.34769 0.0
C549 C 0.90938 0.49575 0.34705 0.0
C550 C 0.03214 0.42381 0.36572 0.0
C551 C 0.07861 0.45672 0.37065 0.0
C552 C 7e-05 0.4387 0.36247 0.0
C553 C 0.01407 0.48679 0.36388 0.0
C554 C 0.06104 0.51964 0.36792 0.0
C555 C 0.09278 0.50478 0.3714 0.0
H556 H 0.61188 0.99742 0.73514 0.0
H557 H 0.62122 0.08174 0.68031 0.0
H558 H 0.52765 0.96149 0.73498 0.0
H559 H 0.53681 0.0457 0.68026 0.0
H560 H 0.37723 0.93483 0.67869 0.0
H561 H 0.46119 0.96799 0.67549 0.0
H562 H 0.47639 0.99458 0.74348 0.0
H563 H 0.39305 0.96173 0.74674 0.0
C564 C 0.59598 0.00777 0.72284 0.0
C565 C 0.62333 0.04271 0.70784 0.0
C566 C 0.54775 0.98746 0.72287 0.0
C567 C 0.52578 0.00133 0.7078 0.0
C568 C 0.55281 0.03433 0.69205 0.0
C569 C 0.60115 0.05498 0.69212 0.0
C570 C 0.39858 0.94826 0.6929 0.0
C571 C 0.37838 0.94546 0.71298 0.0
C572 C 0.4466 0.96716 0.69106 0.0
C573 C 0.47517 0.98315 0.70929 0.0
C574 C 0.4551 0.98162 0.72922 0.0
C575 C 0.40734 0.96318 0.73103 0.0
H576 H 0.60043 0.47357 0.60898 0.0
H577 H 0.63902 0.60601 0.63969 0.0
H578 H 0.51886 0.44973 0.61197 0.0
H579 H 0.55694 0.58169 0.64294 0.0
H580 H 0.41282 0.54551 0.61674 0.0
H581 H 0.49432 0.56864 0.61833 0.0
H582 H 0.45603 0.42778 0.63797 0.0
H583 H 0.37392 0.40424 0.63609 0.0
C584 C 0.59152 0.49753 0.6165 0.0
C585 C 0.62628 0.54187 0.62397 0.0
C586 C 0.54467 0.48362 0.61838 0.0
C587 C 0.5314 0.51376 0.62771 0.0
C588 C 0.56611 0.55786 0.63549 0.0
C589 C 0.61309 0.57174 0.63368 0.0
C590 C 0.42165 0.51943 0.62153 0.0
C591 C 0.38682 0.4729 0.62615 0.0
C592 C 0.46848 0.53286 0.6226 0.0
C593 C 0.48167 0.50007 0.62825 0.0
C594 C 0.4469 0.45374 0.63334 0.0
C595 C 0.39992 0.4403 0.63236 0.0
H596 H 0.09466 0.58728 0.92512 0.0
H597 H 0.05783 0.62771 0.98433 0.0
H598 H 0.04044 0.50511 0.93291 0.0
H599 H 0.00413 0.54467 0.99252 0.0
H600 H 0.873 0.39612 0.98434 0.0
H601 H 0.93116 0.47928 0.98095 0.0
H602 H 0.02864 0.44213 0.95565 0.0
H603 H 0.96985 0.35895 0.95832 0.0
C604 C 0.07521 0.57859 0.93993 0.0
C605 C 0.08054 0.61408 0.9541 0.0
C606 C 0.04435 0.5313 0.9445 0.0
C607 C 0.01818 0.51809 0.96346 0.0
C608 C 0.02348 0.55361 0.9777 0.0
C609 C 0.05431 0.60116 0.97304 0.0
C610 C 0.90704 0.40567 0.9783 0.0
C611 C 0.91663 0.37092 0.97134 0.0
C612 C 0.9405 0.45344 0.97645 0.0
C613 C 0.98443 0.4675 0.96776 0.0
C614 C 0.99478 0.43259 0.96192 0.0
C615 C 0.9612 0.38487 0.96359 0.0
H616 H 0.54444 0.91982 0.32142 0.0
H617 H 0.61992 0.99859 0.26551 0.0
H618 H 0.49709 0.95682 0.31998 0.0
H619 H 0.57261 0.03555 0.26417 0.0
H620 H 0.43765 0.03538 0.251 0.0
H621 H 0.48821 0.00284 0.25546 0.0
H622 H 0.50048 0.03512 0.32292 0.0
H623 H 0.44967 0.06787 0.31852 0.0
C624 C 0.55149 0.94562 0.30905 0.0
C625 C 0.58574 0.956 0.29348 0.0
C626 C 0.52439 0.96683 0.30826 0.0
C627 C 0.53074 0.99851 0.29179 0.0
C628 C 0.56645 0.01061 0.27684 0.0
C629 C 0.59382 0.98974 0.27773 0.0
C630 C 0.45073 0.03524 0.26684 0.0
C631 C 0.43968 0.05433 0.2844 0.0
C632 C 0.48009 0.01701 0.26934 0.0
C633 C 0.49879 0.01707 0.28948 0.0
C634 C 0.48657 0.03468 0.30721 0.0
C635 C 0.45747 0.05337 0.30468 0.0
loop_
_geom_bond_atom_site_label_1
_geom_bond_atom_site_label_2
_geom_bond_distance
_geom_bond_site_symmetry_2
_ccdc_geom_bond_type
C0 O1 1.160 . S
C0 O7 1.185 . S
O1 C0 1.160 . S
O2 Zn3 1.899 . S
O2 C10 1.284 . S
Zn3 O2 1.899 . S
Zn3 O4 2.032 . S
Zn3 O7 2.086 . S
Zn3 O12 1.977 . S
O4 Zn3 2.032 . S
O4 C8 1.278 . S
C5 O6 1.203 . S
C5 O12 1.267 . S
O6 C5 1.203 . S
O7 C0 1.185 . S
O7 Zn3 2.086 . S
C8 O4 1.278 . S
C8 O9 1.211 . S
O9 C8 1.211 . S
C10 O2 1.284 . S
C10 O11 1.273 . S
O11 C10 1.273 . S
O12 Zn3 1.977 . S
O12 C5 1.267 . S
C13 O14 1.160 . S
C13 O20 1.185 . S
O14 C13 1.160 . S
O15 Zn16 1.899 . S
O15 C23 1.284 . S
Zn16 O15 1.899 . S
Zn16 O17 2.032 . S
Zn16 O20 2.086 . S
Zn16 O25 1.977 . S
O17 Zn16 2.032 . S
O17 C21 1.278 . S
C18 O19 1.203 . S
C18 O25 1.267 . S
O19 C18 1.203 . S
O20 C13 1.185 . S
O20 Zn16 2.086 . S
C21 O17 1.278 . S
C21 O22 1.211 . S
O22 C21 1.211 . S
C23 O15 1.284 . S
C23 O24 1.273 . S
O24 C23 1.273 . S
O25 Zn16 1.977 . S
O25 C18 1.267 . S
C26 O27 1.160 . S
C26 O33 1.185 . S
O27 C26 1.160 . S
O28 Zn29 1.899 . S
O28 C36 1.284 . S
Zn29 O28 1.899 . S
Zn29 O30 2.032 . S
Zn29 O33 2.086 . S
Zn29 O38 1.977 . S
O30 Zn29 2.032 . S
O30 C34 1.278 . S
C31 O32 1.203 . S
C31 O38 1.267 . S
O32 C31 1.203 . S
O33 C26 1.185 . S
O33 Zn29 2.086 . S
C34 O30 1.278 . S
C34 O35 1.211 . S
O35 C34 1.211 . S
C36 O28 1.284 . S
C36 O37 1.273 . S
O37 C36 1.273 . S
O38 Zn29 1.977 . S
O38 C31 1.267 . S
C39 O40 1.160 . S
C39 O46 1.185 . S
O40 C39 1.160 . S
O41 Zn42 1.899 . S
O41 C49 1.284 . S
Zn42 O41 1.899 . S
Zn42 O43 2.032 . S
Zn42 O46 2.086 . S
Zn42 O51 1.977 . S
O43 Zn42 2.032 . S
O43 C47 1.278 . S
C44 O45 1.203 . S
C44 O51 1.267 . S
O45 C44 1.203 . S
O46 C39 1.185 . S
O46 Zn42 2.086 . S
C47 O43 1.278 . S
C47 O48 1.211 . S
O48 C47 1.211 . S
C49 O41 1.284 . S
C49 O50 1.273 . S
O50 C49 1.273 . S
O51 Zn42 1.977 . S
O51 C44 1.267 . S
C52 O53 1.160 . S
C52 O59 1.185 . S
O53 C52 1.160 . S
O54 Zn55 1.899 . S
O54 C62 1.284 . S
Zn55 O54 1.899 . S
Zn55 O56 2.032 . S
Zn55 O59 2.086 . S
Zn55 O64 1.977 . S
O56 Zn55 2.032 . S
O56 C60 1.278 . S
C57 O58 1.203 . S
C57 O64 1.267 . S
O58 C57 1.203 . S
O59 C52 1.185 . S
O59 Zn55 2.086 . S
C60 O56 1.278 . S
C60 O61 1.211 . S
O61 C60 1.211 . S
C62 O54 1.284 . S
C62 O63 1.273 . S
O63 C62 1.273 . S
O64 Zn55 1.977 . S
O64 C57 1.267 . S
C65 O66 1.160 . S
C65 O72 1.185 . S
O66 C65 1.160 . S
O67 Zn68 1.899 . S
O67 C75 1.284 . S
Zn68 O67 1.899 . S
Zn68 O69 2.032 . S
Zn68 O72 2.086 . S
Zn68 O77 1.977 . S
O69 Zn68 2.032 . S
O69 C73 1.278 . S
C70 O71 1.203 . S
C70 O77 1.267 . S
O71 C70 1.203 . S
O72 C65 1.185 . S
O72 Zn68 2.086 . S
C73 O69 1.278 . S
C73 O74 1.211 . S
O74 C73 1.211 . S
C75 O67 1.284 . S
C75 O76 1.273 . S
O76 C75 1.273 . S
O77 Zn68 1.977 . S
O77 C70 1.267 . S
C78 O79 1.160 . S
C78 O85 1.185 . S
O79 C78 1.160 . S
O80 Zn81 1.899 . S
O80 C88 1.284 . S
Zn81 O80 1.899 . S
Zn81 O82 2.032 . S
Zn81 O85 2.086 . S
Zn81 O90 1.977 . S
O82 Zn81 2.032 . S
O82 C86 1.278 . S
C83 O84 1.203 . S
C83 O90 1.267 . S
O84 C83 1.203 . S
O85 C78 1.185 . S
O85 Zn81 2.086 . S
C86 O82 1.278 . S
C86 O87 1.211 . S
O87 C86 1.211 . S
C88 O80 1.284 . S
C88 O89 1.273 . S
O89 C88 1.273 . S
O90 Zn81 1.977 . S
O90 C83 1.267 . S
C91 O92 1.160 . S
C91 O98 1.185 . S
O92 C91 1.160 . S
O93 Zn94 1.899 . S
O93 C101 1.284 . S
Zn94 O93 1.899 . S
Zn94 O95 2.032 . S
Zn94 O98 2.086 . S
Zn94 O103 1.977 . S
O95 Zn94 2.032 . S
O95 C99 1.278 . S
C96 O97 1.203 . S
C96 O103 1.267 . S
O97 C96 1.203 . S
O98 C91 1.185 . S
O98 Zn94 2.086 . S
C99 O95 1.278 . S
C99 O100 1.211 . S
O100 C99 1.211 . S
C101 O93 1.284 . S
C101 O102 1.273 . S
O102 C101 1.273 . S
O103 Zn94 1.977 . S
O103 C96 1.267 . S
C104 O105 1.160 . S
C104 O111 1.185 . S
O105 C104 1.160 . S
O106 Zn107 1.899 . S
O106 C114 1.284 . S
Zn107 O106 1.899 . S
Zn107 O108 2.032 . S
Zn107 O111 2.086 . S
Zn107 O116 1.977 . S
O108 Zn107 2.032 . S
O108 C112 1.278 . S
C109 O110 1.203 . S
C109 O116 1.267 . S
O110 C109 1.203 . S
O111 C104 1.185 . S
O111 Zn107 2.086 . S
C112 O108 1.278 . S
C112 O113 1.211 . S
O113 C112 1.211 . S
C114 O106 1.284 . S
C114 O115 1.273 . S
O115 C114 1.273 . S
O116 Zn107 1.977 . S
O116 C109 1.267 . S
C117 O118 1.160 . S
C117 O124 1.185 . S
O118 C117 1.160 . S
O119 Zn120 1.899 . S
O119 C127 1.284 . S
Zn120 O119 1.899 . S
Zn120 O121 2.032 . S
Zn120 O124 2.086 . S
Zn120 O129 1.977 . S
O121 Zn120 2.032 . S
O121 C125 1.278 . S
C122 O123 1.203 . S
C122 O129 1.267 . S
O123 C122 1.203 . S
O124 C117 1.185 . S
O124 Zn120 2.086 . S
C125 O121 1.278 . S
C125 O126 1.211 . S
O126 C125 1.211 . S
C127 O119 1.284 . S
C127 O128 1.273 . S
O128 C127 1.273 . S
O129 Zn120 1.977 . S
O129 C122 1.267 . S
C130 O131 1.160 . S
C130 O137 1.185 . S
O131 C130 1.160 . S
O132 Zn133 1.899 . S
O132 C140 1.284 . S
Zn133 O132 1.899 . S
Zn133 O134 2.032 . S
Zn133 O137 2.086 . S
Zn133 O142 1.977 . S
O134 Zn133 2.032 . S
O134 C138 1.278 . S
C135 O136 1.203 . S
C135 O142 1.267 . S
O136 C135 1.203 . S
O137 C130 1.185 . S
O137 Zn133 2.086 . S
C138 O134 1.278 . S
C138 O139 1.211 . S
O139 C138 1.211 . S
C140 O132 1.284 . S
C140 O141 1.273 . S
O141 C140 1.273 . S
O142 Zn133 1.977 . S
O142 C135 1.267 . S
C143 O144 1.160 . S
C143 O150 1.185 . S
O144 C143 1.160 . S
O145 Zn146 1.899 . S
O145 C153 1.284 . S
Zn146 O145 1.899 . S
Zn146 O147 2.032 . S
Zn146 O150 2.086 . S
Zn146 O155 1.977 . S
O147 Zn146 2.032 . S
O147 C151 1.278 . S
C148 O149 1.203 . S
C148 O155 1.267 . S
O149 C148 1.203 . S
O150 C143 1.185 . S
O150 Zn146 2.086 . S
C151 O147 1.278 . S
C151 O152 1.211 . S
O152 C151 1.211 . S
C153 O145 1.284 . S
C153 O154 1.273 . S
O154 C153 1.273 . S
O155 Zn146 1.977 . S
O155 C148 1.267 . S
H156 C164 0.950 . S
H157 C169 0.950 . S
H158 C166 0.950 . S
H159 C168 0.950 . S
H160 C170 0.950 . S
H161 C172 0.950 . S
H162 C174 0.950 . S
H163 C175 0.950 . S
C164 H156 0.950 . S
C164 C165 1.386 . S
C164 C166 1.391 . S
C165 C164 1.386 . S
C165 C169 1.393 . S
C166 H158 0.950 . S
C166 C164 1.391 . S
C166 C167 1.400 . S
C167 C166 1.400 . S
C167 C168 1.398 1_556 S
C167 C173 1.491 1_566 S
C168 H159 0.950 . S
C168 C167 1.398 1_554 S
C168 C169 1.391 1_554 S
C169 H157 0.950 . S
C169 C165 1.393 . S
C169 C168 1.391 1_556 S
C170 H160 0.950 . S
C170 C171 1.386 . S
C170 C172 1.391 . S
C171 C170 1.386 . S
C171 C175 1.393 . S
C172 H161 0.950 . S
C172 C170 1.391 . S
C172 C173 1.400 . S
C173 C167 1.491 1_544 S
C173 C172 1.400 . S
C173 C174 1.398 1_554 S
C174 H162 0.950 . S
C174 C173 1.398 1_556 S
C174 C175 1.391 1_556 S
C175 H163 0.950 . S
C175 C171 1.393 . S
C175 C174 1.391 1_554 S
H176 C184 0.950 . S
H177 C189 0.950 . S
H178 C186 0.950 . S
H179 C188 0.950 . S
H180 C190 0.950 . S
H181 C192 0.950 . S
H182 C194 0.950 . S
H183 C195 0.950 . S
C184 H176 0.950 . S
C184 C185 1.386 . S
C184 C186 1.391 . S
C185 C184 1.386 . S
C185 C189 1.393 . S
C186 H178 0.950 . S
C186 C184 1.391 . S
C186 C187 1.400 . S
C187 C186 1.400 . S
C187 C188 1.398 . S
C187 C193 1.491 . S
C188 H179 0.950 . S
C188 C187 1.398 . S
C188 C189 1.391 . S
C189 H177 0.950 . S
C189 C185 1.393 . S
C189 C188 1.391 . S
C190 H180 0.950 . S
C190 C191 1.386 . S
C190 C192 1.391 . S
C191 C190 1.386 . S
C191 C195 1.393 . S
C192 H181 0.950 . S
C192 C190 1.391 . S
C192 C193 1.400 . S
C193 C187 1.491 . S
C193 C192 1.400 . S
C193 C194 1.398 . S
C194 H182 0.950 . S
C194 C193 1.398 . S
C194 C195 1.391 . S
C195 H183 0.950 . S
C195 C191 1.393 . S
C195 C194 1.391 . S
H196 C204 0.950 . S
H197 C209 0.950 . S
H198 C206 0.950 . S
H199 C208 0.950 . S
H200 C210 0.950 . S
H201 C212 0.950 . S
H202 C214 0.950 . S
H203 C215 0.950 . S
C204 H196 0.950 . S
C204 C205 1.386 . S
C204 C206 1.391 . S
C205 C204 1.386 . S
C205 C209 1.393 . S
C206 H198 0.950 . S
C206 C204 1.391 . S
C206 C207 1.400 . S
C207 C206 1.400 . S
C207 C208 1.398 . S
C207 C213 1.491 1_655 S
C208 H199 0.950 . S
C208 C207 1.398 . S
C208 C209 1.391 . S
C209 H197 0.950 . S
C209 C205 1.393 . S
C209 C208 1.391 . S
C210 H200 0.950 . S
C210 C211 1.386 . S
C210 C212 1.391 . S
C211 C210 1.386 . S
C211 C215 1.393 . S
C212 H201 0.950 . S
C212 C210 1.391 . S
C212 C213 1.400 . S
C213 C207 1.491 1_455 S
C213 C212 1.400 . S
C213 C214 1.398 . S
C214 H202 0.950 . S
C214 C213 1.398 . S
C214 C215 1.391 . S
C215 H203 0.950 . S
C215 C211 1.393 . S
C215 C214 1.391 . S
H216 C224 0.950 . S
H217 C229 0.950 . S
H218 C226 0.950 . S
H219 C228 0.950 . S
H220 C230 0.950 . S
H221 C232 0.950 . S
H222 C234 0.950 . S
H223 C235 0.950 . S
C224 H216 0.950 . S
C224 C225 1.386 1_556 S
C224 C226 1.391 . S
C225 C224 1.386 1_554 S
C225 C229 1.393 . S
C226 H218 0.950 . S
C226 C224 1.391 . S
C226 C227 1.400 1_556 S
C227 C226 1.400 1_554 S
C227 C228 1.398 . S
C227 C233 1.491 1_564 S
C228 H219 0.950 . S
C228 C227 1.398 . S
C228 C229 1.391 . S
C229 H217 0.950 . S
C229 C225 1.393 . S
C229 C228 1.391 . S
C230 H220 0.950 . S
C230 C231 1.386 1_554 S
C230 C232 1.391 . S
C231 C230 1.386 1_556 S
C231 C235 1.393 . S
C232 H221 0.950 . S
C232 C230 1.391 . S
C232 C233 1.400 1_554 S
C233 C227 1.491 1_546 S
C233 C232 1.400 1_556 S
C233 C234 1.398 . S
C234 H222 0.950 . S
C234 C233 1.398 . S
C234 C235 1.391 . S
C235 H223 0.950 . S
C235 C231 1.393 . S
C235 C234 1.391 . S
H236 C244 0.950 . S
H237 C249 0.950 . S
H238 C246 0.950 . S
H239 C248 0.950 . S
H240 C250 0.950 . S
H241 C252 0.950 . S
H242 C254 0.950 . S
H243 C255 0.950 . S
C244 H236 0.950 . S
C244 C245 1.386 . S
C244 C246 1.391 . S
C245 C244 1.386 . S
C245 C249 1.393 . S
C246 H238 0.950 . S
C246 C244 1.391 . S
C246 C247 1.400 . S
C247 C246 1.400 . S
C247 C248 1.398 . S
C247 C253 1.491 . S
C248 H239 0.950 . S
C248 C247 1.398 . S
C248 C249 1.391 . S
C249 H237 0.950 . S
C249 C245 1.393 . S
C249 C248 1.391 . S
C250 H240 0.950 . S
C250 C251 1.386 . S
C250 C252 1.391 . S
C251 C250 1.386 . S
C251 C255 1.393 . S
C252 H241 0.950 . S
C252 C250 1.391 . S
C252 C253 1.400 . S
C253 C247 1.491 . S
C253 C252 1.400 . S
C253 C254 1.398 . S
C254 H242 0.950 . S
C254 C253 1.398 . S
C254 C255 1.391 . S
C255 H243 0.950 . S
C255 C251 1.393 . S
C255 C254 1.391 . S
H256 C264 0.950 . S
H257 C269 0.950 . S
H258 C266 0.950 . S
H259 C268 0.950 . S
H260 C270 0.950 . S
H261 C272 0.950 . S
H262 C274 0.950 . S
H263 C275 0.950 . S
C264 H256 0.950 . S
C264 C265 1.386 . S
C264 C266 1.391 . S
C265 C264 1.386 . S
C265 C269 1.393 . S
C266 H258 0.950 . S
C266 C264 1.391 . S
C266 C267 1.400 . S
C267 C266 1.400 . S
C267 C268 1.398 . S
C267 C273 1.491 1_655 S
C268 H259 0.950 . S
C268 C267 1.398 . S
C268 C269 1.391 . S
C269 H257 0.950 . S
C269 C265 1.393 . S
C269 C268 1.391 . S
C270 H260 0.950 . S
C270 C271 1.386 . S
C270 C272 1.391 . S
C271 C270 1.386 . S
C271 C275 1.393 . S
C272 H261 0.950 . S
C272 C270 1.391 . S
C272 C273 1.400 . S
C273 C267 1.491 1_455 S
C273 C272 1.400 . S
C273 C274 1.398 . S
C274 H262 0.950 . S
C274 C273 1.398 . S
C274 C275 1.391 . S
C275 H263 0.950 . S
C275 C271 1.393 . S
C275 C274 1.391 . S
H276 C284 0.950 . S
H277 C289 0.950 1_554 S
H278 C286 0.950 . S
H279 C288 0.950 . S
H280 C290 0.950 . S
H281 C292 0.950 . S
H282 C294 0.950 . S
H283 C295 0.950 1_556 S
C284 H276 0.950 . S
C284 C285 1.386 . S
C284 C286 1.391 . S
C285 C284 1.386 . S
C285 C289 1.393 . S
C286 H278 0.950 . S
C286 C284 1.391 . S
C286 C287 1.400 . S
C287 C286 1.400 . S
C287 C288 1.398 1_556 S
C287 C293 1.491 1_556 S
C288 H279 0.950 . S
C288 C287 1.398 1_554 S
C288 C289 1.391 1_554 S
C289 H277 0.950 1_556 S
C289 C285 1.393 . S
C289 C288 1.391 1_556 S
C290 H280 0.950 . S
C290 C291 1.386 . S
C290 C292 1.391 . S
C291 C290 1.386 . S
C291 C295 1.393 . S
C292 H281 0.950 . S
C292 C290 1.391 . S
C292 C293 1.400 . S
C293 C287 1.491 1_554 S
C293 C292 1.400 . S
C293 C294 1.398 1_554 S
C294 H282 0.950 . S
C294 C293 1.398 1_556 S
C294 C295 1.391 1_556 S
C295 H283 0.950 1_554 S
C295 C291 1.393 . S
C295 C294 1.391 1_554 S
H296 C304 0.950 . S
H297 C309 0.950 . S
H298 C306 0.950 . S
H299 C308 0.950 . S
H300 C310 0.950 . S
H301 C312 0.950 . S
H302 C314 0.950 . S
H303 C315 0.950 . S
C304 H296 0.950 . S
C304 C305 1.386 . S
C304 C306 1.391 . S
C305 C304 1.386 . S
C305 C309 1.393 . S
C306 H298 0.950 . S
C306 C304 1.391 . S
C306 C307 1.400 . S
C307 C306 1.400 . S
C307 C308 1.398 . S
C307 C313 1.491 . S
C308 H299 0.950 . S
C308 C307 1.398 . S
C308 C309 1.391 . S
C309 H297 0.950 . S
C309 C305 1.393 . S
C309 C308 1.391 . S
C310 H300 0.950 . S
C310 C311 1.386 . S
C310 C312 1.391 . S
C311 C310 1.386 . S
C311 C315 1.393 . S
C312 H301 0.950 . S
C312 C310 1.391 . S
C312 C313 1.400 . S
C313 C307 1.491 . S
C313 C312 1.400 . S
C313 C314 1.398 . S
C314 H302 0.950 . S
C314 C313 1.398 . S
C314 C315 1.391 . S
C315 H303 0.950 . S
C315 C311 1.393 . S
C315 C314 1.391 . S
H316 C324 0.950 . S
H317 C329 0.950 . S
H318 C326 0.950 . S
H319 C328 0.950 . S
H320 C330 0.950 . S
H321 C332 0.950 . S
H322 C334 0.950 . S
H323 C335 0.950 . S
C324 H316 0.950 . S
C324 C325 1.386 . S
C324 C326 1.391 . S
C325 C324 1.386 . S
C325 C329 1.393 . S
C326 H318 0.950 . S
C326 C324 1.391 . S
C326 C327 1.400 . S
C327 C326 1.400 . S
C327 C328 1.398 . S
C327 C333 1.491 . S
C328 H319 0.950 . S
C328 C327 1.398 . S
C328 C329 1.391 . S
C329 H317 0.950 . S
C329 C325 1.393 . S
C329 C328 1.391 . S
C330 H320 0.950 . S
C330 C331 1.386 . S
C330 C332 1.391 . S
C331 C330 1.386 . S
C331 C335 1.393 . S
C332 H321 0.950 . S
C332 C330 1.391 . S
C332 C333 1.400 . S
C333 C327 1.491 . S
C333 C332 1.400 . S
C333 C334 1.398 . S
C334 H322 0.950 . S
C334 C333 1.398 . S
C334 C335 1.391 . S
C335 H323 0.950 . S
C335 C331 1.393 . S
C335 C334 1.391 . S
H336 C344 0.950 . S
H337 C349 0.950 1_554 S
H338 C346 0.950 . S
H339 C348 0.950 . S
H340 C350 0.950 . S
H341 C352 0.950 . S
H342 C354 0.950 . S
H343 C355 0.950 1_556 S
C344 H336 0.950 . S
C344 C345 1.386 . S
C344 C346 1.391 . S
C345 C344 1.386 . S
C345 C349 1.393 . S
C346 H338 0.950 . S
C346 C344 1.391 . S
C346 C347 1.400 . S
C347 C346 1.400 . S
C347 C348 1.398 1_556 S
C347 C353 1.491 1_556 S
C348 H339 0.950 . S
C348 C347 1.398 1_554 S
C348 C349 1.391 1_554 S
C349 H337 0.950 1_556 S
C349 C345 1.393 . S
C349 C348 1.391 1_556 S
C350 H340 0.950 . S
C350 C351 1.386 . S
C350 C352 1.391 . S
C351 C350 1.386 . S
C351 C355 1.393 . S
C352 H341 0.950 . S
C352 C350 1.391 . S
C352 C353 1.400 . S
C353 C347 1.491 1_554 S
C353 C352 1.400 . S
C353 C354 1.398 1_554 S
C354 H342 0.950 . S
C354 C353 1.398 1_556 S
C354 C355 1.391 1_556 S
C355 H343 0.950 1_554 S
C355 C351 1.393 . S
C355 C354 1.391 1_554 S
H356 C364 0.950 . S
H357 C369 0.950 . S
H358 C366 0.950 . S
H359 C368 0.950 . S
H360 C370 0.950 . S
H361 C372 0.950 . S
H362 C374 0.950 . S
H363 C375 0.950 . S
C364 H356 0.950 . S
C364 C365 1.386 . S
C364 C366 1.391 . S
C365 C364 1.386 . S
C365 C369 1.393 . S
C366 H358 0.950 . S
C366 C364 1.391 . S
C366 C367 1.400 . S
C367 C366 1.400 . S
C367 C368 1.398 . S
C367 C373 1.491 . S
C368 H359 0.950 . S
C368 C367 1.398 . S
C368 C369 1.391 . S
C369 H357 0.950 . S
C369 C365 1.393 . S
C369 C368 1.391 . S
C370 H360 0.950 . S
C370 C371 1.386 . S
C370 C372 1.391 . S
C371 C370 1.386 . S
C371 C375 1.393 . S
C372 H361 0.950 . S
C372 C370 1.391 . S
C372 C373 1.400 . S
C373 C367 1.491 . S
C373 C372 1.400 . S
C373 C374 1.398 . S
C374 H362 0.950 . S
C374 C373 1.398 . S
C374 C375 1.391 . S
C375 H363 0.950 . S
C375 C371 1.393 . S
C375 C374 1.391 . S
H376 C384 0.950 . S
H377 C389 0.950 . S
H378 C386 0.950 . S
H379 C388 0.950 . S
H380 C390 0.950 . S
H381 C392 0.950 . S
H382 C394 0.950 . S
H383 C395 0.950 . S
C384 H376 0.950 . S
C384 C385 1.386 . S
C384 C386 1.391 . S
C385 C384 1.386 . S
C385 C389 1.393 . S
C386 H378 0.950 . S
C386 C384 1.391 . S
C386 C387 1.400 . S
C387 C386 1.400 . S
C387 C388 1.398 . S
C387 C393 1.491 . S
C388 H379 0.950 . S
C388 C387 1.398 . S
C388 C389 1.391 . S
C389 H377 0.950 . S
C389 C385 1.393 . S
C389 C388 1.391 . S
C390 H380 0.950 . S
C390 C391 1.386 . S
C390 C392 1.391 . S
C391 C390 1.386 . S
C391 C395 1.393 . S
C392 H381 0.950 . S
C392 C390 1.391 . S
C392 C393 1.400 . S
C393 C387 1.491 . S
C393 C392 1.400 . S
C393 C394 1.398 . S
C394 H382 0.950 . S
C394 C393 1.398 . S
C394 C395 1.391 . S
C395 H383 0.950 . S
C395 C391 1.393 . S
C395 C394 1.391 . S
H396 C404 0.950 . S
H397 C409 0.950 . S
H398 C406 0.950 . S
H399 C408 0.950 . S
H400 C410 0.950 . S
H401 C412 0.950 . S
H402 C414 0.950 . S
H403 C415 0.950 . S
C404 H396 0.950 . S
C404 C405 1.386 . S
C404 C406 1.391 . S
C405 C404 1.386 . S
C405 C409 1.393 . S
C406 H398 0.950 . S
C406 C404 1.391 . S
C406 C407 1.400 . S
C407 C406 1.400 . S
C407 C408 1.398 . S
C407 C413 1.491 . S
C408 H399 0.950 . S
C408 C407 1.398 . S
C408 C409 1.391 . S
C409 H397 0.950 . S
C409 C405 1.393 . S
C409 C408 1.391 . S
C410 H400 0.950 . S
C410 C411 1.386 . S
C410 C412 1.391 . S
C411 C410 1.386 . S
C411 C415 1.393 . S
C412 H401 0.950 . S
C412 C410 1.391 . S
C412 C413 1.400 . S
C413 C407 1.491 . S
C413 C412 1.400 . S
C413 C414 1.398 . S
C414 H402 0.950 . S
C414 C413 1.398 . S
C414 C415 1.391 . S
C415 H403 0.950 . S
C415 C411 1.393 . S
C415 C414 1.391 . S
H416 C424 0.950 . S
H417 C429 0.950 . S
H418 C426 0.950 . S
H419 C428 0.950 . S
H420 C430 0.950 . S
H421 C432 0.950 . S
H422 C434 0.950 . S
H423 C435 0.950 . S
C424 H416 0.950 . S
C424 C425 1.386 . S
C424 C426 1.391 . S
C425 C424 1.386 . S
C425 C429 1.393 . S
C426 H418 0.950 . S
C426 C424 1.391 . S
C426 C427 1.400 . S
C427 C426 1.400 . S
C427 C428 1.398 . S
C427 C433 1.491 . S
C428 H419 0.950 . S
C428 C427 1.398 . S
C428 C429 1.391 . S
C429 H417 0.950 . S
C429 C425 1.393 . S
C429 C428 1.391 . S
C430 H420 0.950 . S
C430 C431 1.386 . S
C430 C432 1.391 . S
C431 C430 1.386 . S
C431 C435 1.393 . S
C432 H421 0.950 . S
C432 C430 1.391 . S
C432 C433 1.400 . S
C433 C427 1.491 . S
C433 C432 1.400 . S
C433 C434 1.398 . S
C434 H422 0.950 . S
C434 C433 1.398 . S
C434 C435 1.391 . S
C435 H423 0.950 . S
C435 C431 1.393 . S
C435 C434 1.391 . S
H436 C444 0.950 . S
H437 C449 0.950 . S
H438 C446 0.950 . S
H439 C448 0.950 . S
H440 C450 0.950 . S
H441 C452 0.950 . S
H442 C454 0.950 . S
H443 C455 0.950 . S
C444 H436 0.950 . S
C444 C445 1.386 . S
C444 C446 1.391 . S
C445 C444 1.386 . S
C445 C449 1.393 . S
C446 H438 0.950 . S
C446 C444 1.391 . S
C446 C447 1.400 . S
C447 C446 1.400 . S
C447 C448 1.398 . S
C447 C453 1.491 . S
C448 H439 0.950 . S
C448 C447 1.398 . S
C448 C449 1.391 . S
C449 H437 0.950 . S
C449 C445 1.393 . S
C449 C448 1.391 . S
C450 H440 0.950 . S
C450 C451 1.386 . S
C450 C452 1.391 . S
C451 C450 1.386 . S
C451 C455 1.393 . S
C452 H441 0.950 . S
C452 C450 1.391 . S
C452 C453 1.400 . S
C453 C447 1.491 . S
C453 C452 1.400 . S
C453 C454 1.398 . S
C454 H442 0.950 . S
C454 C453 1.398 . S
C454 C455 1.391 . S
C455 H443 0.950 . S
C455 C451 1.393 . S
C455 C454 1.391 . S
H456 C464 0.950 . S
H457 C469 0.950 . S
H458 C466 0.950 . S
H459 C468 0.950 . S
H460 C470 0.950 . S
H461 C472 0.950 . S
H462 C474 0.950 . S
H463 C475 0.950 . S
C464 H456 0.950 . S
C464 C465 1.386 . S
C464 C466 1.391 . S
C465 C464 1.386 . S
C465 C469 1.393 . S
C466 H458 0.950 . S
C466 C464 1.391 . S
C466 C467 1.400 . S
C467 C466 1.400 . S
C467 C468 1.398 . S
C467 C473 1.491 . S
C468 H459 0.950 . S
C468 C467 1.398 . S
C468 C469 1.391 . S
C469 H457 0.950 . S
C469 C465 1.393 . S
C469 C468 1.391 . S
C470 H460 0.950 . S
C470 C471 1.386 . S
C470 C472 1.391 . S
C471 C470 1.386 . S
C471 C475 1.393 . S
C472 H461 0.950 . S
C472 C470 1.391 . S
C472 C473 1.400 . S
C473 C467 1.491 . S
C473 C472 1.400 . S
C473 C474 1.398 . S
C474 H462 0.950 . S
C474 C473 1.398 . S
C474 C475 1.391 . S
C475 H463 0.950 . S
C475 C471 1.393 . S
C475 C474 1.391 . S
H476 C484 0.950 . S
H477 C489 0.950 . S
H478 C486 0.950 . S
H479 C488 0.950 . S
H480 C490 0.950 . S
H481 C492 0.950 . S
H482 C494 0.950 . S
H483 C495 0.950 . S
C484 H476 0.950 . S
C484 C485 1.386 . S
C484 C486 1.391 . S
C485 C484 1.386 . S
C485 C489 1.393 . S
C486 H478 0.950 . S
C486 C484 1.391 . S
C486 C487 1.400 . S
C487 C486 1.400 . S
C487 C488 1.398 . S
C487 C493 1.491 . S
C488 H479 0.950 . S
C488 C487 1.398 . S
C488 C489 1.391 . S
C489 H477 0.950 . S
C489 C485 1.393 . S
C489 C488 1.391 . S
C490 H480 0.950 . S
C490 C491 1.386 . S
C490 C492 1.391 . S
C491 C490 1.386 . S
C491 C495 1.393 . S
C492 H481 0.950 . S
C492 C490 1.391 . S
C492 C493 1.400 . S
C493 C487 1.491 . S
C493 C492 1.400 . S
C493 C494 1.398 . S
C494 H482 0.950 . S
C494 C493 1.398 . S
C494 C495 1.391 . S
C495 H483 0.950 . S
C495 C491 1.393 . S
C495 C494 1.391 . S
H496 C504 0.950 . S
H497 C509 0.950 . S
H498 C506 0.950 . S
H499 C508 0.950 . S
H500 C510 0.950 . S
H501 C512 0.950 . S
H502 C514 0.950 . S
H503 C515 0.950 . S
C504 H496 0.950 . S
C504 C505 1.386 . S
C504 C506 1.391 . S
C505 C504 1.386 . S
C505 C509 1.393 . S
C506 H498 0.950 . S
C506 C504 1.391 . S
C506 C507 1.400 . S
C507 C506 1.400 . S
C507 C508 1.398 . S
C507 C513 1.491 . S
C508 H499 0.950 . S
C508 C507 1.398 . S
C508 C509 1.391 . S
C509 H497 0.950 . S
C509 C505 1.393 . S
C509 C508 1.391 . S
C510 H500 0.950 . S
C510 C511 1.386 . S
C510 C512 1.391 . S
C511 C510 1.386 . S
C511 C515 1.393 . S
C512 H501 0.950 . S
C512 C510 1.391 . S
C512 C513 1.400 . S
C513 C507 1.491 . S
C513 C512 1.400 . S
C513 C514 1.398 . S
C514 H502 0.950 . S
C514 C513 1.398 . S
C514 C515 1.391 . S
C515 H503 0.950 . S
C515 C511 1.393 . S
C515 C514 1.391 . S
H516 C524 0.950 . S
H517 C529 0.950 . S
H518 C526 0.950 . S
H519 C528 0.950 . S
H520 C530 0.950 . S
H521 C532 0.950 . S
H522 C534 0.950 . S
H523 C535 0.950 . S
C524 H516 0.950 . S
C524 C525 1.386 . S
C524 C526 1.391 . S
C525 C524 1.386 . S
C525 C529 1.393 . S
C526 H518 0.950 . S
C526 C524 1.391 . S
C526 C527 1.400 . S
C527 C526 1.400 . S
C527 C528 1.398 . S
C527 C533 1.491 . S
C528 H519 0.950 . S
C528 C527 1.398 . S
C528 C529 1.391 . S
C529 H517 0.950 . S
C529 C525 1.393 . S
C529 C528 1.391 . S
C530 H520 0.950 . S
C530 C531 1.386 . S
C530 C532 1.391 . S
C531 C530 1.386 . S
C531 C535 1.393 . S
C532 H521 0.950 . S
C532 C530 1.391 . S
C532 C533 1.400 . S
C533 C527 1.491 . S
C533 C532 1.400 . S
C533 C534 1.398 . S
C534 H522 0.950 . S
C534 C533 1.398 . S
C534 C535 1.391 . S
C535 H523 0.950 . S
C535 C531 1.393 . S
C535 C534 1.391 . S
H536 C544 0.950 1_455 S
H537 C549 0.950 . S
H538 C546 0.950 . S
H539 C548 0.950 . S
H540 C550 0.950 1_655 S
H541 C552 0.950 . S
H542 C554 0.950 . S
H543 C555 0.950 . S
C544 H536 0.950 1_655 S
C544 C545 1.386 . S
C544 C546 1.391 1_655 S
C545 C544 1.386 . S
C545 C549 1.393 . S
C546 H538 0.950 . S
C546 C544 1.391 1_455 S
C546 C547 1.400 1_455 S
C547 C546 1.400 1_655 S
C547 C548 1.398 . S
C547 C553 1.491 1_655 S
C548 H539 0.950 . S
C548 C547 1.398 . S
C548 C549 1.391 . S
C549 H537 0.950 . S
C549 C545 1.393 . S
C549 C548 1.391 . S
C550 H540 0.950 1_455 S
C550 C551 1.386 . S
C550 C552 1.391 1_455 S
C551 C550 1.386 . S
C551 C555 1.393 . S
C552 H541 0.950 . S
C552 C550 1.391 1_655 S
C552 C553 1.400 1_655 S
C553 C547 1.491 1_455 S
C553 C552 1.400 1_455 S
C553 C554 1.398 . S
C554 H542 0.950 . S
C554 C553 1.398 . S
C554 C555 1.391 . S
C555 H543 0.950 . S
C555 C551 1.393 . S
C555 C554 1.391 . S
H556 C564 0.950 . S
H557 C569 0.950 . S
H558 C566 0.950 . S
H559 C568 0.950 . S
H560 C570 0.950 . S
H561 C572 0.950 . S
H562 C574 0.950 . S
H563 C575 0.950 . S
C564 H556 0.950 . S
C564 C565 1.386 . S
C564 C566 1.391 . S
C565 C564 1.386 . S
C565 C569 1.393 . S
C566 H558 0.950 . S
C566 C564 1.391 . S
C566 C567 1.400 . S
C567 C566 1.400 . S
C567 C568 1.398 . S
C567 C573 1.491 1_545 S
C568 H559 0.950 . S
C568 C567 1.398 . S
C568 C569 1.391 . S
C569 H557 0.950 . S
C569 C565 1.393 . S
C569 C568 1.391 . S
C570 H560 0.950 . S
C570 C571 1.386 . S
C570 C572 1.391 . S
C571 C570 1.386 . S
C571 C575 1.393 . S
C572 H561 0.950 . S
C572 C570 1.391 . S
C572 C573 1.400 . S
C573 C567 1.491 1_565 S
C573 C572 1.400 . S
C573 C574 1.398 . S
C574 H562 0.950 . S
C574 C573 1.398 . S
C574 C575 1.391 . S
C575 H563 0.950 . S
C575 C571 1.393 . S
C575 C574 1.391 . S
H576 C584 0.950 . S
H577 C589 0.950 . S
H578 C586 0.950 . S
H579 C588 0.950 . S
H580 C590 0.950 . S
H581 C592 0.950 . S
H582 C594 0.950 . S
H583 C595 0.950 . S
C584 H576 0.950 . S
C584 C585 1.386 . S
C584 C586 1.391 . S
C585 C584 1.386 . S
C585 C589 1.393 . S
C586 H578 0.950 . S
C586 C584 1.391 . S
C586 C587 1.400 . S
C587 C586 1.400 . S
C587 C588 1.398 . S
C587 C593 1.491 . S
C588 H579 0.950 . S
C588 C587 1.398 . S
C588 C589 1.391 . S
C589 H577 0.950 . S
C589 C585 1.393 . S
C589 C588 1.391 . S
C590 H580 0.950 . S
C590 C591 1.386 . S
C590 C592 1.391 . S
C591 C590 1.386 . S
C591 C595 1.393 . S
C592 H581 0.950 . S
C592 C590 1.391 . S
C592 C593 1.400 . S
C593 C587 1.491 . S
C593 C592 1.400 . S
C593 C594 1.398 . S
C594 H582 0.950 . S
C594 C593 1.398 . S
C594 C595 1.391 . S
C595 H583 0.950 . S
C595 C591 1.393 . S
C595 C594 1.391 . S
H596 C604 0.950 . S
H597 C609 0.950 . S
H598 C606 0.950 . S
H599 C608 0.950 . S
H600 C610 0.950 . S
H601 C612 0.950 . S
H602 C614 0.950 . S
H603 C615 0.950 . S
C604 H596 0.950 . S
C604 C605 1.386 . S
C604 C606 1.391 . S
C605 C604 1.386 . S
C605 C609 1.393 . S
C606 H598 0.950 . S
C606 C604 1.391 . S
C606 C607 1.400 . S
C607 C606 1.400 . S
C607 C608 1.398 . S
C607 C613 1.491 1_455 S
C608 H599 0.950 . S
C608 C607 1.398 . S
C608 C609 1.391 . S
C609 H597 0.950 . S
C609 C605 1.393 . S
C609 C608 1.391 . S
C610 H600 0.950 . S
C610 C611 1.386 . S
C610 C612 1.391 . S
C611 C610 1.386 . S
C611 C615 1.393 . S
C612 H601 0.950 . S
C612 C610 1.391 . S
C612 C613 1.400 . S
C613 C607 1.491 1_655 S
C613 C612 1.400 . S
C613 C614 1.398 . S
C614 H602 0.950 . S
C614 C613 1.398 . S
C614 C615 1.391 . S
C615 H603 0.950 . S
C615 C611 1.393 . S
C615 C614 1.391 . S
H616 C624 0.950 . S
H617 C629 0.950 . S
H618 C626 0.950 . S
H619 C628 0.938 1_545 S
H620 C630 0.950 . S
H621 C632 0.950 . S
H622 C634 0.938 1_565 S
H623 C635 0.950 . S
C624 H616 0.950 . S
C624 C625 1.386 . S
C624 C626 1.391 . S
C625 C624 1.386 . S
C625 C629 1.393 . S
C626 H618 0.950 . S
C626 C624 1.391 . S
C626 C627 1.400 . S
C627 C626 1.400 . S
C627 C628 1.395 . S
C627 C633 1.491 1_565 S
C628 H619 0.938 1_565 S
C628 C627 1.395 . S
C628 C629 1.406 . S
C629 H617 0.950 . S
C629 C625 1.393 . S
C629 C628 1.406 . S
C630 H620 0.950 . S
C630 C631 1.386 . S
C630 C632 1.391 . S
C631 C630 1.386 . S
C631 C635 1.393 . S
C632 H621 0.950 . S
C632 C630 1.391 . S
C632 C633 1.400 . S
C633 C627 1.491 1_545 S
C633 C632 1.400 . S
C633 C634 1.395 . S
C634 H622 0.938 1_545 S
C634 C633 1.395 . S
C634 C635 1.406 . S
C635 H623 0.950 . S
C635 C631 1.393 . S
C635 C634 1.406 . S
C165 C96 1.140 . S
C171 C5 1.112 . S
C185 C18 1.268 . S
C191 C104 1.303 . S
C205 C26 1.281 . S
C211 C122 1.290 . S
C225 C44 1.108 . S
C231 C135 1.152 . S
C245 C143 1.267 . S
C251 C57 1.275 . S
C265 C83 1.284 . S
C271 C65 1.270 . S
C285 C140 1.104 . S
C291 C10 1.111 . S
C305 C23 1.178 . S
C311 C151 1.160 . S
C325 C34 1.159 . S
C331 C88 1.176 . S
C345 C101 1.102 . S
C351 C49 1.108 . S
C365 C112 1.162 . S
C371 C62 1.167 . S
C385 C127 1.178 . S
C391 C73 1.176 . S
C405 C8 1.577 . S
C411 C114 1.578 . S
C425 C21 1.552 . S
C431 C125 1.560 . S
C445 C138 1.564 . S
C451 C36 1.569 . S
C465 C47 1.564 . S
C471 C153 1.571 . S
C485 C86 1.567 . S
C491 C60 1.563 . S
C505 C99 1.579 . S
C511 C75 1.584 . S
C525 C39 1.248 . S
C531 C0 1.251 . S
C545 C52 1.249 . S
C551 C13 1.246 . S
C565 C31 1.348 . S
C571 C70 1.343 . S
C585 C78 1.240 . S
C591 C117 1.243 . S
C605 C91 1.236 . S
C611 C130 1.237 . S
C625 C148 1.381 . S
C631 C109 1.371 . S
