# Generated by pormake.
# Topology umz, (4)-cn, num edge types: 1
# Building blocks:
#     Node 0, Type 0, BuildingBlock: GALJAG_clean_sbu_0, # of connection points: 4
#     Node 1, Type 0, BuildingBlock: GALJAG_clean_sbu_0, # of connection points: 4
#     Node 2, Type 0, BuildingBlock: GALJAG_clean_sbu_0, # of connection points: 4
#     Node 3, Type 0, BuildingBlock: GALJAG_clean_sbu_0, # of connection points: 4
#     Node 4, Type 0, BuildingBlock: GALJAG_clean_sbu_0, # of connection points: 4
#     Node 5, Type 0, BuildingBlock: GALJAG_clean_sbu_0, # of connection points: 4
#     Node 6, Type 0, BuildingBlock: GALJAG_clean_sbu_0, # of connection points: 4
#     Node 7, Type 0, BuildingBlock: GALJAG_clean_sbu_0, # of connection points: 4
#     Node 8, Type 0, BuildingBlock: GALJAG_clean_sbu_0, # of connection points: 4
#     Node 9, Type 0, BuildingBlock: GALJAG_clean_sbu_0, # of connection points: 4
#     Node 10, Type 0, BuildingBlock: GALJAG_clean_sbu_0, # of connection points: 4
#     Node 11, Type 0, BuildingBlock: GALJAG_clean_sbu_0, # of connection points: 4
#     Node 12, Type 0, BuildingBlock: GALJAG_clean_sbu_0, # of connection points: 4
#     Node 13, Type 0, BuildingBlock: GALJAG_clean_sbu_0, # of connection points: 4
#     Node 14, Type 0, BuildingBlock: GALJAG_clean_sbu_0, # of connection points: 4
#     Node 15, Type 0, BuildingBlock: GALJAG_clean_sbu_0, # of connection points: 4
#     Edge 16, Type (0, 0), BuildingBlock: XUDNAN_clean_linker_2, # of connection points: 2
#     Edge 17, Type (0, 0), BuildingBlock: XUDNAN_clean_linker_2, # of connection points: 2
#     Edge 18, Type (0, 0), BuildingBlock: XUDNAN_clean_linker_2, # of connection points: 2
#     Edge 19, Type (0, 0), BuildingBlock: XUDNAN_clean_linker_2, # of connection points: 2
#     Edge 20, Type (0, 0), BuildingBlock: XUDNAN_clean_linker_2, # of connection points: 2
#     Edge 21, Type (0, 0), BuildingBlock: XUDNAN_clean_linker_2, # of connection points: 2
#     Edge 22, Type (0, 0), BuildingBlock: XUDNAN_clean_linker_2, # of connection points: 2
#     Edge 23, Type (0, 0), BuildingBlock: XUDNAN_clean_linker_2, # of connection points: 2
#     Edge 24, Type (0, 0), BuildingBlock: XUDNAN_clean_linker_2, # of connection points: 2
#     Edge 25, Type (0, 0), BuildingBlock: XUDNAN_clean_linker_2, # of connection points: 2
#     Edge 26, Type (0, 0), BuildingBlock: XUDNAN_clean_linker_2, # of connection points: 2
#     Edge 27, Type (0, 0), BuildingBlock: XUDNAN_clean_linker_2, # of connection points: 2
#     Edge 28, Type (0, 0), BuildingBlock: XUDNAN_clean_linker_2, # of connection points: 2
#     Edge 29, Type (0, 0), BuildingBlock: XUDNAN_clean_linker_2, # of connection points: 2
#     Edge 30, Type (0, 0), BuildingBlock: XUDNAN_clean_linker_2, # of connection points: 2
#     Edge 31, Type (0, 0), BuildingBlock: XUDNAN_clean_linker_2, # of connection points: 2
#     Edge 32, Type (0, 0), BuildingBlock: XUDNAN_clean_linker_2, # of connection points: 2
#     Edge 33, Type (0, 0), BuildingBlock: XUDNAN_clean_linker_2, # of connection points: 2
#     Edge 34, Type (0, 0), BuildingBlock: XUDNAN_clean_linker_2, # of connection points: 2
#     Edge 35, Type (0, 0), BuildingBlock: XUDNAN_clean_linker_2, # of connection points: 2
#     Edge 36, Type (0, 0), BuildingBlock: XUDNAN_clean_linker_2, # of connection points: 2
#     Edge 37, Type (0, 0), BuildingBlock: XUDNAN_clean_linker_2, # of connection points: 2
#     Edge 38, Type (0, 0), BuildingBlock: XUDNAN_clean_linker_2, # of connection points: 2
#     Edge 39, Type (0, 0), BuildingBlock: XUDNAN_clean_linker_2, # of connection points: 2
#     Edge 40, Type (0, 0), BuildingBlock: XUDNAN_clean_linker_2, # of connection points: 2
#     Edge 41, Type (0, 0), BuildingBlock: XUDNAN_clean_linker_2, # of connection points: 2
#     Edge 42, Type (0, 0), BuildingBlock: XUDNAN_clean_linker_2, # of connection points: 2
#     Edge 43, Type (0, 0), BuildingBlock: XUDNAN_clean_linker_2, # of connection points: 2
#     Edge 44, Type (0, 0), BuildingBlock: XUDNAN_clean_linker_2, # of connection points: 2
#     Edge 45, Type (0, 0), BuildingBlock: XUDNAN_clean_linker_2, # of connection points: 2
#     Edge 46, Type (0, 0), BuildingBlock: XUDNAN_clean_linker_2, # of connection points: 2
#     Edge 47, Type (0, 0), BuildingBlock: XUDNAN_clean_linker_2, # of connection points: 2
# Relax obj value: 0.183
# Max RMSD: 0.169
# Mean RMSD: 0.169
data_MOF--net-umz--node1-GALJAG_clean_sbu_0--edge1-XUDNAN_clean_linker_2
_symmetry_space_group_name_H-M    P1
_symmetry_Int_Tables_number       1
_symmetry_cell_setting            triclinic
loop_
_symmetry_equiv_pos_as_xyz
'x, y, z'
_cell_length_a     56.561302
_cell_length_b     56.417575
_cell_length_c     25.111903
_cell_angle_alpha  90.084232
_cell_angle_beta   90.044268
_cell_angle_gamma 90.080294
loop_
_atom_site_label
_atom_site_type_symbol
_atom_site_fract_x
_atom_site_fract_y
_atom_site_fract_z
_atom_type_partial_charge
In0 In 0.03208 0.63773 0.16098 0.0
O1 O 0.03979 0.61342 0.09164 0.0
O2 O 0.06735 0.63659 0.11714 0.0
C3 C 0.99317 0.61313 0.18676 0.0
C4 C 0.01976 0.67738 0.10899 0.0
C5 C 0.05263 0.63399 0.2572 0.0
O6 O 0.0113 0.60357 0.16694 0.0
O7 O 0.99444 0.63531 0.19281 0.0
O8 O 0.03939 0.65129 0.24584 0.0
O9 O 0.05632 0.61982 0.21938 0.0
C10 C 0.06069 0.62069 0.085 0.0
O11 O 0.03628 0.6773 0.143 0.0
O12 O 0.00928 0.65784 0.10302 0.0
In13 In 0.86143 0.03822 0.63871 0.0
O14 O 0.83248 0.06331 0.61099 0.0
O15 O 0.82507 0.02642 0.60952 0.0
C16 C 0.87562 0.06198 0.72639 0.0
C17 C 0.88634 0.04699 0.54959 0.0
C18 C 0.86811 0.99412 0.67631 0.0
O19 O 0.85416 0.05959 0.71379 0.0
O20 O 0.89005 0.05298 0.69389 0.0
O21 O 0.88045 0.00302 0.63963 0.0
O22 O 0.85186 0.00735 0.6937 0.0
C23 C 0.81795 0.04712 0.59966 0.0
O24 O 0.87718 0.02712 0.55968 0.0
O25 O 0.88325 0.0626 0.58501 0.0
In26 In 0.48361 0.86983 0.12055 0.0
O27 O 0.47863 0.8312 0.14449 0.0
O28 O 0.48971 0.83867 0.06513 0.0
C29 C 0.46408 0.89253 0.20405 0.0
C30 C 0.4554 0.88296 0.03975 0.0
C31 C 0.52923 0.88063 0.14076 0.0
O32 O 0.46303 0.87027 0.19896 0.0
O33 O 0.47439 0.90317 0.16652 0.0
O34 O 0.51728 0.89144 0.10592 0.0
O35 O 0.51851 0.86376 0.16301 0.0
C36 C 0.48409 0.82322 0.0991 0.0
O37 O 0.47749 0.8865 0.03904 0.0
O38 O 0.44764 0.87339 0.08166 0.0
In39 In 0.62583 0.45849 0.62206 0.0
O40 O 0.66098 0.44396 0.59059 0.0
O41 O 0.65773 0.48107 0.60062 0.0
C42 C 0.61727 0.43782 0.71659 0.0
C43 C 0.60368 0.434 0.54421 0.0
C44 C 0.60871 0.50149 0.64627 0.0
O45 O 0.63793 0.43932 0.6977 0.0
O46 O 0.60119 0.44596 0.68704 0.0
O47 O 0.60249 0.4906 0.60446 0.0
O48 O 0.62363 0.4908 0.67482 0.0
C49 C 0.67044 0.46405 0.58582 0.0
O50 O 0.60628 0.45621 0.54256 0.0
O51 O 0.61178 0.4243 0.58554 0.0
In52 In 0.01519 0.86772 0.86138 0.0
O53 O 0.00758 0.89305 0.92986 0.0
O54 O 0.04323 0.8827 0.91752 0.0
C55 C 0.97176 0.88072 0.82872 0.0
C56 C 0.01401 0.82237 0.89568 0.0
C57 C 0.04328 0.87679 0.77715 0.0
O58 O 0.97655 0.87714 0.87715 0.0
O59 O 0.98876 0.87742 0.79711 0.0
O60 O 0.03836 0.85596 0.79186 0.0
O61 O 0.03451 0.89295 0.80572 0.0
C62 C 0.02874 0.89428 0.94541 0.0
O63 O -0.00075 0.83045 0.86287 0.0
O64 O 0.02975 0.83686 0.90967 0.0
In65 In 0.62485 0.03764 0.36251 0.0
O66 O 0.59582 0.02721 0.42142 0.0
O67 O 0.60937 0.06217 0.42601 0.0
C68 C 0.6241 0.99418 0.31748 0.0
C69 C 0.66834 0.04571 0.40309 0.0
C70 C 0.61002 0.06254 0.27755 0.0
O71 O 0.62118 -0.00275 0.36686 0.0
O72 O 0.62828 0.01281 0.29154 0.0
O73 O 0.63153 0.06103 0.29055 0.0
O74 O 0.59583 0.05209 0.30854 0.0
C75 C 0.59544 0.04694 0.44497 0.0
O76 O 0.65575 0.06184 0.38334 0.0
O77 O 0.65931 0.02531 0.40112 0.0
In78 In 0.47645 0.62022 0.90285 0.0
O79 O 0.46472 0.6591 0.91105 0.0
O80 O 0.49507 0.64723 0.95368 0.0
C81 C 0.44538 0.59908 0.83699 0.0
C82 C 0.4651 0.60013 0.99584 0.0
C83 C 0.51467 0.61249 0.84176 0.0
O84 O 0.44822 0.62135 0.83723 0.0
O85 O 0.45736 0.58801 0.87119 0.0
O86 O 0.51165 0.60236 0.88604 0.0
O87 O 0.49896 0.62735 0.82954 0.0
C88 C 0.4809 0.66388 0.94422 0.0
O89 O 0.48499 0.59702 0.97391 0.0
O90 O 0.45071 0.6128 0.96989 0.0
In91 In 0.85826 0.45288 0.33182 0.0
O92 O 0.81941 0.44461 0.34937 0.0
O93 O 0.83474 0.47584 0.38244 0.0
C94 C 0.86403 0.43355 0.23475 0.0
C95 C 0.87604 0.42578 0.41001 0.0
C96 C 0.88084 0.4933 0.30828 0.0
O97 O 0.84546 0.44475 0.24679 0.0
O98 O 0.87857 0.43114 0.2723 0.0
O99 O 0.8913 0.47549 0.32737 0.0
O100 O 0.85884 0.49091 0.30186 0.0
C101 C 0.81677 0.46275 0.37839 0.0
O102 O 0.88087 0.44751 0.40521 0.0
O103 O 0.8622 0.41757 0.37508 0.0
In104 In 0.96514 0.35876 0.83417 0.0
O105 O 0.96183 0.37835 0.91317 0.0
O106 O 0.9334 0.38117 0.85832 0.0
C107 C 0.00952 0.37411 0.81485 0.0
C108 C 0.96078 0.31584 0.88052 0.0
C109 C 0.94522 0.36382 0.73811 0.0
O110 O -0.00062 0.37741 0.85895 0.0
O111 O -0.00234 0.36247 0.78133 0.0
O112 O 0.94873 0.34356 0.75818 0.0
O113 O 0.95166 0.38111 0.76666 0.0
C114 C 0.94136 0.38619 0.90382 0.0
O115 O 0.94352 0.32911 0.87046 0.0
O116 O 0.98042 0.32342 0.86389 0.0
In117 In 0.12669 0.96379 0.36103 0.0
O118 O 0.16176 0.94461 0.34881 0.0
O119 O 0.16126 0.97497 0.39911 0.0
C120 C 0.1 0.94777 0.2802 0.0
C121 C 0.10974 0.93992 0.44574 0.0
C122 C 0.12164 0.00956 0.33444 0.0
O123 O 0.12228 0.94589 0.2802 0.0
O124 O 0.09132 0.95696 0.32166 0.0
O125 O 0.11563 0.00182 0.37973 0.0
O126 O 0.13096 0.99445 0.30394 0.0
C127 C 0.17313 0.95818 0.37959 0.0
O128 O 0.10802 0.9622 0.442 0.0
O129 O 0.11951 0.92995 0.40661 0.0
In130 In 0.50496 0.12325 0.86469 0.0
O131 O 0.50754 0.16259 0.84301 0.0
O132 O 0.49709 0.15331 0.92163 0.0
C133 C 0.52417 0.10137 0.77968 0.0
C134 C 0.53432 0.1091 0.9426 0.0
C135 C 0.45956 0.11108 0.84803 0.0
O136 O 0.52632 0.12344 0.78719 0.0
O137 O 0.51305 0.0905 0.81569 0.0
O138 O 0.47086 0.10433 0.88864 0.0
O139 O 0.4709 0.12459 0.8173 0.0
C140 C 0.50161 0.16958 0.8889 0.0
O141 O 0.51272 0.10332 0.94149 0.0
O142 O 0.54118 0.12142 0.90362 0.0
In143 In 0.36987 0.52418 0.40364 0.0
O144 O 0.38144 0.51254 0.48677 0.0
O145 O 0.38312 0.54924 0.46791 0.0
C146 C 0.37308 0.48294 0.35034 0.0
C147 C 0.3242 0.53345 0.42356 0.0
C148 C 0.39758 0.54712 0.3338 0.0
O149 O 0.38375 0.48646 0.39391 0.0
O150 O 0.35991 0.49972 0.33555 0.0
O151 O 0.37536 0.54948 0.33413 0.0
O152 O 0.40575 0.53408 0.37018 0.0
C153 C 0.38601 0.53333 0.5025 0.0
O154 O 0.33808 0.54886 0.40482 0.0
O155 O 0.33319 0.51323 0.43032 0.0
In156 In 0.97746 0.13136 0.13956 0.0
O157 O 0.97357 0.11293 0.05831 0.0
O158 O 0.94271 0.12548 0.09784 0.0
C159 C 0.02217 0.123 0.17021 0.0
C160 C 0.97505 0.17705 0.11097 0.0
C161 C 0.95772 0.10824 0.22168 0.0
O162 O 0.01297 0.11264 0.13051 0.0
O163 O 0.00918 0.13831 0.19221 0.0
O164 O 0.95908 0.13062 0.22059 0.0
O165 O 0.96596 0.09784 0.18125 0.0
C166 C 0.95133 0.11555 0.0573 0.0
O167 O 0.96232 0.16847 0.14755 0.0
O168 O 0.98983 0.16285 0.09102 0.0
In169 In 0.36468 0.95555 0.62135 0.0
O170 O 0.38783 0.96899 0.55355 0.0
O171 O 0.38539 0.93174 0.56488 0.0
C172 C 0.36557 -0.00244 0.67191 0.0
C173 C 0.32286 0.9488 0.57198 0.0
C174 C 0.37915 0.93002 0.7058 0.0
O175 O 0.37775 0.9934 0.6308 0.0
O176 O 0.35236 0.98073 0.68654 0.0
O177 O 0.35782 0.9306 0.69098 0.0
O178 O 0.39325 0.94154 0.67674 0.0
C179 C 0.39362 0.9486 0.5376 0.0
O180 O 0.33597 0.93186 0.58576 0.0
O181 O 0.3304 0.96903 0.58482 0.0
In182 In 0.51562 0.36481 0.11761 0.0
O183 O 0.51595 0.32442 0.10693 0.0
O184 O 0.50052 0.34557 0.04621 0.0
C185 C 0.53805 0.37166 0.21065 0.0
C186 C 0.54709 0.38422 0.05035 0.0
C187 C 0.47269 0.38057 0.14721 0.0
O188 O 0.53325 0.35113 0.19332 0.0
O189 O 0.532 0.38847 0.18041 0.0
O190 O 0.4837 0.3892 0.10806 0.0
O191 O 0.48305 0.36375 0.17049 0.0
C192 C 0.5061 0.32514 0.06178 0.0
O193 O 0.52672 0.39282 0.0575 0.0
O194 O 0.5518 0.36628 0.07837 0.0
In195 In 0.1314 0.53565 0.65987 0.0
O196 O 0.16301 0.55791 0.63534 0.0
O197 O 0.1642 0.52104 0.61837 0.0
C198 C 0.12537 0.55523 0.75619 0.0
C199 C 0.10505 0.5586 0.58689 0.0
C200 C 0.11955 0.49085 0.68594 0.0
O201 O 0.14552 0.55384 0.73476 0.0
O202 O 0.10855 0.54698 0.7288 0.0
O203 O 0.10851 0.5025 0.65097 0.0
O204 O 0.13711 0.50144 0.70592 0.0
C205 C 0.17416 0.54098 0.61446 0.0
O206 O 0.11454 0.53879 0.57763 0.0
O207 O 0.10797 0.56625 0.63357 0.0
H208 H 0.04352 0.71975 0.10293 0.0
H209 H 0.98371 0.68106 0.0377 0.0
H210 H 0.97617 0.7137 0.97481 0.0
H211 H 0.01733 0.7785 0.09282 0.0
H212 H 0.04486 0.79245 0.07473 0.0
H213 H 0.04495 0.76636 0.11599 0.0
H214 H 0.0729 0.74558 0.04885 0.0
H215 H 0.07265 0.77149 0.00706 0.0
H216 H 0.06418 0.74312 0.97999 0.0
H217 H 0.97575 0.74978 0.91731 0.0
H218 H 0.98131 0.78825 0.87202 0.0
H219 H 0.04154 0.80325 0.97398 0.0
C220 C 0.02866 0.71832 0.07588 0.0
C221 C 0.01416 0.69795 0.07522 0.0
C222 C 0.99502 0.69657 0.03892 0.0
C223 C 0.99061 0.71496 0.00295 0.0
C224 C 0.00551 0.7346 0.00386 0.0
C225 C 0.02403 0.73651 0.03958 0.0
C226 C 0.03752 0.75943 0.03174 0.0
C227 C 0.03606 0.77511 0.08179 0.0
C228 C 0.06334 0.7546 0.01596 0.0
C229 C 0.02371 0.77001 0.98594 0.0
C230 C 0.00534 0.75539 0.97042 0.0
C231 C 0.99005 0.76142 0.9291 0.0
C232 C 0.99339 0.78323 0.90352 0.0
C233 C 0.01187 0.79862 0.91943 0.0
C234 C 0.02734 0.79176 0.96077 0.0
H235 H 0.6981 0.01384 0.45036 0.0
H236 H 0.68966 0.08876 0.41614 0.0
H237 H 0.72657 0.09742 0.46513 0.0
H238 H 0.72068 0.02072 0.58263 0.0
H239 H 0.74136 0.99656 0.57725 0.0
H240 H 0.71445 0.99612 0.53887 0.0
H241 H 0.73863 0.99125 0.4519 0.0
H242 H 0.7656 0.99145 0.49005 0.0
H243 H 0.76161 0.01235 0.43658 0.0
H244 H 0.76389 0.09799 0.51892 0.0
H245 H 0.80043 0.09017 0.56981 0.0
H246 H 0.7845 0.01487 0.5686 0.0
C247 C 0.70411 0.03204 0.4529 0.0
C248 C 0.69109 0.05064 0.42949 0.0
C249 C 0.69944 0.07424 0.43374 0.0
C250 C 0.72031 0.07935 0.4616 0.0
C251 C 0.73258 0.06063 0.48482 0.0
C252 C 0.7249 0.03744 0.48048 0.0
C253 C 0.74144 0.02059 0.50886 0.0
C254 C 0.72871 0.00775 0.55462 0.0
C255 C 0.75247 0.00287 0.46949 0.0
C256 C 0.75964 0.03794 0.52976 0.0
C257 C 0.75414 0.06096 0.51569 0.0
C258 C 0.7684 0.08005 0.53019 0.0
C259 C 0.78906 0.07544 0.55919 0.0
C260 C 0.79522 0.05194 0.57316 0.0
C261 C 0.78017 0.03303 0.55865 0.0
H262 H 0.4762 0.80306 0.00197 0.0
H263 H 0.49069 0.78635 0.16735 0.0
H264 H 0.49111 0.7436 0.14509 0.0
H265 H 0.43625 0.7534 0.97985 0.0
H266 H 0.44582 0.74875 0.91219 0.0
H267 H 0.44701 0.77799 0.94099 0.0
H268 H 0.49162 0.78069 0.91848 0.0
H269 H 0.4906 0.75144 0.88974 0.0
H270 H 0.5114 0.75799 0.94217 0.0
H271 H 0.4929 0.70346 0.10392 0.0
H272 H 0.49162 0.66739 0.04836 0.0
H273 H 0.47204 0.70953 0.91094 0.0
C274 C 0.47948 0.79034 0.03339 0.0
C275 C 0.48368 0.79781 0.08625 0.0
C276 C 0.4875 0.78083 0.12664 0.0
C277 C 0.48781 0.7566 0.11434 0.0
C278 C 0.48375 0.74978 0.06174 0.0
C279 C 0.47925 0.76608 0.02204 0.0
C280 C 0.47473 0.75396 0.96907 0.0
C281 C 0.44944 0.75881 0.94938 0.0
C282 C 0.49319 0.76147 0.92742 0.0
C283 C 0.47782 0.72828 0.985 0.0
C284 C 0.48328 0.72637 0.03855 0.0
C285 C 0.48832 0.70468 0.06216 0.0
C286 C 0.48767 0.68436 0.03027 0.0
C287 C 0.48161 0.68582 0.97569 0.0
C288 C 0.47642 0.70801 0.95279 0.0
H289 H 0.69592 0.43231 0.52675 0.0
H290 H 0.69687 0.50437 0.58754 0.0
H291 H 0.73422 0.51192 0.53964 0.0
H292 H 0.75933 0.42223 0.53162 0.0
H293 H 0.75968 0.40548 0.47045 0.0
H294 H 0.73365 0.40544 0.51172 0.0
H295 H 0.70866 0.41969 0.43137 0.0
H296 H 0.73466 0.42005 0.39002 0.0
H297 H 0.71701 0.44645 0.39697 0.0
H298 H 0.77074 0.51192 0.4847 0.0
H299 H 0.80518 0.50412 0.42719 0.0
H300 H 0.77993 0.43248 0.39912 0.0
C301 C 0.7042 0.44955 0.53055 0.0
C302 C 0.69369 0.46774 0.56101 0.0
C303 C 0.70475 0.4902 0.56446 0.0
C304 C 0.7259 0.49467 0.53737 0.0
C305 C 0.73558 0.47652 0.50681 0.0
C306 C 0.72519 0.45439 0.50329 0.0
C307 C 0.73898 0.43821 0.46654 0.0
C308 C 0.74848 0.41657 0.49691 0.0
C309 C 0.72393 0.43066 0.41837 0.0
C310 C 0.75878 0.45472 0.45009 0.0
C311 C 0.75646 0.4767 0.47389 0.0
C312 C 0.77276 0.49481 0.46572 0.0
C313 C 0.79221 0.49022 0.43295 0.0
C314 C 0.79508 0.46776 0.4086 0.0
C315 C 0.77798 0.4499 0.41678 0.0
H316 H 0.99362 0.28111 0.90087 0.0
H317 H 0.92282 0.30456 0.94162 0.0
H318 H 0.92013 0.27329 0.00971 0.0
H319 H 0.98112 0.21824 0.91515 0.0
H320 H 0.00993 0.21158 0.94191 0.0
H321 H 0.0063 0.23606 0.89674 0.0
H322 H 0.02516 0.26416 0.96671 0.0
H323 H 0.02844 0.23981 0.01248 0.0
H324 H 0.0125 0.266 0.03245 0.0
H325 H 0.92564 0.24093 0.07598 0.0
H326 H 0.93655 0.20517 0.12684 0.0
H327 H 0.00287 0.20124 0.04041 0.0
C328 C 0.97749 0.27947 0.9238 0.0
C329 C 0.95845 0.29523 0.91609 0.0
C330 C 0.93759 0.29257 0.94671 0.0
C331 C 0.93595 0.275 0.9858 0.0
C332 C 0.95522 0.26009 0.99333 0.0
C333 C 0.9754 0.26177 0.96253 0.0
C334 C 0.99313 0.2428 0.9774 0.0
C335 C -0.00211 0.22619 0.92999 0.0
C336 C 0.01617 0.25386 -0.00148 0.0
C337 C 0.97972 0.23026 0.02131 0.0
C338 C 0.95806 0.24079 0.03043 0.0
C339 C 0.94251 0.23244 0.0691 0.0
C340 C 0.94893 0.21224 0.09803 0.0
C341 C 0.97053 0.2005 0.08749 0.0
C342 C 0.98628 0.20993 0.04936 0.0
H343 H 0.2886 0.98149 0.5514 0.0
H344 H 0.30882 0.90867 0.51969 0.0
H345 H 0.27401 0.90398 0.46088 0.0
H346 H 0.22634 0.97059 0.55786 0.0
H347 H 0.21857 -0.00163 0.52715 0.0
H348 H 0.24552 0.99595 0.56489 0.0
H349 H 0.26927 0.01078 0.48313 0.0
H350 H 0.2424 0.01293 0.4449 0.0
H351 H 0.26665 0.99529 0.42054 0.0
H352 H 0.23713 0.90751 0.40499 0.0
H353 H 0.19857 0.91754 0.36437 0.0
H354 H 0.20227 0.98763 0.43533 0.0
C355 C 0.28569 0.96456 0.5321 0.0
C356 C 0.30134 0.94545 0.53984 0.0
C357 C 0.29691 0.92349 0.51432 0.0
C358 C 0.27732 0.92073 0.4806 0.0
C359 C 0.26236 0.94005 0.47325 0.0
C360 C 0.26615 0.96143 0.49883 0.0
C361 C 0.24687 0.97909 0.48624 0.0
C362 C 0.23354 0.98642 0.53705 0.0
C363 C 0.25691 0.0008 0.45696 0.0
C364 C 0.23152 0.96424 0.44987 0.0
C365 C 0.2409 0.94189 0.4422 0.0
C366 C 0.22962 0.92496 0.41065 0.0
C367 C 0.20782 0.93085 0.38755 0.0
C368 C 0.19753 0.95334 0.39677 0.0
C369 C 0.20978 0.97032 0.4275 0.0
H370 H 0.50494 0.18763 0.989 0.0
H371 H 0.49683 0.20805 0.82353 0.0
H372 H 0.49531 0.25028 0.85059 0.0
H373 H 0.46738 0.2322 0.04723 0.0
H374 H 0.48637 0.23692 0.10395 0.0
H375 H 0.4856 0.20839 0.07172 0.0
H376 H 0.53097 0.21016 0.05781 0.0
H377 H 0.5319 0.23865 0.09012 0.0
H378 H 0.54378 0.23523 0.02397 0.0
H379 H 0.49408 0.28994 0.89614 0.0
H380 H 0.4969 0.32473 0.95549 0.0
H381 H 0.50844 0.27831 0.09068 0.0
C382 C 0.50264 0.201 0.95852 0.0
C383 C 0.50073 0.19472 0.90426 0.0
C384 C 0.49823 0.21262 0.86531 0.0
C385 C 0.49728 0.23656 0.88034 0.0
C386 C 0.49918 0.24217 0.9343 0.0
C387 C 0.50211 0.22491 0.9727 0.0
C388 C 0.50502 0.23565 0.02761 0.0
C389 C 0.48489 0.22782 0.06481 0.0
C390 C 0.52937 0.22956 0.05124 0.0
C391 C 0.5032 0.2617 0.01419 0.0
C392 C 0.49954 0.26505 0.96025 0.0
C393 C 0.49702 0.28755 0.93837 0.0
C394 C 0.49857 0.30717 0.97244 0.0
C395 C 0.50292 0.30414 0.02758 0.0
C396 C 0.50516 0.2811 0.04865 0.0
H397 H 0.29072 0.50262 0.4599 0.0
H398 H 0.304 0.5773 0.43105 0.0
H399 H 0.26616 0.58732 0.47469 0.0
H400 H 0.22595 0.50511 0.43999 0.0
H401 H 0.22055 0.48367 0.49174 0.0
H402 H 0.24753 0.48244 0.45373 0.0
H403 H 0.27172 0.48429 0.54135 0.0
H404 H 0.24487 0.48592 0.57957 0.0
H405 H 0.26713 0.5086 0.58685 0.0
H406 H 0.2293 0.58937 0.52973 0.0
H407 H 0.19365 0.58314 0.5847 0.0
H408 H 0.20404 0.50703 0.57558 0.0
C409 C 0.28543 0.52105 0.46176 0.0
C410 C 0.30021 0.53921 0.44215 0.0
C411 C 0.29282 0.56312 0.4456 0.0
C412 C 0.27142 0.56898 0.47044 0.0
C413 C 0.25761 0.55068 0.49093 0.0
C414 C 0.2641 0.52717 0.48604 0.0
C415 C 0.24649 0.51094 0.51301 0.0
C416 C 0.23441 0.49458 0.47217 0.0
C417 C 0.25826 0.4966 0.55785 0.0
C418 C 0.2294 0.52903 0.53504 0.0
C419 C 0.23612 0.55185 0.52187 0.0
C420 C 0.22366 0.57158 0.5397 0.0
C421 C 0.20357 0.56787 0.57118 0.0
C422 C 0.19614 0.54461 0.58422 0.0
C423 C 0.20928 0.525 0.56597 0.0
H424 H 0.04793 0.58993 0.00676 0.0
H425 H 0.10713 0.63158 0.06489 0.0
H426 H 0.13141 0.61765 0.98901 0.0
H427 H 0.08198 0.53988 0.95694 0.0
H428 H 0.06296 0.53588 0.9 0.0
H429 H 0.05116 0.5478 0.96101 0.0
H430 H 0.03597 0.58467 0.90985 0.0
H431 H 0.04776 0.57292 0.84878 0.0
H432 H 0.05646 0.60204 0.87111 0.0
H433 H 0.14851 0.60006 0.90411 0.0
H434 H 0.15645 0.58135 0.81652 0.0
H435 H 0.08527 0.55258 0.81503 0.0
C436 C 0.0661 0.59592 0.00396 0.0
C437 C 0.07575 0.61173 0.04166 0.0
C438 C 0.09948 0.61939 0.03637 0.0
C439 C 0.11338 0.61154 0.99353 0.0
C440 C 0.10319 0.5961 0.95664 0.0
C441 C 0.08008 0.58841 0.96155 0.0
C442 C 0.0728 0.57282 0.91545 0.0
C443 C 0.06689 0.5476 0.93451 0.0
C444 C 0.05203 0.58378 0.88447 0.0
C445 C 0.0953 0.57323 0.88322 0.0
C446 C 0.11276 0.58648 0.90773 0.0
C447 C 0.13498 0.58956 0.88466 0.0
C448 C 0.13933 0.57891 0.83505 0.0
C449 C 0.12143 0.56565 0.80915 0.0
C450 C 0.09926 0.56271 0.83386 0.0
H451 H 0.94156 0.12593 0.31697 0.0
H452 H 0.95161 0.0605 0.22864 0.0
H453 H 0.93563 0.03777 0.30426 0.0
H454 H 0.95765 0.10244 0.44599 0.0
H455 H 0.93578 0.11943 0.48152 0.0
H456 H 0.94819 0.13075 0.42058 0.0
H457 H 0.90614 0.13495 0.38064 0.0
H458 H 0.8936 0.12375 0.44151 0.0
H459 H 0.88681 0.10952 0.37902 0.0
H460 H 0.91797 0.02217 0.38779 0.0
H461 H 0.8992 0.01457 0.47474 0.0
H462 H 0.90108 0.0899 0.51019 0.0
C463 C 0.94037 0.10683 0.3136 0.0
C464 C 0.94777 0.09495 0.26697 0.0
C465 C 0.94601 0.06994 0.26401 0.0
C466 C 0.93701 0.05687 0.30676 0.0
C467 C 0.92993 0.06907 0.35221 0.0
C468 C 0.93148 0.09346 0.35605 0.0
C469 C 0.92242 0.10214 0.40938 0.0
C470 C 0.94219 0.11441 0.44125 0.0
C471 C 0.90097 0.11855 0.40219 0.0
C472 C 0.91537 0.07882 0.43464 0.0
C473 C 0.91991 0.05999 0.40094 0.0
C474 C 0.91441 0.03673 0.41469 0.0
C475 C 0.90376 0.03261 0.46411 0.0
C476 C 0.89879 0.05164 0.49916 0.0
C477 C 0.90488 0.075 0.48435 0.0
H478 H 0.46771 0.90397 0.94537 0.0
H479 H 0.40821 0.87367 0.03067 0.0
H480 H 0.38254 0.88074 0.95275 0.0
H481 H 0.43487 0.95012 0.87993 0.0
H482 H 0.4516 0.94814 0.81903 0.0
H483 H 0.46522 0.94042 0.88145 0.0
H484 H 0.47603 0.8991 0.84334 0.0
H485 H 0.46223 0.90662 0.78094 0.0
H486 H 0.45302 0.88044 0.81644 0.0
H487 H 0.36338 0.89106 0.86564 0.0
H488 H 0.35156 0.90602 0.77707 0.0
H489 H 0.42355 0.9296 0.74891 0.0
C490 C 0.44926 0.89889 0.94768 0.0
C491 C 0.43992 0.88827 0.99399 0.0
C492 C 0.4157 0.88187 0.99557 0.0
C493 C 0.40101 0.88573 0.95147 0.0
C494 C 0.41082 0.89602 0.90621 0.0
C495 C 0.43434 0.90266 0.9041 0.0
C496 C 0.44035 0.91381 0.85102 0.0
C497 C 0.44848 0.93966 0.85831 0.0
C498 C 0.45901 0.89911 0.82118 0.0
C499 C 0.41653 0.91246 0.82369 0.0
C500 C 0.39976 0.90203 0.85607 0.0
C501 C 0.37636 0.89921 0.83983 0.0
C502 C 0.36984 0.90769 0.78945 0.0
C503 C 0.38666 0.91886 0.75612 0.0
C504 C 0.41035 0.92096 0.77335 0.0
H505 H 0.54951 0.4144 0.2547 0.0
H506 H 0.55043 0.33876 0.28585 0.0
H507 H 0.56664 0.34649 0.37582 0.0
H508 H 0.60375 0.42843 0.32284 0.0
H509 H 0.59297 0.45634 0.34794 0.0
H510 H 0.58164 0.44465 0.28622 0.0
H511 H 0.53898 0.44727 0.32342 0.0
H512 H 0.55018 0.45881 0.38541 0.0
H513 H 0.53187 0.43263 0.38515 0.0
H514 H 0.58233 0.3627 0.46268 0.0
H515 H 0.59773 0.38598 0.53862 0.0
H516 H 0.58638 0.45093 0.44984 0.0
C517 C 0.55322 0.39943 0.28032 0.0
C518 C 0.54877 0.37597 0.26338 0.0
C519 C 0.5538 0.35687 0.29808 0.0
C520 C 0.56293 0.36109 0.34922 0.0
C521 C 0.56691 0.38449 0.36484 0.0
C522 C 0.56231 0.40332 0.3313 0.0
C523 C 0.56819 0.42677 0.35749 0.0
C524 C 0.58781 0.43981 0.3268 0.0
C525 C 0.54598 0.44228 0.36321 0.0
C526 C 0.57686 0.41823 0.41108 0.0
C527 C 0.57592 0.39379 0.41465 0.0
C528 C 0.58315 0.38184 0.46033 0.0
C529 C 0.59182 0.39521 0.50325 0.0
C530 C 0.5932 0.42024 0.50008 0.0
C531 C 0.58545 0.43183 0.45347 0.0
H532 H 0.11412 0.92631 0.18753 0.0
H533 H 0.0527 0.95525 0.2681 0.0
H534 H 0.02823 0.94666 0.18899 0.0
H535 H 0.10003 0.94808 0.05643 0.0
H536 H 0.11049 0.92188 0.02272 0.0
H537 H 0.12339 0.9306 0.0854 0.0
H538 H 0.11363 0.88932 0.12503 0.0
H539 H 0.10092 0.88042 0.06236 0.0
H540 H 0.08365 0.87847 0.12249 0.0
H541 H 0.01044 0.93494 0.10163 0.0
H542 H -9e-05 0.91838 0.01366 0.0
H543 H 0.07281 0.89679 0.9902 0.0
C544 C 0.09551 0.93078 0.18854 0.0
C545 C 0.08527 0.94142 0.23388 0.0
C546 C 0.06086 0.947 0.23379 0.0
C547 C 0.04685 0.94231 0.18898 0.0
C548 C 0.05752 0.932 0.14472 0.0
C549 C 0.08124 0.92613 0.14423 0.0
C550 C 0.08818 0.91463 0.09205 0.0
C551 C 0.10661 0.9297 0.06241 0.0
C552 C 0.09711 0.8892 0.10104 0.0
C553 C 0.06461 0.91479 0.06347 0.0
C554 C 0.04721 0.92508 0.09439 0.0
C555 C 0.0239 0.92689 0.07696 0.0
C556 C 0.01812 0.9175 0.02693 0.0
C557 C 0.03556 0.90637 0.99517 0.0
C558 C 0.05915 0.90534 0.01348 0.0
H559 H 0.55201 0.11956 0.69984 0.0
H560 H 0.51548 0.0557 0.75017 0.0
H561 H 0.52836 0.03539 0.66814 0.0
H562 H 0.53922 0.11428 0.5596 0.0
H563 H 0.5678 0.12494 0.53876 0.0
H564 H 0.55543 0.13473 0.6011 0.0
H565 H 0.59288 0.12026 0.65089 0.0
H566 H 0.60542 0.11059 0.58868 0.0
H567 H 0.60238 0.08997 0.64301 0.0
H568 H 0.54506 0.02197 0.58085 0.0
H569 H 0.56644 0.01567 0.49627 0.0
H570 H 0.59264 0.08797 0.50314 0.0
C571 C 0.54676 0.10131 0.69357 0.0
C572 C 0.53276 0.0892 0.73133 0.0
C573 C 0.52628 0.06529 0.72183 0.0
C574 C 0.53342 0.05363 0.67527 0.0
C575 C 0.5471 0.06608 0.63869 0.0
C576 C 0.55386 0.08932 0.6474 0.0
C577 C 0.56912 0.09842 0.60226 0.0
C578 C 0.55717 0.11933 0.57375 0.0
C579 C 0.59392 0.1052 0.62243 0.0
C580 C 0.56991 0.07664 0.56696 0.0
C581 C 0.55696 0.05824 0.58854 0.0
C582 C 0.55525 0.03624 0.5635 0.0
C583 C 0.5674 0.03285 0.51545 0.0
C584 C 0.58115 0.05133 0.49316 0.0
C585 C 0.58218 0.07355 0.51912 0.0
H586 H 0.3836 0.57279 0.24692 0.0
H587 H 0.44521 0.54157 0.32225 0.0
H588 H 0.46948 0.55246 0.24438 0.0
H589 H 0.39576 0.55318 0.1173 0.0
H590 H 0.38551 0.57963 0.08448 0.0
H591 H 0.37328 0.57126 0.14788 0.0
H592 H 0.3847 0.61218 0.18737 0.0
H593 H 0.39669 0.62082 0.12383 0.0
H594 H 0.41488 0.62231 0.18272 0.0
H595 H 0.48624 0.56379 0.15564 0.0
H596 H 0.49508 0.57765 0.06447 0.0
H597 H 0.42263 0.60182 0.04762 0.0
C598 C 0.4023 0.56868 0.24748 0.0
C599 C 0.41258 0.55643 0.29063 0.0
C600 C 0.43703 0.55108 0.28969 0.0
C601 C 0.45094 0.55712 0.24559 0.0
C602 C 0.44013 0.56862 0.20305 0.0
C603 C 0.41644 0.57462 0.20387 0.0
C604 C 0.409 0.5863 0.15231 0.0
C605 C 0.38975 0.57171 0.12383 0.0
C606 C 0.40084 0.61193 0.16216 0.0
C607 C 0.43211 0.58561 0.1221 0.0
C608 C 0.44984 0.57533 0.15203 0.0
C609 C 0.47257 0.57209 0.13197 0.0
C610 C 0.47738 0.57989 0.08012 0.0
C611 C 0.45955 0.59081 0.04916 0.0
C612 C 0.43663 0.5936 0.07048 0.0
H613 H 0.94266 0.40518 0.6836 0.0
H614 H 0.92362 0.33078 0.67378 0.0
H615 H 0.90453 0.33804 0.58636 0.0
H616 H 0.89019 0.42833 0.62826 0.0
H617 H 0.90492 0.45182 0.59268 0.0
H618 H 0.91764 0.44034 0.65305 0.0
H619 H 0.95667 0.43119 0.60295 0.0
H620 H 0.94408 0.4427 0.54239 0.0
H621 H 0.95587 0.41305 0.54382 0.0
H622 H 0.88592 0.35438 0.50169 0.0
H623 H 0.87045 0.37801 0.42625 0.0
H624 H 0.90293 0.44114 0.49297 0.0
C625 C 0.93456 0.39036 0.66304 0.0
C626 C 0.9345 0.36744 0.68533 0.0
C627 C 0.92383 0.34848 0.65716 0.0
C628 C 0.91297 0.35245 0.60763 0.0
C629 C 0.9132 0.37539 0.58697 0.0
C630 C 0.92388 0.39396 0.61375 0.0
C631 C 0.92159 0.417 0.58371 0.0
C632 C 0.90776 0.43545 0.61637 0.0
C633 C 0.946 0.42653 0.56724 0.0
C634 C 0.90761 0.40865 0.53604 0.0
C635 C 0.90293 0.38462 0.53841 0.0
C636 C 0.88964 0.37317 0.49926 0.0
C637 C 0.88091 0.38671 0.45668 0.0
C638 C 0.88559 0.41134 0.45382 0.0
C639 C 0.89919 0.42231 0.49393 0.0
H640 H 0.95218 0.39142 0.00881 0.0
H641 H 0.89701 0.40502 0.89272 0.0
H642 H 0.8705 0.41859 0.96493 0.0
H643 H 0.91526 0.36764 0.10719 0.0
H644 H 0.93114 0.38047 0.16244 0.0
H645 H 0.94642 0.37392 0.10133 0.0
H646 H 0.96049 0.41759 0.09444 0.0
H647 H 0.94564 0.42418 0.1561 0.0
H648 H 0.93902 0.44115 0.09721 0.0
H649 H 0.8495 0.42907 0.05151 0.0
H650 H 0.83673 0.43721 0.14428 0.0
H651 H 0.90558 0.41482 0.20148 0.0
C652 C 0.9347 0.39771 -0.00162 0.0
C653 C 0.92667 0.39735 0.94526 0.0
C654 C 0.90353 0.40533 0.93328 0.0
C655 C 0.88834 0.41298 0.97399 0.0
C656 C 0.89659 0.41244 0.02627 0.0
C657 C 0.91931 0.40517 0.0384 0.0
C658 C 0.92372 0.40537 0.09769 0.0
C659 C 0.92947 0.38036 0.11835 0.0
C660 C 0.94337 0.42314 0.1122 0.0
C661 C 0.89989 0.41368 0.11718 0.0
C662 C 0.88444 0.4178 0.0756 0.0
C663 C 0.86146 0.4259 0.08439 0.0
C664 C 0.85432 0.43033 0.13708 0.0
C665 C 0.8701 0.42646 0.17995 0.0
C666 C 0.89301 0.41773 0.16961 0.0
H667 H 0.05054 0.92004 0.73078 0.0
H668 H 0.06533 0.84504 0.71166 0.0
H669 H 0.08476 0.85329 0.62552 0.0
H670 H 0.03622 0.93119 0.59593 0.0
H671 H 0.04959 0.9602 0.5941 0.0
H672 H 0.03824 0.9487 0.65587 0.0
H673 H 0.07911 0.95499 0.70051 0.0
H674 H 0.09054 0.96669 0.63897 0.0
H675 H 0.10506 0.94204 0.67073 0.0
H676 H 0.1008 0.86938 0.54005 0.0
H677 H 0.11344 0.89232 0.46153 0.0
H678 H 0.08795 0.95693 0.53583 0.0
C679 C 0.05817 0.9054 0.70884 0.0
C680 C 0.05656 0.8819 0.72792 0.0
C681 C 0.06648 0.86318 0.69779 0.0
C682 C 0.07751 0.86769 0.64886 0.0
C683 C 0.07845 0.89101 0.63075 0.0
C684 C 0.06916 0.90958 0.65987 0.0
C685 C 0.07181 0.93289 0.63059 0.0
C686 C 0.04752 0.94388 0.6184 0.0
C687 C 0.08757 0.95017 0.66208 0.0
C688 C 0.08391 0.9245 0.58023 0.0
C689 C 0.0876 0.90029 0.58123 0.0
C690 C 0.09812 0.88836 0.5389 0.0
C691 C 0.10518 0.90155 0.49444 0.0
C692 C 0.10167 0.92639 0.49262 0.0
C693 C 0.09087 0.93797 0.53614 0.0
H694 H 0.56617 0.0604 0.2317 0.0
H695 H 0.637 0.08818 0.20829 0.0
H696 H 0.6254 0.10287 0.11939 0.0
H697 H 0.55791 0.03994 0.09915 0.0
H698 H 0.52702 0.04765 0.09613 0.0
H699 H 0.54042 0.04042 0.15911 0.0
H700 H 0.52685 0.08074 0.19813 0.0
H701 H 0.51316 0.08798 0.13547 0.0
H702 H 0.5347 0.10779 0.16428 0.0
H703 H 0.60648 0.11335 0.03216 0.0
H704 H 0.58101 0.12046 0.95388 0.0
H705 H 0.52273 0.08526 0.03388 0.0
C706 C 0.57913 0.0699 0.20821 0.0
C707 C 0.60243 0.07332 0.22691 0.0
C708 C 0.61901 0.0855 0.19473 0.0
C709 C 0.61261 0.09383 0.14418 0.0
C710 C 0.58962 0.08977 0.12648 0.0
C711 C 0.57309 0.0782 0.15758 0.0
C712 C 0.54973 0.07563 0.12869 0.0
C713 C 0.54341 0.04935 0.12028 0.0
C714 C 0.52995 0.08883 0.15841 0.0
C715 C 0.55568 0.08761 0.07651 0.0
C716 C 0.57879 0.09559 0.076 0.0
C717 C 0.58835 0.10723 0.0321 0.0
C718 C 0.57377 0.11111 0.9878 0.0
C719 C 0.54994 0.10337 0.98783 0.0
C720 C 0.54092 0.0913 0.03265 0.0
H721 H 0.39754 0.57676 0.54358 0.0
H722 H 0.39037 0.50254 0.58598 0.0
H723 H 0.40125 0.51217 0.67891 0.0
H724 H 0.44805 0.58846 0.62353 0.0
H725 H 0.43895 0.618 0.64156 0.0
H726 H 0.42941 0.60531 0.57936 0.0
H727 H 0.38576 0.61303 0.6055 0.0
H728 H 0.39519 0.62553 0.66812 0.0
H729 H 0.37449 0.60121 0.66713 0.0
H730 H 0.41447 0.52953 0.76571 0.0
H731 H 0.43141 0.55295 0.8395 0.0
H732 H 0.42964 0.61604 0.74096 0.0
C733 C 0.39818 0.56254 0.57246 0.0
C734 C 0.39311 0.53889 0.5577 0.0
C735 C 0.39423 0.52076 0.59651 0.0
C736 C 0.40025 0.52609 0.64938 0.0
C737 C 0.40501 0.54961 0.66269 0.0
C738 C 0.40416 0.56753 0.62533 0.0
C739 C 0.41111 0.59118 0.64942 0.0
C740 C 0.43319 0.60132 0.62183 0.0
C741 C 0.3904 0.60877 0.64742 0.0
C742 C 0.41641 0.58369 0.70606 0.0
C743 C 0.41255 0.55968 0.71294 0.0
C744 C 0.41734 0.54838 0.76097 0.0
C745 C 0.42692 0.56184 0.80265 0.0
C746 C 0.43163 0.58632 0.79602 0.0
C747 C 0.42579 0.59746 0.74746 0.0
H748 H 0.9205 0.06477 0.76767 0.0
H749 H 0.84745 0.08344 0.80001 0.0
H750 H 0.85919 0.09923 0.88782 0.0
H751 H 0.93461 0.04554 0.89887 0.0
H752 H 0.96424 0.05734 0.89854 0.0
H753 H 0.95047 0.04844 0.83697 0.0
H754 H 0.95779 0.09025 0.79768 0.0
H755 H 0.97176 0.09923 0.85899 0.0
H756 H 0.9472 0.11596 0.83304 0.0
H757 H 0.87824 0.11148 0.97262 0.0
H758 H 0.90379 0.12115 0.04899 0.0
H759 H 0.96482 0.09468 0.96265 0.0
C760 C 0.90704 0.07244 0.793 0.0
C761 C 0.88307 0.07298 0.77704 0.0
C762 C 0.86592 0.08293 0.81143 0.0
C763 C 0.8724 0.0919 0.86137 0.0
C764 C 0.89609 0.09078 0.87626 0.0
C765 C 0.9132 0.08145 0.8431 0.0
C766 C 0.93734 0.08203 0.86938 0.0
C767 C 0.94724 0.05684 0.87635 0.0
C768 C 0.95453 0.09781 0.8379 0.0
C769 C 0.93108 0.09305 0.92258 0.0
C770 C 0.90717 0.09791 0.92557 0.0
C771 C 0.897 0.10787 0.97074 0.0
C772 C 0.91168 0.11323 0.01396 0.0
C773 C 0.93629 0.10866 0.01174 0.0
C774 C 0.94607 0.09834 0.96546 0.0
H775 H 0.40325 0.9063 0.48894 0.0
H776 H 0.41431 0.98217 0.47461 0.0
H777 H 0.43428 0.97592 0.38824 0.0
H778 H 0.45898 0.88799 0.42798 0.0
H779 H 0.44577 0.86292 0.39475 0.0
H780 H 0.43375 0.87333 0.45693 0.0
H781 H 0.39262 0.8778 0.41252 0.0
H782 H 0.40454 0.86763 0.3501 0.0
H783 H 0.38968 0.89583 0.35366 0.0
H784 H 0.4512 0.96163 0.30183 0.0
H785 H 0.46516 0.94019 0.22215 0.0
H786 H 0.44269 0.8736 0.29238 0.0
C787 C 0.41019 0.92156 0.46801 0.0
C788 C 0.40735 0.94472 0.48846 0.0
C789 C 0.4164 0.96427 0.45966 0.0
C790 C 0.42773 0.9609 0.41061 0.0
C791 C 0.42984 0.93788 0.39106 0.0
C792 C 0.42146 0.91852 0.41895 0.0
C793 C 0.4253 0.89572 0.3883 0.0
C794 C 0.44194 0.87901 0.41881 0.0
C795 C 0.40162 0.88354 0.37538 0.0
C796 C 0.43695 0.9053 0.33853 0.0
C797 C 0.43946 0.92965 0.34102 0.0
C798 C 0.44944 0.94256 0.29951 0.0
C799 C 0.45724 0.93022 0.25438 0.0
C800 C 0.45496 0.90525 0.25111 0.0
C801 C 0.44462 0.89269 0.29375 0.0
H802 H 0.53674 0.415 0.97013 0.0
H803 H 0.59343 0.37213 0.03508 0.0
H804 H 0.61885 0.38307 0.95882 0.0
H805 H 0.5449 0.39835 0.83826 0.0
H806 H 0.53804 0.42691 0.8102 0.0
H807 H 0.52548 0.41837 0.87312 0.0
H808 H 0.54291 0.45608 0.91749 0.0
H809 H 0.55533 0.4649 0.85449 0.0
H810 H 0.57413 0.46207 0.91209 0.0
H811 H 0.6371 0.39676 0.87201 0.0
H812 H 0.64633 0.41175 0.78158 0.0
H813 H 0.57675 0.44377 0.77299 0.0
C814 C 0.5547 0.40838 0.96899 0.0
C815 C 0.56323 0.39291 0.00862 0.0
C816 C 0.58664 0.38415 0.00518 0.0
C817 C 0.60119 0.39027 0.96209 0.0
C818 C 0.59201 0.40509 0.92286 0.0
C819 C 0.56932 0.41409 0.92607 0.0
C820 C 0.56299 0.4282 0.87697 0.0
C821 C 0.54159 0.41729 0.84794 0.0
C822 C 0.55859 0.45436 0.89112 0.0
C823 C 0.58543 0.42529 0.84506 0.0
C824 C 0.60214 0.41223 0.87238 0.0
C825 C 0.62419 0.40709 0.85034 0.0
C826 C 0.62925 0.41559 0.79903 0.0
C827 C 0.61218 0.4287 0.77032 0.0
C828 C 0.59007 0.43359 0.79385 0.0
H829 H 0.10356 0.54906 0.48049 0.0
H830 H 0.08201 0.60093 0.59854 0.0
H831 H 0.06704 0.62693 0.52681 0.0
H832 H 0.12436 0.59017 0.38505 0.0
H833 H 0.11409 0.57342 0.32837 0.0
H834 H 0.12183 0.55836 0.38908 0.0
H835 H 0.08023 0.53902 0.39278 0.0
H836 H 0.07251 0.5537 0.33159 0.0
H837 H 0.05434 0.55759 0.38987 0.0
H838 H 0.0551 0.64758 0.44093 0.0
H839 H 0.04567 0.66004 0.34864 0.0
H840 H 0.07676 0.59495 0.28885 0.0
C841 C 0.09537 0.56573 0.49135 0.0
C842 C 0.0938 0.57295 0.54497 0.0
C843 C 0.08325 0.59503 0.55758 0.0
C844 C 0.0748 0.60994 0.51716 0.0
C845 C 0.07713 0.60251 0.46449 0.0
C846 C 0.08704 0.58085 0.45162 0.0
C847 C 0.08793 0.57711 0.39211 0.0
C848 C 0.11358 0.57463 0.37253 0.0
C849 C 0.07285 0.55559 0.37563 0.0
C850 C 0.07702 0.60006 0.3734 0.0
C851 C 0.07084 0.61453 0.41555 0.0
C852 C 0.05994 0.63642 0.4076 0.0
C853 C 0.05477 0.64341 0.35516 0.0
C854 C 0.06065 0.62855 0.3117 0.0
C855 C 0.07226 0.60684 0.32119 0.0
H856 H 0.92742 0.49678 0.28389 0.0
H857 H 0.86287 0.53788 0.29493 0.0
H858 H 0.88463 0.57367 0.26531 0.0
H859 H 0.96797 0.54182 0.32769 0.0
H860 H 0.99065 0.53333 0.28104 0.0
H861 H 0.97008 0.5115 0.30537 0.0
H862 H 0.9584 0.50096 0.20827 0.0
H863 H 0.97886 0.52282 0.18364 0.0
H864 H 0.94818 0.52404 0.16438 0.0
H865 H 0.91405 0.60504 0.23652 0.0
H866 H 0.9482 0.62891 0.20559 0.0
H867 H 0.99218 0.56599 0.20779 0.0
C868 C 0.91793 0.51337 0.28058 0.0
C869 C 0.89362 0.51479 0.29215 0.0
C870 C 0.88159 0.53661 0.28637 0.0
C871 C 0.89378 0.55695 0.26967 0.0
C872 C 0.91781 0.55494 0.25825 0.0
C873 C 0.92968 0.53364 0.26303 0.0
C874 C 0.95521 0.53583 0.24621 0.0
C875 C 0.97196 0.5303 0.29287 0.0
C876 C 0.96046 0.51997 0.19774 0.0
C877 C 0.95596 0.56176 0.23161 0.0
C878 C 0.93431 0.57258 0.23922 0.0
C879 C 0.93104 0.59672 0.22999 0.0
C880 C 0.95046 0.61011 0.21253 0.0
C881 C 0.97263 0.59917 0.2039 0.0
C882 C 0.9753 0.57471 0.21336 0.0
H883 H 0.89889 0.96149 0.63802 0.0
H884 H 0.8523 0.97603 0.77104 0.0
H885 H 0.86937 0.9421 0.8199 0.0
H886 H 0.90139 0.89433 0.65607 0.0
H887 H 0.93213 0.89411 0.63718 0.0
H888 H 0.91224 0.91545 0.60813 0.0
H889 H 0.93993 0.94945 0.63902 0.0
H890 H 0.95968 0.92838 0.66849 0.0
H891 H 0.94753 0.95192 0.70857 0.0
H892 H 0.89728 0.91294 0.86091 0.0
H893 H 0.93252 0.89028 0.88905 0.0
H894 H 0.96026 0.89437 0.7284 0.0
C895 C 0.89166 0.95696 0.67662 0.0
C896 C 0.87429 0.97125 0.70082 0.0
C897 C 0.86547 0.9651 0.75166 0.0
C898 C 0.87504 0.94585 0.77962 0.0
C899 C 0.89304 0.93275 0.75564 0.0
C900 C 0.90095 0.93782 0.70477 0.0
C901 C 0.92244 0.92326 0.69041 0.0
C902 C 0.91669 0.90574 0.64527 0.0
C903 C 0.94362 0.93921 0.67583 0.0
C904 C 0.92644 0.91043 0.74239 0.0
C905 C 0.90903 0.91568 0.77923 0.0
C906 C 0.91062 0.90814 0.83199 0.0
C907 C 0.93073 0.89537 0.84768 0.0
C908 C 0.94898 0.89049 0.81075 0.0
C909 C 0.94637 0.8975 0.75723 0.0
H910 H 0.553 0.92044 0.1093 0.0
H911 H 0.55578 0.86203 0.22115 0.0
H912 H 0.5875 0.88234 0.27069 0.0
H913 H 0.61908 0.93679 0.11815 0.0
H914 H 0.61195 0.96784 0.11317 0.0
H915 H 0.59409 0.94614 0.07887 0.0
H916 H 0.55678 0.96258 0.12585 0.0
H917 H 0.57443 0.98404 0.16059 0.0
H918 H 0.556 0.96385 0.19759 0.0
H919 H 0.61039 0.91278 0.32024 0.0
H920 H 0.62546 0.94976 0.3611 0.0
H921 H 0.61004 0.98773 0.21532 0.0
C922 C 0.56107 0.91145 0.14275 0.0
C923 C 0.552 0.88967 0.16132 0.0
C924 C 0.56257 0.87867 0.20602 0.0
C925 C 0.58065 0.89006 0.23442 0.0
C926 C 0.58828 0.91222 0.21698 0.0
C927 C 0.57922 0.92258 0.17138 0.0
C928 C 0.58821 0.94771 0.16492 0.0
C929 C 0.6043 0.94973 0.11586 0.0
C930 C 0.56763 0.96557 0.16212 0.0
C931 C 0.60225 0.95043 0.21591 0.0
C932 C 0.60241 0.92966 0.24505 0.0
C933 C 0.61119 0.9289 0.297 0.0
C934 C 0.6196 0.94997 0.32002 0.0
C935 C 0.6193 0.97138 0.29092 0.0
C936 C 0.6112 0.97139 0.23776 0.0
H937 H 0.60829 0.51953 0.74622 0.0
H938 H 0.58416 0.53344 0.58541 0.0
H939 H 0.56302 0.56914 0.61748 0.0
H940 H 0.55548 0.5308 0.80547 0.0
H941 H 0.56739 0.54379 0.8654 0.0
H942 H 0.58465 0.52285 0.82819 0.0
H943 H 0.61866 0.55356 0.82076 0.0
H944 H 0.60139 0.5747 0.858 0.0
H945 H 0.61275 0.58246 0.79328 0.0
H946 H 0.54082 0.60014 0.66869 0.0
H947 H 0.51605 0.62092 0.7348 0.0
H948 H 0.55313 0.58499 0.86246 0.0
C949 C 0.59919 0.53053 0.71746 0.0
C950 C 0.59808 0.52404 0.66329 0.0
C951 C 0.58534 0.53833 0.62705 0.0
C952 C 0.57346 0.55868 0.64487 0.0
C953 C 0.57448 0.56433 0.69896 0.0
C954 C 0.58695 0.55055 0.73474 0.0
C955 C 0.58246 0.55814 0.79161 0.0
C956 C 0.57186 0.53769 0.82455 0.0
C957 C 0.60517 0.56779 0.81742 0.0
C958 C 0.5647 0.5777 0.78252 0.0
C959 C 0.56087 0.58153 0.7288 0.0
C960 C 0.54394 0.59756 0.71081 0.0
C961 C 0.53 0.60933 0.74865 0.0
C962 C 0.53279 0.60455 0.80364 0.0
C963 C 0.55084 0.58914 0.82067 0.0
H964 H 0.08589 0.46175 0.64254 0.0
H965 H 0.1323 0.46961 0.77902 0.0
H966 H 0.11224 0.43613 0.8232 0.0
H967 H 0.03512 0.4512 0.7102 0.0
H968 H 0.02304 0.42922 0.66563 0.0
H969 H 0.04348 0.45097 0.64091 0.0
H970 H 0.07088 0.41766 0.60585 0.0
H971 H 0.05036 0.39571 0.63013 0.0
H972 H 0.08088 0.39486 0.65073 0.0
H973 H 0.08207 0.40803 0.85955 0.0
H974 H 0.04662 0.38404 0.88103 0.0
H975 H 0.02199 0.39172 0.71857 0.0
C976 C 0.09231 0.4559 0.68097 0.0
C977 C 0.11064 0.46819 0.70736 0.0
C978 C 0.1184 0.46028 0.7579 0.0
C979 C 0.10711 0.44129 0.78335 0.0
C980 C 0.08848 0.43007 0.75714 0.0
C981 C 0.08149 0.4367 0.70649 0.0
C982 C 0.05993 0.42288 0.68862 0.0
C983 C 0.03918 0.43957 0.67562 0.0
C984 C 0.06588 0.40682 0.64101 0.0
C985 C 0.05511 0.40842 0.73818 0.0
C986 C 0.07182 0.41274 0.77724 0.0
C987 C 0.06933 0.40384 0.82877 0.0
C988 C 0.04915 0.39035 0.84071 0.0
C989 C 0.03202 0.38566 0.80107 0.0
C990 C 0.03532 0.39439 0.74901 0.0
H991 H 0.05232 0.08873 0.13402 0.0
H992 H 0.04121 0.13808 0.26412 0.0
H993 H 0.07218 0.11804 0.31618 0.0
H994 H 0.05641 0.03987 0.2067 0.0
H995 H 0.07931 0.02512 0.1694 0.0
H996 H 0.0608 0.04657 0.1372 0.0
H997 H 0.09769 0.0707 0.10874 0.0
H998 H 0.11645 0.04908 0.14047 0.0
H999 H 0.11886 0.07995 0.15832 0.0
H1000 H 0.09589 0.08703 0.3618 0.0
H1001 H 0.11385 0.04963 0.39355 0.0
H1002 H 0.11217 0.02188 0.23263 0.0
C1003 C 0.05716 0.09593 0.1725 0.0
C1004 C 0.04441 0.11494 0.195 0.0
C1005 C 0.05086 0.12362 0.24594 0.0
C1006 C 0.06847 0.11235 0.27585 0.0
C1007 C 0.07984 0.09279 0.25376 0.0
C1008 C 0.07488 0.085 0.20265 0.0
C1009 C 0.08755 0.06201 0.19051 0.0
C1010 C 0.06997 0.04225 0.1751 0.0
C1011 C 0.10626 0.06566 0.14693 0.0
C1012 C 0.09901 0.05724 0.2439 0.0
C1013 C 0.09462 0.07533 0.27975 0.0
C1014 C 0.10028 0.07317 0.33367 0.0
C1015 C 0.11035 0.05188 0.35144 0.0
C1016 C 0.11482 0.03321 0.31526 0.0
C1017 C 0.1097 0.03626 0.26072 0.0
H1018 H 0.38761 0.03835 0.64225 0.0
H1019 H 0.35285 0.00436 0.77563 0.0
H1020 H 0.367 0.03617 0.83525 0.0
H1021 H 0.43771 0.05166 0.70291 0.0
H1022 H 0.4429 0.08017 0.67278 0.0
H1023 H 0.42521 0.05856 0.6387 0.0
H1024 H 0.39051 0.08841 0.63287 0.0
H1025 H 0.40825 0.11032 0.66681 0.0
H1026 H 0.37961 0.10232 0.69267 0.0
H1027 H 0.39328 0.06467 0.88263 0.0
H1028 H 0.42687 0.08954 0.9123 0.0
H1029 H 0.44225 0.10714 0.74807 0.0
C1030 C 0.38218 0.03819 0.6836 0.0
C1031 C 0.36916 0.01902 0.70443 0.0
C1032 C 0.36265 0.01906 0.75882 0.0
C1033 C 0.37059 0.03708 0.79298 0.0
C1034 C 0.38447 0.05519 0.77174 0.0
C1035 C 0.38971 0.0562 0.71795 0.0
C1036 C 0.40725 0.07574 0.70606 0.0
C1037 C 0.42957 0.06593 0.67855 0.0
C1038 C 0.39571 0.09537 0.67263 0.0
C1039 C 0.41249 0.08432 0.76193 0.0
C1040 C 0.39891 0.07254 0.79931 0.0
C1041 C 0.40336 0.0747 0.85379 0.0
C1042 C 0.4225 0.08877 0.87033 0.0
C1043 C 0.43676 0.10055 0.83246 0.0
C1044 C 0.43109 0.09896 0.77789 0.0
H1045 H 0.45959 0.38362 0.25066 0.0
H1046 H 0.43779 0.40272 0.09102 0.0
H1047 H 0.40382 0.4249 0.12807 0.0
H1048 H 0.39933 0.38195 0.31511 0.0
H1049 H 0.41057 0.39571 0.37483 0.0
H1050 H 0.42937 0.37659 0.33589 0.0
H1051 H 0.46044 0.41024 0.32855 0.0
H1052 H 0.44183 0.42936 0.36732 0.0
H1053 H 0.45163 0.43861 0.30229 0.0
H1054 H 0.37583 0.44899 0.18203 0.0
H1055 H 0.35906 0.47692 0.24732 0.0
H1056 H 0.40107 0.44463 0.3722 0.0
C1057 C 0.44708 0.39171 0.22356 0.0
C1058 C 0.45083 0.39112 0.16808 0.0
C1059 C 0.43488 0.40277 0.13365 0.0
C1060 C 0.41551 0.41524 0.15435 0.0
C1061 C 0.41259 0.41605 0.20951 0.0
C1062 C 0.42808 0.40474 0.24368 0.0
C1063 C 0.42359 0.41165 0.30108 0.0
C1064 C 0.41521 0.39019 0.33364 0.0
C1065 C 0.44567 0.42316 0.32623 0.0
C1066 C 0.40386 0.42944 0.29373 0.0
C1067 C 0.39723 0.4311 0.24083 0.0
C1068 C 0.3806 0.44759 0.22365 0.0
C1069 C 0.37115 0.46338 0.26109 0.0
C1070 C 0.37876 0.46288 0.31482 0.0
C1071 C 0.39472 0.44519 0.33154 0.0
loop_
_geom_bond_atom_site_label_1
_geom_bond_atom_site_label_2
_geom_bond_distance
_geom_bond_site_symmetry_2
_ccdc_geom_bond_type
In0 O1 2.294 . S
In0 O2 2.326 . S
In0 O6 2.266 1_455 S
In0 O7 2.326 1_455 S
In0 O8 2.266 . S
In0 O9 2.326 . S
In0 O11 2.294 . S
In0 O12 2.326 . S
O1 In0 2.294 . S
O1 C10 1.240 . S
O2 In0 2.326 . S
O2 C10 1.252 . S
C3 O6 1.252 . S
C3 O7 1.260 . S
C4 O11 1.240 . S
C4 O12 1.252 . S
C5 O8 1.252 . S
C5 O9 1.260 . S
O6 In0 2.266 1_655 S
O6 C3 1.252 . S
O7 In0 2.326 1_655 S
O7 C3 1.260 . S
O8 In0 2.266 . S
O8 C5 1.252 . S
O9 In0 2.326 . S
O9 C5 1.260 . S
C10 O1 1.240 . S
C10 O2 1.252 . S
O11 In0 2.294 . S
O11 C4 1.240 . S
O12 In0 2.326 . S
O12 C4 1.252 . S
In13 O14 2.294 . S
In13 O15 2.326 . S
In13 O19 2.266 . S
In13 O20 2.326 . S
In13 O21 2.266 1_545 S
In13 O22 2.326 1_545 S
In13 O24 2.294 . S
In13 O25 2.326 . S
O14 In13 2.294 . S
O14 C23 1.240 . S
O15 In13 2.326 . S
O15 C23 1.252 . S
C16 O19 1.252 . S
C16 O20 1.260 . S
C17 O24 1.240 . S
C17 O25 1.252 . S
C18 O21 1.252 . S
C18 O22 1.260 . S
O19 In13 2.266 . S
O19 C16 1.252 . S
O20 In13 2.326 . S
O20 C16 1.260 . S
O21 In13 2.266 1_565 S
O21 C18 1.252 . S
O22 In13 2.326 1_565 S
O22 C18 1.260 . S
C23 O14 1.240 . S
C23 O15 1.252 . S
O24 In13 2.294 . S
O24 C17 1.240 . S
O25 In13 2.326 . S
O25 C17 1.252 . S
In26 O27 2.294 . S
In26 O28 2.326 . S
In26 O32 2.266 . S
In26 O33 2.326 . S
In26 O34 2.266 . S
In26 O35 2.326 . S
In26 O37 2.294 . S
In26 O38 2.326 . S
O27 In26 2.294 . S
O27 C36 1.240 . S
O28 In26 2.326 . S
O28 C36 1.252 . S
C29 O32 1.252 . S
C29 O33 1.260 . S
C30 O37 1.240 . S
C30 O38 1.252 . S
C31 O34 1.252 . S
C31 O35 1.260 . S
O32 In26 2.266 . S
O32 C29 1.252 . S
O33 In26 2.326 . S
O33 C29 1.260 . S
O34 In26 2.266 . S
O34 C31 1.252 . S
O35 In26 2.326 . S
O35 C31 1.260 . S
C36 O27 1.240 . S
C36 O28 1.252 . S
O37 In26 2.294 . S
O37 C30 1.240 . S
O38 In26 2.326 . S
O38 C30 1.252 . S
In39 O40 2.294 . S
In39 O41 2.326 . S
In39 O45 2.266 . S
In39 O46 2.326 . S
In39 O47 2.266 . S
In39 O48 2.326 . S
In39 O50 2.294 . S
In39 O51 2.326 . S
O40 In39 2.294 . S
O40 C49 1.240 . S
O41 In39 2.326 . S
O41 C49 1.252 . S
C42 O45 1.252 . S
C42 O46 1.260 . S
C43 O50 1.240 . S
C43 O51 1.252 . S
C44 O47 1.252 . S
C44 O48 1.260 . S
O45 In39 2.266 . S
O45 C42 1.252 . S
O46 In39 2.326 . S
O46 C42 1.260 . S
O47 In39 2.266 . S
O47 C44 1.252 . S
O48 In39 2.326 . S
O48 C44 1.260 . S
C49 O40 1.240 . S
C49 O41 1.252 . S
O50 In39 2.294 . S
O50 C43 1.240 . S
O51 In39 2.326 . S
O51 C43 1.252 . S
In52 O53 2.294 . S
In52 O54 2.326 . S
In52 O58 2.266 1_455 S
In52 O59 2.326 1_455 S
In52 O60 2.266 . S
In52 O61 2.326 . S
In52 O63 2.294 . S
In52 O64 2.326 . S
O53 In52 2.294 . S
O53 C62 1.240 . S
O54 In52 2.326 . S
O54 C62 1.252 . S
C55 O58 1.252 . S
C55 O59 1.260 . S
C56 O63 1.240 . S
C56 O64 1.252 . S
C57 O60 1.252 . S
C57 O61 1.260 . S
O58 In52 2.266 1_655 S
O58 C55 1.252 . S
O59 In52 2.326 1_655 S
O59 C55 1.260 . S
O60 In52 2.266 . S
O60 C57 1.252 . S
O61 In52 2.326 . S
O61 C57 1.260 . S
C62 O53 1.240 . S
C62 O54 1.252 . S
O63 In52 2.294 . S
O63 C56 1.240 . S
O64 In52 2.326 . S
O64 C56 1.252 . S
In65 O66 2.294 . S
In65 O67 2.326 . S
In65 O71 2.266 1_545 S
In65 O72 2.326 1_545 S
In65 O73 2.266 . S
In65 O74 2.326 . S
In65 O76 2.294 . S
In65 O77 2.326 . S
O66 In65 2.294 . S
O66 C75 1.240 . S
O67 In65 2.326 . S
O67 C75 1.252 . S
C68 O71 1.252 . S
C68 O72 1.260 . S
C69 O76 1.240 . S
C69 O77 1.252 . S
C70 O73 1.252 . S
C70 O74 1.260 . S
O71 In65 2.266 1_565 S
O71 C68 1.252 . S
O72 In65 2.326 1_565 S
O72 C68 1.260 . S
O73 In65 2.266 . S
O73 C70 1.252 . S
O74 In65 2.326 . S
O74 C70 1.260 . S
C75 O66 1.240 . S
C75 O67 1.252 . S
O76 In65 2.294 . S
O76 C69 1.240 . S
O77 In65 2.326 . S
O77 C69 1.252 . S
In78 O79 2.294 . S
In78 O80 2.326 . S
In78 O84 2.266 . S
In78 O85 2.326 . S
In78 O86 2.266 . S
In78 O87 2.326 . S
In78 O89 2.294 . S
In78 O90 2.326 . S
O79 In78 2.294 . S
O79 C88 1.240 . S
O80 In78 2.326 . S
O80 C88 1.252 . S
C81 O84 1.252 . S
C81 O85 1.260 . S
C82 O89 1.240 . S
C82 O90 1.252 . S
C83 O86 1.252 . S
C83 O87 1.260 . S
O84 In78 2.266 . S
O84 C81 1.252 . S
O85 In78 2.326 . S
O85 C81 1.260 . S
O86 In78 2.266 . S
O86 C83 1.252 . S
O87 In78 2.326 . S
O87 C83 1.260 . S
C88 O79 1.240 . S
C88 O80 1.252 . S
O89 In78 2.294 . S
O89 C82 1.240 . S
O90 In78 2.326 . S
O90 C82 1.252 . S
In91 O92 2.294 . S
In91 O93 2.326 . S
In91 O97 2.266 . S
In91 O98 2.326 . S
In91 O99 2.266 . S
In91 O100 2.326 . S
In91 O102 2.294 . S
In91 O103 2.326 . S
O92 In91 2.294 . S
O92 C101 1.240 . S
O93 In91 2.326 . S
O93 C101 1.252 . S
C94 O97 1.252 . S
C94 O98 1.260 . S
C95 O102 1.240 . S
C95 O103 1.252 . S
C96 O99 1.252 . S
C96 O100 1.260 . S
O97 In91 2.266 . S
O97 C94 1.252 . S
O98 In91 2.326 . S
O98 C94 1.260 . S
O99 In91 2.266 . S
O99 C96 1.252 . S
O100 In91 2.326 . S
O100 C96 1.260 . S
C101 O92 1.240 . S
C101 O93 1.252 . S
O102 In91 2.294 . S
O102 C95 1.240 . S
O103 In91 2.326 . S
O103 C95 1.252 . S
In104 O105 2.294 . S
In104 O106 2.326 . S
In104 O110 2.266 1_655 S
In104 O111 2.326 1_655 S
In104 O112 2.266 . S
In104 O113 2.326 . S
In104 O115 2.294 . S
In104 O116 2.326 . S
O105 In104 2.294 . S
O105 C114 1.240 . S
O106 In104 2.326 . S
O106 C114 1.252 . S
C107 O110 1.252 . S
C107 O111 1.260 . S
C108 O115 1.240 . S
C108 O116 1.252 . S
C109 O112 1.252 . S
C109 O113 1.260 . S
O110 In104 2.266 1_455 S
O110 C107 1.252 . S
O111 In104 2.326 1_455 S
O111 C107 1.260 . S
O112 In104 2.266 . S
O112 C109 1.252 . S
O113 In104 2.326 . S
O113 C109 1.260 . S
C114 O105 1.240 . S
C114 O106 1.252 . S
O115 In104 2.294 . S
O115 C108 1.240 . S
O116 In104 2.326 . S
O116 C108 1.252 . S
In117 O118 2.294 . S
In117 O119 2.326 . S
In117 O123 2.266 . S
In117 O124 2.326 . S
In117 O125 2.266 1_565 S
In117 O126 2.326 1_565 S
In117 O128 2.294 . S
In117 O129 2.326 . S
O118 In117 2.294 . S
O118 C127 1.240 . S
O119 In117 2.326 . S
O119 C127 1.252 . S
C120 O123 1.252 . S
C120 O124 1.260 . S
C121 O128 1.240 . S
C121 O129 1.252 . S
C122 O125 1.252 . S
C122 O126 1.260 . S
O123 In117 2.266 . S
O123 C120 1.252 . S
O124 In117 2.326 . S
O124 C120 1.260 . S
O125 In117 2.266 1_545 S
O125 C122 1.252 . S
O126 In117 2.326 1_545 S
O126 C122 1.260 . S
C127 O118 1.240 . S
C127 O119 1.252 . S
O128 In117 2.294 . S
O128 C121 1.240 . S
O129 In117 2.326 . S
O129 C121 1.252 . S
In130 O131 2.294 . S
In130 O132 2.326 . S
In130 O136 2.266 . S
In130 O137 2.326 . S
In130 O138 2.266 . S
In130 O139 2.326 . S
In130 O141 2.294 . S
In130 O142 2.326 . S
O131 In130 2.294 . S
O131 C140 1.240 . S
O132 In130 2.326 . S
O132 C140 1.252 . S
C133 O136 1.252 . S
C133 O137 1.260 . S
C134 O141 1.240 . S
C134 O142 1.252 . S
C135 O138 1.252 . S
C135 O139 1.260 . S
O136 In130 2.266 . S
O136 C133 1.252 . S
O137 In130 2.326 . S
O137 C133 1.260 . S
O138 In130 2.266 . S
O138 C135 1.252 . S
O139 In130 2.326 . S
O139 C135 1.260 . S
C140 O131 1.240 . S
C140 O132 1.252 . S
O141 In130 2.294 . S
O141 C134 1.240 . S
O142 In130 2.326 . S
O142 C134 1.252 . S
In143 O144 2.294 . S
In143 O145 2.326 . S
In143 O149 2.266 . S
In143 O150 2.326 . S
In143 O151 2.266 . S
In143 O152 2.326 . S
In143 O154 2.294 . S
In143 O155 2.326 . S
O144 In143 2.294 . S
O144 C153 1.240 . S
O145 In143 2.326 . S
O145 C153 1.252 . S
C146 O149 1.252 . S
C146 O150 1.260 . S
C147 O154 1.240 . S
C147 O155 1.252 . S
C148 O151 1.252 . S
C148 O152 1.260 . S
O149 In143 2.266 . S
O149 C146 1.252 . S
O150 In143 2.326 . S
O150 C146 1.260 . S
O151 In143 2.266 . S
O151 C148 1.252 . S
O152 In143 2.326 . S
O152 C148 1.260 . S
C153 O144 1.240 . S
C153 O145 1.252 . S
O154 In143 2.294 . S
O154 C147 1.240 . S
O155 In143 2.326 . S
O155 C147 1.252 . S
In156 O157 2.294 . S
In156 O158 2.326 . S
In156 O162 2.266 1_655 S
In156 O163 2.326 1_655 S
In156 O164 2.266 . S
In156 O165 2.326 . S
In156 O167 2.294 . S
In156 O168 2.326 . S
O157 In156 2.294 . S
O157 C166 1.240 . S
O158 In156 2.326 . S
O158 C166 1.252 . S
C159 O162 1.252 . S
C159 O163 1.260 . S
C160 O167 1.240 . S
C160 O168 1.252 . S
C161 O164 1.252 . S
C161 O165 1.260 . S
O162 In156 2.266 1_455 S
O162 C159 1.252 . S
O163 In156 2.326 1_455 S
O163 C159 1.260 . S
O164 In156 2.266 . S
O164 C161 1.252 . S
O165 In156 2.326 . S
O165 C161 1.260 . S
C166 O157 1.240 . S
C166 O158 1.252 . S
O167 In156 2.294 . S
O167 C160 1.240 . S
O168 In156 2.326 . S
O168 C160 1.252 . S
In169 O170 2.294 . S
In169 O171 2.326 . S
In169 O175 2.266 1_565 S
In169 O176 2.326 1_565 S
In169 O177 2.266 . S
In169 O178 2.326 . S
In169 O180 2.294 . S
In169 O181 2.326 . S
O170 In169 2.294 . S
O170 C179 1.240 . S
O171 In169 2.326 . S
O171 C179 1.252 . S
C172 O175 1.252 . S
C172 O176 1.260 . S
C173 O180 1.240 . S
C173 O181 1.252 . S
C174 O177 1.252 . S
C174 O178 1.260 . S
O175 In169 2.266 1_545 S
O175 C172 1.252 . S
O176 In169 2.326 1_545 S
O176 C172 1.260 . S
O177 In169 2.266 . S
O177 C174 1.252 . S
O178 In169 2.326 . S
O178 C174 1.260 . S
C179 O170 1.240 . S
C179 O171 1.252 . S
O180 In169 2.294 . S
O180 C173 1.240 . S
O181 In169 2.326 . S
O181 C173 1.252 . S
In182 O183 2.294 . S
In182 O184 2.326 . S
In182 O188 2.266 . S
In182 O189 2.326 . S
In182 O190 2.266 . S
In182 O191 2.326 . S
In182 O193 2.294 . S
In182 O194 2.326 . S
O183 In182 2.294 . S
O183 C192 1.240 . S
O184 In182 2.326 . S
O184 C192 1.252 . S
C185 O188 1.252 . S
C185 O189 1.260 . S
C186 O193 1.240 . S
C186 O194 1.252 . S
C187 O190 1.252 . S
C187 O191 1.260 . S
O188 In182 2.266 . S
O188 C185 1.252 . S
O189 In182 2.326 . S
O189 C185 1.260 . S
O190 In182 2.266 . S
O190 C187 1.252 . S
O191 In182 2.326 . S
O191 C187 1.260 . S
C192 O183 1.240 . S
C192 O184 1.252 . S
O193 In182 2.294 . S
O193 C186 1.240 . S
O194 In182 2.326 . S
O194 C186 1.252 . S
In195 O196 2.294 . S
In195 O197 2.326 . S
In195 O201 2.266 . S
In195 O202 2.326 . S
In195 O203 2.266 . S
In195 O204 2.326 . S
In195 O206 2.294 . S
In195 O207 2.326 . S
O196 In195 2.294 . S
O196 C205 1.240 . S
O197 In195 2.326 . S
O197 C205 1.252 . S
C198 O201 1.252 . S
C198 O202 1.260 . S
C199 O206 1.240 . S
C199 O207 1.252 . S
C200 O203 1.252 . S
C200 O204 1.260 . S
O201 In195 2.266 . S
O201 C198 1.252 . S
O202 In195 2.326 . S
O202 C198 1.260 . S
O203 In195 2.266 . S
O203 C200 1.252 . S
O204 In195 2.326 . S
O204 C200 1.260 . S
C205 O196 1.240 . S
C205 O197 1.252 . S
O206 In195 2.294 . S
O206 C199 1.240 . S
O207 In195 2.326 . S
O207 C199 1.252 . S
H208 C220 0.930 1_655 S
H209 C222 0.930 . S
H210 C223 0.930 . S
H211 C227 0.946 1_556 S
H212 C227 0.959 . S
H213 C227 0.961 . S
H214 C228 0.960 . S
H215 C228 0.961 . S
H216 C228 0.959 1_455 S
H217 C231 0.929 . S
H218 C232 0.931 . S
H219 C234 0.930 1_655 S
C220 H208 0.930 1_455 S
C220 C221 1.399 . S
C220 C225 1.399 . S
C221 C220 1.399 . S
C221 C222 1.376 . S
C222 H209 0.930 . S
C222 C221 1.376 . S
C222 C223 1.388 1_554 S
C223 H210 0.930 . S
C223 C222 1.388 1_556 S
C223 C224 1.390 1_556 S
C224 C223 1.390 1_554 S
C224 C225 1.394 . S
C224 C230 1.465 1_554 S
C225 C220 1.399 . S
C225 C224 1.394 . S
C225 C226 1.516 1_455 S
C226 C225 1.516 1_655 S
C226 C227 1.502 . S
C226 C228 1.561 . S
C226 C229 1.526 1_654 S
C227 H211 0.946 1_554 S
C227 H212 0.959 . S
C227 H213 0.961 . S
C227 C226 1.502 . S
C228 H214 0.960 . S
C228 H215 0.961 . S
C228 H216 0.959 1_655 S
C228 C226 1.561 . S
C229 C226 1.526 1_456 S
C229 C230 1.396 . S
C229 C234 1.390 . S
C230 C224 1.465 1_556 S
C230 C229 1.396 . S
C230 C231 1.399 . S
C231 H217 0.929 . S
C231 C230 1.399 . S
C231 C232 1.385 . S
C232 H218 0.931 . S
C232 C231 1.385 . S
C232 C233 1.389 . S
C233 C232 1.389 . S
C233 C234 1.387 . S
C234 H219 0.930 1_455 S
C234 C229 1.390 . S
C234 C233 1.387 . S
H235 C247 0.930 . S
H236 C249 0.930 . S
H237 C250 0.930 . S
H238 C254 0.959 . S
H239 C254 0.959 . S
H240 C254 0.961 . S
H241 C255 0.960 . S
H242 C255 0.961 . S
H243 C255 0.959 . S
H244 C258 0.929 . S
H245 C259 0.931 . S
H246 C261 0.971 . S
C247 H235 0.930 . S
C247 C248 1.399 1_565 S
C247 C252 1.399 1_565 S
C248 C247 1.399 1_545 S
C248 C249 1.376 . S
C249 H236 0.930 . S
C249 C248 1.376 . S
C249 C250 1.388 . S
C250 H237 0.930 . S
C250 C249 1.388 . S
C250 C251 1.390 . S
C251 C250 1.390 . S
C251 C252 1.394 . S
C251 C257 1.465 . S
C252 C247 1.399 1_545 S
C252 C251 1.394 . S
C252 C253 1.516 1_545 S
C253 C252 1.516 1_565 S
C253 C254 1.502 . S
C253 C255 1.561 . S
C253 C256 1.526 1_565 S
C254 H238 0.959 . S
C254 H239 0.959 . S
C254 H240 0.961 . S
C254 C253 1.502 . S
C255 H241 0.960 . S
C255 H242 0.961 . S
C255 H243 0.959 . S
C255 C253 1.561 . S
C256 C253 1.526 1_545 S
C256 C257 1.396 . S
C256 C261 1.383 1_545 S
C257 C251 1.465 . S
C257 C256 1.396 . S
C257 C258 1.399 . S
C258 H244 0.929 . S
C258 C257 1.399 . S
C258 C259 1.385 . S
C259 H245 0.931 . S
C259 C258 1.385 . S
C259 C260 1.389 . S
C260 C259 1.389 . S
C260 C261 1.354 1_545 S
C261 H246 0.971 . S
C261 C256 1.383 1_565 S
C261 C260 1.354 1_565 S
H262 C274 0.930 1_556 S
H263 C276 0.930 . S
H264 C277 0.930 . S
H265 C281 0.959 . S
H266 C281 0.959 . S
H267 C281 0.961 . S
H268 C282 0.960 . S
H269 C282 0.961 . S
H270 C282 0.959 . S
H271 C285 0.929 . S
H272 C286 0.931 1_554 S
H273 C288 0.930 . S
C274 H262 0.930 1_554 S
C274 C275 1.399 . S
C274 C279 1.399 1_554 S
C275 C274 1.399 . S
C275 C276 1.376 . S
C276 H263 0.930 . S
C276 C275 1.376 . S
C276 C277 1.388 . S
C277 H264 0.930 . S
C277 C276 1.388 . S
C277 C278 1.390 . S
C278 C277 1.390 . S
C278 C279 1.394 1_554 S
C278 C284 1.465 . S
C279 C274 1.399 1_556 S
C279 C278 1.394 1_556 S
C279 C280 1.516 . S
C280 C279 1.516 . S
C280 C281 1.502 . S
C280 C282 1.561 . S
C280 C283 1.526 . S
C281 H265 0.959 . S
C281 H266 0.959 . S
C281 H267 0.961 . S
C281 C280 1.502 . S
C282 H268 0.960 . S
C282 H269 0.961 . S
C282 H270 0.959 . S
C282 C280 1.561 . S
C283 C280 1.526 . S
C283 C284 1.396 1_556 S
C283 C288 1.390 . S
C284 C278 1.465 . S
C284 C283 1.396 1_554 S
C284 C285 1.399 . S
C285 H271 0.929 . S
C285 C284 1.399 . S
C285 C286 1.385 1_554 S
C286 H272 0.931 1_556 S
C286 C285 1.385 1_556 S
C286 C287 1.389 . S
C287 C286 1.389 . S
C287 C288 1.387 . S
C288 H273 0.930 . S
C288 C283 1.390 . S
C288 C287 1.387 . S
H289 C301 0.930 . S
H290 C303 0.930 . S
H291 C304 0.930 . S
H292 C308 0.959 . S
H293 C308 0.959 . S
H294 C308 0.961 . S
H295 C309 0.960 . S
H296 C309 0.961 . S
H297 C309 0.959 . S
H298 C312 0.929 . S
H299 C313 0.931 . S
H300 C315 0.930 . S
C301 H289 0.930 . S
C301 C302 1.399 . S
C301 C306 1.399 . S
C302 C301 1.399 . S
C302 C303 1.376 . S
C303 H290 0.930 . S
C303 C302 1.376 . S
C303 C304 1.388 . S
C304 H291 0.930 . S
C304 C303 1.388 . S
C304 C305 1.390 . S
C305 C304 1.390 . S
C305 C306 1.394 . S
C305 C311 1.465 . S
C306 C301 1.399 . S
C306 C305 1.394 . S
C306 C307 1.516 . S
C307 C306 1.516 . S
C307 C308 1.502 . S
C307 C309 1.561 . S
C307 C310 1.526 . S
C308 H292 0.959 . S
C308 H293 0.959 . S
C308 H294 0.961 . S
C308 C307 1.502 . S
C309 H295 0.960 . S
C309 H296 0.961 . S
C309 H297 0.959 . S
C309 C307 1.561 . S
C310 C307 1.526 . S
C310 C311 1.396 . S
C310 C315 1.390 . S
C311 C305 1.465 . S
C311 C310 1.396 . S
C311 C312 1.399 . S
C312 H298 0.929 . S
C312 C311 1.399 . S
C312 C313 1.385 . S
C313 H299 0.931 . S
C313 C312 1.385 . S
C313 C314 1.389 . S
C314 C313 1.389 . S
C314 C315 1.387 . S
C315 H300 0.930 . S
C315 C310 1.390 . S
C315 C314 1.387 . S
H316 C328 0.930 . S
H317 C330 0.930 . S
H318 C331 0.930 . S
H319 C335 0.959 . S
H320 C335 0.959 1_554 S
H321 C335 0.961 . S
H322 C336 0.960 . S
H323 C336 0.961 . S
H324 C336 0.959 . S
H325 C339 0.929 . S
H326 C340 0.931 . S
H327 C342 0.930 . S
C328 H316 0.930 . S
C328 C329 1.399 1_455 S
C328 C333 1.399 1_455 S
C329 C328 1.399 1_655 S
C329 C330 1.376 . S
C330 H317 0.930 . S
C330 C329 1.376 . S
C330 C331 1.388 . S
C331 H318 0.930 . S
C331 C330 1.388 . S
C331 C332 1.390 . S
C332 C331 1.390 . S
C332 C333 1.394 . S
C332 C338 1.465 1_556 S
C333 C328 1.399 1_655 S
C333 C332 1.394 . S
C333 C334 1.516 1_656 S
C334 C333 1.516 1_454 S
C334 C335 1.502 1_554 S
C334 C336 1.561 . S
C334 C337 1.526 1_455 S
C335 H319 0.959 . S
C335 H320 0.959 1_556 S
C335 H321 0.961 . S
C335 C334 1.502 1_556 S
C336 H322 0.960 . S
C336 H323 0.961 . S
C336 H324 0.959 . S
C336 C334 1.561 . S
C337 C334 1.526 1_655 S
C337 C338 1.396 . S
C337 C342 1.390 1_655 S
C338 C332 1.465 1_554 S
C338 C337 1.396 . S
C338 C339 1.399 . S
C339 H325 0.929 . S
C339 C338 1.399 . S
C339 C340 1.385 . S
C340 H326 0.931 . S
C340 C339 1.385 . S
C340 C341 1.389 . S
C341 C340 1.389 . S
C341 C342 1.387 1_655 S
C342 H327 0.930 . S
C342 C337 1.390 1_455 S
C342 C341 1.387 1_455 S
H343 C355 0.930 . S
H344 C357 0.930 . S
H345 C358 0.930 . S
H346 C362 0.959 . S
H347 C362 0.959 . S
H348 C362 0.961 . S
H349 C363 0.960 . S
H350 C363 0.961 . S
H351 C363 0.959 . S
H352 C366 0.929 . S
H353 C367 0.931 . S
H354 C369 0.930 . S
C355 H343 0.930 . S
C355 C356 1.399 1_545 S
C355 C360 1.399 1_545 S
C356 C355 1.399 1_565 S
C356 C357 1.376 . S
C357 H344 0.930 . S
C357 C356 1.376 . S
C357 C358 1.388 . S
C358 H345 0.930 . S
C358 C357 1.388 . S
C358 C359 1.390 . S
C359 C358 1.390 . S
C359 C360 1.394 . S
C359 C365 1.465 . S
C360 C355 1.399 1_565 S
C360 C359 1.394 . S
C360 C361 1.516 1_565 S
C361 C360 1.516 1_545 S
C361 C362 1.502 . S
C361 C363 1.561 . S
C361 C364 1.526 1_545 S
C362 H346 0.959 . S
C362 H347 0.959 . S
C362 H348 0.961 . S
C362 C361 1.502 . S
C363 H349 0.960 . S
C363 H350 0.961 . S
C363 H351 0.959 . S
C363 C361 1.561 . S
C364 C361 1.526 1_565 S
C364 C365 1.396 . S
C364 C369 1.390 1_565 S
C365 C359 1.465 . S
C365 C364 1.396 . S
C365 C366 1.399 . S
C366 H352 0.929 . S
C366 C365 1.399 . S
C366 C367 1.385 . S
C367 H353 0.931 . S
C367 C366 1.385 . S
C367 C368 1.389 . S
C368 C367 1.389 . S
C368 C369 1.387 1_565 S
C369 H354 0.930 . S
C369 C364 1.390 1_545 S
C369 C368 1.387 1_545 S
H370 C382 0.930 . S
H371 C384 0.930 . S
H372 C385 0.930 . S
H373 C389 0.959 . S
H374 C389 0.959 . S
H375 C389 0.961 . S
H376 C390 0.960 . S
H377 C390 0.961 . S
H378 C390 0.959 . S
H379 C393 0.929 . S
H380 C394 0.931 . S
H381 C396 0.930 . S
C382 H370 0.930 . S
C382 C383 1.399 . S
C382 C387 1.399 . S
C383 C382 1.399 . S
C383 C384 1.376 . S
C384 H371 0.930 . S
C384 C383 1.376 . S
C384 C385 1.388 . S
C385 H372 0.930 . S
C385 C384 1.388 . S
C385 C386 1.390 . S
C386 C385 1.390 . S
C386 C387 1.394 . S
C386 C392 1.465 1_556 S
C387 C382 1.399 . S
C387 C386 1.394 . S
C387 C388 1.516 1_556 S
C388 C387 1.516 1_554 S
C388 C389 1.502 . S
C388 C390 1.561 . S
C388 C391 1.526 . S
C389 H373 0.959 . S
C389 H374 0.959 . S
C389 H375 0.961 . S
C389 C388 1.502 . S
C390 H376 0.960 . S
C390 H377 0.961 . S
C390 H378 0.959 . S
C390 C388 1.561 . S
C391 C388 1.526 . S
C391 C392 1.396 . S
C391 C396 1.390 . S
C392 C386 1.465 1_554 S
C392 C391 1.396 . S
C392 C393 1.399 1_554 S
C393 H379 0.929 . S
C393 C392 1.399 1_556 S
C393 C394 1.385 1_556 S
C394 H380 0.931 . S
C394 C393 1.385 1_554 S
C394 C395 1.389 . S
C395 C394 1.389 . S
C395 C396 1.387 . S
C396 H381 0.930 . S
C396 C391 1.390 . S
C396 C395 1.387 . S
H397 C409 0.930 . S
H398 C411 0.930 . S
H399 C412 0.930 . S
H400 C416 0.959 . S
H401 C416 0.959 . S
H402 C416 0.961 . S
H403 C417 0.960 . S
H404 C417 0.961 . S
H405 C417 0.959 . S
H406 C420 0.929 . S
H407 C421 0.931 . S
H408 C423 0.930 . S
C409 H397 0.930 . S
C409 C410 1.399 . S
C409 C414 1.399 . S
C410 C409 1.399 . S
C410 C411 1.376 . S
C411 H398 0.930 . S
C411 C410 1.376 . S
C411 C412 1.388 . S
C412 H399 0.930 . S
C412 C411 1.388 . S
C412 C413 1.390 . S
C413 C412 1.390 . S
C413 C414 1.394 . S
C413 C419 1.465 . S
C414 C409 1.399 . S
C414 C413 1.394 . S
C414 C415 1.516 . S
C415 C414 1.516 . S
C415 C416 1.502 . S
C415 C417 1.561 . S
C415 C418 1.526 . S
C416 H400 0.959 . S
C416 H401 0.959 . S
C416 H402 0.961 . S
C416 C415 1.502 . S
C417 H403 0.960 . S
C417 H404 0.961 . S
C417 H405 0.959 . S
C417 C415 1.561 . S
C418 C415 1.526 . S
C418 C419 1.396 . S
C418 C423 1.390 . S
C419 C413 1.465 . S
C419 C418 1.396 . S
C419 C420 1.399 . S
C420 H406 0.929 . S
C420 C419 1.399 . S
C420 C421 1.385 . S
C421 H407 0.931 . S
C421 C420 1.385 . S
C421 C422 1.389 . S
C422 C421 1.389 . S
C422 C423 1.387 . S
C423 H408 0.930 . S
C423 C418 1.390 . S
C423 C422 1.387 . S
H424 C436 0.930 . S
H425 C438 0.930 . S
H426 C439 0.930 . S
H427 C443 0.959 . S
H428 C443 0.959 . S
H429 C443 0.961 . S
H430 C444 0.960 . S
H431 C444 0.961 . S
H432 C444 0.959 . S
H433 C447 0.929 . S
H434 C448 0.931 . S
H435 C450 0.930 . S
C436 H424 0.930 . S
C436 C437 1.399 . S
C436 C441 1.399 . S
C437 C436 1.399 . S
C437 C438 1.376 . S
C438 H425 0.930 . S
C438 C437 1.376 . S
C438 C439 1.388 . S
C439 H426 0.930 . S
C439 C438 1.388 . S
C439 C440 1.390 . S
C440 C439 1.390 . S
C440 C441 1.394 . S
C440 C446 1.465 . S
C441 C436 1.399 . S
C441 C440 1.394 . S
C441 C442 1.516 . S
C442 C441 1.516 . S
C442 C443 1.502 . S
C442 C444 1.561 . S
C442 C445 1.526 . S
C443 H427 0.959 . S
C443 H428 0.959 . S
C443 H429 0.961 . S
C443 C442 1.502 . S
C444 H430 0.960 . S
C444 H431 0.961 . S
C444 H432 0.959 . S
C444 C442 1.561 . S
C445 C442 1.526 . S
C445 C446 1.396 . S
C445 C450 1.390 . S
C446 C440 1.465 . S
C446 C445 1.396 . S
C446 C447 1.399 . S
C447 H433 0.929 . S
C447 C446 1.399 . S
C447 C448 1.385 . S
C448 H434 0.931 . S
C448 C447 1.385 . S
C448 C449 1.389 . S
C449 C448 1.389 . S
C449 C450 1.387 . S
C450 H435 0.930 . S
C450 C445 1.390 . S
C450 C449 1.387 . S
H451 C463 0.930 . S
H452 C465 0.930 . S
H453 C466 0.930 . S
H454 C470 0.959 . S
H455 C470 0.959 . S
H456 C470 0.961 . S
H457 C471 0.960 . S
H458 C471 0.961 . S
H459 C471 0.959 . S
H460 C474 0.929 . S
H461 C475 0.931 . S
H462 C477 0.930 . S
C463 H451 0.930 . S
C463 C464 1.399 . S
C463 C468 1.399 . S
C464 C463 1.399 . S
C464 C465 1.376 . S
C465 H452 0.930 . S
C465 C464 1.376 . S
C465 C466 1.388 . S
C466 H453 0.930 . S
C466 C465 1.388 . S
C466 C467 1.390 . S
C467 C466 1.390 . S
C467 C468 1.394 . S
C467 C473 1.465 . S
C468 C463 1.399 . S
C468 C467 1.394 . S
C468 C469 1.516 . S
C469 C468 1.516 . S
C469 C470 1.502 . S
C469 C471 1.561 . S
C469 C472 1.526 . S
C470 H454 0.959 . S
C470 H455 0.959 . S
C470 H456 0.961 . S
C470 C469 1.502 . S
C471 H457 0.960 . S
C471 H458 0.961 . S
C471 H459 0.959 . S
C471 C469 1.561 . S
C472 C469 1.526 . S
C472 C473 1.396 . S
C472 C477 1.390 . S
C473 C467 1.465 . S
C473 C472 1.396 . S
C473 C474 1.399 . S
C474 H460 0.929 . S
C474 C473 1.399 . S
C474 C475 1.385 . S
C475 H461 0.931 . S
C475 C474 1.385 . S
C475 C476 1.389 . S
C476 C475 1.389 . S
C476 C477 1.387 . S
C477 H462 0.930 . S
C477 C472 1.390 . S
C477 C476 1.387 . S
H478 C490 0.930 . S
H479 C492 0.942 . S
H480 C493 0.930 . S
H481 C497 0.959 . S
H482 C497 0.959 . S
H483 C497 0.961 . S
H484 C498 0.960 . S
H485 C498 0.961 . S
H486 C498 0.959 . S
H487 C501 0.929 . S
H488 C502 0.931 . S
H489 C504 0.930 . S
C490 H478 0.930 . S
C490 C491 1.399 . S
C490 C495 1.399 . S
C491 C490 1.399 . S
C491 C492 1.373 1_556 S
C492 H479 0.942 . S
C492 C491 1.373 1_554 S
C492 C493 1.380 1_554 S
C493 H480 0.930 . S
C493 C492 1.380 1_556 S
C493 C494 1.390 . S
C494 C493 1.390 . S
C494 C495 1.394 . S
C494 C500 1.465 . S
C495 C490 1.399 . S
C495 C494 1.394 . S
C495 C496 1.516 . S
C496 C495 1.516 . S
C496 C497 1.502 . S
C496 C498 1.561 . S
C496 C499 1.526 . S
C497 H481 0.959 . S
C497 H482 0.959 . S
C497 H483 0.961 . S
C497 C496 1.502 . S
C498 H484 0.960 . S
C498 H485 0.961 . S
C498 H486 0.959 . S
C498 C496 1.561 . S
C499 C496 1.526 . S
C499 C500 1.396 . S
C499 C504 1.390 . S
C500 C494 1.465 . S
C500 C499 1.396 . S
C500 C501 1.399 . S
C501 H487 0.929 . S
C501 C500 1.399 . S
C501 C502 1.385 . S
C502 H488 0.931 . S
C502 C501 1.385 . S
C502 C503 1.389 . S
C503 C502 1.389 . S
C503 C504 1.387 . S
C504 H489 0.930 . S
C504 C499 1.390 . S
C504 C503 1.387 . S
H505 C517 0.930 . S
H506 C519 0.930 . S
H507 C520 0.930 . S
H508 C524 0.959 . S
H509 C524 0.959 . S
H510 C524 0.961 . S
H511 C525 0.960 . S
H512 C525 0.961 . S
H513 C525 0.959 . S
H514 C528 0.929 . S
H515 C529 0.931 . S
H516 C531 0.930 . S
C517 H505 0.930 . S
C517 C518 1.399 . S
C517 C522 1.399 . S
C518 C517 1.399 . S
C518 C519 1.376 . S
C519 H506 0.930 . S
C519 C518 1.376 . S
C519 C520 1.388 . S
C520 H507 0.930 . S
C520 C519 1.388 . S
C520 C521 1.390 . S
C521 C520 1.390 . S
C521 C522 1.394 . S
C521 C527 1.465 . S
C522 C517 1.399 . S
C522 C521 1.394 . S
C522 C523 1.516 . S
C523 C522 1.516 . S
C523 C524 1.502 . S
C523 C525 1.561 . S
C523 C526 1.526 . S
C524 H508 0.959 . S
C524 H509 0.959 . S
C524 H510 0.961 . S
C524 C523 1.502 . S
C525 H511 0.960 . S
C525 H512 0.961 . S
C525 H513 0.959 . S
C525 C523 1.561 . S
C526 C523 1.526 . S
C526 C527 1.396 . S
C526 C531 1.390 . S
C527 C521 1.465 . S
C527 C526 1.396 . S
C527 C528 1.399 . S
C528 H514 0.929 . S
C528 C527 1.399 . S
C528 C529 1.385 . S
C529 H515 0.931 . S
C529 C528 1.385 . S
C529 C530 1.389 . S
C530 C529 1.389 . S
C530 C531 1.387 . S
C531 H516 0.930 . S
C531 C526 1.390 . S
C531 C530 1.387 . S
H532 C544 0.930 . S
H533 C546 0.930 . S
H534 C547 0.930 . S
H535 C551 0.959 . S
H536 C551 0.959 . S
H537 C551 0.961 . S
H538 C552 0.960 . S
H539 C552 0.961 . S
H540 C552 0.959 . S
H541 C555 0.929 . S
H542 C556 0.931 . S
H543 C558 0.930 . S
C544 H532 0.930 . S
C544 C545 1.399 . S
C544 C549 1.399 . S
C545 C544 1.399 . S
C545 C546 1.376 . S
C546 H533 0.930 . S
C546 C545 1.376 . S
C546 C547 1.388 . S
C547 H534 0.930 . S
C547 C546 1.388 . S
C547 C548 1.390 . S
C548 C547 1.390 . S
C548 C549 1.394 . S
C548 C554 1.465 . S
C549 C544 1.399 . S
C549 C548 1.394 . S
C549 C550 1.516 . S
C550 C549 1.516 . S
C550 C551 1.502 . S
C550 C552 1.561 . S
C550 C553 1.526 . S
C551 H535 0.959 . S
C551 H536 0.959 . S
C551 H537 0.961 . S
C551 C550 1.502 . S
C552 H538 0.960 . S
C552 H539 0.961 . S
C552 H540 0.959 . S
C552 C550 1.561 . S
C553 C550 1.526 . S
C553 C554 1.396 . S
C553 C558 1.390 . S
C554 C548 1.465 . S
C554 C553 1.396 . S
C554 C555 1.399 . S
C555 H541 0.929 . S
C555 C554 1.399 . S
C555 C556 1.385 . S
C556 H542 0.931 . S
C556 C555 1.385 . S
C556 C557 1.389 . S
C557 C556 1.389 . S
C557 C558 1.387 . S
C558 H543 0.930 . S
C558 C553 1.390 . S
C558 C557 1.387 . S
H559 C571 0.930 . S
H560 C573 0.930 . S
H561 C574 0.930 . S
H562 C578 0.959 . S
H563 C578 0.959 . S
H564 C578 0.961 . S
H565 C579 0.960 . S
H566 C579 0.961 . S
H567 C579 0.959 . S
H568 C582 0.929 . S
H569 C583 0.931 . S
H570 C585 0.930 . S
C571 H559 0.930 . S
C571 C572 1.399 . S
C571 C576 1.399 . S
C572 C571 1.399 . S
C572 C573 1.376 . S
C573 H560 0.930 . S
C573 C572 1.376 . S
C573 C574 1.388 . S
C574 H561 0.930 . S
C574 C573 1.388 . S
C574 C575 1.390 . S
C575 C574 1.390 . S
C575 C576 1.394 . S
C575 C581 1.465 . S
C576 C571 1.399 . S
C576 C575 1.394 . S
C576 C577 1.516 . S
C577 C576 1.516 . S
C577 C578 1.502 . S
C577 C579 1.561 . S
C577 C580 1.526 . S
C578 H562 0.959 . S
C578 H563 0.959 . S
C578 H564 0.961 . S
C578 C577 1.502 . S
C579 H565 0.960 . S
C579 H566 0.961 . S
C579 H567 0.959 . S
C579 C577 1.561 . S
C580 C577 1.526 . S
C580 C581 1.396 . S
C580 C585 1.390 . S
C581 C575 1.465 . S
C581 C580 1.396 . S
C581 C582 1.399 . S
C582 H568 0.929 . S
C582 C581 1.399 . S
C582 C583 1.385 . S
C583 H569 0.931 . S
C583 C582 1.385 . S
C583 C584 1.389 . S
C584 C583 1.389 . S
C584 C585 1.387 . S
C585 H570 0.930 . S
C585 C580 1.390 . S
C585 C584 1.387 . S
H586 C598 0.930 . S
H587 C600 0.930 . S
H588 C601 0.930 . S
H589 C605 0.959 . S
H590 C605 0.959 . S
H591 C605 0.961 . S
H592 C606 0.960 . S
H593 C606 0.961 . S
H594 C606 0.959 . S
H595 C609 0.929 . S
H596 C610 0.931 1_556 S
H597 C612 0.930 . S
C598 H586 0.930 . S
C598 C599 1.399 . S
C598 C603 1.399 . S
C599 C598 1.399 . S
C599 C600 1.376 . S
C600 H587 0.930 . S
C600 C599 1.376 . S
C600 C601 1.388 . S
C601 H588 0.930 . S
C601 C600 1.388 . S
C601 C602 1.390 . S
C602 C601 1.390 . S
C602 C603 1.394 . S
C602 C608 1.465 . S
C603 C598 1.399 . S
C603 C602 1.394 . S
C603 C604 1.516 . S
C604 C603 1.516 . S
C604 C605 1.502 . S
C604 C606 1.561 . S
C604 C607 1.526 . S
C605 H589 0.959 . S
C605 H590 0.959 . S
C605 H591 0.961 . S
C605 C604 1.502 . S
C606 H592 0.960 . S
C606 H593 0.961 . S
C606 H594 0.959 . S
C606 C604 1.561 . S
C607 C604 1.526 . S
C607 C608 1.396 . S
C607 C612 1.390 . S
C608 C602 1.465 . S
C608 C607 1.396 . S
C608 C609 1.399 . S
C609 H595 0.929 . S
C609 C608 1.399 . S
C609 C610 1.385 . S
C610 H596 0.931 1_554 S
C610 C609 1.385 . S
C610 C611 1.389 . S
C611 C610 1.389 . S
C611 C612 1.387 . S
C612 H597 0.930 . S
C612 C607 1.390 . S
C612 C611 1.387 . S
H613 C625 0.930 . S
H614 C627 0.930 . S
H615 C628 0.930 . S
H616 C632 0.959 . S
H617 C632 0.959 . S
H618 C632 0.961 . S
H619 C633 0.960 . S
H620 C633 0.961 . S
H621 C633 0.959 . S
H622 C636 0.929 . S
H623 C637 0.931 . S
H624 C639 0.930 . S
C625 H613 0.930 . S
C625 C626 1.399 . S
C625 C630 1.399 . S
C626 C625 1.399 . S
C626 C627 1.376 . S
C627 H614 0.930 . S
C627 C626 1.376 . S
C627 C628 1.388 . S
C628 H615 0.930 . S
C628 C627 1.388 . S
C628 C629 1.390 . S
C629 C628 1.390 . S
C629 C630 1.394 . S
C629 C635 1.465 . S
C630 C625 1.399 . S
C630 C629 1.394 . S
C630 C631 1.516 . S
C631 C630 1.516 . S
C631 C632 1.502 . S
C631 C633 1.561 . S
C631 C634 1.526 . S
C632 H616 0.959 . S
C632 H617 0.959 . S
C632 H618 0.961 . S
C632 C631 1.502 . S
C633 H619 0.960 . S
C633 H620 0.961 . S
C633 H621 0.959 . S
C633 C631 1.561 . S
C634 C631 1.526 . S
C634 C635 1.396 . S
C634 C639 1.390 . S
C635 C629 1.465 . S
C635 C634 1.396 . S
C635 C636 1.399 . S
C636 H622 0.929 . S
C636 C635 1.399 . S
C636 C637 1.385 . S
C637 H623 0.931 . S
C637 C636 1.385 . S
C637 C638 1.389 . S
C638 C637 1.389 . S
C638 C639 1.387 . S
C639 H624 0.930 . S
C639 C634 1.390 . S
C639 C638 1.387 . S
H640 C652 0.930 . S
H641 C654 0.930 . S
H642 C655 0.930 . S
H643 C659 0.959 . S
H644 C659 0.959 . S
H645 C659 0.961 . S
H646 C660 0.960 . S
H647 C660 0.961 . S
H648 C660 0.959 . S
H649 C663 0.929 . S
H650 C664 0.931 . S
H651 C666 0.930 . S
C652 H640 0.930 . S
C652 C653 1.399 . S
C652 C657 1.399 . S
C653 C652 1.399 . S
C653 C654 1.376 . S
C654 H641 0.930 . S
C654 C653 1.376 . S
C654 C655 1.388 . S
C655 H642 0.930 . S
C655 C654 1.388 . S
C655 C656 1.390 . S
C656 C655 1.390 . S
C656 C657 1.394 . S
C656 C662 1.465 . S
C657 C652 1.399 . S
C657 C656 1.394 . S
C657 C658 1.516 . S
C658 C657 1.516 . S
C658 C659 1.502 . S
C658 C660 1.561 . S
C658 C661 1.526 . S
C659 H643 0.959 . S
C659 H644 0.959 . S
C659 H645 0.961 . S
C659 C658 1.502 . S
C660 H646 0.960 . S
C660 H647 0.961 . S
C660 H648 0.959 . S
C660 C658 1.561 . S
C661 C658 1.526 . S
C661 C662 1.396 . S
C661 C666 1.390 . S
C662 C656 1.465 . S
C662 C661 1.396 . S
C662 C663 1.399 . S
C663 H649 0.929 . S
C663 C662 1.399 . S
C663 C664 1.385 . S
C664 H650 0.931 . S
C664 C663 1.385 . S
C664 C665 1.389 . S
C665 C664 1.389 . S
C665 C666 1.387 . S
C666 H651 0.930 . S
C666 C661 1.390 . S
C666 C665 1.387 . S
H667 C679 0.930 . S
H668 C681 0.930 . S
H669 C682 0.930 . S
H670 C686 0.959 . S
H671 C686 0.959 . S
H672 C686 0.961 . S
H673 C687 0.960 . S
H674 C687 0.961 . S
H675 C687 0.959 . S
H676 C690 0.929 . S
H677 C691 0.931 . S
H678 C693 0.930 . S
C679 H667 0.930 . S
C679 C680 1.399 . S
C679 C684 1.399 . S
C680 C679 1.399 . S
C680 C681 1.376 . S
C681 H668 0.930 . S
C681 C680 1.376 . S
C681 C682 1.388 . S
C682 H669 0.930 . S
C682 C681 1.388 . S
C682 C683 1.390 . S
C683 C682 1.390 . S
C683 C684 1.394 . S
C683 C689 1.465 . S
C684 C679 1.399 . S
C684 C683 1.394 . S
C684 C685 1.516 . S
C685 C684 1.516 . S
C685 C686 1.502 . S
C685 C687 1.561 . S
C685 C688 1.526 . S
C686 H670 0.959 . S
C686 H671 0.959 . S
C686 H672 0.961 . S
C686 C685 1.502 . S
C687 H673 0.960 . S
C687 H674 0.961 . S
C687 H675 0.959 . S
C687 C685 1.561 . S
C688 C685 1.526 . S
C688 C689 1.396 . S
C688 C693 1.390 . S
C689 C683 1.465 . S
C689 C688 1.396 . S
C689 C690 1.399 . S
C690 H676 0.929 . S
C690 C689 1.399 . S
C690 C691 1.385 . S
C691 H677 0.931 . S
C691 C690 1.385 . S
C691 C692 1.389 . S
C692 C691 1.389 . S
C692 C693 1.387 . S
C693 H678 0.930 . S
C693 C688 1.390 . S
C693 C692 1.387 . S
H694 C706 0.930 . S
H695 C708 0.930 . S
H696 C709 0.930 . S
H697 C713 0.959 . S
H698 C713 0.959 . S
H699 C713 0.961 . S
H700 C714 0.960 . S
H701 C714 0.961 . S
H702 C714 0.959 . S
H703 C717 0.929 . S
H704 C718 0.931 1_556 S
H705 C720 0.930 . S
C706 H694 0.930 . S
C706 C707 1.399 . S
C706 C711 1.399 . S
C707 C706 1.399 . S
C707 C708 1.376 . S
C708 H695 0.930 . S
C708 C707 1.376 . S
C708 C709 1.388 . S
C709 H696 0.930 . S
C709 C708 1.388 . S
C709 C710 1.390 . S
C710 C709 1.390 . S
C710 C711 1.394 . S
C710 C716 1.465 . S
C711 C706 1.399 . S
C711 C710 1.394 . S
C711 C712 1.516 . S
C712 C711 1.516 . S
C712 C713 1.502 . S
C712 C714 1.561 . S
C712 C715 1.526 . S
C713 H697 0.959 . S
C713 H698 0.959 . S
C713 H699 0.961 . S
C713 C712 1.502 . S
C714 H700 0.960 . S
C714 H701 0.961 . S
C714 H702 0.959 . S
C714 C712 1.561 . S
C715 C712 1.526 . S
C715 C716 1.396 . S
C715 C720 1.390 . S
C716 C710 1.465 . S
C716 C715 1.396 . S
C716 C717 1.399 . S
C717 H703 0.929 . S
C717 C716 1.399 . S
C717 C718 1.385 . S
C718 H704 0.931 1_554 S
C718 C717 1.385 . S
C718 C719 1.389 . S
C719 C718 1.389 . S
C719 C720 1.387 . S
C720 H705 0.930 . S
C720 C715 1.390 . S
C720 C719 1.387 . S
H721 C733 0.930 . S
H722 C735 0.930 . S
H723 C736 0.930 . S
H724 C740 0.959 . S
H725 C740 0.959 . S
H726 C740 0.961 . S
H727 C741 0.960 . S
H728 C741 0.961 . S
H729 C741 0.959 . S
H730 C744 0.929 . S
H731 C745 0.931 . S
H732 C747 0.930 . S
C733 H721 0.930 . S
C733 C734 1.399 . S
C733 C738 1.399 . S
C734 C733 1.399 . S
C734 C735 1.376 . S
C735 H722 0.930 . S
C735 C734 1.376 . S
C735 C736 1.388 . S
C736 H723 0.930 . S
C736 C735 1.388 . S
C736 C737 1.390 . S
C737 C736 1.390 . S
C737 C738 1.394 . S
C737 C743 1.465 . S
C738 C733 1.399 . S
C738 C737 1.394 . S
C738 C739 1.516 . S
C739 C738 1.516 . S
C739 C740 1.502 . S
C739 C741 1.561 . S
C739 C742 1.526 . S
C740 H724 0.959 . S
C740 H725 0.959 . S
C740 H726 0.961 . S
C740 C739 1.502 . S
C741 H727 0.960 . S
C741 H728 0.961 . S
C741 H729 0.959 . S
C741 C739 1.561 . S
C742 C739 1.526 . S
C742 C743 1.396 . S
C742 C747 1.390 . S
C743 C737 1.465 . S
C743 C742 1.396 . S
C743 C744 1.399 . S
C744 H730 0.929 . S
C744 C743 1.399 . S
C744 C745 1.385 . S
C745 H731 0.931 . S
C745 C744 1.385 . S
C745 C746 1.389 . S
C746 C745 1.389 . S
C746 C747 1.387 . S
C747 H732 0.930 . S
C747 C742 1.390 . S
C747 C746 1.387 . S
H748 C760 0.930 . S
H749 C762 0.930 . S
H750 C763 0.930 . S
H751 C767 0.959 . S
H752 C767 0.959 . S
H753 C767 0.961 . S
H754 C768 0.960 . S
H755 C768 0.961 . S
H756 C768 0.959 . S
H757 C771 0.929 . S
H758 C772 0.931 . S
H759 C774 0.930 . S
C760 H748 0.930 . S
C760 C761 1.399 . S
C760 C765 1.399 . S
C761 C760 1.399 . S
C761 C762 1.376 . S
C762 H749 0.930 . S
C762 C761 1.376 . S
C762 C763 1.388 . S
C763 H750 0.930 . S
C763 C762 1.388 . S
C763 C764 1.390 . S
C764 C763 1.390 . S
C764 C765 1.394 . S
C764 C770 1.465 . S
C765 C760 1.399 . S
C765 C764 1.394 . S
C765 C766 1.516 . S
C766 C765 1.516 . S
C766 C767 1.502 . S
C766 C768 1.561 . S
C766 C769 1.526 . S
C767 H751 0.959 . S
C767 H752 0.959 . S
C767 H753 0.961 . S
C767 C766 1.502 . S
C768 H754 0.960 . S
C768 H755 0.961 . S
C768 H756 0.959 . S
C768 C766 1.561 . S
C769 C766 1.526 . S
C769 C770 1.396 . S
C769 C774 1.390 . S
C770 C764 1.465 . S
C770 C769 1.396 . S
C770 C771 1.399 . S
C771 H757 0.929 . S
C771 C770 1.399 . S
C771 C772 1.385 . S
C772 H758 0.931 . S
C772 C771 1.385 . S
C772 C773 1.389 . S
C773 C772 1.389 . S
C773 C774 1.387 . S
C774 H759 0.930 . S
C774 C769 1.390 . S
C774 C773 1.387 . S
H775 C787 0.930 . S
H776 C789 0.930 . S
H777 C790 0.930 . S
H778 C794 0.959 . S
H779 C794 0.959 . S
H780 C794 0.961 . S
H781 C795 0.960 . S
H782 C795 0.961 . S
H783 C795 0.959 . S
H784 C798 0.929 . S
H785 C799 0.931 . S
H786 C801 0.930 . S
C787 H775 0.930 . S
C787 C788 1.399 . S
C787 C792 1.399 . S
C788 C787 1.399 . S
C788 C789 1.376 . S
C789 H776 0.930 . S
C789 C788 1.376 . S
C789 C790 1.388 . S
C790 H777 0.930 . S
C790 C789 1.388 . S
C790 C791 1.390 . S
C791 C790 1.390 . S
C791 C792 1.394 . S
C791 C797 1.465 . S
C792 C787 1.399 . S
C792 C791 1.394 . S
C792 C793 1.516 . S
C793 C792 1.516 . S
C793 C794 1.502 . S
C793 C795 1.561 . S
C793 C796 1.526 . S
C794 H778 0.959 . S
C794 H779 0.959 . S
C794 H780 0.961 . S
C794 C793 1.502 . S
C795 H781 0.960 . S
C795 H782 0.961 . S
C795 H783 0.959 . S
C795 C793 1.561 . S
C796 C793 1.526 . S
C796 C797 1.396 . S
C796 C801 1.390 . S
C797 C791 1.465 . S
C797 C796 1.396 . S
C797 C798 1.399 . S
C798 H784 0.929 . S
C798 C797 1.399 . S
C798 C799 1.385 . S
C799 H785 0.931 . S
C799 C798 1.385 . S
C799 C800 1.389 . S
C800 C799 1.389 . S
C800 C801 1.387 . S
C801 H786 0.930 . S
C801 C796 1.390 . S
C801 C800 1.387 . S
H802 C814 0.930 . S
H803 C816 0.930 . S
H804 C817 0.930 . S
H805 C821 0.959 . S
H806 C821 0.959 . S
H807 C821 0.961 . S
H808 C822 0.960 . S
H809 C822 0.961 . S
H810 C822 0.959 . S
H811 C825 0.929 . S
H812 C826 0.931 . S
H813 C828 0.930 . S
C814 H802 0.930 . S
C814 C815 1.399 . S
C814 C819 1.399 . S
C815 C814 1.399 . S
C815 C816 1.376 . S
C816 H803 0.930 . S
C816 C815 1.376 . S
C816 C817 1.388 . S
C817 H804 0.930 . S
C817 C816 1.388 . S
C817 C818 1.390 . S
C818 C817 1.390 . S
C818 C819 1.394 . S
C818 C824 1.465 . S
C819 C814 1.399 . S
C819 C818 1.394 . S
C819 C820 1.516 . S
C820 C819 1.516 . S
C820 C821 1.502 . S
C820 C822 1.561 . S
C820 C823 1.526 . S
C821 H805 0.959 . S
C821 H806 0.959 . S
C821 H807 0.961 . S
C821 C820 1.502 . S
C822 H808 0.960 . S
C822 H809 0.961 . S
C822 H810 0.959 . S
C822 C820 1.561 . S
C823 C820 1.526 . S
C823 C824 1.396 . S
C823 C828 1.390 . S
C824 C818 1.465 . S
C824 C823 1.396 . S
C824 C825 1.399 . S
C825 H811 0.929 . S
C825 C824 1.399 . S
C825 C826 1.385 . S
C826 H812 0.931 . S
C826 C825 1.385 . S
C826 C827 1.389 . S
C827 C826 1.389 . S
C827 C828 1.387 . S
C828 H813 0.930 . S
C828 C823 1.390 . S
C828 C827 1.387 . S
H829 C841 0.930 . S
H830 C843 0.930 . S
H831 C844 0.930 . S
H832 C848 0.959 . S
H833 C848 0.959 . S
H834 C848 0.961 . S
H835 C849 0.960 . S
H836 C849 0.961 . S
H837 C849 0.959 . S
H838 C852 0.929 . S
H839 C853 0.931 . S
H840 C855 0.930 . S
C841 H829 0.930 . S
C841 C842 1.399 . S
C841 C846 1.399 . S
C842 C841 1.399 . S
C842 C843 1.376 . S
C843 H830 0.930 . S
C843 C842 1.376 . S
C843 C844 1.388 . S
C844 H831 0.930 . S
C844 C843 1.388 . S
C844 C845 1.390 . S
C845 C844 1.390 . S
C845 C846 1.394 . S
C845 C851 1.465 . S
C846 C841 1.399 . S
C846 C845 1.394 . S
C846 C847 1.516 . S
C847 C846 1.516 . S
C847 C848 1.502 . S
C847 C849 1.561 . S
C847 C850 1.526 . S
C848 H832 0.959 . S
C848 H833 0.959 . S
C848 H834 0.961 . S
C848 C847 1.502 . S
C849 H835 0.960 . S
C849 H836 0.961 . S
C849 H837 0.959 . S
C849 C847 1.561 . S
C850 C847 1.526 . S
C850 C851 1.396 . S
C850 C855 1.390 . S
C851 C845 1.465 . S
C851 C850 1.396 . S
C851 C852 1.399 . S
C852 H838 0.929 . S
C852 C851 1.399 . S
C852 C853 1.385 . S
C853 H839 0.931 . S
C853 C852 1.385 . S
C853 C854 1.389 . S
C854 C853 1.389 . S
C854 C855 1.387 . S
C855 H840 0.930 . S
C855 C850 1.390 . S
C855 C854 1.387 . S
H856 C868 0.930 . S
H857 C870 0.930 . S
H858 C871 0.930 . S
H859 C875 0.959 . S
H860 C875 0.959 . S
H861 C875 0.961 . S
H862 C876 0.960 . S
H863 C876 0.961 . S
H864 C876 0.959 . S
H865 C879 0.929 . S
H866 C880 0.931 . S
H867 C882 0.930 . S
C868 H856 0.930 . S
C868 C869 1.399 . S
C868 C873 1.399 . S
C869 C868 1.399 . S
C869 C870 1.376 . S
C870 H857 0.930 . S
C870 C869 1.376 . S
C870 C871 1.388 . S
C871 H858 0.930 . S
C871 C870 1.388 . S
C871 C872 1.390 . S
C872 C871 1.390 . S
C872 C873 1.394 . S
C872 C878 1.465 . S
C873 C868 1.399 . S
C873 C872 1.394 . S
C873 C874 1.516 . S
C874 C873 1.516 . S
C874 C875 1.502 . S
C874 C876 1.561 . S
C874 C877 1.526 . S
C875 H859 0.959 . S
C875 H860 0.959 . S
C875 H861 0.961 . S
C875 C874 1.502 . S
C876 H862 0.960 . S
C876 H863 0.961 . S
C876 H864 0.959 . S
C876 C874 1.561 . S
C877 C874 1.526 . S
C877 C878 1.396 . S
C877 C882 1.390 . S
C878 C872 1.465 . S
C878 C877 1.396 . S
C878 C879 1.399 . S
C879 H865 0.929 . S
C879 C878 1.399 . S
C879 C880 1.385 . S
C880 H866 0.931 . S
C880 C879 1.385 . S
C880 C881 1.389 . S
C881 C880 1.389 . S
C881 C882 1.387 . S
C882 H867 0.930 . S
C882 C877 1.390 . S
C882 C881 1.387 . S
H883 C895 0.930 . S
H884 C897 0.930 . S
H885 C898 0.930 . S
H886 C902 0.959 . S
H887 C902 0.959 . S
H888 C902 0.961 . S
H889 C903 0.960 . S
H890 C903 0.961 . S
H891 C903 0.959 . S
H892 C906 0.929 . S
H893 C907 0.931 . S
H894 C909 0.930 . S
C895 H883 0.930 . S
C895 C896 1.399 . S
C895 C900 1.399 . S
C896 C895 1.399 . S
C896 C897 1.376 . S
C897 H884 0.930 . S
C897 C896 1.376 . S
C897 C898 1.388 . S
C898 H885 0.930 . S
C898 C897 1.388 . S
C898 C899 1.390 . S
C899 C898 1.390 . S
C899 C900 1.394 . S
C899 C905 1.465 . S
C900 C895 1.399 . S
C900 C899 1.394 . S
C900 C901 1.516 . S
C901 C900 1.516 . S
C901 C902 1.502 . S
C901 C903 1.561 . S
C901 C904 1.526 . S
C902 H886 0.959 . S
C902 H887 0.959 . S
C902 H888 0.961 . S
C902 C901 1.502 . S
C903 H889 0.960 . S
C903 H890 0.961 . S
C903 H891 0.959 . S
C903 C901 1.561 . S
C904 C901 1.526 . S
C904 C905 1.396 . S
C904 C909 1.390 . S
C905 C899 1.465 . S
C905 C904 1.396 . S
C905 C906 1.399 . S
C906 H892 0.929 . S
C906 C905 1.399 . S
C906 C907 1.385 . S
C907 H893 0.931 . S
C907 C906 1.385 . S
C907 C908 1.389 . S
C908 C907 1.389 . S
C908 C909 1.387 . S
C909 H894 0.930 . S
C909 C904 1.390 . S
C909 C908 1.387 . S
H910 C922 0.930 . S
H911 C924 0.930 . S
H912 C925 0.930 . S
H913 C929 0.959 . S
H914 C929 0.959 . S
H915 C929 0.961 . S
H916 C930 0.960 . S
H917 C930 0.961 . S
H918 C930 0.959 . S
H919 C933 0.929 . S
H920 C934 0.931 . S
H921 C936 0.930 . S
C922 H910 0.930 . S
C922 C923 1.399 . S
C922 C927 1.399 . S
C923 C922 1.399 . S
C923 C924 1.376 . S
C924 H911 0.930 . S
C924 C923 1.376 . S
C924 C925 1.388 . S
C925 H912 0.930 . S
C925 C924 1.388 . S
C925 C926 1.390 . S
C926 C925 1.390 . S
C926 C927 1.394 . S
C926 C932 1.465 . S
C927 C922 1.399 . S
C927 C926 1.394 . S
C927 C928 1.516 . S
C928 C927 1.516 . S
C928 C929 1.502 . S
C928 C930 1.561 . S
C928 C931 1.526 . S
C929 H913 0.959 . S
C929 H914 0.959 . S
C929 H915 0.961 . S
C929 C928 1.502 . S
C930 H916 0.960 . S
C930 H917 0.961 . S
C930 H918 0.959 . S
C930 C928 1.561 . S
C931 C928 1.526 . S
C931 C932 1.396 . S
C931 C936 1.390 . S
C932 C926 1.465 . S
C932 C931 1.396 . S
C932 C933 1.399 . S
C933 H919 0.929 . S
C933 C932 1.399 . S
C933 C934 1.385 . S
C934 H920 0.931 . S
C934 C933 1.385 . S
C934 C935 1.389 . S
C935 C934 1.389 . S
C935 C936 1.387 . S
C936 H921 0.930 . S
C936 C931 1.390 . S
C936 C935 1.387 . S
H937 C949 0.930 . S
H938 C951 0.930 . S
H939 C952 0.930 . S
H940 C956 0.959 . S
H941 C956 0.959 . S
H942 C956 0.961 . S
H943 C957 0.960 . S
H944 C957 0.961 . S
H945 C957 0.959 . S
H946 C960 0.929 . S
H947 C961 0.931 . S
H948 C963 0.930 . S
C949 H937 0.930 . S
C949 C950 1.399 . S
C949 C954 1.399 . S
C950 C949 1.399 . S
C950 C951 1.376 . S
C951 H938 0.930 . S
C951 C950 1.376 . S
C951 C952 1.388 . S
C952 H939 0.930 . S
C952 C951 1.388 . S
C952 C953 1.390 . S
C953 C952 1.390 . S
C953 C954 1.394 . S
C953 C959 1.465 . S
C954 C949 1.399 . S
C954 C953 1.394 . S
C954 C955 1.516 . S
C955 C954 1.516 . S
C955 C956 1.502 . S
C955 C957 1.561 . S
C955 C958 1.526 . S
C956 H940 0.959 . S
C956 H941 0.959 . S
C956 H942 0.961 . S
C956 C955 1.502 . S
C957 H943 0.960 . S
C957 H944 0.961 . S
C957 H945 0.959 . S
C957 C955 1.561 . S
C958 C955 1.526 . S
C958 C959 1.396 . S
C958 C963 1.390 . S
C959 C953 1.465 . S
C959 C958 1.396 . S
C959 C960 1.399 . S
C960 H946 0.929 . S
C960 C959 1.399 . S
C960 C961 1.385 . S
C961 H947 0.931 . S
C961 C960 1.385 . S
C961 C962 1.389 . S
C962 C961 1.389 . S
C962 C963 1.387 . S
C963 H948 0.930 . S
C963 C958 1.390 . S
C963 C962 1.387 . S
H964 C976 0.930 . S
H965 C978 0.930 . S
H966 C979 0.930 . S
H967 C983 0.959 . S
H968 C983 0.959 . S
H969 C983 0.961 . S
H970 C984 0.960 . S
H971 C984 0.961 . S
H972 C984 0.959 . S
H973 C987 0.929 . S
H974 C988 0.931 . S
H975 C990 0.930 . S
C976 H964 0.930 . S
C976 C977 1.399 . S
C976 C981 1.399 . S
C977 C976 1.399 . S
C977 C978 1.376 . S
C978 H965 0.930 . S
C978 C977 1.376 . S
C978 C979 1.388 . S
C979 H966 0.930 . S
C979 C978 1.388 . S
C979 C980 1.390 . S
C980 C979 1.390 . S
C980 C981 1.394 . S
C980 C986 1.465 . S
C981 C976 1.399 . S
C981 C980 1.394 . S
C981 C982 1.516 . S
C982 C981 1.516 . S
C982 C983 1.502 . S
C982 C984 1.561 . S
C982 C985 1.526 . S
C983 H967 0.959 . S
C983 H968 0.959 . S
C983 H969 0.961 . S
C983 C982 1.502 . S
C984 H970 0.960 . S
C984 H971 0.961 . S
C984 H972 0.959 . S
C984 C982 1.561 . S
C985 C982 1.526 . S
C985 C986 1.396 . S
C985 C990 1.390 . S
C986 C980 1.465 . S
C986 C985 1.396 . S
C986 C987 1.399 . S
C987 H973 0.929 . S
C987 C986 1.399 . S
C987 C988 1.385 . S
C988 H974 0.931 . S
C988 C987 1.385 . S
C988 C989 1.389 . S
C989 C988 1.389 . S
C989 C990 1.387 . S
C990 H975 0.930 . S
C990 C985 1.390 . S
C990 C989 1.387 . S
H991 C1003 0.930 . S
H992 C1005 0.930 . S
H993 C1006 0.930 . S
H994 C1010 0.959 . S
H995 C1010 0.959 . S
H996 C1010 0.961 . S
H997 C1011 0.960 . S
H998 C1011 0.961 . S
H999 C1011 0.959 . S
H1000 C1014 0.929 . S
H1001 C1015 0.931 . S
H1002 C1017 0.930 . S
C1003 H991 0.930 . S
C1003 C1004 1.399 . S
C1003 C1008 1.399 . S
C1004 C1003 1.399 . S
C1004 C1005 1.376 . S
C1005 H992 0.930 . S
C1005 C1004 1.376 . S
C1005 C1006 1.388 . S
C1006 H993 0.930 . S
C1006 C1005 1.388 . S
C1006 C1007 1.390 . S
C1007 C1006 1.390 . S
C1007 C1008 1.394 . S
C1007 C1013 1.465 . S
C1008 C1003 1.399 . S
C1008 C1007 1.394 . S
C1008 C1009 1.516 . S
C1009 C1008 1.516 . S
C1009 C1010 1.502 . S
C1009 C1011 1.561 . S
C1009 C1012 1.526 . S
C1010 H994 0.959 . S
C1010 H995 0.959 . S
C1010 H996 0.961 . S
C1010 C1009 1.502 . S
C1011 H997 0.960 . S
C1011 H998 0.961 . S
C1011 H999 0.959 . S
C1011 C1009 1.561 . S
C1012 C1009 1.526 . S
C1012 C1013 1.396 . S
C1012 C1017 1.390 . S
C1013 C1007 1.465 . S
C1013 C1012 1.396 . S
C1013 C1014 1.399 . S
C1014 H1000 0.929 . S
C1014 C1013 1.399 . S
C1014 C1015 1.385 . S
C1015 H1001 0.931 . S
C1015 C1014 1.385 . S
C1015 C1016 1.389 . S
C1016 C1015 1.389 . S
C1016 C1017 1.387 . S
C1017 H1002 0.930 . S
C1017 C1012 1.390 . S
C1017 C1016 1.387 . S
H1018 C1030 0.930 . S
H1019 C1032 0.930 . S
H1020 C1033 0.930 . S
H1021 C1037 0.959 . S
H1022 C1037 0.959 . S
H1023 C1037 0.961 . S
H1024 C1038 0.960 . S
H1025 C1038 0.961 . S
H1026 C1038 0.959 . S
H1027 C1041 0.929 . S
H1028 C1042 0.931 . S
H1029 C1044 0.930 . S
C1030 H1018 0.930 . S
C1030 C1031 1.399 . S
C1030 C1035 1.399 . S
C1031 C1030 1.399 . S
C1031 C1032 1.376 . S
C1032 H1019 0.930 . S
C1032 C1031 1.376 . S
C1032 C1033 1.388 . S
C1033 H1020 0.930 . S
C1033 C1032 1.388 . S
C1033 C1034 1.390 . S
C1034 C1033 1.390 . S
C1034 C1035 1.394 . S
C1034 C1040 1.465 . S
C1035 C1030 1.399 . S
C1035 C1034 1.394 . S
C1035 C1036 1.516 . S
C1036 C1035 1.516 . S
C1036 C1037 1.502 . S
C1036 C1038 1.561 . S
C1036 C1039 1.526 . S
C1037 H1021 0.959 . S
C1037 H1022 0.959 . S
C1037 H1023 0.961 . S
C1037 C1036 1.502 . S
C1038 H1024 0.960 . S
C1038 H1025 0.961 . S
C1038 H1026 0.959 . S
C1038 C1036 1.561 . S
C1039 C1036 1.526 . S
C1039 C1040 1.396 . S
C1039 C1044 1.390 . S
C1040 C1034 1.465 . S
C1040 C1039 1.396 . S
C1040 C1041 1.399 . S
C1041 H1027 0.929 . S
C1041 C1040 1.399 . S
C1041 C1042 1.385 . S
C1042 H1028 0.931 . S
C1042 C1041 1.385 . S
C1042 C1043 1.389 . S
C1043 C1042 1.389 . S
C1043 C1044 1.387 . S
C1044 H1029 0.930 . S
C1044 C1039 1.390 . S
C1044 C1043 1.387 . S
H1045 C1057 0.930 . S
H1046 C1059 0.930 . S
H1047 C1060 0.930 . S
H1048 C1064 0.959 . S
H1049 C1064 0.959 . S
H1050 C1064 0.961 . S
H1051 C1065 0.960 . S
H1052 C1065 0.961 . S
H1053 C1065 0.959 . S
H1054 C1068 0.929 . S
H1055 C1069 0.931 . S
H1056 C1071 0.930 . S
C1057 H1045 0.930 . S
C1057 C1058 1.399 . S
C1057 C1062 1.399 . S
C1058 C1057 1.399 . S
C1058 C1059 1.376 . S
C1059 H1046 0.930 . S
C1059 C1058 1.376 . S
C1059 C1060 1.388 . S
C1060 H1047 0.930 . S
C1060 C1059 1.388 . S
C1060 C1061 1.390 . S
C1061 C1060 1.390 . S
C1061 C1062 1.394 . S
C1061 C1067 1.465 . S
C1062 C1057 1.399 . S
C1062 C1061 1.394 . S
C1062 C1063 1.516 . S
C1063 C1062 1.516 . S
C1063 C1064 1.502 . S
C1063 C1065 1.561 . S
C1063 C1066 1.526 . S
C1064 H1048 0.959 . S
C1064 H1049 0.959 . S
C1064 H1050 0.961 . S
C1064 C1063 1.502 . S
C1065 H1051 0.960 . S
C1065 H1052 0.961 . S
C1065 H1053 0.959 . S
C1065 C1063 1.561 . S
C1066 C1063 1.526 . S
C1066 C1067 1.396 . S
C1066 C1071 1.390 . S
C1067 C1061 1.465 . S
C1067 C1066 1.396 . S
C1067 C1068 1.399 . S
C1068 H1054 0.929 . S
C1068 C1067 1.399 . S
C1068 C1069 1.385 . S
C1069 H1055 0.931 . S
C1069 C1068 1.385 . S
C1069 C1070 1.389 . S
C1070 C1069 1.389 . S
C1070 C1071 1.387 . S
C1071 H1056 0.930 . S
C1071 C1066 1.390 . S
C1071 C1070 1.387 . S
C221 C4 1.041 . S
C233 C56 1.052 . S
C248 C69 1.061 . S
C260 C23 1.042 . S
C275 C36 1.086 . S
C287 C88 1.064 . S
C302 C49 1.078 . S
C314 C101 1.089 . S
C329 C108 1.041 . S
C341 C160 1.043 . S
C356 C173 1.042 . S
C368 C127 1.048 . S
C383 C140 1.046 . S
C395 C192 1.042 . S
C410 C147 1.042 . S
C422 C205 1.049 . S
C437 C10 1.590 1_556 S
C449 C198 1.595 . S
C464 C161 1.590 . S
C476 C17 1.580 . S
C491 C30 1.588 1_556 S
C503 C174 1.586 . S
C518 C185 1.581 . S
C530 C43 1.581 . S
C545 C120 1.583 . S
C557 C62 1.572 1_554 S
C572 C133 1.578 . S
C584 C75 1.573 . S
C599 C148 1.578 . S
C611 C82 1.570 1_554 S
C626 C109 1.586 . S
C638 C95 1.589 . S
C653 C114 1.595 1_554 S
C665 C94 1.595 . S
C680 C57 1.590 . S
C692 C121 1.588 . S
C707 C70 1.591 . S
C719 C134 1.588 1_554 S
C734 C153 1.583 . S
C746 C81 1.587 . S
C761 C16 1.590 . S
C773 C166 1.588 1_556 S
C788 C179 1.584 . S
C800 C29 1.587 . S
C815 C186 1.595 1_556 S
C827 C42 1.595 . S
C842 C199 1.584 . S
C854 C5 1.588 . S
C869 C96 1.248 . S
C881 C3 1.248 . S
C896 C18 1.196 . S
C908 C55 1.202 . S
C923 C31 1.192 . S
C935 C68 1.197 . S
C950 C44 1.228 . S
C962 C83 1.222 . S
C977 C200 1.199 . S
C989 C107 1.189 . S
C1004 C159 1.248 . S
C1016 C122 1.242 . S
C1031 C172 1.240 . S
C1043 C135 1.228 . S
C1058 C187 1.191 . S
C1070 C146 1.203 . S
