# Generated by pormake.
# Topology unl, (4)-cn, num edge types: 1
# Building blocks:
#     Node 0, Type 0, BuildingBlock: CEKHIL_clean_sbu_0, # of connection points: 4
#     Node 1, Type 0, BuildingBlock: CEKHIL_clean_sbu_0, # of connection points: 4
#     Node 2, Type 0, BuildingBlock: CEKHIL_clean_sbu_0, # of connection points: 4
#     Node 3, Type 0, BuildingBlock: CEKHIL_clean_sbu_0, # of connection points: 4
#     Node 4, Type 0, BuildingBlock: CEKHIL_clean_sbu_0, # of connection points: 4
#     Node 5, Type 0, BuildingBlock: CEKHIL_clean_sbu_0, # of connection points: 4
#     Node 6, Type 0, BuildingBlock: CEKHIL_clean_sbu_0, # of connection points: 4
#     Node 7, Type 0, BuildingBlock: CEKHIL_clean_sbu_0, # of connection points: 4
#     Node 8, Type 0, BuildingBlock: CEKHIL_clean_sbu_0, # of connection points: 4
#     Node 9, Type 0, BuildingBlock: CEKHIL_clean_sbu_0, # of connection points: 4
#     Node 10, Type 0, BuildingBlock: CEKHIL_clean_sbu_0, # of connection points: 4
#     Node 11, Type 0, BuildingBlock: CEKHIL_clean_sbu_0, # of connection points: 4
#     Node 12, Type 0, BuildingBlock: CEKHIL_clean_sbu_0, # of connection points: 4
#     Node 13, Type 0, BuildingBlock: CEKHIL_clean_sbu_0, # of connection points: 4
#     Node 14, Type 0, BuildingBlock: CEKHIL_clean_sbu_0, # of connection points: 4
#     Node 15, Type 0, BuildingBlock: CEKHIL_clean_sbu_0, # of connection points: 4
#     Node 16, Type 0, BuildingBlock: CEKHIL_clean_sbu_0, # of connection points: 4
#     Node 17, Type 0, BuildingBlock: CEKHIL_clean_sbu_0, # of connection points: 4
#     Node 18, Type 0, BuildingBlock: CEKHIL_clean_sbu_0, # of connection points: 4
#     Node 19, Type 0, BuildingBlock: CEKHIL_clean_sbu_0, # of connection points: 4
#     Node 20, Type 0, BuildingBlock: CEKHIL_clean_sbu_0, # of connection points: 4
#     Node 21, Type 0, BuildingBlock: CEKHIL_clean_sbu_0, # of connection points: 4
#     Node 22, Type 0, BuildingBlock: CEKHIL_clean_sbu_0, # of connection points: 4
#     Node 23, Type 0, BuildingBlock: CEKHIL_clean_sbu_0, # of connection points: 4
#     Node 24, Type 0, BuildingBlock: CEKHIL_clean_sbu_0, # of connection points: 4
#     Node 25, Type 0, BuildingBlock: CEKHIL_clean_sbu_0, # of connection points: 4
#     Node 26, Type 0, BuildingBlock: CEKHIL_clean_sbu_0, # of connection points: 4
#     Node 27, Type 0, BuildingBlock: CEKHIL_clean_sbu_0, # of connection points: 4
#     Node 28, Type 0, BuildingBlock: CEKHIL_clean_sbu_0, # of connection points: 4
#     Node 29, Type 0, BuildingBlock: CEKHIL_clean_sbu_0, # of connection points: 4
#     Node 30, Type 0, BuildingBlock: CEKHIL_clean_sbu_0, # of connection points: 4
#     Node 31, Type 0, BuildingBlock: CEKHIL_clean_sbu_0, # of connection points: 4
#     Node 32, Type 0, BuildingBlock: CEKHIL_clean_sbu_0, # of connection points: 4
#     Node 33, Type 0, BuildingBlock: CEKHIL_clean_sbu_0, # of connection points: 4
#     Node 34, Type 0, BuildingBlock: CEKHIL_clean_sbu_0, # of connection points: 4
#     Node 35, Type 0, BuildingBlock: CEKHIL_clean_sbu_0, # of connection points: 4
#     Edge 36, Type (0, 0), BuildingBlock: OJICUG_clean_linker_0, # of connection points: 2
#     Edge 37, Type (0, 0), BuildingBlock: OJICUG_clean_linker_0, # of connection points: 2
#     Edge 38, Type (0, 0), BuildingBlock: OJICUG_clean_linker_0, # of connection points: 2
#     Edge 39, Type (0, 0), BuildingBlock: OJICUG_clean_linker_0, # of connection points: 2
#     Edge 40, Type (0, 0), BuildingBlock: OJICUG_clean_linker_0, # of connection points: 2
#     Edge 41, Type (0, 0), BuildingBlock: OJICUG_clean_linker_0, # of connection points: 2
#     Edge 42, Type (0, 0), BuildingBlock: OJICUG_clean_linker_0, # of connection points: 2
#     Edge 43, Type (0, 0), BuildingBlock: OJICUG_clean_linker_0, # of connection points: 2
#     Edge 44, Type (0, 0), BuildingBlock: OJICUG_clean_linker_0, # of connection points: 2
#     Edge 45, Type (0, 0), BuildingBlock: OJICUG_clean_linker_0, # of connection points: 2
#     Edge 46, Type (0, 0), BuildingBlock: OJICUG_clean_linker_0, # of connection points: 2
#     Edge 47, Type (0, 0), BuildingBlock: OJICUG_clean_linker_0, # of connection points: 2
#     Edge 48, Type (0, 0), BuildingBlock: OJICUG_clean_linker_0, # of connection points: 2
#     Edge 49, Type (0, 0), BuildingBlock: OJICUG_clean_linker_0, # of connection points: 2
#     Edge 50, Type (0, 0), BuildingBlock: OJICUG_clean_linker_0, # of connection points: 2
#     Edge 51, Type (0, 0), BuildingBlock: OJICUG_clean_linker_0, # of connection points: 2
#     Edge 52, Type (0, 0), BuildingBlock: OJICUG_clean_linker_0, # of connection points: 2
#     Edge 53, Type (0, 0), BuildingBlock: OJICUG_clean_linker_0, # of connection points: 2
#     Edge 54, Type (0, 0), BuildingBlock: OJICUG_clean_linker_0, # of connection points: 2
#     Edge 55, Type (0, 0), BuildingBlock: OJICUG_clean_linker_0, # of connection points: 2
#     Edge 56, Type (0, 0), BuildingBlock: OJICUG_clean_linker_0, # of connection points: 2
#     Edge 57, Type (0, 0), BuildingBlock: OJICUG_clean_linker_0, # of connection points: 2
#     Edge 58, Type (0, 0), BuildingBlock: OJICUG_clean_linker_0, # of connection points: 2
#     Edge 59, Type (0, 0), BuildingBlock: OJICUG_clean_linker_0, # of connection points: 2
#     Edge 60, Type (0, 0), BuildingBlock: OJICUG_clean_linker_0, # of connection points: 2
#     Edge 61, Type (0, 0), BuildingBlock: OJICUG_clean_linker_0, # of connection points: 2
#     Edge 62, Type (0, 0), BuildingBlock: OJICUG_clean_linker_0, # of connection points: 2
#     Edge 63, Type (0, 0), BuildingBlock: OJICUG_clean_linker_0, # of connection points: 2
#     Edge 64, Type (0, 0), BuildingBlock: OJICUG_clean_linker_0, # of connection points: 2
#     Edge 65, Type (0, 0), BuildingBlock: OJICUG_clean_linker_0, # of connection points: 2
#     Edge 66, Type (0, 0), BuildingBlock: OJICUG_clean_linker_0, # of connection points: 2
#     Edge 67, Type (0, 0), BuildingBlock: OJICUG_clean_linker_0, # of connection points: 2
#     Edge 68, Type (0, 0), BuildingBlock: OJICUG_clean_linker_0, # of connection points: 2
#     Edge 69, Type (0, 0), BuildingBlock: OJICUG_clean_linker_0, # of connection points: 2
#     Edge 70, Type (0, 0), BuildingBlock: OJICUG_clean_linker_0, # of connection points: 2
#     Edge 71, Type (0, 0), BuildingBlock: OJICUG_clean_linker_0, # of connection points: 2
#     Edge 72, Type (0, 0), BuildingBlock: OJICUG_clean_linker_0, # of connection points: 2
#     Edge 73, Type (0, 0), BuildingBlock: OJICUG_clean_linker_0, # of connection points: 2
#     Edge 74, Type (0, 0), BuildingBlock: OJICUG_clean_linker_0, # of connection points: 2
#     Edge 75, Type (0, 0), BuildingBlock: OJICUG_clean_linker_0, # of connection points: 2
#     Edge 76, Type (0, 0), BuildingBlock: OJICUG_clean_linker_0, # of connection points: 2
#     Edge 77, Type (0, 0), BuildingBlock: OJICUG_clean_linker_0, # of connection points: 2
#     Edge 78, Type (0, 0), BuildingBlock: OJICUG_clean_linker_0, # of connection points: 2
#     Edge 79, Type (0, 0), BuildingBlock: OJICUG_clean_linker_0, # of connection points: 2
#     Edge 80, Type (0, 0), BuildingBlock: OJICUG_clean_linker_0, # of connection points: 2
#     Edge 81, Type (0, 0), BuildingBlock: OJICUG_clean_linker_0, # of connection points: 2
#     Edge 82, Type (0, 0), BuildingBlock: OJICUG_clean_linker_0, # of connection points: 2
#     Edge 83, Type (0, 0), BuildingBlock: OJICUG_clean_linker_0, # of connection points: 2
#     Edge 84, Type (0, 0), BuildingBlock: OJICUG_clean_linker_0, # of connection points: 2
#     Edge 85, Type (0, 0), BuildingBlock: OJICUG_clean_linker_0, # of connection points: 2
#     Edge 86, Type (0, 0), BuildingBlock: OJICUG_clean_linker_0, # of connection points: 2
#     Edge 87, Type (0, 0), BuildingBlock: OJICUG_clean_linker_0, # of connection points: 2
#     Edge 88, Type (0, 0), BuildingBlock: OJICUG_clean_linker_0, # of connection points: 2
#     Edge 89, Type (0, 0), BuildingBlock: OJICUG_clean_linker_0, # of connection points: 2
#     Edge 90, Type (0, 0), BuildingBlock: OJICUG_clean_linker_0, # of connection points: 2
#     Edge 91, Type (0, 0), BuildingBlock: OJICUG_clean_linker_0, # of connection points: 2
#     Edge 92, Type (0, 0), BuildingBlock: OJICUG_clean_linker_0, # of connection points: 2
#     Edge 93, Type (0, 0), BuildingBlock: OJICUG_clean_linker_0, # of connection points: 2
#     Edge 94, Type (0, 0), BuildingBlock: OJICUG_clean_linker_0, # of connection points: 2
#     Edge 95, Type (0, 0), BuildingBlock: OJICUG_clean_linker_0, # of connection points: 2
#     Edge 96, Type (0, 0), BuildingBlock: OJICUG_clean_linker_0, # of connection points: 2
#     Edge 97, Type (0, 0), BuildingBlock: OJICUG_clean_linker_0, # of connection points: 2
#     Edge 98, Type (0, 0), BuildingBlock: OJICUG_clean_linker_0, # of connection points: 2
#     Edge 99, Type (0, 0), BuildingBlock: OJICUG_clean_linker_0, # of connection points: 2
#     Edge 100, Type (0, 0), BuildingBlock: OJICUG_clean_linker_0, # of connection points: 2
#     Edge 101, Type (0, 0), BuildingBlock: OJICUG_clean_linker_0, # of connection points: 2
#     Edge 102, Type (0, 0), BuildingBlock: OJICUG_clean_linker_0, # of connection points: 2
#     Edge 103, Type (0, 0), BuildingBlock: OJICUG_clean_linker_0, # of connection points: 2
#     Edge 104, Type (0, 0), BuildingBlock: OJICUG_clean_linker_0, # of connection points: 2
#     Edge 105, Type (0, 0), BuildingBlock: OJICUG_clean_linker_0, # of connection points: 2
#     Edge 106, Type (0, 0), BuildingBlock: OJICUG_clean_linker_0, # of connection points: 2
#     Edge 107, Type (0, 0), BuildingBlock: OJICUG_clean_linker_0, # of connection points: 2
# Relax obj value: 0.039
# Max RMSD: 0.121
# Mean RMSD: 0.121
data_MOF--net-unl--node1-CEKHIL_clean_sbu_0--edge1-OJICUG_clean_linker_0
_symmetry_space_group_name_H-M    P1
_symmetry_Int_Tables_number       1
_symmetry_cell_setting            triclinic
loop_
_symmetry_equiv_pos_as_xyz
'x, y, z'
_cell_length_a     46.750817
_cell_length_b     46.717945
_cell_length_c     29.89334
_cell_angle_alpha  90.050711
_cell_angle_beta   90.039193
_cell_angle_gamma 120.01159
loop_
_atom_site_label
_atom_site_type_symbol
_atom_site_fract_x
_atom_site_fract_y
_atom_site_fract_z
_atom_type_partial_charge
Co0 Co 0.22338 0.12485 0.10547 0.0
O1 O 0.25267 0.11778 0.1435 0.0
O2 O 0.26667 0.16416 0.1072 0.0
C3 C 0.20269 0.07615 0.06791 0.0
O4 O 0.20068 0.14111 0.06218 0.0
Co5 Co 0.14706 0.07747 0.10786 0.0
O6 O 0.14795 0.10079 0.05206 0.0
C7 C 0.18034 0.12716 0.17968 0.0
C8 C 0.27544 0.14758 0.13325 0.0
C9 C 0.17255 0.12887 0.04215 0.0
O10 O 0.20792 0.14098 0.15819 0.0
O11 O 0.1548 0.10032 0.16709 0.0
O12 O 0.23088 0.10129 0.05638 0.0
O13 O 0.18957 0.08048 0.1033 0.0
Co14 Co 0.89147 0.10195 0.10865 0.0
O15 O 0.89665 0.13622 0.14981 0.0
O16 O 0.85188 0.10557 0.10953 0.0
C17 C 0.94141 0.13278 0.07498 0.0
O18 O 0.87701 0.06524 0.06169 0.0
Co19 Co 0.93993 0.07423 0.1065 0.0
O20 O 0.91838 0.05493 0.04855 0.0
C21 C 0.88386 0.04738 0.17138 0.0
C22 C 0.86743 0.12992 0.13751 0.0
C23 C 0.88993 0.05079 0.03958 0.0
O24 O 0.87374 0.06701 0.15757 0.0
O25 O 0.90997 0.04814 0.1567 0.0
O26 O 0.91631 0.13576 0.06312 0.0
O27 O 0.9362 0.11335 0.10836 0.0
Co28 Co 0.91301 0.79304 0.10879 0.0
O29 O 0.87845 0.76436 0.14974 0.0
O30 O 0.90927 0.74979 0.1108 0.0
C31 C 0.88269 0.8121 0.07343 0.0
O32 O 0.94997 0.81479 0.06232 0.0
Co33 Co 0.94094 0.86932 0.10544 0.0
O34 O 0.96035 0.86639 0.048 0.0
C35 C 0.9672 0.84048 0.17186 0.0
C36 C 0.88475 0.74127 0.13828 0.0
C37 C 0.96447 0.84194 0.03981 0.0
O38 O 0.94763 0.81062 0.15825 0.0
O39 O 0.96655 0.86575 0.15654 0.0
O40 O 0.87957 0.78378 0.06244 0.0
O41 O 0.90179 0.8265 0.1071 0.0
Co42 Co 0.12802 0.22037 0.38765 0.0
O43 O 0.12246 0.24888 0.34596 0.0
O44 O 0.1677 0.26345 0.38536 0.0
C45 C 0.07859 0.20192 0.42239 0.0
O46 O 0.14288 0.19884 0.43505 0.0
Co47 Co 0.07927 0.14423 0.39221 0.0
O48 O 0.1011 0.14775 0.45033 0.0
C49 C 0.13387 0.17215 0.32513 0.0
C50 C 0.15187 0.27191 0.35746 0.0
C51 C 0.12978 0.17206 0.4584 0.0
O52 O 0.14481 0.20213 0.33877 0.0
O53 O 0.10774 0.14722 0.34061 0.0
O54 O 0.10386 0.23021 0.43334 0.0
O55 O 0.08334 0.18718 0.38922 0.0
Co56 Co 0.79295 0.90895 0.38888 0.0
O57 O 0.7627 0.87236 0.35172 0.0
O58 O 0.74954 0.90494 0.38911 0.0
C59 C 0.81408 0.88076 0.42486 0.0
O60 O 0.81694 0.94826 0.43169 0.0
Co61 Co 0.86916 0.93729 0.38358 0.0
O62 O 0.86978 0.96043 0.43947 0.0
C63 C 0.83481 0.95397 0.31365 0.0
C64 C 0.74012 0.87933 0.36324 0.0
C65 C 0.84558 0.96427 0.4505 0.0
O66 O 0.80755 0.94033 0.33594 0.0
O67 O 0.86044 0.9525 0.32515 0.0
O68 O 0.78632 0.87807 0.43779 0.0
O69 O 0.82654 0.89807 0.38922 0.0
Co70 Co 0.10654 0.88899 0.38904 0.0
O71 O 0.14295 0.89598 0.35117 0.0
O72 O 0.11119 0.85 0.38855 0.0
C73 C 0.13435 0.9383 0.42528 0.0
O74 O 0.0677 0.87288 0.43251 0.0
Co75 Co 0.07679 0.93572 0.38568 0.0
O76 O 0.0549 0.91298 0.44199 0.0
C77 C 0.06027 0.88511 0.31504 0.0
C78 C 0.13649 0.86651 0.36243 0.0
C79 C 0.0517 0.88508 0.45234 0.0
O80 O 0.07467 0.8719 0.33654 0.0
O81 O 0.0612 0.91186 0.32719 0.0
O82 O 0.1377 0.91348 0.43764 0.0
O83 O 0.1166 0.93325 0.38998 0.0
Co84 Co 0.79565 0.88862 0.88846 0.0
O85 O 0.76659 0.89547 0.84959 0.0
O86 O 0.75224 0.84941 0.8869 0.0
C87 C 0.81634 0.93779 0.92483 0.0
O88 O 0.81804 0.8726 0.93278 0.0
Co89 Co 0.87204 0.93569 0.88691 0.0
O90 O 0.87072 0.91286 0.94337 0.0
C91 C 0.839 0.88558 0.81541 0.0
C92 C 0.74366 0.86582 0.86022 0.0
C93 C 0.84599 0.88488 0.95332 0.0
O94 O 0.81126 0.87194 0.83652 0.0
O95 O 0.86452 0.91242 0.82805 0.0
O96 O 0.78811 0.9128 0.93662 0.0
O97 O 0.82959 0.93295 0.88999 0.0
Co98 Co 0.12621 0.90854 0.88926 0.0
O99 O 0.11963 0.87203 0.85174 0.0
O100 O 0.16568 0.90468 0.88851 0.0
C101 C 0.07725 0.88017 0.92584 0.0
O102 O 0.14188 0.9478 0.93227 0.0
Co103 Co 0.0781 0.9367 0.88577 0.0
O104 O 0.10124 0.95987 0.94135 0.0
C105 C 0.12819 0.95332 0.81456 0.0
C106 C 0.14931 0.87908 0.86267 0.0
C107 C 0.12943 0.96376 0.95166 0.0
O108 O 0.14231 0.93995 0.83637 0.0
O109 O 0.10115 0.95167 0.82679 0.0
O110 O 0.10248 0.87755 0.93827 0.0
O111 O 0.08177 0.89758 0.8904 0.0
Co112 Co 0.1037 0.21987 0.88865 0.0
O113 O 0.13794 0.24845 0.84725 0.0
O114 O 0.1071 0.26296 0.88625 0.0
C115 C 0.13454 0.20136 0.92373 0.0
O116 O 0.06708 0.19829 0.93568 0.0
Co117 Co 0.07627 0.14372 0.89333 0.0
O118 O 0.05755 0.14714 0.9511 0.0
C119 C 0.05004 0.17172 0.82557 0.0
C120 C 0.13151 0.27147 0.8586 0.0
C121 C 0.05319 0.17148 0.95896 0.0
O122 O 0.0689 0.20168 0.8394 0.0
O123 O 0.05122 0.1468 0.84118 0.0
O124 O 0.13749 0.22963 0.93467 0.0
O125 O 0.11516 0.18666 0.89044 0.0
Co126 Co 0.89227 0.79371 0.60667 0.0
O127 O 0.89819 0.76496 0.64752 0.0
O128 O 0.85268 0.75053 0.6089 0.0
C129 C 0.94152 0.81257 0.57118 0.0
O130 O 0.87695 0.81555 0.56033 0.0
Co131 Co 0.9408 0.86994 0.60286 0.0
O132 O 0.91814 0.86708 0.5457 0.0
C133 C 0.8864 0.84135 0.67025 0.0
C134 C 0.86872 0.74195 0.63626 0.0
C135 C 0.8895 0.84267 0.53775 0.0
O136 O 0.87563 0.81147 0.65635 0.0
O137 O 0.91237 0.86647 0.65479 0.0
O138 O 0.91622 0.78432 0.56016 0.0
O139 O 0.93693 0.82705 0.60482 0.0
Co140 Co 0.21996 0.10155 0.61041 0.0
O141 O 0.24853 0.13538 0.65246 0.0
O142 O 0.26291 0.10474 0.61263 0.0
C143 C 0.20154 0.13279 0.5762 0.0
O144 O 0.19833 0.06523 0.56284 0.0
Co145 Co 0.1439 0.07407 0.60592 0.0
O146 O 0.14682 0.05488 0.54823 0.0
C147 C 0.172 0.04678 0.67198 0.0
C148 C 0.27141 0.12881 0.641 0.0
C149 C 0.1713 0.05084 0.54001 0.0
O150 O 0.20191 0.06629 0.6588 0.0
O151 O 0.14693 0.0478 0.65661 0.0
O152 O 0.22975 0.13576 0.56514 0.0
O153 O 0.18677 0.11311 0.60915 0.0
Co154 Co 0.91389 0.12516 0.60497 0.0
O155 O 0.87762 0.11793 0.6432 0.0
O156 O 0.90988 0.16446 0.60714 0.0
C157 C 0.88579 0.07659 0.56718 0.0
O158 O 0.95273 0.14157 0.56151 0.0
Co159 Co 0.94287 0.07781 0.60666 0.0
O160 O 0.965 0.1012 0.5508 0.0
C161 C 0.95933 0.12718 0.67892 0.0
C162 C 0.88458 0.14775 0.63319 0.0
C163 C 0.96849 0.12934 0.54115 0.0
O164 O 0.94557 0.14111 0.65763 0.0
O165 O 0.95804 0.1004 0.66604 0.0
O166 O 0.88273 0.10178 0.55592 0.0
O167 O 0.90334 0.0808 0.60245 0.0
Co168 Co 0.88862 0.45676 0.43919 0.0
O169 O 0.91783 0.44989 0.47767 0.0
O170 O 0.93203 0.49591 0.4403 0.0
C171 C 0.86762 0.40754 0.4029 0.0
O172 O 0.86611 0.47284 0.3953 0.0
Co173 Co 0.81223 0.40988 0.44152 0.0
O174 O 0.81324 0.43285 0.38533 0.0
C175 C 0.8458 0.46014 0.51271 0.0
C176 C 0.94071 0.47951 0.46684 0.0
C177 C 0.83802 0.46076 0.37522 0.0
O178 O 0.87342 0.47362 0.49132 0.0
O179 O 0.82014 0.43332 0.50033 0.0
O180 O 0.8958 0.43246 0.39086 0.0
O181 O 0.85459 0.41246 0.43792 0.0
Co182 Co 0.55944 0.43465 0.4438 0.0
O183 O 0.56459 0.46845 0.48579 0.0
O184 O 0.51971 0.43789 0.44562 0.0
C185 C 0.60921 0.46585 0.40992 0.0
O186 O 0.54492 0.3984 0.39618 0.0
Co187 Co 0.60796 0.40708 0.44002 0.0
O188 O 0.58623 0.3882 0.38201 0.0
C189 C 0.55228 0.37975 0.50548 0.0
C190 C 0.53518 0.46191 0.47408 0.0
C191 C 0.55775 0.38415 0.37346 0.0
O192 O 0.54202 0.39936 0.49214 0.0
O193 O 0.57838 0.38068 0.49038 0.0
O194 O 0.58402 0.46888 0.39865 0.0
O195 O 0.60418 0.44616 0.44292 0.0
Co196 Co 0.58137 0.12898 0.4411 0.0
O197 O 0.54748 0.10106 0.48328 0.0
O198 O 0.5779 0.08598 0.44421 0.0
C199 C 0.55059 0.14748 0.40591 0.0
O200 O 0.61752 0.1497 0.39351 0.0
Co201 Co 0.60948 0.20515 0.43498 0.0
O202 O 0.62762 0.20089 0.37715 0.0
C203 C 0.63588 0.17741 0.50281 0.0
C204 C 0.55386 0.07792 0.47235 0.0
C205 C 0.63151 0.17621 0.3697 0.0
O206 O 0.61656 0.1474 0.48965 0.0
O207 O 0.63499 0.20239 0.48682 0.0
O208 O 0.54724 0.11896 0.39553 0.0
O209 O 0.57028 0.16245 0.43884 0.0
Co210 Co 0.79396 0.55378 0.72057 0.0
O211 O 0.78836 0.58256 0.67945 0.0
O212 O 0.83376 0.59683 0.71828 0.0
C213 C 0.74473 0.53536 0.75586 0.0
O214 O 0.80885 0.53177 0.76723 0.0
Co215 Co 0.74482 0.47763 0.72452 0.0
O216 O 0.76717 0.4805 0.78196 0.0
C217 C 0.7994 0.50569 0.65739 0.0
C218 C 0.81786 0.60549 0.69075 0.0
C219 C 0.79592 0.50471 0.78999 0.0
O220 O 0.81043 0.53565 0.67117 0.0
O221 O 0.77325 0.48075 0.6728 0.0
O222 O 0.77013 0.56354 0.76685 0.0
O223 O 0.74922 0.52073 0.72233 0.0
Co224 Co 0.46042 0.24201 0.72329 0.0
O225 O 0.43025 0.2054 0.68608 0.0
O226 O 0.41708 0.23814 0.72302 0.0
C227 C 0.48128 0.21373 0.75963 0.0
O228 O 0.48428 0.28138 0.76607 0.0
Co229 Co 0.53666 0.27017 0.71905 0.0
O230 O 0.53705 0.29354 0.7746 0.0
C231 C 0.50271 0.28653 0.64813 0.0
C232 C 0.40769 0.21248 0.69727 0.0
C233 C 0.51281 0.29743 0.78516 0.0
O234 O 0.47538 0.27327 0.67024 0.0
O235 O 0.52817 0.28489 0.66011 0.0
O236 O 0.45351 0.21115 0.77237 0.0
O237 O 0.49392 0.23106 0.72407 0.0
Co238 Co 0.77232 0.22221 0.72235 0.0
O239 O 0.80856 0.22948 0.68401 0.0
O240 O 0.77627 0.18289 0.71994 0.0
C241 C 0.80042 0.27069 0.76023 0.0
O242 O 0.73351 0.20572 0.76589 0.0
Co243 Co 0.74339 0.26968 0.72139 0.0
O244 O 0.72133 0.2461 0.77718 0.0
C245 C 0.72712 0.22074 0.64859 0.0
C246 C 0.80156 0.19963 0.6939 0.0
C247 C 0.71782 0.21792 0.78653 0.0
O248 O 0.74063 0.20651 0.66973 0.0
O249 O 0.72855 0.24753 0.66174 0.0
O250 O 0.80352 0.2455 0.77142 0.0
O251 O 0.78284 0.26651 0.72503 0.0
Co252 Co 0.46265 0.22297 0.22116 0.0
O253 O 0.43349 0.2297 0.1824 0.0
O254 O 0.4193 0.18373 0.21987 0.0
C255 C 0.48341 0.27216 0.25746 0.0
O256 O 0.48516 0.2071 0.26537 0.0
Co257 Co 0.53903 0.27016 0.21905 0.0
O258 O 0.53787 0.24744 0.27554 0.0
C259 C 0.50582 0.21966 0.14808 0.0
C260 C 0.41063 0.20007 0.19318 0.0
C261 C 0.51319 0.21947 0.28569 0.0
O262 O 0.47813 0.20616 0.16928 0.0
O263 O 0.53139 0.24655 0.16045 0.0
O264 O 0.45519 0.24719 0.26933 0.0
O265 O 0.49656 0.26731 0.22251 0.0
Co266 Co 0.79203 0.24334 0.21926 0.0
O267 O 0.78694 0.20919 0.17794 0.0
O268 O 0.8317 0.23987 0.21822 0.0
C269 C 0.74213 0.21235 0.25284 0.0
O270 O 0.80642 0.27995 0.26636 0.0
Co271 Co 0.74322 0.27071 0.22216 0.0
O272 O 0.76498 0.29008 0.27998 0.0
C273 C 0.79903 0.29771 0.1568 0.0
C274 C 0.81618 0.21554 0.19018 0.0
C275 C 0.79352 0.29432 0.28868 0.0
O276 O 0.80953 0.27836 0.1705 0.0
O277 O 0.77279 0.29662 0.17162 0.0
O278 O 0.76726 0.2094 0.2647 0.0
O279 O 0.74734 0.23185 0.21959 0.0
Co280 Co 0.77059 0.55315 0.22204 0.0
O281 O 0.80482 0.58171 0.18061 0.0
O282 O 0.77431 0.5964 0.22007 0.0
C283 C 0.80119 0.53417 0.2567 0.0
O284 O 0.73407 0.53162 0.26922 0.0
Co285 Co 0.74263 0.47689 0.22602 0.0
O286 O 0.72436 0.48034 0.28415 0.0
C287 C 0.71649 0.50547 0.15905 0.0
C288 C 0.79862 0.60484 0.19225 0.0
C289 C 0.72019 0.50476 0.29239 0.0
O290 O 0.73566 0.53535 0.17294 0.0
O291 O 0.71741 0.48034 0.17437 0.0
O292 O 0.80442 0.56252 0.26784 0.0
O293 O 0.78173 0.51969 0.22338 0.0
Co294 Co 0.55899 0.12636 0.94135 0.0
O295 O 0.56472 0.09754 0.98225 0.0
O296 O 0.51928 0.0833 0.94351 0.0
C297 C 0.6082 0.14497 0.90592 0.0
O298 O 0.54386 0.14829 0.89498 0.0
Co299 Co 0.6079 0.20254 0.9374 0.0
O300 O 0.58518 0.19976 0.88032 0.0
C301 C 0.55329 0.17425 0.00452 0.0
C302 C 0.53523 0.07461 0.97088 0.0
C303 C 0.55648 0.17541 0.87242 0.0
O304 O 0.54245 0.14431 0.99087 0.0
O305 O 0.57935 0.19927 0.98905 0.0
O306 O 0.58283 0.11678 0.89489 0.0
O307 O 0.6037 0.15952 0.93953 0.0
Co308 Co 0.8902 0.43692 0.94062 0.0
O309 O 0.91983 0.47307 0.97874 0.0
O310 O 0.93343 0.4407 0.94154 0.0
C311 C 0.86965 0.46545 0.90427 0.0
O312 O 0.8669 0.39806 0.89714 0.0
Co313 Co 0.81395 0.40852 0.94403 0.0
O314 O 0.81409 0.38568 0.88821 0.0
C315 C 0.84739 0.39131 0.01462 0.0
C316 C 0.94245 0.46599 0.9679 0.0
C317 C 0.83851 0.38206 0.87773 0.0
O318 O 0.87488 0.4051 0.99295 0.0
O319 O 0.8219 0.39288 0.00265 0.0
O320 O 0.8976 0.46825 0.89205 0.0
O321 O 0.85664 0.44782 0.93952 0.0
Co322 Co 0.58022 0.45877 0.93862 0.0
O323 O 0.54389 0.45165 0.97668 0.0
O324 O 0.57614 0.49803 0.94031 0.0
C325 C 0.55226 0.41003 0.90113 0.0
O326 O 0.6191 0.47508 0.89528 0.0
Co327 Co 0.60939 0.41159 0.94103 0.0
O328 O 0.63158 0.43481 0.8851 0.0
C329 C 0.62568 0.46123 0.01285 0.0
C330 C 0.55084 0.48143 0.9664 0.0
C331 C 0.63496 0.46286 0.87518 0.0
O332 O 0.61186 0.475 0.99133 0.0
O333 O 0.62448 0.43443 0.00028 0.0
O334 O 0.54912 0.43513 0.88959 0.0
O335 O 0.56978 0.41443 0.9365 0.0
Co336 Co 0.55627 0.79097 0.77265 0.0
O337 O 0.5857 0.7838 0.81024 0.0
O338 O 0.59961 0.83029 0.77432 0.0
C339 C 0.53544 0.74237 0.7348 0.0
O340 O 0.53325 0.80725 0.72988 0.0
Co341 Co 0.47995 0.74346 0.77576 0.0
O342 O 0.48039 0.76699 0.72041 0.0
C343 C 0.51356 0.79316 0.84745 0.0
C344 C 0.60846 0.81363 0.80011 0.0
C345 C 0.50492 0.79509 0.71036 0.0
O346 O 0.54103 0.80699 0.82571 0.0
O347 O 0.48796 0.7663 0.83504 0.0
O348 O 0.56358 0.76756 0.72321 0.0
O349 O 0.52247 0.74659 0.77044 0.0
Co350 Co 0.22581 0.76839 0.77403 0.0
O351 O 0.23145 0.80252 0.81573 0.0
O352 O 0.18588 0.77121 0.77723 0.0
C353 C 0.27481 0.79953 0.73839 0.0
O354 O 0.21075 0.73163 0.72706 0.0
Co355 Co 0.27505 0.74165 0.76882 0.0
O356 O 0.25228 0.72198 0.71165 0.0
C357 C 0.22094 0.71489 0.8366 0.0
C358 C 0.20175 0.79559 0.80508 0.0
C359 C 0.2235 0.71745 0.70401 0.0
O360 O 0.20973 0.73368 0.8231 0.0
O361 O 0.24706 0.71624 0.82083 0.0
O362 O 0.24928 0.8022 0.7279 0.0
O363 O 0.27057 0.78031 0.77165 0.0
Co364 Co 0.24536 0.4596 0.77467 0.0
O365 O 0.21083 0.43092 0.81565 0.0
O366 O 0.24185 0.41646 0.77697 0.0
C367 C 0.21487 0.47836 0.73916 0.0
O368 O 0.28236 0.48136 0.72824 0.0
Co369 Co 0.27289 0.53584 0.77057 0.0
O370 O 0.29259 0.53285 0.71343 0.0
C371 C 0.29913 0.50745 0.83775 0.0
C372 C 0.21729 0.4079 0.80438 0.0
C373 C 0.29685 0.50844 0.70558 0.0
O374 O 0.27992 0.47751 0.82416 0.0
O375 O 0.29819 0.53251 0.82222 0.0
O376 O 0.2119 0.45009 0.72824 0.0
O377 O 0.23398 0.4929 0.77275 0.0
Co378 Co 0.46015 0.8863 0.05405 0.0
O379 O 0.45508 0.91496 0.01208 0.0
O380 O 0.49982 0.92943 0.05259 0.0
C381 C 0.4102 0.86769 0.08736 0.0
O382 O 0.47453 0.86466 0.10192 0.0
Co383 Co 0.41148 0.81015 0.05825 0.0
O384 O 0.43284 0.81345 0.1167 0.0
C385 C 0.46681 0.83832 0.99216 0.0
C386 C 0.48431 0.93799 0.02427 0.0
C387 C 0.46141 0.83782 0.12513 0.0
O388 O 0.47756 0.86828 0.00572 0.0
O389 O 0.44058 0.81333 0.00733 0.0
O390 O 0.43534 0.89588 0.09898 0.0
O391 O 0.41547 0.85305 0.05455 0.0
Co392 Co 0.12992 0.57774 0.05518 0.0
O393 O 0.10066 0.54166 0.01659 0.0
O394 O 0.0867 0.57387 0.0535 0.0
C395 C 0.15028 0.54916 0.09182 0.0
O396 O 0.15252 0.61641 0.09915 0.0
Co397 Co 0.20625 0.60655 0.05394 0.0
O398 O 0.20513 0.62871 0.10993 0.0
C399 C 0.17345 0.62321 0.98174 0.0
C400 C 0.07791 0.54866 0.02708 0.0
C401 C 0.1805 0.63218 0.11961 0.0
O402 O 0.14575 0.60968 0.00295 0.0
O403 O 0.19877 0.62166 0.99464 0.0
O404 O 0.12218 0.54621 0.10367 0.0
O405 O 0.1636 0.56708 0.05691 0.0
Co406 Co 0.43871 0.55639 0.05437 0.0
O407 O 0.47461 0.56328 0.01556 0.0
O408 O 0.44305 0.51729 0.05311 0.0
C409 C 0.46694 0.60563 0.09059 0.0
O410 O 0.4004 0.54033 0.09863 0.0
Co411 Co 0.40901 0.60316 0.05249 0.0
O412 O 0.38767 0.5804 0.10905 0.0
C413 C 0.39193 0.55275 0.98144 0.0
C414 C 0.46798 0.53368 0.02638 0.0
C415 C 0.38462 0.5525 0.11907 0.0
O416 O 0.40635 0.53941 0.00254 0.0
O417 O 0.39305 0.57954 0.99389 0.0
O418 O 0.47041 0.58078 0.10248 0.0
O419 O 0.44885 0.60065 0.05568 0.0
Co420 Co 0.12799 0.55485 0.55431 0.0
O421 O 0.09885 0.56155 0.51545 0.0
O422 O 0.08463 0.51564 0.55311 0.0
C423 C 0.14876 0.60416 0.59028 0.0
O424 O 0.15042 0.53897 0.59863 0.0
Co425 Co 0.20439 0.60193 0.55257 0.0
O426 O 0.20315 0.57916 0.60905 0.0
C427 C 0.17121 0.55156 0.48139 0.0
C428 C 0.07598 0.53194 0.52634 0.0
C429 C 0.1784 0.55121 0.61905 0.0
O430 O 0.14348 0.53799 0.50252 0.0
O431 O 0.19676 0.57844 0.49389 0.0
O432 O 0.12058 0.57923 0.60233 0.0
O433 O 0.16192 0.59916 0.55548 0.0
Co434 Co 0.45913 0.57489 0.55616 0.0
O435 O 0.45274 0.53835 0.51884 0.0
O436 O 0.49864 0.57109 0.55586 0.0
C437 C 0.41004 0.54653 0.59246 0.0
O438 O 0.47463 0.61419 0.59903 0.0
Co439 Co 0.41102 0.60302 0.55211 0.0
O440 O 0.43399 0.62628 0.60773 0.0
C441 C 0.46128 0.61955 0.48116 0.0
C442 C 0.48239 0.54546 0.53005 0.0
C443 C 0.46214 0.63018 0.61824 0.0
O444 O 0.47537 0.60624 0.50318 0.0
O445 O 0.4342 0.61789 0.4932 0.0
O446 O 0.43525 0.54396 0.60516 0.0
O447 O 0.41467 0.5639 0.55695 0.0
Co448 Co 0.43968 0.88987 0.55606 0.0
O449 O 0.47626 0.9194 0.51861 0.0
O450 O 0.44366 0.93321 0.55466 0.0
C451 C 0.46764 0.86927 0.59369 0.0
O452 O 0.40051 0.86683 0.59894 0.0
Co453 Co 0.41116 0.81349 0.55332 0.0
O454 O 0.38876 0.81429 0.60915 0.0
C455 C 0.395 0.84672 0.48127 0.0
C456 C 0.46929 0.94218 0.52913 0.0
C457 C 0.38492 0.8387 0.61901 0.0
O458 O 0.4084 0.87432 0.5029 0.0
O459 O 0.39644 0.82129 0.49395 0.0
O460 O 0.47048 0.89735 0.60547 0.0
O461 O 0.45039 0.8562 0.55811 0.0
Co462 Co 0.22613 0.4602 0.2742 0.0
O463 O 0.23189 0.43133 0.31493 0.0
O464 O 0.18653 0.41701 0.27595 0.0
C465 C 0.27547 0.4792 0.239 0.0
O466 O 0.21112 0.48231 0.22792 0.0
Co467 Co 0.27484 0.53647 0.27151 0.0
O468 O 0.25253 0.53392 0.21415 0.0
C469 C 0.21977 0.5075 0.33782 0.0
C470 C 0.20248 0.40835 0.30338 0.0
C471 C 0.22392 0.50961 0.20571 0.0
O472 O 0.20921 0.4777 0.32379 0.0
O473 O 0.24584 0.53274 0.32282 0.0
O474 O 0.25023 0.45099 0.22777 0.0
O475 O 0.27081 0.49351 0.27279 0.0
Co476 Co 0.55226 0.76798 0.27716 0.0
O477 O 0.5808 0.80183 0.31923 0.0
O478 O 0.59529 0.77141 0.2791 0.0
C479 C 0.53348 0.79902 0.24317 0.0
O480 O 0.53074 0.73175 0.22948 0.0
Co481 Co 0.47612 0.74005 0.27305 0.0
O482 O 0.47916 0.72126 0.21507 0.0
C483 C 0.50463 0.7129 0.33865 0.0
C484 C 0.60375 0.79541 0.30757 0.0
C485 C 0.50371 0.71739 0.20665 0.0
O486 O 0.53448 0.73264 0.32545 0.0
O487 O 0.47941 0.71369 0.32342 0.0
O488 O 0.56178 0.80221 0.23203 0.0
O489 O 0.51886 0.77929 0.27614 0.0
Co490 Co 0.24857 0.79167 0.27433 0.0
O491 O 0.21464 0.78583 0.31636 0.0
O492 O 0.24511 0.83125 0.27723 0.0
C493 C 0.21781 0.74224 0.23917 0.0
O494 O 0.28483 0.80693 0.22689 0.0
Co495 Co 0.27654 0.74347 0.269 0.0
O496 O 0.29481 0.76566 0.21112 0.0
C497 C 0.30312 0.7981 0.33628 0.0
C498 C 0.22105 0.81534 0.30538 0.0
C499 C 0.29882 0.79424 0.20339 0.0
O500 O 0.28373 0.80865 0.32299 0.0
O501 O 0.30221 0.77213 0.32054 0.0
O502 O 0.21452 0.76741 0.22865 0.0
O503 O 0.23739 0.74704 0.27225 0.0
C504 C 0.15114 0.02397 0.04741 0.0
C505 C 0.18495 0.04589 0.04019 0.0
H506 H 0.10717 0.98086 0.02502 0.0
C507 C 0.20108 0.03888 0.00585 0.0
H508 H 0.13797 0.02844 0.07375 0.0
C509 C 0.18348 0.01092 0.97856 0.0
C510 C 0.14932 0.98997 0.98457 0.0
H511 H 0.22717 0.0552 -0.00029 0.0
H512 H 0.19624 0.00658 0.95149 0.0
C513 C 0.13347 0.99659 0.0196 0.0
C514 C 0.9783 0.16832 0.01268 0.0
C515 C 0.97214 0.14628 0.04821 0.0
H516 H 0.00956 0.19444 0.95702 0.0
C517 C 0.99507 0.13586 0.05698 0.0
H518 H 0.96121 0.17697 0.00531 0.0
C519 C 0.02237 0.1455 0.02921 0.0
C520 C 0.02786 0.16641 0.99257 0.0
H521 H 0.99135 0.11921 0.08437 0.0
H522 H 0.03875 0.13582 0.03566 0.0
C523 C 1.00611 0.17854 0.98531 0.0
C524 C 0.83821 0.8308 0.98142 0.0
C525 C 0.8512 0.86497 0.98733 0.0
H526 H 0.83848 0.7872 0.00367 0.0
C527 C 0.87244 0.88082 0.02355 0.0
H528 H 0.82199 0.81804 0.95349 0.0
C529 C 0.88138 0.86319 0.05251 0.0
C530 C 0.87002 0.82944 0.04525 0.0
H531 H 0.88271 0.90711 0.02897 0.0
H532 H 0.89816 0.87642 0.07971 0.0
C533 C 0.84783 0.81323 0.0099 0.0
C534 C 0.01531 0.18339 0.51405 0.0
C535 C 0.9938 0.14935 0.50753 0.0
H536 H 0.05962 0.22683 0.49254 0.0
C537 C 0.99897 0.13362 0.47101 0.0
H538 H 0.01198 0.19602 0.54222 0.0
C539 C 0.0257 0.15122 0.44237 0.0
C540 C 0.04843 0.1848 0.45023 0.0
H541 H 0.98268 0.10744 0.46513 0.0
H542 H 0.02907 0.13808 0.41492 0.0
C543 C 0.04265 0.20093 0.48585 0.0
C544 C 0.86552 0.87897 0.44187 0.0
C545 C 0.83217 0.86806 0.45134 0.0
H546 H 0.90972 0.87935 0.46174 0.0
C547 C 0.81689 0.84579 0.48682 0.0
H548 H 0.878 0.89588 0.41456 0.0
C549 C 0.83498 0.83558 0.51322 0.0
C550 C 0.8688 0.848 0.50511 0.0
H551 H 0.79116 0.83675 0.49468 0.0
H552 H 0.82295 0.81938 0.54138 0.0
C553 C 0.8837 0.86937 0.46875 0.0
C554 C 0.16935 0.97612 0.48728 0.0
C555 C 0.14672 0.96892 0.45216 0.0
H556 H 0.19574 0.00848 0.54201 0.0
C557 C 0.13512 0.99093 0.44349 0.0
H558 H 0.17891 0.95976 0.49454 0.0
C559 C 0.14442 0.01848 0.47082 0.0
C560 C 0.16616 0.02513 0.50686 0.0
H561 H 0.11792 0.98633 0.41646 0.0
H562 H 0.13393 0.03417 0.46442 0.0
C563 C 0.17924 1.00418 0.51414 0.0
C564 C 0.88532 0.01853 0.97071 0.0
C565 C 0.86978 0.02495 0.00634 0.0
H566 H 0.88054 0.98644 0.91672 0.0
C567 C 0.83578 1.00362 0.01325 0.0
H568 H 0.91149 0.0345 0.96463 0.0
C569 C 0.8181 0.97543 0.98642 0.0
C570 C 0.83401 0.96848 0.95172 0.0
H571 H 0.82324 0.00775 0.04083 0.0
H572 H 0.7922 0.95879 0.99338 0.0
C573 C 0.86757 0.99084 0.94342 0.0
C574 C 0.01191 0.83505 0.01495 0.0
C575 C 0.99029 0.84723 0.00694 0.0
H576 H 0.05694 0.83646 0.99603 0.0
C577 C 0.99635 0.86839 0.97045 0.0
H578 H 1.00803 0.81901 0.04321 0.0
C579 C 0.02398 0.87803 0.94332 0.0
C580 C 0.04664 0.86737 0.95266 0.0
H581 H 0.98013 0.87818 0.96354 0.0
H582 H 0.02808 0.89477 0.91589 0.0
C583 C 0.04005 0.8453 0.98827 0.0
C584 C 0.16962 0.2004 0.98711 0.0
C585 C 0.14761 0.18425 0.95158 0.0
H586 H 0.19563 0.19554 0.04329 0.0
C587 C 0.13676 0.15066 0.94372 0.0
H588 H 0.17858 0.22631 0.99379 0.0
C589 C 0.14601 0.13309 0.97226 0.0
C590 C 0.16705 0.14885 0.00865 0.0
H591 H 0.12016 0.1375 0.91634 0.0
H592 H 0.13613 0.10691 0.96638 0.0
C593 C 0.17956 0.18288 0.01519 0.0
C594 C 0.97761 0.81358 0.50793 0.0
C595 C 0.97162 0.8298 0.54323 0.0
H596 H 1.0085 0.81834 0.45189 0.0
C597 C 0.99415 0.86348 0.55076 0.0
H598 H 0.96081 0.78759 0.5015 0.0
C599 C 0.02092 0.88104 0.52214 0.0
C600 C 0.02634 0.86519 0.486 0.0
H601 H 0.9906 0.8767 0.57793 0.0
H602 H 0.03705 0.90728 0.52775 0.0
C603 C 1.005 0.83108 0.4798 0.0
C604 C 0.13407 0.14625 0.52914 0.0
C605 C 0.14978 0.16697 0.49246 0.0
H606 H 0.13825 0.11994 0.58473 0.0
C607 C 0.18364 0.17882 0.48562 0.0
H608 H 0.10802 0.1368 0.53527 0.0
C609 C 0.20092 0.16846 0.51344 0.0
C610 C 0.18473 0.14655 0.54899 0.0
H611 H 0.1963 0.19457 0.45731 0.0
H612 H 0.22665 0.17686 0.5064 0.0
C613 C 0.15142 0.13646 0.55733 0.0
C614 C 0.84957 0.03936 0.50548 0.0
C615 C 0.87308 0.04638 0.53935 0.0
H616 H 0.82156 0.00707 0.4514 0.0
C617 C 0.88507 0.02448 0.54603 0.0
H618 H 0.83972 0.05567 0.49977 0.0
C619 C 0.87509 0.99711 0.51812 0.0
C620 C 0.85225 0.99048 0.48356 0.0
H621 H 0.90298 0.02896 0.572 0.0
H622 H 0.88573 0.98139 0.52309 0.0
C623 C 0.83896 0.01141 0.47811 0.0
C624 C 0.84777 0.34148 0.3147 0.0
C625 C 0.81377 0.32022 0.32179 0.0
H626 H 0.89145 0.3863 0.3343 0.0
C627 C 0.79837 0.32678 0.35747 0.0
H628 H 0.86021 0.33726 0.28709 0.0
C629 C 0.81624 0.35452 0.38463 0.0
C630 C 0.84979 0.37681 0.37614 0.0
H631 H 0.77221 0.31086 0.36369 0.0
H632 H 0.80338 0.35903 0.41137 0.0
C633 C 0.86556 0.36972 0.34139 0.0
C634 C 0.64564 0.50151 0.34733 0.0
C635 C 0.63979 0.47951 0.38281 0.0
H636 H 0.67647 0.52762 0.29132 0.0
C637 C 0.66287 0.46921 0.39115 0.0
H638 H 0.62843 0.51006 0.34029 0.0
C639 C 0.68999 0.4789 0.36301 0.0
C640 C 0.69513 0.49973 0.32641 0.0
H641 H 0.6594 0.4526 0.41849 0.0
H642 H 0.70646 0.4693 0.36913 0.0
C643 C 0.67327 0.51178 0.31957 0.0
C644 C 0.54878 0.19824 0.38492 0.0
C645 C 0.53762 0.16452 0.37772 0.0
H646 H 0.5498 0.24197 0.36128 0.0
C647 C 0.51544 0.14814 0.34243 0.0
H648 H 0.56552 0.21158 0.4121 0.0
C649 C 0.50568 0.16555 0.3139 0.0
C650 C 0.5185 0.1997 0.31973 0.0
H651 H 0.50625 0.12212 0.33626 0.0
H652 H 0.48949 0.1527 0.28597 0.0
C653 C 0.53968 0.2157 0.35593 0.0
C654 C 0.68179 0.51685 0.84798 0.0
C655 C 0.66025 0.48281 0.84151 0.0
H656 H 0.72603 0.56028 0.82628 0.0
C657 C 0.66532 0.46705 0.80495 0.0
H658 H 0.67854 0.52951 0.87619 0.0
C659 C 0.69194 0.48463 0.77616 0.0
C660 C 0.7147 0.51822 0.78393 0.0
H661 H 0.649 0.44087 0.79913 0.0
H662 H 0.69522 0.47148 0.74864 0.0
C663 C 0.70905 0.53437 0.81965 0.0
C664 C 0.48399 0.17889 0.82185 0.0
C665 C 0.49926 0.20098 0.7862 0.0
H666 H 0.49004 0.15257 0.87652 0.0
C667 C 0.53253 0.21165 0.77653 0.0
H668 H 0.45832 0.17005 0.82985 0.0
C669 C 0.55067 0.20199 0.80337 0.0
C670 C 0.53579 0.1808 0.83989 0.0
H671 H 0.545 0.22839 0.74906 0.0
H672 H 0.57664 0.21178 0.7962 0.0
C673 C 0.50204 0.16863 0.84823 0.0
C674 C 0.81022 0.34975 0.80931 0.0
C675 C 0.83245 0.35613 0.84457 0.0
H676 H 0.78336 0.31835 0.7546 0.0
C677 C 0.84574 0.33524 0.85051 0.0
H678 H 0.79963 0.36548 0.80395 0.0
C679 C 0.83568 0.30751 0.82287 0.0
C680 C 0.81274 0.30072 0.7883 0.0
H681 H 0.86269 0.33943 0.87777 0.0
H682 H 0.84547 0.29119 0.82895 0.0
C683 C 0.80081 0.32263 0.78115 0.0
C684 C 0.55282 0.35236 0.30395 0.0
C685 C 0.53746 0.35862 0.33996 0.0
H686 H 0.5477 0.32064 0.24932 0.0
C687 C 0.50343 0.33743 0.34688 0.0
H688 H 0.579 0.36825 0.29784 0.0
C689 C 0.48556 0.3095 0.31968 0.0
C690 C 0.50128 0.30268 0.28461 0.0
H691 H 0.49102 0.34145 0.37472 0.0
H692 H 0.45964 0.29294 0.32667 0.0
C693 C 0.53487 0.32494 0.2763 0.0
C694 C 0.68857 0.20949 0.27048 0.0
C695 C 0.71156 0.19922 0.2798 0.0
H696 H 0.64519 0.21016 0.29166 0.0
C697 C 0.70568 0.17791 0.31615 0.0
H698 H 0.69204 0.22553 0.24241 0.0
C699 C 0.67813 0.16835 0.34381 0.0
C700 C 0.65643 0.18047 0.33598 0.0
H701 H 0.72281 0.16939 0.32395 0.0
H702 H 0.6749 0.15306 0.37272 0.0
C703 C 0.66157 0.20055 0.29854 0.0
C704 C 0.81156 0.46522 0.30533 0.0
C705 C 0.83278 0.48086 0.34161 0.0
H706 H 0.78586 0.46997 0.24946 0.0
C707 C 0.84577 0.51498 0.34797 0.0
H708 H 0.8013 0.43897 0.29958 0.0
C709 C 0.83614 0.53273 0.31988 0.0
C710 C 0.81395 0.51673 0.28446 0.0
H711 H 0.86199 0.52756 0.37598 0.0
H712 H 0.84547 0.55872 0.32646 0.0
C713 C 0.80262 0.48303 0.27674 0.0
C714 C 0.64382 0.14618 0.84189 0.0
C715 C 0.63821 0.1622 0.87781 0.0
H716 H 0.67425 0.15125 0.78515 0.0
C717 C 0.66098 0.19575 0.88579 0.0
H718 H 0.62682 0.1203 0.83511 0.0
C719 C 0.68758 0.21343 0.85699 0.0
C720 C 0.69259 0.19782 0.8202 0.0
H721 H 0.65774 0.2088 0.91346 0.0
H722 H 0.70392 0.23959 0.86298 0.0
C723 C 0.67104 0.1638 0.81354 0.0
C724 C 0.86774 0.50081 0.84218 0.0
C725 C 0.85202 0.47849 0.87747 0.0
H726 H 0.86242 0.52752 0.78739 0.0
C727 C 0.81866 0.46784 0.88643 0.0
H728 H 0.89349 0.50965 0.83471 0.0
C729 C 0.8009 0.47775 0.85924 0.0
C730 C 0.81623 0.49915 0.82301 0.0
H731 H 0.80585 0.4509 0.9136 0.0
H732 H 0.77486 0.46797 0.86587 0.0
C733 C 0.85006 0.51131 0.81542 0.0
C734 C 0.51635 0.37257 0.83938 0.0
C735 C 0.53974 0.37975 0.87346 0.0
H736 H 0.48861 0.3401 0.7853 0.0
C737 C 0.55182 0.35796 0.88051 0.0
H738 H 0.50643 0.3888 0.83338 0.0
C739 C 0.54204 0.33053 0.85276 0.0
C740 C 0.5193 0.32374 0.81799 0.0
H741 H 0.56965 0.36256 0.90665 0.0
H742 H 0.55273 0.31489 0.85804 0.0
C743 C 0.50593 0.34457 0.81216 0.0
C744 C 0.51617 0.67724 0.64533 0.0
C745 C 0.48198 0.6564 0.65116 0.0
H746 H 0.55992 0.72138 0.66671 0.0
C747 C 0.46609 0.66309 0.68607 0.0
H748 H 0.52897 0.67285 0.61836 0.0
C749 C 0.48377 0.6904 0.71398 0.0
C750 C 0.51763 0.7122 0.70695 0.0
H751 H 0.43976 0.64743 0.69135 0.0
H752 H 0.47059 0.69492 0.74024 0.0
C753 C 0.53379 0.70514 0.6727 0.0
C754 C 0.3547 0.8121 0.6891 0.0
C755 C 0.35949 0.83294 0.65269 0.0
H756 H 0.3249 0.78609 0.74521 0.0
C757 C 0.33756 0.84495 0.64637 0.0
H758 H 0.37131 0.8026 0.69481 0.0
C759 C 0.31021 0.83472 0.6747 0.0
C760 C 0.30484 0.81289 0.71024 0.0
H761 H 0.34059 0.86085 0.61827 0.0
H762 H 0.29294 0.84329 0.6682 0.0
C763 C 0.32796 0.80254 0.71785 0.0
C764 C 0.20448 0.54701 0.68948 0.0
C765 C 0.18354 0.53125 0.65299 0.0
H766 H 0.22986 0.54248 0.74591 0.0
C767 C 0.17075 0.49714 0.64679 0.0
H768 H 0.21458 0.57325 0.6951 0.0
C769 C 0.18029 0.47953 0.67529 0.0
C770 C 0.2022 0.49565 0.71093 0.0
H771 H 0.15474 0.48447 0.61864 0.0
H772 H 0.17112 0.45355 0.66886 0.0
C773 C 0.21333 0.52934 0.71846 0.0
C774 C 0.37356 0.86626 0.15008 0.0
C775 C 0.37947 0.85055 0.11406 0.0
H776 H 0.34256 0.86077 0.20622 0.0
C777 C 0.35632 0.81731 0.10477 0.0
H778 H 0.39083 0.8919 0.15785 0.0
C779 C 0.32909 0.79951 0.13258 0.0
C780 C 0.32392 0.81471 0.16974 0.0
H781 H 0.35981 0.80453 0.07695 0.0
H782 H 0.31257 0.77351 0.12576 0.0
C783 C 0.34581 0.84853 0.1775 0.0
C784 C 0.2012 0.54673 0.10969 0.0
C785 C 0.16784 0.53606 0.11866 0.0
H786 H 0.24499 0.54654 0.13011 0.0
C787 C 0.15209 0.51365 0.15384 0.0
H788 H 0.21404 0.56373 0.08259 0.0
C789 C 0.16976 0.50307 0.18048 0.0
C790 C 0.2036 0.51525 0.17284 0.0
H791 H 0.12633 0.5048 0.16131 0.0
H792 H 0.15741 0.48678 0.20844 0.0
C793 C 0.21895 0.53674 0.13675 0.0
C794 C 0.51175 0.67093 0.18014 0.0
C795 C 0.4987 0.69195 0.17315 0.0
H796 H 0.51142 0.62662 0.15997 0.0
C797 C 0.47711 0.68559 0.13704 0.0
H798 H 0.52816 0.67503 0.20806 0.0
C799 C 0.46787 0.65823 0.10936 0.0
C800 C 0.4794 0.63612 0.11775 0.0
H801 H 0.46667 0.70134 0.13086 0.0
H802 H 0.45076 0.65384 0.08229 0.0
C803 C 0.50192 0.64306 0.15292 0.0
C804 C 0.19997 0.65748 0.60774 0.0
C805 C 0.1666 0.63493 0.61694 0.0
H806 H 0.24403 0.70135 0.62797 0.0
C807 C 0.15112 0.64178 0.65232 0.0
H808 H 0.21261 0.65318 0.58049 0.0
C809 C 0.16907 0.67003 0.67896 0.0
C810 C 0.20292 0.69152 0.67113 0.0
H811 H 0.12537 0.62499 0.65997 0.0
H812 H 0.1569 0.67407 0.70707 0.0
C813 C 0.21799 0.68523 0.63479 0.0
C814 C 0.34442 0.50156 0.6813 0.0
C815 C 0.3228 0.51371 0.67295 0.0
H816 H 0.38953 0.50298 0.66285 0.0
C817 C 0.32898 0.53478 0.63633 0.0
H818 H 0.34046 0.48559 0.70967 0.0
C819 C 0.35669 0.54439 0.60941 0.0
C820 C 0.37935 0.53377 0.61909 0.0
H821 H 0.31276 0.54454 0.62915 0.0
H822 H 0.36087 0.56106 0.58187 0.0
C823 C 0.37266 0.51178 0.65483 0.0
C824 C 0.51224 0.84936 0.68408 0.0
C825 C 0.49909 0.81524 0.67749 0.0
H826 H 0.51202 0.89326 0.66319 0.0
C827 C 0.47722 0.79966 0.64176 0.0
H828 H 0.52891 0.86189 0.7117 0.0
C829 C 0.46801 0.81758 0.61377 0.0
C830 C 0.47978 0.85134 0.62156 0.0
H831 H 0.46675 0.7734 0.63591 0.0
H832 H 0.45084 0.80463 0.58684 0.0
C833 C 0.50236 0.86721 0.65661 0.0
C834 C 0.32783 0.53038 0.21843 0.0
C835 C 0.30544 0.49666 0.21089 0.0
H836 H 0.37032 0.57443 0.19508 0.0
C837 C 0.31135 0.48063 0.17528 0.0
H838 H 0.32434 0.54346 0.24586 0.0
C839 C 0.33845 0.49834 0.14682 0.0
C840 C 0.3596 0.53248 0.15301 0.0
H841 H 0.29466 0.45462 0.16884 0.0
H842 H 0.34187 0.48573 0.11869 0.0
C843 C 0.3543 0.54817 0.18947 0.0
C844 C 0.53269 0.83479 0.18072 0.0
C845 C 0.51648 0.81258 0.21596 0.0
H846 H 0.52804 0.86104 0.1248 0.0
C847 C 0.48301 0.80201 0.22394 0.0
H848 H 0.55853 0.84355 0.17394 0.0
C849 C 0.46558 0.81167 0.19568 0.0
C850 C 0.48134 0.83273 0.15932 0.0
H851 H 0.46982 0.78523 0.2511 0.0
H852 H 0.43944 0.80186 0.20153 0.0
C853 C 0.51532 0.84502 0.15285 0.0
C854 C 0.21576 0.68941 0.21873 0.0
C855 C 0.20489 0.71213 0.21103 0.0
H856 H 0.21656 0.64642 0.19574 0.0
C857 C 0.18305 0.70637 0.17532 0.0
H858 H 0.23224 0.69279 0.24622 0.0
C859 C 0.1733 0.67905 0.14694 0.0
C860 C 0.1858 0.65752 0.15336 0.0
H861 H 0.1741 0.72332 0.16871 0.0
H862 H 0.15738 0.67574 0.11872 0.0
C863 C 0.20667 0.66271 0.18993 0.0
C864 C 0.14887 0.13273 0.29218 0.0
C865 C 0.1522 0.16438 0.29131 0.0
H866 H 0.15584 0.09664 0.25774 0.0
C867 C 0.17048 0.18614 0.25652 0.0
H868 H 0.13571 0.11559 0.31906 0.0
C869 C 0.18259 0.17515 0.22125 0.0
C870 C 0.17652 0.14243 0.22072 0.0
H871 H 0.17362 0.21071 0.25516 0.0
H872 H 0.19452 0.19134 0.19304 0.0
C873 C 0.16068 0.12188 0.25728 0.0
C874 C 0.85283 0.96812 0.23545 0.0
C875 C 0.83836 0.97344 0.27314 0.0
H876 H 0.87774 0.98701 0.17362 0.0
C877 C 0.83434 1.00136 0.27447 0.0
H878 H 0.85619 0.94681 0.23364 0.0
C879 C 0.84723 0.02501 0.23995 0.0
C880 C 0.86432 0.02086 0.20412 0.0
H881 H 0.82362 1.00615 0.30362 0.0
H882 H 0.84582 0.04738 0.2428 0.0
C883 C 0.86548 0.9914 0.20133 0.0
C884 C 0.02282 0.87852 0.20266 0.0
C885 C 0.99357 0.84769 0.20505 0.0
H886 H 0.06716 0.91399 0.23543 0.0
C887 C 0.98953 0.82638 0.24073 0.0
H888 H 0.02716 0.89525 0.17508 0.0
C889 C 0.0131 0.83721 0.27544 0.0
C890 C 0.04082 0.86928 0.27443 0.0
H891 H 0.96733 0.80244 0.24327 0.0
H892 H 1.00842 0.82159 0.30443 0.0
C893 C 0.046 0.88921 0.23696 0.0
C894 C 0.87049 0.88014 0.70294 0.0
C895 C 0.86786 0.8488 0.70411 0.0
H896 H 0.8627 0.91583 0.73704 0.0
C897 C 0.84999 0.82706 0.73913 0.0
H898 H 0.88331 0.89723 0.67588 0.0
C899 C 0.83761 0.83783 0.77433 0.0
C900 C 0.84297 0.87029 0.77451 0.0
H901 H 0.8474 0.80271 0.74072 0.0
H902 H 0.82604 0.82173 0.80272 0.0
C903 C 0.8584 0.89077 0.73774 0.0
C904 C 0.18643 0.02368 0.73965 0.0
C905 C 0.1646 0.02027 0.70494 0.0
H906 H 0.19197 1.00424 0.80242 0.0
C907 C 0.13338 0.99148 0.70316 0.0
H908 H 0.21071 0.04549 0.74165 0.0
C909 C 0.12294 0.96817 0.73721 0.0
C910 C 0.14347 0.97279 0.77384 0.0
H911 H 0.11624 0.98757 0.67627 0.0
H912 H 0.09793 0.94737 0.73618 0.0
C913 C 0.17584 1.00001 0.77411 0.0
C914 C 1.00472 0.17502 0.72128 0.0
C915 C 0.97832 0.14219 0.72016 0.0
H916 H 0.04886 0.2106 0.75595 0.0
C917 C 0.97363 0.12137 0.75639 0.0
H918 H 1.00894 0.19142 0.69334 0.0
C919 C 0.99608 0.13212 0.79157 0.0
C920 C 0.02416 0.16393 0.79134 0.0
H921 H 0.9534 0.09604 0.75642 0.0
H922 H 0.99209 0.11478 0.8182 0.0
C923 C 0.02761 0.1859 0.75683 0.0
C924 C 0.81485 0.46645 0.62516 0.0
C925 C 0.81779 0.49791 0.62372 0.0
H926 H 0.82211 0.43032 0.59134 0.0
C927 C 0.83572 0.51942 0.58853 0.0
H928 H 0.80198 0.44952 0.65237 0.0
C929 C 0.84782 0.5083 0.55343 0.0
C930 C 0.84212 0.47571 0.5535 0.0
H931 H 0.83854 0.54386 0.58674 0.0
H932 H 0.85943 0.52423 0.5249 0.0
C933 C 0.82667 0.45546 0.59045 0.0
C934 C 0.50187 0.33333 0.60781 0.0
C935 C 0.50666 0.30588 0.60736 0.0
H936 H 0.51281 0.37895 0.57546 0.0
C937 C 0.52214 0.30097 0.57048 0.0
H938 H 0.49033 0.33779 0.63631 0.0
C939 C 0.535 0.32423 0.53638 0.0
C940 C 0.53299 0.35326 0.53835 0.0
H941 H 0.52607 0.27999 0.56932 0.0
H942 H 0.54796 0.32014 0.50932 0.0
C943 C 0.51494 0.35695 0.57329 0.0
C944 C 0.69006 0.21673 0.53658 0.0
C945 C 0.66186 0.18502 0.53678 0.0
H946 H 0.73307 0.25239 0.57155 0.0
C947 C 0.65847 0.16277 0.57086 0.0
H948 H 0.694 0.23425 0.51023 0.0
C949 C 0.68154 0.17329 0.60612 0.0
C950 C 0.70809 0.20603 0.60735 0.0
H951 H 0.63714 0.13812 0.57166 0.0
H952 H 0.67735 0.15671 0.63381 0.0
C953 C 0.71272 0.22712 0.57146 0.0
C954 C 0.51681 0.1605 0.07321 0.0
C955 C 0.53468 0.18194 0.03794 0.0
H956 H 0.49285 0.15572 0.13663 0.0
C957 C 0.53726 0.21325 0.03608 0.0
H958 H 0.51426 0.13619 0.07531 0.0
C959 C 0.52514 0.22417 0.07049 0.0
C960 C 0.50973 0.20401 0.10752 0.0
H961 H 0.55008 0.2301 0.00879 0.0
H962 H 0.52942 0.24921 0.0693 0.0
C963 C 0.5044 0.17156 0.10801 0.0
C964 C 0.84842 0.34428 0.05398 0.0
C965 C 0.84354 0.37167 0.05502 0.0
H966 H 0.83791 0.29862 0.0859 0.0
C967 C 0.82848 0.37654 0.09239 0.0
H968 H 0.85969 0.3399 0.02509 0.0
C969 C 0.81616 0.3533 0.12654 0.0
C970 C 0.8182 0.32429 0.12403 0.0
H971 H 0.82454 0.3975 0.09399 0.0
H972 H 0.80352 0.35736 0.15406 0.0
C973 C 0.8358 0.32062 0.0885 0.0
C974 C 0.67157 0.50901 0.05455 0.0
C975 C 0.64463 0.47646 0.05402 0.0
H976 H 0.71617 0.54422 0.08868 0.0
C977 C 0.63946 0.45592 0.09078 0.0
H978 H 0.67618 0.52515 0.02618 0.0
C979 C 0.66195 0.46661 0.12591 0.0
C980 C 0.69055 0.49804 0.12507 0.0
H981 H 0.61883 0.43081 0.09123 0.0
H982 H 0.65763 0.44947 0.15295 0.0
C983 C 0.69449 0.51982 0.09005 0.0
C984 C 0.48235 0.7991 0.95996 0.0
C985 C 0.48543 0.83063 0.95872 0.0
H986 H 0.48952 0.76299 0.92588 0.0
C987 C 0.50358 0.85227 0.92376 0.0
H988 H 0.46929 0.78206 0.98698 0.0
C989 C 0.51575 0.84123 0.88864 0.0
C990 C 0.50986 0.80858 0.88843 0.0
H991 H 0.5065 0.87675 0.92211 0.0
H992 H 0.52751 0.85728 0.86027 0.0
C993 C 0.49421 0.78818 0.92519 0.0
C994 C 0.18366 0.69187 0.90449 0.0
C995 C 0.20278 0.68884 0.87049 0.0
H996 H 0.15859 0.67262 0.96723 0.0
C997 C 0.20667 0.66086 0.87016 0.0
H998 H 0.18003 0.71301 0.90537 0.0
C999 C 0.19448 0.63808 0.90484 0.0
C1000 C 0.17776 0.64238 0.94068 0.0
H1001 H 0.22044 0.65717 0.84383 0.0
H1002 H 0.19966 0.61791 0.90479 0.0
C1003 C 0.17121 0.66869 0.93959 0.0
C1004 C 0.37726 0.5572 0.90373 0.0
C1005 C 0.37242 0.53708 0.94086 0.0
H1006 H 0.35832 0.56312 0.84191 0.0
C1007 C 0.34521 0.50469 0.94141 0.0
H1008 H 0.39807 0.5822 0.90251 0.0
C1009 C 0.32175 0.49365 0.90656 0.0
C1010 C 0.32542 0.51507 0.87119 0.0
H1011 H 0.34085 0.48889 0.97011 0.0
H1012 H 0.29993 0.4694 0.90871 0.0
C1013 C 0.35423 0.54629 0.86927 0.0
C1014 C 0.19031 0.55634 0.40368 0.0
C1015 C 0.17519 0.53608 0.44074 0.0
H1016 H 0.21539 0.56269 0.34196 0.0
C1017 C 0.17043 0.50384 0.44121 0.0
H1018 H 0.19419 0.58123 0.40253 0.0
C1019 C 0.18313 0.49313 0.40638 0.0
C1020 C 0.20076 0.51472 0.37113 0.0
H1021 H 0.15912 0.48796 0.46987 0.0
H1022 H 0.18104 0.46901 0.40849 0.0
C1023 C 0.20275 0.54576 0.36925 0.0
C1024 C 0.50882 0.66647 0.44094 0.0
C1025 C 0.47663 0.63895 0.44043 0.0
H1026 H 0.54338 0.71218 0.40867 0.0
C1027 C 0.45621 0.63402 0.40353 0.0
H1028 H 0.52483 0.67096 0.46946 0.0
C1029 C 0.46654 0.65731 0.36947 0.0
C1030 C 0.49752 0.6864 0.3715 0.0
H1031 H 0.43135 0.61299 0.40234 0.0
H1032 H 0.44946 0.65318 0.3424 0.0
C1033 C 0.51929 0.69013 0.40646 0.0
C1034 C 0.34917 0.84839 0.43924 0.0
C1035 C 0.37592 0.84252 0.44008 0.0
H1036 H 0.30443 0.83866 0.40532 0.0
C1037 C 0.38052 0.82616 0.40399 0.0
H1038 H 0.34496 0.86066 0.4671 0.0
C1039 C 0.35765 0.81362 0.36935 0.0
C1040 C 0.32927 0.81679 0.36996 0.0
H1041 H 0.40099 0.82144 0.40379 0.0
H1042 H 0.36157 0.80009 0.34289 0.0
C1043 C 0.3259 0.8356 0.40419 0.0
C1044 C 0.33476 0.19293 0.13596 0.0
C1045 C 0.30995 0.16126 0.14908 0.0
H1046 H 0.38597 0.22989 0.1393 0.0
C1047 C 0.3186 0.14227 0.17646 0.0
H1048 H 0.32897 0.20815 0.11476 0.0
C1049 C 0.35131 0.15468 0.19042 0.0
C1050 C 0.37613 0.18635 0.1773 0.0
H1051 H 0.3001 0.11772 0.18707 0.0
H1052 H 0.35711 0.13947 0.21163 0.0
C1053 C 0.36748 0.20533 0.1499 0.0
C1054 C 0.86039 0.19981 0.19193 0.0
C1055 C 0.82979 0.19425 0.17572 0.0
H1056 H 0.89605 0.18375 0.19306 0.0
C1057 C 0.81138 0.16693 0.14746 0.0
H1058 H 0.87512 0.22045 0.21399 0.0
C1059 C 0.82326 0.14571 0.13569 0.0
C1060 C 0.85385 0.15126 0.15191 0.0
H1061 H 0.7876 0.16176 0.13456 0.0
H1062 H 0.80853 0.12506 0.11364 0.0
C1063 C 0.87228 0.17859 0.18016 0.0
C1064 C 0.81452 0.66487 0.19287 0.0
C1065 C 0.82005 0.63962 0.17742 0.0
H1066 H 0.83072 0.71666 0.19312 0.0
C1067 C 0.84746 0.64821 0.14962 0.0
H1068 H 0.79381 0.6592 0.21457 0.0
C1069 C 0.8688 0.68122 0.13756 0.0
C1070 C 0.86328 0.70648 0.15302 0.0
H1071 H 0.85261 0.62944 0.13732 0.0
H1072 H 0.88953 0.6869 0.11588 0.0
C1073 C 0.83586 0.69788 0.18081 0.0
C1074 C 0.15829 0.34834 0.30253 0.0
C1075 C 0.18909 0.37353 0.31802 0.0
H1076 H 0.1226 0.29659 0.30232 0.0
C1077 C 0.20788 0.36487 0.34583 0.0
H1078 H 0.14328 0.35408 0.28082 0.0
C1079 C 0.19614 0.33186 0.35792 0.0
C1080 C 0.16532 0.30667 0.34248 0.0
H1081 H 0.23181 0.3836 0.35816 0.0
H1082 H 0.21114 0.32613 0.37965 0.0
C1083 C 0.14655 0.31532 0.31461 0.0
C1084 C 0.66321 0.80972 0.30869 0.0
C1085 C 0.63839 0.81612 0.32332 0.0
H1086 H 0.71462 0.82467 0.30951 0.0
C1087 C 0.64734 0.84363 0.35122 0.0
H1088 H 0.65724 0.78886 0.28703 0.0
C1089 C 0.68035 0.86436 0.36393 0.0
C1090 C 0.70518 0.85803 0.34906 0.0
H1091 H 0.62888 0.8494 0.36294 0.0
H1092 H 0.68639 0.88531 0.38543 0.0
C1093 C 0.69617 0.83039 0.32143 0.0
C1094 C 0.2064 0.86026 0.30731 0.0
C1095 C 0.20023 0.829 0.32148 0.0
H1096 H 0.19107 0.89645 0.30881 0.0
C1097 C 0.17281 0.8101 0.34922 0.0
H1098 H 0.22719 0.87539 0.28577 0.0
C1099 C 0.15194 0.82209 0.36224 0.0
C1100 C 0.158 0.85327 0.34783 0.0
H1101 H 0.16723 0.78584 0.36058 0.0
H1102 H 0.13106 0.80691 0.38361 0.0
C1103 C 0.18555 0.87225 0.32035 0.0
C1104 C 0.70057 0.87127 0.81692 0.0
C1105 C 0.70917 0.85219 0.84422 0.0
H1106 H 0.66212 0.87423 0.78182 0.0
C1107 C 0.6843 0.82049 0.85716 0.0
H1108 H 0.7191 0.89585 0.80645 0.0
C1109 C 0.65161 0.80816 0.84314 0.0
C1110 C 0.643 0.82725 0.81588 0.0
H1111 H 0.69004 0.8052 0.87829 0.0
H1112 H 0.63308 0.78359 0.85364 0.0
C1113 C 0.66787 0.85894 0.80292 0.0
C1114 C 0.15634 0.80953 0.80741 0.0
C1115 C 0.18781 0.81618 0.82127 0.0
H1116 H 0.11968 0.82421 0.8093 0.0
C1117 C 0.20662 0.84383 0.84885 0.0
H1118 H 0.14126 0.78857 0.78601 0.0
C1119 C 0.19432 0.86444 0.86202 0.0
C1120 C 0.16293 0.85789 0.84794 0.0
H1121 H 0.23104 0.84978 0.85997 0.0
H1122 H 0.20944 0.8855 0.88326 0.0
C1123 C 0.14405 0.83011 0.82061 0.0
C1124 C 0.20161 0.34793 0.80394 0.0
C1125 C 0.1959 0.37311 0.81919 0.0
H1126 H 0.18563 0.29619 0.80391 0.0
C1127 C 0.16838 0.36444 0.84681 0.0
H1128 H 0.22241 0.35367 0.78239 0.0
C1129 C 0.14713 0.33143 0.85892 0.0
C1130 C 0.15284 0.30624 0.84368 0.0
H1131 H 0.16311 0.38316 0.85895 0.0
H1132 H 0.12633 0.32569 0.88048 0.0
C1133 C 0.18035 0.31491 0.81604 0.0
C1134 C 0.87415 0.69844 0.67875 0.0
C1135 C 0.85531 0.70715 0.65112 0.0
H1136 H 0.87739 0.65965 0.71253 0.0
C1137 C 0.82437 0.682 0.63596 0.0
H1138 H 0.89819 0.71714 0.69083 0.0
C1139 C 0.81256 0.64899 0.64816 0.0
C1140 C 0.83139 0.64028 0.67581 0.0
H1141 H 0.8093 0.68776 0.61441 0.0
H1142 H 0.78852 0.63031 0.63608 0.0
C1143 C 0.86234 0.66542 0.69096 0.0
C1144 C 0.33082 0.14294 0.64248 0.0
C1145 C 0.30603 0.14945 0.65687 0.0
H1146 H 0.3822 0.15774 0.64363 0.0
C1147 C 0.31498 0.17702 0.68467 0.0
H1148 H 0.32485 0.12204 0.6209 0.0
C1149 C 0.34797 0.19768 0.69751 0.0
C1150 C 0.37278 0.19124 0.68289 0.0
H1151 H 0.29655 0.18287 0.69621 0.0
H1152 H 0.35401 0.21867 0.71893 0.0
C1153 C 0.36376 0.16355 0.65536 0.0
C1154 C 0.83593 0.14203 0.67624 0.0
C1155 C 0.86369 0.16129 0.64922 0.0
H1156 H 0.79445 0.13887 0.71127 0.0
C1157 C 0.87058 0.19308 0.63664 0.0
H1158 H 0.82983 0.11738 0.68642 0.0
C1159 C 0.85019 0.20534 0.65077 0.0
C1160 C 0.82243 0.18608 0.67779 0.0
H1161 H 0.89167 0.2085 0.61573 0.0
H1162 H 0.85628 0.22999 0.64059 0.0
C1163 C 0.81554 0.15429 0.69036 0.0
C1164 C 0.03284 0.53708 0.48284 0.0
C1165 C 0.04146 0.51822 0.51053 0.0
H1166 H 0.99434 0.53982 0.44757 0.0
C1167 C 0.0166 0.48669 0.52405 0.0
H1168 H 0.05138 0.56154 0.47193 0.0
C1169 C 0.98386 0.4743 0.51021 0.0
C1170 C 0.97524 0.49317 0.48254 0.0
H1171 H 0.02237 0.47158 0.5455 0.0
H1172 H 0.96533 0.44985 0.52113 0.0
C1173 C 1.00011 0.5247 0.469 0.0
C1174 C 0.4775 0.4966 0.48808 0.0
C1175 C 0.49612 0.52427 0.5157 0.0
H1176 H 0.475 0.45514 0.45362 0.0
C1177 C 0.52734 0.53071 0.53045 0.0
H1178 H 0.45328 0.4908 0.47624 0.0
C1179 C 0.53971 0.51007 0.51769 0.0
C1180 C 0.52116 0.48254 0.48982 0.0
H1181 H 0.54224 0.55167 0.55194 0.0
H1182 H 0.56398 0.51593 0.52935 0.0
C1183 C 0.48988 0.47602 0.47526 0.0
C1184 C 0.53931 0.01842 0.47446 0.0
C1185 C 0.53298 0.04346 0.48839 0.0
H1186 H 0.5241 0.96693 0.47607 0.0
C1187 C 0.50536 0.03487 0.51574 0.0
H1188 H 0.56025 0.02412 0.45321 0.0
C1189 C 0.48444 1.00198 0.52863 0.0
C1190 C 0.4907 0.97693 0.5145 0.0
H1191 H 0.49965 0.05352 0.52687 0.0
H1192 H 0.46341 0.99621 0.54973 0.0
C1193 C 0.51844 0.98557 0.48739 0.0
C1194 C 0.49103 0.01464 0.96971 0.0
C1195 C 0.52176 0.03978 0.9855 0.0
H1196 H 0.45535 0.9629 0.96904 0.0
C1197 C 0.5404 0.03101 0.01343 0.0
H1198 H 0.47613 0.02045 0.9479 0.0
C1199 C 0.52859 0.99795 0.02535 0.0
C1200 C 0.49786 0.97282 0.00956 0.0
H1201 H 0.56428 0.0497 0.02599 0.0
H1202 H 0.54348 0.99214 0.04718 0.0
C1203 C 0.47923 0.98158 0.98158 0.0
C1204 C 1.00177 0.47983 0.97014 0.0
C1205 C 0.97706 0.48678 0.98344 0.0
H1206 H 0.05297 0.494 0.97322 0.0
C1207 C 0.9859 0.51452 0.01078 0.0
H1208 H 0.99584 0.45874 0.94897 0.0
C1209 C 0.01866 0.53483 0.02454 0.0
C1210 C 0.04337 0.52788 0.01128 0.0
H1211 H 0.9675 0.52067 0.02153 0.0
H1212 H 0.02457 0.5559 0.04573 0.0
C1213 C 0.03456 0.50014 0.98392 0.0
C1214 C 0.50241 0.47605 0.00965 0.0
C1215 C 0.52998 0.49506 0.98223 0.0
H1216 H 0.46113 0.47318 0.04488 0.0
C1217 C 0.53674 0.52671 0.96908 0.0
H1218 H 0.49642 0.45152 0.02029 0.0
C1219 C 0.51639 0.53906 0.98304 0.0
C1220 C 0.48882 0.52005 0.01048 0.0
H1221 H 0.55769 0.54193 0.94784 0.0
H1222 H 0.52237 0.56359 0.97241 0.0
C1223 C 0.48207 0.48841 0.02364 0.0
loop_
_geom_bond_atom_site_label_1
_geom_bond_atom_site_label_2
_geom_bond_distance
_geom_bond_site_symmetry_2
_ccdc_geom_bond_type
Co0 O1 2.216 . S
Co0 O2 2.091 . S
Co0 O4 2.004 . S
Co0 O10 2.021 . S
Co0 O12 2.137 . S
Co0 O13 2.244 . S
O1 Co0 2.216 . S
O1 C8 1.247 . S
O2 Co0 2.091 . S
O2 C8 1.261 . S
C3 O12 1.247 . S
C3 O13 1.272 . S
O4 Co0 2.004 . S
O4 C9 1.259 . S
Co5 O6 2.061 . S
Co5 O11 2.052 . S
Co5 O13 2.135 . S
O6 Co5 2.061 . S
O6 C9 1.235 . S
C7 O10 1.238 . S
C7 O11 1.241 . S
C8 O1 1.247 . S
C8 O2 1.261 . S
C9 O4 1.259 . S
C9 O6 1.235 . S
O10 Co0 2.021 . S
O10 C7 1.238 . S
O11 Co5 2.052 . S
O11 C7 1.241 . S
O12 Co0 2.137 . S
O12 C3 1.247 . S
O13 Co0 2.244 . S
O13 C3 1.272 . S
O13 Co5 2.135 . S
Co14 O15 2.216 . S
Co14 O16 2.091 . S
Co14 O18 2.004 . S
Co14 O24 2.021 . S
Co14 O26 2.137 . S
Co14 O27 2.244 . S
O15 Co14 2.216 . S
O15 C22 1.247 . S
O16 Co14 2.091 . S
O16 C22 1.261 . S
C17 O26 1.247 . S
C17 O27 1.272 . S
O18 Co14 2.004 . S
O18 C23 1.259 . S
Co19 O20 2.061 . S
Co19 O25 2.052 . S
Co19 O27 2.135 . S
O20 Co19 2.061 . S
O20 C23 1.235 . S
C21 O24 1.238 . S
C21 O25 1.241 . S
C22 O15 1.247 . S
C22 O16 1.261 . S
C23 O18 1.259 . S
C23 O20 1.235 . S
O24 Co14 2.021 . S
O24 C21 1.238 . S
O25 Co19 2.052 . S
O25 C21 1.241 . S
O26 Co14 2.137 . S
O26 C17 1.247 . S
O27 Co14 2.244 . S
O27 C17 1.272 . S
O27 Co19 2.135 . S
Co28 O29 2.216 . S
Co28 O30 2.091 . S
Co28 O32 2.004 . S
Co28 O38 2.021 . S
Co28 O40 2.137 . S
Co28 O41 2.244 . S
O29 Co28 2.216 . S
O29 C36 1.247 . S
O30 Co28 2.091 . S
O30 C36 1.261 . S
C31 O40 1.247 . S
C31 O41 1.272 . S
O32 Co28 2.004 . S
O32 C37 1.259 . S
Co33 O34 2.061 . S
Co33 O39 2.052 . S
Co33 O41 2.135 . S
O34 Co33 2.061 . S
O34 C37 1.235 . S
C35 O38 1.238 . S
C35 O39 1.241 . S
C36 O29 1.247 . S
C36 O30 1.261 . S
C37 O32 1.259 . S
C37 O34 1.235 . S
O38 Co28 2.021 . S
O38 C35 1.238 . S
O39 Co33 2.052 . S
O39 C35 1.241 . S
O40 Co28 2.137 . S
O40 C31 1.247 . S
O41 Co28 2.244 . S
O41 C31 1.272 . S
O41 Co33 2.135 . S
Co42 O43 2.216 . S
Co42 O44 2.091 . S
Co42 O46 2.004 . S
Co42 O52 2.021 . S
Co42 O54 2.137 . S
Co42 O55 2.244 . S
O43 Co42 2.216 . S
O43 C50 1.247 . S
O44 Co42 2.091 . S
O44 C50 1.261 . S
C45 O54 1.247 . S
C45 O55 1.272 . S
O46 Co42 2.004 . S
O46 C51 1.259 . S
Co47 O48 2.061 . S
Co47 O53 2.052 . S
Co47 O55 2.135 . S
O48 Co47 2.061 . S
O48 C51 1.235 . S
C49 O52 1.238 . S
C49 O53 1.241 . S
C50 O43 1.247 . S
C50 O44 1.261 . S
C51 O46 1.259 . S
C51 O48 1.235 . S
O52 Co42 2.021 . S
O52 C49 1.238 . S
O53 Co47 2.052 . S
O53 C49 1.241 . S
O54 Co42 2.137 . S
O54 C45 1.247 . S
O55 Co42 2.244 . S
O55 C45 1.272 . S
O55 Co47 2.135 . S
Co56 O57 2.216 . S
Co56 O58 2.091 . S
Co56 O60 2.004 . S
Co56 O66 2.021 . S
Co56 O68 2.137 . S
Co56 O69 2.244 . S
O57 Co56 2.216 . S
O57 C64 1.247 . S
O58 Co56 2.091 . S
O58 C64 1.261 . S
C59 O68 1.247 . S
C59 O69 1.272 . S
O60 Co56 2.004 . S
O60 C65 1.259 . S
Co61 O62 2.061 . S
Co61 O67 2.052 . S
Co61 O69 2.135 . S
O62 Co61 2.061 . S
O62 C65 1.235 . S
C63 O66 1.238 . S
C63 O67 1.241 . S
C64 O57 1.247 . S
C64 O58 1.261 . S
C65 O60 1.259 . S
C65 O62 1.235 . S
O66 Co56 2.021 . S
O66 C63 1.238 . S
O67 Co61 2.052 . S
O67 C63 1.241 . S
O68 Co56 2.137 . S
O68 C59 1.247 . S
O69 Co56 2.244 . S
O69 C59 1.272 . S
O69 Co61 2.135 . S
Co70 O71 2.216 . S
Co70 O72 2.091 . S
Co70 O74 2.004 . S
Co70 O80 2.021 . S
Co70 O82 2.137 . S
Co70 O83 2.244 . S
O71 Co70 2.216 . S
O71 C78 1.247 . S
O72 Co70 2.091 . S
O72 C78 1.261 . S
C73 O82 1.247 . S
C73 O83 1.272 . S
O74 Co70 2.004 . S
O74 C79 1.259 . S
Co75 O76 2.061 . S
Co75 O81 2.052 . S
Co75 O83 2.135 . S
O76 Co75 2.061 . S
O76 C79 1.235 . S
C77 O80 1.238 . S
C77 O81 1.241 . S
C78 O71 1.247 . S
C78 O72 1.261 . S
C79 O74 1.259 . S
C79 O76 1.235 . S
O80 Co70 2.021 . S
O80 C77 1.238 . S
O81 Co75 2.052 . S
O81 C77 1.241 . S
O82 Co70 2.137 . S
O82 C73 1.247 . S
O83 Co70 2.244 . S
O83 C73 1.272 . S
O83 Co75 2.135 . S
Co84 O85 2.216 . S
Co84 O86 2.091 . S
Co84 O88 2.004 . S
Co84 O94 2.021 . S
Co84 O96 2.137 . S
Co84 O97 2.244 . S
O85 Co84 2.216 . S
O85 C92 1.247 . S
O86 Co84 2.091 . S
O86 C92 1.261 . S
C87 O96 1.247 . S
C87 O97 1.272 . S
O88 Co84 2.004 . S
O88 C93 1.259 . S
Co89 O90 2.061 . S
Co89 O95 2.052 . S
Co89 O97 2.135 . S
O90 Co89 2.061 . S
O90 C93 1.235 . S
C91 O94 1.238 . S
C91 O95 1.241 . S
C92 O85 1.247 . S
C92 O86 1.261 . S
C93 O88 1.259 . S
C93 O90 1.235 . S
O94 Co84 2.021 . S
O94 C91 1.238 . S
O95 Co89 2.052 . S
O95 C91 1.241 . S
O96 Co84 2.137 . S
O96 C87 1.247 . S
O97 Co84 2.244 . S
O97 C87 1.272 . S
O97 Co89 2.135 . S
Co98 O99 2.216 . S
Co98 O100 2.091 . S
Co98 O102 2.004 . S
Co98 O108 2.021 . S
Co98 O110 2.137 . S
Co98 O111 2.244 . S
O99 Co98 2.216 . S
O99 C106 1.247 . S
O100 Co98 2.091 . S
O100 C106 1.261 . S
C101 O110 1.247 . S
C101 O111 1.272 . S
O102 Co98 2.004 . S
O102 C107 1.259 . S
Co103 O104 2.061 . S
Co103 O109 2.052 . S
Co103 O111 2.135 . S
O104 Co103 2.061 . S
O104 C107 1.235 . S
C105 O108 1.238 . S
C105 O109 1.241 . S
C106 O99 1.247 . S
C106 O100 1.261 . S
C107 O102 1.259 . S
C107 O104 1.235 . S
O108 Co98 2.021 . S
O108 C105 1.238 . S
O109 Co103 2.052 . S
O109 C105 1.241 . S
O110 Co98 2.137 . S
O110 C101 1.247 . S
O111 Co98 2.244 . S
O111 C101 1.272 . S
O111 Co103 2.135 . S
Co112 O113 2.216 . S
Co112 O114 2.091 . S
Co112 O116 2.004 . S
Co112 O122 2.021 . S
Co112 O124 2.137 . S
Co112 O125 2.244 . S
O113 Co112 2.216 . S
O113 C120 1.247 . S
O114 Co112 2.091 . S
O114 C120 1.261 . S
C115 O124 1.247 . S
C115 O125 1.272 . S
O116 Co112 2.004 . S
O116 C121 1.259 . S
Co117 O118 2.061 . S
Co117 O123 2.052 . S
Co117 O125 2.135 . S
O118 Co117 2.061 . S
O118 C121 1.235 . S
C119 O122 1.238 . S
C119 O123 1.241 . S
C120 O113 1.247 . S
C120 O114 1.261 . S
C121 O116 1.259 . S
C121 O118 1.235 . S
O122 Co112 2.021 . S
O122 C119 1.238 . S
O123 Co117 2.052 . S
O123 C119 1.241 . S
O124 Co112 2.137 . S
O124 C115 1.247 . S
O125 Co112 2.244 . S
O125 C115 1.272 . S
O125 Co117 2.135 . S
Co126 O127 2.216 . S
Co126 O128 2.091 . S
Co126 O130 2.004 . S
Co126 O136 2.021 . S
Co126 O138 2.137 . S
Co126 O139 2.244 . S
O127 Co126 2.216 . S
O127 C134 1.247 . S
O128 Co126 2.091 . S
O128 C134 1.261 . S
C129 O138 1.247 . S
C129 O139 1.272 . S
O130 Co126 2.004 . S
O130 C135 1.259 . S
Co131 O132 2.061 . S
Co131 O137 2.052 . S
Co131 O139 2.135 . S
O132 Co131 2.061 . S
O132 C135 1.235 . S
C133 O136 1.238 . S
C133 O137 1.241 . S
C134 O127 1.247 . S
C134 O128 1.261 . S
C135 O130 1.259 . S
C135 O132 1.235 . S
O136 Co126 2.021 . S
O136 C133 1.238 . S
O137 Co131 2.052 . S
O137 C133 1.241 . S
O138 Co126 2.137 . S
O138 C129 1.247 . S
O139 Co126 2.244 . S
O139 C129 1.272 . S
O139 Co131 2.135 . S
Co140 O141 2.216 . S
Co140 O142 2.091 . S
Co140 O144 2.004 . S
Co140 O150 2.021 . S
Co140 O152 2.137 . S
Co140 O153 2.244 . S
O141 Co140 2.216 . S
O141 C148 1.247 . S
O142 Co140 2.091 . S
O142 C148 1.261 . S
C143 O152 1.247 . S
C143 O153 1.272 . S
O144 Co140 2.004 . S
O144 C149 1.259 . S
Co145 O146 2.061 . S
Co145 O151 2.052 . S
Co145 O153 2.135 . S
O146 Co145 2.061 . S
O146 C149 1.235 . S
C147 O150 1.238 . S
C147 O151 1.241 . S
C148 O141 1.247 . S
C148 O142 1.261 . S
C149 O144 1.259 . S
C149 O146 1.235 . S
O150 Co140 2.021 . S
O150 C147 1.238 . S
O151 Co145 2.052 . S
O151 C147 1.241 . S
O152 Co140 2.137 . S
O152 C143 1.247 . S
O153 Co140 2.244 . S
O153 C143 1.272 . S
O153 Co145 2.135 . S
Co154 O155 2.216 . S
Co154 O156 2.091 . S
Co154 O158 2.004 . S
Co154 O164 2.021 . S
Co154 O166 2.137 . S
Co154 O167 2.244 . S
O155 Co154 2.216 . S
O155 C162 1.247 . S
O156 Co154 2.091 . S
O156 C162 1.261 . S
C157 O166 1.247 . S
C157 O167 1.272 . S
O158 Co154 2.004 . S
O158 C163 1.259 . S
Co159 O160 2.061 . S
Co159 O165 2.052 . S
Co159 O167 2.135 . S
O160 Co159 2.061 . S
O160 C163 1.235 . S
C161 O164 1.238 . S
C161 O165 1.241 . S
C162 O155 1.247 . S
C162 O156 1.261 . S
C163 O158 1.259 . S
C163 O160 1.235 . S
O164 Co154 2.021 . S
O164 C161 1.238 . S
O165 Co159 2.052 . S
O165 C161 1.241 . S
O166 Co154 2.137 . S
O166 C157 1.247 . S
O167 Co154 2.244 . S
O167 C157 1.272 . S
O167 Co159 2.135 . S
Co168 O169 2.216 . S
Co168 O170 2.091 . S
Co168 O172 2.004 . S
Co168 O178 2.021 . S
Co168 O180 2.137 . S
Co168 O181 2.244 . S
O169 Co168 2.216 . S
O169 C176 1.247 . S
O170 Co168 2.091 . S
O170 C176 1.261 . S
C171 O180 1.247 . S
C171 O181 1.272 . S
O172 Co168 2.004 . S
O172 C177 1.259 . S
Co173 O174 2.061 . S
Co173 O179 2.052 . S
Co173 O181 2.135 . S
O174 Co173 2.061 . S
O174 C177 1.235 . S
C175 O178 1.238 . S
C175 O179 1.241 . S
C176 O169 1.247 . S
C176 O170 1.261 . S
C177 O172 1.259 . S
C177 O174 1.235 . S
O178 Co168 2.021 . S
O178 C175 1.238 . S
O179 Co173 2.052 . S
O179 C175 1.241 . S
O180 Co168 2.137 . S
O180 C171 1.247 . S
O181 Co168 2.244 . S
O181 C171 1.272 . S
O181 Co173 2.135 . S
Co182 O183 2.216 . S
Co182 O184 2.091 . S
Co182 O186 2.004 . S
Co182 O192 2.021 . S
Co182 O194 2.137 . S
Co182 O195 2.244 . S
O183 Co182 2.216 . S
O183 C190 1.247 . S
O184 Co182 2.091 . S
O184 C190 1.261 . S
C185 O194 1.247 . S
C185 O195 1.272 . S
O186 Co182 2.004 . S
O186 C191 1.259 . S
Co187 O188 2.061 . S
Co187 O193 2.052 . S
Co187 O195 2.135 . S
O188 Co187 2.061 . S
O188 C191 1.235 . S
C189 O192 1.238 . S
C189 O193 1.241 . S
C190 O183 1.247 . S
C190 O184 1.261 . S
C191 O186 1.259 . S
C191 O188 1.235 . S
O192 Co182 2.021 . S
O192 C189 1.238 . S
O193 Co187 2.052 . S
O193 C189 1.241 . S
O194 Co182 2.137 . S
O194 C185 1.247 . S
O195 Co182 2.244 . S
O195 C185 1.272 . S
O195 Co187 2.135 . S
Co196 O197 2.216 . S
Co196 O198 2.091 . S
Co196 O200 2.004 . S
Co196 O206 2.021 . S
Co196 O208 2.137 . S
Co196 O209 2.244 . S
O197 Co196 2.216 . S
O197 C204 1.247 . S
O198 Co196 2.091 . S
O198 C204 1.261 . S
C199 O208 1.247 . S
C199 O209 1.272 . S
O200 Co196 2.004 . S
O200 C205 1.259 . S
Co201 O202 2.061 . S
Co201 O207 2.052 . S
Co201 O209 2.135 . S
O202 Co201 2.061 . S
O202 C205 1.235 . S
C203 O206 1.238 . S
C203 O207 1.241 . S
C204 O197 1.247 . S
C204 O198 1.261 . S
C205 O200 1.259 . S
C205 O202 1.235 . S
O206 Co196 2.021 . S
O206 C203 1.238 . S
O207 Co201 2.052 . S
O207 C203 1.241 . S
O208 Co196 2.137 . S
O208 C199 1.247 . S
O209 Co196 2.244 . S
O209 C199 1.272 . S
O209 Co201 2.135 . S
Co210 O211 2.216 . S
Co210 O212 2.091 . S
Co210 O214 2.004 . S
Co210 O220 2.021 . S
Co210 O222 2.137 . S
Co210 O223 2.244 . S
O211 Co210 2.216 . S
O211 C218 1.247 . S
O212 Co210 2.091 . S
O212 C218 1.261 . S
C213 O222 1.247 . S
C213 O223 1.272 . S
O214 Co210 2.004 . S
O214 C219 1.259 . S
Co215 O216 2.061 . S
Co215 O221 2.052 . S
Co215 O223 2.135 . S
O216 Co215 2.061 . S
O216 C219 1.235 . S
C217 O220 1.238 . S
C217 O221 1.241 . S
C218 O211 1.247 . S
C218 O212 1.261 . S
C219 O214 1.259 . S
C219 O216 1.235 . S
O220 Co210 2.021 . S
O220 C217 1.238 . S
O221 Co215 2.052 . S
O221 C217 1.241 . S
O222 Co210 2.137 . S
O222 C213 1.247 . S
O223 Co210 2.244 . S
O223 C213 1.272 . S
O223 Co215 2.135 . S
Co224 O225 2.216 . S
Co224 O226 2.091 . S
Co224 O228 2.004 . S
Co224 O234 2.021 . S
Co224 O236 2.137 . S
Co224 O237 2.244 . S
O225 Co224 2.216 . S
O225 C232 1.247 . S
O226 Co224 2.091 . S
O226 C232 1.261 . S
C227 O236 1.247 . S
C227 O237 1.272 . S
O228 Co224 2.004 . S
O228 C233 1.259 . S
Co229 O230 2.061 . S
Co229 O235 2.052 . S
Co229 O237 2.135 . S
O230 Co229 2.061 . S
O230 C233 1.235 . S
C231 O234 1.238 . S
C231 O235 1.241 . S
C232 O225 1.247 . S
C232 O226 1.261 . S
C233 O228 1.259 . S
C233 O230 1.235 . S
O234 Co224 2.021 . S
O234 C231 1.238 . S
O235 Co229 2.052 . S
O235 C231 1.241 . S
O236 Co224 2.137 . S
O236 C227 1.247 . S
O237 Co224 2.244 . S
O237 C227 1.272 . S
O237 Co229 2.135 . S
Co238 O239 2.216 . S
Co238 O240 2.091 . S
Co238 O242 2.004 . S
Co238 O248 2.021 . S
Co238 O250 2.137 . S
Co238 O251 2.244 . S
O239 Co238 2.216 . S
O239 C246 1.247 . S
O240 Co238 2.091 . S
O240 C246 1.261 . S
C241 O250 1.247 . S
C241 O251 1.272 . S
O242 Co238 2.004 . S
O242 C247 1.259 . S
Co243 O244 2.061 . S
Co243 O249 2.052 . S
Co243 O251 2.135 . S
O244 Co243 2.061 . S
O244 C247 1.235 . S
C245 O248 1.238 . S
C245 O249 1.241 . S
C246 O239 1.247 . S
C246 O240 1.261 . S
C247 O242 1.259 . S
C247 O244 1.235 . S
O248 Co238 2.021 . S
O248 C245 1.238 . S
O249 Co243 2.052 . S
O249 C245 1.241 . S
O250 Co238 2.137 . S
O250 C241 1.247 . S
O251 Co238 2.244 . S
O251 C241 1.272 . S
O251 Co243 2.135 . S
Co252 O253 2.216 . S
Co252 O254 2.091 . S
Co252 O256 2.004 . S
Co252 O262 2.021 . S
Co252 O264 2.137 . S
Co252 O265 2.244 . S
O253 Co252 2.216 . S
O253 C260 1.247 . S
O254 Co252 2.091 . S
O254 C260 1.261 . S
C255 O264 1.247 . S
C255 O265 1.272 . S
O256 Co252 2.004 . S
O256 C261 1.259 . S
Co257 O258 2.061 . S
Co257 O263 2.052 . S
Co257 O265 2.135 . S
O258 Co257 2.061 . S
O258 C261 1.235 . S
C259 O262 1.238 . S
C259 O263 1.241 . S
C260 O253 1.247 . S
C260 O254 1.261 . S
C261 O256 1.259 . S
C261 O258 1.235 . S
O262 Co252 2.021 . S
O262 C259 1.238 . S
O263 Co257 2.052 . S
O263 C259 1.241 . S
O264 Co252 2.137 . S
O264 C255 1.247 . S
O265 Co252 2.244 . S
O265 C255 1.272 . S
O265 Co257 2.135 . S
Co266 O267 2.216 . S
Co266 O268 2.091 . S
Co266 O270 2.004 . S
Co266 O276 2.021 . S
Co266 O278 2.137 . S
Co266 O279 2.244 . S
O267 Co266 2.216 . S
O267 C274 1.247 . S
O268 Co266 2.091 . S
O268 C274 1.261 . S
C269 O278 1.247 . S
C269 O279 1.272 . S
O270 Co266 2.004 . S
O270 C275 1.259 . S
Co271 O272 2.061 . S
Co271 O277 2.052 . S
Co271 O279 2.135 . S
O272 Co271 2.061 . S
O272 C275 1.235 . S
C273 O276 1.238 . S
C273 O277 1.241 . S
C274 O267 1.247 . S
C274 O268 1.261 . S
C275 O270 1.259 . S
C275 O272 1.235 . S
O276 Co266 2.021 . S
O276 C273 1.238 . S
O277 Co271 2.052 . S
O277 C273 1.241 . S
O278 Co266 2.137 . S
O278 C269 1.247 . S
O279 Co266 2.244 . S
O279 C269 1.272 . S
O279 Co271 2.135 . S
Co280 O281 2.216 . S
Co280 O282 2.091 . S
Co280 O284 2.004 . S
Co280 O290 2.021 . S
Co280 O292 2.137 . S
Co280 O293 2.244 . S
O281 Co280 2.216 . S
O281 C288 1.247 . S
O282 Co280 2.091 . S
O282 C288 1.261 . S
C283 O292 1.247 . S
C283 O293 1.272 . S
O284 Co280 2.004 . S
O284 C289 1.259 . S
Co285 O286 2.061 . S
Co285 O291 2.052 . S
Co285 O293 2.135 . S
O286 Co285 2.061 . S
O286 C289 1.235 . S
C287 O290 1.238 . S
C287 O291 1.241 . S
C288 O281 1.247 . S
C288 O282 1.261 . S
C289 O284 1.259 . S
C289 O286 1.235 . S
O290 Co280 2.021 . S
O290 C287 1.238 . S
O291 Co285 2.052 . S
O291 C287 1.241 . S
O292 Co280 2.137 . S
O292 C283 1.247 . S
O293 Co280 2.244 . S
O293 C283 1.272 . S
O293 Co285 2.135 . S
Co294 O295 2.216 . S
Co294 O296 2.091 . S
Co294 O298 2.004 . S
Co294 O304 2.021 . S
Co294 O306 2.137 . S
Co294 O307 2.244 . S
O295 Co294 2.216 . S
O295 C302 1.247 . S
O296 Co294 2.091 . S
O296 C302 1.261 . S
C297 O306 1.247 . S
C297 O307 1.272 . S
O298 Co294 2.004 . S
O298 C303 1.259 . S
Co299 O300 2.061 . S
Co299 O305 2.052 . S
Co299 O307 2.135 . S
O300 Co299 2.061 . S
O300 C303 1.235 . S
C301 O304 1.238 1_554 S
C301 O305 1.241 1_554 S
C302 O295 1.247 . S
C302 O296 1.261 . S
C303 O298 1.259 . S
C303 O300 1.235 . S
O304 Co294 2.021 . S
O304 C301 1.238 1_556 S
O305 Co299 2.052 . S
O305 C301 1.241 1_556 S
O306 Co294 2.137 . S
O306 C297 1.247 . S
O307 Co294 2.244 . S
O307 C297 1.272 . S
O307 Co299 2.135 . S
Co308 O309 2.216 . S
Co308 O310 2.091 . S
Co308 O312 2.004 . S
Co308 O318 2.021 . S
Co308 O320 2.137 . S
Co308 O321 2.244 . S
O309 Co308 2.216 . S
O309 C316 1.247 . S
O310 Co308 2.091 . S
O310 C316 1.261 . S
C311 O320 1.247 . S
C311 O321 1.272 . S
O312 Co308 2.004 . S
O312 C317 1.259 . S
Co313 O314 2.061 . S
Co313 O319 2.052 . S
Co313 O321 2.135 . S
O314 Co313 2.061 . S
O314 C317 1.235 . S
C315 O318 1.238 1_554 S
C315 O319 1.241 1_554 S
C316 O309 1.247 . S
C316 O310 1.261 . S
C317 O312 1.259 . S
C317 O314 1.235 . S
O318 Co308 2.021 . S
O318 C315 1.238 1_556 S
O319 Co313 2.052 . S
O319 C315 1.241 1_556 S
O320 Co308 2.137 . S
O320 C311 1.247 . S
O321 Co308 2.244 . S
O321 C311 1.272 . S
O321 Co313 2.135 . S
Co322 O323 2.216 . S
Co322 O324 2.091 . S
Co322 O326 2.004 . S
Co322 O332 2.021 . S
Co322 O334 2.137 . S
Co322 O335 2.244 . S
O323 Co322 2.216 . S
O323 C330 1.247 . S
O324 Co322 2.091 . S
O324 C330 1.261 . S
C325 O334 1.247 . S
C325 O335 1.272 . S
O326 Co322 2.004 . S
O326 C331 1.259 . S
Co327 O328 2.061 . S
Co327 O333 2.052 . S
Co327 O335 2.135 . S
O328 Co327 2.061 . S
O328 C331 1.235 . S
C329 O332 1.238 1_554 S
C329 O333 1.241 1_554 S
C330 O323 1.247 . S
C330 O324 1.261 . S
C331 O326 1.259 . S
C331 O328 1.235 . S
O332 Co322 2.021 . S
O332 C329 1.238 1_556 S
O333 Co327 2.052 . S
O333 C329 1.241 1_556 S
O334 Co322 2.137 . S
O334 C325 1.247 . S
O335 Co322 2.244 . S
O335 C325 1.272 . S
O335 Co327 2.135 . S
Co336 O337 2.216 . S
Co336 O338 2.091 . S
Co336 O340 2.004 . S
Co336 O346 2.021 . S
Co336 O348 2.137 . S
Co336 O349 2.244 . S
O337 Co336 2.216 . S
O337 C344 1.247 . S
O338 Co336 2.091 . S
O338 C344 1.261 . S
C339 O348 1.247 . S
C339 O349 1.272 . S
O340 Co336 2.004 . S
O340 C345 1.259 . S
Co341 O342 2.061 . S
Co341 O347 2.052 . S
Co341 O349 2.135 . S
O342 Co341 2.061 . S
O342 C345 1.235 . S
C343 O346 1.238 . S
C343 O347 1.241 . S
C344 O337 1.247 . S
C344 O338 1.261 . S
C345 O340 1.259 . S
C345 O342 1.235 . S
O346 Co336 2.021 . S
O346 C343 1.238 . S
O347 Co341 2.052 . S
O347 C343 1.241 . S
O348 Co336 2.137 . S
O348 C339 1.247 . S
O349 Co336 2.244 . S
O349 C339 1.272 . S
O349 Co341 2.135 . S
Co350 O351 2.216 . S
Co350 O352 2.091 . S
Co350 O354 2.004 . S
Co350 O360 2.021 . S
Co350 O362 2.137 . S
Co350 O363 2.244 . S
O351 Co350 2.216 . S
O351 C358 1.247 . S
O352 Co350 2.091 . S
O352 C358 1.261 . S
C353 O362 1.247 . S
C353 O363 1.272 . S
O354 Co350 2.004 . S
O354 C359 1.259 . S
Co355 O356 2.061 . S
Co355 O361 2.052 . S
Co355 O363 2.135 . S
O356 Co355 2.061 . S
O356 C359 1.235 . S
C357 O360 1.238 . S
C357 O361 1.241 . S
C358 O351 1.247 . S
C358 O352 1.261 . S
C359 O354 1.259 . S
C359 O356 1.235 . S
O360 Co350 2.021 . S
O360 C357 1.238 . S
O361 Co355 2.052 . S
O361 C357 1.241 . S
O362 Co350 2.137 . S
O362 C353 1.247 . S
O363 Co350 2.244 . S
O363 C353 1.272 . S
O363 Co355 2.135 . S
Co364 O365 2.216 . S
Co364 O366 2.091 . S
Co364 O368 2.004 . S
Co364 O374 2.021 . S
Co364 O376 2.137 . S
Co364 O377 2.244 . S
O365 Co364 2.216 . S
O365 C372 1.247 . S
O366 Co364 2.091 . S
O366 C372 1.261 . S
C367 O376 1.247 . S
C367 O377 1.272 . S
O368 Co364 2.004 . S
O368 C373 1.259 . S
Co369 O370 2.061 . S
Co369 O375 2.052 . S
Co369 O377 2.135 . S
O370 Co369 2.061 . S
O370 C373 1.235 . S
C371 O374 1.238 . S
C371 O375 1.241 . S
C372 O365 1.247 . S
C372 O366 1.261 . S
C373 O368 1.259 . S
C373 O370 1.235 . S
O374 Co364 2.021 . S
O374 C371 1.238 . S
O375 Co369 2.052 . S
O375 C371 1.241 . S
O376 Co364 2.137 . S
O376 C367 1.247 . S
O377 Co364 2.244 . S
O377 C367 1.272 . S
O377 Co369 2.135 . S
Co378 O379 2.216 . S
Co378 O380 2.091 . S
Co378 O382 2.004 . S
Co378 O388 2.021 . S
Co378 O390 2.137 . S
Co378 O391 2.244 . S
O379 Co378 2.216 . S
O379 C386 1.247 . S
O380 Co378 2.091 . S
O380 C386 1.261 . S
C381 O390 1.247 . S
C381 O391 1.272 . S
O382 Co378 2.004 . S
O382 C387 1.259 . S
Co383 O384 2.061 . S
Co383 O389 2.052 . S
Co383 O391 2.135 . S
O384 Co383 2.061 . S
O384 C387 1.235 . S
C385 O388 1.238 1_556 S
C385 O389 1.241 1_556 S
C386 O379 1.247 . S
C386 O380 1.261 . S
C387 O382 1.259 . S
C387 O384 1.235 . S
O388 Co378 2.021 . S
O388 C385 1.238 1_554 S
O389 Co383 2.052 . S
O389 C385 1.241 1_554 S
O390 Co378 2.137 . S
O390 C381 1.247 . S
O391 Co378 2.244 . S
O391 C381 1.272 . S
O391 Co383 2.135 . S
Co392 O393 2.216 . S
Co392 O394 2.091 . S
Co392 O396 2.004 . S
Co392 O402 2.021 . S
Co392 O404 2.137 . S
Co392 O405 2.244 . S
O393 Co392 2.216 . S
O393 C400 1.247 . S
O394 Co392 2.091 . S
O394 C400 1.261 . S
C395 O404 1.247 . S
C395 O405 1.272 . S
O396 Co392 2.004 . S
O396 C401 1.259 . S
Co397 O398 2.061 . S
Co397 O403 2.052 . S
Co397 O405 2.135 . S
O398 Co397 2.061 . S
O398 C401 1.235 . S
C399 O402 1.238 1_556 S
C399 O403 1.241 1_556 S
C400 O393 1.247 . S
C400 O394 1.261 . S
C401 O396 1.259 . S
C401 O398 1.235 . S
O402 Co392 2.021 . S
O402 C399 1.238 1_554 S
O403 Co397 2.052 . S
O403 C399 1.241 1_554 S
O404 Co392 2.137 . S
O404 C395 1.247 . S
O405 Co392 2.244 . S
O405 C395 1.272 . S
O405 Co397 2.135 . S
Co406 O407 2.216 . S
Co406 O408 2.091 . S
Co406 O410 2.004 . S
Co406 O416 2.021 . S
Co406 O418 2.137 . S
Co406 O419 2.244 . S
O407 Co406 2.216 . S
O407 C414 1.247 . S
O408 Co406 2.091 . S
O408 C414 1.261 . S
C409 O418 1.247 . S
C409 O419 1.272 . S
O410 Co406 2.004 . S
O410 C415 1.259 . S
Co411 O412 2.061 . S
Co411 O417 2.052 . S
Co411 O419 2.135 . S
O412 Co411 2.061 . S
O412 C415 1.235 . S
C413 O416 1.238 1_556 S
C413 O417 1.241 1_556 S
C414 O407 1.247 . S
C414 O408 1.261 . S
C415 O410 1.259 . S
C415 O412 1.235 . S
O416 Co406 2.021 . S
O416 C413 1.238 1_554 S
O417 Co411 2.052 . S
O417 C413 1.241 1_554 S
O418 Co406 2.137 . S
O418 C409 1.247 . S
O419 Co406 2.244 . S
O419 C409 1.272 . S
O419 Co411 2.135 . S
Co420 O421 2.216 . S
Co420 O422 2.091 . S
Co420 O424 2.004 . S
Co420 O430 2.021 . S
Co420 O432 2.137 . S
Co420 O433 2.244 . S
O421 Co420 2.216 . S
O421 C428 1.247 . S
O422 Co420 2.091 . S
O422 C428 1.261 . S
C423 O432 1.247 . S
C423 O433 1.272 . S
O424 Co420 2.004 . S
O424 C429 1.259 . S
Co425 O426 2.061 . S
Co425 O431 2.052 . S
Co425 O433 2.135 . S
O426 Co425 2.061 . S
O426 C429 1.235 . S
C427 O430 1.238 . S
C427 O431 1.241 . S
C428 O421 1.247 . S
C428 O422 1.261 . S
C429 O424 1.259 . S
C429 O426 1.235 . S
O430 Co420 2.021 . S
O430 C427 1.238 . S
O431 Co425 2.052 . S
O431 C427 1.241 . S
O432 Co420 2.137 . S
O432 C423 1.247 . S
O433 Co420 2.244 . S
O433 C423 1.272 . S
O433 Co425 2.135 . S
Co434 O435 2.216 . S
Co434 O436 2.091 . S
Co434 O438 2.004 . S
Co434 O444 2.021 . S
Co434 O446 2.137 . S
Co434 O447 2.244 . S
O435 Co434 2.216 . S
O435 C442 1.247 . S
O436 Co434 2.091 . S
O436 C442 1.261 . S
C437 O446 1.247 . S
C437 O447 1.272 . S
O438 Co434 2.004 . S
O438 C443 1.259 . S
Co439 O440 2.061 . S
Co439 O445 2.052 . S
Co439 O447 2.135 . S
O440 Co439 2.061 . S
O440 C443 1.235 . S
C441 O444 1.238 . S
C441 O445 1.241 . S
C442 O435 1.247 . S
C442 O436 1.261 . S
C443 O438 1.259 . S
C443 O440 1.235 . S
O444 Co434 2.021 . S
O444 C441 1.238 . S
O445 Co439 2.052 . S
O445 C441 1.241 . S
O446 Co434 2.137 . S
O446 C437 1.247 . S
O447 Co434 2.244 . S
O447 C437 1.272 . S
O447 Co439 2.135 . S
Co448 O449 2.216 . S
Co448 O450 2.091 . S
Co448 O452 2.004 . S
Co448 O458 2.021 . S
Co448 O460 2.137 . S
Co448 O461 2.244 . S
O449 Co448 2.216 . S
O449 C456 1.247 . S
O450 Co448 2.091 . S
O450 C456 1.261 . S
C451 O460 1.247 . S
C451 O461 1.272 . S
O452 Co448 2.004 . S
O452 C457 1.259 . S
Co453 O454 2.061 . S
Co453 O459 2.052 . S
Co453 O461 2.135 . S
O454 Co453 2.061 . S
O454 C457 1.235 . S
C455 O458 1.238 . S
C455 O459 1.241 . S
C456 O449 1.247 . S
C456 O450 1.261 . S
C457 O452 1.259 . S
C457 O454 1.235 . S
O458 Co448 2.021 . S
O458 C455 1.238 . S
O459 Co453 2.052 . S
O459 C455 1.241 . S
O460 Co448 2.137 . S
O460 C451 1.247 . S
O461 Co448 2.244 . S
O461 C451 1.272 . S
O461 Co453 2.135 . S
Co462 O463 2.216 . S
Co462 O464 2.091 . S
Co462 O466 2.004 . S
Co462 O472 2.021 . S
Co462 O474 2.137 . S
Co462 O475 2.244 . S
O463 Co462 2.216 . S
O463 C470 1.247 . S
O464 Co462 2.091 . S
O464 C470 1.261 . S
C465 O474 1.247 . S
C465 O475 1.272 . S
O466 Co462 2.004 . S
O466 C471 1.259 . S
Co467 O468 2.061 . S
Co467 O473 2.052 . S
Co467 O475 2.135 . S
O468 Co467 2.061 . S
O468 C471 1.235 . S
C469 O472 1.238 . S
C469 O473 1.241 . S
C470 O463 1.247 . S
C470 O464 1.261 . S
C471 O466 1.259 . S
C471 O468 1.235 . S
O472 Co462 2.021 . S
O472 C469 1.238 . S
O473 Co467 2.052 . S
O473 C469 1.241 . S
O474 Co462 2.137 . S
O474 C465 1.247 . S
O475 Co462 2.244 . S
O475 C465 1.272 . S
O475 Co467 2.135 . S
Co476 O477 2.216 . S
Co476 O478 2.091 . S
Co476 O480 2.004 . S
Co476 O486 2.021 . S
Co476 O488 2.137 . S
Co476 O489 2.244 . S
O477 Co476 2.216 . S
O477 C484 1.247 . S
O478 Co476 2.091 . S
O478 C484 1.261 . S
C479 O488 1.247 . S
C479 O489 1.272 . S
O480 Co476 2.004 . S
O480 C485 1.259 . S
Co481 O482 2.061 . S
Co481 O487 2.052 . S
Co481 O489 2.135 . S
O482 Co481 2.061 . S
O482 C485 1.235 . S
C483 O486 1.238 . S
C483 O487 1.241 . S
C484 O477 1.247 . S
C484 O478 1.261 . S
C485 O480 1.259 . S
C485 O482 1.235 . S
O486 Co476 2.021 . S
O486 C483 1.238 . S
O487 Co481 2.052 . S
O487 C483 1.241 . S
O488 Co476 2.137 . S
O488 C479 1.247 . S
O489 Co476 2.244 . S
O489 C479 1.272 . S
O489 Co481 2.135 . S
Co490 O491 2.216 . S
Co490 O492 2.091 . S
Co490 O494 2.004 . S
Co490 O500 2.021 . S
Co490 O502 2.137 . S
Co490 O503 2.244 . S
O491 Co490 2.216 . S
O491 C498 1.247 . S
O492 Co490 2.091 . S
O492 C498 1.261 . S
C493 O502 1.247 . S
C493 O503 1.272 . S
O494 Co490 2.004 . S
O494 C499 1.259 . S
Co495 O496 2.061 . S
Co495 O501 2.052 . S
Co495 O503 2.135 . S
O496 Co495 2.061 . S
O496 C499 1.235 . S
C497 O500 1.238 . S
C497 O501 1.241 . S
C498 O491 1.247 . S
C498 O492 1.261 . S
C499 O494 1.259 . S
C499 O496 1.235 . S
O500 Co490 2.021 . S
O500 C497 1.238 . S
O501 Co495 2.052 . S
O501 C497 1.241 . S
O502 Co490 2.137 . S
O502 C493 1.247 . S
O503 Co490 2.244 . S
O503 C493 1.272 . S
O503 Co495 2.135 . S
C504 C505 1.387 . S
C504 H508 0.950 . S
C504 C513 1.390 . S
C505 C504 1.387 . S
C505 C507 1.387 1_554 S
H506 C513 0.950 1_565 S
C507 C505 1.387 1_556 S
C507 C509 1.390 . S
C507 H511 0.950 . S
H508 C504 0.950 . S
C509 C507 1.390 . S
C509 C510 1.387 . S
C509 H512 0.950 . S
C510 C509 1.387 . S
C510 C513 1.387 1_556 S
H511 C507 0.950 . S
H512 C509 0.950 . S
C513 C504 1.390 . S
C513 H506 0.950 1_545 S
C513 C510 1.387 1_554 S
C514 C515 1.394 . S
C514 H518 0.948 1_554 S
C514 C523 1.385 1_554 S
C515 C514 1.394 . S
C515 C517 1.387 . S
H516 C523 0.950 . S
C517 C515 1.387 . S
C517 C519 1.400 . S
C517 H521 0.950 . S
H518 C514 0.948 1_556 S
C519 C517 1.400 . S
C519 C520 1.396 1_554 S
C519 H522 0.932 1_655 S
C520 C519 1.396 1_556 S
C520 C523 1.387 . S
H521 C517 0.950 . S
H522 C519 0.932 1_455 S
C523 C514 1.385 1_556 S
C523 H516 0.950 . S
C523 C520 1.387 . S
C524 C525 1.387 1_554 S
C524 H528 0.949 1_554 S
C524 C533 1.392 . S
C525 C524 1.387 1_556 S
C525 C527 1.387 . S
H526 C533 0.950 . S
C527 C525 1.387 . S
C527 C529 1.390 1_556 S
C527 H531 0.950 . S
H528 C524 0.949 1_556 S
C529 C527 1.390 1_554 S
C529 C530 1.387 . S
C529 H532 0.950 . S
C530 C529 1.387 . S
C530 C533 1.387 . S
H531 C527 0.950 . S
H532 C529 0.950 . S
C533 C524 1.392 . S
C533 H526 0.950 . S
C533 C530 1.387 . S
C534 C535 1.387 . S
C534 H538 0.950 . S
C534 C543 1.390 . S
C535 C534 1.387 . S
C535 C537 1.387 . S
H536 C543 0.950 . S
C537 C535 1.387 . S
C537 C539 1.390 . S
C537 H541 0.950 1_455 S
H538 C534 0.950 . S
C539 C537 1.390 . S
C539 C540 1.387 . S
C539 H542 0.950 . S
C540 C539 1.387 . S
C540 C543 1.387 . S
H541 C537 0.950 1_655 S
H542 C539 0.950 . S
C543 C534 1.390 . S
C543 H536 0.950 . S
C543 C540 1.387 . S
C544 C545 1.387 . S
C544 H548 0.950 . S
C544 C553 1.390 . S
C545 C544 1.387 . S
C545 C547 1.387 . S
H546 C553 0.950 . S
C547 C545 1.387 . S
C547 C549 1.390 . S
C547 H551 0.950 . S
H548 C544 0.950 . S
C549 C547 1.390 . S
C549 C550 1.387 . S
C549 H552 0.950 . S
C550 C549 1.387 . S
C550 C553 1.387 . S
H551 C547 0.950 . S
H552 C549 0.950 . S
C553 C544 1.390 . S
C553 H546 0.950 . S
C553 C550 1.387 . S
C554 C555 1.387 . S
C554 H558 0.950 . S
C554 C563 1.390 . S
C555 C554 1.387 . S
C555 C557 1.387 . S
H556 C563 0.950 . S
C557 C555 1.387 . S
C557 C559 1.390 . S
C557 H561 0.950 . S
H558 C554 0.950 . S
C559 C557 1.390 . S
C559 C560 1.387 . S
C559 H562 0.950 1_565 S
C560 C559 1.387 . S
C560 C563 1.387 . S
H561 C557 0.950 . S
H562 C559 0.950 1_545 S
C563 C554 1.390 . S
C563 H556 0.950 . S
C563 C560 1.387 . S
C564 C565 1.387 1_556 S
C564 H568 0.950 1_565 S
C564 C573 1.390 . S
C565 C564 1.387 1_554 S
C565 C567 1.387 . S
H566 C573 0.950 . S
C567 C565 1.387 . S
C567 C569 1.390 1_554 S
C567 H571 0.950 . S
H568 C564 0.950 1_545 S
C569 C567 1.390 1_556 S
C569 C570 1.387 . S
C569 H572 0.950 . S
C570 C569 1.387 . S
C570 C573 1.387 . S
H571 C567 0.950 . S
H572 C569 0.950 . S
C573 C564 1.390 . S
C573 H566 0.950 . S
C573 C570 1.387 . S
C574 C575 1.387 . S
C574 H578 0.950 . S
C574 C583 1.390 1_554 S
C575 C574 1.387 . S
C575 C577 1.403 1_554 S
H576 C583 0.950 1_554 S
C577 C575 1.403 1_556 S
C577 C579 1.409 . S
C577 H581 0.915 1_455 S
H578 C574 0.950 . S
C579 C577 1.409 . S
C579 C580 1.387 . S
C579 H582 0.950 . S
C580 C579 1.387 . S
C580 C583 1.387 . S
H581 C577 0.915 1_655 S
H582 C579 0.950 . S
C583 C574 1.390 1_556 S
C583 H576 0.950 1_556 S
C583 C580 1.387 . S
C584 C585 1.387 . S
C584 H588 0.950 . S
C584 C593 1.390 1_556 S
C585 C584 1.387 . S
C585 C587 1.387 . S
H586 C593 0.950 . S
C587 C585 1.387 . S
C587 C589 1.390 . S
C587 H591 0.950 . S
H588 C584 0.950 . S
C589 C587 1.390 . S
C589 C590 1.387 1_556 S
C589 H592 0.950 . S
C590 C589 1.387 1_554 S
C590 C593 1.387 . S
H591 C587 0.950 . S
H592 C589 0.950 . S
C593 C584 1.390 1_554 S
C593 H586 0.950 . S
C593 C590 1.387 . S
C594 C595 1.387 . S
C594 H598 0.950 . S
C594 C603 1.390 . S
C595 C594 1.387 . S
C595 C597 1.387 . S
H596 C603 0.950 . S
C597 C595 1.387 . S
C597 C599 1.390 . S
C597 H601 0.950 . S
H598 C594 0.950 . S
C599 C597 1.390 . S
C599 C600 1.387 . S
C599 H602 0.950 . S
C600 C599 1.387 . S
C600 C603 1.387 . S
H601 C597 0.950 . S
H602 C599 0.950 . S
C603 C594 1.390 . S
C603 H596 0.950 . S
C603 C600 1.387 . S
C604 C605 1.387 . S
C604 H608 0.950 . S
C604 C613 1.390 . S
C605 C604 1.387 . S
C605 C607 1.387 . S
H606 C613 0.950 . S
C607 C605 1.387 . S
C607 C609 1.390 . S
C607 H611 0.950 . S
H608 C604 0.950 . S
C609 C607 1.390 . S
C609 C610 1.387 . S
C609 H612 0.950 . S
C610 C609 1.387 . S
C610 C613 1.387 . S
H611 C607 0.950 . S
H612 C609 0.950 . S
C613 C604 1.390 . S
C613 H606 0.950 . S
C613 C610 1.387 . S
C614 C615 1.387 . S
C614 H618 0.950 . S
C614 C623 1.390 . S
C615 C614 1.387 . S
C615 C617 1.387 . S
H616 C623 0.950 . S
C617 C615 1.387 . S
C617 C619 1.390 . S
C617 H621 0.950 . S
H618 C614 0.950 . S
C619 C617 1.390 . S
C619 C620 1.387 . S
C619 H622 0.950 1_545 S
C620 C619 1.387 . S
C620 C623 1.387 . S
H621 C617 0.950 . S
H622 C619 0.950 1_565 S
C623 C614 1.390 . S
C623 H616 0.950 . S
C623 C620 1.387 . S
C624 C625 1.387 . S
C624 H628 0.950 . S
C624 C633 1.390 . S
C625 C624 1.387 . S
C625 C627 1.387 . S
H626 C633 0.950 . S
C627 C625 1.387 . S
C627 C629 1.390 . S
C627 H631 0.950 . S
H628 C624 0.950 . S
C629 C627 1.390 . S
C629 C630 1.387 . S
C629 H632 0.950 . S
C630 C629 1.387 . S
C630 C633 1.387 . S
H631 C627 0.950 . S
H632 C629 0.950 . S
C633 C624 1.390 . S
C633 H626 0.950 . S
C633 C630 1.387 . S
C634 C635 1.387 . S
C634 H638 0.950 . S
C634 C643 1.390 . S
C635 C634 1.387 . S
C635 C637 1.387 . S
H636 C643 0.950 . S
C637 C635 1.387 . S
C637 C639 1.390 . S
C637 H641 0.950 . S
H638 C634 0.950 . S
C639 C637 1.390 . S
C639 C640 1.387 . S
C639 H642 0.950 . S
C640 C639 1.387 . S
C640 C643 1.387 . S
H641 C637 0.950 . S
H642 C639 0.950 . S
C643 C634 1.390 . S
C643 H636 0.950 . S
C643 C640 1.387 . S
C644 C645 1.387 . S
C644 H648 0.950 . S
C644 C653 1.390 . S
C645 C644 1.387 . S
C645 C647 1.387 . S
H646 C653 0.950 . S
C647 C645 1.387 . S
C647 C649 1.390 . S
C647 H651 0.950 . S
H648 C644 0.950 . S
C649 C647 1.390 . S
C649 C650 1.387 . S
C649 H652 0.950 . S
C650 C649 1.387 . S
C650 C653 1.387 . S
H651 C647 0.950 . S
H652 C649 0.950 . S
C653 C644 1.390 . S
C653 H646 0.950 . S
C653 C650 1.387 . S
C654 C655 1.387 . S
C654 H658 0.950 . S
C654 C663 1.390 . S
C655 C654 1.387 . S
C655 C657 1.387 . S
H656 C663 0.950 . S
C657 C655 1.387 . S
C657 C659 1.390 . S
C657 H661 0.950 . S
H658 C654 0.950 . S
C659 C657 1.390 . S
C659 C660 1.387 . S
C659 H662 0.950 . S
C660 C659 1.387 . S
C660 C663 1.387 . S
H661 C657 0.950 . S
H662 C659 0.950 . S
C663 C654 1.390 . S
C663 H656 0.950 . S
C663 C660 1.387 . S
C664 C665 1.387 . S
C664 H668 0.950 . S
C664 C673 1.390 . S
C665 C664 1.387 . S
C665 C667 1.387 . S
H666 C673 0.950 . S
C667 C665 1.387 . S
C667 C669 1.390 . S
C667 H671 0.950 . S
H668 C664 0.950 . S
C669 C667 1.390 . S
C669 C670 1.387 . S
C669 H672 0.950 . S
C670 C669 1.387 . S
C670 C673 1.387 . S
H671 C667 0.950 . S
H672 C669 0.950 . S
C673 C664 1.390 . S
C673 H666 0.950 . S
C673 C670 1.387 . S
C674 C675 1.387 . S
C674 H678 0.950 . S
C674 C683 1.390 . S
C675 C674 1.387 . S
C675 C677 1.387 . S
H676 C683 0.950 . S
C677 C675 1.387 . S
C677 C679 1.390 . S
C677 H681 0.950 . S
H678 C674 0.950 . S
C679 C677 1.390 . S
C679 C680 1.387 . S
C679 H682 0.950 . S
C680 C679 1.387 . S
C680 C683 1.387 . S
H681 C677 0.950 . S
H682 C679 0.950 . S
C683 C674 1.390 . S
C683 H676 0.950 . S
C683 C680 1.387 . S
C684 C685 1.387 . S
C684 H688 0.950 . S
C684 C693 1.390 . S
C685 C684 1.387 . S
C685 C687 1.387 . S
H686 C693 0.950 . S
C687 C685 1.387 . S
C687 C689 1.390 . S
C687 H691 0.950 . S
H688 C684 0.950 . S
C689 C687 1.390 . S
C689 C690 1.387 . S
C689 H692 0.950 . S
C690 C689 1.387 . S
C690 C693 1.387 . S
H691 C687 0.950 . S
H692 C689 0.950 . S
C693 C684 1.390 . S
C693 H686 0.950 . S
C693 C690 1.387 . S
C694 C695 1.387 . S
C694 H698 0.950 . S
C694 C703 1.390 . S
C695 C694 1.387 . S
C695 C697 1.387 . S
H696 C703 0.950 . S
C697 C695 1.387 . S
C697 C699 1.390 . S
C697 H701 0.950 . S
H698 C694 0.950 . S
C699 C697 1.390 . S
C699 C700 1.387 . S
C699 H702 0.950 . S
C700 C699 1.387 . S
C700 C703 1.387 . S
H701 C697 0.950 . S
H702 C699 0.950 . S
C703 C694 1.390 . S
C703 H696 0.950 . S
C703 C700 1.387 . S
C704 C705 1.387 . S
C704 H708 0.950 . S
C704 C713 1.390 . S
C705 C704 1.387 . S
C705 C707 1.387 . S
H706 C713 0.950 . S
C707 C705 1.387 . S
C707 C709 1.390 . S
C707 H711 0.950 . S
H708 C704 0.950 . S
C709 C707 1.390 . S
C709 C710 1.387 . S
C709 H712 0.950 . S
C710 C709 1.387 . S
C710 C713 1.387 . S
H711 C707 0.950 . S
H712 C709 0.950 . S
C713 C704 1.390 . S
C713 H706 0.950 . S
C713 C710 1.387 . S
C714 C715 1.387 . S
C714 H718 0.950 . S
C714 C723 1.390 . S
C715 C714 1.387 . S
C715 C717 1.387 . S
H716 C723 0.950 . S
C717 C715 1.387 . S
C717 C719 1.390 . S
C717 H721 0.950 . S
H718 C714 0.950 . S
C719 C717 1.390 . S
C719 C720 1.387 . S
C719 H722 0.950 . S
C720 C719 1.387 . S
C720 C723 1.387 . S
H721 C717 0.950 . S
H722 C719 0.950 . S
C723 C714 1.390 . S
C723 H716 0.950 . S
C723 C720 1.387 . S
C724 C725 1.387 . S
C724 H728 0.950 . S
C724 C733 1.390 . S
C725 C724 1.387 . S
C725 C727 1.387 . S
H726 C733 0.950 . S
C727 C725 1.387 . S
C727 C729 1.390 . S
C727 H731 0.950 . S
H728 C724 0.950 . S
C729 C727 1.390 . S
C729 C730 1.387 . S
C729 H732 0.950 . S
C730 C729 1.387 . S
C730 C733 1.387 . S
H731 C727 0.950 . S
H732 C729 0.950 . S
C733 C724 1.390 . S
C733 H726 0.950 . S
C733 C730 1.387 . S
C734 C735 1.387 . S
C734 H738 0.950 . S
C734 C743 1.390 . S
C735 C734 1.387 . S
C735 C737 1.387 . S
H736 C743 0.950 . S
C737 C735 1.387 . S
C737 C739 1.390 . S
C737 H741 0.950 . S
H738 C734 0.950 . S
C739 C737 1.390 . S
C739 C740 1.387 . S
C739 H742 0.950 . S
C740 C739 1.387 . S
C740 C743 1.387 . S
H741 C737 0.950 . S
H742 C739 0.950 . S
C743 C734 1.390 . S
C743 H736 0.950 . S
C743 C740 1.387 . S
C744 C745 1.387 . S
C744 H748 0.950 . S
C744 C753 1.390 . S
C745 C744 1.387 . S
C745 C747 1.387 . S
H746 C753 0.950 . S
C747 C745 1.387 . S
C747 C749 1.390 . S
C747 H751 0.950 . S
H748 C744 0.950 . S
C749 C747 1.390 . S
C749 C750 1.387 . S
C749 H752 0.950 . S
C750 C749 1.387 . S
C750 C753 1.387 . S
H751 C747 0.950 . S
H752 C749 0.950 . S
C753 C744 1.390 . S
C753 H746 0.950 . S
C753 C750 1.387 . S
C754 C755 1.387 . S
C754 H758 0.950 . S
C754 C763 1.390 . S
C755 C754 1.387 . S
C755 C757 1.387 . S
H756 C763 0.950 . S
C757 C755 1.387 . S
C757 C759 1.390 . S
C757 H761 0.950 . S
H758 C754 0.950 . S
C759 C757 1.390 . S
C759 C760 1.387 . S
C759 H762 0.950 . S
C760 C759 1.387 . S
C760 C763 1.387 . S
H761 C757 0.950 . S
H762 C759 0.950 . S
C763 C754 1.390 . S
C763 H756 0.950 . S
C763 C760 1.387 . S
C764 C765 1.387 . S
C764 H768 0.950 . S
C764 C773 1.390 . S
C765 C764 1.387 . S
C765 C767 1.387 . S
H766 C773 0.950 . S
C767 C765 1.387 . S
C767 C769 1.390 . S
C767 H771 0.950 . S
H768 C764 0.950 . S
C769 C767 1.390 . S
C769 C770 1.387 . S
C769 H772 0.950 . S
C770 C769 1.387 . S
C770 C773 1.387 . S
H771 C767 0.950 . S
H772 C769 0.950 . S
C773 C764 1.390 . S
C773 H766 0.950 . S
C773 C770 1.387 . S
C774 C775 1.387 . S
C774 H778 0.950 . S
C774 C783 1.390 . S
C775 C774 1.387 . S
C775 C777 1.387 . S
H776 C783 0.950 . S
C777 C775 1.387 . S
C777 C779 1.390 . S
C777 H781 0.950 . S
H778 C774 0.950 . S
C779 C777 1.390 . S
C779 C780 1.387 . S
C779 H782 0.950 . S
C780 C779 1.387 . S
C780 C783 1.387 . S
H781 C777 0.950 . S
H782 C779 0.950 . S
C783 C774 1.390 . S
C783 H776 0.950 . S
C783 C780 1.387 . S
C784 C785 1.387 . S
C784 H788 0.950 . S
C784 C793 1.390 . S
C785 C784 1.387 . S
C785 C787 1.387 . S
H786 C793 0.950 . S
C787 C785 1.387 . S
C787 C789 1.390 . S
C787 H791 0.950 . S
H788 C784 0.950 . S
C789 C787 1.390 . S
C789 C790 1.387 . S
C789 H792 0.950 . S
C790 C789 1.387 . S
C790 C793 1.387 . S
H791 C787 0.950 . S
H792 C789 0.950 . S
C793 C784 1.390 . S
C793 H786 0.950 . S
C793 C790 1.387 . S
C794 C795 1.387 . S
C794 H798 0.950 . S
C794 C803 1.390 . S
C795 C794 1.387 . S
C795 C797 1.387 . S
H796 C803 0.950 . S
C797 C795 1.387 . S
C797 C799 1.390 . S
C797 H801 0.950 . S
H798 C794 0.950 . S
C799 C797 1.390 . S
C799 C800 1.387 . S
C799 H802 0.950 . S
C800 C799 1.387 . S
C800 C803 1.387 . S
H801 C797 0.950 . S
H802 C799 0.950 . S
C803 C794 1.390 . S
C803 H796 0.950 . S
C803 C800 1.387 . S
C804 C805 1.387 . S
C804 H808 0.950 . S
C804 C813 1.390 . S
C805 C804 1.387 . S
C805 C807 1.387 . S
H806 C813 0.950 . S
C807 C805 1.387 . S
C807 C809 1.390 . S
C807 H811 0.950 . S
H808 C804 0.950 . S
C809 C807 1.390 . S
C809 C810 1.387 . S
C809 H812 0.950 . S
C810 C809 1.387 . S
C810 C813 1.387 . S
H811 C807 0.950 . S
H812 C809 0.950 . S
C813 C804 1.390 . S
C813 H806 0.950 . S
C813 C810 1.387 . S
C814 C815 1.387 . S
C814 H818 0.950 . S
C814 C823 1.390 . S
C815 C814 1.387 . S
C815 C817 1.387 . S
H816 C823 0.950 . S
C817 C815 1.387 . S
C817 C819 1.390 . S
C817 H821 0.950 . S
H818 C814 0.950 . S
C819 C817 1.390 . S
C819 C820 1.387 . S
C819 H822 0.950 . S
C820 C819 1.387 . S
C820 C823 1.387 . S
H821 C817 0.950 . S
H822 C819 0.950 . S
C823 C814 1.390 . S
C823 H816 0.950 . S
C823 C820 1.387 . S
C824 C825 1.387 . S
C824 H828 0.950 . S
C824 C833 1.390 . S
C825 C824 1.387 . S
C825 C827 1.387 . S
H826 C833 0.950 . S
C827 C825 1.387 . S
C827 C829 1.390 . S
C827 H831 0.950 . S
H828 C824 0.950 . S
C829 C827 1.390 . S
C829 C830 1.387 . S
C829 H832 0.950 . S
C830 C829 1.387 . S
C830 C833 1.387 . S
H831 C827 0.950 . S
H832 C829 0.950 . S
C833 C824 1.390 . S
C833 H826 0.950 . S
C833 C830 1.387 . S
C834 C835 1.387 . S
C834 H838 0.950 . S
C834 C843 1.390 . S
C835 C834 1.387 . S
C835 C837 1.387 . S
H836 C843 0.950 . S
C837 C835 1.387 . S
C837 C839 1.390 . S
C837 H841 0.950 . S
H838 C834 0.950 . S
C839 C837 1.390 . S
C839 C840 1.387 . S
C839 H842 0.950 . S
C840 C839 1.387 . S
C840 C843 1.387 . S
H841 C837 0.950 . S
H842 C839 0.950 . S
C843 C834 1.390 . S
C843 H836 0.950 . S
C843 C840 1.387 . S
C844 C845 1.387 . S
C844 H848 0.950 . S
C844 C853 1.390 . S
C845 C844 1.387 . S
C845 C847 1.387 . S
H846 C853 0.950 . S
C847 C845 1.387 . S
C847 C849 1.390 . S
C847 H851 0.950 . S
H848 C844 0.950 . S
C849 C847 1.390 . S
C849 C850 1.387 . S
C849 H852 0.950 . S
C850 C849 1.387 . S
C850 C853 1.387 . S
H851 C847 0.950 . S
H852 C849 0.950 . S
C853 C844 1.390 . S
C853 H846 0.950 . S
C853 C850 1.387 . S
C854 C855 1.387 . S
C854 H858 0.950 . S
C854 C863 1.390 . S
C855 C854 1.387 . S
C855 C857 1.387 . S
H856 C863 0.950 . S
C857 C855 1.387 . S
C857 C859 1.390 . S
C857 H861 0.950 . S
H858 C854 0.950 . S
C859 C857 1.390 . S
C859 C860 1.387 . S
C859 H862 0.950 . S
C860 C859 1.387 . S
C860 C863 1.387 . S
H861 C857 0.950 . S
H862 C859 0.950 . S
C863 C854 1.390 . S
C863 H856 0.950 . S
C863 C860 1.387 . S
C864 C865 1.387 . S
C864 H868 0.950 . S
C864 C873 1.390 . S
C865 C864 1.387 . S
C865 C867 1.387 . S
H866 C873 0.950 . S
C867 C865 1.387 . S
C867 C869 1.390 . S
C867 H871 0.950 . S
H868 C864 0.950 . S
C869 C867 1.390 . S
C869 C870 1.387 . S
C869 H872 0.950 . S
C870 C869 1.387 . S
C870 C873 1.387 . S
H871 C867 0.950 . S
H872 C869 0.950 . S
C873 C864 1.390 . S
C873 H866 0.950 . S
C873 C870 1.387 . S
C874 C875 1.387 . S
C874 H878 0.950 . S
C874 C883 1.390 1_565 S
C875 C874 1.387 . S
C875 C877 1.387 . S
H876 C883 0.950 . S
C877 C875 1.387 . S
C877 C879 1.390 1_565 S
C877 H881 0.950 . S
H878 C874 0.950 . S
C879 C877 1.390 1_545 S
C879 C880 1.387 . S
C879 H882 0.950 . S
C880 C879 1.387 . S
C880 C883 1.387 . S
H881 C877 0.950 . S
H882 C879 0.950 . S
C883 C874 1.390 1_545 S
C883 H876 0.950 . S
C883 C880 1.387 . S
C884 C885 1.385 1_455 S
C884 H888 0.955 . S
C884 C893 1.396 . S
C885 C884 1.385 1_655 S
C885 C887 1.387 . S
H886 C893 0.950 . S
C887 C885 1.387 . S
C887 C889 1.396 . S
C887 H891 0.950 . S
H888 C884 0.955 . S
C889 C887 1.396 . S
C889 C890 1.385 1_655 S
C889 H892 0.955 . S
C890 C889 1.385 1_455 S
C890 C893 1.387 . S
H891 C887 0.950 . S
H892 C889 0.955 . S
C893 C884 1.396 . S
C893 H886 0.950 . S
C893 C890 1.387 . S
C894 C895 1.387 . S
C894 H898 0.950 . S
C894 C903 1.390 . S
C895 C894 1.387 . S
C895 C897 1.387 . S
H896 C903 0.950 . S
C897 C895 1.387 . S
C897 C899 1.390 . S
C897 H901 0.950 . S
H898 C894 0.950 . S
C899 C897 1.390 . S
C899 C900 1.387 . S
C899 H902 0.950 . S
C900 C899 1.387 . S
C900 C903 1.387 . S
H901 C897 0.950 . S
H902 C899 0.950 . S
C903 C894 1.390 . S
C903 H896 0.950 . S
C903 C900 1.387 . S
C904 C905 1.387 . S
C904 H908 0.950 . S
C904 C913 1.390 1_545 S
C905 C904 1.387 . S
C905 C907 1.387 . S
H906 C913 0.950 . S
C907 C905 1.387 . S
C907 C909 1.390 1_545 S
C907 H911 0.950 . S
H908 C904 0.950 . S
C909 C907 1.390 1_565 S
C909 C910 1.387 . S
C909 H912 0.950 . S
C910 C909 1.387 . S
C910 C913 1.387 . S
H911 C907 0.950 . S
H912 C909 0.950 . S
C913 C904 1.390 1_565 S
C913 H906 0.950 . S
C913 C910 1.387 . S
C914 C915 1.387 . S
C914 H918 0.950 . S
C914 C923 1.390 1_655 S
C915 C914 1.387 . S
C915 C917 1.387 . S
H916 C923 0.950 . S
C917 C915 1.387 . S
C917 C919 1.390 1_655 S
C917 H921 0.950 . S
H918 C914 0.950 . S
C919 C917 1.390 1_455 S
C919 C920 1.387 . S
C919 H922 0.950 . S
C920 C919 1.387 . S
C920 C923 1.387 . S
H921 C917 0.950 . S
H922 C919 0.950 . S
C923 C914 1.390 1_455 S
C923 H916 0.950 . S
C923 C920 1.387 . S
C924 C925 1.387 . S
C924 H928 0.950 . S
C924 C933 1.390 . S
C925 C924 1.387 . S
C925 C927 1.387 . S
H926 C933 0.950 . S
C927 C925 1.387 . S
C927 C929 1.390 . S
C927 H931 0.950 . S
H928 C924 0.950 . S
C929 C927 1.390 . S
C929 C930 1.387 . S
C929 H932 0.950 . S
C930 C929 1.387 . S
C930 C933 1.387 . S
H931 C927 0.950 . S
H932 C929 0.950 . S
C933 C924 1.390 . S
C933 H926 0.950 . S
C933 C930 1.387 . S
C934 C935 1.387 . S
C934 H938 0.950 . S
C934 C943 1.390 . S
C935 C934 1.387 . S
C935 C937 1.387 . S
H936 C943 0.950 . S
C937 C935 1.387 . S
C937 C939 1.390 . S
C937 H941 0.950 . S
H938 C934 0.950 . S
C939 C937 1.390 . S
C939 C940 1.387 . S
C939 H942 0.950 . S
C940 C939 1.387 . S
C940 C943 1.387 . S
H941 C937 0.950 . S
H942 C939 0.950 . S
C943 C934 1.390 . S
C943 H936 0.950 . S
C943 C940 1.387 . S
C944 C945 1.387 . S
C944 H948 0.950 . S
C944 C953 1.390 . S
C945 C944 1.387 . S
C945 C947 1.387 . S
H946 C953 0.950 . S
C947 C945 1.387 . S
C947 C949 1.390 . S
C947 H951 0.950 . S
H948 C944 0.950 . S
C949 C947 1.390 . S
C949 C950 1.387 . S
C949 H952 0.950 . S
C950 C949 1.387 . S
C950 C953 1.387 . S
H951 C947 0.950 . S
H952 C949 0.950 . S
C953 C944 1.390 . S
C953 H946 0.950 . S
C953 C950 1.387 . S
C954 C955 1.387 . S
C954 H958 0.950 . S
C954 C963 1.390 . S
C955 C954 1.387 . S
C955 C957 1.387 . S
H956 C963 0.950 . S
C957 C955 1.387 . S
C957 C959 1.390 . S
C957 H961 0.950 . S
H958 C954 0.950 . S
C959 C957 1.390 . S
C959 C960 1.387 . S
C959 H962 0.950 . S
C960 C959 1.387 . S
C960 C963 1.387 . S
H961 C957 0.950 . S
H962 C959 0.950 . S
C963 C954 1.390 . S
C963 H956 0.950 . S
C963 C960 1.387 . S
C964 C965 1.387 . S
C964 H968 0.950 . S
C964 C973 1.390 . S
C965 C964 1.387 . S
C965 C967 1.387 . S
H966 C973 0.950 . S
C967 C965 1.387 . S
C967 C969 1.390 . S
C967 H971 0.950 . S
H968 C964 0.950 . S
C969 C967 1.390 . S
C969 C970 1.387 . S
C969 H972 0.950 . S
C970 C969 1.387 . S
C970 C973 1.387 . S
H971 C967 0.950 . S
H972 C969 0.950 . S
C973 C964 1.390 . S
C973 H966 0.950 . S
C973 C970 1.387 . S
C974 C975 1.387 . S
C974 H978 0.950 . S
C974 C983 1.390 . S
C975 C974 1.387 . S
C975 C977 1.387 . S
H976 C983 0.950 . S
C977 C975 1.387 . S
C977 C979 1.390 . S
C977 H981 0.950 . S
H978 C974 0.950 . S
C979 C977 1.390 . S
C979 C980 1.387 . S
C979 H982 0.950 . S
C980 C979 1.387 . S
C980 C983 1.387 . S
H981 C977 0.950 . S
H982 C979 0.950 . S
C983 C974 1.390 . S
C983 H976 0.950 . S
C983 C980 1.387 . S
C984 C985 1.387 . S
C984 H988 0.950 . S
C984 C993 1.390 . S
C985 C984 1.387 . S
C985 C987 1.387 . S
H986 C993 0.950 . S
C987 C985 1.387 . S
C987 C989 1.390 . S
C987 H991 0.950 . S
H988 C984 0.950 . S
C989 C987 1.390 . S
C989 C990 1.387 . S
C989 H992 0.950 . S
C990 C989 1.387 . S
C990 C993 1.387 . S
H991 C987 0.950 . S
H992 C989 0.950 . S
C993 C984 1.390 . S
C993 H986 0.950 . S
C993 C990 1.387 . S
C994 C995 1.387 . S
C994 H998 0.950 . S
C994 C1003 1.390 . S
C995 C994 1.387 . S
C995 C997 1.387 . S
H996 C1003 0.950 . S
C997 C995 1.387 . S
C997 C999 1.390 . S
C997 H1001 0.950 . S
H998 C994 0.950 . S
C999 C997 1.390 . S
C999 C1000 1.387 . S
C999 H1002 0.950 . S
C1000 C999 1.387 . S
C1000 C1003 1.387 . S
H1001 C997 0.950 . S
H1002 C999 0.950 . S
C1003 C994 1.390 . S
C1003 H996 0.950 . S
C1003 C1000 1.387 . S
C1004 C1005 1.387 . S
C1004 H1008 0.950 . S
C1004 C1013 1.390 . S
C1005 C1004 1.387 . S
C1005 C1007 1.387 . S
H1006 C1013 0.950 . S
C1007 C1005 1.387 . S
C1007 C1009 1.390 . S
C1007 H1011 0.950 . S
H1008 C1004 0.950 . S
C1009 C1007 1.390 . S
C1009 C1010 1.387 . S
C1009 H1012 0.950 . S
C1010 C1009 1.387 . S
C1010 C1013 1.387 . S
H1011 C1007 0.950 . S
H1012 C1009 0.950 . S
C1013 C1004 1.390 . S
C1013 H1006 0.950 . S
C1013 C1010 1.387 . S
C1014 C1015 1.387 . S
C1014 H1018 0.950 . S
C1014 C1023 1.390 . S
C1015 C1014 1.387 . S
C1015 C1017 1.387 . S
H1016 C1023 0.950 . S
C1017 C1015 1.387 . S
C1017 C1019 1.390 . S
C1017 H1021 0.950 . S
H1018 C1014 0.950 . S
C1019 C1017 1.390 . S
C1019 C1020 1.387 . S
C1019 H1022 0.950 . S
C1020 C1019 1.387 . S
C1020 C1023 1.387 . S
H1021 C1017 0.950 . S
H1022 C1019 0.950 . S
C1023 C1014 1.390 . S
C1023 H1016 0.950 . S
C1023 C1020 1.387 . S
C1024 C1025 1.387 . S
C1024 H1028 0.950 . S
C1024 C1033 1.390 . S
C1025 C1024 1.387 . S
C1025 C1027 1.387 . S
H1026 C1033 0.950 . S
C1027 C1025 1.387 . S
C1027 C1029 1.390 . S
C1027 H1031 0.950 . S
H1028 C1024 0.950 . S
C1029 C1027 1.390 . S
C1029 C1030 1.387 . S
C1029 H1032 0.950 . S
C1030 C1029 1.387 . S
C1030 C1033 1.387 . S
H1031 C1027 0.950 . S
H1032 C1029 0.950 . S
C1033 C1024 1.390 . S
C1033 H1026 0.950 . S
C1033 C1030 1.387 . S
C1034 C1035 1.387 . S
C1034 H1038 0.950 . S
C1034 C1043 1.390 . S
C1035 C1034 1.387 . S
C1035 C1037 1.387 . S
H1036 C1043 0.950 . S
C1037 C1035 1.387 . S
C1037 C1039 1.390 . S
C1037 H1041 0.950 . S
H1038 C1034 0.950 . S
C1039 C1037 1.390 . S
C1039 C1040 1.387 . S
C1039 H1042 0.950 . S
C1040 C1039 1.387 . S
C1040 C1043 1.387 . S
H1041 C1037 0.950 . S
H1042 C1039 0.950 . S
C1043 C1034 1.390 . S
C1043 H1036 0.950 . S
C1043 C1040 1.387 . S
C1044 C1045 1.387 . S
C1044 H1048 0.950 . S
C1044 C1053 1.390 . S
C1045 C1044 1.387 . S
C1045 C1047 1.387 . S
H1046 C1053 0.950 . S
C1047 C1045 1.387 . S
C1047 C1049 1.390 . S
C1047 H1051 0.950 . S
H1048 C1044 0.950 . S
C1049 C1047 1.390 . S
C1049 C1050 1.387 . S
C1049 H1052 0.950 . S
C1050 C1049 1.387 . S
C1050 C1053 1.387 . S
H1051 C1047 0.950 . S
H1052 C1049 0.950 . S
C1053 C1044 1.390 . S
C1053 H1046 0.950 . S
C1053 C1050 1.387 . S
C1054 C1055 1.387 . S
C1054 H1058 0.950 . S
C1054 C1063 1.390 . S
C1055 C1054 1.387 . S
C1055 C1057 1.387 . S
H1056 C1063 0.950 . S
C1057 C1055 1.387 . S
C1057 C1059 1.390 . S
C1057 H1061 0.950 . S
H1058 C1054 0.950 . S
C1059 C1057 1.390 . S
C1059 C1060 1.387 . S
C1059 H1062 0.950 . S
C1060 C1059 1.387 . S
C1060 C1063 1.387 . S
H1061 C1057 0.950 . S
H1062 C1059 0.950 . S
C1063 C1054 1.390 . S
C1063 H1056 0.950 . S
C1063 C1060 1.387 . S
C1064 C1065 1.387 . S
C1064 H1068 0.950 . S
C1064 C1073 1.390 . S
C1065 C1064 1.387 . S
C1065 C1067 1.387 . S
H1066 C1073 0.950 . S
C1067 C1065 1.387 . S
C1067 C1069 1.390 . S
C1067 H1071 0.950 . S
H1068 C1064 0.950 . S
C1069 C1067 1.390 . S
C1069 C1070 1.387 . S
C1069 H1072 0.950 . S
C1070 C1069 1.387 . S
C1070 C1073 1.387 . S
H1071 C1067 0.950 . S
H1072 C1069 0.950 . S
C1073 C1064 1.390 . S
C1073 H1066 0.950 . S
C1073 C1070 1.387 . S
C1074 C1075 1.387 . S
C1074 H1078 0.950 . S
C1074 C1083 1.390 . S
C1075 C1074 1.387 . S
C1075 C1077 1.387 . S
H1076 C1083 0.950 . S
C1077 C1075 1.387 . S
C1077 C1079 1.390 . S
C1077 H1081 0.950 . S
H1078 C1074 0.950 . S
C1079 C1077 1.390 . S
C1079 C1080 1.387 . S
C1079 H1082 0.950 . S
C1080 C1079 1.387 . S
C1080 C1083 1.387 . S
H1081 C1077 0.950 . S
H1082 C1079 0.950 . S
C1083 C1074 1.390 . S
C1083 H1076 0.950 . S
C1083 C1080 1.387 . S
C1084 C1085 1.387 . S
C1084 H1088 0.950 . S
C1084 C1093 1.390 . S
C1085 C1084 1.387 . S
C1085 C1087 1.387 . S
H1086 C1093 0.950 . S
C1087 C1085 1.387 . S
C1087 C1089 1.390 . S
C1087 H1091 0.950 . S
H1088 C1084 0.950 . S
C1089 C1087 1.390 . S
C1089 C1090 1.387 . S
C1089 H1092 0.950 . S
C1090 C1089 1.387 . S
C1090 C1093 1.387 . S
H1091 C1087 0.950 . S
H1092 C1089 0.950 . S
C1093 C1084 1.390 . S
C1093 H1086 0.950 . S
C1093 C1090 1.387 . S
C1094 C1095 1.387 . S
C1094 H1098 0.950 . S
C1094 C1103 1.390 . S
C1095 C1094 1.387 . S
C1095 C1097 1.387 . S
H1096 C1103 0.950 . S
C1097 C1095 1.387 . S
C1097 C1099 1.390 . S
C1097 H1101 0.950 . S
H1098 C1094 0.950 . S
C1099 C1097 1.390 . S
C1099 C1100 1.387 . S
C1099 H1102 0.950 . S
C1100 C1099 1.387 . S
C1100 C1103 1.387 . S
H1101 C1097 0.950 . S
H1102 C1099 0.950 . S
C1103 C1094 1.390 . S
C1103 H1096 0.950 . S
C1103 C1100 1.387 . S
C1104 C1105 1.387 . S
C1104 H1108 0.950 . S
C1104 C1113 1.390 . S
C1105 C1104 1.387 . S
C1105 C1107 1.387 . S
H1106 C1113 0.950 . S
C1107 C1105 1.387 . S
C1107 C1109 1.390 . S
C1107 H1111 0.950 . S
H1108 C1104 0.950 . S
C1109 C1107 1.390 . S
C1109 C1110 1.387 . S
C1109 H1112 0.950 . S
C1110 C1109 1.387 . S
C1110 C1113 1.387 . S
H1111 C1107 0.950 . S
H1112 C1109 0.950 . S
C1113 C1104 1.390 . S
C1113 H1106 0.950 . S
C1113 C1110 1.387 . S
C1114 C1115 1.387 . S
C1114 H1118 0.950 . S
C1114 C1123 1.390 . S
C1115 C1114 1.387 . S
C1115 C1117 1.387 . S
H1116 C1123 0.950 . S
C1117 C1115 1.387 . S
C1117 C1119 1.390 . S
C1117 H1121 0.950 . S
H1118 C1114 0.950 . S
C1119 C1117 1.390 . S
C1119 C1120 1.387 . S
C1119 H1122 0.950 . S
C1120 C1119 1.387 . S
C1120 C1123 1.387 . S
H1121 C1117 0.950 . S
H1122 C1119 0.950 . S
C1123 C1114 1.390 . S
C1123 H1116 0.950 . S
C1123 C1120 1.387 . S
C1124 C1125 1.387 . S
C1124 H1128 0.950 . S
C1124 C1133 1.390 . S
C1125 C1124 1.387 . S
C1125 C1127 1.387 . S
H1126 C1133 0.950 . S
C1127 C1125 1.387 . S
C1127 C1129 1.390 . S
C1127 H1131 0.950 . S
H1128 C1124 0.950 . S
C1129 C1127 1.390 . S
C1129 C1130 1.387 . S
C1129 H1132 0.950 . S
C1130 C1129 1.387 . S
C1130 C1133 1.387 . S
H1131 C1127 0.950 . S
H1132 C1129 0.950 . S
C1133 C1124 1.390 . S
C1133 H1126 0.950 . S
C1133 C1130 1.387 . S
C1134 C1135 1.387 . S
C1134 H1138 0.950 . S
C1134 C1143 1.390 . S
C1135 C1134 1.387 . S
C1135 C1137 1.387 . S
H1136 C1143 0.950 . S
C1137 C1135 1.387 . S
C1137 C1139 1.390 . S
C1137 H1141 0.950 . S
H1138 C1134 0.950 . S
C1139 C1137 1.390 . S
C1139 C1140 1.387 . S
C1139 H1142 0.950 . S
C1140 C1139 1.387 . S
C1140 C1143 1.387 . S
H1141 C1137 0.950 . S
H1142 C1139 0.950 . S
C1143 C1134 1.390 . S
C1143 H1136 0.950 . S
C1143 C1140 1.387 . S
C1144 C1145 1.387 . S
C1144 H1148 0.950 . S
C1144 C1153 1.390 . S
C1145 C1144 1.387 . S
C1145 C1147 1.387 . S
H1146 C1153 0.950 . S
C1147 C1145 1.387 . S
C1147 C1149 1.390 . S
C1147 H1151 0.950 . S
H1148 C1144 0.950 . S
C1149 C1147 1.390 . S
C1149 C1150 1.387 . S
C1149 H1152 0.950 . S
C1150 C1149 1.387 . S
C1150 C1153 1.387 . S
H1151 C1147 0.950 . S
H1152 C1149 0.950 . S
C1153 C1144 1.390 . S
C1153 H1146 0.950 . S
C1153 C1150 1.387 . S
C1154 C1155 1.387 . S
C1154 H1158 0.950 . S
C1154 C1163 1.390 . S
C1155 C1154 1.387 . S
C1155 C1157 1.387 . S
H1156 C1163 0.950 . S
C1157 C1155 1.387 . S
C1157 C1159 1.390 . S
C1157 H1161 0.950 . S
H1158 C1154 0.950 . S
C1159 C1157 1.390 . S
C1159 C1160 1.387 . S
C1159 H1162 0.950 . S
C1160 C1159 1.387 . S
C1160 C1163 1.387 . S
H1161 C1157 0.950 . S
H1162 C1159 0.950 . S
C1163 C1154 1.390 . S
C1163 H1156 0.950 . S
C1163 C1160 1.387 . S
C1164 C1165 1.387 . S
C1164 H1168 0.950 . S
C1164 C1173 1.396 . S
C1165 C1164 1.387 . S
C1165 C1167 1.385 1_455 S
H1166 C1173 0.954 . S
C1167 C1165 1.385 1_655 S
C1167 C1169 1.396 . S
C1167 H1171 0.954 . S
H1168 C1164 0.950 . S
C1169 C1167 1.396 . S
C1169 C1170 1.387 . S
C1169 H1172 0.950 . S
C1170 C1169 1.387 . S
C1170 C1173 1.385 1_655 S
H1171 C1167 0.954 . S
H1172 C1169 0.950 . S
C1173 C1164 1.396 . S
C1173 H1166 0.954 . S
C1173 C1170 1.385 1_455 S
C1174 C1175 1.387 . S
C1174 H1178 0.950 . S
C1174 C1183 1.390 . S
C1175 C1174 1.387 . S
C1175 C1177 1.387 . S
H1176 C1183 0.950 . S
C1177 C1175 1.387 . S
C1177 C1179 1.390 . S
C1177 H1181 0.950 . S
H1178 C1174 0.950 . S
C1179 C1177 1.390 . S
C1179 C1180 1.387 . S
C1179 H1182 0.950 . S
C1180 C1179 1.387 . S
C1180 C1183 1.387 . S
H1181 C1177 0.950 . S
H1182 C1179 0.950 . S
C1183 C1174 1.390 . S
C1183 H1176 0.950 . S
C1183 C1180 1.387 . S
C1184 C1185 1.387 1_565 S
C1184 H1188 0.950 . S
C1184 C1193 1.390 . S
C1185 C1184 1.387 1_545 S
C1185 C1187 1.387 . S
H1186 C1193 0.950 . S
C1187 C1185 1.387 . S
C1187 C1189 1.390 . S
C1187 H1191 0.950 . S
H1188 C1184 0.950 . S
C1189 C1187 1.390 . S
C1189 C1190 1.387 1_545 S
C1189 H1192 0.950 . S
C1190 C1189 1.387 1_565 S
C1190 C1193 1.387 . S
H1191 C1187 0.950 . S
H1192 C1189 0.950 . S
C1193 C1184 1.390 . S
C1193 H1186 0.950 . S
C1193 C1190 1.387 . S
C1194 C1195 1.387 1_554 S
C1194 H1198 0.950 . S
C1194 C1203 1.390 1_545 S
C1195 C1194 1.387 1_556 S
C1195 C1197 1.387 . S
H1196 C1203 0.950 . S
C1197 C1195 1.387 . S
C1197 C1199 1.390 1_545 S
C1197 H1201 0.950 . S
H1198 C1194 0.950 . S
C1199 C1197 1.390 1_565 S
C1199 C1200 1.387 1_556 S
C1199 H1202 0.950 . S
C1200 C1199 1.387 1_554 S
C1200 C1203 1.387 . S
H1201 C1197 0.950 . S
H1202 C1199 0.950 . S
C1203 C1194 1.390 1_565 S
C1203 H1196 0.950 . S
C1203 C1200 1.387 . S
C1204 C1205 1.387 . S
C1204 H1208 0.950 . S
C1204 C1213 1.390 1_655 S
C1205 C1204 1.387 . S
C1205 C1207 1.387 1_556 S
H1206 C1213 0.950 . S
C1207 C1205 1.387 1_554 S
C1207 C1209 1.390 1_655 S
C1207 H1211 0.950 . S
H1208 C1204 0.950 . S
C1209 C1207 1.390 1_455 S
C1209 C1210 1.387 . S
C1209 H1212 0.950 . S
C1210 C1209 1.387 . S
C1210 C1213 1.387 1_554 S
H1211 C1207 0.950 . S
H1212 C1209 0.950 . S
C1213 C1204 1.390 1_455 S
C1213 H1206 0.950 . S
C1213 C1210 1.387 1_556 S
C1214 C1215 1.386 1_554 S
C1214 H1218 0.950 . S
C1214 C1223 1.391 . S
C1215 C1214 1.386 1_556 S
C1215 C1217 1.387 . S
H1216 C1223 0.950 . S
C1217 C1215 1.387 . S
C1217 C1219 1.391 . S
C1217 H1221 0.950 . S
H1218 C1214 0.950 . S
C1219 C1217 1.391 . S
C1219 C1220 1.386 1_556 S
C1219 H1222 0.950 . S
C1220 C1219 1.386 1_554 S
C1220 C1223 1.387 . S
H1221 C1217 0.950 . S
H1222 C1219 0.950 . S
C1223 C1214 1.391 . S
C1223 H1216 0.950 . S
C1223 C1220 1.387 . S
C505 C3 1.368 . S
C510 C107 1.335 1_545 S
C515 C17 1.369 . S
C520 C121 1.338 1_655 S
C525 C93 1.337 . S
C530 C31 1.368 . S
C535 C163 1.337 1_455 S
C540 C45 1.368 . S
C545 C59 1.370 . S
C550 C135 1.337 . S
C555 C73 1.370 . S
C560 C149 1.339 1_565 S
C565 C23 1.338 1_565 S
C570 C87 1.369 . S
C575 C37 1.335 1_455 S
C580 C101 1.369 . S
C585 C115 1.369 . S
C590 C9 1.336 . S
C595 C129 1.370 . S
C600 C79 1.337 1_655 S
C605 C51 1.338 . S
C610 C143 1.369 . S
C615 C157 1.368 . S
C620 C65 1.335 1_545 S
C625 C275 1.337 . S
C630 C171 1.368 . S
C635 C185 1.370 . S
C640 C289 1.338 . S
C645 C199 1.369 . S
C650 C261 1.336 . S
C655 C331 1.338 . S
C660 C213 1.369 . S
C665 C227 1.368 . S
C670 C303 1.338 . S
C675 C317 1.335 . S
C680 C241 1.369 . S
C685 C191 1.339 . S
C690 C255 1.370 . S
C695 C269 1.368 . S
C700 C205 1.337 . S
C705 C177 1.338 . S
C710 C283 1.368 . S
C715 C297 1.369 . S
C720 C247 1.335 . S
C725 C311 1.370 . S
C730 C219 1.337 . S
C735 C325 1.369 . S
C740 C233 1.335 . S
C745 C443 1.338 . S
C750 C339 1.369 . S
C755 C457 1.336 . S
C760 C353 1.368 . S
C765 C429 1.336 . S
C770 C367 1.369 . S
C775 C381 1.369 . S
C780 C499 1.338 . S
C785 C395 1.368 . S
C790 C471 1.335 . S
C795 C485 1.337 . S
C800 C409 1.368 . S
C805 C423 1.369 . S
C810 C359 1.338 . S
C815 C373 1.335 . S
C820 C437 1.368 . S
C825 C345 1.337 . S
C830 C451 1.370 . S
C835 C465 1.369 . S
C840 C415 1.338 . S
C845 C479 1.370 . S
C850 C387 1.337 . S
C855 C493 1.370 . S
C860 C401 1.338 . S
C865 C49 1.390 . S
C870 C7 1.389 . S
C875 C63 1.389 . S
C880 C21 1.389 . S
C885 C35 1.390 . S
C890 C77 1.389 . S
C895 C133 1.391 . S
C900 C91 1.392 . S
C905 C147 1.389 . S
C910 C105 1.389 . S
C915 C161 1.389 . S
C920 C119 1.390 . S
C925 C217 1.390 . S
C930 C175 1.389 . S
C935 C231 1.392 . S
C940 C189 1.392 . S
C945 C203 1.390 . S
C950 C245 1.389 . S
C955 C301 1.391 . S
C960 C259 1.389 . S
C965 C315 1.389 . S
C970 C273 1.389 . S
C975 C329 1.389 . S
C980 C287 1.390 . S
C985 C385 1.390 . S
C990 C343 1.389 . S
C995 C357 1.392 . S
C1000 C399 1.392 . S
C1005 C413 1.389 . S
C1010 C371 1.390 . S
C1015 C427 1.392 . S
C1020 C469 1.391 . S
C1025 C441 1.389 . S
C1030 C483 1.389 . S
C1035 C455 1.390 . S
C1040 C497 1.391 . S
C1045 C8 1.471 . S
C1050 C260 1.471 . S
C1055 C274 1.471 . S
C1060 C22 1.471 . S
C1065 C288 1.470 . S
C1070 C36 1.470 . S
C1075 C470 1.471 . S
C1080 C50 1.471 . S
C1085 C484 1.471 . S
C1090 C64 1.471 . S
C1095 C498 1.471 . S
C1100 C78 1.471 . S
C1105 C92 1.471 . S
C1110 C344 1.471 . S
C1115 C358 1.471 . S
C1120 C106 1.471 . S
C1125 C372 1.470 . S
C1130 C120 1.470 . S
C1135 C134 1.470 . S
C1140 C218 1.470 . S
C1145 C148 1.470 . S
C1150 C232 1.470 . S
C1155 C162 1.471 . S
C1160 C246 1.471 . S
C1165 C428 1.471 . S
C1170 C176 1.471 . S
C1175 C442 1.471 . S
C1180 C190 1.471 . S
C1185 C204 1.471 . S
C1190 C456 1.471 . S
C1195 C302 1.470 . S
C1200 C386 1.470 . S
C1205 C316 1.471 . S
C1210 C400 1.471 . S
C1215 C330 1.471 . S
C1220 C414 1.471 . S
