# Generated by pormake.
# Topology wkf, (6)-cn, num edge types: 1
# Building blocks:
#     Node 0, Type 0, BuildingBlock: CUWYAW_clean_sbu_0, # of connection points: 6
#     Node 1, Type 0, BuildingBlock: CUWYAW_clean_sbu_0, # of connection points: 6
#     Node 2, Type 0, BuildingBlock: CUWYAW_clean_sbu_0, # of connection points: 6
#     Node 3, Type 0, BuildingBlock: CUWYAW_clean_sbu_0, # of connection points: 6
#     Node 4, Type 0, BuildingBlock: CUWYAW_clean_sbu_0, # of connection points: 6
#     Node 5, Type 0, BuildingBlock: CUWYAW_clean_sbu_0, # of connection points: 6
#     Node 6, Type 0, BuildingBlock: CUWYAW_clean_sbu_0, # of connection points: 6
#     Node 7, Type 0, BuildingBlock: CUWYAW_clean_sbu_0, # of connection points: 6
#     Node 8, Type 0, BuildingBlock: CUWYAW_clean_sbu_0, # of connection points: 6
#     Node 9, Type 0, BuildingBlock: CUWYAW_clean_sbu_0, # of connection points: 6
#     Node 10, Type 0, BuildingBlock: CUWYAW_clean_sbu_0, # of connection points: 6
#     Node 11, Type 0, BuildingBlock: CUWYAW_clean_sbu_0, # of connection points: 6
#     Edge 12, Type (0, 0), BuildingBlock: EZIPEK_clean_linker_0, # of connection points: 2
#     Edge 13, Type (0, 0), BuildingBlock: EZIPEK_clean_linker_0, # of connection points: 2
#     Edge 14, Type (0, 0), BuildingBlock: EZIPEK_clean_linker_0, # of connection points: 2
#     Edge 15, Type (0, 0), BuildingBlock: EZIPEK_clean_linker_0, # of connection points: 2
#     Edge 16, Type (0, 0), BuildingBlock: EZIPEK_clean_linker_0, # of connection points: 2
#     Edge 17, Type (0, 0), BuildingBlock: EZIPEK_clean_linker_0, # of connection points: 2
#     Edge 18, Type (0, 0), BuildingBlock: EZIPEK_clean_linker_0, # of connection points: 2
#     Edge 19, Type (0, 0), BuildingBlock: EZIPEK_clean_linker_0, # of connection points: 2
#     Edge 20, Type (0, 0), BuildingBlock: EZIPEK_clean_linker_0, # of connection points: 2
#     Edge 21, Type (0, 0), BuildingBlock: EZIPEK_clean_linker_0, # of connection points: 2
#     Edge 22, Type (0, 0), BuildingBlock: EZIPEK_clean_linker_0, # of connection points: 2
#     Edge 23, Type (0, 0), BuildingBlock: EZIPEK_clean_linker_0, # of connection points: 2
#     Edge 24, Type (0, 0), BuildingBlock: EZIPEK_clean_linker_0, # of connection points: 2
#     Edge 25, Type (0, 0), BuildingBlock: EZIPEK_clean_linker_0, # of connection points: 2
#     Edge 26, Type (0, 0), BuildingBlock: EZIPEK_clean_linker_0, # of connection points: 2
#     Edge 27, Type (0, 0), BuildingBlock: EZIPEK_clean_linker_0, # of connection points: 2
#     Edge 28, Type (0, 0), BuildingBlock: EZIPEK_clean_linker_0, # of connection points: 2
#     Edge 29, Type (0, 0), BuildingBlock: EZIPEK_clean_linker_0, # of connection points: 2
#     Edge 30, Type (0, 0), BuildingBlock: EZIPEK_clean_linker_0, # of connection points: 2
#     Edge 31, Type (0, 0), BuildingBlock: EZIPEK_clean_linker_0, # of connection points: 2
#     Edge 32, Type (0, 0), BuildingBlock: EZIPEK_clean_linker_0, # of connection points: 2
#     Edge 33, Type (0, 0), BuildingBlock: EZIPEK_clean_linker_0, # of connection points: 2
#     Edge 34, Type (0, 0), BuildingBlock: EZIPEK_clean_linker_0, # of connection points: 2
#     Edge 35, Type (0, 0), BuildingBlock: EZIPEK_clean_linker_0, # of connection points: 2
#     Edge 36, Type (0, 0), BuildingBlock: EZIPEK_clean_linker_0, # of connection points: 2
#     Edge 37, Type (0, 0), BuildingBlock: EZIPEK_clean_linker_0, # of connection points: 2
#     Edge 38, Type (0, 0), BuildingBlock: EZIPEK_clean_linker_0, # of connection points: 2
#     Edge 39, Type (0, 0), BuildingBlock: EZIPEK_clean_linker_0, # of connection points: 2
#     Edge 40, Type (0, 0), BuildingBlock: EZIPEK_clean_linker_0, # of connection points: 2
#     Edge 41, Type (0, 0), BuildingBlock: EZIPEK_clean_linker_0, # of connection points: 2
#     Edge 42, Type (0, 0), BuildingBlock: EZIPEK_clean_linker_0, # of connection points: 2
#     Edge 43, Type (0, 0), BuildingBlock: EZIPEK_clean_linker_0, # of connection points: 2
#     Edge 44, Type (0, 0), BuildingBlock: EZIPEK_clean_linker_0, # of connection points: 2
#     Edge 45, Type (0, 0), BuildingBlock: EZIPEK_clean_linker_0, # of connection points: 2
#     Edge 46, Type (0, 0), BuildingBlock: EZIPEK_clean_linker_0, # of connection points: 2
#     Edge 47, Type (0, 0), BuildingBlock: EZIPEK_clean_linker_0, # of connection points: 2
# Relax obj value: 0.433
# Max RMSD: 0.280
# Mean RMSD: 0.270
data_MOF--net-wkf--node1-CUWYAW_clean_sbu_0--edge1-EZIPEK_clean_linker_0
_symmetry_space_group_name_H-M    P1
_symmetry_Int_Tables_number       1
_symmetry_cell_setting            triclinic
loop_
_symmetry_equiv_pos_as_xyz
'x, y, z'
_cell_length_a     21.87822
_cell_length_b     22.010651
_cell_length_c     75.23061
_cell_angle_alpha  89.926518
_cell_angle_beta   89.2624
_cell_angle_gamma 119.33773
loop_
_atom_site_label
_atom_site_type_symbol
_atom_site_fract_x
_atom_site_fract_y
_atom_site_fract_z
_atom_type_partial_charge
C0 C 0.3505 0.87304 0.38597 0.0
Eu1 Eu 0.45182 0.92694 0.40927 0.0
C2 C 0.2969 0.84682 0.37142 0.0
C3 C 0.31326 0.88101 0.35473 0.0
C4 C 0.26982 0.85126 0.33995 0.0
C5 C 0.209 0.78546 0.34119 0.0
C6 C 0.19104 0.75226 0.35802 0.0
C7 C 0.23413 0.78267 0.37294 0.0
C8 C 0.52849 0.07078 0.40313 0.0
C9 C 0.52593 0.82436 0.40454 0.0
C10 C 0.69274 0.99744 0.42702 0.0
Eu11 Eu 0.56135 0.96135 0.42524 0.0
C12 C 0.76564 1.05164 0.42738 0.0
C13 C 0.81666 1.0315 0.42457 0.0
C14 C 0.88236 0.06969 0.43218 0.0
C15 C 0.89595 0.12738 0.44261 0.0
C16 C 0.84925 0.15387 0.4428 0.0
C17 C 0.7838 0.11591 0.43515 0.0
C18 C 0.46082 0.87041 0.44841 0.0
C19 C 0.48164 1.02696 0.44423 0.0
O20 O 0.33716 0.86655 0.40317 0.0
O21 O 0.41699 0.91049 0.38193 0.0
O22 O 0.46361 1.03478 0.40812 0.0
O23 O 0.55356 1.02789 0.40233 0.0
O24 O 0.48843 0.84926 0.39658 0.0
O25 O 0.55639 0.85761 0.4189 0.0
O26 O 0.65972 0.98376 0.41194 0.0
O27 O 0.65381 0.99299 0.44085 0.0
O28 O 0.51699 0.92713 0.45282 0.0
O29 O 0.45855 0.86177 0.43145 0.0
O30 O 0.54604 1.04029 0.44058 0.0
O31 O 0.42962 0.97587 0.43495 0.0
H32 H 0.36115 0.93022 0.35293 0.0
H33 H 0.28521 0.87861 0.3273 0.0
H34 H 0.14464 0.70165 0.35951 0.0
H35 H 0.22013 0.75422 0.38543 0.0
H36 H 0.80299 0.98193 0.41847 0.0
H37 H 0.91847 1.04928 0.4319 0.0
H38 H 0.85998 0.19908 0.45071 0.0
H39 H 0.74486 0.13219 0.43724 0.0
C40 C 0.54364 0.33694 0.5522 0.0
Eu41 Eu 0.58432 0.43174 0.57737 0.0
C42 C 0.52011 0.28516 0.53711 0.0
C43 C 0.50667 0.30344 0.52019 0.0
C44 C 0.49192 0.25882 0.50547 0.0
C45 C 0.49144 0.19465 0.50695 0.0
C46 C 0.50311 0.17543 0.52398 0.0
C47 C 0.5167 0.21968 0.53882 0.0
C48 C 0.52506 0.52012 0.57359 0.0
C49 C 0.76191 0.52417 0.57282 0.0
C50 C 0.71597 0.65584 0.61687 0.0
Eu51 Eu 0.65346 0.54152 0.59875 0.0
C52 C 0.70664 0.66687 0.63574 0.0
C53 C 0.69475 0.61549 0.64862 0.0
C54 C 0.67891 0.62303 0.66623 0.0
C55 C 0.67575 0.68257 0.6712 0.0
C56 C 0.68768 0.73388 0.65836 0.0
C57 C 0.70294 0.72607 0.64076 0.0
C58 C 0.64003 0.42586 0.61662 0.0
C59 C 0.49944 0.4374 0.61232 0.0
O60 O 0.53348 0.32031 0.56918 0.0
O61 O 0.57382 0.40406 0.54918 0.0
O62 O 0.4929 0.453 0.57494 0.0
O63 O 0.59199 0.54057 0.57408 0.0
O64 O 0.70229 0.4679 0.5682 0.0
O65 O 0.75484 0.56668 0.58381 0.0
O66 O 0.66212 0.64059 0.60691 0.0
O67 O 0.74404 0.61673 0.61352 0.0
O68 O 0.63117 0.47481 0.62335 0.0
O69 O 0.65462 0.43815 0.59998 0.0
O70 O 0.54719 0.50346 0.61134 0.0
O71 O 0.5059 0.39222 0.60163 0.0
H72 H 0.50877 0.35318 0.51822 0.0
H73 H 0.48317 0.27563 0.49268 0.0
H74 H 0.50349 0.12677 0.52571 0.0
H75 H 0.52722 0.20374 0.55152 0.0
H76 H 0.69696 0.56917 0.64511 0.0
H77 H 0.66924 0.58271 0.67591 0.0
H78 H 0.68467 0.77993 0.66196 0.0
H79 H 0.71076 0.76566 0.63102 0.0
C80 C 0.27168 0.51647 0.72069 0.0
Eu81 Eu 0.21228 0.56143 0.74386 0.0
C82 C 0.29668 0.48638 0.70623 0.0
C83 C 0.25389 0.45335 0.69155 0.0
C84 C 0.27991 0.43399 0.67664 0.0
C85 C 0.35014 0.44835 0.67571 0.0
C86 C 0.39234 0.47917 0.69067 0.0
C87 C 0.36589 0.49765 0.70574 0.0
C88 C 1.06645 0.49474 0.73774 0.0
C89 C 0.30428 0.73775 0.73982 0.0
C90 C 0.1028 0.70345 0.76577 0.0
Eu91 Eu 0.16608 0.63083 0.7611 0.0
C92 C 1.0354 0.69744 0.76083 0.0
C93 C 0.99776 0.71215 0.7736 0.0
C94 C 0.9347 0.70886 0.76922 0.0
C95 C 0.90808 0.69089 0.75197 0.0
C96 C 0.94569 0.67634 0.73905 0.0
C97 C 1.0089 0.67903 0.7435 0.0
C98 C 0.26442 0.62914 0.78329 0.0
C99 C 0.11838 0.48569 0.77887 0.0
O100 O 0.27592 0.509 0.73788 0.0
O101 O 0.23503 0.54649 0.71656 0.0
O102 O 0.1035 0.46576 0.74173 0.0
O103 O 0.10945 0.56153 0.73731 0.0
O104 O 0.28971 0.67666 0.73262 0.0
O105 O 0.2634 0.73386 0.75312 0.0
O106 O 0.14686 0.71411 0.75271 0.0
O107 O 0.10085 0.65893 0.77759 0.0
O108 O 0.20551 0.62523 0.78819 0.0
O109 O 0.27148 0.63548 0.76625 0.0
O110 O 0.0959 0.52988 0.77537 0.0
O111 O 0.17306 0.49129 0.76939 0.0
H112 H 0.20049 0.44411 0.69139 0.0
H113 H 0.24585 0.41026 0.66544 0.0
H114 H 0.44657 0.491 0.69045 0.0
H115 H 0.40063 0.52371 0.71667 0.0
H116 H 1.01744 0.72676 0.78696 0.0
H117 H 0.90693 0.72129 0.7793 0.0
H118 H 0.92641 0.66328 0.72563 0.0
H119 H 1.03716 0.66721 0.7334 0.0
C120 C 0.81639 0.25082 0.88806 0.0
Eu121 Eu 0.7111 0.19421 0.91093 0.0
C122 C 0.87239 0.27668 0.87374 0.0
C123 C 0.86261 0.23698 0.85828 0.0
C124 C 0.90747 0.26503 0.84334 0.0
C125 C 0.96276 0.33442 0.84314 0.0
C126 C 0.97447 0.37333 0.85887 0.0
C127 C 0.93017 0.34469 0.874 0.0
C128 C 0.63684 1.04893 0.90566 0.0
C129 C 0.63294 0.29491 0.90599 0.0
C130 C 0.46359 0.10231 0.92844 0.0
Eu131 Eu 0.59872 0.15948 0.9272 0.0
C132 C 0.41369 1.02798 0.92783 0.0
C133 C 0.35282 1.00186 0.93833 0.0
C134 C 0.32398 0.93475 0.94537 0.0
C135 C 0.35681 0.89466 0.94205 0.0
C136 C 0.40984 0.9161 0.92911 0.0
C137 C 0.43815 0.98295 0.92195 0.0
C138 C 0.69868 0.24912 0.95056 0.0
C139 C 0.6781 0.09518 0.94654 0.0
O140 O 0.8267 0.256 0.9053 0.0
O141 O 0.75062 0.21421 0.88373 0.0
O142 O 0.70292 0.08774 0.90857 0.0
O143 O 0.61101 0.09155 0.9051 0.0
O144 O 0.67222 0.27063 0.89823 0.0
O145 O 0.60015 0.26116 0.92035 0.0
O146 O 0.50028 0.12958 0.91384 0.0
O147 O 0.50222 0.12015 0.94266 0.0
O148 O 0.6379 0.19634 0.9547 0.0
O149 O 0.70305 0.25716 0.93349 0.0
O150 O 0.6145 0.08382 0.94347 0.0
O151 O 0.73075 0.14456 0.93664 0.0
H152 H 0.81855 0.18463 0.85751 0.0
H153 H 0.89694 0.23343 0.83155 0.0
H154 H 1.01641 0.42687 0.85922 0.0
H155 H 0.93884 0.37715 0.88554 0.0
H156 H 0.33352 1.03598 0.94302 0.0
H157 H 0.28251 0.91814 0.95533 0.0
H158 H 0.43557 0.8856 0.92648 0.0
H159 H 0.48532 1.00248 0.91394 0.0
C160 C 0.61669 0.78764 1.05542 0.0
Eu161 Eu 0.57213 0.68978 0.08016 0.0
C162 C 0.64239 0.84002 1.04026 0.0
C163 C 0.6545 0.82085 1.02322 0.0
C164 C 0.67004 0.8655 1.00836 0.0
C165 C 0.67288 0.93069 1.00985 0.0
C166 C 0.66326 0.95114 1.02698 0.0
C167 C 0.64869 0.90669 1.04197 0.0
C168 C 0.63356 0.60459 0.07402 0.0
C169 C 0.39636 0.60133 0.0739 0.0
C170 C 0.42583 0.45458 0.11418 0.0
Eu171 Eu 0.49775 0.57445 0.09843 0.0
C172 C 0.41832 0.43782 0.13326 0.0
C173 C 0.40893 0.48035 0.14579 0.0
C174 C 0.41141 0.46925 0.16402 0.0
C175 C 0.42287 0.41532 0.16984 0.0
C176 C 0.43117 0.37248 0.15731 0.0
C177 C 0.42875 0.3835 0.13919 0.0
C178 C 0.51168 0.68353 0.12007 0.0
C179 C 0.64868 0.67148 0.11456 0.0
O180 O 0.62752 0.80263 0.07241 0.0
O181 O 0.58332 0.72076 1.05225 0.0
O182 O 0.66437 0.67 0.07787 0.0
O183 O 0.56629 0.58306 0.07407 0.0
O184 O 0.45498 0.663 0.073 0.0
O185 O 0.4035 0.55103 0.08108 0.0
O186 O 0.4884 0.47596 0.10742 0.0
O187 O 0.39796 0.49165 0.10871 0.0
O188 O 0.50941 0.62643 0.12481 0.0
O189 O 0.50086 0.67948 0.10327 0.0
O190 O 0.60015 0.60622 0.11213 0.0
O191 O 0.64625 0.72073 0.10461 0.0
H192 H 0.65024 0.77018 1.02126 0.0
H193 H 0.6769 0.84773 0.99545 0.0
H194 H 0.6646 1.00062 1.02868 0.0
H195 H 0.6393 0.92333 1.05477 0.0
H196 H 0.40126 0.52311 0.14154 0.0
H197 H 0.40544 0.50305 0.1735 0.0
H198 H 0.44108 0.33122 0.16158 0.0
H199 H 0.43717 0.35092 0.1298 0.0
C200 C 0.88777 0.59975 0.22162 0.0
Eu201 Eu 0.94587 0.55365 0.24458 0.0
C202 C 0.86067 0.62765 0.20715 0.0
C203 C 0.89724 0.64965 0.19074 0.0
C204 C 0.86875 0.66673 0.17611 0.0
C205 C 0.80212 0.66172 0.17722 0.0
C206 C 0.76625 0.642 0.19378 0.0
C207 C 0.79527 0.62554 0.20856 0.0
C208 C 0.09067 0.62221 0.23785 0.0
C209 C 0.85266 0.3775 0.24077 0.0
C210 C 1.04554 0.40266 0.2632 0.0
Eu211 Eu 0.98963 0.48275 0.26121 0.0
C212 C 0.11186 0.40434 0.25881 0.0
C213 C 0.14423 0.386 0.27202 0.0
C214 C 0.20617 0.38537 0.26823 0.0
C215 C 0.23665 0.4026 0.25112 0.0
C216 C 0.20413 0.42012 0.23772 0.0
C217 C 0.14194 0.42119 0.24156 0.0
C218 C 0.89269 0.48534 0.28411 0.0
C219 C 1.0453 0.62717 0.27915 0.0
O220 O 0.88021 0.60404 0.23885 0.0
O221 O 0.9268 0.57215 0.2174 0.0
O222 O 1.05309 0.65008 0.24256 0.0
O223 O 1.04894 0.55517 0.23744 0.0
O224 O 0.87302 0.43878 0.23263 0.0
O225 O 0.8879 0.38268 0.25512 0.0
O226 O 1.0093 0.40415 0.24973 0.0
O227 O 1.04547 0.44103 0.27647 0.0
O228 O 0.95044 0.48689 0.28874 0.0
O229 O 0.88538 0.48003 0.26714 0.0
O230 O 1.06354 0.57968 0.27571 0.0
O231 O 0.99174 0.6245 0.26993 0.0
H232 H 0.94755 0.6519 0.18902 0.0
H233 H 0.8978 0.68139 0.16363 0.0
H234 H 0.71462 0.63697 0.19511 0.0
H235 H 0.76507 0.60815 0.22084 0.0
H236 H 0.12162 0.37224 0.2853 0.0
H237 H 0.23086 0.37193 0.27874 0.0
H238 H 0.22704 0.43346 0.22447 0.0
H239 H 0.11768 0.43535 0.23108 0.0
C240 C 0.25207 0.79367 0.56912 0.0
Eu241 Eu 0.2109 0.6884 0.54673 0.0
C242 C 0.29442 0.8451 0.58324 0.0
C243 C 0.2629 0.87716 0.5931 0.0
C244 C 0.29554 0.91848 0.60805 0.0
C245 C 0.36154 0.93004 0.61364 0.0
C246 C 0.39399 0.89909 0.60354 0.0
C247 C 0.36073 0.85682 0.58863 0.0
C248 C 1.06664 0.61119 0.55229 0.0
C249 C 0.31359 0.61443 0.55192 0.0
C250 C 0.15638 0.46126 0.52549 0.0
Eu251 Eu 0.18422 0.58877 0.52982 0.0
C252 C 0.10635 0.38905 0.52203 0.0
C253 C 0.13132 0.34132 0.52226 0.0
C254 C 0.09835 0.28097 0.51219 0.0
C255 C 1.04042 0.2688 0.50204 0.0
C256 C 1.00994 0.31168 0.50382 0.0
C257 C 1.04299 0.37205 0.51383 0.0
C258 C 0.27471 0.69576 0.5074 0.0
C259 C 0.10493 0.65035 0.51175 0.0
O260 O 0.27025 0.80237 0.55223 0.0
O261 O 0.21553 0.72813 0.57357 0.0
O262 O 0.10203 0.67547 0.54725 0.0
O263 O 0.11026 0.58674 0.55285 0.0
O264 O 0.28211 0.64481 0.56077 0.0
O265 O 0.2893 0.59683 0.53604 0.0
O266 O 0.15726 0.48696 0.54122 0.0
O267 O 0.16818 0.50494 0.51242 0.0
O268 O 0.21902 0.63961 0.50282 0.0
O269 O 0.28301 0.69554 0.52431 0.0
O270 O 0.09499 0.58866 0.5159 0.0
O271 O 0.15566 0.70356 0.52096 0.0
H272 H 0.21133 0.86828 0.58956 0.0
H273 H 0.26832 0.94024 0.61554 0.0
H274 H 0.44438 0.90601 0.60752 0.0
H275 H 0.38601 0.83198 0.58162 0.0
H276 H 0.18054 0.35438 0.52853 0.0
H277 H 0.1219 0.24784 0.5109 0.0
H278 H 0.96477 0.30212 0.49604 0.0
H279 H 1.02357 0.40887 0.51354 0.0
C280 C 0.54295 0.24543 0.73487 0.0
Eu281 Eu 0.58845 0.1855 0.71197 0.0
C282 C 0.51647 0.27462 0.74939 0.0
C283 C 0.50359 0.24536 0.76666 0.0
C284 C 0.48719 0.27608 0.78103 0.0
C285 C 0.48322 0.33751 0.77877 0.0
C286 C 0.49375 0.36589 0.76142 0.0
C287 C 0.50983 0.3347 0.74691 0.0
C288 C 0.51528 1.04043 0.71795 0.0
C289 C 0.76664 0.27922 0.71548 0.0
C290 C 0.7361 0.08444 0.69394 0.0
Eu291 Eu 0.66 0.14478 0.69514 0.0
C292 C 0.7227 1.01442 0.69886 0.0
C293 C 0.73755 0.97611 0.68646 0.0
C294 C 0.72058 0.90784 0.69034 0.0
C295 C 0.68849 0.87673 0.70666 0.0
C296 C 0.6754 0.91543 0.71937 0.0
C297 C 0.69221 0.98401 0.71545 0.0
C298 C 0.65257 0.23542 0.67126 0.0
C299 C 0.51576 0.08657 0.67711 0.0
O300 O 0.53773 0.25111 0.71763 0.0
O301 O 0.57165 0.20769 0.73911 0.0
O302 O 0.4893 0.08102 0.71522 0.0
O303 O 0.58328 0.08078 0.71805 0.0
O304 O 0.7048 0.25688 0.72396 0.0
O305 O 0.76107 0.24602 0.70071 0.0
O306 O 0.73689 0.12347 0.70711 0.0
O307 O 0.70209 0.08823 0.68018 0.0
O308 O 0.65975 0.18167 0.6675 0.0
O309 O 0.65624 0.24488 0.68828 0.0
O310 O 0.5669 0.07281 0.67954 0.0
O311 O 0.51586 0.1374 0.68704 0.0
H312 H 0.50811 0.19931 0.76924 0.0
H313 H 0.48027 0.25319 0.79417 0.0
H314 H 0.49226 0.41377 0.75921 0.0
H315 H 0.51994 0.35931 0.73392 0.0
H316 H 0.76119 0.99861 0.67367 0.0
H317 H 0.73198 0.87887 0.68048 0.0
H318 H 0.65154 0.89241 0.7321 0.0
H319 H 0.68072 1.0129 0.7253 0.0
C320 C 0.35324 0.52286 0.90174 0.0
Eu321 Eu 0.45424 0.56787 0.87746 0.0
C322 C 0.29988 0.49637 0.9168 0.0
C323 C 0.31812 0.48181 0.93357 0.0
C324 C 0.27272 0.46515 0.94844 0.0
C325 C 0.20769 0.46344 0.94721 0.0
C326 C 0.18804 0.47545 0.93032 0.0
C327 C 0.2333 0.49125 0.9153 0.0
C328 C 0.5369 0.50456 0.88341 0.0
C329 C 0.54283 0.74237 0.88465 0.0
C330 C 0.67931 0.69858 0.84129 0.0
Eu331 Eu 0.56291 0.64287 0.8597 0.0
C332 C 0.69288 0.69989 0.82214 0.0
C333 C 0.65026 0.70873 0.80967 0.0
C334 C 0.6611 0.70449 0.79144 0.0
C335 C 0.71481 0.69177 0.78563 0.0
C336 C 0.75656 0.68227 0.79815 0.0
C337 C 0.74579 0.68643 0.81624 0.0
C338 C 0.45177 0.64956 0.84258 0.0
C339 C 0.47694 0.49652 0.84143 0.0
O340 O 0.33972 0.5127 0.88472 0.0
O341 O 0.42013 0.55655 0.90514 0.0
O342 O 0.46989 0.47511 0.88161 0.0
O343 O 0.56039 0.57226 0.88307 0.0
O344 O 0.47942 0.68666 0.8826 0.0
O345 O 0.59367 0.73042 0.87994 0.0
O346 O 0.65299 0.63747 0.84886 0.0
O347 O 0.64894 0.73353 0.84672 0.0
O348 O 0.51369 0.70097 0.84538 0.0
O349 O 0.44927 0.59615 0.84943 0.0
O350 O 0.53722 0.55375 0.84168 0.0
O351 O 0.428 0.48958 0.8535 0.0
H352 H 0.36869 0.48507 0.93534 0.0
H353 H 0.28986 0.45661 0.96119 0.0
H354 H 0.13873 0.47518 0.92887 0.0
H355 H 0.21744 0.50248 0.90269 0.0
H356 H 0.60844 0.71841 0.81399 0.0
H357 H 0.62813 0.7114 0.78196 0.0
H358 H 0.79769 0.67151 0.79388 0.0
H359 H 0.77828 0.67831 0.82564 0.0
C360 C 0.89997 0.32686 0.06982 0.0
Eu361 Eu 0.94562 0.43146 1.04694 0.0
C362 C 0.86111 0.27658 0.08478 0.0
C363 C 0.90009 0.2764 0.09954 0.0
C364 C 0.86786 0.23242 0.11429 0.0
C365 C 0.79514 0.18694 0.11492 0.0
C366 C 0.75569 0.18582 0.10004 0.0
C367 C 0.78832 0.22998 0.0851 0.0
C368 C 0.09209 0.50793 1.05139 0.0
C369 C 0.84836 0.51348 1.05232 0.0
C370 C 1.04456 0.67679 1.0258 0.0
Eu371 Eu 0.98223 0.54301 1.02979 0.0
C372 C 0.11917 0.72162 1.02237 0.0
C373 C 0.1645 0.69457 1.02561 0.0
C374 C 0.22594 0.7179 1.01558 0.0
C375 C 0.24181 0.76828 1.00237 0.0
C376 C 0.20192 0.80224 1.00098 0.0
C377 C 0.14039 0.77875 1.01095 0.0
C378 C 0.89143 0.44134 1.00705 0.0
C379 C 1.04438 0.45941 1.01109 0.0
O380 O 0.88068 0.3176 1.05312 0.0
O381 O 0.93984 0.39227 0.07375 0.0
O382 O 1.05386 0.44245 1.04819 0.0
O383 O 1.04842 0.53244 1.0522 0.0
O384 O 0.86887 0.47101 1.05984 0.0
O385 O 0.88339 0.54504 1.03797 0.0
O386 O 1.0275 0.64653 1.04145 0.0
O387 O 1.01328 0.63354 1.01285 0.0
O388 O 0.94515 0.5008 1.00266 0.0
O389 O 0.88308 0.43852 1.02417 0.0
O390 O 1.05709 0.52326 1.01388 0.0
O391 O 0.99426 0.40856 1.02122 0.0
H392 H 0.95624 0.31114 0.09975 0.0
H393 H 0.8998 0.23484 0.12544 0.0
H394 H 0.69947 0.15156 0.10012 0.0
H395 H 0.75661 0.22847 0.074 0.0
H396 H 0.14844 0.64984 1.03426 0.0
H397 H 0.25693 0.69207 1.01685 0.0
H398 H 0.21435 0.84173 0.99082 0.0
H399 H 0.10568 0.79956 1.00819 0.0
C400 C 0.61551 0.88636 0.23903 0.0
Eu401 Eu 0.56926 0.93656 0.21407 0.0
C402 C 0.63718 0.85786 0.25451 0.0
C403 C 0.69043 0.83973 0.25294 0.0
C404 C 0.70943 0.81293 0.26768 0.0
C405 C 0.67517 0.80265 0.28438 0.0
C406 C 0.62319 0.82234 0.28602 0.0
C407 C 0.60482 0.8498 0.27139 0.0
C408 C 0.63406 0.08111 0.2194 0.0
C409 C 0.39136 0.8416 0.21724 0.0
C410 C 0.4245 1.0391 0.19033 0.0
Eu411 Eu 0.49945 0.97907 0.19591 0.0
C412 C 0.42846 0.10535 0.19524 0.0
C413 C 0.40999 0.14003 0.1827 0.0
C414 C 0.4113 0.2019 0.18714 0.0
C415 C 0.43113 0.23031 0.20419 0.0
C416 C 0.44904 0.19541 0.21691 0.0
C417 C 0.44825 0.13336 0.21241 0.0
C418 C 0.50582 0.88048 0.17459 0.0
C419 C 0.6468 1.02894 0.17886 0.0
O420 O 0.6276 0.88103 0.22209 0.0
O421 O 0.57859 0.91742 0.24189 0.0
O422 O 0.66411 1.04479 0.21566 0.0
O423 O 0.56689 1.03819 0.21976 0.0
O424 O 0.45247 0.85651 0.22461 0.0
O425 O 0.39662 0.88201 0.20384 0.0
O426 O 0.41335 0.996 0.20344 0.0
O427 O 0.47124 1.04195 0.17887 0.0
O428 O 0.5083 0.93763 0.16915 0.0
O429 O 0.49774 0.87504 0.19161 0.0
O430 O 0.60112 1.0501 0.18199 0.0
O431 O 0.64177 0.97556 0.18859 0.0
H432 H 0.71701 0.84564 0.24029 0.0
H433 H 0.74903 0.79742 0.26586 0.0
H434 H 0.59497 0.81421 0.29851 0.0
H435 H 0.56379 0.86332 0.27324 0.0
H436 H 0.39409 0.11899 0.1695 0.0
H437 H 0.39609 0.22744 0.17724 0.0
H438 H 0.46351 0.21602 0.23019 0.0
H439 H 0.46277 0.10722 0.22233 0.0
C440 C 0.79403 0.59869 0.40479 0.0
Eu441 Eu 0.7007 0.55309 0.37926 0.0
C442 C 0.84399 0.62326 0.42034 0.0
C443 C 0.81819 0.61574 0.43801 0.0
C444 C 0.86249 0.62996 0.45277 0.0
C445 C 0.93438 0.65204 0.45047 0.0
C446 C 0.96084 0.66184 0.43284 0.0
C447 C 0.91654 0.64801 0.41804 0.0
C448 C 0.60993 0.6088 0.38245 0.0
C449 C 0.61372 0.37442 0.38462 0.0
C450 C 0.46921 0.40346 0.34446 0.0
Eu451 Eu 0.59009 0.47599 0.35942 0.0
C452 C 0.44945 0.39395 0.32572 0.0
C453 C 0.49812 0.40097 0.31232 0.0
C454 C 0.48175 0.40029 0.29441 0.0
C455 C 0.41638 0.39202 0.28981 0.0
C456 C 0.36682 0.38206 0.30317 0.0
C457 C 0.38333 0.38322 0.32103 0.0
C458 C 0.70797 0.49119 0.34108 0.0
C459 C 0.68486 0.6245 0.34184 0.0
O460 O 0.81244 0.60989 0.38786 0.0
O461 O 0.7261 0.56551 0.40745 0.0
O462 O 0.67682 0.64257 0.37977 0.0
O463 O 0.59111 0.54261 0.3832 0.0
O464 O 0.67017 0.43585 0.38834 0.0
O465 O 0.56811 0.3782 0.37436 0.0
O466 O 0.49087 0.46605 0.35067 0.0
O467 O 0.50817 0.37706 0.34946 0.0
O468 O 0.65215 0.48703 0.33452 0.0
O469 O 0.69861 0.48139 0.35787 0.0
O470 O 0.62179 0.57025 0.34222 0.0
O471 O 0.73082 0.62854 0.35421 0.0
H472 H 0.76286 0.59658 0.44051 0.0
H473 H 0.83984 0.62075 0.46605 0.0
H474 H 1.01561 0.67775 0.4305 0.0
H475 H 0.93873 0.65402 0.40478 0.0
H476 H 0.54933 0.40875 0.31565 0.0
H477 H 0.52056 0.40847 0.28423 0.0
H478 H 0.31623 0.37606 0.29977 0.0
H479 H 0.34536 0.37796 0.33117 0.0
C480 C 0.16087 0.70656 0.29412 0.0
C481 C 0.08703 0.6805 0.29352 0.0
C482 C 0.09611 0.73547 0.323 0.0
C483 C 0.16683 0.75027 0.32467 0.0
N484 N 0.26249 0.73799 0.31233 0.0
N485 N 0.98407 0.66789 0.30881 0.0
C486 C 0.19811 0.73279 0.31032 0.0
C487 C 1.05477 0.69504 0.30829 0.0
N488 N 0.19635 0.70851 0.2789 0.0
N489 N 1.0687 0.76187 0.33518 0.0
H490 H 0.95317 0.64294 0.29801 0.0
H491 H 0.95651 0.66708 0.32027 0.0
H492 H 0.09717 0.79188 0.34592 0.0
H493 H 1.02032 0.75957 0.33374 0.0
H494 H 0.25085 0.73242 0.27799 0.0
H495 H 0.17156 0.69417 0.26671 0.0
H496 H 0.28452 0.71901 0.30303 0.0
H497 H 0.29071 0.75452 0.32406 0.0
C498 C 0.53377 0.17939 0.47628 0.0
C499 C 0.48388 0.15085 0.49047 0.0
C500 C 0.42516 1.0392 0.4738 0.0
C501 C 0.47252 0.06986 0.45905 0.0
N502 N 0.55775 0.17708 0.44491 0.0
N503 N 0.37293 0.05675 0.50077 0.0
C504 C 0.52232 0.14237 0.45996 0.0
C505 C 0.42685 0.08162 0.48862 0.0
N506 N 0.59453 0.24073 0.47859 0.0
N507 N 0.38046 0.96909 0.47415 0.0
H508 H 0.37194 0.08608 0.51154 0.0
H509 H 0.32653 1.00987 0.49927 0.0
H510 H 0.37588 0.93699 0.46356 0.0
H511 H 0.35128 0.94223 0.48538 0.0
H512 H 0.63599 0.26019 0.46941 0.0
H513 H 0.60689 0.26833 0.49047 0.0
H514 H 0.58973 0.23102 0.44424 0.0
H515 H 0.54802 0.15289 0.43262 0.0
C516 C 0.40522 0.38694 0.65796 0.0
C517 C 0.38041 0.43602 0.65864 0.0
C518 C 0.40738 0.45816 0.62653 0.0
C519 C 0.44332 0.4192 0.62653 0.0
N520 N 0.47693 0.34603 0.64263 0.0
N521 N 0.36891 0.5268 0.64357 0.0
C522 C 0.4416 0.38269 0.64233 0.0
C523 C 0.38385 0.47339 0.64286 0.0
N524 N 0.39267 0.34325 0.67211 0.0
N525 N 0.39545 0.48053 0.6107 0.0
H526 H 0.35452 0.5421 0.65529 0.0
H527 H 0.37783 0.56062 0.63293 0.0
H528 H 0.40963 0.46744 0.59862 0.0
H529 H 0.36464 0.50436 0.60947 0.0
H530 H 0.40323 0.30198 0.67192 0.0
H531 H 0.36605 0.34461 0.68358 0.0
H532 H 0.48616 0.32595 0.65419 0.0
H533 H 0.49912 0.33781 0.6312 0.0
C534 C 1.00658 0.39909 0.79447 0.0
C535 C 0.08113 0.43364 0.79389 0.0
C536 C 1.07754 0.39131 0.82471 0.0
C537 C 1.00413 0.36744 0.82608 0.0
N538 N 0.90146 0.36049 0.81252 0.0
N539 N 0.18841 0.46506 0.80935 0.0
C540 C 0.96937 0.37418 0.81097 0.0
C541 C 0.11689 0.42977 0.80921 0.0
N542 N 0.97089 0.3887 0.77901 0.0
N543 N 0.10954 0.37571 0.83803 0.0
H544 H 0.21877 0.4901 0.79816 0.0
H545 H 0.21755 0.47233 0.82077 0.0
H546 H 0.08258 0.34757 0.84938 0.0
H547 H 0.16101 0.38513 0.83713 0.0
H548 H 0.91655 0.35863 0.77821 0.0
H549 H 0.99648 0.40311 0.76669 0.0
H550 H 0.876 0.37164 0.80247 0.0
H551 H 0.8728 0.34494 0.82442 0.0
C552 C 0.7388 0.08136 0.97472 0.0
C553 C 0.68557 1.05189 0.96155 0.0
C554 C 0.62348 0.94564 0.9807 0.0
C555 C 0.67835 0.97322 0.99323 0.0
N556 N 0.79528 0.06217 1.00021 0.0
N557 N 0.58633 0.94637 0.95064 0.0
C558 C 0.73809 1.03956 0.98962 0.0
C559 C 0.63093 0.98114 0.96417 0.0
N560 N 0.78812 0.15028 0.97371 0.0
N561 N 0.56218 0.88635 0.98487 0.0
H562 H 0.5884 0.96879 0.93835 0.0
H563 H 0.55177 0.89291 0.95088 0.0
H564 H 0.55279 0.86044 0.99705 0.0
H565 H 0.51785 0.86607 0.977 0.0
H566 H 0.82242 0.17671 0.98397 0.0
H567 H 0.79127 0.18305 0.96336 0.0
H568 H 0.84338 0.10595 0.99728 0.0
H569 H 0.79647 1.03354 1.01114 0.0
C570 C 0.75797 0.72927 0.158 0.0
C571 C 0.76806 0.67048 0.16057 0.0
C572 C 0.72538 0.63294 0.13018 0.0
C573 C 0.70308 0.68363 0.1287 0.0
N574 N 0.70135 0.78323 0.14154 0.0
N575 N 0.75029 0.56021 0.14956 0.0
C576 C 0.72119 0.73344 0.14261 0.0
C577 C 0.74893 0.62089 0.14673 0.0
N578 N 0.78486 0.78187 0.17011 0.0
N579 N 0.72639 0.59752 0.1154 0.0
H580 H 0.76544 0.5481 0.16155 0.0
H581 H 0.72963 0.51893 0.14065 0.0
H582 H 0.71433 0.60866 0.1029 0.0
H583 H 0.74769 0.5643 0.11514 0.0
H584 H 0.78614 0.82938 0.16833 0.0
H585 H 0.81098 0.77999 0.18142 0.0
H586 H 0.70494 0.81557 0.15202 0.0
H587 H 0.67738 0.78987 0.13042 0.0
C588 C 0.44267 0.9719 0.6604 0.0
C589 C 0.46236 1.04406 0.66274 0.0
C590 C 0.41265 1.0409 0.63292 0.0
C591 C 0.39363 0.96938 0.6308 0.0
N592 N 0.36976 0.86261 0.64539 0.0
N593 N 0.44623 0.13964 0.65262 0.0
C594 C 0.40265 0.93387 0.64539 0.0
C595 C 0.44023 0.07582 0.64955 0.0
N596 N 0.46249 0.93857 0.67245 0.0
N597 N 0.40758 0.07677 0.6187 0.0
H598 H 0.4671 0.16788 0.66413 0.0
H599 H 0.4247 0.16222 0.64444 0.0
H600 H 0.39033 1.05419 0.6063 0.0
H601 H 0.42543 0.13009 0.61868 0.0
H602 H 0.46054 0.89113 0.66991 0.0
H603 H 0.48303 0.95867 0.6848 0.0
H604 H 0.36681 0.83287 0.65649 0.0
H605 H 0.33863 0.83263 0.63498 0.0
C606 C 0.41489 0.37715 0.79963 0.0
C607 C 0.4778 0.3761 0.79498 0.0
C608 C 0.52946 0.43685 0.82297 0.0
C609 C 0.46975 0.44531 0.82685 0.0
N610 N 0.35949 0.43154 0.81673 0.0
N611 N 0.60021 0.41947 0.80066 0.0
C612 C 0.41312 0.41707 0.81466 0.0
C613 C 0.53632 0.40993 0.80626 0.0
N614 N 0.35633 0.33919 0.7898 0.0
N615 N 0.58007 0.45358 0.83545 0.0
H616 H 0.60817 0.40159 0.78849 0.0
H617 H 0.64672 0.45142 0.80722 0.0
H618 H 0.57887 0.47396 0.84783 0.0
H619 H 0.61973 0.44053 0.83425 0.0
H620 H 0.30694 0.33149 0.79346 0.0
H621 H 0.35632 0.31103 0.77866 0.0
H622 H 0.32126 0.4199 0.8072 0.0
H623 H 0.35611 0.46013 0.82734 0.0
C624 C 0.1585 0.50425 0.99332 0.0
C625 C 0.08746 0.45013 0.99613 0.0
C626 C 0.09893 0.39782 0.96777 0.0
C627 C 0.16521 0.45762 0.96398 0.0
N628 N 0.25248 0.57333 0.97236 0.0
N629 N 0.98879 0.34641 0.98454 0.0
C630 C 0.19335 0.51205 0.9766 0.0
C631 C 1.05758 0.3966 0.98304 0.0
N632 N 0.19435 0.548 1.00687 0.0
N633 N 1.076 0.34125 0.95696 0.0
H634 H 0.95672 0.34255 0.99529 0.0
H635 H 0.96167 0.31167 0.97443 0.0
H636 H 0.10423 0.34073 0.94573 0.0
H637 H 1.03236 0.29317 0.9599 0.0
H638 H 0.2484 0.58115 1.00647 0.0
H639 H 0.1722 0.54603 1.01928 0.0
H640 H 0.27236 0.61736 0.98035 0.0
H641 H 0.27824 0.58295 0.96007 0.0
C642 C 0.70041 1.03136 0.14803 0.0
C643 C 0.69948 0.06624 0.1639 0.0
C644 C 0.75908 0.17858 0.14749 0.0
C645 C 0.76116 0.14433 0.13167 0.0
N646 N 0.7461 1.03934 0.11786 0.0
N647 N 0.74773 0.17441 0.17966 0.0
C648 C 0.73544 0.07097 0.13225 0.0
C649 C 0.73517 0.14034 0.16384 0.0
N650 N 0.66592 0.96029 0.14782 0.0
N651 N 0.77714 0.24745 0.14682 0.0
H652 H 0.73407 0.1477 0.19177 0.0
H653 H 0.77864 0.2282 0.18089 0.0
H654 H 0.79377 0.27718 0.13516 0.0
H655 H 0.76935 0.27344 0.15742 0.0
H656 H 0.65564 0.93105 0.13627 0.0
H657 H 0.64573 0.93044 0.15933 0.0
H658 H 0.73549 0.98778 0.11792 0.0
H659 H 0.77064 0.06633 0.10617 0.0
C660 C 0.67818 0.65142 0.309 0.0
C661 C 0.69952 0.6771 0.32666 0.0
C662 C 0.71612 0.7912 0.31568 0.0
C663 C 0.68533 0.76113 0.29908 0.0
N664 N 0.62476 0.65749 0.28156 0.0
N665 N 0.73413 0.77326 0.34675 0.0
C666 C 0.66304 0.6899 0.29627 0.0
C667 C 0.71794 0.74791 0.32992 0.0
N668 N 0.67496 0.59073 0.30392 0.0
N669 N 0.74487 0.86149 0.31775 0.0
H670 H 0.73919 0.7449 0.35715 0.0
H671 H 0.73878 0.82075 0.3506 0.0
H672 H 0.74389 0.89391 0.30776 0.0
H673 H 0.77434 0.88818 0.32871 0.0
H674 H 0.66798 0.57303 0.29087 0.0
H675 H 0.6905 0.56392 0.31213 0.0
H676 H 0.60271 0.6043 0.27933 0.0
H677 H 0.60903 0.68204 0.27227 0.0
C678 C 1.04617 0.60706 0.48131 0.0
C679 C 1.06526 0.65644 0.49558 0.0
C680 C 1.00433 0.70924 0.47898 0.0
C681 C 0.97911 0.65466 0.46622 0.0
N682 N 0.96253 0.54164 0.45851 0.0
N683 N 1.04964 0.74813 0.50869 0.0
C684 C 0.99599 0.6008 0.46843 0.0
C685 C 1.04114 0.70616 0.49453 0.0
N686 N 1.07838 0.56779 0.47908 0.0
N687 N 0.99396 0.76475 0.47616 0.0
H688 H 1.0738 0.74643 0.52036 0.0
H689 H 1.0269 0.77999 0.50953 0.0
H690 H 0.9666 0.76786 0.46525 0.0
H691 H 1.01716 0.8098 0.48378 0.0
H692 H 1.07206 0.53801 0.46778 0.0
H693 H 0.11774 0.57054 0.48703 0.0
H694 H 0.96606 0.49693 0.46112 0.0
H695 H 0.92551 0.53428 0.44894 0.0
C696 C 0.55625 0.66001 0.40585 0.0
C697 C 0.5707 0.65047 0.38778 0.0
C698 C 0.55354 0.75345 0.38022 0.0
C699 C 0.53552 0.76086 0.39815 0.0
N700 N 0.5038 0.7059 0.42709 0.0
N701 N 0.56408 0.6801 0.35743 0.0
C702 C 0.53244 0.70956 0.41062 0.0
C703 C 0.5636 0.69506 0.37497 0.0
N704 N 0.56762 0.62331 0.41877 0.0
N705 N 0.56513 0.80437 0.36812 0.0
H706 H 0.56627 0.63611 0.35334 0.0
H707 H 0.55342 0.70548 0.34724 0.0
H708 H 0.55926 0.84736 0.37121 0.0
H709 H 0.58679 0.80735 0.35552 0.0
H710 H 0.56724 0.63337 0.43229 0.0
H711 H 0.58194 0.58562 0.41584 0.0
H712 H 0.49336 0.66637 0.43626 0.0
H713 H 0.48318 0.73785 0.43088 0.0
C714 C 0.86016 0.49045 0.56252 0.0
C715 C 0.8385 0.54149 0.56651 0.0
C716 C 0.96698 0.62914 0.56594 0.0
C717 C 0.98839 0.58143 0.55919 0.0
N718 N 0.94754 0.4647 0.54886 0.0
N719 N 0.87875 0.66517 0.5654 0.0
C720 C 0.93253 0.51145 0.55687 0.0
C721 C 0.89425 0.61226 0.56627 0.0
N722 N 0.81312 0.42146 0.56481 0.0
N723 N 1.01592 0.69077 0.57302 0.0
H724 H 0.82799 0.65656 0.56356 0.0
H725 H 0.91733 0.71722 0.56386 0.0
H726 H 1.06768 0.70262 0.57499 0.0
H727 H 1.00258 0.72503 0.57927 0.0
H728 H 0.82704 0.38257 0.56391 0.0
H729 H 0.76193 0.40346 0.56932 0.0
H730 H 0.90901 0.41546 0.54491 0.0
H731 H 0.9984 0.47746 0.54498 0.0
C732 C 0.48104 0.9222 0.73613 0.0
C733 C 0.46555 0.95958 0.72279 0.0
C734 C 0.35109 0.84584 0.71858 0.0
C735 C 0.36352 0.81146 0.73294 0.0
N736 N 0.44065 0.82179 0.75652 0.0
N737 N 0.37306 0.95191 0.70355 0.0
C738 C 0.4289 0.85126 0.74191 0.0
C739 C 0.39701 0.91968 0.71478 0.0
N740 N 0.54548 0.9546 0.74371 0.0
N741 N 0.29509 0.8072 0.70797 0.0
H742 H 0.40378 1.00097 0.69804 0.0
H743 H 0.32058 0.93024 0.70007 0.0
H744 H 0.2599 0.75463 0.71041 0.0
H745 H 0.28751 0.82513 0.69582 0.0
H746 H 0.56465 0.92905 0.75162 0.0
H747 H 0.5817 1.00671 0.74134 0.0
H748 H 0.48176 0.84873 0.76522 0.0
H749 H 0.40627 0.77063 0.76056 0.0
C750 C 0.54623 0.38891 0.87969 0.0
C751 C 0.57201 0.45705 0.88781 0.0
C752 C 0.64172 0.4199 0.90756 0.0
C753 C 0.61922 0.35474 0.89853 0.0
N754 N 0.56014 0.28743 0.87309 0.0
N755 N 0.65559 0.53767 0.90836 0.0
C756 C 0.57504 0.3431 0.88373 0.0
C757 C 0.62356 0.4725 0.90129 0.0
N758 N 0.49147 0.36497 0.86824 0.0
N759 N 0.67963 0.43134 0.92265 0.0
H760 H 0.64283 0.5757 0.90474 0.0
H761 H 0.69854 0.55588 0.9167 0.0
H762 H 0.69578 0.39671 0.92716 0.0
H763 H 0.69107 0.47234 0.93129 0.0
H764 H 0.46247 0.31286 0.8646 0.0
H765 H 0.47236 0.39542 0.86279 0.0
H766 H 0.53657 0.2803 0.86075 0.0
H767 H 0.5775 0.25194 0.87576 0.0
C768 C 0.21307 0.59982 0.06718 0.0
C769 C 0.17367 0.53991 1.0561 0.0
C770 C 0.28646 0.53224 1.05412 0.0
C771 C 0.32214 0.58585 0.06677 0.0
N772 N 0.31348 0.66649 0.08667 0.0
N773 N 0.18077 0.44764 1.03977 0.0
C774 C 0.28374 0.61877 0.07347 0.0
C775 C 0.21289 0.50606 1.04996 0.0
N776 N 0.18377 0.63996 0.07174 0.0
N777 N 0.32462 0.50834 1.0449 0.0
H778 H 0.13664 0.43412 1.03224 0.0
H779 H 0.19933 0.41231 1.03857 0.0
H780 H 0.37772 0.52635 1.0471 0.0
H781 H 0.30619 0.47661 1.03377 0.0
H782 H 0.21137 0.68825 0.07783 0.0
H783 H 0.13345 0.62804 0.06812 0.0
H784 H 0.28688 0.6868 0.09392 0.0
H785 H 0.36364 0.68185 0.09131 0.0
C786 C 0.73101 0.28892 0.2249 0.0
C787 C 0.79305 0.30245 0.23456 0.0
C788 C 0.73597 0.17177 0.23825 0.0
C789 C 0.67947 0.15758 0.22665 0.0
N790 N 0.63073 0.20797 0.20695 0.0
N791 N 0.85853 0.24678 0.24447 0.0
C792 C 0.6792 0.21794 0.21947 0.0
C793 C 0.79603 0.24089 0.23964 0.0
N794 N 0.71959 0.34318 0.22126 0.0
N795 N 0.73256 0.11864 0.24837 0.0
H796 H 0.90556 0.29305 0.24307 0.0
H797 H 0.86524 0.20382 0.24697 0.0
H798 H 0.68909 0.06866 0.24839 0.0
H799 H 0.76864 0.12654 0.25825 0.0
H800 H 0.67354 0.33676 0.2157 0.0
H801 H 0.75344 0.394 0.2252 0.0
H802 H 0.63141 0.24841 0.19959 0.0
H803 H 0.59256 0.15825 0.20314 0.0
C804 C 0.37495 0.53683 0.55062 0.0
C805 C 0.37078 0.59427 0.55862 0.0
C806 C 0.47421 0.60867 0.57685 0.0
C807 C 0.48285 0.5573 0.56694 0.0
N808 N 0.44737 0.48725 0.54067 0.0
N809 N 0.42964 0.69158 0.57838 0.0
C810 C 0.43538 0.52695 0.55264 0.0
C811 C 0.42444 0.63209 0.57146 0.0
N812 N 0.31772 0.48615 0.54234 0.0
N813 N 0.5113 0.6334 0.59203 0.0
H814 H 0.39571 0.71007 0.57493 0.0
H815 H 0.47103 0.72533 0.58633 0.0
H816 H 0.54675 0.6178 0.59614 0.0
H817 H 0.50263 0.66429 0.60107 0.0
H818 H 0.31524 0.44073 0.53744 0.0
H819 H 0.26923 0.48359 0.54326 0.0
H820 H 0.41877 0.46881 0.52904 0.0
H821 H 0.49099 0.47999 0.54134 0.0
C822 C 0.85668 0.39854 0.73213 0.0
C823 C 0.8427 0.33754 0.72194 0.0
C824 C 0.97486 0.39322 0.71858 0.0
C825 C 0.98922 0.44903 0.73049 0.0
N826 N 0.93821 0.49762 0.75036 0.0
N827 N 0.89806 0.27267 0.71098 0.0
C828 C 0.92824 0.44951 0.73769 0.0
C829 C 0.90469 0.33441 0.71664 0.0
N830 N 0.8021 0.40969 0.73617 0.0
N831 N 1.02887 0.39637 0.70858 0.0
H832 H 0.85082 0.22638 0.71162 0.0
H833 H 0.94087 0.26524 0.70842 0.0
H834 H 1.07962 0.43871 0.70898 0.0
H835 H 1.02137 0.36147 0.69838 0.0
H836 H 0.80833 0.45478 0.74222 0.0
H837 H 0.75102 0.37634 0.73219 0.0
H838 H 0.89759 0.49721 0.75781 0.0
H839 H 0.98821 0.53542 0.75419 0.0
C840 C 0.55076 0.92993 0.88825 0.0
C841 C 0.60511 0.96745 0.90099 0.0
C842 C 0.60706 0.85278 0.90492 0.0
C843 C 0.55877 0.81807 0.891 0.0
N844 N 0.49177 0.83144 0.86784 0.0
N845 N 0.69014 0.95804 0.91979 0.0
C846 C 0.53209 0.85887 0.88246 0.0
C847 C 0.63447 0.92675 0.90866 0.0
N848 N 0.51688 0.96222 0.88123 0.0
N849 N 0.62458 0.81363 0.91564 0.0
H850 H 0.70587 1.00537 0.92596 0.0
H851 H 0.72217 0.93675 0.92276 0.0
H852 H 0.60552 0.76045 0.91375 0.0
H853 H 0.65135 0.8317 0.92751 0.0
H854 H 0.47122 0.93642 0.8739 0.0
H855 H 0.53164 1.01404 0.88372 0.0
H856 H 0.47679 0.85927 0.85944 0.0
H857 H 0.47832 0.78201 0.86323 0.0
C858 C 0.67078 0.50473 0.07181 0.0
C859 C 0.67956 0.57172 0.06679 0.0
C860 C 0.80093 0.60096 1.05639 0.0
C861 C 0.79048 0.53205 1.05935 0.0
N862 N 0.70583 0.41493 0.06815 0.0
N863 N 0.74929 0.67261 1.04834 0.0
C864 C 0.72255 0.48308 0.06664 0.0
C865 C 0.74351 0.61603 1.05732 0.0
N866 N 0.61365 0.46182 0.08193 0.0
N867 N 0.86744 0.65465 1.05364 0.0
H868 H 0.7076 0.68274 1.04732 0.0
H869 H 0.79178 0.70349 1.03997 0.0
H870 H 0.91158 0.64854 1.05469 0.0
H871 H 0.87917 0.70657 1.0529 0.0
H872 H 0.60709 0.41633 0.08796 0.0
H873 H 0.57475 0.47449 0.08502 0.0
H874 H 0.65574 0.37514 0.07153 0.0
H875 H 0.74098 0.39764 0.06469 0.0
C876 C 0.25644 0.79238 0.22156 0.0
C877 C 0.31573 0.78189 0.22342 0.0
C878 C 0.22717 0.66083 0.23475 0.0
C879 C 0.16821 0.67002 0.23065 0.0
N880 N 0.1337 0.74172 0.21403 0.0
N881 N 0.35118 0.69608 0.2296 0.0
C882 C 0.18538 0.73486 0.22219 0.0
C883 C 0.2991 0.71311 0.22944 0.0
N884 N 0.26694 0.85866 0.22036 0.0
N885 N 0.21528 0.60329 0.24429 0.0
H886 H 0.40262 0.73099 0.22575 0.0
H887 H 0.34201 0.64571 0.23204 0.0
H888 H 0.16488 0.56508 0.24809 0.0
H889 H 0.25529 0.59618 0.24946 0.0
H890 H 0.22583 0.86988 0.22037 0.0
H891 H 0.31594 0.90219 0.22218 0.0
H892 H 0.14387 0.78547 0.20645 0.0
H893 H 0.08282 0.70022 0.21279 0.0
C894 C 0.52707 0.24344 0.39168 0.0
C895 C 0.59823 0.29891 0.39084 0.0
C896 C 0.62938 0.20463 0.39853 0.0
C897 C 0.55844 0.14915 0.39667 0.0
N898 N 0.44713 0.12348 0.38422 0.0
N899 N 0.71903 0.32443 0.39101 0.0
C900 C 0.50991 0.1712 0.39109 0.0
C901 C 0.64996 0.27715 0.39363 0.0
N902 N 0.47412 0.25876 0.39394 0.0
N903 N 0.6774 0.18912 0.40545 0.0
H904 H 0.73627 0.376 0.38737 0.0
H905 H 0.75842 0.31083 0.39098 0.0
H906 H 0.66492 0.13832 0.40881 0.0
H907 H 0.72758 0.22708 0.40904 0.0
H908 H 0.422 0.22026 0.39589 0.0
H909 H 0.4833 0.30909 0.39648 0.0
H910 H 0.41206 0.13756 0.37885 0.0
H911 H 0.43507 0.07241 0.38145 0.0
C912 C 0.30014 0.76778 0.47892 0.0
C913 C 0.32638 0.74437 0.49315 0.0
C914 C 0.44142 0.79894 0.47709 0.0
C915 C 0.41289 0.81793 0.46245 0.0
N916 N 0.30899 0.80349 0.44806 0.0
N917 N 0.42088 0.72832 0.50384 0.0
C918 C 0.34024 0.79615 0.46288 0.0
C919 C 0.397 0.75784 0.49175 0.0
N920 N 0.2383 0.76791 0.4812 0.0
N921 N 0.51122 0.81901 0.47686 0.0
H922 H 0.39083 0.69861 0.51463 0.0
H923 H 0.46854 0.72881 0.50252 0.0
H924 H 0.54313 0.84013 0.4656 0.0
H925 H 0.53786 0.81636 0.48795 0.0
H926 H 0.21909 0.79013 0.47217 0.0
H927 H 0.21148 0.75501 0.49326 0.0
H928 H 0.25483 0.78141 0.44693 0.0
H929 H 0.33634 0.82576 0.43629 0.0
C930 C 0.61541 0.3041 0.62662 0.0
C931 C 0.65286 0.3773 0.62869 0.0
C932 C 0.69161 0.35961 0.65841 0.0
C933 C 0.65404 0.28539 0.6565 0.0
N934 N 0.59347 0.18986 0.63565 0.0
N935 N 0.74492 0.47365 0.64394 0.0
C936 C 0.62048 0.25874 0.63965 0.0
C937 C 0.69571 0.40456 0.64393 0.0
N938 N 0.5717 0.27705 0.6125 0.0
N939 N 0.72553 0.38844 0.67385 0.0
H940 H 0.75328 0.50627 0.63303 0.0
H941 H 0.78292 0.49673 0.65364 0.0
H942 H 0.73484 0.36088 0.68367 0.0
H943 H 0.7432 0.44032 0.67714 0.0
H944 H 0.53554 0.22444 0.6112 0.0
H945 H 0.5684 0.30799 0.60249 0.0
H946 H 0.58044 0.17065 0.6228 0.0
H947 H 0.58625 0.15126 0.64465 0.0
C948 C 0.36163 0.67574 0.82802 0.0
C949 C 0.40747 0.64735 0.82667 0.0
C950 C 0.36337 0.60911 0.79596 0.0
C951 C 0.32131 0.6422 0.79695 0.0
N952 N 0.30151 0.72713 0.81244 0.0
N953 N 0.46239 0.60025 0.80735 0.0
C954 C 0.32671 0.68133 0.81257 0.0
C955 C 0.41138 0.618 0.81002 0.0
N956 N 0.34894 0.69523 0.84426 0.0
N957 N 0.35561 0.56646 0.78201 0.0
H958 H 0.49872 0.60711 0.81702 0.0
H959 H 0.47289 0.58522 0.79507 0.0
H960 H 0.32235 0.55923 0.77149 0.0
H961 H 0.37789 0.53411 0.7816 0.0
H962 H 0.31093 0.71004 0.8464 0.0
H963 H 0.37087 0.68917 0.85589 0.0
H964 H 0.30916 0.76128 0.82283 0.0
H965 H 0.2815 0.73762 0.80105 0.0
C966 C 0.73705 0.28108 0.98355 0.0
C967 C 0.74936 0.2987 0.96488 0.0
C968 C 0.86177 0.40006 0.97422 0.0
C969 C 0.84161 0.39083 0.99277 0.0
N970 N 0.74401 0.32582 1.01324 0.0
N971 N 0.82257 0.39141 0.944 0.0
C972 C 0.77437 0.33273 0.99687 0.0
C973 C 0.81095 0.36323 0.9607 0.0
N974 N 0.69335 0.21411 0.98904 0.0
N975 N 0.93029 0.44043 0.96905 0.0
H976 H 0.7882 0.36991 0.93356 0.0
H977 H 0.86351 0.44139 0.94111 0.0
H978 H 0.97187 0.46169 0.97777 0.0
H979 H 0.9471 0.44332 0.95588 0.0
H980 H 0.68751 0.19916 1.00239 0.0
H981 H 0.67246 0.17168 0.98057 0.0
H982 H 0.69279 0.2869 1.0161 0.0
H983 H 0.76519 0.36302 1.02314 0.0
C984 C 0.53624 0.78556 0.16484 0.0
C985 C 0.50176 0.82476 0.16156 0.0
C986 C 0.48552 0.78255 0.13024 0.0
C987 C 0.51182 0.73587 0.13397 0.0
N988 N 0.55587 0.69033 0.15737 0.0
N989 N 0.42415 0.84076 0.14203 0.0
C990 C 0.53443 0.73617 0.15201 0.0
C991 C 0.47092 0.81746 0.14451 0.0
N992 N 0.57581 0.79854 0.17972 0.0
N993 N 0.47601 0.79629 0.11311 0.0
H994 H 0.40715 0.86076 0.15233 0.0
H995 H 0.39511 0.83125 0.13048 0.0
H996 H 0.4898 0.77708 0.10209 0.0
H997 H 0.46301 0.83451 0.1098 0.0
H998 H 0.61029 0.77926 0.18164 0.0
H999 H 0.57974 0.83379 0.18942 0.0
H1000 H 0.55758 0.67875 0.17074 0.0
H1001 H 0.57348 0.66471 0.14897 0.0
C1002 C 0.76932 0.42844 0.32607 0.0
C1003 C 0.76367 0.48954 0.32884 0.0
C1004 C 0.82215 0.53346 0.29962 0.0
C1005 C 0.83789 0.47871 0.29788 0.0
N1006 N 0.82881 0.37396 0.31066 0.0
N1007 N 0.81488 0.61076 0.32103 0.0
C1008 C 0.81259 0.42635 0.31159 0.0
C1009 C 0.79874 0.54497 0.31637 0.0
N1010 N 0.73212 0.37185 0.33687 0.0
N1011 N 0.83101 0.57607 0.28551 0.0
H1012 H 0.81017 0.62246 0.33416 0.0
H1013 H 0.84199 0.65388 0.31265 0.0
H1014 H 0.84758 0.5689 0.27304 0.0
H1015 H 0.81564 0.61406 0.28598 0.0
H1016 H 0.72783 0.32331 0.33451 0.0
H1017 H 0.70238 0.37277 0.34771 0.0
H1018 H 0.81899 0.33881 0.32104 0.0
H1019 H 0.85457 0.36749 0.29967 0.0
C1020 C 0.96103 0.15349 0.48897 0.0
C1021 C 1.01943 0.22074 0.48704 0.0
C1022 C 1.01195 0.21173 0.45474 0.0
C1023 C 0.94757 0.14934 0.45681 0.0
N1024 N 0.86597 1.05479 0.47636 0.0
N1025 N 0.10853 0.31036 0.46817 0.0
C1026 C 0.92487 0.11767 0.47387 0.0
C1027 C 1.04823 0.24791 0.46996 0.0
N1028 N 0.93619 0.12347 0.50521 0.0
N1029 N 1.03814 0.23952 0.43839 0.0
H1030 H 0.13744 0.33903 0.47901 0.0
H1031 H 0.12996 0.33242 0.45577 0.0
H1032 H 1.01444 0.21562 0.42652 0.0
H1033 H 1.01444 0.21562 0.42652 0.0
H1034 H 0.95992 0.1465 0.51715 0.0
H1035 H 0.95992 0.1465 0.51715 0.0
H1036 H 0.83469 1.02395 0.46609 0.0
H1037 H 0.83469 1.02395 0.46609 0.0
C1038 C 0.60288 0.75199 0.70375 0.0
C1039 C 0.66946 0.80324 0.70963 0.0
C1040 C 0.71977 0.7307 0.70076 0.0
C1041 C 0.66138 0.69436 0.68973 0.0
N1042 N 0.53954 0.65178 0.68449 0.0
N1043 N 0.78656 0.83553 0.71799 0.0
C1044 C 0.59918 0.69725 0.69304 0.0
C1045 C 0.72547 0.78864 0.71028 0.0
N1046 N 0.54573 0.75969 0.70722 0.0
N1047 N 0.77089 0.71234 0.70107 0.0
H1048 H 0.79011 0.87767 0.72519 0.0
H1049 H 0.83326 0.83418 0.71668 0.0
H1050 H 0.76661 0.67001 0.69386 0.0
H1051 H 0.81363 0.73473 0.7095 0.0
H1052 H 0.49496 0.72408 0.7035 0.0
H1053 H 0.5493 0.80057 0.71497 0.0
H1054 H 0.49263 0.653 0.68515 0.0
H1055 H 0.53798 0.61187 0.67667 0.0
C1056 C 0.72231 0.62621 0.76012 0.0
C1057 C 0.73169 0.6903 0.76662 0.0
C1058 C 0.84117 0.75362 0.74997 0.0
C1059 C 0.84135 0.68982 0.74816 0.0
N1060 N 0.77498 0.56603 0.74446 0.0
N1061 N 0.78127 0.81325 0.76218 0.0
C1062 C 0.77836 0.62601 0.75043 0.0
C1063 C 0.78401 0.75359 0.75909 0.0
N1064 N 0.66311 0.56632 0.76497 0.0
N1065 N 0.89899 0.81371 0.74455 0.0
H1066 H 0.73881 0.81225 0.76893 0.0
H1067 H 0.81801 0.86218 0.75735 0.0
H1068 H 0.94031 0.81262 0.73771 0.0
H1069 H 0.90578 0.8634 0.74649 0.0
H1070 H 0.65342 0.51642 0.76181 0.0
H1071 H 0.62281 0.56789 0.77221 0.0
H1072 H 0.73085 0.517 0.74567 0.0
H1073 H 0.8163 0.56676 0.73722 0.0
C1074 C 0.2922 0.77643 0.95515 0.0
C1075 C 0.34977 0.84433 0.95585 0.0
C1076 C 0.35768 0.83379 0.98789 0.0
C1077 C 0.28956 0.77642 0.98755 0.0
N1078 N 0.19594 0.68301 0.97167 0.0
N1079 N 0.44555 0.93541 0.97195 0.0
C1080 C 0.2592 0.74296 0.97135 0.0
C1081 C 0.38684 0.8712 0.97189 0.0
N1082 N 0.26777 0.74663 0.93903 0.0
N1083 N 0.39175 0.85396 1.00367 0.0
H1084 H 0.46905 0.96337 0.96031 0.0
H1085 H 0.47031 0.96168 0.98345 0.0
H1086 H 0.36916 0.8264 1.01545 0.0
H1087 H 0.44355 0.89331 1.00485 0.0
H1088 H 0.22779 0.69556 0.93742 0.0
H1089 H 0.29215 0.77225 0.92716 0.0
H1090 H 0.16698 0.65936 0.96041 0.0
H1091 H 0.17213 0.65701 0.98353 0.0
C1092 C 0.36699 0.29586 0.20656 0.0
C1093 C 0.43172 0.29657 0.20794 0.0
C1094 C 0.49326 0.41253 0.19469 0.0
C1095 C 0.42762 0.40173 0.18886 0.0
N1096 N 0.30545 0.35489 0.19554 0.0
N1097 N 0.55662 0.36441 0.21048 0.0
C1098 C 0.36554 0.35141 0.19739 0.0
C1099 C 0.49526 0.35916 0.20486 0.0
N1100 N 0.30709 0.23806 0.21208 0.0
N1101 N 0.55261 0.4703 0.18885 0.0
H1102 H 0.55729 0.32491 0.218 0.0
H1103 H 0.60545 0.40862 0.2088 0.0
H1104 H 0.54977 0.50888 0.18138 0.0
H1105 H 0.60333 0.48035 0.19139 0.0
H1106 H 0.25684 0.22956 0.20959 0.0
H1107 H 0.3089 0.19791 0.21906 0.0
H1108 H 0.25836 0.3214 0.202 0.0
H1109 H 0.30519 0.39567 0.18851 0.0
C1110 C 0.409 0.46623 0.266 0.0
C1111 C 0.40021 0.40061 0.27132 0.0
C1112 C 0.30489 0.34138 0.25063 0.0
C1113 C 0.30463 0.40494 0.24837 0.0
N1114 N 0.37262 0.52908 0.24601 0.0
N1115 N 0.36147 0.28133 0.26396 0.0
C1116 C 0.36397 0.46808 0.25294 0.0
C1117 C 0.35634 0.34009 0.26164 0.0
N1118 N 0.4548 0.52502 0.27475 0.0
N1119 N 0.25059 0.28189 0.24413 0.0
H1120 H 0.39883 0.28063 0.27234 0.0
H1121 H 0.33339 0.23618 0.2566 0.0
H1122 H 0.2131 0.28363 0.236 0.0
H1123 H 0.24211 0.23206 0.24702 0.0
H1124 H 0.4584 0.57351 0.27279 0.0
H1125 H 0.48721 0.52403 0.28466 0.0
H1126 H 0.41665 0.57731 0.2482 0.0
H1127 H 0.33794 0.52954 0.23668 0.0
loop_
_geom_bond_atom_site_label_1
_geom_bond_atom_site_label_2
_geom_bond_distance
_geom_bond_site_symmetry_2
_ccdc_geom_bond_type
C0 Eu1 2.835 . S
C0 C2 1.500 . S
C0 O20 1.257 . S
C0 O21 1.260 . S
Eu1 C0 2.835 . S
Eu1 O20 2.473 . S
Eu1 O21 2.480 . S
Eu1 O22 2.430 1_565 S
Eu1 O23 2.670 1_565 S
Eu1 O24 2.394 . S
Eu1 O29 2.355 . S
Eu1 O31 2.374 1_565 S
C2 C0 1.500 . S
C2 C3 1.377 . S
C2 C7 1.377 . S
C3 C2 1.377 . S
C3 C4 1.395 . S
C3 H32 0.931 . S
C4 C3 1.395 . S
C4 C5 1.383 . S
C4 H33 0.931 . S
C5 C4 1.383 . S
C5 C6 1.394 . S
C6 C5 1.394 . S
C6 C7 1.378 . S
C6 H34 0.931 . S
C7 C2 1.377 . S
C7 C6 1.378 . S
C7 H35 0.931 . S
C8 O22 1.259 . S
C8 O23 1.270 . S
C9 O24 1.251 . S
C9 O25 1.251 . S
C10 Eu11 2.835 . S
C10 C12 1.500 . S
C10 O26 1.257 . S
C10 O27 1.260 . S
Eu11 C10 2.835 . S
Eu11 O23 2.355 . S
Eu11 O25 2.374 1_545 S
Eu11 O26 2.473 . S
Eu11 O27 2.480 . S
Eu11 O28 2.430 1_545 S
Eu11 O29 2.670 1_545 S
Eu11 O30 2.394 . S
C12 C10 1.500 . S
C12 C13 1.377 . S
C12 C17 1.377 . S
C13 C12 1.377 . S
C13 C14 1.395 . S
C13 H36 0.931 . S
C14 C13 1.395 . S
C14 C15 1.383 . S
C14 H37 0.931 . S
C15 C14 1.383 . S
C15 C16 1.394 . S
C16 C15 1.394 . S
C16 C17 1.378 . S
C16 H38 0.931 . S
C17 C12 1.377 . S
C17 C16 1.378 . S
C17 H39 0.931 . S
C18 O28 1.259 . S
C18 O29 1.270 . S
C19 O30 1.251 . S
C19 O31 1.251 . S
O20 C0 1.257 . S
O20 Eu1 2.473 . S
O21 C0 1.260 . S
O21 Eu1 2.480 . S
O22 Eu1 2.430 1_545 S
O22 C8 1.259 . S
O23 Eu1 2.670 1_545 S
O23 C8 1.270 . S
O23 Eu11 2.355 . S
O24 Eu1 2.394 . S
O24 C9 1.251 . S
O25 C9 1.251 . S
O25 Eu11 2.374 1_565 S
O26 C10 1.257 . S
O26 Eu11 2.473 . S
O27 C10 1.260 . S
O27 Eu11 2.480 . S
O28 Eu11 2.430 1_565 S
O28 C18 1.259 . S
O29 Eu1 2.355 . S
O29 Eu11 2.670 1_565 S
O29 C18 1.270 . S
O30 Eu11 2.394 . S
O30 C19 1.251 . S
O31 Eu1 2.374 1_545 S
O31 C19 1.251 . S
H32 C3 0.931 . S
H33 C4 0.931 . S
H34 C6 0.931 . S
H35 C7 0.931 . S
H36 C13 0.931 . S
H37 C14 0.931 . S
H38 C16 0.931 . S
H39 C17 0.931 . S
C40 Eu41 2.835 . S
C40 C42 1.500 . S
C40 O60 1.257 . S
C40 O61 1.260 . S
Eu41 C40 2.835 . S
Eu41 O60 2.473 . S
Eu41 O61 2.480 . S
Eu41 O62 2.430 . S
Eu41 O63 2.670 . S
Eu41 O64 2.394 . S
Eu41 O69 2.355 . S
Eu41 O71 2.374 . S
C42 C40 1.500 . S
C42 C43 1.377 . S
C42 C47 1.377 . S
C43 C42 1.377 . S
C43 C44 1.395 . S
C43 H72 0.931 . S
C44 C43 1.395 . S
C44 C45 1.383 . S
C44 H73 0.931 . S
C45 C44 1.383 . S
C45 C46 1.394 . S
C46 C45 1.394 . S
C46 C47 1.378 . S
C46 H74 0.931 . S
C47 C42 1.377 . S
C47 C46 1.378 . S
C47 H75 0.931 . S
C48 O62 1.259 . S
C48 O63 1.270 . S
C49 O64 1.251 . S
C49 O65 1.251 . S
C50 Eu51 2.835 . S
C50 C52 1.500 . S
C50 O66 1.257 . S
C50 O67 1.260 . S
Eu51 C50 2.835 . S
Eu51 O63 2.355 . S
Eu51 O65 2.374 . S
Eu51 O66 2.473 . S
Eu51 O67 2.480 . S
Eu51 O68 2.430 . S
Eu51 O69 2.670 . S
Eu51 O70 2.394 . S
C52 C50 1.500 . S
C52 C53 1.377 . S
C52 C57 1.377 . S
C53 C52 1.377 . S
C53 C54 1.395 . S
C53 H76 0.931 . S
C54 C53 1.395 . S
C54 C55 1.383 . S
C54 H77 0.931 . S
C55 C54 1.383 . S
C55 C56 1.394 . S
C56 C55 1.394 . S
C56 C57 1.378 . S
C56 H78 0.931 . S
C57 C52 1.377 . S
C57 C56 1.378 . S
C57 H79 0.931 . S
C58 O68 1.259 . S
C58 O69 1.270 . S
C59 O70 1.251 . S
C59 O71 1.251 . S
O60 C40 1.257 . S
O60 Eu41 2.473 . S
O61 C40 1.260 . S
O61 Eu41 2.480 . S
O62 Eu41 2.430 . S
O62 C48 1.259 . S
O63 Eu41 2.670 . S
O63 C48 1.270 . S
O63 Eu51 2.355 . S
O64 Eu41 2.394 . S
O64 C49 1.251 . S
O65 C49 1.251 . S
O65 Eu51 2.374 . S
O66 C50 1.257 . S
O66 Eu51 2.473 . S
O67 C50 1.260 . S
O67 Eu51 2.480 . S
O68 Eu51 2.430 . S
O68 C58 1.259 . S
O69 Eu41 2.355 . S
O69 Eu51 2.670 . S
O69 C58 1.270 . S
O70 Eu51 2.394 . S
O70 C59 1.251 . S
O71 Eu41 2.374 . S
O71 C59 1.251 . S
H72 C43 0.931 . S
H73 C44 0.931 . S
H74 C46 0.931 . S
H75 C47 0.931 . S
H76 C53 0.931 . S
H77 C54 0.931 . S
H78 C56 0.931 . S
H79 C57 0.931 . S
C80 Eu81 2.835 . S
C80 C82 1.500 . S
C80 O100 1.257 . S
C80 O101 1.260 . S
Eu81 C80 2.835 . S
Eu81 O100 2.473 . S
Eu81 O101 2.480 . S
Eu81 O102 2.430 1_455 S
Eu81 O103 2.670 1_455 S
Eu81 O104 2.394 . S
Eu81 O109 2.355 . S
Eu81 O111 2.374 1_455 S
C82 C80 1.500 . S
C82 C83 1.377 . S
C82 C87 1.377 . S
C83 C82 1.377 . S
C83 C84 1.395 . S
C83 H112 0.931 . S
C84 C83 1.395 . S
C84 C85 1.383 . S
C84 H113 0.931 . S
C85 C84 1.383 . S
C85 C86 1.394 . S
C86 C85 1.394 . S
C86 C87 1.378 . S
C86 H114 0.931 . S
C87 C82 1.377 . S
C87 C86 1.378 . S
C87 H115 0.931 . S
C88 O102 1.259 . S
C88 O103 1.270 . S
C89 O104 1.251 . S
C89 O105 1.251 . S
C90 Eu91 2.835 . S
C90 C92 1.500 . S
C90 O106 1.257 . S
C90 O107 1.260 . S
Eu91 C90 2.835 . S
Eu91 O103 2.355 . S
Eu91 O105 2.374 1_655 S
Eu91 O106 2.473 . S
Eu91 O107 2.480 . S
Eu91 O108 2.430 1_655 S
Eu91 O109 2.670 1_655 S
Eu91 O110 2.394 . S
C92 C90 1.500 . S
C92 C93 1.377 . S
C92 C97 1.377 . S
C93 C92 1.377 . S
C93 C94 1.395 . S
C93 H116 0.931 . S
C94 C93 1.395 . S
C94 C95 1.383 . S
C94 H117 0.931 . S
C95 C94 1.383 . S
C95 C96 1.394 . S
C96 C95 1.394 . S
C96 C97 1.378 . S
C96 H118 0.931 . S
C97 C92 1.377 . S
C97 C96 1.378 . S
C97 H119 0.931 . S
C98 O108 1.259 . S
C98 O109 1.270 . S
C99 O110 1.251 . S
C99 O111 1.251 . S
O100 C80 1.257 . S
O100 Eu81 2.473 . S
O101 C80 1.260 . S
O101 Eu81 2.480 . S
O102 Eu81 2.430 1_655 S
O102 C88 1.259 . S
O103 Eu81 2.670 1_655 S
O103 C88 1.270 . S
O103 Eu91 2.355 . S
O104 Eu81 2.394 . S
O104 C89 1.251 . S
O105 C89 1.251 . S
O105 Eu91 2.374 1_455 S
O106 C90 1.257 . S
O106 Eu91 2.473 . S
O107 C90 1.260 . S
O107 Eu91 2.480 . S
O108 Eu91 2.430 1_455 S
O108 C98 1.259 . S
O109 Eu81 2.355 . S
O109 Eu91 2.670 1_455 S
O109 C98 1.270 . S
O110 Eu91 2.394 . S
O110 C99 1.251 . S
O111 Eu81 2.374 1_655 S
O111 C99 1.251 . S
H112 C83 0.931 . S
H113 C84 0.931 . S
H114 C86 0.931 . S
H115 C87 0.931 . S
H116 C93 0.931 . S
H117 C94 0.931 . S
H118 C96 0.931 . S
H119 C97 0.931 . S
C120 Eu121 2.835 . S
C120 C122 1.500 . S
C120 O140 1.257 . S
C120 O141 1.260 . S
Eu121 C120 2.835 . S
Eu121 O140 2.473 . S
Eu121 O141 2.480 . S
Eu121 O142 2.430 1_545 S
Eu121 O143 2.670 1_545 S
Eu121 O144 2.394 . S
Eu121 O149 2.355 . S
Eu121 O151 2.374 1_545 S
C122 C120 1.500 . S
C122 C123 1.377 . S
C122 C127 1.377 . S
C123 C122 1.377 . S
C123 C124 1.395 . S
C123 H152 0.931 . S
C124 C123 1.395 . S
C124 C125 1.383 . S
C124 H153 0.931 . S
C125 C124 1.383 . S
C125 C126 1.394 . S
C126 C125 1.394 . S
C126 C127 1.378 . S
C126 H154 0.931 . S
C127 C122 1.377 . S
C127 C126 1.378 . S
C127 H155 0.931 . S
C128 O142 1.259 . S
C128 O143 1.270 . S
C129 O144 1.251 . S
C129 O145 1.251 . S
C130 Eu131 2.835 . S
C130 C132 1.500 . S
C130 O146 1.257 . S
C130 O147 1.260 . S
Eu131 C130 2.835 . S
Eu131 O143 2.355 . S
Eu131 O145 2.374 1_565 S
Eu131 O146 2.473 . S
Eu131 O147 2.480 . S
Eu131 O148 2.430 1_565 S
Eu131 O149 2.670 1_565 S
Eu131 O150 2.394 . S
C132 C130 1.500 . S
C132 C133 1.377 . S
C132 C137 1.377 . S
C133 C132 1.377 . S
C133 C134 1.395 . S
C133 H156 0.931 . S
C134 C133 1.395 . S
C134 C135 1.383 . S
C134 H157 0.931 . S
C135 C134 1.383 . S
C135 C136 1.394 . S
C136 C135 1.394 . S
C136 C137 1.378 . S
C136 H158 0.931 . S
C137 C132 1.377 . S
C137 C136 1.378 . S
C137 H159 0.931 . S
C138 O148 1.259 . S
C138 O149 1.270 . S
C139 O150 1.251 . S
C139 O151 1.251 . S
O140 C120 1.257 . S
O140 Eu121 2.473 . S
O141 C120 1.260 . S
O141 Eu121 2.480 . S
O142 Eu121 2.430 1_565 S
O142 C128 1.259 . S
O143 Eu121 2.670 1_565 S
O143 C128 1.270 . S
O143 Eu131 2.355 . S
O144 Eu121 2.394 . S
O144 C129 1.251 . S
O145 C129 1.251 . S
O145 Eu131 2.374 1_545 S
O146 C130 1.257 . S
O146 Eu131 2.473 . S
O147 C130 1.260 . S
O147 Eu131 2.480 . S
O148 Eu131 2.430 1_545 S
O148 C138 1.259 . S
O149 Eu121 2.355 . S
O149 Eu131 2.670 1_545 S
O149 C138 1.270 . S
O150 Eu131 2.394 . S
O150 C139 1.251 . S
O151 Eu121 2.374 1_565 S
O151 C139 1.251 . S
H152 C123 0.931 . S
H153 C124 0.931 . S
H154 C126 0.931 . S
H155 C127 0.931 . S
H156 C133 0.931 . S
H157 C134 0.931 . S
H158 C136 0.931 . S
H159 C137 0.931 . S
C160 Eu161 2.835 1_556 S
C160 C162 1.500 . S
C160 O180 1.257 1_556 S
C160 O181 1.260 . S
Eu161 C160 2.835 1_554 S
Eu161 O180 2.473 . S
Eu161 O181 2.480 1_554 S
Eu161 O182 2.430 . S
Eu161 O183 2.670 . S
Eu161 O184 2.394 . S
Eu161 O189 2.355 . S
Eu161 O191 2.374 . S
C162 C160 1.500 . S
C162 C163 1.377 . S
C162 C167 1.377 . S
C163 C162 1.377 . S
C163 C164 1.395 . S
C163 H192 0.931 . S
C164 C163 1.395 . S
C164 C165 1.383 . S
C164 H193 0.931 . S
C165 C164 1.383 . S
C165 C166 1.394 . S
C166 C165 1.394 . S
C166 C167 1.378 . S
C166 H194 0.931 . S
C167 C162 1.377 . S
C167 C166 1.378 . S
C167 H195 0.931 . S
C168 O182 1.259 . S
C168 O183 1.270 . S
C169 O184 1.251 . S
C169 O185 1.251 . S
C170 Eu171 2.835 . S
C170 C172 1.500 . S
C170 O186 1.257 . S
C170 O187 1.260 . S
Eu171 C170 2.835 . S
Eu171 O183 2.355 . S
Eu171 O185 2.374 . S
Eu171 O186 2.473 . S
Eu171 O187 2.480 . S
Eu171 O188 2.430 . S
Eu171 O189 2.670 . S
Eu171 O190 2.394 . S
C172 C170 1.500 . S
C172 C173 1.377 . S
C172 C177 1.377 . S
C173 C172 1.377 . S
C173 C174 1.395 . S
C173 H196 0.931 . S
C174 C173 1.395 . S
C174 C175 1.383 . S
C174 H197 0.931 . S
C175 C174 1.383 . S
C175 C176 1.394 . S
C176 C175 1.394 . S
C176 C177 1.378 . S
C176 H198 0.931 . S
C177 C172 1.377 . S
C177 C176 1.378 . S
C177 H199 0.931 . S
C178 O188 1.259 . S
C178 O189 1.270 . S
C179 O190 1.251 . S
C179 O191 1.251 . S
O180 C160 1.257 1_554 S
O180 Eu161 2.473 . S
O181 C160 1.260 . S
O181 Eu161 2.480 1_556 S
O182 Eu161 2.430 . S
O182 C168 1.259 . S
O183 Eu161 2.670 . S
O183 C168 1.270 . S
O183 Eu171 2.355 . S
O184 Eu161 2.394 . S
O184 C169 1.251 . S
O185 C169 1.251 . S
O185 Eu171 2.374 . S
O186 C170 1.257 . S
O186 Eu171 2.473 . S
O187 C170 1.260 . S
O187 Eu171 2.480 . S
O188 Eu171 2.430 . S
O188 C178 1.259 . S
O189 Eu161 2.355 . S
O189 Eu171 2.670 . S
O189 C178 1.270 . S
O190 Eu171 2.394 . S
O190 C179 1.251 . S
O191 Eu161 2.374 . S
O191 C179 1.251 . S
H192 C163 0.931 . S
H193 C164 0.931 . S
H194 C166 0.931 . S
H195 C167 0.931 . S
H196 C173 0.931 . S
H197 C174 0.931 . S
H198 C176 0.931 . S
H199 C177 0.931 . S
C200 Eu201 2.835 . S
C200 C202 1.500 . S
C200 O220 1.257 . S
C200 O221 1.260 . S
Eu201 C200 2.835 . S
Eu201 O220 2.473 . S
Eu201 O221 2.480 . S
Eu201 O222 2.430 1_655 S
Eu201 O223 2.670 1_655 S
Eu201 O224 2.394 . S
Eu201 O229 2.355 . S
Eu201 O231 2.374 1_655 S
C202 C200 1.500 . S
C202 C203 1.377 . S
C202 C207 1.377 . S
C203 C202 1.377 . S
C203 C204 1.395 . S
C203 H232 0.931 . S
C204 C203 1.395 . S
C204 C205 1.383 . S
C204 H233 0.931 . S
C205 C204 1.383 . S
C205 C206 1.394 . S
C206 C205 1.394 . S
C206 C207 1.378 . S
C206 H234 0.931 . S
C207 C202 1.377 . S
C207 C206 1.378 . S
C207 H235 0.931 . S
C208 O222 1.259 . S
C208 O223 1.270 . S
C209 O224 1.251 . S
C209 O225 1.251 . S
C210 Eu211 2.835 . S
C210 C212 1.500 . S
C210 O226 1.257 . S
C210 O227 1.260 . S
Eu211 C210 2.835 . S
Eu211 O223 2.355 . S
Eu211 O225 2.374 1_455 S
Eu211 O226 2.473 . S
Eu211 O227 2.480 . S
Eu211 O228 2.430 1_455 S
Eu211 O229 2.670 1_455 S
Eu211 O230 2.394 . S
C212 C210 1.500 . S
C212 C213 1.377 . S
C212 C217 1.377 . S
C213 C212 1.377 . S
C213 C214 1.395 . S
C213 H236 0.931 . S
C214 C213 1.395 . S
C214 C215 1.383 . S
C214 H237 0.931 . S
C215 C214 1.383 . S
C215 C216 1.394 . S
C216 C215 1.394 . S
C216 C217 1.378 . S
C216 H238 0.931 . S
C217 C212 1.377 . S
C217 C216 1.378 . S
C217 H239 0.931 . S
C218 O228 1.259 . S
C218 O229 1.270 . S
C219 O230 1.251 . S
C219 O231 1.251 . S
O220 C200 1.257 . S
O220 Eu201 2.473 . S
O221 C200 1.260 . S
O221 Eu201 2.480 . S
O222 Eu201 2.430 1_455 S
O222 C208 1.259 . S
O223 Eu201 2.670 1_455 S
O223 C208 1.270 . S
O223 Eu211 2.355 . S
O224 Eu201 2.394 . S
O224 C209 1.251 . S
O225 C209 1.251 . S
O225 Eu211 2.374 1_655 S
O226 C210 1.257 . S
O226 Eu211 2.473 . S
O227 C210 1.260 . S
O227 Eu211 2.480 . S
O228 Eu211 2.430 1_655 S
O228 C218 1.259 . S
O229 Eu201 2.355 . S
O229 Eu211 2.670 1_655 S
O229 C218 1.270 . S
O230 Eu211 2.394 . S
O230 C219 1.251 . S
O231 Eu201 2.374 1_455 S
O231 C219 1.251 . S
H232 C203 0.931 . S
H233 C204 0.931 . S
H234 C206 0.931 . S
H235 C207 0.931 . S
H236 C213 0.931 . S
H237 C214 0.931 . S
H238 C216 0.931 . S
H239 C217 0.931 . S
C240 Eu241 2.835 . S
C240 C242 1.500 . S
C240 O260 1.257 . S
C240 O261 1.260 . S
Eu241 C240 2.835 . S
Eu241 O260 2.473 . S
Eu241 O261 2.480 . S
Eu241 O262 2.430 1_455 S
Eu241 O263 2.670 1_455 S
Eu241 O264 2.394 . S
Eu241 O269 2.355 . S
Eu241 O271 2.374 1_455 S
C242 C240 1.500 . S
C242 C243 1.377 . S
C242 C247 1.377 . S
C243 C242 1.377 . S
C243 C244 1.395 . S
C243 H272 0.931 . S
C244 C243 1.395 . S
C244 C245 1.383 . S
C244 H273 0.931 . S
C245 C244 1.383 . S
C245 C246 1.394 . S
C246 C245 1.394 . S
C246 C247 1.378 . S
C246 H274 0.931 . S
C247 C242 1.377 . S
C247 C246 1.378 . S
C247 H275 0.931 . S
C248 O262 1.259 . S
C248 O263 1.270 . S
C249 O264 1.251 . S
C249 O265 1.251 . S
C250 Eu251 2.835 . S
C250 C252 1.500 . S
C250 O266 1.257 . S
C250 O267 1.260 . S
Eu251 C250 2.835 . S
Eu251 O263 2.355 . S
Eu251 O265 2.374 1_655 S
Eu251 O266 2.473 . S
Eu251 O267 2.480 . S
Eu251 O268 2.430 1_655 S
Eu251 O269 2.670 1_655 S
Eu251 O270 2.394 . S
C252 C250 1.500 . S
C252 C253 1.377 . S
C252 C257 1.377 . S
C253 C252 1.377 . S
C253 C254 1.395 . S
C253 H276 0.931 . S
C254 C253 1.395 . S
C254 C255 1.383 . S
C254 H277 0.931 . S
C255 C254 1.383 . S
C255 C256 1.394 . S
C256 C255 1.394 . S
C256 C257 1.378 . S
C256 H278 0.931 . S
C257 C252 1.377 . S
C257 C256 1.378 . S
C257 H279 0.931 . S
C258 O268 1.259 . S
C258 O269 1.270 . S
C259 O270 1.251 . S
C259 O271 1.251 . S
O260 C240 1.257 . S
O260 Eu241 2.473 . S
O261 C240 1.260 . S
O261 Eu241 2.480 . S
O262 Eu241 2.430 1_655 S
O262 C248 1.259 . S
O263 Eu241 2.670 1_655 S
O263 C248 1.270 . S
O263 Eu251 2.355 . S
O264 Eu241 2.394 . S
O264 C249 1.251 . S
O265 C249 1.251 . S
O265 Eu251 2.374 1_455 S
O266 C250 1.257 . S
O266 Eu251 2.473 . S
O267 C250 1.260 . S
O267 Eu251 2.480 . S
O268 Eu251 2.430 1_455 S
O268 C258 1.259 . S
O269 Eu241 2.355 . S
O269 Eu251 2.670 1_455 S
O269 C258 1.270 . S
O270 Eu251 2.394 . S
O270 C259 1.251 . S
O271 Eu241 2.374 1_655 S
O271 C259 1.251 . S
H272 C243 0.931 . S
H273 C244 0.931 . S
H274 C246 0.931 . S
H275 C247 0.931 . S
H276 C253 0.931 . S
H277 C254 0.931 . S
H278 C256 0.931 . S
H279 C257 0.931 . S
C280 Eu281 2.835 . S
C280 C282 1.500 . S
C280 O300 1.257 . S
C280 O301 1.260 . S
Eu281 C280 2.835 . S
Eu281 O300 2.473 . S
Eu281 O301 2.480 . S
Eu281 O302 2.430 1_545 S
Eu281 O303 2.670 1_545 S
Eu281 O304 2.394 . S
Eu281 O309 2.355 . S
Eu281 O311 2.374 1_545 S
C282 C280 1.500 . S
C282 C283 1.377 . S
C282 C287 1.377 . S
C283 C282 1.377 . S
C283 C284 1.395 . S
C283 H312 0.931 . S
C284 C283 1.395 . S
C284 C285 1.383 . S
C284 H313 0.931 . S
C285 C284 1.383 . S
C285 C286 1.394 . S
C286 C285 1.394 . S
C286 C287 1.378 . S
C286 H314 0.931 . S
C287 C282 1.377 . S
C287 C286 1.378 . S
C287 H315 0.931 . S
C288 O302 1.259 . S
C288 O303 1.270 . S
C289 O304 1.251 . S
C289 O305 1.251 . S
C290 Eu291 2.835 . S
C290 C292 1.500 . S
C290 O306 1.257 . S
C290 O307 1.260 . S
Eu291 C290 2.835 . S
Eu291 O303 2.355 . S
Eu291 O305 2.374 1_565 S
Eu291 O306 2.473 . S
Eu291 O307 2.480 . S
Eu291 O308 2.430 1_565 S
Eu291 O309 2.670 1_565 S
Eu291 O310 2.394 . S
C292 C290 1.500 . S
C292 C293 1.377 . S
C292 C297 1.377 . S
C293 C292 1.377 . S
C293 C294 1.395 . S
C293 H316 0.931 . S
C294 C293 1.395 . S
C294 C295 1.383 . S
C294 H317 0.931 . S
C295 C294 1.383 . S
C295 C296 1.394 . S
C296 C295 1.394 . S
C296 C297 1.378 . S
C296 H318 0.931 . S
C297 C292 1.377 . S
C297 C296 1.378 . S
C297 H319 0.931 . S
C298 O308 1.259 . S
C298 O309 1.270 . S
C299 O310 1.251 . S
C299 O311 1.251 . S
O300 C280 1.257 . S
O300 Eu281 2.473 . S
O301 C280 1.260 . S
O301 Eu281 2.480 . S
O302 Eu281 2.430 1_565 S
O302 C288 1.259 . S
O303 Eu281 2.670 1_565 S
O303 C288 1.270 . S
O303 Eu291 2.355 . S
O304 Eu281 2.394 . S
O304 C289 1.251 . S
O305 C289 1.251 . S
O305 Eu291 2.374 1_545 S
O306 C290 1.257 . S
O306 Eu291 2.473 . S
O307 C290 1.260 . S
O307 Eu291 2.480 . S
O308 Eu291 2.430 1_545 S
O308 C298 1.259 . S
O309 Eu281 2.355 . S
O309 Eu291 2.670 1_545 S
O309 C298 1.270 . S
O310 Eu291 2.394 . S
O310 C299 1.251 . S
O311 Eu281 2.374 1_565 S
O311 C299 1.251 . S
H312 C283 0.931 . S
H313 C284 0.931 . S
H314 C286 0.931 . S
H315 C287 0.931 . S
H316 C293 0.931 . S
H317 C294 0.931 . S
H318 C296 0.931 . S
H319 C297 0.931 . S
C320 Eu321 2.835 . S
C320 C322 1.500 . S
C320 O340 1.257 . S
C320 O341 1.260 . S
Eu321 C320 2.835 . S
Eu321 O340 2.473 . S
Eu321 O341 2.480 . S
Eu321 O342 2.430 . S
Eu321 O343 2.670 . S
Eu321 O344 2.394 . S
Eu321 O349 2.355 . S
Eu321 O351 2.374 . S
C322 C320 1.500 . S
C322 C323 1.377 . S
C322 C327 1.377 . S
C323 C322 1.377 . S
C323 C324 1.395 . S
C323 H352 0.931 . S
C324 C323 1.395 . S
C324 C325 1.383 . S
C324 H353 0.931 . S
C325 C324 1.383 . S
C325 C326 1.394 . S
C326 C325 1.394 . S
C326 C327 1.378 . S
C326 H354 0.931 . S
C327 C322 1.377 . S
C327 C326 1.378 . S
C327 H355 0.931 . S
C328 O342 1.259 . S
C328 O343 1.270 . S
C329 O344 1.251 . S
C329 O345 1.251 . S
C330 Eu331 2.835 . S
C330 C332 1.500 . S
C330 O346 1.257 . S
C330 O347 1.260 . S
Eu331 C330 2.835 . S
Eu331 O343 2.355 . S
Eu331 O345 2.374 . S
Eu331 O346 2.473 . S
Eu331 O347 2.480 . S
Eu331 O348 2.430 . S
Eu331 O349 2.670 . S
Eu331 O350 2.394 . S
C332 C330 1.500 . S
C332 C333 1.377 . S
C332 C337 1.377 . S
C333 C332 1.377 . S
C333 C334 1.395 . S
C333 H356 0.931 . S
C334 C333 1.395 . S
C334 C335 1.383 . S
C334 H357 0.931 . S
C335 C334 1.383 . S
C335 C336 1.394 . S
C336 C335 1.394 . S
C336 C337 1.378 . S
C336 H358 0.931 . S
C337 C332 1.377 . S
C337 C336 1.378 . S
C337 H359 0.931 . S
C338 O348 1.259 . S
C338 O349 1.270 . S
C339 O350 1.251 . S
C339 O351 1.251 . S
O340 C320 1.257 . S
O340 Eu321 2.473 . S
O341 C320 1.260 . S
O341 Eu321 2.480 . S
O342 Eu321 2.430 . S
O342 C328 1.259 . S
O343 Eu321 2.670 . S
O343 C328 1.270 . S
O343 Eu331 2.355 . S
O344 Eu321 2.394 . S
O344 C329 1.251 . S
O345 C329 1.251 . S
O345 Eu331 2.374 . S
O346 C330 1.257 . S
O346 Eu331 2.473 . S
O347 C330 1.260 . S
O347 Eu331 2.480 . S
O348 Eu331 2.430 . S
O348 C338 1.259 . S
O349 Eu321 2.355 . S
O349 Eu331 2.670 . S
O349 C338 1.270 . S
O350 Eu331 2.394 . S
O350 C339 1.251 . S
O351 Eu321 2.374 . S
O351 C339 1.251 . S
H352 C323 0.931 . S
H353 C324 0.931 . S
H354 C326 0.931 . S
H355 C327 0.931 . S
H356 C333 0.931 . S
H357 C334 0.931 . S
H358 C336 0.931 . S
H359 C337 0.931 . S
C360 Eu361 2.835 1_554 S
C360 C362 1.500 . S
C360 O380 1.257 . S
C360 O381 1.260 . S
Eu361 C360 2.835 1_556 S
Eu361 O380 2.473 1_556 S
Eu361 O381 2.480 1_556 S
Eu361 O382 2.430 1_656 S
Eu361 O383 2.670 1_655 S
Eu361 O384 2.394 1_556 S
Eu361 O389 2.355 . S
Eu361 O391 2.374 1_655 S
C362 C360 1.500 . S
C362 C363 1.377 . S
C362 C367 1.377 . S
C363 C362 1.377 . S
C363 C364 1.395 . S
C363 H392 0.931 . S
C364 C363 1.395 . S
C364 C365 1.383 . S
C364 H393 0.931 . S
C365 C364 1.383 . S
C365 C366 1.394 . S
C366 C365 1.394 . S
C366 C367 1.378 . S
C366 H394 0.931 . S
C367 C362 1.377 . S
C367 C366 1.378 . S
C367 H395 0.931 . S
C368 O382 1.259 1_556 S
C368 O383 1.270 . S
C369 O384 1.256 . S
C369 O385 1.237 1_554 S
C370 Eu371 2.835 . S
C370 C372 1.500 . S
C370 O386 1.257 . S
C370 O387 1.260 . S
Eu371 C370 2.835 . S
Eu371 O383 2.355 . S
Eu371 O385 2.374 1_455 S
Eu371 O386 2.473 . S
Eu371 O387 2.480 . S
Eu371 O388 2.430 1_455 S
Eu371 O389 2.670 1_455 S
Eu371 O390 2.394 . S
C372 C370 1.500 . S
C372 C373 1.377 . S
C372 C377 1.377 . S
C373 C372 1.377 . S
C373 C374 1.395 . S
C373 H396 0.931 . S
C374 C373 1.395 . S
C374 C375 1.383 . S
C374 H397 0.931 . S
C375 C374 1.383 . S
C375 C376 1.394 . S
C376 C375 1.394 . S
C376 C377 1.378 . S
C376 H398 0.931 . S
C377 C372 1.377 . S
C377 C376 1.378 . S
C377 H399 0.931 . S
C378 O388 1.259 . S
C378 O389 1.270 . S
C379 O390 1.251 . S
C379 O391 1.251 . S
O380 C360 1.257 . S
O380 Eu361 2.473 1_554 S
O381 C360 1.260 . S
O381 Eu361 2.480 1_554 S
O382 Eu361 2.430 1_454 S
O382 C368 1.259 1_554 S
O383 Eu361 2.670 1_455 S
O383 C368 1.270 . S
O383 Eu371 2.355 . S
O384 Eu361 2.394 1_554 S
O384 C369 1.256 . S
O385 C369 1.237 1_556 S
O385 Eu371 2.374 1_655 S
O386 C370 1.257 . S
O386 Eu371 2.473 . S
O387 C370 1.260 . S
O387 Eu371 2.480 . S
O388 Eu371 2.430 1_655 S
O388 C378 1.259 . S
O389 Eu361 2.355 . S
O389 Eu371 2.670 1_655 S
O389 C378 1.270 . S
O390 Eu371 2.394 . S
O390 C379 1.251 . S
O391 Eu361 2.374 1_455 S
O391 C379 1.251 . S
H392 C363 0.931 . S
H393 C364 0.931 . S
H394 C366 0.931 . S
H395 C367 0.931 . S
H396 C373 0.931 . S
H397 C374 0.931 . S
H398 C376 0.931 . S
H399 C377 0.931 . S
C400 Eu401 2.835 . S
C400 C402 1.500 . S
C400 O420 1.257 . S
C400 O421 1.260 . S
Eu401 C400 2.835 . S
Eu401 O420 2.473 . S
Eu401 O421 2.480 . S
Eu401 O422 2.430 1_565 S
Eu401 O423 2.670 1_565 S
Eu401 O424 2.394 . S
Eu401 O429 2.355 . S
Eu401 O431 2.374 1_565 S
C402 C400 1.500 . S
C402 C403 1.377 . S
C402 C407 1.377 . S
C403 C402 1.377 . S
C403 C404 1.395 . S
C403 H432 0.931 . S
C404 C403 1.395 . S
C404 C405 1.383 . S
C404 H433 0.931 . S
C405 C404 1.383 . S
C405 C406 1.394 . S
C406 C405 1.394 . S
C406 C407 1.378 . S
C406 H434 0.931 . S
C407 C402 1.377 . S
C407 C406 1.378 . S
C407 H435 0.931 . S
C408 O422 1.259 . S
C408 O423 1.270 . S
C409 O424 1.251 . S
C409 O425 1.251 . S
C410 Eu411 2.835 . S
C410 C412 1.500 . S
C410 O426 1.257 . S
C410 O427 1.260 . S
Eu411 C410 2.835 . S
Eu411 O423 2.355 . S
Eu411 O425 2.374 1_545 S
Eu411 O426 2.473 . S
Eu411 O427 2.480 . S
Eu411 O428 2.430 1_545 S
Eu411 O429 2.670 1_545 S
Eu411 O430 2.394 . S
C412 C410 1.500 . S
C412 C413 1.377 . S
C412 C417 1.377 . S
C413 C412 1.377 . S
C413 C414 1.395 . S
C413 H436 0.931 . S
C414 C413 1.395 . S
C414 C415 1.383 . S
C414 H437 0.931 . S
C415 C414 1.383 . S
C415 C416 1.394 . S
C416 C415 1.394 . S
C416 C417 1.378 . S
C416 H438 0.931 . S
C417 C412 1.377 . S
C417 C416 1.378 . S
C417 H439 0.931 . S
C418 O428 1.259 . S
C418 O429 1.270 . S
C419 O430 1.251 . S
C419 O431 1.251 . S
O420 C400 1.257 . S
O420 Eu401 2.473 . S
O421 C400 1.260 . S
O421 Eu401 2.480 . S
O422 Eu401 2.430 1_545 S
O422 C408 1.259 . S
O423 Eu401 2.670 1_545 S
O423 C408 1.270 . S
O423 Eu411 2.355 . S
O424 Eu401 2.394 . S
O424 C409 1.251 . S
O425 C409 1.251 . S
O425 Eu411 2.374 1_565 S
O426 C410 1.257 . S
O426 Eu411 2.473 . S
O427 C410 1.260 . S
O427 Eu411 2.480 . S
O428 Eu411 2.430 1_565 S
O428 C418 1.259 . S
O429 Eu401 2.355 . S
O429 Eu411 2.670 1_565 S
O429 C418 1.270 . S
O430 Eu411 2.394 . S
O430 C419 1.251 . S
O431 Eu401 2.374 1_545 S
O431 C419 1.251 . S
H432 C403 0.931 . S
H433 C404 0.931 . S
H434 C406 0.931 . S
H435 C407 0.931 . S
H436 C413 0.931 . S
H437 C414 0.931 . S
H438 C416 0.931 . S
H439 C417 0.931 . S
C440 Eu441 2.835 . S
C440 C442 1.500 . S
C440 O460 1.257 . S
C440 O461 1.260 . S
Eu441 C440 2.835 . S
Eu441 O460 2.473 . S
Eu441 O461 2.480 . S
Eu441 O462 2.430 . S
Eu441 O463 2.670 . S
Eu441 O464 2.394 . S
Eu441 O469 2.355 . S
Eu441 O471 2.374 . S
C442 C440 1.500 . S
C442 C443 1.377 . S
C442 C447 1.377 . S
C443 C442 1.377 . S
C443 C444 1.395 . S
C443 H472 0.931 . S
C444 C443 1.395 . S
C444 C445 1.383 . S
C444 H473 0.931 . S
C445 C444 1.383 . S
C445 C446 1.394 . S
C446 C445 1.394 . S
C446 C447 1.378 . S
C446 H474 0.931 . S
C447 C442 1.377 . S
C447 C446 1.378 . S
C447 H475 0.931 . S
C448 O462 1.259 . S
C448 O463 1.270 . S
C449 O464 1.251 . S
C449 O465 1.251 . S
C450 Eu451 2.835 . S
C450 C452 1.500 . S
C450 O466 1.257 . S
C450 O467 1.260 . S
Eu451 C450 2.835 . S
Eu451 O463 2.355 . S
Eu451 O465 2.374 . S
Eu451 O466 2.473 . S
Eu451 O467 2.480 . S
Eu451 O468 2.430 . S
Eu451 O469 2.670 . S
Eu451 O470 2.394 . S
C452 C450 1.500 . S
C452 C453 1.377 . S
C452 C457 1.377 . S
C453 C452 1.377 . S
C453 C454 1.395 . S
C453 H476 0.931 . S
C454 C453 1.395 . S
C454 C455 1.383 . S
C454 H477 0.931 . S
C455 C454 1.383 . S
C455 C456 1.394 . S
C456 C455 1.394 . S
C456 C457 1.378 . S
C456 H478 0.931 . S
C457 C452 1.377 . S
C457 C456 1.378 . S
C457 H479 0.931 . S
C458 O468 1.259 . S
C458 O469 1.270 . S
C459 O470 1.251 . S
C459 O471 1.251 . S
O460 C440 1.257 . S
O460 Eu441 2.473 . S
O461 C440 1.260 . S
O461 Eu441 2.480 . S
O462 Eu441 2.430 . S
O462 C448 1.259 . S
O463 Eu441 2.670 . S
O463 C448 1.270 . S
O463 Eu451 2.355 . S
O464 Eu441 2.394 . S
O464 C449 1.251 . S
O465 C449 1.251 . S
O465 Eu451 2.374 . S
O466 C450 1.257 . S
O466 Eu451 2.473 . S
O467 C450 1.260 . S
O467 Eu451 2.480 . S
O468 Eu451 2.430 . S
O468 C458 1.259 . S
O469 Eu441 2.355 . S
O469 Eu451 2.670 . S
O469 C458 1.270 . S
O470 Eu451 2.394 . S
O470 C459 1.251 . S
O471 Eu441 2.374 . S
O471 C459 1.251 . S
H472 C443 0.931 . S
H473 C444 0.931 . S
H474 C446 0.931 . S
H475 C447 0.931 . S
H476 C453 0.931 . S
H477 C454 0.931 . S
H478 C456 0.931 . S
H479 C457 0.931 . S
C480 C481 1.363 . S
C480 C486 1.379 . S
C480 N488 1.356 . S
C481 C480 1.363 . S
C481 C487 1.363 . S
C482 C483 1.363 . S
C482 C487 1.379 . S
C482 N489 1.356 . S
C483 C482 1.363 . S
C483 C486 1.363 . S
N484 C486 1.356 . S
N484 H496 0.984 . S
N484 H497 0.985 . S
N485 C487 1.356 . S
N485 H490 0.984 . S
N485 H491 0.985 1_455 S
C486 C480 1.379 . S
C486 C483 1.363 . S
C486 N484 1.356 . S
C487 C481 1.363 . S
C487 C482 1.379 . S
C487 N485 1.356 . S
N488 C480 1.356 . S
N488 H494 0.984 . S
N488 H495 0.984 . S
N489 C482 1.356 . S
N489 H492 0.984 . S
N489 H493 0.985 1_455 S
H490 N485 0.984 . S
H491 N485 0.985 1_655 S
H492 N489 0.984 . S
H493 N489 0.985 1_655 S
H494 N488 0.984 . S
H495 N488 0.984 . S
H496 N484 0.984 . S
H497 N484 0.985 . S
C498 C499 1.363 . S
C498 C504 1.379 . S
C498 N506 1.356 . S
C499 C498 1.363 . S
C499 C505 1.363 . S
C500 C501 1.363 . S
C500 C505 1.379 . S
C500 N507 1.356 1_545 S
C501 C500 1.363 . S
C501 C504 1.363 . S
N502 C504 1.356 . S
N502 H514 0.984 . S
N502 H515 0.985 . S
N503 C505 1.356 1_565 S
N503 H508 0.984 . S
N503 H509 0.985 . S
C504 C498 1.379 . S
C504 C501 1.363 . S
C504 N502 1.356 . S
C505 C499 1.363 . S
C505 C500 1.379 . S
C505 N503 1.356 1_545 S
N506 C498 1.356 . S
N506 H512 0.984 . S
N506 H513 0.984 . S
N507 C500 1.356 1_565 S
N507 H510 0.984 1_565 S
N507 H511 0.985 . S
H508 N503 0.984 . S
H509 N503 0.985 . S
H510 N507 0.984 1_545 S
H511 N507 0.985 . S
H512 N506 0.984 . S
H513 N506 0.984 . S
H514 N502 0.984 . S
H515 N502 0.985 . S
C516 C517 1.363 . S
C516 C522 1.379 . S
C516 N524 1.356 . S
C517 C516 1.363 . S
C517 C523 1.363 . S
C518 C519 1.363 . S
C518 C523 1.379 . S
C518 N525 1.356 . S
C519 C518 1.363 . S
C519 C522 1.363 . S
N520 C522 1.356 . S
N520 H532 0.984 . S
N520 H533 0.985 . S
N521 C523 1.356 . S
N521 H526 0.984 . S
N521 H527 0.985 . S
C522 C516 1.379 . S
C522 C519 1.363 . S
C522 N520 1.356 . S
C523 C517 1.363 . S
C523 C518 1.379 . S
C523 N521 1.356 . S
N524 C516 1.356 . S
N524 H530 0.984 . S
N524 H531 0.984 . S
N525 C518 1.356 . S
N525 H528 0.984 . S
N525 H529 0.985 . S
H526 N521 0.984 . S
H527 N521 0.985 . S
H528 N525 0.984 . S
H529 N525 0.985 . S
H530 N524 0.984 . S
H531 N524 0.984 . S
H532 N520 0.984 . S
H533 N520 0.985 . S
C534 C535 1.363 . S
C534 C540 1.379 . S
C534 N542 1.356 . S
C535 C534 1.363 . S
C535 C541 1.363 . S
C536 C537 1.363 . S
C536 C541 1.379 . S
C536 N543 1.356 . S
C537 C536 1.363 . S
C537 C540 1.363 . S
N538 C540 1.356 . S
N538 H550 0.984 . S
N538 H551 0.985 . S
N539 C541 1.356 . S
N539 H544 0.984 . S
N539 H545 0.985 1_655 S
C540 C534 1.379 . S
C540 C537 1.363 . S
C540 N538 1.356 . S
C541 C535 1.363 . S
C541 C536 1.379 . S
C541 N539 1.356 . S
N542 C534 1.356 . S
N542 H548 0.984 . S
N542 H549 0.984 . S
N543 C536 1.356 . S
N543 H546 0.984 . S
N543 H547 0.985 . S
H544 N539 0.984 . S
H545 N539 0.985 1_455 S
H546 N543 0.984 . S
H547 N543 0.985 . S
H548 N542 0.984 . S
H549 N542 0.984 . S
H550 N538 0.984 . S
H551 N538 0.985 . S
C552 C553 1.363 . S
C552 C558 1.379 . S
C552 N560 1.356 1_565 S
C553 C552 1.363 . S
C553 C559 1.363 . S
C554 C555 1.363 . S
C554 C559 1.379 . S
C554 N561 1.356 . S
C555 C554 1.363 . S
C555 C558 1.363 . S
N556 C558 1.356 1_545 S
N556 H568 0.984 . S
N556 H569 0.985 . S
N557 C559 1.356 . S
N557 H562 0.984 . S
N557 H563 0.985 . S
C558 C552 1.379 . S
C558 C555 1.363 . S
C558 N556 1.356 1_565 S
C559 C553 1.363 . S
C559 C554 1.379 . S
C559 N557 1.356 . S
N560 C552 1.356 1_545 S
N560 H566 0.984 . S
N560 H567 0.984 1_545 S
N561 C554 1.356 . S
N561 H564 0.984 . S
N561 H565 0.985 . S
H562 N557 0.984 . S
H563 N557 0.985 . S
H564 N561 0.984 . S
H565 N561 0.985 . S
H566 N560 0.984 . S
H567 N560 0.984 1_565 S
H568 N556 0.984 . S
H569 N556 0.985 . S
C570 C571 1.363 . S
C570 C576 1.379 . S
C570 N578 1.356 . S
C571 C570 1.363 . S
C571 C577 1.363 . S
C572 C573 1.363 . S
C572 C577 1.379 . S
C572 N579 1.356 . S
C573 C572 1.363 . S
C573 C576 1.363 . S
N574 C576 1.356 . S
N574 H586 0.984 . S
N574 H587 0.985 . S
N575 C577 1.356 . S
N575 H580 0.984 . S
N575 H581 0.985 . S
C576 C570 1.379 . S
C576 C573 1.363 . S
C576 N574 1.356 . S
C577 C571 1.363 . S
C577 C572 1.379 . S
C577 N575 1.356 . S
N578 C570 1.356 . S
N578 H584 0.984 . S
N578 H585 0.984 . S
N579 C572 1.356 . S
N579 H582 0.984 . S
N579 H583 0.985 . S
H580 N575 0.984 . S
H581 N575 0.985 . S
H582 N579 0.984 . S
H583 N579 0.985 . S
H584 N578 0.984 . S
H585 N578 0.984 . S
H586 N574 0.984 . S
H587 N574 0.985 . S
C588 C589 1.363 . S
C588 C594 1.379 . S
C588 N596 1.356 . S
C589 C588 1.363 . S
C589 C595 1.363 . S
C590 C591 1.363 . S
C590 C595 1.379 . S
C590 N597 1.356 . S
C591 C590 1.363 . S
C591 C594 1.363 . S
N592 C594 1.356 . S
N592 H604 0.984 . S
N592 H605 0.985 . S
N593 C595 1.356 . S
N593 H598 0.984 . S
N593 H599 0.985 1_565 S
C594 C588 1.379 . S
C594 C591 1.363 . S
C594 N592 1.356 . S
C595 C589 1.363 . S
C595 C590 1.379 . S
C595 N593 1.356 . S
N596 C588 1.356 . S
N596 H602 0.984 . S
N596 H603 0.984 . S
N597 C590 1.356 . S
N597 H600 0.984 . S
N597 H601 0.985 . S
H598 N593 0.984 . S
H599 N593 0.985 1_545 S
H600 N597 0.984 . S
H601 N597 0.985 . S
H602 N596 0.984 . S
H603 N596 0.984 . S
H604 N592 0.984 . S
H605 N592 0.985 . S
C606 C607 1.363 . S
C606 C612 1.379 . S
C606 N614 1.356 . S
C607 C606 1.363 . S
C607 C613 1.363 . S
C608 C609 1.363 . S
C608 C613 1.379 . S
C608 N615 1.356 . S
C609 C608 1.363 . S
C609 C612 1.363 . S
N610 C612 1.356 . S
N610 H622 0.984 . S
N610 H623 0.985 . S
N611 C613 1.356 . S
N611 H616 0.984 . S
N611 H617 0.985 . S
C612 C606 1.379 . S
C612 C609 1.363 . S
C612 N610 1.356 . S
C613 C607 1.363 . S
C613 C608 1.379 . S
C613 N611 1.356 . S
N614 C606 1.356 . S
N614 H620 0.984 . S
N614 H621 0.984 . S
N615 C608 1.356 . S
N615 H618 0.984 . S
N615 H619 0.985 . S
H616 N611 0.984 . S
H617 N611 0.985 . S
H618 N615 0.984 . S
H619 N615 0.985 . S
H620 N614 0.984 . S
H621 N614 0.984 . S
H622 N610 0.984 . S
H623 N610 0.985 . S
C624 C625 1.363 . S
C624 C630 1.379 . S
C624 N632 1.356 . S
C625 C624 1.363 . S
C625 C631 1.363 . S
C626 C627 1.363 . S
C626 C631 1.379 . S
C626 N633 1.356 . S
C627 C626 1.363 . S
C627 C630 1.363 . S
N628 C630 1.356 . S
N628 H640 0.984 . S
N628 H641 0.985 . S
N629 C631 1.356 . S
N629 H634 0.984 . S
N629 H635 0.985 . S
C630 C624 1.379 . S
C630 C627 1.363 . S
C630 N628 1.356 . S
C631 C625 1.363 . S
C631 C626 1.379 . S
C631 N629 1.356 . S
N632 C624 1.356 . S
N632 H638 0.984 . S
N632 H639 0.984 . S
N633 C626 1.356 . S
N633 H636 0.984 . S
N633 H637 0.985 . S
H634 N629 0.984 . S
H635 N629 0.985 . S
H636 N633 0.984 . S
H637 N633 0.985 . S
H638 N632 0.984 . S
H639 N632 0.984 . S
H640 N628 0.984 . S
H641 N628 0.985 . S
C642 C643 1.363 . S
C642 C648 1.379 . S
C642 N650 1.356 . S
C643 C642 1.363 . S
C643 C649 1.363 . S
C644 C645 1.363 . S
C644 C649 1.379 . S
C644 N651 1.356 . S
C645 C644 1.363 . S
C645 C648 1.363 . S
N646 C648 1.356 . S
N646 H658 0.984 . S
N646 H659 0.985 . S
N647 C649 1.356 . S
N647 H652 0.984 . S
N647 H653 0.985 . S
C648 C642 1.379 . S
C648 C645 1.363 . S
C648 N646 1.356 . S
C649 C643 1.363 . S
C649 C644 1.379 . S
C649 N647 1.356 . S
N650 C642 1.356 . S
N650 H656 0.984 1_545 S
N650 H657 0.984 . S
N651 C644 1.356 . S
N651 H654 0.984 . S
N651 H655 0.985 . S
H652 N647 0.984 . S
H653 N647 0.985 . S
H654 N651 0.984 . S
H655 N651 0.985 . S
H656 N650 0.984 1_565 S
H657 N650 0.984 . S
H658 N646 0.984 . S
H659 N646 0.985 . S
C660 C661 1.363 . S
C660 C666 1.379 . S
C660 N668 1.356 . S
C661 C660 1.363 . S
C661 C667 1.363 . S
C662 C663 1.363 . S
C662 C667 1.379 . S
C662 N669 1.356 . S
C663 C662 1.363 . S
C663 C666 1.363 . S
N664 C666 1.356 . S
N664 H676 0.984 . S
N664 H677 0.985 . S
N665 C667 1.356 . S
N665 H670 0.984 . S
N665 H671 0.985 . S
C666 C660 1.379 . S
C666 C663 1.363 . S
C666 N664 1.356 . S
C667 C661 1.363 . S
C667 C662 1.379 . S
C667 N665 1.356 . S
N668 C660 1.356 . S
N668 H674 0.984 . S
N668 H675 0.984 . S
N669 C662 1.356 . S
N669 H672 0.984 . S
N669 H673 0.985 . S
H670 N665 0.984 . S
H671 N665 0.985 . S
H672 N669 0.984 . S
H673 N669 0.985 . S
H674 N668 0.984 . S
H675 N668 0.984 . S
H676 N664 0.984 . S
H677 N664 0.985 . S
C678 C679 1.363 . S
C678 C684 1.379 . S
C678 N686 1.356 . S
C679 C678 1.363 . S
C679 C685 1.363 . S
C680 C681 1.363 . S
C680 C685 1.379 . S
C680 N687 1.356 . S
C681 C680 1.363 . S
C681 C684 1.363 . S
N682 C684 1.356 . S
N682 H694 0.984 . S
N682 H695 0.985 . S
N683 C685 1.356 . S
N683 H688 0.984 . S
N683 H689 0.985 . S
C684 C678 1.379 . S
C684 C681 1.363 . S
C684 N682 1.356 . S
C685 C679 1.363 . S
C685 C680 1.379 . S
C685 N683 1.356 . S
N686 C678 1.356 . S
N686 H692 0.984 . S
N686 H693 0.984 . S
N687 C680 1.356 . S
N687 H690 0.984 . S
N687 H691 0.985 . S
H688 N683 0.984 . S
H689 N683 0.985 . S
H690 N687 0.984 . S
H691 N687 0.985 . S
H692 N686 0.984 . S
H693 N686 0.984 . S
H694 N682 0.984 . S
H695 N682 0.985 . S
C696 C697 1.363 . S
C696 C702 1.379 . S
C696 N704 1.356 . S
C697 C696 1.363 . S
C697 C703 1.363 . S
C698 C699 1.363 . S
C698 C703 1.379 . S
C698 N705 1.356 . S
C699 C698 1.363 . S
C699 C702 1.363 . S
N700 C702 1.356 . S
N700 H712 0.984 . S
N700 H713 0.985 . S
N701 C703 1.356 . S
N701 H706 0.984 . S
N701 H707 0.985 . S
C702 C696 1.379 . S
C702 C699 1.363 . S
C702 N700 1.356 . S
C703 C697 1.363 . S
C703 C698 1.379 . S
C703 N701 1.356 . S
N704 C696 1.356 . S
N704 H710 0.984 . S
N704 H711 0.984 . S
N705 C698 1.356 . S
N705 H708 0.984 . S
N705 H709 0.985 . S
H706 N701 0.984 . S
H707 N701 0.985 . S
H708 N705 0.984 . S
H709 N705 0.985 . S
H710 N704 0.984 . S
H711 N704 0.984 . S
H712 N700 0.984 . S
H713 N700 0.985 . S
C714 C715 1.363 . S
C714 C720 1.379 . S
C714 N722 1.356 . S
C715 C714 1.363 . S
C715 C721 1.363 . S
C716 C717 1.363 . S
C716 C721 1.379 . S
C716 N723 1.356 . S
C717 C716 1.363 . S
C717 C720 1.363 . S
N718 C720 1.356 . S
N718 H730 0.984 . S
N718 H731 0.985 . S
N719 C721 1.356 . S
N719 H724 0.984 . S
N719 H725 0.985 . S
C720 C714 1.379 . S
C720 C717 1.363 . S
C720 N718 1.356 . S
C721 C715 1.363 . S
C721 C716 1.379 . S
C721 N719 1.356 . S
N722 C714 1.356 . S
N722 H728 0.984 . S
N722 H729 0.984 . S
N723 C716 1.356 . S
N723 H726 0.984 . S
N723 H727 0.985 . S
H724 N719 0.984 . S
H725 N719 0.985 . S
H726 N723 0.984 . S
H727 N723 0.985 . S
H728 N722 0.984 . S
H729 N722 0.984 . S
H730 N718 0.984 . S
H731 N718 0.985 . S
C732 C733 1.363 . S
C732 C738 1.379 . S
C732 N740 1.356 . S
C733 C732 1.363 . S
C733 C739 1.363 . S
C734 C735 1.363 . S
C734 C739 1.379 . S
C734 N741 1.356 . S
C735 C734 1.363 . S
C735 C738 1.363 . S
N736 C738 1.356 . S
N736 H748 0.984 . S
N736 H749 0.985 . S
N737 C739 1.356 . S
N737 H742 0.984 . S
N737 H743 0.985 . S
C738 C732 1.379 . S
C738 C735 1.363 . S
C738 N736 1.356 . S
C739 C733 1.363 . S
C739 C734 1.379 . S
C739 N737 1.356 . S
N740 C732 1.356 . S
N740 H746 0.984 . S
N740 H747 0.984 . S
N741 C734 1.356 . S
N741 H744 0.984 . S
N741 H745 0.985 . S
H742 N737 0.984 . S
H743 N737 0.985 . S
H744 N741 0.984 . S
H745 N741 0.985 . S
H746 N740 0.984 . S
H747 N740 0.984 . S
H748 N736 0.984 . S
H749 N736 0.985 . S
C750 C751 1.363 . S
C750 C756 1.379 . S
C750 N758 1.356 . S
C751 C750 1.363 . S
C751 C757 1.363 . S
C752 C753 1.363 . S
C752 C757 1.379 . S
C752 N759 1.356 . S
C753 C752 1.363 . S
C753 C756 1.363 . S
N754 C756 1.356 . S
N754 H766 0.984 . S
N754 H767 0.985 . S
N755 C757 1.356 . S
N755 H760 0.984 . S
N755 H761 0.985 . S
C756 C750 1.379 . S
C756 C753 1.363 . S
C756 N754 1.356 . S
C757 C751 1.363 . S
C757 C752 1.379 . S
C757 N755 1.356 . S
N758 C750 1.356 . S
N758 H764 0.984 . S
N758 H765 0.984 . S
N759 C752 1.356 . S
N759 H762 0.984 . S
N759 H763 0.985 . S
H760 N755 0.984 . S
H761 N755 0.985 . S
H762 N759 0.984 . S
H763 N759 0.985 . S
H764 N758 0.984 . S
H765 N758 0.984 . S
H766 N754 0.984 . S
H767 N754 0.985 . S
C768 C769 1.363 . S
C768 C774 1.379 . S
C768 N776 1.356 . S
C769 C768 1.363 . S
C769 C775 1.363 1_554 S
C770 C771 1.363 1_556 S
C770 C775 1.379 . S
C770 N777 1.356 . S
C771 C770 1.363 1_554 S
C771 C774 1.363 . S
N772 C774 1.356 . S
N772 H784 0.984 . S
N772 H785 0.985 . S
N773 C775 1.356 . S
N773 H778 0.984 . S
N773 H779 0.985 . S
C774 C768 1.379 . S
C774 C771 1.363 . S
C774 N772 1.356 . S
C775 C769 1.363 1_556 S
C775 C770 1.379 . S
C775 N773 1.356 . S
N776 C768 1.356 . S
N776 H782 0.984 . S
N776 H783 0.984 . S
N777 C770 1.356 . S
N777 H780 0.984 . S
N777 H781 0.985 . S
H778 N773 0.984 . S
H779 N773 0.985 . S
H780 N777 0.984 . S
H781 N777 0.985 . S
H782 N776 0.984 . S
H783 N776 0.984 . S
H784 N772 0.984 . S
H785 N772 0.985 . S
C786 C787 1.363 . S
C786 C792 1.379 . S
C786 N794 1.356 . S
C787 C786 1.363 . S
C787 C793 1.363 . S
C788 C789 1.363 . S
C788 C793 1.379 . S
C788 N795 1.356 . S
C789 C788 1.363 . S
C789 C792 1.363 . S
N790 C792 1.356 . S
N790 H802 0.984 . S
N790 H803 0.985 . S
N791 C793 1.356 . S
N791 H796 0.984 . S
N791 H797 0.985 . S
C792 C786 1.379 . S
C792 C789 1.363 . S
C792 N790 1.356 . S
C793 C787 1.363 . S
C793 C788 1.379 . S
C793 N791 1.356 . S
N794 C786 1.356 . S
N794 H800 0.984 . S
N794 H801 0.984 . S
N795 C788 1.356 . S
N795 H798 0.984 . S
N795 H799 0.985 . S
H796 N791 0.984 . S
H797 N791 0.985 . S
H798 N795 0.984 . S
H799 N795 0.985 . S
H800 N794 0.984 . S
H801 N794 0.984 . S
H802 N790 0.984 . S
H803 N790 0.985 . S
C804 C805 1.363 . S
C804 C810 1.379 . S
C804 N812 1.356 . S
C805 C804 1.363 . S
C805 C811 1.363 . S
C806 C807 1.363 . S
C806 C811 1.379 . S
C806 N813 1.356 . S
C807 C806 1.363 . S
C807 C810 1.363 . S
N808 C810 1.356 . S
N808 H820 0.984 . S
N808 H821 0.985 . S
N809 C811 1.356 . S
N809 H814 0.984 . S
N809 H815 0.985 . S
C810 C804 1.379 . S
C810 C807 1.363 . S
C810 N808 1.356 . S
C811 C805 1.363 . S
C811 C806 1.379 . S
C811 N809 1.356 . S
N812 C804 1.356 . S
N812 H818 0.984 . S
N812 H819 0.984 . S
N813 C806 1.356 . S
N813 H816 0.984 . S
N813 H817 0.985 . S
H814 N809 0.984 . S
H815 N809 0.985 . S
H816 N813 0.984 . S
H817 N813 0.985 . S
H818 N812 0.984 . S
H819 N812 0.984 . S
H820 N808 0.984 . S
H821 N808 0.985 . S
C822 C823 1.363 . S
C822 C828 1.379 . S
C822 N830 1.356 . S
C823 C822 1.363 . S
C823 C829 1.363 . S
C824 C825 1.363 . S
C824 C829 1.379 . S
C824 N831 1.356 . S
C825 C824 1.363 . S
C825 C828 1.363 . S
N826 C828 1.356 . S
N826 H838 0.984 . S
N826 H839 0.985 . S
N827 C829 1.356 . S
N827 H832 0.984 . S
N827 H833 0.985 . S
C828 C822 1.379 . S
C828 C825 1.363 . S
C828 N826 1.356 . S
C829 C823 1.363 . S
C829 C824 1.379 . S
C829 N827 1.356 . S
N830 C822 1.356 . S
N830 H836 0.984 . S
N830 H837 0.984 . S
N831 C824 1.356 . S
N831 H834 0.984 . S
N831 H835 0.985 . S
H832 N827 0.984 . S
H833 N827 0.985 . S
H834 N831 0.984 . S
H835 N831 0.985 . S
H836 N830 0.984 . S
H837 N830 0.984 . S
H838 N826 0.984 . S
H839 N826 0.985 . S
C840 C841 1.363 . S
C840 C846 1.379 . S
C840 N848 1.356 . S
C841 C840 1.363 . S
C841 C847 1.363 . S
C842 C843 1.363 . S
C842 C847 1.379 . S
C842 N849 1.356 . S
C843 C842 1.363 . S
C843 C846 1.363 . S
N844 C846 1.356 . S
N844 H856 0.984 . S
N844 H857 0.985 . S
N845 C847 1.356 . S
N845 H850 0.984 . S
N845 H851 0.985 . S
C846 C840 1.379 . S
C846 C843 1.363 . S
C846 N844 1.356 . S
C847 C841 1.363 . S
C847 C842 1.379 . S
C847 N845 1.356 . S
N848 C840 1.356 . S
N848 H854 0.984 . S
N848 H855 0.984 . S
N849 C842 1.356 . S
N849 H852 0.984 . S
N849 H853 0.985 . S
H850 N845 0.984 . S
H851 N845 0.985 . S
H852 N849 0.984 . S
H853 N849 0.985 . S
H854 N848 0.984 . S
H855 N848 0.984 . S
H856 N844 0.984 . S
H857 N844 0.985 . S
C858 C859 1.363 . S
C858 C864 1.379 . S
C858 N866 1.356 . S
C859 C858 1.363 . S
C859 C865 1.363 1_554 S
C860 C861 1.363 1_556 S
C860 C865 1.379 . S
C860 N867 1.356 . S
C861 C860 1.363 1_554 S
C861 C864 1.363 . S
N862 C864 1.356 . S
N862 H874 0.984 . S
N862 H875 0.985 . S
N863 C865 1.356 . S
N863 H868 0.984 . S
N863 H869 0.985 . S
C864 C858 1.379 . S
C864 C861 1.363 . S
C864 N862 1.356 . S
C865 C859 1.363 1_556 S
C865 C860 1.379 . S
C865 N863 1.356 . S
N866 C858 1.356 . S
N866 H872 0.984 . S
N866 H873 0.984 . S
N867 C860 1.356 . S
N867 H870 0.984 . S
N867 H871 0.985 . S
H868 N863 0.984 . S
H869 N863 0.985 . S
H870 N867 0.984 . S
H871 N867 0.985 . S
H872 N866 0.984 . S
H873 N866 0.984 . S
H874 N862 0.984 . S
H875 N862 0.985 . S
C876 C877 1.363 . S
C876 C882 1.379 . S
C876 N884 1.356 . S
C877 C876 1.363 . S
C877 C883 1.363 . S
C878 C879 1.363 . S
C878 C883 1.379 . S
C878 N885 1.356 . S
C879 C878 1.363 . S
C879 C882 1.363 . S
N880 C882 1.356 . S
N880 H892 0.984 . S
N880 H893 0.985 . S
N881 C883 1.356 . S
N881 H886 0.984 . S
N881 H887 0.985 . S
C882 C876 1.379 . S
C882 C879 1.363 . S
C882 N880 1.356 . S
C883 C877 1.363 . S
C883 C878 1.379 . S
C883 N881 1.356 . S
N884 C876 1.356 . S
N884 H890 0.984 . S
N884 H891 0.984 . S
N885 C878 1.356 . S
N885 H888 0.984 . S
N885 H889 0.985 . S
H886 N881 0.984 . S
H887 N881 0.985 . S
H888 N885 0.984 . S
H889 N885 0.985 . S
H890 N884 0.984 . S
H891 N884 0.984 . S
H892 N880 0.984 . S
H893 N880 0.985 . S
C894 C895 1.363 . S
C894 C900 1.379 . S
C894 N902 1.356 . S
C895 C894 1.363 . S
C895 C901 1.363 . S
C896 C897 1.363 . S
C896 C901 1.379 . S
C896 N903 1.356 . S
C897 C896 1.363 . S
C897 C900 1.363 . S
N898 C900 1.356 . S
N898 H910 0.984 . S
N898 H911 0.985 . S
N899 C901 1.356 . S
N899 H904 0.984 . S
N899 H905 0.985 . S
C900 C894 1.379 . S
C900 C897 1.363 . S
C900 N898 1.356 . S
C901 C895 1.363 . S
C901 C896 1.379 . S
C901 N899 1.356 . S
N902 C894 1.356 . S
N902 H908 0.984 . S
N902 H909 0.984 . S
N903 C896 1.356 . S
N903 H906 0.984 . S
N903 H907 0.985 . S
H904 N899 0.984 . S
H905 N899 0.985 . S
H906 N903 0.984 . S
H907 N903 0.985 . S
H908 N902 0.984 . S
H909 N902 0.984 . S
H910 N898 0.984 . S
H911 N898 0.985 . S
C912 C913 1.363 . S
C912 C918 1.379 . S
C912 N920 1.356 . S
C913 C912 1.363 . S
C913 C919 1.363 . S
C914 C915 1.363 . S
C914 C919 1.379 . S
C914 N921 1.356 . S
C915 C914 1.363 . S
C915 C918 1.363 . S
N916 C918 1.356 . S
N916 H928 0.984 . S
N916 H929 0.985 . S
N917 C919 1.356 . S
N917 H922 0.984 . S
N917 H923 0.985 . S
C918 C912 1.379 . S
C918 C915 1.363 . S
C918 N916 1.356 . S
C919 C913 1.363 . S
C919 C914 1.379 . S
C919 N917 1.356 . S
N920 C912 1.356 . S
N920 H926 0.984 . S
N920 H927 0.984 . S
N921 C914 1.356 . S
N921 H924 0.984 . S
N921 H925 0.985 . S
H922 N917 0.984 . S
H923 N917 0.985 . S
H924 N921 0.984 . S
H925 N921 0.985 . S
H926 N920 0.984 . S
H927 N920 0.984 . S
H928 N916 0.984 . S
H929 N916 0.985 . S
C930 C931 1.363 . S
C930 C936 1.379 . S
C930 N938 1.356 . S
C931 C930 1.363 . S
C931 C937 1.363 . S
C932 C933 1.363 . S
C932 C937 1.379 . S
C932 N939 1.356 . S
C933 C932 1.363 . S
C933 C936 1.363 . S
N934 C936 1.356 . S
N934 H946 0.984 . S
N934 H947 0.985 . S
N935 C937 1.356 . S
N935 H940 0.984 . S
N935 H941 0.985 . S
C936 C930 1.379 . S
C936 C933 1.363 . S
C936 N934 1.356 . S
C937 C931 1.363 . S
C937 C932 1.379 . S
C937 N935 1.356 . S
N938 C930 1.356 . S
N938 H944 0.984 . S
N938 H945 0.984 . S
N939 C932 1.356 . S
N939 H942 0.984 . S
N939 H943 0.985 . S
H940 N935 0.984 . S
H941 N935 0.985 . S
H942 N939 0.984 . S
H943 N939 0.985 . S
H944 N938 0.984 . S
H945 N938 0.984 . S
H946 N934 0.984 . S
H947 N934 0.985 . S
C948 C949 1.363 . S
C948 C954 1.379 . S
C948 N956 1.356 . S
C949 C948 1.363 . S
C949 C955 1.363 . S
C950 C951 1.363 . S
C950 C955 1.379 . S
C950 N957 1.356 . S
C951 C950 1.363 . S
C951 C954 1.363 . S
N952 C954 1.356 . S
N952 H964 0.984 . S
N952 H965 0.985 . S
N953 C955 1.356 . S
N953 H958 0.984 . S
N953 H959 0.985 . S
C954 C948 1.379 . S
C954 C951 1.363 . S
C954 N952 1.356 . S
C955 C949 1.363 . S
C955 C950 1.379 . S
C955 N953 1.356 . S
N956 C948 1.356 . S
N956 H962 0.984 . S
N956 H963 0.984 . S
N957 C950 1.356 . S
N957 H960 0.984 . S
N957 H961 0.985 . S
H958 N953 0.984 . S
H959 N953 0.985 . S
H960 N957 0.984 . S
H961 N957 0.985 . S
H962 N956 0.984 . S
H963 N956 0.984 . S
H964 N952 0.984 . S
H965 N952 0.985 . S
C966 C967 1.363 . S
C966 C972 1.379 . S
C966 N974 1.356 . S
C967 C966 1.363 . S
C967 C973 1.363 . S
C968 C969 1.363 . S
C968 C973 1.379 . S
C968 N975 1.356 . S
C969 C968 1.363 . S
C969 C972 1.363 . S
N970 C972 1.356 . S
N970 H982 0.984 . S
N970 H983 0.985 . S
N971 C973 1.356 . S
N971 H976 0.984 . S
N971 H977 0.985 . S
C972 C966 1.379 . S
C972 C969 1.363 . S
C972 N970 1.356 . S
C973 C967 1.363 . S
C973 C968 1.379 . S
C973 N971 1.356 . S
N974 C966 1.356 . S
N974 H980 0.984 . S
N974 H981 0.984 . S
N975 C968 1.356 . S
N975 H978 0.984 . S
N975 H979 0.985 . S
H976 N971 0.984 . S
H977 N971 0.985 . S
H978 N975 0.984 . S
H979 N975 0.985 . S
H980 N974 0.984 . S
H981 N974 0.984 . S
H982 N970 0.984 . S
H983 N970 0.985 . S
C984 C985 1.363 . S
C984 C990 1.379 . S
C984 N992 1.356 . S
C985 C984 1.363 . S
C985 C991 1.363 . S
C986 C987 1.363 . S
C986 C991 1.379 . S
C986 N993 1.356 . S
C987 C986 1.363 . S
C987 C990 1.363 . S
N988 C990 1.356 . S
N988 H1000 0.984 . S
N988 H1001 0.985 . S
N989 C991 1.356 . S
N989 H994 0.984 . S
N989 H995 0.985 . S
C990 C984 1.379 . S
C990 C987 1.363 . S
C990 N988 1.356 . S
C991 C985 1.363 . S
C991 C986 1.379 . S
C991 N989 1.356 . S
N992 C984 1.356 . S
N992 H998 0.984 . S
N992 H999 0.984 . S
N993 C986 1.356 . S
N993 H996 0.984 . S
N993 H997 0.985 . S
H994 N989 0.984 . S
H995 N989 0.985 . S
H996 N993 0.984 . S
H997 N993 0.985 . S
H998 N992 0.984 . S
H999 N992 0.984 . S
H1000 N988 0.984 . S
H1001 N988 0.985 . S
C1002 C1003 1.363 . S
C1002 C1008 1.379 . S
C1002 N1010 1.356 . S
C1003 C1002 1.363 . S
C1003 C1009 1.363 . S
C1004 C1005 1.363 . S
C1004 C1009 1.379 . S
C1004 N1011 1.356 . S
C1005 C1004 1.363 . S
C1005 C1008 1.363 . S
N1006 C1008 1.356 . S
N1006 H1018 0.984 . S
N1006 H1019 0.985 . S
N1007 C1009 1.356 . S
N1007 H1012 0.984 . S
N1007 H1013 0.985 . S
C1008 C1002 1.379 . S
C1008 C1005 1.363 . S
C1008 N1006 1.356 . S
C1009 C1003 1.363 . S
C1009 C1004 1.379 . S
C1009 N1007 1.356 . S
N1010 C1002 1.356 . S
N1010 H1016 0.984 . S
N1010 H1017 0.984 . S
N1011 C1004 1.356 . S
N1011 H1014 0.984 . S
N1011 H1015 0.985 . S
H1012 N1007 0.984 . S
H1013 N1007 0.985 . S
H1014 N1011 0.984 . S
H1015 N1011 0.985 . S
H1016 N1010 0.984 . S
H1017 N1010 0.984 . S
H1018 N1006 0.984 . S
H1019 N1006 0.985 . S
C1020 C1021 1.363 . S
C1020 C1026 1.379 . S
C1020 N1028 1.356 . S
C1021 C1020 1.363 . S
C1021 C1027 1.363 . S
C1022 C1023 1.363 . S
C1022 C1027 1.379 . S
C1022 N1029 1.356 . S
C1023 C1022 1.363 . S
C1023 C1026 1.363 . S
N1024 C1026 1.356 . S
N1024 H1036 0.984 . S
N1024 H1037 0.985 . S
N1025 C1027 1.356 . S
N1025 H1030 0.984 . S
N1025 H1031 0.985 . S
C1026 C1020 1.379 . S
C1026 C1023 1.363 . S
C1026 N1024 1.356 . S
C1027 C1021 1.363 . S
C1027 C1022 1.379 . S
C1027 N1025 1.356 . S
N1028 C1020 1.356 . S
N1028 H1034 0.984 . S
N1028 H1035 0.984 . S
N1029 C1022 1.356 . S
N1029 H1032 0.984 . S
N1029 H1033 0.985 . S
H1030 N1025 0.984 . S
H1031 N1025 0.985 . S
H1032 N1029 0.984 . S
H1033 N1029 0.985 . S
H1034 N1028 0.984 . S
H1035 N1028 0.984 . S
H1036 N1024 0.984 . S
H1037 N1024 0.985 . S
C1038 C1039 1.363 . S
C1038 C1044 1.379 . S
C1038 N1046 1.356 . S
C1039 C1038 1.363 . S
C1039 C1045 1.363 . S
C1040 C1041 1.363 . S
C1040 C1045 1.379 . S
C1040 N1047 1.356 . S
C1041 C1040 1.363 . S
C1041 C1044 1.363 . S
N1042 C1044 1.356 . S
N1042 H1054 0.984 . S
N1042 H1055 0.985 . S
N1043 C1045 1.356 . S
N1043 H1048 0.984 . S
N1043 H1049 0.985 . S
C1044 C1038 1.379 . S
C1044 C1041 1.363 . S
C1044 N1042 1.356 . S
C1045 C1039 1.363 . S
C1045 C1040 1.379 . S
C1045 N1043 1.356 . S
N1046 C1038 1.356 . S
N1046 H1052 0.984 . S
N1046 H1053 0.984 . S
N1047 C1040 1.356 . S
N1047 H1050 0.984 . S
N1047 H1051 0.985 . S
H1048 N1043 0.984 . S
H1049 N1043 0.985 . S
H1050 N1047 0.984 . S
H1051 N1047 0.985 . S
H1052 N1046 0.984 . S
H1053 N1046 0.984 . S
H1054 N1042 0.984 . S
H1055 N1042 0.985 . S
C1056 C1057 1.363 . S
C1056 C1062 1.379 . S
C1056 N1064 1.356 . S
C1057 C1056 1.363 . S
C1057 C1063 1.363 . S
C1058 C1059 1.363 . S
C1058 C1063 1.379 . S
C1058 N1065 1.356 . S
C1059 C1058 1.363 . S
C1059 C1062 1.363 . S
N1060 C1062 1.356 . S
N1060 H1072 0.984 . S
N1060 H1073 0.985 . S
N1061 C1063 1.356 . S
N1061 H1066 0.984 . S
N1061 H1067 0.985 . S
C1062 C1056 1.379 . S
C1062 C1059 1.363 . S
C1062 N1060 1.356 . S
C1063 C1057 1.363 . S
C1063 C1058 1.379 . S
C1063 N1061 1.356 . S
N1064 C1056 1.356 . S
N1064 H1070 0.984 . S
N1064 H1071 0.984 . S
N1065 C1058 1.356 . S
N1065 H1068 0.984 . S
N1065 H1069 0.985 . S
H1066 N1061 0.984 . S
H1067 N1061 0.985 . S
H1068 N1065 0.984 . S
H1069 N1065 0.985 . S
H1070 N1064 0.984 . S
H1071 N1064 0.984 . S
H1072 N1060 0.984 . S
H1073 N1060 0.985 . S
C1074 C1075 1.363 . S
C1074 C1080 1.379 . S
C1074 N1082 1.356 . S
C1075 C1074 1.363 . S
C1075 C1081 1.363 . S
C1076 C1077 1.363 . S
C1076 C1081 1.379 . S
C1076 N1083 1.356 . S
C1077 C1076 1.363 . S
C1077 C1080 1.363 . S
N1078 C1080 1.356 . S
N1078 H1090 0.984 . S
N1078 H1091 0.985 . S
N1079 C1081 1.356 . S
N1079 H1084 0.984 . S
N1079 H1085 0.985 . S
C1080 C1074 1.379 . S
C1080 C1077 1.363 . S
C1080 N1078 1.356 . S
C1081 C1075 1.363 . S
C1081 C1076 1.379 . S
C1081 N1079 1.356 . S
N1082 C1074 1.356 . S
N1082 H1088 0.984 . S
N1082 H1089 0.984 . S
N1083 C1076 1.356 . S
N1083 H1086 0.984 . S
N1083 H1087 0.985 . S
H1084 N1079 0.984 . S
H1085 N1079 0.985 . S
H1086 N1083 0.984 . S
H1087 N1083 0.985 . S
H1088 N1082 0.984 . S
H1089 N1082 0.984 . S
H1090 N1078 0.984 . S
H1091 N1078 0.985 . S
C1092 C1093 1.363 . S
C1092 C1098 1.379 . S
C1092 N1100 1.356 . S
C1093 C1092 1.363 . S
C1093 C1099 1.363 . S
C1094 C1095 1.363 . S
C1094 C1099 1.379 . S
C1094 N1101 1.356 . S
C1095 C1094 1.363 . S
C1095 C1098 1.363 . S
N1096 C1098 1.356 . S
N1096 H1108 0.984 . S
N1096 H1109 0.985 . S
N1097 C1099 1.356 . S
N1097 H1102 0.984 . S
N1097 H1103 0.985 . S
C1098 C1092 1.379 . S
C1098 C1095 1.363 . S
C1098 N1096 1.356 . S
C1099 C1093 1.363 . S
C1099 C1094 1.379 . S
C1099 N1097 1.356 . S
N1100 C1092 1.356 . S
N1100 H1106 0.984 . S
N1100 H1107 0.984 . S
N1101 C1094 1.356 . S
N1101 H1104 0.984 . S
N1101 H1105 0.985 . S
H1102 N1097 0.984 . S
H1103 N1097 0.985 . S
H1104 N1101 0.984 . S
H1105 N1101 0.985 . S
H1106 N1100 0.984 . S
H1107 N1100 0.984 . S
H1108 N1096 0.984 . S
H1109 N1096 0.985 . S
C1110 C1111 1.363 . S
C1110 C1116 1.379 . S
C1110 N1118 1.356 . S
C1111 C1110 1.363 . S
C1111 C1117 1.363 . S
C1112 C1113 1.363 . S
C1112 C1117 1.379 . S
C1112 N1119 1.356 . S
C1113 C1112 1.363 . S
C1113 C1116 1.363 . S
N1114 C1116 1.356 . S
N1114 H1126 0.984 . S
N1114 H1127 0.985 . S
N1115 C1117 1.356 . S
N1115 H1120 0.984 . S
N1115 H1121 0.985 . S
C1116 C1110 1.379 . S
C1116 C1113 1.363 . S
C1116 N1114 1.356 . S
C1117 C1111 1.363 . S
C1117 C1112 1.379 . S
C1117 N1115 1.356 . S
N1118 C1110 1.356 . S
N1118 H1124 0.984 . S
N1118 H1125 0.984 . S
N1119 C1112 1.356 . S
N1119 H1122 0.984 . S
N1119 H1123 0.985 . S
H1120 N1115 0.984 . S
H1121 N1115 0.985 . S
H1122 N1119 0.984 . S
H1123 N1119 0.985 . S
H1124 N1118 0.984 . S
H1125 N1118 0.984 . S
H1126 N1114 0.984 . S
H1127 N1114 0.985 . S
C481 C219 1.785 . S
C483 C5 1.835 . S
C499 C45 2.204 . S
C501 C19 2.134 . S
C517 C85 2.041 . S
C519 C59 2.008 . S
C535 C99 1.785 . S
C537 C125 1.835 . S
C553 C139 2.134 . S
C555 C165 2.204 . S
C571 C205 2.041 . S
C573 C179 2.008 . S
C589 C299 1.785 . S
C591 C245 1.835 . S
C607 C285 2.041 . S
C609 C339 2.008 . S
C625 C379 2.134 . S
C627 C325 2.204 . S
C643 C419 1.785 . S
C645 C365 1.835 . S
C661 C459 2.007 . S
C663 C405 2.042 . S
C679 C259 2.134 . S
C681 C445 2.204 . S
C697 C448 3.635 . S
C699 C9 3.751 . S
C715 C49 2.849 . S
C717 C248 2.787 . S
C733 C288 3.183 . S
C735 C89 3.304 . S
C751 C328 3.635 . S
C753 C129 3.751 . S
C769 C368 2.789 1_554 S
C771 C169 2.847 . S
C787 C209 3.305 . S
C789 C408 3.181 . S
C805 C249 3.748 . S
C807 C48 3.637 . S
C823 C289 3.305 . S
C825 C88 3.181 . S
C841 C128 2.789 . S
C843 C329 2.847 . S
C859 C168 3.635 . S
C861 C369 3.753 . S
C877 C409 3.305 . S
C879 C208 3.181 . S
C895 C449 2.849 . S
C897 C8 2.787 . S
C913 C258 3.581 . S
C915 C18 3.582 . S
C931 C58 2.468 . S
C933 C298 2.481 . S
C949 C338 2.467 . S
C951 C98 2.481 . S
C967 C138 3.580 . S
C969 C378 3.582 . S
C985 C418 2.479 . S
C987 C178 2.469 . S
C1003 C458 2.467 . S
C1005 C218 2.481 . S
C1021 C255 0.749 . S
C1023 C15 0.747 . S
C1039 C295 0.853 . S
C1041 C55 0.832 . S
C1057 C335 0.834 . S
C1059 C95 0.850 . S
C1075 C135 0.749 . S
C1077 C375 0.747 . S
C1093 C415 0.853 . S
C1095 C175 0.832 . S
C1111 C455 0.834 . S
C1113 C215 0.850 . S
