# Generated by pormake.
# Topology upb, (4)-cn, num edge types: 1
# Building blocks:
#     Node 0, Type 0, BuildingBlock: CEKHIL_clean_sbu_0, # of connection points: 4
#     Node 1, Type 0, BuildingBlock: CEKHIL_clean_sbu_0, # of connection points: 4
#     Node 2, Type 0, BuildingBlock: CEKHIL_clean_sbu_0, # of connection points: 4
#     Node 3, Type 0, BuildingBlock: CEKHIL_clean_sbu_0, # of connection points: 4
#     Node 4, Type 0, BuildingBlock: CEKHIL_clean_sbu_0, # of connection points: 4
#     Node 5, Type 0, BuildingBlock: CEKHIL_clean_sbu_0, # of connection points: 4
#     Node 6, Type 0, BuildingBlock: CEKHIL_clean_sbu_0, # of connection points: 4
#     Node 7, Type 0, BuildingBlock: CEKHIL_clean_sbu_0, # of connection points: 4
#     Node 8, Type 0, BuildingBlock: CEKHIL_clean_sbu_0, # of connection points: 4
#     Node 9, Type 0, BuildingBlock: CEKHIL_clean_sbu_0, # of connection points: 4
#     Node 10, Type 0, BuildingBlock: CEKHIL_clean_sbu_0, # of connection points: 4
#     Node 11, Type 0, BuildingBlock: CEKHIL_clean_sbu_0, # of connection points: 4
#     Node 12, Type 0, BuildingBlock: CEKHIL_clean_sbu_0, # of connection points: 4
#     Node 13, Type 0, BuildingBlock: CEKHIL_clean_sbu_0, # of connection points: 4
#     Node 14, Type 0, BuildingBlock: CEKHIL_clean_sbu_0, # of connection points: 4
#     Node 15, Type 0, BuildingBlock: CEKHIL_clean_sbu_0, # of connection points: 4
#     Edge 16, Type (0, 0), BuildingBlock: XIVTED_clean_linker_0, # of connection points: 2
#     Edge 17, Type (0, 0), BuildingBlock: XIVTED_clean_linker_0, # of connection points: 2
#     Edge 18, Type (0, 0), BuildingBlock: XIVTED_clean_linker_0, # of connection points: 2
#     Edge 19, Type (0, 0), BuildingBlock: XIVTED_clean_linker_0, # of connection points: 2
#     Edge 20, Type (0, 0), BuildingBlock: XIVTED_clean_linker_0, # of connection points: 2
#     Edge 21, Type (0, 0), BuildingBlock: XIVTED_clean_linker_0, # of connection points: 2
#     Edge 22, Type (0, 0), BuildingBlock: XIVTED_clean_linker_0, # of connection points: 2
#     Edge 23, Type (0, 0), BuildingBlock: XIVTED_clean_linker_0, # of connection points: 2
#     Edge 24, Type (0, 0), BuildingBlock: XIVTED_clean_linker_0, # of connection points: 2
#     Edge 25, Type (0, 0), BuildingBlock: XIVTED_clean_linker_0, # of connection points: 2
#     Edge 26, Type (0, 0), BuildingBlock: XIVTED_clean_linker_0, # of connection points: 2
#     Edge 27, Type (0, 0), BuildingBlock: XIVTED_clean_linker_0, # of connection points: 2
#     Edge 28, Type (0, 0), BuildingBlock: XIVTED_clean_linker_0, # of connection points: 2
#     Edge 29, Type (0, 0), BuildingBlock: XIVTED_clean_linker_0, # of connection points: 2
#     Edge 30, Type (0, 0), BuildingBlock: XIVTED_clean_linker_0, # of connection points: 2
#     Edge 31, Type (0, 0), BuildingBlock: XIVTED_clean_linker_0, # of connection points: 2
#     Edge 32, Type (0, 0), BuildingBlock: XIVTED_clean_linker_0, # of connection points: 2
#     Edge 33, Type (0, 0), BuildingBlock: XIVTED_clean_linker_0, # of connection points: 2
#     Edge 34, Type (0, 0), BuildingBlock: XIVTED_clean_linker_0, # of connection points: 2
#     Edge 35, Type (0, 0), BuildingBlock: XIVTED_clean_linker_0, # of connection points: 2
#     Edge 36, Type (0, 0), BuildingBlock: XIVTED_clean_linker_0, # of connection points: 2
#     Edge 37, Type (0, 0), BuildingBlock: XIVTED_clean_linker_0, # of connection points: 2
#     Edge 38, Type (0, 0), BuildingBlock: XIVTED_clean_linker_0, # of connection points: 2
#     Edge 39, Type (0, 0), BuildingBlock: XIVTED_clean_linker_0, # of connection points: 2
#     Edge 40, Type (0, 0), BuildingBlock: XIVTED_clean_linker_0, # of connection points: 2
#     Edge 41, Type (0, 0), BuildingBlock: XIVTED_clean_linker_0, # of connection points: 2
#     Edge 42, Type (0, 0), BuildingBlock: XIVTED_clean_linker_0, # of connection points: 2
#     Edge 43, Type (0, 0), BuildingBlock: XIVTED_clean_linker_0, # of connection points: 2
#     Edge 44, Type (0, 0), BuildingBlock: XIVTED_clean_linker_0, # of connection points: 2
#     Edge 45, Type (0, 0), BuildingBlock: XIVTED_clean_linker_0, # of connection points: 2
#     Edge 46, Type (0, 0), BuildingBlock: XIVTED_clean_linker_0, # of connection points: 2
#     Edge 47, Type (0, 0), BuildingBlock: XIVTED_clean_linker_0, # of connection points: 2
# Relax obj value: 0.216
# Max RMSD: 0.061
# Mean RMSD: 0.061
data_MOF--net-upb--node1-CEKHIL_clean_sbu_0--edge1-XIVTED_clean_linker_0
_symmetry_space_group_name_H-M    P1
_symmetry_Int_Tables_number       1
_symmetry_cell_setting            triclinic
loop_
_symmetry_equiv_pos_as_xyz
'x, y, z'
_cell_length_a     44.468853
_cell_length_b     44.462077
_cell_length_c     32.222887
_cell_angle_alpha  90.000537
_cell_angle_beta   90.022521
_cell_angle_gamma 89.992808
loop_
_atom_site_label
_atom_site_type_symbol
_atom_site_fract_x
_atom_site_fract_y
_atom_site_fract_z
_atom_type_partial_charge
Co0 Co 0.04204 0.22113 0.28776 0.0
O1 O 0.07685 0.24254 0.3064 0.0
O2 O 0.05072 0.25343 0.24964 0.0
C3 C 0.02098 0.22004 0.35122 0.0
O4 O 0.00414 0.20508 0.25963 0.0
Co5 Co 0.02495 0.15855 0.32175 0.0
O6 O 0.98459 0.16976 0.30132 0.0
C7 C 0.0728 0.16422 0.25816 0.0
C8 C 0.07285 0.25989 0.27453 0.0
C9 C 0.98233 0.18809 0.27121 0.0
O10 O 0.06837 0.19272 0.2553 0.0
O11 O 0.05862 0.14712 0.28343 0.0
O12 O 0.01764 0.24342 0.32746 0.0
O13 O 0.03762 0.19871 0.33666 0.0
Co14 Co 0.76591 0.03993 0.28041 0.0
O15 O 0.74861 0.0781 0.29344 0.0
O16 O 0.73493 0.04927 0.24034 0.0
C17 C 0.764 0.02328 0.34626 0.0
O18 O 0.77861 -0.00113 0.25789 0.0
Co19 Co 0.82597 0.01912 0.31934 0.0
O20 O 0.8107 0.97889 0.30393 0.0
C21 C 0.82587 0.06384 0.25095 0.0
C22 C 0.73139 0.07394 0.26152 0.0
C23 C 0.79323 0.97639 0.27287 0.0
O24 O 0.79732 0.06097 0.24612 0.0
O25 O 0.84095 0.05014 0.27907 0.0
O26 O 0.74065 0.02077 0.32227 0.0
O27 O 0.78705 0.03662 0.33037 0.0
Co28 Co 0.95244 0.7693 0.28089 0.0
O29 O 0.91474 0.75278 0.29783 0.0
O30 O 0.94162 0.73666 0.24415 0.0
C31 C 0.97142 0.7701 0.34556 0.0
O32 O 0.99284 0.78067 0.25496 0.0
Co33 Co 0.97401 0.83108 0.31325 0.0
O34 O 0.01374 0.81533 0.29657 0.0
C35 C 0.92669 0.82783 0.24863 0.0
C36 C 0.91773 0.73413 0.26722 0.0
C37 C 0.01559 0.79602 0.26758 0.0
O38 O 0.93018 0.79923 0.24545 0.0
O39 O 0.94101 0.84417 0.27474 0.0
O40 O 0.97297 0.74577 0.32334 0.0
O41 O 0.95747 0.79251 0.32884 0.0
Co42 Co 0.22941 0.94961 0.28315 0.0
O43 O 0.24925 0.91411 0.30236 0.0
O44 O 0.26115 0.93898 0.24494 0.0
C45 C 0.22954 0.97152 0.34602 0.0
O46 O 0.21476 0.98805 0.25477 0.0
Co47 Co 0.16757 0.96899 0.31759 0.0
O48 O 0.18093 0.00884 0.29772 0.0
C49 C 0.17123 0.92029 0.25509 0.0
C50 C 0.26661 0.91685 0.27031 0.0
C51 C 0.19906 0.01058 0.26732 0.0
O52 O 0.19976 0.9241 0.2515 0.0
O53 O 0.15474 0.93512 0.28045 0.0
O54 O 0.25297 0.97348 0.32209 0.0
O55 O 0.20754 0.95547 0.3321 0.0
Co56 Co 0.04154 0.7733 0.71107 0.0
O57 O 0.07643 0.75182 0.69298 0.0
O58 O 0.05093 0.74194 0.75055 0.0
C59 C 0.02001 0.77265 0.64792 0.0
O60 O 0.00352 0.78977 0.73862 0.0
Co61 Co 0.02397 0.83494 0.67405 0.0
O62 O 0.98372 0.82349 0.69459 0.0
C63 C 0.0728 0.83105 0.7365 0.0
C64 C 0.07292 0.73514 0.7256 0.0
C65 C 0.98148 0.806 0.72565 0.0
O66 O 0.06795 0.80279 0.74166 0.0
O67 O 0.05849 0.84733 0.7103 0.0
O68 O 0.01706 0.74979 0.67271 0.0
O69 O 0.03661 0.79439 0.6613 0.0
Co70 Co 0.23141 0.04533 0.71139 0.0
O71 O 0.24778 0.08375 0.69736 0.0
O72 O 0.26272 0.05572 0.75057 0.0
C73 C 0.2329 0.02793 0.6459 0.0
O74 O 0.21982 0.0041 0.73463 0.0
Co75 Co 0.17117 0.02337 0.67384 0.0
O76 O 0.18737 0.98354 0.68944 0.0
C77 C 0.17123 0.06799 0.74231 0.0
C78 C 0.26555 0.08025 0.72885 0.0
C79 C 0.20541 0.98136 0.71993 0.0
O80 O 0.19993 0.06595 0.74618 0.0
O81 O 0.15604 0.05387 0.71471 0.0
O82 O 0.25661 0.02631 0.66935 0.0
O83 O 0.20981 0.04113 0.66192 0.0
Co84 Co 0.95341 0.22686 0.71743 0.0
O85 O 0.91935 0.24917 0.69835 0.0
O86 O 0.94567 0.25985 0.755 0.0
C87 C 0.97459 0.2245 0.65406 0.0
O88 O 0.9909 0.2098 0.74563 0.0
Co89 Co 0.96741 0.16319 0.68379 0.0
O90 O 0.00775 0.17149 0.70648 0.0
C91 C 0.91992 0.17151 0.74718 0.0
C92 C 0.92376 0.26669 0.72991 0.0
C93 C 0.01123 0.19062 0.73542 0.0
O94 O 0.92606 0.19966 0.75036 0.0
O95 O 0.93289 0.15375 0.72155 0.0
O96 O 0.97861 0.24797 0.67742 0.0
O97 O 0.95706 0.20399 0.66885 0.0
Co98 Co 0.76494 0.95854 0.7137 0.0
O99 O 0.7462 0.92206 0.69576 0.0
O100 O 0.73352 0.9477 0.75223 0.0
C101 C 0.76431 0.97911 0.64997 0.0
O102 O 0.77819 0.9979 0.7409 0.0
Co103 Co 0.82598 0.98 0.67899 0.0
O104 O 0.81072 0.01964 0.69707 0.0
C105 C 0.8241 0.93182 0.74254 0.0
C106 C 0.72871 0.92495 0.72769 0.0
C107 C 0.79265 0.021 0.72758 0.0
O108 O 0.79544 0.9346 0.74619 0.0
O109 O 0.83996 0.94701 0.71683 0.0
O110 O 0.74072 0.98086 0.67364 0.0
O111 O 0.7868 0.96423 0.66479 0.0
Co112 Co 0.54373 0.72713 0.78449 0.0
O113 O 0.58045 0.74639 0.80021 0.0
O114 O 0.55244 0.75927 0.746 0.0
C115 C 0.52574 0.72666 0.84968 0.0
O116 O 0.50363 0.71338 0.75994 0.0
Co117 Co 0.52488 0.66528 0.81942 0.0
O118 O 0.4843 0.67973 0.80435 0.0
C119 C 0.57052 0.66891 0.75253 0.0
C120 C 0.57595 0.76428 0.76906 0.0
C121 C 0.48141 0.69818 0.77448 0.0
O122 O 0.56698 0.69753 0.74963 0.0
O123 O 0.5567 0.65246 0.77901 0.0
O124 O 0.52254 0.75042 0.82661 0.0
O125 O 0.54043 0.70461 0.83332 0.0
Co126 Co 0.26473 0.54497 0.78823 0.0
O127 O 0.24283 0.57919 0.80774 0.0
O128 O 0.23294 0.55449 0.74946 0.0
C129 C 0.26514 0.5223 0.85062 0.0
O130 O 0.28176 0.50777 0.75921 0.0
Co131 Co 0.32716 0.52828 0.82423 0.0
O132 O 0.31706 0.48836 0.80129 0.0
C133 C 0.32172 0.57736 0.76244 0.0
C134 C 0.22608 0.57606 0.77511 0.0
C135 C 0.29925 0.48623 0.77055 0.0
O136 O 0.29346 0.57228 0.75786 0.0
O137 O 0.33852 0.56318 0.78812 0.0
O138 O 0.24201 0.51944 0.82628 0.0
O139 O 0.28636 0.5396 0.83742 0.0
Co140 Co 0.45431 0.27464 0.78434 0.0
O141 O 0.41583 0.25848 0.79863 0.0
O142 O 0.44373 0.24322 0.74549 0.0
C143 C 0.47179 0.27321 0.84981 0.0
O144 O 0.49559 0.28571 0.76088 0.0
Co145 Co 0.47688 0.33478 0.82088 0.0
O146 O 0.51658 0.31802 0.8058 0.0
C147 C 0.43149 0.33478 0.75342 0.0
C148 C 0.41929 0.24048 0.76738 0.0
C149 C 0.51855 0.29971 0.77562 0.0
O150 O 0.43373 0.3061 0.74945 0.0
O151 O 0.44583 0.34999 0.7808 0.0
O152 O 0.47326 0.24948 0.82638 0.0
O153 O 0.45875 0.2964 0.83373 0.0
Co154 Co 0.7312 0.45633 0.78654 0.0
O155 O 0.7529 0.42209 0.80644 0.0
O156 O 0.7634 0.44692 0.74847 0.0
C157 C 0.73023 0.47881 0.84908 0.0
O158 O 0.71469 0.4936 0.75719 0.0
Co159 Co 0.66856 0.47335 0.82071 0.0
O160 O 0.67938 0.51339 0.79879 0.0
C161 C 0.67448 0.42392 0.75955 0.0
C162 C 0.77004 0.42537 0.77424 0.0
C163 C 0.69756 0.51542 0.76848 0.0
O164 O 0.7028 0.429 0.75556 0.0
O165 O 0.65743 0.43829 0.78469 0.0
O166 O 0.75351 0.48179 0.82507 0.0
O167 O 0.70905 0.46164 0.83536 0.0
Co168 Co 0.54233 0.26931 0.21551 0.0
O169 O 0.57918 0.25226 0.19612 0.0
O170 O 0.55362 0.23611 0.25098 0.0
C171 C 0.52132 0.27111 0.15207 0.0
O172 O 0.5029 0.28104 0.24384 0.0
Co173 Co 0.52137 0.33193 0.18564 0.0
O174 O 0.48184 0.31718 0.20474 0.0
C175 C 0.57026 0.32695 0.24761 0.0
C176 C 0.57676 0.23336 0.22653 0.0
C177 C 0.48028 0.29729 0.23301 0.0
O178 O 0.5662 0.2984 0.25031 0.0
O179 O 0.55565 0.34393 0.22262 0.0
O180 O 0.52008 0.24662 0.17396 0.0
O181 O 0.5363 0.29308 0.16823 0.0
Co182 Co 0.72743 0.54066 0.2182 0.0
O183 O 0.74384 0.57897 0.20381 0.0
O184 O 0.75944 0.55066 0.25639 0.0
C185 C 0.72775 0.52368 0.15245 0.0
O186 O 0.71599 0.49955 0.2418 0.0
Co187 Co 0.6666 0.51894 0.18303 0.0
O188 O 0.68288 0.47896 0.1977 0.0
C189 C 0.66807 0.56393 0.25102 0.0
C190 C 0.7621 0.57522 0.23471 0.0
C191 C 0.70135 0.4768 0.22768 0.0
O192 O 0.69678 0.56147 0.25407 0.0
O193 O 0.65231 0.54987 0.22396 0.0
O194 O 0.75174 0.52162 0.17529 0.0
O195 O 0.70493 0.53682 0.16934 0.0
Co196 Co 0.45669 0.72321 0.2149 0.0
O197 O 0.42112 0.7428 0.19536 0.0
O198 O 0.44509 0.75421 0.2537 0.0
C199 C 0.47919 0.72464 0.15244 0.0
O200 O 0.49485 0.70872 0.24406 0.0
Co201 Co 0.4782 0.66245 0.17912 0.0
O202 O 0.51739 0.67627 0.20085 0.0
C203 C 0.42845 0.66399 0.24042 0.0
C204 C 0.42324 0.75977 0.22792 0.0
C205 C 0.51798 0.6937 0.23212 0.0
O206 O 0.43138 0.69258 0.24497 0.0
O207 O 0.44414 0.64836 0.215 0.0
O208 O 0.48062 0.74774 0.17707 0.0
O209 O 0.46353 0.70214 0.16558 0.0
Co210 Co 0.26581 0.44837 0.21525 0.0
O211 O 0.24449 0.41305 0.19875 0.0
O212 O 0.2343 0.44008 0.25494 0.0
C213 C 0.26541 0.46816 0.15103 0.0
O214 O 0.28216 0.48711 0.24091 0.0
Co215 Co 0.32766 0.46467 0.17779 0.0
O216 O 0.31635 0.50547 0.1964 0.0
C217 C 0.32343 0.41811 0.24333 0.0
C218 C 0.22767 0.41744 0.23101 0.0
C219 C 0.29866 0.50864 0.22707 0.0
O220 O 0.2951 0.42289 0.2476 0.0
O221 O 0.33991 0.43156 0.21656 0.0
O222 O 0.24247 0.47177 0.17548 0.0
O223 O 0.2871 0.4519 0.16539 0.0
H224 H 0.13117 0.18231 0.25446 0.0
H225 H 0.17435 0.01606 0.19095 0.0
H226 H 0.07028 0.11409 0.21023 0.0
H227 H 0.21596 0.06698 0.28903 0.0
H228 H 0.14991 0.06212 0.16615 0.0
H229 H 0.17378 0.15001 0.2351 0.0
C230 C 0.12686 0.16112 0.23895 0.0
C231 C 0.09739 0.15043 0.23446 0.0
C232 C 0.16555 0.06346 0.19187 0.0
C233 C 0.14556 0.11382 0.21222 0.0
C234 C 0.1797 0.03728 0.20576 0.0
C235 C 0.19687 0.03793 0.24218 0.0
C236 C 0.16879 0.09017 0.21471 0.0
C237 C 0.20271 0.06575 0.26088 0.0
C238 C 0.1511 0.14272 0.22807 0.0
C239 C 0.0928 0.1228 0.21463 0.0
N240 N 0.18816 0.09077 0.24744 0.0
N241 N 0.11667 0.10519 0.20476 0.0
H242 H 0.97982 0.16205 0.19556 0.0
H243 H 0.80932 0.1221 0.24017 0.0
H244 H 0.92482 0.20364 0.28936 0.0
H245 H 0.87926 0.05856 0.21046 0.0
H246 H 0.84394 0.16342 0.22359 0.0
H247 H 0.93489 0.13746 0.16716 0.0
C248 C 0.958 0.16729 0.20869 0.0
C249 C 0.95576 0.18463 0.24484 0.0
C250 C 0.8512 0.1404 0.21897 0.0
C251 C 0.90481 0.15662 0.21306 0.0
C252 C 0.83149 0.11687 0.22823 0.0
C253 C 0.84181 0.08708 0.22724 0.0
C254 C 0.88104 0.13382 0.2081 0.0
C255 C 0.87074 0.08135 0.21206 0.0
C256 C 0.93249 0.15313 0.19269 0.0
C257 C 0.92725 0.19032 0.26142 0.0
N258 N 0.88957 0.10457 0.20364 0.0
N259 N 0.90283 0.17589 0.24581 0.0
H260 H 0.80903 0.97138 0.19179 0.0
H261 H 0.9281 0.88065 0.20608 0.0
H262 H 0.78726 0.91888 0.30004 0.0
H263 H 0.86891 0.8087 0.24272 0.0
H264 H 0.88439 0.91177 0.19014 0.0
H265 H 0.83574 0.92787 0.16282 0.0
C266 C 0.80854 0.95021 0.20844 0.0
C267 C 0.79645 0.94865 0.24857 0.0
C268 C 0.88081 0.88871 0.19978 0.0
C269 C 0.82725 0.89947 0.21632 0.0
C270 C 0.90582 0.87104 0.20907 0.0
C271 C 0.90194 0.84229 0.22593 0.0
C272 C 0.85187 0.87788 0.20903 0.0
C273 C 0.87269 0.83084 0.22971 0.0
C274 C 0.82408 0.92558 0.19215 0.0
C275 C 0.79666 0.92092 0.26917 0.0
N276 N 0.84867 0.84912 0.22289 0.0
N277 N 0.8124 0.8975 0.25314 0.0
H278 H 0.02233 0.81763 0.18978 0.0
H279 H 0.18876 0.86175 0.25237 0.0
H280 H 0.07161 0.77955 0.2921 0.0
H281 H 0.12016 0.92251 0.20887 0.0
H282 H 0.15595 0.81909 0.23487 0.0
H283 H 0.06875 0.84134 0.16497 0.0
C284 C 0.0433 0.8128 0.20557 0.0
C285 C 0.04334 0.79692 0.24312 0.0
C286 C 0.14869 0.84173 0.22757 0.0
C287 C 0.09599 0.82411 0.21549 0.0
C288 C 0.16735 0.86601 0.2374 0.0
C289 C 0.15677 0.89549 0.23255 0.0
C290 C 0.11964 0.84724 0.21227 0.0
C291 C 0.12884 0.9 0.21348 0.0
C292 C 0.06967 0.82655 0.19165 0.0
C293 C 0.07085 0.79177 0.26305 0.0
N294 N 0.11101 0.8761 0.20452 0.0
N295 N 0.09608 0.80587 0.24945 0.0
H296 H 0.12977 0.80934 0.74622 0.0
H297 H 0.21989 0.92509 0.69439 0.0
H298 H 0.07358 0.88568 0.77418 0.0
H299 H 0.18272 0.97448 0.79716 0.0
H300 H 0.19489 0.87973 0.71932 0.0
H301 H 0.17441 0.83999 0.7618 0.0
C302 C 0.12683 0.83219 0.75717 0.0
C303 C 0.09817 0.84535 0.75817 0.0
C304 C 0.19342 0.9 0.73783 0.0
C305 C 0.14865 0.88027 0.7755 0.0
C306 C 0.20781 0.92589 0.72356 0.0
C307 C 0.20327 0.95338 0.74383 0.0
C308 C 0.17351 0.90209 0.77159 0.0
C309 C 0.18683 0.95356 0.78091 0.0
C310 C 0.15225 0.84968 0.76569 0.0
C311 C 0.09542 0.87498 0.77238 0.0
N312 N 0.17151 0.92854 0.79275 0.0
N313 N 0.12041 0.89161 0.77997 0.0
H314 H 0.12007 0.05928 0.78658 0.0
H315 H 0.06732 0.21115 0.71869 0.0
H316 H 0.18445 0.12724 0.75224 0.0
H317 H 0.01636 0.15924 0.80676 0.0
H318 H 0.11339 0.18694 0.74315 0.0
H319 H 0.08511 0.09864 0.80794 0.0
C320 C 0.12715 0.08258 0.78493 0.0
C321 C 0.15485 0.09021 0.76728 0.0
C322 C 0.09237 0.18171 0.7585 0.0
C323 C 0.11464 0.13537 0.78975 0.0
C324 C 0.06613 0.19572 0.74467 0.0
C325 C 0.03826 0.18704 0.76084 0.0
C326 C 0.09032 0.15809 0.78739 0.0
C327 C 0.03761 0.1665 0.79374 0.0
C328 C 0.10723 0.10509 0.79709 0.0
C329 C 0.16312 0.1206 0.76563 0.0
N330 N 0.06319 0.15199 0.80516 0.0
N331 N 0.14266 0.14221 0.7754 0.0
H332 H 0.92073 0.12341 0.79883 0.0
H333 H 0.7772 0.07721 0.70324 0.0
H334 H 0.86175 0.19015 0.74634 0.0
H335 H 0.81359 0.02731 0.80613 0.0
H336 H 0.79969 0.12302 0.73102 0.0
H337 H 0.87713 0.09265 0.81641 0.0
C338 C 0.8984 0.13204 0.79251 0.0
C339 C 0.89464 0.159 0.77073 0.0
C340 C 0.80178 0.10239 0.74866 0.0
C341 C 0.84481 0.12345 0.78874 0.0
C342 C 0.78877 0.07627 0.73282 0.0
C343 C 0.7939 0.04862 0.75232 0.0
C344 C 0.82111 0.10038 0.78307 0.0
C345 C 0.80928 0.04834 0.79024 0.0
C346 C 0.87346 0.11451 0.80248 0.0
C347 C 0.86541 0.16931 0.76299 0.0
N348 N 0.82331 0.07369 0.80371 0.0
N349 N 0.84155 0.15101 0.77071 0.0
H350 H 0.80787 0.87296 0.74739 0.0
H351 H 0.97698 0.83204 0.80132 0.0
H352 H 0.87617 0.93562 0.78643 0.0
H353 H 0.92451 0.79048 0.70474 0.0
H354 H 0.93134 0.85673 0.82727 0.0
H355 H 0.84215 0.83122 0.76361 0.0
C356 C 0.82956 0.87783 0.76116 0.0
C357 C 0.83956 0.9076 0.76508 0.0
C358 C 0.92962 0.84109 0.80159 0.0
C359 C 0.87845 0.86038 0.78374 0.0
C360 C 0.95554 0.82683 0.78703 0.0
C361 C 0.95428 0.80944 0.75084 0.0
C362 C 0.9025 0.83769 0.77973 0.0
C363 C 0.9262 0.80383 0.73276 0.0
C364 C 0.84909 0.85408 0.77021 0.0
C365 C 0.8679 0.91288 0.78257 0.0
N366 N 0.9014 0.81837 0.74696 0.0
N367 N 0.88658 0.88947 0.79074 0.0
H368 H 0.62862 0.68686 0.7441 0.0
H369 H 0.67098 0.51803 0.69309 0.0
H370 H 0.56671 0.61696 0.70835 0.0
H371 H 0.71347 0.57284 0.78636 0.0
H372 H 0.64576 0.56294 0.66575 0.0
H373 H 0.67073 0.65357 0.7261 0.0
C374 C 0.62393 0.66504 0.7306 0.0
C375 C 0.59435 0.65427 0.72827 0.0
C376 C 0.66173 0.56533 0.69093 0.0
C377 C 0.64198 0.61648 0.70766 0.0
C378 C 0.67628 0.53982 0.70628 0.0
C379 C 0.69407 0.54197 0.74204 0.0
C380 C 0.66517 0.59292 0.71162 0.0
C381 C 0.69981 0.57046 0.75872 0.0
C382 C 0.6479 0.64607 0.72054 0.0
C383 C 0.58931 0.6258 0.71104 0.0
N384 N 0.68493 0.59486 0.74384 0.0
N385 N 0.61295 0.60765 0.70197 0.0
H386 H 0.47192 0.67717 0.69666 0.0
H387 H 0.30614 0.63633 0.76626 0.0
H388 H 0.42629 0.71375 0.80316 0.0
H389 H 0.36985 0.57541 0.71086 0.0
H390 H 0.33988 0.67848 0.75001 0.0
H391 H 0.42419 0.65544 0.67287 0.0
C392 C 0.45151 0.68199 0.71378 0.0
C393 C 0.4528 0.69695 0.75198 0.0
C394 C 0.34581 0.65603 0.73985 0.0
C395 C 0.3987 0.67208 0.72548 0.0
C396 C 0.32657 0.63207 0.74892 0.0
C397 C 0.33561 0.60256 0.74022 0.0
C398 C 0.37392 0.65019 0.72169 0.0
C399 C 0.36238 0.59796 0.71829 0.0
C400 C 0.4244 0.66942 0.7004 0.0
C401 C 0.426 0.70218 0.77358 0.0
N402 N 0.38088 0.62152 0.71028 0.0
N403 N 0.40003 0.68926 0.76042 0.0
H404 H 0.28356 0.42842 0.78608 0.0
H405 H 0.43676 0.38893 0.71486 0.0
H406 H 0.32828 0.48494 0.69693 0.0
H407 H 0.37351 0.31783 0.74003 0.0
H408 H 0.39507 0.4219 0.69585 0.0
H409 H 0.31056 0.38491 0.75855 0.0
C410 C 0.29796 0.43131 0.75925 0.0
C411 C 0.30384 0.46009 0.74365 0.0
C412 C 0.39025 0.39878 0.70408 0.0
C413 C 0.33603 0.41101 0.71363 0.0
C414 C 0.41408 0.38002 0.71498 0.0
C415 C 0.40839 0.35089 0.7295 0.0
C416 C 0.36056 0.38868 0.70951 0.0
C417 C 0.3787 0.34028 0.72914 0.0
C418 C 0.31355 0.40654 0.74365 0.0
C419 C 0.32315 0.46295 0.70955 0.0
N420 N 0.35571 0.35952 0.72072 0.0
N421 N 0.3394 0.43884 0.69651 0.0
H422 H 0.69206 0.36547 0.76252 0.0
H423 H 0.52687 0.31905 0.69676 0.0
H424 H 0.62525 0.42429 0.70972 0.0
H425 H 0.57428 0.28517 0.80353 0.0
H426 H 0.57375 0.34181 0.67184 0.0
H427 H 0.65948 0.3222 0.74718 0.0
C428 C 0.67117 0.36907 0.74592 0.0
C429 C 0.66095 0.39829 0.73776 0.0
C430 C 0.57416 0.32814 0.69968 0.0
C431 C 0.62401 0.34937 0.72011 0.0
C432 C 0.54752 0.31495 0.71369 0.0
C433 C 0.54688 0.30056 0.75237 0.0
C434 C 0.60007 0.32662 0.72452 0.0
C435 C 0.57402 0.29629 0.77364 0.0
C436 C 0.65261 0.34447 0.73735 0.0
C437 C 0.63364 0.402 0.71676 0.0
N438 N 0.5995 0.3098 0.75983 0.0
N439 N 0.61585 0.37782 0.70916 0.0
H440 H 0.68171 0.47141 0.3067 0.0
H441 H 0.62777 0.30652 0.25079 0.0
H442 H 0.71324 0.41972 0.20241 0.0
H443 H 0.57084 0.37904 0.29203 0.0
H444 H 0.6721 0.33762 0.26583 0.0
H445 H 0.65615 0.42652 0.33338 0.0
C446 C 0.68474 0.45016 0.29076 0.0
C447 C 0.69925 0.4491 0.25219 0.0
C448 C 0.64992 0.34613 0.27327 0.0
C449 C 0.67014 0.39817 0.28215 0.0
C450 C 0.62468 0.32844 0.26486 0.0
C451 C 0.59578 0.34058 0.26966 0.0
C452 C 0.64599 0.37578 0.28721 0.0
C453 C 0.59284 0.36914 0.2875 0.0
C454 C 0.66995 0.42468 0.30579 0.0
C455 C 0.70208 0.42129 0.2322 0.0
N456 N 0.61769 0.386 0.29512 0.0
N457 N 0.68711 0.39694 0.24701 0.0
H458 H 0.57558 0.7095 0.21549 0.0
H459 H 0.61439 0.55917 0.29089 0.0
H460 H 0.5196 0.66796 0.30814 0.0
H461 H 0.68605 0.62156 0.26471 0.0
H462 H 0.58213 0.60124 0.31052 0.0
H463 H 0.6193 0.68392 0.24475 0.0
C464 C 0.57285 0.69614 0.24336 0.0
C465 C 0.54414 0.69056 0.25939 0.0
C466 C 0.60525 0.60578 0.30199 0.0
C467 C 0.59347 0.65993 0.29148 0.0
C468 C 0.6236 0.58173 0.29071 0.0
C469 C 0.65261 0.58709 0.27559 0.0
C470 C 0.61564 0.63535 0.29628 0.0
C471 C 0.66364 0.61663 0.27597 0.0
C472 C 0.59775 0.68138 0.26 0.0
C473 C 0.54151 0.67273 0.29504 0.0
N474 N 0.64476 0.63985 0.28467 0.0
N475 N 0.56574 0.6571 0.30906 0.0
H476 H 0.37063 0.68306 0.25177 0.0
H477 H 0.28228 0.56479 0.20378 0.0
H478 H 0.4305 0.60901 0.27694 0.0
H479 H 0.32588 0.51528 0.30154 0.0
H480 H 0.30693 0.61063 0.22772 0.0
H481 H 0.32765 0.65047 0.26845 0.0
C482 C 0.37474 0.66026 0.2622 0.0
C483 C 0.40394 0.64833 0.26211 0.0
C484 C 0.30996 0.59018 0.24546 0.0
C485 C 0.35532 0.61118 0.28061 0.0
C486 C 0.29582 0.564 0.23173 0.0
C487 C 0.30211 0.53647 0.25089 0.0
C488 C 0.33134 0.58835 0.27754 0.0
C489 C 0.32039 0.53627 0.28626 0.0
C490 C 0.35025 0.64166 0.27134 0.0
C491 C 0.40819 0.61875 0.27585 0.0
N492 N 0.33528 0.56167 0.29761 0.0
N493 N 0.38409 0.60104 0.28402 0.0
H494 H 0.30667 0.3594 0.2466 0.0
H495 H 0.4738 0.32005 0.31022 0.0
H496 H 0.37336 0.42167 0.29154 0.0
H497 H 0.4246 0.27857 0.21038 0.0
H498 H 0.42695 0.34271 0.3353 0.0
H499 H 0.34002 0.31746 0.26546 0.0
C500 C 0.32773 0.36412 0.26222 0.0
C501 C 0.33768 0.39382 0.2671 0.0
C502 C 0.42618 0.32743 0.30914 0.0
C503 C 0.37548 0.34642 0.28873 0.0
C504 C 0.45281 0.31428 0.29508 0.0
C505 C 0.45285 0.29771 0.25812 0.0
C506 C 0.3997 0.32382 0.28591 0.0
C507 C 0.4253 0.29134 0.23899 0.0
C508 C 0.34672 0.34027 0.2728 0.0
C509 C 0.36519 0.39897 0.28696 0.0
N510 N 0.39981 0.30495 0.2526 0.0
N511 N 0.38339 0.37547 0.29654 0.0
H512 H 0.08075 0.29243 0.20326 0.0
H513 H 0.19825 0.40707 0.30445 0.0
H514 H 0.10892 0.28707 0.33128 0.0
H515 H 0.19812 0.38349 0.17451 0.0
H516 H 0.15676 0.37141 0.31569 0.0
H517 H 0.11546 0.33469 0.19318 0.0
C518 C 0.09409 0.30028 0.22923 0.0
C519 C 0.09237 0.28609 0.26795 0.0
C520 C 0.1658 0.3743 0.28474 0.0
C521 C 0.13149 0.33431 0.2569 0.0
C522 C 0.18931 0.39459 0.27834 0.0
C523 C 0.20175 0.39779 0.23867 0.0
C524 C 0.15449 0.35773 0.25103 0.0
C525 C 0.1894 0.38127 0.20573 0.0
C526 C 0.11384 0.32429 0.22349 0.0
C527 C 0.10996 0.29717 0.30074 0.0
N528 N 0.16643 0.36192 0.21264 0.0
N529 N 0.12885 0.32066 0.29447 0.0
H530 H 0.6739 0.06462 0.23415 0.0
H531 H 0.63569 0.23699 0.20701 0.0
H532 H 0.73731 0.13416 0.26655 0.0
H533 H 0.56925 0.17642 0.25733 0.0
H534 H 0.6734 0.19713 0.21223 0.0
H535 H 0.63478 0.10349 0.22533 0.0
C536 C 0.67961 0.08808 0.23866 0.0
C537 C 0.70863 0.09646 0.251 0.0
C538 C 0.65056 0.19263 0.22214 0.0
C539 C 0.66473 0.14034 0.24085 0.0
C540 C 0.62912 0.21525 0.21922 0.0
C541 C 0.59952 0.20987 0.23208 0.0
C542 C 0.64213 0.16427 0.23703 0.0
C543 C 0.59201 0.18139 0.2476 0.0
C544 C 0.65737 0.11004 0.23409 0.0
C545 C 0.71507 0.12696 0.25709 0.0
N546 N 0.61323 0.15938 0.24933 0.0
N547 N 0.6933 0.1479 0.25168 0.0
H548 H 0.81944 0.56658 0.26329 0.0
H549 H 0.85809 0.73927 0.28087 0.0
H550 H 0.75689 0.63522 0.22451 0.0
H551 H 0.92562 0.67656 0.23907 0.0
H552 H 0.8201 0.69976 0.27484 0.0
H553 H 0.85874 0.60543 0.26999 0.0
C554 C 0.81395 0.58985 0.25683 0.0
C555 C 0.78509 0.59794 0.24341 0.0
C556 C 0.84322 0.69472 0.26685 0.0
C557 C 0.82926 0.64185 0.25111 0.0
C558 C 0.86482 0.71715 0.27023 0.0
C559 C 0.89482 0.71102 0.26015 0.0
C560 C 0.85188 0.66582 0.25436 0.0
C561 C 0.90255 0.68208 0.24662 0.0
C562 C 0.83632 0.6118 0.2602 0.0
C563 C 0.77898 0.62821 0.23485 0.0
N564 N 0.88116 0.66026 0.24453 0.0
N565 N 0.80086 0.64916 0.23914 0.0
H566 H 0.29268 0.88139 0.32855 0.0
H567 H 0.38778 0.78589 0.16962 0.0
H568 H 0.29782 0.90495 0.19879 0.0
H569 H 0.41103 0.7907 0.29953 0.0
H570 H 0.35186 0.82675 0.17956 0.0
H571 H 0.33332 0.84525 0.31858 0.0
C572 C 0.30242 0.87894 0.29792 0.0
C573 C 0.29181 0.89595 0.2643 0.0
C574 C 0.36496 0.819 0.20581 0.0
C575 C 0.33809 0.85461 0.25277 0.0
C576 C 0.38529 0.79557 0.20029 0.0
C577 C 0.40216 0.78482 0.23396 0.0
C578 C 0.36112 0.83138 0.24542 0.0
C579 C 0.39835 0.79834 0.27285 0.0
C580 C 0.32571 0.85848 0.29237 0.0
C581 C 0.30538 0.89218 0.22543 0.0
N582 N 0.3779 0.82078 0.27767 0.0
N583 N 0.32768 0.87157 0.22057 0.0
H584 H 0.19744 0.61013 0.83269 0.0
H585 H 0.10842 0.70727 0.66897 0.0
H586 H 0.19641 0.58786 0.70233 0.0
H587 H 0.08228 0.70389 0.79788 0.0
H588 H 0.14265 0.66527 0.68068 0.0
H589 H 0.15692 0.64618 0.82097 0.0
C590 C 0.18857 0.61279 0.80158 0.0
C591 C 0.2004 0.59627 0.76828 0.0
C592 C 0.12926 0.67354 0.70633 0.0
C593 C 0.15429 0.63754 0.75473 0.0
C594 C 0.10989 0.69764 0.69979 0.0
C595 C 0.09275 0.70918 0.73267 0.0
C596 C 0.13191 0.66125 0.7462 0.0
C597 C 0.09523 0.69567 0.77179 0.0
C598 C 0.16535 0.63321 0.79501 0.0
C599 C 0.18793 0.60027 0.72875 0.0
N600 N 0.11479 0.67256 0.77764 0.0
N601 N 0.16574 0.62086 0.72292 0.0
H602 H 0.35929 0.24523 0.77877 0.0
H603 H 0.3226 0.07225 0.75897 0.0
H604 H 0.42797 0.18332 0.73828 0.0
H605 H 0.25987 0.14021 0.71851 0.0
H606 H 0.36135 0.11154 0.76678 0.0
H607 H 0.3217 0.20544 0.77096 0.0
C608 C 0.36635 0.22325 0.76797 0.0
C609 C 0.39657 0.21742 0.75879 0.0
C610 C 0.33901 0.11767 0.75637 0.0
C611 C 0.35408 0.17188 0.7511 0.0
C612 C 0.31694 0.09547 0.75238 0.0
C613 C 0.28819 0.10323 0.73818 0.0
C614 C 0.33176 0.14766 0.74713 0.0
C615 C 0.28188 0.13344 0.72946 0.0
C616 C 0.34498 0.20066 0.7636 0.0
C617 C 0.40473 0.18863 0.74511 0.0
N618 N 0.30346 0.15465 0.73437 0.0
N619 N 0.38356 0.16665 0.74211 0.0
H620 H 0.89 0.2951 0.67182 0.0
H621 H 0.79809 0.39144 0.83255 0.0
H622 H 0.91441 0.29882 0.80136 0.0
H623 H 0.80109 0.41423 0.70242 0.0
H624 H 0.83938 0.35611 0.82203 0.0
H625 H 0.85598 0.33746 0.68226 0.0
C626 C 0.88823 0.30494 0.70248 0.0
C627 C 0.90473 0.29333 0.73595 0.0
C628 C 0.83122 0.36905 0.79587 0.0
C629 C 0.86579 0.34159 0.74805 0.0
C630 C 0.80755 0.38905 0.80174 0.0
C631 C 0.79604 0.40548 0.76814 0.0
C632 C 0.84307 0.36506 0.75596 0.0
C633 C 0.80929 0.40184 0.72904 0.0
C634 C 0.86899 0.32922 0.70831 0.0
C635 C 0.90195 0.30709 0.77485 0.0
N636 N 0.83192 0.38164 0.72386 0.0
N637 N 0.88244 0.33033 0.78002 0.0
H638 H 0.6984 0.91334 0.79988 0.0
H639 H 0.58452 0.79626 0.69729 0.0
H640 H 0.70271 0.88848 0.67053 0.0
H641 H 0.61288 0.79062 0.82518 0.0
H642 H 0.61978 0.8382 0.68707 0.0
H643 H 0.65834 0.876 0.80989 0.0
C644 C 0.69078 0.90016 0.77364 0.0
C645 C 0.70399 0.90363 0.73449 0.0
C646 C 0.61809 0.82774 0.71734 0.0
C647 C 0.65827 0.86161 0.74545 0.0
C648 C 0.59805 0.80395 0.72316 0.0
C649 C 0.59615 0.78987 0.76195 0.0
C650 C 0.63572 0.83771 0.75081 0.0
C651 C 0.61401 0.80066 0.79461 0.0
C652 C 0.66807 0.87891 0.77934 0.0
C653 C 0.69333 0.88614 0.70136 0.0
N654 N 0.63303 0.82404 0.78835 0.0
N655 N 0.671 0.86587 0.70756 0.0
H656 H 0.01654 0.17164 0.40257 0.0
H657 H 0.99545 0.27088 0.60642 0.0
H658 H 0.00406 0.26785 0.39911 0.0
H659 H 0.97572 0.17588 0.60267 0.0
H660 H 0.00549 0.2697 0.53169 0.0
H661 H 0.00662 0.17229 0.47721 0.0
C662 C 0.01138 0.19285 0.4175 0.0
C663 C 0.01107 0.21973 0.39477 0.0
C664 C -0.00092 0.24912 0.54733 0.0
C665 C 0.00041 0.22072 0.48005 0.0
C666 C 0.99366 0.24971 0.58997 0.0
C667 C 0.98469 0.22344 0.6106 0.0
C668 C 0.99584 0.22201 0.52543 0.0
C669 C 0.9825 0.19665 0.58783 0.0
C670 C 0.00581 0.19321 0.46005 0.0
C671 C 0.00433 0.24661 0.41553 0.0
N672 N 0.98803 0.19661 0.54641 0.0
N673 N -0.00045 0.24648 0.45718 0.0
H674 H 0.81279 0.98656 0.59984 0.0
H675 H 0.7153 0.00783 0.3938 0.0
H676 H 0.71607 0.99422 0.60136 0.0
H677 H 0.81144 0.02055 0.39933 0.0
H678 H 0.71486 -0.00081 0.46898 0.0
H679 H 0.81254 0.99695 0.52559 0.0
C680 C 0.7915 0.99077 0.58455 0.0
C681 C 0.7644 0.98949 0.60664 0.0
C682 C 0.73602 0.00383 0.45364 0.0
C683 C 0.76387 0.00087 0.52153 0.0
C684 C 0.73632 0.00848 0.41077 0.0
C685 C 0.76345 0.01491 0.39044 0.0
C686 C 0.76308 0.0054 0.47606 0.0
C687 C 0.79002 0.01572 0.41383 0.0
C688 C 0.79136 0.99662 0.54214 0.0
C689 C 0.73746 0.99514 0.58539 0.0
N690 N 0.78917 0.01102 0.45538 0.0
N691 N 0.73783 0.00031 0.5438 0.0
H692 H -2e-05 0.72441 0.60294 0.0
H693 H 0.97734 0.81942 0.39489 0.0
H694 H 0.01638 0.81989 0.59458 0.0
H695 H 0.98584 0.72273 0.39593 0.0
H696 H 0.98725 0.82021 0.46941 0.0
H697 H 0.98873 0.72358 0.52846 0.0
C698 C 0.00078 0.74524 0.58554 0.0
C699 C 0.0092 0.77225 0.60477 0.0
C700 C 0.98713 0.79883 0.45331 0.0
C701 C 0.9967 0.77141 0.51993 0.0
C702 C 0.98156 0.79838 0.41079 0.0
C703 C 0.9808 0.77097 0.38933 0.0
C704 C 0.99161 0.77164 0.47459 0.0
C705 C 0.98639 0.74435 0.41137 0.0
C706 C 0.99466 0.7447 0.54305 0.0
C707 C 0.0101 0.79857 0.58085 0.0
N708 N 0.99134 0.74532 0.45297 0.0
N709 N 0.00399 0.79749 0.53964 0.0
H710 H 0.281 0.01132 0.59813 0.0
H711 H 0.18142 0.97742 0.39748 0.0
H712 H 0.18461 0.02243 0.59458 0.0
H713 H 0.27744 0.99088 0.39208 0.0
H714 H 0.18225 0.99069 0.47098 0.0
H715 H 0.28036 -0.0008 0.52392 0.0
C716 C 0.25971 0.01093 0.58181 0.0
C717 C 0.23282 0.01791 0.60238 0.0
C718 C 0.20312 0.99097 0.45367 0.0
C719 C 0.23195 0.00434 0.51785 0.0
C720 C 0.20264 0.98347 0.41173 0.0
C721 C 0.22941 0.98305 0.3888 0.0
C722 C 0.23062 0.99773 0.47292 0.0
C723 C 0.25629 0.99106 0.4087 0.0
C724 C 0.25938 0.00427 0.53947 0.0
C725 C 0.20586 0.01725 0.57983 0.0
N726 N 0.25627 0.99783 0.44982 0.0
N727 N 0.2061 0.01057 0.53877 0.0
H728 H 0.52305 0.67787 0.9003 0.0
H729 H 0.49611 0.77375 0.10674 0.0
H730 H 0.50973 0.77402 0.89934 0.0
H731 H 0.48665 0.67726 0.10027 0.0
H732 H 0.50728 0.77461 0.0322 0.0
H733 H 0.51426 0.67751 0.97499 0.0
C734 C 0.518 0.69889 0.91582 0.0
C735 C 0.51705 0.72601 0.89371 0.0
C736 C 0.50292 0.75327 0.04724 0.0
C737 C 0.50746 0.72585 0.97924 0.0
C738 C 0.49686 0.75274 0.08976 0.0
C739 C 0.49035 0.7254 0.1095 0.0
C740 C 0.5027 0.72625 0.02464 0.0
C741 C 0.49139 0.69884 0.08613 0.0
C742 C 0.51308 0.69868 0.95846 0.0
C743 C 0.51047 0.7526 0.91529 0.0
N744 N 0.49735 0.69993 0.0449 0.0
N745 N 0.50611 0.7519 0.95704 0.0
H746 H 0.31396 0.51492 0.90025 0.0
H747 H 0.2175 0.48778 0.10511 0.0
H748 H 0.21758 0.50378 0.89803 0.0
H749 H 0.31283 0.47033 0.09782 0.0
H750 H 0.21716 0.49881 0.03056 0.0
H751 H 0.31411 0.50207 0.97389 0.0
C752 C 0.29286 0.50942 0.91523 0.0
C753 C 0.26571 0.51041 0.89318 0.0
C754 C 0.23812 0.49261 0.04538 0.0
C755 C 0.26563 0.49633 0.97749 0.0
C756 C 0.2384 0.48663 0.08791 0.0
C757 C 0.26524 0.47815 0.10751 0.0
C758 C 0.26496 0.49042 0.02261 0.0
C759 C 0.29164 0.47674 0.08383 0.0
C760 C 0.29295 0.50216 0.95725 0.0
C761 C 0.239 0.5031 0.91398 0.0
N762 N 0.29085 0.48285 0.0426 0.0
N763 N 0.23957 0.49667 0.95522 0.0
H764 H 0.51632 0.32054 0.10247 0.0
H765 H 0.48775 0.22462 0.89688 0.0
H766 H 0.50324 0.22436 0.10307 0.0
H767 H 0.47617 0.32092 0.90257 0.0
H768 H 0.49818 0.22418 0.97147 0.0
H769 H 0.50479 0.32131 0.02831 0.0
C770 C 0.51072 0.29963 0.08704 0.0
C771 C 0.51077 0.27233 0.10881 0.0
C772 C 0.4934 0.24539 0.95634 0.0
C773 C 0.49811 0.27297 0.02402 0.0
C774 C 0.48771 0.24569 0.91377 0.0
C775 C 0.48104 0.27284 0.89366 0.0
C776 C 0.49269 0.27248 0.97875 0.0
C777 C 0.48112 0.29948 0.91696 0.0
C778 C 0.50422 0.30007 0.04473 0.0
C779 C 0.50336 0.24589 0.0874 0.0
N780 N 0.48685 0.29864 0.95832 0.0
N781 N 0.49759 0.24682 0.04603 0.0
H782 H 0.77749 0.49946 0.89549 0.0
H783 H 0.67924 0.51919 0.10128 0.0
H784 H 0.68203 0.48238 0.90075 0.0
H785 H 0.77592 0.51077 0.10277 0.0
H786 H 0.67961 0.51092 0.02636 0.0
H787 H 0.77703 0.5105 0.97003 0.0
C788 C 0.75638 0.4985 0.91221 0.0
C789 C 0.72978 0.48988 0.89211 0.0
C790 C 0.70074 0.51072 0.04309 0.0
C791 C 0.72915 0.50212 0.97703 0.0
C792 C 0.70053 0.51535 0.08584 0.0
C793 C 0.72759 0.51558 0.10816 0.0
C794 C 0.72823 0.50664 0.02247 0.0
C795 C 0.75455 0.51057 0.08668 0.0
C796 C 0.75619 0.5045 0.95474 0.0
C797 C 0.70307 0.48879 0.91518 0.0
N798 N 0.75422 0.50649 0.04488 0.0
N799 N 0.70344 0.49475 0.95646 0.0
loop_
_geom_bond_atom_site_label_1
_geom_bond_atom_site_label_2
_geom_bond_distance
_geom_bond_site_symmetry_2
_ccdc_geom_bond_type
Co0 O1 2.216 . S
Co0 O2 2.091 . S
Co0 O4 2.004 1_455 S
Co0 O10 2.021 . S
Co0 O12 2.137 . S
Co0 O13 2.244 . S
O1 Co0 2.216 . S
O1 C8 1.247 . S
O2 Co0 2.091 . S
O2 C8 1.261 . S
C3 O12 1.247 . S
C3 O13 1.272 . S
O4 Co0 2.004 1_655 S
O4 C9 1.259 . S
Co5 O6 2.061 1_455 S
Co5 O11 2.052 . S
Co5 O13 2.135 . S
O6 Co5 2.061 1_655 S
O6 C9 1.235 . S
C7 O10 1.238 . S
C7 O11 1.241 . S
C8 O1 1.247 . S
C8 O2 1.261 . S
C9 O4 1.259 . S
C9 O6 1.235 . S
O10 Co0 2.021 . S
O10 C7 1.238 . S
O11 Co5 2.052 . S
O11 C7 1.241 . S
O12 Co0 2.137 . S
O12 C3 1.247 . S
O13 Co0 2.244 . S
O13 C3 1.272 . S
O13 Co5 2.135 . S
Co14 O15 2.216 . S
Co14 O16 2.091 . S
Co14 O18 2.004 1_545 S
Co14 O24 2.021 . S
Co14 O26 2.137 . S
Co14 O27 2.244 . S
O15 Co14 2.216 . S
O15 C22 1.247 . S
O16 Co14 2.091 . S
O16 C22 1.261 . S
C17 O26 1.247 . S
C17 O27 1.272 . S
O18 Co14 2.004 1_565 S
O18 C23 1.259 . S
Co19 O20 2.061 1_545 S
Co19 O25 2.052 . S
Co19 O27 2.135 . S
O20 Co19 2.061 1_565 S
O20 C23 1.235 . S
C21 O24 1.238 . S
C21 O25 1.241 . S
C22 O15 1.247 . S
C22 O16 1.261 . S
C23 O18 1.259 . S
C23 O20 1.235 . S
O24 Co14 2.021 . S
O24 C21 1.238 . S
O25 Co19 2.052 . S
O25 C21 1.241 . S
O26 Co14 2.137 . S
O26 C17 1.247 . S
O27 Co14 2.244 . S
O27 C17 1.272 . S
O27 Co19 2.135 . S
Co28 O29 2.216 . S
Co28 O30 2.091 . S
Co28 O32 2.004 1_655 S
Co28 O38 2.021 . S
Co28 O40 2.137 . S
Co28 O41 2.244 . S
O29 Co28 2.216 . S
O29 C36 1.247 . S
O30 Co28 2.091 . S
O30 C36 1.261 . S
C31 O40 1.247 . S
C31 O41 1.272 . S
O32 Co28 2.004 1_455 S
O32 C37 1.259 . S
Co33 O34 2.061 1_655 S
Co33 O39 2.052 . S
Co33 O41 2.135 . S
O34 Co33 2.061 1_455 S
O34 C37 1.235 . S
C35 O38 1.238 . S
C35 O39 1.241 . S
C36 O29 1.247 . S
C36 O30 1.261 . S
C37 O32 1.259 . S
C37 O34 1.235 . S
O38 Co28 2.021 . S
O38 C35 1.238 . S
O39 Co33 2.052 . S
O39 C35 1.241 . S
O40 Co28 2.137 . S
O40 C31 1.247 . S
O41 Co28 2.244 . S
O41 C31 1.272 . S
O41 Co33 2.135 . S
Co42 O43 2.216 . S
Co42 O44 2.091 . S
Co42 O46 2.004 1_565 S
Co42 O52 2.021 . S
Co42 O54 2.137 . S
Co42 O55 2.244 . S
O43 Co42 2.216 . S
O43 C50 1.247 . S
O44 Co42 2.091 . S
O44 C50 1.261 . S
C45 O54 1.247 . S
C45 O55 1.272 . S
O46 Co42 2.004 1_545 S
O46 C51 1.259 . S
Co47 O48 2.061 1_565 S
Co47 O53 2.052 . S
Co47 O55 2.135 . S
O48 Co47 2.061 1_545 S
O48 C51 1.235 . S
C49 O52 1.238 . S
C49 O53 1.241 . S
C50 O43 1.247 . S
C50 O44 1.261 . S
C51 O46 1.259 . S
C51 O48 1.235 . S
O52 Co42 2.021 . S
O52 C49 1.238 . S
O53 Co47 2.052 . S
O53 C49 1.241 . S
O54 Co42 2.137 . S
O54 C45 1.247 . S
O55 Co42 2.244 . S
O55 C45 1.272 . S
O55 Co47 2.135 . S
Co56 O57 2.216 . S
Co56 O58 2.091 . S
Co56 O60 2.004 1_455 S
Co56 O66 2.021 . S
Co56 O68 2.137 . S
Co56 O69 2.244 . S
O57 Co56 2.216 . S
O57 C64 1.247 . S
O58 Co56 2.091 . S
O58 C64 1.261 . S
C59 O68 1.247 . S
C59 O69 1.272 . S
O60 Co56 2.004 1_655 S
O60 C65 1.259 . S
Co61 O62 2.061 1_455 S
Co61 O67 2.052 . S
Co61 O69 2.135 . S
O62 Co61 2.061 1_655 S
O62 C65 1.235 . S
C63 O66 1.238 . S
C63 O67 1.241 . S
C64 O57 1.247 . S
C64 O58 1.261 . S
C65 O60 1.259 . S
C65 O62 1.235 . S
O66 Co56 2.021 . S
O66 C63 1.238 . S
O67 Co61 2.052 . S
O67 C63 1.241 . S
O68 Co56 2.137 . S
O68 C59 1.247 . S
O69 Co56 2.244 . S
O69 C59 1.272 . S
O69 Co61 2.135 . S
Co70 O71 2.216 . S
Co70 O72 2.091 . S
Co70 O74 2.004 1_545 S
Co70 O80 2.021 . S
Co70 O82 2.137 . S
Co70 O83 2.244 . S
O71 Co70 2.216 . S
O71 C78 1.247 . S
O72 Co70 2.091 . S
O72 C78 1.261 . S
C73 O82 1.247 . S
C73 O83 1.272 . S
O74 Co70 2.004 1_565 S
O74 C79 1.259 . S
Co75 O76 2.061 1_545 S
Co75 O81 2.052 . S
Co75 O83 2.135 . S
O76 Co75 2.061 1_565 S
O76 C79 1.235 . S
C77 O80 1.238 . S
C77 O81 1.241 . S
C78 O71 1.247 . S
C78 O72 1.261 . S
C79 O74 1.259 . S
C79 O76 1.235 . S
O80 Co70 2.021 . S
O80 C77 1.238 . S
O81 Co75 2.052 . S
O81 C77 1.241 . S
O82 Co70 2.137 . S
O82 C73 1.247 . S
O83 Co70 2.244 . S
O83 C73 1.272 . S
O83 Co75 2.135 . S
Co84 O85 2.216 . S
Co84 O86 2.091 . S
Co84 O88 2.004 1_655 S
Co84 O94 2.021 . S
Co84 O96 2.137 . S
Co84 O97 2.244 . S
O85 Co84 2.216 . S
O85 C92 1.247 . S
O86 Co84 2.091 . S
O86 C92 1.261 . S
C87 O96 1.247 . S
C87 O97 1.272 . S
O88 Co84 2.004 1_455 S
O88 C93 1.259 . S
Co89 O90 2.061 1_655 S
Co89 O95 2.052 . S
Co89 O97 2.135 . S
O90 Co89 2.061 1_455 S
O90 C93 1.235 . S
C91 O94 1.238 . S
C91 O95 1.241 . S
C92 O85 1.247 . S
C92 O86 1.261 . S
C93 O88 1.259 . S
C93 O90 1.235 . S
O94 Co84 2.021 . S
O94 C91 1.238 . S
O95 Co89 2.052 . S
O95 C91 1.241 . S
O96 Co84 2.137 . S
O96 C87 1.247 . S
O97 Co84 2.244 . S
O97 C87 1.272 . S
O97 Co89 2.135 . S
Co98 O99 2.216 . S
Co98 O100 2.091 . S
Co98 O102 2.004 1_565 S
Co98 O108 2.021 . S
Co98 O110 2.137 . S
Co98 O111 2.244 . S
O99 Co98 2.216 . S
O99 C106 1.247 . S
O100 Co98 2.091 . S
O100 C106 1.261 . S
C101 O110 1.247 . S
C101 O111 1.272 . S
O102 Co98 2.004 1_545 S
O102 C107 1.259 . S
Co103 O104 2.061 1_565 S
Co103 O109 2.052 . S
Co103 O111 2.135 . S
O104 Co103 2.061 1_545 S
O104 C107 1.235 . S
C105 O108 1.238 . S
C105 O109 1.241 . S
C106 O99 1.247 . S
C106 O100 1.261 . S
C107 O102 1.259 . S
C107 O104 1.235 . S
O108 Co98 2.021 . S
O108 C105 1.238 . S
O109 Co103 2.052 . S
O109 C105 1.241 . S
O110 Co98 2.137 . S
O110 C101 1.247 . S
O111 Co98 2.244 . S
O111 C101 1.272 . S
O111 Co103 2.135 . S
Co112 O113 2.216 . S
Co112 O114 2.091 . S
Co112 O116 2.004 . S
Co112 O122 2.021 . S
Co112 O124 2.137 . S
Co112 O125 2.244 . S
O113 Co112 2.216 . S
O113 C120 1.247 . S
O114 Co112 2.091 . S
O114 C120 1.261 . S
C115 O124 1.247 . S
C115 O125 1.272 . S
O116 Co112 2.004 . S
O116 C121 1.259 . S
Co117 O118 2.061 . S
Co117 O123 2.052 . S
Co117 O125 2.135 . S
O118 Co117 2.061 . S
O118 C121 1.235 . S
C119 O122 1.238 . S
C119 O123 1.241 . S
C120 O113 1.247 . S
C120 O114 1.261 . S
C121 O116 1.259 . S
C121 O118 1.235 . S
O122 Co112 2.021 . S
O122 C119 1.238 . S
O123 Co117 2.052 . S
O123 C119 1.241 . S
O124 Co112 2.137 . S
O124 C115 1.247 . S
O125 Co112 2.244 . S
O125 C115 1.272 . S
O125 Co117 2.135 . S
Co126 O127 2.216 . S
Co126 O128 2.091 . S
Co126 O130 2.004 . S
Co126 O136 2.021 . S
Co126 O138 2.137 . S
Co126 O139 2.244 . S
O127 Co126 2.216 . S
O127 C134 1.247 . S
O128 Co126 2.091 . S
O128 C134 1.261 . S
C129 O138 1.247 . S
C129 O139 1.272 . S
O130 Co126 2.004 . S
O130 C135 1.259 . S
Co131 O132 2.061 . S
Co131 O137 2.052 . S
Co131 O139 2.135 . S
O132 Co131 2.061 . S
O132 C135 1.235 . S
C133 O136 1.238 . S
C133 O137 1.241 . S
C134 O127 1.247 . S
C134 O128 1.261 . S
C135 O130 1.259 . S
C135 O132 1.235 . S
O136 Co126 2.021 . S
O136 C133 1.238 . S
O137 Co131 2.052 . S
O137 C133 1.241 . S
O138 Co126 2.137 . S
O138 C129 1.247 . S
O139 Co126 2.244 . S
O139 C129 1.272 . S
O139 Co131 2.135 . S
Co140 O141 2.216 . S
Co140 O142 2.091 . S
Co140 O144 2.004 . S
Co140 O150 2.021 . S
Co140 O152 2.137 . S
Co140 O153 2.244 . S
O141 Co140 2.216 . S
O141 C148 1.247 . S
O142 Co140 2.091 . S
O142 C148 1.261 . S
C143 O152 1.247 . S
C143 O153 1.272 . S
O144 Co140 2.004 . S
O144 C149 1.259 . S
Co145 O146 2.061 . S
Co145 O151 2.052 . S
Co145 O153 2.135 . S
O146 Co145 2.061 . S
O146 C149 1.235 . S
C147 O150 1.238 . S
C147 O151 1.241 . S
C148 O141 1.247 . S
C148 O142 1.261 . S
C149 O144 1.259 . S
C149 O146 1.235 . S
O150 Co140 2.021 . S
O150 C147 1.238 . S
O151 Co145 2.052 . S
O151 C147 1.241 . S
O152 Co140 2.137 . S
O152 C143 1.247 . S
O153 Co140 2.244 . S
O153 C143 1.272 . S
O153 Co145 2.135 . S
Co154 O155 2.216 . S
Co154 O156 2.091 . S
Co154 O158 2.004 . S
Co154 O164 2.021 . S
Co154 O166 2.137 . S
Co154 O167 2.244 . S
O155 Co154 2.216 . S
O155 C162 1.247 . S
O156 Co154 2.091 . S
O156 C162 1.261 . S
C157 O166 1.247 . S
C157 O167 1.272 . S
O158 Co154 2.004 . S
O158 C163 1.259 . S
Co159 O160 2.061 . S
Co159 O165 2.052 . S
Co159 O167 2.135 . S
O160 Co159 2.061 . S
O160 C163 1.235 . S
C161 O164 1.238 . S
C161 O165 1.241 . S
C162 O155 1.247 . S
C162 O156 1.261 . S
C163 O158 1.259 . S
C163 O160 1.235 . S
O164 Co154 2.021 . S
O164 C161 1.238 . S
O165 Co159 2.052 . S
O165 C161 1.241 . S
O166 Co154 2.137 . S
O166 C157 1.247 . S
O167 Co154 2.244 . S
O167 C157 1.272 . S
O167 Co159 2.135 . S
Co168 O169 2.216 . S
Co168 O170 2.091 . S
Co168 O172 2.004 . S
Co168 O178 2.021 . S
Co168 O180 2.137 . S
Co168 O181 2.244 . S
O169 Co168 2.216 . S
O169 C176 1.247 . S
O170 Co168 2.091 . S
O170 C176 1.261 . S
C171 O180 1.247 . S
C171 O181 1.272 . S
O172 Co168 2.004 . S
O172 C177 1.259 . S
Co173 O174 2.061 . S
Co173 O179 2.052 . S
Co173 O181 2.135 . S
O174 Co173 2.061 . S
O174 C177 1.235 . S
C175 O178 1.238 . S
C175 O179 1.241 . S
C176 O169 1.247 . S
C176 O170 1.261 . S
C177 O172 1.259 . S
C177 O174 1.235 . S
O178 Co168 2.021 . S
O178 C175 1.238 . S
O179 Co173 2.052 . S
O179 C175 1.241 . S
O180 Co168 2.137 . S
O180 C171 1.247 . S
O181 Co168 2.244 . S
O181 C171 1.272 . S
O181 Co173 2.135 . S
Co182 O183 2.216 . S
Co182 O184 2.091 . S
Co182 O186 2.004 . S
Co182 O192 2.021 . S
Co182 O194 2.137 . S
Co182 O195 2.244 . S
O183 Co182 2.216 . S
O183 C190 1.247 . S
O184 Co182 2.091 . S
O184 C190 1.261 . S
C185 O194 1.247 . S
C185 O195 1.272 . S
O186 Co182 2.004 . S
O186 C191 1.259 . S
Co187 O188 2.061 . S
Co187 O193 2.052 . S
Co187 O195 2.135 . S
O188 Co187 2.061 . S
O188 C191 1.235 . S
C189 O192 1.238 . S
C189 O193 1.241 . S
C190 O183 1.247 . S
C190 O184 1.261 . S
C191 O186 1.259 . S
C191 O188 1.235 . S
O192 Co182 2.021 . S
O192 C189 1.238 . S
O193 Co187 2.052 . S
O193 C189 1.241 . S
O194 Co182 2.137 . S
O194 C185 1.247 . S
O195 Co182 2.244 . S
O195 C185 1.272 . S
O195 Co187 2.135 . S
Co196 O197 2.216 . S
Co196 O198 2.091 . S
Co196 O200 2.004 . S
Co196 O206 2.021 . S
Co196 O208 2.137 . S
Co196 O209 2.244 . S
O197 Co196 2.216 . S
O197 C204 1.247 . S
O198 Co196 2.091 . S
O198 C204 1.261 . S
C199 O208 1.247 . S
C199 O209 1.272 . S
O200 Co196 2.004 . S
O200 C205 1.259 . S
Co201 O202 2.061 . S
Co201 O207 2.052 . S
Co201 O209 2.135 . S
O202 Co201 2.061 . S
O202 C205 1.235 . S
C203 O206 1.238 . S
C203 O207 1.241 . S
C204 O197 1.247 . S
C204 O198 1.261 . S
C205 O200 1.259 . S
C205 O202 1.235 . S
O206 Co196 2.021 . S
O206 C203 1.238 . S
O207 Co201 2.052 . S
O207 C203 1.241 . S
O208 Co196 2.137 . S
O208 C199 1.247 . S
O209 Co196 2.244 . S
O209 C199 1.272 . S
O209 Co201 2.135 . S
Co210 O211 2.216 . S
Co210 O212 2.091 . S
Co210 O214 2.004 . S
Co210 O220 2.021 . S
Co210 O222 2.137 . S
Co210 O223 2.244 . S
O211 Co210 2.216 . S
O211 C218 1.247 . S
O212 Co210 2.091 . S
O212 C218 1.261 . S
C213 O222 1.247 . S
C213 O223 1.272 . S
O214 Co210 2.004 . S
O214 C219 1.259 . S
Co215 O216 2.061 . S
Co215 O221 2.052 . S
Co215 O223 2.135 . S
O216 Co215 2.061 . S
O216 C219 1.235 . S
C217 O220 1.238 . S
C217 O221 1.241 . S
C218 O211 1.247 . S
C218 O212 1.261 . S
C219 O214 1.259 . S
C219 O216 1.235 . S
O220 Co210 2.021 . S
O220 C217 1.238 . S
O221 Co215 2.052 . S
O221 C217 1.241 . S
O222 Co210 2.137 . S
O222 C213 1.247 . S
O223 Co210 2.244 . S
O223 C213 1.272 . S
O223 Co215 2.135 . S
H224 C230 0.930 . S
H225 C234 0.930 . S
H226 C239 0.929 . S
H227 C237 0.929 . S
H228 C232 0.929 . S
H229 C238 0.929 . S
C230 H224 0.930 . S
C230 C231 1.367 . S
C230 C238 1.378 . S
C231 C230 1.367 . S
C231 C239 1.433 . S
C232 H228 0.929 . S
C232 C234 1.378 . S
C232 C236 1.350 . S
C233 C236 1.463 . S
C233 C238 1.350 . S
C233 N241 1.427 . S
C234 H225 0.930 . S
C234 C232 1.378 . S
C234 C235 1.367 . S
C235 C234 1.367 . S
C235 C237 1.433 . S
C236 C232 1.350 . S
C236 C233 1.463 . S
C236 N240 1.427 . S
C237 H227 0.929 . S
C237 C235 1.433 . S
C237 N240 1.384 . S
C238 H229 0.929 . S
C238 C230 1.378 . S
C238 C233 1.350 . S
C239 H226 0.929 . S
C239 C231 1.433 . S
C239 N241 1.384 . S
N240 C236 1.427 . S
N240 C237 1.384 . S
N241 C233 1.427 . S
N241 C239 1.384 . S
H242 C248 0.930 . S
H243 C252 0.930 . S
H244 C257 0.929 . S
H245 C255 0.929 . S
H246 C250 0.929 . S
H247 C256 0.929 . S
C248 H242 0.930 . S
C248 C249 1.367 . S
C248 C256 1.378 . S
C249 C248 1.367 . S
C249 C257 1.433 . S
C250 H246 0.929 . S
C250 C252 1.378 . S
C250 C254 1.350 . S
C251 C254 1.463 . S
C251 C256 1.350 . S
C251 N259 1.427 . S
C252 H243 0.930 . S
C252 C250 1.378 . S
C252 C253 1.367 . S
C253 C252 1.367 . S
C253 C255 1.433 . S
C254 C250 1.350 . S
C254 C251 1.463 . S
C254 N258 1.427 . S
C255 H245 0.929 . S
C255 C253 1.433 . S
C255 N258 1.384 . S
C256 H247 0.929 . S
C256 C248 1.378 . S
C256 C251 1.350 . S
C257 H244 0.929 . S
C257 C249 1.433 . S
C257 N259 1.384 . S
N258 C254 1.427 . S
N258 C255 1.384 . S
N259 C251 1.427 . S
N259 C257 1.384 . S
H260 C266 0.930 . S
H261 C270 0.930 . S
H262 C275 0.929 . S
H263 C273 0.929 . S
H264 C268 0.929 . S
H265 C274 0.929 . S
C266 H260 0.930 . S
C266 C267 1.367 . S
C266 C274 1.378 . S
C267 C266 1.367 . S
C267 C275 1.433 . S
C268 H264 0.929 . S
C268 C270 1.378 . S
C268 C272 1.350 . S
C269 C272 1.463 . S
C269 C274 1.350 . S
C269 N277 1.427 . S
C270 H261 0.930 . S
C270 C268 1.378 . S
C270 C271 1.367 . S
C271 C270 1.367 . S
C271 C273 1.433 . S
C272 C268 1.350 . S
C272 C269 1.463 . S
C272 N276 1.427 . S
C273 H263 0.929 . S
C273 C271 1.433 . S
C273 N276 1.384 . S
C274 H265 0.929 . S
C274 C266 1.378 . S
C274 C269 1.350 . S
C275 H262 0.929 . S
C275 C267 1.433 . S
C275 N277 1.384 . S
N276 C272 1.427 . S
N276 C273 1.384 . S
N277 C269 1.427 . S
N277 C275 1.384 . S
H278 C284 0.930 . S
H279 C288 0.930 . S
H280 C293 0.929 . S
H281 C291 0.929 . S
H282 C286 0.929 . S
H283 C292 0.929 . S
C284 H278 0.930 . S
C284 C285 1.367 . S
C284 C292 1.378 . S
C285 C284 1.367 . S
C285 C293 1.433 . S
C286 H282 0.929 . S
C286 C288 1.378 . S
C286 C290 1.350 . S
C287 C290 1.463 . S
C287 C292 1.350 . S
C287 N295 1.427 . S
C288 H279 0.930 . S
C288 C286 1.378 . S
C288 C289 1.367 . S
C289 C288 1.367 . S
C289 C291 1.433 . S
C290 C286 1.350 . S
C290 C287 1.463 . S
C290 N294 1.427 . S
C291 H281 0.929 . S
C291 C289 1.433 . S
C291 N294 1.384 . S
C292 H283 0.929 . S
C292 C284 1.378 . S
C292 C287 1.350 . S
C293 H280 0.929 . S
C293 C285 1.433 . S
C293 N295 1.384 . S
N294 C290 1.427 . S
N294 C291 1.384 . S
N295 C287 1.427 . S
N295 C293 1.384 . S
H296 C302 0.930 . S
H297 C306 0.930 . S
H298 C311 0.929 . S
H299 C309 0.929 . S
H300 C304 0.929 . S
H301 C310 0.929 . S
C302 H296 0.930 . S
C302 C303 1.367 . S
C302 C310 1.378 . S
C303 C302 1.367 . S
C303 C311 1.433 . S
C304 H300 0.929 . S
C304 C306 1.378 . S
C304 C308 1.350 . S
C305 C308 1.463 . S
C305 C310 1.350 . S
C305 N313 1.427 . S
C306 H297 0.930 . S
C306 C304 1.378 . S
C306 C307 1.367 . S
C307 C306 1.367 . S
C307 C309 1.433 . S
C308 C304 1.350 . S
C308 C305 1.463 . S
C308 N312 1.427 . S
C309 H299 0.929 . S
C309 C307 1.433 . S
C309 N312 1.384 . S
C310 H301 0.929 . S
C310 C302 1.378 . S
C310 C305 1.350 . S
C311 H298 0.929 . S
C311 C303 1.433 . S
C311 N313 1.384 . S
N312 C308 1.427 . S
N312 C309 1.384 . S
N313 C305 1.427 . S
N313 C311 1.384 . S
H314 C320 0.930 . S
H315 C324 0.930 . S
H316 C329 0.929 . S
H317 C327 0.929 . S
H318 C322 0.929 . S
H319 C328 0.929 . S
C320 H314 0.930 . S
C320 C321 1.367 . S
C320 C328 1.378 . S
C321 C320 1.367 . S
C321 C329 1.433 . S
C322 H318 0.929 . S
C322 C324 1.378 . S
C322 C326 1.350 . S
C323 C326 1.463 . S
C323 C328 1.350 . S
C323 N331 1.427 . S
C324 H315 0.930 . S
C324 C322 1.378 . S
C324 C325 1.367 . S
C325 C324 1.367 . S
C325 C327 1.433 . S
C326 C322 1.350 . S
C326 C323 1.463 . S
C326 N330 1.427 . S
C327 H317 0.929 . S
C327 C325 1.433 . S
C327 N330 1.384 . S
C328 H319 0.929 . S
C328 C320 1.378 . S
C328 C323 1.350 . S
C329 H316 0.929 . S
C329 C321 1.433 . S
C329 N331 1.384 . S
N330 C326 1.427 . S
N330 C327 1.384 . S
N331 C323 1.427 . S
N331 C329 1.384 . S
H332 C338 0.930 . S
H333 C342 0.930 . S
H334 C347 0.929 . S
H335 C345 0.929 . S
H336 C340 0.929 . S
H337 C346 0.929 . S
C338 H332 0.930 . S
C338 C339 1.367 . S
C338 C346 1.378 . S
C339 C338 1.367 . S
C339 C347 1.433 . S
C340 H336 0.929 . S
C340 C342 1.378 . S
C340 C344 1.350 . S
C341 C344 1.463 . S
C341 C346 1.350 . S
C341 N349 1.427 . S
C342 H333 0.930 . S
C342 C340 1.378 . S
C342 C343 1.367 . S
C343 C342 1.367 . S
C343 C345 1.433 . S
C344 C340 1.350 . S
C344 C341 1.463 . S
C344 N348 1.427 . S
C345 H335 0.929 . S
C345 C343 1.433 . S
C345 N348 1.384 . S
C346 H337 0.929 . S
C346 C338 1.378 . S
C346 C341 1.350 . S
C347 H334 0.929 . S
C347 C339 1.433 . S
C347 N349 1.384 . S
N348 C344 1.427 . S
N348 C345 1.384 . S
N349 C341 1.427 . S
N349 C347 1.384 . S
H350 C356 0.930 . S
H351 C360 0.930 . S
H352 C365 0.929 . S
H353 C363 0.929 . S
H354 C358 0.929 . S
H355 C364 0.929 . S
C356 H350 0.930 . S
C356 C357 1.367 . S
C356 C364 1.378 . S
C357 C356 1.367 . S
C357 C365 1.433 . S
C358 H354 0.929 . S
C358 C360 1.378 . S
C358 C362 1.350 . S
C359 C362 1.463 . S
C359 C364 1.350 . S
C359 N367 1.427 . S
C360 H351 0.930 . S
C360 C358 1.378 . S
C360 C361 1.367 . S
C361 C360 1.367 . S
C361 C363 1.433 . S
C362 C358 1.350 . S
C362 C359 1.463 . S
C362 N366 1.427 . S
C363 H353 0.929 . S
C363 C361 1.433 . S
C363 N366 1.384 . S
C364 H355 0.929 . S
C364 C356 1.378 . S
C364 C359 1.350 . S
C365 H352 0.929 . S
C365 C357 1.433 . S
C365 N367 1.384 . S
N366 C362 1.427 . S
N366 C363 1.384 . S
N367 C359 1.427 . S
N367 C365 1.384 . S
H368 C374 0.930 . S
H369 C378 0.930 . S
H370 C383 0.929 . S
H371 C381 0.929 . S
H372 C376 0.929 . S
H373 C382 0.929 . S
C374 H368 0.930 . S
C374 C375 1.367 . S
C374 C382 1.378 . S
C375 C374 1.367 . S
C375 C383 1.433 . S
C376 H372 0.929 . S
C376 C378 1.378 . S
C376 C380 1.350 . S
C377 C380 1.463 . S
C377 C382 1.350 . S
C377 N385 1.427 . S
C378 H369 0.930 . S
C378 C376 1.378 . S
C378 C379 1.367 . S
C379 C378 1.367 . S
C379 C381 1.433 . S
C380 C376 1.350 . S
C380 C377 1.463 . S
C380 N384 1.427 . S
C381 H371 0.929 . S
C381 C379 1.433 . S
C381 N384 1.384 . S
C382 H373 0.929 . S
C382 C374 1.378 . S
C382 C377 1.350 . S
C383 H370 0.929 . S
C383 C375 1.433 . S
C383 N385 1.384 . S
N384 C380 1.427 . S
N384 C381 1.384 . S
N385 C377 1.427 . S
N385 C383 1.384 . S
H386 C392 0.930 . S
H387 C396 0.930 . S
H388 C401 0.929 . S
H389 C399 0.929 . S
H390 C394 0.929 . S
H391 C400 0.929 . S
C392 H386 0.930 . S
C392 C393 1.367 . S
C392 C400 1.378 . S
C393 C392 1.367 . S
C393 C401 1.433 . S
C394 H390 0.929 . S
C394 C396 1.378 . S
C394 C398 1.350 . S
C395 C398 1.463 . S
C395 C400 1.350 . S
C395 N403 1.427 . S
C396 H387 0.930 . S
C396 C394 1.378 . S
C396 C397 1.367 . S
C397 C396 1.367 . S
C397 C399 1.433 . S
C398 C394 1.350 . S
C398 C395 1.463 . S
C398 N402 1.427 . S
C399 H389 0.929 . S
C399 C397 1.433 . S
C399 N402 1.384 . S
C400 H391 0.929 . S
C400 C392 1.378 . S
C400 C395 1.350 . S
C401 H388 0.929 . S
C401 C393 1.433 . S
C401 N403 1.384 . S
N402 C398 1.427 . S
N402 C399 1.384 . S
N403 C395 1.427 . S
N403 C401 1.384 . S
H404 C410 0.930 . S
H405 C414 0.930 . S
H406 C419 0.929 . S
H407 C417 0.929 . S
H408 C412 0.929 . S
H409 C418 0.929 . S
C410 H404 0.930 . S
C410 C411 1.367 . S
C410 C418 1.378 . S
C411 C410 1.367 . S
C411 C419 1.433 . S
C412 H408 0.929 . S
C412 C414 1.378 . S
C412 C416 1.350 . S
C413 C416 1.463 . S
C413 C418 1.350 . S
C413 N421 1.427 . S
C414 H405 0.930 . S
C414 C412 1.378 . S
C414 C415 1.367 . S
C415 C414 1.367 . S
C415 C417 1.433 . S
C416 C412 1.350 . S
C416 C413 1.463 . S
C416 N420 1.427 . S
C417 H407 0.929 . S
C417 C415 1.433 . S
C417 N420 1.384 . S
C418 H409 0.929 . S
C418 C410 1.378 . S
C418 C413 1.350 . S
C419 H406 0.929 . S
C419 C411 1.433 . S
C419 N421 1.384 . S
N420 C416 1.427 . S
N420 C417 1.384 . S
N421 C413 1.427 . S
N421 C419 1.384 . S
H422 C428 0.930 . S
H423 C432 0.930 . S
H424 C437 0.929 . S
H425 C435 0.929 . S
H426 C430 0.929 . S
H427 C436 0.929 . S
C428 H422 0.930 . S
C428 C429 1.367 . S
C428 C436 1.378 . S
C429 C428 1.367 . S
C429 C437 1.433 . S
C430 H426 0.929 . S
C430 C432 1.378 . S
C430 C434 1.350 . S
C431 C434 1.463 . S
C431 C436 1.350 . S
C431 N439 1.427 . S
C432 H423 0.930 . S
C432 C430 1.378 . S
C432 C433 1.367 . S
C433 C432 1.367 . S
C433 C435 1.433 . S
C434 C430 1.350 . S
C434 C431 1.463 . S
C434 N438 1.427 . S
C435 H425 0.929 . S
C435 C433 1.433 . S
C435 N438 1.384 . S
C436 H427 0.929 . S
C436 C428 1.378 . S
C436 C431 1.350 . S
C437 H424 0.929 . S
C437 C429 1.433 . S
C437 N439 1.384 . S
N438 C434 1.427 . S
N438 C435 1.384 . S
N439 C431 1.427 . S
N439 C437 1.384 . S
H440 C446 0.930 . S
H441 C450 0.930 . S
H442 C455 0.929 . S
H443 C453 0.929 . S
H444 C448 0.929 . S
H445 C454 0.929 . S
C446 H440 0.930 . S
C446 C447 1.367 . S
C446 C454 1.378 . S
C447 C446 1.367 . S
C447 C455 1.433 . S
C448 H444 0.929 . S
C448 C450 1.378 . S
C448 C452 1.350 . S
C449 C452 1.463 . S
C449 C454 1.350 . S
C449 N457 1.427 . S
C450 H441 0.930 . S
C450 C448 1.378 . S
C450 C451 1.367 . S
C451 C450 1.367 . S
C451 C453 1.433 . S
C452 C448 1.350 . S
C452 C449 1.463 . S
C452 N456 1.427 . S
C453 H443 0.929 . S
C453 C451 1.433 . S
C453 N456 1.384 . S
C454 H445 0.929 . S
C454 C446 1.378 . S
C454 C449 1.350 . S
C455 H442 0.929 . S
C455 C447 1.433 . S
C455 N457 1.384 . S
N456 C452 1.427 . S
N456 C453 1.384 . S
N457 C449 1.427 . S
N457 C455 1.384 . S
H458 C464 0.930 . S
H459 C468 0.930 . S
H460 C473 0.929 . S
H461 C471 0.929 . S
H462 C466 0.929 . S
H463 C472 0.929 . S
C464 H458 0.930 . S
C464 C465 1.367 . S
C464 C472 1.378 . S
C465 C464 1.367 . S
C465 C473 1.433 . S
C466 H462 0.929 . S
C466 C468 1.378 . S
C466 C470 1.350 . S
C467 C470 1.463 . S
C467 C472 1.350 . S
C467 N475 1.427 . S
C468 H459 0.930 . S
C468 C466 1.378 . S
C468 C469 1.367 . S
C469 C468 1.367 . S
C469 C471 1.433 . S
C470 C466 1.350 . S
C470 C467 1.463 . S
C470 N474 1.427 . S
C471 H461 0.929 . S
C471 C469 1.433 . S
C471 N474 1.384 . S
C472 H463 0.929 . S
C472 C464 1.378 . S
C472 C467 1.350 . S
C473 H460 0.929 . S
C473 C465 1.433 . S
C473 N475 1.384 . S
N474 C470 1.427 . S
N474 C471 1.384 . S
N475 C467 1.427 . S
N475 C473 1.384 . S
H476 C482 0.930 . S
H477 C486 0.930 . S
H478 C491 0.929 . S
H479 C489 0.929 . S
H480 C484 0.929 . S
H481 C490 0.929 . S
C482 H476 0.930 . S
C482 C483 1.367 . S
C482 C490 1.378 . S
C483 C482 1.367 . S
C483 C491 1.433 . S
C484 H480 0.929 . S
C484 C486 1.378 . S
C484 C488 1.350 . S
C485 C488 1.463 . S
C485 C490 1.350 . S
C485 N493 1.427 . S
C486 H477 0.930 . S
C486 C484 1.378 . S
C486 C487 1.367 . S
C487 C486 1.367 . S
C487 C489 1.433 . S
C488 C484 1.350 . S
C488 C485 1.463 . S
C488 N492 1.427 . S
C489 H479 0.929 . S
C489 C487 1.433 . S
C489 N492 1.384 . S
C490 H481 0.929 . S
C490 C482 1.378 . S
C490 C485 1.350 . S
C491 H478 0.929 . S
C491 C483 1.433 . S
C491 N493 1.384 . S
N492 C488 1.427 . S
N492 C489 1.384 . S
N493 C485 1.427 . S
N493 C491 1.384 . S
H494 C500 0.930 . S
H495 C504 0.930 . S
H496 C509 0.929 . S
H497 C507 0.929 . S
H498 C502 0.929 . S
H499 C508 0.929 . S
C500 H494 0.930 . S
C500 C501 1.367 . S
C500 C508 1.378 . S
C501 C500 1.367 . S
C501 C509 1.433 . S
C502 H498 0.929 . S
C502 C504 1.378 . S
C502 C506 1.350 . S
C503 C506 1.463 . S
C503 C508 1.350 . S
C503 N511 1.427 . S
C504 H495 0.930 . S
C504 C502 1.378 . S
C504 C505 1.367 . S
C505 C504 1.367 . S
C505 C507 1.433 . S
C506 C502 1.350 . S
C506 C503 1.463 . S
C506 N510 1.427 . S
C507 H497 0.929 . S
C507 C505 1.433 . S
C507 N510 1.384 . S
C508 H499 0.929 . S
C508 C500 1.378 . S
C508 C503 1.350 . S
C509 H496 0.929 . S
C509 C501 1.433 . S
C509 N511 1.384 . S
N510 C506 1.427 . S
N510 C507 1.384 . S
N511 C503 1.427 . S
N511 C509 1.384 . S
H512 C518 0.930 . S
H513 C522 0.930 . S
H514 C527 0.929 . S
H515 C525 0.929 . S
H516 C520 0.929 . S
H517 C526 0.929 . S
C518 H512 0.930 . S
C518 C519 1.367 . S
C518 C526 1.378 . S
C519 C518 1.367 . S
C519 C527 1.433 . S
C520 H516 0.929 . S
C520 C522 1.378 . S
C520 C524 1.350 . S
C521 C524 1.463 . S
C521 C526 1.350 . S
C521 N529 1.427 . S
C522 H513 0.930 . S
C522 C520 1.378 . S
C522 C523 1.367 . S
C523 C522 1.367 . S
C523 C525 1.433 . S
C524 C520 1.350 . S
C524 C521 1.463 . S
C524 N528 1.427 . S
C525 H515 0.929 . S
C525 C523 1.433 . S
C525 N528 1.384 . S
C526 H517 0.929 . S
C526 C518 1.378 . S
C526 C521 1.350 . S
C527 H514 0.929 . S
C527 C519 1.433 . S
C527 N529 1.384 . S
N528 C524 1.427 . S
N528 C525 1.384 . S
N529 C521 1.427 . S
N529 C527 1.384 . S
H530 C536 0.930 . S
H531 C540 0.930 . S
H532 C545 0.929 . S
H533 C543 0.929 . S
H534 C538 0.929 . S
H535 C544 0.929 . S
C536 H530 0.930 . S
C536 C537 1.367 . S
C536 C544 1.378 . S
C537 C536 1.367 . S
C537 C545 1.433 . S
C538 H534 0.929 . S
C538 C540 1.378 . S
C538 C542 1.350 . S
C539 C542 1.463 . S
C539 C544 1.350 . S
C539 N547 1.427 . S
C540 H531 0.930 . S
C540 C538 1.378 . S
C540 C541 1.367 . S
C541 C540 1.367 . S
C541 C543 1.433 . S
C542 C538 1.350 . S
C542 C539 1.463 . S
C542 N546 1.427 . S
C543 H533 0.929 . S
C543 C541 1.433 . S
C543 N546 1.384 . S
C544 H535 0.929 . S
C544 C536 1.378 . S
C544 C539 1.350 . S
C545 H532 0.929 . S
C545 C537 1.433 . S
C545 N547 1.384 . S
N546 C542 1.427 . S
N546 C543 1.384 . S
N547 C539 1.427 . S
N547 C545 1.384 . S
H548 C554 0.930 . S
H549 C558 0.930 . S
H550 C563 0.929 . S
H551 C561 0.929 . S
H552 C556 0.929 . S
H553 C562 0.929 . S
C554 H548 0.930 . S
C554 C555 1.367 . S
C554 C562 1.378 . S
C555 C554 1.367 . S
C555 C563 1.433 . S
C556 H552 0.929 . S
C556 C558 1.378 . S
C556 C560 1.350 . S
C557 C560 1.463 . S
C557 C562 1.350 . S
C557 N565 1.427 . S
C558 H549 0.930 . S
C558 C556 1.378 . S
C558 C559 1.367 . S
C559 C558 1.367 . S
C559 C561 1.433 . S
C560 C556 1.350 . S
C560 C557 1.463 . S
C560 N564 1.427 . S
C561 H551 0.929 . S
C561 C559 1.433 . S
C561 N564 1.384 . S
C562 H553 0.929 . S
C562 C554 1.378 . S
C562 C557 1.350 . S
C563 H550 0.929 . S
C563 C555 1.433 . S
C563 N565 1.384 . S
N564 C560 1.427 . S
N564 C561 1.384 . S
N565 C557 1.427 . S
N565 C563 1.384 . S
H566 C572 0.930 . S
H567 C576 0.930 . S
H568 C581 0.929 . S
H569 C579 0.929 . S
H570 C574 0.929 . S
H571 C580 0.929 . S
C572 H566 0.930 . S
C572 C573 1.367 . S
C572 C580 1.378 . S
C573 C572 1.367 . S
C573 C581 1.433 . S
C574 H570 0.929 . S
C574 C576 1.378 . S
C574 C578 1.350 . S
C575 C578 1.463 . S
C575 C580 1.350 . S
C575 N583 1.427 . S
C576 H567 0.930 . S
C576 C574 1.378 . S
C576 C577 1.367 . S
C577 C576 1.367 . S
C577 C579 1.433 . S
C578 C574 1.350 . S
C578 C575 1.463 . S
C578 N582 1.427 . S
C579 H569 0.929 . S
C579 C577 1.433 . S
C579 N582 1.384 . S
C580 H571 0.929 . S
C580 C572 1.378 . S
C580 C575 1.350 . S
C581 H568 0.929 . S
C581 C573 1.433 . S
C581 N583 1.384 . S
N582 C578 1.427 . S
N582 C579 1.384 . S
N583 C575 1.427 . S
N583 C581 1.384 . S
H584 C590 0.930 . S
H585 C594 0.930 . S
H586 C599 0.929 . S
H587 C597 0.929 . S
H588 C592 0.929 . S
H589 C598 0.929 . S
C590 H584 0.930 . S
C590 C591 1.367 . S
C590 C598 1.378 . S
C591 C590 1.367 . S
C591 C599 1.433 . S
C592 H588 0.929 . S
C592 C594 1.378 . S
C592 C596 1.350 . S
C593 C596 1.463 . S
C593 C598 1.350 . S
C593 N601 1.427 . S
C594 H585 0.930 . S
C594 C592 1.378 . S
C594 C595 1.367 . S
C595 C594 1.367 . S
C595 C597 1.433 . S
C596 C592 1.350 . S
C596 C593 1.463 . S
C596 N600 1.427 . S
C597 H587 0.929 . S
C597 C595 1.433 . S
C597 N600 1.384 . S
C598 H589 0.929 . S
C598 C590 1.378 . S
C598 C593 1.350 . S
C599 H586 0.929 . S
C599 C591 1.433 . S
C599 N601 1.384 . S
N600 C596 1.427 . S
N600 C597 1.384 . S
N601 C593 1.427 . S
N601 C599 1.384 . S
H602 C608 0.930 . S
H603 C612 0.930 . S
H604 C617 0.929 . S
H605 C615 0.929 . S
H606 C610 0.929 . S
H607 C616 0.929 . S
C608 H602 0.930 . S
C608 C609 1.367 . S
C608 C616 1.378 . S
C609 C608 1.367 . S
C609 C617 1.433 . S
C610 H606 0.929 . S
C610 C612 1.378 . S
C610 C614 1.350 . S
C611 C614 1.463 . S
C611 C616 1.350 . S
C611 N619 1.427 . S
C612 H603 0.930 . S
C612 C610 1.378 . S
C612 C613 1.367 . S
C613 C612 1.367 . S
C613 C615 1.433 . S
C614 C610 1.350 . S
C614 C611 1.463 . S
C614 N618 1.427 . S
C615 H605 0.929 . S
C615 C613 1.433 . S
C615 N618 1.384 . S
C616 H607 0.929 . S
C616 C608 1.378 . S
C616 C611 1.350 . S
C617 H604 0.929 . S
C617 C609 1.433 . S
C617 N619 1.384 . S
N618 C614 1.427 . S
N618 C615 1.384 . S
N619 C611 1.427 . S
N619 C617 1.384 . S
H620 C626 0.930 . S
H621 C630 0.930 . S
H622 C635 0.929 . S
H623 C633 0.929 . S
H624 C628 0.929 . S
H625 C634 0.929 . S
C626 H620 0.930 . S
C626 C627 1.367 . S
C626 C634 1.378 . S
C627 C626 1.367 . S
C627 C635 1.433 . S
C628 H624 0.929 . S
C628 C630 1.378 . S
C628 C632 1.350 . S
C629 C632 1.463 . S
C629 C634 1.350 . S
C629 N637 1.427 . S
C630 H621 0.930 . S
C630 C628 1.378 . S
C630 C631 1.367 . S
C631 C630 1.367 . S
C631 C633 1.433 . S
C632 C628 1.350 . S
C632 C629 1.463 . S
C632 N636 1.427 . S
C633 H623 0.929 . S
C633 C631 1.433 . S
C633 N636 1.384 . S
C634 H625 0.929 . S
C634 C626 1.378 . S
C634 C629 1.350 . S
C635 H622 0.929 . S
C635 C627 1.433 . S
C635 N637 1.384 . S
N636 C632 1.427 . S
N636 C633 1.384 . S
N637 C629 1.427 . S
N637 C635 1.384 . S
H638 C644 0.930 . S
H639 C648 0.930 . S
H640 C653 0.929 . S
H641 C651 0.929 . S
H642 C646 0.929 . S
H643 C652 0.929 . S
C644 H638 0.930 . S
C644 C645 1.367 . S
C644 C652 1.378 . S
C645 C644 1.367 . S
C645 C653 1.433 . S
C646 H642 0.929 . S
C646 C648 1.378 . S
C646 C650 1.350 . S
C647 C650 1.463 . S
C647 C652 1.350 . S
C647 N655 1.427 . S
C648 H639 0.930 . S
C648 C646 1.378 . S
C648 C649 1.367 . S
C649 C648 1.367 . S
C649 C651 1.433 . S
C650 C646 1.350 . S
C650 C647 1.463 . S
C650 N654 1.427 . S
C651 H641 0.929 . S
C651 C649 1.433 . S
C651 N654 1.384 . S
C652 H643 0.929 . S
C652 C644 1.378 . S
C652 C647 1.350 . S
C653 H640 0.929 . S
C653 C645 1.433 . S
C653 N655 1.384 . S
N654 C650 1.427 . S
N654 C651 1.384 . S
N655 C647 1.427 . S
N655 C653 1.384 . S
H656 C662 0.930 . S
H657 C666 0.930 . S
H658 C671 0.929 . S
H659 C669 0.929 . S
H660 C664 0.929 . S
H661 C670 0.929 . S
C662 H656 0.930 . S
C662 C663 1.367 1_655 S
C662 C670 1.378 . S
C663 C662 1.367 1_455 S
C663 C671 1.433 . S
C664 H660 0.929 . S
C664 C666 1.378 . S
C664 C668 1.350 1_455 S
C665 C668 1.463 1_455 S
C665 C670 1.350 1_455 S
C665 N673 1.427 . S
C666 H657 0.930 . S
C666 C664 1.378 . S
C666 C667 1.367 1_455 S
C667 C666 1.367 1_655 S
C667 C669 1.433 . S
C668 C664 1.350 1_655 S
C668 C665 1.463 1_655 S
C668 N672 1.427 . S
C669 H659 0.929 . S
C669 C667 1.433 . S
C669 N672 1.384 . S
C670 H661 0.929 . S
C670 C662 1.378 . S
C670 C665 1.350 1_655 S
C671 H658 0.929 . S
C671 C663 1.433 . S
C671 N673 1.384 . S
N672 C668 1.427 . S
N672 C669 1.384 . S
N673 C665 1.427 . S
N673 C671 1.384 . S
H674 C680 0.930 . S
H675 C684 0.930 . S
H676 C689 0.929 . S
H677 C687 0.929 . S
H678 C682 0.929 . S
H679 C688 0.929 . S
C680 H674 0.930 . S
C680 C681 1.367 1_545 S
C680 C688 1.378 . S
C681 C680 1.367 1_565 S
C681 C689 1.433 . S
C682 H678 0.929 . S
C682 C684 1.378 . S
C682 C686 1.350 1_565 S
C683 C686 1.463 1_565 S
C683 C688 1.350 1_565 S
C683 N691 1.427 . S
C684 H675 0.930 . S
C684 C682 1.378 . S
C684 C685 1.367 1_565 S
C685 C684 1.367 1_545 S
C685 C687 1.433 . S
C686 C682 1.350 1_545 S
C686 C683 1.463 1_545 S
C686 N690 1.427 . S
C687 H677 0.929 . S
C687 C685 1.433 . S
C687 N690 1.384 . S
C688 H679 0.929 . S
C688 C680 1.378 . S
C688 C683 1.350 1_545 S
C689 H676 0.929 . S
C689 C681 1.433 . S
C689 N691 1.384 . S
N690 C686 1.427 . S
N690 C687 1.384 . S
N691 C683 1.427 . S
N691 C689 1.384 . S
H692 C698 0.930 . S
H693 C702 0.930 . S
H694 C707 0.929 . S
H695 C705 0.929 . S
H696 C700 0.929 . S
H697 C706 0.929 . S
C698 H692 0.930 . S
C698 C699 1.367 1_655 S
C698 C706 1.378 . S
C699 C698 1.367 1_455 S
C699 C707 1.433 . S
C700 H696 0.929 . S
C700 C702 1.378 . S
C700 C704 1.350 1_455 S
C701 C704 1.463 1_455 S
C701 C706 1.350 1_455 S
C701 N709 1.427 . S
C702 H693 0.930 . S
C702 C700 1.378 . S
C702 C703 1.367 1_455 S
C703 C702 1.367 1_655 S
C703 C705 1.433 . S
C704 C700 1.350 1_655 S
C704 C701 1.463 1_655 S
C704 N708 1.427 . S
C705 H695 0.929 . S
C705 C703 1.433 . S
C705 N708 1.384 . S
C706 H697 0.929 . S
C706 C698 1.378 . S
C706 C701 1.350 1_655 S
C707 H694 0.929 . S
C707 C699 1.433 . S
C707 N709 1.384 . S
N708 C704 1.427 . S
N708 C705 1.384 . S
N709 C701 1.427 . S
N709 C707 1.384 . S
H710 C716 0.930 . S
H711 C720 0.930 . S
H712 C725 0.929 . S
H713 C723 0.929 . S
H714 C718 0.929 . S
H715 C724 0.929 . S
C716 H710 0.930 . S
C716 C717 1.367 . S
C716 C724 1.378 . S
C717 C716 1.367 . S
C717 C725 1.433 1_545 S
C718 H714 0.929 . S
C718 C720 1.378 . S
C718 C722 1.350 . S
C719 C722 1.463 1_545 S
C719 C724 1.350 . S
C719 N727 1.427 1_545 S
C720 H711 0.930 . S
C720 C718 1.378 . S
C720 C721 1.367 . S
C721 C720 1.367 . S
C721 C723 1.433 1_565 S
C722 C718 1.350 . S
C722 C719 1.463 1_565 S
C722 N726 1.427 1_565 S
C723 H713 0.929 . S
C723 C721 1.433 1_545 S
C723 N726 1.384 . S
C724 H715 0.929 . S
C724 C716 1.378 . S
C724 C719 1.350 . S
C725 H712 0.929 . S
C725 C717 1.433 1_565 S
C725 N727 1.384 . S
N726 C722 1.427 1_545 S
N726 C723 1.384 . S
N727 C719 1.427 1_565 S
N727 C725 1.384 . S
H728 C734 0.930 . S
H729 C738 0.930 . S
H730 C743 0.929 . S
H731 C741 0.929 . S
H732 C736 0.929 . S
H733 C742 0.929 . S
C734 H728 0.930 . S
C734 C735 1.367 . S
C734 C742 1.378 . S
C735 C734 1.367 . S
C735 C743 1.433 . S
C736 H732 0.929 . S
C736 C738 1.378 . S
C736 C740 1.350 . S
C737 C740 1.463 1_556 S
C737 C742 1.350 . S
C737 N745 1.427 . S
C738 H729 0.930 . S
C738 C736 1.378 . S
C738 C739 1.367 . S
C739 C738 1.367 . S
C739 C741 1.433 . S
C740 C736 1.350 . S
C740 C737 1.463 1_554 S
C740 N744 1.427 . S
C741 H731 0.929 . S
C741 C739 1.433 . S
C741 N744 1.384 . S
C742 H733 0.929 . S
C742 C734 1.378 . S
C742 C737 1.350 . S
C743 H730 0.929 . S
C743 C735 1.433 . S
C743 N745 1.384 . S
N744 C740 1.427 . S
N744 C741 1.384 . S
N745 C737 1.427 . S
N745 C743 1.384 . S
H746 C752 0.930 . S
H747 C756 0.930 . S
H748 C761 0.929 . S
H749 C759 0.929 . S
H750 C754 0.929 . S
H751 C760 0.929 . S
C752 H746 0.930 . S
C752 C753 1.367 . S
C752 C760 1.378 . S
C753 C752 1.367 . S
C753 C761 1.433 . S
C754 H750 0.929 . S
C754 C756 1.378 . S
C754 C758 1.350 . S
C755 C758 1.463 1_556 S
C755 C760 1.350 . S
C755 N763 1.427 . S
C756 H747 0.930 . S
C756 C754 1.378 . S
C756 C757 1.367 . S
C757 C756 1.367 . S
C757 C759 1.433 . S
C758 C754 1.350 . S
C758 C755 1.463 1_554 S
C758 N762 1.427 . S
C759 H749 0.929 . S
C759 C757 1.433 . S
C759 N762 1.384 . S
C760 H751 0.929 . S
C760 C752 1.378 . S
C760 C755 1.350 . S
C761 H748 0.929 . S
C761 C753 1.433 . S
C761 N763 1.384 . S
N762 C758 1.427 . S
N762 C759 1.384 . S
N763 C755 1.427 . S
N763 C761 1.384 . S
H764 C770 0.930 . S
H765 C774 0.930 . S
H766 C779 0.929 . S
H767 C777 0.929 . S
H768 C772 0.929 . S
H769 C778 0.929 . S
C770 H764 0.930 . S
C770 C771 1.367 . S
C770 C778 1.378 . S
C771 C770 1.367 . S
C771 C779 1.433 . S
C772 H768 0.929 . S
C772 C774 1.378 . S
C772 C776 1.350 . S
C773 C776 1.463 1_554 S
C773 C778 1.350 . S
C773 N781 1.427 . S
C774 H765 0.930 . S
C774 C772 1.378 . S
C774 C775 1.367 . S
C775 C774 1.367 . S
C775 C777 1.433 . S
C776 C772 1.350 . S
C776 C773 1.463 1_556 S
C776 N780 1.427 . S
C777 H767 0.929 . S
C777 C775 1.433 . S
C777 N780 1.384 . S
C778 H769 0.929 . S
C778 C770 1.378 . S
C778 C773 1.350 . S
C779 H766 0.929 . S
C779 C771 1.433 . S
C779 N781 1.384 . S
N780 C776 1.427 . S
N780 C777 1.384 . S
N781 C773 1.427 . S
N781 C779 1.384 . S
H782 C788 0.930 . S
H783 C792 0.930 . S
H784 C797 0.929 . S
H785 C795 0.929 . S
H786 C790 0.929 . S
H787 C796 0.929 . S
C788 H782 0.930 . S
C788 C789 1.367 . S
C788 C796 1.378 . S
C789 C788 1.367 . S
C789 C797 1.433 . S
C790 H786 0.929 . S
C790 C792 1.378 . S
C790 C794 1.350 . S
C791 C794 1.463 1_556 S
C791 C796 1.350 . S
C791 N799 1.427 . S
C792 H783 0.930 . S
C792 C790 1.378 . S
C792 C793 1.367 . S
C793 C792 1.367 . S
C793 C795 1.433 . S
C794 C790 1.350 . S
C794 C791 1.463 1_554 S
C794 N798 1.427 . S
C795 H785 0.929 . S
C795 C793 1.433 . S
C795 N798 1.384 . S
C796 H787 0.929 . S
C796 C788 1.378 . S
C796 C791 1.350 . S
C797 H784 0.929 . S
C797 C789 1.433 . S
C797 N799 1.384 . S
N798 C794 1.427 . S
N798 C795 1.384 . S
N799 C791 1.427 . S
N799 C797 1.384 . S
C231 C7 1.434 . S
C235 C51 1.414 . S
C249 C9 1.418 . S
C253 C21 1.430 . S
C267 C23 1.421 . S
C271 C35 1.428 . S
C285 C37 1.411 . S
C289 C49 1.437 . S
C303 C63 1.445 . S
C307 C79 1.401 . S
C321 C77 1.445 . S
C325 C93 1.402 . S
C339 C91 1.445 . S
C343 C107 1.402 . S
C357 C105 1.444 . S
C361 C65 1.402 . S
C375 C119 1.430 . S
C379 C163 1.419 . S
C393 C121 1.420 . S
C397 C133 1.429 . S
C411 C135 1.418 . S
C415 C147 1.431 . S
C429 C161 1.429 . S
C433 C149 1.420 . S
C447 C191 1.420 . S
C451 C175 1.429 . S
C465 C205 1.404 . S
C469 C189 1.442 . S
C483 C203 1.445 . S
C487 C219 1.401 . S
C501 C217 1.428 . S
C505 C177 1.421 . S
C519 C8 1.252 . S
C523 C218 1.254 . S
C537 C22 1.247 . S
C541 C176 1.244 . S
C555 C190 1.247 . S
C559 C36 1.244 . S
C573 C50 1.242 . S
C577 C204 1.245 . S
C591 C134 1.241 . S
C595 C64 1.242 . S
C609 C148 1.243 . S
C613 C78 1.247 . S
C627 C92 1.241 . S
C631 C162 1.241 . S
C645 C106 1.254 . S
C649 C120 1.253 . S
C663 C3 1.625 . S
C667 C87 1.629 . S
C681 C101 1.626 . S
C685 C17 1.629 . S
C699 C59 1.629 . S
C703 C31 1.626 . S
C717 C73 1.627 . S
C721 C45 1.624 . S
C735 C115 1.624 . S
C739 C199 1.628 . S
C753 C129 1.626 . S
C757 C213 1.629 . S
C771 C171 1.624 . S
C775 C143 1.628 . S
C789 C157 1.627 . S
C793 C185 1.624 . S
