# Generated by pormake.
# Topology thp-x, (12)-cn, num edge types: 1
# Building blocks:
#     Node 0, Type 0, BuildingBlock: ZALLEG_clean_sbu_0, # of connection points: 12
#     Node 1, Type 0, BuildingBlock: ZALLEG_clean_sbu_0, # of connection points: 12
#     Node 2, Type 0, BuildingBlock: ZALLEG_clean_sbu_0, # of connection points: 12
#     Node 3, Type 0, BuildingBlock: ZALLEG_clean_sbu_0, # of connection points: 12
#     Node 4, Type 0, BuildingBlock: ZALLEG_clean_sbu_0, # of connection points: 12
#     Node 5, Type 0, BuildingBlock: ZALLEG_clean_sbu_0, # of connection points: 12
#     Node 6, Type 0, BuildingBlock: ZALLEG_clean_sbu_0, # of connection points: 12
#     Node 7, Type 0, BuildingBlock: ZALLEG_clean_sbu_0, # of connection points: 12
#     Node 8, Type 0, BuildingBlock: ZALLEG_clean_sbu_0, # of connection points: 12
#     Node 9, Type 0, BuildingBlock: ZALLEG_clean_sbu_0, # of connection points: 12
#     Node 10, Type 0, BuildingBlock: ZALLEG_clean_sbu_0, # of connection points: 12
#     Node 11, Type 0, BuildingBlock: ZALLEG_clean_sbu_0, # of connection points: 12
#     Edge 12, Type (0, 0), BuildingBlock: XIVTED_clean_linker_0, # of connection points: 2
#     Edge 13, Type (0, 0), BuildingBlock: XIVTED_clean_linker_0, # of connection points: 2
#     Edge 14, Type (0, 0), BuildingBlock: XIVTED_clean_linker_0, # of connection points: 2
#     Edge 15, Type (0, 0), BuildingBlock: XIVTED_clean_linker_0, # of connection points: 2
#     Edge 16, Type (0, 0), BuildingBlock: XIVTED_clean_linker_0, # of connection points: 2
#     Edge 17, Type (0, 0), BuildingBlock: XIVTED_clean_linker_0, # of connection points: 2
#     Edge 18, Type (0, 0), BuildingBlock: XIVTED_clean_linker_0, # of connection points: 2
#     Edge 19, Type (0, 0), BuildingBlock: XIVTED_clean_linker_0, # of connection points: 2
#     Edge 20, Type (0, 0), BuildingBlock: XIVTED_clean_linker_0, # of connection points: 2
#     Edge 21, Type (0, 0), BuildingBlock: XIVTED_clean_linker_0, # of connection points: 2
#     Edge 22, Type (0, 0), BuildingBlock: XIVTED_clean_linker_0, # of connection points: 2
#     Edge 23, Type (0, 0), BuildingBlock: XIVTED_clean_linker_0, # of connection points: 2
#     Edge 24, Type (0, 0), BuildingBlock: XIVTED_clean_linker_0, # of connection points: 2
#     Edge 25, Type (0, 0), BuildingBlock: XIVTED_clean_linker_0, # of connection points: 2
#     Edge 26, Type (0, 0), BuildingBlock: XIVTED_clean_linker_0, # of connection points: 2
#     Edge 27, Type (0, 0), BuildingBlock: XIVTED_clean_linker_0, # of connection points: 2
#     Edge 28, Type (0, 0), BuildingBlock: XIVTED_clean_linker_0, # of connection points: 2
#     Edge 29, Type (0, 0), BuildingBlock: XIVTED_clean_linker_0, # of connection points: 2
#     Edge 30, Type (0, 0), BuildingBlock: XIVTED_clean_linker_0, # of connection points: 2
#     Edge 31, Type (0, 0), BuildingBlock: XIVTED_clean_linker_0, # of connection points: 2
#     Edge 32, Type (0, 0), BuildingBlock: XIVTED_clean_linker_0, # of connection points: 2
#     Edge 33, Type (0, 0), BuildingBlock: XIVTED_clean_linker_0, # of connection points: 2
#     Edge 34, Type (0, 0), BuildingBlock: XIVTED_clean_linker_0, # of connection points: 2
#     Edge 35, Type (0, 0), BuildingBlock: XIVTED_clean_linker_0, # of connection points: 2
#     Edge 36, Type (0, 0), BuildingBlock: XIVTED_clean_linker_0, # of connection points: 2
#     Edge 37, Type (0, 0), BuildingBlock: XIVTED_clean_linker_0, # of connection points: 2
#     Edge 38, Type (0, 0), BuildingBlock: XIVTED_clean_linker_0, # of connection points: 2
#     Edge 39, Type (0, 0), BuildingBlock: XIVTED_clean_linker_0, # of connection points: 2
#     Edge 40, Type (0, 0), BuildingBlock: XIVTED_clean_linker_0, # of connection points: 2
#     Edge 41, Type (0, 0), BuildingBlock: XIVTED_clean_linker_0, # of connection points: 2
#     Edge 42, Type (0, 0), BuildingBlock: XIVTED_clean_linker_0, # of connection points: 2
#     Edge 43, Type (0, 0), BuildingBlock: XIVTED_clean_linker_0, # of connection points: 2
#     Edge 44, Type (0, 0), BuildingBlock: XIVTED_clean_linker_0, # of connection points: 2
#     Edge 45, Type (0, 0), BuildingBlock: XIVTED_clean_linker_0, # of connection points: 2
#     Edge 46, Type (0, 0), BuildingBlock: XIVTED_clean_linker_0, # of connection points: 2
#     Edge 47, Type (0, 0), BuildingBlock: XIVTED_clean_linker_0, # of connection points: 2
#     Edge 48, Type (0, 0), BuildingBlock: XIVTED_clean_linker_0, # of connection points: 2
#     Edge 49, Type (0, 0), BuildingBlock: XIVTED_clean_linker_0, # of connection points: 2
#     Edge 50, Type (0, 0), BuildingBlock: XIVTED_clean_linker_0, # of connection points: 2
#     Edge 51, Type (0, 0), BuildingBlock: XIVTED_clean_linker_0, # of connection points: 2
#     Edge 52, Type (0, 0), BuildingBlock: XIVTED_clean_linker_0, # of connection points: 2
#     Edge 53, Type (0, 0), BuildingBlock: XIVTED_clean_linker_0, # of connection points: 2
#     Edge 54, Type (0, 0), BuildingBlock: XIVTED_clean_linker_0, # of connection points: 2
#     Edge 55, Type (0, 0), BuildingBlock: XIVTED_clean_linker_0, # of connection points: 2
#     Edge 56, Type (0, 0), BuildingBlock: XIVTED_clean_linker_0, # of connection points: 2
#     Edge 57, Type (0, 0), BuildingBlock: XIVTED_clean_linker_0, # of connection points: 2
#     Edge 58, Type (0, 0), BuildingBlock: XIVTED_clean_linker_0, # of connection points: 2
#     Edge 59, Type (0, 0), BuildingBlock: XIVTED_clean_linker_0, # of connection points: 2
#     Edge 60, Type (0, 0), BuildingBlock: XIVTED_clean_linker_0, # of connection points: 2
#     Edge 61, Type (0, 0), BuildingBlock: XIVTED_clean_linker_0, # of connection points: 2
#     Edge 62, Type (0, 0), BuildingBlock: XIVTED_clean_linker_0, # of connection points: 2
#     Edge 63, Type (0, 0), BuildingBlock: XIVTED_clean_linker_0, # of connection points: 2
#     Edge 64, Type (0, 0), BuildingBlock: XIVTED_clean_linker_0, # of connection points: 2
#     Edge 65, Type (0, 0), BuildingBlock: XIVTED_clean_linker_0, # of connection points: 2
#     Edge 66, Type (0, 0), BuildingBlock: XIVTED_clean_linker_0, # of connection points: 2
#     Edge 67, Type (0, 0), BuildingBlock: XIVTED_clean_linker_0, # of connection points: 2
#     Edge 68, Type (0, 0), BuildingBlock: XIVTED_clean_linker_0, # of connection points: 2
#     Edge 69, Type (0, 0), BuildingBlock: XIVTED_clean_linker_0, # of connection points: 2
#     Edge 70, Type (0, 0), BuildingBlock: XIVTED_clean_linker_0, # of connection points: 2
#     Edge 71, Type (0, 0), BuildingBlock: XIVTED_clean_linker_0, # of connection points: 2
#     Edge 72, Type (0, 0), BuildingBlock: XIVTED_clean_linker_0, # of connection points: 2
#     Edge 73, Type (0, 0), BuildingBlock: XIVTED_clean_linker_0, # of connection points: 2
#     Edge 74, Type (0, 0), BuildingBlock: XIVTED_clean_linker_0, # of connection points: 2
#     Edge 75, Type (0, 0), BuildingBlock: XIVTED_clean_linker_0, # of connection points: 2
#     Edge 76, Type (0, 0), BuildingBlock: XIVTED_clean_linker_0, # of connection points: 2
#     Edge 77, Type (0, 0), BuildingBlock: XIVTED_clean_linker_0, # of connection points: 2
#     Edge 78, Type (0, 0), BuildingBlock: XIVTED_clean_linker_0, # of connection points: 2
#     Edge 79, Type (0, 0), BuildingBlock: XIVTED_clean_linker_0, # of connection points: 2
#     Edge 80, Type (0, 0), BuildingBlock: XIVTED_clean_linker_0, # of connection points: 2
#     Edge 81, Type (0, 0), BuildingBlock: XIVTED_clean_linker_0, # of connection points: 2
#     Edge 82, Type (0, 0), BuildingBlock: XIVTED_clean_linker_0, # of connection points: 2
#     Edge 83, Type (0, 0), BuildingBlock: XIVTED_clean_linker_0, # of connection points: 2
# Relax obj value: 0.246
# Max RMSD: 0.289
# Mean RMSD: 0.289
data_MOF--net-thp-x--node1-ZALLEG_clean_sbu_0--edge1-XIVTED_clean_linker_0
_symmetry_space_group_name_H-M    P1
_symmetry_Int_Tables_number       1
_symmetry_cell_setting            triclinic
loop_
_symmetry_equiv_pos_as_xyz
'x, y, z'
_cell_length_a     34.616774
_cell_length_b     34.617926
_cell_length_c     34.653391
_cell_angle_alpha  89.94267
_cell_angle_beta   90.072824
_cell_angle_gamma 89.991044
loop_
_atom_site_label
_atom_site_type_symbol
_atom_site_fract_x
_atom_site_fract_y
_atom_site_fract_z
_atom_type_partial_charge
H0 H 0.0953 0.19941 0.46103 0.0
O1 O 0.08222 0.21881 0.44472 0.0
Tb2 Tb 0.04817 0.25308 0.48123 0.0
Tb3 Tb 0.1224 0.25285 0.41345 0.0
Tb4 Tb 0.04577 0.19353 0.40344 0.0
O5 O 0.08981 0.28715 0.4525 0.0
O6 O 1.01148 0.22709 0.43911 0.0
O7 O 1.01953 0.29528 0.44743 0.0
O8 O 0.09596 0.29637 0.38062 0.0
O9 O 1.02001 0.23473 0.36676 0.0
O10 O 0.08811 0.22559 0.37248 0.0
H11 H 0.10632 0.30022 0.4717 0.0
H12 H 0.9912 0.21049 0.45041 0.0
Tb13 Tb 0.06136 0.32869 0.41947 0.0
Tb14 Tb 0.98666 0.26976 0.40301 0.0
H15 H 1.00242 0.31088 0.46407 0.0
H16 H 0.11519 0.3132 0.36791 0.0
Tb17 Tb 0.06129 0.26913 0.3385 0.0
H18 H 1.0048 0.22192 0.34637 0.0
H19 H 0.10475 0.20847 0.35692 0.0
O20 O 1.02716 0.30433 0.37522 0.0
H21 H 1.01365 0.32455 0.36027 0.0
O22 O 0.11161 0.24568 0.51219 0.0
O23 O 1.0125 0.27789 0.30093 0.0
O24 O 0.11579 0.26679 0.30966 0.0
O25 O 0.98186 0.25426 0.50317 0.0
O26 O 0.1459 0.19355 0.41309 0.0
O27 O 0.96019 0.32612 0.40918 0.0
O28 O 0.94716 0.22426 0.38821 0.0
O29 O 0.162 0.3009 0.42464 0.0
O30 O 0.03621 0.15506 0.45349 0.0
O31 O 0.06848 0.37368 0.37658 0.0
O32 O 0.05613 0.35435 0.47817 0.0
O33 O 0.04877 0.158 0.35307 0.0
O34 O 0.15906 0.24454 0.46207 0.0
O35 O 0.96013 0.27893 0.34557 0.0
O36 O 0.94233 0.26535 0.44753 0.0
O37 O 0.15997 0.25617 0.36145 0.0
O38 O 0.04941 0.30076 0.52096 0.0
O39 O 0.06013 0.20674 0.30539 0.0
O40 O 0.06742 0.33653 0.31859 0.0
O41 O 0.03927 0.19752 0.50751 0.0
O42 O 0.11825 0.35376 0.4272 0.0
O43 O 0.98854 0.16991 0.38955 0.0
O44 O 0.09188 0.15182 0.40714 0.0
O45 O 1.01295 0.36885 0.41839 0.0
C46 C 0.15023 0.24345 0.4991 0.0
C47 C 0.97511 0.28029 0.30983 0.0
C48 C 0.151 0.26126 0.32407 0.0
C49 C 0.94571 0.25885 0.48529 0.0
C50 C 0.12931 0.1584 0.41163 0.0
C51 C 0.97551 0.3609 0.41502 0.0
C52 C 0.95435 0.18699 0.38337 0.0
C53 C 0.15355 0.33826 0.42842 0.0
C54 C 0.03467 0.16288 0.49128 0.0
C55 C 0.06894 0.37214 0.33822 0.0
C56 C 0.05159 0.33844 0.51336 0.0
C57 C 0.05526 0.16787 0.31682 0.0
H58 H 0.59726 0.7043 0.95858 0.0
O59 O 0.58462 0.72311 0.94127 0.0
Tb60 Tb 0.55101 0.75937 0.97622 0.0
Tb61 Tb 0.62555 0.75515 0.90902 0.0
Tb62 Tb 0.5483 0.69661 0.90056 0.0
O63 O 0.59353 0.79171 0.94653 0.0
O64 O 0.51469 0.73258 0.93457 0.0
O65 O 0.5237 0.80062 0.94043 0.0
O66 O 0.60006 0.79776 0.87435 0.0
O67 O 0.52303 0.73645 0.862 0.0
O68 O 0.59136 0.72669 0.8688 0.0
H69 H 0.61025 0.80525 0.96523 0.0
H70 H 0.49416 0.71699 0.94674 0.0
Tb71 Tb 0.56616 0.8326 0.9117 0.0
Tb72 Tb 0.49087 0.77412 0.89658 0.0
H73 H 0.50677 0.81685 0.9566 0.0
H74 H 0.61965 0.81366 0.86101 0.0
Tb75 Tb 0.56532 0.76925 0.83309 0.0
H76 H 0.50717 0.72286 0.84257 0.0
H77 H 0.60789 0.7087 0.85411 0.0
O78 O 0.53188 0.80703 0.86801 0.0
H79 H 0.51851 0.8269 0.85246 0.0
O80 O 0.61409 0.75228 1.00793 0.0
O81 O 0.5173 0.77766 0.79469 0.0
O82 O 0.62011 0.76498 0.80489 0.0
O83 O 0.48409 0.76201 0.99739 0.0
O84 O 0.64797 0.69542 0.91179 0.0
O85 O 0.46547 0.83126 0.90134 0.0
O86 O 0.44989 0.7287 0.88613 0.0
O87 O 0.66623 0.80273 0.91793 0.0
O88 O 0.53816 0.66035 0.9521 0.0
O89 O 0.57377 0.87589 0.86668 0.0
O90 O 0.56095 0.86036 0.96971 0.0
O91 O 0.55111 0.65919 0.85106 0.0
O92 O 0.6616 0.7483 0.95811 0.0
O93 O 0.46461 0.78124 0.83874 0.0
O94 O 0.44657 0.77308 0.94059 0.0
O95 O 0.66368 0.75604 0.85745 0.0
O96 O 0.55257 0.80838 1.0142 0.0
O97 O 0.5636 0.70611 0.80195 0.0
O98 O 0.57248 0.83536 0.81074 0.0
O99 O 0.54095 0.70494 1.00445 0.0
O100 O 0.62369 0.85662 0.91833 0.0
O101 O 0.49028 0.6737 0.89022 0.0
O102 O 0.59345 0.65423 0.90692 0.0
O103 O 0.51852 0.87353 0.91098 0.0
C104 C 0.65269 0.74878 0.9951 0.0
C105 C 0.47994 0.78123 0.80314 0.0
C106 C 0.65518 0.75979 0.81983 0.0
C107 C 0.44847 0.76734 0.97852 0.0
C108 C 0.63086 0.66048 0.912 0.0
C109 C 0.48103 0.86588 0.90786 0.0
C110 C 0.45598 0.69092 0.88524 0.0
C111 C 0.65866 0.84039 0.91996 0.0
C112 C 0.53619 0.66973 0.98953 0.0
C113 C 0.57463 0.87185 0.82848 0.0
C114 C 0.55563 0.84572 1.0054 0.0
C115 C 0.55822 0.66773 0.81451 0.0
H116 H 1.01379 0.71446 0.22413 0.0
O117 O 1.02766 0.73021 0.20482 0.0
Tb118 Tb 0.06388 0.77054 0.23291 0.0
Tb119 Tb 0.06055 0.69505 0.16794 0.0
Tb120 Tb 0.9889 0.75948 0.16888 0.0
O121 O 0.09736 0.73379 0.19822 0.0
O122 O 1.02335 0.80013 0.19718 0.0
O123 O 0.09149 0.80441 0.18983 0.0
O124 O 0.09064 0.72618 0.12573 0.0
O125 O 1.01637 0.79023 0.1251 0.0
O126 O 1.02015 0.72199 0.13195 0.0
H127 H 0.1167 0.72061 0.21459 0.0
H128 H 1.00757 0.81819 0.21262 0.0
Tb129 Tb 0.12402 0.7675 0.15559 0.0
Tb130 Tb 0.05127 0.83064 0.15268 0.0
H131 H 0.10795 0.82492 0.20081 0.0
H132 H 0.10758 0.70905 0.11053 0.0
Tb133 Tb 0.0504 0.7539 0.08924 0.0
H134 H 0.99598 0.80312 0.11 0.0
H135 H 1.00295 0.70286 0.11954 0.0
O136 O 0.08535 0.79521 0.11719 0.0
H137 H 0.09847 0.81026 0.09683 0.0
O138 O 0.06995 0.70808 0.26584 0.0
O139 O 0.0395 0.80234 0.05143 0.0
O140 O 0.05282 0.69633 0.06435 0.0
O141 O 0.06244 0.83685 0.25398 0.0
O142 O 1.00888 0.65925 0.17929 0.0
O143 O 0.10013 0.86728 0.13891 0.0
O144 O 0.99707 0.86121 0.15656 0.0
O145 O 0.11601 0.66628 0.1691 0.0
O146 O 0.96229 0.76514 0.22609 0.0
O147 O 0.16052 0.76504 0.107 0.0
O148 O 0.16292 0.78037 0.2035 0.0
O149 O 0.94517 0.75268 0.12494 0.0
O150 O 0.06674 0.65915 0.2174 0.0
O151 O 0.03776 0.85512 0.09568 0.0
O152 O 0.05582 0.87553 0.19703 0.0
O153 O 0.05931 0.65511 0.11913 0.0
O154 O 0.12074 0.78153 0.25769 0.0
O155 O 0.98344 0.74931 0.06778 0.0
O156 O 0.11417 0.75442 0.05735 0.0
O157 O 1.01453 0.77111 0.27068 0.0
O158 O 0.16139 0.71609 0.15744 0.0
O159 O 0.95143 0.81082 0.16369 0.0
O160 O 0.95877 0.70578 0.17676 0.0
O161 O 0.15164 0.82251 0.14183 0.0
C162 C 0.06995 0.66901 0.25398 0.0
C163 C 0.0337 0.83948 0.06046 0.0
C164 C 0.0569 0.66163 0.08125 0.0
C165 C 0.05967 0.87269 0.23527 0.0
C166 C 0.97179 0.66991 0.18063 0.0
C167 C 0.1372 0.85778 0.13577 0.0
C168 C 0.96119 0.84796 0.15946 0.0
C169 C 0.15185 0.67918 0.16355 0.0
C170 C 0.97703 0.77042 0.26153 0.0
C171 C 0.15275 0.75878 0.0704 0.0
C172 C 0.1554 0.78606 0.24075 0.0
C173 C 0.94746 0.75036 0.08672 0.0
H174 H 0.44997 0.999 0.37277 0.0
O175 O 0.43733 1.01641 0.35398 0.0
Tb176 Tb 0.39917 0.05382 0.38208 0.0
Tb177 Tb 0.47941 0.05008 0.32553 0.0
Tb178 Tb 0.4038 0.9852 0.31318 0.0
O179 O 0.44096 0.08778 0.35439 0.0
O180 O 0.36519 1.02097 0.34371 0.0
O181 O 0.36861 0.09128 0.34413 0.0
O182 O 0.45105 0.08645 0.28559 0.0
O183 O 0.37481 1.02108 0.27423 0.0
O184 O 0.44741 1.01644 0.28545 0.0
H185 H 0.45475 0.10452 0.37294 0.0
H186 H 0.34591 1.00565 0.35811 0.0
Tb187 Tb 0.41094 0.12238 0.31387 0.0
Tb188 Tb 0.33645 0.05836 0.30485 0.0
H189 H 0.35055 0.10899 0.35726 0.0
H190 H 0.47084 0.10172 0.27191 0.0
Tb191 Tb 0.41859 0.05295 0.24699 0.0
H192 H 0.36085 1.00569 0.25468 0.0
H193 H 0.46465 0.99825 0.2719 0.0
O194 O 0.37921 0.08992 0.2742 0.0
H195 H 0.36796 0.10643 0.25387 0.0
O196 O 0.44709 0.05177 0.4235 0.0
O197 O 0.37484 0.05663 0.20083 0.0
O198 O 0.47753 0.0478 0.22445 0.0
O199 O 0.34867 0.05669 0.41714 0.0
O200 O 0.50335 0.98436 0.32959 0.0
O201 O 0.30951 0.11458 0.29504 0.0
O202 O 0.30115 1.00727 0.30103 0.0
O203 O 0.50975 0.11346 0.32738 0.0
O204 O 0.39581 0.95217 0.36518 0.0
O205 O 0.42472 0.15382 0.26095 0.0
O206 O 0.4021 0.15687 0.36602 0.0
O207 O 0.41313 0.95175 0.25927 0.0
O208 O 0.50293 0.05115 0.38346 0.0
O209 O 0.31674 0.05875 0.23811 0.0
O210 O 0.30179 0.06152 0.36672 0.0
O211 O 0.51989 0.04594 0.27877 0.0
O212 O 0.39384 0.10798 0.41312 0.0
O213 O 0.41968 1.00121 0.21259 0.0
O214 O 0.42982 0.10474 0.2138 0.0
O215 O 0.38919 0.99951 0.41417 0.0
O216 O 0.45933 0.16032 0.322 0.0
O217 O 0.34798 0.95655 0.30341 0.0
O218 O 0.44912 0.94248 0.32043 0.0
O219 O 0.36169 0.15925 0.29997 0.0
C220 C 0.48523 0.05188 0.41783 0.0
C221 C 0.33626 0.05822 0.20268 0.0
C222 C 0.51261 0.04627 0.24095 0.0
C223 C 0.31239 0.06031 0.40621 0.0
C224 C 0.4867 0.94743 0.32657 0.0
C225 C 0.32509 0.15009 0.29226 0.0
C226 C 0.31196 0.97025 0.29917 0.0
C227 C 0.49638 0.15185 0.3257 0.0
C228 C 0.39034 0.96301 0.40155 0.0
C229 C 0.43135 0.14142 0.22509 0.0
C230 C 0.39531 0.1449 0.40198 0.0
C231 C 0.41824 0.96435 0.22301 0.0
H232 H 0.30447 0.47225 0.95769 0.0
O233 O 0.29034 0.4511 0.97055 0.0
Tb234 Tb 0.25051 0.47678 1.00867 0.0
Tb235 Tb 0.26127 0.41401 0.93169 0.0
Tb236 Tb 0.32836 0.41514 1.00124 0.0
O237 O 0.22101 0.44175 0.96836 0.0
O238 O 0.28947 0.44069 0.03935 0.0
O239 O 0.22113 0.43236 0.03886 0.0
O240 O 0.22988 0.36983 0.95888 0.0
O241 O 0.30009 0.36921 1.029 0.0
O242 O 0.30059 0.37905 0.96102 0.0
H243 H 0.20272 0.45736 0.95295 0.0
H244 H 0.30287 0.45552 0.05959 0.0
Tb245 Tb 0.19234 0.39773 0.99868 0.0
Tb246 Tb 0.26114 0.39531 0.06673 0.0
H247 H 0.20279 0.44355 0.05763 0.0
H248 H 0.21615 0.35374 0.93975 0.0
Tb249 Tb 0.26881 0.33437 0.9889 0.0
H250 H 0.31942 0.35381 0.04329 0.0
H251 H 0.32052 0.36897 0.94332 0.0
O252 O 0.23016 0.36024 1.02827 0.0
H253 H 0.21582 0.3398 0.04207 0.0
O254 O 0.24949 0.51124 0.94675 0.0
O255 O 0.27353 0.29441 0.03641 0.0
O256 O 0.27726 0.31204 0.93068 0.0
O257 O 0.2477 0.49601 0.07616 0.0
O258 O 0.31429 0.43059 0.90173 0.0
O259 O 0.20991 0.38468 0.0997 0.0
O260 O 0.31438 0.40045 0.10147 0.0
O261 O 0.20891 0.41028 0.89649 0.0
O262 O 0.35243 0.47231 1.01504 0.0
O263 O 0.15636 0.34854 0.99129 0.0
O264 O 0.15189 0.44585 1.00591 0.0
O265 O 0.37348 0.37105 0.99349 0.0
O266 O 0.25409 0.46402 0.89673 0.0
O267 O 0.27022 0.33709 0.09032 0.0
O268 O 0.25533 0.43785 0.11238 0.0
O269 O 0.27323 0.36778 0.89058 0.0
O270 O 0.19282 0.50109 1.01012 0.0
O271 O 0.33517 0.31379 0.98745 0.0
O272 O 0.20609 0.30115 0.98416 0.0
O273 O 0.2985 0.51517 1.01865 0.0
O274 O 0.1612 0.39867 0.94407 0.0
O275 O 0.36204 0.41093 0.0537 0.0
O276 O 0.36157 0.43184 0.95098 0.0
O277 O 0.16057 0.38227 0.05226 0.0
C278 C 0.25106 0.50035 0.90745 0.0
C279 C 0.27556 0.30231 0.07407 0.0
C280 C 0.27968 0.33031 0.89648 0.0
C281 C 0.25089 0.47607 0.11144 0.0
C282 C 0.35012 0.43677 0.91464 0.0
C283 C 0.17357 0.37984 0.08864 0.0
C284 C 0.35081 0.40656 0.09011 0.0
C285 C 0.17265 0.40365 0.90756 0.0
C286 C 0.33611 0.50688 1.0216 0.0
C287 C 0.16675 0.31237 0.98594 0.0
C288 C 0.15823 0.48376 1.00879 0.0
C289 C 0.37087 0.33273 0.9893 0.0
H290 H 0.70552 0.50826 0.25531 0.0
O291 O 0.69018 0.52309 0.2742 0.0
Tb292 Tb 0.72631 0.55933 0.30794 0.0
Tb293 Tb 0.64746 0.55542 0.2453 0.0
Tb294 Tb 0.66033 0.48615 0.31113 0.0
O295 O 0.68556 0.59207 0.27612 0.0
O296 O 0.6963 0.52136 0.34456 0.0
O297 O 0.69154 0.59079 0.34711 0.0
O298 O 0.61294 0.58793 0.28281 0.0
O299 O 0.62354 0.51512 0.35015 0.0
O300 O 0.61759 0.51735 0.2813 0.0
H301 H 0.69896 0.60977 0.2582 0.0
H302 H 0.71555 0.50612 0.35907 0.0
Tb303 Tb 0.6515 0.62301 0.31515 0.0
Tb304 Tb 0.65909 0.55198 0.38174 0.0
H305 H 0.70756 0.60796 0.36334 0.0
H306 H 0.59415 0.60366 0.26816 0.0
Tb307 Tb 0.58277 0.54966 0.31976 0.0
H308 H 0.61099 0.49623 0.36746 0.0
H309 H 0.60138 0.49923 0.26641 0.0
O310 O 0.61904 0.58624 0.35197 0.0
H311 H 0.60291 0.60103 0.3702 0.0
O312 O 0.74846 0.56248 0.2415 0.0
O313 O 0.55536 0.54452 0.37537 0.0
O314 O 0.5447 0.54733 0.27037 0.0
O315 O 0.7581 0.55939 0.37118 0.0
O316 O 0.64858 0.50332 0.21006 0.0
O317 O 0.65669 0.6027 0.41823 0.0
O318 O 0.66932 0.49741 0.41153 0.0
O319 O 0.64185 0.60893 0.21405 0.0
O320 O 0.71658 0.45754 0.30486 0.0
O321 O 0.60277 0.66077 0.32102 0.0
O322 O 0.70428 0.65918 0.30923 0.0
O323 O 0.61481 0.44296 0.3152 0.0
O324 O 0.69235 0.55902 0.20125 0.0
O325 O 0.60824 0.54611 0.41947 0.0
O326 O 0.70852 0.55518 0.41888 0.0
O327 O 0.58964 0.54918 0.21827 0.0
O328 O 0.75596 0.61357 0.30785 0.0
O329 O 0.55942 0.48382 0.32129 0.0
O330 O 0.55253 0.61331 0.32385 0.0
O331 O 0.76235 0.50902 0.30218 0.0
O332 O 0.64176 0.65744 0.26244 0.0
O333 O 0.67117 0.45108 0.36154 0.0
O334 O 0.6562 0.45455 0.25739 0.0
O335 O 0.65197 0.65228 0.37117 0.0
C336 C 0.73057 0.56163 0.205 0.0
C337 C 0.57076 0.54303 0.41075 0.0
C338 C 0.55382 0.54591 0.23297 0.0
C339 C 0.74552 0.55765 0.40992 0.0
C340 C 0.65173 0.46662 0.22118 0.0
C341 C 0.65327 0.63942 0.40771 0.0
C342 C 0.67361 0.46138 0.39841 0.0
C343 C 0.64005 0.64542 0.22583 0.0
C344 C 0.75239 0.47179 0.30171 0.0
C345 C 0.56573 0.6519 0.32393 0.0
C346 C 0.74179 0.64934 0.30781 0.0
C347 C 0.57681 0.44724 0.31914 0.0
H348 H 0.71183 0.20612 0.94323 0.0
O349 O 0.7281 0.19129 0.96143 0.0
Tb350 Tb 0.76723 0.22774 0.99137 0.0
Tb351 Tb 0.69361 0.15998 1.00143 0.0
Tb352 Tb 0.76071 0.15024 0.9317 0.0
O353 O 0.73073 0.19876 1.03009 0.0
O354 O 0.79954 0.18588 0.96123 0.0
O355 O 0.80095 0.19379 1.02984 0.0
O356 O 0.72535 0.12653 0.04016 0.0
O357 O 0.79363 0.11383 0.96857 0.0
O358 O 0.72418 0.11888 0.96946 0.0
H359 H 0.71608 0.21892 0.0438 0.0
H360 H 0.81725 0.19881 0.94299 0.0
Tb361 Tb 0.76386 0.16495 0.06765 0.0
Tb362 Tb 0.83083 0.15005 0.99993 0.0
H363 H 0.81945 0.21024 0.04405 0.0
H364 H 0.70797 0.11481 0.0595 0.0
Tb365 Tb 0.75674 0.0848 1.00771 0.0
H366 H 0.80849 0.09466 0.95355 0.0
H367 H 0.70628 0.10173 0.95541 0.0
O368 O 0.79474 0.12132 0.03886 0.0
H369 H 0.80971 0.10609 0.0578 0.0
O370 O 0.70411 0.25897 0.98899 0.0
O371 O 0.8065 0.04756 1.01081 0.0
O372 O 0.70163 0.05663 1.01376 0.0
O373 O 0.8335 0.25041 0.9873 0.0
O374 O 0.65736 0.15357 0.95092 0.0
O375 O 0.86542 0.15527 0.05297 0.0
O376 O 0.86163 0.14261 0.94611 0.0
O377 O 0.66334 0.1742 0.05476 0.0
O378 O 0.76622 0.20078 0.89276 0.0
O379 O 0.75834 0.12121 0.11296 0.0
O380 O 0.76943 0.22297 0.09288 0.0
O381 O 0.75596 0.10035 0.89584 0.0
O382 O 0.65646 0.2093 0.99493 0.0
O383 O 0.85849 0.09287 1.00892 0.0
O384 O 0.87444 0.19506 0.99387 0.0
O385 O 0.65667 0.10868 1.0096 0.0
O386 O 0.77106 0.26667 0.03968 0.0
O387 O 0.75278 0.05205 0.94519 0.0
O388 O 0.75543 0.06403 0.07444 0.0
O389 O 0.76745 0.25454 0.93563 0.0
O390 O 0.7132 0.17854 0.10126 0.0
O391 O 0.81316 0.14096 0.89751 0.0
O392 O 0.7048 0.14799 0.90201 0.0
O393 O 0.81682 0.1627 0.10046 0.0
C394 C 0.66548 0.24621 0.99082 0.0
C395 C 0.84383 0.05702 1.01229 0.0
C396 C 0.666 0.07145 1.01425 0.0
C397 C 0.8702 0.233 0.98907 0.0
C398 C 0.66812 0.14867 0.9145 0.0
C399 C 0.85341 0.15917 0.08939 0.0
C400 C 0.84975 0.14019 0.90954 0.0
C401 C 0.67663 0.18196 0.09009 0.0
C402 C 0.7677 0.23866 0.90061 0.0
C403 C 0.75592 0.08286 0.11033 0.0
C404 C 0.77091 0.25844 0.07731 0.0
C405 C 0.75289 0.06376 0.9061 0.0
H406 H 0.20858 0.70693 0.45058 0.0
O407 O 0.22596 0.69198 0.4676 0.0
Tb408 Tb 0.26666 0.72807 0.49575 0.0
Tb409 Tb 0.19402 0.65975 0.50882 0.0
Tb410 Tb 0.2566 0.65184 0.43503 0.0
O411 O 0.23244 0.69829 0.53612 0.0
O412 O 0.29732 0.68702 0.46274 0.0
O413 O 0.30275 0.69326 0.53128 0.0
O414 O 0.22835 0.62568 0.54437 0.0
O415 O 0.29192 0.61479 0.46894 0.0
O416 O 0.22244 0.61925 0.47389 0.0
H417 H 0.21829 0.71792 0.55112 0.0
H418 H 0.31392 0.70047 0.44383 0.0
Tb419 Tb 0.26818 0.66364 0.57056 0.0
Tb420 Tb 0.33092 0.65024 0.49871 0.0
H421 H 0.32195 0.70925 0.54508 0.0
H422 H 0.21196 0.61358 0.5643 0.0
Tb423 Tb 0.25753 0.58452 0.50923 0.0
H424 H 0.30618 0.59604 0.45287 0.0
H425 H 0.20406 0.60218 0.46033 0.0
O426 O 0.29714 0.62052 0.53907 0.0
H427 H 0.31291 0.60481 0.55696 0.0
O428 O 0.2032 0.75904 0.496 0.0
O429 O 0.30747 0.54736 0.50976 0.0
O430 O 0.20281 0.55608 0.51733 0.0
O431 O 0.33274 0.75113 0.49027 0.0
O432 O 0.15443 0.6542 0.46094 0.0
O433 O 0.36877 0.65392 0.54943 0.0
O434 O 0.35814 0.64369 0.44276 0.0
O435 O 0.16744 0.67156 0.56474 0.0
O436 O 0.25862 0.70298 0.39677 0.0
O437 O 0.26468 0.61903 0.61511 0.0
O438 O 0.27502 0.72113 0.59686 0.0
O439 O 0.25145 0.60295 0.39841 0.0
O440 O 0.15646 0.70905 0.50507 0.0
O441 O 0.35917 0.59284 0.5055 0.0
O442 O 0.37404 0.69566 0.49192 0.0
O443 O 0.15775 0.60823 0.51854 0.0
O444 O 0.27288 0.76593 0.5446 0.0
O445 O 0.25227 0.55295 0.44592 0.0
O446 O 0.25789 0.56274 0.57568 0.0
O447 O 0.26396 0.75586 0.44043 0.0
O448 O 0.22013 0.67556 0.60802 0.0
O449 O 0.30663 0.64326 0.39734 0.0
O450 O 0.19855 0.64997 0.40889 0.0
O451 O 0.32318 0.66029 0.59995 0.0
C452 C 0.16477 0.74601 0.49982 0.0
C453 C 0.34481 0.55688 0.50942 0.0
C454 C 0.16739 0.5709 0.5213 0.0
C455 C 0.36954 0.73382 0.4897 0.0
C456 C 0.16269 0.65038 0.42378 0.0
C457 C 0.359 0.65675 0.58656 0.0
C458 C 0.34387 0.64174 0.40698 0.0
C459 C 0.18281 0.67786 0.59958 0.0
C460 C 0.26084 0.74065 0.40522 0.0
C461 C 0.26041 0.58091 0.61184 0.0
C462 C 0.27535 0.75692 0.58196 0.0
C463 C 0.25052 0.5659 0.40722 0.0
H464 H 0.94863 0.49838 0.87541 0.0
O465 O 0.93597 0.51575 0.8566 0.0
Tb466 Tb 0.89836 0.55383 0.88453 0.0
Tb467 Tb 0.97833 0.54866 0.8276 0.0
Tb468 Tb 0.90167 0.48441 0.81658 0.0
O469 O 0.94047 0.58699 0.8563 0.0
O470 O 0.86362 0.52085 0.84684 0.0
O471 O 0.86811 0.59115 0.84623 0.0
O472 O 0.95059 0.58495 0.78706 0.0
O473 O 0.87319 0.52035 0.77722 0.0
O474 O 0.94529 0.51496 0.78834 0.0
H475 H 0.95454 0.60378 0.87459 0.0
H476 H 0.84432 0.50574 0.86146 0.0
Tb477 Tb 0.91081 0.62139 0.81543 0.0
Tb478 Tb 0.83527 0.55817 0.80751 0.0
H479 H 0.85026 0.60912 0.8593 0.0
H480 H 0.97054 0.59961 0.7729 0.0
Tb481 Tb 0.91719 0.55135 0.74924 0.0
H482 H 0.85882 0.50509 0.75789 0.0
H483 H 0.96178 0.4959 0.77508 0.0
O484 O 0.87835 0.58889 0.77643 0.0
H485 H 0.86709 0.60539 0.7561 0.0
O486 O 0.94633 0.5518 0.92579 0.0
O487 O 0.8732 0.55605 0.70343 0.0
O488 O 0.97574 0.54286 0.72633 0.0
O489 O 0.84805 0.55727 0.9197 0.0
O490 O 1.00186 0.48284 0.83203 0.0
O491 O 0.80916 0.61483 0.79754 0.0
O492 O 0.79922 0.50753 0.80362 0.0
O493 O 1.00945 0.61178 0.82883 0.0
O494 O 0.89369 0.45214 0.869 0.0
O495 O 0.92393 0.65218 0.76209 0.0
O496 O 0.90248 0.65664 0.86708 0.0
O497 O 0.90925 0.45018 0.76313 0.0
O498 O 1.00201 0.54977 0.88555 0.0
O499 O 0.81517 0.55808 0.74081 0.0
O500 O 0.80092 0.56171 0.86946 0.0
O501 O 1.01816 0.54175 0.78064 0.0
O502 O 0.89374 0.60851 0.91489 0.0
O503 O 0.91632 0.49893 0.71572 0.0
O504 O 0.92863 0.60276 0.71528 0.0
O505 O 0.88888 0.50002 0.91766 0.0
O506 O 0.95957 0.65909 0.82297 0.0
O507 O 0.84544 0.45636 0.80691 0.0
O508 O 0.9472 0.44136 0.82357 0.0
O509 O 0.862 0.65881 0.80171 0.0
C510 C 0.98442 0.55108 0.92 0.0
C511 C 0.83461 0.55769 0.70533 0.0
C512 C 1.01065 0.53938 0.74293 0.0
C513 C 0.81173 0.56072 0.90888 0.0
C514 C 0.98498 0.446 0.82933 0.0
C515 C 0.82522 0.65014 0.79446 0.0
C516 C 0.80964 0.4704 0.80178 0.0
C517 C 0.99653 0.65034 0.82687 0.0
C518 C 0.88946 0.46339 0.90541 0.0
C519 C 0.92987 0.63959 0.7262 0.0
C520 C 0.89563 0.64527 0.90321 0.0
C521 C 0.91389 0.46225 0.72669 0.0
H522 H 0.804 0.97457 0.45843 0.0
O523 O 0.7898 0.95379 0.47181 0.0
Tb524 Tb 0.74955 0.98067 0.50844 0.0
Tb525 Tb 0.76111 0.91561 0.4338 0.0
Tb526 Tb 0.82717 0.91874 0.50436 0.0
O527 O 0.72036 0.94449 0.46902 0.0
O528 O 0.78808 0.94584 0.54126 0.0
O529 O 0.71962 0.93752 0.53988 0.0
O530 O 0.72931 0.87242 0.4622 0.0
O531 O 0.79832 0.87395 0.5333 0.0
O532 O 0.79985 0.88154 0.46495 0.0
H533 H 0.70224 0.95964 0.45296 0.0
H534 H 0.80142 0.9612 0.56118 0.0
Tb535 Tb 0.6912 0.90166 0.50051 0.0
Tb536 Tb 0.75911 0.90155 0.5699 0.0
H537 H 0.70104 0.9494 0.55795 0.0
H538 H 0.71583 0.85569 0.44344 0.0
Tb539 Tb 0.76772 0.83784 0.49394 0.0
H540 H 0.8174 0.85873 0.5481 0.0
H541 H 0.82003 0.87088 0.44789 0.0
O542 O 0.72865 0.86522 0.53197 0.0
H543 H 0.71408 0.84523 0.54618 0.0
O544 O 0.74864 1.01343 0.4457 0.0
O545 O 0.77175 0.79968 0.54306 0.0
O546 O 0.77702 0.81351 0.43665 0.0
O547 O 0.74539 1.00222 0.57462 0.0
O548 O 0.81468 0.93113 0.40427 0.0
O549 O 0.70716 0.89267 0.60228 0.0
O550 O 0.81211 0.90626 0.60493 0.0
O551 O 0.70934 0.91064 0.39797 0.0
O552 O 0.85137 0.97611 0.51647 0.0
O553 O 0.65528 0.85209 0.49405 0.0
O554 O 0.65101 0.95052 0.50621 0.0
O555 O 0.87236 0.87455 0.49792 0.0
O556 O 0.75444 0.96483 0.39721 0.0
O557 O 0.76758 0.84408 0.59562 0.0
O558 O 0.75298 0.94606 0.61424 0.0
O559 O 0.77378 0.86789 0.39461 0.0
O560 O 0.69229 1.00556 0.50841 0.0
O561 O 0.83421 0.81707 0.49372 0.0
O562 O 0.70509 0.80447 0.48928 0.0
O563 O 0.79756 1.0192 0.5176 0.0
O564 O 0.66098 0.90089 0.44536 0.0
O565 O 0.86016 0.91508 0.55722 0.0
O566 O 0.86126 0.93383 0.45415 0.0
O567 O 0.6588 0.88758 0.55406 0.0
C568 C 0.75073 1.00148 0.40677 0.0
C569 C 0.77302 0.80881 0.58049 0.0
C570 C 0.78014 0.83064 0.40192 0.0
C571 C 0.74788 0.9841 0.6108 0.0
C572 C 0.85034 0.93765 0.41752 0.0
C573 C 0.67109 0.88685 0.59076 0.0
C574 C 0.84872 0.91099 0.5936 0.0
C575 C 0.67295 0.90442 0.40882 0.0
C576 C 0.83517 1.01104 0.52105 0.0
C577 C 0.66572 0.81571 0.49004 0.0
C578 C 0.65756 0.98854 0.50798 0.0
C579 C 0.86993 0.83611 0.49499 0.0
H580 H 0.20768 1.00811 0.75379 0.0
O581 O 0.1926 1.02275 0.77304 0.0
Tb582 Tb 0.22902 0.05987 0.80556 0.0
Tb583 Tb 0.14872 0.05422 0.74502 0.0
Tb584 Tb 0.16429 0.98548 0.81095 0.0
O585 O 0.18697 0.09172 0.7746 0.0
O586 O 0.20063 1.02163 0.84303 0.0
O587 O 0.19495 0.09109 0.84553 0.0
O588 O 0.11477 0.08643 0.78341 0.0
O589 O 0.12825 1.01416 0.85092 0.0
O590 O 0.12033 1.01603 0.78217 0.0
H591 H 0.19959 0.1095 0.7562 0.0
H592 H 0.22075 1.00693 0.85687 0.0
Tb593 Tb 0.15354 0.12239 0.81438 0.0
Tb594 Tb 0.16415 0.05183 0.88121 0.0
H595 H 0.21109 0.10866 0.8612 0.0
H596 H 0.09533 0.10186 0.76927 0.0
Tb597 Tb 0.08616 0.0481 0.82154 0.0
H598 H 0.11661 0.99511 0.86869 0.0
H599 H 0.10393 0.99766 0.7678 0.0
O600 O 0.12276 0.08533 0.85239 0.0
H601 H 0.1068 0.09988 0.87094 0.0
O602 O 0.24971 0.06309 0.73876 0.0
O603 O 0.06065 0.04285 0.87819 0.0
O604 O 0.04675 0.04549 0.77338 0.0
O605 O 0.26234 0.06045 0.86804 0.0
O606 O 0.1498 1.00184 0.71008 0.0
O607 O 0.16134 0.10281 0.91747 0.0
O608 O 0.17725 0.99756 0.91077 0.0
O609 O 0.14137 0.1074 0.71361 0.0
O610 O 0.22111 0.958 0.80312 0.0
O611 O 0.10461 0.15972 0.8213 0.0
O612 O 0.20548 0.15937 0.80659 0.0
O613 O 0.11921 0.94168 0.81674 0.0
O614 O 0.19277 0.05838 0.69984 0.0
O615 O 0.11489 0.04497 0.92054 0.0
O616 O 0.21416 0.05671 0.91719 0.0
O617 O 0.0901 0.04729 0.71989 0.0
O618 O 0.25778 0.11453 0.80431 0.0
O619 O 0.06356 0.98203 0.82375 0.0
O620 O 0.05519 0.11159 0.82615 0.0
O621 O 0.2658 1.01033 0.79892 0.0
O622 O 0.14162 0.15622 0.7617 0.0
O623 O 0.17798 0.95091 0.86101 0.0
O624 O 0.15906 0.95351 0.75759 0.0
O625 O 0.15466 0.15196 0.87019 0.0
C626 C 0.23107 0.06173 0.70269 0.0
C627 C 0.07721 0.04153 0.91308 0.0
C628 C 0.05475 0.04412 0.73574 0.0
C629 C 0.25081 0.05922 0.90713 0.0
C630 C 0.15364 0.96525 0.7214 0.0
C631 C 0.15677 0.13938 0.90679 0.0
C632 C 0.18239 0.96164 0.89758 0.0
C633 C 0.13915 0.14393 0.72522 0.0
C634 C 0.2566 0.97291 0.79896 0.0
C635 C 0.06781 0.15043 0.82548 0.0
C636 C 0.24307 0.15008 0.80417 0.0
C637 C 0.0812 0.94558 0.82144 0.0
H638 H 0.51642 0.21367 0.72268 0.0
O639 O 0.52985 0.22923 0.70289 0.0
Tb640 Tb 0.5667 0.27009 0.72937 0.0
Tb641 Tb 0.56214 0.1937 0.66561 0.0
Tb642 Tb 0.48994 0.2582 0.66781 0.0
O643 O 0.59943 0.23328 0.69422 0.0
O644 O 0.52515 0.29929 0.69443 0.0
O645 O 0.59292 0.30344 0.685 0.0
O646 O 0.59085 0.22437 0.62215 0.0
O647 O 0.51627 0.28816 0.62307 0.0
O648 O 0.52042 0.22015 0.63068 0.0
H649 H 0.61904 0.22066 0.7107 0.0
H650 H 0.50971 0.31757 0.70995 0.0
Tb651 Tb 0.62498 0.26644 0.65026 0.0
Tb652 Tb 0.55179 0.3293 0.64875 0.0
H653 H 0.60929 0.32432 0.69537 0.0
H654 H 0.60755 0.20694 0.607 0.0
Tb655 Tb 0.54905 0.25142 0.58673 0.0
H656 H 0.49523 0.30044 0.60842 0.0
H657 H 0.503 0.20089 0.6188 0.0
O658 O 0.58503 0.29362 0.61258 0.0
H659 H 0.59751 0.30867 0.5918 0.0
O660 O 0.57354 0.20772 0.76263 0.0
O661 O 0.53583 0.29887 0.54847 0.0
O662 O 0.55097 0.19345 0.56257 0.0
O663 O 0.56584 0.33652 0.74993 0.0
O664 O 0.51044 0.15791 0.67768 0.0
O665 O 0.60048 0.36606 0.63434 0.0
O666 O 0.49783 0.36007 0.65327 0.0
O667 O 0.61852 0.16587 0.66609 0.0
O668 O 0.46509 0.26489 0.72569 0.0
O669 O 0.66037 0.2608 0.60036 0.0
O670 O 0.66478 0.28133 0.69685 0.0
O671 O 0.44483 0.25059 0.62524 0.0
O672 O 0.56964 0.15804 0.71496 0.0
O673 O 0.53553 0.35249 0.59175 0.0
O674 O 0.55633 0.37462 0.69299 0.0
O675 O 0.55989 0.15301 0.61755 0.0
O676 O 0.62422 0.282 0.75229 0.0
O677 O 0.48154 0.24628 0.56713 0.0
O678 O 0.61103 0.25192 0.55291 0.0
O679 O 0.51859 0.27134 0.76865 0.0
O680 O 0.66331 0.21631 0.65471 0.0
O681 O 0.45236 0.30972 0.66188 0.0
O682 O 0.46027 0.20452 0.67682 0.0
O683 O 0.65213 0.32139 0.6356 0.0
C684 C 0.57346 0.16844 0.75127 0.0
C685 C 0.52939 0.33595 0.55721 0.0
C686 C 0.55601 0.15901 0.57974 0.0
C687 C 0.56177 0.37216 0.73112 0.0
C688 C 0.47334 0.16858 0.67974 0.0
C689 C 0.63762 0.35682 0.63087 0.0
C690 C 0.46201 0.34684 0.65664 0.0
C691 C 0.65436 0.17946 0.66152 0.0
C692 C 0.48085 0.27084 0.76058 0.0
C693 C 0.65009 0.25549 0.56415 0.0
C694 C 0.65824 0.28727 0.73427 0.0
C695 C 0.44607 0.24762 0.58698 0.0
H696 H 0.1512 0.30603 0.09283 0.0
H697 H 0.19465 0.32513 0.3174 0.0
H698 H 0.15063 0.41324 0.1553 0.0
H699 H 0.1708 0.21603 0.26326 0.0
H700 H 0.19111 0.35661 0.25451 0.0
H701 H 0.15964 0.27108 0.15338 0.0
C702 C 0.15004 0.32204 0.11957 0.0
C703 C 0.15033 0.3625 0.11908 0.0
C704 C 0.18761 0.32557 0.25616 0.0
C705 C 0.16295 0.32324 0.18805 0.0
C706 C 0.19122 0.30732 0.2919 0.0
C707 C 0.181 0.26835 0.29552 0.0
C708 C 0.17559 0.30394 0.22402 0.0
C709 C 0.17766 0.24651 0.26159 0.0
C710 C 0.15655 0.3022 0.15404 0.0
C711 C 0.1503 0.38195 0.15455 0.0
N712 N 0.17312 0.26482 0.22721 0.0
N713 N 0.15792 0.36226 0.18758 0.0
H714 H 0.68004 0.66762 0.16261 0.0
H715 H 0.48367 0.65445 0.04609 0.0
H716 H 0.56946 0.6757 0.21813 0.0
H717 H 0.59387 0.61901 1.00156 0.0
H718 H 0.5118 0.65922 0.11051 0.0
H719 H 0.64757 0.65882 0.10073 0.0
C720 C 0.64884 0.67011 0.16138 0.0
C721 C 0.62716 0.67127 0.19546 0.0
C722 C 0.5297 0.64942 0.08685 0.0
C723 C 0.58994 0.65926 0.12577 0.0
C724 C 0.5133 0.64523 0.05034 0.0
C725 C 0.53748 0.63935 1.01845 0.0
C726 C 0.56989 0.64569 0.09081 0.0
C727 C 0.57491 0.62584 1.02546 0.0
C728 C 0.6303 0.66342 0.12635 0.0
C729 C 0.58699 0.6746 0.19242 0.0
N730 N 0.59089 0.63167 0.06071 0.0
N731 N 0.56939 0.66695 0.15829 0.0
H732 H 0.90623 0.24277 0.31022 0.0
H733 H 0.92039 0.19999 0.08457 0.0
H734 H 0.98648 0.30131 0.23492 0.0
H735 H 0.84837 0.13703 0.16401 0.0
H736 H 0.94705 0.23675 0.13885 0.0
H737 H 0.88033 0.20837 0.25482 0.0
C738 C 0.91737 0.24956 0.28181 0.0
C739 C 0.94905 0.27424 0.27713 0.0
C740 C 0.92582 0.21447 0.14443 0.0
C741 C 0.9209 0.2338 0.21407 0.0
C742 C 0.9112 0.19316 0.11358 0.0
C743 C 0.88138 0.16671 0.11998 0.0
C744 C 0.91052 0.20858 0.18154 0.0
C745 C 0.87082 0.15799 0.15801 0.0
C746 C 0.90324 0.22917 0.25027 0.0
C747 C 0.96244 0.28186 0.23967 0.0
N748 N 0.88479 0.17952 0.1874 0.0
N749 N 0.94882 0.26103 0.20952 0.0
H750 H 0.46519 0.90115 0.22855 0.0
H751 H 0.50904 0.90901 1.0015 0.0
H752 H 0.39996 0.96906 0.14712 0.0
H753 H 0.57311 0.83811 0.08147 0.0
H754 H 0.47123 0.93434 0.05544 0.0
H755 H 0.50373 0.87537 0.17503 0.0
C756 C 0.45819 0.90957 0.1993 0.0
C757 C 0.42987 0.93756 0.19222 0.0
C758 C 0.49401 0.91371 0.06131 0.0
C759 C 0.47427 0.90951 0.13116 0.0
C760 C 0.5162 0.89998 1.03059 0.0
C761 C 0.54421 0.8715 0.03711 0.0
C762 C 0.49997 0.89878 0.09866 0.0
C763 C 0.55168 0.86007 0.07531 0.0
C764 C 0.48059 0.89549 0.16881 0.0
C765 C 0.42188 0.94771 0.15378 0.0
N766 N 0.52933 0.87334 0.1046 0.0
N767 N 0.44436 0.93418 0.12476 0.0
H768 H 0.1029 0.70245 0.42921 0.0
H769 H 0.22488 0.74658 0.24192 0.0
H770 H 0.14477 0.61715 0.35125 0.0
H771 H 0.16791 0.83517 0.30494 0.0
H772 H 0.21053 0.70044 0.29325 0.0
H773 H 0.12446 0.75336 0.3854 0.0
C774 C 0.11567 0.69426 0.40187 0.0
C775 C 0.13094 0.65715 0.39667 0.0
C776 C 0.20111 0.73013 0.29623 0.0
C777 C 0.15264 0.71288 0.34638 0.0
C778 C 0.21043 0.75687 0.26766 0.0
C779 C 0.18863 0.79084 0.26663 0.0
C780 C 0.17508 0.7416 0.32521 0.0
C781 C 0.1783 0.80576 0.30268 0.0
C782 C 0.12932 0.72344 0.37779 0.0
C783 C 0.13968 0.64704 0.35868 0.0
N784 N 0.16725 0.77989 0.32992 0.0
N785 N 0.15426 0.67505 0.33558 0.0
H786 H 1.00682 0.60249 0.09571 0.0
H787 H 0.94176 0.70983 0.9056 0.0
H788 H 0.08343 0.64328 1.00784 0.0
H789 H 0.86113 0.64798 0.97584 0.0
H790 H 0.99261 0.69564 0.95236 0.0
H791 H 0.95201 0.61344 0.0528 0.0
C792 C 1.01244 0.61185 0.06639 0.0
C793 C 0.04802 0.62851 0.05673 0.0
C794 C 0.96373 0.68481 0.95738 0.0
C795 C 0.98748 0.63935 1.00784 0.0
C796 C 0.93427 0.69437 0.93174 0.0
C797 C 0.89969 0.67367 0.93422 0.0
C798 C 0.9559 0.65811 0.98693 0.0
C799 C 0.88966 0.65964 0.97087 0.0
C800 C 0.98092 0.61941 0.0425 0.0
C801 C 0.05494 0.63479 1.01749 0.0
N802 N 0.91859 0.64871 0.99491 0.0
N803 N 1.02433 0.64359 0.99479 0.0
H804 H 0.98993 0.78133 0.33858 0.0
H805 H 0.84292 0.95201 0.33993 0.0
H806 H 0.9081 0.80572 0.24746 0.0
H807 H 0.92876 0.93392 0.42836 0.0
H808 H 0.88026 0.912 0.29645 0.0
H809 H 0.97231 0.84182 0.36941 0.0
C810 C 0.96734 0.7988 0.3257 0.0
C811 C 0.95198 0.78961 0.28939 0.0
C812 C 0.89153 0.91755 0.32509 0.0
C813 C 0.93266 0.85895 0.3236 0.0
C814 C 0.87056 0.94104 0.34974 0.0
C815 C 0.88088 0.94222 0.38881 0.0
C816 C 0.92249 0.89629 0.34039 0.0
C817 C 0.91818 0.93046 0.39914 0.0
C818 C 0.95826 0.83391 0.34261 0.0
C819 C 0.92182 0.81236 0.27476 0.0
N820 N 0.93697 0.90571 0.37562 0.0
N821 N 0.91381 0.84666 0.29147 0.0
H822 H 0.17598 0.88295 0.88665 0.0
H823 H 0.03504 0.91901 0.06126 0.0
H824 H 0.19365 0.96659 0.9764 0.0
H825 H 1.02211 0.8232 0.98332 0.0
H826 H 0.08424 0.94591 1.01934 0.0
H827 H 0.1198 0.85846 0.92079 0.0
C828 C 0.16898 0.89523 0.91454 0.0
C829 C 0.18465 0.93069 0.92621 0.0
C830 C 0.07031 0.91913 1.01112 0.0
C831 C 0.12273 0.90282 0.96527 0.0
C832 C 0.0414 0.9043 0.03441 0.0
C833 C 1.02947 0.86621 1.02806 0.0
C834 C 0.08441 0.89604 0.98099 0.0
C835 C 0.03467 0.85078 0.99109 0.0
C836 C 0.13612 0.88206 0.93324 0.0
C837 C 0.17854 0.94195 0.96443 0.0
N838 N 0.06423 0.86436 0.96963 0.0
N839 N 0.14584 0.92991 0.98189 0.0
H840 H 0.19679 0.13482 0.45064 0.0
H841 H 0.26669 0.15977 0.23692 0.0
H842 H 0.12535 0.10175 0.35628 0.0
H843 H 0.31629 0.21763 0.33351 0.0
H844 H 0.20957 0.1442 0.27522 0.0
H845 H 0.24697 0.1558 0.40551 0.0
C846 C 0.19222 0.13099 0.42 0.0
C847 C 0.15496 0.12549 0.40553 0.0
C848 C 0.23262 0.16096 0.28812 0.0
C849 C 0.21069 0.14569 0.35486 0.0
C850 C 0.26464 0.17108 0.26599 0.0
C851 C 0.29817 0.18205 0.28589 0.0
C852 C 0.23444 0.16775 0.32804 0.0
C853 C 0.29242 0.20259 0.31997 0.0
C854 C 0.22012 0.14423 0.39437 0.0
C855 C 0.15241 0.11284 0.36735 0.0
N856 N 0.26232 0.1916 0.34231 0.0
N857 N 0.17869 0.12681 0.34196 0.0
H858 H 0.38624 0.71158 0.91547 0.0
H859 H 0.41472 0.50889 1.01319 0.0
H860 H 0.44806 0.61402 0.86919 0.0
H861 H 0.3174 0.58106 0.04229 0.0
H862 H 0.44253 0.56232 0.97745 0.0
H863 H 0.36508 0.67189 0.96942 0.0
C864 C 0.39394 0.68124 0.91561 0.0
C865 C 0.42217 0.6666 0.89047 0.0
C866 C 0.4154 0.56665 0.99241 0.0
C867 C 0.39858 0.6221 0.95108 0.0
C868 C 0.39985 0.53643 1.01341 0.0
C869 C 0.36185 0.53979 1.02661 0.0
C870 C 0.39247 0.59938 0.98571 0.0
C871 C 0.34539 0.57671 1.02905 0.0
C872 C 0.3829 0.65914 0.94712 0.0
C873 C 0.42852 0.6268 0.88998 0.0
N874 N 0.35977 0.60508 1.00651 0.0
N875 N 0.41852 0.60601 0.92135 0.0
H876 H 0.82246 0.47496 0.26731 0.0
H877 H 0.90953 0.37443 0.45397 0.0
H878 H 0.75521 0.41171 0.35092 0.0
H879 H 0.97938 0.41315 0.35881 0.0
H880 H 0.85226 0.39924 0.42105 0.0
H881 H 0.8813 0.45544 0.30077 0.0
C882 C 0.82035 0.45549 0.29174 0.0
C883 C 0.78436 0.44541 0.30706 0.0
C884 C 0.88034 0.4034 0.40794 0.0
C885 C 0.85049 0.4248 0.34615 0.0
C886 C 0.91295 0.39032 0.42721 0.0
C887 C 0.94888 0.39231 0.40896 0.0
C888 C 0.88431 0.41822 0.37046 0.0
C889 C 0.95227 0.4123 0.37413 0.0
C890 C 0.85371 0.44516 0.31132 0.0
C891 C 0.78265 0.42018 0.33852 0.0
N892 N 0.92006 0.42376 0.35534 0.0
N893 N 0.81545 0.41148 0.35784 0.0
H894 H 0.6915 0.89877 0.87879 0.0
H895 H 0.64552 1.0173 0.06822 0.0
H896 H 0.6913 0.8454 0.99066 0.0
H897 H 0.61996 0.05583 0.95328 0.0
H898 H 0.65987 0.95296 0.04327 0.0
H899 H 0.67676 0.96077 0.9086 0.0
C900 C 0.69069 0.90059 0.91001 0.0
C901 C 0.68869 0.86688 0.93226 0.0
C902 C 0.65032 0.97526 1.02349 0.0
C903 C 0.67138 0.9364 0.96633 0.0
C904 C 0.64056 1.01156 0.03787 0.0
C905 C 0.63586 0.04233 1.01192 0.0
C906 C 0.65224 0.97023 0.98336 0.0
C907 C 0.62677 1.03312 0.97372 0.0
C908 C 0.6805 0.93561 0.92683 0.0
C909 C 0.69015 0.87083 0.97243 0.0
N910 N 0.63787 0.99828 0.95978 0.0
N911 N 0.67893 0.90477 0.98846 0.0
H912 H 0.21255 0.85412 0.11234 0.0
H913 H 0.23358 0.97434 0.3012 0.0
H914 H 0.1263 0.93368 0.15383 0.0
H915 H 0.32863 0.9131 0.24869 0.0
H916 H 0.19445 0.96107 0.24443 0.0
H917 H 0.26065 0.88641 0.15192 0.0
C918 C 0.20413 0.87962 0.1284 0.0
C919 C 0.16511 0.88919 0.13311 0.0
C920 C 0.22386 0.95041 0.24538 0.0
C921 C 0.2188 0.9251 0.17841 0.0
C922 C 0.24568 0.95683 0.27829 0.0
C923 C 0.28454 0.94567 0.27903 0.0
C924 C 0.24096 0.93193 0.21368 0.0
C925 C 0.29884 0.92265 0.24903 0.0
C926 C 0.23144 0.89761 0.15153 0.0
C927 C 0.1559 0.92375 0.15183 0.0
N928 N 0.27718 0.91715 0.21702 0.0
N929 N 0.18235 0.93953 0.17577 0.0
H930 H 0.1339 0.5523 0.97804 0.0
H931 H 0.16723 0.60796 0.19697 0.0
H932 H 0.1115 0.47289 0.07051 0.0
H933 H 0.19681 0.67789 0.09962 0.0
H934 H 0.14498 0.55719 0.15323 0.0
H935 H 0.14258 0.60379 1.02461 0.0
C936 C 0.12815 0.54622 1.00817 0.0
C937 C 0.12632 0.50802 1.02123 0.0
C938 C 0.1567 0.58367 0.1414 0.0
C939 C 0.13669 0.56555 0.07423 0.0
C940 C 0.17075 0.61203 0.16629 0.0
C941 C 0.17868 0.64892 0.15147 0.0
C942 C 0.15575 0.59153 0.10169 0.0
C943 C 0.18755 0.65114 0.11224 0.0
C944 C 0.13482 0.5753 0.03491 0.0
C945 C 0.1164 0.50193 0.0599 0.0
N946 N 0.17361 0.62376 0.08817 0.0
N947 N 0.1247 0.52999 0.08589 0.0
H948 H 0.80498 0.67088 0.34847 0.0
H949 H 0.90678 0.64534 0.1448 0.0
H950 H 0.74688 0.68659 0.23985 0.0
H951 H 0.96839 0.64116 0.25261 0.0
H952 H 0.84638 0.65369 0.18 0.0
H953 H 0.86629 0.66541 0.31466 0.0
C954 C 0.80548 0.67595 0.31762 0.0
C955 C 0.7708 0.67766 0.29672 0.0
C956 C 0.87299 0.65012 0.1961 0.0
C957 C 0.84006 0.66902 0.25771 0.0
C958 C 0.90725 0.64374 0.17605 0.0
C959 C 0.94255 0.64397 0.19594 0.0
C960 C 0.87436 0.6555 0.23623 0.0
C961 C 0.94169 0.64169 0.23627 0.0
C962 C 0.84032 0.67108 0.29815 0.0
C963 C 0.77303 0.68414 0.2569 0.0
N964 N 0.90822 0.64913 0.25527 0.0
N965 N 0.80693 0.67772 0.23831 0.0
H966 H 0.90249 0.06384 0.06395 0.0
H967 H 0.90288 0.83785 0.10859 0.0
H968 H 0.83895 0.98029 0.99684 0.0
H969 H 0.95651 0.92279 0.18191 0.0
H970 H 0.87571 0.88961 0.06932 0.0
H971 H 0.92552 1.01172 0.10562 0.0
C972 C 0.89462 0.03433 0.05711 0.0
C973 C 0.86877 1.02621 1.02707 0.0
C974 C 0.89262 0.89703 0.09455 0.0
C975 C 0.89341 0.96691 0.07542 0.0
C976 C 0.90719 0.86742 0.1176 0.0
C977 C 0.93176 0.87617 0.14846 0.0
C978 C 0.90304 0.93543 0.10252 0.0
C979 C 0.93763 0.91503 0.15819 0.0
C980 C 0.90697 1.00471 0.08144 0.0
C981 C 0.8588 0.98762 1.01988 0.0
N982 N 0.92401 0.94333 0.13479 0.0
N983 N 0.87076 0.95938 0.04422 0.0
H984 H 0.29996 0.23027 0.05253 0.0
H985 H 0.43761 0.21983 0.23322 0.0
H986 H 0.30081 0.3105 0.14825 0.0
H987 H 0.42999 0.13014 0.14698 0.0
H988 H 0.40391 0.26341 0.18974 0.0
H989 H 0.35593 0.19813 0.08008 0.0
C990 C 0.31128 0.24066 0.07976 0.0
C991 C 0.29636 0.27392 0.09748 0.0
C992 C 0.41037 0.2344 0.18002 0.0
C993 C 0.36093 0.23806 0.12827 0.0
C994 C 0.43001 0.20965 0.20463 0.0
C995 C 0.43335 0.1706 0.19473 0.0
C996 C 0.39439 0.21937 0.14596 0.0
C997 C 0.42545 0.15953 0.15664 0.0
C998 C 0.34381 0.22283 0.09493 0.0
C999 C 0.31177 0.28548 0.13307 0.0
N1000 N 0.40455 0.18344 0.13395 0.0
N1001 N 0.34367 0.26786 0.14702 0.0
H1002 H 0.2185 0.80333 0.38399 0.0
H1003 H 0.42502 0.89504 0.4205 0.0
H1004 H 0.32492 0.74402 0.36101 0.0
H1005 H 0.31911 0.95869 0.43086 0.0
H1006 H 0.38813 0.83716 0.40451 0.0
H1007 H 0.25412 0.86293 0.39395 0.0
C1008 C 0.24924 0.8034 0.37825 0.0
C1009 C 0.2693 0.76839 0.37485 0.0
C1010 C 0.37279 0.86363 0.41105 0.0
C1011 C 0.31028 0.83537 0.38773 0.0
C1012 C 0.39377 0.89624 0.42181 0.0
C1013 C 0.37486 0.93192 0.42514 0.0
C1014 C 0.33275 0.86695 0.40538 0.0
C1015 C 0.33457 0.93184 0.42749 0.0
C1016 C 0.2698 0.83713 0.38583 0.0
C1017 C 0.30874 0.77029 0.36622 0.0
N1018 N 0.31463 0.90022 0.41583 0.0
N1019 N 0.3286 0.80281 0.37544 0.0
H1020 H 0.97479 0.49226 0.97182 0.0
H1021 H 0.16907 0.46264 0.8554 0.0
H1022 H 0.05437 0.58267 0.94517 0.0
H1023 H 0.10131 0.36785 0.8964 0.0
H1024 H 0.12071 0.50757 0.87989 0.0
H1025 H 1.02201 0.44446 0.95054 0.0
C1026 C 1.00321 0.50214 0.96319 0.0
C1027 C 1.00901 0.54081 0.95275 0.0
C1028 C 0.11621 0.47683 0.88353 0.0
C1029 C 0.06299 0.48801 0.93088 0.0
C1030 C 0.14297 0.45107 0.86815 0.0
C1031 C 0.14155 0.41258 0.88036 0.0
C1032 C 0.08628 0.4622 0.90672 0.0
C1033 C 0.10523 0.39843 0.89125 0.0
C1034 C 1.02953 0.47481 0.94965 0.0
C1035 C 0.04745 0.55231 0.94806 0.0
N1036 N 0.07983 0.42341 0.90747 0.0
N1037 N 0.07255 0.52611 0.93337 0.0
H1038 H 0.61685 0.7096 0.42338 0.0
H1039 H 0.83272 0.77032 0.38726 0.0
H1040 H 0.712 0.64042 0.46073 0.0
H1041 H 0.73593 0.82569 0.33544 0.0
H1042 H 0.79205 0.71568 0.40556 0.0
H1043 H 0.66181 0.75676 0.39647 0.0
C1044 C 0.64756 0.70521 0.42751 0.0
C1045 C 0.66173 0.66854 0.43688 0.0
C1046 C 0.77946 0.73941 0.3895 0.0
C1047 C 0.71249 0.72137 0.40899 0.0
C1048 C 0.80285 0.77009 0.37791 0.0
C1049 C 0.78424 0.80486 0.36866 0.0
C1050 C 0.73928 0.74347 0.38502 0.0
C1051 C 0.74882 0.80105 0.34981 0.0
C1052 C 0.67309 0.73121 0.41056 0.0
C1053 C 0.70059 0.66653 0.44777 0.0
N1054 N 0.72532 0.77224 0.362 0.0
N1055 N 0.72564 0.69108 0.4304 0.0
H1056 H 0.40501 0.6818 0.37771 0.0
H1057 H 0.51607 0.48976 0.43285 0.0
H1058 H 0.34972 0.57086 0.37491 0.0
H1059 H 0.55682 0.60394 0.45775 0.0
H1060 H 0.45299 0.5163 0.41555 0.0
H1061 H 0.46527 0.65089 0.39707 0.0
C1062 C 0.40618 0.65053 0.37892 0.0
C1063 C 0.37199 0.62893 0.37876 0.0
C1064 C 0.47549 0.53564 0.42549 0.0
C1065 C 0.43949 0.59361 0.4012 0.0
C1066 C 0.51102 0.52039 0.4369 0.0
C1067 C 0.54237 0.54564 0.44153 0.0
C1068 C 0.47173 0.57593 0.42251 0.0
C1069 C 0.53381 0.58407 0.45031 0.0
C1070 C 0.44008 0.63309 0.39175 0.0
C1071 C 0.37533 0.58864 0.37778 0.0
N1072 N 0.49984 0.59893 0.43765 0.0
N1073 N 0.40808 0.57202 0.39153 0.0
H1074 H 0.18481 0.97433 0.65 0.0
H1075 H 0.24737 0.75339 0.65519 0.0
H1076 H 0.1377 0.88894 0.72752 0.0
H1077 H 0.28721 0.83359 0.56823 0.0
H1078 H 0.21211 0.80549 0.68587 0.0
H1079 H 0.22132 0.92349 0.6175 0.0
C1080 C 0.18123 0.94468 0.6593 0.0
C1081 C 0.15972 0.9357 0.69225 0.0
C1082 C 0.2289 0.8118 0.66028 0.0
C1083 C 0.20149 0.87819 0.65635 0.0
C1084 C 0.24979 0.78223 0.64324 0.0
C1085 C 0.26913 0.78906 0.60845 0.0
C1086 C 0.22774 0.84817 0.64238 0.0
C1087 C 0.27161 0.82703 0.5945 0.0
C1088 C 0.20251 0.91584 0.64125 0.0
C1089 C 0.15505 0.89696 0.70278 0.0
N1090 N 0.2503 0.8552 0.6111 0.0
N1091 N 0.1766 0.86956 0.68539 0.0
H1092 H 1.01127 0.54404 0.6641 0.0
H1093 H 0.19978 0.66922 0.6763 0.0
H1094 H 0.08742 0.53905 0.76277 0.0
H1095 H 0.10474 0.69005 0.59838 0.0
H1096 H 0.15973 0.62448 0.71229 0.0
H1097 H 0.05413 0.59065 0.63438 0.0
C1098 C 0.03768 0.55179 0.67904 0.0
C1099 C 0.04402 0.54128 0.7175 0.0
C1100 C 0.14739 0.63954 0.68779 0.0
C1101 C 0.09196 0.59432 0.68457 0.0
C1102 C 0.16987 0.66579 0.66769 0.0
C1103 C 0.15636 0.67964 0.63209 0.0
C1104 C 0.11148 0.62927 0.67229 0.0
C1105 C 0.11692 0.67708 0.62409 0.0
C1106 C 0.06151 0.57919 0.66254 0.0
C1107 C 0.08005 0.54936 0.73417 0.0
N1108 N 0.09598 0.65027 0.64296 0.0
N1109 N 0.1022 0.57723 0.71833 0.0
H1110 H 0.97741 0.05091 0.74915 0.0
H1111 H 0.92533 0.89592 0.58737 0.0
H1112 H 0.05979 1.00379 0.66839 0.0
H1113 H 0.84068 0.94483 0.66432 0.0
H1114 H 0.97604 0.93006 0.622 0.0
H1115 H 0.92686 1.01178 0.71955 0.0
C1116 C 0.98467 1.03297 0.72459 0.0
C1117 C 1.02289 1.03041 0.71131 0.0
C1118 C 0.94645 0.93309 0.63168 0.0
C1119 C 0.9655 0.98482 0.67816 0.0
C1120 C 0.91757 0.91318 0.61227 0.0
C1121 C 0.87875 0.91864 0.62243 0.0
C1122 C 0.93636 0.95867 0.66134 0.0
C1123 C 0.87025 0.94063 0.65519 0.0
C1124 C 0.95591 1.01028 0.70808 0.0
C1125 C 1.03069 1.00684 0.67942 0.0
N1126 N 0.89883 0.96066 0.67311 0.0
N1127 N 1.00228 0.98458 0.66419 0.0
H1128 H 0.64845 0.81334 0.59241 0.0
H1129 H 0.69989 0.82317 0.8157 0.0
H1130 H 0.64914 0.91778 0.65921 0.0
H1131 H 0.6756 0.71631 0.75755 0.0
H1132 H 0.69381 0.85739 0.75448 0.0
H1133 H 0.65912 0.77593 0.65102 0.0
C1134 C 0.64789 0.82817 0.6198 0.0
C1135 C 0.64817 0.86859 0.62092 0.0
C1136 C 0.69071 0.82626 0.75484 0.0
C1137 C 0.66341 0.82663 0.6877 0.0
C1138 C 0.69579 0.80645 0.78957 0.0
C1139 C 0.68557 0.76737 0.7918 0.0
C1140 C 0.67774 0.80594 0.72222 0.0
C1141 C 0.68196 0.74693 0.75704 0.0
C1142 C 0.65581 0.80697 0.65313 0.0
C1143 C 0.64898 0.88655 0.65718 0.0
N1144 N 0.676 0.76667 0.72368 0.0
N1145 N 0.658 0.86558 0.68907 0.0
H1146 H 0.09252 0.11174 0.50072 0.0
H1147 H 0.06786 0.17295 0.71965 0.0
H1148 H 0.98273 0.14456 0.54795 0.0
H1149 H 0.1765 0.16627 0.66028 0.0
H1150 H 0.03415 0.16143 0.65905 0.0
H1151 H 0.12143 0.11763 0.56458 0.0
C1152 C 0.07386 0.11784 0.52507 0.0
C1153 C 0.03624 0.13135 0.519 0.0
C1154 C 0.06537 0.16352 0.65901 0.0
C1155 C 0.06852 0.13855 0.59125 0.0
C1156 C 0.08455 0.17186 0.69336 0.0
C1157 C 0.12487 0.16928 0.69502 0.0
C1158 C 0.08712 0.1538 0.62632 0.0
C1159 C 0.14523 0.16755 0.66016 0.0
C1160 C 0.09075 0.12279 0.56123 0.0
C1161 C 1.01276 0.13651 0.55152 0.0
N1162 N 0.1262 0.1581 0.62727 0.0
N1163 N 1.0297 0.14251 0.58633 0.0
H1164 H 0.49031 0.80479 0.72898 0.0
H1165 H 0.36055 0.62865 0.65926 0.0
H1166 H 0.41372 0.73974 0.80261 0.0
H1167 H 0.42319 0.70125 0.58016 0.0
H1168 H 0.38797 0.66443 0.71313 0.0
H1169 H 0.46692 0.76821 0.67347 0.0
C1170 C 0.46741 0.78386 0.73314 0.0
C1171 C 0.45429 0.77471 0.77034 0.0
C1172 C 0.39621 0.67235 0.68404 0.0
C1173 C 0.42886 0.73193 0.70774 0.0
C1174 C 0.38132 0.65135 0.6534 0.0
C1175 C 0.38882 0.66319 0.6155 0.0
C1176 C 0.41869 0.70518 0.67642 0.0
C1177 C 0.41612 0.69221 0.60915 0.0
C1178 C 0.45471 0.76247 0.70166 0.0
C1179 C 0.42464 0.74757 0.77439 0.0
N1180 N 0.42944 0.71315 0.63945 0.0
N1181 N 0.4135 0.72641 0.74348 0.0
H1182 H 0.06729 0.32794 0.58953 0.0
H1183 H 0.89418 0.46682 0.65118 0.0
H1184 H 1.00591 0.40229 0.51053 0.0
H1185 H 0.95744 0.39675 0.73231 0.0
H1186 H 0.93134 0.43874 0.59859 0.0
H1187 H 1.02841 0.35317 0.64258 0.0
C1188 C 0.04644 0.35055 0.58362 0.0
C1189 C 0.03972 0.3631 0.54566 0.0
C1190 C 0.9369 0.42906 0.6278 0.0
C1191 C 0.99416 0.39086 0.6058 0.0
C1192 C 0.91522 0.44456 0.65776 0.0
C1193 C 0.92355 0.43461 0.69613 0.0
C1194 C 0.96714 0.40347 0.63634 0.0
C1195 C 0.95072 0.40552 0.70313 0.0
C1196 C 1.02383 0.36443 0.61377 0.0
C1197 C 1.01228 0.39216 0.53943 0.0
N1198 N 0.97225 0.39144 0.6735 0.0
N1199 N 0.99004 0.40467 0.56917 0.0
H1200 H 0.65871 0.11371 0.84239 0.0
H1201 H 0.67059 0.33669 0.79813 0.0
H1202 H 0.6067 0.19926 0.91405 0.0
H1203 H 0.73011 0.25107 0.73372 0.0
H1204 H 0.657 0.28949 0.84885 0.0
H1205 H 0.68087 0.16412 0.79841 0.0
C1206 C 0.65042 0.14332 0.84801 0.0
C1207 C 0.6385 0.1543 0.88495 0.0
C1208 C 0.67352 0.28072 0.82383 0.0
C1209 C 0.66075 0.21082 0.83563 0.0
C1210 C 0.68248 0.30787 0.79545 0.0
C1211 C 0.69217 0.29333 0.75901 0.0
C1212 C 0.68175 0.24168 0.81602 0.0
C1213 C 0.71485 0.26001 0.75947 0.0
C1214 C 0.66466 0.17214 0.82388 0.0
C1215 C 0.62206 0.19105 0.8881 0.0
N1216 N 0.70559 0.23278 0.78601 0.0
N1217 N 0.6367 0.21942 0.86549 0.0
H1218 H 0.5052 0.10094 0.59558 0.0
H1219 H 0.44125 0.20955 0.40611 0.0
H1220 H 0.58227 0.13849 0.50673 0.0
H1221 H 0.35997 0.14658 0.47438 0.0
H1222 H 0.49199 0.19349 0.45252 0.0
H1223 H 0.45042 0.11192 0.55262 0.0
C1224 C 0.51088 0.1096 0.56606 0.0
C1225 C 0.54671 0.12548 0.55598 0.0
C1226 C 0.46299 0.1828 0.45718 0.0
C1227 C 0.48616 0.1364 0.50708 0.0
C1228 C 0.43365 0.19334 0.43176 0.0
C1229 C 0.39894 0.17282 0.4335 0.0
C1230 C 0.45481 0.15549 0.48609 0.0
C1231 C 0.38863 0.15803 0.46978 0.0
C1232 C 0.4794 0.11718 0.54211 0.0
C1233 C 0.5536 0.13091 0.51663 0.0
N1234 N 0.41738 0.14618 0.49364 0.0
N1235 N 0.52305 0.13987 0.49388 0.0
H1236 H 0.34185 0.44989 0.83688 0.0
H1237 H 0.49737 0.28654 0.83617 0.0
H1238 H 0.42873 0.43661 0.92514 0.0
H1239 H 0.41024 0.30355 0.74827 0.0
H1240 H 0.47825 0.34722 0.86562 0.0
H1241 H 0.38086 0.41106 0.79368 0.0
C1242 C 0.36995 0.44017 0.84671 0.0
C1243 C 0.38034 0.44223 0.88572 0.0
C1244 C 0.46339 0.33765 0.83983 0.0
C1245 C 0.4239 0.39776 0.83762 0.0
C1246 C 0.47343 0.30242 0.8237 0.0
C1247 C 0.45671 0.29101 0.78862 0.0
C1248 C 0.43559 0.36064 0.82133 0.0
C1249 C 0.42494 0.31187 0.77458 0.0
C1250 C 0.39193 0.41741 0.82222 0.0
C1251 C 0.41819 0.4323 0.89603 0.0
N1252 N 0.41598 0.3463 0.79053 0.0
N1253 N 0.43804 0.4082 0.8727 0.0
H1254 H 0.6639 0.38314 0.38613 0.0
H1255 H 0.52073 0.41513 0.55721 0.0
H1256 H 0.67517 0.46573 0.47792 0.0
H1257 H 0.51336 0.31695 0.48152 0.0
H1258 H 0.56027 0.44809 0.50973 0.0
H1259 H 0.60304 0.36133 0.41363 0.0
C1260 C 0.65419 0.39592 0.41296 0.0
C1261 C 0.67054 0.4303 0.42679 0.0
C1262 C 0.54926 0.41956 0.50307 0.0
C1263 C 0.60275 0.40575 0.45812 0.0
C1264 C 0.52607 0.401 0.52984 0.0
C1265 C 0.51947 0.36143 0.52504 0.0
C1266 C 0.56406 0.3977 0.47234 0.0
C1267 C 0.52261 0.34617 0.48777 0.0
C1268 C 0.61867 0.38455 0.42756 0.0
C1269 C 0.66029 0.44201 0.46397 0.0
N1270 N 0.54753 0.36331 0.46323 0.0
N1271 N 0.62519 0.43163 0.47739 0.0
H1272 H 0.76565 0.66162 0.74036 0.0
H1273 H 0.69637 0.6384 0.95549 0.0
H1274 H 0.81813 0.71754 0.83641 0.0
H1275 H 0.62855 0.59952 0.86086 0.0
H1276 H 0.7476 0.6582 0.91098 0.0
H1277 H 0.70977 0.64503 0.78015 0.0
C1278 C 0.76453 0.67211 0.76978 0.0
C1279 C 0.79867 0.68256 0.78886 0.0
C1280 C 0.72138 0.64551 0.89959 0.0
C1281 C 0.73641 0.6673 0.83274 0.0
C1282 C 0.69285 0.63297 0.92493 0.0
C1283 C 0.65607 0.62671 0.90951 0.0
C1284 C 0.713 0.64517 0.85981 0.0
C1285 C 0.65505 0.61171 0.87214 0.0
C1286 C 0.73328 0.66139 0.79273 0.0
C1287 C 0.79391 0.70257 0.82343 0.0
N1288 N 0.68178 0.62501 0.84688 0.0
N1289 N 0.76465 0.69099 0.84657 0.0
H1290 H 0.9525 0.1124 0.35676 0.0
H1291 H 0.81843 0.08711 0.53773 0.0
H1292 H 0.87817 0.20359 0.39674 0.0
H1293 H 0.91264 1.01301 0.50492 0.0
H1294 H 0.83468 0.13057 0.48486 0.0
H1295 H 0.9198 0.06765 0.39953 0.0
C1296 C 0.92797 0.12264 0.37317 0.0
C1297 C 0.92096 0.16213 0.37754 0.0
C1298 C 0.85192 0.10485 0.48943 0.0
C1299 C 0.88499 0.11272 0.42624 0.0
C1300 C 0.84366 0.08079 0.52034 0.0
C1301 C 0.86109 0.04422 0.52156 0.0
C1302 C 0.87965 0.09269 0.46265 0.0
C1303 C 0.89588 0.03926 0.50183 0.0
C1304 C 0.9101 0.09739 0.39842 0.0
C1305 C 0.88687 0.17355 0.39603 0.0
N1306 N 0.90291 0.06217 0.47115 0.0
N1307 N 0.87138 0.14931 0.42232 0.0
H1308 H 0.32715 0.97877 0.76556 0.0
H1309 H 0.41475 0.87164 0.94797 0.0
H1310 H 0.26086 0.91194 0.84714 0.0
H1311 H 0.48487 0.93008 0.86378 0.0
H1312 H 0.35699 0.897 0.917 0.0
H1313 H 0.38594 0.96234 0.80076 0.0
C1314 C 0.32532 0.95918 0.78992 0.0
C1315 C 0.28938 0.9474 0.80426 0.0
C1316 C 0.38499 0.90501 0.9056 0.0
C1317 C 0.35544 0.93014 0.84524 0.0
C1318 C 0.41786 0.89146 0.92391 0.0
C1319 C 0.45391 0.89757 0.90685 0.0
C1320 C 0.38892 0.92463 0.8704 0.0
C1321 C 0.45707 0.92377 0.87645 0.0
C1322 C 0.35861 0.95072 0.81055 0.0
C1323 C 0.28814 0.92189 0.8355 0.0
N1324 N 0.42462 0.93538 0.85796 0.0
N1325 N 0.3208 0.91486 0.85572 0.0
H1326 H 0.11545 0.55512 0.46551 0.0
H1327 H 0.18432 0.34018 0.49983 0.0
H1328 H 0.15249 0.51744 0.57765 0.0
H1329 H 0.18543 0.39939 0.39086 0.0
H1330 H 0.17024 0.40122 0.53227 0.0
H1331 H 0.12491 0.48984 0.44107 0.0
C1332 C 0.12331 0.53248 0.48569 0.0
C1333 C 0.13715 0.54183 0.52241 0.0
C1334 C 0.17448 0.40103 0.50131 0.0
C1335 C 0.14833 0.46824 0.49528 0.0
C1336 C 0.18409 0.36653 0.48291 0.0
C1337 C 0.18272 0.36478 0.44252 0.0
C1338 C 0.16604 0.43353 0.47863 0.0
C1339 C 0.18434 0.39959 0.4221 0.0
C1340 C 0.13028 0.49561 0.47132 0.0
C1341 C 0.14435 0.51132 0.54809 0.0
N1342 N 0.17355 0.43258 0.44009 0.0
N1343 N 0.15241 0.47584 0.53358 0.0
H1344 H 0.62516 0.43193 0.65141 0.0
H1345 H 0.82718 0.41029 0.75474 0.0
H1346 H 0.71449 0.35441 0.61239 0.0
H1347 H 0.73136 0.47769 0.79764 0.0
H1348 H 0.78979 0.39498 0.6975 0.0
H1349 H 0.67159 0.4632 0.69343 0.0
C1350 C 0.655 0.42257 0.65023 0.0
C1351 C 0.66556 0.38847 0.63117 0.0
C1352 C 0.77684 0.41286 0.71961 0.0
C1353 C 0.71795 0.42313 0.67942 0.0
C1354 C 0.79769 0.42065 0.75292 0.0
C1355 C 0.78258 0.4461 0.78052 0.0
C1356 C 0.74053 0.43006 0.71448 0.0
C1357 C 0.74425 0.45851 0.77661 0.0
C1358 C 0.68133 0.43995 0.67495 0.0
C1359 C 0.70486 0.37913 0.62891 0.0
N1360 N 0.72469 0.45095 0.74367 0.0
N1361 N 0.7296 0.39516 0.6545 0.0
H1362 H 0.70913 0.17915 0.60501 0.0
H1363 H 0.61001 0.97639 0.5691 0.0
H1364 H 0.66764 0.10893 0.69787 0.0
H1365 H 0.63446 0.06015 0.48124 0.0
H1366 H 0.62665 1.02388 0.6183 0.0
H1367 H 0.69254 0.12801 0.55958 0.0
C1368 C 0.698 0.15212 0.61618 0.0
C1369 C 0.68358 0.14994 0.65378 0.0
C1370 C 0.62775 1.03216 0.58819 0.0
C1371 C 0.66537 0.09206 0.60346 0.0
C1372 C 0.61672 1.00561 0.56001 0.0
C1373 C 0.62632 1.01335 0.5215 0.0
C1374 C 0.64436 0.06721 0.57634 0.0
C1375 C 0.63039 0.05225 0.51116 0.0
C1376 C 0.68705 0.12366 0.59002 0.0
C1377 C 0.67457 0.11296 0.66772 0.0
N1378 N 0.64245 0.07747 0.53846 0.0
N1379 N 0.66235 0.08597 0.64214 0.0
H1380 H 0.24554 0.18635 0.73555 0.0
H1381 H 0.46938 0.136 0.74978 0.0
H1382 H 0.30719 0.17322 0.84253 0.0
H1383 H 0.4081 0.14623 0.64244 0.0
H1384 H 0.40901 0.14487 0.78462 0.0
H1385 H 0.30613 0.17862 0.7005 0.0
C1386 C 0.27224 0.18453 0.75185 0.0
C1387 C 0.27133 0.17863 0.79184 0.0
C1388 C 0.40847 0.14429 0.75338 0.0
C1389 C 0.34014 0.16848 0.75239 0.0
C1390 C 0.44279 0.13756 0.73351 0.0
C1391 C 0.4438 0.14202 0.69344 0.0
C1392 C 0.37505 0.15414 0.73252 0.0
C1393 C 0.40846 0.14366 0.6736 0.0
C1394 C 0.30664 0.17853 0.73175 0.0
C1395 C 0.3067 0.17719 0.81155 0.0
N1396 N 0.37553 0.15148 0.69333 0.0
N1397 N 0.33964 0.17026 0.7916 0.0
H1398 H 0.40435 0.56315 0.56019 0.0
H1399 H 0.40705 0.33651 0.60232 0.0
H1400 H 0.34044 0.48035 0.49259 0.0
H1401 H 0.45531 0.42153 0.67909 0.0
H1402 H 0.38093 0.38822 0.56222 0.0
H1403 H 0.42811 0.51047 0.60086 0.0
C1404 C 0.3966 0.5337 0.55296 0.0
C1405 C 0.37042 0.52597 0.52309 0.0
C1406 C 0.39635 0.39565 0.58839 0.0
C1407 C 0.39591 0.46595 0.57035 0.0
C1408 C 0.4102 0.36603 0.61194 0.0
C1409 C 0.43274 0.37479 0.64433 0.0
C1410 C 0.40551 0.43417 0.59728 0.0
C1411 C 0.43771 0.4137 0.65445 0.0
C1412 C 0.40937 0.50374 0.57674 0.0
C1413 C 0.36059 0.4874 0.51546 0.0
N1414 N 0.42481 0.44203 0.6306 0.0
N1415 N 0.37296 0.45883 0.53927 0.0
H1416 H 0.78098 0.73122 0.56865 0.0
H1417 H 0.9276 0.62816 0.64789 0.0
H1418 H 0.81301 0.82354 0.64627 0.0
H1419 H 0.93228 0.71816 0.73397 0.0
H1420 H 0.89232 0.67139 0.60558 0.0
H1421 H 0.83358 0.69256 0.59416 0.0
C1422 C 0.79875 0.74306 0.59153 0.0
C1423 C 0.79303 0.78083 0.60489 0.0
C1424 C 0.90091 0.68176 0.63373 0.0
C1425 C 0.85501 0.73807 0.63223 0.0
C1426 C 0.92203 0.65738 0.65759 0.0
C1427 C 0.92982 0.66873 0.69565 0.0
C1428 C 0.88781 0.71707 0.64868 0.0
C1429 C 0.92432 0.70748 0.70569 0.0
C1430 C 0.82969 0.72148 0.6052 0.0
C1431 C 0.81642 0.79462 0.63489 0.0
N1432 N 0.9021 0.73 0.68286 0.0
N1433 N 0.84677 0.77338 0.64716 0.0
H1434 H 0.8363 0.23994 0.86371 0.0
H1435 H 0.81956 0.45637 0.93797 0.0
H1436 H 0.72963 0.30224 0.87411 0.0
H1437 H 0.92785 0.39741 0.92503 0.0
H1438 H 0.78566 0.39747 0.92017 0.0
H1439 H 0.87162 0.29887 0.87937 0.0
C1440 C 0.82025 0.26668 0.86666 0.0
C1441 C 0.78 0.26584 0.87098 0.0
C1442 C 0.81689 0.39704 0.92191 0.0
C1443 C 0.8195 0.33269 0.88892 0.0
C1444 C 0.83618 0.43029 0.93378 0.0
C1445 C 0.87635 0.43219 0.93032 0.0
C1446 C 0.83848 0.36533 0.9087 0.0
C1447 C 0.89658 0.3973 0.92616 0.0
C1448 C 0.84043 0.29996 0.87721 0.0
C1449 C 0.76078 0.30144 0.87233 0.0
N1450 N 0.87753 0.3655 0.91339 0.0
N1451 N 0.78053 0.33326 0.88373 0.0
H1452 H 0.55417 0.0852 0.44166 0.0
H1453 H 0.60303 0.86639 0.39691 0.0
H1454 H 0.47718 0.99303 0.47023 0.0
H1455 H 0.66824 0.9627 0.35556 0.0
H1456 H 0.55505 0.91039 0.42359 0.0
H1457 H 0.60259 0.03844 0.42158 0.0
C1458 C 0.54821 0.05479 0.44602 0.0
C1459 C 0.51005 0.04212 0.45054 0.0
C1460 C 0.5794 0.92211 0.40792 0.0
C1461 C 0.56456 0.9891 0.43048 0.0
C1462 C 0.60619 0.89701 0.39147 0.0
C1463 C 0.64223 0.9121 0.38084 0.0
C1464 C 0.58722 0.96189 0.4073 0.0
C1465 C 0.64267 0.95067 0.36894 0.0
C1466 C 0.57531 1.02816 0.43288 0.0
C1467 C 0.50525 1.00341 0.46112 0.0
N1468 N 0.61695 0.97523 0.38525 0.0
N1469 N 0.53112 0.97732 0.44753 0.0
H1470 H 0.11762 0.20845 0.92253 0.0
H1471 H 0.33189 0.27051 0.87783 0.0
H1472 H 0.21518 0.14363 0.96035 0.0
H1473 H 0.23326 0.32695 0.83118 0.0
H1474 H 0.29173 0.21609 0.89784 0.0
H1475 H 0.16052 0.25577 0.89252 0.0
C1476 C 0.14852 0.20504 0.92588 0.0
C1477 C 0.16397 0.16903 0.93583 0.0
C1478 C 0.27855 0.23998 0.88252 0.0
C1479 C 0.21249 0.22236 0.90524 0.0
C1480 C 0.30158 0.2706 0.87001 0.0
C1481 C 0.28276 0.3056 0.86226 0.0
C1482 C 0.23822 0.24434 0.88 0.0
C1483 C 0.24657 0.30213 0.84483 0.0
C1484 C 0.17286 0.23112 0.90731 0.0
C1485 C 0.20291 0.16877 0.94637 0.0
N1486 N 0.2234 0.27338 0.85784 0.0
N1487 N 0.22693 0.19333 0.9276 0.0
H1488 H 0.85766 0.0709 0.87561 0.0
H1489 H 0.06742 0.10162 0.962 0.0
H1490 H 0.91333 0.18095 0.88702 0.0
H1491 H 1.02138 0.98962 0.93656 0.0
H1492 H 1.00506 0.13046 0.94681 0.0
H1493 H 0.91689 0.03898 0.89628 0.0
C1494 C 0.8832 0.08828 0.88013 0.0
C1495 C 0.88007 0.12842 0.8832 0.0
C1496 C 1.00824 0.09938 0.94509 0.0
C1497 C 0.94703 0.09305 0.90727 0.0
C1498 C 0.04339 0.08266 0.95535 0.0
C1499 C 0.05008 0.04421 0.94497 0.0
C1500 C 0.97959 0.0759 0.92846 0.0
C1501 C 1.01765 1.0204 0.94073 0.0
C1502 C 0.9165 0.07015 0.89359 0.0
C1503 C 0.91427 0.14967 0.88688 0.0
N1504 N 0.98389 0.03681 0.92944 0.0
N1505 N 0.9461 0.1319 0.9012 0.0
H1506 H 0.68099 0.47622 0.1489 0.0
H1507 H 0.74458 0.2558 0.15129 0.0
H1508 H 0.63668 0.39014 0.22739 0.0
H1509 H 0.77834 0.3353 0.06105 0.0
H1510 H 0.70952 0.30756 0.18256 0.0
H1511 H 0.71539 0.4255 0.11406 0.0
C1512 C 0.67758 0.4465 0.15802 0.0
C1513 C 0.65749 0.43723 0.19179 0.0
C1514 C 0.72485 0.31376 0.15604 0.0
C1515 C 0.69683 0.37986 0.15312 0.0
C1516 C 0.74557 0.28438 0.13856 0.0
C1517 C 0.76336 0.29105 0.1029 0.0
C1518 C 0.72226 0.34986 0.13777 0.0
C1519 C 0.76405 0.32877 0.08805 0.0
C1520 C 0.6976 0.4177 0.13854 0.0
C1521 C 0.65299 0.3984 0.20205 0.0
N1522 N 0.74302 0.35679 0.10526 0.0
N1523 N 0.67333 0.37107 0.18322 0.0
H1524 H 0.68902 0.18932 0.16783 0.0
H1525 H 0.51273 0.05421 0.16252 0.0
H1526 H 0.59902 0.19499 0.08174 0.0
H1527 H 0.58623 0.06536 0.26278 0.0
H1528 H 0.54414 0.10979 0.13423 0.0
H1529 H 0.64416 0.15887 0.21185 0.0
C1530 C 0.6593 0.18565 0.15867 0.0
C1531 C 0.64837 0.1902 0.11999 0.0
C1532 C 0.55323 0.10026 0.1626 0.0
C1533 C 0.59807 0.15564 0.16917 0.0
C1534 C 0.53628 0.06767 0.17816 0.0
C1535 C 0.54476 0.05742 0.21631 0.0
C1536 C 0.5802 0.12093 0.18469 0.0
C1537 C 0.57714 0.07402 0.23414 0.0
C1538 C 0.63377 0.16795 0.18377 0.0
C1539 C 0.60917 0.18837 0.11056 0.0
N1540 N 0.59307 0.10604 0.21862 0.0
N1541 N 0.58535 0.16919 0.13459 0.0
H1542 H 0.5615 0.50808 0.16425 0.0
H1543 H 0.33999 0.44389 0.15841 0.0
H1544 H 0.4759 0.54929 0.24493 0.0
H1545 H 0.42838 0.39572 0.08528 0.0
H1546 H 0.38945 0.4807 0.1927 0.0
H1547 H 0.51196 0.46899 0.13302 0.0
C1548 C 0.53209 0.50977 0.17476 0.0
C1549 C 0.52289 0.53178 0.20743 0.0
C1550 C 0.39813 0.46155 0.16959 0.0
C1551 C 0.46638 0.4861 0.17268 0.0
C1552 C 0.36995 0.43994 0.15055 0.0
C1553 C 0.38013 0.41699 0.11891 0.0
C1554 C 0.43657 0.46009 0.15666 0.0
C1555 C 0.41935 0.41343 0.10939 0.0
C1556 C 0.50394 0.48686 0.15736 0.0
C1557 C 0.48433 0.53244 0.22001 0.0
N1558 N 0.44611 0.43526 0.12781 0.0
N1559 N 0.45755 0.5096 0.20284 0.0
H1560 H 1.02141 0.63064 0.31028 0.0
H1561 H 0.1013 0.40973 0.26817 0.0
H1562 H 0.12584 0.61226 0.24675 0.0
H1563 H 0.03883 0.43864 0.37144 0.0
H1564 H 0.104 0.48021 0.2526 0.0
H1565 H 1.02113 0.56087 0.3274 0.0
C1566 C 0.04537 0.61288 0.30095 0.0
C1567 C 0.07493 0.63014 0.27805 0.0
C1568 C 0.08902 0.4711 0.27845 0.0
C1569 C 0.07268 0.54553 0.29516 0.0
C1570 C 0.08709 0.42991 0.2873 0.0
C1571 C 0.06855 0.41539 0.32115 0.0
C1572 C 0.07175 0.49982 0.30276 0.0
C1573 C 0.05243 0.44591 0.34434 0.0
C1574 C 0.04468 0.57193 0.31011 0.0
C1575 C 0.10297 0.60232 0.26536 0.0
N1576 N 0.05397 0.48486 0.33477 0.0
N1577 N 0.10096 0.56289 0.27339 0.0
H1578 H 0.68754 0.7913 0.05944 0.0
H1579 H 0.91292 0.72923 1.01127 0.0
H1580 H 0.71405 0.70039 0.97943 0.0
H1581 H 0.879 0.77317 0.12228 0.0
H1582 H 0.84289 0.7267 0.99333 0.0
H1583 H 0.75696 0.7922 0.07863 0.0
C1584 C 0.70696 0.77044 0.04662 0.0
C1585 C 0.69222 0.7445 1.0183 0.0
C1586 C 0.85086 0.73691 1.02174 0.0
C1587 C 0.77583 0.74772 0.0386 0.0
C1588 C 0.89164 0.73838 1.0321 0.0
C1589 C 0.90454 0.75087 0.06908 0.0
C1590 C 0.82103 0.74897 0.04772 0.0
C1591 C 0.87297 0.76283 0.09347 0.0
C1592 C 0.7476 0.77155 0.05715 0.0
C1593 C 0.72189 0.72033 1.00209 0.0
N1594 N 0.83441 0.76182 0.08259 0.0
N1595 N 0.76077 0.72283 1.01177 0.0
H1596 H 0.1177 0.12603 0.28189 0.0
H1597 H 1.00095 0.9176 0.27117 0.0
H1598 H 0.99601 0.1154 0.30215 0.0
H1599 H 0.11976 0.92786 0.23757 0.0
H1600 H 0.99979 0.98782 0.28498 0.0
H1601 H 0.12006 0.05611 0.26612 0.0
C1602 C 0.09087 0.10997 0.28144 0.0
C1603 C 0.05608 0.12947 0.29186 0.0
C1604 C 1.02659 0.97494 0.27536 0.0
C1605 C 0.05912 0.04482 0.27578 0.0
C1606 C 1.02751 0.93383 0.26804 0.0
C1607 C 0.0612 0.91414 0.25491 0.0
C1608 C 0.05946 0.99899 0.26923 0.0
C1609 C 0.09331 0.93967 0.24929 0.0
C1610 C 0.09244 0.06894 0.27313 0.0
C1611 C 1.02352 0.10387 0.29294 0.0
N1612 N 0.09167 0.97935 0.25648 0.0
N1613 N 1.02587 0.06438 0.28542 0.0
H1614 H 0.41346 0.73382 0.04851 0.0
H1615 H 0.18362 0.77937 0.99231 0.0
H1616 H 0.38102 0.7986 0.94739 0.0
H1617 H 0.2225 0.73584 0.10224 0.0
H1618 H 0.25292 0.78182 0.97193 0.0
H1619 H 0.34375 0.73022 0.06594 0.0
C1620 C 0.39253 0.74783 1.02997 0.0
C1621 C 0.4057 0.76696 0.99606 0.0
C1622 C 0.24606 0.77088 1.00037 0.0
C1623 C 0.32212 0.76164 1.01594 0.0
C1624 C 0.20554 0.76894 1.01203 0.0
C1625 C 0.19402 0.75556 0.04928 0.0
C1626 C 0.27704 0.75943 1.02556 0.0
C1627 C 0.22689 0.74469 0.0727 0.0
C1628 C 0.35181 0.74539 0.03985 0.0
C1629 C 0.37446 0.78329 0.9738 0.0
N1630 N 0.26497 0.74663 0.0608 0.0
N1631 N 0.3357 0.78016 0.98373 0.0
H1632 H 0.27474 1.00225 0.45065 0.0
H1633 H 0.25236 0.1253 0.65428 0.0
H1634 H 0.29777 0.12368 0.45593 0.0
H1635 H 0.24857 1.00158 0.64996 0.0
H1636 H 0.26605 0.12651 0.58397 0.0
H1637 H 0.26046 1.00256 0.52049 0.0
C1638 C 0.27569 1.02958 0.46558 0.0
C1639 C 0.28666 0.06322 0.44429 0.0
C1640 C 0.26294 0.09881 0.59814 0.0
C1641 C 0.27094 0.06366 0.52948 0.0
C1642 C 0.25567 0.09802 0.63939 0.0
C1643 C 0.25085 0.0631 0.66096 0.0
C1644 C 0.26453 0.06439 0.57556 0.0
C1645 C 0.25319 1.02954 0.63683 0.0
C1646 C 0.26789 1.0296 0.50666 0.0
C1647 C 0.28829 0.09677 0.46865 0.0
N1648 N 0.2596 1.03109 0.59698 0.0
N1649 N 0.28072 0.09609 0.50837 0.0
H1650 H 0.1902 0.53168 0.86139 0.0
H1651 H 0.31954 0.55418 0.66182 0.0
H1652 H 0.31332 0.51876 0.85922 0.0
H1653 H 0.19664 0.56969 0.6623 0.0
H1654 H 0.31744 0.54079 0.73198 0.0
H1655 H 0.19135 0.54678 0.79144 0.0
C1656 C 0.21796 0.53373 0.84722 0.0
C1657 C 0.25196 0.52589 0.86934 0.0
C1658 C 0.29053 0.54623 0.71699 0.0
C1659 C 0.25338 0.54122 0.78431 0.0
C1660 C 0.29162 0.55327 0.67584 0.0
C1661 C 0.25798 0.56099 0.65325 0.0
C1662 C 0.25546 0.54755 0.7384 0.0
C1663 C 0.22355 0.56197 0.67623 0.0
C1664 C 0.21849 0.54169 0.80612 0.0
C1665 C 0.28612 0.52659 0.8459 0.0
N1666 N 0.22328 0.55537 0.7161 0.0
N1667 N 0.28585 0.53383 0.80622 0.0
H1668 H 0.78249 0.507 0.66405 0.0
H1669 H 0.79192 0.61455 0.45005 0.0
H1670 H 0.84713 0.61118 0.6456 0.0
H1671 H 0.74772 0.49985 0.46582 0.0
H1672 H 0.8103 0.61565 0.51945 0.0
H1673 H 0.76619 0.50618 0.59417 0.0
C1674 C 0.79243 0.53063 0.64613 0.0
C1675 C 0.81547 0.56015 0.66335 0.0
C1676 C 0.79738 0.58968 0.50783 0.0
C1677 C 0.79727 0.55858 0.57901 0.0
C1678 C 0.78747 0.58868 0.46705 0.0
C1679 C 0.76987 0.55601 0.44902 0.0
C1680 C 0.78889 0.55831 0.53332 0.0
C1681 C 0.76277 0.52528 0.47602 0.0
C1682 C 0.78346 0.52979 0.60519 0.0
C1683 C 0.82843 0.58819 0.63569 0.0
N1684 N 0.77187 0.52726 0.51523 0.0
N1685 N 0.81922 0.58683 0.59645 0.0
H1686 H 0.81035 1.02696 0.86095 0.0
H1687 H 0.6844 1.00217 0.65994 0.0
H1688 H 0.68892 0.05068 0.85711 0.0
H1689 H 0.80818 1.00544 0.66148 0.0
H1690 H 0.68405 1.01616 0.73014 0.0
H1691 H 0.80902 1.01319 0.79096 0.0
C1692 C 0.78282 1.02794 0.84628 0.0
C1693 C 0.74945 0.03874 0.86787 0.0
C1694 C 0.71153 1.01452 0.71535 0.0
C1695 C 0.74779 1.02387 0.78295 0.0
C1696 C 0.71176 1.00718 0.67421 0.0
C1697 C 0.74638 1.0043 0.65203 0.0
C1698 C 0.74636 1.01779 0.73708 0.0
C1699 C 0.78035 1.00854 0.67526 0.0
C1700 C 0.78221 1.02055 0.80521 0.0
C1701 C 0.71555 0.04091 0.84405 0.0
N1702 N 0.77941 1.01472 0.71508 0.0
N1703 N 0.71566 0.03364 0.80435 0.0
H1704 H 0.32775 0.12091 0.1509 0.0
H1705 H 0.26853 0.9971 0.95575 0.0
H1706 H 0.30731 0.99871 0.15314 0.0
H1707 H 0.2828 0.12007 0.95337 0.0
H1708 H 0.28517 0.99701 1.02504 0.0
H1709 H 0.31279 0.12151 0.08101 0.0
C1710 C 0.31874 0.09413 0.13751 0.0
C1711 C 0.31697 0.06008 0.16082 0.0
C1712 C 0.28579 1.02419 1.00959 0.0
C1713 C 0.3014 0.0601 0.07593 0.0
C1714 C 0.277 1.02422 0.96881 0.0
C1715 C 0.2762 0.05832 0.94547 0.0
C1716 C 0.29353 0.05884 1.03016 0.0
C1717 C 0.28468 0.09231 0.9676 0.0
C1718 C 0.31068 0.09444 0.09652 0.0
C1719 C 0.30749 1.02644 0.13868 0.0
N1720 N 0.29279 0.09158 1.00725 0.0
N1721 N 0.30024 1.02744 0.09892 0.0
H1722 H 0.29179 0.50061 0.37203 0.0
H1723 H 0.22917 0.5508 0.14688 0.0
H1724 H 0.20268 0.58283 0.34574 0.0
H1725 H 0.27332 0.43938 0.17978 0.0
H1726 H 0.22672 0.56809 0.21696 0.0
H1727 H 0.2921 0.48151 0.30267 0.0
C1728 C 0.27118 0.51398 0.35268 0.0
C1729 C 0.24588 0.54289 0.36753 0.0
C1730 C 0.237 0.53974 0.20881 0.0
C1731 C 0.24841 0.52257 0.28379 0.0
C1732 C 0.23835 0.52972 0.16799 0.0
C1733 C 0.25096 0.49286 0.15474 0.0
C1734 C 0.24934 0.51357 0.23846 0.0
C1735 C 0.26304 0.46816 0.18609 0.0
C1736 C 0.27194 0.50347 0.31202 0.0
C1737 C 0.22208 0.55973 0.33784 0.0
N1738 N 0.26217 0.47875 0.22475 0.0
N1739 N 0.22422 0.55 0.29897 0.0
H1740 H 0.75447 0.62479 0.1574 0.0
H1741 H 0.7742 0.50249 0.95299 0.0
H1742 H 0.74643 0.50132 0.15218 0.0
H1743 H 0.79805 0.62374 0.95905 0.0
H1744 H 0.75989 0.50251 1.0229 0.0
H1745 H 0.76817 0.62604 0.08711 0.0
C1746 C 0.75693 0.59752 0.14233 0.0
C1747 C 0.75096 0.56264 0.16364 0.0
C1748 C 0.76743 0.52958 1.00919 0.0
C1749 C 0.76456 0.56407 0.07828 0.0
C1750 C 0.77514 0.52975 0.9681 0.0
C1751 C 0.78619 0.56349 0.94702 0.0
C1752 C 0.77082 0.5635 1.03221 0.0
C1753 C 0.78826 0.59685 0.97158 0.0
C1754 C 0.76416 0.59835 0.10109 0.0
C1755 C 0.75213 0.52919 0.13927 0.0
N1756 N 0.78083 0.59597 1.0113 0.0
N1757 N 0.75855 0.53079 0.09944 0.0
H1758 H 0.81274 0.0451 0.1571 0.0
H1759 H 0.68976 0.03519 0.36187 0.0
H1760 H 0.69496 0.0829 0.16458 0.0
H1761 H 0.812 1.0162 0.35622 0.0
H1762 H 0.68991 0.05115 0.29203 0.0
H1763 H 0.81185 1.03126 0.22735 0.0
C1764 C 0.78593 0.04913 0.17264 0.0
C1765 C 0.75315 0.0634 0.15204 0.0
C1766 C 0.71712 0.04444 0.30592 0.0
C1767 C 0.75247 0.04889 0.23713 0.0
C1768 C 0.71721 0.03602 0.34697 0.0
C1769 C 0.75137 1.02626 0.36805 0.0
C1770 C 0.75133 0.04219 0.28307 0.0
C1771 C 0.78485 1.02529 0.34363 0.0
C1772 C 0.78567 0.04177 0.21384 0.0
C1773 C 0.72073 0.07018 0.17694 0.0
N1774 N 0.78389 1.03276 0.30401 0.0
N1775 N 0.72121 0.06281 0.21664 0.0
H1776 H 0.62309 0.28155 0.92896 0.0
H1777 H 0.41464 0.29061 0.04509 0.0
H1778 H 0.6128 0.25927 0.05026 0.0
H1779 H 0.4271 0.33564 0.93035 0.0
H1780 H 0.4846 0.27518 0.04568 0.0
H1781 H 0.55353 0.29907 0.92723 0.0
C1782 C 0.60721 0.28191 0.95585 0.0
C1783 C 0.62675 0.27077 0.99042 0.0
C1784 C 0.47223 0.28771 1.01984 0.0
C1785 C 0.54241 0.28853 0.988 0.0
C1786 C 0.43127 0.29606 1.01921 0.0
C1787 C 0.41232 0.31301 0.9868 0.0
C1788 C 0.49676 0.29631 0.98794 0.0
C1789 C 0.43834 0.32112 0.95567 0.0
C1790 C 0.56638 0.29126 0.95464 0.0
C1791 C 0.60129 0.2693 1.023 0.0
N1792 N 0.47779 0.31266 0.95694 0.0
N1793 N 0.56192 0.27766 1.02093 0.0
H1794 H 0.62172 0.77575 0.547 0.0
H1795 H 0.41851 0.74848 0.4256 0.0
H1796 H 0.61457 0.80512 0.42712 0.0
H1797 H 0.42023 0.76067 0.54868 0.0
H1798 H 0.4886 0.76272 0.42411 0.0
H1799 H 0.55169 0.76201 0.54698 0.0
C1800 C 0.60638 0.77814 0.51999 0.0
C1801 C 0.62722 0.79059 0.48664 0.0
C1802 C 0.47395 0.76304 0.45163 0.0
C1803 C 0.54194 0.7752 0.48657 0.0
C1804 C 0.4328 0.75546 0.45252 0.0
C1805 C 0.41054 0.75484 0.48724 0.0
C1806 C 0.49588 0.76882 0.48595 0.0
C1807 C 0.43394 0.76171 0.5207 0.0
C1808 C 0.56521 0.77064 0.52018 0.0
C1809 C 0.6023 0.79414 0.45361 0.0
N1810 N 0.47388 0.76794 0.51918 0.0
N1811 N 0.56259 0.78645 0.4544 0.0
H1812 H 0.99867 0.3961 0.89314 0.0
H1813 H 1.03095 0.1962 0.76827 0.0
H1814 H 1.01315 0.39678 0.77033 0.0
H1815 H 0.05586 0.20018 0.88932 0.0
H1816 H 1.01684 0.26616 0.76947 0.0
H1817 H 1.01407 0.32621 0.89385 0.0
C1818 C 1.00633 0.38237 0.86616 0.0
C1819 C 1.00619 0.40521 0.83179 0.0
C1820 C 1.02458 0.25196 0.79623 0.0
C1821 C 1.02112 0.32017 0.83194 0.0
C1822 C 1.03222 0.21087 0.7957 0.0
C1823 C 0.0434 0.18925 0.82901 0.0
C1824 C 1.0279 0.27428 0.83053 0.0
C1825 C 0.04584 0.21318 0.86274 0.0
C1826 C 1.01451 0.34134 0.86654 0.0
C1827 C 1.0139 0.38256 0.79809 0.0
N1828 N 0.0382 0.25289 0.86257 0.0
N1829 N 1.02056 0.34272 0.79906 0.0
H1830 H 0.53133 0.69813 0.26583 0.0
H1831 H 0.49315 0.89641 0.38971 0.0
H1832 H 0.55251 0.70126 0.38764 0.0
H1833 H 0.52045 0.8995 0.26918 0.0
H1834 H 0.50784 0.82645 0.39068 0.0
H1835 H 0.5184 0.76832 0.26687 0.0
C1836 C 0.53195 0.71269 0.29333 0.0
C1837 C 0.54172 0.69085 0.3269 0.0
C1838 C 0.51143 0.84216 0.36392 0.0
C1839 C 0.52746 0.77587 0.32831 0.0
C1840 C 0.50374 0.88319 0.36349 0.0
C1841 C 0.50766 0.90674 0.32988 0.0
C1842 C 0.52131 0.8217 0.32978 0.0
C1843 C 0.51843 0.88475 0.29661 0.0
C1844 C 0.52501 0.75385 0.29378 0.0
C1845 C 0.5434 0.71449 0.36084 0.0
N1846 N 0.52439 0.84481 0.29743 0.0
N1847 N 0.53629 0.75426 0.36062 0.0
H1848 H 0.90973 0.78164 0.54414 0.0
H1849 H 0.12663 0.79518 0.44318 0.0
H1850 H 0.93052 0.85037 0.4431 0.0
H1851 H 0.10691 0.74605 0.55514 0.0
H1852 H 0.05712 0.81356 0.44038 0.0
H1853 H 0.97953 0.76498 0.54579 0.0
C1854 C 0.92816 0.79239 0.52131 0.0
C1855 C 0.91167 0.81669 0.49241 0.0
C1856 C 0.06788 0.79934 0.46606 0.0
C1857 C 0.99582 0.79809 0.49504 0.0
C1858 C 0.10863 0.78927 0.46799 0.0
C1859 C 0.12539 0.76991 0.50033 0.0
C1860 C 0.0414 0.78956 0.49618 0.0
C1861 C 0.09748 0.76186 0.52989 0.0
C1862 C 0.96903 0.78322 0.52266 0.0
C1863 C 0.9399 0.83066 0.46548 0.0
N1864 N 0.05843 0.77122 0.52705 0.0
N1865 N 0.97909 0.82124 0.46731 0.0
H1866 H 0.05503 0.89991 0.88515 0.0
H1867 H 1.02463 0.69546 0.76528 0.0
H1868 H 0.06739 0.89157 0.7623 0.0
H1869 H 1.01603 0.7008 0.88842 0.0
H1870 H 0.04099 0.76498 0.76407 0.0
H1871 H 0.04003 0.82983 0.8875 0.0
C1872 C 0.05309 0.88423 0.8582 0.0
C1873 C 0.06056 0.90449 0.82307 0.0
C1874 C 0.03654 0.75116 0.79174 0.0
C1875 C 0.04501 0.8197 0.82587 0.0
C1876 C 1.02791 0.71031 0.79258 0.0
C1877 C 1.02098 0.68919 0.82732 0.0
C1878 C 0.03759 0.7739 0.82592 0.0
C1879 C 1.02287 0.71345 0.86078 0.0
C1880 C 0.0451 0.84315 0.85969 0.0
C1881 C 0.0601 0.87947 0.79015 0.0
N1882 N 1.03078 0.75307 0.85923 0.0
N1883 N 0.05252 0.8399 0.79238 0.0
H1884 H 0.51759 0.12504 0.79335 0.0
H1885 H 0.63856 0.92079 0.81289 0.0
H1886 H 0.63594 0.11691 0.75845 0.0
H1887 H 0.51503 0.92279 0.80407 0.0
H1888 H 0.63984 0.99115 0.79968 0.0
H1889 H 0.51742 0.05461 0.80606 0.0
C1890 C 0.54428 0.10934 0.78963 0.0
C1891 C 0.57734 0.12991 0.776 0.0
C1892 C 0.61223 0.97648 0.79995 0.0
C1893 C 0.57714 0.04455 0.79002 0.0
C1894 C 0.61146 0.93523 0.80686 0.0
C1895 C 0.57667 0.91304 0.80799 0.0
C1896 C 0.57773 0.99848 0.79558 0.0
C1897 C 0.54302 0.93653 0.80246 0.0
C1898 C 0.54397 0.06803 0.79646 0.0
C1899 C 0.60985 0.10474 0.7705 0.0
N1900 N 0.54443 0.97656 0.79696 0.0
N1901 N 0.60899 0.06499 0.77763 0.0
H1902 H 0.20822 0.19021 0.48706 0.0
H1903 H 0.3795 0.27544 0.62226 0.0
H1904 H 0.18885 0.28946 0.55845 0.0
H1905 H 0.40825 0.22132 0.51455 0.0
H1906 H 0.31149 0.27363 0.60521 0.0
H1907 H 0.27735 0.19224 0.50304 0.0
C1908 C 0.21768 0.21173 0.50755 0.0
C1909 C 0.18973 0.23849 0.5222 0.0
C1910 C 0.33215 0.26189 0.58493 0.0
C1911 C 0.27384 0.24197 0.54058 0.0
C1912 C 0.37235 0.26287 0.59458 0.0
C1913 C 0.40267 0.24819 0.5704 0.0
C1914 C 0.3189 0.24487 0.55049 0.0
C1915 C 0.38793 0.23264 0.53517 0.0
C1916 C 0.25829 0.2133 0.51609 0.0
C1917 C 0.20688 0.26661 0.54713 0.0
N1918 N 0.34815 0.23093 0.52688 0.0
N1919 N 0.24655 0.26719 0.55547 0.0
H1920 H 0.49764 0.61866 0.79346 0.0
H1921 H 0.62493 0.42169 0.74932 0.0
H1922 H 0.62133 0.6212 0.78792 0.0
H1923 H 0.50102 0.42311 0.75097 0.0
H1924 H 0.6251 0.49184 0.76391 0.0
H1925 H 0.49886 0.54931 0.77716 0.0
C1926 C 0.52531 0.60555 0.78712 0.0
C1927 C 0.55924 0.62884 0.7902 0.0
C1928 C 0.59765 0.477 0.76199 0.0
C1929 C 0.56116 0.54425 0.77345 0.0
C1930 C 0.59751 0.4359 0.7542 0.0
C1931 C 0.5629 0.41369 0.75078 0.0
C1932 C 0.56279 0.49852 0.76597 0.0
C1933 C 0.52885 0.43679 0.75498 0.0
C1934 C 0.52599 0.56479 0.77849 0.0
C1935 C 0.59382 0.60684 0.78421 0.0
N1936 N 0.52976 0.47647 0.76229 0.0
N1937 N 0.59377 0.56713 0.77641 0.0
H1938 H 0.69415 0.19364 0.53182 0.0
H1939 H 0.89751 0.3179 0.51442 0.0
H1940 H 0.70033 0.31628 0.54739 0.0
H1941 H 0.89378 0.19581 0.49379 0.0
H1942 H 0.82727 0.31705 0.52742 0.0
H1943 H 0.76431 0.19294 0.51709 0.0
C1944 C 0.70929 0.22092 0.53046 0.0
C1945 C 0.68837 0.25541 0.53905 0.0
C1946 C 0.84157 0.29001 0.52096 0.0
C1947 C 0.77334 0.2546 0.52411 0.0
C1948 C 0.88273 0.29033 0.51415 0.0
C1949 C 0.90439 0.25648 0.50512 0.0
C1950 C 0.81925 0.25559 0.5181 0.0
C1951 C 0.88054 0.2227 0.50263 0.0
C1952 C 0.75044 0.22038 0.52272 0.0
C1953 C 0.71283 0.28885 0.53912 0.0
N1954 N 0.84065 0.22317 0.50908 0.0
N1955 N 0.75248 0.28754 0.53208 0.0
H1956 H 0.12346 0.27215 0.04285 0.0
H1957 H 0.9174 0.25137 0.92419 0.0
H1958 H 0.11458 0.30378 0.92365 0.0
H1959 H 0.92279 0.25534 0.04769 0.0
H1960 H 0.98762 0.26487 0.9217 0.0
H1961 H 0.05339 0.25842 0.04355 0.0
C1962 C 0.10775 0.27471 1.01604 0.0
C1963 C 0.12814 0.28754 0.98257 0.0
C1964 C 0.97376 0.26354 0.94957 0.0
C1965 C 0.0428 0.27282 0.98354 0.0
C1966 C 0.93253 0.2564 0.95108 0.0
C1967 C 0.91132 0.25366 0.98632 0.0
C1968 C 0.9967 0.26686 0.98361 0.0
C1969 C 0.93573 0.25803 1.01948 0.0
C1970 C 0.06656 0.26741 1.01669 0.0
C1971 C 0.10271 0.29211 0.95005 0.0
N1972 N 0.97563 0.26403 1.01728 0.0
N1973 N 0.06297 0.2847 0.95132 0.0
H1974 H 0.52847 0.19546 0.26475 0.0
H1975 H 0.54256 0.40373 0.38077 0.0
H1976 H 0.51077 0.20385 0.38676 0.0
H1977 H 0.57044 0.3917 0.2608 0.0
H1978 H 0.5286 0.33339 0.38354 0.0
H1979 H 0.54357 0.26529 0.26289 0.0
C1980 C 0.52946 0.21109 0.29178 0.0
C1981 C 0.52033 0.19085 0.3265 0.0
C1982 C 0.53697 0.34597 0.35619 0.0
C1983 C 0.53525 0.27568 0.32407 0.0
C1984 C 0.54435 0.38714 0.35437 0.0
C1985 C 0.55611 0.40628 0.31985 0.0
C1986 C 0.54164 0.3215 0.32343 0.0
C1987 C 0.56 0.3803 0.28794 0.0
C1988 C 0.53733 0.25207 0.29051 0.0
C1989 C 0.51932 0.21594 0.35935 0.0
N1990 N 0.55286 0.34073 0.29047 0.0
N1991 N 0.52643 0.25563 0.35732 0.0
loop_
_geom_bond_atom_site_label_1
_geom_bond_atom_site_label_2
_geom_bond_distance
_geom_bond_site_symmetry_2
_ccdc_geom_bond_type
H0 O1 0.850 . S
O1 H0 0.850 . S
O1 Tb2 2.341 . S
O1 Tb3 2.341 . S
O1 Tb4 2.341 . S
Tb2 O1 2.341 . S
Tb2 O5 2.341 . S
Tb2 O6 2.341 1_455 S
Tb2 O7 2.341 1_455 S
Tb2 O22 2.344 . S
Tb2 O25 2.344 1_455 S
Tb2 O38 2.344 1_455 S
Tb2 O41 2.344 . S
Tb3 O1 2.341 . S
Tb3 O5 2.341 . S
Tb3 O8 2.341 . S
Tb3 O10 2.341 . S
Tb3 O26 2.344 . S
Tb3 O29 2.344 . S
Tb3 O34 2.344 . S
Tb3 O37 2.344 . S
Tb4 O1 2.341 . S
Tb4 O6 2.341 1_455 S
Tb4 O9 2.341 1_455 S
Tb4 O10 2.341 . S
Tb4 O30 2.344 . S
Tb4 O33 2.344 . S
Tb4 O43 2.344 1_455 S
Tb4 O44 2.344 . S
O5 Tb2 2.341 . S
O5 Tb3 2.341 . S
O5 H11 0.850 . S
O5 Tb13 2.341 1_455 S
O6 Tb2 2.341 1_655 S
O6 Tb4 2.341 1_655 S
O6 H12 0.850 . S
O6 Tb14 2.341 . S
O7 Tb2 2.341 1_655 S
O7 Tb13 2.341 . S
O7 Tb14 2.341 . S
O7 H15 0.850 . S
O8 Tb3 2.341 . S
O8 Tb13 2.341 1_455 S
O8 H16 0.850 . S
O8 Tb17 2.341 . S
O9 Tb4 2.341 1_655 S
O9 Tb14 2.341 . S
O9 Tb17 2.341 1_655 S
O9 H18 0.850 . S
O10 Tb3 2.341 . S
O10 Tb4 2.341 . S
O10 Tb17 2.341 . S
O10 H19 0.850 . S
H11 O5 0.850 . S
H12 O6 0.850 . S
Tb13 O5 2.341 1_655 S
Tb13 O7 2.341 . S
Tb13 O8 2.341 1_655 S
Tb13 O20 2.341 . S
Tb13 O31 2.344 . S
Tb13 O32 2.344 . S
Tb13 O42 2.344 1_655 S
Tb13 O45 2.344 . S
Tb14 O6 2.341 . S
Tb14 O7 2.341 . S
Tb14 O9 2.341 . S
Tb14 O20 2.341 . S
Tb14 O27 2.344 . S
Tb14 O28 2.344 . S
Tb14 O35 2.344 . S
Tb14 O36 2.344 . S
H15 O7 0.850 . S
H16 O8 0.850 . S
Tb17 O8 2.341 . S
Tb17 O9 2.341 1_455 S
Tb17 O10 2.341 . S
Tb17 O20 2.341 1_455 S
Tb17 O23 2.344 1_455 S
Tb17 O24 2.344 . S
Tb17 O39 2.344 . S
Tb17 O40 2.344 1_455 S
H18 O9 0.850 . S
H19 O10 0.850 . S
O20 Tb13 2.341 . S
O20 Tb14 2.341 . S
O20 Tb17 2.341 1_655 S
O20 H21 0.850 . S
H21 O20 0.850 . S
O22 Tb2 2.344 . S
O22 C46 1.272 . S
O23 Tb17 2.344 1_655 S
O23 C47 1.272 . S
O24 Tb17 2.344 . S
O24 C48 1.272 . S
O25 Tb2 2.344 1_655 S
O25 C49 1.272 . S
O26 Tb3 2.344 . S
O26 C50 1.272 . S
O27 Tb14 2.344 . S
O27 C51 1.272 . S
O28 Tb14 2.344 . S
O28 C52 1.272 . S
O29 Tb3 2.344 . S
O29 C53 1.272 . S
O30 Tb4 2.344 . S
O30 C54 1.272 . S
O31 Tb13 2.344 . S
O31 C55 1.272 . S
O32 Tb13 2.344 . S
O32 C56 1.272 . S
O33 Tb4 2.344 . S
O33 C57 1.272 . S
O34 Tb3 2.344 . S
O34 C46 1.272 . S
O35 Tb14 2.344 . S
O35 C47 1.272 . S
O36 Tb14 2.344 . S
O36 C49 1.272 . S
O37 Tb3 2.344 . S
O37 C48 1.272 . S
O38 Tb2 2.344 1_655 S
O38 C56 1.272 . S
O39 Tb17 2.344 . S
O39 C57 1.272 . S
O40 Tb17 2.344 1_655 S
O40 C55 1.272 . S
O41 Tb2 2.344 . S
O41 C54 1.272 . S
O42 Tb13 2.344 1_455 S
O42 C53 1.272 . S
O43 Tb4 2.344 1_655 S
O43 C52 1.272 . S
O44 Tb4 2.344 . S
O44 C50 1.272 . S
O45 Tb13 2.344 . S
O45 C51 1.272 . S
C46 O22 1.272 . S
C46 O34 1.272 . S
C47 O23 1.272 . S
C47 O35 1.272 . S
C48 O24 1.272 . S
C48 O37 1.272 . S
C49 O25 1.272 . S
C49 O36 1.272 . S
C50 O26 1.272 . S
C50 O44 1.272 . S
C51 O27 1.272 . S
C51 O45 1.272 . S
C52 O28 1.272 . S
C52 O43 1.272 . S
C53 O29 1.272 . S
C53 O42 1.272 . S
C54 O30 1.272 . S
C54 O41 1.272 . S
C55 O31 1.272 . S
C55 O40 1.272 . S
C56 O32 1.272 . S
C56 O38 1.272 . S
C57 O33 1.272 . S
C57 O39 1.272 . S
H58 O59 0.850 . S
O59 H58 0.850 . S
O59 Tb60 2.341 . S
O59 Tb61 2.341 . S
O59 Tb62 2.341 . S
Tb60 O59 2.341 . S
Tb60 O63 2.341 . S
Tb60 O64 2.341 . S
Tb60 O65 2.341 . S
Tb60 O80 2.344 . S
Tb60 O83 2.344 . S
Tb60 O96 2.344 . S
Tb60 O99 2.344 . S
Tb61 O59 2.341 . S
Tb61 O63 2.341 . S
Tb61 O66 2.341 . S
Tb61 O68 2.341 . S
Tb61 O84 2.344 . S
Tb61 O87 2.344 . S
Tb61 O92 2.344 . S
Tb61 O95 2.344 . S
Tb62 O59 2.341 . S
Tb62 O64 2.341 . S
Tb62 O67 2.341 . S
Tb62 O68 2.341 . S
Tb62 O88 2.344 . S
Tb62 O91 2.344 . S
Tb62 O101 2.344 . S
Tb62 O102 2.344 . S
O63 Tb60 2.341 . S
O63 Tb61 2.341 . S
O63 H69 0.850 . S
O63 Tb71 2.341 . S
O64 Tb60 2.341 . S
O64 Tb62 2.341 . S
O64 H70 0.850 . S
O64 Tb72 2.341 . S
O65 Tb60 2.341 . S
O65 Tb71 2.341 . S
O65 Tb72 2.341 . S
O65 H73 0.850 . S
O66 Tb61 2.341 . S
O66 Tb71 2.341 . S
O66 H74 0.850 . S
O66 Tb75 2.341 . S
O67 Tb62 2.341 . S
O67 Tb72 2.341 . S
O67 Tb75 2.341 . S
O67 H76 0.850 . S
O68 Tb61 2.341 . S
O68 Tb62 2.341 . S
O68 Tb75 2.341 . S
O68 H77 0.850 . S
H69 O63 0.850 . S
H70 O64 0.850 . S
Tb71 O63 2.341 . S
Tb71 O65 2.341 . S
Tb71 O66 2.341 . S
Tb71 O78 2.341 . S
Tb71 O89 2.344 . S
Tb71 O90 2.344 . S
Tb71 O100 2.344 . S
Tb71 O103 2.344 . S
Tb72 O64 2.341 . S
Tb72 O65 2.341 . S
Tb72 O67 2.341 . S
Tb72 O78 2.341 . S
Tb72 O85 2.344 . S
Tb72 O86 2.344 . S
Tb72 O93 2.344 . S
Tb72 O94 2.344 . S
H73 O65 0.850 . S
H74 O66 0.850 . S
Tb75 O66 2.341 . S
Tb75 O67 2.341 . S
Tb75 O68 2.341 . S
Tb75 O78 2.341 . S
Tb75 O81 2.344 . S
Tb75 O82 2.344 . S
Tb75 O97 2.344 . S
Tb75 O98 2.344 . S
H76 O67 0.850 . S
H77 O68 0.850 . S
O78 Tb71 2.341 . S
O78 Tb72 2.341 . S
O78 Tb75 2.341 . S
O78 H79 0.850 . S
H79 O78 0.850 . S
O80 Tb60 2.344 . S
O80 C104 1.272 . S
O81 Tb75 2.344 . S
O81 C105 1.272 . S
O82 Tb75 2.344 . S
O82 C106 1.272 . S
O83 Tb60 2.344 . S
O83 C107 1.272 . S
O84 Tb61 2.344 . S
O84 C108 1.272 . S
O85 Tb72 2.344 . S
O85 C109 1.272 . S
O86 Tb72 2.344 . S
O86 C110 1.272 . S
O87 Tb61 2.344 . S
O87 C111 1.272 . S
O88 Tb62 2.344 . S
O88 C112 1.272 . S
O89 Tb71 2.344 . S
O89 C113 1.272 . S
O90 Tb71 2.344 . S
O90 C114 1.272 . S
O91 Tb62 2.344 . S
O91 C115 1.272 . S
O92 Tb61 2.344 . S
O92 C104 1.272 . S
O93 Tb72 2.344 . S
O93 C105 1.272 . S
O94 Tb72 2.344 . S
O94 C107 1.272 . S
O95 Tb61 2.344 . S
O95 C106 1.272 . S
O96 Tb60 2.344 . S
O96 C114 1.272 . S
O97 Tb75 2.344 . S
O97 C115 1.272 . S
O98 Tb75 2.344 . S
O98 C113 1.272 . S
O99 Tb60 2.344 . S
O99 C112 1.272 . S
O100 Tb71 2.344 . S
O100 C111 1.272 . S
O101 Tb62 2.344 . S
O101 C110 1.272 . S
O102 Tb62 2.344 . S
O102 C108 1.272 . S
O103 Tb71 2.344 . S
O103 C109 1.272 . S
C104 O80 1.272 . S
C104 O92 1.272 . S
C105 O81 1.272 . S
C105 O93 1.272 . S
C106 O82 1.272 . S
C106 O95 1.272 . S
C107 O83 1.272 . S
C107 O94 1.272 . S
C108 O84 1.272 . S
C108 O102 1.272 . S
C109 O85 1.272 . S
C109 O103 1.272 . S
C110 O86 1.272 . S
C110 O101 1.272 . S
C111 O87 1.272 . S
C111 O100 1.272 . S
C112 O88 1.272 . S
C112 O99 1.272 . S
C113 O89 1.272 . S
C113 O98 1.272 . S
C114 O90 1.272 . S
C114 O96 1.272 . S
C115 O91 1.272 . S
C115 O97 1.272 . S
H116 O117 0.850 . S
O117 H116 0.850 . S
O117 Tb118 2.341 1_655 S
O117 Tb119 2.341 . S
O117 Tb120 2.341 . S
Tb118 O117 2.341 1_455 S
Tb118 O121 2.341 . S
Tb118 O122 2.341 1_455 S
Tb118 O123 2.341 . S
Tb118 O138 2.344 1_455 S
Tb118 O141 2.344 . S
Tb118 O154 2.344 . S
Tb118 O157 2.344 1_455 S
Tb119 O117 2.341 . S
Tb119 O121 2.341 1_655 S
Tb119 O124 2.341 1_655 S
Tb119 O126 2.341 . S
Tb119 O142 2.344 . S
Tb119 O145 2.344 1_655 S
Tb119 O150 2.344 . S
Tb119 O153 2.344 . S
Tb120 O117 2.341 . S
Tb120 O122 2.341 . S
Tb120 O125 2.341 . S
Tb120 O126 2.341 . S
Tb120 O146 2.344 . S
Tb120 O149 2.344 . S
Tb120 O159 2.344 . S
Tb120 O160 2.344 . S
O121 Tb118 2.341 . S
O121 Tb119 2.341 1_455 S
O121 H127 0.850 . S
O121 Tb129 2.341 . S
O122 Tb118 2.341 1_655 S
O122 Tb120 2.341 . S
O122 H128 0.850 . S
O122 Tb130 2.341 1_655 S
O123 Tb118 2.341 . S
O123 Tb129 2.341 . S
O123 Tb130 2.341 . S
O123 H131 0.850 . S
O124 Tb119 2.341 1_455 S
O124 Tb129 2.341 . S
O124 H132 0.850 . S
O124 Tb133 2.341 . S
O125 Tb120 2.341 . S
O125 Tb130 2.341 1_655 S
O125 Tb133 2.341 1_655 S
O125 H134 0.850 . S
O126 Tb119 2.341 . S
O126 Tb120 2.341 . S
O126 Tb133 2.341 1_655 S
O126 H135 0.850 . S
H127 O121 0.850 . S
H128 O122 0.850 . S
Tb129 O121 2.341 . S
Tb129 O123 2.341 . S
Tb129 O124 2.341 . S
Tb129 O136 2.341 . S
Tb129 O147 2.344 . S
Tb129 O148 2.344 . S
Tb129 O158 2.344 . S
Tb129 O161 2.344 . S
Tb130 O122 2.341 1_455 S
Tb130 O123 2.341 . S
Tb130 O125 2.341 1_455 S
Tb130 O136 2.341 . S
Tb130 O143 2.344 . S
Tb130 O144 2.344 1_455 S
Tb130 O151 2.344 . S
Tb130 O152 2.344 . S
H131 O123 0.850 . S
H132 O124 0.850 . S
Tb133 O124 2.341 . S
Tb133 O125 2.341 1_455 S
Tb133 O126 2.341 1_455 S
Tb133 O136 2.341 . S
Tb133 O139 2.344 . S
Tb133 O140 2.344 1_455 S
Tb133 O155 2.344 1_455 S
Tb133 O156 2.344 . S
H134 O125 0.850 . S
H135 O126 0.850 . S
O136 Tb129 2.341 . S
O136 Tb130 2.341 . S
O136 Tb133 2.341 . S
O136 H137 0.850 . S
H137 O136 0.850 . S
O138 Tb118 2.344 1_655 S
O138 C162 1.272 . S
O139 Tb133 2.344 . S
O139 C163 1.272 . S
O140 Tb133 2.344 1_655 S
O140 C164 1.272 . S
O141 Tb118 2.344 . S
O141 C165 1.272 . S
O142 Tb119 2.344 . S
O142 C166 1.272 . S
O143 Tb130 2.344 . S
O143 C167 1.272 . S
O144 Tb130 2.344 1_655 S
O144 C168 1.272 . S
O145 Tb119 2.344 1_455 S
O145 C169 1.272 . S
O146 Tb120 2.344 . S
O146 C170 1.272 . S
O147 Tb129 2.344 . S
O147 C171 1.272 . S
O148 Tb129 2.344 . S
O148 C172 1.272 . S
O149 Tb120 2.344 . S
O149 C173 1.272 . S
O150 Tb119 2.344 . S
O150 C162 1.272 . S
O151 Tb130 2.344 . S
O151 C163 1.272 . S
O152 Tb130 2.344 . S
O152 C165 1.272 . S
O153 Tb119 2.344 . S
O153 C164 1.272 . S
O154 Tb118 2.344 . S
O154 C172 1.272 . S
O155 Tb133 2.344 1_655 S
O155 C173 1.272 . S
O156 Tb133 2.344 . S
O156 C171 1.272 . S
O157 Tb118 2.344 1_655 S
O157 C170 1.272 . S
O158 Tb129 2.344 . S
O158 C169 1.272 . S
O159 Tb120 2.344 . S
O159 C168 1.272 . S
O160 Tb120 2.344 . S
O160 C166 1.272 . S
O161 Tb129 2.344 . S
O161 C167 1.272 . S
C162 O138 1.272 . S
C162 O150 1.272 . S
C163 O139 1.272 . S
C163 O151 1.272 . S
C164 O140 1.272 . S
C164 O153 1.272 . S
C165 O141 1.272 . S
C165 O152 1.272 . S
C166 O142 1.272 . S
C166 O160 1.272 . S
C167 O143 1.272 . S
C167 O161 1.272 . S
C168 O144 1.272 . S
C168 O159 1.272 . S
C169 O145 1.272 . S
C169 O158 1.272 . S
C170 O146 1.272 . S
C170 O157 1.272 . S
C171 O147 1.272 . S
C171 O156 1.272 . S
C172 O148 1.272 . S
C172 O154 1.272 . S
C173 O149 1.272 . S
C173 O155 1.272 . S
H174 O175 0.850 . S
O175 H174 0.850 . S
O175 Tb176 2.341 . S
O175 Tb177 2.341 1_565 S
O175 Tb178 2.341 . S
Tb176 O175 2.341 . S
Tb176 O179 2.341 1_565 S
Tb176 O180 2.341 . S
Tb176 O181 2.341 1_565 S
Tb176 O196 2.344 . S
Tb176 O199 2.344 . S
Tb176 O212 2.344 1_565 S
Tb176 O215 2.344 . S
Tb177 O175 2.341 1_545 S
Tb177 O179 2.341 . S
Tb177 O182 2.341 . S
Tb177 O184 2.341 1_545 S
Tb177 O200 2.344 1_545 S
Tb177 O203 2.344 . S
Tb177 O208 2.344 1_545 S
Tb177 O211 2.344 . S
Tb178 O175 2.341 . S
Tb178 O180 2.341 . S
Tb178 O183 2.341 . S
Tb178 O184 2.341 . S
Tb178 O204 2.344 . S
Tb178 O207 2.344 . S
Tb178 O217 2.344 . S
Tb178 O218 2.344 . S
O179 Tb176 2.341 1_545 S
O179 Tb177 2.341 . S
O179 H185 0.850 . S
O179 Tb187 2.341 . S
O180 Tb176 2.341 . S
O180 Tb178 2.341 . S
O180 H186 0.850 . S
O180 Tb188 2.341 1_565 S
O181 Tb176 2.341 1_545 S
O181 Tb187 2.341 . S
O181 Tb188 2.341 . S
O181 H189 0.850 . S
O182 Tb177 2.341 . S
O182 Tb187 2.341 . S
O182 H190 0.850 . S
O182 Tb191 2.341 . S
O183 Tb178 2.341 . S
O183 Tb188 2.341 1_565 S
O183 Tb191 2.341 1_565 S
O183 H192 0.850 . S
O184 Tb177 2.341 1_565 S
O184 Tb178 2.341 . S
O184 Tb191 2.341 1_565 S
O184 H193 0.850 . S
H185 O179 0.850 . S
H186 O180 0.850 . S
Tb187 O179 2.341 . S
Tb187 O181 2.341 . S
Tb187 O182 2.341 . S
Tb187 O194 2.341 . S
Tb187 O205 2.344 . S
Tb187 O206 2.344 . S
Tb187 O216 2.344 . S
Tb187 O219 2.344 . S
Tb188 O180 2.341 1_545 S
Tb188 O181 2.341 . S
Tb188 O183 2.341 1_545 S
Tb188 O194 2.341 . S
Tb188 O201 2.344 . S
Tb188 O202 2.344 1_545 S
Tb188 O209 2.344 . S
Tb188 O210 2.344 1_545 S
H189 O181 0.850 . S
H190 O182 0.850 . S
Tb191 O182 2.341 . S
Tb191 O183 2.341 1_545 S
Tb191 O184 2.341 1_545 S
Tb191 O194 2.341 . S
Tb191 O197 2.344 . S
Tb191 O198 2.344 . S
Tb191 O213 2.344 1_545 S
Tb191 O214 2.344 . S
H192 O183 0.850 . S
H193 O184 0.850 . S
O194 Tb187 2.341 . S
O194 Tb188 2.341 . S
O194 Tb191 2.341 . S
O194 H195 0.850 . S
H195 O194 0.850 . S
O196 Tb176 2.344 . S
O196 C220 1.272 . S
O197 Tb191 2.344 . S
O197 C221 1.272 . S
O198 Tb191 2.344 . S
O198 C222 1.272 . S
O199 Tb176 2.344 . S
O199 C223 1.272 . S
O200 Tb177 2.344 1_565 S
O200 C224 1.272 . S
O201 Tb188 2.344 . S
O201 C225 1.272 . S
O202 Tb188 2.344 1_565 S
O202 C226 1.272 . S
O203 Tb177 2.344 . S
O203 C227 1.272 . S
O204 Tb178 2.344 . S
O204 C228 1.272 . S
O205 Tb187 2.344 . S
O205 C229 1.272 . S
O206 Tb187 2.344 . S
O206 C230 1.272 . S
O207 Tb178 2.344 . S
O207 C231 1.272 . S
O208 Tb177 2.344 1_565 S
O208 C220 1.272 . S
O209 Tb188 2.344 . S
O209 C221 1.272 . S
O210 Tb188 2.344 1_565 S
O210 C223 1.272 . S
O211 Tb177 2.344 . S
O211 C222 1.272 . S
O212 Tb176 2.344 1_545 S
O212 C230 1.272 . S
O213 Tb191 2.344 1_565 S
O213 C231 1.272 . S
O214 Tb191 2.344 . S
O214 C229 1.272 . S
O215 Tb176 2.344 . S
O215 C228 1.272 . S
O216 Tb187 2.344 . S
O216 C227 1.272 . S
O217 Tb178 2.344 . S
O217 C226 1.272 . S
O218 Tb178 2.344 . S
O218 C224 1.272 . S
O219 Tb187 2.344 . S
O219 C225 1.272 . S
C220 O196 1.272 . S
C220 O208 1.272 . S
C221 O197 1.272 . S
C221 O209 1.272 . S
C222 O198 1.272 . S
C222 O211 1.272 . S
C223 O199 1.272 . S
C223 O210 1.272 . S
C224 O200 1.272 . S
C224 O218 1.272 . S
C225 O201 1.272 . S
C225 O219 1.272 . S
C226 O202 1.272 . S
C226 O217 1.272 . S
C227 O203 1.272 . S
C227 O216 1.272 . S
C228 O204 1.272 . S
C228 O215 1.272 . S
C229 O205 1.272 . S
C229 O214 1.272 . S
C230 O206 1.272 . S
C230 O212 1.272 . S
C231 O207 1.272 . S
C231 O213 1.272 . S
H232 O233 0.850 . S
O233 H232 0.850 . S
O233 Tb234 2.341 1_556 S
O233 Tb235 2.341 . S
O233 Tb236 2.341 . S
Tb234 O233 2.341 1_554 S
Tb234 O237 2.341 1_554 S
Tb234 O238 2.341 . S
Tb234 O239 2.341 . S
Tb234 O254 2.344 1_554 S
Tb234 O257 2.344 . S
Tb234 O270 2.344 . S
Tb234 O273 2.344 1_554 S
Tb235 O233 2.341 . S
Tb235 O237 2.341 . S
Tb235 O240 2.341 . S
Tb235 O242 2.341 . S
Tb235 O258 2.344 . S
Tb235 O261 2.344 . S
Tb235 O266 2.344 . S
Tb235 O269 2.344 . S
Tb236 O233 2.341 . S
Tb236 O238 2.341 1_556 S
Tb236 O241 2.341 1_556 S
Tb236 O242 2.341 . S
Tb236 O262 2.344 . S
Tb236 O265 2.344 . S
Tb236 O275 2.344 1_556 S
Tb236 O276 2.344 . S
O237 Tb234 2.341 1_556 S
O237 Tb235 2.341 . S
O237 H243 0.850 . S
O237 Tb245 2.341 1_556 S
O238 Tb234 2.341 . S
O238 Tb236 2.341 1_554 S
O238 H244 0.850 . S
O238 Tb246 2.341 . S
O239 Tb234 2.341 . S
O239 Tb245 2.341 . S
O239 Tb246 2.341 . S
O239 H247 0.850 . S
O240 Tb235 2.341 . S
O240 Tb245 2.341 1_556 S
O240 H248 0.850 . S
O240 Tb249 2.341 1_556 S
O241 Tb236 2.341 1_554 S
O241 Tb246 2.341 . S
O241 Tb249 2.341 . S
O241 H250 0.850 . S
O242 Tb235 2.341 . S
O242 Tb236 2.341 . S
O242 Tb249 2.341 1_556 S
O242 H251 0.850 . S
H243 O237 0.850 . S
H244 O238 0.850 . S
Tb245 O237 2.341 1_554 S
Tb245 O239 2.341 . S
Tb245 O240 2.341 1_554 S
Tb245 O252 2.341 . S
Tb245 O263 2.344 . S
Tb245 O264 2.344 . S
Tb245 O274 2.344 1_554 S
Tb245 O277 2.344 . S
Tb246 O238 2.341 . S
Tb246 O239 2.341 . S
Tb246 O241 2.341 . S
Tb246 O252 2.341 . S
Tb246 O259 2.344 . S
Tb246 O260 2.344 . S
Tb246 O267 2.344 . S
Tb246 O268 2.344 . S
H247 O239 0.850 . S
H248 O240 0.850 . S
Tb249 O240 2.341 1_554 S
Tb249 O241 2.341 . S
Tb249 O242 2.341 1_554 S
Tb249 O252 2.341 . S
Tb249 O255 2.344 . S
Tb249 O256 2.344 1_554 S
Tb249 O271 2.344 1_554 S
Tb249 O272 2.344 . S
H250 O241 0.850 . S
H251 O242 0.850 . S
O252 Tb245 2.341 . S
O252 Tb246 2.341 . S
O252 Tb249 2.341 . S
O252 H253 0.850 . S
H253 O252 0.850 . S
O254 Tb234 2.344 1_556 S
O254 C278 1.272 . S
O255 Tb249 2.344 . S
O255 C279 1.272 . S
O256 Tb249 2.344 1_556 S
O256 C280 1.272 . S
O257 Tb234 2.344 . S
O257 C281 1.272 . S
O258 Tb235 2.344 . S
O258 C282 1.272 . S
O259 Tb246 2.344 . S
O259 C283 1.272 . S
O260 Tb246 2.344 . S
O260 C284 1.272 . S
O261 Tb235 2.344 . S
O261 C285 1.272 . S
O262 Tb236 2.344 . S
O262 C286 1.272 . S
O263 Tb245 2.344 . S
O263 C287 1.272 . S
O264 Tb245 2.344 . S
O264 C288 1.272 . S
O265 Tb236 2.344 . S
O265 C289 1.272 . S
O266 Tb235 2.344 . S
O266 C278 1.272 . S
O267 Tb246 2.344 . S
O267 C279 1.272 . S
O268 Tb246 2.344 . S
O268 C281 1.272 . S
O269 Tb235 2.344 . S
O269 C280 1.272 . S
O270 Tb234 2.344 . S
O270 C288 1.272 . S
O271 Tb249 2.344 1_556 S
O271 C289 1.272 . S
O272 Tb249 2.344 . S
O272 C287 1.272 . S
O273 Tb234 2.344 1_556 S
O273 C286 1.272 . S
O274 Tb245 2.344 1_556 S
O274 C285 1.272 . S
O275 Tb236 2.344 1_554 S
O275 C284 1.272 . S
O276 Tb236 2.344 . S
O276 C282 1.272 . S
O277 Tb245 2.344 . S
O277 C283 1.272 . S
C278 O254 1.272 . S
C278 O266 1.272 . S
C279 O255 1.272 . S
C279 O267 1.272 . S
C280 O256 1.272 . S
C280 O269 1.272 . S
C281 O257 1.272 . S
C281 O268 1.272 . S
C282 O258 1.272 . S
C282 O276 1.272 . S
C283 O259 1.272 . S
C283 O277 1.272 . S
C284 O260 1.272 . S
C284 O275 1.272 . S
C285 O261 1.272 . S
C285 O274 1.272 . S
C286 O262 1.272 . S
C286 O273 1.272 . S
C287 O263 1.272 . S
C287 O272 1.272 . S
C288 O264 1.272 . S
C288 O270 1.272 . S
C289 O265 1.272 . S
C289 O271 1.272 . S
H290 O291 0.850 . S
O291 H290 0.850 . S
O291 Tb292 2.341 . S
O291 Tb293 2.341 . S
O291 Tb294 2.341 . S
Tb292 O291 2.341 . S
Tb292 O295 2.341 . S
Tb292 O296 2.341 . S
Tb292 O297 2.341 . S
Tb292 O312 2.344 . S
Tb292 O315 2.344 . S
Tb292 O328 2.344 . S
Tb292 O331 2.344 . S
Tb293 O291 2.341 . S
Tb293 O295 2.341 . S
Tb293 O298 2.341 . S
Tb293 O300 2.341 . S
Tb293 O316 2.344 . S
Tb293 O319 2.344 . S
Tb293 O324 2.344 . S
Tb293 O327 2.344 . S
Tb294 O291 2.341 . S
Tb294 O296 2.341 . S
Tb294 O299 2.341 . S
Tb294 O300 2.341 . S
Tb294 O320 2.344 . S
Tb294 O323 2.344 . S
Tb294 O333 2.344 . S
Tb294 O334 2.344 . S
O295 Tb292 2.341 . S
O295 Tb293 2.341 . S
O295 H301 0.850 . S
O295 Tb303 2.341 . S
O296 Tb292 2.341 . S
O296 Tb294 2.341 . S
O296 H302 0.850 . S
O296 Tb304 2.341 . S
O297 Tb292 2.341 . S
O297 Tb303 2.341 . S
O297 Tb304 2.341 . S
O297 H305 0.850 . S
O298 Tb293 2.341 . S
O298 Tb303 2.341 . S
O298 H306 0.850 . S
O298 Tb307 2.341 . S
O299 Tb294 2.341 . S
O299 Tb304 2.341 . S
O299 Tb307 2.341 . S
O299 H308 0.850 . S
O300 Tb293 2.341 . S
O300 Tb294 2.341 . S
O300 Tb307 2.341 . S
O300 H309 0.850 . S
H301 O295 0.850 . S
H302 O296 0.850 . S
Tb303 O295 2.341 . S
Tb303 O297 2.341 . S
Tb303 O298 2.341 . S
Tb303 O310 2.341 . S
Tb303 O321 2.344 . S
Tb303 O322 2.344 . S
Tb303 O332 2.344 . S
Tb303 O335 2.344 . S
Tb304 O296 2.341 . S
Tb304 O297 2.341 . S
Tb304 O299 2.341 . S
Tb304 O310 2.341 . S
Tb304 O317 2.344 . S
Tb304 O318 2.344 . S
Tb304 O325 2.344 . S
Tb304 O326 2.344 . S
H305 O297 0.850 . S
H306 O298 0.850 . S
Tb307 O298 2.341 . S
Tb307 O299 2.341 . S
Tb307 O300 2.341 . S
Tb307 O310 2.341 . S
Tb307 O313 2.344 . S
Tb307 O314 2.344 . S
Tb307 O329 2.344 . S
Tb307 O330 2.344 . S
H308 O299 0.850 . S
H309 O300 0.850 . S
O310 Tb303 2.341 . S
O310 Tb304 2.341 . S
O310 Tb307 2.341 . S
O310 H311 0.850 . S
H311 O310 0.850 . S
O312 Tb292 2.344 . S
O312 C336 1.272 . S
O313 Tb307 2.344 . S
O313 C337 1.272 . S
O314 Tb307 2.344 . S
O314 C338 1.272 . S
O315 Tb292 2.344 . S
O315 C339 1.272 . S
O316 Tb293 2.344 . S
O316 C340 1.272 . S
O317 Tb304 2.344 . S
O317 C341 1.272 . S
O318 Tb304 2.344 . S
O318 C342 1.272 . S
O319 Tb293 2.344 . S
O319 C343 1.272 . S
O320 Tb294 2.344 . S
O320 C344 1.272 . S
O321 Tb303 2.344 . S
O321 C345 1.272 . S
O322 Tb303 2.344 . S
O322 C346 1.272 . S
O323 Tb294 2.344 . S
O323 C347 1.272 . S
O324 Tb293 2.344 . S
O324 C336 1.272 . S
O325 Tb304 2.344 . S
O325 C337 1.272 . S
O326 Tb304 2.344 . S
O326 C339 1.272 . S
O327 Tb293 2.344 . S
O327 C338 1.272 . S
O328 Tb292 2.344 . S
O328 C346 1.272 . S
O329 Tb307 2.344 . S
O329 C347 1.272 . S
O330 Tb307 2.344 . S
O330 C345 1.272 . S
O331 Tb292 2.344 . S
O331 C344 1.272 . S
O332 Tb303 2.344 . S
O332 C343 1.272 . S
O333 Tb294 2.344 . S
O333 C342 1.272 . S
O334 Tb294 2.344 . S
O334 C340 1.272 . S
O335 Tb303 2.344 . S
O335 C341 1.272 . S
C336 O312 1.272 . S
C336 O324 1.272 . S
C337 O313 1.272 . S
C337 O325 1.272 . S
C338 O314 1.272 . S
C338 O327 1.272 . S
C339 O315 1.272 . S
C339 O326 1.272 . S
C340 O316 1.272 . S
C340 O334 1.272 . S
C341 O317 1.272 . S
C341 O335 1.272 . S
C342 O318 1.272 . S
C342 O333 1.272 . S
C343 O319 1.272 . S
C343 O332 1.272 . S
C344 O320 1.272 . S
C344 O331 1.272 . S
C345 O321 1.272 . S
C345 O330 1.272 . S
C346 O322 1.272 . S
C346 O328 1.272 . S
C347 O323 1.272 . S
C347 O329 1.272 . S
H348 O349 0.850 . S
O349 H348 0.850 . S
O349 Tb350 2.341 1_556 S
O349 Tb351 2.341 . S
O349 Tb352 2.341 . S
Tb350 O349 2.341 1_554 S
Tb350 O353 2.341 . S
Tb350 O354 2.341 1_554 S
Tb350 O355 2.341 . S
Tb350 O370 2.344 1_554 S
Tb350 O373 2.344 . S
Tb350 O386 2.344 . S
Tb350 O389 2.344 1_554 S
Tb351 O349 2.341 . S
Tb351 O353 2.341 1_556 S
Tb351 O356 2.341 1_556 S
Tb351 O358 2.341 . S
Tb351 O374 2.344 . S
Tb351 O377 2.344 1_556 S
Tb351 O382 2.344 . S
Tb351 O385 2.344 . S
Tb352 O349 2.341 . S
Tb352 O354 2.341 . S
Tb352 O357 2.341 . S
Tb352 O358 2.341 . S
Tb352 O378 2.344 . S
Tb352 O381 2.344 . S
Tb352 O391 2.344 . S
Tb352 O392 2.344 . S
O353 Tb350 2.341 . S
O353 Tb351 2.341 1_554 S
O353 H359 0.850 . S
O353 Tb361 2.341 . S
O354 Tb350 2.341 1_556 S
O354 Tb352 2.341 . S
O354 H360 0.850 . S
O354 Tb362 2.341 1_556 S
O355 Tb350 2.341 . S
O355 Tb361 2.341 . S
O355 Tb362 2.341 . S
O355 H363 0.850 . S
O356 Tb351 2.341 1_554 S
O356 Tb361 2.341 . S
O356 H364 0.850 . S
O356 Tb365 2.341 . S
O357 Tb352 2.341 . S
O357 Tb362 2.341 1_556 S
O357 Tb365 2.341 1_556 S
O357 H366 0.850 . S
O358 Tb351 2.341 . S
O358 Tb352 2.341 . S
O358 Tb365 2.341 1_556 S
O358 H367 0.850 . S
H359 O353 0.850 . S
H360 O354 0.850 . S
Tb361 O353 2.341 . S
Tb361 O355 2.341 . S
Tb361 O356 2.341 . S
Tb361 O368 2.341 . S
Tb361 O379 2.344 . S
Tb361 O380 2.344 . S
Tb361 O390 2.344 . S
Tb361 O393 2.344 . S
Tb362 O354 2.341 1_554 S
Tb362 O355 2.341 . S
Tb362 O357 2.341 1_554 S
Tb362 O368 2.341 . S
Tb362 O375 2.344 . S
Tb362 O376 2.344 1_554 S
Tb362 O383 2.344 . S
Tb362 O384 2.344 . S
H363 O355 0.850 . S
H364 O356 0.850 . S
Tb365 O356 2.341 . S
Tb365 O357 2.341 1_554 S
Tb365 O358 2.341 1_554 S
Tb365 O368 2.341 . S
Tb365 O371 2.344 . S
Tb365 O372 2.344 1_554 S
Tb365 O387 2.344 1_554 S
Tb365 O388 2.344 . S
H366 O357 0.850 . S
H367 O358 0.850 . S
O368 Tb361 2.341 . S
O368 Tb362 2.341 . S
O368 Tb365 2.341 . S
O368 H369 0.850 . S
H369 O368 0.850 . S
O370 Tb350 2.344 1_556 S
O370 C394 1.272 . S
O371 Tb365 2.344 . S
O371 C395 1.272 . S
O372 Tb365 2.344 1_556 S
O372 C396 1.272 . S
O373 Tb350 2.344 . S
O373 C397 1.272 . S
O374 Tb351 2.344 . S
O374 C398 1.272 . S
O375 Tb362 2.344 . S
O375 C399 1.272 . S
O376 Tb362 2.344 1_556 S
O376 C400 1.272 . S
O377 Tb351 2.344 1_554 S
O377 C401 1.272 . S
O378 Tb352 2.344 . S
O378 C402 1.272 . S
O379 Tb361 2.344 . S
O379 C403 1.272 . S
O380 Tb361 2.344 . S
O380 C404 1.272 . S
O381 Tb352 2.344 . S
O381 C405 1.272 . S
O382 Tb351 2.344 . S
O382 C394 1.272 . S
O383 Tb362 2.344 . S
O383 C395 1.272 . S
O384 Tb362 2.344 . S
O384 C397 1.272 . S
O385 Tb351 2.344 . S
O385 C396 1.272 . S
O386 Tb350 2.344 . S
O386 C404 1.272 . S
O387 Tb365 2.344 1_556 S
O387 C405 1.272 . S
O388 Tb365 2.344 . S
O388 C403 1.272 . S
O389 Tb350 2.344 1_556 S
O389 C402 1.272 . S
O390 Tb361 2.344 . S
O390 C401 1.272 . S
O391 Tb352 2.344 . S
O391 C400 1.272 . S
O392 Tb352 2.344 . S
O392 C398 1.272 . S
O393 Tb361 2.344 . S
O393 C399 1.272 . S
C394 O370 1.272 . S
C394 O382 1.272 . S
C395 O371 1.272 . S
C395 O383 1.272 . S
C396 O372 1.272 . S
C396 O385 1.272 . S
C397 O373 1.272 . S
C397 O384 1.272 . S
C398 O374 1.272 . S
C398 O392 1.272 . S
C399 O375 1.272 . S
C399 O393 1.272 . S
C400 O376 1.272 . S
C400 O391 1.272 . S
C401 O377 1.272 . S
C401 O390 1.272 . S
C402 O378 1.272 . S
C402 O389 1.272 . S
C403 O379 1.272 . S
C403 O388 1.272 . S
C404 O380 1.272 . S
C404 O386 1.272 . S
C405 O381 1.272 . S
C405 O387 1.272 . S
H406 O407 0.850 . S
O407 H406 0.850 . S
O407 Tb408 2.341 . S
O407 Tb409 2.341 . S
O407 Tb410 2.341 . S
Tb408 O407 2.341 . S
Tb408 O411 2.341 . S
Tb408 O412 2.341 . S
Tb408 O413 2.341 . S
Tb408 O428 2.344 . S
Tb408 O431 2.344 . S
Tb408 O444 2.344 . S
Tb408 O447 2.344 . S
Tb409 O407 2.341 . S
Tb409 O411 2.341 . S
Tb409 O414 2.341 . S
Tb409 O416 2.341 . S
Tb409 O432 2.344 . S
Tb409 O435 2.344 . S
Tb409 O440 2.344 . S
Tb409 O443 2.344 . S
Tb410 O407 2.341 . S
Tb410 O412 2.341 . S
Tb410 O415 2.341 . S
Tb410 O416 2.341 . S
Tb410 O436 2.344 . S
Tb410 O439 2.344 . S
Tb410 O449 2.344 . S
Tb410 O450 2.344 . S
O411 Tb408 2.341 . S
O411 Tb409 2.341 . S
O411 H417 0.850 . S
O411 Tb419 2.341 . S
O412 Tb408 2.341 . S
O412 Tb410 2.341 . S
O412 H418 0.850 . S
O412 Tb420 2.341 . S
O413 Tb408 2.341 . S
O413 Tb419 2.341 . S
O413 Tb420 2.341 . S
O413 H421 0.850 . S
O414 Tb409 2.341 . S
O414 Tb419 2.341 . S
O414 H422 0.850 . S
O414 Tb423 2.341 . S
O415 Tb410 2.341 . S
O415 Tb420 2.341 . S
O415 Tb423 2.341 . S
O415 H424 0.850 . S
O416 Tb409 2.341 . S
O416 Tb410 2.341 . S
O416 Tb423 2.341 . S
O416 H425 0.850 . S
H417 O411 0.850 . S
H418 O412 0.850 . S
Tb419 O411 2.341 . S
Tb419 O413 2.341 . S
Tb419 O414 2.341 . S
Tb419 O426 2.341 . S
Tb419 O437 2.344 . S
Tb419 O438 2.344 . S
Tb419 O448 2.344 . S
Tb419 O451 2.344 . S
Tb420 O412 2.341 . S
Tb420 O413 2.341 . S
Tb420 O415 2.341 . S
Tb420 O426 2.341 . S
Tb420 O433 2.344 . S
Tb420 O434 2.344 . S
Tb420 O441 2.344 . S
Tb420 O442 2.344 . S
H421 O413 0.850 . S
H422 O414 0.850 . S
Tb423 O414 2.341 . S
Tb423 O415 2.341 . S
Tb423 O416 2.341 . S
Tb423 O426 2.341 . S
Tb423 O429 2.344 . S
Tb423 O430 2.344 . S
Tb423 O445 2.344 . S
Tb423 O446 2.344 . S
H424 O415 0.850 . S
H425 O416 0.850 . S
O426 Tb419 2.341 . S
O426 Tb420 2.341 . S
O426 Tb423 2.341 . S
O426 H427 0.850 . S
H427 O426 0.850 . S
O428 Tb408 2.344 . S
O428 C452 1.272 . S
O429 Tb423 2.344 . S
O429 C453 1.272 . S
O430 Tb423 2.344 . S
O430 C454 1.272 . S
O431 Tb408 2.344 . S
O431 C455 1.272 . S
O432 Tb409 2.344 . S
O432 C456 1.272 . S
O433 Tb420 2.344 . S
O433 C457 1.272 . S
O434 Tb420 2.344 . S
O434 C458 1.272 . S
O435 Tb409 2.344 . S
O435 C459 1.272 . S
O436 Tb410 2.344 . S
O436 C460 1.272 . S
O437 Tb419 2.344 . S
O437 C461 1.272 . S
O438 Tb419 2.344 . S
O438 C462 1.272 . S
O439 Tb410 2.344 . S
O439 C463 1.272 . S
O440 Tb409 2.344 . S
O440 C452 1.272 . S
O441 Tb420 2.344 . S
O441 C453 1.272 . S
O442 Tb420 2.344 . S
O442 C455 1.272 . S
O443 Tb409 2.344 . S
O443 C454 1.272 . S
O444 Tb408 2.344 . S
O444 C462 1.272 . S
O445 Tb423 2.344 . S
O445 C463 1.272 . S
O446 Tb423 2.344 . S
O446 C461 1.272 . S
O447 Tb408 2.344 . S
O447 C460 1.272 . S
O448 Tb419 2.344 . S
O448 C459 1.272 . S
O449 Tb410 2.344 . S
O449 C458 1.272 . S
O450 Tb410 2.344 . S
O450 C456 1.272 . S
O451 Tb419 2.344 . S
O451 C457 1.272 . S
C452 O428 1.272 . S
C452 O440 1.272 . S
C453 O429 1.272 . S
C453 O441 1.272 . S
C454 O430 1.272 . S
C454 O443 1.272 . S
C455 O431 1.272 . S
C455 O442 1.272 . S
C456 O432 1.272 . S
C456 O450 1.272 . S
C457 O433 1.272 . S
C457 O451 1.272 . S
C458 O434 1.272 . S
C458 O449 1.272 . S
C459 O435 1.272 . S
C459 O448 1.272 . S
C460 O436 1.272 . S
C460 O447 1.272 . S
C461 O437 1.272 . S
C461 O446 1.272 . S
C462 O438 1.272 . S
C462 O444 1.272 . S
C463 O439 1.272 . S
C463 O445 1.272 . S
H464 O465 0.850 . S
O465 H464 0.850 . S
O465 Tb466 2.341 . S
O465 Tb467 2.341 . S
O465 Tb468 2.341 . S
Tb466 O465 2.341 . S
Tb466 O469 2.341 . S
Tb466 O470 2.341 . S
Tb466 O471 2.341 . S
Tb466 O486 2.344 . S
Tb466 O489 2.344 . S
Tb466 O502 2.344 . S
Tb466 O505 2.344 . S
Tb467 O465 2.341 . S
Tb467 O469 2.341 . S
Tb467 O472 2.341 . S
Tb467 O474 2.341 . S
Tb467 O490 2.344 . S
Tb467 O493 2.344 . S
Tb467 O498 2.344 . S
Tb467 O501 2.344 . S
Tb468 O465 2.341 . S
Tb468 O470 2.341 . S
Tb468 O473 2.341 . S
Tb468 O474 2.341 . S
Tb468 O494 2.344 . S
Tb468 O497 2.344 . S
Tb468 O507 2.344 . S
Tb468 O508 2.344 . S
O469 Tb466 2.341 . S
O469 Tb467 2.341 . S
O469 H475 0.850 . S
O469 Tb477 2.341 . S
O470 Tb466 2.341 . S
O470 Tb468 2.341 . S
O470 H476 0.850 . S
O470 Tb478 2.341 . S
O471 Tb466 2.341 . S
O471 Tb477 2.341 . S
O471 Tb478 2.341 . S
O471 H479 0.850 . S
O472 Tb467 2.341 . S
O472 Tb477 2.341 . S
O472 H480 0.850 . S
O472 Tb481 2.341 . S
O473 Tb468 2.341 . S
O473 Tb478 2.341 . S
O473 Tb481 2.341 . S
O473 H482 0.850 . S
O474 Tb467 2.341 . S
O474 Tb468 2.341 . S
O474 Tb481 2.341 . S
O474 H483 0.850 . S
H475 O469 0.850 . S
H476 O470 0.850 . S
Tb477 O469 2.341 . S
Tb477 O471 2.341 . S
Tb477 O472 2.341 . S
Tb477 O484 2.341 . S
Tb477 O495 2.344 . S
Tb477 O496 2.344 . S
Tb477 O506 2.344 . S
Tb477 O509 2.344 . S
Tb478 O470 2.341 . S
Tb478 O471 2.341 . S
Tb478 O473 2.341 . S
Tb478 O484 2.341 . S
Tb478 O491 2.344 . S
Tb478 O492 2.344 . S
Tb478 O499 2.344 . S
Tb478 O500 2.344 . S
H479 O471 0.850 . S
H480 O472 0.850 . S
Tb481 O472 2.341 . S
Tb481 O473 2.341 . S
Tb481 O474 2.341 . S
Tb481 O484 2.341 . S
Tb481 O487 2.344 . S
Tb481 O488 2.344 . S
Tb481 O503 2.344 . S
Tb481 O504 2.344 . S
H482 O473 0.850 . S
H483 O474 0.850 . S
O484 Tb477 2.341 . S
O484 Tb478 2.341 . S
O484 Tb481 2.341 . S
O484 H485 0.850 . S
H485 O484 0.850 . S
O486 Tb466 2.344 . S
O486 C510 1.272 . S
O487 Tb481 2.344 . S
O487 C511 1.272 . S
O488 Tb481 2.344 . S
O488 C512 1.272 . S
O489 Tb466 2.344 . S
O489 C513 1.272 . S
O490 Tb467 2.344 . S
O490 C514 1.272 . S
O491 Tb478 2.344 . S
O491 C515 1.272 . S
O492 Tb478 2.344 . S
O492 C516 1.272 . S
O493 Tb467 2.344 . S
O493 C517 1.272 . S
O494 Tb468 2.344 . S
O494 C518 1.272 . S
O495 Tb477 2.344 . S
O495 C519 1.272 . S
O496 Tb477 2.344 . S
O496 C520 1.272 . S
O497 Tb468 2.344 . S
O497 C521 1.272 . S
O498 Tb467 2.344 . S
O498 C510 1.272 . S
O499 Tb478 2.344 . S
O499 C511 1.272 . S
O500 Tb478 2.344 . S
O500 C513 1.272 . S
O501 Tb467 2.344 . S
O501 C512 1.272 . S
O502 Tb466 2.344 . S
O502 C520 1.272 . S
O503 Tb481 2.344 . S
O503 C521 1.272 . S
O504 Tb481 2.344 . S
O504 C519 1.272 . S
O505 Tb466 2.344 . S
O505 C518 1.272 . S
O506 Tb477 2.344 . S
O506 C517 1.272 . S
O507 Tb468 2.344 . S
O507 C516 1.272 . S
O508 Tb468 2.344 . S
O508 C514 1.272 . S
O509 Tb477 2.344 . S
O509 C515 1.272 . S
C510 O486 1.272 . S
C510 O498 1.272 . S
C511 O487 1.272 . S
C511 O499 1.272 . S
C512 O488 1.272 . S
C512 O501 1.272 . S
C513 O489 1.272 . S
C513 O500 1.272 . S
C514 O490 1.272 . S
C514 O508 1.272 . S
C515 O491 1.272 . S
C515 O509 1.272 . S
C516 O492 1.272 . S
C516 O507 1.272 . S
C517 O493 1.272 . S
C517 O506 1.272 . S
C518 O494 1.272 . S
C518 O505 1.272 . S
C519 O495 1.272 . S
C519 O504 1.272 . S
C520 O496 1.272 . S
C520 O502 1.272 . S
C521 O497 1.272 . S
C521 O503 1.272 . S
H522 O523 0.850 . S
O523 H522 0.850 . S
O523 Tb524 2.341 . S
O523 Tb525 2.341 . S
O523 Tb526 2.341 . S
Tb524 O523 2.341 . S
Tb524 O527 2.341 . S
Tb524 O528 2.341 . S
Tb524 O529 2.341 . S
Tb524 O544 2.344 . S
Tb524 O547 2.344 . S
Tb524 O560 2.344 . S
Tb524 O563 2.344 . S
Tb525 O523 2.341 . S
Tb525 O527 2.341 . S
Tb525 O530 2.341 . S
Tb525 O532 2.341 . S
Tb525 O548 2.344 . S
Tb525 O551 2.344 . S
Tb525 O556 2.344 . S
Tb525 O559 2.344 . S
Tb526 O523 2.341 . S
Tb526 O528 2.341 . S
Tb526 O531 2.341 . S
Tb526 O532 2.341 . S
Tb526 O552 2.344 . S
Tb526 O555 2.344 . S
Tb526 O565 2.344 . S
Tb526 O566 2.344 . S
O527 Tb524 2.341 . S
O527 Tb525 2.341 . S
O527 H533 0.850 . S
O527 Tb535 2.341 . S
O528 Tb524 2.341 . S
O528 Tb526 2.341 . S
O528 H534 0.850 . S
O528 Tb536 2.341 . S
O529 Tb524 2.341 . S
O529 Tb535 2.341 . S
O529 Tb536 2.341 . S
O529 H537 0.850 . S
O530 Tb525 2.341 . S
O530 Tb535 2.341 . S
O530 H538 0.850 . S
O530 Tb539 2.341 . S
O531 Tb526 2.341 . S
O531 Tb536 2.341 . S
O531 Tb539 2.341 . S
O531 H540 0.850 . S
O532 Tb525 2.341 . S
O532 Tb526 2.341 . S
O532 Tb539 2.341 . S
O532 H541 0.850 . S
H533 O527 0.850 . S
H534 O528 0.850 . S
Tb535 O527 2.341 . S
Tb535 O529 2.341 . S
Tb535 O530 2.341 . S
Tb535 O542 2.341 . S
Tb535 O553 2.344 . S
Tb535 O554 2.344 . S
Tb535 O564 2.344 . S
Tb535 O567 2.344 . S
Tb536 O528 2.341 . S
Tb536 O529 2.341 . S
Tb536 O531 2.341 . S
Tb536 O542 2.341 . S
Tb536 O549 2.344 . S
Tb536 O550 2.344 . S
Tb536 O557 2.344 . S
Tb536 O558 2.344 . S
H537 O529 0.850 . S
H538 O530 0.850 . S
Tb539 O530 2.341 . S
Tb539 O531 2.341 . S
Tb539 O532 2.341 . S
Tb539 O542 2.341 . S
Tb539 O545 2.344 . S
Tb539 O546 2.344 . S
Tb539 O561 2.344 . S
Tb539 O562 2.344 . S
H540 O531 0.850 . S
H541 O532 0.850 . S
O542 Tb535 2.341 . S
O542 Tb536 2.341 . S
O542 Tb539 2.341 . S
O542 H543 0.850 . S
H543 O542 0.850 . S
O544 Tb524 2.344 . S
O544 C568 1.272 . S
O545 Tb539 2.344 . S
O545 C569 1.272 . S
O546 Tb539 2.344 . S
O546 C570 1.272 . S
O547 Tb524 2.344 . S
O547 C571 1.272 . S
O548 Tb525 2.344 . S
O548 C572 1.272 . S
O549 Tb536 2.344 . S
O549 C573 1.272 . S
O550 Tb536 2.344 . S
O550 C574 1.272 . S
O551 Tb525 2.344 . S
O551 C575 1.272 . S
O552 Tb526 2.344 . S
O552 C576 1.272 . S
O553 Tb535 2.344 . S
O553 C577 1.272 . S
O554 Tb535 2.344 . S
O554 C578 1.272 . S
O555 Tb526 2.344 . S
O555 C579 1.272 . S
O556 Tb525 2.344 . S
O556 C568 1.272 . S
O557 Tb536 2.344 . S
O557 C569 1.272 . S
O558 Tb536 2.344 . S
O558 C571 1.272 . S
O559 Tb525 2.344 . S
O559 C570 1.272 . S
O560 Tb524 2.344 . S
O560 C578 1.272 . S
O561 Tb539 2.344 . S
O561 C579 1.272 . S
O562 Tb539 2.344 . S
O562 C577 1.272 . S
O563 Tb524 2.344 . S
O563 C576 1.272 . S
O564 Tb535 2.344 . S
O564 C575 1.272 . S
O565 Tb526 2.344 . S
O565 C574 1.272 . S
O566 Tb526 2.344 . S
O566 C572 1.272 . S
O567 Tb535 2.344 . S
O567 C573 1.272 . S
C568 O544 1.272 . S
C568 O556 1.272 . S
C569 O545 1.272 . S
C569 O557 1.272 . S
C570 O546 1.272 . S
C570 O559 1.272 . S
C571 O547 1.272 . S
C571 O558 1.272 . S
C572 O548 1.272 . S
C572 O566 1.272 . S
C573 O549 1.272 . S
C573 O567 1.272 . S
C574 O550 1.272 . S
C574 O565 1.272 . S
C575 O551 1.272 . S
C575 O564 1.272 . S
C576 O552 1.272 . S
C576 O563 1.272 . S
C577 O553 1.272 . S
C577 O562 1.272 . S
C578 O554 1.272 . S
C578 O560 1.272 . S
C579 O555 1.272 . S
C579 O561 1.272 . S
H580 O581 0.850 . S
O581 H580 0.850 . S
O581 Tb582 2.341 1_565 S
O581 Tb583 2.341 . S
O581 Tb584 2.341 . S
Tb582 O581 2.341 1_545 S
Tb582 O585 2.341 . S
Tb582 O586 2.341 1_545 S
Tb582 O587 2.341 . S
Tb582 O602 2.344 1_545 S
Tb582 O605 2.344 . S
Tb582 O618 2.344 . S
Tb582 O621 2.344 1_545 S
Tb583 O581 2.341 . S
Tb583 O585 2.341 1_565 S
Tb583 O588 2.341 1_565 S
Tb583 O590 2.341 . S
Tb583 O606 2.344 . S
Tb583 O609 2.344 1_565 S
Tb583 O614 2.344 . S
Tb583 O617 2.344 . S
Tb584 O581 2.341 . S
Tb584 O586 2.341 . S
Tb584 O589 2.341 . S
Tb584 O590 2.341 . S
Tb584 O610 2.344 . S
Tb584 O613 2.344 . S
Tb584 O623 2.344 . S
Tb584 O624 2.344 . S
O585 Tb582 2.341 . S
O585 Tb583 2.341 1_545 S
O585 H591 0.850 . S
O585 Tb593 2.341 . S
O586 Tb582 2.341 1_565 S
O586 Tb584 2.341 . S
O586 H592 0.850 . S
O586 Tb594 2.341 1_565 S
O587 Tb582 2.341 . S
O587 Tb593 2.341 . S
O587 Tb594 2.341 . S
O587 H595 0.850 . S
O588 Tb583 2.341 1_545 S
O588 Tb593 2.341 . S
O588 H596 0.850 . S
O588 Tb597 2.341 . S
O589 Tb584 2.341 . S
O589 Tb594 2.341 1_565 S
O589 Tb597 2.341 1_565 S
O589 H598 0.850 . S
O590 Tb583 2.341 . S
O590 Tb584 2.341 . S
O590 Tb597 2.341 1_565 S
O590 H599 0.850 . S
H591 O585 0.850 . S
H592 O586 0.850 . S
Tb593 O585 2.341 . S
Tb593 O587 2.341 . S
Tb593 O588 2.341 . S
Tb593 O600 2.341 . S
Tb593 O611 2.344 . S
Tb593 O612 2.344 . S
Tb593 O622 2.344 . S
Tb593 O625 2.344 . S
Tb594 O586 2.341 1_545 S
Tb594 O587 2.341 . S
Tb594 O589 2.341 1_545 S
Tb594 O600 2.341 . S
Tb594 O607 2.344 . S
Tb594 O608 2.344 1_545 S
Tb594 O615 2.344 . S
Tb594 O616 2.344 . S
H595 O587 0.850 . S
H596 O588 0.850 . S
Tb597 O588 2.341 . S
Tb597 O589 2.341 1_545 S
Tb597 O590 2.341 1_545 S
Tb597 O600 2.341 . S
Tb597 O603 2.344 . S
Tb597 O604 2.344 1_545 S
Tb597 O619 2.344 1_545 S
Tb597 O620 2.344 . S
H598 O589 0.850 . S
H599 O590 0.850 . S
O600 Tb593 2.341 . S
O600 Tb594 2.341 . S
O600 Tb597 2.341 . S
O600 H601 0.850 . S
H601 O600 0.850 . S
O602 Tb582 2.344 1_565 S
O602 C626 1.272 . S
O603 Tb597 2.344 . S
O603 C627 1.272 . S
O604 Tb597 2.344 1_565 S
O604 C628 1.272 . S
O605 Tb582 2.344 . S
O605 C629 1.272 . S
O606 Tb583 2.344 . S
O606 C630 1.272 . S
O607 Tb594 2.344 . S
O607 C631 1.272 . S
O608 Tb594 2.344 1_565 S
O608 C632 1.272 . S
O609 Tb583 2.344 1_545 S
O609 C633 1.272 . S
O610 Tb584 2.344 . S
O610 C634 1.272 . S
O611 Tb593 2.344 . S
O611 C635 1.272 . S
O612 Tb593 2.344 . S
O612 C636 1.272 . S
O613 Tb584 2.344 . S
O613 C637 1.272 . S
O614 Tb583 2.344 . S
O614 C626 1.272 . S
O615 Tb594 2.344 . S
O615 C627 1.272 . S
O616 Tb594 2.344 . S
O616 C629 1.272 . S
O617 Tb583 2.344 . S
O617 C628 1.272 . S
O618 Tb582 2.344 . S
O618 C636 1.272 . S
O619 Tb597 2.344 1_565 S
O619 C637 1.272 . S
O620 Tb597 2.344 . S
O620 C635 1.272 . S
O621 Tb582 2.344 1_565 S
O621 C634 1.272 . S
O622 Tb593 2.344 . S
O622 C633 1.272 . S
O623 Tb584 2.344 . S
O623 C632 1.272 . S
O624 Tb584 2.344 . S
O624 C630 1.272 . S
O625 Tb593 2.344 . S
O625 C631 1.272 . S
C626 O602 1.272 . S
C626 O614 1.272 . S
C627 O603 1.272 . S
C627 O615 1.272 . S
C628 O604 1.272 . S
C628 O617 1.272 . S
C629 O605 1.272 . S
C629 O616 1.272 . S
C630 O606 1.272 . S
C630 O624 1.272 . S
C631 O607 1.272 . S
C631 O625 1.272 . S
C632 O608 1.272 . S
C632 O623 1.272 . S
C633 O609 1.272 . S
C633 O622 1.272 . S
C634 O610 1.272 . S
C634 O621 1.272 . S
C635 O611 1.272 . S
C635 O620 1.272 . S
C636 O612 1.272 . S
C636 O618 1.272 . S
C637 O613 1.272 . S
C637 O619 1.272 . S
H638 O639 0.850 . S
O639 H638 0.850 . S
O639 Tb640 2.341 . S
O639 Tb641 2.341 . S
O639 Tb642 2.341 . S
Tb640 O639 2.341 . S
Tb640 O643 2.341 . S
Tb640 O644 2.341 . S
Tb640 O645 2.341 . S
Tb640 O660 2.344 . S
Tb640 O663 2.344 . S
Tb640 O676 2.344 . S
Tb640 O679 2.344 . S
Tb641 O639 2.341 . S
Tb641 O643 2.341 . S
Tb641 O646 2.341 . S
Tb641 O648 2.341 . S
Tb641 O664 2.344 . S
Tb641 O667 2.344 . S
Tb641 O672 2.344 . S
Tb641 O675 2.344 . S
Tb642 O639 2.341 . S
Tb642 O644 2.341 . S
Tb642 O647 2.341 . S
Tb642 O648 2.341 . S
Tb642 O668 2.344 . S
Tb642 O671 2.344 . S
Tb642 O681 2.344 . S
Tb642 O682 2.344 . S
O643 Tb640 2.341 . S
O643 Tb641 2.341 . S
O643 H649 0.850 . S
O643 Tb651 2.341 . S
O644 Tb640 2.341 . S
O644 Tb642 2.341 . S
O644 H650 0.850 . S
O644 Tb652 2.341 . S
O645 Tb640 2.341 . S
O645 Tb651 2.341 . S
O645 Tb652 2.341 . S
O645 H653 0.850 . S
O646 Tb641 2.341 . S
O646 Tb651 2.341 . S
O646 H654 0.850 . S
O646 Tb655 2.341 . S
O647 Tb642 2.341 . S
O647 Tb652 2.341 . S
O647 Tb655 2.341 . S
O647 H656 0.850 . S
O648 Tb641 2.341 . S
O648 Tb642 2.341 . S
O648 Tb655 2.341 . S
O648 H657 0.850 . S
H649 O643 0.850 . S
H650 O644 0.850 . S
Tb651 O643 2.341 . S
Tb651 O645 2.341 . S
Tb651 O646 2.341 . S
Tb651 O658 2.341 . S
Tb651 O669 2.344 . S
Tb651 O670 2.344 . S
Tb651 O680 2.344 . S
Tb651 O683 2.344 . S
Tb652 O644 2.341 . S
Tb652 O645 2.341 . S
Tb652 O647 2.341 . S
Tb652 O658 2.341 . S
Tb652 O665 2.344 . S
Tb652 O666 2.344 . S
Tb652 O673 2.344 . S
Tb652 O674 2.344 . S
H653 O645 0.850 . S
H654 O646 0.850 . S
Tb655 O646 2.341 . S
Tb655 O647 2.341 . S
Tb655 O648 2.341 . S
Tb655 O658 2.341 . S
Tb655 O661 2.344 . S
Tb655 O662 2.344 . S
Tb655 O677 2.344 . S
Tb655 O678 2.344 . S
H656 O647 0.850 . S
H657 O648 0.850 . S
O658 Tb651 2.341 . S
O658 Tb652 2.341 . S
O658 Tb655 2.341 . S
O658 H659 0.850 . S
H659 O658 0.850 . S
O660 Tb640 2.344 . S
O660 C684 1.272 . S
O661 Tb655 2.344 . S
O661 C685 1.272 . S
O662 Tb655 2.344 . S
O662 C686 1.272 . S
O663 Tb640 2.344 . S
O663 C687 1.272 . S
O664 Tb641 2.344 . S
O664 C688 1.272 . S
O665 Tb652 2.344 . S
O665 C689 1.272 . S
O666 Tb652 2.344 . S
O666 C690 1.272 . S
O667 Tb641 2.344 . S
O667 C691 1.272 . S
O668 Tb642 2.344 . S
O668 C692 1.272 . S
O669 Tb651 2.344 . S
O669 C693 1.272 . S
O670 Tb651 2.344 . S
O670 C694 1.272 . S
O671 Tb642 2.344 . S
O671 C695 1.272 . S
O672 Tb641 2.344 . S
O672 C684 1.272 . S
O673 Tb652 2.344 . S
O673 C685 1.272 . S
O674 Tb652 2.344 . S
O674 C687 1.272 . S
O675 Tb641 2.344 . S
O675 C686 1.272 . S
O676 Tb640 2.344 . S
O676 C694 1.272 . S
O677 Tb655 2.344 . S
O677 C695 1.272 . S
O678 Tb655 2.344 . S
O678 C693 1.272 . S
O679 Tb640 2.344 . S
O679 C692 1.272 . S
O680 Tb651 2.344 . S
O680 C691 1.272 . S
O681 Tb642 2.344 . S
O681 C690 1.272 . S
O682 Tb642 2.344 . S
O682 C688 1.272 . S
O683 Tb651 2.344 . S
O683 C689 1.272 . S
C684 O660 1.272 . S
C684 O672 1.272 . S
C685 O661 1.272 . S
C685 O673 1.272 . S
C686 O662 1.272 . S
C686 O675 1.272 . S
C687 O663 1.272 . S
C687 O674 1.272 . S
C688 O664 1.272 . S
C688 O682 1.272 . S
C689 O665 1.272 . S
C689 O683 1.272 . S
C690 O666 1.272 . S
C690 O681 1.272 . S
C691 O667 1.272 . S
C691 O680 1.272 . S
C692 O668 1.272 . S
C692 O679 1.272 . S
C693 O669 1.272 . S
C693 O678 1.272 . S
C694 O670 1.272 . S
C694 O676 1.272 . S
C695 O671 1.272 . S
C695 O677 1.272 . S
H696 C702 0.930 . S
H697 C706 0.930 . S
H698 C711 0.929 . S
H699 C709 0.929 . S
H700 C704 0.929 . S
H701 C710 0.929 . S
C702 H696 0.930 . S
C702 C703 1.367 . S
C702 C710 1.378 . S
C703 C702 1.367 . S
C703 C711 1.433 . S
C704 H700 0.929 . S
C704 C706 1.378 . S
C704 C708 1.350 . S
C705 C708 1.463 . S
C705 C710 1.350 . S
C705 N713 1.427 . S
C706 H697 0.930 . S
C706 C704 1.378 . S
C706 C707 1.367 . S
C707 C706 1.367 . S
C707 C709 1.433 . S
C708 C704 1.350 . S
C708 C705 1.463 . S
C708 N712 1.427 . S
C709 H699 0.929 . S
C709 C707 1.433 . S
C709 N712 1.384 . S
C710 H701 0.929 . S
C710 C702 1.378 . S
C710 C705 1.350 . S
C711 H698 0.929 . S
C711 C703 1.433 . S
C711 N713 1.384 . S
N712 C708 1.427 . S
N712 C709 1.384 . S
N713 C705 1.427 . S
N713 C711 1.384 . S
H714 C720 0.930 . S
H715 C724 0.930 . S
H716 C729 0.929 . S
H717 C727 0.929 . S
H718 C722 0.929 . S
H719 C728 0.929 . S
C720 H714 0.930 . S
C720 C721 1.367 . S
C720 C728 1.378 . S
C721 C720 1.367 . S
C721 C729 1.433 . S
C722 H718 0.929 . S
C722 C724 1.378 1_554 S
C722 C726 1.350 . S
C723 C726 1.463 . S
C723 C728 1.350 . S
C723 N731 1.427 . S
C724 H715 0.930 . S
C724 C722 1.378 1_556 S
C724 C725 1.367 . S
C725 C724 1.367 . S
C725 C727 1.433 . S
C726 C722 1.350 . S
C726 C723 1.463 . S
C726 N730 1.427 . S
C727 H717 0.929 . S
C727 C725 1.433 . S
C727 N730 1.384 1_556 S
C728 H719 0.929 . S
C728 C720 1.378 . S
C728 C723 1.350 . S
C729 H716 0.929 . S
C729 C721 1.433 . S
C729 N731 1.384 . S
N730 C726 1.427 . S
N730 C727 1.384 1_554 S
N731 C723 1.427 . S
N731 C729 1.384 . S
H732 C738 0.930 . S
H733 C742 0.930 . S
H734 C747 0.929 . S
H735 C745 0.929 . S
H736 C740 0.929 . S
H737 C746 0.929 . S
C738 H732 0.930 . S
C738 C739 1.367 . S
C738 C746 1.378 . S
C739 C738 1.367 . S
C739 C747 1.433 . S
C740 H736 0.929 . S
C740 C742 1.378 . S
C740 C744 1.350 . S
C741 C744 1.463 . S
C741 C746 1.350 . S
C741 N749 1.427 . S
C742 H733 0.930 . S
C742 C740 1.378 . S
C742 C743 1.367 . S
C743 C742 1.367 . S
C743 C745 1.433 . S
C744 C740 1.350 . S
C744 C741 1.463 . S
C744 N748 1.427 . S
C745 H735 0.929 . S
C745 C743 1.433 . S
C745 N748 1.384 . S
C746 H737 0.929 . S
C746 C738 1.378 . S
C746 C741 1.350 . S
C747 H734 0.929 . S
C747 C739 1.433 . S
C747 N749 1.384 . S
N748 C744 1.427 . S
N748 C745 1.384 . S
N749 C741 1.427 . S
N749 C747 1.384 . S
H750 C756 0.930 . S
H751 C760 0.930 . S
H752 C765 0.929 . S
H753 C763 0.929 . S
H754 C758 0.929 . S
H755 C764 0.929 . S
C756 H750 0.930 . S
C756 C757 1.367 . S
C756 C764 1.378 . S
C757 C756 1.367 . S
C757 C765 1.433 . S
C758 H754 0.929 . S
C758 C760 1.378 1_554 S
C758 C762 1.350 . S
C759 C762 1.463 . S
C759 C764 1.350 . S
C759 N767 1.427 . S
C760 H751 0.930 . S
C760 C758 1.378 1_556 S
C760 C761 1.367 . S
C761 C760 1.367 . S
C761 C763 1.433 1_556 S
C762 C758 1.350 . S
C762 C759 1.463 . S
C762 N766 1.427 . S
C763 H753 0.929 . S
C763 C761 1.433 1_554 S
C763 N766 1.384 . S
C764 H755 0.929 . S
C764 C756 1.378 . S
C764 C759 1.350 . S
C765 H752 0.929 . S
C765 C757 1.433 . S
C765 N767 1.384 . S
N766 C762 1.427 . S
N766 C763 1.384 . S
N767 C759 1.427 . S
N767 C765 1.384 . S
H768 C774 0.930 . S
H769 C778 0.930 . S
H770 C783 0.929 . S
H771 C781 0.929 . S
H772 C776 0.929 . S
H773 C782 0.929 . S
C774 H768 0.930 . S
C774 C775 1.367 . S
C774 C782 1.378 . S
C775 C774 1.367 . S
C775 C783 1.433 . S
C776 H772 0.929 . S
C776 C778 1.378 . S
C776 C780 1.350 . S
C777 C780 1.463 . S
C777 C782 1.350 . S
C777 N785 1.427 . S
C778 H769 0.930 . S
C778 C776 1.378 . S
C778 C779 1.367 . S
C779 C778 1.367 . S
C779 C781 1.433 . S
C780 C776 1.350 . S
C780 C777 1.463 . S
C780 N784 1.427 . S
C781 H771 0.929 . S
C781 C779 1.433 . S
C781 N784 1.384 . S
C782 H773 0.929 . S
C782 C774 1.378 . S
C782 C777 1.350 . S
C783 H770 0.929 . S
C783 C775 1.433 . S
C783 N785 1.384 . S
N784 C780 1.427 . S
N784 C781 1.384 . S
N785 C777 1.427 . S
N785 C783 1.384 . S
H786 C792 0.930 . S
H787 C796 0.930 . S
H788 C801 0.929 . S
H789 C799 0.929 . S
H790 C794 0.929 . S
H791 C800 0.929 . S
C792 H786 0.930 . S
C792 C793 1.367 . S
C792 C800 1.378 1_554 S
C793 C792 1.367 . S
C793 C801 1.433 1_554 S
C794 H790 0.929 . S
C794 C796 1.378 . S
C794 C798 1.350 . S
C795 C798 1.463 . S
C795 C800 1.350 . S
C795 N803 1.427 . S
C796 H787 0.930 . S
C796 C794 1.378 . S
C796 C797 1.367 . S
C797 C796 1.367 . S
C797 C799 1.433 . S
C798 C794 1.350 . S
C798 C795 1.463 . S
C798 N802 1.427 . S
C799 H789 0.929 . S
C799 C797 1.433 . S
C799 N802 1.384 . S
C800 H791 0.929 . S
C800 C792 1.378 1_556 S
C800 C795 1.350 . S
C801 H788 0.929 . S
C801 C793 1.433 1_556 S
C801 N803 1.384 . S
N802 C798 1.427 . S
N802 C799 1.384 . S
N803 C795 1.427 . S
N803 C801 1.384 . S
H804 C810 0.930 . S
H805 C814 0.930 . S
H806 C819 0.929 . S
H807 C817 0.929 . S
H808 C812 0.929 . S
H809 C818 0.929 . S
C810 H804 0.930 . S
C810 C811 1.367 . S
C810 C818 1.378 . S
C811 C810 1.367 . S
C811 C819 1.433 . S
C812 H808 0.929 . S
C812 C814 1.378 . S
C812 C816 1.350 . S
C813 C816 1.463 . S
C813 C818 1.350 . S
C813 N821 1.427 . S
C814 H805 0.930 . S
C814 C812 1.378 . S
C814 C815 1.367 . S
C815 C814 1.367 . S
C815 C817 1.433 . S
C816 C812 1.350 . S
C816 C813 1.463 . S
C816 N820 1.427 . S
C817 H807 0.929 . S
C817 C815 1.433 . S
C817 N820 1.384 . S
C818 H809 0.929 . S
C818 C810 1.378 . S
C818 C813 1.350 . S
C819 H806 0.929 . S
C819 C811 1.433 . S
C819 N821 1.384 . S
N820 C816 1.427 . S
N820 C817 1.384 . S
N821 C813 1.427 . S
N821 C819 1.384 . S
H822 C828 0.930 . S
H823 C832 0.930 . S
H824 C837 0.929 . S
H825 C835 0.929 . S
H826 C830 0.929 . S
H827 C836 0.929 . S
C828 H822 0.930 . S
C828 C829 1.367 . S
C828 C836 1.378 . S
C829 C828 1.367 . S
C829 C837 1.433 . S
C830 H826 0.929 . S
C830 C832 1.378 1_556 S
C830 C834 1.350 . S
C831 C834 1.463 . S
C831 C836 1.350 . S
C831 N839 1.427 . S
C832 H823 0.930 . S
C832 C830 1.378 1_554 S
C832 C833 1.367 . S
C833 C832 1.367 . S
C833 C835 1.433 1_554 S
C834 C830 1.350 . S
C834 C831 1.463 . S
C834 N838 1.427 . S
C835 H825 0.929 . S
C835 C833 1.433 1_556 S
C835 N838 1.384 . S
C836 H827 0.929 . S
C836 C828 1.378 . S
C836 C831 1.350 . S
C837 H824 0.929 . S
C837 C829 1.433 . S
C837 N839 1.384 . S
N838 C834 1.427 . S
N838 C835 1.384 . S
N839 C831 1.427 . S
N839 C837 1.384 . S
H840 C846 0.930 . S
H841 C850 0.930 . S
H842 C855 0.929 . S
H843 C853 0.929 . S
H844 C848 0.929 . S
H845 C854 0.929 . S
C846 H840 0.930 . S
C846 C847 1.367 . S
C846 C854 1.378 . S
C847 C846 1.367 . S
C847 C855 1.433 . S
C848 H844 0.929 . S
C848 C850 1.378 . S
C848 C852 1.350 . S
C849 C852 1.463 . S
C849 C854 1.350 . S
C849 N857 1.427 . S
C850 H841 0.930 . S
C850 C848 1.378 . S
C850 C851 1.367 . S
C851 C850 1.367 . S
C851 C853 1.433 . S
C852 C848 1.350 . S
C852 C849 1.463 . S
C852 N856 1.427 . S
C853 H843 0.929 . S
C853 C851 1.433 . S
C853 N856 1.384 . S
C854 H845 0.929 . S
C854 C846 1.378 . S
C854 C849 1.350 . S
C855 H842 0.929 . S
C855 C847 1.433 . S
C855 N857 1.384 . S
N856 C852 1.427 . S
N856 C853 1.384 . S
N857 C849 1.427 . S
N857 C855 1.384 . S
H858 C864 0.930 . S
H859 C868 0.930 . S
H860 C873 0.929 . S
H861 C871 0.929 1_554 S
H862 C866 0.929 . S
H863 C872 0.929 . S
C864 H858 0.930 . S
C864 C865 1.367 . S
C864 C872 1.378 . S
C865 C864 1.367 . S
C865 C873 1.433 . S
C866 H862 0.929 . S
C866 C868 1.378 . S
C866 C870 1.350 . S
C867 C870 1.463 . S
C867 C872 1.350 . S
C867 N875 1.427 . S
C868 H859 0.930 . S
C868 C866 1.378 . S
C868 C869 1.367 . S
C869 C868 1.367 . S
C869 C871 1.433 . S
C870 C866 1.350 . S
C870 C867 1.463 . S
C870 N874 1.427 . S
C871 H861 0.929 1_556 S
C871 C869 1.433 . S
C871 N874 1.384 . S
C872 H863 0.929 . S
C872 C864 1.378 . S
C872 C867 1.350 . S
C873 H860 0.929 . S
C873 C865 1.433 . S
C873 N875 1.384 . S
N874 C870 1.427 . S
N874 C871 1.384 . S
N875 C867 1.427 . S
N875 C873 1.384 . S
H876 C882 0.930 . S
H877 C886 0.930 . S
H878 C891 0.929 . S
H879 C889 0.929 . S
H880 C884 0.929 . S
H881 C890 0.929 . S
C882 H876 0.930 . S
C882 C883 1.367 . S
C882 C890 1.378 . S
C883 C882 1.367 . S
C883 C891 1.433 . S
C884 H880 0.929 . S
C884 C886 1.378 . S
C884 C888 1.350 . S
C885 C888 1.463 . S
C885 C890 1.350 . S
C885 N893 1.427 . S
C886 H877 0.930 . S
C886 C884 1.378 . S
C886 C887 1.367 . S
C887 C886 1.367 . S
C887 C889 1.433 . S
C888 C884 1.350 . S
C888 C885 1.463 . S
C888 N892 1.427 . S
C889 H879 0.929 . S
C889 C887 1.433 . S
C889 N892 1.384 . S
C890 H881 0.929 . S
C890 C882 1.378 . S
C890 C885 1.350 . S
C891 H878 0.929 . S
C891 C883 1.433 . S
C891 N893 1.384 . S
N892 C888 1.427 . S
N892 C889 1.384 . S
N893 C885 1.427 . S
N893 C891 1.384 . S
H894 C900 0.930 . S
H895 C904 0.930 1_554 S
H896 C909 0.929 . S
H897 C907 0.929 . S
H898 C902 0.929 . S
H899 C908 0.929 . S
C900 H894 0.930 . S
C900 C901 1.367 . S
C900 C908 1.378 . S
C901 C900 1.367 . S
C901 C909 1.433 . S
C902 H898 0.929 . S
C902 C904 1.378 . S
C902 C906 1.350 . S
C903 C906 1.463 . S
C903 C908 1.350 . S
C903 N911 1.427 . S
C904 H895 0.930 1_556 S
C904 C902 1.378 . S
C904 C905 1.367 1_565 S
C905 C904 1.367 1_545 S
C905 C907 1.433 . S
C906 C902 1.350 . S
C906 C903 1.463 . S
C906 N910 1.427 . S
C907 H897 0.929 . S
C907 C905 1.433 . S
C907 N910 1.384 1_545 S
C908 H899 0.929 . S
C908 C900 1.378 . S
C908 C903 1.350 . S
C909 H896 0.929 . S
C909 C901 1.433 . S
C909 N911 1.384 . S
N910 C906 1.427 . S
N910 C907 1.384 1_565 S
N911 C903 1.427 . S
N911 C909 1.384 . S
H912 C918 0.930 . S
H913 C922 0.930 . S
H914 C927 0.929 . S
H915 C925 0.929 . S
H916 C920 0.929 . S
H917 C926 0.929 . S
C918 H912 0.930 . S
C918 C919 1.367 . S
C918 C926 1.378 . S
C919 C918 1.367 . S
C919 C927 1.433 . S
C920 H916 0.929 . S
C920 C922 1.378 . S
C920 C924 1.350 . S
C921 C924 1.463 . S
C921 C926 1.350 . S
C921 N929 1.427 . S
C922 H913 0.930 . S
C922 C920 1.378 . S
C922 C923 1.367 . S
C923 C922 1.367 . S
C923 C925 1.433 . S
C924 C920 1.350 . S
C924 C921 1.463 . S
C924 N928 1.427 . S
C925 H915 0.929 . S
C925 C923 1.433 . S
C925 N928 1.384 . S
C926 H917 0.929 . S
C926 C918 1.378 . S
C926 C921 1.350 . S
C927 H914 0.929 . S
C927 C919 1.433 . S
C927 N929 1.384 . S
N928 C924 1.427 . S
N928 C925 1.384 . S
N929 C921 1.427 . S
N929 C927 1.384 . S
H930 C936 0.930 1_556 S
H931 C940 0.930 . S
H932 C945 0.929 . S
H933 C943 0.929 . S
H934 C938 0.929 . S
H935 C944 0.929 . S
C936 H930 0.930 1_554 S
C936 C937 1.367 . S
C936 C944 1.378 . S
C937 C936 1.367 . S
C937 C945 1.433 . S
C938 H934 0.929 . S
C938 C940 1.378 . S
C938 C942 1.350 . S
C939 C942 1.463 . S
C939 C944 1.350 . S
C939 N947 1.427 . S
C940 H931 0.930 . S
C940 C938 1.378 . S
C940 C941 1.367 . S
C941 C940 1.367 . S
C941 C943 1.433 . S
C942 C938 1.350 . S
C942 C939 1.463 . S
C942 N946 1.427 . S
C943 H933 0.929 . S
C943 C941 1.433 . S
C943 N946 1.384 . S
C944 H935 0.929 . S
C944 C936 1.378 . S
C944 C939 1.350 . S
C945 H932 0.929 . S
C945 C937 1.433 . S
C945 N947 1.384 . S
N946 C942 1.427 . S
N946 C943 1.384 . S
N947 C939 1.427 . S
N947 C945 1.384 . S
H948 C954 0.930 . S
H949 C958 0.930 . S
H950 C963 0.929 . S
H951 C961 0.929 . S
H952 C956 0.929 . S
H953 C962 0.929 . S
C954 H948 0.930 . S
C954 C955 1.367 . S
C954 C962 1.378 . S
C955 C954 1.367 . S
C955 C963 1.433 . S
C956 H952 0.929 . S
C956 C958 1.378 . S
C956 C960 1.350 . S
C957 C960 1.463 . S
C957 C962 1.350 . S
C957 N965 1.427 . S
C958 H949 0.930 . S
C958 C956 1.378 . S
C958 C959 1.367 . S
C959 C958 1.367 . S
C959 C961 1.433 . S
C960 C956 1.350 . S
C960 C957 1.463 . S
C960 N964 1.427 . S
C961 H951 0.929 . S
C961 C959 1.433 . S
C961 N964 1.384 . S
C962 H953 0.929 . S
C962 C954 1.378 . S
C962 C957 1.350 . S
C963 H950 0.929 . S
C963 C955 1.433 . S
C963 N965 1.384 . S
N964 C960 1.427 . S
N964 C961 1.384 . S
N965 C957 1.427 . S
N965 C963 1.384 . S
H966 C972 0.930 . S
H967 C976 0.930 . S
H968 C981 0.929 1_556 S
H969 C979 0.929 . S
H970 C974 0.929 . S
H971 C980 0.928 1_545 S
C972 H966 0.930 . S
C972 C973 1.367 . S
C972 C980 1.378 1_545 S
C973 C972 1.367 . S
C973 C981 1.433 1_545 S
C974 H970 0.929 . S
C974 C976 1.378 . S
C974 C978 1.350 . S
C975 C978 1.463 . S
C975 C980 1.350 . S
C975 N983 1.427 . S
C976 H967 0.930 . S
C976 C974 1.378 . S
C976 C977 1.367 . S
C977 C976 1.367 . S
C977 C979 1.433 . S
C978 C974 1.350 . S
C978 C975 1.463 . S
C978 N982 1.427 . S
C979 H969 0.929 . S
C979 C977 1.433 . S
C979 N982 1.384 . S
C980 H971 0.928 1_565 S
C980 C972 1.378 1_565 S
C980 C975 1.350 . S
C981 H968 0.929 1_554 S
C981 C973 1.433 1_565 S
C981 N983 1.384 . S
N982 C978 1.427 . S
N982 C979 1.384 . S
N983 C975 1.427 . S
N983 C981 1.384 . S
H984 C990 0.930 . S
H985 C994 0.930 . S
H986 C999 0.929 . S
H987 C997 0.929 . S
H988 C992 0.929 . S
H989 C998 0.929 . S
C990 H984 0.930 . S
C990 C991 1.367 . S
C990 C998 1.378 . S
C991 C990 1.367 . S
C991 C999 1.433 . S
C992 H988 0.929 . S
C992 C994 1.378 . S
C992 C996 1.350 . S
C993 C996 1.463 . S
C993 C998 1.350 . S
C993 N1001 1.427 . S
C994 H985 0.930 . S
C994 C992 1.378 . S
C994 C995 1.367 . S
C995 C994 1.367 . S
C995 C997 1.433 . S
C996 C992 1.350 . S
C996 C993 1.463 . S
C996 N1000 1.427 . S
C997 H987 0.929 . S
C997 C995 1.433 . S
C997 N1000 1.384 . S
C998 H989 0.929 . S
C998 C990 1.378 . S
C998 C993 1.350 . S
C999 H986 0.929 . S
C999 C991 1.433 . S
C999 N1001 1.384 . S
N1000 C996 1.427 . S
N1000 C997 1.384 . S
N1001 C993 1.427 . S
N1001 C999 1.384 . S
H1002 C1008 0.930 . S
H1003 C1012 0.930 . S
H1004 C1017 0.929 . S
H1005 C1015 0.929 . S
H1006 C1010 0.929 . S
H1007 C1016 0.929 . S
C1008 H1002 0.930 . S
C1008 C1009 1.367 . S
C1008 C1016 1.378 . S
C1009 C1008 1.367 . S
C1009 C1017 1.433 . S
C1010 H1006 0.929 . S
C1010 C1012 1.378 . S
C1010 C1014 1.350 . S
C1011 C1014 1.463 . S
C1011 C1016 1.350 . S
C1011 N1019 1.427 . S
C1012 H1003 0.930 . S
C1012 C1010 1.378 . S
C1012 C1013 1.367 . S
C1013 C1012 1.367 . S
C1013 C1015 1.433 . S
C1014 C1010 1.350 . S
C1014 C1011 1.463 . S
C1014 N1018 1.427 . S
C1015 H1005 0.929 . S
C1015 C1013 1.433 . S
C1015 N1018 1.384 . S
C1016 H1007 0.929 . S
C1016 C1008 1.378 . S
C1016 C1011 1.350 . S
C1017 H1004 0.929 . S
C1017 C1009 1.433 . S
C1017 N1019 1.384 . S
N1018 C1014 1.427 . S
N1018 C1015 1.384 . S
N1019 C1011 1.427 . S
N1019 C1017 1.384 . S
H1020 C1026 0.930 . S
H1021 C1030 0.930 . S
H1022 C1035 0.929 . S
H1023 C1033 0.929 . S
H1024 C1028 0.929 . S
H1025 C1034 0.929 . S
C1026 H1020 0.930 . S
C1026 C1027 1.367 . S
C1026 C1034 1.378 1_655 S
C1027 C1026 1.367 . S
C1027 C1035 1.433 1_655 S
C1028 H1024 0.929 . S
C1028 C1030 1.378 . S
C1028 C1032 1.350 . S
C1029 C1032 1.463 . S
C1029 C1034 1.350 . S
C1029 N1037 1.427 . S
C1030 H1021 0.930 . S
C1030 C1028 1.378 . S
C1030 C1031 1.367 . S
C1031 C1030 1.367 . S
C1031 C1033 1.433 . S
C1032 C1028 1.350 . S
C1032 C1029 1.463 . S
C1032 N1036 1.427 . S
C1033 H1023 0.929 . S
C1033 C1031 1.433 . S
C1033 N1036 1.384 . S
C1034 H1025 0.929 . S
C1034 C1026 1.378 1_455 S
C1034 C1029 1.350 . S
C1035 H1022 0.929 . S
C1035 C1027 1.433 1_455 S
C1035 N1037 1.384 . S
N1036 C1032 1.427 . S
N1036 C1033 1.384 . S
N1037 C1029 1.427 . S
N1037 C1035 1.384 . S
H1038 C1044 0.930 . S
H1039 C1048 0.930 . S
H1040 C1053 0.929 . S
H1041 C1051 0.929 . S
H1042 C1046 0.929 . S
H1043 C1052 0.929 . S
C1044 H1038 0.930 . S
C1044 C1045 1.367 . S
C1044 C1052 1.378 . S
C1045 C1044 1.367 . S
C1045 C1053 1.433 . S
C1046 H1042 0.929 . S
C1046 C1048 1.378 . S
C1046 C1050 1.350 . S
C1047 C1050 1.463 . S
C1047 C1052 1.350 . S
C1047 N1055 1.427 . S
C1048 H1039 0.930 . S
C1048 C1046 1.378 . S
C1048 C1049 1.367 . S
C1049 C1048 1.367 . S
C1049 C1051 1.433 . S
C1050 C1046 1.350 . S
C1050 C1047 1.463 . S
C1050 N1054 1.427 . S
C1051 H1041 0.929 . S
C1051 C1049 1.433 . S
C1051 N1054 1.384 . S
C1052 H1043 0.929 . S
C1052 C1044 1.378 . S
C1052 C1047 1.350 . S
C1053 H1040 0.929 . S
C1053 C1045 1.433 . S
C1053 N1055 1.384 . S
N1054 C1050 1.427 . S
N1054 C1051 1.384 . S
N1055 C1047 1.427 . S
N1055 C1053 1.384 . S
H1056 C1062 0.930 . S
H1057 C1066 0.930 . S
H1058 C1071 0.929 . S
H1059 C1069 0.929 . S
H1060 C1064 0.929 . S
H1061 C1070 0.929 . S
C1062 H1056 0.930 . S
C1062 C1063 1.367 . S
C1062 C1070 1.378 . S
C1063 C1062 1.367 . S
C1063 C1071 1.433 . S
C1064 H1060 0.929 . S
C1064 C1066 1.378 . S
C1064 C1068 1.350 . S
C1065 C1068 1.463 . S
C1065 C1070 1.350 . S
C1065 N1073 1.427 . S
C1066 H1057 0.930 . S
C1066 C1064 1.378 . S
C1066 C1067 1.367 . S
C1067 C1066 1.367 . S
C1067 C1069 1.433 . S
C1068 C1064 1.350 . S
C1068 C1065 1.463 . S
C1068 N1072 1.427 . S
C1069 H1059 0.929 . S
C1069 C1067 1.433 . S
C1069 N1072 1.384 . S
C1070 H1061 0.929 . S
C1070 C1062 1.378 . S
C1070 C1065 1.350 . S
C1071 H1058 0.929 . S
C1071 C1063 1.433 . S
C1071 N1073 1.384 . S
N1072 C1068 1.427 . S
N1072 C1069 1.384 . S
N1073 C1065 1.427 . S
N1073 C1071 1.384 . S
H1074 C1080 0.930 . S
H1075 C1084 0.930 . S
H1076 C1089 0.929 . S
H1077 C1087 0.929 . S
H1078 C1082 0.929 . S
H1079 C1088 0.929 . S
C1080 H1074 0.930 . S
C1080 C1081 1.367 . S
C1080 C1088 1.378 . S
C1081 C1080 1.367 . S
C1081 C1089 1.433 . S
C1082 H1078 0.929 . S
C1082 C1084 1.378 . S
C1082 C1086 1.350 . S
C1083 C1086 1.463 . S
C1083 C1088 1.350 . S
C1083 N1091 1.427 . S
C1084 H1075 0.930 . S
C1084 C1082 1.378 . S
C1084 C1085 1.367 . S
C1085 C1084 1.367 . S
C1085 C1087 1.433 . S
C1086 C1082 1.350 . S
C1086 C1083 1.463 . S
C1086 N1090 1.427 . S
C1087 H1077 0.929 . S
C1087 C1085 1.433 . S
C1087 N1090 1.384 . S
C1088 H1079 0.929 . S
C1088 C1080 1.378 . S
C1088 C1083 1.350 . S
C1089 H1076 0.929 . S
C1089 C1081 1.433 . S
C1089 N1091 1.384 . S
N1090 C1086 1.427 . S
N1090 C1087 1.384 . S
N1091 C1083 1.427 . S
N1091 C1089 1.384 . S
H1092 C1098 0.930 . S
H1093 C1102 0.930 . S
H1094 C1107 0.929 . S
H1095 C1105 0.929 . S
H1096 C1100 0.929 . S
H1097 C1106 0.929 . S
C1098 H1092 0.930 . S
C1098 C1099 1.367 . S
C1098 C1106 1.378 1_655 S
C1099 C1098 1.367 . S
C1099 C1107 1.433 1_655 S
C1100 H1096 0.929 . S
C1100 C1102 1.378 . S
C1100 C1104 1.350 . S
C1101 C1104 1.463 . S
C1101 C1106 1.350 . S
C1101 N1109 1.427 . S
C1102 H1093 0.930 . S
C1102 C1100 1.378 . S
C1102 C1103 1.367 . S
C1103 C1102 1.367 . S
C1103 C1105 1.433 . S
C1104 C1100 1.350 . S
C1104 C1101 1.463 . S
C1104 N1108 1.427 . S
C1105 H1095 0.929 . S
C1105 C1103 1.433 . S
C1105 N1108 1.384 . S
C1106 H1097 0.929 . S
C1106 C1098 1.378 1_455 S
C1106 C1101 1.350 . S
C1107 H1094 0.929 . S
C1107 C1099 1.433 1_455 S
C1107 N1109 1.384 . S
N1108 C1104 1.427 . S
N1108 C1105 1.384 . S
N1109 C1101 1.427 . S
N1109 C1107 1.384 . S
H1110 C1116 0.930 1_545 S
H1111 C1120 0.930 . S
H1112 C1125 0.929 . S
H1113 C1123 0.929 . S
H1114 C1118 0.929 . S
H1115 C1124 0.929 . S
C1116 H1110 0.930 1_565 S
C1116 C1117 1.367 1_655 S
C1116 C1124 1.378 . S
C1117 C1116 1.367 1_455 S
C1117 C1125 1.433 . S
C1118 H1114 0.929 . S
C1118 C1120 1.378 . S
C1118 C1122 1.350 . S
C1119 C1122 1.463 . S
C1119 C1124 1.350 . S
C1119 N1127 1.427 . S
C1120 H1111 0.930 . S
C1120 C1118 1.378 . S
C1120 C1121 1.367 . S
C1121 C1120 1.367 . S
C1121 C1123 1.433 . S
C1122 C1118 1.350 . S
C1122 C1119 1.463 . S
C1122 N1126 1.427 . S
C1123 H1113 0.929 . S
C1123 C1121 1.433 . S
C1123 N1126 1.384 . S
C1124 H1115 0.929 . S
C1124 C1116 1.378 . S
C1124 C1119 1.350 . S
C1125 H1112 0.929 . S
C1125 C1117 1.433 . S
C1125 N1127 1.384 1_455 S
N1126 C1122 1.427 . S
N1126 C1123 1.384 . S
N1127 C1119 1.427 . S
N1127 C1125 1.384 1_655 S
H1128 C1134 0.930 . S
H1129 C1138 0.930 . S
H1130 C1143 0.929 . S
H1131 C1141 0.929 . S
H1132 C1136 0.929 . S
H1133 C1142 0.929 . S
C1134 H1128 0.930 . S
C1134 C1135 1.367 . S
C1134 C1142 1.378 . S
C1135 C1134 1.367 . S
C1135 C1143 1.433 . S
C1136 H1132 0.929 . S
C1136 C1138 1.378 . S
C1136 C1140 1.350 . S
C1137 C1140 1.463 . S
C1137 C1142 1.350 . S
C1137 N1145 1.427 . S
C1138 H1129 0.930 . S
C1138 C1136 1.378 . S
C1138 C1139 1.367 . S
C1139 C1138 1.367 . S
C1139 C1141 1.433 . S
C1140 C1136 1.350 . S
C1140 C1137 1.463 . S
C1140 N1144 1.427 . S
C1141 H1131 0.929 . S
C1141 C1139 1.433 . S
C1141 N1144 1.384 . S
C1142 H1133 0.929 . S
C1142 C1134 1.378 . S
C1142 C1137 1.350 . S
C1143 H1130 0.929 . S
C1143 C1135 1.433 . S
C1143 N1145 1.384 . S
N1144 C1140 1.427 . S
N1144 C1141 1.384 . S
N1145 C1137 1.427 . S
N1145 C1143 1.384 . S
H1146 C1152 0.930 . S
H1147 C1156 0.930 . S
H1148 C1161 0.929 1_655 S
H1149 C1159 0.929 . S
H1150 C1154 0.929 . S
H1151 C1160 0.929 . S
C1152 H1146 0.930 . S
C1152 C1153 1.367 . S
C1152 C1160 1.378 . S
C1153 C1152 1.367 . S
C1153 C1161 1.433 . S
C1154 H1150 0.929 . S
C1154 C1156 1.378 . S
C1154 C1158 1.350 . S
C1155 C1158 1.463 . S
C1155 C1160 1.350 . S
C1155 N1163 1.427 . S
C1156 H1147 0.930 . S
C1156 C1154 1.378 . S
C1156 C1157 1.367 . S
C1157 C1156 1.367 . S
C1157 C1159 1.433 . S
C1158 C1154 1.350 . S
C1158 C1155 1.463 . S
C1158 N1162 1.427 . S
C1159 H1149 0.929 . S
C1159 C1157 1.433 . S
C1159 N1162 1.384 . S
C1160 H1151 0.929 . S
C1160 C1152 1.378 . S
C1160 C1155 1.350 . S
C1161 H1148 0.929 1_455 S
C1161 C1153 1.433 . S
C1161 N1163 1.384 . S
N1162 C1158 1.427 . S
N1162 C1159 1.384 . S
N1163 C1155 1.427 . S
N1163 C1161 1.384 . S
H1164 C1170 0.930 . S
H1165 C1174 0.930 . S
H1166 C1179 0.929 . S
H1167 C1177 0.929 . S
H1168 C1172 0.929 . S
H1169 C1178 0.929 . S
C1170 H1164 0.930 . S
C1170 C1171 1.367 . S
C1170 C1178 1.378 . S
C1171 C1170 1.367 . S
C1171 C1179 1.433 . S
C1172 H1168 0.929 . S
C1172 C1174 1.378 . S
C1172 C1176 1.350 . S
C1173 C1176 1.463 . S
C1173 C1178 1.350 . S
C1173 N1181 1.427 . S
C1174 H1165 0.930 . S
C1174 C1172 1.378 . S
C1174 C1175 1.367 . S
C1175 C1174 1.367 . S
C1175 C1177 1.433 . S
C1176 C1172 1.350 . S
C1176 C1173 1.463 . S
C1176 N1180 1.427 . S
C1177 H1167 0.929 . S
C1177 C1175 1.433 . S
C1177 N1180 1.384 . S
C1178 H1169 0.929 . S
C1178 C1170 1.378 . S
C1178 C1173 1.350 . S
C1179 H1166 0.929 . S
C1179 C1171 1.433 . S
C1179 N1181 1.384 . S
N1180 C1176 1.427 . S
N1180 C1177 1.384 . S
N1181 C1173 1.427 . S
N1181 C1179 1.384 . S
H1182 C1188 0.939 . S
H1183 C1192 0.930 . S
H1184 C1197 0.929 . S
H1185 C1195 0.929 . S
H1186 C1190 0.929 . S
H1187 C1196 0.929 . S
C1188 H1182 0.939 . S
C1188 C1189 1.367 . S
C1188 C1196 1.378 . S
C1189 C1188 1.367 . S
C1189 C1197 1.433 . S
C1190 H1186 0.929 . S
C1190 C1192 1.378 . S
C1190 C1194 1.350 . S
C1191 C1194 1.463 . S
C1191 C1196 1.350 . S
C1191 N1199 1.427 . S
C1192 H1183 0.930 . S
C1192 C1190 1.378 . S
C1192 C1193 1.367 . S
C1193 C1192 1.367 . S
C1193 C1195 1.433 . S
C1194 C1190 1.350 . S
C1194 C1191 1.463 . S
C1194 N1198 1.427 . S
C1195 H1185 0.929 . S
C1195 C1193 1.433 . S
C1195 N1198 1.384 . S
C1196 H1187 0.929 . S
C1196 C1188 1.378 . S
C1196 C1191 1.350 . S
C1197 H1184 0.929 . S
C1197 C1189 1.433 . S
C1197 N1199 1.384 . S
N1198 C1194 1.427 . S
N1198 C1195 1.384 . S
N1199 C1191 1.427 . S
N1199 C1197 1.384 . S
H1200 C1206 0.930 . S
H1201 C1210 0.930 . S
H1202 C1215 0.929 . S
H1203 C1213 0.929 . S
H1204 C1208 0.929 . S
H1205 C1214 0.929 . S
C1206 H1200 0.930 . S
C1206 C1207 1.367 . S
C1206 C1214 1.378 . S
C1207 C1206 1.367 . S
C1207 C1215 1.433 . S
C1208 H1204 0.929 . S
C1208 C1210 1.378 . S
C1208 C1212 1.350 . S
C1209 C1212 1.463 . S
C1209 C1214 1.350 . S
C1209 N1217 1.427 . S
C1210 H1201 0.930 . S
C1210 C1208 1.378 . S
C1210 C1211 1.367 . S
C1211 C1210 1.367 . S
C1211 C1213 1.433 . S
C1212 C1208 1.350 . S
C1212 C1209 1.463 . S
C1212 N1216 1.427 . S
C1213 H1203 0.929 . S
C1213 C1211 1.433 . S
C1213 N1216 1.384 . S
C1214 H1205 0.929 . S
C1214 C1206 1.378 . S
C1214 C1209 1.350 . S
C1215 H1202 0.929 . S
C1215 C1207 1.433 . S
C1215 N1217 1.384 . S
N1216 C1212 1.427 . S
N1216 C1213 1.384 . S
N1217 C1209 1.427 . S
N1217 C1215 1.384 . S
H1218 C1224 0.930 . S
H1219 C1228 0.930 . S
H1220 C1233 0.929 . S
H1221 C1231 0.929 . S
H1222 C1226 0.929 . S
H1223 C1232 0.929 . S
C1224 H1218 0.930 . S
C1224 C1225 1.367 . S
C1224 C1232 1.378 . S
C1225 C1224 1.367 . S
C1225 C1233 1.433 . S
C1226 H1222 0.929 . S
C1226 C1228 1.378 . S
C1226 C1230 1.350 . S
C1227 C1230 1.463 . S
C1227 C1232 1.350 . S
C1227 N1235 1.427 . S
C1228 H1219 0.930 . S
C1228 C1226 1.378 . S
C1228 C1229 1.367 . S
C1229 C1228 1.367 . S
C1229 C1231 1.433 . S
C1230 C1226 1.350 . S
C1230 C1227 1.463 . S
C1230 N1234 1.427 . S
C1231 H1221 0.929 . S
C1231 C1229 1.433 . S
C1231 N1234 1.384 . S
C1232 H1223 0.929 . S
C1232 C1224 1.378 . S
C1232 C1227 1.350 . S
C1233 H1220 0.929 . S
C1233 C1225 1.433 . S
C1233 N1235 1.384 . S
N1234 C1230 1.427 . S
N1234 C1231 1.384 . S
N1235 C1227 1.427 . S
N1235 C1233 1.384 . S
H1236 C1242 0.930 . S
H1237 C1246 0.930 . S
H1238 C1251 0.929 . S
H1239 C1249 0.929 . S
H1240 C1244 0.929 . S
H1241 C1250 0.929 . S
C1242 H1236 0.930 . S
C1242 C1243 1.367 . S
C1242 C1250 1.378 . S
C1243 C1242 1.367 . S
C1243 C1251 1.433 . S
C1244 H1240 0.929 . S
C1244 C1246 1.378 . S
C1244 C1248 1.350 . S
C1245 C1248 1.463 . S
C1245 C1250 1.350 . S
C1245 N1253 1.427 . S
C1246 H1237 0.930 . S
C1246 C1244 1.378 . S
C1246 C1247 1.367 . S
C1247 C1246 1.367 . S
C1247 C1249 1.433 . S
C1248 C1244 1.350 . S
C1248 C1245 1.463 . S
C1248 N1252 1.427 . S
C1249 H1239 0.929 . S
C1249 C1247 1.433 . S
C1249 N1252 1.384 . S
C1250 H1241 0.929 . S
C1250 C1242 1.378 . S
C1250 C1245 1.350 . S
C1251 H1238 0.929 . S
C1251 C1243 1.433 . S
C1251 N1253 1.384 . S
N1252 C1248 1.427 . S
N1252 C1249 1.384 . S
N1253 C1245 1.427 . S
N1253 C1251 1.384 . S
H1254 C1260 0.930 . S
H1255 C1264 0.930 . S
H1256 C1269 0.929 . S
H1257 C1267 0.929 . S
H1258 C1262 0.929 . S
H1259 C1268 0.929 . S
C1260 H1254 0.930 . S
C1260 C1261 1.367 . S
C1260 C1268 1.378 . S
C1261 C1260 1.367 . S
C1261 C1269 1.433 . S
C1262 H1258 0.929 . S
C1262 C1264 1.378 . S
C1262 C1266 1.350 . S
C1263 C1266 1.463 . S
C1263 C1268 1.350 . S
C1263 N1271 1.427 . S
C1264 H1255 0.930 . S
C1264 C1262 1.378 . S
C1264 C1265 1.367 . S
C1265 C1264 1.367 . S
C1265 C1267 1.433 . S
C1266 C1262 1.350 . S
C1266 C1263 1.463 . S
C1266 N1270 1.427 . S
C1267 H1257 0.929 . S
C1267 C1265 1.433 . S
C1267 N1270 1.384 . S
C1268 H1259 0.929 . S
C1268 C1260 1.378 . S
C1268 C1263 1.350 . S
C1269 H1256 0.929 . S
C1269 C1261 1.433 . S
C1269 N1271 1.384 . S
N1270 C1266 1.427 . S
N1270 C1267 1.384 . S
N1271 C1263 1.427 . S
N1271 C1269 1.384 . S
H1272 C1278 0.930 . S
H1273 C1282 0.930 . S
H1274 C1287 0.929 . S
H1275 C1285 0.929 . S
H1276 C1280 0.929 . S
H1277 C1286 0.929 . S
C1278 H1272 0.930 . S
C1278 C1279 1.367 . S
C1278 C1286 1.378 . S
C1279 C1278 1.367 . S
C1279 C1287 1.433 . S
C1280 H1276 0.929 . S
C1280 C1282 1.378 . S
C1280 C1284 1.350 . S
C1281 C1284 1.463 . S
C1281 C1286 1.350 . S
C1281 N1289 1.427 . S
C1282 H1273 0.930 . S
C1282 C1280 1.378 . S
C1282 C1283 1.367 . S
C1283 C1282 1.367 . S
C1283 C1285 1.433 . S
C1284 C1280 1.350 . S
C1284 C1281 1.463 . S
C1284 N1288 1.427 . S
C1285 H1275 0.929 . S
C1285 C1283 1.433 . S
C1285 N1288 1.384 . S
C1286 H1277 0.929 . S
C1286 C1278 1.378 . S
C1286 C1281 1.350 . S
C1287 H1274 0.929 . S
C1287 C1279 1.433 . S
C1287 N1289 1.384 . S
N1288 C1284 1.427 . S
N1288 C1285 1.384 . S
N1289 C1281 1.427 . S
N1289 C1287 1.384 . S
H1290 C1296 0.930 . S
H1291 C1300 0.930 . S
H1292 C1305 0.929 . S
H1293 C1303 0.929 . S
H1294 C1298 0.929 . S
H1295 C1304 0.929 . S
C1296 H1290 0.930 . S
C1296 C1297 1.367 . S
C1296 C1304 1.378 . S
C1297 C1296 1.367 . S
C1297 C1305 1.433 . S
C1298 H1294 0.929 . S
C1298 C1300 1.378 . S
C1298 C1302 1.350 . S
C1299 C1302 1.463 . S
C1299 C1304 1.350 . S
C1299 N1307 1.427 . S
C1300 H1291 0.930 . S
C1300 C1298 1.378 . S
C1300 C1301 1.367 1_545 S
C1301 C1300 1.367 1_565 S
C1301 C1303 1.433 . S
C1302 C1298 1.350 . S
C1302 C1299 1.463 . S
C1302 N1306 1.427 . S
C1303 H1293 0.929 . S
C1303 C1301 1.433 . S
C1303 N1306 1.384 1_565 S
C1304 H1295 0.929 . S
C1304 C1296 1.378 . S
C1304 C1299 1.350 . S
C1305 H1292 0.929 . S
C1305 C1297 1.433 . S
C1305 N1307 1.384 . S
N1306 C1302 1.427 . S
N1306 C1303 1.384 1_545 S
N1307 C1299 1.427 . S
N1307 C1305 1.384 . S
H1308 C1314 0.930 . S
H1309 C1318 0.930 . S
H1310 C1323 0.929 . S
H1311 C1321 0.929 . S
H1312 C1316 0.929 . S
H1313 C1322 0.929 . S
C1314 H1308 0.930 . S
C1314 C1315 1.367 . S
C1314 C1322 1.378 . S
C1315 C1314 1.367 . S
C1315 C1323 1.433 . S
C1316 H1312 0.929 . S
C1316 C1318 1.378 . S
C1316 C1320 1.350 . S
C1317 C1320 1.463 . S
C1317 C1322 1.350 . S
C1317 N1325 1.427 . S
C1318 H1309 0.930 . S
C1318 C1316 1.378 . S
C1318 C1319 1.367 . S
C1319 C1318 1.367 . S
C1319 C1321 1.433 . S
C1320 C1316 1.350 . S
C1320 C1317 1.463 . S
C1320 N1324 1.427 . S
C1321 H1311 0.929 . S
C1321 C1319 1.433 . S
C1321 N1324 1.384 . S
C1322 H1313 0.929 . S
C1322 C1314 1.378 . S
C1322 C1317 1.350 . S
C1323 H1310 0.929 . S
C1323 C1315 1.433 . S
C1323 N1325 1.384 . S
N1324 C1320 1.427 . S
N1324 C1321 1.384 . S
N1325 C1317 1.427 . S
N1325 C1323 1.384 . S
H1326 C1332 0.930 . S
H1327 C1336 0.930 . S
H1328 C1341 0.929 . S
H1329 C1339 0.929 . S
H1330 C1334 0.929 . S
H1331 C1340 0.929 . S
C1332 H1326 0.930 . S
C1332 C1333 1.367 . S
C1332 C1340 1.378 . S
C1333 C1332 1.367 . S
C1333 C1341 1.433 . S
C1334 H1330 0.929 . S
C1334 C1336 1.378 . S
C1334 C1338 1.350 . S
C1335 C1338 1.463 . S
C1335 C1340 1.350 . S
C1335 N1343 1.427 . S
C1336 H1327 0.930 . S
C1336 C1334 1.378 . S
C1336 C1337 1.367 . S
C1337 C1336 1.367 . S
C1337 C1339 1.433 . S
C1338 C1334 1.350 . S
C1338 C1335 1.463 . S
C1338 N1342 1.427 . S
C1339 H1329 0.929 . S
C1339 C1337 1.433 . S
C1339 N1342 1.384 . S
C1340 H1331 0.929 . S
C1340 C1332 1.378 . S
C1340 C1335 1.350 . S
C1341 H1328 0.929 . S
C1341 C1333 1.433 . S
C1341 N1343 1.384 . S
N1342 C1338 1.427 . S
N1342 C1339 1.384 . S
N1343 C1335 1.427 . S
N1343 C1341 1.384 . S
H1344 C1350 0.930 . S
H1345 C1354 0.930 . S
H1346 C1359 0.929 . S
H1347 C1357 0.929 . S
H1348 C1352 0.929 . S
H1349 C1358 0.929 . S
C1350 H1344 0.930 . S
C1350 C1351 1.367 . S
C1350 C1358 1.378 . S
C1351 C1350 1.367 . S
C1351 C1359 1.433 . S
C1352 H1348 0.929 . S
C1352 C1354 1.378 . S
C1352 C1356 1.350 . S
C1353 C1356 1.463 . S
C1353 C1358 1.350 . S
C1353 N1361 1.427 . S
C1354 H1345 0.930 . S
C1354 C1352 1.378 . S
C1354 C1355 1.367 . S
C1355 C1354 1.367 . S
C1355 C1357 1.433 . S
C1356 C1352 1.350 . S
C1356 C1353 1.463 . S
C1356 N1360 1.427 . S
C1357 H1347 0.929 . S
C1357 C1355 1.433 . S
C1357 N1360 1.384 . S
C1358 H1349 0.929 . S
C1358 C1350 1.378 . S
C1358 C1353 1.350 . S
C1359 H1346 0.929 . S
C1359 C1351 1.433 . S
C1359 N1361 1.384 . S
N1360 C1356 1.427 . S
N1360 C1357 1.384 . S
N1361 C1353 1.427 . S
N1361 C1359 1.384 . S
H1362 C1368 0.930 . S
H1363 C1372 0.930 . S
H1364 C1377 0.929 . S
H1365 C1375 0.929 . S
H1366 C1370 0.929 . S
H1367 C1376 0.929 . S
C1368 H1362 0.930 . S
C1368 C1369 1.367 . S
C1368 C1376 1.378 . S
C1369 C1368 1.367 . S
C1369 C1377 1.433 . S
C1370 H1366 0.929 . S
C1370 C1372 1.378 1_545 S
C1370 C1374 1.350 . S
C1371 C1374 1.463 . S
C1371 C1376 1.350 . S
C1371 N1379 1.427 . S
C1372 H1363 0.930 . S
C1372 C1370 1.378 1_565 S
C1372 C1373 1.367 . S
C1373 C1372 1.367 . S
C1373 C1375 1.433 1_565 S
C1374 C1370 1.350 . S
C1374 C1371 1.463 . S
C1374 N1378 1.427 . S
C1375 H1365 0.929 . S
C1375 C1373 1.433 1_545 S
C1375 N1378 1.384 . S
C1376 H1367 0.929 . S
C1376 C1368 1.378 . S
C1376 C1371 1.350 . S
C1377 H1364 0.929 . S
C1377 C1369 1.433 . S
C1377 N1379 1.384 . S
N1378 C1374 1.427 . S
N1378 C1375 1.384 . S
N1379 C1371 1.427 . S
N1379 C1377 1.384 . S
H1380 C1386 0.930 . S
H1381 C1390 0.930 . S
H1382 C1395 0.929 . S
H1383 C1393 0.929 . S
H1384 C1388 0.929 . S
H1385 C1394 0.929 . S
C1386 H1380 0.930 . S
C1386 C1387 1.367 . S
C1386 C1394 1.378 . S
C1387 C1386 1.367 . S
C1387 C1395 1.433 . S
C1388 H1384 0.929 . S
C1388 C1390 1.378 . S
C1388 C1392 1.350 . S
C1389 C1392 1.463 . S
C1389 C1394 1.350 . S
C1389 N1397 1.427 . S
C1390 H1381 0.930 . S
C1390 C1388 1.378 . S
C1390 C1391 1.367 . S
C1391 C1390 1.367 . S
C1391 C1393 1.433 . S
C1392 C1388 1.350 . S
C1392 C1389 1.463 . S
C1392 N1396 1.427 . S
C1393 H1383 0.929 . S
C1393 C1391 1.433 . S
C1393 N1396 1.384 . S
C1394 H1385 0.929 . S
C1394 C1386 1.378 . S
C1394 C1389 1.350 . S
C1395 H1382 0.929 . S
C1395 C1387 1.433 . S
C1395 N1397 1.384 . S
N1396 C1392 1.427 . S
N1396 C1393 1.384 . S
N1397 C1389 1.427 . S
N1397 C1395 1.384 . S
H1398 C1404 0.930 . S
H1399 C1408 0.930 . S
H1400 C1413 0.929 . S
H1401 C1411 0.929 . S
H1402 C1406 0.929 . S
H1403 C1412 0.929 . S
C1404 H1398 0.930 . S
C1404 C1405 1.367 . S
C1404 C1412 1.378 . S
C1405 C1404 1.367 . S
C1405 C1413 1.433 . S
C1406 H1402 0.929 . S
C1406 C1408 1.378 . S
C1406 C1410 1.350 . S
C1407 C1410 1.463 . S
C1407 C1412 1.350 . S
C1407 N1415 1.427 . S
C1408 H1399 0.930 . S
C1408 C1406 1.378 . S
C1408 C1409 1.367 . S
C1409 C1408 1.367 . S
C1409 C1411 1.433 . S
C1410 C1406 1.350 . S
C1410 C1407 1.463 . S
C1410 N1414 1.427 . S
C1411 H1401 0.929 . S
C1411 C1409 1.433 . S
C1411 N1414 1.384 . S
C1412 H1403 0.929 . S
C1412 C1404 1.378 . S
C1412 C1407 1.350 . S
C1413 H1400 0.929 . S
C1413 C1405 1.433 . S
C1413 N1415 1.384 . S
N1414 C1410 1.427 . S
N1414 C1411 1.384 . S
N1415 C1407 1.427 . S
N1415 C1413 1.384 . S
H1416 C1422 0.930 . S
H1417 C1426 0.930 . S
H1418 C1431 0.929 . S
H1419 C1429 0.929 . S
H1420 C1424 0.929 . S
H1421 C1430 0.929 . S
C1422 H1416 0.930 . S
C1422 C1423 1.367 . S
C1422 C1430 1.378 . S
C1423 C1422 1.367 . S
C1423 C1431 1.433 . S
C1424 H1420 0.929 . S
C1424 C1426 1.378 . S
C1424 C1428 1.350 . S
C1425 C1428 1.463 . S
C1425 C1430 1.350 . S
C1425 N1433 1.427 . S
C1426 H1417 0.930 . S
C1426 C1424 1.378 . S
C1426 C1427 1.367 . S
C1427 C1426 1.367 . S
C1427 C1429 1.433 . S
C1428 C1424 1.350 . S
C1428 C1425 1.463 . S
C1428 N1432 1.427 . S
C1429 H1419 0.929 . S
C1429 C1427 1.433 . S
C1429 N1432 1.384 . S
C1430 H1421 0.929 . S
C1430 C1422 1.378 . S
C1430 C1425 1.350 . S
C1431 H1418 0.929 . S
C1431 C1423 1.433 . S
C1431 N1433 1.384 . S
N1432 C1428 1.427 . S
N1432 C1429 1.384 . S
N1433 C1425 1.427 . S
N1433 C1431 1.384 . S
H1434 C1440 0.930 . S
H1435 C1444 0.930 . S
H1436 C1449 0.929 . S
H1437 C1447 0.929 . S
H1438 C1442 0.929 . S
H1439 C1448 0.929 . S
C1440 H1434 0.930 . S
C1440 C1441 1.367 . S
C1440 C1448 1.378 . S
C1441 C1440 1.367 . S
C1441 C1449 1.433 . S
C1442 H1438 0.929 . S
C1442 C1444 1.378 . S
C1442 C1446 1.350 . S
C1443 C1446 1.463 . S
C1443 C1448 1.350 . S
C1443 N1451 1.427 . S
C1444 H1435 0.930 . S
C1444 C1442 1.378 . S
C1444 C1445 1.367 . S
C1445 C1444 1.367 . S
C1445 C1447 1.433 . S
C1446 C1442 1.350 . S
C1446 C1443 1.463 . S
C1446 N1450 1.427 . S
C1447 H1437 0.929 . S
C1447 C1445 1.433 . S
C1447 N1450 1.384 . S
C1448 H1439 0.929 . S
C1448 C1440 1.378 . S
C1448 C1443 1.350 . S
C1449 H1436 0.929 . S
C1449 C1441 1.433 . S
C1449 N1451 1.384 . S
N1450 C1446 1.427 . S
N1450 C1447 1.384 . S
N1451 C1443 1.427 . S
N1451 C1449 1.384 . S
H1452 C1458 0.930 1_545 S
H1453 C1462 0.930 . S
H1454 C1467 0.929 . S
H1455 C1465 0.929 . S
H1456 C1460 0.929 . S
H1457 C1466 0.929 . S
C1458 H1452 0.930 1_565 S
C1458 C1459 1.367 . S
C1458 C1466 1.378 . S
C1459 C1458 1.367 . S
C1459 C1467 1.433 . S
C1460 H1456 0.929 . S
C1460 C1462 1.378 . S
C1460 C1464 1.350 . S
C1461 C1464 1.463 . S
C1461 C1466 1.350 . S
C1461 N1469 1.427 . S
C1462 H1453 0.930 . S
C1462 C1460 1.378 . S
C1462 C1463 1.367 . S
C1463 C1462 1.367 . S
C1463 C1465 1.433 . S
C1464 C1460 1.350 . S
C1464 C1461 1.463 . S
C1464 N1468 1.427 . S
C1465 H1455 0.929 . S
C1465 C1463 1.433 . S
C1465 N1468 1.384 . S
C1466 H1457 0.929 . S
C1466 C1458 1.378 . S
C1466 C1461 1.350 . S
C1467 H1454 0.929 . S
C1467 C1459 1.433 . S
C1467 N1469 1.384 . S
N1468 C1464 1.427 . S
N1468 C1465 1.384 . S
N1469 C1461 1.427 . S
N1469 C1467 1.384 . S
H1470 C1476 0.930 . S
H1471 C1480 0.930 . S
H1472 C1485 0.929 . S
H1473 C1483 0.929 . S
H1474 C1478 0.929 . S
H1475 C1484 0.929 . S
C1476 H1470 0.930 . S
C1476 C1477 1.367 . S
C1476 C1484 1.378 . S
C1477 C1476 1.367 . S
C1477 C1485 1.433 . S
C1478 H1474 0.929 . S
C1478 C1480 1.378 . S
C1478 C1482 1.350 . S
C1479 C1482 1.463 . S
C1479 C1484 1.350 . S
C1479 N1487 1.427 . S
C1480 H1471 0.930 . S
C1480 C1478 1.378 . S
C1480 C1481 1.367 . S
C1481 C1480 1.367 . S
C1481 C1483 1.433 . S
C1482 C1478 1.350 . S
C1482 C1479 1.463 . S
C1482 N1486 1.427 . S
C1483 H1473 0.929 . S
C1483 C1481 1.433 . S
C1483 N1486 1.384 . S
C1484 H1475 0.929 . S
C1484 C1476 1.378 . S
C1484 C1479 1.350 . S
C1485 H1472 0.929 . S
C1485 C1477 1.433 . S
C1485 N1487 1.384 . S
N1486 C1482 1.427 . S
N1486 C1483 1.384 . S
N1487 C1479 1.427 . S
N1487 C1485 1.384 . S
H1488 C1494 0.930 . S
H1489 C1498 0.930 . S
H1490 C1503 0.929 . S
H1491 C1501 0.930 . S
H1492 C1496 0.929 . S
H1493 C1502 0.929 . S
C1494 H1488 0.930 . S
C1494 C1495 1.367 . S
C1494 C1502 1.378 . S
C1495 C1494 1.367 . S
C1495 C1503 1.433 . S
C1496 H1492 0.929 . S
C1496 C1498 1.378 1_655 S
C1496 C1500 1.350 . S
C1497 C1500 1.463 . S
C1497 C1502 1.350 . S
C1497 N1505 1.427 . S
C1498 H1489 0.930 . S
C1498 C1496 1.378 1_455 S
C1498 C1499 1.367 . S
C1499 C1498 1.367 . S
C1499 C1501 1.435 . S
C1500 C1496 1.350 . S
C1500 C1497 1.463 . S
C1500 N1504 1.427 . S
C1501 H1491 0.930 . S
C1501 C1499 1.435 . S
C1501 N1504 1.381 1_455 S
C1502 H1493 0.929 . S
C1502 C1494 1.378 . S
C1502 C1497 1.350 . S
C1503 H1490 0.929 . S
C1503 C1495 1.433 . S
C1503 N1505 1.384 . S
N1504 C1500 1.427 . S
N1504 C1501 1.381 1_655 S
N1505 C1497 1.427 . S
N1505 C1503 1.384 . S
H1506 C1512 0.930 . S
H1507 C1516 0.930 . S
H1508 C1521 0.929 . S
H1509 C1519 0.929 . S
H1510 C1514 0.929 . S
H1511 C1520 0.929 . S
C1512 H1506 0.930 . S
C1512 C1513 1.367 . S
C1512 C1520 1.378 . S
C1513 C1512 1.367 . S
C1513 C1521 1.433 . S
C1514 H1510 0.929 . S
C1514 C1516 1.378 . S
C1514 C1518 1.350 . S
C1515 C1518 1.463 . S
C1515 C1520 1.350 . S
C1515 N1523 1.427 . S
C1516 H1507 0.930 . S
C1516 C1514 1.378 . S
C1516 C1517 1.367 . S
C1517 C1516 1.367 . S
C1517 C1519 1.433 . S
C1518 C1514 1.350 . S
C1518 C1515 1.463 . S
C1518 N1522 1.427 . S
C1519 H1509 0.929 . S
C1519 C1517 1.433 . S
C1519 N1522 1.384 . S
C1520 H1511 0.929 . S
C1520 C1512 1.378 . S
C1520 C1515 1.350 . S
C1521 H1508 0.929 . S
C1521 C1513 1.433 . S
C1521 N1523 1.384 . S
N1522 C1518 1.427 . S
N1522 C1519 1.384 . S
N1523 C1515 1.427 . S
N1523 C1521 1.384 . S
H1524 C1530 0.930 . S
H1525 C1534 0.930 . S
H1526 C1539 0.929 . S
H1527 C1537 0.929 1_565 S
H1528 C1532 0.929 . S
H1529 C1538 0.929 . S
C1530 H1524 0.930 . S
C1530 C1531 1.367 . S
C1530 C1538 1.378 . S
C1531 C1530 1.367 . S
C1531 C1539 1.433 . S
C1532 H1528 0.929 . S
C1532 C1534 1.378 . S
C1532 C1536 1.350 . S
C1533 C1536 1.463 . S
C1533 C1538 1.350 . S
C1533 N1541 1.427 . S
C1534 H1525 0.930 . S
C1534 C1532 1.378 . S
C1534 C1535 1.367 . S
C1535 C1534 1.367 . S
C1535 C1537 1.433 . S
C1536 C1532 1.350 . S
C1536 C1533 1.463 . S
C1536 N1540 1.427 . S
C1537 H1527 0.929 1_545 S
C1537 C1535 1.433 . S
C1537 N1540 1.384 . S
C1538 H1529 0.929 . S
C1538 C1530 1.378 . S
C1538 C1533 1.350 . S
C1539 H1526 0.929 . S
C1539 C1531 1.433 . S
C1539 N1541 1.384 . S
N1540 C1536 1.427 . S
N1540 C1537 1.384 . S
N1541 C1533 1.427 . S
N1541 C1539 1.384 . S
H1542 C1548 0.930 . S
H1543 C1552 0.930 . S
H1544 C1557 0.929 . S
H1545 C1555 0.929 . S
H1546 C1550 0.929 . S
H1547 C1556 0.929 . S
C1548 H1542 0.930 . S
C1548 C1549 1.367 . S
C1548 C1556 1.378 . S
C1549 C1548 1.367 . S
C1549 C1557 1.433 . S
C1550 H1546 0.929 . S
C1550 C1552 1.378 . S
C1550 C1554 1.350 . S
C1551 C1554 1.463 . S
C1551 C1556 1.350 . S
C1551 N1559 1.427 . S
C1552 H1543 0.930 . S
C1552 C1550 1.378 . S
C1552 C1553 1.367 . S
C1553 C1552 1.367 . S
C1553 C1555 1.433 . S
C1554 C1550 1.350 . S
C1554 C1551 1.463 . S
C1554 N1558 1.427 . S
C1555 H1545 0.929 . S
C1555 C1553 1.433 . S
C1555 N1558 1.384 . S
C1556 H1547 0.929 . S
C1556 C1548 1.378 . S
C1556 C1551 1.350 . S
C1557 H1544 0.929 . S
C1557 C1549 1.433 . S
C1557 N1559 1.384 . S
N1558 C1554 1.427 . S
N1558 C1555 1.384 . S
N1559 C1551 1.427 . S
N1559 C1557 1.384 . S
H1560 C1566 0.930 . S
H1561 C1570 0.930 1_455 S
H1562 C1575 0.929 1_455 S
H1563 C1573 0.929 . S
H1564 C1568 0.929 1_455 S
H1565 C1574 0.929 . S
C1566 H1560 0.930 . S
C1566 C1567 1.367 . S
C1566 C1574 1.378 . S
C1567 C1566 1.367 . S
C1567 C1575 1.433 . S
C1568 H1564 0.929 1_655 S
C1568 C1570 1.378 . S
C1568 C1572 1.350 . S
C1569 C1572 1.463 . S
C1569 C1574 1.350 . S
C1569 N1577 1.427 . S
C1570 H1561 0.930 1_655 S
C1570 C1568 1.378 . S
C1570 C1571 1.367 . S
C1571 C1570 1.367 . S
C1571 C1573 1.433 . S
C1572 C1568 1.350 . S
C1572 C1569 1.463 . S
C1572 N1576 1.427 . S
C1573 H1563 0.929 . S
C1573 C1571 1.433 . S
C1573 N1576 1.384 . S
C1574 H1565 0.929 . S
C1574 C1566 1.378 . S
C1574 C1569 1.350 . S
C1575 H1562 0.929 1_655 S
C1575 C1567 1.433 . S
C1575 N1577 1.384 . S
N1576 C1572 1.427 . S
N1576 C1573 1.384 . S
N1577 C1569 1.427 . S
N1577 C1575 1.384 . S
H1578 C1584 0.930 . S
H1579 C1588 0.930 . S
H1580 C1593 0.929 . S
H1581 C1591 0.929 . S
H1582 C1586 0.929 . S
H1583 C1592 0.929 . S
C1584 H1578 0.930 . S
C1584 C1585 1.367 1_554 S
C1584 C1592 1.378 . S
C1585 C1584 1.367 1_556 S
C1585 C1593 1.433 . S
C1586 H1582 0.929 . S
C1586 C1588 1.378 . S
C1586 C1590 1.350 1_556 S
C1587 C1590 1.463 1_556 S
C1587 C1592 1.350 1_556 S
C1587 N1595 1.427 . S
C1588 H1579 0.930 . S
C1588 C1586 1.378 . S
C1588 C1589 1.367 1_556 S
C1589 C1588 1.367 1_554 S
C1589 C1591 1.433 . S
C1590 C1586 1.350 1_554 S
C1590 C1587 1.463 1_554 S
C1590 N1594 1.427 . S
C1591 H1581 0.929 . S
C1591 C1589 1.433 . S
C1591 N1594 1.384 . S
C1592 H1583 0.929 . S
C1592 C1584 1.378 . S
C1592 C1587 1.350 1_554 S
C1593 H1580 0.929 . S
C1593 C1585 1.433 . S
C1593 N1595 1.384 . S
N1594 C1590 1.427 . S
N1594 C1591 1.384 . S
N1595 C1587 1.427 . S
N1595 C1593 1.384 . S
H1596 C1602 0.930 . S
H1597 C1606 0.930 . S
H1598 C1611 0.929 . S
H1599 C1609 0.929 . S
H1600 C1604 0.929 . S
H1601 C1610 0.929 . S
C1602 H1596 0.930 . S
C1602 C1603 1.367 . S
C1602 C1610 1.378 . S
C1603 C1602 1.367 . S
C1603 C1611 1.433 . S
C1604 H1600 0.929 . S
C1604 C1606 1.378 . S
C1604 C1608 1.350 . S
C1605 C1608 1.463 1_545 S
C1605 C1610 1.350 . S
C1605 N1613 1.427 . S
C1606 H1597 0.930 . S
C1606 C1604 1.378 . S
C1606 C1607 1.367 . S
C1607 C1606 1.367 . S
C1607 C1609 1.433 . S
C1608 C1604 1.350 . S
C1608 C1605 1.463 1_565 S
C1608 N1612 1.427 . S
C1609 H1599 0.929 . S
C1609 C1607 1.433 . S
C1609 N1612 1.384 . S
C1610 H1601 0.929 . S
C1610 C1602 1.378 . S
C1610 C1605 1.350 . S
C1611 H1598 0.929 . S
C1611 C1603 1.433 . S
C1611 N1613 1.384 . S
N1612 C1608 1.427 . S
N1612 C1609 1.384 . S
N1613 C1605 1.427 . S
N1613 C1611 1.384 . S
H1614 C1620 0.930 . S
H1615 C1624 0.930 . S
H1616 C1629 0.929 . S
H1617 C1627 0.929 . S
H1618 C1622 0.929 . S
H1619 C1628 0.929 . S
C1620 H1614 0.930 . S
C1620 C1621 1.367 1_554 S
C1620 C1628 1.378 . S
C1621 C1620 1.367 1_556 S
C1621 C1629 1.433 . S
C1622 H1618 0.929 . S
C1622 C1624 1.378 . S
C1622 C1626 1.350 1_556 S
C1623 C1626 1.463 1_556 S
C1623 C1628 1.350 1_556 S
C1623 N1631 1.427 . S
C1624 H1615 0.930 . S
C1624 C1622 1.378 . S
C1624 C1625 1.367 1_556 S
C1625 C1624 1.367 1_554 S
C1625 C1627 1.433 . S
C1626 C1622 1.350 1_554 S
C1626 C1623 1.463 1_554 S
C1626 N1630 1.427 . S
C1627 H1617 0.929 . S
C1627 C1625 1.433 . S
C1627 N1630 1.384 . S
C1628 H1619 0.929 . S
C1628 C1620 1.378 . S
C1628 C1623 1.350 1_554 S
C1629 H1616 0.929 . S
C1629 C1621 1.433 . S
C1629 N1631 1.384 . S
N1630 C1626 1.427 . S
N1630 C1627 1.384 . S
N1631 C1623 1.427 . S
N1631 C1629 1.384 . S
H1632 C1638 0.930 . S
H1633 C1642 0.922 1_545 S
H1634 C1647 0.927 1_545 S
H1635 C1645 0.929 . S
H1636 C1640 0.920 1_545 S
H1637 C1646 0.929 . S
C1638 H1632 0.930 . S
C1638 C1639 1.367 . S
C1638 C1646 1.378 . S
C1639 C1638 1.367 . S
C1639 C1647 1.435 . S
C1640 H1636 0.920 1_565 S
C1640 C1642 1.378 . S
C1640 C1644 1.359 . S
C1641 C1644 1.463 . S
C1641 C1646 1.350 . S
C1641 N1649 1.435 . S
C1642 H1633 0.922 1_565 S
C1642 C1640 1.378 . S
C1642 C1643 1.376 . S
C1643 C1642 1.376 . S
C1643 C1645 1.433 . S
C1644 C1640 1.359 . S
C1644 C1641 1.463 . S
C1644 N1648 1.427 . S
C1645 H1635 0.929 . S
C1645 C1643 1.433 . S
C1645 N1648 1.384 . S
C1646 H1637 0.929 . S
C1646 C1638 1.378 . S
C1646 C1641 1.350 . S
C1647 H1634 0.927 1_565 S
C1647 C1639 1.435 . S
C1647 N1649 1.384 . S
N1648 C1644 1.427 . S
N1648 C1645 1.384 . S
N1649 C1641 1.435 . S
N1649 C1647 1.384 . S
H1650 C1656 0.930 . S
H1651 C1660 0.930 . S
H1652 C1665 0.929 . S
H1653 C1663 0.929 . S
H1654 C1658 0.929 . S
H1655 C1664 0.929 . S
C1656 H1650 0.930 . S
C1656 C1657 1.367 . S
C1656 C1664 1.378 . S
C1657 C1656 1.367 . S
C1657 C1665 1.433 . S
C1658 H1654 0.929 . S
C1658 C1660 1.378 . S
C1658 C1662 1.350 . S
C1659 C1662 1.463 . S
C1659 C1664 1.350 . S
C1659 N1667 1.427 . S
C1660 H1651 0.930 . S
C1660 C1658 1.378 . S
C1660 C1661 1.367 . S
C1661 C1660 1.367 . S
C1661 C1663 1.433 . S
C1662 C1658 1.350 . S
C1662 C1659 1.463 . S
C1662 N1666 1.427 . S
C1663 H1653 0.929 . S
C1663 C1661 1.433 . S
C1663 N1666 1.384 . S
C1664 H1655 0.929 . S
C1664 C1656 1.378 . S
C1664 C1659 1.350 . S
C1665 H1652 0.929 . S
C1665 C1657 1.433 . S
C1665 N1667 1.384 . S
N1666 C1662 1.427 . S
N1666 C1663 1.384 . S
N1667 C1659 1.427 . S
N1667 C1665 1.384 . S
H1668 C1674 0.930 . S
H1669 C1678 0.930 . S
H1670 C1683 0.929 . S
H1671 C1681 0.929 . S
H1672 C1676 0.929 . S
H1673 C1682 0.929 . S
C1674 H1668 0.930 . S
C1674 C1675 1.367 . S
C1674 C1682 1.378 . S
C1675 C1674 1.367 . S
C1675 C1683 1.433 . S
C1676 H1672 0.929 . S
C1676 C1678 1.378 . S
C1676 C1680 1.350 . S
C1677 C1680 1.463 . S
C1677 C1682 1.350 . S
C1677 N1685 1.427 . S
C1678 H1669 0.930 . S
C1678 C1676 1.378 . S
C1678 C1679 1.367 . S
C1679 C1678 1.367 . S
C1679 C1681 1.433 . S
C1680 C1676 1.350 . S
C1680 C1677 1.463 . S
C1680 N1684 1.427 . S
C1681 H1671 0.929 . S
C1681 C1679 1.433 . S
C1681 N1684 1.384 . S
C1682 H1673 0.929 . S
C1682 C1674 1.378 . S
C1682 C1677 1.350 . S
C1683 H1670 0.929 . S
C1683 C1675 1.433 . S
C1683 N1685 1.384 . S
N1684 C1680 1.427 . S
N1684 C1681 1.384 . S
N1685 C1677 1.427 . S
N1685 C1683 1.384 . S
H1686 C1692 0.930 . S
H1687 C1696 0.930 . S
H1688 C1701 0.929 . S
H1689 C1699 0.929 . S
H1690 C1694 0.929 . S
H1691 C1700 0.929 . S
C1692 H1686 0.930 . S
C1692 C1693 1.367 . S
C1692 C1700 1.378 . S
C1693 C1692 1.367 . S
C1693 C1701 1.433 1_545 S
C1694 H1690 0.929 . S
C1694 C1696 1.378 . S
C1694 C1698 1.350 . S
C1695 C1698 1.463 1_545 S
C1695 C1700 1.350 . S
C1695 N1703 1.427 1_545 S
C1696 H1687 0.930 . S
C1696 C1694 1.378 . S
C1696 C1697 1.367 . S
C1697 C1696 1.367 . S
C1697 C1699 1.433 1_565 S
C1698 C1694 1.350 . S
C1698 C1695 1.463 1_565 S
C1698 N1702 1.427 1_565 S
C1699 H1689 0.929 . S
C1699 C1697 1.433 1_545 S
C1699 N1702 1.384 . S
C1700 H1691 0.929 . S
C1700 C1692 1.378 . S
C1700 C1695 1.350 . S
C1701 H1688 0.929 . S
C1701 C1693 1.433 1_565 S
C1701 N1703 1.384 . S
N1702 C1698 1.427 1_545 S
N1702 C1699 1.384 . S
N1703 C1695 1.427 1_565 S
N1703 C1701 1.384 . S
H1704 C1710 0.930 . S
H1705 C1714 0.930 . S
H1706 C1719 0.929 . S
H1707 C1717 0.929 . S
H1708 C1712 0.929 . S
H1709 C1718 0.929 . S
C1710 H1704 0.930 . S
C1710 C1711 1.367 . S
C1710 C1718 1.378 . S
C1711 C1710 1.367 . S
C1711 C1719 1.433 1_545 S
C1712 H1708 0.929 . S
C1712 C1714 1.378 . S
C1712 C1716 1.350 1_565 S
C1713 C1716 1.463 1_554 S
C1713 C1718 1.350 . S
C1713 N1721 1.427 1_545 S
C1714 H1705 0.930 . S
C1714 C1712 1.378 . S
C1714 C1715 1.367 1_565 S
C1715 C1714 1.367 1_545 S
C1715 C1717 1.433 . S
C1716 C1712 1.350 1_545 S
C1716 C1713 1.463 1_556 S
C1716 N1720 1.427 . S
C1717 H1707 0.929 . S
C1717 C1715 1.433 . S
C1717 N1720 1.384 . S
C1718 H1709 0.929 . S
C1718 C1710 1.378 . S
C1718 C1713 1.350 . S
C1719 H1706 0.929 . S
C1719 C1711 1.433 1_565 S
C1719 N1721 1.384 . S
N1720 C1716 1.427 . S
N1720 C1717 1.384 . S
N1721 C1713 1.427 1_565 S
N1721 C1719 1.384 . S
H1722 C1728 0.930 . S
H1723 C1732 0.930 . S
H1724 C1737 0.929 . S
H1725 C1735 0.929 . S
H1726 C1730 0.929 . S
H1727 C1736 0.929 . S
C1728 H1722 0.930 . S
C1728 C1729 1.367 . S
C1728 C1736 1.378 . S
C1729 C1728 1.367 . S
C1729 C1737 1.433 . S
C1730 H1726 0.929 . S
C1730 C1732 1.378 . S
C1730 C1734 1.350 . S
C1731 C1734 1.463 . S
C1731 C1736 1.350 . S
C1731 N1739 1.427 . S
C1732 H1723 0.930 . S
C1732 C1730 1.378 . S
C1732 C1733 1.367 . S
C1733 C1732 1.367 . S
C1733 C1735 1.433 . S
C1734 C1730 1.350 . S
C1734 C1731 1.463 . S
C1734 N1738 1.427 . S
C1735 H1725 0.929 . S
C1735 C1733 1.433 . S
C1735 N1738 1.384 . S
C1736 H1727 0.929 . S
C1736 C1728 1.378 . S
C1736 C1731 1.350 . S
C1737 H1724 0.929 . S
C1737 C1729 1.433 . S
C1737 N1739 1.384 . S
N1738 C1734 1.427 . S
N1738 C1735 1.384 . S
N1739 C1731 1.427 . S
N1739 C1737 1.384 . S
H1740 C1746 0.930 . S
H1741 C1750 0.930 . S
H1742 C1755 0.929 . S
H1743 C1753 0.929 . S
H1744 C1748 0.929 . S
H1745 C1754 0.929 . S
C1746 H1740 0.930 . S
C1746 C1747 1.367 . S
C1746 C1754 1.378 . S
C1747 C1746 1.367 . S
C1747 C1755 1.433 . S
C1748 H1744 0.929 . S
C1748 C1750 1.378 . S
C1748 C1752 1.350 . S
C1749 C1752 1.463 1_554 S
C1749 C1754 1.350 . S
C1749 N1757 1.427 . S
C1750 H1741 0.930 . S
C1750 C1748 1.378 . S
C1750 C1751 1.367 . S
C1751 C1750 1.367 . S
C1751 C1753 1.433 . S
C1752 C1748 1.350 . S
C1752 C1749 1.463 1_556 S
C1752 N1756 1.427 . S
C1753 H1743 0.929 . S
C1753 C1751 1.433 . S
C1753 N1756 1.384 . S
C1754 H1745 0.929 . S
C1754 C1746 1.378 . S
C1754 C1749 1.350 . S
C1755 H1742 0.929 . S
C1755 C1747 1.433 . S
C1755 N1757 1.384 . S
N1756 C1752 1.427 . S
N1756 C1753 1.384 . S
N1757 C1749 1.427 . S
N1757 C1755 1.384 . S
H1758 C1764 0.930 . S
H1759 C1768 0.930 . S
H1760 C1773 0.929 . S
H1761 C1771 0.929 . S
H1762 C1766 0.929 . S
H1763 C1772 0.929 . S
C1764 H1758 0.930 . S
C1764 C1765 1.367 1_565 S
C1764 C1772 1.378 . S
C1765 C1764 1.367 1_545 S
C1765 C1773 1.433 . S
C1766 H1762 0.929 . S
C1766 C1768 1.378 . S
C1766 C1770 1.350 1_545 S
C1767 C1770 1.463 1_545 S
C1767 C1772 1.350 1_545 S
C1767 N1775 1.427 . S
C1768 H1759 0.930 . S
C1768 C1766 1.378 . S
C1768 C1769 1.367 1_545 S
C1769 C1768 1.367 1_565 S
C1769 C1771 1.433 . S
C1770 C1766 1.350 1_565 S
C1770 C1767 1.463 1_565 S
C1770 N1774 1.427 . S
C1771 H1761 0.929 . S
C1771 C1769 1.433 . S
C1771 N1774 1.384 . S
C1772 H1763 0.929 . S
C1772 C1764 1.378 . S
C1772 C1767 1.350 1_565 S
C1773 H1760 0.929 . S
C1773 C1765 1.433 . S
C1773 N1775 1.384 . S
N1774 C1770 1.427 . S
N1774 C1771 1.384 . S
N1775 C1767 1.427 . S
N1775 C1773 1.384 . S
H1776 C1782 0.930 . S
H1777 C1786 0.930 . S
H1778 C1791 0.929 . S
H1779 C1789 0.929 . S
H1780 C1784 0.929 . S
H1781 C1790 0.929 . S
C1782 H1776 0.930 . S
C1782 C1783 1.367 . S
C1782 C1790 1.378 . S
C1783 C1782 1.367 . S
C1783 C1791 1.433 . S
C1784 H1780 0.929 . S
C1784 C1786 1.378 . S
C1784 C1788 1.350 . S
C1785 C1788 1.463 . S
C1785 C1790 1.350 . S
C1785 N1793 1.427 . S
C1786 H1777 0.930 . S
C1786 C1784 1.378 . S
C1786 C1787 1.367 . S
C1787 C1786 1.367 . S
C1787 C1789 1.433 . S
C1788 C1784 1.350 . S
C1788 C1785 1.463 . S
C1788 N1792 1.427 . S
C1789 H1779 0.929 . S
C1789 C1787 1.433 . S
C1789 N1792 1.384 . S
C1790 H1781 0.929 . S
C1790 C1782 1.378 . S
C1790 C1785 1.350 . S
C1791 H1778 0.929 . S
C1791 C1783 1.433 . S
C1791 N1793 1.384 . S
N1792 C1788 1.427 . S
N1792 C1789 1.384 . S
N1793 C1785 1.427 . S
N1793 C1791 1.384 . S
H1794 C1800 0.930 . S
H1795 C1804 0.930 . S
H1796 C1809 0.929 . S
H1797 C1807 0.929 . S
H1798 C1802 0.929 . S
H1799 C1808 0.929 . S
C1800 H1794 0.930 . S
C1800 C1801 1.367 . S
C1800 C1808 1.378 . S
C1801 C1800 1.367 . S
C1801 C1809 1.433 . S
C1802 H1798 0.929 . S
C1802 C1804 1.378 . S
C1802 C1806 1.350 . S
C1803 C1806 1.463 . S
C1803 C1808 1.350 . S
C1803 N1811 1.427 . S
C1804 H1795 0.930 . S
C1804 C1802 1.378 . S
C1804 C1805 1.367 . S
C1805 C1804 1.367 . S
C1805 C1807 1.433 . S
C1806 C1802 1.350 . S
C1806 C1803 1.463 . S
C1806 N1810 1.427 . S
C1807 H1797 0.929 . S
C1807 C1805 1.433 . S
C1807 N1810 1.384 . S
C1808 H1799 0.929 . S
C1808 C1800 1.378 . S
C1808 C1803 1.350 . S
C1809 H1796 0.929 . S
C1809 C1801 1.433 . S
C1809 N1811 1.384 . S
N1810 C1806 1.427 . S
N1810 C1807 1.384 . S
N1811 C1803 1.427 . S
N1811 C1809 1.384 . S
H1812 C1818 0.930 . S
H1813 C1822 0.930 . S
H1814 C1827 0.929 . S
H1815 C1825 0.929 . S
H1816 C1820 0.929 . S
H1817 C1826 0.929 . S
C1818 H1812 0.930 . S
C1818 C1819 1.367 . S
C1818 C1826 1.378 . S
C1819 C1818 1.367 . S
C1819 C1827 1.433 1_655 S
C1820 H1816 0.929 . S
C1820 C1822 1.378 . S
C1820 C1824 1.350 . S
C1821 C1824 1.463 1_655 S
C1821 C1826 1.350 . S
C1821 N1829 1.427 1_655 S
C1822 H1813 0.930 . S
C1822 C1820 1.378 . S
C1822 C1823 1.367 . S
C1823 C1822 1.367 . S
C1823 C1825 1.433 1_455 S
C1824 C1820 1.350 . S
C1824 C1821 1.463 1_455 S
C1824 N1828 1.427 1_455 S
C1825 H1815 0.929 . S
C1825 C1823 1.433 1_655 S
C1825 N1828 1.384 . S
C1826 H1817 0.929 . S
C1826 C1818 1.378 . S
C1826 C1821 1.350 . S
C1827 H1814 0.929 . S
C1827 C1819 1.433 1_455 S
C1827 N1829 1.384 . S
N1828 C1824 1.427 1_655 S
N1828 C1825 1.384 . S
N1829 C1821 1.427 1_455 S
N1829 C1827 1.384 . S
H1830 C1836 0.930 . S
H1831 C1840 0.930 . S
H1832 C1845 0.929 . S
H1833 C1843 0.929 . S
H1834 C1838 0.929 . S
H1835 C1844 0.929 . S
C1836 H1830 0.930 . S
C1836 C1837 1.367 . S
C1836 C1844 1.378 . S
C1837 C1836 1.367 . S
C1837 C1845 1.433 . S
C1838 H1834 0.929 . S
C1838 C1840 1.378 . S
C1838 C1842 1.350 . S
C1839 C1842 1.463 . S
C1839 C1844 1.350 . S
C1839 N1847 1.427 . S
C1840 H1831 0.930 . S
C1840 C1838 1.378 . S
C1840 C1841 1.367 . S
C1841 C1840 1.367 . S
C1841 C1843 1.433 . S
C1842 C1838 1.350 . S
C1842 C1839 1.463 . S
C1842 N1846 1.427 . S
C1843 H1833 0.929 . S
C1843 C1841 1.433 . S
C1843 N1846 1.384 . S
C1844 H1835 0.929 . S
C1844 C1836 1.378 . S
C1844 C1839 1.350 . S
C1845 H1832 0.929 . S
C1845 C1837 1.433 . S
C1845 N1847 1.384 . S
N1846 C1842 1.427 . S
N1846 C1843 1.384 . S
N1847 C1839 1.427 . S
N1847 C1845 1.384 . S
H1848 C1854 0.930 . S
H1849 C1858 0.930 . S
H1850 C1863 0.929 . S
H1851 C1861 0.929 . S
H1852 C1856 0.929 . S
H1853 C1862 0.929 . S
C1854 H1848 0.930 . S
C1854 C1855 1.367 . S
C1854 C1862 1.378 . S
C1855 C1854 1.367 . S
C1855 C1863 1.433 . S
C1856 H1852 0.929 . S
C1856 C1858 1.378 . S
C1856 C1860 1.350 . S
C1857 C1860 1.463 1_655 S
C1857 C1862 1.350 . S
C1857 N1865 1.427 . S
C1858 H1849 0.930 . S
C1858 C1856 1.378 . S
C1858 C1859 1.367 . S
C1859 C1858 1.367 . S
C1859 C1861 1.433 . S
C1860 C1856 1.350 . S
C1860 C1857 1.463 1_455 S
C1860 N1864 1.427 . S
C1861 H1851 0.929 . S
C1861 C1859 1.433 . S
C1861 N1864 1.384 . S
C1862 H1853 0.929 . S
C1862 C1854 1.378 . S
C1862 C1857 1.350 . S
C1863 H1850 0.929 . S
C1863 C1855 1.433 . S
C1863 N1865 1.384 . S
N1864 C1860 1.427 . S
N1864 C1861 1.384 . S
N1865 C1857 1.427 . S
N1865 C1863 1.384 . S
H1866 C1872 0.930 . S
H1867 C1876 0.930 . S
H1868 C1881 0.929 1_655 S
H1869 C1879 0.929 1_455 S
H1870 C1874 0.929 . S
H1871 C1880 0.929 . S
C1872 H1866 0.930 . S
C1872 C1873 1.367 . S
C1872 C1880 1.378 . S
C1873 C1872 1.367 . S
C1873 C1881 1.433 . S
C1874 H1870 0.929 . S
C1874 C1876 1.378 . S
C1874 C1878 1.350 . S
C1875 C1878 1.463 1_455 S
C1875 C1880 1.350 . S
C1875 N1883 1.427 1_455 S
C1876 H1867 0.930 . S
C1876 C1874 1.378 . S
C1876 C1877 1.367 . S
C1877 C1876 1.367 . S
C1877 C1879 1.433 . S
C1878 C1874 1.350 . S
C1878 C1875 1.463 1_655 S
C1878 N1882 1.427 1_655 S
C1879 H1869 0.929 1_655 S
C1879 C1877 1.433 . S
C1879 N1882 1.384 1_655 S
C1880 H1871 0.929 . S
C1880 C1872 1.378 . S
C1880 C1875 1.350 . S
C1881 H1868 0.929 1_455 S
C1881 C1873 1.433 . S
C1881 N1883 1.384 1_455 S
N1882 C1878 1.427 1_455 S
N1882 C1879 1.384 1_455 S
N1883 C1875 1.427 1_655 S
N1883 C1881 1.384 1_655 S
H1884 C1890 0.930 . S
H1885 C1894 0.930 . S
H1886 C1899 0.929 . S
H1887 C1897 0.929 . S
H1888 C1892 0.929 . S
H1889 C1898 0.929 . S
C1890 H1884 0.930 . S
C1890 C1891 1.367 . S
C1890 C1898 1.378 . S
C1891 C1890 1.367 . S
C1891 C1899 1.433 . S
C1892 H1888 0.929 . S
C1892 C1894 1.378 . S
C1892 C1896 1.350 . S
C1893 C1896 1.463 1_545 S
C1893 C1898 1.350 . S
C1893 N1901 1.427 . S
C1894 H1885 0.930 . S
C1894 C1892 1.378 . S
C1894 C1895 1.367 . S
C1895 C1894 1.367 . S
C1895 C1897 1.433 . S
C1896 C1892 1.350 . S
C1896 C1893 1.463 1_565 S
C1896 N1900 1.427 . S
C1897 H1887 0.929 . S
C1897 C1895 1.433 . S
C1897 N1900 1.384 . S
C1898 H1889 0.929 . S
C1898 C1890 1.378 . S
C1898 C1893 1.350 . S
C1899 H1886 0.929 . S
C1899 C1891 1.433 . S
C1899 N1901 1.384 . S
N1900 C1896 1.427 . S
N1900 C1897 1.384 . S
N1901 C1893 1.427 . S
N1901 C1899 1.384 . S
H1902 C1908 0.930 . S
H1903 C1912 0.930 . S
H1904 C1917 0.929 . S
H1905 C1915 0.929 . S
H1906 C1910 0.929 . S
H1907 C1916 0.929 . S
C1908 H1902 0.930 . S
C1908 C1909 1.367 . S
C1908 C1916 1.378 . S
C1909 C1908 1.367 . S
C1909 C1917 1.433 . S
C1910 H1906 0.929 . S
C1910 C1912 1.378 . S
C1910 C1914 1.350 . S
C1911 C1914 1.463 . S
C1911 C1916 1.350 . S
C1911 N1919 1.427 . S
C1912 H1903 0.930 . S
C1912 C1910 1.378 . S
C1912 C1913 1.367 . S
C1913 C1912 1.367 . S
C1913 C1915 1.433 . S
C1914 C1910 1.350 . S
C1914 C1911 1.463 . S
C1914 N1918 1.427 . S
C1915 H1905 0.929 . S
C1915 C1913 1.433 . S
C1915 N1918 1.384 . S
C1916 H1907 0.929 . S
C1916 C1908 1.378 . S
C1916 C1911 1.350 . S
C1917 H1904 0.929 . S
C1917 C1909 1.433 . S
C1917 N1919 1.384 . S
N1918 C1914 1.427 . S
N1918 C1915 1.384 . S
N1919 C1911 1.427 . S
N1919 C1917 1.384 . S
H1920 C1926 0.930 . S
H1921 C1930 0.930 . S
H1922 C1935 0.929 . S
H1923 C1933 0.929 . S
H1924 C1928 0.929 . S
H1925 C1934 0.929 . S
C1926 H1920 0.930 . S
C1926 C1927 1.367 . S
C1926 C1934 1.378 . S
C1927 C1926 1.367 . S
C1927 C1935 1.433 . S
C1928 H1924 0.929 . S
C1928 C1930 1.378 . S
C1928 C1932 1.350 . S
C1929 C1932 1.463 . S
C1929 C1934 1.350 . S
C1929 N1937 1.427 . S
C1930 H1921 0.930 . S
C1930 C1928 1.378 . S
C1930 C1931 1.367 . S
C1931 C1930 1.367 . S
C1931 C1933 1.433 . S
C1932 C1928 1.350 . S
C1932 C1929 1.463 . S
C1932 N1936 1.427 . S
C1933 H1923 0.929 . S
C1933 C1931 1.433 . S
C1933 N1936 1.384 . S
C1934 H1925 0.929 . S
C1934 C1926 1.378 . S
C1934 C1929 1.350 . S
C1935 H1922 0.929 . S
C1935 C1927 1.433 . S
C1935 N1937 1.384 . S
N1936 C1932 1.427 . S
N1936 C1933 1.384 . S
N1937 C1929 1.427 . S
N1937 C1935 1.384 . S
H1938 C1944 0.930 . S
H1939 C1948 0.930 . S
H1940 C1953 0.929 . S
H1941 C1951 0.929 . S
H1942 C1946 0.929 . S
H1943 C1952 0.929 . S
C1944 H1938 0.930 . S
C1944 C1945 1.367 . S
C1944 C1952 1.378 . S
C1945 C1944 1.367 . S
C1945 C1953 1.433 . S
C1946 H1942 0.929 . S
C1946 C1948 1.378 . S
C1946 C1950 1.350 . S
C1947 C1950 1.463 . S
C1947 C1952 1.350 . S
C1947 N1955 1.427 . S
C1948 H1939 0.930 . S
C1948 C1946 1.378 . S
C1948 C1949 1.367 . S
C1949 C1948 1.367 . S
C1949 C1951 1.433 . S
C1950 C1946 1.350 . S
C1950 C1947 1.463 . S
C1950 N1954 1.427 . S
C1951 H1941 0.929 . S
C1951 C1949 1.433 . S
C1951 N1954 1.384 . S
C1952 H1943 0.929 . S
C1952 C1944 1.378 . S
C1952 C1947 1.350 . S
C1953 H1940 0.929 . S
C1953 C1945 1.433 . S
C1953 N1955 1.384 . S
N1954 C1950 1.427 . S
N1954 C1951 1.384 . S
N1955 C1947 1.427 . S
N1955 C1953 1.384 . S
H1956 C1962 0.930 . S
H1957 C1966 0.930 1_556 S
H1958 C1971 0.929 1_556 S
H1959 C1969 0.929 . S
H1960 C1964 0.929 1_556 S
H1961 C1970 0.929 . S
C1962 H1956 0.930 . S
C1962 C1963 1.367 . S
C1962 C1970 1.378 . S
C1963 C1962 1.367 . S
C1963 C1971 1.433 . S
C1964 H1960 0.929 1_554 S
C1964 C1966 1.378 . S
C1964 C1968 1.350 . S
C1965 C1968 1.463 1_455 S
C1965 C1970 1.350 . S
C1965 N1973 1.427 . S
C1966 H1957 0.930 1_554 S
C1966 C1964 1.378 . S
C1966 C1967 1.367 . S
C1967 C1966 1.367 . S
C1967 C1969 1.433 . S
C1968 C1964 1.350 . S
C1968 C1965 1.463 1_655 S
C1968 N1972 1.427 . S
C1969 H1959 0.929 . S
C1969 C1967 1.433 . S
C1969 N1972 1.384 . S
C1970 H1961 0.929 . S
C1970 C1962 1.378 . S
C1970 C1965 1.350 . S
C1971 H1958 0.929 1_554 S
C1971 C1963 1.433 . S
C1971 N1973 1.384 . S
N1972 C1968 1.427 . S
N1972 C1969 1.384 . S
N1973 C1965 1.427 . S
N1973 C1971 1.384 . S
H1974 C1980 0.930 . S
H1975 C1984 0.930 . S
H1976 C1989 0.929 . S
H1977 C1987 0.929 . S
H1978 C1982 0.929 . S
H1979 C1988 0.929 . S
C1980 H1974 0.930 . S
C1980 C1981 1.367 . S
C1980 C1988 1.378 . S
C1981 C1980 1.367 . S
C1981 C1989 1.433 . S
C1982 H1978 0.929 . S
C1982 C1984 1.378 . S
C1982 C1986 1.350 . S
C1983 C1986 1.463 . S
C1983 C1988 1.350 . S
C1983 N1991 1.427 . S
C1984 H1975 0.930 . S
C1984 C1982 1.378 . S
C1984 C1985 1.367 . S
C1985 C1984 1.367 . S
C1985 C1987 1.433 . S
C1986 C1982 1.350 . S
C1986 C1983 1.463 . S
C1986 N1990 1.427 . S
C1987 H1977 0.929 . S
C1987 C1985 1.433 . S
C1987 N1990 1.384 . S
C1988 H1979 0.929 . S
C1988 C1980 1.378 . S
C1988 C1983 1.350 . S
C1989 H1976 0.929 . S
C1989 C1981 1.433 . S
C1989 N1991 1.384 . S
N1990 C1986 1.427 . S
N1990 C1987 1.384 . S
N1991 C1983 1.427 . S
N1991 C1989 1.384 . S
C703 C283 0.844 . S
C707 C48 0.843 . S
C721 C343 0.871 . S
C725 C112 0.874 . S
C739 C47 0.848 . S
C743 C399 0.845 . S
C757 C231 0.844 . S
C761 C114 0.852 . S
C775 C456 0.865 . S
C779 C172 0.869 . S
C793 C164 0.866 . S
C797 C520 0.859 . S
C811 C170 0.858 . S
C815 C572 0.862 . S
C829 C632 0.863 . S
C833 C163 0.871 . S
C847 C50 0.872 . S
C851 C225 0.868 . S
C865 C110 0.853 . S
C869 C286 0.862 . S
C883 C344 0.874 . S
C887 C51 0.875 . S
C901 C111 0.872 . S
C905 C396 0.872 . S
C919 C167 0.852 . S
C923 C226 0.851 . S
C937 C288 0.873 . S
C941 C169 0.870 . S
C955 C346 0.853 . S
C959 C166 0.858 . S
C973 C395 0.857 . S
C977 C168 0.850 . S
C991 C279 0.873 . S
C995 C229 0.867 . S
C1009 C460 0.862 . S
C1013 C228 0.868 . S
C1027 C510 0.871 . S
C1031 C285 0.866 . S
C1045 C341 0.861 . S
C1049 C570 0.858 . S
C1063 C458 0.856 . S
C1067 C337 0.854 . S
C1081 C630 0.864 . S
C1085 C462 0.873 . S
C1099 C512 0.852 . S
C1103 C459 0.845 . S
C1117 C628 0.864 . S
C1121 C574 0.866 . S
C1135 C573 0.844 . S
C1139 C106 0.849 . S
C1153 C54 0.851 . S
C1157 C633 0.842 . S
C1171 C105 0.853 . S
C1175 C457 0.855 . S
C1189 C56 0.859 . S
C1193 C521 0.861 . S
C1207 C398 0.854 . S
C1211 C694 0.855 . S
C1225 C686 0.855 . S
C1229 C230 0.845 . S
C1243 C282 0.872 . S
C1247 C692 0.876 . S
C1261 C342 0.859 . S
C1265 C685 0.867 . S
C1279 C515 0.873 . S
C1283 C108 0.872 . S
C1297 C52 0.866 . S
C1301 C576 0.866 . S
C1315 C634 0.857 . S
C1319 C109 0.861 . S
C1333 C454 0.851 . S
C1337 C53 0.843 . S
C1351 C689 0.860 . S
C1355 C516 0.868 . S
C1369 C691 0.848 . S
C1373 C578 0.856 . S
C1387 C636 0.854 . S
C1391 C688 0.845 . S
C1405 C453 0.849 . S
C1409 C690 0.844 . S
C1423 C569 0.873 . S
C1427 C519 0.868 . S
C1441 C402 0.851 . S
C1445 C518 0.847 . S
C1459 C220 0.872 . S
C1463 C575 0.872 . S
C1477 C631 0.850 . S
C1481 C280 0.850 . S
C1495 C400 0.868 . S
C1499 C627 0.875 . S
C1513 C340 0.858 . S
C1517 C404 0.864 . S
C1531 C401 0.844 . S
C1535 C222 0.845 . S
C1549 C338 0.864 . S
C1553 C284 0.854 . S
C1567 C162 2.696 . S
C1571 C55 2.695 . S
C1585 C104 2.695 . S
C1589 C173 2.697 . S
C1603 C57 2.696 . S
C1607 C165 2.696 . S
C1621 C107 2.696 . S
C1625 C171 2.692 . S
C1639 C223 2.688 . S
C1643 C626 2.687 . S
C1657 C278 2.690 . S
C1661 C461 2.692 . S
C1675 C511 2.694 . S
C1679 C339 2.696 . S
C1693 C405 2.688 . S
C1697 C571 2.690 . S
C1711 C221 2.690 . S
C1715 C629 2.688 . S
C1729 C463 2.696 . S
C1733 C281 2.692 . S
C1747 C336 2.688 . S
C1751 C513 2.689 . S
C1765 C403 2.695 . S
C1769 C568 2.693 . S
C1783 C394 2.687 . S
C1787 C289 2.687 . S
C1801 C577 2.687 . S
C1805 C455 2.687 . S
C1819 C514 2.687 . S
C1823 C635 2.683 . S
C1837 C345 2.688 . S
C1841 C224 2.690 . S
C1855 C579 2.692 . S
C1859 C452 2.694 . S
C1873 C637 2.691 . S
C1877 C517 2.693 . S
C1891 C684 2.690 . S
C1895 C113 2.688 . S
C1909 C46 2.687 . S
C1913 C695 2.684 . S
C1927 C115 2.687 . S
C1931 C687 2.689 . S
C1945 C693 2.691 . S
C1949 C49 2.693 . S
C1963 C287 2.688 . S
C1967 C397 2.687 . S
C1981 C227 2.691 . S
C1985 C347 2.689 . S
