# Generated by pormake.
# Topology pcl, (4)-cn, num edge types: 1
# Building blocks:
#     Node 0, Type 0, BuildingBlock: KUFVIS_clean_sbu_0, # of connection points: 4
#     Node 1, Type 0, BuildingBlock: KUFVIS_clean_sbu_0, # of connection points: 4
#     Node 2, Type 0, BuildingBlock: KUFVIS_clean_sbu_0, # of connection points: 4
#     Node 3, Type 0, BuildingBlock: KUFVIS_clean_sbu_0, # of connection points: 4
#     Node 4, Type 0, BuildingBlock: KUFVIS_clean_sbu_0, # of connection points: 4
#     Node 5, Type 0, BuildingBlock: KUFVIS_clean_sbu_0, # of connection points: 4
#     Node 6, Type 0, BuildingBlock: KUFVIS_clean_sbu_0, # of connection points: 4
#     Node 7, Type 0, BuildingBlock: KUFVIS_clean_sbu_0, # of connection points: 4
#     Node 8, Type 0, BuildingBlock: KUFVIS_clean_sbu_0, # of connection points: 4
#     Node 9, Type 0, BuildingBlock: KUFVIS_clean_sbu_0, # of connection points: 4
#     Node 10, Type 0, BuildingBlock: KUFVIS_clean_sbu_0, # of connection points: 4
#     Node 11, Type 0, BuildingBlock: KUFVIS_clean_sbu_0, # of connection points: 4
#     Node 12, Type 0, BuildingBlock: KUFVIS_clean_sbu_0, # of connection points: 4
#     Node 13, Type 0, BuildingBlock: KUFVIS_clean_sbu_0, # of connection points: 4
#     Node 14, Type 0, BuildingBlock: KUFVIS_clean_sbu_0, # of connection points: 4
#     Node 15, Type 0, BuildingBlock: KUFVIS_clean_sbu_0, # of connection points: 4
#     Edge 16, Type (0, 0), BuildingBlock: ZUJKAS_clean_linker_0, # of connection points: 2
#     Edge 17, Type (0, 0), BuildingBlock: ZUJKAS_clean_linker_0, # of connection points: 2
#     Edge 18, Type (0, 0), BuildingBlock: ZUJKAS_clean_linker_0, # of connection points: 2
#     Edge 19, Type (0, 0), BuildingBlock: ZUJKAS_clean_linker_0, # of connection points: 2
#     Edge 20, Type (0, 0), BuildingBlock: ZUJKAS_clean_linker_0, # of connection points: 2
#     Edge 21, Type (0, 0), BuildingBlock: ZUJKAS_clean_linker_0, # of connection points: 2
#     Edge 22, Type (0, 0), BuildingBlock: ZUJKAS_clean_linker_0, # of connection points: 2
#     Edge 23, Type (0, 0), BuildingBlock: ZUJKAS_clean_linker_0, # of connection points: 2
#     Edge 24, Type (0, 0), BuildingBlock: ZUJKAS_clean_linker_0, # of connection points: 2
#     Edge 25, Type (0, 0), BuildingBlock: ZUJKAS_clean_linker_0, # of connection points: 2
#     Edge 26, Type (0, 0), BuildingBlock: ZUJKAS_clean_linker_0, # of connection points: 2
#     Edge 27, Type (0, 0), BuildingBlock: ZUJKAS_clean_linker_0, # of connection points: 2
#     Edge 28, Type (0, 0), BuildingBlock: ZUJKAS_clean_linker_0, # of connection points: 2
#     Edge 29, Type (0, 0), BuildingBlock: ZUJKAS_clean_linker_0, # of connection points: 2
#     Edge 30, Type (0, 0), BuildingBlock: ZUJKAS_clean_linker_0, # of connection points: 2
#     Edge 31, Type (0, 0), BuildingBlock: ZUJKAS_clean_linker_0, # of connection points: 2
#     Edge 32, Type (0, 0), BuildingBlock: ZUJKAS_clean_linker_0, # of connection points: 2
#     Edge 33, Type (0, 0), BuildingBlock: ZUJKAS_clean_linker_0, # of connection points: 2
#     Edge 34, Type (0, 0), BuildingBlock: ZUJKAS_clean_linker_0, # of connection points: 2
#     Edge 35, Type (0, 0), BuildingBlock: ZUJKAS_clean_linker_0, # of connection points: 2
#     Edge 36, Type (0, 0), BuildingBlock: ZUJKAS_clean_linker_0, # of connection points: 2
#     Edge 37, Type (0, 0), BuildingBlock: ZUJKAS_clean_linker_0, # of connection points: 2
#     Edge 38, Type (0, 0), BuildingBlock: ZUJKAS_clean_linker_0, # of connection points: 2
#     Edge 39, Type (0, 0), BuildingBlock: ZUJKAS_clean_linker_0, # of connection points: 2
#     Edge 40, Type (0, 0), BuildingBlock: ZUJKAS_clean_linker_0, # of connection points: 2
#     Edge 41, Type (0, 0), BuildingBlock: ZUJKAS_clean_linker_0, # of connection points: 2
#     Edge 42, Type (0, 0), BuildingBlock: ZUJKAS_clean_linker_0, # of connection points: 2
#     Edge 43, Type (0, 0), BuildingBlock: ZUJKAS_clean_linker_0, # of connection points: 2
#     Edge 44, Type (0, 0), BuildingBlock: ZUJKAS_clean_linker_0, # of connection points: 2
#     Edge 45, Type (0, 0), BuildingBlock: ZUJKAS_clean_linker_0, # of connection points: 2
#     Edge 46, Type (0, 0), BuildingBlock: ZUJKAS_clean_linker_0, # of connection points: 2
#     Edge 47, Type (0, 0), BuildingBlock: ZUJKAS_clean_linker_0, # of connection points: 2
# Relax obj value: 0.080
# Max RMSD: 0.060
# Mean RMSD: 0.059
data_MOF--net-pcl--node1-KUFVIS_clean_sbu_0--edge1-ZUJKAS_clean_linker_0
_symmetry_space_group_name_H-M    P1
_symmetry_Int_Tables_number       1
_symmetry_cell_setting            triclinic
loop_
_symmetry_equiv_pos_as_xyz
'x, y, z'
_cell_length_a     67.659811
_cell_length_b     54.918114
_cell_length_c     54.620791
_cell_angle_alpha  90.007196
_cell_angle_beta   89.973212
_cell_angle_gamma 89.990109
loop_
_atom_site_label
_atom_site_type_symbol
_atom_site_fract_x
_atom_site_fract_y
_atom_site_fract_z
_atom_type_partial_charge
Mn0 Mn 0.15335 0.33976 0.08174 0.0
Mn1 Mn 0.19439 0.36463 0.10622 0.0
C2 C 0.165 0.32643 0.11935 0.0
C3 C 0.11907 0.34042 0.07683 0.0
C4 C 0.19536 0.32799 0.0645 0.0
O5 O 0.15644 0.37141 0.06259 0.0
O6 O 0.18272 0.38755 0.08204 0.0
C7 C 0.1763 0.40597 0.1329 0.0
N8 N 0.18752 0.38538 0.13299 0.0
C9 C 0.19443 0.38984 0.17597 0.0
C10 C 0.18301 0.41114 0.17632 0.0
C11 C 0.17383 0.41918 0.1547 0.0
C12 C 0.19626 0.37737 0.15373 0.0
H13 H 0.16929 0.41228 0.1163 0.0
C14 C 0.16872 0.3887 0.06627 0.0
O15 O 0.13038 0.32973 0.06087 0.0
O16 O 0.12767 0.35096 0.09516 0.0
N17 N 0.20686 0.34448 0.13027 0.0
C18 C 0.21621 0.32271 0.12722 0.0
C19 C 0.22552 0.31166 0.14732 0.0
C20 C 0.22532 0.32324 0.17025 0.0
C21 C 0.2157 0.3457 0.1729 0.0
C22 C 0.20655 0.35575 0.15227 0.0
H23 H 0.21652 0.3138 0.1096 0.0
O24 O 0.15353 0.31259 0.10635 0.0
O25 O 0.16931 0.3474 0.10982 0.0
O26 O 0.17673 0.32434 0.06322 0.0
O27 O 0.20316 0.34316 0.07937 0.0
C28 C 0.21469 0.35841 0.19525 0.0
C29 C 0.20393 0.38037 0.19685 0.0
H30 H 0.18109 0.42139 0.1931 0.0
H31 H 0.16494 0.43556 0.15484 0.0
H32 H 0.23288 0.2943 0.14513 0.0
H33 H 0.23253 0.31467 0.18572 0.0
H34 H 0.22182 0.35122 0.21147 0.0
H35 H 0.20288 0.38968 0.21429 0.0
Mn36 Mn 0.86469 0.66681 0.58057 0.0
Mn37 Mn 0.82459 0.64531 0.61026 0.0
C38 C 0.85671 0.68153 0.61898 0.0
C39 C 0.89837 0.66333 0.57172 0.0
C40 C 0.82221 0.68156 0.56821 0.0
O41 O 0.85842 0.63547 0.56222 0.0
O42 O 0.83318 0.62128 0.58506 0.0
C43 C 0.843 0.60319 0.63526 0.0
N44 N 0.83275 0.6245 0.63644 0.0
C45 C 0.83083 0.62211 0.68039 0.0
C46 C 0.84125 0.60005 0.67962 0.0
C47 C 0.84738 0.59058 0.65696 0.0
C48 C 0.82678 0.63379 0.65815 0.0
H49 H 0.84784 0.59589 0.61791 0.0
C50 C 0.84572 0.61911 0.56757 0.0
O51 O 0.88652 0.67513 0.55722 0.0
O52 O 0.89056 0.65332 0.59089 0.0
N53 N 0.81505 0.66659 0.63542 0.0
C54 C 0.80612 0.68871 0.63311 0.0
C55 C 0.79953 0.70097 0.65416 0.0
C56 C 0.80211 0.69033 0.67732 0.0
C57 C 0.81122 0.66749 0.67924 0.0
C58 C 0.81731 0.65602 0.6576 0.0
H59 H 0.80412 0.69702 0.61538 0.0
O60 O 0.86794 0.69415 0.6045 0.0
O61 O 0.85061 0.66075 0.61053 0.0
O62 O 0.84082 0.68389 0.56484 0.0
O63 O 0.81478 0.66713 0.58412 0.0
C64 C 0.81483 0.65585 0.70179 0.0
C65 C 0.82467 0.63321 0.70237 0.0
H66 H 0.84478 0.59035 0.69632 0.0
H67 H 0.85552 0.57363 0.65623 0.0
H68 H 0.79254 0.71862 0.65254 0.0
H69 H 0.79716 0.69995 0.69352 0.0
H70 H 0.81035 0.66432 0.71883 0.0
H71 H 0.82764 0.62463 0.71985 0.0
Mn72 Mn 0.15137 0.66552 0.92318 0.0
Mn73 Mn 0.19372 0.63978 0.90347 0.0
C74 C 0.16417 0.67549 0.88495 0.0
C75 C 0.1169 0.66433 0.92697 0.0
C76 C 0.19243 0.68023 0.94138 0.0
O77 O 0.15447 0.63609 0.94583 0.0
O78 O 0.18148 0.61898 0.92892 0.0
C79 C 0.17772 0.59543 0.87987 0.0
N80 N 0.18858 0.61626 0.87853 0.0
C81 C 0.20012 0.6061 0.83816 0.0
C82 C 0.18905 0.58453 0.83906 0.0
C83 C 0.17766 0.57928 0.85993 0.0
C84 C 0.19914 0.6218 0.85829 0.0
H85 H 0.16932 0.59109 0.89612 0.0
C86 C 0.16715 0.6189 0.94425 0.0
O87 O 0.12769 0.67721 0.94177 0.0
O88 O 0.12616 0.65202 0.91027 0.0
N89 N 0.20705 0.6578 0.87848 0.0
C90 C 0.21594 0.68001 0.88 0.0
C91 C 0.22728 0.68848 0.86022 0.0
C92 C 0.22982 0.67375 0.83942 0.0
C93 C 0.22067 0.65086 0.83841 0.0
C94 C 0.20902 0.64374 0.85833 0.0
H95 H 0.21447 0.6911 0.89622 0.0
O96 O 0.15184 0.68998 0.8959 0.0
O97 O 0.16846 0.65562 0.89662 0.0
O98 O 0.17377 0.68373 0.94094 0.0
O99 O 0.20102 0.66384 0.92869 0.0
C100 C 0.22279 0.63472 0.81853 0.0
C101 C 0.21229 0.61251 0.81824 0.0
H102 H 0.18923 0.57184 0.82387 0.0
H103 H 0.1691 0.56266 0.86078 0.0
H104 H 0.23432 0.70615 0.86116 0.0
H105 H 0.23884 0.68017 0.82436 0.0
H106 H 0.23197 0.63953 0.80302 0.0
H107 H 0.21359 0.60057 0.80253 0.0
Mn108 Mn 0.85977 0.3417 0.42387 0.0
Mn109 Mn 0.81801 0.36584 0.40053 0.0
C110 C 0.84897 0.3301 0.38533 0.0
C111 C 0.89398 0.34406 0.42959 0.0
C112 C 0.81823 0.32667 0.43975 0.0
O113 O 0.85506 0.37161 0.44539 0.0
O114 O 0.82863 0.38775 0.42625 0.0
C115 C 0.83493 0.40955 0.37673 0.0
N116 N 0.82439 0.38848 0.37518 0.0
C117 C 0.81824 0.39485 0.33228 0.0
C118 C 0.82894 0.41668 0.33344 0.0
C119 C 0.83738 0.42401 0.35575 0.0
C120 C 0.81631 0.38118 0.35378 0.0
H121 H 0.84143 0.41526 0.39385 0.0
C122 C 0.8422 0.38844 0.44258 0.0
O123 O 0.88291 0.3313 0.44421 0.0
O124 O 0.88511 0.35568 0.41212 0.0
N125 N 0.80643 0.34657 0.37512 0.0
C126 C 0.79767 0.3243 0.37676 0.0
C127 C 0.78894 0.314 0.35587 0.0
C128 C 0.78915 0.3268 0.3336 0.0
C129 C 0.79827 0.34969 0.33236 0.0
C130 C 0.80672 0.35903 0.35377 0.0
H131 H 0.79735 0.31446 0.39387 0.0
O132 O 0.86106 0.31637 0.39755 0.0
O133 O 0.84374 0.35023 0.39603 0.0
O134 O 0.8369 0.3234 0.44047 0.0
O135 O 0.80981 0.3425 0.42616 0.0
C136 C 0.79949 0.36352 0.31067 0.0
C137 C 0.80959 0.38598 0.31058 0.0
H138 H 0.83088 0.42787 0.31729 0.0
H139 H 0.84573 0.44079 0.35678 0.0
H140 H 0.78199 0.29629 0.35694 0.0
H141 H 0.78235 0.3188 0.31755 0.0
H142 H 0.79289 0.35694 0.29386 0.0
H143 H 0.81073 0.39623 0.29369 0.0
Mn144 Mn 0.86268 0.66493 0.91559 0.0
Mn145 Mn 0.87725 0.62603 0.87109 0.0
C146 C 0.86397 0.67798 0.87528 0.0
C147 C 0.83752 0.68141 0.93998 0.0
C148 C 0.90579 0.65052 0.9064 0.0
O149 O 0.86057 0.63163 0.93208 0.0
O150 O 0.86781 0.60746 0.89998 0.0
C151 C 0.83844 0.60422 0.85901 0.0
N152 N 0.85513 0.61607 0.8518 0.0
C153 C 0.84479 0.61549 0.80965 0.0
C154 C 0.82752 0.60318 0.8166 0.0
C155 C 0.8243 0.5976 0.8414 0.0
C156 C 0.8583 0.62169 0.82802 0.0
H157 H 0.83596 0.59984 0.87805 0.0
C158 C 0.86247 0.61063 0.92226 0.0
O159 O 0.85591 0.68218 0.94674 0.0
O160 O 0.83374 0.67046 0.91948 0.0
N161 N 0.88673 0.64119 0.84181 0.0
C162 C 0.90371 0.65407 0.83831 0.0
C163 C 0.90913 0.66107 0.81451 0.0
C164 C 0.89716 0.65457 0.79456 0.0
C165 C 0.87969 0.64146 0.79861 0.0
C166 C 0.87517 0.63473 0.82269 0.0
H167 H 0.91312 0.65882 0.85352 0.0
O168 O 0.86421 0.69362 0.89307 0.0
O169 O 0.86276 0.65519 0.88155 0.0
O170 O 0.89306 0.66347 0.91778 0.0
O171 O 0.90117 0.63558 0.8894 0.0
C172 C 0.8665 0.63499 0.77973 0.0
C173 C 0.84901 0.62214 0.78526 0.0
H174 H 0.81657 0.59805 0.80308 0.0
H175 H 0.81098 0.58818 0.84691 0.0
H176 H 0.9226 0.67128 0.81153 0.0
H177 H 0.90152 0.65975 0.77621 0.0
H178 H 0.86954 0.64012 0.76094 0.0
H179 H 0.83884 0.61758 0.77065 0.0
Mn180 Mn 0.14762 0.34419 0.41662 0.0
Mn181 Mn 0.13245 0.3844 0.37382 0.0
C182 C 0.14575 0.33235 0.37584 0.0
C183 C 0.17321 0.32732 0.43993 0.0
C184 C 0.1045 0.35901 0.40926 0.0
O185 O 0.14981 0.37699 0.43416 0.0
O186 O 0.14279 0.40205 0.40273 0.0
C187 C 0.17091 0.40655 0.36077 0.0
N188 N 0.15423 0.39444 0.35398 0.0
C189 C 0.16287 0.39748 0.31137 0.0
C190 C 0.18015 0.41 0.31789 0.0
C191 C 0.18427 0.41436 0.34272 0.0
C192 C 0.15045 0.38946 0.33021 0.0
H193 H 0.17391 0.4104 0.37981 0.0
C194 C 0.14823 0.39825 0.42484 0.0
O195 O 0.15491 0.32611 0.44705 0.0
O196 O 0.17663 0.33887 0.41967 0.0
N197 N 0.12205 0.37023 0.34452 0.0
C198 C 0.10419 0.35922 0.34116 0.0
C199 C 0.09796 0.35332 0.31736 0.0
C200 C 0.10983 0.35951 0.2972 0.0
C201 C 0.12776 0.3717 0.30102 0.0
C202 C 0.13337 0.37673 0.32519 0.0
H203 H 0.09477 0.35491 0.3565 0.0
O204 O 0.14604 0.3162 0.39316 0.0
O205 O 0.14695 0.35488 0.38291 0.0
O206 O 0.11733 0.34535 0.41953 0.0
O207 O 0.1089 0.37471 0.39287 0.0
C208 C 0.13999 0.3797 0.28175 0.0
C209 C 0.15741 0.39283 0.28692 0.0
H210 H 0.19032 0.41639 0.30398 0.0
H211 H 0.19756 0.42403 0.34789 0.0
H212 H 0.08394 0.34425 0.31455 0.0
H213 H 0.10487 0.35516 0.27886 0.0
H214 H 0.13602 0.3761 0.26288 0.0
H215 H 0.16663 0.39901 0.27194 0.0
Mn216 Mn 0.86515 0.34438 0.08572 0.0
Mn217 Mn 0.8811 0.3885 0.12384 0.0
C218 C 0.8681 0.33612 0.12723 0.0
C219 C 0.83936 0.32569 0.06424 0.0
C220 C 0.90796 0.36068 0.08909 0.0
O221 O 0.8626 0.37568 0.06551 0.0
O222 O 0.86875 0.40362 0.09474 0.0
C223 C 0.84281 0.40997 0.13879 0.0
N224 N 0.86039 0.39952 0.14486 0.0
C225 C 0.85371 0.40419 0.18788 0.0
C226 C 0.83555 0.41507 0.18211 0.0
C227 C 0.83004 0.41788 0.15745 0.0
C228 C 0.86574 0.39652 0.1685 0.0
H229 H 0.83861 0.41225 0.11985 0.0
C230 C 0.8634 0.39771 0.07306 0.0
O231 O 0.8576 0.32396 0.05704 0.0
O232 O 0.83607 0.33867 0.08369 0.0
N233 N 0.89342 0.37663 0.15298 0.0
C234 C 0.91112 0.36506 0.15541 0.0
C235 C 0.91905 0.36142 0.17886 0.0
C236 C 0.90875 0.36979 0.19953 0.0
C237 C 0.89032 0.38108 0.19663 0.0
C238 C 0.88336 0.38467 0.17279 0.0
H239 H 0.91934 0.35907 0.13958 0.0
O240 O 0.86741 0.31851 0.11141 0.0
O241 O 0.8666 0.358 0.11829 0.0
O242 O 0.89528 0.34507 0.08194 0.0
O243 O 0.90383 0.37837 0.10338 0.0
C244 C 0.87864 0.38904 0.21645 0.0
C245 C 0.86026 0.4004 0.21208 0.0
H246 H 0.82567 0.42122 0.19644 0.0
H247 H 0.81603 0.42619 0.15286 0.0
H248 H 0.9332 0.35246 0.18099 0.0
H249 H 0.91505 0.36724 0.21757 0.0
H250 H 0.88356 0.3863 0.23511 0.0
H251 H 0.85129 0.40615 0.22745 0.0
Mn252 Mn 0.15066 0.66639 0.58454 0.0
Mn253 Mn 0.13637 0.6241 0.62574 0.0
C254 C 0.14878 0.67624 0.6258 0.0
C255 C 0.17575 0.68491 0.56167 0.0
C256 C 0.10778 0.6503 0.59181 0.0
O257 O 0.15329 0.63445 0.56555 0.0
O258 O 0.14623 0.60789 0.59572 0.0
C259 C 0.17549 0.60246 0.63642 0.0
N260 N 0.15871 0.61367 0.64435 0.0
C261 C 0.16898 0.6104 0.68637 0.0
C262 C 0.18635 0.59876 0.67869 0.0
C263 C 0.18968 0.59493 0.65358 0.0
C264 C 0.15559 0.61798 0.66839 0.0
H265 H 0.17798 0.59922 0.61716 0.0
C266 C 0.1516 0.61276 0.57379 0.0
O267 O 0.15738 0.68595 0.55485 0.0
O268 O 0.17955 0.67267 0.58142 0.0
N269 N 0.12651 0.63693 0.65595 0.0
C270 C 0.10884 0.64801 0.66036 0.0
C271 C 0.10328 0.65325 0.68458 0.0
C272 C 0.11571 0.64652 0.70403 0.0
C273 C 0.13358 0.63456 0.69907 0.0
C274 C 0.13844 0.63007 0.67456 0.0
H275 H 0.09903 0.6528 0.64554 0.0
O276 O 0.14865 0.69327 0.60935 0.0
O277 O 0.15037 0.65416 0.61761 0.0
O278 O 0.12044 0.66441 0.58182 0.0
O279 O 0.11236 0.63426 0.60781 0.0
C280 C 0.14662 0.6266 0.71751 0.0
C281 C 0.16433 0.61459 0.71116 0.0
H282 H 0.19722 0.59267 0.69189 0.0
H283 H 0.20307 0.58598 0.6475 0.0
H284 H 0.08938 0.66229 0.68826 0.0
H285 H 0.11134 0.65048 0.72269 0.0
H286 H 0.14323 0.62976 0.73664 0.0
H287 H 0.17432 0.60876 0.7255 0.0
Mn288 Mn 0.6501 0.84144 0.07972 0.0
Mn289 Mn 0.69028 0.8633 0.10892 0.0
C290 C 0.65795 0.82763 0.11854 0.0
C291 C 0.61634 0.84496 0.07108 0.0
C292 C 0.69254 0.82601 0.06776 0.0
O293 O 0.65653 0.8723 0.06063 0.0
O294 O 0.68189 0.88676 0.08309 0.0
C295 C 0.67215 0.90625 0.13281 0.0
N296 N 0.68223 0.88485 0.13455 0.0
C297 C 0.68404 0.88831 0.17843 0.0
C298 C 0.67379 0.91046 0.17708 0.0
C299 C 0.66781 0.91945 0.15417 0.0
C300 C 0.68807 0.87604 0.1565 0.0
H301 H 0.66741 0.91317 0.11526 0.0
C302 C 0.66936 0.88865 0.06556 0.0
O303 O 0.62805 0.83275 0.05673 0.0
O304 O 0.62435 0.8554 0.08986 0.0
N305 N 0.69962 0.84256 0.13463 0.0
C306 C 0.70834 0.82025 0.1329 0.0
C307 C 0.71471 0.8084 0.15427 0.0
C308 C 0.71213 0.81963 0.17716 0.0
C309 C 0.70324 0.84265 0.17847 0.0
C310 C 0.69736 0.85369 0.15653 0.0
H311 H 0.7103 0.81148 0.11538 0.0
O312 O 0.64671 0.81472 0.10434 0.0
O313 O 0.66418 0.84811 0.10953 0.0
O314 O 0.67392 0.82377 0.06434 0.0
O315 O 0.69998 0.84074 0.08338 0.0
C316 C 0.69964 0.85486 0.20072 0.0
C317 C 0.69001 0.87765 0.2007 0.0
H318 H 0.67028 0.92061 0.19352 0.0
H319 H 0.6598 0.93647 0.15299 0.0
H320 H 0.72152 0.79061 0.15312 0.0
H321 H 0.71689 0.81032 0.19362 0.0
H322 H 0.70395 0.84673 0.21798 0.0
H323 H 0.68705 0.88668 0.21795 0.0
Mn324 Mn 0.36086 0.16717 0.57869 0.0
Mn325 Mn 0.31997 0.14266 0.60395 0.0
C326 C 0.35045 0.17976 0.61709 0.0
C327 C 0.39501 0.16515 0.57225 0.0
C328 C 0.31866 0.18133 0.56414 0.0
O329 O 0.35647 0.13664 0.55823 0.0
O330 O 0.33027 0.12071 0.57792 0.0
C331 C 0.3383 0.09954 0.62728 0.0
N332 N 0.32735 0.12028 0.62912 0.0
C333 C 0.32206 0.11375 0.67218 0.0
C334 C 0.33319 0.09225 0.67073 0.0
C335 C 0.3414 0.08518 0.64819 0.0
C336 C 0.31953 0.12737 0.65075 0.0
H337 H 0.34461 0.09401 0.60999 0.0
C338 C 0.34376 0.11977 0.56148 0.0
O339 O 0.38363 0.17736 0.55752 0.0
O340 O 0.3865 0.1541 0.59035 0.0
N341 N 0.30859 0.16167 0.6297 0.0
C342 C 0.29918 0.18355 0.62826 0.0
C343 C 0.29038 0.19344 0.64931 0.0
C344 C 0.29118 0.18062 0.67153 0.0
C345 C 0.30101 0.15816 0.6726 0.0
C346 C 0.30946 0.1492 0.65101 0.0
H347 H 0.29834 0.19337 0.61117 0.0
O348 O 0.36207 0.19338 0.60408 0.0
O349 O 0.34546 0.15908 0.6073 0.0
O350 O 0.33733 0.18423 0.56197 0.0
O351 O 0.31089 0.16589 0.57877 0.0
C352 C 0.30286 0.14437 0.69424 0.0
C353 C 0.31353 0.12229 0.69408 0.0
H354 H 0.33561 0.08111 0.68682 0.0
H355 H 0.35007 0.06866 0.64694 0.0
H356 H 0.28288 0.21082 0.64838 0.0
H357 H 0.28424 0.18826 0.68767 0.0
H358 H 0.2963 0.15066 0.71119 0.0
H359 H 0.31512 0.11207 0.71093 0.0
Mn360 Mn 0.65292 0.16605 0.92247 0.0
Mn361 Mn 0.69397 0.14267 0.89652 0.0
C362 C 0.66293 0.17921 0.88404 0.0
C363 C 0.61881 0.16377 0.92919 0.0
C364 C 0.69504 0.18069 0.93696 0.0
O365 O 0.65776 0.13527 0.9425 0.0
O366 O 0.68418 0.1203 0.92245 0.0
C367 C 0.67607 0.09944 0.87292 0.0
N368 N 0.68672 0.12041 0.87119 0.0
C369 C 0.69182 0.11441 0.82802 0.0
C370 C 0.68099 0.09268 0.82935 0.0
C371 C 0.67301 0.08522 0.85189 0.0
C372 C 0.6943 0.12787 0.84956 0.0
H373 H 0.66995 0.0936 0.89022 0.0
C374 C 0.67081 0.11883 0.93901 0.0
O375 O 0.63025 0.1758 0.94399 0.0
O376 O 0.62724 0.1529 0.91091 0.0
N377 N 0.7049 0.16217 0.87086 0.0
C378 C 0.71405 0.18421 0.87246 0.0
C379 C 0.72262 0.19446 0.85144 0.0
C380 C 0.72187 0.18184 0.8291 0.0
C381 C 0.71229 0.15922 0.82787 0.0
C382 C 0.70407 0.1499 0.84943 0.0
H383 H 0.71487 0.19385 0.88965 0.0
O384 O 0.65132 0.19256 0.89737 0.0
O385 O 0.66822 0.15855 0.8936 0.0
O386 O 0.67635 0.18317 0.93929 0.0
O387 O 0.70294 0.16576 0.9219 0.0
C388 C 0.71051 0.1456 0.80611 0.0
C389 C 0.70012 0.12333 0.80613 0.0
H390 H 0.67862 0.08165 0.81317 0.0
H391 H 0.66458 0.06852 0.85305 0.0
H392 H 0.72991 0.21196 0.8525 0.0
H393 H 0.72863 0.18976 0.81298 0.0
H394 H 0.71689 0.15219 0.78917 0.0
H395 H 0.69856 0.11325 0.78919 0.0
Mn396 Mn 0.36241 0.84246 0.41874 0.0
Mn397 Mn 0.32176 0.86648 0.39247 0.0
C398 C 0.35151 0.82799 0.3812 0.0
C399 C 0.39663 0.84343 0.42452 0.0
C400 C 0.32004 0.83033 0.43454 0.0
O401 O 0.35879 0.87437 0.43729 0.0
O402 O 0.33245 0.88949 0.41726 0.0
C403 C 0.3407 0.90783 0.36676 0.0
N404 N 0.32942 0.88729 0.36609 0.0
C405 C 0.32419 0.89158 0.32274 0.0
C406 C 0.33566 0.91284 0.32298 0.0
C407 C 0.34401 0.92094 0.34507 0.0
C408 C 0.32146 0.87922 0.34491 0.0
H409 H 0.34712 0.91415 0.3837 0.0
C410 C 0.34611 0.89115 0.43341 0.0
O411 O 0.38509 0.83299 0.4404 0.0
O412 O 0.38826 0.85359 0.40581 0.0
N413 N 0.31002 0.84641 0.36785 0.0
C414 C 0.30021 0.82491 0.37054 0.0
C415 C 0.29114 0.81416 0.35012 0.0
C416 C 0.29209 0.82573 0.32722 0.0
C417 C 0.30237 0.84779 0.32486 0.0
C418 C 0.31105 0.85767 0.34588 0.0
H419 H 0.29925 0.81607 0.38816 0.0
O420 O 0.36283 0.81469 0.39495 0.0
O421 O 0.34697 0.84929 0.38989 0.0
O422 O 0.33869 0.82729 0.43683 0.0
O423 O 0.3124 0.84487 0.41892 0.0
C424 C 0.30443 0.8603 0.30247 0.0
C425 C 0.31548 0.88205 0.30137 0.0
H426 H 0.33825 0.923 0.30628 0.0
H427 H 0.35295 0.93728 0.34538 0.0
H428 H 0.28331 0.79709 0.35205 0.0
H429 H 0.28492 0.81745 0.31157 0.0
H430 H 0.29775 0.85323 0.28591 0.0
H431 H 0.31724 0.89127 0.28397 0.0
Mn432 Mn 0.36582 0.16536 0.91441 0.0
Mn433 Mn 0.38054 0.12292 0.87341 0.0
C434 C 0.36837 0.17554 0.87332 0.0
C435 C 0.34061 0.18416 0.93687 0.0
C436 C 0.40891 0.14949 0.90729 0.0
O437 O 0.36262 0.13357 0.93335 0.0
O438 O 0.37099 0.10702 0.90376 0.0
C439 C 0.34144 0.10081 0.86354 0.0
N440 N 0.35829 0.11153 0.8552 0.0
C441 C 0.34798 0.10685 0.81331 0.0
C442 C 0.33055 0.09565 0.82143 0.0
C443 C 0.32723 0.09271 0.84666 0.0
C444 C 0.36154 0.11466 0.831 0.0
H445 H 0.33888 0.09846 0.88291 0.0
C446 C 0.36496 0.11189 0.92541 0.0
O447 O 0.3589 0.18492 0.94404 0.0
O448 O 0.33695 0.17208 0.91698 0.0
N449 N 0.39015 0.13505 0.84283 0.0
C450 C 0.40739 0.14695 0.8381 0.0
C451 C 0.41311 0.15096 0.81372 0.0
C452 C 0.4011 0.14258 0.7945 0.0
C453 C 0.38331 0.1307 0.79981 0.0
C454 C 0.37857 0.12679 0.82444 0.0
H455 H 0.41685 0.15303 0.8528 0.0
O456 O 0.36854 0.1923 0.89005 0.0
O457 O 0.36638 0.15324 0.88106 0.0
O458 O 0.39606 0.16302 0.91774 0.0
O459 O 0.40452 0.1338 0.89088 0.0
C460 C 0.37007 0.12258 0.78164 0.0
C461 C 0.35235 0.11083 0.7884 0.0
H462 H 0.31956 0.08936 0.80847 0.0
H463 H 0.31378 0.08416 0.85307 0.0
H464 H 0.42682 0.16031 0.80973 0.0
H465 H 0.40562 0.14556 0.77571 0.0
H466 H 0.37328 0.12553 0.76244 0.0
H467 H 0.34216 0.10497 0.77429 0.0
Mn468 Mn 0.65058 0.84073 0.41746 0.0
Mn469 Mn 0.63456 0.88133 0.37554 0.0
C470 C 0.64877 0.82948 0.37666 0.0
C471 C 0.67628 0.82423 0.44083 0.0
C472 C 0.60757 0.85559 0.41171 0.0
O473 O 0.65218 0.87355 0.43523 0.0
O474 O 0.6459 0.89909 0.40383 0.0
C475 C 0.67257 0.90317 0.36011 0.0
N476 N 0.65549 0.8914 0.35435 0.0
C477 C 0.66329 0.89237 0.31136 0.0
C478 C 0.68094 0.90459 0.31681 0.0
C479 C 0.68563 0.90993 0.3413 0.0
C480 C 0.65088 0.88605 0.33087 0.0
H481 H 0.67617 0.90736 0.37891 0.0
C482 C 0.65098 0.89494 0.42604 0.0
O483 O 0.65796 0.82262 0.44775 0.0
O484 O 0.6797 0.83597 0.42065 0.0
N485 N 0.62328 0.86656 0.34706 0.0
C486 C 0.60625 0.85348 0.34506 0.0
C487 C 0.59956 0.84638 0.3218 0.0
C488 C 0.61035 0.85296 0.30085 0.0
C489 C 0.6279 0.86629 0.30336 0.0
C490 C 0.63374 0.87304 0.327 0.0
H491 H 0.59776 0.84862 0.36106 0.0
O492 O 0.64934 0.813 0.39367 0.0
O493 O 0.64958 0.85195 0.38405 0.0
O494 O 0.62036 0.84092 0.42041 0.0
O495 O 0.61161 0.87211 0.39604 0.0
C496 C 0.63993 0.87293 0.28338 0.0
C497 C 0.65766 0.88586 0.28738 0.0
H498 H 0.69107 0.9098 0.30237 0.0
H499 H 0.69926 0.91928 0.34566 0.0
H500 H 0.58603 0.83602 0.32001 0.0
H501 H 0.60502 0.84765 0.28294 0.0
H502 H 0.63584 0.86788 0.26489 0.0
H503 H 0.66695 0.89051 0.27191 0.0
Mn504 Mn 0.36324 0.84528 0.08538 0.0
Mn505 Mn 0.37891 0.8861 0.12743 0.0
C506 C 0.36659 0.83355 0.12599 0.0
C507 C 0.33731 0.8277 0.0632 0.0
C508 C 0.40651 0.86053 0.09174 0.0
O509 O 0.35995 0.87776 0.06768 0.0
O510 O 0.36868 0.90317 0.0981 0.0
C511 C 0.34004 0.90778 0.13957 0.0
N512 N 0.3571 0.89681 0.14687 0.0
C513 C 0.34777 0.89993 0.18927 0.0
C514 C 0.33015 0.9114 0.18222 0.0
C515 C 0.32623 0.91524 0.15725 0.0
C516 C 0.36091 0.89278 0.17081 0.0
H517 H 0.33702 0.91081 0.12039 0.0
C518 C 0.36234 0.89911 0.07643 0.0
O519 O 0.35541 0.82696 0.05525 0.0
O520 O 0.33431 0.83905 0.08368 0.0
N521 N 0.38921 0.87283 0.15717 0.0
C522 C 0.40658 0.86082 0.16083 0.0
C523 C 0.4129 0.85602 0.18483 0.0
C524 C 0.40136 0.8637 0.20477 0.0
C525 C 0.38341 0.87568 0.20056 0.0
C526 C 0.37808 0.88043 0.17628 0.0
H527 H 0.41569 0.85529 0.14558 0.0
O528 O 0.36625 0.81742 0.10865 0.0
O529 O 0.36458 0.85612 0.11913 0.0
O530 O 0.39343 0.84738 0.08122 0.0
O531 O 0.40245 0.87577 0.10871 0.0
C532 C 0.37061 0.88313 0.21951 0.0
C533 C 0.35272 0.89507 0.21385 0.0
H534 H 0.31947 0.9172 0.19581 0.0
H535 H 0.31263 0.92399 0.15166 0.0
H536 H 0.42672 0.84659 0.18796 0.0
H537 H 0.40635 0.86013 0.22327 0.0
H538 H 0.37429 0.87952 0.23847 0.0
H539 H 0.34287 0.90041 0.22854 0.0
Mn540 Mn 0.64763 0.16168 0.58711 0.0
Mn541 Mn 0.63262 0.11978 0.62849 0.0
C542 C 0.64433 0.17254 0.62796 0.0
C543 C 0.67286 0.18047 0.56482 0.0
C544 C 0.60454 0.14549 0.59365 0.0
O545 O 0.65151 0.1296 0.56886 0.0
O546 O 0.64253 0.10346 0.59852 0.0
C547 C 0.67178 0.0982 0.63922 0.0
N548 N 0.65478 0.10888 0.64717 0.0
C549 C 0.66478 0.10499 0.68925 0.0
C550 C 0.68236 0.09383 0.68154 0.0
C551 C 0.6859 0.09052 0.6564 0.0
C552 C 0.65132 0.11238 0.67127 0.0
H553 H 0.67452 0.09556 0.61992 0.0
C554 C 0.649 0.10804 0.577 0.0
O555 O 0.65472 0.18048 0.55706 0.0
O556 O 0.67639 0.16917 0.58519 0.0
N557 N 0.62267 0.13228 0.65876 0.0
C558 C 0.60529 0.14404 0.66309 0.0
C559 C 0.59932 0.14833 0.68734 0.0
C560 C 0.61122 0.14037 0.70683 0.0
C561 C 0.62917 0.12864 0.70193 0.0
C562 C 0.63415 0.12443 0.67743 0.0
H563 H 0.59591 0.14978 0.64818 0.0
O564 O 0.64416 0.189 0.61093 0.0
O565 O 0.64667 0.15015 0.62065 0.0
O566 O 0.61751 0.15872 0.58308 0.0
O567 O 0.60872 0.13024 0.61055 0.0
C568 C 0.64231 0.12096 0.72039 0.0
C569 C 0.66018 0.10931 0.71405 0.0
H570 H 0.69328 0.08786 0.69474 0.0
H571 H 0.69946 0.082 0.6503 0.0
H572 H 0.5855 0.15756 0.691 0.0
H573 H 0.6065 0.14353 0.72551 0.0
H574 H 0.63891 0.12415 0.73951 0.0
H575 H 0.67029 0.10377 0.72838 0.0
H576 H 0.09296 0.34006 0.11427 0.0
H577 H 0.05699 0.34108 0.1122 0.0
H578 H 0.06 0.3434 0.03326 0.0
H579 H 0.09618 0.34063 0.03537 0.0
H580 H 0.03442 0.37434 0.09782 0.0
H581 H 0.01784 0.29431 0.03975 0.0
H582 H 0.04221 0.30004 0.05172 0.0
H583 H 0.03377 0.31559 0.02463 0.0
C584 C 0.08592 0.34046 0.09646 0.0
C585 C 0.0973 0.34021 0.07497 0.0
C586 C 0.06534 0.34108 0.09527 0.0
C587 C 0.05559 0.34206 0.07257 0.0
C588 C 0.067 0.3419 0.051 0.0
H589 H 0.93379 0.39593 0.07506 0.0
H590 H 0.96929 0.39157 0.06759 0.0
C591 C 0.08769 0.34054 0.05219 0.0
C592 C 0.03364 0.34472 0.07195 0.0
H593 H 0.99108 0.32137 0.0477 0.0
C594 C 0.02499 0.3626 0.08693 0.0
C595 C 0.02117 0.32934 0.05796 0.0
C596 C 0.0292 0.30859 0.04282 0.0
C597 C 1.00442 0.36529 0.08869 0.0
C598 C 0.99197 0.35063 0.07393 0.0
C599 C 1.00057 0.33286 0.05876 0.0
C600 C 0.97001 0.3528 0.07488 0.0
C601 C 0.99638 0.38315 0.10724 0.0
C602 C 0.95825 0.33219 0.07954 0.0
C603 C 0.9378 0.33454 0.08282 0.0
C604 C 0.92884 0.35758 0.0819 0.0
C605 C 0.94043 0.378 0.07616 0.0
C606 C 0.96074 0.37555 0.07215 0.0
H607 H 1.00724 0.38678 0.12207 0.0
H608 H 0.99325 0.40075 0.09805 0.0
H609 H 0.98254 0.37635 0.11576 0.0
H610 H 0.96497 0.3144 0.08157 0.0
H611 H 0.92918 0.31853 0.08732 0.0
H612 H 0.92493 0.63544 0.59631 0.0
H613 H 0.96081 0.63512 0.59206 0.0
H614 H 0.9569 0.68782 0.53376 0.0
H615 H 0.9207 0.68832 0.53794 0.0
H616 H 0.98475 0.62484 0.54907 0.0
H617 H 0.995 0.71878 0.58562 0.0
H618 H 0.97237 0.70195 0.59015 0.0
H619 H 0.97793 0.71463 0.56069 0.0
C620 C 0.93163 0.6469 0.58246 0.0
C621 C 0.91997 0.66202 0.56754 0.0
C622 C 0.95216 0.64665 0.58004 0.0
C623 C 0.96151 0.66163 0.5628 0.0
C624 C 0.94995 0.67634 0.54739 0.0
H625 H 0.09086 0.68185 0.55864 0.0
H626 H 0.05581 0.68519 0.5477 0.0
C627 C 0.9293 0.6765 0.54971 0.0
C628 C 0.9834 0.66194 0.56166 0.0
H629 H 0.02362 0.69577 0.57816 0.0
C630 C 0.99329 0.64045 0.5551 0.0
C631 C 0.99448 0.68238 0.56942 0.0
C632 C 0.98452 0.70577 0.57702 0.0
C633 C 0.01393 0.63858 0.55685 0.0
C634 C 0.02493 0.65855 0.56591 0.0
C635 C 0.01515 0.68045 0.57132 0.0
C636 C 0.04625 0.65633 0.57191 0.0
C637 C 0.02374 0.61507 0.5493 0.0
C638 C 0.05244 0.63929 0.58942 0.0
C639 C 0.07237 0.63734 0.59573 0.0
C640 C 0.08662 0.65252 0.58479 0.0
C641 C 0.08034 0.66979 0.56737 0.0
C642 C 0.06032 0.67174 0.56108 0.0
H643 H 0.01462 0.60497 0.53577 0.0
H644 H 0.03857 0.61843 0.54125 0.0
H645 H 0.02556 0.60328 0.56564 0.0
H646 H 0.04179 0.62764 0.59848 0.0
H647 H 0.07653 0.62396 0.60935 0.0
H648 H 0.9234 0.68053 0.94067 0.0
H649 H 0.95896 0.68619 0.9479 0.0
H650 H 0.97202 0.63263 0.89255 0.0
H651 H 0.93691 0.62686 0.88511 0.0
H652 H 0.98955 0.65004 0.96051 0.0
H653 H 1.00273 0.69455 0.87088 0.0
H654 H 0.9784 0.69188 0.88425 0.0
H655 H 0.98939 0.66636 0.86876 0.0
C656 C 0.93384 0.66988 0.9301 0.0
C657 C 0.92718 0.65335 0.91218 0.0
C658 C 0.95414 0.67314 0.93428 0.0
C659 C 0.96811 0.6601 0.92048 0.0
C660 C 0.96151 0.64318 0.90311 0.0
H661 H 0.09135 0.63853 0.89845 0.0
H662 H 0.05529 0.63915 0.89935 0.0
C663 C 0.94134 0.63986 0.89897 0.0
C664 C 0.98965 0.66408 0.92374 0.0
H665 H 0.03121 0.68003 0.89209 0.0
C666 C 0.99868 0.65694 0.94574 0.0
C667 C 1.00149 0.67315 0.90444 0.0
C668 C 0.99253 0.68215 0.88082 0.0
C669 C 0.01938 0.65743 0.94844 0.0
C670 C 0.03125 0.66559 0.92873 0.0
C671 C 0.02211 0.67361 0.90712 0.0
C672 C 0.05321 0.66467 0.92942 0.0
C673 C 0.02843 0.64818 0.9719 0.0
C674 C 0.0641 0.6788 0.94608 0.0
C675 C 0.08483 0.67847 0.94563 0.0
C676 C 0.095 0.66407 0.92843 0.0
C677 C 0.08401 0.64982 0.91194 0.0
C678 C 0.06337 0.65016 0.91241 0.0
H679 H 0.01755 0.63813 0.98331 0.0
H680 H 0.04113 0.63598 0.96795 0.0
H681 H 0.034 0.66384 0.98271 0.0
H682 H 0.05658 0.69045 0.95909 0.0
H683 H 0.09286 0.68974 0.9585 0.0
H684 H 0.07303 0.3836 0.38995 0.0
H685 H 0.03806 0.37764 0.39839 0.0
H686 H 0.05221 0.32194 0.45112 0.0
H687 H 0.08757 0.32775 0.44285 0.0
H688 H 0.01776 0.3312 0.39251 0.0
H689 H 0.0123 0.36885 0.48702 0.0
H690 H 0.03241 0.37667 0.46671 0.0
H691 H 0.03159 0.34714 0.48064 0.0
C692 C 0.06886 0.37018 0.40354 0.0
C693 C 0.08325 0.35614 0.4157 0.0
C694 C 0.04879 0.36681 0.40831 0.0
C695 C 0.04255 0.34948 0.42547 0.0
C696 C 0.05675 0.33563 0.43801 0.0
H697 H 0.91771 0.31839 0.46133 0.0
H698 H 0.95405 0.31748 0.46208 0.0
C699 C 0.07695 0.33893 0.43318 0.0
C700 C 0.02108 0.34534 0.42902 0.0
H701 H 0.98274 0.35573 0.46845 0.0
C702 C 0.01012 0.33634 0.4092 0.0
C703 C 0.0112 0.35185 0.45089 0.0
C704 C 0.02236 0.36179 0.47259 0.0
C705 C 0.98948 0.33432 0.41037 0.0
C706 C 0.97945 0.34201 0.43176 0.0
C707 C 0.99046 0.35 0.45202 0.0
C708 C 0.95755 0.34341 0.43259 0.0
C709 C 0.97855 0.3242 0.38854 0.0
C710 C 0.94754 0.35878 0.41626 0.0
C711 C 0.92692 0.35932 0.41577 0.0
C712 C 0.91582 0.34462 0.43174 0.0
C713 C 0.92585 0.32988 0.44875 0.0
C714 C 0.94658 0.32933 0.44921 0.0
H715 H 0.98831 0.31265 0.377 0.0
H716 H 0.96559 0.31322 0.39435 0.0
H717 H 0.97317 0.33949 0.37706 0.0
H718 H 0.95571 0.37019 0.40363 0.0
H719 H 0.91969 0.37105 0.40257 0.0
H720 H 0.42281 0.82996 0.057 0.0
H721 H 0.45806 0.82376 0.04812 0.0
H722 H 0.47321 0.87795 0.10199 0.0
H723 H 0.43839 0.88429 0.11104 0.0
H724 H 0.4892 0.86035 0.03419 0.0
H725 H 0.5029 0.81416 0.12288 0.0
H726 H 0.47849 0.81715 0.10982 0.0
H727 H 0.48968 0.84242 0.12548 0.0
C728 C 0.43363 0.84066 0.06686 0.0
C729 C 0.42766 0.85751 0.08488 0.0
C730 C 0.45375 0.83711 0.06173 0.0
C731 C 0.4682 0.85019 0.07464 0.0
C732 C 0.46229 0.86745 0.09205 0.0
H733 H 0.58999 0.87236 0.09653 0.0
H734 H 0.55406 0.87165 0.09393 0.0
C735 C 0.4423 0.87107 0.09714 0.0
C736 C 0.48958 0.84564 0.0707 0.0
H737 H 0.53127 0.82862 0.10138 0.0
C738 C 0.49842 0.85302 0.04865 0.0
C739 C 0.5015 0.83595 0.08958 0.0
C740 C 0.49268 0.82674 0.11321 0.0
C741 C 0.51909 0.85231 0.04561 0.0
C742 C 0.53106 0.84377 0.06503 0.0
C743 C 0.52207 0.8353 0.08657 0.0
C744 C 0.55296 0.84536 0.06449 0.0
C745 C 0.52807 0.86182 0.02222 0.0
C746 C 0.56435 0.83103 0.0485 0.0
C747 C 0.58507 0.83141 0.04991 0.0
C748 C 0.59465 0.84604 0.06743 0.0
C749 C 0.58313 0.86082 0.08288 0.0
C750 C 0.56256 0.86044 0.08144 0.0
H751 H 0.51697 0.87097 0.01039 0.0
H752 H 0.54014 0.87489 0.02636 0.0
H753 H 0.5346 0.84644 0.01181 0.0
H754 H 0.55723 0.81902 0.03549 0.0
H755 H 0.59354 0.81974 0.03784 0.0
H756 H 0.57273 0.12059 0.61183 0.0
H757 H 0.53802 0.12553 0.60129 0.0
H758 H 0.55323 0.18133 0.54909 0.0
H759 H 0.58825 0.17671 0.55967 0.0
H760 H 0.52165 0.19403 0.5799 0.0
H761 H 0.50953 0.10289 0.53946 0.0
H762 H 0.52071 0.10134 0.56919 0.0
H763 H 0.53392 0.11537 0.5443 0.0
C764 C 0.56884 0.13382 0.59794 0.0
C765 C 0.58342 0.14815 0.58651 0.0
C766 C 0.54892 0.13651 0.59184 0.0
C767 C 0.54305 0.15347 0.57407 0.0
C768 C 0.55746 0.16797 0.56269 0.0
H769 H 0.41839 0.19009 0.53946 0.0
H770 H 0.45463 0.18869 0.53617 0.0
C771 C 0.57748 0.16527 0.56876 0.0
C772 C 0.52173 0.15655 0.56836 0.0
H773 H 0.48044 0.12447 0.5525 0.0
C774 C 0.51266 0.179 0.57345 0.0
C775 C 0.51006 0.13695 0.55981 0.0
C776 C 0.51908 0.11286 0.55263 0.0
C777 C 0.49204 0.18186 0.57169 0.0
C778 C 0.48029 0.16184 0.5644 0.0
C779 C 0.48948 0.13977 0.55819 0.0
C780 C 0.45839 0.16259 0.56548 0.0
C781 C 0.48286 0.20585 0.57891 0.0
C782 C 0.44852 0.14807 0.58269 0.0
C783 C 0.42796 0.14882 0.58459 0.0
C784 C 0.41676 0.164 0.5692 0.0
C785 C 0.42661 0.17824 0.5516 0.0
C786 C 0.4473 0.17756 0.54978 0.0
H787 H 0.49376 0.21843 0.58734 0.0
H788 H 0.47662 0.21479 0.56242 0.0
H789 H 0.47056 0.20286 0.59205 0.0
H790 H 0.45678 0.13636 0.59494 0.0
H791 H 0.42087 0.13755 0.5983 0.0
H792 H 0.59263 0.13666 0.90304 0.0
H793 H 0.55667 0.13639 0.90617 0.0
H794 H 0.55946 0.18849 0.96511 0.0
H795 H 0.59571 0.18895 0.96205 0.0
H796 H 0.53243 0.12517 0.94829 0.0
H797 H 0.52134 0.21964 0.91369 0.0
H798 H 0.54424 0.20334 0.90922 0.0
H799 H 0.53821 0.21542 0.9388 0.0
C800 C 0.58566 0.14804 0.91675 0.0
C801 C 0.59705 0.16291 0.93224 0.0
C802 C 0.56508 0.14783 0.91852 0.0
C803 C 0.55538 0.1626 0.93568 0.0
C804 C 0.56666 0.17719 0.95152 0.0
H805 H 0.42569 0.18058 0.9411 0.0
H806 H 0.46081 0.18439 0.95166 0.0
C807 C 0.58735 0.17733 0.94984 0.0
C808 C 0.53346 0.16256 0.93654 0.0
H809 H 0.49288 0.19624 0.92102 0.0
C810 C 0.52376 0.1408 0.94262 0.0
C811 C 0.52217 0.18302 0.92929 0.0
C812 C 0.53191 0.2067 0.92222 0.0
C813 C 0.50313 0.1387 0.94092 0.0
C814 C 0.49192 0.15874 0.93241 0.0
C815 C 0.50151 0.18088 0.92745 0.0
C816 C 0.47056 0.15638 0.92655 0.0
C817 C 0.49355 0.1149 0.94797 0.0
C818 C 0.46444 0.13968 0.90867 0.0
C819 C 0.44449 0.13746 0.9026 0.0
C820 C 0.4301 0.15202 0.91415 0.0
C821 C 0.4363 0.16898 0.93191 0.0
C822 C 0.45637 0.1712 0.93797 0.0
H823 H 0.50283 0.10457 0.96114 0.0
H824 H 0.47875 0.1179 0.95624 0.0
H825 H 0.49171 0.1035 0.93135 0.0
H826 H 0.47516 0.12848 0.89918 0.0
H827 H 0.4404 0.12434 0.88868 0.0
H828 H 0.41904 0.83974 0.46635 0.0
H829 H 0.45525 0.84232 0.46944 0.0
H830 H 0.45925 0.84787 0.39079 0.0
H831 H 0.42335 0.84669 0.3878 0.0
H832 H 0.48513 0.81623 0.45403 0.0
H833 H 0.49066 0.90577 0.40903 0.0
H834 H 0.46724 0.89299 0.41803 0.0
H835 H 0.47839 0.8847 0.38919 0.0
C836 C 0.42772 0.84162 0.44979 0.0
C837 C 0.4184 0.84345 0.42688 0.0
C838 C 0.44839 0.84306 0.45155 0.0
C839 C 0.46002 0.84605 0.43039 0.0
C840 C 0.45066 0.84659 0.40747 0.0
H841 H 0.58465 0.81488 0.41089 0.0
H842 H 0.54899 0.81246 0.41832 0.0
C843 C 0.4301 0.84573 0.40576 0.0
C844 C 0.48192 0.84851 0.43198 0.0
H845 H 0.52045 0.88198 0.40985 0.0
C846 C 0.49287 0.8308 0.44466 0.0
C847 C 0.49211 0.86786 0.42037 0.0
C848 C 0.48145 0.88903 0.40866 0.0
C849 C 0.51367 0.83137 0.44518 0.0
C850 C 0.52387 0.84958 0.43178 0.0
C851 C 0.51283 0.86775 0.41988 0.0
C852 C 0.54586 0.85021 0.42935 0.0
C853 C 0.52436 0.81264 0.46044 0.0
C854 C 0.55611 0.87231 0.43239 0.0
C855 C 0.57629 0.87387 0.42715 0.0
C856 C 0.5868 0.85324 0.41945 0.0
C857 C 0.57687 0.83092 0.41726 0.0
C858 C 0.5565 0.82951 0.42173 0.0
H859 H 0.5151 0.80658 0.47611 0.0
H860 H 0.52748 0.79638 0.44902 0.0
H861 H 0.53852 0.81982 0.46771 0.0
H862 H 0.54837 0.88858 0.43822 0.0
H863 H 0.58368 0.89129 0.42889 0.0
H864 H 0.17826 0.28535 0.14268 0.0
H865 H 0.17991 0.27857 0.18727 0.0
H866 H 0.1562 0.35053 0.19943 0.0
H867 H 0.15487 0.35732 0.15533 0.0
H868 H 0.1881 0.34105 0.22789 0.0
H869 H 0.13421 0.26506 0.23409 0.0
H870 H 0.15503 0.26047 0.21414 0.0
H871 H 0.13694 0.28325 0.20679 0.0
C872 C 0.17352 0.29964 0.15503 0.0
C873 C 0.16695 0.32207 0.1458 0.0
C874 C 0.17431 0.29572 0.1804 0.0
C875 C 0.168 0.31397 0.19668 0.0
C876 C 0.16119 0.33621 0.18726 0.0
H877 H 0.12136 0.31415 0.3405 0.0
H878 H 0.12981 0.30689 0.29758 0.0
C879 C 0.16057 0.34015 0.16209 0.0
C880 C 0.16862 0.31064 0.22364 0.0
H881 H 0.1473 0.27985 0.27096 0.0
C882 C 0.17936 0.32757 0.23738 0.0
C883 C 0.1572 0.29292 0.23591 0.0
C884 C 0.14506 0.27444 0.22208 0.0
C885 C 0.17825 0.3284 0.26297 0.0
C886 C 0.16601 0.31138 0.27548 0.0
C887 C 0.15629 0.29331 0.26164 0.0
C888 C 0.16129 0.3135 0.30218 0.0
C889 C 0.18991 0.3482 0.27562 0.0
C890 C 0.17596 0.31859 0.31969 0.0
C891 C 0.17072 0.32529 0.3435 0.0
C892 C 0.15087 0.32497 0.35081 0.0
C893 C 0.13654 0.31623 0.33462 0.0
C894 C 0.14155 0.31144 0.31024 0.0
H895 H 0.19303 0.36375 0.26318 0.0
H896 H 0.18219 0.3554 0.29188 0.0
H897 H 0.20436 0.34066 0.28151 0.0
H898 H 0.19145 0.31837 0.31481 0.0
H899 H 0.18218 0.33061 0.35627 0.0
H900 H 0.84559 0.72405 0.64098 0.0
H901 H 0.84624 0.73318 0.68518 0.0
H902 H 0.86863 0.661 0.69951 0.0
H903 H 0.86823 0.65211 0.65565 0.0
H904 H 0.82676 0.70919 0.72398 0.0
H905 H 0.9079 0.7053 0.73493 0.0
H906 H 0.89615 0.7077 0.70534 0.0
H907 H 0.8984 0.67856 0.72021 0.0
C908 C 0.8506 0.71025 0.65371 0.0
C909 C 0.85633 0.68719 0.64523 0.0
C910 C 0.85098 0.71544 0.67882 0.0
C911 C 0.85766 0.69783 0.69553 0.0
C912 C 0.8637 0.67496 0.68689 0.0
H913 H 0.83591 0.66358 0.8432 0.0
H914 H 0.83315 0.67451 0.80006 0.0
C915 C 0.86323 0.66978 0.66193 0.0
C916 C 0.85813 0.70287 0.72213 0.0
H917 H 0.88874 0.70033 0.77147 0.0
C918 C 0.84031 0.70744 0.73443 0.0
C919 C 0.87589 0.70146 0.73563 0.0
C920 C 0.89569 0.69826 0.72331 0.0
C921 C 0.8396 0.70876 0.7601 0.0
C922 C 0.85713 0.70487 0.77378 0.0
C923 C 0.87515 0.70246 0.76123 0.0
C924 C 0.85708 0.70081 0.80073 0.0
C925 C 0.82003 0.7143 0.77212 0.0
C926 C 0.8716 0.71156 0.81569 0.0
C927 C 0.87368 0.70446 0.84015 0.0
C928 C 0.86141 0.68634 0.84993 0.0
C929 C 0.84603 0.67689 0.83564 0.0
C930 C 0.84413 0.68366 0.81113 0.0
H931 H 0.81114 0.72684 0.76057 0.0
H932 H 0.81146 0.69718 0.77405 0.0
H933 H 0.82195 0.72268 0.79046 0.0
H934 H 0.88173 0.72491 0.80824 0.0
H935 H 0.8853 0.71246 0.85116 0.0
H936 H 0.15574 0.64215 0.8504 0.0
H937 H 0.15588 0.64764 0.80613 0.0
H938 H 0.17974 0.72001 0.81519 0.0
H939 H 0.17809 0.71502 0.85992 0.0
H940 H 0.1537 0.72198 0.78149 0.0
H941 H 0.19976 0.64229 0.76023 0.0
H942 H 0.178 0.6322 0.77594 0.0
H943 H 0.19519 0.65233 0.79104 0.0
C944 C 0.16138 0.65904 0.84289 0.0
C945 C 0.16739 0.67795 0.85841 0.0
C946 C 0.1615 0.66219 0.81754 0.0
C947 C 0.16833 0.68403 0.80707 0.0
C948 C 0.17451 0.70293 0.8227 0.0
H949 H 0.18291 0.66887 0.64966 0.0
H950 H 0.19047 0.67778 0.69232 0.0
C951 C 0.17377 0.70003 0.84819 0.0
C952 C 0.16837 0.68717 0.77992 0.0
H953 H 0.18029 0.65769 0.72723 0.0
C954 C 0.15961 0.70798 0.76956 0.0
C955 C 0.17662 0.66946 0.76412 0.0
C956 C 0.18811 0.64791 0.77342 0.0
C957 C 0.15805 0.71088 0.74399 0.0
C958 C 0.16468 0.69194 0.72832 0.0
C959 C 0.17445 0.67194 0.73882 0.0
C960 C 0.1612 0.69149 0.70125 0.0
C961 C 0.14987 0.73455 0.73434 0.0
C962 C 0.1426 0.69734 0.69122 0.0
C963 C 0.13875 0.69359 0.6663 0.0
C964 C 0.15292 0.68229 0.65146 0.0
C965 C 0.1716 0.67704 0.66107 0.0
C966 C 0.17585 0.68208 0.68552 0.0
H967 H 0.15369 0.74989 0.74673 0.0
H968 H 0.1556 0.7388 0.71578 0.0
H969 H 0.1335 0.73343 0.73365 0.0
H970 H 0.13067 0.70372 0.70273 0.0
H971 H 0.12434 0.69814 0.65899 0.0
H972 H 0.84188 0.35554 0.15911 0.0
H973 H 0.83844 0.34689 0.20277 0.0
H974 H 0.88373 0.29179 0.19706 0.0
H975 H 0.88836 0.30222 0.15367 0.0
H976 H 0.82766 0.30835 0.2271 0.0
H977 H 0.90273 0.30114 0.23597 0.0
H978 H 0.90524 0.32924 0.25246 0.0
H979 H 0.89723 0.32937 0.22113 0.0
C980 C 0.85161 0.34228 0.16746 0.0
C981 C 0.86626 0.3307 0.15356 0.0
C982 C 0.84936 0.33691 0.19228 0.0
C983 C 0.8612 0.3191 0.20353 0.0
C984 C 0.87491 0.30621 0.18912 0.0
H985 H 0.83868 0.28847 0.36108 0.0
H986 H 0.84024 0.28147 0.31653 0.0
C987 C 0.87752 0.31211 0.16436 0.0
C988 C 0.85901 0.31459 0.23031 0.0
H989 H 0.88346 0.31906 0.28486 0.0
C990 C 0.83992 0.31054 0.2397 0.0
C991 C 0.87506 0.31663 0.24689 0.0
C992 C 0.89619 0.31948 0.23862 0.0
C993 C 0.83627 0.31014 0.26503 0.0
C994 C 0.85208 0.31418 0.28138 0.0
C995 C 0.87131 0.31655 0.27215 0.0
C996 C 0.84898 0.31839 0.3079 0.0
C997 C 0.81551 0.30616 0.27411 0.0
C998 C 0.85326 0.34141 0.31767 0.0
C999 C 0.8524 0.34536 0.34286 0.0
C1000 C 0.84695 0.32647 0.35875 0.0
C1001 C 0.84245 0.30344 0.34903 0.0
C1002 C 0.84331 0.29946 0.32369 0.0
H1003 H 0.81442 0.28775 0.28238 0.0
H1004 H 0.81185 0.31955 0.28853 0.0
H1005 H 0.80441 0.30758 0.25919 0.0
H1006 H 0.8578 0.35621 0.30581 0.0
H1007 H 0.85668 0.36299 0.35 0.0
H1008 H 0.62718 0.79646 0.35086 0.0
H1009 H 0.63069 0.78609 0.30734 0.0
H1010 H 0.67939 0.83661 0.30149 0.0
H1011 H 0.67655 0.84568 0.34509 0.0
H1012 H 0.6243 0.8129 0.27111 0.0
H1013 H 0.70172 0.7844 0.26135 0.0
H1014 H 0.6903 0.78782 0.29101 0.0
H1015 H 0.70125 0.81367 0.2757 0.0
C1016 C 0.63878 0.80498 0.34021 0.0
C1017 C 0.65112 0.82253 0.35085 0.0
C1018 C 0.64083 0.79906 0.31541 0.0
C1019 C 0.65543 0.81038 0.301 0.0
C1020 C 0.66835 0.82707 0.31214 0.0
H1021 H 0.64656 0.8583 0.15428 0.0
H1022 H 0.64573 0.85064 0.19836 0.0
C1023 C 0.66643 0.83272 0.33694 0.0
C1024 C 0.65572 0.80707 0.27395 0.0
H1025 H 0.68662 0.80191 0.22469 0.0
C1026 C 0.63794 0.81028 0.26108 0.0
C1027 C 0.67335 0.80276 0.26059 0.0
C1028 C 0.69265 0.79669 0.27298 0.0
C1029 C 0.63752 0.81124 0.23546 0.0
C1030 C 0.6554 0.80911 0.22226 0.0
C1031 C 0.67298 0.8041 0.2349 0.0
C1032 C 0.65625 0.81351 0.19554 0.0
C1033 C 0.61793 0.815 0.22282 0.0
C1034 C 0.66286 0.79534 0.17938 0.0
C1035 C 0.66352 0.79982 0.15414 0.0
C1036 C 0.65813 0.82273 0.14496 0.0
C1037 C 0.65131 0.84072 0.1611 0.0
C1038 C 0.65059 0.83625 0.1862 0.0
H1039 H 0.60545 0.80855 0.23433 0.0
H1040 H 0.61573 0.83475 0.21944 0.0
H1041 H 0.61743 0.80535 0.20496 0.0
H1042 H 0.66729 0.77767 0.18627 0.0
H1043 H 0.66845 0.78558 0.14186 0.0
H1044 H 0.34195 0.15795 0.84072 0.0
H1045 H 0.33887 0.16817 0.79744 0.0
H1046 H 0.38371 0.22351 0.80586 0.0
H1047 H 0.38826 0.21113 0.84871 0.0
H1048 H 0.32806 0.20574 0.77397 0.0
H1049 H 0.40697 0.19095 0.74948 0.0
H1050 H 0.39884 0.18923 0.7807 0.0
H1051 H 0.40244 0.21826 0.76661 0.0
C1052 C 0.35169 0.17157 0.833 0.0
C1053 C 0.36631 0.18249 0.84741 0.0
C1054 C 0.34963 0.17788 0.80841 0.0
C1055 C 0.36154 0.19612 0.79795 0.0
C1056 C 0.37497 0.20863 0.81305 0.0
H1057 H 0.33995 0.22238 0.63926 0.0
H1058 H 0.34145 0.2316 0.68338 0.0
C1059 C 0.3775 0.20166 0.83754 0.0
C1060 C 0.35966 0.20134 0.77126 0.0
H1061 H 0.38475 0.19796 0.71703 0.0
C1062 C 0.34054 0.2043 0.76157 0.0
C1063 C 0.37597 0.20038 0.75492 0.0
C1064 C 0.39716 0.1994 0.76343 0.0
C1065 C 0.33712 0.20414 0.73623 0.0
C1066 C 0.35319 0.2007 0.72015 0.0
C1067 C 0.37242 0.19987 0.7296 0.0
C1068 C 0.35036 0.19522 0.69385 0.0
C1069 C 0.31627 0.20613 0.72683 0.0
C1070 C 0.35482 0.17178 0.68525 0.0
C1071 C 0.35402 0.16659 0.66028 0.0
C1072 C 0.34844 0.18462 0.64347 0.0
C1073 C 0.34381 0.20806 0.65203 0.0
C1074 C 0.34464 0.21331 0.67713 0.0
H1075 H 0.30527 0.20783 0.74183 0.0
H1076 H 0.31494 0.22219 0.71463 0.0
H1077 H 0.31275 0.18977 0.71589 0.0
H1078 H 0.35943 0.15764 0.69785 0.0
H1079 H 0.35845 0.14868 0.65401 0.0
H1080 H 0.65481 0.14803 0.84725 0.0
H1081 H 0.65324 0.1569 0.80343 0.0
H1082 H 0.67049 0.23119 0.81751 0.0
H1083 H 0.67256 0.22207 0.86162 0.0
H1084 H 0.6274 0.19634 0.78403 0.0
H1085 H 0.70671 0.20776 0.75906 0.0
H1086 H 0.6994 0.19095 0.78591 0.0
H1087 H 0.69674 0.22332 0.78542 0.0
C1088 C 0.65892 0.16602 0.8409 0.0
C1089 C 0.66448 0.18416 0.85761 0.0
C1090 C 0.65778 0.17116 0.81594 0.0
C1091 C 0.66188 0.19465 0.80722 0.0
C1092 C 0.66756 0.21286 0.82384 0.0
H1093 H 0.62393 0.20819 0.65198 0.0
H1094 H 0.62815 0.22118 0.69474 0.0
C1095 C 0.66871 0.20767 0.84894 0.0
C1096 C 0.65891 0.19995 0.78088 0.0
H1097 H 0.68389 0.20522 0.72697 0.0
C1098 C 0.63968 0.1985 0.77144 0.0
C1099 C 0.67489 0.20375 0.76474 0.0
C1100 C 0.69568 0.2066 0.77409 0.0
C1101 C 0.63612 0.19873 0.74612 0.0
C1102 C 0.6524 0.19994 0.72974 0.0
C1103 C 0.67146 0.20355 0.7394 0.0
C1104 C 0.65061 0.1943 0.70312 0.0
C1105 C 0.61494 0.19723 0.73762 0.0
C1106 C 0.66274 0.17609 0.69298 0.0
C1107 C 0.66083 0.1694 0.66847 0.0
C1108 C 0.64618 0.17993 0.6538 0.0
C1109 C 0.63475 0.19905 0.66335 0.0
C1110 C 0.63709 0.20637 0.68778 0.0
H1111 H 0.60937 0.21596 0.73442 0.0
H1112 H 0.61342 0.18701 0.72035 0.0
H1113 H 0.60529 0.18858 0.75159 0.0
H1114 H 0.67357 0.16671 0.70414 0.0
H1115 H 0.67073 0.1558 0.66101 0.0
H1116 H 0.34088 0.84994 0.16006 0.0
H1117 H 0.3387 0.83817 0.20302 0.0
H1118 H 0.38349 0.78336 0.19122 0.0
H1119 H 0.38709 0.7972 0.14866 0.0
H1120 H 0.32852 0.79925 0.22541 0.0
H1121 H 0.40774 0.81455 0.24792 0.0
H1122 H 0.39904 0.81676 0.21697 0.0
H1123 H 0.40293 0.78752 0.23047 0.0
C1124 C 0.35079 0.83607 0.16696 0.0
C1125 C 0.36511 0.82569 0.15169 0.0
C1126 C 0.34925 0.82889 0.19137 0.0
C1127 C 0.3614 0.81033 0.20078 0.0
C1128 C 0.37455 0.79841 0.18482 0.0
H1129 H 0.34071 0.78483 0.36008 0.0
H1130 H 0.34235 0.77443 0.31619 0.0
C1131 C 0.37654 0.80623 0.16051 0.0
C1132 C 0.36008 0.80426 0.22733 0.0
H1133 H 0.38606 0.8075 0.28088 0.0
C1134 C 0.34118 0.80076 0.2375 0.0
C1135 C 0.37666 0.80516 0.24323 0.0
C1136 C 0.39769 0.80632 0.23412 0.0
C1137 C 0.33819 0.80062 0.26292 0.0
C1138 C 0.35447 0.80433 0.2786 0.0
C1139 C 0.37354 0.80544 0.26864 0.0
C1140 C 0.35196 0.81029 0.30488 0.0
C1141 C 0.31754 0.79792 0.27283 0.0
C1142 C 0.35677 0.83381 0.31293 0.0
C1143 C 0.35588 0.83966 0.33773 0.0
C1144 C 0.34985 0.82225 0.35495 0.0
C1145 C 0.34494 0.79869 0.34698 0.0
C1146 C 0.34585 0.79278 0.32202 0.0
H1147 H 0.30621 0.79754 0.25812 0.0
H1148 H 0.31647 0.7808 0.28354 0.0
H1149 H 0.31426 0.81317 0.28536 0.0
H1150 H 0.36162 0.84755 0.30002 0.0
H1151 H 0.36051 0.85764 0.34355 0.0
H1152 H 0.3009 0.18319 0.9276 0.0
H1153 H 0.2749 0.20692 0.94776 0.0
H1154 H 0.31823 0.2388 0.99589 0.0
H1155 H 0.34435 0.21514 0.97587 0.0
H1156 H 0.26413 0.20885 0.99968 0.0
H1157 H 0.28962 0.29772 0.96278 0.0
H1158 H 0.29714 0.26894 0.94976 0.0
H1159 H 0.30833 0.27971 0.97753 0.0
C1160 C 0.3049 0.19516 0.94255 0.0
C1161 C 0.32472 0.19737 0.95006 0.0
C1162 C 0.29001 0.20869 0.95405 0.0
C1163 C 0.29468 0.22484 0.97308 0.0
C1164 C 0.31437 0.22668 0.98099 0.0
H1165 H 0.23575 0.32814 0.06514 0.0
H1166 H 0.25832 0.3026 0.0419 0.0
C1167 C 0.32925 0.21306 0.96961 0.0
C1168 C 0.27902 0.23999 0.98451 0.0
H1169 H 0.26446 0.29893 0.99293 0.0
C1170 C 0.26407 0.22854 0.99811 0.0
C1171 C 0.27898 0.26564 0.98231 0.0
C1172 C 0.29426 0.27881 0.96715 0.0
C1173 C 0.24948 0.24215 0.01036 0.0
C1174 C 0.24961 0.26788 0.00846 0.0
C1175 C 0.26435 0.27923 0.99439 0.0
C1176 C 0.2354 0.2835 0.0221 0.0
C1177 C 0.23456 0.22891 0.026 0.0
C1178 C 0.21488 0.2816 0.01848 0.0
C1179 C 0.20178 0.29622 0.03192 0.0
C1180 C 0.20897 0.3132 0.04907 0.0
C1181 C 0.22957 0.31536 0.05214 0.0
C1182 C 0.24258 0.30072 0.03883 0.0
H1183 H 0.23932 0.21 0.03017 0.0
H1184 H 0.23204 0.23869 0.04352 0.0
H1185 H 0.22028 0.22794 0.01606 0.0
H1186 H 0.209 0.26884 0.00525 0.0
H1187 H 0.18604 0.29412 0.02897 0.0
H1188 H 0.78196 0.68429 0.57255 0.0
H1189 H 0.75919 0.71037 0.55004 0.0
H1190 H 0.80782 0.74025 0.50886 0.0
H1191 H 0.8309 0.71402 0.53124 0.0
H1192 H 0.75988 0.76222 0.54774 0.0
H1193 H 0.7674 0.71977 0.45572 0.0
H1194 H 0.77528 0.70461 0.48339 0.0
H1195 H 0.79003 0.72858 0.47052 0.0
C1196 C 0.78791 0.69622 0.55859 0.0
C1197 C 0.80836 0.6969 0.5537 0.0
C1198 C 0.77482 0.7112 0.54578 0.0
C1199 C 0.78176 0.72709 0.52764 0.0
C1200 C 0.80211 0.72784 0.52256 0.0
H1201 H 0.71594 0.82498 0.43091 0.0
H1202 H 0.7423 0.80326 0.45252 0.0
C1203 C 0.81529 0.71289 0.53545 0.0
C1204 C 0.76763 0.74325 0.51462 0.0
H1205 H 0.74668 0.75416 0.45879 0.0
C1206 C 0.75702 0.76052 0.52828 0.0
C1207 C 0.76401 0.74108 0.48921 0.0
C1208 C 0.77463 0.72242 0.47378 0.0
C1209 C 0.74283 0.77564 0.51725 0.0
C1210 C 0.73881 0.77305 0.49195 0.0
C1211 C 0.74973 0.75611 0.47819 0.0
C1212 C 0.72292 0.78715 0.47956 0.0
C1213 C 0.73246 0.79444 0.53278 0.0
C1214 C 0.70323 0.78529 0.4875 0.0
C1215 C 0.68815 0.79779 0.47527 0.0
C1216 C 0.69242 0.81221 0.45467 0.0
C1217 C 0.71215 0.8141 0.44677 0.0
C1218 C 0.72724 0.80165 0.45907 0.0
H1219 H 0.74127 0.7992 0.54926 0.0
H1220 H 0.72953 0.81134 0.52222 0.0
H1221 H 0.7181 0.78696 0.5391 0.0
H1222 H 0.69944 0.77377 0.50289 0.0
H1223 H 0.6731 0.79576 0.4817 0.0
H1224 H 0.3385 0.80381 0.01912 0.0
H1225 H 0.31161 0.78137 0.9992 0.0
H1226 H 0.27229 0.80073 0.0582 0.0
H1227 H 0.29901 0.82315 0.07822 0.0
H1228 H 0.273 0.75009 0.04634 0.0
H1229 H 0.26146 0.80803 0.96424 0.0
H1230 H 0.28666 0.79929 0.96983 0.0
H1231 H 0.27417 0.81878 0.99124 0.0
C1232 C 0.32408 0.8035 0.02772 0.0
C1233 C 0.3209 0.8153 0.05023 0.0
C1234 C 0.30871 0.79076 0.01627 0.0
C1235 C 0.2899 0.78959 0.02711 0.0
C1236 C 0.28666 0.8015 0.04947 0.0
H1237 H 0.18347 0.72505 0.96115 0.0
H1238 H 0.20585 0.75244 0.98347 0.0
C1239 C 0.30196 0.81434 0.06085 0.0
C1240 C 0.2739 0.77489 0.01583 0.0
H1241 H 0.24532 0.7695 0.96453 0.0
C1242 C 0.26685 0.75443 0.02854 0.0
C1243 C 0.26574 0.78073 0.99272 0.0
C1244 C 0.27223 0.80301 0.97873 0.0
C1245 C 0.25232 0.73921 0.01839 0.0
C1246 C 0.24468 0.74456 0.99491 0.0
C1247 C 0.25125 0.76543 0.98252 0.0
C1248 C 0.23079 0.72784 0.98233 0.0
C1249 C 0.24531 0.71738 0.03273 0.0
C1250 C 0.23743 0.70501 0.97437 0.0
C1251 C 0.22481 0.68945 0.96156 0.0
C1252 C 0.20517 0.69633 0.9565 0.0
C1253 C 0.19843 0.71911 0.96489 0.0
C1254 C 0.2112 0.73482 0.97753 0.0
H1255 H 0.24927 0.71878 0.05242 0.0
H1256 H 0.22904 0.71525 0.03111 0.0
H1257 H 0.25233 0.70072 0.02519 0.0
H1258 H 0.25255 0.69938 0.97769 0.0
H1259 H 0.23054 0.67208 0.95543 0.0
H1260 H 0.70601 0.2006 0.58433 0.0
H1261 H 0.73116 0.22486 0.56342 0.0
H1262 H 0.70137 0.21293 0.49457 0.0
H1263 H 0.67541 0.19014 0.51583 0.0
H1264 H 0.75734 0.21695 0.53147 0.0
H1265 H 0.70614 0.28396 0.4905 0.0
H1266 H 0.69794 0.26156 0.5123 0.0
H1267 H 0.70054 0.25374 0.48037 0.0
C1268 C 0.70481 0.20326 0.56473 0.0
C1269 C 0.68866 0.19374 0.55172 0.0
C1270 C 0.71922 0.2171 0.55275 0.0
C1271 C 0.71801 0.22135 0.52741 0.0
C1272 C 0.70231 0.21083 0.51423 0.0
H1273 H 0.81993 0.27733 0.44497 0.0
H1274 H 0.79612 0.25114 0.46616 0.0
C1275 C 0.68757 0.19758 0.52634 0.0
C1276 C 0.73324 0.23667 0.51496 0.0
H1277 H 0.7392 0.28458 0.4758 0.0
C1278 C 0.75334 0.23187 0.51944 0.0
C1279 C 0.72817 0.25649 0.49957 0.0
C1280 C 0.70703 0.26441 0.49563 0.0
C1281 C 0.7684 0.2462 0.50907 0.0
C1282 C 0.76333 0.2652 0.49267 0.0
C1283 C 0.74323 0.26995 0.48816 0.0
C1284 C 0.77842 0.28088 0.48038 0.0
C1285 C 0.78948 0.24124 0.5166 0.0
C1286 C 0.7762 0.30636 0.48048 0.0
C1287 C 0.78936 0.32121 0.46758 0.0
C1288 C 0.80534 0.31099 0.45482 0.0
C1289 C 0.80793 0.28564 0.45511 0.0
C1290 C 0.79438 0.27068 0.46739 0.0
H1291 H 0.79018 0.23246 0.53491 0.0
H1292 H 0.79634 0.22855 0.50327 0.0
H1293 H 0.79835 0.25823 0.5172 0.0
H1294 H 0.7641 0.3148 0.49031 0.0
H1295 H 0.78702 0.34073 0.46755 0.0
H1296 H 0.68412 0.79319 0.03094 0.0
H1297 H 0.70737 0.76648 0.00927 0.0
H1298 H 0.75559 0.7964 0.05109 0.0
H1299 H 0.7327 0.82294 0.07282 0.0
H1300 H 0.74184 0.77975 0.98113 0.0
H1301 H 0.76109 0.72213 0.06108 0.0
H1302 H 0.73944 0.74138 0.06047 0.0
H1303 H 0.76337 0.75428 0.06644 0.0
C1304 C 0.69966 0.7941 0.03554 0.0
C1305 C 0.70644 0.81023 0.05375 0.0
C1306 C 0.71293 0.77882 0.02313 0.0
C1307 C 0.73317 0.77917 0.02887 0.0
C1308 C 0.74 0.79547 0.0467 0.0
H1309 H 0.8413 0.71001 0.98084 0.0
H1310 H 0.81528 0.73284 0.00199 0.0
C1311 C 0.72683 0.81079 0.059 0.0
C1312 C 0.74734 0.76289 0.01602 0.0
H1313 H 0.78143 0.71799 0.02578 0.0
C1314 C 0.75036 0.76606 0.9908 0.0
C1315 C 0.7585 0.74513 0.02871 0.0
C1316 C 0.75537 0.74031 0.05563 0.0
C1317 C 0.76472 0.7525 0.97809 0.0
C1318 C 0.77606 0.7349 0.99085 0.0
C1319 C 0.77279 0.7315 0.01601 0.0
C1320 C 0.79164 0.72018 0.97853 0.0
C1321 C 0.76811 0.75782 0.9513 0.0
C1322 C 0.78697 0.70497 0.9587 0.0
C1323 C 0.80182 0.69197 0.94654 0.0
C1324 C 0.82165 0.69371 0.95411 0.0
C1325 C 0.8262 0.70829 0.97452 0.0
C1326 C 0.81133 0.72136 0.98661 0.0
H1327 H 0.7621 0.77589 0.94598 0.0
H1328 H 0.7841 0.75733 0.94676 0.0
H1329 H 0.7605 0.74379 0.94013 0.0
H1330 H 0.77184 0.70325 0.95251 0.0
H1331 H 0.79778 0.68078 0.931 0.0
H1332 H 0.3278 0.21573 0.52904 0.0
H1333 H 0.30484 0.24299 0.50756 0.0
H1334 H 0.25581 0.21041 0.54582 0.0
H1335 H 0.27835 0.18327 0.56726 0.0
H1336 H 0.27037 0.22984 0.4776 0.0
H1337 H 0.25041 0.28477 0.55926 0.0
H1338 H 0.27235 0.26605 0.55799 0.0
H1339 H 0.24862 0.2524 0.5635 0.0
C1340 C 0.31213 0.21431 0.53285 0.0
C1341 C 0.30501 0.19728 0.55 0.0
C1342 C 0.29905 0.22992 0.52056 0.0
C1343 C 0.27867 0.22896 0.52541 0.0
C1344 C 0.27151 0.21174 0.54212 0.0
H1345 H 0.17014 0.29755 0.47997 0.0
H1346 H 0.19665 0.27478 0.50017 0.0
C1347 C 0.28448 0.19611 0.55427 0.0
C1348 C 0.26468 0.24566 0.51292 0.0
H1349 H 0.23026 0.28986 0.52396 0.0
C1350 C 0.26175 0.24318 0.48763 0.0
C1351 C 0.2534 0.26294 0.52612 0.0
C1352 C 0.25642 0.26693 0.55319 0.0
C1353 C 0.24729 0.2569 0.4753 0.0
C1354 C 0.23578 0.27397 0.48857 0.0
C1355 C 0.23903 0.27676 0.5138 0.0
C1356 C 0.21991 0.28859 0.47677 0.0
C1357 C 0.24395 0.25227 0.44838 0.0
C1358 C 0.22422 0.30439 0.45728 0.0
C1359 C 0.20908 0.31734 0.44564 0.0
C1360 C 0.18935 0.31496 0.45344 0.0
C1361 C 0.18517 0.29977 0.4735 0.0
C1362 C 0.20031 0.28673 0.48505 0.0
H1363 H 0.25021 0.23449 0.44252 0.0
H1364 H 0.22794 0.25251 0.4439 0.0
H1365 H 0.25131 0.26678 0.43759 0.0
H1366 H 0.23928 0.30662 0.45096 0.0
H1367 H 0.21284 0.32902 0.43036 0.0
H1368 H 0.84245 0.29453 0.02542 0.0
H1369 H 0.81599 0.2714 0.00563 0.0
H1370 H 0.77332 0.30376 0.05442 0.0
H1371 H 0.79971 0.32705 0.07432 0.0
H1372 H 0.78991 0.23766 0.02994 0.0
H1373 H 0.74911 0.31348 0.98509 0.0
H1374 H 0.77433 0.31659 0.99546 0.0
H1375 H 0.75441 0.31707 0.01715 0.0
C1376 C 0.82742 0.29692 0.03182 0.0
C1377 C 0.82319 0.31267 0.05143 0.0
C1378 C 0.81232 0.28364 0.02051 0.0
C1379 C 0.79267 0.28602 0.0284 0.0
C1380 C 0.78834 0.30192 0.0478 0.0
H1381 H 0.68548 0.21398 0.97294 0.0
H1382 H 0.70824 0.23931 0.99693 0.0
C1383 C 0.80345 0.31514 0.05921 0.0
C1384 C 0.77693 0.27101 0.01695 0.0
H1385 H 0.73555 0.27407 0.9812 0.0
C1386 C 0.778 0.24561 0.01932 0.0
C1387 C 0.76129 0.28146 0.00335 0.0
C1388 C 0.75967 0.30863 0.99988 0.0
C1389 C 0.76395 0.23033 0.00829 0.0
C1390 C 0.74866 0.24069 0.99398 0.0
C1391 C 0.74729 0.26614 0.99212 0.0
C1392 C 0.73472 0.22533 0.97969 0.0
C1393 C 0.76556 0.20319 0.0122 0.0
C1394 C 0.742 0.20936 0.9618 0.0
C1395 C 0.72911 0.19485 0.94818 0.0
C1396 C 0.70853 0.1961 0.95191 0.0
C1397 C 0.70122 0.21241 0.96964 0.0
C1398 C 0.7142 0.22694 0.98335 0.0
H1399 H 0.77381 0.19887 0.02925 0.0
H1400 H 0.75074 0.19457 0.01322 0.0
H1401 H 0.77374 0.19499 0.99664 0.0
H1402 H 0.75771 0.20823 0.9582 0.0
H1403 H 0.73537 0.18278 0.93455 0.0
H1404 H 0.1718 0.71599 0.5228 0.0
H1405 H 0.19783 0.73958 0.50254 0.0
H1406 H 0.24139 0.70754 0.55026 0.0
H1407 H 0.2155 0.68387 0.5706 0.0
H1408 H 0.22407 0.77352 0.52687 0.0
H1409 H 0.26477 0.69864 0.48033 0.0
H1410 H 0.23966 0.69523 0.49108 0.0
H1411 H 0.25982 0.69443 0.51241 0.0
C1412 C 0.18694 0.71376 0.52882 0.0
C1413 C 0.19158 0.69801 0.54829 0.0
C1414 C 0.20179 0.72729 0.51726 0.0
C1415 C 0.22156 0.72515 0.52475 0.0
C1416 C 0.22628 0.70921 0.54395 0.0
H1417 H 0.32904 0.7968 0.47049 0.0
H1418 H 0.30587 0.77179 0.4942 0.0
C1419 C 0.21144 0.69576 0.55561 0.0
C1420 C 0.23707 0.74044 0.51321 0.0
H1421 H 0.27855 0.73806 0.47758 0.0
C1422 C 0.23598 0.76579 0.51608 0.0
C1423 C 0.25272 0.73026 0.49941 0.0
C1424 C 0.25435 0.70316 0.49539 0.0
C1425 C 0.2501 0.78128 0.50546 0.0
C1426 C 0.26547 0.77119 0.49107 0.0
C1427 C 0.26678 0.74578 0.4886 0.0
C1428 C 0.27962 0.78677 0.47733 0.0
C1429 C 0.24852 0.80832 0.51001 0.0
C1430 C 0.27259 0.80332 0.45983 0.0
C1431 C 0.28571 0.81766 0.44638 0.0
C1432 C 0.30628 0.81567 0.44988 0.0
C1433 C 0.31333 0.79896 0.46738 0.0
C1434 C 0.30011 0.7846 0.48091 0.0
H1435 H 0.24024 0.81227 0.52713 0.0
H1436 H 0.26335 0.81689 0.51128 0.0
H1437 H 0.24039 0.81691 0.49463 0.0
H1438 H 0.2569 0.8049 0.45627 0.0
H1439 H 0.27965 0.83009 0.43294 0.0
H1440 H 0.19335 0.58154 0.94937 0.0
H1441 H 0.18858 0.5431 0.97057 0.0
H1442 H 0.13108 0.56667 0.99493 0.0
H1443 H 0.13568 0.60567 0.97359 0.0
H1444 H 0.15503 0.5429 0.03168 0.0
H1445 H 0.15065 0.48927 0.94598 0.0
H1446 H 0.17189 0.50882 0.94716 0.0
H1447 H 0.14753 0.52193 0.94669 0.0
C1448 C 0.17967 0.57876 0.95928 0.0
C1449 C 0.16481 0.59673 0.95954 0.0
C1450 C 0.17695 0.55665 0.9713 0.0
C1451 C 0.15931 0.55183 0.9838 0.0
C1452 C 0.14472 0.56999 0.9851 0.0
H1453 H 0.13899 0.40158 0.03434 0.0
H1454 H 0.13383 0.44129 0.01487 0.0
C1455 C 0.14742 0.59228 0.97299 0.0
C1456 C 0.15644 0.5277 0.9954 0.0
H1457 H 0.15771 0.46684 0.98267 0.0
C1458 C 0.15529 0.52626 0.02098 0.0
C1459 C 0.15644 0.50602 0.98138 0.0
C1460 C 0.15649 0.50652 0.95376 0.0
C1461 C 0.15534 0.50364 0.03299 0.0
C1462 C 0.15688 0.48199 0.01902 0.0
C1463 C 0.1568 0.48343 0.99338 0.0
C1464 C 0.15989 0.45786 0.03065 0.0
C1465 C 0.15403 0.50314 0.06056 0.0
C1466 C 0.17653 0.45382 0.04537 0.0
C1467 C 0.17957 0.43123 0.05642 0.0
C1468 C 0.1661 0.41202 0.05286 0.0
C1469 C 0.14968 0.41591 0.03751 0.0
C1470 C 0.14665 0.43862 0.02644 0.0
H1471 H 0.14677 0.51981 0.06777 0.0
H1472 H 0.14571 0.48695 0.06705 0.0
H1473 H 0.16917 0.50233 0.06832 0.0
H1474 H 0.18723 0.4682 0.04832 0.0
H1475 H 0.19245 0.42896 0.06797 0.0
H1476 H 0.87233 0.6042 0.53255 0.0
H1477 H 0.87376 0.56469 0.51193 0.0
H1478 H 0.82153 0.54157 0.55075 0.0
H1479 H 0.82011 0.58073 0.57174 0.0
H1480 H 0.85139 0.50708 0.55159 0.0
H1481 H 0.83805 0.5403 0.45694 0.0
H1482 H 0.85843 0.55452 0.47241 0.0
H1483 H 0.8337 0.559 0.48357 0.0
C1484 C 0.86102 0.59082 0.53657 0.0
C1485 C 0.84603 0.59578 0.55376 0.0
C1486 C 0.86185 0.56824 0.5247 0.0
C1487 C 0.84764 0.55027 0.52963 0.0
C1488 C 0.83265 0.55518 0.54667 0.0
H1489 H 0.8146 0.42442 0.44684 0.0
H1490 H 0.81728 0.46269 0.46905 0.0
C1491 C 0.83183 0.57767 0.55859 0.0
C1492 C 0.84841 0.52616 0.51736 0.0
H1493 H 0.84514 0.49845 0.46156 0.0
C1494 C 0.85009 0.50516 0.5319 0.0
C1495 C 0.84658 0.52372 0.49168 0.0
C1496 C 0.84391 0.54553 0.4752 0.0
C1497 C 0.84978 0.48176 0.52148 0.0
C1498 C 0.84803 0.47934 0.49579 0.0
C1499 C 0.84659 0.50036 0.48124 0.0
C1500 C 0.84637 0.45524 0.48364 0.0
C1501 C 0.85065 0.45984 0.53809 0.0
C1502 C 0.86179 0.43812 0.48467 0.0
C1503 C 0.86026 0.41597 0.47203 0.0
C1504 C 0.84337 0.4107 0.45796 0.0
C1505 C 0.82787 0.4278 0.45739 0.0
C1506 C 0.82937 0.44978 0.47005 0.0
H1507 H 0.84756 0.46471 0.55746 0.0
H1508 H 0.83987 0.44576 0.5322 0.0
H1509 H 0.86565 0.45174 0.5372 0.0
H1510 H 0.87518 0.44213 0.49473 0.0
H1511 H 0.87254 0.40334 0.47271 0.0
H1512 H 0.85922 0.39617 0.02287 0.0
H1513 H 0.85502 0.43092 0.99509 0.0
H1514 H 0.85326 0.47969 0.05692 0.0
H1515 H 0.85708 0.44537 0.08467 0.0
H1516 H 0.82533 0.49105 0.02085 0.0
H1517 H 0.90064 0.47866 0.98184 0.0
H1518 H 0.88459 0.45268 0.97971 0.0
H1519 H 0.89259 0.4632 0.00923 0.0
C1520 C 0.85769 0.41425 0.03054 0.0
C1521 C 0.85877 0.41796 0.056 0.0
C1522 C 0.85542 0.4341 0.01465 0.0
C1523 C 0.8542 0.45792 0.02396 0.0
C1524 C 0.8543 0.46149 0.04934 0.0
H1525 H 0.85659 0.60715 0.97206 0.0
H1526 H 0.85288 0.56986 0.99629 0.0
C1527 C 0.85658 0.44178 0.06518 0.0
C1528 C 0.85375 0.47939 0.00751 0.0
H1529 H 0.8817 0.51113 0.9664 0.0
C1530 C 0.83759 0.4954 0.00882 0.0
C1531 C 0.86985 0.48511 0.99201 0.0
C1532 C 0.888 0.46917 0.99066 0.0
C1533 C 0.83706 0.51694 0.99495 0.0
C1534 C 0.85327 0.52278 0.97969 0.0
C1535 C 0.86929 0.5066 0.97813 0.0
C1536 C 0.85406 0.54555 0.96511 0.0
C1537 C 0.81909 0.53313 0.99656 0.0
C1538 C 0.85612 0.54426 0.93962 0.0
C1539 C 0.85839 0.56543 0.92579 0.0
C1540 C 0.85876 0.58846 0.93715 0.0
C1541 C 0.8563 0.58977 0.9627 0.0
C1542 C 0.85406 0.56847 0.97656 0.0
H1543 H 0.80606 0.52317 0.00383 0.0
H1544 H 0.82228 0.54852 0.00912 0.0
H1545 H 0.81528 0.54078 0.97834 0.0
H1546 H 0.85619 0.52678 0.93042 0.0
H1547 H 0.8601 0.56364 0.90615 0.0
H1548 H 0.15309 0.44501 0.40919 0.0
H1549 H 0.15755 0.48149 0.43383 0.0
H1550 H 0.15708 0.43802 0.49956 0.0
H1551 H 0.15281 0.40105 0.47491 0.0
H1552 H 0.13125 0.49819 0.46837 0.0
H1553 H 0.20502 0.48243 0.50993 0.0
H1554 H 0.1962 0.46531 0.4839 0.0
H1555 H 0.18773 0.45797 0.5142 0.0
C1556 C 0.15409 0.44304 0.42888 0.0
C1557 C 0.15247 0.42002 0.44007 0.0
C1558 C 0.15669 0.46399 0.44293 0.0
C1559 C 0.1578 0.46249 0.4685 0.0
C1560 C 0.15662 0.43955 0.47981 0.0
H1561 H 0.15502 0.56496 0.58668 0.0
H1562 H 0.15793 0.52976 0.55989 0.0
C1563 C 0.15408 0.41845 0.4657 0.0
C1564 C 0.15879 0.48519 0.48317 0.0
H1565 H 0.18644 0.51587 0.52539 0.0
C1566 C 0.1434 0.50216 0.4807 0.0
C1567 C 0.17465 0.49029 0.49922 0.0
C1568 C 0.19195 0.47317 0.50188 0.0
C1569 C 0.14316 0.52384 0.4943 0.0
C1570 C 0.15894 0.52888 0.51049 0.0
C1571 C 0.17443 0.51201 0.51283 0.0
C1572 C 0.15886 0.55074 0.52643 0.0
C1573 C 0.12567 0.54073 0.49185 0.0
C1574 C 0.15893 0.57436 0.51653 0.0
C1575 C 0.15718 0.59472 0.53185 0.0
C1576 C 0.15535 0.59173 0.55734 0.0
C1577 C 0.15614 0.56802 0.56714 0.0
C1578 C 0.1579 0.5478 0.55187 0.0
H1579 H 0.11295 0.53176 0.48268 0.0
H1580 H 0.12078 0.54737 0.51007 0.0
H1581 H 0.13 0.55677 0.48071 0.0
H1582 H 0.16 0.57702 0.49692 0.0
H1583 H 0.15674 0.61269 0.5237 0.0
H1584 H 0.64179 0.10366 0.97094 0.0
H1585 H 0.64001 0.06476 0.99281 0.0
H1586 H 0.6964 0.04387 0.96257 0.0
H1587 H 0.69821 0.08229 0.94044 0.0
H1588 H 0.66844 0.00805 0.95771 0.0
H1589 H 0.67049 0.04255 0.0533 0.0
H1590 H 0.65135 0.05539 0.03453 0.0
H1591 H 0.67681 0.06135 0.02735 0.0
C1592 C 0.65393 0.09092 0.96916 0.0
C1593 C 0.67015 0.0962 0.95392 0.0
C1594 C 0.6529 0.0687 0.98173 0.0
C1595 C 0.66816 0.05149 0.97949 0.0
C1596 C 0.68445 0.05687 0.96457 0.0
H1597 H 0.69579 0.92633 0.06799 0.0
H1598 H 0.69455 0.96514 0.04637 0.0
C1599 C 0.68546 0.07893 0.95196 0.0
C1600 C 0.66705 0.02747 0.99191 0.0
H1601 H 0.6656 1.00023 0.04809 0.0
C1602 C 0.66777 0.00632 0.97748 0.0
C1603 C 0.66634 0.02527 0.0177 0.0
C1604 C 0.66638 0.04731 0.0342 0.0
C1605 C 0.66796 0.98303 0.9881 0.0
C1606 C 0.66705 0.98081 0.01388 0.0
C1607 C 0.66618 1.00196 0.02832 0.0
C1608 C 0.66783 0.95678 0.02633 0.0
C1609 C 0.66978 0.96106 0.97165 0.0
C1610 C 0.65323 0.93909 0.02221 0.0
C1611 C 0.65395 0.91669 0.03444 0.0
C1612 C 0.66921 0.91165 0.05122 0.0
C1613 C 0.68383 0.92946 0.05519 0.0
C1614 C 0.68313 0.95175 0.0429 0.0
H1615 H 0.67522 0.96604 0.95312 0.0
H1616 H 0.67998 0.94735 0.97965 0.0
H1617 H 0.65504 0.95247 0.96954 0.0
H1618 H 0.64108 0.94274 0.00985 0.0
H1619 H 0.64232 0.90356 0.0311 0.0
H1620 H 0.3209 0.93003 0.43177 0.0
H1621 H 0.32375 0.96874 0.45315 0.0
H1622 H 0.37732 0.94415 0.48798 0.0
H1623 H 0.3745 0.90493 0.46681 0.0
H1624 H 0.35165 0.96698 0.52007 0.0
H1625 H 0.36231 0.02344 0.43718 0.0
H1626 H 0.3406 0.00475 0.43539 0.0
H1627 H 0.3646 0.99068 0.43682 0.0
C1628 C 0.33333 0.93271 0.44396 0.0
C1629 C 0.34753 0.91428 0.44743 0.0
C1630 C 0.335 0.95501 0.45604 0.0
C1631 C 0.35098 0.95955 0.47171 0.0
C1632 C 0.36496 0.94109 0.47574 0.0
H1633 H 0.37331 0.10626 0.52961 0.0
H1634 H 0.37678 0.06733 0.50813 0.0
C1635 C 0.3633 0.91866 0.46366 0.0
C1636 C 0.35263 0.98342 0.48431 0.0
H1637 H 0.35324 0.04475 0.47385 0.0
C1638 C 0.35222 0.98397 0.50998 0.0
C1639 C 0.35374 0.00559 0.47115 0.0
C1640 C 0.35555 0.00614 0.44362 0.0
C1641 C 0.35198 0.00614 0.52281 0.0
C1642 C 0.35176 0.02831 0.50959 0.0
C1643 C 0.35311 0.02775 0.48396 0.0
C1644 C 0.34946 0.0522 0.522 0.0
C1645 C 0.35194 0.00557 0.55044 0.0
C1646 C 0.33268 0.05688 0.53632 0.0
C1647 C 0.33064 0.07903 0.54861 0.0
C1648 C 0.34526 0.09716 0.54665 0.0
C1649 C 0.36175 0.09275 0.53155 0.0
C1650 C 0.3638 0.07048 0.51931 0.0
H1651 H 0.35818 0.98824 0.55753 0.0
H1652 H 0.36055 0.02097 0.55815 0.0
H1653 H 0.33649 0.00703 0.55712 0.0
H1654 H 0.32115 0.04331 0.53811 0.0
H1655 H 0.31765 0.08179 0.55987 0.0
H1656 H 0.35657 0.94582 0.0916 0.0
H1657 H 0.35278 0.98215 0.0665 0.0
H1658 H 0.35537 0.93816 0.00116 0.0
H1659 H 0.35884 0.9014 0.02628 0.0
H1660 H 0.38008 0.99864 0.03405 0.0
H1661 H 0.30868 0.98268 0.98681 0.0
H1662 H 0.31628 0.96536 0.01328 0.0
H1663 H 0.32607 0.9582 0.98352 0.0
C1664 C 0.35612 0.94374 0.07189 0.0
C1665 C 0.35813 0.92066 0.06094 0.0
C1666 C 0.35391 0.96458 0.05757 0.0
C1667 C 0.35365 0.96289 0.03198 0.0
C1668 C 0.35514 0.93985 0.02091 0.0
H1669 H 0.36353 0.06378 0.91304 0.0
H1670 H 0.35938 0.02889 0.94001 0.0
C1671 C 0.35722 0.91887 0.03528 0.0
C1672 C 0.35342 0.98547 0.01707 0.0
H1673 H 0.32837 0.01556 0.97201 0.0
C1674 C 0.36866 1.00246 0.02065 0.0
C1675 C 0.33853 0.99038 0.99959 0.0
C1676 C 0.32135 0.97332 0.99567 0.0
C1677 C 0.36973 0.02393 0.0068 0.0
C1678 C 0.35497 0.02872 0.98913 0.0
C1679 C 0.3396 0.01187 0.98568 0.0
C1680 C 0.35602 0.05033 0.97294 0.0
C1681 C 0.38702 0.04088 0.01058 0.0
C1682 C 0.35508 0.07407 0.98247 0.0
C1683 C 0.35753 0.09424 0.96705 0.0
C1684 C 0.36094 0.09095 0.94185 0.0
C1685 C 0.36116 0.06709 0.93237 0.0
C1686 C 0.35869 0.04705 0.94773 0.0
H1687 H 0.39911 0.03212 0.02117 0.0
H1688 H 0.39306 0.04711 0.99274 0.0
H1689 H 0.382 0.05716 0.02089 0.0
H1690 H 0.35272 0.07697 0.00186 0.0
H1691 H 0.35715 0.11232 0.97495 0.0
H1692 H 0.65261 0.06043 0.59051 0.0
H1693 H 0.65681 0.02504 0.56417 0.0
H1694 H 0.65916 0.07172 0.50078 0.0
H1695 H 0.65477 0.10755 0.5271 0.0
H1696 H 0.63174 0.03289 0.49744 0.0
H1697 H 0.70534 0.99952 0.52702 0.0
H1698 H 0.68849 0.00523 0.55177 0.0
H1699 H 0.69686 0.03012 0.53308 0.0
C1700 C 0.6542 0.06331 0.57099 0.0
C1701 C 0.65326 0.0869 0.56092 0.0
C1702 C 0.65678 0.043 0.55598 0.0
C1703 C 0.65856 0.04576 0.53058 0.0
C1704 C 0.65797 0.06925 0.52041 0.0
H1705 H 0.6571 0.94176 0.41119 0.0
H1706 H 0.66014 0.97803 0.43654 0.0
C1707 C 0.65549 0.08969 0.53546 0.0
C1708 C 0.65941 0.02393 0.51465 0.0
H1709 H 0.68581 0.97207 0.5033 0.0
C1710 C 0.64367 0.01972 0.4985 0.0
C1711 C 0.67487 0.00666 0.51633 0.0
C1712 C 0.69245 0.01065 0.53282 0.0
C1713 C 0.64273 0.99843 0.48436 0.0
C1714 C 0.65817 0.98111 0.48605 0.0
C1715 C 0.67399 0.98536 0.5021 0.0
C1716 C 0.65817 0.9587 0.47093 0.0
C1717 C 0.62494 0.99434 0.46821 0.0
C1718 C 0.65694 0.93561 0.4819 0.0
C1719 C 0.6553 0.91464 0.46741 0.0
C1720 C 0.65487 0.91648 0.44172 0.0
C1721 C 0.65705 0.93962 0.43091 0.0
C1722 C 0.65875 0.96045 0.44536 0.0
H1723 H 0.61227 0.00602 0.47369 0.0
H1724 H 0.62884 0.9989 0.44901 0.0
H1725 H 0.62016 0.975 0.46877 0.0
H1726 H 0.65661 0.9339 0.50166 0.0
H1727 H 0.65371 0.89713 0.47632 0.0
loop_
_geom_bond_atom_site_label_1
_geom_bond_atom_site_label_2
_geom_bond_distance
_geom_bond_site_symmetry_2
_ccdc_geom_bond_type
Mn0 O5 2.095 . S
Mn0 O15 2.162 . S
Mn0 O16 2.297 . S
Mn0 O24 2.385 . S
Mn0 O25 2.209 . S
Mn0 O26 2.094 . S
Mn1 O6 2.121 . S
Mn1 N8 2.257 . S
Mn1 N17 2.282 . S
Mn1 O25 2.215 . S
Mn1 O27 2.117 . S
C2 O24 1.234 . S
C2 O25 1.283 . S
C3 O15 1.281 . S
C3 O16 1.236 . S
C4 O26 1.240 . S
C4 O27 1.264 . S
O5 Mn0 2.095 . S
O5 C14 1.250 . S
O6 Mn1 2.121 . S
O6 C14 1.258 . S
C7 N8 1.326 . S
C7 C11 1.460 . S
C7 H13 0.929 . S
N8 Mn1 2.257 . S
N8 C7 1.326 . S
N8 C12 1.362 . S
C9 C10 1.258 . S
C9 C12 1.431 . S
C9 C29 1.449 . S
C10 C9 1.258 . S
C10 C11 1.477 . S
C10 H30 0.931 . S
C11 C7 1.460 . S
C11 C10 1.477 . S
C11 H31 0.930 . S
C12 N8 1.362 . S
C12 C9 1.431 . S
C12 C22 1.476 . S
H13 C7 0.929 . S
C14 O5 1.250 . S
C14 O6 1.258 . S
O15 Mn0 2.162 . S
O15 C3 1.281 . S
O16 Mn0 2.297 . S
O16 C3 1.236 . S
N17 Mn1 2.282 . S
N17 C18 1.328 . S
N17 C22 1.318 . S
C18 N17 1.328 . S
C18 C19 1.457 . S
C18 H23 0.929 . S
C19 C18 1.457 . S
C19 C20 1.291 . S
C19 H32 0.931 . S
C20 C19 1.291 . S
C20 C21 1.373 . S
C20 H33 0.929 . S
C21 C20 1.373 . S
C21 C22 1.396 . S
C21 C28 1.403 . S
C22 C12 1.476 . S
C22 N17 1.318 . S
C22 C21 1.396 . S
H23 C18 0.929 . S
O24 Mn0 2.385 . S
O24 C2 1.234 . S
O25 Mn0 2.209 . S
O25 Mn1 2.215 . S
O25 C2 1.283 . S
O26 Mn0 2.094 . S
O26 C4 1.240 . S
O27 Mn1 2.117 . S
O27 C4 1.264 . S
C28 C21 1.403 . S
C28 C29 1.399 . S
C28 H34 0.929 . S
C29 C9 1.449 . S
C29 C28 1.399 . S
C29 H35 0.930 . S
H30 C10 0.931 . S
H31 C11 0.930 . S
H32 C19 0.931 . S
H33 C20 0.929 . S
H34 C28 0.929 . S
H35 C29 0.930 . S
Mn36 O41 2.095 . S
Mn36 O51 2.162 . S
Mn36 O52 2.297 . S
Mn36 O60 2.385 . S
Mn36 O61 2.209 . S
Mn36 O62 2.094 . S
Mn37 O42 2.121 . S
Mn37 N44 2.257 . S
Mn37 N53 2.282 . S
Mn37 O61 2.215 . S
Mn37 O63 2.117 . S
C38 O60 1.234 . S
C38 O61 1.283 . S
C39 O51 1.281 . S
C39 O52 1.236 . S
C40 O62 1.240 . S
C40 O63 1.264 . S
O41 Mn36 2.095 . S
O41 C50 1.250 . S
O42 Mn37 2.121 . S
O42 C50 1.258 . S
C43 N44 1.326 . S
C43 C47 1.460 . S
C43 H49 0.929 . S
N44 Mn37 2.257 . S
N44 C43 1.326 . S
N44 C48 1.362 . S
C45 C46 1.258 . S
C45 C48 1.431 . S
C45 C65 1.449 . S
C46 C45 1.258 . S
C46 C47 1.477 . S
C46 H66 0.931 . S
C47 C43 1.460 . S
C47 C46 1.477 . S
C47 H67 0.930 . S
C48 N44 1.362 . S
C48 C45 1.431 . S
C48 C58 1.476 . S
H49 C43 0.929 . S
C50 O41 1.250 . S
C50 O42 1.258 . S
O51 Mn36 2.162 . S
O51 C39 1.281 . S
O52 Mn36 2.297 . S
O52 C39 1.236 . S
N53 Mn37 2.282 . S
N53 C54 1.328 . S
N53 C58 1.318 . S
C54 N53 1.328 . S
C54 C55 1.457 . S
C54 H59 0.929 . S
C55 C54 1.457 . S
C55 C56 1.291 . S
C55 H68 0.931 . S
C56 C55 1.291 . S
C56 C57 1.373 . S
C56 H69 0.929 . S
C57 C56 1.373 . S
C57 C58 1.396 . S
C57 C64 1.403 . S
C58 C48 1.476 . S
C58 N53 1.318 . S
C58 C57 1.396 . S
H59 C54 0.929 . S
O60 Mn36 2.385 . S
O60 C38 1.234 . S
O61 Mn36 2.209 . S
O61 Mn37 2.215 . S
O61 C38 1.283 . S
O62 Mn36 2.094 . S
O62 C40 1.240 . S
O63 Mn37 2.117 . S
O63 C40 1.264 . S
C64 C57 1.403 . S
C64 C65 1.399 . S
C64 H70 0.929 . S
C65 C45 1.449 . S
C65 C64 1.399 . S
C65 H71 0.930 . S
H66 C46 0.931 . S
H67 C47 0.930 . S
H68 C55 0.931 . S
H69 C56 0.929 . S
H70 C64 0.929 . S
H71 C65 0.930 . S
Mn72 O77 2.095 . S
Mn72 O87 2.162 . S
Mn72 O88 2.297 . S
Mn72 O96 2.385 . S
Mn72 O97 2.209 . S
Mn72 O98 2.094 . S
Mn73 O78 2.121 . S
Mn73 N80 2.257 . S
Mn73 N89 2.282 . S
Mn73 O97 2.215 . S
Mn73 O99 2.117 . S
C74 O96 1.234 . S
C74 O97 1.283 . S
C75 O87 1.281 . S
C75 O88 1.236 . S
C76 O98 1.240 . S
C76 O99 1.264 . S
O77 Mn72 2.095 . S
O77 C86 1.250 . S
O78 Mn73 2.121 . S
O78 C86 1.258 . S
C79 N80 1.326 . S
C79 C83 1.460 . S
C79 H85 0.929 . S
N80 Mn73 2.257 . S
N80 C79 1.326 . S
N80 C84 1.362 . S
C81 C82 1.258 . S
C81 C84 1.431 . S
C81 C101 1.449 . S
C82 C81 1.258 . S
C82 C83 1.477 . S
C82 H102 0.931 . S
C83 C79 1.460 . S
C83 C82 1.477 . S
C83 H103 0.930 . S
C84 N80 1.362 . S
C84 C81 1.431 . S
C84 C94 1.476 . S
H85 C79 0.929 . S
C86 O77 1.250 . S
C86 O78 1.258 . S
O87 Mn72 2.162 . S
O87 C75 1.281 . S
O88 Mn72 2.297 . S
O88 C75 1.236 . S
N89 Mn73 2.282 . S
N89 C90 1.328 . S
N89 C94 1.318 . S
C90 N89 1.328 . S
C90 C91 1.457 . S
C90 H95 0.929 . S
C91 C90 1.457 . S
C91 C92 1.291 . S
C91 H104 0.931 . S
C92 C91 1.291 . S
C92 C93 1.373 . S
C92 H105 0.929 . S
C93 C92 1.373 . S
C93 C94 1.396 . S
C93 C100 1.403 . S
C94 C84 1.476 . S
C94 N89 1.318 . S
C94 C93 1.396 . S
H95 C90 0.929 . S
O96 Mn72 2.385 . S
O96 C74 1.234 . S
O97 Mn72 2.209 . S
O97 Mn73 2.215 . S
O97 C74 1.283 . S
O98 Mn72 2.094 . S
O98 C76 1.240 . S
O99 Mn73 2.117 . S
O99 C76 1.264 . S
C100 C93 1.403 . S
C100 C101 1.399 . S
C100 H106 0.929 . S
C101 C81 1.449 . S
C101 C100 1.399 . S
C101 H107 0.930 . S
H102 C82 0.931 . S
H103 C83 0.930 . S
H104 C91 0.931 . S
H105 C92 0.929 . S
H106 C100 0.929 . S
H107 C101 0.930 . S
Mn108 O113 2.095 . S
Mn108 O123 2.162 . S
Mn108 O124 2.297 . S
Mn108 O132 2.385 . S
Mn108 O133 2.209 . S
Mn108 O134 2.094 . S
Mn109 O114 2.121 . S
Mn109 N116 2.257 . S
Mn109 N125 2.282 . S
Mn109 O133 2.215 . S
Mn109 O135 2.117 . S
C110 O132 1.234 . S
C110 O133 1.283 . S
C111 O123 1.281 . S
C111 O124 1.236 . S
C112 O134 1.240 . S
C112 O135 1.264 . S
O113 Mn108 2.095 . S
O113 C122 1.250 . S
O114 Mn109 2.121 . S
O114 C122 1.258 . S
C115 N116 1.326 . S
C115 C119 1.460 . S
C115 H121 0.929 . S
N116 Mn109 2.257 . S
N116 C115 1.326 . S
N116 C120 1.362 . S
C117 C118 1.258 . S
C117 C120 1.431 . S
C117 C137 1.449 . S
C118 C117 1.258 . S
C118 C119 1.477 . S
C118 H138 0.931 . S
C119 C115 1.460 . S
C119 C118 1.477 . S
C119 H139 0.930 . S
C120 N116 1.362 . S
C120 C117 1.431 . S
C120 C130 1.476 . S
H121 C115 0.929 . S
C122 O113 1.250 . S
C122 O114 1.258 . S
O123 Mn108 2.162 . S
O123 C111 1.281 . S
O124 Mn108 2.297 . S
O124 C111 1.236 . S
N125 Mn109 2.282 . S
N125 C126 1.328 . S
N125 C130 1.318 . S
C126 N125 1.328 . S
C126 C127 1.457 . S
C126 H131 0.929 . S
C127 C126 1.457 . S
C127 C128 1.291 . S
C127 H140 0.931 . S
C128 C127 1.291 . S
C128 C129 1.373 . S
C128 H141 0.929 . S
C129 C128 1.373 . S
C129 C130 1.396 . S
C129 C136 1.403 . S
C130 C120 1.476 . S
C130 N125 1.318 . S
C130 C129 1.396 . S
H131 C126 0.929 . S
O132 Mn108 2.385 . S
O132 C110 1.234 . S
O133 Mn108 2.209 . S
O133 Mn109 2.215 . S
O133 C110 1.283 . S
O134 Mn108 2.094 . S
O134 C112 1.240 . S
O135 Mn109 2.117 . S
O135 C112 1.264 . S
C136 C129 1.403 . S
C136 C137 1.399 . S
C136 H142 0.929 . S
C137 C117 1.449 . S
C137 C136 1.399 . S
C137 H143 0.930 . S
H138 C118 0.931 . S
H139 C119 0.930 . S
H140 C127 0.931 . S
H141 C128 0.929 . S
H142 C136 0.929 . S
H143 C137 0.930 . S
Mn144 O149 2.095 . S
Mn144 O159 2.162 . S
Mn144 O160 2.297 . S
Mn144 O168 2.385 . S
Mn144 O169 2.209 . S
Mn144 O170 2.094 . S
Mn145 O150 2.121 . S
Mn145 N152 2.257 . S
Mn145 N161 2.282 . S
Mn145 O169 2.215 . S
Mn145 O171 2.117 . S
C146 O168 1.234 . S
C146 O169 1.283 . S
C147 O159 1.281 . S
C147 O160 1.236 . S
C148 O170 1.240 . S
C148 O171 1.264 . S
O149 Mn144 2.095 . S
O149 C158 1.250 . S
O150 Mn145 2.121 . S
O150 C158 1.258 . S
C151 N152 1.326 . S
C151 C155 1.460 . S
C151 H157 0.929 . S
N152 Mn145 2.257 . S
N152 C151 1.326 . S
N152 C156 1.362 . S
C153 C154 1.258 . S
C153 C156 1.431 . S
C153 C173 1.449 . S
C154 C153 1.258 . S
C154 C155 1.477 . S
C154 H174 0.931 . S
C155 C151 1.460 . S
C155 C154 1.477 . S
C155 H175 0.930 . S
C156 N152 1.362 . S
C156 C153 1.431 . S
C156 C166 1.476 . S
H157 C151 0.929 . S
C158 O149 1.250 . S
C158 O150 1.258 . S
O159 Mn144 2.162 . S
O159 C147 1.281 . S
O160 Mn144 2.297 . S
O160 C147 1.236 . S
N161 Mn145 2.282 . S
N161 C162 1.328 . S
N161 C166 1.318 . S
C162 N161 1.328 . S
C162 C163 1.457 . S
C162 H167 0.929 . S
C163 C162 1.457 . S
C163 C164 1.291 . S
C163 H176 0.931 . S
C164 C163 1.291 . S
C164 C165 1.373 . S
C164 H177 0.929 . S
C165 C164 1.373 . S
C165 C166 1.396 . S
C165 C172 1.403 . S
C166 C156 1.476 . S
C166 N161 1.318 . S
C166 C165 1.396 . S
H167 C162 0.929 . S
O168 Mn144 2.385 . S
O168 C146 1.234 . S
O169 Mn144 2.209 . S
O169 Mn145 2.215 . S
O169 C146 1.283 . S
O170 Mn144 2.094 . S
O170 C148 1.240 . S
O171 Mn145 2.117 . S
O171 C148 1.264 . S
C172 C165 1.403 . S
C172 C173 1.399 . S
C172 H178 0.929 . S
C173 C153 1.449 . S
C173 C172 1.399 . S
C173 H179 0.930 . S
H174 C154 0.931 . S
H175 C155 0.930 . S
H176 C163 0.931 . S
H177 C164 0.929 . S
H178 C172 0.929 . S
H179 C173 0.930 . S
Mn180 O185 2.095 . S
Mn180 O195 2.162 . S
Mn180 O196 2.297 . S
Mn180 O204 2.385 . S
Mn180 O205 2.209 . S
Mn180 O206 2.094 . S
Mn181 O186 2.121 . S
Mn181 N188 2.257 . S
Mn181 N197 2.282 . S
Mn181 O205 2.215 . S
Mn181 O207 2.117 . S
C182 O204 1.234 . S
C182 O205 1.283 . S
C183 O195 1.281 . S
C183 O196 1.236 . S
C184 O206 1.240 . S
C184 O207 1.264 . S
O185 Mn180 2.095 . S
O185 C194 1.250 . S
O186 Mn181 2.121 . S
O186 C194 1.258 . S
C187 N188 1.326 . S
C187 C191 1.460 . S
C187 H193 0.929 . S
N188 Mn181 2.257 . S
N188 C187 1.326 . S
N188 C192 1.362 . S
C189 C190 1.258 . S
C189 C192 1.431 . S
C189 C209 1.449 . S
C190 C189 1.258 . S
C190 C191 1.477 . S
C190 H210 0.931 . S
C191 C187 1.460 . S
C191 C190 1.477 . S
C191 H211 0.930 . S
C192 N188 1.362 . S
C192 C189 1.431 . S
C192 C202 1.476 . S
H193 C187 0.929 . S
C194 O185 1.250 . S
C194 O186 1.258 . S
O195 Mn180 2.162 . S
O195 C183 1.281 . S
O196 Mn180 2.297 . S
O196 C183 1.236 . S
N197 Mn181 2.282 . S
N197 C198 1.328 . S
N197 C202 1.318 . S
C198 N197 1.328 . S
C198 C199 1.457 . S
C198 H203 0.929 . S
C199 C198 1.457 . S
C199 C200 1.291 . S
C199 H212 0.931 . S
C200 C199 1.291 . S
C200 C201 1.373 . S
C200 H213 0.929 . S
C201 C200 1.373 . S
C201 C202 1.396 . S
C201 C208 1.403 . S
C202 C192 1.476 . S
C202 N197 1.318 . S
C202 C201 1.396 . S
H203 C198 0.929 . S
O204 Mn180 2.385 . S
O204 C182 1.234 . S
O205 Mn180 2.209 . S
O205 Mn181 2.215 . S
O205 C182 1.283 . S
O206 Mn180 2.094 . S
O206 C184 1.240 . S
O207 Mn181 2.117 . S
O207 C184 1.264 . S
C208 C201 1.403 . S
C208 C209 1.399 . S
C208 H214 0.929 . S
C209 C189 1.449 . S
C209 C208 1.399 . S
C209 H215 0.930 . S
H210 C190 0.931 . S
H211 C191 0.930 . S
H212 C199 0.931 . S
H213 C200 0.929 . S
H214 C208 0.929 . S
H215 C209 0.930 . S
Mn216 O221 2.095 . S
Mn216 O231 2.162 . S
Mn216 O232 2.297 . S
Mn216 O240 2.385 . S
Mn216 O241 2.209 . S
Mn216 O242 2.094 . S
Mn217 O222 2.121 . S
Mn217 N224 2.257 . S
Mn217 N233 2.282 . S
Mn217 O241 2.215 . S
Mn217 O243 2.117 . S
C218 O240 1.234 . S
C218 O241 1.283 . S
C219 O231 1.281 . S
C219 O232 1.236 . S
C220 O242 1.240 . S
C220 O243 1.264 . S
O221 Mn216 2.095 . S
O221 C230 1.250 . S
O222 Mn217 2.121 . S
O222 C230 1.258 . S
C223 N224 1.326 . S
C223 C227 1.460 . S
C223 H229 0.929 . S
N224 Mn217 2.257 . S
N224 C223 1.326 . S
N224 C228 1.362 . S
C225 C226 1.258 . S
C225 C228 1.431 . S
C225 C245 1.449 . S
C226 C225 1.258 . S
C226 C227 1.477 . S
C226 H246 0.931 . S
C227 C223 1.460 . S
C227 C226 1.477 . S
C227 H247 0.930 . S
C228 N224 1.362 . S
C228 C225 1.431 . S
C228 C238 1.476 . S
H229 C223 0.929 . S
C230 O221 1.250 . S
C230 O222 1.258 . S
O231 Mn216 2.162 . S
O231 C219 1.281 . S
O232 Mn216 2.297 . S
O232 C219 1.236 . S
N233 Mn217 2.282 . S
N233 C234 1.328 . S
N233 C238 1.318 . S
C234 N233 1.328 . S
C234 C235 1.457 . S
C234 H239 0.929 . S
C235 C234 1.457 . S
C235 C236 1.291 . S
C235 H248 0.931 . S
C236 C235 1.291 . S
C236 C237 1.373 . S
C236 H249 0.929 . S
C237 C236 1.373 . S
C237 C238 1.396 . S
C237 C244 1.403 . S
C238 C228 1.476 . S
C238 N233 1.318 . S
C238 C237 1.396 . S
H239 C234 0.929 . S
O240 Mn216 2.385 . S
O240 C218 1.234 . S
O241 Mn216 2.209 . S
O241 Mn217 2.215 . S
O241 C218 1.283 . S
O242 Mn216 2.094 . S
O242 C220 1.240 . S
O243 Mn217 2.117 . S
O243 C220 1.264 . S
C244 C237 1.403 . S
C244 C245 1.399 . S
C244 H250 0.929 . S
C245 C225 1.449 . S
C245 C244 1.399 . S
C245 H251 0.930 . S
H246 C226 0.931 . S
H247 C227 0.930 . S
H248 C235 0.931 . S
H249 C236 0.929 . S
H250 C244 0.929 . S
H251 C245 0.930 . S
Mn252 O257 2.095 . S
Mn252 O267 2.162 . S
Mn252 O268 2.297 . S
Mn252 O276 2.385 . S
Mn252 O277 2.209 . S
Mn252 O278 2.094 . S
Mn253 O258 2.121 . S
Mn253 N260 2.257 . S
Mn253 N269 2.282 . S
Mn253 O277 2.215 . S
Mn253 O279 2.117 . S
C254 O276 1.234 . S
C254 O277 1.283 . S
C255 O267 1.281 . S
C255 O268 1.236 . S
C256 O278 1.240 . S
C256 O279 1.264 . S
O257 Mn252 2.095 . S
O257 C266 1.250 . S
O258 Mn253 2.121 . S
O258 C266 1.258 . S
C259 N260 1.326 . S
C259 C263 1.460 . S
C259 H265 0.929 . S
N260 Mn253 2.257 . S
N260 C259 1.326 . S
N260 C264 1.362 . S
C261 C262 1.258 . S
C261 C264 1.431 . S
C261 C281 1.449 . S
C262 C261 1.258 . S
C262 C263 1.477 . S
C262 H282 0.931 . S
C263 C259 1.460 . S
C263 C262 1.477 . S
C263 H283 0.930 . S
C264 N260 1.362 . S
C264 C261 1.431 . S
C264 C274 1.476 . S
H265 C259 0.929 . S
C266 O257 1.250 . S
C266 O258 1.258 . S
O267 Mn252 2.162 . S
O267 C255 1.281 . S
O268 Mn252 2.297 . S
O268 C255 1.236 . S
N269 Mn253 2.282 . S
N269 C270 1.328 . S
N269 C274 1.318 . S
C270 N269 1.328 . S
C270 C271 1.457 . S
C270 H275 0.929 . S
C271 C270 1.457 . S
C271 C272 1.291 . S
C271 H284 0.931 . S
C272 C271 1.291 . S
C272 C273 1.373 . S
C272 H285 0.929 . S
C273 C272 1.373 . S
C273 C274 1.396 . S
C273 C280 1.403 . S
C274 C264 1.476 . S
C274 N269 1.318 . S
C274 C273 1.396 . S
H275 C270 0.929 . S
O276 Mn252 2.385 . S
O276 C254 1.234 . S
O277 Mn252 2.209 . S
O277 Mn253 2.215 . S
O277 C254 1.283 . S
O278 Mn252 2.094 . S
O278 C256 1.240 . S
O279 Mn253 2.117 . S
O279 C256 1.264 . S
C280 C273 1.403 . S
C280 C281 1.399 . S
C280 H286 0.929 . S
C281 C261 1.449 . S
C281 C280 1.399 . S
C281 H287 0.930 . S
H282 C262 0.931 . S
H283 C263 0.930 . S
H284 C271 0.931 . S
H285 C272 0.929 . S
H286 C280 0.929 . S
H287 C281 0.930 . S
Mn288 O293 2.095 . S
Mn288 O303 2.162 . S
Mn288 O304 2.297 . S
Mn288 O312 2.385 . S
Mn288 O313 2.209 . S
Mn288 O314 2.094 . S
Mn289 O294 2.121 . S
Mn289 N296 2.257 . S
Mn289 N305 2.282 . S
Mn289 O313 2.215 . S
Mn289 O315 2.117 . S
C290 O312 1.234 . S
C290 O313 1.283 . S
C291 O303 1.281 . S
C291 O304 1.236 . S
C292 O314 1.240 . S
C292 O315 1.264 . S
O293 Mn288 2.095 . S
O293 C302 1.250 . S
O294 Mn289 2.121 . S
O294 C302 1.258 . S
C295 N296 1.326 . S
C295 C299 1.460 . S
C295 H301 0.929 . S
N296 Mn289 2.257 . S
N296 C295 1.326 . S
N296 C300 1.362 . S
C297 C298 1.258 . S
C297 C300 1.431 . S
C297 C317 1.449 . S
C298 C297 1.258 . S
C298 C299 1.477 . S
C298 H318 0.931 . S
C299 C295 1.460 . S
C299 C298 1.477 . S
C299 H319 0.930 . S
C300 N296 1.362 . S
C300 C297 1.431 . S
C300 C310 1.476 . S
H301 C295 0.929 . S
C302 O293 1.250 . S
C302 O294 1.258 . S
O303 Mn288 2.162 . S
O303 C291 1.281 . S
O304 Mn288 2.297 . S
O304 C291 1.236 . S
N305 Mn289 2.282 . S
N305 C306 1.328 . S
N305 C310 1.318 . S
C306 N305 1.328 . S
C306 C307 1.457 . S
C306 H311 0.929 . S
C307 C306 1.457 . S
C307 C308 1.291 . S
C307 H320 0.931 . S
C308 C307 1.291 . S
C308 C309 1.373 . S
C308 H321 0.929 . S
C309 C308 1.373 . S
C309 C310 1.396 . S
C309 C316 1.403 . S
C310 C300 1.476 . S
C310 N305 1.318 . S
C310 C309 1.396 . S
H311 C306 0.929 . S
O312 Mn288 2.385 . S
O312 C290 1.234 . S
O313 Mn288 2.209 . S
O313 Mn289 2.215 . S
O313 C290 1.283 . S
O314 Mn288 2.094 . S
O314 C292 1.240 . S
O315 Mn289 2.117 . S
O315 C292 1.264 . S
C316 C309 1.403 . S
C316 C317 1.399 . S
C316 H322 0.929 . S
C317 C297 1.449 . S
C317 C316 1.399 . S
C317 H323 0.930 . S
H318 C298 0.931 . S
H319 C299 0.930 . S
H320 C307 0.931 . S
H321 C308 0.929 . S
H322 C316 0.929 . S
H323 C317 0.930 . S
Mn324 O329 2.095 . S
Mn324 O339 2.162 . S
Mn324 O340 2.297 . S
Mn324 O348 2.385 . S
Mn324 O349 2.209 . S
Mn324 O350 2.094 . S
Mn325 O330 2.121 . S
Mn325 N332 2.257 . S
Mn325 N341 2.282 . S
Mn325 O349 2.215 . S
Mn325 O351 2.117 . S
C326 O348 1.234 . S
C326 O349 1.283 . S
C327 O339 1.281 . S
C327 O340 1.236 . S
C328 O350 1.240 . S
C328 O351 1.264 . S
O329 Mn324 2.095 . S
O329 C338 1.250 . S
O330 Mn325 2.121 . S
O330 C338 1.258 . S
C331 N332 1.326 . S
C331 C335 1.460 . S
C331 H337 0.929 . S
N332 Mn325 2.257 . S
N332 C331 1.326 . S
N332 C336 1.362 . S
C333 C334 1.258 . S
C333 C336 1.431 . S
C333 C353 1.449 . S
C334 C333 1.258 . S
C334 C335 1.477 . S
C334 H354 0.931 . S
C335 C331 1.460 . S
C335 C334 1.477 . S
C335 H355 0.930 . S
C336 N332 1.362 . S
C336 C333 1.431 . S
C336 C346 1.476 . S
H337 C331 0.929 . S
C338 O329 1.250 . S
C338 O330 1.258 . S
O339 Mn324 2.162 . S
O339 C327 1.281 . S
O340 Mn324 2.297 . S
O340 C327 1.236 . S
N341 Mn325 2.282 . S
N341 C342 1.328 . S
N341 C346 1.318 . S
C342 N341 1.328 . S
C342 C343 1.457 . S
C342 H347 0.929 . S
C343 C342 1.457 . S
C343 C344 1.291 . S
C343 H356 0.931 . S
C344 C343 1.291 . S
C344 C345 1.373 . S
C344 H357 0.929 . S
C345 C344 1.373 . S
C345 C346 1.396 . S
C345 C352 1.403 . S
C346 C336 1.476 . S
C346 N341 1.318 . S
C346 C345 1.396 . S
H347 C342 0.929 . S
O348 Mn324 2.385 . S
O348 C326 1.234 . S
O349 Mn324 2.209 . S
O349 Mn325 2.215 . S
O349 C326 1.283 . S
O350 Mn324 2.094 . S
O350 C328 1.240 . S
O351 Mn325 2.117 . S
O351 C328 1.264 . S
C352 C345 1.403 . S
C352 C353 1.399 . S
C352 H358 0.929 . S
C353 C333 1.449 . S
C353 C352 1.399 . S
C353 H359 0.930 . S
H354 C334 0.931 . S
H355 C335 0.930 . S
H356 C343 0.931 . S
H357 C344 0.929 . S
H358 C352 0.929 . S
H359 C353 0.930 . S
Mn360 O365 2.095 . S
Mn360 O375 2.162 . S
Mn360 O376 2.297 . S
Mn360 O384 2.385 . S
Mn360 O385 2.209 . S
Mn360 O386 2.094 . S
Mn361 O366 2.121 . S
Mn361 N368 2.257 . S
Mn361 N377 2.282 . S
Mn361 O385 2.215 . S
Mn361 O387 2.117 . S
C362 O384 1.234 . S
C362 O385 1.283 . S
C363 O375 1.281 . S
C363 O376 1.236 . S
C364 O386 1.240 . S
C364 O387 1.264 . S
O365 Mn360 2.095 . S
O365 C374 1.250 . S
O366 Mn361 2.121 . S
O366 C374 1.258 . S
C367 N368 1.326 . S
C367 C371 1.460 . S
C367 H373 0.929 . S
N368 Mn361 2.257 . S
N368 C367 1.326 . S
N368 C372 1.362 . S
C369 C370 1.258 . S
C369 C372 1.431 . S
C369 C389 1.449 . S
C370 C369 1.258 . S
C370 C371 1.477 . S
C370 H390 0.931 . S
C371 C367 1.460 . S
C371 C370 1.477 . S
C371 H391 0.930 . S
C372 N368 1.362 . S
C372 C369 1.431 . S
C372 C382 1.476 . S
H373 C367 0.929 . S
C374 O365 1.250 . S
C374 O366 1.258 . S
O375 Mn360 2.162 . S
O375 C363 1.281 . S
O376 Mn360 2.297 . S
O376 C363 1.236 . S
N377 Mn361 2.282 . S
N377 C378 1.328 . S
N377 C382 1.318 . S
C378 N377 1.328 . S
C378 C379 1.457 . S
C378 H383 0.929 . S
C379 C378 1.457 . S
C379 C380 1.291 . S
C379 H392 0.931 . S
C380 C379 1.291 . S
C380 C381 1.373 . S
C380 H393 0.929 . S
C381 C380 1.373 . S
C381 C382 1.396 . S
C381 C388 1.403 . S
C382 C372 1.476 . S
C382 N377 1.318 . S
C382 C381 1.396 . S
H383 C378 0.929 . S
O384 Mn360 2.385 . S
O384 C362 1.234 . S
O385 Mn360 2.209 . S
O385 Mn361 2.215 . S
O385 C362 1.283 . S
O386 Mn360 2.094 . S
O386 C364 1.240 . S
O387 Mn361 2.117 . S
O387 C364 1.264 . S
C388 C381 1.403 . S
C388 C389 1.399 . S
C388 H394 0.929 . S
C389 C369 1.449 . S
C389 C388 1.399 . S
C389 H395 0.930 . S
H390 C370 0.931 . S
H391 C371 0.930 . S
H392 C379 0.931 . S
H393 C380 0.929 . S
H394 C388 0.929 . S
H395 C389 0.930 . S
Mn396 O401 2.095 . S
Mn396 O411 2.162 . S
Mn396 O412 2.297 . S
Mn396 O420 2.385 . S
Mn396 O421 2.209 . S
Mn396 O422 2.094 . S
Mn397 O402 2.121 . S
Mn397 N404 2.257 . S
Mn397 N413 2.282 . S
Mn397 O421 2.215 . S
Mn397 O423 2.117 . S
C398 O420 1.234 . S
C398 O421 1.283 . S
C399 O411 1.281 . S
C399 O412 1.236 . S
C400 O422 1.240 . S
C400 O423 1.264 . S
O401 Mn396 2.095 . S
O401 C410 1.250 . S
O402 Mn397 2.121 . S
O402 C410 1.258 . S
C403 N404 1.326 . S
C403 C407 1.460 . S
C403 H409 0.929 . S
N404 Mn397 2.257 . S
N404 C403 1.326 . S
N404 C408 1.362 . S
C405 C406 1.258 . S
C405 C408 1.431 . S
C405 C425 1.449 . S
C406 C405 1.258 . S
C406 C407 1.477 . S
C406 H426 0.931 . S
C407 C403 1.460 . S
C407 C406 1.477 . S
C407 H427 0.930 . S
C408 N404 1.362 . S
C408 C405 1.431 . S
C408 C418 1.476 . S
H409 C403 0.929 . S
C410 O401 1.250 . S
C410 O402 1.258 . S
O411 Mn396 2.162 . S
O411 C399 1.281 . S
O412 Mn396 2.297 . S
O412 C399 1.236 . S
N413 Mn397 2.282 . S
N413 C414 1.328 . S
N413 C418 1.318 . S
C414 N413 1.328 . S
C414 C415 1.457 . S
C414 H419 0.929 . S
C415 C414 1.457 . S
C415 C416 1.291 . S
C415 H428 0.931 . S
C416 C415 1.291 . S
C416 C417 1.373 . S
C416 H429 0.929 . S
C417 C416 1.373 . S
C417 C418 1.396 . S
C417 C424 1.403 . S
C418 C408 1.476 . S
C418 N413 1.318 . S
C418 C417 1.396 . S
H419 C414 0.929 . S
O420 Mn396 2.385 . S
O420 C398 1.234 . S
O421 Mn396 2.209 . S
O421 Mn397 2.215 . S
O421 C398 1.283 . S
O422 Mn396 2.094 . S
O422 C400 1.240 . S
O423 Mn397 2.117 . S
O423 C400 1.264 . S
C424 C417 1.403 . S
C424 C425 1.399 . S
C424 H430 0.929 . S
C425 C405 1.449 . S
C425 C424 1.399 . S
C425 H431 0.930 . S
H426 C406 0.931 . S
H427 C407 0.930 . S
H428 C415 0.931 . S
H429 C416 0.929 . S
H430 C424 0.929 . S
H431 C425 0.930 . S
Mn432 O437 2.095 . S
Mn432 O447 2.162 . S
Mn432 O448 2.297 . S
Mn432 O456 2.385 . S
Mn432 O457 2.209 . S
Mn432 O458 2.094 . S
Mn433 O438 2.121 . S
Mn433 N440 2.257 . S
Mn433 N449 2.282 . S
Mn433 O457 2.215 . S
Mn433 O459 2.117 . S
C434 O456 1.234 . S
C434 O457 1.283 . S
C435 O447 1.281 . S
C435 O448 1.236 . S
C436 O458 1.240 . S
C436 O459 1.264 . S
O437 Mn432 2.095 . S
O437 C446 1.250 . S
O438 Mn433 2.121 . S
O438 C446 1.258 . S
C439 N440 1.326 . S
C439 C443 1.460 . S
C439 H445 0.929 . S
N440 Mn433 2.257 . S
N440 C439 1.326 . S
N440 C444 1.362 . S
C441 C442 1.258 . S
C441 C444 1.431 . S
C441 C461 1.449 . S
C442 C441 1.258 . S
C442 C443 1.477 . S
C442 H462 0.931 . S
C443 C439 1.460 . S
C443 C442 1.477 . S
C443 H463 0.930 . S
C444 N440 1.362 . S
C444 C441 1.431 . S
C444 C454 1.476 . S
H445 C439 0.929 . S
C446 O437 1.250 . S
C446 O438 1.258 . S
O447 Mn432 2.162 . S
O447 C435 1.281 . S
O448 Mn432 2.297 . S
O448 C435 1.236 . S
N449 Mn433 2.282 . S
N449 C450 1.328 . S
N449 C454 1.318 . S
C450 N449 1.328 . S
C450 C451 1.457 . S
C450 H455 0.929 . S
C451 C450 1.457 . S
C451 C452 1.291 . S
C451 H464 0.931 . S
C452 C451 1.291 . S
C452 C453 1.373 . S
C452 H465 0.929 . S
C453 C452 1.373 . S
C453 C454 1.396 . S
C453 C460 1.403 . S
C454 C444 1.476 . S
C454 N449 1.318 . S
C454 C453 1.396 . S
H455 C450 0.929 . S
O456 Mn432 2.385 . S
O456 C434 1.234 . S
O457 Mn432 2.209 . S
O457 Mn433 2.215 . S
O457 C434 1.283 . S
O458 Mn432 2.094 . S
O458 C436 1.240 . S
O459 Mn433 2.117 . S
O459 C436 1.264 . S
C460 C453 1.403 . S
C460 C461 1.399 . S
C460 H466 0.929 . S
C461 C441 1.449 . S
C461 C460 1.399 . S
C461 H467 0.930 . S
H462 C442 0.931 . S
H463 C443 0.930 . S
H464 C451 0.931 . S
H465 C452 0.929 . S
H466 C460 0.929 . S
H467 C461 0.930 . S
Mn468 O473 2.095 . S
Mn468 O483 2.162 . S
Mn468 O484 2.297 . S
Mn468 O492 2.385 . S
Mn468 O493 2.209 . S
Mn468 O494 2.094 . S
Mn469 O474 2.121 . S
Mn469 N476 2.257 . S
Mn469 N485 2.282 . S
Mn469 O493 2.215 . S
Mn469 O495 2.117 . S
C470 O492 1.234 . S
C470 O493 1.283 . S
C471 O483 1.281 . S
C471 O484 1.236 . S
C472 O494 1.240 . S
C472 O495 1.264 . S
O473 Mn468 2.095 . S
O473 C482 1.250 . S
O474 Mn469 2.121 . S
O474 C482 1.258 . S
C475 N476 1.326 . S
C475 C479 1.460 . S
C475 H481 0.929 . S
N476 Mn469 2.257 . S
N476 C475 1.326 . S
N476 C480 1.362 . S
C477 C478 1.258 . S
C477 C480 1.431 . S
C477 C497 1.449 . S
C478 C477 1.258 . S
C478 C479 1.477 . S
C478 H498 0.931 . S
C479 C475 1.460 . S
C479 C478 1.477 . S
C479 H499 0.930 . S
C480 N476 1.362 . S
C480 C477 1.431 . S
C480 C490 1.476 . S
H481 C475 0.929 . S
C482 O473 1.250 . S
C482 O474 1.258 . S
O483 Mn468 2.162 . S
O483 C471 1.281 . S
O484 Mn468 2.297 . S
O484 C471 1.236 . S
N485 Mn469 2.282 . S
N485 C486 1.328 . S
N485 C490 1.318 . S
C486 N485 1.328 . S
C486 C487 1.457 . S
C486 H491 0.929 . S
C487 C486 1.457 . S
C487 C488 1.291 . S
C487 H500 0.931 . S
C488 C487 1.291 . S
C488 C489 1.373 . S
C488 H501 0.929 . S
C489 C488 1.373 . S
C489 C490 1.396 . S
C489 C496 1.403 . S
C490 C480 1.476 . S
C490 N485 1.318 . S
C490 C489 1.396 . S
H491 C486 0.929 . S
O492 Mn468 2.385 . S
O492 C470 1.234 . S
O493 Mn468 2.209 . S
O493 Mn469 2.215 . S
O493 C470 1.283 . S
O494 Mn468 2.094 . S
O494 C472 1.240 . S
O495 Mn469 2.117 . S
O495 C472 1.264 . S
C496 C489 1.403 . S
C496 C497 1.399 . S
C496 H502 0.929 . S
C497 C477 1.449 . S
C497 C496 1.399 . S
C497 H503 0.930 . S
H498 C478 0.931 . S
H499 C479 0.930 . S
H500 C487 0.931 . S
H501 C488 0.929 . S
H502 C496 0.929 . S
H503 C497 0.930 . S
Mn504 O509 2.095 . S
Mn504 O519 2.162 . S
Mn504 O520 2.297 . S
Mn504 O528 2.385 . S
Mn504 O529 2.209 . S
Mn504 O530 2.094 . S
Mn505 O510 2.121 . S
Mn505 N512 2.257 . S
Mn505 N521 2.282 . S
Mn505 O529 2.215 . S
Mn505 O531 2.117 . S
C506 O528 1.234 . S
C506 O529 1.283 . S
C507 O519 1.281 . S
C507 O520 1.236 . S
C508 O530 1.240 . S
C508 O531 1.264 . S
O509 Mn504 2.095 . S
O509 C518 1.250 . S
O510 Mn505 2.121 . S
O510 C518 1.258 . S
C511 N512 1.326 . S
C511 C515 1.460 . S
C511 H517 0.929 . S
N512 Mn505 2.257 . S
N512 C511 1.326 . S
N512 C516 1.362 . S
C513 C514 1.258 . S
C513 C516 1.431 . S
C513 C533 1.449 . S
C514 C513 1.258 . S
C514 C515 1.477 . S
C514 H534 0.931 . S
C515 C511 1.460 . S
C515 C514 1.477 . S
C515 H535 0.930 . S
C516 N512 1.362 . S
C516 C513 1.431 . S
C516 C526 1.476 . S
H517 C511 0.929 . S
C518 O509 1.250 . S
C518 O510 1.258 . S
O519 Mn504 2.162 . S
O519 C507 1.281 . S
O520 Mn504 2.297 . S
O520 C507 1.236 . S
N521 Mn505 2.282 . S
N521 C522 1.328 . S
N521 C526 1.318 . S
C522 N521 1.328 . S
C522 C523 1.457 . S
C522 H527 0.929 . S
C523 C522 1.457 . S
C523 C524 1.291 . S
C523 H536 0.931 . S
C524 C523 1.291 . S
C524 C525 1.373 . S
C524 H537 0.929 . S
C525 C524 1.373 . S
C525 C526 1.396 . S
C525 C532 1.403 . S
C526 C516 1.476 . S
C526 N521 1.318 . S
C526 C525 1.396 . S
H527 C522 0.929 . S
O528 Mn504 2.385 . S
O528 C506 1.234 . S
O529 Mn504 2.209 . S
O529 Mn505 2.215 . S
O529 C506 1.283 . S
O530 Mn504 2.094 . S
O530 C508 1.240 . S
O531 Mn505 2.117 . S
O531 C508 1.264 . S
C532 C525 1.403 . S
C532 C533 1.399 . S
C532 H538 0.929 . S
C533 C513 1.449 . S
C533 C532 1.399 . S
C533 H539 0.930 . S
H534 C514 0.931 . S
H535 C515 0.930 . S
H536 C523 0.931 . S
H537 C524 0.929 . S
H538 C532 0.929 . S
H539 C533 0.930 . S
Mn540 O545 2.095 . S
Mn540 O555 2.162 . S
Mn540 O556 2.297 . S
Mn540 O564 2.385 . S
Mn540 O565 2.209 . S
Mn540 O566 2.094 . S
Mn541 O546 2.121 . S
Mn541 N548 2.257 . S
Mn541 N557 2.282 . S
Mn541 O565 2.215 . S
Mn541 O567 2.117 . S
C542 O564 1.234 . S
C542 O565 1.283 . S
C543 O555 1.281 . S
C543 O556 1.236 . S
C544 O566 1.240 . S
C544 O567 1.264 . S
O545 Mn540 2.095 . S
O545 C554 1.250 . S
O546 Mn541 2.121 . S
O546 C554 1.258 . S
C547 N548 1.326 . S
C547 C551 1.460 . S
C547 H553 0.929 . S
N548 Mn541 2.257 . S
N548 C547 1.326 . S
N548 C552 1.362 . S
C549 C550 1.258 . S
C549 C552 1.431 . S
C549 C569 1.449 . S
C550 C549 1.258 . S
C550 C551 1.477 . S
C550 H570 0.931 . S
C551 C547 1.460 . S
C551 C550 1.477 . S
C551 H571 0.930 . S
C552 N548 1.362 . S
C552 C549 1.431 . S
C552 C562 1.476 . S
H553 C547 0.929 . S
C554 O545 1.250 . S
C554 O546 1.258 . S
O555 Mn540 2.162 . S
O555 C543 1.281 . S
O556 Mn540 2.297 . S
O556 C543 1.236 . S
N557 Mn541 2.282 . S
N557 C558 1.328 . S
N557 C562 1.318 . S
C558 N557 1.328 . S
C558 C559 1.457 . S
C558 H563 0.929 . S
C559 C558 1.457 . S
C559 C560 1.291 . S
C559 H572 0.931 . S
C560 C559 1.291 . S
C560 C561 1.373 . S
C560 H573 0.929 . S
C561 C560 1.373 . S
C561 C562 1.396 . S
C561 C568 1.403 . S
C562 C552 1.476 . S
C562 N557 1.318 . S
C562 C561 1.396 . S
H563 C558 0.929 . S
O564 Mn540 2.385 . S
O564 C542 1.234 . S
O565 Mn540 2.209 . S
O565 Mn541 2.215 . S
O565 C542 1.283 . S
O566 Mn540 2.094 . S
O566 C544 1.240 . S
O567 Mn541 2.117 . S
O567 C544 1.264 . S
C568 C561 1.403 . S
C568 C569 1.399 . S
C568 H574 0.929 . S
C569 C549 1.449 . S
C569 C568 1.399 . S
C569 H575 0.930 . S
H570 C550 0.931 . S
H571 C551 0.930 . S
H572 C559 0.931 . S
H573 C560 0.929 . S
H574 C568 0.929 . S
H575 C569 0.930 . S
H576 C584 0.929 . S
H577 C586 0.930 . S
H578 C588 0.930 . S
H579 C591 0.929 . S
H580 C594 0.930 . S
H581 C596 0.960 . S
H582 C596 0.960 . S
H583 C596 0.960 . S
C584 H576 0.929 . S
C584 C585 1.377 . S
C584 C586 1.384 . S
C585 C584 1.377 . S
C585 C591 1.390 . S
C586 H577 0.930 . S
C586 C584 1.384 . S
C586 C587 1.372 . S
C587 C586 1.372 . S
C587 C588 1.400 . S
C587 C592 1.490 . S
C588 H578 0.930 . S
C588 C587 1.400 . S
C588 C591 1.386 . S
H589 C605 0.930 . S
H590 C606 0.931 . S
C591 H579 0.929 . S
C591 C585 1.390 . S
C591 C588 1.386 . S
C592 C587 1.490 . S
C592 C594 1.395 . S
C592 C595 1.403 . S
H593 C599 0.930 . S
C594 H580 0.930 . S
C594 C592 1.395 . S
C594 C597 1.403 1_455 S
C595 C592 1.403 . S
C595 C596 1.524 . S
C595 C599 1.400 1_455 S
C596 H581 0.960 . S
C596 H582 0.960 . S
C596 H583 0.960 . S
C596 C595 1.524 . S
C597 C594 1.403 1_655 S
C597 C598 1.392 . S
C597 C601 1.495 . S
C598 C597 1.392 . S
C598 C599 1.385 . S
C598 C600 1.478 . S
C599 H593 0.930 . S
C599 C595 1.400 1_655 S
C599 C598 1.385 . S
C600 C598 1.478 . S
C600 C602 1.381 . S
C600 C606 1.383 . S
C601 C597 1.495 . S
C601 H607 0.959 . S
C601 H608 0.961 . S
C601 H609 0.960 . S
C602 C600 1.381 . S
C602 C603 1.394 . S
C602 H610 0.930 . S
C603 C602 1.394 . S
C603 C604 1.383 . S
C603 H611 0.929 . S
C604 C603 1.383 . S
C604 C605 1.377 . S
C605 H589 0.930 . S
C605 C604 1.377 . S
C605 C606 1.379 . S
C606 H590 0.931 . S
C606 C600 1.383 . S
C606 C605 1.379 . S
H607 C601 0.959 . S
H608 C601 0.961 . S
H609 C601 0.960 . S
H610 C602 0.930 . S
H611 C603 0.929 . S
H612 C620 0.929 . S
H613 C622 0.930 . S
H614 C624 0.930 . S
H615 C627 0.929 . S
H616 C630 0.930 . S
H617 C632 0.960 . S
H618 C632 0.960 . S
H619 C632 0.960 . S
C620 H612 0.929 . S
C620 C621 1.377 . S
C620 C622 1.384 . S
C621 C620 1.377 . S
C621 C627 1.390 . S
C622 H613 0.930 . S
C622 C620 1.384 . S
C622 C623 1.372 . S
C623 C622 1.372 . S
C623 C624 1.400 . S
C623 C628 1.490 . S
C624 H614 0.930 . S
C624 C623 1.400 . S
C624 C627 1.386 . S
H625 C641 0.930 . S
H626 C642 0.931 . S
C627 H615 0.929 . S
C627 C621 1.390 . S
C627 C624 1.386 . S
C628 C623 1.490 . S
C628 C630 1.395 . S
C628 C631 1.403 . S
H629 C635 0.930 . S
C630 H616 0.930 . S
C630 C628 1.395 . S
C630 C633 1.403 1_655 S
C631 C628 1.403 . S
C631 C632 1.524 . S
C631 C635 1.400 1_655 S
C632 H617 0.960 . S
C632 H618 0.960 . S
C632 H619 0.960 . S
C632 C631 1.524 . S
C633 C630 1.403 1_455 S
C633 C634 1.392 . S
C633 C637 1.495 . S
C634 C633 1.392 . S
C634 C635 1.385 . S
C634 C636 1.478 . S
C635 H629 0.930 . S
C635 C631 1.400 1_455 S
C635 C634 1.385 . S
C636 C634 1.478 . S
C636 C638 1.381 . S
C636 C642 1.383 . S
C637 C633 1.495 . S
C637 H643 0.959 . S
C637 H644 0.961 . S
C637 H645 0.960 . S
C638 C636 1.381 . S
C638 C639 1.394 . S
C638 H646 0.930 . S
C639 C638 1.394 . S
C639 C640 1.383 . S
C639 H647 0.929 . S
C640 C639 1.383 . S
C640 C641 1.377 . S
C641 H625 0.930 . S
C641 C640 1.377 . S
C641 C642 1.379 . S
C642 H626 0.931 . S
C642 C636 1.383 . S
C642 C641 1.379 . S
H643 C637 0.959 . S
H644 C637 0.961 . S
H645 C637 0.960 . S
H646 C638 0.930 . S
H647 C639 0.929 . S
H648 C656 0.929 . S
H649 C658 0.930 . S
H650 C660 0.930 . S
H651 C663 0.929 . S
H652 C666 0.930 . S
H653 C668 0.960 . S
H654 C668 0.960 . S
H655 C668 0.960 . S
C656 H648 0.929 . S
C656 C657 1.377 . S
C656 C658 1.384 . S
C657 C656 1.377 . S
C657 C663 1.390 . S
C658 H649 0.930 . S
C658 C656 1.384 . S
C658 C659 1.372 . S
C659 C658 1.372 . S
C659 C660 1.400 . S
C659 C664 1.490 . S
C660 H650 0.930 . S
C660 C659 1.400 . S
C660 C663 1.386 . S
H661 C677 0.930 . S
H662 C678 0.931 . S
C663 H651 0.929 . S
C663 C657 1.390 . S
C663 C660 1.386 . S
C664 C659 1.490 . S
C664 C666 1.395 . S
C664 C667 1.403 . S
H665 C671 0.930 . S
C666 H652 0.930 . S
C666 C664 1.395 . S
C666 C669 1.403 1_655 S
C667 C664 1.403 . S
C667 C668 1.524 . S
C667 C671 1.400 1_655 S
C668 H653 0.960 . S
C668 H654 0.960 . S
C668 H655 0.960 . S
C668 C667 1.524 . S
C669 C666 1.403 1_455 S
C669 C670 1.392 . S
C669 C673 1.495 . S
C670 C669 1.392 . S
C670 C671 1.385 . S
C670 C672 1.478 . S
C671 H665 0.930 . S
C671 C667 1.400 1_455 S
C671 C670 1.385 . S
C672 C670 1.478 . S
C672 C674 1.381 . S
C672 C678 1.383 . S
C673 C669 1.495 . S
C673 H679 0.959 . S
C673 H680 0.961 . S
C673 H681 0.960 . S
C674 C672 1.381 . S
C674 C675 1.394 . S
C674 H682 0.930 . S
C675 C674 1.394 . S
C675 C676 1.383 . S
C675 H683 0.929 . S
C676 C675 1.383 . S
C676 C677 1.377 . S
C677 H661 0.930 . S
C677 C676 1.377 . S
C677 C678 1.379 . S
C678 H662 0.931 . S
C678 C672 1.383 . S
C678 C677 1.379 . S
H679 C673 0.959 . S
H680 C673 0.961 . S
H681 C673 0.960 . S
H682 C674 0.930 . S
H683 C675 0.929 . S
H684 C692 0.929 . S
H685 C694 0.930 . S
H686 C696 0.930 . S
H687 C699 0.929 . S
H688 C702 0.930 . S
H689 C704 0.960 . S
H690 C704 0.960 . S
H691 C704 0.960 . S
C692 H684 0.929 . S
C692 C693 1.377 . S
C692 C694 1.384 . S
C693 C692 1.377 . S
C693 C699 1.390 . S
C694 H685 0.930 . S
C694 C692 1.384 . S
C694 C695 1.372 . S
C695 C694 1.372 . S
C695 C696 1.400 . S
C695 C700 1.490 . S
C696 H686 0.930 . S
C696 C695 1.400 . S
C696 C699 1.386 . S
H697 C713 0.930 . S
H698 C714 0.931 . S
C699 H687 0.929 . S
C699 C693 1.390 . S
C699 C696 1.386 . S
C700 C695 1.490 . S
C700 C702 1.395 . S
C700 C703 1.403 . S
H701 C707 0.930 . S
C702 H688 0.930 . S
C702 C700 1.395 . S
C702 C705 1.403 1_455 S
C703 C700 1.403 . S
C703 C704 1.524 . S
C703 C707 1.400 1_455 S
C704 H689 0.960 . S
C704 H690 0.960 . S
C704 H691 0.960 . S
C704 C703 1.524 . S
C705 C702 1.403 1_655 S
C705 C706 1.392 . S
C705 C709 1.495 . S
C706 C705 1.392 . S
C706 C707 1.385 . S
C706 C708 1.478 . S
C707 H701 0.930 . S
C707 C703 1.400 1_655 S
C707 C706 1.385 . S
C708 C706 1.478 . S
C708 C710 1.381 . S
C708 C714 1.383 . S
C709 C705 1.495 . S
C709 H715 0.959 . S
C709 H716 0.961 . S
C709 H717 0.960 . S
C710 C708 1.381 . S
C710 C711 1.394 . S
C710 H718 0.930 . S
C711 C710 1.394 . S
C711 C712 1.383 . S
C711 H719 0.929 . S
C712 C711 1.383 . S
C712 C713 1.377 . S
C713 H697 0.930 . S
C713 C712 1.377 . S
C713 C714 1.379 . S
C714 H698 0.931 . S
C714 C708 1.383 . S
C714 C713 1.379 . S
H715 C709 0.959 . S
H716 C709 0.961 . S
H717 C709 0.960 . S
H718 C710 0.930 . S
H719 C711 0.929 . S
H720 C728 0.929 . S
H721 C730 0.930 . S
H722 C732 0.930 . S
H723 C735 0.929 . S
H724 C738 0.930 . S
H725 C740 0.960 . S
H726 C740 0.960 . S
H727 C740 0.960 . S
C728 H720 0.929 . S
C728 C729 1.377 . S
C728 C730 1.384 . S
C729 C728 1.377 . S
C729 C735 1.390 . S
C730 H721 0.930 . S
C730 C728 1.384 . S
C730 C731 1.372 . S
C731 C730 1.372 . S
C731 C732 1.400 . S
C731 C736 1.490 . S
C732 H722 0.930 . S
C732 C731 1.400 . S
C732 C735 1.386 . S
H733 C749 0.930 . S
H734 C750 0.931 . S
C735 H723 0.929 . S
C735 C729 1.390 . S
C735 C732 1.386 . S
C736 C731 1.490 . S
C736 C738 1.395 . S
C736 C739 1.403 . S
H737 C743 0.930 . S
C738 H724 0.930 . S
C738 C736 1.395 . S
C738 C741 1.403 . S
C739 C736 1.403 . S
C739 C740 1.524 . S
C739 C743 1.400 . S
C740 H725 0.960 . S
C740 H726 0.960 . S
C740 H727 0.960 . S
C740 C739 1.524 . S
C741 C738 1.403 . S
C741 C742 1.392 . S
C741 C745 1.495 . S
C742 C741 1.392 . S
C742 C743 1.385 . S
C742 C744 1.478 . S
C743 H737 0.930 . S
C743 C739 1.400 . S
C743 C742 1.385 . S
C744 C742 1.478 . S
C744 C746 1.381 . S
C744 C750 1.383 . S
C745 C741 1.495 . S
C745 H751 0.959 . S
C745 H752 0.961 . S
C745 H753 0.960 . S
C746 C744 1.381 . S
C746 C747 1.394 . S
C746 H754 0.930 . S
C747 C746 1.394 . S
C747 C748 1.383 . S
C747 H755 0.929 . S
C748 C747 1.383 . S
C748 C749 1.377 . S
C749 H733 0.930 . S
C749 C748 1.377 . S
C749 C750 1.379 . S
C750 H734 0.931 . S
C750 C744 1.383 . S
C750 C749 1.379 . S
H751 C745 0.959 . S
H752 C745 0.961 . S
H753 C745 0.960 . S
H754 C746 0.930 . S
H755 C747 0.929 . S
H756 C764 0.929 . S
H757 C766 0.930 . S
H758 C768 0.930 . S
H759 C771 0.929 . S
H760 C774 0.930 . S
H761 C776 0.960 . S
H762 C776 0.960 . S
H763 C776 0.960 . S
C764 H756 0.929 . S
C764 C765 1.377 . S
C764 C766 1.384 . S
C765 C764 1.377 . S
C765 C771 1.390 . S
C766 H757 0.930 . S
C766 C764 1.384 . S
C766 C767 1.372 . S
C767 C766 1.372 . S
C767 C768 1.400 . S
C767 C772 1.490 . S
C768 H758 0.930 . S
C768 C767 1.400 . S
C768 C771 1.386 . S
H769 C785 0.930 . S
H770 C786 0.931 . S
C771 H759 0.929 . S
C771 C765 1.390 . S
C771 C768 1.386 . S
C772 C767 1.490 . S
C772 C774 1.395 . S
C772 C775 1.403 . S
H773 C779 0.930 . S
C774 H760 0.930 . S
C774 C772 1.395 . S
C774 C777 1.403 . S
C775 C772 1.403 . S
C775 C776 1.524 . S
C775 C779 1.400 . S
C776 H761 0.960 . S
C776 H762 0.960 . S
C776 H763 0.960 . S
C776 C775 1.524 . S
C777 C774 1.403 . S
C777 C778 1.392 . S
C777 C781 1.495 . S
C778 C777 1.392 . S
C778 C779 1.385 . S
C778 C780 1.478 . S
C779 H773 0.930 . S
C779 C775 1.400 . S
C779 C778 1.385 . S
C780 C778 1.478 . S
C780 C782 1.381 . S
C780 C786 1.383 . S
C781 C777 1.495 . S
C781 H787 0.959 . S
C781 H788 0.961 . S
C781 H789 0.960 . S
C782 C780 1.381 . S
C782 C783 1.394 . S
C782 H790 0.930 . S
C783 C782 1.394 . S
C783 C784 1.383 . S
C783 H791 0.929 . S
C784 C783 1.383 . S
C784 C785 1.377 . S
C785 H769 0.930 . S
C785 C784 1.377 . S
C785 C786 1.379 . S
C786 H770 0.931 . S
C786 C780 1.383 . S
C786 C785 1.379 . S
H787 C781 0.959 . S
H788 C781 0.961 . S
H789 C781 0.960 . S
H790 C782 0.930 . S
H791 C783 0.929 . S
H792 C800 0.929 . S
H793 C802 0.930 . S
H794 C804 0.930 . S
H795 C807 0.929 . S
H796 C810 0.930 . S
H797 C812 0.960 . S
H798 C812 0.960 . S
H799 C812 0.960 . S
C800 H792 0.929 . S
C800 C801 1.377 . S
C800 C802 1.384 . S
C801 C800 1.377 . S
C801 C807 1.390 . S
C802 H793 0.930 . S
C802 C800 1.384 . S
C802 C803 1.372 . S
C803 C802 1.372 . S
C803 C804 1.400 . S
C803 C808 1.490 . S
C804 H794 0.930 . S
C804 C803 1.400 . S
C804 C807 1.386 . S
H805 C821 0.930 . S
H806 C822 0.931 . S
C807 H795 0.929 . S
C807 C801 1.390 . S
C807 C804 1.386 . S
C808 C803 1.490 . S
C808 C810 1.395 . S
C808 C811 1.403 . S
H809 C815 0.930 . S
C810 H796 0.930 . S
C810 C808 1.395 . S
C810 C813 1.403 . S
C811 C808 1.403 . S
C811 C812 1.524 . S
C811 C815 1.400 . S
C812 H797 0.960 . S
C812 H798 0.960 . S
C812 H799 0.960 . S
C812 C811 1.524 . S
C813 C810 1.403 . S
C813 C814 1.392 . S
C813 C817 1.495 . S
C814 C813 1.392 . S
C814 C815 1.385 . S
C814 C816 1.478 . S
C815 H809 0.930 . S
C815 C811 1.400 . S
C815 C814 1.385 . S
C816 C814 1.478 . S
C816 C818 1.381 . S
C816 C822 1.383 . S
C817 C813 1.495 . S
C817 H823 0.959 . S
C817 H824 0.961 . S
C817 H825 0.960 . S
C818 C816 1.381 . S
C818 C819 1.394 . S
C818 H826 0.930 . S
C819 C818 1.394 . S
C819 C820 1.383 . S
C819 H827 0.929 . S
C820 C819 1.383 . S
C820 C821 1.377 . S
C821 H805 0.930 . S
C821 C820 1.377 . S
C821 C822 1.379 . S
C822 H806 0.931 . S
C822 C816 1.383 . S
C822 C821 1.379 . S
H823 C817 0.959 . S
H824 C817 0.961 . S
H825 C817 0.960 . S
H826 C818 0.930 . S
H827 C819 0.929 . S
H828 C836 0.929 . S
H829 C838 0.930 . S
H830 C840 0.930 . S
H831 C843 0.929 . S
H832 C846 0.930 . S
H833 C848 0.960 . S
H834 C848 0.960 . S
H835 C848 0.960 . S
C836 H828 0.929 . S
C836 C837 1.377 . S
C836 C838 1.384 . S
C837 C836 1.377 . S
C837 C843 1.390 . S
C838 H829 0.930 . S
C838 C836 1.384 . S
C838 C839 1.372 . S
C839 C838 1.372 . S
C839 C840 1.400 . S
C839 C844 1.490 . S
C840 H830 0.930 . S
C840 C839 1.400 . S
C840 C843 1.386 . S
H841 C857 0.930 . S
H842 C858 0.931 . S
C843 H831 0.929 . S
C843 C837 1.390 . S
C843 C840 1.386 . S
C844 C839 1.490 . S
C844 C846 1.395 . S
C844 C847 1.403 . S
H845 C851 0.930 . S
C846 H832 0.930 . S
C846 C844 1.395 . S
C846 C849 1.403 . S
C847 C844 1.403 . S
C847 C848 1.524 . S
C847 C851 1.400 . S
C848 H833 0.960 . S
C848 H834 0.960 . S
C848 H835 0.960 . S
C848 C847 1.524 . S
C849 C846 1.403 . S
C849 C850 1.392 . S
C849 C853 1.495 . S
C850 C849 1.392 . S
C850 C851 1.385 . S
C850 C852 1.478 . S
C851 H845 0.930 . S
C851 C847 1.400 . S
C851 C850 1.385 . S
C852 C850 1.478 . S
C852 C854 1.381 . S
C852 C858 1.383 . S
C853 C849 1.495 . S
C853 H859 0.959 . S
C853 H860 0.961 . S
C853 H861 0.960 . S
C854 C852 1.381 . S
C854 C855 1.394 . S
C854 H862 0.930 . S
C855 C854 1.394 . S
C855 C856 1.383 . S
C855 H863 0.929 . S
C856 C855 1.383 . S
C856 C857 1.377 . S
C857 H841 0.930 . S
C857 C856 1.377 . S
C857 C858 1.379 . S
C858 H842 0.931 . S
C858 C852 1.383 . S
C858 C857 1.379 . S
H859 C853 0.959 . S
H860 C853 0.961 . S
H861 C853 0.960 . S
H862 C854 0.930 . S
H863 C855 0.929 . S
H864 C872 0.929 . S
H865 C874 0.930 . S
H866 C876 0.930 . S
H867 C879 0.929 . S
H868 C882 0.930 . S
H869 C884 0.960 . S
H870 C884 0.960 . S
H871 C884 0.960 . S
C872 H864 0.929 . S
C872 C873 1.377 . S
C872 C874 1.384 . S
C873 C872 1.377 . S
C873 C879 1.390 . S
C874 H865 0.930 . S
C874 C872 1.384 . S
C874 C875 1.372 . S
C875 C874 1.372 . S
C875 C876 1.400 . S
C875 C880 1.490 . S
C876 H866 0.930 . S
C876 C875 1.400 . S
C876 C879 1.386 . S
H877 C893 0.930 . S
H878 C894 0.931 . S
C879 H867 0.929 . S
C879 C873 1.390 . S
C879 C876 1.386 . S
C880 C875 1.490 . S
C880 C882 1.395 . S
C880 C883 1.403 . S
H881 C887 0.930 . S
C882 H868 0.930 . S
C882 C880 1.395 . S
C882 C885 1.403 . S
C883 C880 1.403 . S
C883 C884 1.524 . S
C883 C887 1.400 . S
C884 H869 0.960 . S
C884 H870 0.960 . S
C884 H871 0.960 . S
C884 C883 1.524 . S
C885 C882 1.403 . S
C885 C886 1.392 . S
C885 C889 1.495 . S
C886 C885 1.392 . S
C886 C887 1.385 . S
C886 C888 1.478 . S
C887 H881 0.930 . S
C887 C883 1.400 . S
C887 C886 1.385 . S
C888 C886 1.478 . S
C888 C890 1.381 . S
C888 C894 1.383 . S
C889 C885 1.495 . S
C889 H895 0.959 . S
C889 H896 0.961 . S
C889 H897 0.960 . S
C890 C888 1.381 . S
C890 C891 1.394 . S
C890 H898 0.930 . S
C891 C890 1.394 . S
C891 C892 1.383 . S
C891 H899 0.929 . S
C892 C891 1.383 . S
C892 C893 1.377 . S
C893 H877 0.930 . S
C893 C892 1.377 . S
C893 C894 1.379 . S
C894 H878 0.931 . S
C894 C888 1.383 . S
C894 C893 1.379 . S
H895 C889 0.959 . S
H896 C889 0.961 . S
H897 C889 0.960 . S
H898 C890 0.930 . S
H899 C891 0.929 . S
H900 C908 0.929 . S
H901 C910 0.930 . S
H902 C912 0.930 . S
H903 C915 0.929 . S
H904 C918 0.930 . S
H905 C920 0.960 . S
H906 C920 0.960 . S
H907 C920 0.960 . S
C908 H900 0.929 . S
C908 C909 1.377 . S
C908 C910 1.384 . S
C909 C908 1.377 . S
C909 C915 1.390 . S
C910 H901 0.930 . S
C910 C908 1.384 . S
C910 C911 1.372 . S
C911 C910 1.372 . S
C911 C912 1.400 . S
C911 C916 1.490 . S
C912 H902 0.930 . S
C912 C911 1.400 . S
C912 C915 1.386 . S
H913 C929 0.930 . S
H914 C930 0.931 . S
C915 H903 0.929 . S
C915 C909 1.390 . S
C915 C912 1.386 . S
C916 C911 1.490 . S
C916 C918 1.395 . S
C916 C919 1.403 . S
H917 C923 0.930 . S
C918 H904 0.930 . S
C918 C916 1.395 . S
C918 C921 1.403 . S
C919 C916 1.403 . S
C919 C920 1.524 . S
C919 C923 1.400 . S
C920 H905 0.960 . S
C920 H906 0.960 . S
C920 H907 0.960 . S
C920 C919 1.524 . S
C921 C918 1.403 . S
C921 C922 1.392 . S
C921 C925 1.495 . S
C922 C921 1.392 . S
C922 C923 1.385 . S
C922 C924 1.478 . S
C923 H917 0.930 . S
C923 C919 1.400 . S
C923 C922 1.385 . S
C924 C922 1.478 . S
C924 C926 1.381 . S
C924 C930 1.383 . S
C925 C921 1.495 . S
C925 H931 0.959 . S
C925 H932 0.961 . S
C925 H933 0.960 . S
C926 C924 1.381 . S
C926 C927 1.394 . S
C926 H934 0.930 . S
C927 C926 1.394 . S
C927 C928 1.383 . S
C927 H935 0.929 . S
C928 C927 1.383 . S
C928 C929 1.377 . S
C929 H913 0.930 . S
C929 C928 1.377 . S
C929 C930 1.379 . S
C930 H914 0.931 . S
C930 C924 1.383 . S
C930 C929 1.379 . S
H931 C925 0.959 . S
H932 C925 0.961 . S
H933 C925 0.960 . S
H934 C926 0.930 . S
H935 C927 0.929 . S
H936 C944 0.929 . S
H937 C946 0.930 . S
H938 C948 0.930 . S
H939 C951 0.929 . S
H940 C954 0.930 . S
H941 C956 0.960 . S
H942 C956 0.960 . S
H943 C956 0.960 . S
C944 H936 0.929 . S
C944 C945 1.377 . S
C944 C946 1.384 . S
C945 C944 1.377 . S
C945 C951 1.390 . S
C946 H937 0.930 . S
C946 C944 1.384 . S
C946 C947 1.372 . S
C947 C946 1.372 . S
C947 C948 1.400 . S
C947 C952 1.490 . S
C948 H938 0.930 . S
C948 C947 1.400 . S
C948 C951 1.386 . S
H949 C965 0.930 . S
H950 C966 0.931 . S
C951 H939 0.929 . S
C951 C945 1.390 . S
C951 C948 1.386 . S
C952 C947 1.490 . S
C952 C954 1.395 . S
C952 C955 1.403 . S
H953 C959 0.930 . S
C954 H940 0.930 . S
C954 C952 1.395 . S
C954 C957 1.403 . S
C955 C952 1.403 . S
C955 C956 1.524 . S
C955 C959 1.400 . S
C956 H941 0.960 . S
C956 H942 0.960 . S
C956 H943 0.960 . S
C956 C955 1.524 . S
C957 C954 1.403 . S
C957 C958 1.392 . S
C957 C961 1.495 . S
C958 C957 1.392 . S
C958 C959 1.385 . S
C958 C960 1.478 . S
C959 H953 0.930 . S
C959 C955 1.400 . S
C959 C958 1.385 . S
C960 C958 1.478 . S
C960 C962 1.381 . S
C960 C966 1.383 . S
C961 C957 1.495 . S
C961 H967 0.959 . S
C961 H968 0.961 . S
C961 H969 0.960 . S
C962 C960 1.381 . S
C962 C963 1.394 . S
C962 H970 0.930 . S
C963 C962 1.394 . S
C963 C964 1.383 . S
C963 H971 0.929 . S
C964 C963 1.383 . S
C964 C965 1.377 . S
C965 H949 0.930 . S
C965 C964 1.377 . S
C965 C966 1.379 . S
C966 H950 0.931 . S
C966 C960 1.383 . S
C966 C965 1.379 . S
H967 C961 0.959 . S
H968 C961 0.961 . S
H969 C961 0.960 . S
H970 C962 0.930 . S
H971 C963 0.929 . S
H972 C980 0.929 . S
H973 C982 0.930 . S
H974 C984 0.930 . S
H975 C987 0.929 . S
H976 C990 0.930 . S
H977 C992 0.960 . S
H978 C992 0.960 . S
H979 C992 0.960 . S
C980 H972 0.929 . S
C980 C981 1.377 . S
C980 C982 1.384 . S
C981 C980 1.377 . S
C981 C987 1.390 . S
C982 H973 0.930 . S
C982 C980 1.384 . S
C982 C983 1.372 . S
C983 C982 1.372 . S
C983 C984 1.400 . S
C983 C988 1.490 . S
C984 H974 0.930 . S
C984 C983 1.400 . S
C984 C987 1.386 . S
H985 C1001 0.930 . S
H986 C1002 0.931 . S
C987 H975 0.929 . S
C987 C981 1.390 . S
C987 C984 1.386 . S
C988 C983 1.490 . S
C988 C990 1.395 . S
C988 C991 1.403 . S
H989 C995 0.930 . S
C990 H976 0.930 . S
C990 C988 1.395 . S
C990 C993 1.403 . S
C991 C988 1.403 . S
C991 C992 1.524 . S
C991 C995 1.400 . S
C992 H977 0.960 . S
C992 H978 0.960 . S
C992 H979 0.960 . S
C992 C991 1.524 . S
C993 C990 1.403 . S
C993 C994 1.392 . S
C993 C997 1.495 . S
C994 C993 1.392 . S
C994 C995 1.385 . S
C994 C996 1.478 . S
C995 H989 0.930 . S
C995 C991 1.400 . S
C995 C994 1.385 . S
C996 C994 1.478 . S
C996 C998 1.381 . S
C996 C1002 1.383 . S
C997 C993 1.495 . S
C997 H1003 0.959 . S
C997 H1004 0.961 . S
C997 H1005 0.960 . S
C998 C996 1.381 . S
C998 C999 1.394 . S
C998 H1006 0.930 . S
C999 C998 1.394 . S
C999 C1000 1.383 . S
C999 H1007 0.929 . S
C1000 C999 1.383 . S
C1000 C1001 1.377 . S
C1001 H985 0.930 . S
C1001 C1000 1.377 . S
C1001 C1002 1.379 . S
C1002 H986 0.931 . S
C1002 C996 1.383 . S
C1002 C1001 1.379 . S
H1003 C997 0.959 . S
H1004 C997 0.961 . S
H1005 C997 0.960 . S
H1006 C998 0.930 . S
H1007 C999 0.929 . S
H1008 C1016 0.929 . S
H1009 C1018 0.930 . S
H1010 C1020 0.930 . S
H1011 C1023 0.929 . S
H1012 C1026 0.930 . S
H1013 C1028 0.960 . S
H1014 C1028 0.960 . S
H1015 C1028 0.960 . S
C1016 H1008 0.929 . S
C1016 C1017 1.377 . S
C1016 C1018 1.384 . S
C1017 C1016 1.377 . S
C1017 C1023 1.390 . S
C1018 H1009 0.930 . S
C1018 C1016 1.384 . S
C1018 C1019 1.372 . S
C1019 C1018 1.372 . S
C1019 C1020 1.400 . S
C1019 C1024 1.490 . S
C1020 H1010 0.930 . S
C1020 C1019 1.400 . S
C1020 C1023 1.386 . S
H1021 C1037 0.930 . S
H1022 C1038 0.931 . S
C1023 H1011 0.929 . S
C1023 C1017 1.390 . S
C1023 C1020 1.386 . S
C1024 C1019 1.490 . S
C1024 C1026 1.395 . S
C1024 C1027 1.403 . S
H1025 C1031 0.930 . S
C1026 H1012 0.930 . S
C1026 C1024 1.395 . S
C1026 C1029 1.403 . S
C1027 C1024 1.403 . S
C1027 C1028 1.524 . S
C1027 C1031 1.400 . S
C1028 H1013 0.960 . S
C1028 H1014 0.960 . S
C1028 H1015 0.960 . S
C1028 C1027 1.524 . S
C1029 C1026 1.403 . S
C1029 C1030 1.392 . S
C1029 C1033 1.495 . S
C1030 C1029 1.392 . S
C1030 C1031 1.385 . S
C1030 C1032 1.478 . S
C1031 H1025 0.930 . S
C1031 C1027 1.400 . S
C1031 C1030 1.385 . S
C1032 C1030 1.478 . S
C1032 C1034 1.381 . S
C1032 C1038 1.383 . S
C1033 C1029 1.495 . S
C1033 H1039 0.959 . S
C1033 H1040 0.961 . S
C1033 H1041 0.960 . S
C1034 C1032 1.381 . S
C1034 C1035 1.394 . S
C1034 H1042 0.930 . S
C1035 C1034 1.394 . S
C1035 C1036 1.383 . S
C1035 H1043 0.929 . S
C1036 C1035 1.383 . S
C1036 C1037 1.377 . S
C1037 H1021 0.930 . S
C1037 C1036 1.377 . S
C1037 C1038 1.379 . S
C1038 H1022 0.931 . S
C1038 C1032 1.383 . S
C1038 C1037 1.379 . S
H1039 C1033 0.959 . S
H1040 C1033 0.961 . S
H1041 C1033 0.960 . S
H1042 C1034 0.930 . S
H1043 C1035 0.929 . S
H1044 C1052 0.929 . S
H1045 C1054 0.930 . S
H1046 C1056 0.930 . S
H1047 C1059 0.929 . S
H1048 C1062 0.930 . S
H1049 C1064 0.960 . S
H1050 C1064 0.960 . S
H1051 C1064 0.960 . S
C1052 H1044 0.929 . S
C1052 C1053 1.377 . S
C1052 C1054 1.384 . S
C1053 C1052 1.377 . S
C1053 C1059 1.390 . S
C1054 H1045 0.930 . S
C1054 C1052 1.384 . S
C1054 C1055 1.372 . S
C1055 C1054 1.372 . S
C1055 C1056 1.400 . S
C1055 C1060 1.490 . S
C1056 H1046 0.930 . S
C1056 C1055 1.400 . S
C1056 C1059 1.386 . S
H1057 C1073 0.930 . S
H1058 C1074 0.931 . S
C1059 H1047 0.929 . S
C1059 C1053 1.390 . S
C1059 C1056 1.386 . S
C1060 C1055 1.490 . S
C1060 C1062 1.395 . S
C1060 C1063 1.403 . S
H1061 C1067 0.930 . S
C1062 H1048 0.930 . S
C1062 C1060 1.395 . S
C1062 C1065 1.403 . S
C1063 C1060 1.403 . S
C1063 C1064 1.524 . S
C1063 C1067 1.400 . S
C1064 H1049 0.960 . S
C1064 H1050 0.960 . S
C1064 H1051 0.960 . S
C1064 C1063 1.524 . S
C1065 C1062 1.403 . S
C1065 C1066 1.392 . S
C1065 C1069 1.495 . S
C1066 C1065 1.392 . S
C1066 C1067 1.385 . S
C1066 C1068 1.478 . S
C1067 H1061 0.930 . S
C1067 C1063 1.400 . S
C1067 C1066 1.385 . S
C1068 C1066 1.478 . S
C1068 C1070 1.381 . S
C1068 C1074 1.383 . S
C1069 C1065 1.495 . S
C1069 H1075 0.959 . S
C1069 H1076 0.961 . S
C1069 H1077 0.960 . S
C1070 C1068 1.381 . S
C1070 C1071 1.394 . S
C1070 H1078 0.930 . S
C1071 C1070 1.394 . S
C1071 C1072 1.383 . S
C1071 H1079 0.929 . S
C1072 C1071 1.383 . S
C1072 C1073 1.377 . S
C1073 H1057 0.930 . S
C1073 C1072 1.377 . S
C1073 C1074 1.379 . S
C1074 H1058 0.931 . S
C1074 C1068 1.383 . S
C1074 C1073 1.379 . S
H1075 C1069 0.959 . S
H1076 C1069 0.961 . S
H1077 C1069 0.960 . S
H1078 C1070 0.930 . S
H1079 C1071 0.929 . S
H1080 C1088 0.929 . S
H1081 C1090 0.930 . S
H1082 C1092 0.930 . S
H1083 C1095 0.929 . S
H1084 C1098 0.930 . S
H1085 C1100 0.960 . S
H1086 C1100 0.960 . S
H1087 C1100 0.960 . S
C1088 H1080 0.929 . S
C1088 C1089 1.377 . S
C1088 C1090 1.384 . S
C1089 C1088 1.377 . S
C1089 C1095 1.390 . S
C1090 H1081 0.930 . S
C1090 C1088 1.384 . S
C1090 C1091 1.372 . S
C1091 C1090 1.372 . S
C1091 C1092 1.400 . S
C1091 C1096 1.490 . S
C1092 H1082 0.930 . S
C1092 C1091 1.400 . S
C1092 C1095 1.386 . S
H1093 C1109 0.930 . S
H1094 C1110 0.931 . S
C1095 H1083 0.929 . S
C1095 C1089 1.390 . S
C1095 C1092 1.386 . S
C1096 C1091 1.490 . S
C1096 C1098 1.395 . S
C1096 C1099 1.403 . S
H1097 C1103 0.930 . S
C1098 H1084 0.930 . S
C1098 C1096 1.395 . S
C1098 C1101 1.403 . S
C1099 C1096 1.403 . S
C1099 C1100 1.524 . S
C1099 C1103 1.400 . S
C1100 H1085 0.960 . S
C1100 H1086 0.960 . S
C1100 H1087 0.960 . S
C1100 C1099 1.524 . S
C1101 C1098 1.403 . S
C1101 C1102 1.392 . S
C1101 C1105 1.495 . S
C1102 C1101 1.392 . S
C1102 C1103 1.385 . S
C1102 C1104 1.478 . S
C1103 H1097 0.930 . S
C1103 C1099 1.400 . S
C1103 C1102 1.385 . S
C1104 C1102 1.478 . S
C1104 C1106 1.381 . S
C1104 C1110 1.383 . S
C1105 C1101 1.495 . S
C1105 H1111 0.959 . S
C1105 H1112 0.961 . S
C1105 H1113 0.960 . S
C1106 C1104 1.381 . S
C1106 C1107 1.394 . S
C1106 H1114 0.930 . S
C1107 C1106 1.394 . S
C1107 C1108 1.383 . S
C1107 H1115 0.929 . S
C1108 C1107 1.383 . S
C1108 C1109 1.377 . S
C1109 H1093 0.930 . S
C1109 C1108 1.377 . S
C1109 C1110 1.379 . S
C1110 H1094 0.931 . S
C1110 C1104 1.383 . S
C1110 C1109 1.379 . S
H1111 C1105 0.959 . S
H1112 C1105 0.961 . S
H1113 C1105 0.960 . S
H1114 C1106 0.930 . S
H1115 C1107 0.929 . S
H1116 C1124 0.929 . S
H1117 C1126 0.930 . S
H1118 C1128 0.930 . S
H1119 C1131 0.929 . S
H1120 C1134 0.930 . S
H1121 C1136 0.960 . S
H1122 C1136 0.960 . S
H1123 C1136 0.960 . S
C1124 H1116 0.929 . S
C1124 C1125 1.377 . S
C1124 C1126 1.384 . S
C1125 C1124 1.377 . S
C1125 C1131 1.390 . S
C1126 H1117 0.930 . S
C1126 C1124 1.384 . S
C1126 C1127 1.372 . S
C1127 C1126 1.372 . S
C1127 C1128 1.400 . S
C1127 C1132 1.490 . S
C1128 H1118 0.930 . S
C1128 C1127 1.400 . S
C1128 C1131 1.386 . S
H1129 C1145 0.930 . S
H1130 C1146 0.931 . S
C1131 H1119 0.929 . S
C1131 C1125 1.390 . S
C1131 C1128 1.386 . S
C1132 C1127 1.490 . S
C1132 C1134 1.395 . S
C1132 C1135 1.403 . S
H1133 C1139 0.930 . S
C1134 H1120 0.930 . S
C1134 C1132 1.395 . S
C1134 C1137 1.403 . S
C1135 C1132 1.403 . S
C1135 C1136 1.524 . S
C1135 C1139 1.400 . S
C1136 H1121 0.960 . S
C1136 H1122 0.960 . S
C1136 H1123 0.960 . S
C1136 C1135 1.524 . S
C1137 C1134 1.403 . S
C1137 C1138 1.392 . S
C1137 C1141 1.495 . S
C1138 C1137 1.392 . S
C1138 C1139 1.385 . S
C1138 C1140 1.478 . S
C1139 H1133 0.930 . S
C1139 C1135 1.400 . S
C1139 C1138 1.385 . S
C1140 C1138 1.478 . S
C1140 C1142 1.381 . S
C1140 C1146 1.383 . S
C1141 C1137 1.495 . S
C1141 H1147 0.959 . S
C1141 H1148 0.961 . S
C1141 H1149 0.960 . S
C1142 C1140 1.381 . S
C1142 C1143 1.394 . S
C1142 H1150 0.930 . S
C1143 C1142 1.394 . S
C1143 C1144 1.383 . S
C1143 H1151 0.929 . S
C1144 C1143 1.383 . S
C1144 C1145 1.377 . S
C1145 H1129 0.930 . S
C1145 C1144 1.377 . S
C1145 C1146 1.379 . S
C1146 H1130 0.931 . S
C1146 C1140 1.383 . S
C1146 C1145 1.379 . S
H1147 C1141 0.959 . S
H1148 C1141 0.961 . S
H1149 C1141 0.960 . S
H1150 C1142 0.930 . S
H1151 C1143 0.929 . S
H1152 C1160 0.929 . S
H1153 C1162 0.930 . S
H1154 C1164 0.930 1_554 S
H1155 C1167 0.929 . S
H1156 C1170 0.930 . S
H1157 C1172 0.960 . S
H1158 C1172 0.960 1_556 S
H1159 C1172 0.960 . S
C1160 H1152 0.929 . S
C1160 C1161 1.377 . S
C1160 C1162 1.384 . S
C1161 C1160 1.377 . S
C1161 C1167 1.390 . S
C1162 H1153 0.930 . S
C1162 C1160 1.384 . S
C1162 C1163 1.372 . S
C1163 C1162 1.372 . S
C1163 C1164 1.400 . S
C1163 C1168 1.490 . S
C1164 H1154 0.930 1_556 S
C1164 C1163 1.400 . S
C1164 C1167 1.386 . S
H1165 C1181 0.930 . S
H1166 C1182 0.931 . S
C1167 H1155 0.929 . S
C1167 C1161 1.390 . S
C1167 C1164 1.386 . S
C1168 C1163 1.490 . S
C1168 C1170 1.395 . S
C1168 C1171 1.403 1_556 S
H1169 C1175 0.930 . S
C1170 H1156 0.930 . S
C1170 C1168 1.395 . S
C1170 C1173 1.403 . S
C1171 C1168 1.403 1_554 S
C1171 C1172 1.524 . S
C1171 C1175 1.400 . S
C1172 H1157 0.960 . S
C1172 H1158 0.960 1_554 S
C1172 H1159 0.960 . S
C1172 C1171 1.524 . S
C1173 C1170 1.403 . S
C1173 C1174 1.392 1_556 S
C1173 C1177 1.495 . S
C1174 C1173 1.392 1_554 S
C1174 C1175 1.385 . S
C1174 C1176 1.478 . S
C1175 H1169 0.930 . S
C1175 C1171 1.400 . S
C1175 C1174 1.385 . S
C1176 C1174 1.478 . S
C1176 C1178 1.381 . S
C1176 C1182 1.383 . S
C1177 C1173 1.495 . S
C1177 H1183 0.959 . S
C1177 H1184 0.961 1_556 S
C1177 H1185 0.960 . S
C1178 C1176 1.381 . S
C1178 C1179 1.394 . S
C1178 H1186 0.930 1_554 S
C1179 C1178 1.394 . S
C1179 C1180 1.383 . S
C1179 H1187 0.929 . S
C1180 C1179 1.383 . S
C1180 C1181 1.377 . S
C1181 H1165 0.930 . S
C1181 C1180 1.377 . S
C1181 C1182 1.379 . S
C1182 H1166 0.931 . S
C1182 C1176 1.383 . S
C1182 C1181 1.379 . S
H1183 C1177 0.959 . S
H1184 C1177 0.961 1_554 S
H1185 C1177 0.960 . S
H1186 C1178 0.930 1_556 S
H1187 C1179 0.929 . S
H1188 C1196 0.929 . S
H1189 C1198 0.930 . S
H1190 C1200 0.930 . S
H1191 C1203 0.929 . S
H1192 C1206 0.930 . S
H1193 C1208 0.960 . S
H1194 C1208 0.960 . S
H1195 C1208 0.960 . S
C1196 H1188 0.929 . S
C1196 C1197 1.377 . S
C1196 C1198 1.384 . S
C1197 C1196 1.377 . S
C1197 C1203 1.390 . S
C1198 H1189 0.930 . S
C1198 C1196 1.384 . S
C1198 C1199 1.372 . S
C1199 C1198 1.372 . S
C1199 C1200 1.400 . S
C1199 C1204 1.490 . S
C1200 H1190 0.930 . S
C1200 C1199 1.400 . S
C1200 C1203 1.386 . S
H1201 C1217 0.930 . S
H1202 C1218 0.931 . S
C1203 H1191 0.929 . S
C1203 C1197 1.390 . S
C1203 C1200 1.386 . S
C1204 C1199 1.490 . S
C1204 C1206 1.395 . S
C1204 C1207 1.403 . S
H1205 C1211 0.930 . S
C1206 H1192 0.930 . S
C1206 C1204 1.395 . S
C1206 C1209 1.403 . S
C1207 C1204 1.403 . S
C1207 C1208 1.524 . S
C1207 C1211 1.400 . S
C1208 H1193 0.960 . S
C1208 H1194 0.960 . S
C1208 H1195 0.960 . S
C1208 C1207 1.524 . S
C1209 C1206 1.403 . S
C1209 C1210 1.392 . S
C1209 C1213 1.495 . S
C1210 C1209 1.392 . S
C1210 C1211 1.385 . S
C1210 C1212 1.478 . S
C1211 H1205 0.930 . S
C1211 C1207 1.400 . S
C1211 C1210 1.385 . S
C1212 C1210 1.478 . S
C1212 C1214 1.381 . S
C1212 C1218 1.383 . S
C1213 C1209 1.495 . S
C1213 H1219 0.959 . S
C1213 H1220 0.961 . S
C1213 H1221 0.960 . S
C1214 C1212 1.381 . S
C1214 C1215 1.394 . S
C1214 H1222 0.930 . S
C1215 C1214 1.394 . S
C1215 C1216 1.383 . S
C1215 H1223 0.929 . S
C1216 C1215 1.383 . S
C1216 C1217 1.377 . S
C1217 H1201 0.930 . S
C1217 C1216 1.377 . S
C1217 C1218 1.379 . S
C1218 H1202 0.931 . S
C1218 C1212 1.383 . S
C1218 C1217 1.379 . S
H1219 C1213 0.959 . S
H1220 C1213 0.961 . S
H1221 C1213 0.960 . S
H1222 C1214 0.930 . S
H1223 C1215 0.929 . S
H1224 C1232 0.929 . S
H1225 C1234 0.930 . S
H1226 C1236 0.930 . S
H1227 C1239 0.929 . S
H1228 C1242 0.930 . S
H1229 C1244 0.960 . S
H1230 C1244 0.960 . S
H1231 C1244 0.960 . S
C1232 H1224 0.929 . S
C1232 C1233 1.377 . S
C1232 C1234 1.384 . S
C1233 C1232 1.377 . S
C1233 C1239 1.390 . S
C1234 H1225 0.930 . S
C1234 C1232 1.384 . S
C1234 C1235 1.372 . S
C1235 C1234 1.372 . S
C1235 C1236 1.400 . S
C1235 C1240 1.490 . S
C1236 H1226 0.930 . S
C1236 C1235 1.400 . S
C1236 C1239 1.386 . S
H1237 C1253 0.930 . S
H1238 C1254 0.931 . S
C1239 H1227 0.929 . S
C1239 C1233 1.390 . S
C1239 C1236 1.386 . S
C1240 C1235 1.490 . S
C1240 C1242 1.395 . S
C1240 C1243 1.403 1_554 S
H1241 C1247 0.930 . S
C1242 H1228 0.930 . S
C1242 C1240 1.395 . S
C1242 C1245 1.403 . S
C1243 C1240 1.403 1_556 S
C1243 C1244 1.524 . S
C1243 C1247 1.400 . S
C1244 H1229 0.960 . S
C1244 H1230 0.960 . S
C1244 H1231 0.960 . S
C1244 C1243 1.524 . S
C1245 C1242 1.403 . S
C1245 C1246 1.392 1_554 S
C1245 C1249 1.495 . S
C1246 C1245 1.392 1_556 S
C1246 C1247 1.385 . S
C1246 C1248 1.478 . S
C1247 H1241 0.930 . S
C1247 C1243 1.400 . S
C1247 C1246 1.385 . S
C1248 C1246 1.478 . S
C1248 C1250 1.381 . S
C1248 C1254 1.383 . S
C1249 C1245 1.495 . S
C1249 H1255 0.959 . S
C1249 H1256 0.961 . S
C1249 H1257 0.960 . S
C1250 C1248 1.381 . S
C1250 C1251 1.394 . S
C1250 H1258 0.930 . S
C1251 C1250 1.394 . S
C1251 C1252 1.383 . S
C1251 H1259 0.929 . S
C1252 C1251 1.383 . S
C1252 C1253 1.377 . S
C1253 H1237 0.930 . S
C1253 C1252 1.377 . S
C1253 C1254 1.379 . S
C1254 H1238 0.931 . S
C1254 C1248 1.383 . S
C1254 C1253 1.379 . S
H1255 C1249 0.959 . S
H1256 C1249 0.961 . S
H1257 C1249 0.960 . S
H1258 C1250 0.930 . S
H1259 C1251 0.929 . S
H1260 C1268 0.929 . S
H1261 C1270 0.930 . S
H1262 C1272 0.930 . S
H1263 C1275 0.929 . S
H1264 C1278 0.930 . S
H1265 C1280 0.960 . S
H1266 C1280 0.960 . S
H1267 C1280 0.960 . S
C1268 H1260 0.929 . S
C1268 C1269 1.377 . S
C1268 C1270 1.384 . S
C1269 C1268 1.377 . S
C1269 C1275 1.390 . S
C1270 H1261 0.930 . S
C1270 C1268 1.384 . S
C1270 C1271 1.372 . S
C1271 C1270 1.372 . S
C1271 C1272 1.400 . S
C1271 C1276 1.490 . S
C1272 H1262 0.930 . S
C1272 C1271 1.400 . S
C1272 C1275 1.386 . S
H1273 C1289 0.930 . S
H1274 C1290 0.931 . S
C1275 H1263 0.929 . S
C1275 C1269 1.390 . S
C1275 C1272 1.386 . S
C1276 C1271 1.490 . S
C1276 C1278 1.395 . S
C1276 C1279 1.403 . S
H1277 C1283 0.930 . S
C1278 H1264 0.930 . S
C1278 C1276 1.395 . S
C1278 C1281 1.403 . S
C1279 C1276 1.403 . S
C1279 C1280 1.524 . S
C1279 C1283 1.400 . S
C1280 H1265 0.960 . S
C1280 H1266 0.960 . S
C1280 H1267 0.960 . S
C1280 C1279 1.524 . S
C1281 C1278 1.403 . S
C1281 C1282 1.392 . S
C1281 C1285 1.495 . S
C1282 C1281 1.392 . S
C1282 C1283 1.385 . S
C1282 C1284 1.478 . S
C1283 H1277 0.930 . S
C1283 C1279 1.400 . S
C1283 C1282 1.385 . S
C1284 C1282 1.478 . S
C1284 C1286 1.381 . S
C1284 C1290 1.383 . S
C1285 C1281 1.495 . S
C1285 H1291 0.959 . S
C1285 H1292 0.961 . S
C1285 H1293 0.960 . S
C1286 C1284 1.381 . S
C1286 C1287 1.394 . S
C1286 H1294 0.930 . S
C1287 C1286 1.394 . S
C1287 C1288 1.383 . S
C1287 H1295 0.929 . S
C1288 C1287 1.383 . S
C1288 C1289 1.377 . S
C1289 H1273 0.930 . S
C1289 C1288 1.377 . S
C1289 C1290 1.379 . S
C1290 H1274 0.931 . S
C1290 C1284 1.383 . S
C1290 C1289 1.379 . S
H1291 C1285 0.959 . S
H1292 C1285 0.961 . S
H1293 C1285 0.960 . S
H1294 C1286 0.930 . S
H1295 C1287 0.929 . S
H1296 C1304 0.929 . S
H1297 C1306 0.930 . S
H1298 C1308 0.930 . S
H1299 C1311 0.929 . S
H1300 C1314 0.930 . S
H1301 C1316 0.960 . S
H1302 C1316 0.960 . S
H1303 C1316 0.960 . S
C1304 H1296 0.929 . S
C1304 C1305 1.377 . S
C1304 C1306 1.384 . S
C1305 C1304 1.377 . S
C1305 C1311 1.390 . S
C1306 H1297 0.930 . S
C1306 C1304 1.384 . S
C1306 C1307 1.372 . S
C1307 C1306 1.372 . S
C1307 C1308 1.400 . S
C1307 C1312 1.490 . S
C1308 H1298 0.930 . S
C1308 C1307 1.400 . S
C1308 C1311 1.386 . S
H1309 C1325 0.930 . S
H1310 C1326 0.931 . S
C1311 H1299 0.929 . S
C1311 C1305 1.390 . S
C1311 C1308 1.386 . S
C1312 C1307 1.490 . S
C1312 C1314 1.395 1_554 S
C1312 C1315 1.403 . S
H1313 C1319 0.930 . S
C1314 H1300 0.930 . S
C1314 C1312 1.395 1_556 S
C1314 C1317 1.403 . S
C1315 C1312 1.403 . S
C1315 C1316 1.524 . S
C1315 C1319 1.400 . S
C1316 H1301 0.960 . S
C1316 H1302 0.960 . S
C1316 H1303 0.960 . S
C1316 C1315 1.524 . S
C1317 C1314 1.403 . S
C1317 C1318 1.392 . S
C1317 C1321 1.495 . S
C1318 C1317 1.392 . S
C1318 C1319 1.385 1_556 S
C1318 C1320 1.478 . S
C1319 H1313 0.930 . S
C1319 C1315 1.400 . S
C1319 C1318 1.385 1_554 S
C1320 C1318 1.478 . S
C1320 C1322 1.381 . S
C1320 C1326 1.383 . S
C1321 C1317 1.495 . S
C1321 H1327 0.959 . S
C1321 H1328 0.961 . S
C1321 H1329 0.960 . S
C1322 C1320 1.381 . S
C1322 C1323 1.394 . S
C1322 H1330 0.930 . S
C1323 C1322 1.394 . S
C1323 C1324 1.383 . S
C1323 H1331 0.929 . S
C1324 C1323 1.383 . S
C1324 C1325 1.377 . S
C1325 H1309 0.930 . S
C1325 C1324 1.377 . S
C1325 C1326 1.379 . S
C1326 H1310 0.931 . S
C1326 C1320 1.383 . S
C1326 C1325 1.379 . S
H1327 C1321 0.959 . S
H1328 C1321 0.961 . S
H1329 C1321 0.960 . S
H1330 C1322 0.930 . S
H1331 C1323 0.929 . S
H1332 C1340 0.929 . S
H1333 C1342 0.930 . S
H1334 C1344 0.930 . S
H1335 C1347 0.929 . S
H1336 C1350 0.930 . S
H1337 C1352 0.960 . S
H1338 C1352 0.960 . S
H1339 C1352 0.960 . S
C1340 H1332 0.929 . S
C1340 C1341 1.377 . S
C1340 C1342 1.384 . S
C1341 C1340 1.377 . S
C1341 C1347 1.390 . S
C1342 H1333 0.930 . S
C1342 C1340 1.384 . S
C1342 C1343 1.372 . S
C1343 C1342 1.372 . S
C1343 C1344 1.400 . S
C1343 C1348 1.490 . S
C1344 H1334 0.930 . S
C1344 C1343 1.400 . S
C1344 C1347 1.386 . S
H1345 C1361 0.930 . S
H1346 C1362 0.931 . S
C1347 H1335 0.929 . S
C1347 C1341 1.390 . S
C1347 C1344 1.386 . S
C1348 C1343 1.490 . S
C1348 C1350 1.395 . S
C1348 C1351 1.403 . S
H1349 C1355 0.930 . S
C1350 H1336 0.930 . S
C1350 C1348 1.395 . S
C1350 C1353 1.403 . S
C1351 C1348 1.403 . S
C1351 C1352 1.524 . S
C1351 C1355 1.400 . S
C1352 H1337 0.960 . S
C1352 H1338 0.960 . S
C1352 H1339 0.960 . S
C1352 C1351 1.524 . S
C1353 C1350 1.403 . S
C1353 C1354 1.392 . S
C1353 C1357 1.495 . S
C1354 C1353 1.392 . S
C1354 C1355 1.385 . S
C1354 C1356 1.478 . S
C1355 H1349 0.930 . S
C1355 C1351 1.400 . S
C1355 C1354 1.385 . S
C1356 C1354 1.478 . S
C1356 C1358 1.381 . S
C1356 C1362 1.383 . S
C1357 C1353 1.495 . S
C1357 H1363 0.959 . S
C1357 H1364 0.961 . S
C1357 H1365 0.960 . S
C1358 C1356 1.381 . S
C1358 C1359 1.394 . S
C1358 H1366 0.930 . S
C1359 C1358 1.394 . S
C1359 C1360 1.383 . S
C1359 H1367 0.929 . S
C1360 C1359 1.383 . S
C1360 C1361 1.377 . S
C1361 H1345 0.930 . S
C1361 C1360 1.377 . S
C1361 C1362 1.379 . S
C1362 H1346 0.931 . S
C1362 C1356 1.383 . S
C1362 C1361 1.379 . S
H1363 C1357 0.959 . S
H1364 C1357 0.961 . S
H1365 C1357 0.960 . S
H1366 C1358 0.930 . S
H1367 C1359 0.929 . S
H1368 C1376 0.929 . S
H1369 C1378 0.930 1_556 S
H1370 C1380 0.930 . S
H1371 C1383 0.929 . S
H1372 C1386 0.930 . S
H1373 C1388 0.976 . S
H1374 C1388 0.960 1_556 S
H1375 C1388 0.960 . S
C1376 H1368 0.929 . S
C1376 C1377 1.377 . S
C1376 C1378 1.384 . S
C1377 C1376 1.377 . S
C1377 C1383 1.390 . S
C1378 H1369 0.930 1_554 S
C1378 C1376 1.384 . S
C1378 C1379 1.372 . S
C1379 C1378 1.372 . S
C1379 C1380 1.400 . S
C1379 C1384 1.490 . S
C1380 H1370 0.930 . S
C1380 C1379 1.400 . S
C1380 C1383 1.386 . S
H1381 C1397 0.930 . S
H1382 C1398 0.931 1_554 S
C1383 H1371 0.929 . S
C1383 C1377 1.390 . S
C1383 C1380 1.386 . S
C1384 C1379 1.490 . S
C1384 C1386 1.395 . S
C1384 C1387 1.403 . S
H1385 C1391 0.930 . S
C1386 H1372 0.930 . S
C1386 C1384 1.395 . S
C1386 C1389 1.403 1_554 S
C1387 C1384 1.403 . S
C1387 C1388 1.524 . S
C1387 C1391 1.400 1_554 S
C1388 H1373 0.976 . S
C1388 H1374 0.960 1_554 S
C1388 H1375 0.960 . S
C1388 C1387 1.524 . S
C1389 C1386 1.403 1_556 S
C1389 C1390 1.392 . S
C1389 C1393 1.495 . S
C1390 C1389 1.392 . S
C1390 C1391 1.385 . S
C1390 C1392 1.478 . S
C1391 H1385 0.930 . S
C1391 C1387 1.400 1_556 S
C1391 C1390 1.385 . S
C1392 C1390 1.478 . S
C1392 C1394 1.381 . S
C1392 C1398 1.383 . S
C1393 C1389 1.495 . S
C1393 H1399 0.959 . S
C1393 H1400 0.961 . S
C1393 H1401 0.960 . S
C1394 C1392 1.381 . S
C1394 C1395 1.394 . S
C1394 H1402 0.930 . S
C1395 C1394 1.394 . S
C1395 C1396 1.383 . S
C1395 H1403 0.929 . S
C1396 C1395 1.383 . S
C1396 C1397 1.377 . S
C1397 H1381 0.930 . S
C1397 C1396 1.377 . S
C1397 C1398 1.379 . S
C1398 H1382 0.931 1_556 S
C1398 C1392 1.383 . S
C1398 C1397 1.379 . S
H1399 C1393 0.959 . S
H1400 C1393 0.961 . S
H1401 C1393 0.960 . S
H1402 C1394 0.930 . S
H1403 C1395 0.929 . S
H1404 C1412 0.929 . S
H1405 C1414 0.930 . S
H1406 C1416 0.930 . S
H1407 C1419 0.929 . S
H1408 C1422 0.930 . S
H1409 C1424 0.960 . S
H1410 C1424 0.960 . S
H1411 C1424 0.960 . S
C1412 H1404 0.929 . S
C1412 C1413 1.377 . S
C1412 C1414 1.384 . S
C1413 C1412 1.377 . S
C1413 C1419 1.390 . S
C1414 H1405 0.930 . S
C1414 C1412 1.384 . S
C1414 C1415 1.372 . S
C1415 C1414 1.372 . S
C1415 C1416 1.400 . S
C1415 C1420 1.490 . S
C1416 H1406 0.930 . S
C1416 C1415 1.400 . S
C1416 C1419 1.386 . S
H1417 C1433 0.930 . S
H1418 C1434 0.931 . S
C1419 H1407 0.929 . S
C1419 C1413 1.390 . S
C1419 C1416 1.386 . S
C1420 C1415 1.490 . S
C1420 C1422 1.395 . S
C1420 C1423 1.403 . S
H1421 C1427 0.930 . S
C1422 H1408 0.930 . S
C1422 C1420 1.395 . S
C1422 C1425 1.403 . S
C1423 C1420 1.403 . S
C1423 C1424 1.524 . S
C1423 C1427 1.400 . S
C1424 H1409 0.960 . S
C1424 H1410 0.960 . S
C1424 H1411 0.960 . S
C1424 C1423 1.524 . S
C1425 C1422 1.403 . S
C1425 C1426 1.392 . S
C1425 C1429 1.495 . S
C1426 C1425 1.392 . S
C1426 C1427 1.385 . S
C1426 C1428 1.478 . S
C1427 H1421 0.930 . S
C1427 C1423 1.400 . S
C1427 C1426 1.385 . S
C1428 C1426 1.478 . S
C1428 C1430 1.381 . S
C1428 C1434 1.383 . S
C1429 C1425 1.495 . S
C1429 H1435 0.959 . S
C1429 H1436 0.961 . S
C1429 H1437 0.960 . S
C1430 C1428 1.381 . S
C1430 C1431 1.394 . S
C1430 H1438 0.930 . S
C1431 C1430 1.394 . S
C1431 C1432 1.383 . S
C1431 H1439 0.929 . S
C1432 C1431 1.383 . S
C1432 C1433 1.377 . S
C1433 H1417 0.930 . S
C1433 C1432 1.377 . S
C1433 C1434 1.379 . S
C1434 H1418 0.931 . S
C1434 C1428 1.383 . S
C1434 C1433 1.379 . S
H1435 C1429 0.959 . S
H1436 C1429 0.961 . S
H1437 C1429 0.960 . S
H1438 C1430 0.930 . S
H1439 C1431 0.929 . S
H1440 C1448 0.929 . S
H1441 C1450 0.930 . S
H1442 C1452 0.930 . S
H1443 C1455 0.929 . S
H1444 C1458 0.930 . S
H1445 C1460 0.960 . S
H1446 C1460 0.960 . S
H1447 C1460 0.960 . S
C1448 H1440 0.929 . S
C1448 C1449 1.377 . S
C1448 C1450 1.384 . S
C1449 C1448 1.377 . S
C1449 C1455 1.390 . S
C1450 H1441 0.930 . S
C1450 C1448 1.384 . S
C1450 C1451 1.372 . S
C1451 C1450 1.372 . S
C1451 C1452 1.400 . S
C1451 C1456 1.490 . S
C1452 H1442 0.930 . S
C1452 C1451 1.400 . S
C1452 C1455 1.386 . S
H1453 C1469 0.930 . S
H1454 C1470 0.931 . S
C1455 H1443 0.929 . S
C1455 C1449 1.390 . S
C1455 C1452 1.386 . S
C1456 C1451 1.490 . S
C1456 C1458 1.395 1_556 S
C1456 C1459 1.403 . S
H1457 C1463 0.930 . S
C1458 H1444 0.930 . S
C1458 C1456 1.395 1_554 S
C1458 C1461 1.403 . S
C1459 C1456 1.403 . S
C1459 C1460 1.524 . S
C1459 C1463 1.400 . S
C1460 H1445 0.960 . S
C1460 H1446 0.960 . S
C1460 H1447 0.960 . S
C1460 C1459 1.524 . S
C1461 C1458 1.403 . S
C1461 C1462 1.392 . S
C1461 C1465 1.495 . S
C1462 C1461 1.392 . S
C1462 C1463 1.385 1_554 S
C1462 C1464 1.478 . S
C1463 H1457 0.930 . S
C1463 C1459 1.400 . S
C1463 C1462 1.385 1_556 S
C1464 C1462 1.478 . S
C1464 C1466 1.381 . S
C1464 C1470 1.383 . S
C1465 C1461 1.495 . S
C1465 H1471 0.959 . S
C1465 H1472 0.961 . S
C1465 H1473 0.960 . S
C1466 C1464 1.381 . S
C1466 C1467 1.394 . S
C1466 H1474 0.930 . S
C1467 C1466 1.394 . S
C1467 C1468 1.383 . S
C1467 H1475 0.929 . S
C1468 C1467 1.383 . S
C1468 C1469 1.377 . S
C1469 H1453 0.930 . S
C1469 C1468 1.377 . S
C1469 C1470 1.379 . S
C1470 H1454 0.931 . S
C1470 C1464 1.383 . S
C1470 C1469 1.379 . S
H1471 C1465 0.959 . S
H1472 C1465 0.961 . S
H1473 C1465 0.960 . S
H1474 C1466 0.930 . S
H1475 C1467 0.929 . S
H1476 C1484 0.929 . S
H1477 C1486 0.930 . S
H1478 C1488 0.930 . S
H1479 C1491 0.929 . S
H1480 C1494 0.930 . S
H1481 C1496 0.960 . S
H1482 C1496 0.960 . S
H1483 C1496 0.960 . S
C1484 H1476 0.929 . S
C1484 C1485 1.377 . S
C1484 C1486 1.384 . S
C1485 C1484 1.377 . S
C1485 C1491 1.390 . S
C1486 H1477 0.930 . S
C1486 C1484 1.384 . S
C1486 C1487 1.372 . S
C1487 C1486 1.372 . S
C1487 C1488 1.400 . S
C1487 C1492 1.490 . S
C1488 H1478 0.930 . S
C1488 C1487 1.400 . S
C1488 C1491 1.386 . S
H1489 C1505 0.930 . S
H1490 C1506 0.931 . S
C1491 H1479 0.929 . S
C1491 C1485 1.390 . S
C1491 C1488 1.386 . S
C1492 C1487 1.490 . S
C1492 C1494 1.395 . S
C1492 C1495 1.403 . S
H1493 C1499 0.930 . S
C1494 H1480 0.930 . S
C1494 C1492 1.395 . S
C1494 C1497 1.403 . S
C1495 C1492 1.403 . S
C1495 C1496 1.524 . S
C1495 C1499 1.400 . S
C1496 H1481 0.960 . S
C1496 H1482 0.960 . S
C1496 H1483 0.960 . S
C1496 C1495 1.524 . S
C1497 C1494 1.403 . S
C1497 C1498 1.392 . S
C1497 C1501 1.495 . S
C1498 C1497 1.392 . S
C1498 C1499 1.385 . S
C1498 C1500 1.478 . S
C1499 H1493 0.930 . S
C1499 C1495 1.400 . S
C1499 C1498 1.385 . S
C1500 C1498 1.478 . S
C1500 C1502 1.381 . S
C1500 C1506 1.383 . S
C1501 C1497 1.495 . S
C1501 H1507 0.959 . S
C1501 H1508 0.961 . S
C1501 H1509 0.960 . S
C1502 C1500 1.381 . S
C1502 C1503 1.394 . S
C1502 H1510 0.930 . S
C1503 C1502 1.394 . S
C1503 C1504 1.383 . S
C1503 H1511 0.929 . S
C1504 C1503 1.383 . S
C1504 C1505 1.377 . S
C1505 H1489 0.930 . S
C1505 C1504 1.377 . S
C1505 C1506 1.379 . S
C1506 H1490 0.931 . S
C1506 C1500 1.383 . S
C1506 C1505 1.379 . S
H1507 C1501 0.959 . S
H1508 C1501 0.961 . S
H1509 C1501 0.960 . S
H1510 C1502 0.930 . S
H1511 C1503 0.929 . S
H1512 C1520 0.929 . S
H1513 C1522 0.930 1_556 S
H1514 C1524 0.930 . S
H1515 C1527 0.929 . S
H1516 C1530 0.930 . S
H1517 C1532 0.960 . S
H1518 C1532 0.960 . S
H1519 C1532 0.960 . S
C1520 H1512 0.929 . S
C1520 C1521 1.377 . S
C1520 C1522 1.384 . S
C1521 C1520 1.377 . S
C1521 C1527 1.390 . S
C1522 H1513 0.930 1_554 S
C1522 C1520 1.384 . S
C1522 C1523 1.372 . S
C1523 C1522 1.372 . S
C1523 C1524 1.400 . S
C1523 C1528 1.490 . S
C1524 H1514 0.930 . S
C1524 C1523 1.400 . S
C1524 C1527 1.386 . S
H1525 C1541 0.930 . S
H1526 C1542 0.931 1_554 S
C1527 H1515 0.929 . S
C1527 C1521 1.390 . S
C1527 C1524 1.386 . S
C1528 C1523 1.490 . S
C1528 C1530 1.395 . S
C1528 C1531 1.403 . S
H1529 C1535 0.930 . S
C1530 H1516 0.930 . S
C1530 C1528 1.395 . S
C1530 C1533 1.403 1_554 S
C1531 C1528 1.403 . S
C1531 C1532 1.524 . S
C1531 C1535 1.400 1_554 S
C1532 H1517 0.960 . S
C1532 H1518 0.960 . S
C1532 H1519 0.960 . S
C1532 C1531 1.524 . S
C1533 C1530 1.403 1_556 S
C1533 C1534 1.392 . S
C1533 C1537 1.495 . S
C1534 C1533 1.392 . S
C1534 C1535 1.385 . S
C1534 C1536 1.478 . S
C1535 H1529 0.930 . S
C1535 C1531 1.400 1_556 S
C1535 C1534 1.385 . S
C1536 C1534 1.478 . S
C1536 C1538 1.381 . S
C1536 C1542 1.383 . S
C1537 C1533 1.495 . S
C1537 H1543 0.959 . S
C1537 H1544 0.961 . S
C1537 H1545 0.960 . S
C1538 C1536 1.381 . S
C1538 C1539 1.394 . S
C1538 H1546 0.930 . S
C1539 C1538 1.394 . S
C1539 C1540 1.383 . S
C1539 H1547 0.929 . S
C1540 C1539 1.383 . S
C1540 C1541 1.377 . S
C1541 H1525 0.930 . S
C1541 C1540 1.377 . S
C1541 C1542 1.379 . S
C1542 H1526 0.931 1_556 S
C1542 C1536 1.383 . S
C1542 C1541 1.379 . S
H1543 C1537 0.959 . S
H1544 C1537 0.961 . S
H1545 C1537 0.960 . S
H1546 C1538 0.930 . S
H1547 C1539 0.929 . S
H1548 C1556 0.929 . S
H1549 C1558 0.930 . S
H1550 C1560 0.930 . S
H1551 C1563 0.929 . S
H1552 C1566 0.930 . S
H1553 C1568 0.960 . S
H1554 C1568 0.960 . S
H1555 C1568 0.960 . S
C1556 H1548 0.929 . S
C1556 C1557 1.377 . S
C1556 C1558 1.384 . S
C1557 C1556 1.377 . S
C1557 C1563 1.390 . S
C1558 H1549 0.930 . S
C1558 C1556 1.384 . S
C1558 C1559 1.372 . S
C1559 C1558 1.372 . S
C1559 C1560 1.400 . S
C1559 C1564 1.490 . S
C1560 H1550 0.930 . S
C1560 C1559 1.400 . S
C1560 C1563 1.386 . S
H1561 C1577 0.930 . S
H1562 C1578 0.931 . S
C1563 H1551 0.929 . S
C1563 C1557 1.390 . S
C1563 C1560 1.386 . S
C1564 C1559 1.490 . S
C1564 C1566 1.395 . S
C1564 C1567 1.403 . S
H1565 C1571 0.930 . S
C1566 H1552 0.930 . S
C1566 C1564 1.395 . S
C1566 C1569 1.403 . S
C1567 C1564 1.403 . S
C1567 C1568 1.524 . S
C1567 C1571 1.400 . S
C1568 H1553 0.960 . S
C1568 H1554 0.960 . S
C1568 H1555 0.960 . S
C1568 C1567 1.524 . S
C1569 C1566 1.403 . S
C1569 C1570 1.392 . S
C1569 C1573 1.495 . S
C1570 C1569 1.392 . S
C1570 C1571 1.385 . S
C1570 C1572 1.478 . S
C1571 H1565 0.930 . S
C1571 C1567 1.400 . S
C1571 C1570 1.385 . S
C1572 C1570 1.478 . S
C1572 C1574 1.381 . S
C1572 C1578 1.383 . S
C1573 C1569 1.495 . S
C1573 H1579 0.959 . S
C1573 H1580 0.961 . S
C1573 H1581 0.960 . S
C1574 C1572 1.381 . S
C1574 C1575 1.394 . S
C1574 H1582 0.930 . S
C1575 C1574 1.394 . S
C1575 C1576 1.383 . S
C1575 H1583 0.929 . S
C1576 C1575 1.383 . S
C1576 C1577 1.377 . S
C1577 H1561 0.930 . S
C1577 C1576 1.377 . S
C1577 C1578 1.379 . S
C1578 H1562 0.931 . S
C1578 C1572 1.383 . S
C1578 C1577 1.379 . S
H1579 C1573 0.959 . S
H1580 C1573 0.961 . S
H1581 C1573 0.960 . S
H1582 C1574 0.930 . S
H1583 C1575 0.929 . S
H1584 C1592 0.929 . S
H1585 C1594 0.930 . S
H1586 C1596 0.930 . S
H1587 C1599 0.929 . S
H1588 C1602 0.930 . S
H1589 C1604 0.960 . S
H1590 C1604 0.960 . S
H1591 C1604 0.960 . S
C1592 H1584 0.929 . S
C1592 C1593 1.377 . S
C1592 C1594 1.384 . S
C1593 C1592 1.377 . S
C1593 C1599 1.390 . S
C1594 H1585 0.930 . S
C1594 C1592 1.384 . S
C1594 C1595 1.372 . S
C1595 C1594 1.372 . S
C1595 C1596 1.400 . S
C1595 C1600 1.490 . S
C1596 H1586 0.930 . S
C1596 C1595 1.400 . S
C1596 C1599 1.386 . S
H1597 C1613 0.930 . S
H1598 C1614 0.931 . S
C1599 H1587 0.929 . S
C1599 C1593 1.390 . S
C1599 C1596 1.386 . S
C1600 C1595 1.490 . S
C1600 C1602 1.395 . S
C1600 C1603 1.403 1_556 S
H1601 C1607 0.930 . S
C1602 H1588 0.930 . S
C1602 C1600 1.395 . S
C1602 C1605 1.403 1_545 S
C1603 C1600 1.403 1_554 S
C1603 C1604 1.524 . S
C1603 C1607 1.400 1_545 S
C1604 H1589 0.960 . S
C1604 H1590 0.960 . S
C1604 H1591 0.960 . S
C1604 C1603 1.524 . S
C1605 C1602 1.403 1_565 S
C1605 C1606 1.392 1_556 S
C1605 C1609 1.495 . S
C1606 C1605 1.392 1_554 S
C1606 C1607 1.385 . S
C1606 C1608 1.478 . S
C1607 H1601 0.930 . S
C1607 C1603 1.400 1_565 S
C1607 C1606 1.385 . S
C1608 C1606 1.478 . S
C1608 C1610 1.381 . S
C1608 C1614 1.383 . S
C1609 C1605 1.495 . S
C1609 H1615 0.959 . S
C1609 H1616 0.961 . S
C1609 H1617 0.960 . S
C1610 C1608 1.381 . S
C1610 C1611 1.394 . S
C1610 H1618 0.930 . S
C1611 C1610 1.394 . S
C1611 C1612 1.383 . S
C1611 H1619 0.929 . S
C1612 C1611 1.383 . S
C1612 C1613 1.377 . S
C1613 H1597 0.930 . S
C1613 C1612 1.377 . S
C1613 C1614 1.379 . S
C1614 H1598 0.931 . S
C1614 C1608 1.383 . S
C1614 C1613 1.379 . S
H1615 C1609 0.959 . S
H1616 C1609 0.961 . S
H1617 C1609 0.960 . S
H1618 C1610 0.930 . S
H1619 C1611 0.929 . S
H1620 C1628 0.929 . S
H1621 C1630 0.930 . S
H1622 C1632 0.930 . S
H1623 C1635 0.929 . S
H1624 C1638 0.930 . S
H1625 C1640 0.960 . S
H1626 C1640 0.960 . S
H1627 C1640 0.960 . S
C1628 H1620 0.929 . S
C1628 C1629 1.377 . S
C1628 C1630 1.384 . S
C1629 C1628 1.377 . S
C1629 C1635 1.390 . S
C1630 H1621 0.930 . S
C1630 C1628 1.384 . S
C1630 C1631 1.372 . S
C1631 C1630 1.372 . S
C1631 C1632 1.400 . S
C1631 C1636 1.490 . S
C1632 H1622 0.930 . S
C1632 C1631 1.400 . S
C1632 C1635 1.386 . S
H1633 C1649 0.930 . S
H1634 C1650 0.931 . S
C1635 H1623 0.929 . S
C1635 C1629 1.390 . S
C1635 C1632 1.386 . S
C1636 C1631 1.490 . S
C1636 C1638 1.395 . S
C1636 C1639 1.403 . S
H1637 C1643 0.930 . S
C1638 H1624 0.930 . S
C1638 C1636 1.395 . S
C1638 C1641 1.403 1_565 S
C1639 C1636 1.403 . S
C1639 C1640 1.524 . S
C1639 C1643 1.400 1_565 S
C1640 H1625 0.960 . S
C1640 H1626 0.960 . S
C1640 H1627 0.960 . S
C1640 C1639 1.524 . S
C1641 C1638 1.403 1_545 S
C1641 C1642 1.392 . S
C1641 C1645 1.495 . S
C1642 C1641 1.392 . S
C1642 C1643 1.385 . S
C1642 C1644 1.478 . S
C1643 H1637 0.930 . S
C1643 C1639 1.400 1_545 S
C1643 C1642 1.385 . S
C1644 C1642 1.478 . S
C1644 C1646 1.381 . S
C1644 C1650 1.383 . S
C1645 C1641 1.495 . S
C1645 H1651 0.959 . S
C1645 H1652 0.961 . S
C1645 H1653 0.960 . S
C1646 C1644 1.381 . S
C1646 C1647 1.394 . S
C1646 H1654 0.930 . S
C1647 C1646 1.394 . S
C1647 C1648 1.383 . S
C1647 H1655 0.929 . S
C1648 C1647 1.383 . S
C1648 C1649 1.377 . S
C1649 H1633 0.930 . S
C1649 C1648 1.377 . S
C1649 C1650 1.379 . S
C1650 H1634 0.931 . S
C1650 C1644 1.383 . S
C1650 C1649 1.379 . S
H1651 C1645 0.959 . S
H1652 C1645 0.961 . S
H1653 C1645 0.960 . S
H1654 C1646 0.930 . S
H1655 C1647 0.929 . S
H1656 C1664 0.929 . S
H1657 C1666 0.930 . S
H1658 C1668 0.930 1_556 S
H1659 C1671 0.929 . S
H1660 C1674 0.930 . S
H1661 C1676 0.960 . S
H1662 C1676 0.960 . S
H1663 C1676 0.960 . S
C1664 H1656 0.929 . S
C1664 C1665 1.377 . S
C1664 C1666 1.384 . S
C1665 C1664 1.377 . S
C1665 C1671 1.390 . S
C1666 H1657 0.930 . S
C1666 C1664 1.384 . S
C1666 C1667 1.372 . S
C1667 C1666 1.372 . S
C1667 C1668 1.400 . S
C1667 C1672 1.490 . S
C1668 H1658 0.930 1_554 S
C1668 C1667 1.400 . S
C1668 C1671 1.386 . S
H1669 C1685 0.930 . S
H1670 C1686 0.931 . S
C1671 H1659 0.929 . S
C1671 C1665 1.390 . S
C1671 C1668 1.386 . S
C1672 C1667 1.490 . S
C1672 C1674 1.395 . S
C1672 C1675 1.403 1_554 S
H1673 C1679 0.930 . S
C1674 H1660 0.930 . S
C1674 C1672 1.395 . S
C1674 C1677 1.403 1_565 S
C1675 C1672 1.403 1_556 S
C1675 C1676 1.524 . S
C1675 C1679 1.400 1_565 S
C1676 H1661 0.960 . S
C1676 H1662 0.960 . S
C1676 H1663 0.960 . S
C1676 C1675 1.524 . S
C1677 C1674 1.403 1_545 S
C1677 C1678 1.392 1_554 S
C1677 C1681 1.495 . S
C1678 C1677 1.392 1_556 S
C1678 C1679 1.385 . S
C1678 C1680 1.478 . S
C1679 H1673 0.930 . S
C1679 C1675 1.400 1_545 S
C1679 C1678 1.385 . S
C1680 C1678 1.478 . S
C1680 C1682 1.381 . S
C1680 C1686 1.383 . S
C1681 C1677 1.495 . S
C1681 H1687 0.959 . S
C1681 H1688 0.961 . S
C1681 H1689 0.960 . S
C1682 C1680 1.381 . S
C1682 C1683 1.394 . S
C1682 H1690 0.930 1_556 S
C1683 C1682 1.394 . S
C1683 C1684 1.383 . S
C1683 H1691 0.929 . S
C1684 C1683 1.383 . S
C1684 C1685 1.377 . S
C1685 H1669 0.930 . S
C1685 C1684 1.377 . S
C1685 C1686 1.379 . S
C1686 H1670 0.931 . S
C1686 C1680 1.383 . S
C1686 C1685 1.379 . S
H1687 C1681 0.959 . S
H1688 C1681 0.961 . S
H1689 C1681 0.960 . S
H1690 C1682 0.930 1_554 S
H1691 C1683 0.929 . S
H1692 C1700 0.929 . S
H1693 C1702 0.930 . S
H1694 C1704 0.930 . S
H1695 C1707 0.929 . S
H1696 C1710 0.930 . S
H1697 C1712 0.960 1_565 S
H1698 C1712 0.960 . S
H1699 C1712 0.960 . S
C1700 H1692 0.929 . S
C1700 C1701 1.377 . S
C1700 C1702 1.384 . S
C1701 C1700 1.377 . S
C1701 C1707 1.390 . S
C1702 H1693 0.930 . S
C1702 C1700 1.384 . S
C1702 C1703 1.372 . S
C1703 C1702 1.372 . S
C1703 C1704 1.400 . S
C1703 C1708 1.490 . S
C1704 H1694 0.930 . S
C1704 C1703 1.400 . S
C1704 C1707 1.386 . S
H1705 C1721 0.930 . S
H1706 C1722 0.931 . S
C1707 H1695 0.929 . S
C1707 C1701 1.390 . S
C1707 C1704 1.386 . S
C1708 C1703 1.490 . S
C1708 C1710 1.395 . S
C1708 C1711 1.403 . S
H1709 C1715 0.930 . S
C1710 H1696 0.930 . S
C1710 C1708 1.395 . S
C1710 C1713 1.403 1_545 S
C1711 C1708 1.403 . S
C1711 C1712 1.524 . S
C1711 C1715 1.400 1_545 S
C1712 H1697 0.960 1_545 S
C1712 H1698 0.960 . S
C1712 H1699 0.960 . S
C1712 C1711 1.524 . S
C1713 C1710 1.403 1_565 S
C1713 C1714 1.392 . S
C1713 C1717 1.495 . S
C1714 C1713 1.392 . S
C1714 C1715 1.385 . S
C1714 C1716 1.478 . S
C1715 H1709 0.930 . S
C1715 C1711 1.400 1_565 S
C1715 C1714 1.385 . S
C1716 C1714 1.478 . S
C1716 C1718 1.381 . S
C1716 C1722 1.383 . S
C1717 C1713 1.495 . S
C1717 H1723 0.959 1_565 S
C1717 H1724 0.961 . S
C1717 H1725 0.960 . S
C1718 C1716 1.381 . S
C1718 C1719 1.394 . S
C1718 H1726 0.930 . S
C1719 C1718 1.394 . S
C1719 C1720 1.383 . S
C1719 H1727 0.929 . S
C1720 C1719 1.383 . S
C1720 C1721 1.377 . S
C1721 H1705 0.930 . S
C1721 C1720 1.377 . S
C1721 C1722 1.379 . S
C1722 H1706 0.931 . S
C1722 C1716 1.383 . S
C1722 C1721 1.379 . S
H1723 C1717 0.959 1_545 S
H1724 C1717 0.961 . S
H1725 C1717 0.960 . S
H1726 C1718 0.930 . S
H1727 C1719 0.929 . S
C585 C3 1.408 . S
C604 C220 1.373 . S
C621 C39 1.408 . S
C640 C256 1.372 . S
C657 C148 1.392 . S
C676 C75 1.405 . S
C693 C184 1.393 . S
C712 C111 1.399 . S
C729 C508 1.391 . S
C748 C291 1.406 . S
C765 C544 1.388 . S
C784 C327 1.411 . S
C801 C363 1.408 . S
C820 C436 1.372 . S
C837 C399 1.405 . S
C856 C472 1.406 . S
C873 C2 1.420 . S
C892 C182 1.430 . S
C909 C38 1.419 . S
C928 C146 1.431 . S
C945 C74 1.420 . S
C964 C254 1.410 . S
C981 C218 1.421 . S
C1000 C110 1.429 . S
C1017 C470 1.422 . S
C1036 C290 1.406 . S
C1053 C434 1.420 . S
C1072 C326 1.430 . S
C1089 C362 1.423 . S
C1108 C542 1.419 . S
C1125 C506 1.420 . S
C1144 C398 1.430 . S
C1161 C435 1.273 . S
C1180 C4 1.280 . S
C1197 C40 1.271 . S
C1216 C471 1.261 . S
C1233 C507 1.271 . S
C1252 C76 1.268 . S
C1269 C543 1.272 . S
C1288 C112 1.276 . S
C1305 C292 1.273 . S
C1324 C147 1.279 . S
C1341 C328 1.273 . S
C1360 C183 1.280 . S
C1377 C219 1.270 . S
C1396 C364 1.258 . S
C1413 C255 1.270 . S
C1432 C400 1.259 . S
C1449 C86 1.391 . S
C1468 C14 1.373 . S
C1485 C50 1.397 . S
C1504 C122 1.409 . S
C1521 C230 1.398 . S
C1540 C158 1.418 . S
C1557 C194 1.396 . S
C1576 C266 1.373 . S
C1593 C374 1.397 . S
C1612 C302 1.410 . S
C1629 C410 1.394 . S
C1648 C338 1.371 . S
C1665 C518 1.401 . S
C1684 C446 1.396 . S
C1701 C554 1.391 . S
C1720 C482 1.361 . S
