# Generated by pormake.
# Topology acs-g, (3)-cn, num edge types: 1
# Building blocks:
#     Node 0, Type 0, BuildingBlock: WUSLED_clean_sbu_0, # of connection points: 3
#     Node 1, Type 0, BuildingBlock: WUSLED_clean_sbu_0, # of connection points: 3
#     Node 2, Type 0, BuildingBlock: WUSLED_clean_sbu_0, # of connection points: 3
#     Node 3, Type 0, BuildingBlock: WUSLED_clean_sbu_0, # of connection points: 3
#     Node 4, Type 0, BuildingBlock: WUSLED_clean_sbu_0, # of connection points: 3
#     Node 5, Type 0, BuildingBlock: WUSLED_clean_sbu_0, # of connection points: 3
#     Node 6, Type 0, BuildingBlock: WUSLED_clean_sbu_0, # of connection points: 3
#     Node 7, Type 0, BuildingBlock: WUSLED_clean_sbu_0, # of connection points: 3
#     Node 8, Type 0, BuildingBlock: WUSLED_clean_sbu_0, # of connection points: 3
#     Node 9, Type 0, BuildingBlock: WUSLED_clean_sbu_0, # of connection points: 3
#     Node 10, Type 0, BuildingBlock: WUSLED_clean_sbu_0, # of connection points: 3
#     Node 11, Type 0, BuildingBlock: WUSLED_clean_sbu_0, # of connection points: 3
#     Edge 12, Type (0, 0), BuildingBlock: XIVTED_clean_linker_0, # of connection points: 2
#     Edge 13, Type (0, 0), BuildingBlock: XIVTED_clean_linker_0, # of connection points: 2
#     Edge 14, Type (0, 0), BuildingBlock: XIVTED_clean_linker_0, # of connection points: 2
#     Edge 15, Type (0, 0), BuildingBlock: XIVTED_clean_linker_0, # of connection points: 2
#     Edge 16, Type (0, 0), BuildingBlock: XIVTED_clean_linker_0, # of connection points: 2
#     Edge 17, Type (0, 0), BuildingBlock: XIVTED_clean_linker_0, # of connection points: 2
#     Edge 18, Type (0, 0), BuildingBlock: XIVTED_clean_linker_0, # of connection points: 2
#     Edge 19, Type (0, 0), BuildingBlock: XIVTED_clean_linker_0, # of connection points: 2
#     Edge 20, Type (0, 0), BuildingBlock: XIVTED_clean_linker_0, # of connection points: 2
#     Edge 21, Type (0, 0), BuildingBlock: XIVTED_clean_linker_0, # of connection points: 2
#     Edge 22, Type (0, 0), BuildingBlock: XIVTED_clean_linker_0, # of connection points: 2
#     Edge 23, Type (0, 0), BuildingBlock: XIVTED_clean_linker_0, # of connection points: 2
#     Edge 24, Type (0, 0), BuildingBlock: XIVTED_clean_linker_0, # of connection points: 2
#     Edge 25, Type (0, 0), BuildingBlock: XIVTED_clean_linker_0, # of connection points: 2
#     Edge 26, Type (0, 0), BuildingBlock: XIVTED_clean_linker_0, # of connection points: 2
#     Edge 27, Type (0, 0), BuildingBlock: XIVTED_clean_linker_0, # of connection points: 2
#     Edge 28, Type (0, 0), BuildingBlock: XIVTED_clean_linker_0, # of connection points: 2
#     Edge 29, Type (0, 0), BuildingBlock: XIVTED_clean_linker_0, # of connection points: 2
# Relax obj value: 0.022
# Max RMSD: 0.018
# Mean RMSD: 0.018
data_MOF--net-acs-g--node1-WUSLED_clean_sbu_0--edge1-XIVTED_clean_linker_0
_symmetry_space_group_name_H-M    P1
_symmetry_Int_Tables_number       1
_symmetry_cell_setting            triclinic
loop_
_symmetry_equiv_pos_as_xyz
'x, y, z'
_cell_length_a     73.956541
_cell_length_b     74.082985
_cell_length_c     63.165951
_cell_angle_alpha  89.815989
_cell_angle_beta   90.196641
_cell_angle_gamma 120.10086
loop_
_atom_site_label
_atom_site_type_symbol
_atom_site_fract_x
_atom_site_fract_y
_atom_site_fract_z
_atom_type_partial_charge
C0 C 0.29733 0.38718 0.19711 0.0
C1 C 0.30212 0.39982 0.21512 0.0
C2 C 0.26511 0.38397 0.22341 0.0
C3 C 0.28616 0.39825 0.22813 0.0
C4 C 0.26042 0.37099 0.20559 0.0
C5 C 0.27643 0.37264 0.1925 0.0
U6 U 0.35486 0.41347 0.18553 0.0
O7 O 0.37448 0.40194 0.17167 0.0
O8 O 0.37274 0.42779 0.15656 0.0
C9 C 0.37972 0.41462 0.15534 0.0
C10 C 0.31415 0.38973 0.18291 0.0
C11 C 0.378 0.40518 0.13446 0.0
C12 C 0.35921 0.39002 0.10168 0.0
C13 C 0.35984 0.39769 0.12208 0.0
C14 C 0.3946 0.39672 0.10618 0.0
C15 C 0.37667 0.38962 0.09344 0.0
C16 C 0.39524 0.40444 0.12647 0.0
C17 C 0.39206 0.45279 0.22635 0.0
C18 C 0.42635 0.48302 0.21999 0.0
C19 C 0.41638 0.46914 0.2555 0.0
C20 C 0.397 0.45362 0.24789 0.0
C21 C 0.43117 0.48428 0.24172 0.0
C22 C 0.40702 0.46737 0.21237 0.0
C23 C 0.37102 0.43716 0.21899 0.0
O24 O 0.32456 0.40819 0.17391 0.0
O25 O 0.32635 0.38308 0.19051 0.0
O26 O 0.36714 0.41781 0.21812 0.0
O27 O 0.36382 0.44254 0.20255 0.0
H28 H 0.31821 0.41109 0.21896 0.0
H29 H 0.29032 0.40825 0.2419 0.0
H30 H 0.24436 0.35996 0.20145 0.0
H31 H 0.27249 0.3628 0.17863 0.0
H32 H 0.34509 0.38447 0.09235 0.0
H33 H 0.34631 0.39805 0.12805 0.0
H34 H 0.40843 0.39693 0.10023 0.0
H35 H 0.4094 0.41021 0.1358 0.0
H36 H 0.43721 0.4945 0.20893 0.0
H37 H 0.41969 0.46935 0.27224 0.0
H38 H 0.38573 0.44241 0.2589 0.0
H39 H 0.40362 0.46697 0.19563 0.0
C40 C 0.92813 0.29066 0.6938 0.0
C41 C 0.92017 0.29514 0.71189 0.0
C42 C 0.89818 0.25805 0.71923 0.0
C43 C 0.90531 0.27901 0.72447 0.0
C44 C 0.90654 0.25363 0.7013 0.0
C45 C 0.92137 0.26984 0.68864 0.0
U46 U 0.96143 0.34833 0.68477 0.0
O47 O 0.99294 0.36772 0.67133 0.0
O48 O 0.96595 0.36793 0.65694 0.0
C49 C 0.98603 0.3744 0.65569 0.0
C50 C 0.94304 0.30775 0.68018 0.0
C51 C 0.99384 0.37403 0.63443 0.0
C52 C 0.99012 0.35748 0.60025 0.0
C53 C 0.98358 0.35649 0.62124 0.0
C54 C 1.01764 0.39322 0.60582 0.0
C55 C 1.00694 0.37605 0.59219 0.0
C56 C 1.01113 0.39221 0.62671 0.0
C57 C 0.95996 0.38404 0.72721 0.0
C58 C 0.97863 0.42174 0.72321 0.0
C59 C 0.95521 0.40558 0.75288 0.0
C60 C 0.95071 0.38593 0.74573 0.0
C61 C 0.96907 0.42373 0.74161 0.0
C62 C 0.97408 0.40204 0.71605 0.0
C63 C 0.95393 0.36319 0.71921 0.0
O64 O 0.93579 0.31914 0.67182 0.0
O65 O 0.96196 0.31899 0.68808 0.0
O66 O 0.96905 0.35881 0.71783 0.0
O67 O 0.9417 0.35736 0.70248 0.0
H68 H 0.92531 0.31116 0.71617 0.0
H69 H 0.89944 0.28295 0.73834 0.0
H70 H 0.90125 0.23765 0.69677 0.0
H71 H 0.92737 0.26612 0.67471 0.0
H72 H 0.98149 0.34403 0.59013 0.0
H73 H 0.97017 0.3423 0.62697 0.0
H74 H 0.03088 0.40761 0.60021 0.0
H75 H 1.01927 0.40586 0.63671 0.0
H76 H 0.98954 0.43538 0.71428 0.0
H77 H 0.9473 0.40648 0.7669 0.0
H78 H 0.93966 0.37216 0.75444 0.0
H79 H 0.98133 0.40081 0.70166 0.0
C80 C 0.65757 0.92077 0.19406 0.0
C81 C 0.64735 0.91437 0.21362 0.0
C82 C 0.66221 0.89193 0.21942 0.0
C83 C 0.64964 0.90009 0.22619 0.0
C84 C 0.67259 0.89858 0.19984 0.0
C85 C 0.67027 0.91289 0.18726 0.0
U86 U 0.63112 0.95229 0.1853 0.0
O87 O 0.64224 0.98351 0.17164 0.0
O88 O 0.61551 0.95605 0.1574 0.0
C89 C 0.62887 0.97615 0.15583 0.0
C90 C 0.65439 0.93511 0.18053 0.0
C91 C 0.63766 0.98355 0.13463 0.0
C92 C 0.65391 0.98049 0.10251 0.0
C93 C 0.64666 0.97388 0.12312 0.0
C94 C 0.64373 1.00682 0.10498 0.0
C95 C 0.65238 0.99694 0.09314 0.0
C96 C 0.63643 1.00016 0.12553 0.0
C97 C 0.59373 0.9492 0.22894 0.0
C98 C 0.5685 0.96083 0.22459 0.0
C99 C 0.57108 0.94617 0.25806 0.0
C100 C 0.58715 0.94357 0.24989 0.0
C101 C 0.56127 0.95442 0.24538 0.0
C102 C 0.58461 0.9582 0.21642 0.0
C103 C 0.6091 0.9443 0.22012 0.0
O104 O 0.63546 0.92714 0.17259 0.0
O105 O 0.66159 0.95397 0.18824 0.0
O106 O 0.62832 0.96 0.21835 0.0
O107 O 0.60276 0.93206 0.20346 0.0
H108 H 0.63736 0.92022 0.21904 0.0
H109 H 0.64117 0.89509 0.24099 0.0
H110 H 0.68256 0.89279 0.19426 0.0
H111 H 0.67826 0.91768 0.17218 0.0
H112 H 0.66069 0.97271 0.0939 0.0
H113 H 0.64782 0.96107 0.12998 0.0
H114 H 0.64204 0.01933 0.09817 0.0
H115 H 0.62949 1.00776 0.13419 0.0
H116 H 0.56117 0.96708 0.21438 0.0
H117 H 0.56611 0.9414 0.27423 0.0
H118 H 0.59409 0.93667 0.25978 0.0
H119 H 0.58954 0.96262 0.20017 0.0
C120 C 0.7537 0.64729 0.69245 0.0
C121 C 0.75158 0.64512 0.71454 0.0
C122 C 0.78691 0.65088 0.71766 0.0
C123 C 0.76808 0.64703 0.72704 0.0
C124 C 0.78903 0.65324 0.69554 0.0
C125 C 0.77256 0.65149 0.68305 0.0
U126 U 0.69537 0.62145 0.6847 0.0
O127 O 0.67542 0.63232 0.67014 0.0
O128 O 0.6754 0.60471 0.65754 0.0
C129 C 0.6686 0.61795 0.65533 0.0
C130 C 0.73587 0.64372 0.67907 0.0
C131 C 0.66862 0.6251 0.63362 0.0
C132 C 0.68627 0.64108 0.60059 0.0
C133 C 0.68707 0.63571 0.62174 0.0
C134 C 0.6487 0.62566 0.60331 0.0
C135 C 0.667 0.63577 0.59106 0.0
C136 C 0.64953 0.62038 0.62437 0.0
C137 C 0.66015 0.58629 0.72878 0.0
C138 C 0.62436 0.55836 0.72346 0.0
C139 C 0.63764 0.56949 0.759 0.0
C140 C 0.65694 0.58445 0.7507 0.0
C141 C 0.62122 0.55598 0.7455 0.0
C142 C 0.64361 0.57343 0.71518 0.0
C143 C 0.681 0.60099 0.72036 0.0
O144 O 0.72449 0.6245 0.67215 0.0
O145 O 0.72462 0.65167 0.68608 0.0
O146 O 0.68519 0.62031 0.71771 0.0
O147 O 0.6871 0.59398 0.70443 0.0
H148 H 0.73702 0.64155 0.72209 0.0
H149 H 0.76586 0.64484 0.74399 0.0
H150 H 0.8034 0.65637 0.68787 0.0
H151 H 0.77442 0.65306 0.66602 0.0
H152 H 0.70061 0.64876 0.59152 0.0
H153 H 0.70197 0.63947 0.62869 0.0
H154 H 0.63367 0.62168 0.59656 0.0
H155 H 0.63515 0.61227 0.63336 0.0
H156 H 0.61221 0.54812 0.71256 0.0
H157 H 0.63567 0.5684 0.77602 0.0
H158 H 0.66949 0.59436 0.76142 0.0
H159 H 0.64575 0.57468 0.69817 0.0
C160 C 0.12135 0.74397 0.19371 0.0
C161 C 0.1301 0.73981 0.21147 0.0
C162 C 0.15149 0.777 0.21855 0.0
C163 C 0.14504 0.75616 0.22377 0.0
C164 C 0.14226 0.78107 0.20102 0.0
C165 C 0.12734 0.76465 0.18864 0.0
U166 U 0.09134 0.68633 0.18346 0.0
O167 O 0.05979 0.66544 0.1707 0.0
O168 O 0.08737 0.66806 0.15478 0.0
C169 C 0.06704 0.6604 0.15413 0.0
C170 C 0.10668 0.72671 0.18012 0.0
C171 C 0.05863 0.66175 0.13345 0.0
C172 C 0.06065 0.68087 0.10137 0.0
C173 C 0.06778 0.68043 0.12182 0.0
C174 C 0.0347 0.64418 0.10434 0.0
C175 C 0.04419 0.66267 0.09229 0.0
C176 C 0.0419 0.64375 0.12471 0.0
C177 C 0.09865 0.65193 0.22404 0.0
C178 C 0.0796 0.61401 0.22345 0.0
C179 C 0.11106 0.63261 0.24463 0.0
C180 C 0.11313 0.65157 0.2381 0.0
C181 C 0.09441 0.61362 0.23721 0.0
C182 C 0.08178 0.63306 0.2168 0.0
C183 C 0.10211 0.67218 0.21644 0.0
O184 O 0.11485 0.71673 0.17059 0.0
O185 O 0.08835 0.71411 0.18863 0.0
O186 O 0.08573 0.6747 0.21626 0.0
O187 O 0.11357 0.67924 0.19929 0.0
H188 H 0.12559 0.7239 0.21565 0.0
H189 H 0.1516 0.75248 0.23734 0.0
H190 H 0.14702 0.79696 0.19652 0.0
H191 H 0.12075 0.76811 0.17493 0.0
H192 H 0.06812 0.69541 0.0926 0.0
H193 H 0.08069 0.69453 0.12838 0.0
H194 H 1.0222 0.62983 0.09775 0.0
H195 H 0.03471 0.62919 0.13346 0.0
H196 H 0.06671 0.59963 0.21736 0.0
H197 H 0.12256 0.6328 0.25544 0.0
H198 H 0.12625 0.666 0.24382 0.0
H199 H 0.07053 0.63307 0.20578 0.0
C200 C 0.39786 0.1168 0.69227 0.0
C201 C 0.4109 0.12538 0.70998 0.0
C202 C 0.39516 0.1467 0.71746 0.0
C203 C 0.40959 0.14022 0.72243 0.0
C204 C 0.3818 0.1377 0.69994 0.0
C205 C 0.38319 0.12289 0.6874 0.0
U206 U 0.42272 0.084 0.68236 0.0
O207 O 0.41034 0.05254 0.66894 0.0
O208 O 0.4369 0.07954 0.65386 0.0
C209 C 0.42322 0.05948 0.65276 0.0
C210 C 0.40003 0.10196 0.67866 0.0
C211 C 0.41382 0.05176 0.63182 0.0
C212 C 0.39867 0.05536 0.59899 0.0
C213 C 0.40627 0.06235 0.61945 0.0
C214 C 0.40555 0.02685 0.6034 0.0
C215 C 0.39838 0.03761 0.59066 0.0
C216 C 0.4132 0.03388 0.62376 0.0
C217 C 0.46123 0.08542 0.72345 0.0
C218 C 0.4849 0.07244 0.71616 0.0
C219 C 0.48344 0.0846 0.75135 0.0
C220 C 0.4681 0.08905 0.74451 0.0
C221 C 0.49224 0.07653 0.73717 0.0
C222 C 0.46947 0.07679 0.70937 0.0
C223 C 0.44613 0.09147 0.71616 0.0
O224 O 0.41854 0.1094 0.66994 0.0
O225 O 0.39277 0.08317 0.68666 0.0
O226 O 0.42656 0.07634 0.7152 0.0
O227 O 0.45197 0.10379 0.69951 0.0
H228 H 0.42225 0.12075 0.71402 0.0
H229 H 0.41987 0.14662 0.73599 0.0
H230 H 0.37064 0.14248 0.69561 0.0
H231 H 0.37303 0.11641 0.67377 0.0
H232 H 0.39307 0.06387 0.58967 0.0
H233 H 0.40656 0.07617 0.62548 0.0
H234 H 0.40585 1.01332 0.5974 0.0
H235 H 0.41902 0.02556 0.63308 0.0
H236 H 0.49118 0.066 0.70494 0.0
H237 H 0.48892 0.08815 0.76755 0.0
H238 H 0.4619 0.09572 0.75556 0.0
H239 H 0.46422 0.07378 0.69305 0.0
C240 C 0.65762 0.74684 0.33584 0.0
C241 C 0.64674 0.74288 0.31661 0.0
C242 C 0.66217 0.78019 0.31031 0.0
C243 C 0.64898 0.75938 0.30397 0.0
C244 C 0.6732 0.78405 0.32955 0.0
C245 C 0.67092 0.76748 0.3422 0.0
U246 U 0.63095 0.6889 0.34523 0.0
O247 O 0.64221 0.66877 0.35862 0.0
O248 O 0.61591 0.66988 0.3734 0.0
C249 C 0.62895 0.66272 0.37448 0.0
C250 C 0.65458 0.72941 0.34944 0.0
C251 C 0.63739 0.66267 0.39559 0.0
C252 C 0.64808 0.67692 0.43103 0.0
C253 C 0.64238 0.6787 0.41028 0.0
C254 C 0.64474 0.64356 0.42225 0.0
C255 C 0.64882 0.65906 0.43737 0.0
C256 C 0.63905 0.64535 0.4016 0.0
C257 C 0.59242 0.65292 0.30386 0.0
C258 C 0.5685 0.61629 0.3113 0.0
C259 C 0.56938 0.6302 0.2763 0.0
C260 C 0.58509 0.64989 0.28297 0.0
C261 C 0.56068 0.61325 0.29049 0.0
C262 C 0.58428 0.63595 0.31792 0.0
C263 C 0.60787 0.67394 0.3111 0.0
O264 O 0.63583 0.71867 0.35776 0.0
O265 O 0.66146 0.71755 0.34161 0.0
O266 O 0.62725 0.67785 0.31229 0.0
O267 O 0.60217 0.68057 0.32764 0.0
H268 H 0.6363 0.72698 0.31152 0.0
H269 H 0.64001 0.75582 0.28945 0.0
H270 H 0.68366 0.79986 0.33479 0.0
H271 H 0.67944 0.77079 0.35701 0.0
H272 H 0.65104 0.68908 0.44232 0.0
H273 H 0.64124 0.69225 0.40591 0.0
H274 H 0.64555 0.62981 0.4265 0.0
H275 H 0.63536 0.63288 0.39045 0.0
H276 H 0.5623 0.60348 0.32252 0.0
H277 H 0.56355 0.62843 0.26024 0.0
H278 H 0.5912 0.66285 0.27194 0.0
H279 H 0.58988 0.63802 0.3341 0.0
C280 C 0.92524 0.6435 0.83607 0.0
C281 C 0.92628 0.64186 0.81403 0.0
C282 C 0.89653 0.64715 0.80935 0.0
C283 C 0.91216 0.6438 0.8008 0.0
C284 C 0.89568 0.64892 0.83147 0.0
C285 C 0.90993 0.64713 0.84469 0.0
U286 U 0.95783 0.6182 0.84652 0.0
O287 O 0.98874 0.63005 0.86136 0.0
O288 O 0.96117 0.60284 0.87484 0.0
C289 C 0.98115 0.61656 0.87702 0.0
C290 C 0.93929 0.6403 0.85018 0.0
C291 C 0.98787 0.6252 0.89839 0.0
C292 C 0.98261 0.63912 0.93112 0.0
C293 C 0.97648 0.63203 0.91037 0.0
C294 C 1.01185 0.63318 0.92784 0.0
C295 C 1.00029 0.63962 0.94015 0.0
C296 C 1.00567 0.62602 0.90718 0.0
C297 C 0.95851 0.58205 0.80405 0.0
C298 C 0.97692 0.5629 0.80905 0.0
C299 C 0.95503 0.55642 0.77812 0.0
C300 C 0.9502 0.5714 0.78503 0.0
C301 C 0.96828 0.55182 0.79014 0.0
C302 C 0.97205 0.57788 0.81596 0.0
C303 C 0.95204 0.59662 0.81176 0.0
O304 O 0.93136 0.62128 0.85776 0.0
O305 O 0.95866 0.64819 0.84357 0.0
O306 O 0.96701 0.61613 0.8139 0.0
O307 O 0.93907 0.58977 0.82785 0.0
H308 H 0.93789 0.63888 0.80704 0.0
H309 H 0.91353 0.64267 0.78386 0.0
H310 H 0.88369 0.65117 0.83866 0.0
H311 H 0.90875 0.64821 0.86168 0.0
H312 H 0.9735 0.64418 0.9401 0.0
H313 H 0.96274 0.63161 0.90377 0.0
H314 H 1.02537 0.63309 0.93438 0.0
H315 H 1.01461 0.62078 0.89816 0.0
H316 H 0.98736 0.55991 0.81856 0.0
H317 H 0.94782 0.54798 0.76368 0.0
H318 H 0.93961 0.57436 0.77574 0.0
H319 H 0.97857 0.58598 0.83074 0.0
C320 C 0.29685 0.92075 0.33193 0.0
C321 C 0.30164 0.91453 0.31281 0.0
C322 C 0.26458 0.89221 0.30521 0.0
C323 C 0.28566 0.9004 0.29957 0.0
C324 C 0.25986 0.89902 0.32409 0.0
C325 C 0.27591 0.91314 0.33739 0.0
U326 U 0.35414 0.94867 0.34521 0.0
O327 O 0.37494 0.97841 0.36125 0.0
O328 O 0.37053 0.94898 0.37439 0.0
C329 C 0.37844 0.96913 0.37726 0.0
C330 C 0.31369 0.93392 0.34674 0.0
C331 C 0.37636 0.97549 0.3989 0.0
C332 C 0.37032 0.99738 0.42322 0.0
C333 C 0.37114 0.99105 0.40255 0.0
C334 C 0.3797 0.9726 0.43691 0.0
C335 C 0.37463 0.98823 0.44063 0.0
C336 C 0.38064 0.96638 0.41631 0.0
C337 C 0.39021 0.94411 0.30474 0.0
C338 C 0.42821 0.96405 0.3049 0.0
C339 C 0.41003 0.93116 0.28611 0.0
C340 C 0.39089 0.92897 0.29211 0.0
C341 C 0.4289 0.94862 0.29257 0.0
C342 C 0.40898 0.96174 0.31107 0.0
C343 C 0.36974 0.94063 0.31168 0.0
O344 O 0.32289 0.92455 0.35558 0.0
O345 O 0.32698 0.95282 0.33994 0.0
O346 O 0.36768 0.95721 0.31327 0.0
O347 O 0.36135 0.92754 0.32755 0.0
H348 H 0.31776 0.92024 0.30837 0.0
H349 H 0.28982 0.8957 0.285 0.0
H350 H 0.2438 0.89286 0.32897 0.0
H351 H 0.27196 0.91771 0.35217 0.0
H352 H 0.36627 1.0094 0.42559 0.0
H353 H 0.36785 0.99847 0.38948 0.0
H354 H 0.38347 0.9655 0.44993 0.0
H355 H 0.385 0.95458 0.41397 0.0
H356 H 0.44251 0.97758 0.31023 0.0
H357 H 0.41007 0.91916 0.27639 0.0
H358 H 0.37657 0.91527 0.28709 0.0
H359 H 0.40879 0.97355 0.32099 0.0
C360 C 0.39772 0.29029 0.83373 0.0
C361 C 0.40923 0.29577 0.81487 0.0
C362 C 0.3952 0.25907 0.80644 0.0
C363 C 0.40799 0.2803 0.80135 0.0
C364 C 0.38324 0.25367 0.82511 0.0
C365 C 0.38456 0.26919 0.83869 0.0
U366 U 0.42332 0.34737 0.84759 0.0
O367 O 0.4119 0.3658 0.86418 0.0
O368 O 0.43862 0.36399 0.8769 0.0
C369 C 0.42502 0.3702 0.88007 0.0
C370 C 0.40039 0.30656 0.84873 0.0
C371 C 0.41645 0.36726 0.90178 0.0
C372 C 0.38864 0.36167 0.92619 0.0
C373 C 0.39584 0.36275 0.90549 0.0
C374 C 0.42237 0.36929 0.93985 0.0
C375 C 0.40188 0.36507 0.9436 0.0
C376 C 0.42958 0.37047 0.91921 0.0
C377 C 0.46134 0.38689 0.80785 0.0
C378 C 0.48607 0.42275 0.81739 0.0
C379 C 0.48344 0.41149 0.78097 0.0
C380 C 0.46777 0.39145 0.78673 0.0
C381 C 0.49301 0.42729 0.7963 0.0
C382 C 0.47031 0.40272 0.82311 0.0
C383 C 0.44603 0.36538 0.81391 0.0
O384 O 0.41913 0.31699 0.85717 0.0
O385 O 0.39313 0.31866 0.84238 0.0
O386 O 0.42663 0.36124 0.8159 0.0
O387 O 0.45203 0.35758 0.8293 0.0
H388 H 0.41948 0.31203 0.81081 0.0
H389 H 0.41716 0.28498 0.78695 0.0
H390 H 0.37339 0.23746 0.82957 0.0
H391 H 0.37564 0.26471 0.85325 0.0
H392 H 0.37274 0.35825 0.92856 0.0
H393 H 0.38535 0.36037 0.89244 0.0
H394 H 0.4331 0.37237 0.95286 0.0
H395 H 0.44564 0.37433 0.91688 0.0
H396 H 0.49296 0.43465 0.82951 0.0
H397 H 0.48858 0.41441 0.76464 0.0
H398 H 0.461 0.37937 0.77476 0.0
H399 H 0.46543 0.39947 0.8395 0.0
C400 C 0.1218 0.38564 0.33713 0.0
C401 C 0.12884 0.39717 0.3183 0.0
C402 C 0.15211 0.38343 0.31206 0.0
C403 C 0.14384 0.3961 0.3059 0.0
C404 C 0.14461 0.37145 0.33068 0.0
C405 C 0.12961 0.37262 0.34318 0.0
U406 U 0.08977 0.41117 0.34529 0.0
O407 O 0.0584 0.4002 0.35854 0.0
O408 O 0.08588 0.42713 0.37258 0.0
C409 C 0.06568 0.41401 0.37391 0.0
C410 C 0.10707 0.38808 0.35068 0.0
C411 C 0.05774 0.40622 0.39527 0.0
C412 C 0.06065 0.39288 0.42957 0.0
C413 C 0.06725 0.39814 0.40854 0.0
C414 C 0.03455 0.40305 0.4239 0.0
C415 C 0.04452 0.39574 0.4376 0.0
C416 C 0.04113 0.40826 0.40296 0.0
C417 C 0.09371 0.44866 0.30125 0.0
C418 C 0.08108 0.4731 0.30492 0.0
C419 C 0.09854 0.47262 0.2727 0.0
C420 C 0.10088 0.45638 0.28089 0.0
C421 C 0.089 0.48146 0.28478 0.0
C422 C 0.08347 0.45683 0.31312 0.0
C423 C 0.09835 0.43317 0.3103 0.0
O424 O 0.1147 0.4068 0.35889 0.0
O425 O 0.08822 0.38078 0.34272 0.0
O426 O 0.08249 0.41404 0.31201 0.0
O427 O 0.11043 0.4394 0.32713 0.0
H428 H 0.12293 0.40728 0.31336 0.0
H429 H 0.14904 0.40527 0.29149 0.0
H430 H 0.15079 0.36166 0.3359 0.0
H431 H 0.12437 0.36365 0.3577 0.0
H432 H 0.06871 0.38739 0.43975 0.0
H433 H 0.08013 0.39647 0.40283 0.0
H434 H 1.02184 0.40507 0.42948 0.0
H435 H 0.03356 0.4144 0.39291 0.0
H436 H 0.07381 0.47967 0.31468 0.0
H437 H 0.1045 0.47849 0.25701 0.0
H438 H 0.10878 0.4502 0.27151 0.0
H439 H 0.07789 0.45104 0.32893 0.0
C440 C 0.75404 0.1165 0.83588 0.0
C441 C 0.74883 0.12344 0.8174 0.0
C442 C 0.7857 0.14603 0.80931 0.0
C443 C 0.7645 0.13808 0.80425 0.0
C444 C 0.79085 0.13866 0.82762 0.0
C445 C 0.7751 0.12403 0.84084 0.0
U446 U 0.69663 0.08359 0.84727 0.0
O447 O 0.67783 0.05254 0.86185 0.0
O448 O 0.67832 0.07987 0.87589 0.0
C449 C 0.67205 0.05991 0.87774 0.0
C450 C 0.73744 0.10201 0.85022 0.0
C451 C 0.67402 0.05289 0.89899 0.0
C452 C 0.69292 0.05805 0.93204 0.0
C453 C 0.69212 0.06429 0.91127 0.0
C454 C 0.65782 0.02863 0.92814 0.0
C455 C 0.67567 0.04026 0.94079 0.0
C456 C 0.65702 0.03492 0.90746 0.0
C457 C 0.6591 0.08383 0.80536 0.0
C458 C 0.62452 0.07929 0.81075 0.0
C459 C 0.63524 0.07539 0.77567 0.0
C460 C 0.65455 0.07953 0.7838 0.0
C461 C 0.62013 0.07564 0.78897 0.0
C462 C 0.64378 0.08327 0.81888 0.0
C463 C 0.68018 0.08986 0.81317 0.0
O464 O 0.72642 0.10954 0.85876 0.0
O465 O 0.72583 0.08292 0.843 0.0
O466 O 0.68458 0.07478 0.8147 0.0
O467 O 0.68692 0.10272 0.82936 0.0
H468 H 0.73261 0.11771 0.81329 0.0
H469 H 0.76001 0.14319 0.79011 0.0
H470 H 0.80702 0.14461 0.83203 0.0
H471 H 0.77937 0.11886 0.85509 0.0
H472 H 0.70698 0.0672 0.94128 0.0
H473 H 0.70546 0.07817 0.90493 0.0
H474 H 0.64416 1.01504 0.93445 0.0
H475 H 0.6429 0.02598 0.89821 0.0
H476 H 0.61339 0.07983 0.82145 0.0
H477 H 0.63227 0.07223 0.75891 0.0
H478 H 0.66612 0.07976 0.77314 0.0
H479 H 0.64689 0.08642 0.83564 0.0
H480 H 0.22922 0.34946 0.23751 0.0
H481 H 0.18638 0.41689 0.29477 0.0
H482 H 0.26238 0.41675 0.23945 0.0
H483 H 0.15631 0.34992 0.30053 0.0
H484 H 0.21363 0.41676 0.2733 0.0
H485 H 0.20158 0.3489 0.25934 0.0
C486 C 0.23065 0.3641 0.24247 0.0
C487 C 0.24818 0.38318 0.2367 0.0
C488 C 0.20111 0.40207 0.27925 0.0
C489 C 0.21669 0.38266 0.2617 0.0
C490 C 0.18545 0.40212 0.29142 0.0
C491 C 0.16895 0.38337 0.29936 0.0
C492 C 0.20031 0.38311 0.27485 0.0
C493 C 0.16881 0.36475 0.29483 0.0
C494 C 0.21494 0.36377 0.25502 0.0
C495 C 0.24932 0.40168 0.24376 0.0
N496 N 0.1842 0.36507 0.28279 0.0
N497 N 0.2338 0.40094 0.25581 0.0
H498 H 0.78651 0.18021 0.79175 0.0
H499 H 0.89605 0.22166 0.73258 0.0
H500 H 0.82271 0.14932 0.79627 0.0
H501 H 0.8627 0.25553 0.73532 0.0
H502 H 0.8687 0.19402 0.7543 0.0
H503 H 0.81363 0.20699 0.7695 0.0
C504 C 0.80012 0.17898 0.78795 0.0
C505 C 0.80229 0.16243 0.79583 0.0
C506 C 0.8674 0.20752 0.75016 0.0
C507 C 0.83361 0.19324 0.77044 0.0
C508 C 0.88294 0.22323 0.73767 0.0
C509 C 0.88171 0.24098 0.7322 0.0
C510 C 0.85044 0.20949 0.75709 0.0
C511 C 0.86447 0.24229 0.7394 0.0
C512 C 0.81569 0.19437 0.77534 0.0
C513 C 0.82047 0.16189 0.79067 0.0
N514 N 0.84953 0.22677 0.75142 0.0
N515 N 0.83541 0.17704 0.77824 0.0
H516 H 0.66412 0.81641 0.32352 0.0
H517 H 0.66269 0.8569 0.20615 0.0
H518 H 0.66421 0.7839 0.26697 0.0
H519 H 0.66573 0.89093 0.26267 0.0
H520 H 0.66429 0.83054 0.22811 0.0
H521 H 0.66576 0.84435 0.3015 0.0
C522 C 0.66469 0.81522 0.30648 0.0
C523 C 0.66398 0.79771 0.29712 0.0
C524 C 0.66469 0.84381 0.23572 0.0
C525 C 0.66556 0.82959 0.27174 0.0
C526 C 0.66391 0.85896 0.22316 0.0
C527 C 0.66403 0.87618 0.23255 0.0
C528 C 0.66557 0.84583 0.25786 0.0
C529 C 0.66527 0.87778 0.25473 0.0
C530 C 0.6655 0.83114 0.2939 0.0
C531 C 0.66441 0.79692 0.27491 0.0
N532 N 0.66594 0.86279 0.26661 0.0
N533 N 0.66512 0.81258 0.263 0.0
H534 H 0.80185 0.6705 0.7558 0.0
H535 H 0.87801 0.62438 0.77344 0.0
H536 H 0.81056 0.6327 0.7097 0.0
H537 H 0.87913 0.6723 0.81312 0.0
H538 H 0.85231 0.62622 0.75069 0.0
H539 H 0.82893 0.67018 0.77794 0.0
C540 C 0.80947 0.66214 0.75034 0.0
C541 C 0.80394 0.65162 0.73087 0.0
C542 C 0.85823 0.63639 0.76433 0.0
C543 C 0.83492 0.65117 0.75611 0.0
C544 C 0.87304 0.63545 0.77731 0.0
C545 C 0.8809 0.64826 0.79527 0.0
C546 C 0.85101 0.65014 0.76936 0.0
C547 C 0.87337 0.66191 0.79965 0.0
C548 C 0.82499 0.66205 0.76293 0.0
C549 C 0.81448 0.64122 0.72448 0.0
N550 N 0.85883 0.66245 0.78683 0.0
N551 N 0.82937 0.64116 0.73711 0.0
H552 H 0.22683 0.88836 0.29386 0.0
H553 H 0.18796 0.78039 0.23286 0.0
H554 H 0.2638 0.85856 0.28663 0.0
H555 H 0.15338 0.81309 0.23243 0.0
H556 H 0.21529 0.80854 0.2537 0.0
H557 H 0.19913 0.86061 0.27251 0.0
C558 C 0.22911 0.87599 0.28781 0.0
C559 C 0.24771 0.87584 0.29197 0.0
C560 C 0.20176 0.80962 0.24906 0.0
C561 C 0.21614 0.8441 0.26755 0.0
C562 C 0.18606 0.79347 0.23726 0.0
C563 C 0.16828 0.79431 0.23099 0.0
C564 C 0.19971 0.82682 0.25478 0.0
C565 C 0.16689 0.81186 0.23682 0.0
C566 C 0.21335 0.86022 0.27554 0.0
C567 C 0.24988 0.85951 0.28357 0.0
N568 N 0.18235 0.82739 0.24847 0.0
N569 N 0.2343 0.84431 0.27185 0.0
H570 H 0.42855 0.25919 0.78773 0.0
H571 H 0.36071 0.14806 0.73153 0.0
H572 H 0.36157 0.22158 0.79415 0.0
H573 H 0.42814 0.18296 0.73236 0.0
H574 H 0.36031 0.1755 0.75275 0.0
H575 H 0.4283 0.23213 0.76565 0.0
C576 C 0.41374 0.2453 0.78435 0.0
C577 C 0.39504 0.2427 0.79276 0.0
C578 C 0.37518 0.17712 0.7483 0.0
C579 C 0.39466 0.21145 0.76759 0.0
C580 C 0.37542 0.16152 0.7361 0.0
C581 C 0.39449 0.16317 0.73023 0.0
C582 C 0.39415 0.19456 0.75454 0.0
C583 C 0.41308 0.18087 0.73677 0.0
C584 C 0.41363 0.22977 0.77185 0.0
C585 C 0.37638 0.22416 0.78814 0.0
N586 N 0.41243 0.19586 0.74852 0.0
N587 N 0.37665 0.20926 0.77583 0.0
H588 H 0.43747 0.50566 0.27894 0.0
H589 H 0.55532 0.59229 0.25308 0.0
H590 H 0.47032 0.50335 0.22354 0.0
H591 H 0.52517 0.58782 0.31281 0.0
H592 H 0.52453 0.55973 0.24184 0.0
H593 H 0.46968 0.5355 0.29167 0.0
C594 C 0.4515 0.51122 0.26954 0.0
C595 C 0.45107 0.50188 0.25008 0.0
C596 C 0.52472 0.5658 0.25746 0.0
C597 C 0.48808 0.53654 0.26444 0.0
C598 C 0.54224 0.58443 0.26385 0.0
C599 C 0.5428 0.59282 0.2839 0.0
C600 C 0.50753 0.55559 0.27114 0.0
C601 C 0.52552 0.58184 0.2973 0.0
C602 C 0.4699 0.5284 0.27678 0.0
C603 C 0.46975 0.5102 0.23845 0.0
N604 N 0.50856 0.5639 0.29062 0.0
N605 N 0.48745 0.52711 0.24575 0.0
H606 H 0.97264 0.45591 0.71689 0.0
H607 H 0.97049 0.52253 0.81502 0.0
H608 H 0.97355 0.43884 0.78214 0.0
H609 H 0.9747 0.54214 0.74991 0.0
H610 H 0.974 0.49305 0.8034 0.0
H611 H 0.97579 0.4887 0.7287 0.0
C612 C 0.97379 0.45915 0.7337 0.0
C613 C 0.97268 0.44447 0.74854 0.0
C614 C 0.97431 0.50388 0.79165 0.0
C615 C 0.97592 0.48193 0.7622 0.0
C616 C 0.97245 0.52083 0.7983 0.0
C617 C 0.97215 0.53481 0.78342 0.0
C618 C 0.97581 0.50078 0.76995 0.0
C619 C 0.97444 0.53157 0.76192 0.0
C620 C 0.97545 0.47785 0.74044 0.0
C621 C 0.97394 0.44948 0.77013 0.0
N622 N 0.97603 0.51484 0.75584 0.0
N623 N 0.97536 0.46771 0.7763 0.0
H624 H 0.55137 0.98547 0.24066 0.0
H625 H 0.43928 0.91819 0.29505 0.0
H626 H 0.52862 0.92442 0.2681 0.0
H627 H 0.46449 0.98269 0.27728 0.0
H628 H 0.47196 0.92034 0.28445 0.0
H629 H 0.5197 0.98495 0.25306 0.0
C630 C 0.53975 0.97199 0.24931 0.0
C631 C 0.54269 0.95498 0.25341 0.0
C632 C 0.47044 0.93408 0.2829 0.0
C633 C 0.5065 0.9543 0.2676 0.0
C634 C 0.45172 0.93282 0.28885 0.0
C635 C 0.44912 0.95024 0.28689 0.0
C636 C 0.48673 0.95288 0.27476 0.0
C637 C 0.4659 0.96891 0.27911 0.0
C638 C 0.52174 0.97175 0.25647 0.0
C639 C 0.5272 0.938 0.26484 0.0
N640 N 0.48397 0.96971 0.27317 0.0
N641 N 0.50978 0.93807 0.27142 0.0
H642 H 0.52958 0.45046 0.81806 0.0
H643 H 0.58108 0.54068 0.73055 0.0
H644 H 0.49744 0.45116 0.76118 0.0
H645 H 0.61588 0.53177 0.78052 0.0
H646 H 0.5491 0.51064 0.74391 0.0
H647 H 0.55997 0.48329 0.80712 0.0
C648 C 0.52881 0.45766 0.80339 0.0
C649 C 0.51095 0.448 0.79048 0.0
C650 C 0.56374 0.51537 0.752 0.0
C651 C 0.54584 0.4855 0.77772 0.0
C652 C 0.58204 0.53246 0.74433 0.0
C653 C 0.60132 0.53878 0.75432 0.0
C654 C 0.56465 0.50452 0.76986 0.0
C655 C 0.60143 0.52773 0.7724 0.0
C656 C 0.54624 0.47633 0.79707 0.0
C657 C 0.51098 0.45792 0.77148 0.0
N658 N 0.58343 0.51114 0.77952 0.0
N659 N 0.52817 0.47611 0.76565 0.0
H660 H 0.12594 0.60467 0.23814 0.0
H661 H 0.05693 0.49016 0.28693 0.0
H662 H 0.05988 0.57708 0.25003 0.0
H663 H 0.12032 0.51557 0.26496 0.0
H664 H 0.05752 0.52192 0.27469 0.0
H665 H 0.12405 0.5722 0.24908 0.0
C666 C 0.11103 0.59176 0.24315 0.0
C667 C 0.09307 0.59363 0.24332 0.0
C668 C 0.07123 0.52045 0.27246 0.0
C669 C 0.09073 0.55623 0.25579 0.0
C670 C 0.07094 0.50239 0.27953 0.0
C671 C 0.08858 0.50016 0.27689 0.0
C672 C 0.08936 0.53646 0.2629 0.0
C673 C 0.10626 0.51644 0.26705 0.0
C674 C 0.10992 0.57316 0.24928 0.0
C675 C 0.07408 0.57625 0.24959 0.0
N676 N 0.10622 0.53389 0.26051 0.0
N677 N 0.07341 0.55829 0.2557 0.0
H678 H 0.49645 0.05978 0.77446 0.0
H679 H 0.6146 0.09072 0.75124 0.0
H680 H 0.52812 0.08665 0.71557 0.0
H681 H 0.5806 0.05542 0.80629 0.0
H682 H 0.5827 0.08847 0.73765 0.0
H683 H 0.52676 0.05745 0.78632 0.0
C684 C 0.50975 0.06512 0.764 0.0
C685 C 0.50977 0.0735 0.74402 0.0
C686 C 0.58216 0.08109 0.75264 0.0
C687 C 0.5445 0.07088 0.75747 0.0
C688 C 0.60038 0.08223 0.76038 0.0
C689 C 0.60039 0.07326 0.78001 0.0
C690 C 0.56374 0.07106 0.76464 0.0
C691 C 0.58148 0.06288 0.79126 0.0
C692 C 0.52701 0.0637 0.77074 0.0
C693 C 0.52732 0.07992 0.73101 0.0
N694 N 0.56396 0.06217 0.78348 0.0
N695 N 0.54402 0.07863 0.73803 0.0
H696 H 0.36111 0.39824 0.05771 0.0
H697 H 0.409 0.3484 0.97933 0.0
H698 H 0.39249 0.36553 0.07874 0.0
H699 H 0.37886 0.38223 0.95802 0.0
H700 H 0.40015 0.35171 0.01578 0.0
H701 H 0.3642 0.38944 0.02114 0.0
C702 C 0.36839 0.38896 0.05468 0.0
C703 C 0.3767 0.38276 0.07134 0.0
C704 C 0.39533 0.35828 1.00313 0.0
C705 C 0.38056 0.37287 0.02944 0.0
C706 C 0.40046 0.35647 0.98231 0.0
C707 C 0.39484 0.36521 0.96558 0.0
C708 C 0.38456 0.369 1.00734 0.0
C709 C 0.38342 0.37515 0.97038 0.0
C710 C 0.37027 0.38405 0.03376 0.0
C711 C 0.38619 0.37096 0.06639 0.0
N712 N 0.37881 0.37692 0.99082 0.0
N713 N 0.38797 0.36652 0.04591 0.0
H714 H 0.03705 0.42056 0.46364 0.0
H715 H 1.01014 0.34783 0.56634 0.0
H716 H 0.03941 0.36353 0.46363 0.0
H717 H 1.01624 0.4089 0.56598 0.0
H718 H 1.01922 0.35202 0.52856 0.0
H719 H 0.02774 0.41526 0.50095 0.0
C720 C 0.03544 0.4068 0.47146 0.0
C721 C 0.03886 0.39238 0.46041 0.0
C722 C 1.01863 0.3645 0.53682 0.0
C723 C 0.02841 0.38631 0.50345 0.0
C724 C 1.01336 0.36209 0.55832 0.0
C725 C 1.01258 0.3781 0.56938 0.0
C726 C 1.02293 0.38298 0.52629 0.0
C727 C 1.017 0.39628 0.55823 0.0
C728 C 0.03026 0.40385 0.49286 0.0
C729 C 0.037 0.37508 0.47156 0.0
N730 N 1.02193 0.39819 0.53737 0.0
N731 N 0.03182 0.37248 0.49248 0.0
H732 H 0.69073 0.06596 0.97539 0.0
H733 H 0.64608 0.97181 0.05883 0.0
H734 H 0.66053 1.00104 0.95759 0.0
H735 H 0.67342 0.03655 0.07651 0.0
H736 H 0.65459 0.98244 0.02186 0.0
H737 H 0.68792 0.0557 1.01257 0.0
C738 C 0.68377 0.04956 0.97926 0.0
C739 C 0.67574 0.03433 0.96331 0.0
C740 C 0.65885 0.99434 0.03384 0.0
C741 C 0.67219 0.02244 1.00594 0.0
C742 C 0.65412 0.98828 0.05499 0.0
C743 C 0.65892 1.0033 0.07082 0.0
C744 C 0.66848 1.01557 0.02842 0.0
C745 C 0.6691 0.02441 0.06481 0.0
C746 C 0.68203 0.0437 1.00053 0.0
C747 C 0.66663 1.01329 0.96935 0.0
N748 N 0.67345 0.0299 0.0441 0.0
N749 N 0.66501 1.00798 0.99017 0.0
H750 H 0.69249 0.6711 0.56784 0.0
H751 H 0.62817 0.6232 0.46048 0.0
H752 H 0.63844 0.60954 0.5622 0.0
H753 H 0.67732 0.68746 0.4657 0.0
H754 H 0.63356 0.61772 0.49739 0.0
H755 H 0.68902 0.67719 0.53016 0.0
C756 C 0.67997 0.65886 0.55867 0.0
C757 C 0.66563 0.63984 0.56822 0.0
C758 C 0.64324 0.63303 0.49053 0.0
C759 C 0.66156 0.64669 0.52525 0.0
C760 C 0.64027 0.63614 0.46935 0.0
C761 C 0.65241 0.65579 0.45989 0.0
C762 C 0.6585 0.64967 0.50252 0.0
C763 C 0.66753 0.67208 0.47239 0.0
C764 C 0.67793 0.66238 0.53722 0.0
C765 C 0.64964 0.62457 0.55562 0.0
N766 N 0.67018 0.66865 0.49307 0.0
N767 N 0.64806 0.62833 0.53486 0.0
H768 H 0.06908 0.68152 0.05779 0.0
H769 H 0.97458 0.62946 0.97469 0.0
H770 H 1.0044 0.6433 0.07584 0.0
H771 H 0.03958 0.66405 0.95675 0.0
H772 H 0.98491 0.6377 1.01178 0.0
H773 H 0.05825 0.67863 0.0208 0.0
C774 C 0.05257 0.67276 0.05402 0.0
C775 C 0.03764 0.66253 0.06997 0.0
C776 C 0.99691 0.6436 0.99972 0.0
C777 C 1.02514 0.65891 0.02754 0.0
C778 C 0.99101 0.63902 0.97851 0.0
C779 C 1.00624 0.64595 0.96256 0.0
C780 C 1.01821 0.65523 1.00507 0.0
C781 C 0.02732 0.65808 0.96853 0.0
C782 C 0.0464 0.67099 0.03286 0.0
C783 C 1.01648 0.65116 0.06405 0.0
N784 N 0.03268 0.66224 0.98929 0.0
N785 N 1.01088 0.64958 0.04333 0.0
H786 H 0.35862 0.9643 0.47628 0.0
H787 H 0.40689 0.06189 0.55505 0.0
H788 H 0.3907 0.02833 0.45508 0.0
H789 H 0.37449 0.99768 0.57573 0.0
H790 H 0.39822 0.05006 0.51839 0.0
H791 H 0.36165 0.97634 0.51274 0.0
C792 C 0.36625 0.98091 0.4793 0.0
C793 C 0.3746 0.99533 0.46261 0.0
C794 C 0.39287 0.03856 0.53096 0.0
C795 C 0.37809 1.00927 0.50439 0.0
C796 C 0.3977 0.04531 0.55192 0.0
C797 C 0.39156 0.03075 0.56852 0.0
C798 C 0.38183 0.01709 0.52652 0.0
C799 C 0.37989 1.00945 0.56344 0.0
C800 C 0.3679 0.98778 0.50013 0.0
C801 C 0.38396 1.01666 0.46744 0.0
N802 N 0.37553 1.00328 0.54293 0.0
N803 N 0.38562 0.02299 0.4879 0.0
loop_
_geom_bond_atom_site_label_1
_geom_bond_atom_site_label_2
_geom_bond_distance
_geom_bond_site_symmetry_2
_ccdc_geom_bond_type
C0 C1 1.264 . S
C0 C5 1.479 . S
C0 C10 1.465 . S
C1 C0 1.264 . S
C1 C3 1.339 . S
C1 H28 0.931 . S
C2 C3 1.395 . S
C2 C4 1.320 . S
C3 C1 1.339 . S
C3 C2 1.395 . S
C3 H29 0.929 . S
C4 C2 1.320 . S
C4 C5 1.405 . S
C4 H30 0.930 . S
C5 C0 1.479 . S
C5 C4 1.405 . S
C5 H31 0.931 . S
U6 O7 2.454 . S
U6 O8 2.458 . S
U6 C9 2.984 . S
U6 C10 2.847 . S
U6 C23 2.882 . S
U6 O24 2.441 . S
U6 O25 2.420 . S
U6 O26 2.455 . S
U6 O27 2.449 . S
O7 U6 2.454 . S
O7 C9 1.353 . S
O8 U6 2.458 . S
O8 C9 1.286 . S
C9 U6 2.984 . S
C9 O7 1.353 . S
C9 O8 1.286 . S
C9 C11 1.363 . S
C10 C0 1.465 . S
C10 U6 2.847 . S
C10 O24 1.249 . S
C10 O25 1.202 . S
C11 C9 1.363 . S
C11 C13 1.408 . S
C11 C16 1.342 . S
C12 C13 1.310 . S
C12 C15 1.461 . S
C12 H32 0.932 . S
C13 C11 1.408 . S
C13 C12 1.310 . S
C13 H33 0.930 . S
C14 C15 1.474 . S
C14 C16 1.285 . S
C14 H34 0.929 . S
C15 C12 1.461 . S
C15 C14 1.474 . S
C16 C11 1.342 . S
C16 C14 1.285 . S
C16 H35 0.930 . S
C17 C20 1.424 . S
C17 C22 1.245 . S
C17 C23 1.428 . S
C18 C21 1.260 . S
C18 C22 1.477 . S
C18 H36 0.932 . S
C19 C20 1.384 . S
C19 C21 1.479 . S
C19 H37 0.929 . S
C20 C17 1.424 . S
C20 C19 1.384 . S
C20 H38 0.928 . S
C21 C18 1.260 . S
C21 C19 1.479 . S
C22 C17 1.245 . S
C22 C18 1.477 . S
C22 H39 0.932 . S
C23 U6 2.882 . S
C23 C17 1.428 . S
C23 O26 1.301 . S
C23 O27 1.282 . S
O24 U6 2.441 . S
O24 C10 1.249 . S
O25 U6 2.420 . S
O25 C10 1.202 . S
O26 U6 2.455 . S
O26 C23 1.301 . S
O27 U6 2.449 . S
O27 C23 1.282 . S
H28 C1 0.931 . S
H29 C3 0.929 . S
H30 C4 0.930 . S
H31 C5 0.931 . S
H32 C12 0.932 . S
H33 C13 0.930 . S
H34 C14 0.929 . S
H35 C16 0.930 . S
H36 C18 0.932 . S
H37 C19 0.929 . S
H38 C20 0.928 . S
H39 C22 0.932 . S
C40 C41 1.264 . S
C40 C45 1.479 . S
C40 C50 1.465 . S
C41 C40 1.264 . S
C41 C43 1.339 . S
C41 H68 0.931 . S
C42 C43 1.395 . S
C42 C44 1.320 . S
C43 C41 1.339 . S
C43 C42 1.395 . S
C43 H69 0.929 . S
C44 C42 1.320 . S
C44 C45 1.405 . S
C44 H70 0.930 . S
C45 C40 1.479 . S
C45 C44 1.405 . S
C45 H71 0.931 . S
U46 O47 2.454 . S
U46 O48 2.458 . S
U46 C49 2.984 . S
U46 C50 2.847 . S
U46 C63 2.882 . S
U46 O64 2.441 . S
U46 O65 2.420 . S
U46 O66 2.455 . S
U46 O67 2.449 . S
O47 U46 2.454 . S
O47 C49 1.353 . S
O48 U46 2.458 . S
O48 C49 1.286 . S
C49 U46 2.984 . S
C49 O47 1.353 . S
C49 O48 1.286 . S
C49 C51 1.363 . S
C50 C40 1.465 . S
C50 U46 2.847 . S
C50 O64 1.249 . S
C50 O65 1.202 . S
C51 C49 1.363 . S
C51 C53 1.408 . S
C51 C56 1.342 1_655 S
C52 C53 1.310 . S
C52 C55 1.461 1_655 S
C52 H72 0.932 . S
C53 C51 1.408 . S
C53 C52 1.310 . S
C53 H73 0.930 . S
C54 C55 1.474 . S
C54 C56 1.285 . S
C54 H74 0.929 . S
C55 C52 1.461 1_455 S
C55 C54 1.474 . S
C56 C51 1.342 1_455 S
C56 C54 1.285 . S
C56 H75 0.930 . S
C57 C60 1.424 . S
C57 C62 1.245 . S
C57 C63 1.428 . S
C58 C61 1.260 . S
C58 C62 1.477 . S
C58 H76 0.932 1_655 S
C59 C60 1.384 . S
C59 C61 1.479 . S
C59 H77 0.929 . S
C60 C57 1.424 . S
C60 C59 1.384 . S
C60 H78 0.928 . S
C61 C58 1.260 . S
C61 C59 1.479 . S
C62 C57 1.245 . S
C62 C58 1.477 . S
C62 H79 0.932 1_655 S
C63 U46 2.882 . S
C63 C57 1.428 . S
C63 O66 1.301 . S
C63 O67 1.282 . S
O64 U46 2.441 . S
O64 C50 1.249 . S
O65 U46 2.420 . S
O65 C50 1.202 . S
O66 U46 2.455 . S
O66 C63 1.301 . S
O67 U46 2.449 . S
O67 C63 1.282 . S
H68 C41 0.931 . S
H69 C43 0.929 . S
H70 C44 0.930 . S
H71 C45 0.931 . S
H72 C52 0.932 . S
H73 C53 0.930 . S
H74 C54 0.929 . S
H75 C56 0.930 . S
H76 C58 0.932 1_455 S
H77 C59 0.929 . S
H78 C60 0.928 . S
H79 C62 0.932 1_455 S
C80 C81 1.264 . S
C80 C85 1.479 . S
C80 C90 1.465 . S
C81 C80 1.264 . S
C81 C83 1.339 . S
C81 H108 0.931 . S
C82 C83 1.395 . S
C82 C84 1.320 . S
C83 C81 1.339 . S
C83 C82 1.395 . S
C83 H109 0.929 . S
C84 C82 1.320 . S
C84 C85 1.405 . S
C84 H110 0.930 . S
C85 C80 1.479 . S
C85 C84 1.405 . S
C85 H111 0.931 . S
U86 O87 2.454 . S
U86 O88 2.458 . S
U86 C89 2.984 . S
U86 C90 2.847 . S
U86 C103 2.882 . S
U86 O104 2.441 . S
U86 O105 2.420 . S
U86 O106 2.455 . S
U86 O107 2.449 . S
O87 U86 2.454 . S
O87 C89 1.353 . S
O88 U86 2.458 . S
O88 C89 1.286 . S
C89 U86 2.984 . S
C89 O87 1.353 . S
C89 O88 1.286 . S
C89 C91 1.363 . S
C90 C80 1.465 . S
C90 U86 2.847 . S
C90 O104 1.249 . S
C90 O105 1.202 . S
C91 C89 1.363 . S
C91 C93 1.408 . S
C91 C96 1.342 1_565 S
C92 C93 1.310 . S
C92 C95 1.461 1_565 S
C92 H112 0.932 . S
C93 C91 1.408 . S
C93 C92 1.310 . S
C93 H113 0.930 . S
C94 C95 1.474 . S
C94 C96 1.285 . S
C94 H114 0.929 . S
C95 C92 1.461 1_545 S
C95 C94 1.474 . S
C96 C91 1.342 1_545 S
C96 C94 1.285 . S
C96 H115 0.930 . S
C97 C100 1.424 . S
C97 C102 1.245 . S
C97 C103 1.428 . S
C98 C101 1.260 . S
C98 C102 1.477 . S
C98 H116 0.932 1_565 S
C99 C100 1.384 . S
C99 C101 1.479 . S
C99 H117 0.929 . S
C100 C97 1.424 . S
C100 C99 1.384 . S
C100 H118 0.928 . S
C101 C98 1.260 . S
C101 C99 1.479 . S
C102 C97 1.245 . S
C102 C98 1.477 . S
C102 H119 0.932 1_565 S
C103 U86 2.882 . S
C103 C97 1.428 . S
C103 O106 1.301 . S
C103 O107 1.282 . S
O104 U86 2.441 . S
O104 C90 1.249 . S
O105 U86 2.420 . S
O105 C90 1.202 . S
O106 U86 2.455 . S
O106 C103 1.301 . S
O107 U86 2.449 . S
O107 C103 1.282 . S
H108 C81 0.931 . S
H109 C83 0.929 . S
H110 C84 0.930 . S
H111 C85 0.931 . S
H112 C92 0.932 . S
H113 C93 0.930 . S
H114 C94 0.929 . S
H115 C96 0.930 . S
H116 C98 0.932 1_545 S
H117 C99 0.929 . S
H118 C100 0.928 . S
H119 C102 0.932 1_545 S
C120 C121 1.264 . S
C120 C125 1.479 . S
C120 C130 1.465 . S
C121 C120 1.264 . S
C121 C123 1.339 . S
C121 H148 0.931 . S
C122 C123 1.395 . S
C122 C124 1.320 . S
C123 C121 1.339 . S
C123 C122 1.395 . S
C123 H149 0.929 . S
C124 C122 1.320 . S
C124 C125 1.405 . S
C124 H150 0.930 . S
C125 C120 1.479 . S
C125 C124 1.405 . S
C125 H151 0.931 . S
U126 O127 2.454 . S
U126 O128 2.458 . S
U126 C129 2.984 . S
U126 C130 2.847 . S
U126 C143 2.882 . S
U126 O144 2.441 . S
U126 O145 2.420 . S
U126 O146 2.455 . S
U126 O147 2.449 . S
O127 U126 2.454 . S
O127 C129 1.353 . S
O128 U126 2.458 . S
O128 C129 1.286 . S
C129 U126 2.984 . S
C129 O127 1.353 . S
C129 O128 1.286 . S
C129 C131 1.363 . S
C130 C120 1.465 . S
C130 U126 2.847 . S
C130 O144 1.249 . S
C130 O145 1.202 . S
C131 C129 1.363 . S
C131 C133 1.408 . S
C131 C136 1.342 . S
C132 C133 1.310 . S
C132 C135 1.461 . S
C132 H152 0.932 . S
C133 C131 1.408 . S
C133 C132 1.310 . S
C133 H153 0.930 . S
C134 C135 1.474 . S
C134 C136 1.285 . S
C134 H154 0.929 . S
C135 C132 1.461 . S
C135 C134 1.474 . S
C136 C131 1.342 . S
C136 C134 1.285 . S
C136 H155 0.930 . S
C137 C140 1.424 . S
C137 C142 1.245 . S
C137 C143 1.428 . S
C138 C141 1.260 . S
C138 C142 1.477 . S
C138 H156 0.932 . S
C139 C140 1.384 . S
C139 C141 1.479 . S
C139 H157 0.929 . S
C140 C137 1.424 . S
C140 C139 1.384 . S
C140 H158 0.928 . S
C141 C138 1.260 . S
C141 C139 1.479 . S
C142 C137 1.245 . S
C142 C138 1.477 . S
C142 H159 0.932 . S
C143 U126 2.882 . S
C143 C137 1.428 . S
C143 O146 1.301 . S
C143 O147 1.282 . S
O144 U126 2.441 . S
O144 C130 1.249 . S
O145 U126 2.420 . S
O145 C130 1.202 . S
O146 U126 2.455 . S
O146 C143 1.301 . S
O147 U126 2.449 . S
O147 C143 1.282 . S
H148 C121 0.931 . S
H149 C123 0.929 . S
H150 C124 0.930 . S
H151 C125 0.931 . S
H152 C132 0.932 . S
H153 C133 0.930 . S
H154 C134 0.929 . S
H155 C136 0.930 . S
H156 C138 0.932 . S
H157 C139 0.929 . S
H158 C140 0.928 . S
H159 C142 0.932 . S
C160 C161 1.264 . S
C160 C165 1.479 . S
C160 C170 1.465 . S
C161 C160 1.264 . S
C161 C163 1.339 . S
C161 H188 0.931 . S
C162 C163 1.395 . S
C162 C164 1.320 . S
C163 C161 1.339 . S
C163 C162 1.395 . S
C163 H189 0.929 . S
C164 C162 1.320 . S
C164 C165 1.405 . S
C164 H190 0.930 . S
C165 C160 1.479 . S
C165 C164 1.405 . S
C165 H191 0.931 . S
U166 O167 2.454 . S
U166 O168 2.458 . S
U166 C169 2.984 . S
U166 C170 2.847 . S
U166 C183 2.882 . S
U166 O184 2.441 . S
U166 O185 2.420 . S
U166 O186 2.455 . S
U166 O187 2.449 . S
O167 U166 2.454 . S
O167 C169 1.353 . S
O168 U166 2.458 . S
O168 C169 1.286 . S
C169 U166 2.984 . S
C169 O167 1.353 . S
C169 O168 1.286 . S
C169 C171 1.363 . S
C170 C160 1.465 . S
C170 U166 2.847 . S
C170 O184 1.249 . S
C170 O185 1.202 . S
C171 C169 1.363 . S
C171 C173 1.408 . S
C171 C176 1.342 1_455 S
C172 C173 1.310 . S
C172 C175 1.461 1_455 S
C172 H192 0.932 . S
C173 C171 1.408 . S
C173 C172 1.310 . S
C173 H193 0.930 . S
C174 C175 1.474 . S
C174 C176 1.285 . S
C174 H194 0.929 . S
C175 C172 1.461 1_655 S
C175 C174 1.474 . S
C176 C171 1.342 1_655 S
C176 C174 1.285 . S
C176 H195 0.930 . S
C177 C180 1.424 . S
C177 C182 1.245 . S
C177 C183 1.428 . S
C178 C181 1.260 . S
C178 C182 1.477 . S
C178 H196 0.932 1_455 S
C179 C180 1.384 . S
C179 C181 1.479 . S
C179 H197 0.929 . S
C180 C177 1.424 . S
C180 C179 1.384 . S
C180 H198 0.928 . S
C181 C178 1.260 . S
C181 C179 1.479 . S
C182 C177 1.245 . S
C182 C178 1.477 . S
C182 H199 0.932 1_455 S
C183 U166 2.882 . S
C183 C177 1.428 . S
C183 O186 1.301 . S
C183 O187 1.282 . S
O184 U166 2.441 . S
O184 C170 1.249 . S
O185 U166 2.420 . S
O185 C170 1.202 . S
O186 U166 2.455 . S
O186 C183 1.301 . S
O187 U166 2.449 . S
O187 C183 1.282 . S
H188 C161 0.931 . S
H189 C163 0.929 . S
H190 C164 0.930 . S
H191 C165 0.931 . S
H192 C172 0.932 . S
H193 C173 0.930 . S
H194 C174 0.929 . S
H195 C176 0.930 . S
H196 C178 0.932 1_655 S
H197 C179 0.929 . S
H198 C180 0.928 . S
H199 C182 0.932 1_655 S
C200 C201 1.264 . S
C200 C205 1.479 . S
C200 C210 1.465 . S
C201 C200 1.264 . S
C201 C203 1.339 . S
C201 H228 0.931 . S
C202 C203 1.395 . S
C202 C204 1.320 . S
C203 C201 1.339 . S
C203 C202 1.395 . S
C203 H229 0.929 . S
C204 C202 1.320 . S
C204 C205 1.405 . S
C204 H230 0.930 . S
C205 C200 1.479 . S
C205 C204 1.405 . S
C205 H231 0.931 . S
U206 O207 2.454 . S
U206 O208 2.458 . S
U206 C209 2.984 . S
U206 C210 2.847 . S
U206 C223 2.882 . S
U206 O224 2.441 . S
U206 O225 2.420 . S
U206 O226 2.455 . S
U206 O227 2.449 . S
O207 U206 2.454 . S
O207 C209 1.353 . S
O208 U206 2.458 . S
O208 C209 1.286 . S
C209 U206 2.984 . S
C209 O207 1.353 . S
C209 O208 1.286 . S
C209 C211 1.363 . S
C210 C200 1.465 . S
C210 U206 2.847 . S
C210 O224 1.249 . S
C210 O225 1.202 . S
C211 C209 1.363 . S
C211 C213 1.408 . S
C211 C216 1.342 1_545 S
C212 C213 1.310 . S
C212 C215 1.461 1_545 S
C212 H232 0.932 . S
C213 C211 1.408 . S
C213 C212 1.310 . S
C213 H233 0.930 . S
C214 C215 1.474 . S
C214 C216 1.285 . S
C214 H234 0.929 . S
C215 C212 1.461 1_565 S
C215 C214 1.474 . S
C216 C211 1.342 1_565 S
C216 C214 1.285 . S
C216 H235 0.930 . S
C217 C220 1.424 . S
C217 C222 1.245 . S
C217 C223 1.428 . S
C218 C221 1.260 . S
C218 C222 1.477 . S
C218 H236 0.932 1_545 S
C219 C220 1.384 . S
C219 C221 1.479 . S
C219 H237 0.929 . S
C220 C217 1.424 . S
C220 C219 1.384 . S
C220 H238 0.928 . S
C221 C218 1.260 . S
C221 C219 1.479 . S
C222 C217 1.245 . S
C222 C218 1.477 . S
C222 H239 0.932 1_545 S
C223 U206 2.882 . S
C223 C217 1.428 . S
C223 O226 1.301 . S
C223 O227 1.282 . S
O224 U206 2.441 . S
O224 C210 1.249 . S
O225 U206 2.420 . S
O225 C210 1.202 . S
O226 U206 2.455 . S
O226 C223 1.301 . S
O227 U206 2.449 . S
O227 C223 1.282 . S
H228 C201 0.931 . S
H229 C203 0.929 . S
H230 C204 0.930 . S
H231 C205 0.931 . S
H232 C212 0.932 . S
H233 C213 0.930 . S
H234 C214 0.929 . S
H235 C216 0.930 . S
H236 C218 0.932 1_565 S
H237 C219 0.929 . S
H238 C220 0.928 . S
H239 C222 0.932 1_565 S
C240 C241 1.264 . S
C240 C245 1.479 . S
C240 C250 1.465 . S
C241 C240 1.264 . S
C241 C243 1.339 . S
C241 H268 0.931 . S
C242 C243 1.395 . S
C242 C244 1.320 . S
C243 C241 1.339 . S
C243 C242 1.395 . S
C243 H269 0.929 . S
C244 C242 1.320 . S
C244 C245 1.405 . S
C244 H270 0.930 . S
C245 C240 1.479 . S
C245 C244 1.405 . S
C245 H271 0.931 . S
U246 O247 2.454 . S
U246 O248 2.458 . S
U246 C249 2.984 . S
U246 C250 2.847 . S
U246 C263 2.882 . S
U246 O264 2.441 . S
U246 O265 2.420 . S
U246 O266 2.455 . S
U246 O267 2.449 . S
O247 U246 2.454 . S
O247 C249 1.353 . S
O248 U246 2.458 . S
O248 C249 1.286 . S
C249 U246 2.984 . S
C249 O247 1.353 . S
C249 O248 1.286 . S
C249 C251 1.363 . S
C250 C240 1.465 . S
C250 U246 2.847 . S
C250 O264 1.249 . S
C250 O265 1.202 . S
C251 C249 1.363 . S
C251 C253 1.408 . S
C251 C256 1.342 . S
C252 C253 1.310 . S
C252 C255 1.461 . S
C252 H272 0.932 . S
C253 C251 1.408 . S
C253 C252 1.310 . S
C253 H273 0.930 . S
C254 C255 1.474 . S
C254 C256 1.285 . S
C254 H274 0.929 . S
C255 C252 1.461 . S
C255 C254 1.474 . S
C256 C251 1.342 . S
C256 C254 1.285 . S
C256 H275 0.930 . S
C257 C260 1.424 . S
C257 C262 1.245 . S
C257 C263 1.428 . S
C258 C261 1.260 . S
C258 C262 1.477 . S
C258 H276 0.932 . S
C259 C260 1.384 . S
C259 C261 1.479 . S
C259 H277 0.929 . S
C260 C257 1.424 . S
C260 C259 1.384 . S
C260 H278 0.928 . S
C261 C258 1.260 . S
C261 C259 1.479 . S
C262 C257 1.245 . S
C262 C258 1.477 . S
C262 H279 0.932 . S
C263 U246 2.882 . S
C263 C257 1.428 . S
C263 O266 1.301 . S
C263 O267 1.282 . S
O264 U246 2.441 . S
O264 C250 1.249 . S
O265 U246 2.420 . S
O265 C250 1.202 . S
O266 U246 2.455 . S
O266 C263 1.301 . S
O267 U246 2.449 . S
O267 C263 1.282 . S
H268 C241 0.931 . S
H269 C243 0.929 . S
H270 C244 0.930 . S
H271 C245 0.931 . S
H272 C252 0.932 . S
H273 C253 0.930 . S
H274 C254 0.929 . S
H275 C256 0.930 . S
H276 C258 0.932 . S
H277 C259 0.929 . S
H278 C260 0.928 . S
H279 C262 0.932 . S
C280 C281 1.264 . S
C280 C285 1.479 . S
C280 C290 1.465 . S
C281 C280 1.264 . S
C281 C283 1.339 . S
C281 H308 0.931 . S
C282 C283 1.395 . S
C282 C284 1.320 . S
C283 C281 1.339 . S
C283 C282 1.395 . S
C283 H309 0.929 . S
C284 C282 1.320 . S
C284 C285 1.405 . S
C284 H310 0.930 . S
C285 C280 1.479 . S
C285 C284 1.405 . S
C285 H311 0.931 . S
U286 O287 2.454 . S
U286 O288 2.458 . S
U286 C289 2.984 . S
U286 C290 2.847 . S
U286 C303 2.882 . S
U286 O304 2.441 . S
U286 O305 2.420 . S
U286 O306 2.455 . S
U286 O307 2.449 . S
O287 U286 2.454 . S
O287 C289 1.353 . S
O288 U286 2.458 . S
O288 C289 1.286 . S
C289 U286 2.984 . S
C289 O287 1.353 . S
C289 O288 1.286 . S
C289 C291 1.363 . S
C290 C280 1.465 . S
C290 U286 2.847 . S
C290 O304 1.249 . S
C290 O305 1.202 . S
C291 C289 1.363 . S
C291 C293 1.408 . S
C291 C296 1.342 1_655 S
C292 C293 1.310 . S
C292 C295 1.461 1_655 S
C292 H312 0.932 . S
C293 C291 1.408 . S
C293 C292 1.310 . S
C293 H313 0.930 . S
C294 C295 1.474 . S
C294 C296 1.285 . S
C294 H314 0.929 . S
C295 C292 1.461 1_455 S
C295 C294 1.474 . S
C296 C291 1.342 1_455 S
C296 C294 1.285 . S
C296 H315 0.930 . S
C297 C300 1.424 . S
C297 C302 1.245 . S
C297 C303 1.428 . S
C298 C301 1.260 . S
C298 C302 1.477 . S
C298 H316 0.932 1_655 S
C299 C300 1.384 . S
C299 C301 1.479 . S
C299 H317 0.929 . S
C300 C297 1.424 . S
C300 C299 1.384 . S
C300 H318 0.928 . S
C301 C298 1.260 . S
C301 C299 1.479 . S
C302 C297 1.245 . S
C302 C298 1.477 . S
C302 H319 0.932 1_655 S
C303 U286 2.882 . S
C303 C297 1.428 . S
C303 O306 1.301 . S
C303 O307 1.282 . S
O304 U286 2.441 . S
O304 C290 1.249 . S
O305 U286 2.420 . S
O305 C290 1.202 . S
O306 U286 2.455 . S
O306 C303 1.301 . S
O307 U286 2.449 . S
O307 C303 1.282 . S
H308 C281 0.931 . S
H309 C283 0.929 . S
H310 C284 0.930 . S
H311 C285 0.931 . S
H312 C292 0.932 . S
H313 C293 0.930 . S
H314 C294 0.929 . S
H315 C296 0.930 . S
H316 C298 0.932 1_455 S
H317 C299 0.929 . S
H318 C300 0.928 . S
H319 C302 0.932 1_455 S
C320 C321 1.264 . S
C320 C325 1.479 . S
C320 C330 1.465 . S
C321 C320 1.264 . S
C321 C323 1.339 . S
C321 H348 0.931 . S
C322 C323 1.395 . S
C322 C324 1.320 . S
C323 C321 1.339 . S
C323 C322 1.395 . S
C323 H349 0.929 . S
C324 C322 1.320 . S
C324 C325 1.405 . S
C324 H350 0.930 . S
C325 C320 1.479 . S
C325 C324 1.405 . S
C325 H351 0.931 . S
U326 O327 2.454 . S
U326 O328 2.458 . S
U326 C329 2.984 . S
U326 C330 2.847 . S
U326 C343 2.882 . S
U326 O344 2.441 . S
U326 O345 2.420 . S
U326 O346 2.455 . S
U326 O347 2.449 . S
O327 U326 2.454 . S
O327 C329 1.353 . S
O328 U326 2.458 . S
O328 C329 1.286 . S
C329 U326 2.984 . S
C329 O327 1.353 . S
C329 O328 1.286 . S
C329 C331 1.363 . S
C330 C320 1.465 . S
C330 U326 2.847 . S
C330 O344 1.249 . S
C330 O345 1.202 . S
C331 C329 1.363 . S
C331 C333 1.408 . S
C331 C336 1.342 1_565 S
C332 C333 1.310 . S
C332 C335 1.461 1_565 S
C332 H352 0.932 . S
C333 C331 1.408 . S
C333 C332 1.310 . S
C333 H353 0.930 . S
C334 C335 1.474 . S
C334 C336 1.285 . S
C334 H354 0.929 . S
C335 C332 1.461 1_545 S
C335 C334 1.474 . S
C336 C331 1.342 1_545 S
C336 C334 1.285 . S
C336 H355 0.930 . S
C337 C340 1.424 . S
C337 C342 1.245 . S
C337 C343 1.428 . S
C338 C341 1.260 . S
C338 C342 1.477 . S
C338 H356 0.932 1_565 S
C339 C340 1.384 . S
C339 C341 1.479 . S
C339 H357 0.929 . S
C340 C337 1.424 . S
C340 C339 1.384 . S
C340 H358 0.928 . S
C341 C338 1.260 . S
C341 C339 1.479 . S
C342 C337 1.245 . S
C342 C338 1.477 . S
C342 H359 0.932 1_565 S
C343 U326 2.882 . S
C343 C337 1.428 . S
C343 O346 1.301 . S
C343 O347 1.282 . S
O344 U326 2.441 . S
O344 C330 1.249 . S
O345 U326 2.420 . S
O345 C330 1.202 . S
O346 U326 2.455 . S
O346 C343 1.301 . S
O347 U326 2.449 . S
O347 C343 1.282 . S
H348 C321 0.931 . S
H349 C323 0.929 . S
H350 C324 0.930 . S
H351 C325 0.931 . S
H352 C332 0.932 . S
H353 C333 0.930 . S
H354 C334 0.929 . S
H355 C336 0.930 . S
H356 C338 0.932 1_545 S
H357 C339 0.929 . S
H358 C340 0.928 . S
H359 C342 0.932 1_545 S
C360 C361 1.264 . S
C360 C365 1.479 . S
C360 C370 1.465 . S
C361 C360 1.264 . S
C361 C363 1.339 . S
C361 H388 0.931 . S
C362 C363 1.395 . S
C362 C364 1.320 . S
C363 C361 1.339 . S
C363 C362 1.395 . S
C363 H389 0.929 . S
C364 C362 1.320 . S
C364 C365 1.405 . S
C364 H390 0.930 . S
C365 C360 1.479 . S
C365 C364 1.405 . S
C365 H391 0.931 . S
U366 O367 2.454 . S
U366 O368 2.458 . S
U366 C369 2.984 . S
U366 C370 2.847 . S
U366 C383 2.882 . S
U366 O384 2.441 . S
U366 O385 2.420 . S
U366 O386 2.455 . S
U366 O387 2.449 . S
O367 U366 2.454 . S
O367 C369 1.353 . S
O368 U366 2.458 . S
O368 C369 1.286 . S
C369 U366 2.984 . S
C369 O367 1.353 . S
C369 O368 1.286 . S
C369 C371 1.363 . S
C370 C360 1.465 . S
C370 U366 2.847 . S
C370 O384 1.249 . S
C370 O385 1.202 . S
C371 C369 1.363 . S
C371 C373 1.408 . S
C371 C376 1.342 . S
C372 C373 1.310 . S
C372 C375 1.461 . S
C372 H392 0.932 . S
C373 C371 1.408 . S
C373 C372 1.310 . S
C373 H393 0.930 . S
C374 C375 1.474 . S
C374 C376 1.285 . S
C374 H394 0.929 . S
C375 C372 1.461 . S
C375 C374 1.474 . S
C376 C371 1.342 . S
C376 C374 1.285 . S
C376 H395 0.930 . S
C377 C380 1.424 . S
C377 C382 1.245 . S
C377 C383 1.428 . S
C378 C381 1.260 . S
C378 C382 1.477 . S
C378 H396 0.932 . S
C379 C380 1.384 . S
C379 C381 1.479 . S
C379 H397 0.929 . S
C380 C377 1.424 . S
C380 C379 1.384 . S
C380 H398 0.928 . S
C381 C378 1.260 . S
C381 C379 1.479 . S
C382 C377 1.245 . S
C382 C378 1.477 . S
C382 H399 0.932 . S
C383 U366 2.882 . S
C383 C377 1.428 . S
C383 O386 1.301 . S
C383 O387 1.282 . S
O384 U366 2.441 . S
O384 C370 1.249 . S
O385 U366 2.420 . S
O385 C370 1.202 . S
O386 U366 2.455 . S
O386 C383 1.301 . S
O387 U366 2.449 . S
O387 C383 1.282 . S
H388 C361 0.931 . S
H389 C363 0.929 . S
H390 C364 0.930 . S
H391 C365 0.931 . S
H392 C372 0.932 . S
H393 C373 0.930 . S
H394 C374 0.929 . S
H395 C376 0.930 . S
H396 C378 0.932 . S
H397 C379 0.929 . S
H398 C380 0.928 . S
H399 C382 0.932 . S
C400 C401 1.264 . S
C400 C405 1.479 . S
C400 C410 1.465 . S
C401 C400 1.264 . S
C401 C403 1.339 . S
C401 H428 0.931 . S
C402 C403 1.395 . S
C402 C404 1.320 . S
C403 C401 1.339 . S
C403 C402 1.395 . S
C403 H429 0.929 . S
C404 C402 1.320 . S
C404 C405 1.405 . S
C404 H430 0.930 . S
C405 C400 1.479 . S
C405 C404 1.405 . S
C405 H431 0.931 . S
U406 O407 2.454 . S
U406 O408 2.458 . S
U406 C409 2.984 . S
U406 C410 2.847 . S
U406 C423 2.882 . S
U406 O424 2.441 . S
U406 O425 2.420 . S
U406 O426 2.455 . S
U406 O427 2.449 . S
O407 U406 2.454 . S
O407 C409 1.353 . S
O408 U406 2.458 . S
O408 C409 1.286 . S
C409 U406 2.984 . S
C409 O407 1.353 . S
C409 O408 1.286 . S
C409 C411 1.363 . S
C410 C400 1.465 . S
C410 U406 2.847 . S
C410 O424 1.249 . S
C410 O425 1.202 . S
C411 C409 1.363 . S
C411 C413 1.408 . S
C411 C416 1.342 1_455 S
C412 C413 1.310 . S
C412 C415 1.461 1_455 S
C412 H432 0.932 . S
C413 C411 1.408 . S
C413 C412 1.310 . S
C413 H433 0.930 . S
C414 C415 1.474 . S
C414 C416 1.285 . S
C414 H434 0.929 . S
C415 C412 1.461 1_655 S
C415 C414 1.474 . S
C416 C411 1.342 1_655 S
C416 C414 1.285 . S
C416 H435 0.930 . S
C417 C420 1.424 . S
C417 C422 1.245 . S
C417 C423 1.428 . S
C418 C421 1.260 . S
C418 C422 1.477 . S
C418 H436 0.932 1_455 S
C419 C420 1.384 . S
C419 C421 1.479 . S
C419 H437 0.929 . S
C420 C417 1.424 . S
C420 C419 1.384 . S
C420 H438 0.928 . S
C421 C418 1.260 . S
C421 C419 1.479 . S
C422 C417 1.245 . S
C422 C418 1.477 . S
C422 H439 0.932 1_455 S
C423 U406 2.882 . S
C423 C417 1.428 . S
C423 O426 1.301 . S
C423 O427 1.282 . S
O424 U406 2.441 . S
O424 C410 1.249 . S
O425 U406 2.420 . S
O425 C410 1.202 . S
O426 U406 2.455 . S
O426 C423 1.301 . S
O427 U406 2.449 . S
O427 C423 1.282 . S
H428 C401 0.931 . S
H429 C403 0.929 . S
H430 C404 0.930 . S
H431 C405 0.931 . S
H432 C412 0.932 . S
H433 C413 0.930 . S
H434 C414 0.929 . S
H435 C416 0.930 . S
H436 C418 0.932 1_655 S
H437 C419 0.929 . S
H438 C420 0.928 . S
H439 C422 0.932 1_655 S
C440 C441 1.264 . S
C440 C445 1.479 . S
C440 C450 1.465 . S
C441 C440 1.264 . S
C441 C443 1.339 . S
C441 H468 0.931 . S
C442 C443 1.395 . S
C442 C444 1.320 . S
C443 C441 1.339 . S
C443 C442 1.395 . S
C443 H469 0.929 . S
C444 C442 1.320 . S
C444 C445 1.405 . S
C444 H470 0.930 . S
C445 C440 1.479 . S
C445 C444 1.405 . S
C445 H471 0.931 . S
U446 O447 2.454 . S
U446 O448 2.458 . S
U446 C449 2.984 . S
U446 C450 2.847 . S
U446 C463 2.882 . S
U446 O464 2.441 . S
U446 O465 2.420 . S
U446 O466 2.455 . S
U446 O467 2.449 . S
O447 U446 2.454 . S
O447 C449 1.353 . S
O448 U446 2.458 . S
O448 C449 1.286 . S
C449 U446 2.984 . S
C449 O447 1.353 . S
C449 O448 1.286 . S
C449 C451 1.363 . S
C450 C440 1.465 . S
C450 U446 2.847 . S
C450 O464 1.249 . S
C450 O465 1.202 . S
C451 C449 1.363 . S
C451 C453 1.408 . S
C451 C456 1.342 1_545 S
C452 C453 1.310 . S
C452 C455 1.461 1_545 S
C452 H472 0.932 . S
C453 C451 1.408 . S
C453 C452 1.310 . S
C453 H473 0.930 . S
C454 C455 1.474 . S
C454 C456 1.285 . S
C454 H474 0.929 . S
C455 C452 1.461 1_565 S
C455 C454 1.474 . S
C456 C451 1.342 1_565 S
C456 C454 1.285 . S
C456 H475 0.930 . S
C457 C460 1.424 . S
C457 C462 1.245 . S
C457 C463 1.428 . S
C458 C461 1.260 . S
C458 C462 1.477 . S
C458 H476 0.932 1_545 S
C459 C460 1.384 . S
C459 C461 1.479 . S
C459 H477 0.929 . S
C460 C457 1.424 . S
C460 C459 1.384 . S
C460 H478 0.928 . S
C461 C458 1.260 . S
C461 C459 1.479 . S
C462 C457 1.245 . S
C462 C458 1.477 . S
C462 H479 0.932 1_545 S
C463 U446 2.882 . S
C463 C457 1.428 . S
C463 O466 1.301 . S
C463 O467 1.282 . S
O464 U446 2.441 . S
O464 C450 1.249 . S
O465 U446 2.420 . S
O465 C450 1.202 . S
O466 U446 2.455 . S
O466 C463 1.301 . S
O467 U446 2.449 . S
O467 C463 1.282 . S
H468 C441 0.931 . S
H469 C443 0.929 . S
H470 C444 0.930 . S
H471 C445 0.931 . S
H472 C452 0.932 . S
H473 C453 0.930 . S
H474 C454 0.929 . S
H475 C456 0.930 . S
H476 C458 0.932 1_565 S
H477 C459 0.929 . S
H478 C460 0.928 . S
H479 C462 0.932 1_565 S
H480 C486 0.930 . S
H481 C490 0.930 . S
H482 C495 0.929 . S
H483 C493 0.929 . S
H484 C488 0.929 . S
H485 C494 0.929 . S
C486 H480 0.930 . S
C486 C487 1.367 . S
C486 C494 1.378 . S
C487 C486 1.367 . S
C487 C495 1.433 . S
C488 H484 0.929 . S
C488 C490 1.378 . S
C488 C492 1.350 . S
C489 C492 1.463 . S
C489 C494 1.350 . S
C489 N497 1.427 . S
C490 H481 0.930 . S
C490 C488 1.378 . S
C490 C491 1.367 . S
C491 C490 1.367 . S
C491 C493 1.433 . S
C492 C488 1.350 . S
C492 C489 1.463 . S
C492 N496 1.427 . S
C493 H483 0.929 . S
C493 C491 1.433 . S
C493 N496 1.384 . S
C494 H485 0.929 . S
C494 C486 1.378 . S
C494 C489 1.350 . S
C495 H482 0.929 . S
C495 C487 1.433 . S
C495 N497 1.384 . S
N496 C492 1.427 . S
N496 C493 1.384 . S
N497 C489 1.427 . S
N497 C495 1.384 . S
H498 C504 0.930 . S
H499 C508 0.930 . S
H500 C513 0.929 . S
H501 C511 0.929 . S
H502 C506 0.929 . S
H503 C512 0.929 . S
C504 H498 0.930 . S
C504 C505 1.367 . S
C504 C512 1.378 . S
C505 C504 1.367 . S
C505 C513 1.433 . S
C506 H502 0.929 . S
C506 C508 1.378 . S
C506 C510 1.350 . S
C507 C510 1.463 . S
C507 C512 1.350 . S
C507 N515 1.427 . S
C508 H499 0.930 . S
C508 C506 1.378 . S
C508 C509 1.367 . S
C509 C508 1.367 . S
C509 C511 1.433 . S
C510 C506 1.350 . S
C510 C507 1.463 . S
C510 N514 1.427 . S
C511 H501 0.929 . S
C511 C509 1.433 . S
C511 N514 1.384 . S
C512 H503 0.929 . S
C512 C504 1.378 . S
C512 C507 1.350 . S
C513 H500 0.929 . S
C513 C505 1.433 . S
C513 N515 1.384 . S
N514 C510 1.427 . S
N514 C511 1.384 . S
N515 C507 1.427 . S
N515 C513 1.384 . S
H516 C522 0.930 . S
H517 C526 0.930 . S
H518 C531 0.929 . S
H519 C529 0.929 . S
H520 C524 0.929 . S
H521 C530 0.929 . S
C522 H516 0.930 . S
C522 C523 1.367 . S
C522 C530 1.378 . S
C523 C522 1.367 . S
C523 C531 1.433 . S
C524 H520 0.929 . S
C524 C526 1.378 . S
C524 C528 1.350 . S
C525 C528 1.463 . S
C525 C530 1.350 . S
C525 N533 1.427 . S
C526 H517 0.930 . S
C526 C524 1.378 . S
C526 C527 1.367 . S
C527 C526 1.367 . S
C527 C529 1.433 . S
C528 C524 1.350 . S
C528 C525 1.463 . S
C528 N532 1.427 . S
C529 H519 0.929 . S
C529 C527 1.433 . S
C529 N532 1.384 . S
C530 H521 0.929 . S
C530 C522 1.378 . S
C530 C525 1.350 . S
C531 H518 0.929 . S
C531 C523 1.433 . S
C531 N533 1.384 . S
N532 C528 1.427 . S
N532 C529 1.384 . S
N533 C525 1.427 . S
N533 C531 1.384 . S
H534 C540 0.930 . S
H535 C544 0.930 . S
H536 C549 0.929 . S
H537 C547 0.929 . S
H538 C542 0.929 . S
H539 C548 0.929 . S
C540 H534 0.930 . S
C540 C541 1.367 . S
C540 C548 1.378 . S
C541 C540 1.367 . S
C541 C549 1.433 . S
C542 H538 0.929 . S
C542 C544 1.378 . S
C542 C546 1.350 . S
C543 C546 1.463 . S
C543 C548 1.350 . S
C543 N551 1.427 . S
C544 H535 0.930 . S
C544 C542 1.378 . S
C544 C545 1.367 . S
C545 C544 1.367 . S
C545 C547 1.433 . S
C546 C542 1.350 . S
C546 C543 1.463 . S
C546 N550 1.427 . S
C547 H537 0.929 . S
C547 C545 1.433 . S
C547 N550 1.384 . S
C548 H539 0.929 . S
C548 C540 1.378 . S
C548 C543 1.350 . S
C549 H536 0.929 . S
C549 C541 1.433 . S
C549 N551 1.384 . S
N550 C546 1.427 . S
N550 C547 1.384 . S
N551 C543 1.427 . S
N551 C549 1.384 . S
H552 C558 0.930 . S
H553 C562 0.930 . S
H554 C567 0.929 . S
H555 C565 0.929 . S
H556 C560 0.929 . S
H557 C566 0.929 . S
C558 H552 0.930 . S
C558 C559 1.367 . S
C558 C566 1.378 . S
C559 C558 1.367 . S
C559 C567 1.433 . S
C560 H556 0.929 . S
C560 C562 1.378 . S
C560 C564 1.350 . S
C561 C564 1.463 . S
C561 C566 1.350 . S
C561 N569 1.427 . S
C562 H553 0.930 . S
C562 C560 1.378 . S
C562 C563 1.367 . S
C563 C562 1.367 . S
C563 C565 1.433 . S
C564 C560 1.350 . S
C564 C561 1.463 . S
C564 N568 1.427 . S
C565 H555 0.929 . S
C565 C563 1.433 . S
C565 N568 1.384 . S
C566 H557 0.929 . S
C566 C558 1.378 . S
C566 C561 1.350 . S
C567 H554 0.929 . S
C567 C559 1.433 . S
C567 N569 1.384 . S
N568 C564 1.427 . S
N568 C565 1.384 . S
N569 C561 1.427 . S
N569 C567 1.384 . S
H570 C576 0.930 . S
H571 C580 0.930 . S
H572 C585 0.929 . S
H573 C583 0.929 . S
H574 C578 0.929 . S
H575 C584 0.929 . S
C576 H570 0.930 . S
C576 C577 1.367 . S
C576 C584 1.378 . S
C577 C576 1.367 . S
C577 C585 1.433 . S
C578 H574 0.929 . S
C578 C580 1.378 . S
C578 C582 1.350 . S
C579 C582 1.463 . S
C579 C584 1.350 . S
C579 N587 1.427 . S
C580 H571 0.930 . S
C580 C578 1.378 . S
C580 C581 1.367 . S
C581 C580 1.367 . S
C581 C583 1.433 . S
C582 C578 1.350 . S
C582 C579 1.463 . S
C582 N586 1.427 . S
C583 H573 0.929 . S
C583 C581 1.433 . S
C583 N586 1.384 . S
C584 H575 0.929 . S
C584 C576 1.378 . S
C584 C579 1.350 . S
C585 H572 0.929 . S
C585 C577 1.433 . S
C585 N587 1.384 . S
N586 C582 1.427 . S
N586 C583 1.384 . S
N587 C579 1.427 . S
N587 C585 1.384 . S
H588 C594 0.930 . S
H589 C598 0.930 . S
H590 C603 0.929 . S
H591 C601 0.929 . S
H592 C596 0.929 . S
H593 C602 0.929 . S
C594 H588 0.930 . S
C594 C595 1.367 . S
C594 C602 1.378 . S
C595 C594 1.367 . S
C595 C603 1.433 . S
C596 H592 0.929 . S
C596 C598 1.378 . S
C596 C600 1.350 . S
C597 C600 1.463 . S
C597 C602 1.350 . S
C597 N605 1.427 . S
C598 H589 0.930 . S
C598 C596 1.378 . S
C598 C599 1.367 . S
C599 C598 1.367 . S
C599 C601 1.433 . S
C600 C596 1.350 . S
C600 C597 1.463 . S
C600 N604 1.427 . S
C601 H591 0.929 . S
C601 C599 1.433 . S
C601 N604 1.384 . S
C602 H593 0.929 . S
C602 C594 1.378 . S
C602 C597 1.350 . S
C603 H590 0.929 . S
C603 C595 1.433 . S
C603 N605 1.384 . S
N604 C600 1.427 . S
N604 C601 1.384 . S
N605 C597 1.427 . S
N605 C603 1.384 . S
H606 C612 0.930 . S
H607 C616 0.938 . S
H608 C621 0.963 . S
H609 C619 0.929 . S
H610 C614 0.951 . S
H611 C620 0.929 . S
C612 H606 0.930 . S
C612 C613 1.367 . S
C612 C620 1.378 . S
C613 C612 1.367 . S
C613 C621 1.422 1_655 S
C614 H610 0.951 . S
C614 C616 1.378 . S
C614 C618 1.343 1_455 S
C615 C618 1.463 . S
C615 C620 1.350 . S
C615 N623 1.403 1_655 S
C616 H607 0.938 . S
C616 C614 1.378 . S
C616 C617 1.345 1_455 S
C617 C616 1.345 1_655 S
C617 C619 1.433 . S
C618 C614 1.343 1_655 S
C618 C615 1.463 . S
C618 N622 1.427 . S
C619 H609 0.929 . S
C619 C617 1.433 . S
C619 N622 1.384 . S
C620 H611 0.929 . S
C620 C612 1.378 . S
C620 C615 1.350 . S
C621 H608 0.963 . S
C621 C613 1.422 1_455 S
C621 N623 1.377 . S
N622 C618 1.427 . S
N622 C619 1.384 . S
N623 C615 1.403 1_455 S
N623 C621 1.377 . S
H624 C630 0.930 . S
H625 C634 0.930 . S
H626 C639 0.929 . S
H627 C637 0.929 . S
H628 C632 0.929 . S
H629 C638 0.929 . S
C630 H624 0.930 . S
C630 C631 1.367 1_545 S
C630 C638 1.378 . S
C631 C630 1.367 1_565 S
C631 C639 1.433 . S
C632 H628 0.929 . S
C632 C634 1.378 . S
C632 C636 1.350 . S
C633 C636 1.463 . S
C633 C638 1.350 1_565 S
C633 N641 1.427 . S
C634 H625 0.930 . S
C634 C632 1.378 . S
C634 C635 1.367 . S
C635 C634 1.367 . S
C635 C637 1.433 1_565 S
C636 C632 1.350 . S
C636 C633 1.463 . S
C636 N640 1.427 1_565 S
C637 H627 0.929 . S
C637 C635 1.433 1_545 S
C637 N640 1.384 . S
C638 H629 0.929 . S
C638 C630 1.378 . S
C638 C633 1.350 1_545 S
C639 H626 0.929 . S
C639 C631 1.433 . S
C639 N641 1.384 . S
N640 C636 1.427 1_545 S
N640 C637 1.384 . S
N641 C633 1.427 . S
N641 C639 1.384 . S
H642 C648 0.930 . S
H643 C652 0.930 . S
H644 C657 0.929 . S
H645 C655 0.929 . S
H646 C650 0.929 . S
H647 C656 0.929 . S
C648 H642 0.930 . S
C648 C649 1.367 . S
C648 C656 1.378 . S
C649 C648 1.367 . S
C649 C657 1.433 . S
C650 H646 0.929 . S
C650 C652 1.378 . S
C650 C654 1.350 . S
C651 C654 1.463 . S
C651 C656 1.350 . S
C651 N659 1.427 . S
C652 H643 0.930 . S
C652 C650 1.378 . S
C652 C653 1.367 . S
C653 C652 1.367 . S
C653 C655 1.433 . S
C654 C650 1.350 . S
C654 C651 1.463 . S
C654 N658 1.427 . S
C655 H645 0.929 . S
C655 C653 1.433 . S
C655 N658 1.384 . S
C656 H647 0.929 . S
C656 C648 1.378 . S
C656 C651 1.350 . S
C657 H644 0.929 . S
C657 C649 1.433 . S
C657 N659 1.384 . S
N658 C654 1.427 . S
N658 C655 1.384 . S
N659 C651 1.427 . S
N659 C657 1.384 . S
H660 C666 0.930 . S
H661 C670 0.930 . S
H662 C675 0.929 . S
H663 C673 0.929 . S
H664 C668 0.929 . S
H665 C674 0.929 . S
C666 H660 0.930 . S
C666 C667 1.367 . S
C666 C674 1.378 . S
C667 C666 1.367 . S
C667 C675 1.433 1_455 S
C668 H664 0.929 . S
C668 C670 1.378 . S
C668 C672 1.350 1_655 S
C669 C672 1.463 . S
C669 C674 1.350 . S
C669 N677 1.427 1_455 S
C670 H661 0.930 . S
C670 C668 1.378 . S
C670 C671 1.367 1_655 S
C671 C670 1.367 1_455 S
C671 C673 1.433 . S
C672 C668 1.350 1_455 S
C672 C669 1.463 . S
C672 N676 1.427 . S
C673 H663 0.929 . S
C673 C671 1.433 . S
C673 N676 1.384 . S
C674 H665 0.929 . S
C674 C666 1.378 . S
C674 C669 1.350 . S
C675 H662 0.929 . S
C675 C667 1.433 1_655 S
C675 N677 1.384 . S
N676 C672 1.427 . S
N676 C673 1.384 . S
N677 C669 1.427 1_655 S
N677 C675 1.384 . S
H678 C684 0.930 . S
H679 C688 0.930 . S
H680 C693 0.929 . S
H681 C691 0.929 . S
H682 C686 0.929 . S
H683 C692 0.929 . S
C684 H678 0.930 . S
C684 C685 1.367 1_565 S
C684 C692 1.378 . S
C685 C684 1.367 1_545 S
C685 C693 1.433 . S
C686 H682 0.929 . S
C686 C688 1.378 . S
C686 C690 1.350 . S
C687 C690 1.463 . S
C687 C692 1.350 1_545 S
C687 N695 1.427 . S
C688 H679 0.930 . S
C688 C686 1.378 . S
C688 C689 1.367 . S
C689 C688 1.367 . S
C689 C691 1.433 1_545 S
C690 C686 1.350 . S
C690 C687 1.463 . S
C690 N694 1.427 1_545 S
C691 H681 0.929 . S
C691 C689 1.433 1_565 S
C691 N694 1.384 . S
C692 H683 0.929 . S
C692 C684 1.378 . S
C692 C687 1.350 1_565 S
C693 H680 0.929 . S
C693 C685 1.433 . S
C693 N695 1.384 . S
N694 C690 1.427 1_565 S
N694 C691 1.384 . S
N695 C687 1.427 . S
N695 C693 1.384 . S
H696 C702 0.930 . S
H697 C706 0.930 . S
H698 C711 0.929 . S
H699 C709 0.929 . S
H700 C704 0.929 . S
H701 C710 0.929 . S
C702 H696 0.930 . S
C702 C703 1.367 . S
C702 C710 1.378 . S
C703 C702 1.367 . S
C703 C711 1.433 . S
C704 H700 0.929 . S
C704 C706 1.378 . S
C704 C708 1.350 . S
C705 C708 1.463 1_554 S
C705 C710 1.350 . S
C705 N713 1.427 . S
C706 H697 0.930 . S
C706 C704 1.378 . S
C706 C707 1.367 . S
C707 C706 1.367 . S
C707 C709 1.433 . S
C708 C704 1.350 . S
C708 C705 1.463 1_556 S
C708 N712 1.427 . S
C709 H699 0.929 . S
C709 C707 1.433 . S
C709 N712 1.384 . S
C710 H701 0.929 . S
C710 C702 1.378 . S
C710 C705 1.350 . S
C711 H698 0.929 . S
C711 C703 1.433 . S
C711 N713 1.384 . S
N712 C708 1.427 . S
N712 C709 1.384 . S
N713 C705 1.427 . S
N713 C711 1.384 . S
H714 C720 0.930 . S
H715 C724 0.930 . S
H716 C729 0.929 . S
H717 C727 0.929 . S
H718 C722 0.947 1_655 S
H719 C728 0.948 1_455 S
C720 H714 0.930 . S
C720 C721 1.367 . S
C720 C728 1.387 . S
C721 C720 1.367 . S
C721 C729 1.433 . S
C722 H718 0.947 1_455 S
C722 C724 1.387 . S
C722 C726 1.326 . S
C723 C726 1.463 1_655 S
C723 C728 1.325 . S
C723 N731 1.427 . S
C724 H715 0.930 . S
C724 C722 1.387 . S
C724 C725 1.367 . S
C725 C724 1.367 . S
C725 C727 1.433 . S
C726 C722 1.326 . S
C726 C723 1.463 1_455 S
C726 N730 1.427 . S
C727 H717 0.929 . S
C727 C725 1.433 . S
C727 N730 1.384 . S
C728 H719 0.948 1_655 S
C728 C720 1.387 . S
C728 C723 1.325 . S
C729 H716 0.929 . S
C729 C721 1.433 . S
C729 N731 1.384 . S
N730 C726 1.427 . S
N730 C727 1.384 . S
N731 C723 1.427 . S
N731 C729 1.384 . S
H732 C738 0.930 . S
H733 C742 0.930 . S
H734 C747 0.929 . S
H735 C745 0.929 . S
H736 C740 0.929 . S
H737 C746 0.929 . S
C738 H732 0.930 . S
C738 C739 1.367 1_545 S
C738 C746 1.378 . S
C739 C738 1.367 1_565 S
C739 C747 1.433 . S
C740 H736 0.929 . S
C740 C742 1.378 . S
C740 C744 1.350 1_565 S
C741 C744 1.463 1_566 S
C741 C746 1.350 1_565 S
C741 N749 1.427 . S
C742 H733 0.930 . S
C742 C740 1.378 . S
C742 C743 1.367 1_565 S
C743 C742 1.367 1_545 S
C743 C745 1.433 . S
C744 C740 1.350 1_545 S
C744 C741 1.463 1_544 S
C744 N748 1.427 . S
C745 H735 0.929 . S
C745 C743 1.433 . S
C745 N748 1.384 . S
C746 H737 0.929 . S
C746 C738 1.378 . S
C746 C741 1.350 1_545 S
C747 H734 0.929 . S
C747 C739 1.433 . S
C747 N749 1.384 . S
N748 C744 1.427 . S
N748 C745 1.384 . S
N749 C741 1.427 . S
N749 C747 1.384 . S
H750 C756 0.930 . S
H751 C760 0.930 . S
H752 C765 0.929 . S
H753 C763 0.929 . S
H754 C758 0.929 . S
H755 C764 0.929 . S
C756 H750 0.930 . S
C756 C757 1.367 . S
C756 C764 1.378 . S
C757 C756 1.367 . S
C757 C765 1.433 . S
C758 H754 0.929 . S
C758 C760 1.378 . S
C758 C762 1.350 . S
C759 C762 1.463 . S
C759 C764 1.350 . S
C759 N767 1.427 . S
C760 H751 0.930 . S
C760 C758 1.378 . S
C760 C761 1.367 . S
C761 C760 1.367 . S
C761 C763 1.433 . S
C762 C758 1.350 . S
C762 C759 1.463 . S
C762 N766 1.427 . S
C763 H753 0.929 . S
C763 C761 1.433 . S
C763 N766 1.384 . S
C764 H755 0.929 . S
C764 C756 1.378 . S
C764 C759 1.350 . S
C765 H752 0.929 . S
C765 C757 1.433 . S
C765 N767 1.384 . S
N766 C762 1.427 . S
N766 C763 1.384 . S
N767 C759 1.427 . S
N767 C765 1.384 . S
H768 C774 0.930 . S
H769 C778 0.930 . S
H770 C783 0.929 . S
H771 C781 0.929 . S
H772 C776 0.929 . S
H773 C782 0.929 . S
C774 H768 0.930 . S
C774 C775 1.367 1_455 S
C774 C782 1.378 . S
C775 C774 1.367 1_655 S
C775 C783 1.433 . S
C776 H772 0.929 . S
C776 C778 1.378 . S
C776 C780 1.350 1_655 S
C777 C780 1.463 1_654 S
C777 C782 1.350 1_655 S
C777 N785 1.427 . S
C778 H769 0.930 . S
C778 C776 1.378 . S
C778 C779 1.367 1_655 S
C779 C778 1.367 1_455 S
C779 C781 1.433 . S
C780 C776 1.350 1_455 S
C780 C777 1.463 1_456 S
C780 N784 1.427 . S
C781 H771 0.929 . S
C781 C779 1.433 . S
C781 N784 1.384 . S
C782 H773 0.929 . S
C782 C774 1.378 . S
C782 C777 1.350 1_455 S
C783 H770 0.929 . S
C783 C775 1.433 . S
C783 N785 1.384 . S
N784 C780 1.427 . S
N784 C781 1.384 . S
N785 C777 1.427 . S
N785 C783 1.384 . S
H786 C792 0.930 . S
H787 C796 0.930 . S
H788 C801 0.929 . S
H789 C799 0.929 . S
H790 C794 0.929 . S
H791 C800 0.929 . S
C792 H786 0.930 . S
C792 C793 1.367 1_565 S
C792 C800 1.378 . S
C793 C792 1.367 1_545 S
C793 C801 1.433 . S
C794 H790 0.929 . S
C794 C796 1.378 . S
C794 C798 1.350 1_545 S
C795 C798 1.463 1_545 S
C795 C800 1.350 1_545 S
C795 N803 1.427 . S
C796 H787 0.930 . S
C796 C794 1.378 . S
C796 C797 1.367 1_545 S
C797 C796 1.367 1_565 S
C797 C799 1.433 . S
C798 C794 1.350 1_565 S
C798 C795 1.463 1_565 S
C798 N802 1.427 . S
C799 H789 0.929 . S
C799 C797 1.433 . S
C799 N802 1.384 . S
C800 H791 0.929 . S
C800 C792 1.378 . S
C800 C795 1.350 1_565 S
C801 H788 0.929 . S
C801 C793 1.433 . S
C801 N803 1.384 . S
N802 C798 1.427 . S
N802 C799 1.384 . S
N803 C795 1.427 . S
N803 C801 1.384 . S
C487 C2 2.077 . S
C491 C402 2.077 . S
C505 C442 2.078 . S
C509 C42 2.078 . S
C523 C242 2.075 . S
C527 C82 2.075 . S
C541 C122 2.080 . S
C545 C282 2.080 . S
C559 C322 2.076 . S
C563 C162 2.076 . S
C577 C362 2.079 . S
C581 C202 2.079 . S
C595 C21 2.148 . S
C599 C261 2.148 . S
C613 C61 2.145 . S
C617 C301 2.145 . S
C631 C101 2.146 . S
C635 C341 2.145 . S
C649 C381 2.145 . S
C653 C141 2.145 . S
C667 C181 2.146 . S
C671 C421 2.146 . S
C685 C221 2.148 . S
C689 C461 2.148 . S
C703 C15 2.169 . S
C707 C375 2.167 . S
C721 C415 2.170 . S
C725 C55 2.173 . S
C739 C455 2.167 . S
C743 C95 2.168 . S
C757 C135 2.173 . S
C761 C255 2.170 . S
C775 C175 2.168 . S
C779 C295 2.167 . S
C793 C335 2.167 . S
C797 C215 2.168 . S
