# Generated by pormake.
# Topology unj, (4)-cn, num edge types: 1
# Building blocks:
#     Node 0, Type 0, BuildingBlock: KUFVIS_clean_sbu_0, # of connection points: 4
#     Node 1, Type 0, BuildingBlock: KUFVIS_clean_sbu_0, # of connection points: 4
#     Node 2, Type 0, BuildingBlock: KUFVIS_clean_sbu_0, # of connection points: 4
#     Node 3, Type 0, BuildingBlock: KUFVIS_clean_sbu_0, # of connection points: 4
#     Node 4, Type 0, BuildingBlock: KUFVIS_clean_sbu_0, # of connection points: 4
#     Node 5, Type 0, BuildingBlock: KUFVIS_clean_sbu_0, # of connection points: 4
#     Edge 6, Type (0, 0), BuildingBlock: XIVTED_clean_linker_0, # of connection points: 2
#     Edge 7, Type (0, 0), BuildingBlock: XIVTED_clean_linker_0, # of connection points: 2
#     Edge 8, Type (0, 0), BuildingBlock: XIVTED_clean_linker_0, # of connection points: 2
#     Edge 9, Type (0, 0), BuildingBlock: XIVTED_clean_linker_0, # of connection points: 2
#     Edge 10, Type (0, 0), BuildingBlock: XIVTED_clean_linker_0, # of connection points: 2
#     Edge 11, Type (0, 0), BuildingBlock: XIVTED_clean_linker_0, # of connection points: 2
#     Edge 12, Type (0, 0), BuildingBlock: XIVTED_clean_linker_0, # of connection points: 2
#     Edge 13, Type (0, 0), BuildingBlock: XIVTED_clean_linker_0, # of connection points: 2
#     Edge 14, Type (0, 0), BuildingBlock: XIVTED_clean_linker_0, # of connection points: 2
#     Edge 15, Type (0, 0), BuildingBlock: XIVTED_clean_linker_0, # of connection points: 2
#     Edge 16, Type (0, 0), BuildingBlock: XIVTED_clean_linker_0, # of connection points: 2
#     Edge 17, Type (0, 0), BuildingBlock: XIVTED_clean_linker_0, # of connection points: 2
# Relax obj value: 0.012
# Max RMSD: 0.052
# Mean RMSD: 0.052
data_MOF--net-unj--node1-KUFVIS_clean_sbu_0--edge1-XIVTED_clean_linker_0
_symmetry_space_group_name_H-M    P1
_symmetry_Int_Tables_number       1
_symmetry_cell_setting            triclinic
loop_
_symmetry_equiv_pos_as_xyz
'x, y, z'
_cell_length_a     33.298244
_cell_length_b     33.311899
_cell_length_c     35.482325
_cell_angle_alpha  90.021569
_cell_angle_beta   89.98605
_cell_angle_gamma 119.96527
loop_
_atom_site_label
_atom_site_type_symbol
_atom_site_fract_x
_atom_site_fract_y
_atom_site_fract_z
_atom_type_partial_charge
Mn0 Mn 0.50041 0.239 0.59802 0.0
Mn1 Mn 0.59059 0.22328 0.57685 0.0
C2 C 0.53799 0.22136 0.64483 0.0
C3 C 0.47167 0.28755 0.6158 0.0
C4 C 0.49054 0.15181 0.55978 0.0
O5 O 0.52084 0.26998 0.54636 0.0
O6 O 0.58207 0.25956 0.53659 0.0
C7 C 0.66635 0.32081 0.58237 0.0
N8 N 0.64701 0.27579 0.5935 0.0
C9 C 0.7103 0.2943 0.63595 0.0
C10 C 0.73101 0.34081 0.62478 0.0
C11 C 0.70888 0.35412 0.59794 0.0
C12 C 0.66795 0.26262 0.61937 0.0
H13 H 0.64941 0.33124 0.56183 0.0
C14 C 0.55554 0.2754 0.52688 0.0
O15 O 0.44541 0.24812 0.59924 0.0
O16 O 0.51462 0.29908 0.62115 0.0
N17 N 0.60281 0.18925 0.61415 0.0
C18 C 0.57694 0.14359 0.62348 0.0
C19 C 0.59359 0.12497 0.65074 0.0
C20 C 0.6367 0.15339 0.66799 0.0
C21 C 0.66284 0.2002 0.65775 0.0
C22 C 0.64464 0.21674 0.63019 0.0
H23 H 0.54377 0.12161 0.61035 0.0
O24 O 0.49577 0.21256 0.65 0.0
O25 O 0.5561 0.23918 0.61248 0.0
O26 O 0.47231 0.17438 0.57368 0.0
O27 O 0.5342 0.16718 0.55945 0.0
C28 C 0.70583 0.23129 0.6743 0.0
C29 C 0.7295 0.27832 0.66347 0.0
H30 H 0.76369 0.36666 0.63688 0.0
H31 H 0.72454 0.39 0.58932 0.0
H32 H 0.57317 0.08882 0.65854 0.0
H33 H 0.64922 0.13899 0.68926 0.0
H34 H 0.72065 0.21954 0.69584 0.0
H35 H 0.76214 0.30204 0.67685 0.0
Mn36 Mn 0.27251 0.49355 0.76456 0.0
Mn37 Mn 0.37806 0.58432 0.74375 0.0
C38 C 0.32749 0.53121 0.81153 0.0
C39 C 0.19505 0.46375 0.78223 0.0
C40 C 0.35041 0.48463 0.72627 0.0
O41 O 0.2618 0.51415 0.713 0.0
O42 O 0.33327 0.57563 0.70343 0.0
C43 C 0.35537 0.65947 0.74951 0.0
N44 N 0.38135 0.64041 0.76058 0.0
C45 C 0.42557 0.7036 0.80325 0.0
C46 C 0.39945 0.72402 0.79215 0.0
C47 C 0.36414 0.7018 0.76522 0.0
C48 C 0.41534 0.66144 0.78654 0.0
H49 H 0.3281 0.64246 0.72891 0.0
C50 C 0.29097 0.54899 0.69362 0.0
O51 O 0.20881 0.43808 0.76545 0.0
O52 O 0.22598 0.5068 0.78784 0.0
N53 N 0.42431 0.59673 0.78112 0.0
C54 C 0.44447 0.57114 0.79036 0.0
C55 C 0.47969 0.58791 0.81767 0.0
C56 C 0.49396 0.63086 0.83505 0.0
C57 C 0.47292 0.65672 0.8249 0.0
C58 C 0.43824 0.63841 0.79729 0.0
H59 H 0.43361 0.53809 0.77711 0.0
O60 O 0.29438 0.48884 0.81651 0.0
O61 O 0.32766 0.54941 0.77926 0.0
O62 O 0.30957 0.46615 0.74007 0.0
O63 O 0.37847 0.52831 0.72615 0.0
C64 C 0.4844 0.69953 0.84159 0.0
C65 C 0.46067 0.7229 0.83084 0.0
H66 H 0.40593 0.75654 0.80435 0.0
H67 H 0.34367 0.71723 0.75665 0.0
H68 H 0.49571 0.56771 0.8254 0.0
H69 H 0.52083 0.64347 0.85635 0.0
H70 H 0.51089 0.71443 0.86317 0.0
H71 H 0.46927 0.75541 0.84432 0.0
Mn72 Mn 0.7911 0.26654 0.93162 0.0
Mn73 Mn 0.80478 0.37173 0.91093 0.0
C74 C 0.80866 0.32156 0.97857 0.0
C75 C 0.7437 0.18908 0.94938 0.0
C76 C 0.87732 0.34478 0.89304 0.0
O77 O 0.75938 0.25552 0.88022 0.0
O78 O 0.76866 0.32672 0.87078 0.0
C79 C 0.70671 0.34817 0.91731 0.0
N80 N 0.75182 0.3746 0.92804 0.0
C81 C 0.73276 0.41895 0.97051 0.0
C82 C 0.68614 0.39238 0.95976 0.0
C83 C 0.67306 0.35677 0.93311 0.0
C84 C 0.76476 0.40886 0.95373 0.0
H85 H 0.69648 0.32069 0.89692 0.0
C86 C 0.75332 0.28451 0.86094 0.0
O87 O 0.78306 0.20285 0.93248 0.0
O88 O 0.73158 0.22001 0.95513 0.0
N89 N 0.83864 0.41834 0.94803 0.0
C90 C 0.88453 0.439 0.95689 0.0
C91 C 0.90303 0.47471 0.98379 0.0
C92 C 0.87427 0.48894 1.00112 0.0
C93 C 0.82722 0.46736 0.99135 0.0
C94 C 0.81081 0.43222 0.96415 0.0
H95 H 0.90679 0.42821 0.94366 0.0
O96 O 0.8181 0.28854 0.98341 0.0
O97 O 0.79013 0.32157 0.94649 0.0
O98 O 0.85539 0.30389 0.9068 0.0
O99 O 0.86127 0.37251 0.89309 0.0
C100 C 0.79579 0.47874 0.00806 0.0
C101 C 0.74857 0.45446 0.99773 0.0
H102 H 0.66003 0.39875 0.97201 0.0
H103 H 0.63711 0.33596 0.92481 0.0
H104 H 0.93936 0.49113 0.99124 0.0
H105 H 0.88858 0.5162 0.0221 0.0
H106 H 0.80742 0.50558 0.02934 0.0
H107 H 0.72461 0.46299 0.01124 0.0
Mn108 Mn 0.53554 0.78504 0.09807 0.0
Mn109 Mn 0.44423 0.79913 0.07736 0.0
C110 C 0.49824 0.80292 0.145 0.0
C111 C 0.56557 0.73763 0.11601 0.0
C112 C 0.54374 0.87126 0.05929 0.0
O113 O 0.51462 0.75311 0.04675 0.0
O114 O 0.45285 0.7627 0.03729 0.0
C115 C 0.36949 0.70128 0.08396 0.0
N116 N 0.38836 0.74643 0.0946 0.0
C117 C 0.3252 0.72781 0.13723 0.0
C118 C 0.30496 0.68115 0.12656 0.0
C119 C 0.32727 0.66783 0.09988 0.0
C120 C 0.36725 0.7596 0.12033 0.0
H121 H 0.38657 0.69085 0.06353 0.0
C122 C 0.47956 0.74711 0.02749 0.0
O123 O 0.59112 0.77685 0.09896 0.0
O124 O 0.52255 0.72561 0.12176 0.0
N125 N 0.43177 0.83328 0.11441 0.0
C126 C 0.45717 0.87916 0.1232 0.0
C127 C 0.44021 0.89788 0.15014 0.0
C128 C 0.39727 0.86935 0.16759 0.0
C129 C 0.37163 0.8223 0.15791 0.0
C130 C 0.39011 0.80566 0.13065 0.0
H131 H 0.49019 0.90125 0.10989 0.0
O132 O 0.54069 0.81227 0.14981 0.0
O133 O 0.47966 0.78436 0.11295 0.0
O134 O 0.56258 0.84922 0.07311 0.0
O135 O 0.5 0.8554 0.05937 0.0
C136 C 0.32888 0.79109 0.17474 0.0
C137 C 0.30575 0.74385 0.1645 0.0
H138 H 0.27252 0.65521 0.13892 0.0
H139 H 0.31198 0.63186 0.09164 0.0
H140 H 0.46026 0.9342 0.15752 0.0
H141 H 0.38452 0.88383 0.1886 0.0
H142 H 0.31386 0.8029 0.19607 0.0
H143 H 0.27331 0.72006 0.17811 0.0
Mn144 Mn 0.76215 0.52917 0.26413 0.0
Mn145 Mn 0.6568 0.43833 0.24289 0.0
C146 C 0.70705 0.4911 0.31089 0.0
C147 C 0.8395 0.55849 0.28204 0.0
C148 C 0.68405 0.53808 0.22614 0.0
O149 O 0.77313 0.50907 0.21247 0.0
O150 O 0.70169 0.4477 0.20243 0.0
C151 C 0.68008 0.36353 0.24784 0.0
N152 N 0.65386 0.38222 0.25919 0.0
C153 C 0.60991 0.31854 0.30147 0.0
C154 C 0.63627 0.29848 0.29007 0.0
C155 C 0.67157 0.32114 0.2632 0.0
C156 C 0.61988 0.36077 0.2851 0.0
H157 H 0.70735 0.38089 0.22729 0.0
C158 C 0.74401 0.47452 0.19281 0.0
O159 O 0.82604 0.58455 0.26552 0.0
O160 O 0.80836 0.51545 0.28726 0.0
N161 N 0.61042 0.42524 0.28031 0.0
C162 C 0.58999 0.45049 0.28985 0.0
C163 C 0.55473 0.43325 0.31715 0.0
C164 C 0.54072 0.39019 0.3342 0.0
C165 C 0.56204 0.36468 0.32373 0.0
C166 C 0.59672 0.38345 0.29615 0.0
H167 H 0.60067 0.48364 0.27687 0.0
O168 O 0.74009 0.53346 0.3161 0.0
O169 O 0.70703 0.47313 0.27852 0.0
O170 O 0.72501 0.5567 0.2398 0.0
O171 O 0.65616 0.49436 0.2259 0.0
C172 C 0.55083 0.32178 0.34009 0.0
C173 C 0.57481 0.29878 0.32903 0.0
H174 H 0.63 0.26592 0.302 0.0
H175 H 0.69223 0.306 0.2544 0.0
H176 H 0.5385 0.45318 0.32512 0.0
H177 H 0.51383 0.37722 0.3555 0.0
H178 H 0.52433 0.30654 0.36164 0.0
H179 H 0.56641 0.2662 0.34225 0.0
Mn180 Mn 0.24486 0.75665 0.43111 0.0
Mn181 Mn 0.22929 0.65098 0.40947 0.0
C182 C 0.22742 0.70128 0.47771 0.0
C183 C 0.29324 0.83383 0.44914 0.0
C184 C 0.15759 0.67943 0.39284 0.0
O185 O 0.27589 0.76751 0.37942 0.0
O186 O 0.26523 0.69587 0.36916 0.0
C187 C 0.32698 0.67297 0.41448 0.0
N188 N 0.28202 0.64718 0.42577 0.0
C189 C 0.30098 0.60253 0.46796 0.0
C190 C 0.34744 0.62844 0.45663 0.0
C191 C 0.36049 0.66387 0.42983 0.0
C192 C 0.26909 0.61307 0.45159 0.0
H193 H 0.33721 0.70034 0.394 0.0
C194 C 0.28107 0.73828 0.35967 0.0
O195 O 0.25378 0.82066 0.43261 0.0
O196 O 0.30491 0.80248 0.45431 0.0
N197 N 0.19555 0.60462 0.44676 0.0
C198 C 0.14991 0.58472 0.45627 0.0
C199 C 0.13153 0.54943 0.48351 0.0
C200 C 0.16017 0.53486 0.50055 0.0
C201 C 0.20696 0.55565 0.49011 0.0
C202 C 0.22325 0.59039 0.46258 0.0
H203 H 0.12776 0.59583 0.44331 0.0
O204 O 0.21846 0.73456 0.48305 0.0
O205 O 0.24523 0.70117 0.44529 0.0
O206 O 0.18021 0.7202 0.40676 0.0
O207 O 0.17299 0.65116 0.39243 0.0
C208 C 0.23826 0.54387 0.50646 0.0
C209 C 0.28525 0.56735 0.49545 0.0
H210 H 0.37345 0.62172 0.46856 0.0
H211 H 0.39633 0.68418 0.42109 0.0
H212 H 0.0954 0.53362 0.49146 0.0
H213 H 0.14597 0.50794 0.52181 0.0
H214 H 0.22671 0.51732 0.52798 0.0
H215 H 0.30914 0.55852 0.50867 0.0
H216 H 0.39749 0.11011 0.54204 0.0
H217 H 0.38172 0.87291 0.47577 0.0
H218 H 0.51416 0.08717 0.5391 0.0
H219 H 0.27227 0.90369 0.45492 0.0
H220 H 0.42912 0.95035 0.50203 0.0
H221 H 0.34921 0.0335 0.5135 0.0
C222 C 0.41297 0.08905 0.53552 0.0
C223 C 0.46007 0.10531 0.54304 0.0
C224 C 0.39482 0.94036 0.49158 0.0
C225 C 0.40497 0.01762 0.51043 0.0
C226 C 0.3677 0.89606 0.47657 0.0
C227 C 0.32294 0.88177 0.46309 0.0
C228 C 0.37704 0.97069 0.49358 0.0
C229 C 0.30665 0.91335 0.46487 0.0
C230 C 0.38542 0.0454 0.51908 0.0
C231 C 0.47816 0.0764 0.53379 0.0
N232 N 0.33359 0.95626 0.48005 0.0
N233 N 0.45062 0.03409 0.51815 0.0
H234 H 0.52103 0.37604 0.64239 0.0
H235 H 0.29939 0.39174 0.70827 0.0
H236 H 0.38088 0.2668 0.62126 0.0
H237 H 0.43879 0.50855 0.70557 0.0
H238 H 0.32794 0.34367 0.67967 0.0
H239 H 0.49094 0.42355 0.66849 0.0
C240 C 0.48387 0.36209 0.64309 0.0
C241 C 0.45344 0.31735 0.6296 0.0
C242 C 0.35217 0.37986 0.68531 0.0
C243 C 0.41858 0.37157 0.65988 0.0
C244 C 0.33595 0.4073 0.70179 0.0
C245 C 0.36667 0.45437 0.70941 0.0
C246 C 0.39951 0.39948 0.67672 0.0
C247 C 0.41367 0.47256 0.70019 0.0
C248 C 0.46668 0.38928 0.658 0.0
C249 C 0.40559 0.30116 0.63123 0.0
N250 N 0.42857 0.44511 0.68451 0.0
N251 N 0.3896 0.32815 0.64633 0.0
H252 H 0.94079 0.43358 0.87302 0.0
H253 H 0.12583 0.3726 0.78618 0.0
H254 H 0.92034 0.29493 0.87415 0.0
H255 H 0.15476 0.51156 0.81015 0.0
H256 H 0.04781 0.3424 0.81261 0.0
H257 H 1.01663 0.46148 0.8446 0.0
C258 C 0.95215 0.40886 0.86729 0.0
C259 C 0.9239 0.3617 0.87613 0.0
C260 C 0.07127 0.37948 0.81198 0.0
C261 C 1.01133 0.39377 0.84321 0.0
C262 C 0.11569 0.39676 0.79675 0.0
C263 C 0.14689 0.4447 0.79599 0.0
C264 C 0.05785 0.4104 0.82622 0.0
C265 C 0.13196 0.47436 0.81021 0.0
C266 C 0.99566 0.42494 0.85107 0.0
C267 C 0.9409 0.33158 0.86801 0.0
N268 N 0.08859 0.45675 0.82467 0.0
N269 N 0.98346 0.34809 0.8519 0.0
H270 H 0.51871 0.93489 0.03887 0.0
H271 H 0.76551 0.11968 0.95336 0.0
H272 H 0.63667 0.91396 0.04075 0.0
H273 H 0.65551 0.14889 0.97691 0.0
H274 H 0.71738 0.04156 0.97946 0.0
H275 H 0.56698 1.01071 0.01061 0.0
C276 C 0.5548 0.94613 0.03333 0.0
C277 C 0.57355 0.91777 0.04235 0.0
C278 C 0.70384 0.0651 0.97882 0.0
C279 C 0.62931 1.00518 0.00962 0.0
C280 C 0.73117 0.10959 0.96377 0.0
C281 C 0.71453 0.14089 0.963 0.0
C282 C 0.65942 0.05175 0.99283 0.0
C283 C 0.66985 0.12601 0.97701 0.0
C284 C 0.58242 0.98964 0.0172 0.0
C285 C 0.62071 0.93462 0.03446 0.0
N286 N 0.64392 0.0826 0.99127 0.0
N287 N 0.64694 0.97718 0.01845 0.0
H288 H 0.59519 0.51344 0.20683 0.0
H289 H 0.65677 0.75933 0.11978 0.0
H290 H 0.73425 0.63092 0.20734 0.0
H291 H 0.51776 0.64986 0.1443 0.0
H292 H 0.68692 0.71146 0.14623 0.0
H293 H 0.56749 0.56169 0.17873 0.0
C294 C 0.62005 0.54943 0.20105 0.0
C295 C 0.66726 0.56804 0.2096 0.0
C296 C 0.64984 0.69798 0.14573 0.0
C297 C 0.63542 0.62377 0.17703 0.0
C298 C 0.63259 0.72516 0.13048 0.0
C299 C 0.58465 0.70858 0.12985 0.0
C300 C 0.61888 0.65378 0.16011 0.0
C301 C 0.55496 0.66413 0.14425 0.0
C302 C 0.60408 0.57704 0.18501 0.0
C303 C 0.69756 0.61507 0.20143 0.0
N304 N 0.57253 0.63834 0.1587 0.0
N305 N 0.68115 0.64129 0.18547 0.0
H306 H 0.11577 0.73076 0.37525 0.0
H307 H 0.87902 0.50938 0.30832 0.0
H308 H 0.093 0.59129 0.37208 0.0
H309 H 0.90908 0.64943 0.28811 0.0
H310 H 0.95644 0.53955 0.33464 0.0
H311 H 0.03915 0.70246 0.34663 0.0
C312 C 0.09474 0.69425 0.36867 0.0
C313 C 0.11106 0.66344 0.37615 0.0
C314 C 0.94631 0.5638 0.32432 0.0
C315 C 0.02338 0.6309 0.34344 0.0
C316 C 0.90201 0.54655 0.30927 0.0
C317 C 0.88751 0.57692 0.29596 0.0
C318 C 0.97645 0.61189 0.32652 0.0
C319 C 0.91891 0.62478 0.29793 0.0
C320 C 0.05109 0.67818 0.35218 0.0
C321 C 0.0822 0.61651 0.36681 0.0
N322 N 0.96185 0.64083 0.31315 0.0
N323 N 0.03991 0.60177 0.35113 0.0
H324 H 0.54192 0.34849 0.50918 0.0
H325 H 0.71115 0.41585 0.33095 0.0
H326 H 0.60116 0.26816 0.46641 0.0
H327 H 0.65181 0.49921 0.36502 0.0
H328 H 0.67018 0.36211 0.38186 0.0
H329 H 0.57775 0.40295 0.4563 0.0
C330 C 0.56165 0.34184 0.48832 0.0
C331 C 0.56894 0.30399 0.49233 0.0
C332 C 0.66576 0.39197 0.37845 0.0
C333 C 0.61046 0.3662 0.43262 0.0
C334 C 0.68919 0.42263 0.34932 0.0
C335 C 0.68358 0.46101 0.34332 0.0
C336 C 0.63654 0.39976 0.40214 0.0
C337 C 0.6561 0.4693 0.36853 0.0
C338 C 0.58243 0.37312 0.45844 0.0
C339 C 0.59507 0.29716 0.46474 0.0
N340 N 0.63302 0.4385 0.39681 0.0
N341 N 0.61501 0.32802 0.43634 0.0
H342 H 0.30647 0.70446 0.49751 0.0
H343 H 0.20435 0.53572 0.67593 0.0
H344 H 0.16406 0.64635 0.53192 0.0
H345 H 0.34376 0.59426 0.63309 0.0
H346 H 0.18583 0.57165 0.62301 0.0
H347 H 0.319 0.66318 0.54831 0.0
C348 C 0.27773 0.6827 0.51592 0.0
C349 C 0.2339 0.67754 0.51005 0.0
C350 C 0.22028 0.57614 0.62514 0.0
C351 C 0.24784 0.63015 0.56878 0.0
C352 C 0.23072 0.55531 0.65505 0.0
C353 C 0.27578 0.56238 0.65905 0.0
C354 C 0.25522 0.60399 0.59928 0.0
C355 C 0.30874 0.58834 0.63142 0.0
C356 C 0.28484 0.6591 0.545 0.0
C357 C 0.19815 0.6503 0.53533 0.0
N358 N 0.29787 0.60832 0.603 0.0
N359 N 0.20575 0.62706 0.56356 0.0
H360 H 0.67978 0.198 0.84349 0.0
H361 H 0.61361 0.3003 0.66491 0.0
H362 H 0.76117 0.33702 0.80019 0.0
H363 H 0.52938 0.15784 0.69896 0.0
H364 H 0.66726 0.31267 0.7158 0.0
H365 H 0.62536 0.17952 0.79052 0.0
C366 C 0.68667 0.22427 0.82249 0.0
C367 C 0.72478 0.26923 0.82637 0.0
C368 C 0.63722 0.27852 0.7124 0.0
C369 C 0.66267 0.24874 0.76658 0.0
C370 C 0.60661 0.27153 0.68327 0.0
C371 C 0.56801 0.22773 0.67727 0.0
C372 C 0.62917 0.24146 0.73609 0.0
C373 C 0.55946 0.19191 0.70248 0.0
C374 C 0.65543 0.21386 0.79256 0.0
C375 C 0.73195 0.30208 0.79861 0.0
N376 N 0.59022 0.1994 0.73076 0.0
N377 N 0.70112 0.29126 0.77019 0.0
H378 H 0.32325 0.60626 0.83198 0.0
H379 H 0.49282 0.67367 0.01 0.0
H380 H 0.38274 0.52291 0.86558 0.0
H381 H 0.43403 0.75425 0.967 0.0
H382 H 0.4567 0.61897 0.95724 0.0
H383 H 0.36422 0.65986 0.88298 0.0
C384 C 0.34522 0.59944 0.85028 0.0
C385 C 0.35087 0.56111 0.84411 0.0
C386 C 0.45218 0.64891 0.95931 0.0
C387 C 0.39798 0.62224 0.90303 0.0
C388 C 0.47313 0.68032 0.98912 0.0
C389 C 0.46605 0.71831 0.99303 0.0
C390 C 0.4242 0.65585 0.93347 0.0
C391 C 0.43995 0.72515 0.96541 0.0
C392 C 0.36866 0.63002 0.87946 0.0
C393 C 0.3784 0.55279 0.86922 0.0
N394 N 0.41986 0.69417 0.9371 0.0
N395 N 0.40152 0.58353 0.89755 0.0
H396 H 0.87388 0.37652 0.03156 0.0
H397 H 0.69315 0.43596 0.13002 0.0
H398 H 0.73058 0.31939 1.00024 0.0
H399 H 0.82869 0.48214 0.1772 0.0
H400 H 0.7117 0.40077 0.07794 0.0
H401 H 0.86226 0.41973 0.08306 0.0
C402 C 0.84007 0.37305 0.03572 0.0
C403 C 0.80343 0.34578 0.01117 0.0
C404 C 0.73767 0.41872 0.09948 0.0
C405 C 0.78981 0.39412 0.06941 0.0
C406 C 0.72716 0.43915 0.12911 0.0
C407 C 0.7593 0.46167 0.15807 0.0
C408 C 0.78054 0.42016 0.09881 0.0
C409 C 0.80301 0.46514 0.15529 0.0
C410 C 0.83346 0.39766 0.06487 0.0
C411 C 0.76002 0.34129 0.01795 0.0
N412 N 0.81225 0.44403 0.12633 0.0
N413 N 0.75453 0.36547 0.04616 0.0
H414 H 0.26882 0.68737 0.29688 0.0
H415 H 0.50856 0.8681 0.1981 0.0
H416 H 0.35812 0.82288 0.34403 0.0
H417 H 0.42237 0.72491 0.16665 0.0
H418 H 0.45386 0.85645 0.24973 0.0
H419 H 0.3224 0.70592 0.24471 0.0
C420 C 0.29961 0.72137 0.29596 0.0
C421 C 0.30924 0.7535 0.32494 0.0
C422 C 0.44709 0.82769 0.23148 0.0
C423 C 0.37182 0.77475 0.26554 0.0
C424 C 0.47824 0.83431 0.20225 0.0
C425 C 0.46884 0.79771 0.17764 0.0
C426 C 0.40702 0.78405 0.23603 0.0
C427 C 0.42994 0.75432 0.18441 0.0
C428 C 0.33046 0.73188 0.26626 0.0
C429 C 0.34943 0.7972 0.32212 0.0
N430 N 0.40035 0.74882 0.2127 0.0
N431 N 0.3797 0.80645 0.29309 0.0
loop_
_geom_bond_atom_site_label_1
_geom_bond_atom_site_label_2
_geom_bond_distance
_geom_bond_site_symmetry_2
_ccdc_geom_bond_type
Mn0 O5 2.095 . S
Mn0 O15 2.162 . S
Mn0 O16 2.297 . S
Mn0 O24 2.385 . S
Mn0 O25 2.209 . S
Mn0 O26 2.094 . S
Mn1 O6 2.121 . S
Mn1 N8 2.257 . S
Mn1 N17 2.282 . S
Mn1 O25 2.215 . S
Mn1 O27 2.117 . S
C2 O24 1.234 . S
C2 O25 1.283 . S
C3 O15 1.281 . S
C3 O16 1.236 . S
C4 O26 1.240 . S
C4 O27 1.264 . S
O5 Mn0 2.095 . S
O5 C14 1.250 . S
O6 Mn1 2.121 . S
O6 C14 1.258 . S
C7 N8 1.326 . S
C7 C11 1.460 . S
C7 H13 0.929 . S
N8 Mn1 2.257 . S
N8 C7 1.326 . S
N8 C12 1.362 . S
C9 C10 1.258 . S
C9 C12 1.431 . S
C9 C29 1.449 . S
C10 C9 1.258 . S
C10 C11 1.477 . S
C10 H30 0.931 . S
C11 C7 1.460 . S
C11 C10 1.477 . S
C11 H31 0.930 . S
C12 N8 1.362 . S
C12 C9 1.431 . S
C12 C22 1.476 . S
H13 C7 0.929 . S
C14 O5 1.250 . S
C14 O6 1.258 . S
O15 Mn0 2.162 . S
O15 C3 1.281 . S
O16 Mn0 2.297 . S
O16 C3 1.236 . S
N17 Mn1 2.282 . S
N17 C18 1.328 . S
N17 C22 1.318 . S
C18 N17 1.328 . S
C18 C19 1.457 . S
C18 H23 0.929 . S
C19 C18 1.457 . S
C19 C20 1.291 . S
C19 H32 0.931 . S
C20 C19 1.291 . S
C20 C21 1.373 . S
C20 H33 0.929 . S
C21 C20 1.373 . S
C21 C22 1.396 . S
C21 C28 1.403 . S
C22 C12 1.476 . S
C22 N17 1.318 . S
C22 C21 1.396 . S
H23 C18 0.929 . S
O24 Mn0 2.385 . S
O24 C2 1.234 . S
O25 Mn0 2.209 . S
O25 Mn1 2.215 . S
O25 C2 1.283 . S
O26 Mn0 2.094 . S
O26 C4 1.240 . S
O27 Mn1 2.117 . S
O27 C4 1.264 . S
C28 C21 1.403 . S
C28 C29 1.399 . S
C28 H34 0.929 . S
C29 C9 1.449 . S
C29 C28 1.399 . S
C29 H35 0.930 . S
H30 C10 0.931 . S
H31 C11 0.930 . S
H32 C19 0.931 . S
H33 C20 0.929 . S
H34 C28 0.929 . S
H35 C29 0.930 . S
Mn36 O41 2.095 . S
Mn36 O51 2.162 . S
Mn36 O52 2.297 . S
Mn36 O60 2.385 . S
Mn36 O61 2.209 . S
Mn36 O62 2.094 . S
Mn37 O42 2.121 . S
Mn37 N44 2.257 . S
Mn37 N53 2.282 . S
Mn37 O61 2.215 . S
Mn37 O63 2.117 . S
C38 O60 1.234 . S
C38 O61 1.283 . S
C39 O51 1.281 . S
C39 O52 1.236 . S
C40 O62 1.240 . S
C40 O63 1.264 . S
O41 Mn36 2.095 . S
O41 C50 1.250 . S
O42 Mn37 2.121 . S
O42 C50 1.258 . S
C43 N44 1.326 . S
C43 C47 1.460 . S
C43 H49 0.929 . S
N44 Mn37 2.257 . S
N44 C43 1.326 . S
N44 C48 1.362 . S
C45 C46 1.258 . S
C45 C48 1.431 . S
C45 C65 1.449 . S
C46 C45 1.258 . S
C46 C47 1.477 . S
C46 H66 0.931 . S
C47 C43 1.460 . S
C47 C46 1.477 . S
C47 H67 0.930 . S
C48 N44 1.362 . S
C48 C45 1.431 . S
C48 C58 1.476 . S
H49 C43 0.929 . S
C50 O41 1.250 . S
C50 O42 1.258 . S
O51 Mn36 2.162 . S
O51 C39 1.281 . S
O52 Mn36 2.297 . S
O52 C39 1.236 . S
N53 Mn37 2.282 . S
N53 C54 1.328 . S
N53 C58 1.318 . S
C54 N53 1.328 . S
C54 C55 1.457 . S
C54 H59 0.929 . S
C55 C54 1.457 . S
C55 C56 1.291 . S
C55 H68 0.931 . S
C56 C55 1.291 . S
C56 C57 1.373 . S
C56 H69 0.929 . S
C57 C56 1.373 . S
C57 C58 1.396 . S
C57 C64 1.403 . S
C58 C48 1.476 . S
C58 N53 1.318 . S
C58 C57 1.396 . S
H59 C54 0.929 . S
O60 Mn36 2.385 . S
O60 C38 1.234 . S
O61 Mn36 2.209 . S
O61 Mn37 2.215 . S
O61 C38 1.283 . S
O62 Mn36 2.094 . S
O62 C40 1.240 . S
O63 Mn37 2.117 . S
O63 C40 1.264 . S
C64 C57 1.403 . S
C64 C65 1.399 . S
C64 H70 0.929 . S
C65 C45 1.449 . S
C65 C64 1.399 . S
C65 H71 0.930 . S
H66 C46 0.931 . S
H67 C47 0.930 . S
H68 C55 0.931 . S
H69 C56 0.929 . S
H70 C64 0.929 . S
H71 C65 0.930 . S
Mn72 O77 2.095 . S
Mn72 O87 2.162 . S
Mn72 O88 2.297 . S
Mn72 O96 2.385 . S
Mn72 O97 2.209 . S
Mn72 O98 2.094 . S
Mn73 O78 2.121 . S
Mn73 N80 2.257 . S
Mn73 N89 2.282 . S
Mn73 O97 2.215 . S
Mn73 O99 2.117 . S
C74 O96 1.234 . S
C74 O97 1.283 . S
C75 O87 1.281 . S
C75 O88 1.236 . S
C76 O98 1.240 . S
C76 O99 1.264 . S
O77 Mn72 2.095 . S
O77 C86 1.250 . S
O78 Mn73 2.121 . S
O78 C86 1.258 . S
C79 N80 1.326 . S
C79 C83 1.460 . S
C79 H85 0.929 . S
N80 Mn73 2.257 . S
N80 C79 1.326 . S
N80 C84 1.362 . S
C81 C82 1.258 . S
C81 C84 1.431 . S
C81 C101 1.449 . S
C82 C81 1.258 . S
C82 C83 1.477 . S
C82 H102 0.931 . S
C83 C79 1.460 . S
C83 C82 1.477 . S
C83 H103 0.930 . S
C84 N80 1.362 . S
C84 C81 1.431 . S
C84 C94 1.476 . S
H85 C79 0.929 . S
C86 O77 1.250 . S
C86 O78 1.258 . S
O87 Mn72 2.162 . S
O87 C75 1.281 . S
O88 Mn72 2.297 . S
O88 C75 1.236 . S
N89 Mn73 2.282 . S
N89 C90 1.328 . S
N89 C94 1.318 . S
C90 N89 1.328 . S
C90 C91 1.457 . S
C90 H95 0.929 . S
C91 C90 1.457 . S
C91 C92 1.291 . S
C91 H104 0.931 . S
C92 C91 1.291 . S
C92 C93 1.373 . S
C92 H105 0.929 1_556 S
C93 C92 1.373 . S
C93 C94 1.396 . S
C93 C100 1.403 . S
C94 C84 1.476 . S
C94 N89 1.318 . S
C94 C93 1.396 . S
H95 C90 0.929 . S
O96 Mn72 2.385 . S
O96 C74 1.234 . S
O97 Mn72 2.209 . S
O97 Mn73 2.215 . S
O97 C74 1.283 . S
O98 Mn72 2.094 . S
O98 C76 1.240 . S
O99 Mn73 2.117 . S
O99 C76 1.264 . S
C100 C93 1.403 . S
C100 C101 1.399 . S
C100 H106 0.929 1_556 S
C101 C81 1.449 . S
C101 C100 1.399 . S
C101 H107 0.930 . S
H102 C82 0.931 . S
H103 C83 0.930 . S
H104 C91 0.931 . S
H105 C92 0.929 1_554 S
H106 C100 0.929 1_554 S
H107 C101 0.930 . S
Mn108 O113 2.095 . S
Mn108 O123 2.162 . S
Mn108 O124 2.297 . S
Mn108 O132 2.385 . S
Mn108 O133 2.209 . S
Mn108 O134 2.094 . S
Mn109 O114 2.121 . S
Mn109 N116 2.257 . S
Mn109 N125 2.282 . S
Mn109 O133 2.215 . S
Mn109 O135 2.117 . S
C110 O132 1.234 . S
C110 O133 1.283 . S
C111 O123 1.281 . S
C111 O124 1.236 . S
C112 O134 1.240 . S
C112 O135 1.264 . S
O113 Mn108 2.095 . S
O113 C122 1.250 . S
O114 Mn109 2.121 . S
O114 C122 1.258 . S
C115 N116 1.326 . S
C115 C119 1.460 . S
C115 H121 0.929 . S
N116 Mn109 2.257 . S
N116 C115 1.326 . S
N116 C120 1.362 . S
C117 C118 1.258 . S
C117 C120 1.431 . S
C117 C137 1.449 . S
C118 C117 1.258 . S
C118 C119 1.477 . S
C118 H138 0.931 . S
C119 C115 1.460 . S
C119 C118 1.477 . S
C119 H139 0.930 . S
C120 N116 1.362 . S
C120 C117 1.431 . S
C120 C130 1.476 . S
H121 C115 0.929 . S
C122 O113 1.250 . S
C122 O114 1.258 . S
O123 Mn108 2.162 . S
O123 C111 1.281 . S
O124 Mn108 2.297 . S
O124 C111 1.236 . S
N125 Mn109 2.282 . S
N125 C126 1.328 . S
N125 C130 1.318 . S
C126 N125 1.328 . S
C126 C127 1.457 . S
C126 H131 0.929 . S
C127 C126 1.457 . S
C127 C128 1.291 . S
C127 H140 0.931 . S
C128 C127 1.291 . S
C128 C129 1.373 . S
C128 H141 0.929 . S
C129 C128 1.373 . S
C129 C130 1.396 . S
C129 C136 1.403 . S
C130 C120 1.476 . S
C130 N125 1.318 . S
C130 C129 1.396 . S
H131 C126 0.929 . S
O132 Mn108 2.385 . S
O132 C110 1.234 . S
O133 Mn108 2.209 . S
O133 Mn109 2.215 . S
O133 C110 1.283 . S
O134 Mn108 2.094 . S
O134 C112 1.240 . S
O135 Mn109 2.117 . S
O135 C112 1.264 . S
C136 C129 1.403 . S
C136 C137 1.399 . S
C136 H142 0.929 . S
C137 C117 1.449 . S
C137 C136 1.399 . S
C137 H143 0.930 . S
H138 C118 0.931 . S
H139 C119 0.930 . S
H140 C127 0.931 . S
H141 C128 0.929 . S
H142 C136 0.929 . S
H143 C137 0.930 . S
Mn144 O149 2.095 . S
Mn144 O159 2.162 . S
Mn144 O160 2.297 . S
Mn144 O168 2.385 . S
Mn144 O169 2.209 . S
Mn144 O170 2.094 . S
Mn145 O150 2.121 . S
Mn145 N152 2.257 . S
Mn145 N161 2.282 . S
Mn145 O169 2.215 . S
Mn145 O171 2.117 . S
C146 O168 1.234 . S
C146 O169 1.283 . S
C147 O159 1.281 . S
C147 O160 1.236 . S
C148 O170 1.240 . S
C148 O171 1.264 . S
O149 Mn144 2.095 . S
O149 C158 1.250 . S
O150 Mn145 2.121 . S
O150 C158 1.258 . S
C151 N152 1.326 . S
C151 C155 1.460 . S
C151 H157 0.929 . S
N152 Mn145 2.257 . S
N152 C151 1.326 . S
N152 C156 1.362 . S
C153 C154 1.258 . S
C153 C156 1.431 . S
C153 C173 1.449 . S
C154 C153 1.258 . S
C154 C155 1.477 . S
C154 H174 0.931 . S
C155 C151 1.460 . S
C155 C154 1.477 . S
C155 H175 0.930 . S
C156 N152 1.362 . S
C156 C153 1.431 . S
C156 C166 1.476 . S
H157 C151 0.929 . S
C158 O149 1.250 . S
C158 O150 1.258 . S
O159 Mn144 2.162 . S
O159 C147 1.281 . S
O160 Mn144 2.297 . S
O160 C147 1.236 . S
N161 Mn145 2.282 . S
N161 C162 1.328 . S
N161 C166 1.318 . S
C162 N161 1.328 . S
C162 C163 1.457 . S
C162 H167 0.929 . S
C163 C162 1.457 . S
C163 C164 1.291 . S
C163 H176 0.931 . S
C164 C163 1.291 . S
C164 C165 1.373 . S
C164 H177 0.929 . S
C165 C164 1.373 . S
C165 C166 1.396 . S
C165 C172 1.403 . S
C166 C156 1.476 . S
C166 N161 1.318 . S
C166 C165 1.396 . S
H167 C162 0.929 . S
O168 Mn144 2.385 . S
O168 C146 1.234 . S
O169 Mn144 2.209 . S
O169 Mn145 2.215 . S
O169 C146 1.283 . S
O170 Mn144 2.094 . S
O170 C148 1.240 . S
O171 Mn145 2.117 . S
O171 C148 1.264 . S
C172 C165 1.403 . S
C172 C173 1.399 . S
C172 H178 0.929 . S
C173 C153 1.449 . S
C173 C172 1.399 . S
C173 H179 0.930 . S
H174 C154 0.931 . S
H175 C155 0.930 . S
H176 C163 0.931 . S
H177 C164 0.929 . S
H178 C172 0.929 . S
H179 C173 0.930 . S
Mn180 O185 2.095 . S
Mn180 O195 2.162 . S
Mn180 O196 2.297 . S
Mn180 O204 2.385 . S
Mn180 O205 2.209 . S
Mn180 O206 2.094 . S
Mn181 O186 2.121 . S
Mn181 N188 2.257 . S
Mn181 N197 2.282 . S
Mn181 O205 2.215 . S
Mn181 O207 2.117 . S
C182 O204 1.234 . S
C182 O205 1.283 . S
C183 O195 1.281 . S
C183 O196 1.236 . S
C184 O206 1.240 . S
C184 O207 1.264 . S
O185 Mn180 2.095 . S
O185 C194 1.250 . S
O186 Mn181 2.121 . S
O186 C194 1.258 . S
C187 N188 1.326 . S
C187 C191 1.460 . S
C187 H193 0.929 . S
N188 Mn181 2.257 . S
N188 C187 1.326 . S
N188 C192 1.362 . S
C189 C190 1.258 . S
C189 C192 1.431 . S
C189 C209 1.449 . S
C190 C189 1.258 . S
C190 C191 1.477 . S
C190 H210 0.931 . S
C191 C187 1.460 . S
C191 C190 1.477 . S
C191 H211 0.930 . S
C192 N188 1.362 . S
C192 C189 1.431 . S
C192 C202 1.476 . S
H193 C187 0.929 . S
C194 O185 1.250 . S
C194 O186 1.258 . S
O195 Mn180 2.162 . S
O195 C183 1.281 . S
O196 Mn180 2.297 . S
O196 C183 1.236 . S
N197 Mn181 2.282 . S
N197 C198 1.328 . S
N197 C202 1.318 . S
C198 N197 1.328 . S
C198 C199 1.457 . S
C198 H203 0.929 . S
C199 C198 1.457 . S
C199 C200 1.291 . S
C199 H212 0.931 . S
C200 C199 1.291 . S
C200 C201 1.373 . S
C200 H213 0.929 . S
C201 C200 1.373 . S
C201 C202 1.396 . S
C201 C208 1.403 . S
C202 C192 1.476 . S
C202 N197 1.318 . S
C202 C201 1.396 . S
H203 C198 0.929 . S
O204 Mn180 2.385 . S
O204 C182 1.234 . S
O205 Mn180 2.209 . S
O205 Mn181 2.215 . S
O205 C182 1.283 . S
O206 Mn180 2.094 . S
O206 C184 1.240 . S
O207 Mn181 2.117 . S
O207 C184 1.264 . S
C208 C201 1.403 . S
C208 C209 1.399 . S
C208 H214 0.929 . S
C209 C189 1.449 . S
C209 C208 1.399 . S
C209 H215 0.930 . S
H210 C190 0.931 . S
H211 C191 0.930 . S
H212 C199 0.931 . S
H213 C200 0.929 . S
H214 C208 0.929 . S
H215 C209 0.930 . S
H216 C222 0.930 . S
H217 C226 0.930 . S
H218 C231 0.929 . S
H219 C229 0.929 . S
H220 C224 0.929 . S
H221 C230 0.929 . S
C222 H216 0.930 . S
C222 C223 1.367 . S
C222 C230 1.378 . S
C223 C222 1.367 . S
C223 C231 1.433 . S
C224 H220 0.929 . S
C224 C226 1.378 . S
C224 C228 1.350 . S
C225 C228 1.463 1_545 S
C225 C230 1.350 . S
C225 N233 1.427 . S
C226 H217 0.930 . S
C226 C224 1.378 . S
C226 C227 1.367 . S
C227 C226 1.367 . S
C227 C229 1.433 . S
C228 C224 1.350 . S
C228 C225 1.463 1_565 S
C228 N232 1.427 . S
C229 H219 0.929 . S
C229 C227 1.433 . S
C229 N232 1.384 . S
C230 H221 0.929 . S
C230 C222 1.378 . S
C230 C225 1.350 . S
C231 H218 0.929 . S
C231 C223 1.433 . S
C231 N233 1.384 . S
N232 C228 1.427 . S
N232 C229 1.384 . S
N233 C225 1.427 . S
N233 C231 1.384 . S
H234 C240 0.930 . S
H235 C244 0.930 . S
H236 C249 0.929 . S
H237 C247 0.929 . S
H238 C242 0.929 . S
H239 C248 0.929 . S
C240 H234 0.930 . S
C240 C241 1.367 . S
C240 C248 1.378 . S
C241 C240 1.367 . S
C241 C249 1.433 . S
C242 H238 0.929 . S
C242 C244 1.378 . S
C242 C246 1.350 . S
C243 C246 1.463 . S
C243 C248 1.350 . S
C243 N251 1.427 . S
C244 H235 0.930 . S
C244 C242 1.378 . S
C244 C245 1.367 . S
C245 C244 1.367 . S
C245 C247 1.433 . S
C246 C242 1.350 . S
C246 C243 1.463 . S
C246 N250 1.427 . S
C247 H237 0.929 . S
C247 C245 1.433 . S
C247 N250 1.384 . S
C248 H239 0.929 . S
C248 C240 1.378 . S
C248 C243 1.350 . S
C249 H236 0.929 . S
C249 C241 1.433 . S
C249 N251 1.384 . S
N250 C246 1.427 . S
N250 C247 1.384 . S
N251 C243 1.427 . S
N251 C249 1.384 . S
H252 C258 0.930 . S
H253 C262 0.930 . S
H254 C267 0.929 . S
H255 C265 0.929 . S
H256 C260 0.929 . S
H257 C266 0.929 . S
C258 H252 0.930 . S
C258 C259 1.367 . S
C258 C266 1.378 . S
C259 C258 1.367 . S
C259 C267 1.433 . S
C260 H256 0.929 . S
C260 C262 1.378 . S
C260 C264 1.350 . S
C261 C264 1.463 1_655 S
C261 C266 1.350 . S
C261 N269 1.427 . S
C262 H253 0.930 . S
C262 C260 1.378 . S
C262 C263 1.367 . S
C263 C262 1.367 . S
C263 C265 1.433 . S
C264 C260 1.350 . S
C264 C261 1.463 1_455 S
C264 N268 1.427 . S
C265 H255 0.929 . S
C265 C263 1.433 . S
C265 N268 1.384 . S
C266 H257 0.929 . S
C266 C258 1.378 . S
C266 C261 1.350 . S
C267 H254 0.929 . S
C267 C259 1.433 . S
C267 N269 1.384 . S
N268 C264 1.427 . S
N268 C265 1.384 . S
N269 C261 1.427 . S
N269 C267 1.384 . S
H270 C276 0.930 1_556 S
H271 C280 0.930 1_554 S
H272 C285 0.929 . S
H273 C283 0.929 . S
H274 C278 0.929 . S
H275 C284 0.929 . S
C276 H270 0.930 1_554 S
C276 C277 1.367 . S
C276 C284 1.378 1_554 S
C277 C276 1.367 . S
C277 C285 1.433 . S
C278 H274 0.929 . S
C278 C280 1.378 1_554 S
C278 C282 1.350 1_554 S
C279 C282 1.463 1_564 S
C279 C284 1.350 1_554 S
C279 N287 1.427 . S
C280 H271 0.930 1_556 S
C280 C278 1.378 1_556 S
C280 C281 1.367 . S
C281 C280 1.367 . S
C281 C283 1.433 . S
C282 C278 1.350 1_556 S
C282 C279 1.463 1_546 S
C282 N286 1.427 . S
C283 H273 0.929 . S
C283 C281 1.433 . S
C283 N286 1.384 . S
C284 H275 0.929 . S
C284 C276 1.378 1_556 S
C284 C279 1.350 1_556 S
C285 H272 0.929 . S
C285 C277 1.433 . S
C285 N287 1.384 . S
N286 C282 1.427 . S
N286 C283 1.384 . S
N287 C279 1.427 . S
N287 C285 1.384 . S
H288 C294 0.930 . S
H289 C298 0.930 . S
H290 C303 0.929 . S
H291 C301 0.929 . S
H292 C296 0.929 . S
H293 C302 0.929 . S
C294 H288 0.930 . S
C294 C295 1.367 . S
C294 C302 1.378 . S
C295 C294 1.367 . S
C295 C303 1.433 . S
C296 H292 0.929 . S
C296 C298 1.378 . S
C296 C300 1.350 . S
C297 C300 1.463 . S
C297 C302 1.350 . S
C297 N305 1.427 . S
C298 H289 0.930 . S
C298 C296 1.378 . S
C298 C299 1.367 . S
C299 C298 1.367 . S
C299 C301 1.433 . S
C300 C296 1.350 . S
C300 C297 1.463 . S
C300 N304 1.427 . S
C301 H291 0.929 . S
C301 C299 1.433 . S
C301 N304 1.384 . S
C302 H293 0.929 . S
C302 C294 1.378 . S
C302 C297 1.350 . S
C303 H290 0.929 . S
C303 C295 1.433 . S
C303 N305 1.384 . S
N304 C300 1.427 . S
N304 C301 1.384 . S
N305 C297 1.427 . S
N305 C303 1.384 . S
H306 C312 0.930 . S
H307 C316 0.930 . S
H308 C321 0.929 . S
H309 C319 0.929 . S
H310 C314 0.929 . S
H311 C320 0.929 . S
C312 H306 0.930 . S
C312 C313 1.367 . S
C312 C320 1.378 . S
C313 C312 1.367 . S
C313 C321 1.433 . S
C314 H310 0.929 . S
C314 C316 1.378 . S
C314 C318 1.350 . S
C315 C318 1.463 1_455 S
C315 C320 1.350 . S
C315 N323 1.427 . S
C316 H307 0.930 . S
C316 C314 1.378 . S
C316 C317 1.367 . S
C317 C316 1.367 . S
C317 C319 1.433 . S
C318 C314 1.350 . S
C318 C315 1.463 1_655 S
C318 N322 1.427 . S
C319 H309 0.929 . S
C319 C317 1.433 . S
C319 N322 1.384 . S
C320 H311 0.929 . S
C320 C312 1.378 . S
C320 C315 1.350 . S
C321 H308 0.929 . S
C321 C313 1.433 . S
C321 N323 1.384 . S
N322 C318 1.427 . S
N322 C319 1.384 . S
N323 C315 1.427 . S
N323 C321 1.384 . S
H324 C330 0.930 . S
H325 C334 0.930 . S
H326 C339 0.929 . S
H327 C337 0.929 . S
H328 C332 0.929 . S
H329 C338 0.929 . S
C330 H324 0.930 . S
C330 C331 1.367 . S
C330 C338 1.378 . S
C331 C330 1.367 . S
C331 C339 1.433 . S
C332 H328 0.929 . S
C332 C334 1.378 . S
C332 C336 1.350 . S
C333 C336 1.463 . S
C333 C338 1.350 . S
C333 N341 1.427 . S
C334 H325 0.930 . S
C334 C332 1.378 . S
C334 C335 1.367 . S
C335 C334 1.367 . S
C335 C337 1.433 . S
C336 C332 1.350 . S
C336 C333 1.463 . S
C336 N340 1.427 . S
C337 H327 0.929 . S
C337 C335 1.433 . S
C337 N340 1.384 . S
C338 H329 0.929 . S
C338 C330 1.378 . S
C338 C333 1.350 . S
C339 H326 0.929 . S
C339 C331 1.433 . S
C339 N341 1.384 . S
N340 C336 1.427 . S
N340 C337 1.384 . S
N341 C333 1.427 . S
N341 C339 1.384 . S
H342 C348 0.930 . S
H343 C352 0.930 . S
H344 C357 0.929 . S
H345 C355 0.929 . S
H346 C350 0.929 . S
H347 C356 0.929 . S
C348 H342 0.930 . S
C348 C349 1.367 . S
C348 C356 1.378 . S
C349 C348 1.367 . S
C349 C357 1.433 . S
C350 H346 0.929 . S
C350 C352 1.378 . S
C350 C354 1.350 . S
C351 C354 1.463 . S
C351 C356 1.350 . S
C351 N359 1.427 . S
C352 H343 0.930 . S
C352 C350 1.378 . S
C352 C353 1.367 . S
C353 C352 1.367 . S
C353 C355 1.433 . S
C354 C350 1.350 . S
C354 C351 1.463 . S
C354 N358 1.427 . S
C355 H345 0.929 . S
C355 C353 1.433 . S
C355 N358 1.384 . S
C356 H347 0.929 . S
C356 C348 1.378 . S
C356 C351 1.350 . S
C357 H344 0.929 . S
C357 C349 1.433 . S
C357 N359 1.384 . S
N358 C354 1.427 . S
N358 C355 1.384 . S
N359 C351 1.427 . S
N359 C357 1.384 . S
H360 C366 0.930 . S
H361 C370 0.930 . S
H362 C375 0.929 . S
H363 C373 0.929 . S
H364 C368 0.929 . S
H365 C374 0.929 . S
C366 H360 0.930 . S
C366 C367 1.367 . S
C366 C374 1.378 . S
C367 C366 1.367 . S
C367 C375 1.433 . S
C368 H364 0.929 . S
C368 C370 1.378 . S
C368 C372 1.350 . S
C369 C372 1.463 . S
C369 C374 1.350 . S
C369 N377 1.427 . S
C370 H361 0.930 . S
C370 C368 1.378 . S
C370 C371 1.367 . S
C371 C370 1.367 . S
C371 C373 1.433 . S
C372 C368 1.350 . S
C372 C369 1.463 . S
C372 N376 1.427 . S
C373 H363 0.929 . S
C373 C371 1.433 . S
C373 N376 1.384 . S
C374 H365 0.929 . S
C374 C366 1.378 . S
C374 C369 1.350 . S
C375 H362 0.929 . S
C375 C367 1.433 . S
C375 N377 1.384 . S
N376 C372 1.427 . S
N376 C373 1.384 . S
N377 C369 1.427 . S
N377 C375 1.384 . S
H378 C384 0.930 . S
H379 C388 0.930 . S
H380 C393 0.929 . S
H381 C391 0.929 . S
H382 C386 0.929 . S
H383 C392 0.929 . S
C384 H378 0.930 . S
C384 C385 1.367 . S
C384 C392 1.378 . S
C385 C384 1.367 . S
C385 C393 1.433 . S
C386 H382 0.929 . S
C386 C388 1.378 . S
C386 C390 1.350 . S
C387 C390 1.463 . S
C387 C392 1.350 . S
C387 N395 1.427 . S
C388 H379 0.930 . S
C388 C386 1.378 . S
C388 C389 1.367 . S
C389 C388 1.367 . S
C389 C391 1.433 . S
C390 C386 1.350 . S
C390 C387 1.463 . S
C390 N394 1.427 . S
C391 H381 0.929 . S
C391 C389 1.433 . S
C391 N394 1.384 . S
C392 H383 0.929 . S
C392 C384 1.378 . S
C392 C387 1.350 . S
C393 H380 0.929 . S
C393 C385 1.433 . S
C393 N395 1.384 . S
N394 C390 1.427 . S
N394 C391 1.384 . S
N395 C387 1.427 . S
N395 C393 1.384 . S
H396 C402 0.930 . S
H397 C406 0.930 . S
H398 C411 0.926 . S
H399 C409 0.929 . S
H400 C404 0.929 . S
H401 C410 0.929 . S
C402 H396 0.930 . S
C402 C403 1.367 . S
C402 C410 1.378 . S
C403 C402 1.367 . S
C403 C411 1.434 1_554 S
C404 H400 0.929 . S
C404 C406 1.378 . S
C404 C408 1.350 . S
C405 C408 1.463 . S
C405 C410 1.350 . S
C405 N413 1.427 . S
C406 H397 0.930 . S
C406 C404 1.378 . S
C406 C407 1.367 . S
C407 C406 1.367 . S
C407 C409 1.433 . S
C408 C404 1.350 . S
C408 C405 1.463 . S
C408 N412 1.427 . S
C409 H399 0.929 . S
C409 C407 1.433 . S
C409 N412 1.384 . S
C410 H401 0.929 . S
C410 C402 1.378 . S
C410 C405 1.350 . S
C411 H398 0.926 . S
C411 C403 1.434 1_556 S
C411 N413 1.386 1_556 S
N412 C408 1.427 . S
N412 C409 1.384 . S
N413 C405 1.427 . S
N413 C411 1.386 1_554 S
H414 C420 0.930 . S
H415 C424 0.930 . S
H416 C429 0.929 . S
H417 C427 0.929 . S
H418 C422 0.929 . S
H419 C428 0.929 . S
C420 H414 0.930 . S
C420 C421 1.367 . S
C420 C428 1.378 . S
C421 C420 1.367 . S
C421 C429 1.433 . S
C422 H418 0.929 . S
C422 C424 1.378 . S
C422 C426 1.350 . S
C423 C426 1.463 . S
C423 C428 1.350 . S
C423 N431 1.427 . S
C424 H415 0.930 . S
C424 C422 1.378 . S
C424 C425 1.367 . S
C425 C424 1.367 . S
C425 C427 1.433 . S
C426 C422 1.350 . S
C426 C423 1.463 . S
C426 N430 1.427 . S
C427 H417 0.929 . S
C427 C425 1.433 . S
C427 N430 1.384 . S
C428 H419 0.929 . S
C428 C420 1.378 . S
C428 C423 1.350 . S
C429 H416 0.929 . S
C429 C421 1.433 . S
C429 N431 1.384 . S
N430 C426 1.427 . S
N430 C427 1.384 . S
N431 C423 1.427 . S
N431 C429 1.384 . S
C223 C4 1.570 . S
C227 C183 1.573 . S
C241 C3 1.572 . S
C245 C40 1.569 . S
C259 C76 1.570 . S
C263 C39 1.572 . S
C277 C112 1.568 . S
C281 C75 1.572 . S
C295 C148 1.568 . S
C299 C111 1.571 . S
C313 C184 1.569 . S
C317 C147 1.573 . S
C331 C14 1.419 . S
C335 C146 1.465 . S
C349 C182 1.464 . S
C353 C50 1.420 . S
C367 C86 1.417 . S
C371 C2 1.465 . S
C385 C38 1.464 . S
C389 C122 1.419 1_556 S
C403 C74 1.461 1_554 S
C407 C158 1.410 . S
C421 C194 1.405 . S
C425 C110 1.461 . S
