# Generated by pormake.
# Topology umk, (4)-cn, num edge types: 1
# Building blocks:
#     Node 0, Type 0, BuildingBlock: NAHDIM_clean_sbu_0, # of connection points: 4
#     Node 1, Type 0, BuildingBlock: NAHDIM_clean_sbu_0, # of connection points: 4
#     Node 2, Type 0, BuildingBlock: NAHDIM_clean_sbu_0, # of connection points: 4
#     Node 3, Type 0, BuildingBlock: NAHDIM_clean_sbu_0, # of connection points: 4
#     Node 4, Type 0, BuildingBlock: NAHDIM_clean_sbu_0, # of connection points: 4
#     Node 5, Type 0, BuildingBlock: NAHDIM_clean_sbu_0, # of connection points: 4
#     Node 6, Type 0, BuildingBlock: NAHDIM_clean_sbu_0, # of connection points: 4
#     Node 7, Type 0, BuildingBlock: NAHDIM_clean_sbu_0, # of connection points: 4
#     Node 8, Type 0, BuildingBlock: NAHDIM_clean_sbu_0, # of connection points: 4
#     Node 9, Type 0, BuildingBlock: NAHDIM_clean_sbu_0, # of connection points: 4
#     Node 10, Type 0, BuildingBlock: NAHDIM_clean_sbu_0, # of connection points: 4
#     Node 11, Type 0, BuildingBlock: NAHDIM_clean_sbu_0, # of connection points: 4
#     Node 12, Type 0, BuildingBlock: NAHDIM_clean_sbu_0, # of connection points: 4
#     Node 13, Type 0, BuildingBlock: NAHDIM_clean_sbu_0, # of connection points: 4
#     Node 14, Type 0, BuildingBlock: NAHDIM_clean_sbu_0, # of connection points: 4
#     Node 15, Type 0, BuildingBlock: NAHDIM_clean_sbu_0, # of connection points: 4
#     Node 16, Type 0, BuildingBlock: NAHDIM_clean_sbu_0, # of connection points: 4
#     Node 17, Type 0, BuildingBlock: NAHDIM_clean_sbu_0, # of connection points: 4
#     Node 18, Type 0, BuildingBlock: NAHDIM_clean_sbu_0, # of connection points: 4
#     Node 19, Type 0, BuildingBlock: NAHDIM_clean_sbu_0, # of connection points: 4
#     Node 20, Type 0, BuildingBlock: NAHDIM_clean_sbu_0, # of connection points: 4
#     Node 21, Type 0, BuildingBlock: NAHDIM_clean_sbu_0, # of connection points: 4
#     Node 22, Type 0, BuildingBlock: NAHDIM_clean_sbu_0, # of connection points: 4
#     Node 23, Type 0, BuildingBlock: NAHDIM_clean_sbu_0, # of connection points: 4
#     Edge 24, Type (0, 0), BuildingBlock: EZIPEK_clean_linker_0, # of connection points: 2
#     Edge 25, Type (0, 0), BuildingBlock: EZIPEK_clean_linker_0, # of connection points: 2
#     Edge 26, Type (0, 0), BuildingBlock: EZIPEK_clean_linker_0, # of connection points: 2
#     Edge 27, Type (0, 0), BuildingBlock: EZIPEK_clean_linker_0, # of connection points: 2
#     Edge 28, Type (0, 0), BuildingBlock: EZIPEK_clean_linker_0, # of connection points: 2
#     Edge 29, Type (0, 0), BuildingBlock: EZIPEK_clean_linker_0, # of connection points: 2
#     Edge 30, Type (0, 0), BuildingBlock: EZIPEK_clean_linker_0, # of connection points: 2
#     Edge 31, Type (0, 0), BuildingBlock: EZIPEK_clean_linker_0, # of connection points: 2
#     Edge 32, Type (0, 0), BuildingBlock: EZIPEK_clean_linker_0, # of connection points: 2
#     Edge 33, Type (0, 0), BuildingBlock: EZIPEK_clean_linker_0, # of connection points: 2
#     Edge 34, Type (0, 0), BuildingBlock: EZIPEK_clean_linker_0, # of connection points: 2
#     Edge 35, Type (0, 0), BuildingBlock: EZIPEK_clean_linker_0, # of connection points: 2
#     Edge 36, Type (0, 0), BuildingBlock: EZIPEK_clean_linker_0, # of connection points: 2
#     Edge 37, Type (0, 0), BuildingBlock: EZIPEK_clean_linker_0, # of connection points: 2
#     Edge 38, Type (0, 0), BuildingBlock: EZIPEK_clean_linker_0, # of connection points: 2
#     Edge 39, Type (0, 0), BuildingBlock: EZIPEK_clean_linker_0, # of connection points: 2
#     Edge 40, Type (0, 0), BuildingBlock: EZIPEK_clean_linker_0, # of connection points: 2
#     Edge 41, Type (0, 0), BuildingBlock: EZIPEK_clean_linker_0, # of connection points: 2
#     Edge 42, Type (0, 0), BuildingBlock: EZIPEK_clean_linker_0, # of connection points: 2
#     Edge 43, Type (0, 0), BuildingBlock: EZIPEK_clean_linker_0, # of connection points: 2
#     Edge 44, Type (0, 0), BuildingBlock: EZIPEK_clean_linker_0, # of connection points: 2
#     Edge 45, Type (0, 0), BuildingBlock: EZIPEK_clean_linker_0, # of connection points: 2
#     Edge 46, Type (0, 0), BuildingBlock: EZIPEK_clean_linker_0, # of connection points: 2
#     Edge 47, Type (0, 0), BuildingBlock: EZIPEK_clean_linker_0, # of connection points: 2
#     Edge 48, Type (0, 0), BuildingBlock: EZIPEK_clean_linker_0, # of connection points: 2
#     Edge 49, Type (0, 0), BuildingBlock: EZIPEK_clean_linker_0, # of connection points: 2
#     Edge 50, Type (0, 0), BuildingBlock: EZIPEK_clean_linker_0, # of connection points: 2
#     Edge 51, Type (0, 0), BuildingBlock: EZIPEK_clean_linker_0, # of connection points: 2
#     Edge 52, Type (0, 0), BuildingBlock: EZIPEK_clean_linker_0, # of connection points: 2
#     Edge 53, Type (0, 0), BuildingBlock: EZIPEK_clean_linker_0, # of connection points: 2
#     Edge 54, Type (0, 0), BuildingBlock: EZIPEK_clean_linker_0, # of connection points: 2
#     Edge 55, Type (0, 0), BuildingBlock: EZIPEK_clean_linker_0, # of connection points: 2
#     Edge 56, Type (0, 0), BuildingBlock: EZIPEK_clean_linker_0, # of connection points: 2
#     Edge 57, Type (0, 0), BuildingBlock: EZIPEK_clean_linker_0, # of connection points: 2
#     Edge 58, Type (0, 0), BuildingBlock: EZIPEK_clean_linker_0, # of connection points: 2
#     Edge 59, Type (0, 0), BuildingBlock: EZIPEK_clean_linker_0, # of connection points: 2
#     Edge 60, Type (0, 0), BuildingBlock: EZIPEK_clean_linker_0, # of connection points: 2
#     Edge 61, Type (0, 0), BuildingBlock: EZIPEK_clean_linker_0, # of connection points: 2
#     Edge 62, Type (0, 0), BuildingBlock: EZIPEK_clean_linker_0, # of connection points: 2
#     Edge 63, Type (0, 0), BuildingBlock: EZIPEK_clean_linker_0, # of connection points: 2
#     Edge 64, Type (0, 0), BuildingBlock: EZIPEK_clean_linker_0, # of connection points: 2
#     Edge 65, Type (0, 0), BuildingBlock: EZIPEK_clean_linker_0, # of connection points: 2
#     Edge 66, Type (0, 0), BuildingBlock: EZIPEK_clean_linker_0, # of connection points: 2
#     Edge 67, Type (0, 0), BuildingBlock: EZIPEK_clean_linker_0, # of connection points: 2
#     Edge 68, Type (0, 0), BuildingBlock: EZIPEK_clean_linker_0, # of connection points: 2
#     Edge 69, Type (0, 0), BuildingBlock: EZIPEK_clean_linker_0, # of connection points: 2
#     Edge 70, Type (0, 0), BuildingBlock: EZIPEK_clean_linker_0, # of connection points: 2
#     Edge 71, Type (0, 0), BuildingBlock: EZIPEK_clean_linker_0, # of connection points: 2
# Relax obj value: 0.113
# Max RMSD: 0.134
# Mean RMSD: 0.134
data_MOF--net-umk--node1-NAHDIM_clean_sbu_0--edge1-EZIPEK_clean_linker_0
_symmetry_space_group_name_H-M    P1
_symmetry_Int_Tables_number       1
_symmetry_cell_setting            triclinic
loop_
_symmetry_equiv_pos_as_xyz
'x, y, z'
_cell_length_a     49.385824
_cell_length_b     49.286751
_cell_length_c     30.739709
_cell_angle_alpha  89.989123
_cell_angle_beta   90.005951
_cell_angle_gamma 120.00541
loop_
_atom_site_label
_atom_site_type_symbol
_atom_site_fract_x
_atom_site_fract_y
_atom_site_fract_z
_atom_type_partial_charge
C0 C 0.27792 0.45889 0.02172 0.0
O1 O 0.29772 0.48784 0.03336 0.0
O2 O 0.31966 0.4606 0.12377 0.0
Zn3 Zn 0.32393 0.4498 0.06208 0.0
O4 O 0.36005 0.48769 0.03386 0.0
C5 C 0.31392 0.38738 0.07887 0.0
O6 O 0.28617 0.38104 0.09257 0.0
O7 O 0.28413 0.43737 0.02996 0.0
C8 C 0.38688 0.49015 0.03147 0.0
O9 O 0.39113 0.46774 0.04707 0.0
C10 C 0.34064 0.46357 0.15035 0.0
O11 O 0.36399 0.46027 0.13657 0.0
O12 O 0.33279 0.41424 0.06347 0.0
C13 C 0.7978 0.28401 0.55571 0.0
O14 O 0.79001 0.30177 0.57804 0.0
O15 O 0.85416 0.33285 0.64198 0.0
Zn16 Zn 0.85944 0.33273 0.57683 0.0
O17 O 0.85703 0.3683 0.54836 0.0
C18 C 0.92385 0.35164 0.59073 0.0
O19 O 0.9178 0.35837 0.62956 0.0
O20 O 0.82643 0.29218 0.55119 0.0
C21 C 0.87766 0.39636 0.55715 0.0
O22 O 0.89902 0.40183 0.58664 0.0
C23 C 0.8381 0.34282 0.66128 0.0
O24 O 0.82316 0.35388 0.63875 0.0
O25 O 0.90202 0.3388 0.56288 0.0
C26 C 0.54539 0.82457 0.02053 0.0
O27 O 0.51627 0.81842 0.02055 0.0
O28 O 0.54701 0.87276 0.12763 0.0
Zn29 Zn 0.55411 0.87974 0.06316 0.0
O30 O 0.51385 0.87266 0.03676 0.0
C31 C 0.6094 0.93904 0.0793 0.0
O32 O 0.6129 0.92355 0.11151 0.0
O33 O 0.56662 0.85008 0.03692 0.0
C34 C 0.50425 0.89151 0.04614 0.0
O35 O 0.52104 0.91548 0.0718 0.0
C36 C 0.52804 0.84614 0.14368 0.0
O37 O 0.5131 0.82174 0.11805 0.0
O38 O 0.58666 0.92486 0.05314 0.0
C39 C 0.72494 0.55264 0.56523 0.0
O40 O 0.72508 0.56032 0.60616 0.0
O41 O 0.65802 0.52963 0.63188 0.0
Zn42 Zn 0.65973 0.53608 0.56684 0.0
O43 O 0.62489 0.49805 0.5379 0.0
C44 C 0.67428 0.6008 0.56578 0.0
O45 O 0.70113 0.60678 0.58267 0.0
O46 O 0.70027 0.54273 0.54261 0.0
C47 C 0.59661 0.49118 0.54245 0.0
O48 O 0.58979 0.50874 0.56699 0.0
C49 C 0.64236 0.53817 0.65525 0.0
O50 O 0.62667 0.55011 0.63687 0.0
O51 O 0.65432 0.57304 0.55465 0.0
C52 C 0.18888 0.71514 0.04152 0.0
O53 O 0.1922 0.69709 0.06991 0.0
O54 O 0.13337 0.67849 0.12715 0.0
Zn55 Zn 0.12607 0.67382 0.06205 0.0
O56 O 0.12599 0.63539 0.03905 0.0
C57 C 0.06194 0.65718 0.07217 0.0
O58 O 0.06582 0.64589 0.10875 0.0
O59 O 0.16173 0.71039 0.03267 0.0
C60 C 0.10144 0.60871 0.03608 0.0
O61 O 0.07451 0.60487 0.04942 0.0
C62 C 0.12271 0.65495 0.15241 0.0
O63 O 0.10819 0.6266 0.13586 0.0
O64 O 0.08499 0.67157 0.04651 0.0
C65 C 0.46308 0.17374 0.55084 0.0
O66 O 0.48839 0.18203 0.57397 0.0
O67 O 0.45748 0.12901 0.64774 0.0
Zn68 Zn 0.44892 0.11529 0.58526 0.0
O69 O 0.48557 0.11351 0.56079 0.0
C70 C 0.38733 0.06217 0.56194 0.0
O71 O 0.38269 0.08203 0.53915 0.0
O72 O 0.44142 0.14529 0.55043 0.0
C73 C 0.48662 0.10773 0.52081 0.0
O74 O 0.46368 0.10326 0.49476 0.0
C75 C 0.48492 0.14211 0.66354 0.0
O76 O 0.50882 0.14789 0.63863 0.0
O77 O 0.41244 0.07164 0.58337 0.0
C78 C 0.56116 0.72654 0.94417 0.0
O79 O 0.57474 0.72872 0.90657 0.0
O80 O 0.53788 0.6643 0.86985 0.0
Zn81 Zn 0.54013 0.66063 0.93491 0.0
O82 O 0.49963 0.6243 0.95683 0.0
C83 C 0.60335 0.6696 0.93697 0.0
O84 O 0.61199 0.69679 0.91863 0.0
O85 O 0.54626 0.70014 0.96309 0.0
C86 C 0.49601 0.59693 0.95907 0.0
O87 O 0.5187 0.59205 0.94692 0.0
C88 C 0.54118 0.64533 0.84552 0.0
O89 O 0.54463 0.62295 0.86305 0.0
O90 O 0.57507 0.65202 0.94833 0.0
C91 C 0.82166 0.54274 0.47546 0.0
O92 O 0.81274 0.51399 0.46298 0.0
O93 O 0.86308 0.54327 0.37227 0.0
Zn94 Zn 0.87613 0.55127 0.43532 0.0
O95 O 0.87016 0.51179 0.46378 0.0
C96 C 0.93168 0.61168 0.42275 0.0
O97 O 0.91231 0.61904 0.40406 0.0
O98 O 0.84923 0.56454 0.4671 0.0
C99 C 0.89141 0.50444 0.46428 0.0
O100 O 0.91818 0.52242 0.44472 0.0
C101 C 0.88088 0.54054 0.34498 0.0
O102 O 0.90685 0.54207 0.35833 0.0
O103 O 0.92141 0.58462 0.43912 0.0
C104 C 0.29744 0.80993 0.95085 0.0
O105 O 0.31499 0.80216 0.92798 0.0
O106 O 0.33691 0.86381 0.85618 0.0
Zn107 Zn 0.34171 0.87107 0.92071 0.0
O108 O 0.3806 0.87161 0.94104 0.0
C109 C 0.36887 0.93529 0.90947 0.0
O110 O 0.38373 0.92825 0.88017 0.0
O111 O 0.30421 0.83836 0.95264 0.0
C112 C 0.38769 0.87594 0.9811 0.0
O113 O 0.36908 0.87891 0.00875 0.0
C114 C 0.34828 0.84926 0.83618 0.0
O115 O 0.36237 0.83694 0.85798 0.0
O116 O 0.34768 0.91365 0.93233 0.0
C117 C 0.46164 0.27426 0.45743 0.0
O118 O 0.48593 0.29117 0.43246 0.0
O119 O 0.4535 0.32149 0.37059 0.0
Zn120 Zn 0.44876 0.32244 0.43569 0.0
O121 O 0.48775 0.3578 0.46213 0.0
C122 C 0.40548 0.3437 0.42103 0.0
O123 O 0.41755 0.3482 0.38188 0.0
O124 O 0.44127 0.28244 0.4631 0.0
C125 C 0.49537 0.386 0.45399 0.0
O126 O 0.4786 0.39197 0.42665 0.0
C127 C 0.47951 0.33238 0.35095 0.0
O128 O 0.50569 0.34442 0.37317 0.0
O129 O 0.4135 0.33055 0.44977 0.0
C130 C 0.16592 0.44071 0.93724 0.0
O131 O 0.15805 0.43067 0.89712 0.0
O132 O 0.12853 0.46294 0.86206 0.0
Zn133 Zn 0.11988 0.45952 0.92659 0.0
O134 O 0.12337 0.49955 0.94963 0.0
C135 C 0.06316 0.3987 0.91698 0.0
O136 O 0.08039 0.3911 0.89309 0.0
O137 O 0.15166 0.45241 0.95723 0.0
C138 C 0.09897 0.50154 0.95602 0.0
O139 O 0.07137 0.47785 0.94606 0.0
C140 C 0.12186 0.47945 0.8374 0.0
O141 O 0.11036 0.49602 0.85417 0.0
O142 O 0.07569 0.42499 0.93624 0.0
C143 C 0.69904 0.17533 0.47019 0.0
O144 O 0.6826 0.18064 0.44134 0.0
O145 O 0.66574 0.12517 0.38017 0.0
Zn146 Zn 0.65611 0.11465 0.44407 0.0
O147 O 0.61821 0.11757 0.46221 0.0
C148 C 0.6361 0.05003 0.42862 0.0
O149 O 0.62897 0.057 0.39076 0.0
O150 O 0.69242 0.14736 0.47789 0.0
C151 C 0.59027 0.0949 0.45974 0.0
O152 O 0.58476 0.06778 0.44427 0.0
C153 C 0.64421 0.11852 0.35247 0.0
O154 O 0.61501 0.1051 0.3654 0.0
O155 O 0.64921 0.07129 0.45729 0.0
C156 C 0.7135 0.54453 0.94255 0.0
O157 O 0.7161 0.55221 0.90122 0.0
O158 O 0.65447 0.52996 0.86745 0.0
Zn159 Zn 0.65057 0.53314 0.93216 0.0
O160 O 0.61281 0.49383 0.95311 0.0
C161 C 0.66582 0.5984 0.94211 0.0
O162 O 0.69497 0.60588 0.93513 0.0
O163 O 0.68823 0.53682 0.96272 0.0
C164 C 0.58597 0.49139 0.95463 0.0
O165 O 0.58244 0.51493 0.94224 0.0
C166 C 0.63677 0.53478 0.84257 0.0
O167 O 0.61598 0.5409 0.85942 0.0
O168 O 0.64451 0.56985 0.94383 0.0
C169 C 0.17895 0.71717 0.45546 0.0
O170 O 0.18577 0.70064 0.42877 0.0
O171 O 0.13157 0.6768 0.3653 0.0
Zn172 Zn 0.11998 0.67135 0.42848 0.0
O173 O 0.12271 0.63471 0.45183 0.0
C174 C 0.06579 0.6803 0.42145 0.0
O175 O 0.08537 0.70815 0.40572 0.0
O176 O 0.15057 0.70961 0.46119 0.0
C177 C 0.09829 0.60818 0.45709 0.0
O178 O 0.07084 0.60424 0.44622 0.0
C179 C 0.11292 0.65609 0.33888 0.0
O180 O 0.08722 0.63184 0.35347 0.0
O181 O 0.07575 0.66241 0.4343 0.0
C182 C 0.4665 0.19085 0.95492 0.0
O183 O 0.48866 0.19977 0.92558 0.0
O184 O 0.46303 0.14038 0.86731 0.0
Zn185 Zn 0.4572 0.13126 0.93131 0.0
O186 O 0.49526 0.13189 0.95555 0.0
C187 C 0.42666 0.06802 0.91592 0.0
O188 O 0.45142 0.07874 0.89079 0.0
O189 O 0.44899 0.16191 0.96303 0.0
C190 C 0.4961 0.12539 0.99532 0.0
O191 O 0.47269 0.1199 0.02111 0.0
C192 C 0.48985 0.1549 0.84972 0.0
O193 O 0.51514 0.16672 0.87392 0.0
O194 O 0.42204 0.08715 0.9379 0.0
C195 C 0.26878 0.44141 0.4536 0.0
O196 O 0.26368 0.41834 0.42726 0.0
O197 O 0.32537 0.4667 0.36185 0.0
Zn198 Zn 0.33137 0.4642 0.42628 0.0
O199 O 0.37241 0.5001 0.44627 0.0
C200 C 0.35237 0.42092 0.42001 0.0
O201 O 0.37121 0.44233 0.39239 0.0
O202 O 0.29637 0.46421 0.45854 0.0
C203 C 0.37922 0.50168 0.48638 0.0
O204 O 0.35898 0.48082 0.51354 0.0
C205 C 0.34836 0.48041 0.33588 0.0
O206 O 0.37693 0.49563 0.3515 0.0
O207 O 0.33169 0.42436 0.43962 0.0
C208 C 0.81524 0.28506 0.96504 0.0
O209 O 0.8059 0.30504 0.95541 0.0
O210 O 0.86167 0.33253 0.86446 0.0
Zn211 Zn 0.871 0.33355 0.92846 0.0
O212 O 0.86562 0.36682 0.95893 0.0
C213 C 0.92837 0.33328 0.91115 0.0
O214 O 0.91125 0.31151 0.8827 0.0
O215 O 0.84302 0.29181 0.95617 0.0
C216 C 0.88393 0.39548 0.94978 0.0
O217 O 0.90541 0.40297 0.91971 0.0
C218 C 0.84357 0.34138 0.84868 0.0
O219 O 0.82915 0.35124 0.87459 0.0
O220 O 0.91595 0.34524 0.93477 0.0
C221 C 0.54744 0.81303 0.43948 0.0
O222 O 0.56958 0.83012 0.41148 0.0
O223 O 0.52775 0.85174 0.35352 0.0
Zn224 Zn 0.5251 0.85518 0.41868 0.0
O225 O 0.48579 0.85503 0.43757 0.0
C226 C 0.57057 0.9196 0.41487 0.0
O227 O 0.5579 0.91616 0.37626 0.0
O228 O 0.52596 0.8193 0.44753 0.0
C229 C 0.47765 0.87375 0.42192 0.0
O230 O 0.49414 0.89303 0.39056 0.0
C231 C 0.50418 0.83875 0.32848 0.0
O232 O 0.47583 0.82609 0.34463 0.0
O233 O 0.56175 0.89578 0.4391 0.0
C234 C 0.4617 0.2899 0.04757 0.0
O235 O 0.48764 0.30996 0.06742 0.0
O236 O 0.44839 0.3261 0.14593 0.0
Zn237 Zn 0.44337 0.33096 0.082 0.0
O238 O 0.48097 0.36951 0.05936 0.0
C239 C 0.38118 0.32158 0.09385 0.0
O240 O 0.37698 0.2985 0.11956 0.0
O241 O 0.43803 0.29352 0.04927 0.0
C242 C 0.48132 0.37705 0.0198 0.0
O243 O 0.45752 0.35929 0.99447 0.0
C244 C 0.47509 0.33835 0.16393 0.0
O245 O 0.50051 0.35438 0.14059 0.0
O246 O 0.40683 0.33733 0.07366 0.0
C247 C 0.16937 0.44463 0.54796 0.0
O248 O 0.16738 0.44055 0.59029 0.0
O249 O 0.13111 0.46484 0.62464 0.0
Zn250 Zn 0.11988 0.45882 0.5607 0.0
O251 O 0.12228 0.4978 0.53539 0.0
C252 C 0.05508 0.41519 0.57971 0.0
O253 O 0.06197 0.43175 0.61551 0.0
O254 O 0.151 0.45164 0.5285 0.0
C255 C 0.0988 0.50181 0.53404 0.0
O256 O 0.07182 0.48036 0.54986 0.0
C257 C 0.12276 0.47958 0.65015 0.0
O258 O 0.10806 0.49346 0.6345 0.0
O259 O 0.07632 0.42153 0.55163 0.0
C260 C 0.72667 0.17443 0.0584 0.0
O261 O 0.73117 0.16815 0.09839 0.0
O262 O 0.67081 0.14016 0.14016 0.0
Zn263 Zn 0.66253 0.12902 0.07671 0.0
O264 O 0.62568 0.13307 0.05764 0.0
C265 C 0.67082 0.07387 0.07263 0.0
O266 O 0.70074 0.09337 0.07891 0.0
O267 O 0.69964 0.15939 0.04152 0.0
C268 C 0.59826 0.10951 0.0552 0.0
O269 O 0.59334 0.08154 0.06552 0.0
C270 C 0.6491 0.12386 0.1669 0.0
O271 O 0.62202 0.10161 0.15244 0.0
O272 O 0.6519 0.08416 0.06971 0.0
C273 C 0.53578 0.70614 0.53218 0.0
O274 O 0.50791 0.68657 0.54772 0.0
O275 O 0.54367 0.66505 0.63288 0.0
Zn276 Zn 0.54802 0.66079 0.5685 0.0
O277 O 0.50717 0.62595 0.546 0.0
C278 C 0.61066 0.67034 0.56233 0.0
O279 O 0.61953 0.69983 0.57014 0.0
O280 O 0.55793 0.70041 0.53736 0.0
C281 C 0.50015 0.59745 0.54838 0.0
O282 O 0.52006 0.59012 0.56534 0.0
C283 C 0.54923 0.64822 0.65859 0.0
O284 O 0.55754 0.62872 0.6428 0.0
O285 O 0.58182 0.65028 0.55865 0.0
C286 C 0.80753 0.52883 0.0323 0.0
O287 O 0.80034 0.50061 0.04523 0.0
O288 O 0.86001 0.5419 0.13277 0.0
Zn289 Zn 0.867 0.54404 0.06732 0.0
O290 O 0.86286 0.50392 0.04256 0.0
C291 C 0.93285 0.58893 0.07681 0.0
O292 O 0.92895 0.57504 0.11453 0.0
O293 O 0.83495 0.55162 0.03847 0.0
C294 C 0.88544 0.49844 0.04177 0.0
O295 O 0.91233 0.5184 0.05948 0.0
C296 C 0.86983 0.52854 0.15858 0.0
O297 O 0.88332 0.51357 0.14263 0.0
O298 O 0.90967 0.58034 0.05147 0.0
C299 C 0.28473 0.8168 0.54403 0.0
O300 O 0.30176 0.80849 0.56716 0.0
O301 O 0.33221 0.8676 0.63218 0.0
Zn302 Zn 0.33361 0.87645 0.56807 0.0
O303 O 0.36852 0.87334 0.5396 0.0
C304 C 0.32275 0.929 0.57169 0.0
O305 O 0.29542 0.90868 0.58804 0.0
O306 O 0.29332 0.84562 0.53991 0.0
C307 C 0.37481 0.88069 0.49982 0.0
O308 O 0.35849 0.89029 0.47752 0.0
C309 C 0.34793 0.85627 0.64895 0.0
O310 O 0.36529 0.84936 0.62419 0.0
O311 O 0.34183 0.9202 0.56017 0.0
C312 C 0.31859 0.4441 0.22414 0.0
C313 C 0.33855 0.46944 0.19695 0.0
C314 C 0.35908 0.50356 0.26071 0.0
C315 C 0.34334 0.4769 0.28813 0.0
N316 N 0.31279 0.42032 0.29455 0.0
N317 N 0.37922 0.52326 0.18857 0.0
C318 C 0.324 0.44675 0.26961 0.0
C319 C 0.35923 0.49923 0.215 0.0
N320 N 0.29462 0.41739 0.20663 0.0
N321 N 0.37286 0.533 0.27814 0.0
H322 H 0.37869 0.52139 0.15472 0.0
H323 H 0.39739 0.54437 0.20033 0.0
H324 H 0.37205 0.53708 0.31127 0.0
H325 H 0.38223 0.55329 0.25937 0.0
H326 H 0.27762 0.39934 0.22552 0.0
H327 H 0.28991 0.41466 0.17336 0.0
H328 H 0.30139 0.3978 0.28148 0.0
H329 H 0.31789 0.42064 0.32746 0.0
C330 C 0.86508 0.36738 0.73107 0.0
C331 C 0.83821 0.34394 0.70932 0.0
C332 C 0.81299 0.32166 0.77935 0.0
C333 C 0.84108 0.34316 0.80091 0.0
N334 N 0.89444 0.38577 0.79831 0.0
N335 N 0.78738 0.29748 0.71114 0.0
C336 C 0.86731 0.36585 0.77702 0.0
C337 C 0.81221 0.32087 0.73303 0.0
N338 N 0.88799 0.39169 0.70778 0.0
N339 N 0.78713 0.302 0.80323 0.0
H340 H 0.78576 0.29663 0.67728 0.0
H341 H 0.76923 0.27788 0.72611 0.0
H342 H 0.78728 0.30086 0.8371 0.0
H343 H 0.765 0.28816 0.7899 0.0
H344 H 0.90669 0.41133 0.72183 0.0
H345 H 0.88703 0.39356 0.67409 0.0
H346 H 0.91561 0.39999 0.78266 0.0
H347 H 0.8963 0.3871 0.83211 0.0
C348 C 0.50233 0.85904 0.2545 0.0
C349 C 0.50894 0.83945 0.28091 0.0
C350 C 0.52936 0.82517 0.21754 0.0
C351 C 0.52098 0.84327 0.19075 0.0
N352 N 0.49456 0.87293 0.18183 0.0
N353 N 0.52404 0.80009 0.28748 0.0
C354 C 0.50609 0.85897 0.2087 0.0
C355 C 0.52114 0.82142 0.26239 0.0
N356 N 0.49364 0.87866 0.27334 0.0
N357 N 0.54626 0.81263 0.20046 0.0
H358 H 0.5184 0.79689 0.3205 0.0
H359 H 0.52957 0.78383 0.27503 0.0
H360 H 0.55261 0.81481 0.16774 0.0
H361 H 0.55609 0.80216 0.21917 0.0
H362 H 0.49223 0.89623 0.25645 0.0
H363 H 0.49014 0.87909 0.30669 0.0
H364 H 0.48032 0.88158 0.1925 0.0
H365 H 0.49697 0.87358 0.14811 0.0
C366 C 0.66718 0.55642 0.77353 0.0
C367 C 0.6395 0.53376 0.79478 0.0
C368 C 0.61405 0.51331 0.72438 0.0
C369 C 0.64203 0.5353 0.70312 0.0
N370 N 0.69658 0.57498 0.70632 0.0
N371 N 0.589 0.48687 0.79162 0.0
C372 C 0.66911 0.55583 0.7274 0.0
C373 C 0.61357 0.51113 0.77051 0.0
N374 N 0.69092 0.57962 0.79725 0.0
N375 N 0.58781 0.49477 0.70045 0.0
H376 H 0.58806 0.48436 0.82537 0.0
H377 H 0.57083 0.46776 0.77582 0.0
H378 H 0.58772 0.49429 0.66653 0.0
H379 H 0.5657 0.4811 0.71398 0.0
H380 H 0.71002 0.59906 0.7835 0.0
H381 H 0.69063 0.58076 0.83109 0.0
H382 H 0.71801 0.58765 0.72207 0.0
H383 H 0.69848 0.57684 0.67256 0.0
C384 C 0.12905 0.63925 0.27163 0.0
C385 C 0.11979 0.65916 0.29186 0.0
C386 C 0.11401 0.67805 0.22083 0.0
C387 C 0.12446 0.65899 0.20037 0.0
N388 N 0.14988 0.62821 0.20694 0.0
N389 N 0.11126 0.70316 0.28707 0.0
C390 C 0.13434 0.64155 0.22601 0.0
C391 C 0.11503 0.68055 0.26688 0.0
N392 N 0.13249 0.61793 0.29594 0.0
N393 N 0.101 0.69203 0.19692 0.0
H394 H 0.11119 0.70535 0.32078 0.0
H395 H 0.11112 0.72149 0.27041 0.0
H396 H 0.09899 0.6907 0.16324 0.0
H397 H 0.08948 0.70272 0.21085 0.0
H398 H 0.13545 0.60023 0.28236 0.0
H399 H 0.13054 0.61676 0.32978 0.0
H400 H 0.1602 0.61767 0.22446 0.0
H401 H 0.15535 0.63055 0.17387 0.0
C402 C 0.48356 0.17283 0.77619 0.0
C403 C 0.49219 0.15447 0.80192 0.0
C404 C 0.4969 0.12857 0.73667 0.0
C405 C 0.48931 0.1477 0.71082 0.0
N406 N 0.48094 0.19163 0.70415 0.0
N407 N 0.51158 0.11827 0.80735 0.0
C408 C 0.48422 0.17091 0.73008 0.0
C409 C 0.50053 0.13359 0.78231 0.0
N410 N 0.47426 0.1917 0.79593 0.0
N411 N 0.49877 0.10437 0.71791 0.0
H412 H 0.51279 0.11968 0.84119 0.0
H413 H 0.52161 0.10579 0.79454 0.0
H414 H 0.49626 0.09984 0.68459 0.0
H415 H 0.50041 0.08722 0.73553 0.0
H416 H 0.46415 0.20284 0.77938 0.0
H417 H 0.47514 0.19498 0.82954 0.0
H418 H 0.48017 0.21103 0.7159 0.0
H419 H 0.48158 0.19092 0.67026 0.0
C420 C 0.52048 0.6228 0.72719 0.0
C421 C 0.54505 0.6493 0.70605 0.0
C422 C 0.56581 0.67463 0.77647 0.0
C423 C 0.54116 0.64814 0.7976 0.0
N424 N 0.49151 0.60033 0.79391 0.0
N425 N 0.58807 0.70245 0.70888 0.0
C426 C 0.51746 0.62314 0.77315 0.0
C427 C 0.56663 0.67597 0.7302 0.0
N428 N 0.50023 0.59718 0.70328 0.0
N429 N 0.58937 0.69768 0.80057 0.0
H430 H 0.59063 0.70375 0.67515 0.0
H431 H 0.60203 0.72385 0.7242 0.0
H432 H 0.58938 0.69798 0.83445 0.0
H433 H 0.61 0.71556 0.78732 0.0
H434 H 0.48437 0.57565 0.71689 0.0
H435 H 0.50016 0.59689 0.66935 0.0
H436 H 0.47186 0.58308 0.77786 0.0
H437 H 0.48838 0.60017 0.82749 0.0
C438 C 0.86208 0.50694 0.27824 0.0
C439 C 0.87315 0.53657 0.2981 0.0
C440 C 0.88017 0.56118 0.22665 0.0
C441 C 0.86812 0.5313 0.20655 0.0
N442 N 0.83994 0.47501 0.2138 0.0
N443 N 0.88499 0.59019 0.29259 0.0
C444 C 0.85677 0.50392 0.23258 0.0
C445 C 0.87947 0.56309 0.27272 0.0
N446 N 0.85706 0.48176 0.30293 0.0
N447 N 0.89434 0.588 0.20233 0.0
H448 H 0.88516 0.59261 0.32628 0.0
H449 H 0.88645 0.60921 0.27573 0.0
H450 H 0.89612 0.58829 0.16862 0.0
H451 H 0.90695 0.61029 0.21591 0.0
H452 H 0.8527 0.46049 0.28971 0.0
H453 H 0.85903 0.48271 0.33676 0.0
H454 H 0.82859 0.45425 0.23152 0.0
H455 H 0.83455 0.47195 0.1807 0.0
C456 C 0.3762 0.87293 0.72006 0.0
C457 C 0.34841 0.85311 0.69668 0.0
C458 C 0.32034 0.83073 0.76495 0.0
C459 C 0.34856 0.84933 0.78815 0.0
N460 N 0.40426 0.88525 0.78852 0.0
N461 N 0.29551 0.8098 0.69524 0.0
C462 C 0.37682 0.86939 0.76586 0.0
C463 C 0.32083 0.83108 0.71868 0.0
N464 N 0.40142 0.89634 0.69879 0.0
N465 N 0.29305 0.81304 0.78722 0.0
H466 H 0.29517 0.80934 0.66131 0.0
H467 H 0.2758 0.79104 0.70907 0.0
H468 H 0.2921 0.81092 0.82102 0.0
H469 H 0.2711 0.80187 0.77258 0.0
H470 H 0.42104 0.91391 0.71453 0.0
H471 H 0.40188 0.8999 0.66529 0.0
H472 H 0.42614 0.89711 0.77375 0.0
H473 H 0.40552 0.88499 0.82236 0.0
C474 C 0.47373 0.35703 0.28336 0.0
C475 C 0.48031 0.33494 0.30305 0.0
C476 C 0.48702 0.31751 0.23119 0.0
C477 C 0.47735 0.33739 0.21172 0.0
N478 N 0.4585 0.37394 0.21845 0.0
N479 N 0.49054 0.29216 0.29706 0.0
C480 C 0.46975 0.35649 0.23759 0.0
C481 C 0.48645 0.31474 0.27734 0.0
N482 N 0.47265 0.37944 0.30832 0.0
N483 N 0.49679 0.30138 0.20553 0.0
H484 H 0.49074 0.28984 0.33078 0.0
H485 H 0.49168 0.27442 0.28028 0.0
H486 H 0.49622 0.30182 0.17162 0.0
H487 H 0.50728 0.28913 0.21758 0.0
H488 H 0.47123 0.39825 0.29556 0.0
H489 H 0.47614 0.38096 0.34187 0.0
H490 H 0.44879 0.38511 0.23586 0.0
H491 H 0.45696 0.37572 0.18484 0.0
C492 C 0.11124 0.44998 0.72063 0.0
C493 C 0.12682 0.47894 0.69782 0.0
C494 C 0.14469 0.5072 0.76712 0.0
C495 C 0.12543 0.47881 0.78965 0.0
N496 N 0.0874 0.42353 0.78799 0.0
N497 N 0.15837 0.53532 0.69856 0.0
C498 C 0.10827 0.45021 0.76654 0.0
C499 C 0.14361 0.50763 0.72089 0.0
N500 N 0.09892 0.42213 0.69875 0.0
N501 N 0.16482 0.53347 0.78998 0.0
H502 H 0.16049 0.53649 0.66475 0.0
H503 H 0.16742 0.55718 0.71328 0.0
H504 H 0.16658 0.53377 0.82382 0.0
H505 H 0.18172 0.55417 0.77552 0.0
H506 H 0.091 0.40066 0.71421 0.0
H507 H 0.09878 0.42023 0.66508 0.0
H508 H 0.07104 0.40311 0.77233 0.0
H509 H 0.08443 0.42236 0.82154 0.0
C510 C 0.63976 0.14271 0.2836 0.0
C511 C 0.65147 0.12543 0.30568 0.0
C512 C 0.67095 0.11696 0.23658 0.0
C513 C 0.6541 0.12896 0.21423 0.0
N514 N 0.62309 0.15418 0.21524 0.0
N515 N 0.67686 0.09427 0.30314 0.0
C516 C 0.63884 0.14231 0.23743 0.0
C517 C 0.66726 0.11253 0.28234 0.0
N518 N 0.63042 0.16023 0.3069 0.0
N519 N 0.69032 0.10964 0.21409 0.0
H520 H 0.675 0.09045 0.33656 0.0
H521 H 0.68467 0.08095 0.28686 0.0
H522 H 0.69337 0.11234 0.18051 0.0
H523 H 0.70561 0.10377 0.22908 0.0
H524 H 0.62421 0.17554 0.29276 0.0
H525 H 0.63184 0.16184 0.34076 0.0
H526 H 0.60809 0.16051 0.23001 0.0
H527 H 0.62413 0.15653 0.18148 0.0
C528 C 0.19176 0.42596 0.99525 0.0
C529 C 0.19429 0.44299 0.95684 0.0
C530 C 0.25116 0.46565 0.95726 0.0
C531 C 0.24894 0.45173 0.99841 0.0
N532 N 0.21771 0.4214 0.05945 0.0
N533 N 0.22651 0.48273 0.90446 0.0
C534 C 0.21937 0.43239 0.01812 0.0
C535 C 0.224 0.46369 0.93846 0.0
N536 N 0.16298 0.40321 0.00929 0.0
N537 N 0.2791 0.48005 0.93561 0.0
H538 H 0.2073 0.48245 0.8899 0.0
H539 H 0.24781 0.50079 0.89308 0.0
H540 H 0.29947 0.48166 0.94823 0.0
H541 H 0.28143 0.48769 0.90352 0.0
H542 H 0.15976 0.38773 0.03446 0.0
H543 H 0.14231 0.39796 0.99325 0.0
H544 H 0.19708 0.41018 0.07738 0.0
H545 H 0.23738 0.4256 0.07734 0.0
C546 C 0.72432 0.20529 0.53843 0.0
C547 C 0.72531 0.20195 0.4927 0.0
C548 C 0.77306 0.25311 0.4881 0.0
C549 C 0.77336 0.25541 0.53413 0.0
N550 N 0.75292 0.23138 0.60385 0.0
N551 N 0.75371 0.21919 0.42508 0.0
C552 C 0.75002 0.23081 0.55957 0.0
C553 C 0.75061 0.22485 0.46782 0.0
N554 N 0.69826 0.18494 0.56141 0.0
N555 N 0.7932 0.2784 0.46358 0.0
H556 H 0.73792 0.19853 0.4092 0.0
H557 H 0.77343 0.23356 0.40655 0.0
H558 H 0.80971 0.29979 0.47705 0.0
H559 H 0.79167 0.27916 0.42986 0.0
H560 H 0.69477 0.18829 0.59392 0.0
H561 H 0.67885 0.16601 0.54715 0.0
H562 H 0.73842 0.21256 0.6238 0.0
H563 H 0.7716 0.24957 0.62045 0.0
C564 C 0.54564 0.79443 0.95552 0.0
C565 C 0.55314 0.80218 -4e-05 0.0
C566 C 0.57178 0.76458 0.00485 0.0
C567 C 0.56016 0.75383 0.96234 0.0
N568 N 0.53135 0.75516 0.89954 0.0
N569 N 0.57009 0.79237 0.0689 0.0
C570 C 0.54604 0.76799 0.93807 0.0
C571 C 0.5656 0.78685 0.02518 0.0
N572 N 0.53879 0.81279 0.92969 0.0
N573 N 0.58933 0.75404 0.02536 0.0
H574 H 0.56581 0.80845 0.08507 0.0
H575 H 0.57568 0.77925 0.08978 0.0
H576 H 0.59455 0.73795 0.01121 0.0
H577 H 0.60109 0.76335 0.05452 0.0
H578 H 0.53629 0.81017 0.89605 0.0
H579 H 0.53875 0.83268 0.94123 0.0
H580 H 0.51768 0.76247 0.88306 0.0
H581 H 0.53021 0.73525 0.88592 0.0
C582 C 0.76691 0.57251 0.50873 0.0
C583 C 0.75267 0.55345 0.54576 0.0
C584 C 0.78919 0.53359 0.54179 0.0
C585 C 0.80011 0.54894 0.50125 0.0
N586 N 0.79785 0.58103 0.44363 0.0
N587 N 0.74753 0.5129 0.595 0.0
C588 C 0.78885 0.56819 0.48418 0.0
C589 C 0.76327 0.53342 0.56198 0.0
N590 N 0.75988 0.59515 0.49761 0.0
N591 N 0.80405 0.51973 0.56143 0.0
H592 H 0.72818 0.51166 0.61053 0.0
H593 H 0.752 0.49525 0.60462 0.0
H594 H 0.82342 0.51978 0.54777 0.0
H595 H 0.79918 0.51095 0.59303 0.0
H596 H 0.77174 0.61187 0.47359 0.0
H597 H 0.7441 0.59909 0.5152 0.0
H598 H 0.78765 0.59221 0.4274 0.0
H599 H 0.81395 0.5785 0.42466 0.0
C600 C 0.24448 0.76184 0.95004 0.0
C601 C 0.26968 0.78565 0.97406 0.0
C602 C 0.24043 0.76496 0.04189 0.0
C603 C 0.21647 0.73961 0.01827 0.0
N604 N 0.19802 0.71049 0.95122 0.0
N605 N 0.29433 0.80705 0.04316 0.0
C606 C 0.21908 0.73709 0.97266 0.0
C607 C 0.26841 0.78649 0.02012 0.0
N608 N 0.24424 0.76347 0.90564 0.0
N609 N 0.23601 0.76906 0.08476 0.0
H610 H 0.31537 0.82298 0.02837 0.0
H611 H 0.29591 0.80647 0.07689 0.0
H612 H 0.21573 0.75382 0.10178 0.0
H613 H 0.25117 0.78897 0.10246 0.0
H614 H 0.22493 0.74871 0.88667 0.0
H615 H 0.26234 0.78136 0.88784 0.0
H616 H 0.20075 0.70588 0.91895 0.0
H617 H 0.17922 0.69163 0.96666 0.0
C618 C 0.45866 0.22196 0.55023 0.0
C619 C 0.45966 0.19774 0.52673 0.0
C620 C 0.45655 0.22118 0.45795 0.0
C621 C 0.45945 0.24728 0.48137 0.0
N622 N 0.46791 0.27502 0.54934 0.0
N623 N 0.46284 0.17547 0.45834 0.0
C624 C 0.46156 0.24831 0.52744 0.0
C625 C 0.45926 0.1975 0.48057 0.0
N626 N 0.45406 0.21932 0.59425 0.0
N627 N 0.4504 0.21866 0.4143 0.0
H628 H 0.46448 0.1575 0.47371 0.0
H629 H 0.46649 0.17628 0.42489 0.0
H630 H 0.44821 0.23557 0.39672 0.0
H631 H 0.44479 0.19866 0.39623 0.0
H632 H 0.44992 0.23464 0.61259 0.0
H633 H 0.45129 0.20001 0.61191 0.0
H634 H 0.47324 0.27832 0.58238 0.0
H635 H 0.47061 0.29508 0.53393 0.0
C636 C 0.77419 0.55388 0.02632 0.0
C637 C 0.78425 0.53377 0.00872 0.0
C638 C 0.74678 0.51957 0.94896 0.0
C639 C 0.73856 0.54161 0.96452 0.0
N640 N 0.74808 0.58373 0.01341 0.0
N641 N 0.78509 0.50261 0.94874 0.0
C642 C 0.75331 0.55993 0.00194 0.0
C643 C 0.77197 0.51807 0.96871 0.0
N644 N 0.78355 0.56616 0.06708 0.0
N645 N 0.72961 0.49899 0.9167 0.0
H646 H 0.80392 0.50134 0.96182 0.0
H647 H 0.77932 0.49364 0.9173 0.0
H648 H 0.71055 0.4988 0.9018 0.0
H649 H 0.73239 0.48019 0.90752 0.0
H650 H 0.7743 0.57816 0.08355 0.0
H651 H 0.79864 0.56209 0.08612 0.0
H652 H 0.76065 0.60002 0.03759 0.0
H653 H 0.73306 0.58894 0.99614 0.0
C654 C 0.22753 0.76952 0.45426 0.0
C655 C 0.20434 0.74409 0.47867 0.0
C656 C 0.23137 0.76939 0.54632 0.0
C657 C 0.25646 0.79271 0.52155 0.0
N658 N 0.28077 0.81274 0.45173 0.0
N659 N 0.1859 0.71732 0.5474 0.0
C660 C 0.25514 0.79234 0.47543 0.0
C661 C 0.20656 0.7434 0.52464 0.0
N662 N 0.22278 0.77226 0.41104 0.0
N663 N 0.23087 0.77255 0.59046 0.0
H664 H 0.16744 0.69768 0.53279 0.0
H665 H 0.18854 0.71407 0.58027 0.0
H666 H 0.24851 0.7915 0.60738 0.0
H667 H 0.21168 0.75802 0.60978 0.0
H668 H 0.23733 0.79199 0.39259 0.0
H669 H 0.20262 0.75612 0.39455 0.0
H670 H 0.28234 0.81116 0.41814 0.0
H671 H 0.30164 0.82966 0.46587 0.0
C672 C 0.46835 0.21797 0.0247 0.0
C673 C 0.46275 0.2146 0.9792 0.0
C674 C 0.45615 0.26065 0.97836 0.0
C675 C 0.46016 0.26302 0.02419 0.0
N676 N 0.46344 0.2405 0.09224 0.0
N677 N 0.44524 0.22838 0.914 0.0
C678 C 0.46429 0.24063 0.04776 0.0
C679 C 0.45485 0.23468 0.95637 0.0
N680 N 0.47899 0.20059 0.04554 0.0
N681 N 0.45499 0.28389 0.95562 0.0
H682 H 0.4438 0.2094 0.89693 0.0
H683 H 0.43603 0.24018 0.89695 0.0
H684 H 0.45553 0.30315 0.97051 0.0
H685 H 0.45589 0.28538 0.92181 0.0
H686 H 0.48699 0.20462 0.07753 0.0
H687 H 0.48228 0.18372 0.02987 0.0
H688 H 0.46303 0.22278 0.11118 0.0
H689 H 0.46018 0.25658 0.11027 0.0
C690 C 0.21574 0.46968 0.49834 0.0
C691 C 0.19441 0.44337 0.52333 0.0
C692 C 0.22328 0.41646 0.50505 0.0
C693 C 0.24254 0.44143 0.47658 0.0
N694 N 0.2526 0.4885 0.43871 0.0
N695 N 0.17411 0.38933 0.54392 0.0
C696 C 0.23748 0.46711 0.47104 0.0
C697 C 0.19709 0.41604 0.52488 0.0
N698 N 0.21633 0.49761 0.50216 0.0
N699 N 0.23071 0.39388 0.51468 0.0
H700 H 0.15427 0.38791 0.55815 0.0
H701 H 0.17326 0.36781 0.54197 0.0
H702 H 0.25002 0.39362 0.50146 0.0
H703 H 0.21944 0.37708 0.53882 0.0
H704 H 0.2336 0.51832 0.48809 0.0
H705 H 0.20161 0.50097 0.52301 0.0
H706 H 0.24729 0.50582 0.43041 0.0
H707 H 0.26813 0.48703 0.41717 0.0
C708 C 0.7835 0.22643 0.97117 0.0
C709 C 0.79448 0.25644 0.98999 0.0
C710 C 0.7608 0.23262 0.05335 0.0
C711 C 0.75122 0.20248 0.0359 0.0
N712 N 0.75703 0.17013 0.98226 0.0
N713 N 0.79933 0.28789 0.05281 0.0
C714 C 0.76366 0.1992 0.99595 0.0
C715 C 0.78485 0.25947 0.03226 0.0
N716 N 0.79093 0.22399 0.92906 0.0
N717 N 0.74582 0.23579 0.08875 0.0
H718 H 0.81738 0.3081 0.03862 0.0
H719 H 0.79561 0.29082 0.0854 0.0
H720 H 0.72767 0.21684 0.10496 0.0
H721 H 0.74941 0.25735 0.0997 0.0
H722 H 0.78086 0.20296 0.91191 0.0
H723 H 0.80548 0.2434 0.90998 0.0
H724 H 0.76788 0.16639 0.95574 0.0
H725 H 0.74254 0.14974 -0.00032 0.0
C726 C 0.56686 0.79055 0.49622 0.0
C727 C 0.54665 0.7858 0.46068 0.0
C728 C 0.52324 0.72896 0.46796 0.0
C729 C 0.54073 0.73365 0.50663 0.0
N730 N 0.57673 0.76849 0.56074 0.0
N731 N 0.50404 0.75107 0.41395 0.0
C732 C 0.56217 0.76435 0.52144 0.0
C733 C 0.52437 0.75515 0.44688 0.0
N734 N 0.59044 0.8201 0.50592 0.0
N735 N 0.50658 0.69959 0.4504 0.0
H736 H 0.50527 0.76964 0.39605 0.0
H737 H 0.48479 0.72948 0.40601 0.0
H738 H 0.50573 0.6799 0.46443 0.0
H739 H 0.49598 0.69507 0.41995 0.0
H740 H 0.60807 0.82475 0.5283 0.0
H741 H 0.59381 0.83998 0.48922 0.0
H742 H 0.58987 0.79022 0.57566 0.0
H743 H 0.57372 0.74993 0.58037 0.0
C744 C 0.33535 0.36139 0.1262 0.0
C745 C 0.32479 0.36461 0.08465 0.0
C746 C 0.34354 0.33153 0.05253 0.0
C747 C 0.35825 0.33246 0.09254 0.0
N748 N 0.37066 0.35027 0.16692 0.0
N749 N 0.31839 0.35324 0.00793 0.0
C750 C 0.35438 0.34741 0.12954 0.0
C751 C 0.3285 0.34955 0.04773 0.0
N752 N 0.32762 0.37217 0.16237 0.0
N753 N 0.3437 0.31305 0.01947 0.0
H754 H 0.30574 0.36483 0.0038 0.0
H755 H 0.32365 0.34611 0.97881 0.0
H756 H 0.35439 0.29945 0.02238 0.0
H757 H 0.33111 0.30903 0.99073 0.0
H758 H 0.33174 0.3676 0.19402 0.0
H759 H 0.31463 0.38348 0.16094 0.0
H760 H 0.37197 0.36433 0.19302 0.0
H761 H 0.38493 0.34046 0.17093 0.0
C762 C 0.00639 0.36737 0.60343 0.0
C763 C 0.02203 0.39125 0.57194 0.0
C764 C 0.97216 0.3843 0.54602 0.0
C765 C 0.95655 0.3615 0.57906 0.0
N766 N 0.95708 0.3249 0.63039 0.0
N767 N 0.01954 0.41462 0.50416 0.0
C768 C 0.97318 0.35088 0.60487 0.0
C769 C 0.00478 0.39685 0.53989 0.0
N770 N 0.02348 0.3613 0.63277 0.0
N771 N 0.95653 0.3959 0.52286 0.0
H772 H 0.04334 0.42408 0.49845 0.0
H773 H 0.00768 0.41713 0.47785 0.0
H774 H 0.93273 0.38773 0.52627 0.0
H775 H 0.96761 0.41538 0.50258 0.0
H776 H 0.01392 0.34714 0.66006 0.0
H777 H 0.04772 0.37144 0.63035 0.0
H778 H 0.96758 0.31434 0.6474 0.0
H779 H 0.93269 0.31218 0.63141 0.0
C780 C 0.64931 0.9899 0.04553 0.0
C781 C 0.6273 0.97366 0.07904 0.0
C782 C 0.63881 0.02346 0.11215 0.0
C783 C 0.65803 0.03965 0.07604 0.0
N784 N 0.68015 0.03887 0.00652 0.0
N785 N 0.5974 0.97444 0.14073 0.0
C786 C 0.66314 0.02307 0.04232 0.0
C787 C 0.62116 0.99027 0.11158 0.0
N788 N 0.65736 0.97363 0.01739 0.0
N789 N 0.63809 0.03986 0.14758 0.0
H790 H 0.58368 0.95008 0.14147 0.0
H791 H 0.58944 0.98548 0.1618 0.0
H792 H 0.65094 0.06422 0.1493 0.0
H793 H 0.62724 0.02934 0.1768 0.0
H794 H 0.6755 0.98426 0.99496 0.0
H795 H 0.64739 0.94933 0.01874 0.0
H796 H 0.68188 0.02788 0.97861 0.0
H797 H 0.69103 0.06318 0.00354 0.0
C798 C 0.65781 0.6334 0.52388 0.0
C799 C 0.66504 0.62505 0.56457 0.0
C800 C 0.64514 0.65533 0.60243 0.0
C801 C 0.63349 0.65933 0.56221 0.0
N802 N 0.62846 0.65294 0.48444 0.0
N803 N 0.66461 0.62654 0.64314 0.0
C804 C 0.64005 0.64886 0.52275 0.0
C805 C 0.65909 0.63616 0.60404 0.0
N806 N 0.66838 0.62682 0.48647 0.0
N807 N 0.64229 0.66932 0.63921 0.0
H808 H 0.67522 0.61293 0.64605 0.0
H809 H 0.65689 0.63026 0.67284 0.0
H810 H 0.63092 0.68233 0.63977 0.0
H811 H 0.65326 0.67017 0.66851 0.0
H812 H 0.66635 0.63457 0.45581 0.0
H813 H 0.68177 0.61581 0.48659 0.0
H814 H 0.62904 0.64259 0.45521 0.0
H815 H 0.61691 0.66575 0.48226 0.0
C816 C 0.9802 0.64022 0.09204 0.0
C817 C 0.96457 0.61385 0.06439 0.0
C818 C 0.01377 0.62903 0.02657 0.0
C819 C 0.02996 0.65022 0.06088 0.0
N820 N 0.02968 0.68018 0.12232 0.0
N821 N 0.96555 0.58352 0.00331 0.0
C822 C 0.01339 0.65754 0.09192 0.0
C823 C 0.98091 0.60884 0.03019 0.0
N824 N 0.96309 0.64831 0.11843 0.0
N825 N 0.0298 0.62782 0.99112 0.0
H826 H 0.9414 0.56875 0.00385 0.0
H827 H 0.97685 0.57612 0.98185 0.0
H828 H 0.05374 0.64271 0.98721 0.0
H829 H 0.01902 0.61458 0.96349 0.0
H830 H 0.97271 0.66845 0.13749 0.0
H831 H 0.93867 0.63603 0.11832 0.0
H832 H 0.01951 0.68436 0.14924 0.0
H833 H 0.05395 0.6945 0.12081 0.0
C834 C 0.35124 0.01369 0.60262 0.0
C835 C 0.36414 0.02834 0.56224 0.0
C836 C 0.34026 0.97703 0.5268 0.0
C837 C 0.33248 0.96256 0.56829 0.0
N838 N 0.33206 0.96688 0.64655 0.0
N839 N 0.3726 0.02435 0.48569 0.0
C840 C 0.33782 0.98073 0.60648 0.0
C841 C 0.35864 0.01018 0.52401 0.0
N842 N 0.3518 0.03142 0.63717 0.0
N843 N 0.32986 0.95897 0.49015 0.0
H844 H 0.38613 0.04858 0.4821 0.0
H845 H 0.37257 0.01206 0.45813 0.0
H846 H 0.31614 0.93459 0.49134 0.0
H847 H 0.33219 0.96818 0.45899 0.0
H848 H 0.34023 0.0219 0.66637 0.0
H849 H 0.36131 0.05565 0.63503 0.0
H850 H 0.33908 0.97945 0.67555 0.0
H851 H 0.32224 0.9428 0.65097 0.0
C852 C 0.6322 0.6489 0.97974 0.0
C853 C 0.62494 0.65698 0.93883 0.0
C854 C 0.65346 0.6348 0.90179 0.0
C855 C 0.65647 0.62259 0.94211 0.0
N856 N 0.64871 0.61712 0.01963 0.0
N857 N 0.6257 0.65493 0.86029 0.0
C858 C 0.64607 0.62962 0.98125 0.0
C859 C 0.63525 0.64974 0.89964 0.0
N860 N 0.62623 0.66013 0.017 0.0
N861 N 0.66753 0.63163 0.86537 0.0
H862 H 0.61212 0.66552 0.85695 0.0
H863 H 0.62904 0.64649 0.83093 0.0
H864 H 0.68018 0.61991 0.86532 0.0
H865 H 0.66901 0.6429 0.83607 0.0
H866 H 0.63346 0.65754 0.04776 0.0
H867 H 0.61633 0.67452 0.01674 0.0
H868 H 0.63825 0.61809 0.04853 0.0
H869 H 0.66034 0.60439 0.02212 0.0
C870 C 0.98209 0.64676 0.46074 0.0
C871 C 0.96578 0.63357 0.42142 0.0
C872 C 0.0152 0.65835 0.38095 0.0
C873 C 0.03166 0.66807 0.42099 0.0
N874 N 0.03169 0.67144 0.49918 0.0
N875 N 0.96616 0.62424 0.34444 0.0
C876 C 0.01533 0.66241 0.46097 0.0
C877 C 0.9821 0.63908 0.38145 0.0
N878 N 0.96569 0.64482 0.49759 0.0
N879 N 0.03122 0.6671 0.34247 0.0
H880 H 0.94194 0.61002 0.34334 0.0
H881 H 0.97694 0.62405 0.31544 0.0
H882 H 0.05552 0.67982 0.34069 0.0
H883 H 0.02051 0.66384 0.31226 0.0
H884 H 0.97604 0.65642 0.52644 0.0
H885 H 0.94132 0.63356 0.4983 0.0
H886 H 0.02135 0.6647 0.52973 0.0
H887 H 0.05604 0.68469 0.50035 0.0
C888 C 0.38858 0.01754 0.88083 0.0
C889 C 0.40527 0.03388 0.91858 0.0
C890 C 0.3931 0.98451 0.95392 0.0
C891 C 0.37736 0.9683 0.91553 0.0
N892 N 0.3531 0.96748 0.84728 0.0
N893 N 0.4178 0.03334 0.99433 0.0
C894 C 0.37286 0.98429 0.88047 0.0
C895 C 0.40541 0.01743 0.95639 0.0
N896 N 0.38852 0.03396 0.84499 0.0
N897 N 0.3981 0.96881 0.98679 0.0
H898 H 0.42812 0.05758 0.99696 0.0
H899 H 0.41576 0.02244 0.02411 0.0
H900 H 0.38881 0.94461 0.98679 0.0
H901 H 0.41294 0.9798 0.01301 0.0
H902 H 0.38029 0.02388 0.8146 0.0
H903 H 0.39795 0.05822 0.84522 0.0
H904 H 0.34653 0.97739 0.8225 0.0
H905 H 0.341 0.94303 0.84656 0.0
C906 C 0.37963 0.39942 0.46348 0.0
C907 C 0.35775 0.39485 0.43059 0.0
C908 C 0.35863 0.34834 0.4051 0.0
C909 C 0.38518 0.35689 0.43165 0.0
N910 N 0.42122 0.39049 0.48709 0.0
N911 N 0.32385 0.36409 0.37232 0.0
C912 C 0.39529 0.38188 0.46206 0.0
C913 C 0.34606 0.36867 0.40249 0.0
N914 N 0.38569 0.42091 0.49557 0.0
N915 N 0.34561 0.32074 0.38261 0.0
H916 H 0.31287 0.37749 0.37187 0.0
H917 H 0.31697 0.34781 0.34718 0.0
H918 H 0.35425 0.3053 0.3848 0.0
H919 H 0.32486 0.31181 0.36508 0.0
H920 H 0.39931 0.42351 0.52282 0.0
H921 H 0.37456 0.43414 0.49699 0.0
H922 H 0.4322 0.4111 0.50515 0.0
H923 H 0.43304 0.378 0.48828 0.0
C924 C 0.01324 0.39457 0.89134 0.0
C925 C 0.02869 0.38068 0.91311 0.0
C926 C 0.97825 0.33328 0.92707 0.0
C927 C 0.96282 0.34856 0.90948 0.0
N928 N 0.9647 0.39355 0.87528 0.0
N929 N 0.02675 0.33807 0.95401 0.0
C930 C 0.98009 0.37914 0.89167 0.0
C931 C 0.01145 0.35019 0.93121 0.0
N932 N 0.03027 0.42195 0.86877 0.0
N933 N 0.9611 0.30264 0.93971 0.0
H934 H 0.05103 0.34974 0.95726 0.0
H935 H 0.01552 0.31747 0.97205 0.0
H936 H 0.93673 0.28999 0.93846 0.0
H937 H 0.97087 0.28903 0.94868 0.0
H938 H 0.02051 0.43135 0.84788 0.0
H939 H 0.05461 0.43438 0.86806 0.0
H940 H 0.9756 0.4173 0.86776 0.0
H941 H 0.94055 0.38205 0.87083 0.0
C942 C 0.58701 0.96568 0.46455 0.0
C943 C 0.59408 0.95146 0.42951 0.0
C944 C 0.63831 0.00242 0.40869 0.0
C945 C 0.62704 0.01703 0.43729 0.0
N946 N 0.59259 0.01351 0.49533 0.0
N947 N 0.62868 0.95472 0.37209 0.0
C948 C 0.60254 -0.00105 0.46701 0.0
C949 C 0.6208 0.96939 0.40318 0.0
N950 N 0.56511 0.94756 0.49485 0.0
N951 N 0.66575 0.02045 0.38692 0.0
H952 H 0.61762 0.93035 0.36965 0.0
H953 H 0.64556 0.96638 0.34827 0.0
H954 H 0.67903 0.04467 0.39133 0.0
H955 H 0.67669 0.0115 0.36749 0.0
H956 H 0.56119 0.95637 0.52344 0.0
H957 H 0.55237 0.92322 0.49354 0.0
H958 H 0.57191 0.00197 0.51305 0.0
H959 H 0.60458 0.03764 0.50016 0.0
C960 C 0.46795 0.56155 0.02172 0.0
C961 C 0.46728 0.57101 0.97835 0.0
C962 C 0.41365 0.52744 0.96946 0.0
C963 C 0.41382 0.51886 0.01353 0.0
N964 N 0.43815 0.53164 0.08432 0.0
N965 N 0.43844 0.5668 0.91302 0.0
C966 C 0.44017 0.53699 0.04045 0.0
C967 C 0.4397 0.55522 0.95293 0.0
N968 N 0.49525 0.57583 0.04488 0.0
N969 N 0.38937 0.5082 0.94281 0.0
H970 H 0.45743 0.5865 0.89934 0.0
H971 H 0.418 0.5584 0.89488 0.0
H972 H 0.36999 0.48753 0.95353 0.0
H973 H 0.38946 0.5113 0.9093 0.0
H974 H 0.49823 0.56744 0.07455 0.0
H975 H 0.5157 0.59502 0.03321 0.0
H976 H 0.45537 0.54612 0.10634 0.0
H977 H 0.41791 0.51438 0.09944 0.0
C978 C 0.88482 0.42561 0.48726 0.0
C979 C 0.87889 0.42284 0.53274 0.0
C980 C 0.88223 0.47417 0.53357 0.0
C981 C 0.88624 0.47603 0.48772 0.0
N982 N 0.88529 0.45124 0.4197 0.0
N983 N 0.86599 0.44121 0.59786 0.0
C984 C 0.88579 0.45107 0.46419 0.0
C985 C 0.87586 0.4462 0.55554 0.0
N986 N 0.89096 0.40477 0.4664 0.0
N987 N 0.88587 0.49961 0.55638 0.0
H988 H 0.86092 0.4209 0.6149 0.0
H989 H 0.86011 0.4558 0.61486 0.0
H990 H 0.89069 0.5206 0.54159 0.0
H991 H 0.88672 0.5009 0.5902 0.0
H992 H 0.89918 0.40781 0.43456 0.0
H993 H 0.89028 0.38561 0.48182 0.0
H994 H 0.88145 0.43213 0.40074 0.0
H995 H 0.88592 0.46947 0.40165 0.0
C996 C 0.41734 0.85535 0.02217 0.0
C997 C 0.41757 0.87926 0.99626 0.0
C998 C 0.47483 0.90916 0.99874 0.0
C999 C 0.47445 0.88673 0.02802 0.0
N1000 N 0.44564 0.84028 0.07189 0.0
N1001 N 0.44567 0.93064 0.96373 0.0
C1002 C 0.44578 0.86019 0.04077 0.0
C1003 C 0.4461 0.90662 0.98544 0.0
N1004 N 0.39004 0.82764 0.02785 0.0
N1005 N 0.50266 0.93225 0.9824 0.0
H1006 H 0.42516 0.92941 0.95256 0.0
H1007 H 0.46534 0.95266 0.95954 0.0
H1008 H 0.5242 0.93475 0.99118 0.0
H1009 H 0.50436 0.94726 0.95737 0.0
H1010 H 0.38884 0.80798 0.04237 0.0
H1011 H 0.36875 0.82336 0.01481 0.0
H1012 H 0.42535 0.8227 0.08634 0.0
H1013 H 0.46598 0.84266 0.08576 0.0
C1014 C 0.52167 0.4142 0.52283 0.0
C1015 C 0.52203 0.4121 0.47678 0.0
C1016 C 0.57046 0.46285 0.47365 0.0
C1017 C 0.5714 0.46368 0.51979 0.0
N1018 N 0.55151 0.4375 0.58846 0.0
N1019 N 0.54944 0.43119 0.40874 0.0
C1020 C 0.54803 0.43858 0.54447 0.0
C1021 C 0.54721 0.43552 0.45225 0.0
N1022 N 0.49563 0.39382 0.54583 0.0
N1023 N 0.59092 0.48865 0.45024 0.0
H1024 H 0.533 0.41132 0.39199 0.0
H1025 H 0.56897 0.44585 0.39008 0.0
H1026 H 0.60815 0.50925 0.46466 0.0
H1027 H 0.58911 0.49066 0.41678 0.0
H1028 H 0.49274 0.39651 0.57881 0.0
H1029 H 0.47563 0.37576 0.53137 0.0
H1030 H 0.53694 0.41814 0.60752 0.0
H1031 H 0.57073 0.45476 0.60539 0.0
C1032 C 0.08939 0.54681 0.9525 0.0
C1033 C 0.10136 0.53011 0.97552 0.0
C1034 C 0.11751 0.56787 0.03554 0.0
C1035 C 0.10266 0.58256 0.01451 0.0
N1036 N 0.07274 0.58545 0.95441 0.0
N1037 N 0.12235 0.52147 0.04168 0.0
C1038 C 0.08802 0.5718 0.97343 0.0
C1039 C 0.11451 0.5399 0.01764 0.0
N1040 N 0.08059 0.53967 0.90994 0.0
N1041 N 0.13439 0.58054 0.07272 0.0
H1042 H 0.11988 0.50042 0.03029 0.0
H1043 H 0.12866 0.52547 0.07436 0.0
H1044 H 0.13596 0.60014 0.08803 0.0
H1045 H 0.14875 0.57307 0.08669 0.0
H1046 H 0.075 0.55315 0.88982 0.0
H1047 H 0.08138 0.52166 0.89334 0.0
H1048 H 0.05801 0.57605 0.92765 0.0
H1049 H 0.07346 0.60551 0.9667 0.0
C1050 C 0.53444 0.1265 0.4745 0.0
C1051 C 0.51285 0.10434 0.50438 0.0
C1052 C 0.54408 0.07849 0.50861 0.0
C1053 C 0.56401 0.09868 0.4755 0.0
N1054 N 0.57551 0.13889 0.4219 0.0
N1055 N 0.49358 0.05585 0.54393 0.0
C1056 C 0.55853 0.12195 0.45707 0.0
C1057 C 0.51664 0.07934 0.51975 0.0
N1058 N 0.53261 0.1525 0.46396 0.0
N1059 N 0.55214 0.05958 0.53095 0.0
H1060 H 0.473 0.05552 0.5526 0.0
H1061 H 0.49353 0.03529 0.55195 0.0
H1062 H 0.57272 0.0592 0.52501 0.0
H1063 H 0.54016 0.04674 0.55834 0.0
H1064 H 0.54973 0.17124 0.44622 0.0
H1065 H 0.51527 0.15662 0.47609 0.0
H1066 H 0.57016 0.15356 0.40405 0.0
H1067 H 0.59341 0.1364 0.40816 0.0
C1068 C 0.51461 0.43549 0.02091 0.0
C1069 C 0.50787 0.4063 0.00278 0.0
C1070 C 0.55006 0.43333 0.94975 0.0
C1071 C 0.55888 0.46219 0.97087 0.0
N1072 N 0.55315 0.49017 0.03138 0.0
N1073 N 0.52222 0.37671 0.95499 0.0
C1074 C 0.54211 0.46317 0.00775 0.0
C1075 C 0.52639 0.40499 0.96849 0.0
N1076 N 0.49418 0.43696 0.04953 0.0
N1077 N 0.56344 0.43308 0.91092 0.0
H1078 H 0.50541 0.35544 0.96838 0.0
H1079 H 0.53724 0.37448 0.9334 0.0
H1080 H 0.58057 0.45339 0.89578 0.0
H1081 H 0.55555 0.41311 0.89175 0.0
H1082 H 0.49617 0.45796 0.0601 0.0
H1083 H 0.47354 0.41725 0.05962 0.0
H1084 H 0.54374 0.49129 0.0612 0.0
H1085 H 0.57354 0.51086 0.02337 0.0
C1086 C 0.11358 0.58436 0.51764 0.0
C1087 C 0.10063 0.58174 0.47555 0.0
C1088 C 0.08695 0.52668 0.47157 0.0
C1089 C 0.10125 0.52978 0.5127 0.0
N1090 N 0.13366 0.56274 0.57107 0.0
N1091 N 0.08143 0.55301 0.40844 0.0
C1092 C 0.11647 0.55907 0.53442 0.0
C1093 C 0.08906 0.55359 0.45135 0.0
N1094 N 0.12143 0.61023 0.54263 0.0
N1095 N 0.0712 0.49799 0.45192 0.0
H1096 H 0.0835 0.57253 0.39217 0.0
H1097 H 0.07592 0.53419 0.38782 0.0
H1098 H 0.07095 0.47813 0.46418 0.0
H1099 H 0.05695 0.49344 0.42478 0.0
H1100 H 0.12765 0.61192 0.57529 0.0
H1101 H 0.11907 0.62904 0.53206 0.0
H1102 H 0.14803 0.58438 0.58562 0.0
H1103 H 0.13572 0.54457 0.58494 0.0
C1104 C 0.56474 0.13429 0.06259 0.0
C1105 C 0.57199 0.1135 0.04024 0.0
C1106 C 0.52686 0.09764 0.99253 0.0
C1107 C 0.52192 0.12109 0.0114 0.0
N1108 N 0.53893 0.16507 0.06003 0.0
N1109 N 0.56358 0.07978 0.9786 0.0
C1110 C 0.5416 0.14035 0.04531 0.0
C1111 C 0.55403 0.09633 0.00373 0.0
N1112 N 0.57901 0.14723 0.10128 0.0
N1113 N 0.50493 0.07575 0.96532 0.0
H1114 H 0.58382 0.07882 0.98496 0.0
H1115 H 0.55314 0.06958 0.94904 0.0
H1116 H 0.48417 0.07526 0.95751 0.0
H1117 H 0.50577 0.05621 0.95425 0.0
H1118 H 0.5723 0.15989 0.12129 0.0
H1119 H 0.59555 0.14277 0.11546 0.0
H1120 H 0.55486 0.18193 0.08134 0.0
H1121 H 0.52234 0.17032 0.04803 0.0
C1122 C 0.46737 0.55242 0.49869 0.0
C1123 C 0.46925 0.57259 0.53292 0.0
C1124 C 0.41215 0.54806 0.53377 0.0
C1125 C 0.41018 0.52614 0.50224 0.0
N1126 N 0.43547 0.50345 0.46081 0.0
N1127 N 0.44359 0.5858 0.589 0.0
C1128 C 0.43767 0.52719 0.48633 0.0
C1129 C 0.44167 0.56939 0.55215 0.0
N1130 N 0.49379 0.55808 0.47679 0.0
N1131 N 0.386 0.5493 0.54499 0.0
H1132 H 0.46476 0.60127 0.60395 0.0
H1133 H 0.42414 0.58191 0.60709 0.0
H1134 H 0.36396 0.53428 0.53192 0.0
H1135 H 0.3866 0.56701 0.56419 0.0
H1136 H 0.4934 0.54625 0.4485 0.0
H1137 H 0.51599 0.57652 0.48453 0.0
H1138 H 0.45465 0.50118 0.45229 0.0
H1139 H 0.41417 0.48434 0.45142 0.0
C1140 C 0.88749 0.42373 0.0194 0.0
C1141 C 0.88197 0.42047 0.97385 0.0
C1142 C 0.87874 0.46853 0.97271 0.0
C1143 C 0.88227 0.47065 0.01864 0.0
N1144 N 0.88369 0.44718 0.08674 0.0
N1145 N 0.86631 0.43594 0.90841 0.0
C1146 C 0.88475 0.44729 0.04231 0.0
C1147 C 0.87581 0.44176 0.95085 0.0
N1148 N 0.89692 0.40543 0.04046 0.0
N1149 N 0.87967 0.49274 0.94972 0.0
H1150 H 0.8638 0.41652 0.89135 0.0
H1151 H 0.85822 0.44872 0.89129 0.0
H1152 H 0.88184 0.51281 0.96438 0.0
H1153 H 0.88088 0.49415 0.91591 0.0
H1154 H 0.9047 0.40915 0.07255 0.0
H1155 H 0.89966 0.38816 0.02489 0.0
H1156 H 0.88201 0.42891 0.10575 0.0
H1157 H 0.88151 0.46398 0.10456 0.0
C1158 C 0.45621 0.90428 0.45919 0.0
C1159 C 0.45109 0.8755 0.44127 0.0
C1160 C 0.39623 0.84964 0.46454 0.0
C1161 C 0.40082 0.87897 0.47899 0.0
N1162 N 0.43351 0.93503 0.48492 0.0
N1163 N 0.41532 0.82202 0.42034 0.0
C1164 C 0.43029 0.90657 0.47456 0.0
C1165 C 0.42085 0.84844 0.44229 0.0
N1166 N 0.48601 0.92889 0.46381 0.0
N1167 N 0.36844 0.82291 0.4725 0.0
H1168 H 0.43262 0.82033 0.40322 0.0
H1169 H 0.3931 0.80273 0.41584 0.0
H1170 H 0.34944 0.823 0.48717 0.0
H1171 H 0.36488 0.80048 0.46737 0.0
H1172 H 0.49147 0.94922 0.48096 0.0
H1173 H 0.50577 0.92801 0.4541 0.0
H1174 H 0.45341 0.9563 0.47764 0.0
H1175 H 0.41539 0.93755 0.49794 0.0
loop_
_geom_bond_atom_site_label_1
_geom_bond_atom_site_label_2
_geom_bond_distance
_geom_bond_site_symmetry_2
_ccdc_geom_bond_type
C0 O1 1.160 . S
C0 O7 1.185 . S
O1 C0 1.160 . S
O2 Zn3 1.899 . S
O2 C10 1.284 . S
Zn3 O2 1.899 . S
Zn3 O4 2.032 . S
Zn3 O7 2.086 . S
Zn3 O12 1.977 . S
O4 Zn3 2.032 . S
O4 C8 1.278 . S
C5 O6 1.203 . S
C5 O12 1.267 . S
O6 C5 1.203 . S
O7 C0 1.185 . S
O7 Zn3 2.086 . S
C8 O4 1.278 . S
C8 O9 1.211 . S
O9 C8 1.211 . S
C10 O2 1.284 . S
C10 O11 1.273 . S
O11 C10 1.273 . S
O12 Zn3 1.977 . S
O12 C5 1.267 . S
C13 O14 1.160 . S
C13 O20 1.185 . S
O14 C13 1.160 . S
O15 Zn16 1.899 . S
O15 C23 1.284 . S
Zn16 O15 1.899 . S
Zn16 O17 2.032 . S
Zn16 O20 2.086 . S
Zn16 O25 1.977 . S
O17 Zn16 2.032 . S
O17 C21 1.278 . S
C18 O19 1.203 . S
C18 O25 1.267 . S
O19 C18 1.203 . S
O20 C13 1.185 . S
O20 Zn16 2.086 . S
C21 O17 1.278 . S
C21 O22 1.211 . S
O22 C21 1.211 . S
C23 O15 1.284 . S
C23 O24 1.273 . S
O24 C23 1.273 . S
O25 Zn16 1.977 . S
O25 C18 1.267 . S
C26 O27 1.160 . S
C26 O33 1.185 . S
O27 C26 1.160 . S
O28 Zn29 1.899 . S
O28 C36 1.284 . S
Zn29 O28 1.899 . S
Zn29 O30 2.032 . S
Zn29 O33 2.086 . S
Zn29 O38 1.977 . S
O30 Zn29 2.032 . S
O30 C34 1.278 . S
C31 O32 1.203 . S
C31 O38 1.267 . S
O32 C31 1.203 . S
O33 C26 1.185 . S
O33 Zn29 2.086 . S
C34 O30 1.278 . S
C34 O35 1.211 . S
O35 C34 1.211 . S
C36 O28 1.284 . S
C36 O37 1.273 . S
O37 C36 1.273 . S
O38 Zn29 1.977 . S
O38 C31 1.267 . S
C39 O40 1.160 . S
C39 O46 1.185 . S
O40 C39 1.160 . S
O41 Zn42 1.899 . S
O41 C49 1.284 . S
Zn42 O41 1.899 . S
Zn42 O43 2.032 . S
Zn42 O46 2.086 . S
Zn42 O51 1.977 . S
O43 Zn42 2.032 . S
O43 C47 1.278 . S
C44 O45 1.203 . S
C44 O51 1.267 . S
O45 C44 1.203 . S
O46 C39 1.185 . S
O46 Zn42 2.086 . S
C47 O43 1.278 . S
C47 O48 1.211 . S
O48 C47 1.211 . S
C49 O41 1.284 . S
C49 O50 1.273 . S
O50 C49 1.273 . S
O51 Zn42 1.977 . S
O51 C44 1.267 . S
C52 O53 1.160 . S
C52 O59 1.185 . S
O53 C52 1.160 . S
O54 Zn55 1.899 . S
O54 C62 1.284 . S
Zn55 O54 1.899 . S
Zn55 O56 2.032 . S
Zn55 O59 2.086 . S
Zn55 O64 1.977 . S
O56 Zn55 2.032 . S
O56 C60 1.278 . S
C57 O58 1.203 . S
C57 O64 1.267 . S
O58 C57 1.203 . S
O59 C52 1.185 . S
O59 Zn55 2.086 . S
C60 O56 1.278 . S
C60 O61 1.211 . S
O61 C60 1.211 . S
C62 O54 1.284 . S
C62 O63 1.273 . S
O63 C62 1.273 . S
O64 Zn55 1.977 . S
O64 C57 1.267 . S
C65 O66 1.160 . S
C65 O72 1.185 . S
O66 C65 1.160 . S
O67 Zn68 1.899 . S
O67 C75 1.284 . S
Zn68 O67 1.899 . S
Zn68 O69 2.032 . S
Zn68 O72 2.086 . S
Zn68 O77 1.977 . S
O69 Zn68 2.032 . S
O69 C73 1.278 . S
C70 O71 1.203 . S
C70 O77 1.267 . S
O71 C70 1.203 . S
O72 C65 1.185 . S
O72 Zn68 2.086 . S
C73 O69 1.278 . S
C73 O74 1.211 . S
O74 C73 1.211 . S
C75 O67 1.284 . S
C75 O76 1.273 . S
O76 C75 1.273 . S
O77 Zn68 1.977 . S
O77 C70 1.267 . S
C78 O79 1.160 . S
C78 O85 1.185 . S
O79 C78 1.160 . S
O80 Zn81 1.899 . S
O80 C88 1.284 . S
Zn81 O80 1.899 . S
Zn81 O82 2.032 . S
Zn81 O85 2.086 . S
Zn81 O90 1.977 . S
O82 Zn81 2.032 . S
O82 C86 1.278 . S
C83 O84 1.203 . S
C83 O90 1.267 . S
O84 C83 1.203 . S
O85 C78 1.185 . S
O85 Zn81 2.086 . S
C86 O82 1.278 . S
C86 O87 1.211 . S
O87 C86 1.211 . S
C88 O80 1.284 . S
C88 O89 1.273 . S
O89 C88 1.273 . S
O90 Zn81 1.977 . S
O90 C83 1.267 . S
C91 O92 1.160 . S
C91 O98 1.185 . S
O92 C91 1.160 . S
O93 Zn94 1.899 . S
O93 C101 1.284 . S
Zn94 O93 1.899 . S
Zn94 O95 2.032 . S
Zn94 O98 2.086 . S
Zn94 O103 1.977 . S
O95 Zn94 2.032 . S
O95 C99 1.278 . S
C96 O97 1.203 . S
C96 O103 1.267 . S
O97 C96 1.203 . S
O98 C91 1.185 . S
O98 Zn94 2.086 . S
C99 O95 1.278 . S
C99 O100 1.211 . S
O100 C99 1.211 . S
C101 O93 1.284 . S
C101 O102 1.273 . S
O102 C101 1.273 . S
O103 Zn94 1.977 . S
O103 C96 1.267 . S
C104 O105 1.160 . S
C104 O111 1.185 . S
O105 C104 1.160 . S
O106 Zn107 1.899 . S
O106 C114 1.284 . S
Zn107 O106 1.899 . S
Zn107 O108 2.032 . S
Zn107 O111 2.086 . S
Zn107 O116 1.977 . S
O108 Zn107 2.032 . S
O108 C112 1.278 . S
C109 O110 1.203 . S
C109 O116 1.267 . S
O110 C109 1.203 . S
O111 C104 1.185 . S
O111 Zn107 2.086 . S
C112 O108 1.278 . S
C112 O113 1.211 . S
O113 C112 1.211 . S
C114 O106 1.284 . S
C114 O115 1.273 . S
O115 C114 1.273 . S
O116 Zn107 1.977 . S
O116 C109 1.267 . S
C117 O118 1.160 . S
C117 O124 1.185 . S
O118 C117 1.160 . S
O119 Zn120 1.899 . S
O119 C127 1.284 . S
Zn120 O119 1.899 . S
Zn120 O121 2.032 . S
Zn120 O124 2.086 . S
Zn120 O129 1.977 . S
O121 Zn120 2.032 . S
O121 C125 1.278 . S
C122 O123 1.203 . S
C122 O129 1.267 . S
O123 C122 1.203 . S
O124 C117 1.185 . S
O124 Zn120 2.086 . S
C125 O121 1.278 . S
C125 O126 1.211 . S
O126 C125 1.211 . S
C127 O119 1.284 . S
C127 O128 1.273 . S
O128 C127 1.273 . S
O129 Zn120 1.977 . S
O129 C122 1.267 . S
C130 O131 1.160 . S
C130 O137 1.185 . S
O131 C130 1.160 . S
O132 Zn133 1.899 . S
O132 C140 1.284 . S
Zn133 O132 1.899 . S
Zn133 O134 2.032 . S
Zn133 O137 2.086 . S
Zn133 O142 1.977 . S
O134 Zn133 2.032 . S
O134 C138 1.278 . S
C135 O136 1.203 . S
C135 O142 1.267 . S
O136 C135 1.203 . S
O137 C130 1.185 . S
O137 Zn133 2.086 . S
C138 O134 1.278 . S
C138 O139 1.211 . S
O139 C138 1.211 . S
C140 O132 1.284 . S
C140 O141 1.273 . S
O141 C140 1.273 . S
O142 Zn133 1.977 . S
O142 C135 1.267 . S
C143 O144 1.160 . S
C143 O150 1.185 . S
O144 C143 1.160 . S
O145 Zn146 1.899 . S
O145 C153 1.284 . S
Zn146 O145 1.899 . S
Zn146 O147 2.032 . S
Zn146 O150 2.086 . S
Zn146 O155 1.977 . S
O147 Zn146 2.032 . S
O147 C151 1.278 . S
C148 O149 1.203 . S
C148 O155 1.267 . S
O149 C148 1.203 . S
O150 C143 1.185 . S
O150 Zn146 2.086 . S
C151 O147 1.278 . S
C151 O152 1.211 . S
O152 C151 1.211 . S
C153 O145 1.284 . S
C153 O154 1.273 . S
O154 C153 1.273 . S
O155 Zn146 1.977 . S
O155 C148 1.267 . S
C156 O157 1.160 . S
C156 O163 1.185 . S
O157 C156 1.160 . S
O158 Zn159 1.899 . S
O158 C166 1.284 . S
Zn159 O158 1.899 . S
Zn159 O160 2.032 . S
Zn159 O163 2.086 . S
Zn159 O168 1.977 . S
O160 Zn159 2.032 . S
O160 C164 1.278 . S
C161 O162 1.203 . S
C161 O168 1.267 . S
O162 C161 1.203 . S
O163 C156 1.185 . S
O163 Zn159 2.086 . S
C164 O160 1.278 . S
C164 O165 1.211 . S
O165 C164 1.211 . S
C166 O158 1.284 . S
C166 O167 1.273 . S
O167 C166 1.273 . S
O168 Zn159 1.977 . S
O168 C161 1.267 . S
C169 O170 1.160 . S
C169 O176 1.185 . S
O170 C169 1.160 . S
O171 Zn172 1.899 . S
O171 C179 1.284 . S
Zn172 O171 1.899 . S
Zn172 O173 2.032 . S
Zn172 O176 2.086 . S
Zn172 O181 1.977 . S
O173 Zn172 2.032 . S
O173 C177 1.278 . S
C174 O175 1.203 . S
C174 O181 1.267 . S
O175 C174 1.203 . S
O176 C169 1.185 . S
O176 Zn172 2.086 . S
C177 O173 1.278 . S
C177 O178 1.211 . S
O178 C177 1.211 . S
C179 O171 1.284 . S
C179 O180 1.273 . S
O180 C179 1.273 . S
O181 Zn172 1.977 . S
O181 C174 1.267 . S
C182 O183 1.160 . S
C182 O189 1.185 . S
O183 C182 1.160 . S
O184 Zn185 1.899 . S
O184 C192 1.284 . S
Zn185 O184 1.899 . S
Zn185 O186 2.032 . S
Zn185 O189 2.086 . S
Zn185 O194 1.977 . S
O186 Zn185 2.032 . S
O186 C190 1.278 . S
C187 O188 1.203 . S
C187 O194 1.267 . S
O188 C187 1.203 . S
O189 C182 1.185 . S
O189 Zn185 2.086 . S
C190 O186 1.278 . S
C190 O191 1.211 . S
O191 C190 1.211 . S
C192 O184 1.284 . S
C192 O193 1.273 . S
O193 C192 1.273 . S
O194 Zn185 1.977 . S
O194 C187 1.267 . S
C195 O196 1.160 . S
C195 O202 1.185 . S
O196 C195 1.160 . S
O197 Zn198 1.899 . S
O197 C205 1.284 . S
Zn198 O197 1.899 . S
Zn198 O199 2.032 . S
Zn198 O202 2.086 . S
Zn198 O207 1.977 . S
O199 Zn198 2.032 . S
O199 C203 1.278 . S
C200 O201 1.203 . S
C200 O207 1.267 . S
O201 C200 1.203 . S
O202 C195 1.185 . S
O202 Zn198 2.086 . S
C203 O199 1.278 . S
C203 O204 1.211 . S
O204 C203 1.211 . S
C205 O197 1.284 . S
C205 O206 1.273 . S
O206 C205 1.273 . S
O207 Zn198 1.977 . S
O207 C200 1.267 . S
C208 O209 1.160 . S
C208 O215 1.185 . S
O209 C208 1.160 . S
O210 Zn211 1.899 . S
O210 C218 1.284 . S
Zn211 O210 1.899 . S
Zn211 O212 2.032 . S
Zn211 O215 2.086 . S
Zn211 O220 1.977 . S
O212 Zn211 2.032 . S
O212 C216 1.278 . S
C213 O214 1.203 . S
C213 O220 1.267 . S
O214 C213 1.203 . S
O215 C208 1.185 . S
O215 Zn211 2.086 . S
C216 O212 1.278 . S
C216 O217 1.211 . S
O217 C216 1.211 . S
C218 O210 1.284 . S
C218 O219 1.273 . S
O219 C218 1.273 . S
O220 Zn211 1.977 . S
O220 C213 1.267 . S
C221 O222 1.160 . S
C221 O228 1.185 . S
O222 C221 1.160 . S
O223 Zn224 1.899 . S
O223 C231 1.284 . S
Zn224 O223 1.899 . S
Zn224 O225 2.032 . S
Zn224 O228 2.086 . S
Zn224 O233 1.977 . S
O225 Zn224 2.032 . S
O225 C229 1.278 . S
C226 O227 1.203 . S
C226 O233 1.267 . S
O227 C226 1.203 . S
O228 C221 1.185 . S
O228 Zn224 2.086 . S
C229 O225 1.278 . S
C229 O230 1.211 . S
O230 C229 1.211 . S
C231 O223 1.284 . S
C231 O232 1.273 . S
O232 C231 1.273 . S
O233 Zn224 1.977 . S
O233 C226 1.267 . S
C234 O235 1.160 . S
C234 O241 1.185 . S
O235 C234 1.160 . S
O236 Zn237 1.899 . S
O236 C244 1.284 . S
Zn237 O236 1.899 . S
Zn237 O238 2.032 . S
Zn237 O241 2.086 . S
Zn237 O246 1.977 . S
O238 Zn237 2.032 . S
O238 C242 1.278 . S
C239 O240 1.203 . S
C239 O246 1.267 . S
O240 C239 1.203 . S
O241 C234 1.185 . S
O241 Zn237 2.086 . S
C242 O238 1.278 . S
C242 O243 1.211 . S
O243 C242 1.211 . S
C244 O236 1.284 . S
C244 O245 1.273 . S
O245 C244 1.273 . S
O246 Zn237 1.977 . S
O246 C239 1.267 . S
C247 O248 1.160 . S
C247 O254 1.185 . S
O248 C247 1.160 . S
O249 Zn250 1.899 . S
O249 C257 1.284 . S
Zn250 O249 1.899 . S
Zn250 O251 2.032 . S
Zn250 O254 2.086 . S
Zn250 O259 1.977 . S
O251 Zn250 2.032 . S
O251 C255 1.278 . S
C252 O253 1.203 . S
C252 O259 1.267 . S
O253 C252 1.203 . S
O254 C247 1.185 . S
O254 Zn250 2.086 . S
C255 O251 1.278 . S
C255 O256 1.211 . S
O256 C255 1.211 . S
C257 O249 1.284 . S
C257 O258 1.273 . S
O258 C257 1.273 . S
O259 Zn250 1.977 . S
O259 C252 1.267 . S
C260 O261 1.160 . S
C260 O267 1.185 . S
O261 C260 1.160 . S
O262 Zn263 1.899 . S
O262 C270 1.284 . S
Zn263 O262 1.899 . S
Zn263 O264 2.032 . S
Zn263 O267 2.086 . S
Zn263 O272 1.977 . S
O264 Zn263 2.032 . S
O264 C268 1.278 . S
C265 O266 1.203 . S
C265 O272 1.267 . S
O266 C265 1.203 . S
O267 C260 1.185 . S
O267 Zn263 2.086 . S
C268 O264 1.278 . S
C268 O269 1.211 . S
O269 C268 1.211 . S
C270 O262 1.284 . S
C270 O271 1.273 . S
O271 C270 1.273 . S
O272 Zn263 1.977 . S
O272 C265 1.267 . S
C273 O274 1.160 . S
C273 O280 1.185 . S
O274 C273 1.160 . S
O275 Zn276 1.899 . S
O275 C283 1.284 . S
Zn276 O275 1.899 . S
Zn276 O277 2.032 . S
Zn276 O280 2.086 . S
Zn276 O285 1.977 . S
O277 Zn276 2.032 . S
O277 C281 1.278 . S
C278 O279 1.203 . S
C278 O285 1.267 . S
O279 C278 1.203 . S
O280 C273 1.185 . S
O280 Zn276 2.086 . S
C281 O277 1.278 . S
C281 O282 1.211 . S
O282 C281 1.211 . S
C283 O275 1.284 . S
C283 O284 1.273 . S
O284 C283 1.273 . S
O285 Zn276 1.977 . S
O285 C278 1.267 . S
C286 O287 1.160 . S
C286 O293 1.185 . S
O287 C286 1.160 . S
O288 Zn289 1.899 . S
O288 C296 1.284 . S
Zn289 O288 1.899 . S
Zn289 O290 2.032 . S
Zn289 O293 2.086 . S
Zn289 O298 1.977 . S
O290 Zn289 2.032 . S
O290 C294 1.278 . S
C291 O292 1.203 . S
C291 O298 1.267 . S
O292 C291 1.203 . S
O293 C286 1.185 . S
O293 Zn289 2.086 . S
C294 O290 1.278 . S
C294 O295 1.211 . S
O295 C294 1.211 . S
C296 O288 1.284 . S
C296 O297 1.273 . S
O297 C296 1.273 . S
O298 Zn289 1.977 . S
O298 C291 1.267 . S
C299 O300 1.160 . S
C299 O306 1.185 . S
O300 C299 1.160 . S
O301 Zn302 1.899 . S
O301 C309 1.284 . S
Zn302 O301 1.899 . S
Zn302 O303 2.032 . S
Zn302 O306 2.086 . S
Zn302 O311 1.977 . S
O303 Zn302 2.032 . S
O303 C307 1.278 . S
C304 O305 1.203 . S
C304 O311 1.267 . S
O305 C304 1.203 . S
O306 C299 1.185 . S
O306 Zn302 2.086 . S
C307 O303 1.278 . S
C307 O308 1.211 . S
O308 C307 1.211 . S
C309 O301 1.284 . S
C309 O310 1.273 . S
O310 C309 1.273 . S
O311 Zn302 1.977 . S
O311 C304 1.267 . S
C312 C313 1.363 . S
C312 C318 1.379 . S
C312 N320 1.356 . S
C313 C312 1.363 . S
C313 C319 1.363 . S
C314 C315 1.363 . S
C314 C319 1.379 . S
C314 N321 1.356 . S
C315 C314 1.363 . S
C315 C318 1.363 . S
N316 C318 1.356 . S
N316 H328 0.984 . S
N316 H329 0.985 . S
N317 C319 1.356 . S
N317 H322 0.984 . S
N317 H323 0.985 . S
C318 C312 1.379 . S
C318 C315 1.363 . S
C318 N316 1.356 . S
C319 C313 1.363 . S
C319 C314 1.379 . S
C319 N317 1.356 . S
N320 C312 1.356 . S
N320 H326 0.984 . S
N320 H327 0.984 . S
N321 C314 1.356 . S
N321 H324 0.984 . S
N321 H325 0.985 . S
H322 N317 0.984 . S
H323 N317 0.985 . S
H324 N321 0.984 . S
H325 N321 0.985 . S
H326 N320 0.984 . S
H327 N320 0.984 . S
H328 N316 0.984 . S
H329 N316 0.985 . S
C330 C331 1.363 . S
C330 C336 1.379 . S
C330 N338 1.356 . S
C331 C330 1.363 . S
C331 C337 1.363 . S
C332 C333 1.363 . S
C332 C337 1.379 . S
C332 N339 1.356 . S
C333 C332 1.363 . S
C333 C336 1.363 . S
N334 C336 1.356 . S
N334 H346 0.984 . S
N334 H347 0.985 . S
N335 C337 1.356 . S
N335 H340 0.984 . S
N335 H341 0.985 . S
C336 C330 1.379 . S
C336 C333 1.363 . S
C336 N334 1.356 . S
C337 C331 1.363 . S
C337 C332 1.379 . S
C337 N335 1.356 . S
N338 C330 1.356 . S
N338 H344 0.984 . S
N338 H345 0.984 . S
N339 C332 1.356 . S
N339 H342 0.984 . S
N339 H343 0.985 . S
H340 N335 0.984 . S
H341 N335 0.985 . S
H342 N339 0.984 . S
H343 N339 0.985 . S
H344 N338 0.984 . S
H345 N338 0.984 . S
H346 N334 0.984 . S
H347 N334 0.985 . S
C348 C349 1.363 . S
C348 C354 1.379 . S
C348 N356 1.356 . S
C349 C348 1.363 . S
C349 C355 1.363 . S
C350 C351 1.363 . S
C350 C355 1.379 . S
C350 N357 1.356 . S
C351 C350 1.363 . S
C351 C354 1.363 . S
N352 C354 1.356 . S
N352 H364 0.984 . S
N352 H365 0.985 . S
N353 C355 1.356 . S
N353 H358 0.984 . S
N353 H359 0.985 . S
C354 C348 1.379 . S
C354 C351 1.363 . S
C354 N352 1.356 . S
C355 C349 1.363 . S
C355 C350 1.379 . S
C355 N353 1.356 . S
N356 C348 1.356 . S
N356 H362 0.984 . S
N356 H363 0.984 . S
N357 C350 1.356 . S
N357 H360 0.984 . S
N357 H361 0.985 . S
H358 N353 0.984 . S
H359 N353 0.985 . S
H360 N357 0.984 . S
H361 N357 0.985 . S
H362 N356 0.984 . S
H363 N356 0.984 . S
H364 N352 0.984 . S
H365 N352 0.985 . S
C366 C367 1.363 . S
C366 C372 1.379 . S
C366 N374 1.356 . S
C367 C366 1.363 . S
C367 C373 1.363 . S
C368 C369 1.363 . S
C368 C373 1.379 . S
C368 N375 1.356 . S
C369 C368 1.363 . S
C369 C372 1.363 . S
N370 C372 1.356 . S
N370 H382 0.984 . S
N370 H383 0.985 . S
N371 C373 1.356 . S
N371 H376 0.984 . S
N371 H377 0.985 . S
C372 C366 1.379 . S
C372 C369 1.363 . S
C372 N370 1.356 . S
C373 C367 1.363 . S
C373 C368 1.379 . S
C373 N371 1.356 . S
N374 C366 1.356 . S
N374 H380 0.984 . S
N374 H381 0.984 . S
N375 C368 1.356 . S
N375 H378 0.984 . S
N375 H379 0.985 . S
H376 N371 0.984 . S
H377 N371 0.985 . S
H378 N375 0.984 . S
H379 N375 0.985 . S
H380 N374 0.984 . S
H381 N374 0.984 . S
H382 N370 0.984 . S
H383 N370 0.985 . S
C384 C385 1.363 . S
C384 C390 1.379 . S
C384 N392 1.356 . S
C385 C384 1.363 . S
C385 C391 1.363 . S
C386 C387 1.363 . S
C386 C391 1.379 . S
C386 N393 1.356 . S
C387 C386 1.363 . S
C387 C390 1.363 . S
N388 C390 1.356 . S
N388 H400 0.984 . S
N388 H401 0.985 . S
N389 C391 1.356 . S
N389 H394 0.984 . S
N389 H395 0.985 . S
C390 C384 1.379 . S
C390 C387 1.363 . S
C390 N388 1.356 . S
C391 C385 1.363 . S
C391 C386 1.379 . S
C391 N389 1.356 . S
N392 C384 1.356 . S
N392 H398 0.984 . S
N392 H399 0.984 . S
N393 C386 1.356 . S
N393 H396 0.984 . S
N393 H397 0.985 . S
H394 N389 0.984 . S
H395 N389 0.985 . S
H396 N393 0.984 . S
H397 N393 0.985 . S
H398 N392 0.984 . S
H399 N392 0.984 . S
H400 N388 0.984 . S
H401 N388 0.985 . S
C402 C403 1.363 . S
C402 C408 1.379 . S
C402 N410 1.356 . S
C403 C402 1.363 . S
C403 C409 1.363 . S
C404 C405 1.363 . S
C404 C409 1.379 . S
C404 N411 1.356 . S
C405 C404 1.363 . S
C405 C408 1.363 . S
N406 C408 1.356 . S
N406 H418 0.984 . S
N406 H419 0.985 . S
N407 C409 1.356 . S
N407 H412 0.984 . S
N407 H413 0.985 . S
C408 C402 1.379 . S
C408 C405 1.363 . S
C408 N406 1.356 . S
C409 C403 1.363 . S
C409 C404 1.379 . S
C409 N407 1.356 . S
N410 C402 1.356 . S
N410 H416 0.984 . S
N410 H417 0.984 . S
N411 C404 1.356 . S
N411 H414 0.984 . S
N411 H415 0.985 . S
H412 N407 0.984 . S
H413 N407 0.985 . S
H414 N411 0.984 . S
H415 N411 0.985 . S
H416 N410 0.984 . S
H417 N410 0.984 . S
H418 N406 0.984 . S
H419 N406 0.985 . S
C420 C421 1.363 . S
C420 C426 1.379 . S
C420 N428 1.356 . S
C421 C420 1.363 . S
C421 C427 1.363 . S
C422 C423 1.363 . S
C422 C427 1.379 . S
C422 N429 1.356 . S
C423 C422 1.363 . S
C423 C426 1.363 . S
N424 C426 1.356 . S
N424 H436 0.984 . S
N424 H437 0.985 . S
N425 C427 1.356 . S
N425 H430 0.984 . S
N425 H431 0.985 . S
C426 C420 1.379 . S
C426 C423 1.363 . S
C426 N424 1.356 . S
C427 C421 1.363 . S
C427 C422 1.379 . S
C427 N425 1.356 . S
N428 C420 1.356 . S
N428 H434 0.984 . S
N428 H435 0.984 . S
N429 C422 1.356 . S
N429 H432 0.984 . S
N429 H433 0.985 . S
H430 N425 0.984 . S
H431 N425 0.985 . S
H432 N429 0.984 . S
H433 N429 0.985 . S
H434 N428 0.984 . S
H435 N428 0.984 . S
H436 N424 0.984 . S
H437 N424 0.985 . S
C438 C439 1.363 . S
C438 C444 1.379 . S
C438 N446 1.356 . S
C439 C438 1.363 . S
C439 C445 1.363 . S
C440 C441 1.363 . S
C440 C445 1.379 . S
C440 N447 1.356 . S
C441 C440 1.363 . S
C441 C444 1.363 . S
N442 C444 1.356 . S
N442 H454 0.984 . S
N442 H455 0.985 . S
N443 C445 1.356 . S
N443 H448 0.984 . S
N443 H449 0.985 . S
C444 C438 1.379 . S
C444 C441 1.363 . S
C444 N442 1.356 . S
C445 C439 1.363 . S
C445 C440 1.379 . S
C445 N443 1.356 . S
N446 C438 1.356 . S
N446 H452 0.984 . S
N446 H453 0.984 . S
N447 C440 1.356 . S
N447 H450 0.984 . S
N447 H451 0.985 . S
H448 N443 0.984 . S
H449 N443 0.985 . S
H450 N447 0.984 . S
H451 N447 0.985 . S
H452 N446 0.984 . S
H453 N446 0.984 . S
H454 N442 0.984 . S
H455 N442 0.985 . S
C456 C457 1.363 . S
C456 C462 1.379 . S
C456 N464 1.356 . S
C457 C456 1.363 . S
C457 C463 1.363 . S
C458 C459 1.363 . S
C458 C463 1.379 . S
C458 N465 1.356 . S
C459 C458 1.363 . S
C459 C462 1.363 . S
N460 C462 1.356 . S
N460 H472 0.984 . S
N460 H473 0.985 . S
N461 C463 1.356 . S
N461 H466 0.984 . S
N461 H467 0.985 . S
C462 C456 1.379 . S
C462 C459 1.363 . S
C462 N460 1.356 . S
C463 C457 1.363 . S
C463 C458 1.379 . S
C463 N461 1.356 . S
N464 C456 1.356 . S
N464 H470 0.984 . S
N464 H471 0.984 . S
N465 C458 1.356 . S
N465 H468 0.984 . S
N465 H469 0.985 . S
H466 N461 0.984 . S
H467 N461 0.985 . S
H468 N465 0.984 . S
H469 N465 0.985 . S
H470 N464 0.984 . S
H471 N464 0.984 . S
H472 N460 0.984 . S
H473 N460 0.985 . S
C474 C475 1.363 . S
C474 C480 1.379 . S
C474 N482 1.356 . S
C475 C474 1.363 . S
C475 C481 1.363 . S
C476 C477 1.363 . S
C476 C481 1.379 . S
C476 N483 1.356 . S
C477 C476 1.363 . S
C477 C480 1.363 . S
N478 C480 1.356 . S
N478 H490 0.984 . S
N478 H491 0.985 . S
N479 C481 1.356 . S
N479 H484 0.984 . S
N479 H485 0.985 . S
C480 C474 1.379 . S
C480 C477 1.363 . S
C480 N478 1.356 . S
C481 C475 1.363 . S
C481 C476 1.379 . S
C481 N479 1.356 . S
N482 C474 1.356 . S
N482 H488 0.984 . S
N482 H489 0.984 . S
N483 C476 1.356 . S
N483 H486 0.984 . S
N483 H487 0.985 . S
H484 N479 0.984 . S
H485 N479 0.985 . S
H486 N483 0.984 . S
H487 N483 0.985 . S
H488 N482 0.984 . S
H489 N482 0.984 . S
H490 N478 0.984 . S
H491 N478 0.985 . S
C492 C493 1.363 . S
C492 C498 1.379 . S
C492 N500 1.356 . S
C493 C492 1.363 . S
C493 C499 1.363 . S
C494 C495 1.363 . S
C494 C499 1.379 . S
C494 N501 1.356 . S
C495 C494 1.363 . S
C495 C498 1.363 . S
N496 C498 1.356 . S
N496 H508 0.984 . S
N496 H509 0.985 . S
N497 C499 1.356 . S
N497 H502 0.984 . S
N497 H503 0.985 . S
C498 C492 1.379 . S
C498 C495 1.363 . S
C498 N496 1.356 . S
C499 C493 1.363 . S
C499 C494 1.379 . S
C499 N497 1.356 . S
N500 C492 1.356 . S
N500 H506 0.984 . S
N500 H507 0.984 . S
N501 C494 1.356 . S
N501 H504 0.984 . S
N501 H505 0.985 . S
H502 N497 0.984 . S
H503 N497 0.985 . S
H504 N501 0.984 . S
H505 N501 0.985 . S
H506 N500 0.984 . S
H507 N500 0.984 . S
H508 N496 0.984 . S
H509 N496 0.985 . S
C510 C511 1.363 . S
C510 C516 1.379 . S
C510 N518 1.356 . S
C511 C510 1.363 . S
C511 C517 1.363 . S
C512 C513 1.363 . S
C512 C517 1.379 . S
C512 N519 1.356 . S
C513 C512 1.363 . S
C513 C516 1.363 . S
N514 C516 1.356 . S
N514 H526 0.984 . S
N514 H527 0.985 . S
N515 C517 1.356 . S
N515 H520 0.984 . S
N515 H521 0.985 . S
C516 C510 1.379 . S
C516 C513 1.363 . S
C516 N514 1.356 . S
C517 C511 1.363 . S
C517 C512 1.379 . S
C517 N515 1.356 . S
N518 C510 1.356 . S
N518 H524 0.984 . S
N518 H525 0.984 . S
N519 C512 1.356 . S
N519 H522 0.984 . S
N519 H523 0.985 . S
H520 N515 0.984 . S
H521 N515 0.985 . S
H522 N519 0.984 . S
H523 N519 0.985 . S
H524 N518 0.984 . S
H525 N518 0.984 . S
H526 N514 0.984 . S
H527 N514 0.985 . S
C528 C529 1.363 1_554 S
C528 C534 1.379 . S
C528 N536 1.356 . S
C529 C528 1.363 1_556 S
C529 C535 1.363 . S
C530 C531 1.363 1_556 S
C530 C535 1.379 . S
C530 N537 1.356 . S
C531 C530 1.363 1_554 S
C531 C534 1.363 . S
N532 C534 1.356 . S
N532 H544 0.984 . S
N532 H545 0.985 . S
N533 C535 1.356 . S
N533 H538 0.984 . S
N533 H539 0.985 . S
C534 C528 1.379 . S
C534 C531 1.363 . S
C534 N532 1.356 . S
C535 C529 1.363 . S
C535 C530 1.379 . S
C535 N533 1.356 . S
N536 C528 1.356 . S
N536 H542 0.984 . S
N536 H543 0.984 . S
N537 C530 1.356 . S
N537 H540 0.984 . S
N537 H541 0.985 . S
H538 N533 0.984 . S
H539 N533 0.985 . S
H540 N537 0.984 . S
H541 N537 0.985 . S
H542 N536 0.984 . S
H543 N536 0.984 . S
H544 N532 0.984 . S
H545 N532 0.985 . S
C546 C547 1.363 . S
C546 C552 1.379 . S
C546 N554 1.356 . S
C547 C546 1.363 . S
C547 C553 1.363 . S
C548 C549 1.363 . S
C548 C553 1.379 . S
C548 N555 1.356 . S
C549 C548 1.363 . S
C549 C552 1.363 . S
N550 C552 1.356 . S
N550 H562 0.984 . S
N550 H563 0.985 . S
N551 C553 1.356 . S
N551 H556 0.984 . S
N551 H557 0.985 . S
C552 C546 1.379 . S
C552 C549 1.363 . S
C552 N550 1.356 . S
C553 C547 1.363 . S
C553 C548 1.379 . S
C553 N551 1.356 . S
N554 C546 1.356 . S
N554 H560 0.984 . S
N554 H561 0.984 . S
N555 C548 1.356 . S
N555 H558 0.984 . S
N555 H559 0.985 . S
H556 N551 0.984 . S
H557 N551 0.985 . S
H558 N555 0.984 . S
H559 N555 0.985 . S
H560 N554 0.984 . S
H561 N554 0.984 . S
H562 N550 0.984 . S
H563 N550 0.985 . S
C564 C565 1.363 1_556 S
C564 C570 1.379 . S
C564 N572 1.356 . S
C565 C564 1.363 1_554 S
C565 C571 1.363 . S
C566 C567 1.363 1_554 S
C566 C571 1.379 . S
C566 N573 1.356 . S
C567 C566 1.363 1_556 S
C567 C570 1.363 . S
N568 C570 1.356 . S
N568 H580 0.984 . S
N568 H581 0.985 . S
N569 C571 1.356 . S
N569 H574 0.984 . S
N569 H575 0.985 . S
C570 C564 1.379 . S
C570 C567 1.363 . S
C570 N568 1.356 . S
C571 C565 1.363 . S
C571 C566 1.379 . S
C571 N569 1.356 . S
N572 C564 1.356 . S
N572 H578 0.984 . S
N572 H579 0.984 . S
N573 C566 1.356 . S
N573 H576 0.984 . S
N573 H577 0.985 . S
H574 N569 0.984 . S
H575 N569 0.985 . S
H576 N573 0.984 . S
H577 N573 0.985 . S
H578 N572 0.984 . S
H579 N572 0.984 . S
H580 N568 0.984 . S
H581 N568 0.985 . S
C582 C583 1.363 . S
C582 C588 1.379 . S
C582 N590 1.356 . S
C583 C582 1.363 . S
C583 C589 1.363 . S
C584 C585 1.363 . S
C584 C589 1.379 . S
C584 N591 1.356 . S
C585 C584 1.363 . S
C585 C588 1.363 . S
N586 C588 1.356 . S
N586 H598 0.984 . S
N586 H599 0.985 . S
N587 C589 1.356 . S
N587 H592 0.984 . S
N587 H593 0.985 . S
C588 C582 1.379 . S
C588 C585 1.363 . S
C588 N586 1.356 . S
C589 C583 1.363 . S
C589 C584 1.379 . S
C589 N587 1.356 . S
N590 C582 1.356 . S
N590 H596 0.984 . S
N590 H597 0.984 . S
N591 C584 1.356 . S
N591 H594 0.984 . S
N591 H595 0.985 . S
H592 N587 0.984 . S
H593 N587 0.985 . S
H594 N591 0.984 . S
H595 N591 0.985 . S
H596 N590 0.984 . S
H597 N590 0.984 . S
H598 N586 0.984 . S
H599 N586 0.985 . S
C600 C601 1.363 . S
C600 C606 1.379 . S
C600 N608 1.356 . S
C601 C600 1.363 . S
C601 C607 1.363 1_556 S
C602 C603 1.363 . S
C602 C607 1.379 . S
C602 N609 1.356 . S
C603 C602 1.363 . S
C603 C606 1.363 1_554 S
N604 C606 1.356 . S
N604 H616 0.984 . S
N604 H617 0.985 . S
N605 C607 1.356 . S
N605 H610 0.984 . S
N605 H611 0.985 . S
C606 C600 1.379 . S
C606 C603 1.363 1_556 S
C606 N604 1.356 . S
C607 C601 1.363 1_554 S
C607 C602 1.379 . S
C607 N605 1.356 . S
N608 C600 1.356 . S
N608 H614 0.984 . S
N608 H615 0.984 . S
N609 C602 1.356 . S
N609 H612 0.984 . S
N609 H613 0.985 . S
H610 N605 0.984 . S
H611 N605 0.985 . S
H612 N609 0.984 . S
H613 N609 0.985 . S
H614 N608 0.984 . S
H615 N608 0.984 . S
H616 N604 0.984 . S
H617 N604 0.985 . S
C618 C619 1.363 . S
C618 C624 1.379 . S
C618 N626 1.356 . S
C619 C618 1.363 . S
C619 C625 1.363 . S
C620 C621 1.363 . S
C620 C625 1.379 . S
C620 N627 1.356 . S
C621 C620 1.363 . S
C621 C624 1.363 . S
N622 C624 1.356 . S
N622 H634 0.984 . S
N622 H635 0.985 . S
N623 C625 1.356 . S
N623 H628 0.984 . S
N623 H629 0.985 . S
C624 C618 1.379 . S
C624 C621 1.363 . S
C624 N622 1.356 . S
C625 C619 1.363 . S
C625 C620 1.379 . S
C625 N623 1.356 . S
N626 C618 1.356 . S
N626 H632 0.984 . S
N626 H633 0.984 . S
N627 C620 1.356 . S
N627 H630 0.984 . S
N627 H631 0.985 . S
H628 N623 0.984 . S
H629 N623 0.985 . S
H630 N627 0.984 . S
H631 N627 0.985 . S
H632 N626 0.984 . S
H633 N626 0.984 . S
H634 N622 0.984 . S
H635 N622 0.985 . S
C636 C637 1.363 . S
C636 C642 1.379 . S
C636 N644 1.356 . S
C637 C636 1.363 . S
C637 C643 1.363 1_554 S
C638 C639 1.363 . S
C638 C643 1.379 . S
C638 N645 1.356 . S
C639 C638 1.363 . S
C639 C642 1.363 1_556 S
N640 C642 1.356 . S
N640 H652 0.984 . S
N640 H653 0.985 . S
N641 C643 1.356 . S
N641 H646 0.984 . S
N641 H647 0.985 . S
C642 C636 1.379 . S
C642 C639 1.363 1_554 S
C642 N640 1.356 . S
C643 C637 1.363 1_556 S
C643 C638 1.379 . S
C643 N641 1.356 . S
N644 C636 1.356 . S
N644 H650 0.984 . S
N644 H651 0.984 . S
N645 C638 1.356 . S
N645 H648 0.984 . S
N645 H649 0.985 . S
H646 N641 0.984 . S
H647 N641 0.985 . S
H648 N645 0.984 . S
H649 N645 0.985 . S
H650 N644 0.984 . S
H651 N644 0.984 . S
H652 N640 0.984 . S
H653 N640 0.985 . S
C654 C655 1.363 . S
C654 C660 1.379 . S
C654 N662 1.356 . S
C655 C654 1.363 . S
C655 C661 1.363 . S
C656 C657 1.363 . S
C656 C661 1.379 . S
C656 N663 1.356 . S
C657 C656 1.363 . S
C657 C660 1.363 . S
N658 C660 1.356 . S
N658 H670 0.984 . S
N658 H671 0.985 . S
N659 C661 1.356 . S
N659 H664 0.984 . S
N659 H665 0.985 . S
C660 C654 1.379 . S
C660 C657 1.363 . S
C660 N658 1.356 . S
C661 C655 1.363 . S
C661 C656 1.379 . S
C661 N659 1.356 . S
N662 C654 1.356 . S
N662 H668 0.984 . S
N662 H669 0.984 . S
N663 C656 1.356 . S
N663 H666 0.984 . S
N663 H667 0.985 . S
H664 N659 0.984 . S
H665 N659 0.985 . S
H666 N663 0.984 . S
H667 N663 0.985 . S
H668 N662 0.984 . S
H669 N662 0.984 . S
H670 N658 0.984 . S
H671 N658 0.985 . S
C672 C673 1.363 1_554 S
C672 C678 1.379 . S
C672 N680 1.356 . S
C673 C672 1.363 1_556 S
C673 C679 1.363 . S
C674 C675 1.363 1_556 S
C674 C679 1.379 . S
C674 N681 1.356 . S
C675 C674 1.363 1_554 S
C675 C678 1.363 . S
N676 C678 1.356 . S
N676 H688 0.984 . S
N676 H689 0.985 . S
N677 C679 1.356 . S
N677 H682 0.984 . S
N677 H683 0.985 . S
C678 C672 1.379 . S
C678 C675 1.363 . S
C678 N676 1.356 . S
C679 C673 1.363 . S
C679 C674 1.379 . S
C679 N677 1.356 . S
N680 C672 1.356 . S
N680 H686 0.984 . S
N680 H687 0.984 . S
N681 C674 1.356 . S
N681 H684 0.984 . S
N681 H685 0.985 . S
H682 N677 0.984 . S
H683 N677 0.985 . S
H684 N681 0.984 . S
H685 N681 0.985 . S
H686 N680 0.984 . S
H687 N680 0.984 . S
H688 N676 0.984 . S
H689 N676 0.985 . S
C690 C691 1.363 . S
C690 C696 1.379 . S
C690 N698 1.356 . S
C691 C690 1.363 . S
C691 C697 1.363 . S
C692 C693 1.363 . S
C692 C697 1.379 . S
C692 N699 1.356 . S
C693 C692 1.363 . S
C693 C696 1.363 . S
N694 C696 1.356 . S
N694 H706 0.984 . S
N694 H707 0.985 . S
N695 C697 1.356 . S
N695 H700 0.984 . S
N695 H701 0.985 . S
C696 C690 1.379 . S
C696 C693 1.363 . S
C696 N694 1.356 . S
C697 C691 1.363 . S
C697 C692 1.379 . S
C697 N695 1.356 . S
N698 C690 1.356 . S
N698 H704 0.984 . S
N698 H705 0.984 . S
N699 C692 1.356 . S
N699 H702 0.984 . S
N699 H703 0.985 . S
H700 N695 0.984 . S
H701 N695 0.985 . S
H702 N699 0.984 . S
H703 N699 0.985 . S
H704 N698 0.984 . S
H705 N698 0.984 . S
H706 N694 0.984 . S
H707 N694 0.985 . S
C708 C709 1.363 . S
C708 C714 1.379 1_556 S
C708 N716 1.356 . S
C709 C708 1.363 . S
C709 C715 1.363 . S
C710 C711 1.363 . S
C710 C715 1.379 1_554 S
C710 N717 1.356 . S
C711 C710 1.363 . S
C711 C714 1.363 . S
N712 C714 1.356 . S
N712 H724 0.984 . S
N712 H725 0.985 . S
N713 C715 1.356 . S
N713 H718 0.984 . S
N713 H719 0.985 . S
C714 C708 1.379 1_554 S
C714 C711 1.363 . S
C714 N712 1.356 . S
C715 C709 1.363 . S
C715 C710 1.379 1_556 S
C715 N713 1.356 . S
N716 C708 1.356 . S
N716 H722 0.984 . S
N716 H723 0.984 . S
N717 C710 1.356 . S
N717 H720 0.984 . S
N717 H721 0.985 . S
H718 N713 0.984 . S
H719 N713 0.985 . S
H720 N717 0.984 . S
H721 N717 0.985 . S
H722 N716 0.984 . S
H723 N716 0.984 . S
H724 N712 0.984 . S
H725 N712 0.985 . S
C726 C727 1.363 . S
C726 C732 1.379 . S
C726 N734 1.356 . S
C727 C726 1.363 . S
C727 C733 1.363 . S
C728 C729 1.363 . S
C728 C733 1.379 . S
C728 N735 1.356 . S
C729 C728 1.363 . S
C729 C732 1.363 . S
N730 C732 1.356 . S
N730 H742 0.984 . S
N730 H743 0.985 . S
N731 C733 1.356 . S
N731 H736 0.984 . S
N731 H737 0.985 . S
C732 C726 1.379 . S
C732 C729 1.363 . S
C732 N730 1.356 . S
C733 C727 1.363 . S
C733 C728 1.379 . S
C733 N731 1.356 . S
N734 C726 1.356 . S
N734 H740 0.984 . S
N734 H741 0.984 . S
N735 C728 1.356 . S
N735 H738 0.984 . S
N735 H739 0.985 . S
H736 N731 0.984 . S
H737 N731 0.985 . S
H738 N735 0.984 . S
H739 N735 0.985 . S
H740 N734 0.984 . S
H741 N734 0.984 . S
H742 N730 0.984 . S
H743 N730 0.985 . S
C744 C745 1.363 . S
C744 C750 1.379 . S
C744 N752 1.356 . S
C745 C744 1.363 . S
C745 C751 1.363 . S
C746 C747 1.363 . S
C746 C751 1.379 . S
C746 N753 1.356 . S
C747 C746 1.363 . S
C747 C750 1.363 . S
N748 C750 1.356 . S
N748 H760 0.984 . S
N748 H761 0.985 . S
N749 C751 1.356 . S
N749 H754 0.984 . S
N749 H755 0.985 1_554 S
C750 C744 1.379 . S
C750 C747 1.363 . S
C750 N748 1.356 . S
C751 C745 1.363 . S
C751 C746 1.379 . S
C751 N749 1.356 . S
N752 C744 1.356 . S
N752 H758 0.984 . S
N752 H759 0.984 . S
N753 C746 1.356 . S
N753 H756 0.984 . S
N753 H757 0.985 1_554 S
H754 N749 0.984 . S
H755 N749 0.985 1_556 S
H756 N753 0.984 . S
H757 N753 0.985 1_556 S
H758 N752 0.984 . S
H759 N752 0.984 . S
H760 N748 0.984 . S
H761 N748 0.985 . S
C762 C763 1.363 . S
C762 C768 1.379 1_455 S
C762 N770 1.356 . S
C763 C762 1.363 . S
C763 C769 1.363 . S
C764 C765 1.363 . S
C764 C769 1.379 1_655 S
C764 N771 1.356 . S
C765 C764 1.363 . S
C765 C768 1.363 . S
N766 C768 1.356 . S
N766 H778 0.984 . S
N766 H779 0.985 . S
N767 C769 1.356 . S
N767 H772 0.984 . S
N767 H773 0.985 . S
C768 C762 1.379 1_655 S
C768 C765 1.363 . S
C768 N766 1.356 . S
C769 C763 1.363 . S
C769 C764 1.379 1_455 S
C769 N767 1.356 . S
N770 C762 1.356 . S
N770 H776 0.984 . S
N770 H777 0.984 . S
N771 C764 1.356 . S
N771 H774 0.984 . S
N771 H775 0.985 . S
H772 N767 0.984 . S
H773 N767 0.985 . S
H774 N771 0.984 . S
H775 N771 0.985 . S
H776 N770 0.984 . S
H777 N770 0.984 . S
H778 N766 0.984 . S
H779 N766 0.985 . S
C780 C781 1.363 . S
C780 C786 1.379 1_565 S
C780 N788 1.356 . S
C781 C780 1.363 . S
C781 C787 1.363 . S
C782 C783 1.363 . S
C782 C787 1.379 1_545 S
C782 N789 1.356 . S
C783 C782 1.363 . S
C783 C786 1.363 . S
N784 C786 1.356 . S
N784 H796 0.984 1_554 S
N784 H797 0.985 . S
N785 C787 1.356 . S
N785 H790 0.984 . S
N785 H791 0.985 . S
C786 C780 1.379 1_545 S
C786 C783 1.363 . S
C786 N784 1.356 . S
C787 C781 1.363 . S
C787 C782 1.379 1_565 S
C787 N785 1.356 . S
N788 C780 1.356 . S
N788 H794 0.984 1_554 S
N788 H795 0.984 . S
N789 C782 1.356 . S
N789 H792 0.984 . S
N789 H793 0.985 . S
H790 N785 0.984 . S
H791 N785 0.985 . S
H792 N789 0.984 . S
H793 N789 0.985 . S
H794 N788 0.984 1_556 S
H795 N788 0.984 . S
H796 N784 0.984 1_556 S
H797 N784 0.985 . S
C798 C799 1.363 . S
C798 C804 1.379 . S
C798 N806 1.356 . S
C799 C798 1.363 . S
C799 C805 1.363 . S
C800 C801 1.363 . S
C800 C805 1.379 . S
C800 N807 1.356 . S
C801 C800 1.363 . S
C801 C804 1.363 . S
N802 C804 1.356 . S
N802 H814 0.984 . S
N802 H815 0.985 . S
N803 C805 1.356 . S
N803 H808 0.984 . S
N803 H809 0.985 . S
C804 C798 1.379 . S
C804 C801 1.363 . S
C804 N802 1.356 . S
C805 C799 1.363 . S
C805 C800 1.379 . S
C805 N803 1.356 . S
N806 C798 1.356 . S
N806 H812 0.984 . S
N806 H813 0.984 . S
N807 C800 1.356 . S
N807 H810 0.984 . S
N807 H811 0.985 . S
H808 N803 0.984 . S
H809 N803 0.985 . S
H810 N807 0.984 . S
H811 N807 0.985 . S
H812 N806 0.984 . S
H813 N806 0.984 . S
H814 N802 0.984 . S
H815 N802 0.985 . S
C816 C817 1.363 . S
C816 C822 1.379 1_655 S
C816 N824 1.356 . S
C817 C816 1.363 . S
C817 C823 1.363 . S
C818 C819 1.363 . S
C818 C823 1.379 1_455 S
C818 N825 1.356 . S
C819 C818 1.363 . S
C819 C822 1.363 . S
N820 C822 1.356 . S
N820 H832 0.984 . S
N820 H833 0.985 . S
N821 C823 1.356 . S
N821 H826 0.984 . S
N821 H827 0.985 1_554 S
C822 C816 1.379 1_455 S
C822 C819 1.363 . S
C822 N820 1.356 . S
C823 C817 1.363 . S
C823 C818 1.379 1_655 S
C823 N821 1.356 . S
N824 C816 1.356 . S
N824 H830 0.984 . S
N824 H831 0.984 . S
N825 C818 1.356 . S
N825 H828 0.984 . S
N825 H829 0.985 1_554 S
H826 N821 0.984 . S
H827 N821 0.985 1_556 S
H828 N825 0.984 . S
H829 N825 0.985 1_556 S
H830 N824 0.984 . S
H831 N824 0.984 . S
H832 N820 0.984 . S
H833 N820 0.985 . S
C834 C835 1.363 . S
C834 C840 1.379 1_545 S
C834 N842 1.356 . S
C835 C834 1.363 . S
C835 C841 1.363 . S
C836 C837 1.363 . S
C836 C841 1.379 1_565 S
C836 N843 1.356 . S
C837 C836 1.363 . S
C837 C840 1.363 . S
N838 C840 1.356 . S
N838 H850 0.984 . S
N838 H851 0.985 . S
N839 C841 1.356 . S
N839 H844 0.984 . S
N839 H845 0.985 . S
C840 C834 1.379 1_565 S
C840 C837 1.363 . S
C840 N838 1.356 . S
C841 C835 1.363 . S
C841 C836 1.379 1_545 S
C841 N839 1.356 . S
N842 C834 1.356 . S
N842 H848 0.984 . S
N842 H849 0.984 . S
N843 C836 1.356 . S
N843 H846 0.984 . S
N843 H847 0.985 . S
H844 N839 0.984 . S
H845 N839 0.985 . S
H846 N843 0.984 . S
H847 N843 0.985 . S
H848 N842 0.984 . S
H849 N842 0.984 . S
H850 N838 0.984 . S
H851 N838 0.985 . S
C852 C853 1.363 . S
C852 C858 1.379 . S
C852 N860 1.356 . S
C853 C852 1.363 . S
C853 C859 1.363 . S
C854 C855 1.363 . S
C854 C859 1.379 . S
C854 N861 1.356 . S
C855 C854 1.363 . S
C855 C858 1.363 . S
N856 C858 1.356 . S
N856 H868 0.984 1_556 S
N856 H869 0.985 . S
N857 C859 1.356 . S
N857 H862 0.984 . S
N857 H863 0.985 . S
C858 C852 1.379 . S
C858 C855 1.363 . S
C858 N856 1.356 . S
C859 C853 1.363 . S
C859 C854 1.379 . S
C859 N857 1.356 . S
N860 C852 1.356 . S
N860 H866 0.984 1_556 S
N860 H867 0.984 . S
N861 C854 1.356 . S
N861 H864 0.984 . S
N861 H865 0.985 . S
H862 N857 0.984 . S
H863 N857 0.985 . S
H864 N861 0.984 . S
H865 N861 0.985 . S
H866 N860 0.984 1_554 S
H867 N860 0.984 . S
H868 N856 0.984 1_554 S
H869 N856 0.985 . S
C870 C871 1.363 . S
C870 C876 1.379 1_655 S
C870 N878 1.356 . S
C871 C870 1.363 . S
C871 C877 1.363 . S
C872 C873 1.363 . S
C872 C877 1.379 1_455 S
C872 N879 1.356 . S
C873 C872 1.363 . S
C873 C876 1.363 . S
N874 C876 1.356 . S
N874 H886 0.984 . S
N874 H887 0.985 . S
N875 C877 1.356 . S
N875 H880 0.984 . S
N875 H881 0.985 . S
C876 C870 1.379 1_455 S
C876 C873 1.363 . S
C876 N874 1.356 . S
C877 C871 1.363 . S
C877 C872 1.379 1_655 S
C877 N875 1.356 . S
N878 C870 1.356 . S
N878 H884 0.984 . S
N878 H885 0.984 . S
N879 C872 1.356 . S
N879 H882 0.984 . S
N879 H883 0.985 . S
H880 N875 0.984 . S
H881 N875 0.985 . S
H882 N879 0.984 . S
H883 N879 0.985 . S
H884 N878 0.984 . S
H885 N878 0.984 . S
H886 N874 0.984 . S
H887 N874 0.985 . S
C888 C889 1.363 . S
C888 C894 1.379 1_545 S
C888 N896 1.356 . S
C889 C888 1.363 . S
C889 C895 1.363 . S
C890 C891 1.363 . S
C890 C895 1.379 1_565 S
C890 N897 1.356 . S
C891 C890 1.363 . S
C891 C894 1.363 . S
N892 C894 1.356 . S
N892 H904 0.984 . S
N892 H905 0.985 . S
N893 C895 1.356 . S
N893 H898 0.984 . S
N893 H899 0.985 1_556 S
C894 C888 1.379 1_565 S
C894 C891 1.363 . S
C894 N892 1.356 . S
C895 C889 1.363 . S
C895 C890 1.379 1_545 S
C895 N893 1.356 . S
N896 C888 1.356 . S
N896 H902 0.984 . S
N896 H903 0.984 . S
N897 C890 1.356 . S
N897 H900 0.984 . S
N897 H901 0.985 1_556 S
H898 N893 0.984 . S
H899 N893 0.985 1_554 S
H900 N897 0.984 . S
H901 N897 0.985 1_554 S
H902 N896 0.984 . S
H903 N896 0.984 . S
H904 N892 0.984 . S
H905 N892 0.985 . S
C906 C907 1.363 . S
C906 C912 1.379 . S
C906 N914 1.356 . S
C907 C906 1.363 . S
C907 C913 1.363 . S
C908 C909 1.363 . S
C908 C913 1.379 . S
C908 N915 1.356 . S
C909 C908 1.363 . S
C909 C912 1.363 . S
N910 C912 1.356 . S
N910 H922 0.984 . S
N910 H923 0.985 . S
N911 C913 1.356 . S
N911 H916 0.984 . S
N911 H917 0.985 . S
C912 C906 1.379 . S
C912 C909 1.363 . S
C912 N910 1.356 . S
C913 C907 1.363 . S
C913 C908 1.379 . S
C913 N911 1.356 . S
N914 C906 1.356 . S
N914 H920 0.984 . S
N914 H921 0.984 . S
N915 C908 1.356 . S
N915 H918 0.984 . S
N915 H919 0.985 . S
H916 N911 0.984 . S
H917 N911 0.985 . S
H918 N915 0.984 . S
H919 N915 0.985 . S
H920 N914 0.984 . S
H921 N914 0.984 . S
H922 N910 0.984 . S
H923 N910 0.985 . S
C924 C925 1.363 . S
C924 C930 1.379 1_455 S
C924 N932 1.356 . S
C925 C924 1.363 . S
C925 C931 1.363 . S
C926 C927 1.363 . S
C926 C931 1.379 1_655 S
C926 N933 1.356 . S
C927 C926 1.363 . S
C927 C930 1.363 . S
N928 C930 1.356 . S
N928 H940 0.984 . S
N928 H941 0.985 . S
N929 C931 1.356 . S
N929 H934 0.984 . S
N929 H935 0.985 1_556 S
C930 C924 1.379 1_655 S
C930 C927 1.363 . S
C930 N928 1.356 . S
C931 C925 1.363 . S
C931 C926 1.379 1_455 S
C931 N929 1.356 . S
N932 C924 1.356 . S
N932 H938 0.984 . S
N932 H939 0.984 . S
N933 C926 1.356 . S
N933 H936 0.984 . S
N933 H937 0.985 1_556 S
H934 N929 0.984 . S
H935 N929 0.985 1_554 S
H936 N933 0.984 . S
H937 N933 0.985 1_554 S
H938 N932 0.984 . S
H939 N932 0.984 . S
H940 N928 0.984 . S
H941 N928 0.985 . S
C942 C943 1.363 . S
C942 C948 1.379 1_565 S
C942 N950 1.356 . S
C943 C942 1.363 . S
C943 C949 1.363 . S
C944 C945 1.363 . S
C944 C949 1.379 1_545 S
C944 N951 1.356 . S
C945 C944 1.363 . S
C945 C948 1.363 . S
N946 C948 1.356 . S
N946 H958 0.984 . S
N946 H959 0.985 . S
N947 C949 1.356 . S
N947 H952 0.984 . S
N947 H953 0.985 . S
C948 C942 1.379 1_545 S
C948 C945 1.363 . S
C948 N946 1.356 . S
C949 C943 1.363 . S
C949 C944 1.379 1_565 S
C949 N947 1.356 . S
N950 C942 1.356 . S
N950 H956 0.984 . S
N950 H957 0.984 . S
N951 C944 1.356 . S
N951 H954 0.984 . S
N951 H955 0.985 . S
H952 N947 0.984 . S
H953 N947 0.985 . S
H954 N951 0.984 . S
H955 N951 0.985 . S
H956 N950 0.984 . S
H957 N950 0.984 . S
H958 N946 0.984 . S
H959 N946 0.985 . S
C960 C961 1.363 1_554 S
C960 C966 1.379 . S
C960 N968 1.356 . S
C961 C960 1.363 1_556 S
C961 C967 1.363 . S
C962 C963 1.363 1_556 S
C962 C967 1.379 . S
C962 N969 1.356 . S
C963 C962 1.363 1_554 S
C963 C966 1.363 . S
N964 C966 1.356 . S
N964 H976 0.984 . S
N964 H977 0.985 . S
N965 C967 1.356 . S
N965 H970 0.984 . S
N965 H971 0.985 . S
C966 C960 1.379 . S
C966 C963 1.363 . S
C966 N964 1.356 . S
C967 C961 1.363 . S
C967 C962 1.379 . S
C967 N965 1.356 . S
N968 C960 1.356 . S
N968 H974 0.984 . S
N968 H975 0.984 . S
N969 C962 1.356 . S
N969 H972 0.984 . S
N969 H973 0.985 . S
H970 N965 0.984 . S
H971 N965 0.985 . S
H972 N969 0.984 . S
H973 N969 0.985 . S
H974 N968 0.984 . S
H975 N968 0.984 . S
H976 N964 0.984 . S
H977 N964 0.985 . S
C978 C979 1.363 . S
C978 C984 1.379 . S
C978 N986 1.356 . S
C979 C978 1.363 . S
C979 C985 1.363 . S
C980 C981 1.363 . S
C980 C985 1.379 . S
C980 N987 1.356 . S
C981 C980 1.363 . S
C981 C984 1.363 . S
N982 C984 1.356 . S
N982 H994 0.984 . S
N982 H995 0.985 . S
N983 C985 1.356 . S
N983 H988 0.984 . S
N983 H989 0.985 . S
C984 C978 1.379 . S
C984 C981 1.363 . S
C984 N982 1.356 . S
C985 C979 1.363 . S
C985 C980 1.379 . S
C985 N983 1.356 . S
N986 C978 1.356 . S
N986 H992 0.984 . S
N986 H993 0.984 . S
N987 C980 1.356 . S
N987 H990 0.984 . S
N987 H991 0.985 . S
H988 N983 0.984 . S
H989 N983 0.985 . S
H990 N987 0.984 . S
H991 N987 0.985 . S
H992 N986 0.984 . S
H993 N986 0.984 . S
H994 N982 0.984 . S
H995 N982 0.985 . S
C996 C997 1.363 1_554 S
C996 C1002 1.379 . S
C996 N1004 1.356 . S
C997 C996 1.363 1_556 S
C997 C1003 1.363 . S
C998 C999 1.363 1_556 S
C998 C1003 1.379 . S
C998 N1005 1.356 . S
C999 C998 1.363 1_554 S
C999 C1002 1.363 . S
N1000 C1002 1.356 . S
N1000 H1012 0.984 . S
N1000 H1013 0.985 . S
N1001 C1003 1.356 . S
N1001 H1006 0.984 . S
N1001 H1007 0.985 . S
C1002 C996 1.379 . S
C1002 C999 1.363 . S
C1002 N1000 1.356 . S
C1003 C997 1.363 . S
C1003 C998 1.379 . S
C1003 N1001 1.356 . S
N1004 C996 1.356 . S
N1004 H1010 0.984 . S
N1004 H1011 0.984 1_554 S
N1005 C998 1.356 . S
N1005 H1008 0.984 1_556 S
N1005 H1009 0.985 . S
H1006 N1001 0.984 . S
H1007 N1001 0.985 . S
H1008 N1005 0.984 1_554 S
H1009 N1005 0.985 . S
H1010 N1004 0.984 . S
H1011 N1004 0.984 1_556 S
H1012 N1000 0.984 . S
H1013 N1000 0.985 . S
C1014 C1015 1.363 . S
C1014 C1020 1.379 . S
C1014 N1022 1.356 . S
C1015 C1014 1.363 . S
C1015 C1021 1.363 . S
C1016 C1017 1.363 . S
C1016 C1021 1.379 . S
C1016 N1023 1.356 . S
C1017 C1016 1.363 . S
C1017 C1020 1.363 . S
N1018 C1020 1.356 . S
N1018 H1030 0.984 . S
N1018 H1031 0.985 . S
N1019 C1021 1.356 . S
N1019 H1024 0.984 . S
N1019 H1025 0.985 . S
C1020 C1014 1.379 . S
C1020 C1017 1.363 . S
C1020 N1018 1.356 . S
C1021 C1015 1.363 . S
C1021 C1016 1.379 . S
C1021 N1019 1.356 . S
N1022 C1014 1.356 . S
N1022 H1028 0.984 . S
N1022 H1029 0.984 . S
N1023 C1016 1.356 . S
N1023 H1026 0.984 . S
N1023 H1027 0.985 . S
H1024 N1019 0.984 . S
H1025 N1019 0.985 . S
H1026 N1023 0.984 . S
H1027 N1023 0.985 . S
H1028 N1022 0.984 . S
H1029 N1022 0.984 . S
H1030 N1018 0.984 . S
H1031 N1018 0.985 . S
C1032 C1033 1.363 . S
C1032 C1038 1.379 . S
C1032 N1040 1.356 . S
C1033 C1032 1.363 . S
C1033 C1039 1.363 1_556 S
C1034 C1035 1.363 . S
C1034 C1039 1.379 . S
C1034 N1041 1.356 . S
C1035 C1034 1.363 . S
C1035 C1038 1.363 1_554 S
N1036 C1038 1.356 . S
N1036 H1048 0.984 . S
N1036 H1049 0.985 . S
N1037 C1039 1.356 . S
N1037 H1042 0.984 . S
N1037 H1043 0.985 . S
C1038 C1032 1.379 . S
C1038 C1035 1.363 1_556 S
C1038 N1036 1.356 . S
C1039 C1033 1.363 1_554 S
C1039 C1034 1.379 . S
C1039 N1037 1.356 . S
N1040 C1032 1.356 . S
N1040 H1046 0.984 . S
N1040 H1047 0.984 . S
N1041 C1034 1.356 . S
N1041 H1044 0.984 . S
N1041 H1045 0.985 . S
H1042 N1037 0.984 . S
H1043 N1037 0.985 . S
H1044 N1041 0.984 . S
H1045 N1041 0.985 . S
H1046 N1040 0.984 . S
H1047 N1040 0.984 . S
H1048 N1036 0.984 . S
H1049 N1036 0.985 . S
C1050 C1051 1.363 . S
C1050 C1056 1.379 . S
C1050 N1058 1.356 . S
C1051 C1050 1.363 . S
C1051 C1057 1.363 . S
C1052 C1053 1.363 . S
C1052 C1057 1.379 . S
C1052 N1059 1.356 . S
C1053 C1052 1.363 . S
C1053 C1056 1.363 . S
N1054 C1056 1.356 . S
N1054 H1066 0.984 . S
N1054 H1067 0.985 . S
N1055 C1057 1.356 . S
N1055 H1060 0.984 . S
N1055 H1061 0.985 . S
C1056 C1050 1.379 . S
C1056 C1053 1.363 . S
C1056 N1054 1.356 . S
C1057 C1051 1.363 . S
C1057 C1052 1.379 . S
C1057 N1055 1.356 . S
N1058 C1050 1.356 . S
N1058 H1064 0.984 . S
N1058 H1065 0.984 . S
N1059 C1052 1.356 . S
N1059 H1062 0.984 . S
N1059 H1063 0.985 . S
H1060 N1055 0.984 . S
H1061 N1055 0.985 . S
H1062 N1059 0.984 . S
H1063 N1059 0.985 . S
H1064 N1058 0.984 . S
H1065 N1058 0.984 . S
H1066 N1054 0.984 . S
H1067 N1054 0.985 . S
C1068 C1069 1.363 . S
C1068 C1074 1.379 1_554 S
C1068 N1076 1.356 . S
C1069 C1068 1.363 . S
C1069 C1075 1.363 . S
C1070 C1071 1.363 . S
C1070 C1075 1.379 1_556 S
C1070 N1077 1.356 . S
C1071 C1070 1.363 . S
C1071 C1074 1.363 . S
N1072 C1074 1.356 . S
N1072 H1084 0.984 1_556 S
N1072 H1085 0.985 . S
N1073 C1075 1.356 . S
N1073 H1078 0.984 . S
N1073 H1079 0.985 1_554 S
C1074 C1068 1.379 1_556 S
C1074 C1071 1.363 . S
C1074 N1072 1.356 . S
C1075 C1069 1.363 . S
C1075 C1070 1.379 1_554 S
C1075 N1073 1.356 . S
N1076 C1068 1.356 . S
N1076 H1082 0.984 . S
N1076 H1083 0.984 . S
N1077 C1070 1.356 . S
N1077 H1080 0.984 . S
N1077 H1081 0.985 . S
H1078 N1073 0.984 . S
H1079 N1073 0.985 1_556 S
H1080 N1077 0.984 . S
H1081 N1077 0.985 . S
H1082 N1076 0.984 . S
H1083 N1076 0.984 . S
H1084 N1072 0.984 1_554 S
H1085 N1072 0.985 . S
C1086 C1087 1.363 . S
C1086 C1092 1.379 . S
C1086 N1094 1.356 . S
C1087 C1086 1.363 . S
C1087 C1093 1.363 . S
C1088 C1089 1.363 . S
C1088 C1093 1.379 . S
C1088 N1095 1.356 . S
C1089 C1088 1.363 . S
C1089 C1092 1.363 . S
N1090 C1092 1.356 . S
N1090 H1102 0.984 . S
N1090 H1103 0.985 . S
N1091 C1093 1.356 . S
N1091 H1096 0.984 . S
N1091 H1097 0.985 . S
C1092 C1086 1.379 . S
C1092 C1089 1.363 . S
C1092 N1090 1.356 . S
C1093 C1087 1.363 . S
C1093 C1088 1.379 . S
C1093 N1091 1.356 . S
N1094 C1086 1.356 . S
N1094 H1100 0.984 . S
N1094 H1101 0.984 . S
N1095 C1088 1.356 . S
N1095 H1098 0.984 . S
N1095 H1099 0.985 . S
H1096 N1091 0.984 . S
H1097 N1091 0.985 . S
H1098 N1095 0.984 . S
H1099 N1095 0.985 . S
H1100 N1094 0.984 . S
H1101 N1094 0.984 . S
H1102 N1090 0.984 . S
H1103 N1090 0.985 . S
C1104 C1105 1.363 . S
C1104 C1110 1.379 . S
C1104 N1112 1.356 . S
C1105 C1104 1.363 . S
C1105 C1111 1.363 1_554 S
C1106 C1107 1.363 . S
C1106 C1111 1.379 . S
C1106 N1113 1.356 . S
C1107 C1106 1.363 . S
C1107 C1110 1.363 1_556 S
N1108 C1110 1.356 . S
N1108 H1120 0.984 . S
N1108 H1121 0.985 1_554 S
N1109 C1111 1.356 . S
N1109 H1114 0.984 1_556 S
N1109 H1115 0.985 . S
C1110 C1104 1.379 . S
C1110 C1107 1.363 1_554 S
C1110 N1108 1.356 . S
C1111 C1105 1.363 1_556 S
C1111 C1106 1.379 . S
C1111 N1109 1.356 . S
N1112 C1104 1.356 . S
N1112 H1118 0.984 . S
N1112 H1119 0.984 . S
N1113 C1106 1.356 . S
N1113 H1116 0.984 . S
N1113 H1117 0.985 . S
H1114 N1109 0.984 1_554 S
H1115 N1109 0.985 . S
H1116 N1113 0.984 . S
H1117 N1113 0.985 . S
H1118 N1112 0.984 . S
H1119 N1112 0.984 . S
H1120 N1108 0.984 . S
H1121 N1108 0.985 1_556 S
C1122 C1123 1.363 . S
C1122 C1128 1.379 . S
C1122 N1130 1.356 . S
C1123 C1122 1.363 . S
C1123 C1129 1.363 . S
C1124 C1125 1.363 . S
C1124 C1129 1.379 . S
C1124 N1131 1.356 . S
C1125 C1124 1.363 . S
C1125 C1128 1.363 . S
N1126 C1128 1.356 . S
N1126 H1138 0.984 . S
N1126 H1139 0.985 . S
N1127 C1129 1.356 . S
N1127 H1132 0.984 . S
N1127 H1133 0.985 . S
C1128 C1122 1.379 . S
C1128 C1125 1.363 . S
C1128 N1126 1.356 . S
C1129 C1123 1.363 . S
C1129 C1124 1.379 . S
C1129 N1127 1.356 . S
N1130 C1122 1.356 . S
N1130 H1136 0.984 . S
N1130 H1137 0.984 . S
N1131 C1124 1.356 . S
N1131 H1134 0.984 . S
N1131 H1135 0.985 . S
H1132 N1127 0.984 . S
H1133 N1127 0.985 . S
H1134 N1131 0.984 . S
H1135 N1131 0.985 . S
H1136 N1130 0.984 . S
H1137 N1130 0.984 . S
H1138 N1126 0.984 . S
H1139 N1126 0.985 . S
C1140 C1141 1.363 1_554 S
C1140 C1146 1.379 . S
C1140 N1148 1.356 . S
C1141 C1140 1.363 1_556 S
C1141 C1147 1.363 . S
C1142 C1143 1.363 1_556 S
C1142 C1147 1.379 . S
C1142 N1149 1.356 . S
C1143 C1142 1.363 1_554 S
C1143 C1146 1.363 . S
N1144 C1146 1.356 . S
N1144 H1156 0.984 . S
N1144 H1157 0.985 . S
N1145 C1147 1.356 . S
N1145 H1150 0.984 . S
N1145 H1151 0.985 . S
C1146 C1140 1.379 . S
C1146 C1143 1.363 . S
C1146 N1144 1.356 . S
C1147 C1141 1.363 . S
C1147 C1142 1.379 . S
C1147 N1145 1.356 . S
N1148 C1140 1.356 . S
N1148 H1154 0.984 . S
N1148 H1155 0.984 . S
N1149 C1142 1.356 . S
N1149 H1152 0.984 . S
N1149 H1153 0.985 . S
H1150 N1145 0.984 . S
H1151 N1145 0.985 . S
H1152 N1149 0.984 . S
H1153 N1149 0.985 . S
H1154 N1148 0.984 . S
H1155 N1148 0.984 . S
H1156 N1144 0.984 . S
H1157 N1144 0.985 . S
C1158 C1159 1.363 . S
C1158 C1164 1.379 . S
C1158 N1166 1.356 . S
C1159 C1158 1.363 . S
C1159 C1165 1.363 . S
C1160 C1161 1.363 . S
C1160 C1165 1.379 . S
C1160 N1167 1.356 . S
C1161 C1160 1.363 . S
C1161 C1164 1.363 . S
N1162 C1164 1.356 . S
N1162 H1174 0.984 . S
N1162 H1175 0.985 . S
N1163 C1165 1.356 . S
N1163 H1168 0.984 . S
N1163 H1169 0.985 . S
C1164 C1158 1.379 . S
C1164 C1161 1.363 . S
C1164 N1162 1.356 . S
C1165 C1159 1.363 . S
C1165 C1160 1.379 . S
C1165 N1163 1.356 . S
N1166 C1158 1.356 . S
N1166 H1172 0.984 . S
N1166 H1173 0.984 . S
N1167 C1160 1.356 . S
N1167 H1170 0.984 . S
N1167 H1171 0.985 . S
H1168 N1163 0.984 . S
H1169 N1163 0.985 . S
H1170 N1167 0.984 . S
H1171 N1167 0.985 . S
H1172 N1166 0.984 . S
H1173 N1166 0.984 . S
H1174 N1162 0.984 . S
H1175 N1162 0.985 . S
C313 C10 1.468 . S
C315 C205 1.468 . S
C331 C23 1.467 . S
C333 C218 1.467 . S
C349 C231 1.467 . S
C351 C36 1.467 . S
C367 C166 1.468 . S
C369 C49 1.468 . S
C385 C179 1.467 . S
C387 C62 1.467 . S
C403 C192 1.467 . S
C405 C75 1.467 . S
C421 C283 1.468 . S
C423 C88 1.468 . S
C439 C101 1.467 . S
C441 C296 1.467 . S
C457 C309 1.467 . S
C459 C114 1.467 . S
C475 C127 1.468 . S
C477 C244 1.468 . S
C493 C257 1.467 . S
C495 C140 1.467 . S
C511 C153 1.467 . S
C513 C270 1.467 . S
C529 C130 1.210 . S
C531 C0 1.210 . S
C547 C143 1.209 . S
C549 C13 1.209 . S
C565 C26 1.209 . S
C567 C78 1.209 . S
C583 C39 1.209 . S
C585 C91 1.209 . S
C601 C104 1.209 . S
C603 C52 1.209 . S
C619 C65 1.209 . S
C621 C117 1.209 . S
C637 C286 1.210 . S
C639 C156 1.210 . S
C655 C169 1.209 . S
C657 C299 1.209 . S
C673 C182 1.210 . S
C675 C234 1.210 . S
C691 C247 1.209 . S
C693 C195 1.209 . S
C709 C208 1.209 . S
C711 C260 1.209 . S
C727 C221 1.209 . S
C729 C273 1.209 . S
C745 C5 1.280 . S
C747 C239 1.280 . S
C763 C252 1.280 . S
C765 C18 1.280 . S
C781 C31 1.280 . S
C783 C265 1.280 . S
C799 C44 1.280 . S
C801 C278 1.280 . S
C817 C291 1.280 . S
C819 C57 1.280 . S
C835 C70 1.280 . S
C837 C304 1.280 . S
C853 C83 1.280 . S
C855 C161 1.280 . S
C871 C96 1.280 . S
C873 C174 1.280 . S
C889 C187 1.280 . S
C891 C109 1.280 . S
C907 C200 1.280 . S
C909 C122 1.280 . S
C925 C135 1.280 . S
C927 C213 1.280 . S
C943 C226 1.280 . S
C945 C148 1.280 . S
C961 C86 1.495 . S
C963 C8 1.495 . S
C979 C21 1.495 . S
C981 C99 1.495 . S
C997 C112 1.495 . S
C999 C34 1.495 . S
C1015 C125 1.495 . S
C1017 C47 1.495 . S
C1033 C138 1.495 . S
C1035 C60 1.495 . S
C1051 C73 1.495 . S
C1053 C151 1.495 . S
C1069 C242 1.495 . S
C1071 C164 1.495 . S
C1087 C177 1.495 . S
C1089 C255 1.495 . S
C1105 C268 1.495 . S
C1107 C190 1.495 . S
C1123 C281 1.495 . S
C1125 C203 1.495 . S
C1141 C216 1.495 . S
C1143 C294 1.495 . S
C1159 C229 1.495 . S
C1161 C307 1.495 . S
