# Generated by pormake.
# Topology und, (4)-cn, num edge types: 1
# Building blocks:
#     Node 0, Type 0, BuildingBlock: AZAVOO_clean_sbu_0, # of connection points: 4
#     Node 1, Type 0, BuildingBlock: AZAVOO_clean_sbu_0, # of connection points: 4
#     Node 2, Type 0, BuildingBlock: AZAVOO_clean_sbu_0, # of connection points: 4
#     Node 3, Type 0, BuildingBlock: AZAVOO_clean_sbu_0, # of connection points: 4
#     Node 4, Type 0, BuildingBlock: AZAVOO_clean_sbu_0, # of connection points: 4
#     Node 5, Type 0, BuildingBlock: AZAVOO_clean_sbu_0, # of connection points: 4
#     Node 6, Type 0, BuildingBlock: AZAVOO_clean_sbu_0, # of connection points: 4
#     Node 7, Type 0, BuildingBlock: AZAVOO_clean_sbu_0, # of connection points: 4
#     Node 8, Type 0, BuildingBlock: AZAVOO_clean_sbu_0, # of connection points: 4
#     Node 9, Type 0, BuildingBlock: AZAVOO_clean_sbu_0, # of connection points: 4
#     Node 10, Type 0, BuildingBlock: AZAVOO_clean_sbu_0, # of connection points: 4
#     Node 11, Type 0, BuildingBlock: AZAVOO_clean_sbu_0, # of connection points: 4
#     Node 12, Type 0, BuildingBlock: AZAVOO_clean_sbu_0, # of connection points: 4
#     Node 13, Type 0, BuildingBlock: AZAVOO_clean_sbu_0, # of connection points: 4
#     Node 14, Type 0, BuildingBlock: AZAVOO_clean_sbu_0, # of connection points: 4
#     Node 15, Type 0, BuildingBlock: AZAVOO_clean_sbu_0, # of connection points: 4
#     Edge 16, Type (0, 0), BuildingBlock: XIVTED_clean_linker_0, # of connection points: 2
#     Edge 17, Type (0, 0), BuildingBlock: XIVTED_clean_linker_0, # of connection points: 2
#     Edge 18, Type (0, 0), BuildingBlock: XIVTED_clean_linker_0, # of connection points: 2
#     Edge 19, Type (0, 0), BuildingBlock: XIVTED_clean_linker_0, # of connection points: 2
#     Edge 20, Type (0, 0), BuildingBlock: XIVTED_clean_linker_0, # of connection points: 2
#     Edge 21, Type (0, 0), BuildingBlock: XIVTED_clean_linker_0, # of connection points: 2
#     Edge 22, Type (0, 0), BuildingBlock: XIVTED_clean_linker_0, # of connection points: 2
#     Edge 23, Type (0, 0), BuildingBlock: XIVTED_clean_linker_0, # of connection points: 2
#     Edge 24, Type (0, 0), BuildingBlock: XIVTED_clean_linker_0, # of connection points: 2
#     Edge 25, Type (0, 0), BuildingBlock: XIVTED_clean_linker_0, # of connection points: 2
#     Edge 26, Type (0, 0), BuildingBlock: XIVTED_clean_linker_0, # of connection points: 2
#     Edge 27, Type (0, 0), BuildingBlock: XIVTED_clean_linker_0, # of connection points: 2
#     Edge 28, Type (0, 0), BuildingBlock: XIVTED_clean_linker_0, # of connection points: 2
#     Edge 29, Type (0, 0), BuildingBlock: XIVTED_clean_linker_0, # of connection points: 2
#     Edge 30, Type (0, 0), BuildingBlock: XIVTED_clean_linker_0, # of connection points: 2
#     Edge 31, Type (0, 0), BuildingBlock: XIVTED_clean_linker_0, # of connection points: 2
#     Edge 32, Type (0, 0), BuildingBlock: XIVTED_clean_linker_0, # of connection points: 2
#     Edge 33, Type (0, 0), BuildingBlock: XIVTED_clean_linker_0, # of connection points: 2
#     Edge 34, Type (0, 0), BuildingBlock: XIVTED_clean_linker_0, # of connection points: 2
#     Edge 35, Type (0, 0), BuildingBlock: XIVTED_clean_linker_0, # of connection points: 2
#     Edge 36, Type (0, 0), BuildingBlock: XIVTED_clean_linker_0, # of connection points: 2
#     Edge 37, Type (0, 0), BuildingBlock: XIVTED_clean_linker_0, # of connection points: 2
#     Edge 38, Type (0, 0), BuildingBlock: XIVTED_clean_linker_0, # of connection points: 2
#     Edge 39, Type (0, 0), BuildingBlock: XIVTED_clean_linker_0, # of connection points: 2
#     Edge 40, Type (0, 0), BuildingBlock: XIVTED_clean_linker_0, # of connection points: 2
#     Edge 41, Type (0, 0), BuildingBlock: XIVTED_clean_linker_0, # of connection points: 2
#     Edge 42, Type (0, 0), BuildingBlock: XIVTED_clean_linker_0, # of connection points: 2
#     Edge 43, Type (0, 0), BuildingBlock: XIVTED_clean_linker_0, # of connection points: 2
#     Edge 44, Type (0, 0), BuildingBlock: XIVTED_clean_linker_0, # of connection points: 2
#     Edge 45, Type (0, 0), BuildingBlock: XIVTED_clean_linker_0, # of connection points: 2
#     Edge 46, Type (0, 0), BuildingBlock: XIVTED_clean_linker_0, # of connection points: 2
#     Edge 47, Type (0, 0), BuildingBlock: XIVTED_clean_linker_0, # of connection points: 2
# Relax obj value: 0.169
# Max RMSD: 0.209
# Mean RMSD: 0.203
data_MOF--net-und--node1-AZAVOO_clean_sbu_0--edge1-XIVTED_clean_linker_0
_symmetry_space_group_name_H-M    P1
_symmetry_Int_Tables_number       1
_symmetry_cell_setting            triclinic
loop_
_symmetry_equiv_pos_as_xyz
'x, y, z'
_cell_length_a     58.629024
_cell_length_b     58.669925
_cell_length_c     21.807934
_cell_angle_alpha  91.998676
_cell_angle_beta   91.828938
_cell_angle_gamma 95.830703
loop_
_atom_site_label
_atom_site_type_symbol
_atom_site_fract_x
_atom_site_fract_y
_atom_site_fract_z
_atom_type_partial_charge
Mg0 Mg 0.26583 0.37598 0.15203 0.0
O1 O 0.26416 0.34572 0.08259 0.0
O2 O 0.23625 0.31921 0.10723 0.0
Mg3 Mg 0.21884 0.33344 0.19045 0.0
C4 C 0.25287 0.32605 0.0738 0.0
C5 C 0.30715 0.3916 0.06873 0.0
O6 O 0.31427 0.37224 0.08624 0.0
O7 O 0.23399 0.38934 0.11055 0.0
O8 O 0.20605 0.36353 0.13891 0.0
O9 O 0.28924 0.35734 0.21012 0.0
O10 O 0.25145 0.35424 0.21655 0.0
C11 C 0.21278 0.38211 0.113 0.0
C12 C 0.27082 0.34735 0.23281 0.0
O13 O 0.28842 0.39762 0.08846 0.0
Mg14 Mg 0.91237 0.04007 0.17977 0.0
O15 O 0.94418 0.04855 0.24338 0.0
O16 O 0.96509 0.07915 0.20875 0.0
Mg17 Mg 0.94631 0.09062 0.124 0.0
C18 C 0.96193 0.06314 0.24664 0.0
C19 C 0.87888 0.00248 0.23539 0.0
O20 O 0.871 0.00165 0.17817 0.0
O21 O 0.89492 0.07028 0.21861 0.0
O22 O 0.91608 0.09994 0.1804 0.0
O23 O 0.93356 0.0185 0.12274 0.0
O24 O 0.93021 0.05518 0.10854 0.0
C25 C 0.89927 0.09179 0.21154 0.0
C26 C 0.94005 0.03712 0.09506 0.0
O27 O 0.89617 0.01657 0.25101 0.0
Mg28 Mg 0.26193 0.73022 0.53201 0.0
O29 O 0.24147 0.73984 0.61563 0.0
O30 O 0.21319 0.75957 0.5821 0.0
Mg31 Mg 0.21515 0.76251 0.47813 0.0
C32 C 0.22419 0.75091 0.62551 0.0
C33 C 0.27254 0.68766 0.61361 0.0
O34 O 0.25045 0.68126 0.60698 0.0
O35 O 0.23345 0.70196 0.49887 0.0
O36 O 0.20716 0.72387 0.46436 0.0
O37 O 0.28349 0.76454 0.54419 0.0
O38 O 0.25155 0.75793 0.4869 0.0
C39 C 0.21401 0.70421 0.47264 0.0
C40 C 0.26771 0.77227 0.51029 0.0
O41 O 0.28098 0.70589 0.58932 0.0
Mg42 Mg 0.5874 0.00023 0.84999 0.0
O43 O 0.56025 0.01297 0.78697 0.0
O44 O 0.53737 0.0339 0.84003 0.0
Mg45 Mg 0.55025 0.03403 0.94071 0.0
C46 C 0.54309 0.02465 0.78972 0.0
C47 C 0.59726 0.97702 0.72483 0.0
O48 O 0.57549 0.96976 0.72997 0.0
O49 O 0.60716 0.03583 0.85873 0.0
O50 O 0.58483 0.054 0.92139 0.0
O51 O 0.56293 0.96918 0.86506 0.0
O52 O 0.56493 0.00162 0.9211 0.0
C53 C 0.60318 0.05332 0.89161 0.0
C54 C 0.5546 0.98162 0.90727 0.0
O55 O 0.60733 0.99031 0.76683 0.0
Mg56 Mg 0.79048 0.7024 0.10351 0.0
O57 O 0.75409 0.68508 0.11705 0.0
O58 O 0.73315 0.71159 0.15562 0.0
Mg59 Mg 0.75546 0.74582 0.16416 0.0
C60 C 0.73528 0.69102 0.13742 0.0
C61 C 0.80265 0.65241 0.06274 0.0
O62 O 0.80176 0.64848 0.1216 0.0
O63 O 0.77852 0.7199 0.01834 0.0
O64 O 0.75773 0.74605 0.05977 0.0
O65 O 0.79952 0.69577 0.2024 0.0
O66 O 0.78589 0.72717 0.16968 0.0
C67 C 0.76608 0.73642 0.01335 0.0
C68 C 0.79213 0.71544 0.21448 0.0
O69 O 0.79868 0.67193 0.04402 0.0
Mg70 Mg 0.08736 0.0267 0.68002 0.0
O71 O 0.11306 0.05914 0.68299 0.0
O72 O 0.09291 0.08873 0.66469 0.0
Mg73 Mg 0.05532 0.07562 0.64553 0.0
C74 C 0.11186 0.08058 0.67686 0.0
C75 C 0.11362 0.98563 0.71289 0.0
O76 O 0.09995 0.97676 0.66738 0.0
O77 O 0.07302 0.03685 0.77184 0.0
O78 O 0.05223 0.0651 0.7451 0.0
O79 O 0.09107 0.02109 0.5781 0.0
O80 O 0.06617 0.04204 0.62068 0.0
C81 C 0.05925 0.05168 0.78486 0.0
C82 C 0.07499 0.03452 0.57192 0.0
O83 O 0.11334 0.00666 0.72827 0.0
Mg84 Mg 0.69185 0.3522 0.61646 0.0
O85 O 0.73083 0.36198 0.62395 0.0
O86 O 0.74674 0.33348 0.66916 0.0
Mg87 Mg 0.71827 0.30506 0.68589 0.0
C88 C 0.74832 0.35326 0.64601 0.0
C89 C 0.6727 0.37399 0.50433 0.0
O90 O 0.66158 0.35339 0.50411 0.0
O91 O 0.69605 0.32685 0.53776 0.0
O92 O 0.712 0.29824 0.58144 0.0
O93 O 0.69063 0.36871 0.7097 0.0
O94 O 0.69442 0.33185 0.69143 0.0
C95 C 0.70397 0.30743 0.53423 0.0
C96 C 0.6948 0.34902 0.73007 0.0
O97 O 0.6873 0.38005 0.54773 0.0
Mg98 Mg 0.42098 0.01231 0.29623 0.0
O99 O 0.39343 0.98154 0.28719 0.0
O100 O 0.4116 0.94985 0.28508 0.0
Mg101 Mg 0.45017 0.95995 0.29162 0.0
C102 C 0.3932 0.95974 0.28312 0.0
C103 C 0.39806 0.05702 0.31279 0.0
O104 O 0.41584 0.06376 0.28034 0.0
O105 O 0.4292 0.0063 0.39683 0.0
O106 O 0.44877 0.9757 0.38859 0.0
O107 O 0.42259 0.0124 0.19344 0.0
O108 O 0.44408 0.99306 0.2533 0.0
C109 C 0.44101 0.99159 0.42081 0.0
C110 C 0.43791 0.99809 0.19879 0.0
O111 O 0.39443 0.03597 0.32483 0.0
Mg112 Mg 0.75437 0.87275 0.59469 0.0
O113 O 0.75091 0.84138 0.52881 0.0
O114 O 0.7224 0.81632 0.55762 0.0
Mg115 Mg 0.70656 0.83253 0.64068 0.0
C116 C 0.73887 0.82201 0.52258 0.0
C117 C 0.79414 0.90612 0.54345 0.0
O118 O 0.79948 0.90934 0.6023 0.0
O119 O 0.7227 0.8869 0.5541 0.0
O120 O 0.69449 0.86241 0.58718 0.0
O121 O 0.77743 0.85396 0.65385 0.0
O122 O 0.73984 0.85275 0.66275 0.0
C123 C 0.70141 0.88042 0.55901 0.0
C124 C 0.75893 0.84531 0.67898 0.0
O125 O 0.77696 0.89209 0.52656 0.0
Mg126 Mg 0.40328 0.52964 0.67558 0.0
O127 O 0.43097 0.54088 0.75014 0.0
O128 O 0.45405 0.57024 0.71675 0.0
Mg129 Mg 0.43853 0.58044 0.62602 0.0
C130 C 0.44873 0.55539 0.7566 0.0
C131 C 0.39363 0.49072 0.76939 0.0
O132 O 0.41476 0.48728 0.75631 0.0
O133 O 0.38262 0.55924 0.70187 0.0
O134 O 0.40535 0.58911 0.67031 0.0
O135 O 0.42853 0.50849 0.63171 0.0
O136 O 0.42444 0.54441 0.60991 0.0
C137 C 0.38701 0.58074 0.69486 0.0
C138 C 0.43577 0.52684 0.60384 0.0
O139 O 0.38426 0.50665 0.74351 0.0
Mg140 Mg 0.76198 0.22008 0.02909 0.0
O141 O 0.73984 0.23142 0.1062 0.0
O142 O 0.71118 0.24901 0.06553 0.0
Mg143 Mg 0.71507 0.24859 0.96092 0.0
C144 C 0.722 0.24199 0.11187 0.0
C145 C 0.79318 0.20383 0.13735 0.0
O146 O 0.79876 0.22595 0.14692 0.0
O147 O 0.73455 0.1909 0.00072 0.0
O148 O 0.70771 0.20939 0.95393 0.0
O149 O 0.78243 0.25491 0.03753 0.0
O150 O 0.75184 0.24589 0.97607 0.0
C151 C 0.71556 0.19094 0.97038 0.0
C152 C 0.76711 0.26122 -0.00057 0.0
O153 O 0.77891 0.19681 0.09404 0.0
Mg154 Mg 0.0842 0.5164 0.32134 0.0
O155 O 0.06235 0.52549 0.23854 0.0
O156 O 0.03839 0.55048 0.26968 0.0
Mg157 Mg 0.04632 0.55889 0.37161 0.0
C158 C 0.04588 0.53765 0.22802 0.0
C159 C 0.09942 0.48387 0.21834 0.0
O160 O 0.07717 0.47801 0.21601 0.0
O161 O 0.10705 0.55035 0.32176 0.0
O162 O 0.08276 0.57471 0.35435 0.0
O163 O 0.0566 0.48869 0.33968 0.0
O164 O 0.05777 0.52436 0.37738 0.0
C165 C 0.1026 0.57054 0.33742 0.0
C166 C 0.04665 0.50433 0.36868 0.0
O167 O 0.10782 0.49943 0.25704 0.0
Mg168 Mg 0.30718 0.2055 0.65521 0.0
O169 O 0.27063 0.18838 0.66831 0.0
O170 O 0.24969 0.21534 0.70433 0.0
Mg171 Mg 0.27194 0.24958 0.71152 0.0
C172 C 0.25175 0.19463 0.68733 0.0
C173 C 0.32944 0.17891 0.55556 0.0
O174 O 0.33656 0.20049 0.54696 0.0
O175 O 0.29512 0.22187 0.56805 0.0
O176 O 0.27416 0.24835 0.60723 0.0
O177 O 0.31585 0.20031 0.75536 0.0
O178 O 0.30239 0.23116 0.71864 0.0
C179 C 0.28248 0.23818 0.56167 0.0
C180 C 0.30863 0.22023 0.76496 0.0
O181 O 0.31628 0.17421 0.59965 0.0
Mg182 Mg 0.57973 0.51952 0.19772 0.0
O183 O 0.60277 0.55347 0.19156 0.0
O184 O 0.57984 0.58155 0.18568 0.0
Mg185 Mg 0.54261 0.56607 0.18748 0.0
C186 C 0.59979 0.57464 0.18725 0.0
C187 C 0.6097 0.48008 0.21423 0.0
O188 O 0.59317 0.47069 0.17654 0.0
O189 O 0.57169 0.5274 0.29754 0.0
O190 O 0.54831 0.55491 0.28553 0.0
O191 O 0.57596 0.51616 0.09392 0.0
O192 O 0.55283 0.53314 0.15416 0.0
C193 C 0.55867 0.54161 0.31941 0.0
C194 C 0.5581 0.52726 0.09978 0.0
O195 O 0.61018 0.50125 0.22903 0.0
Mg196 Mg 0.1923 0.86038 0.12962 0.0
O197 O 0.2314 0.86962 0.13877 0.0
O198 O 0.246 0.84084 0.18618 0.0
Mg199 Mg 0.2171 0.81277 0.20084 0.0
C200 C 0.24835 0.86056 0.16278 0.0
C201 C 0.17357 0.88221 0.01768 0.0
O202 O 0.16194 0.86187 0.01853 0.0
O203 O 0.19648 0.83471 0.05173 0.0
O204 O 0.21197 0.80596 0.09595 0.0
O205 O 0.19114 0.87747 0.22169 0.0
O206 O 0.19402 0.84029 0.20532 0.0
C207 C 0.20432 0.81526 0.04845 0.0
C208 C 0.19505 0.85784 0.243 0.0
O209 O 0.18856 0.88807 0.06026 0.0
Mg210 Mg 0.91335 0.51327 0.74849 0.0
O211 O 0.89 0.47966 0.74578 0.0
O212 O 0.91116 0.45083 0.7263 0.0
Mg213 Mg 0.94815 0.46635 0.71358 0.0
C214 C 0.89189 0.45834 0.73656 0.0
C215 C 0.87721 0.54815 0.77798 0.0
O216 O 0.88238 0.55519 0.72311 0.0
O217 O 0.93032 0.50606 0.83978 0.0
O218 O 0.95354 0.4797 0.81382 0.0
O219 O 0.90661 0.51638 0.6473 0.0
O220 O 0.93452 0.49853 0.68819 0.0
C221 C 0.94614 0.4935 0.85329 0.0
C222 C 0.92349 0.50402 0.63993 0.0
O223 O 0.88654 0.5313 0.79901 0.0
H224 H 0.23554 0.32621 0.29441 0.0
H225 H 0.3119 0.24126 0.46639 0.0
H226 H 0.30748 0.32348 0.2618 0.0
H227 H 0.24474 0.25662 0.51972 0.0
H228 H 0.30813 0.26448 0.37564 0.0
H229 H 0.23653 0.29426 0.36179 0.0
C230 C 0.25154 0.31875 0.30093 0.0
C231 C 0.27149 0.3276 0.27258 0.0
C232 C 0.29409 0.2624 0.40674 0.0
C233 C 0.27282 0.29106 0.35075 0.0
C234 C 0.29615 0.24902 0.45807 0.0
C235 C 0.27871 0.24736 0.50074 0.0
C236 C 0.27438 0.27385 0.3982 0.0
C237 C 0.2587 0.25778 0.48827 0.0
C238 C 0.2521 0.3005 0.33964 0.0
C239 C 0.29176 0.3173 0.28328 0.0
N240 N 0.25717 0.27074 0.43844 0.0
N241 N 0.29197 0.29962 0.322 0.0
H242 H 0.99572 0.09534 0.29321 0.0
H243 H 0.06179 0.00476 0.47614 0.0
H244 H 0.97102 0.02364 0.30068 0.0
H245 H 0.0652 0.07609 0.53358 0.0
H246 H 0.03595 0.01218 0.38978 0.0
H247 H 0.02781 0.08898 0.36335 0.0
C248 C 0.99702 0.0783 0.30972 0.0
C249 C 0.98055 0.06004 0.29177 0.0
C250 C 0.04274 0.02626 0.42072 0.0
C251 C 0.01744 0.0526 0.3701 0.0
C252 C 0.05768 0.0221 0.46928 0.0
C253 C 0.06536 0.03984 0.51187 0.0
C254 C 0.03586 0.04834 0.41464 0.0
C255 C 0.05933 0.06196 0.50188 0.0
C256 C 0.01535 0.07469 0.3494 0.0
C257 C 0.98314 0.03827 0.31413 0.0
N258 N 0.04478 0.0656 0.4544 0.0
N259 N 0.0013 0.03513 0.35196 0.0
H260 H 0.2438 0.737 0.73248 0.0
H261 H 0.18343 0.82597 0.94081 0.0
H262 H 0.19122 0.77724 0.66523 0.0
H263 H 0.2264 0.77759 0.01667 0.0
H264 H 0.18573 0.80751 0.8398 0.0
H265 H 0.23699 0.75037 0.83721 0.0
C266 C 0.23063 0.7484 0.73967 0.0
C267 C 0.21822 0.75614 0.6897 0.0
C268 C 0.19455 0.8008 0.87853 0.0
C269 C 0.21054 0.7717 0.80945 0.0
C270 C 0.19331 0.8114 0.93634 0.0
C271 C 0.20484 0.80341 0.98743 0.0
C272 C 0.20761 0.78216 0.8713 0.0
C273 C 0.21725 0.78436 0.97863 0.0
C274 C 0.22679 0.75605 0.79953 0.0
C275 C 0.20133 0.77087 0.70205 0.0
N276 N 0.21847 0.7745 0.92157 0.0
N277 N 0.19818 0.77833 0.7605 0.0
H278 H 0.43257 0.00826 0.07743 0.0
H279 H 0.54522 0.95059 0.99481 0.0
H280 H 0.46872 0.96619 0.19777 0.0
H281 H 0.51417 0.99814 0.88061 0.0
H282 H 0.51088 0.94746 0.05651 0.0
H283 H 0.45607 0.99672 0.99308 0.0
C284 C 0.44507 0.99625 0.0859 0.0
C285 C 0.44887 0.98845 0.14505 0.0
C286 C 0.51134 0.95823 0.01714 0.0
C287 C 0.47577 0.97525 0.04917 0.0
C288 C 0.53084 0.95984 0.98185 0.0
C289 C 0.53242 0.97486 0.93352 0.0
C290 C 0.4936 0.972 0.00408 0.0
C291 C 0.51359 0.9867 0.91841 0.0
C292 C 0.45848 0.98967 0.03778 0.0
C293 C 0.46521 0.97281 0.15329 0.0
N294 N 0.49504 0.98532 0.95421 0.0
N295 N 0.47823 0.96698 0.10618 0.0
H296 H 0.2353 0.88077 0.28566 0.0
H297 H 0.29223 0.80045 0.43465 0.0
H298 H 0.18085 0.83053 0.33488 0.0
H299 H 0.2378 0.79833 0.56275 0.0
H300 H 0.27646 0.83263 0.38549 0.0
H301 H 0.25897 0.8697 0.37288 0.0
C302 C 0.22804 0.86808 0.31639 0.0
C303 C 0.20622 0.85643 0.30358 0.0
C304 C 0.26863 0.82592 0.42635 0.0
C305 C 0.23282 0.84396 0.40244 0.0
C306 C 0.27773 0.80765 0.45459 0.0
C307 C 0.2661 0.79673 0.50227 0.0
C308 C 0.24753 0.83264 0.44531 0.0
C309 C 0.24703 0.80623 0.52554 0.0
C310 C 0.24156 0.8617 0.36561 0.0
C311 C 0.19761 0.83985 0.34364 0.0
N312 N 0.23778 0.8231 0.49536 0.0
N313 N 0.211 0.83403 0.3913 0.0
H314 H 0.463 0.96208 0.48957 0.0
H315 H 0.50296 0.04518 0.77453 0.0
H316 H 0.43973 0.02964 0.49822 0.0
H317 H 0.54663 0.00118 0.68103 0.0
H318 H 0.47402 0.03696 0.69013 0.0
H319 H 0.48644 0.97189 0.58263 0.0
C320 C 0.46242 0.97884 0.51166 0.0
C321 C 0.44977 0.99525 0.48515 0.0
C322 C 0.49008 0.02935 0.68841 0.0
C323 C 0.47674 0.00654 0.59156 0.0
C324 C 0.50664 0.0341 0.73612 0.0
C325 C 0.52724 0.02372 0.73525 0.0
C326 C 0.49406 0.01374 0.64074 0.0
C327 C 0.53102 0.00948 0.68429 0.0
C328 C 0.47595 0.98445 0.56452 0.0
C329 C 0.44943 0.01655 0.51671 0.0
N330 N 0.51447 0.00466 0.6397 0.0
N331 N 0.46304 0.02176 0.5681 0.0
H332 H 0.27515 0.20718 0.84387 0.0
H333 H 0.29024 0.33275 0.00213 0.0
H334 H 0.33267 0.25729 0.81881 0.0
H335 H 0.23538 0.28152 0.04488 0.0
H336 H 0.30654 0.30436 0.9377 0.0
H337 H 0.26178 0.23233 0.92473 0.0
C338 C 0.28548 0.22301 0.85755 0.0
C339 C 0.30525 0.23009 0.82604 0.0
C340 C 0.29093 0.29928 0.96113 0.0
C341 C 0.28963 0.25931 0.91543 0.0
C342 C 0.28146 0.31559 -0.00242 0.0
C343 C 0.26132 0.3096 0.02897 0.0
C344 C 0.28019 0.27674 0.95552 0.0
C345 C 0.25087 0.28697 0.02139 0.0
C346 C 0.27768 0.23754 0.90277 0.0
C347 C 0.31758 0.25114 0.84317 0.0
N348 N 0.26042 0.27137 0.98537 0.0
N349 N 0.30945 0.26513 0.88625 0.0
H350 H 0.04058 0.08671 0.8428 0.0
H351 H 0.97112 0.00563 0.07512 0.0
H352 H 0.052 0.01574 0.86161 0.0
H353 H 0.95417 0.0724 0.02334 0.0
H354 H 0.00474 0.01019 0.01034 0.0
H355 H 0.01421 0.08359 0.92671 0.0
C356 C 0.03784 0.07056 0.86544 0.0
C357 C 0.04818 0.05136 0.84464 0.0
C358 C 0.99369 0.02385 0.01374 0.0
C359 C 0.01751 0.04745 0.93977 0.0
C360 C 0.97446 0.02121 0.05027 0.0
C361 C 0.9599 0.03872 0.0549 0.0
C362 C 0.9983 0.04417 0.98206 0.0
C363 C 0.96505 0.05858 0.02199 0.0
C364 C 0.02266 0.06872 0.91311 0.0
C365 C 0.04426 0.03093 0.87613 0.0
N366 N 0.98378 0.06074 0.98712 0.0
N367 N 0.02886 0.02936 0.92157 0.0
H368 H 0.79489 0.73793 0.91653 0.0
H369 H 0.72369 0.8278 0.74674 0.0
H370 H 0.73014 0.75858 0.97469 0.0
H371 H 0.7942 0.8195 0.70798 0.0
H372 H 0.72348 0.79678 0.8174 0.0
H373 H 0.79226 0.76169 0.82651 0.0
C374 C 0.77989 0.74703 0.90957 0.0
C375 C 0.76282 0.74656 0.95331 0.0
C376 C 0.739 0.8016 0.79329 0.0
C377 C 0.75982 0.7737 0.85142 0.0
C378 C 0.73912 0.81932 0.75269 0.0
C379 C 0.75902 0.8263 0.72145 0.0
C380 C 0.75897 0.79077 0.80332 0.0
C381 C 0.77855 0.81476 0.73157 0.0
C382 C 0.77851 0.76071 0.85861 0.0
C383 C 0.74382 0.75872 0.94244 0.0
N384 N 0.77809 0.79758 0.77202 0.0
N385 N 0.74292 0.77191 0.89286 0.0
H386 H 0.72312 0.26787 0.50441 0.0
H387 H 0.69097 0.27175 0.14555 0.0
H388 H 0.68509 0.31956 0.42493 0.0
H389 H 0.73794 0.22708 0.22135 0.0
H390 H 0.68404 0.28572 0.24946 0.0
H391 H 0.72446 0.24937 0.40266 0.0
C392 C 0.71495 0.27528 0.46571 0.0
C393 C 0.70412 0.29542 0.47333 0.0
C394 C 0.69571 0.27271 0.24334 0.0
C395 C 0.70556 0.27424 0.35664 0.0
C396 C 0.69959 0.26462 0.184 0.0
C397 C 0.71521 0.24833 0.17454 0.0
C398 C 0.70748 0.26442 0.29365 0.0
C399 C 0.72589 0.23978 0.22629 0.0
C400 C 0.71573 0.2647 0.40759 0.0
C401 C 0.69378 0.30417 0.42135 0.0
N402 N 0.72194 0.24804 0.28352 0.0
N403 N 0.69482 0.29357 0.36526 0.0
H404 H 0.73915 0.28797 0.05787 0.0
H405 H 0.6765 0.32501 0.8236 0.0
H406 H 0.78709 0.2877 0.91248 0.0
H407 H 0.73697 0.36698 0.77255 0.0
H408 H 0.69783 0.313 0.91311 0.0
H409 H 0.72156 0.31933 0.0095 0.0
C410 C 0.74662 0.29528 0.01729 0.0
C411 C 0.7644 0.28527 0.98859 0.0
C412 C 0.70621 0.32558 0.88383 0.0
C413 C 0.74422 0.32048 0.93271 0.0
C414 C 0.69404 0.33235 0.8328 0.0
C415 C 0.70503 0.34709 0.79154 0.0
C416 C 0.72973 0.33295 0.89193 0.0
C417 C 0.72795 0.35571 0.80405 0.0
C418 C 0.73647 0.31296 0.9895 0.0
C419 C 0.77344 0.29512 0.93591 0.0
N420 N 0.73984 0.34792 0.85221 0.0
N421 N 0.76295 0.31199 0.90883 0.0
H422 H 0.8199 0.74664 0.28208 0.0
H423 H 0.71757 0.77897 0.4918 0.0
H424 H 0.75461 0.7058 0.28204 0.0
H425 H 0.77771 0.82479 0.45595 0.0
H426 H 0.73265 0.74909 0.42821 0.0
H427 H 0.80738 0.77148 0.36406 0.0
C428 C 0.80328 0.74237 0.30146 0.0
C429 C 0.78839 0.724 0.27663 0.0
C430 C 0.74248 0.76571 0.43435 0.0
C431 C 0.77342 0.75292 0.36757 0.0
C432 C 0.73383 0.78284 0.47025 0.0
C433 C 0.7463 0.80452 0.47904 0.0
C434 C 0.76385 0.77024 0.40759 0.0
C435 C 0.76736 0.80844 0.45026 0.0
C436 C 0.79595 0.75676 0.34733 0.0
C437 C 0.7667 0.71957 0.30133 0.0
N438 N 0.77546 0.79147 0.41608 0.0
N439 N 0.75969 0.73414 0.34509 0.0
H440 H 0.56805 0.52901 0.97682 0.0
H441 H 0.43916 0.53809 0.86856 0.0
H442 H 0.51437 0.53769 0.10403 0.0
H443 H 0.49506 0.56722 0.76246 0.0
H444 H 0.46672 0.53202 0.95158 0.0
H445 H 0.5416 0.53744 0.89217 0.0
C446 C 0.5508 0.53272 0.98687 0.0
C447 C 0.54339 0.53275 0.04736 0.0
C448 C 0.47289 0.53989 0.91023 0.0
C449 C 0.51327 0.54189 0.95175 0.0
C450 C 0.45721 0.54335 0.86298 0.0
C451 C 0.46485 0.55335 0.80894 0.0
C452 C 0.4964 0.54596 0.90275 0.0
C453 C 0.48846 0.55973 0.80383 0.0
C454 C 0.53582 0.53759 0.93885 0.0
C455 C 0.52088 0.53765 0.05812 0.0
N456 N 0.50349 0.5557 0.84998 0.0
N457 N 0.50657 0.54181 0.01079 0.0
H458 H 0.02571 0.46453 0.41083 0.0
H459 H 0.92366 0.52961 0.53796 0.0
H460 H 0.0131 0.53344 0.36847 0.0
H461 H 0.94237 0.46537 0.60364 0.0
H462 H 0.94819 0.52534 0.45036 0.0
H463 H 0.98801 0.45926 0.45698 0.0
C464 C 0.0149 0.47845 0.41066 0.0
C465 C 0.02288 0.4998 0.38834 0.0
C466 C 0.94653 0.51191 0.48325 0.0
C467 C 0.9799 0.49391 0.44016 0.0
C468 C 0.93238 0.51427 0.53291 0.0
C469 C 0.93172 0.4982 0.57897 0.0
C470 C 0.95998 0.49339 0.48016 0.0
C471 C 0.9432 0.47859 0.57027 0.0
C472 C 0.99342 0.47545 0.43686 0.0
C473 C 0.00813 0.51714 0.38804 0.0
N474 N 0.95726 0.47693 0.52249 0.0
N475 N 0.98747 0.51394 0.41437 0.0
H476 H 0.00788 0.5578 0.18992 0.0
H477 H 0.98241 0.47205 0.89697 0.0
H478 H 0.05303 0.50795 0.13231 0.0
H479 H 0.93954 0.52519 0.94509 0.0
H480 H 0.00734 0.48383 0.98637 0.0
H481 H 0.98253 0.54616 0.10096 0.0
C482 C 0.01267 0.54465 0.15817 0.0
C483 C 0.03262 0.53377 0.16898 0.0
C484 C 0.99241 0.49283 0.97759 0.0
C485 C 0.00337 0.52007 0.06757 0.0
C486 C 0.97801 0.48599 0.92674 0.0
C487 C 0.95887 0.49772 0.91306 0.0
C488 C 0.98768 0.51156 0.01523 0.0
C489 C 0.95412 0.51565 0.95359 0.0
C490 C 0.99807 0.53789 0.10759 0.0
C491 C 0.03785 0.51681 0.12612 0.0
N492 N 0.96852 0.52211 0.00258 0.0
N493 N 0.02322 0.51037 0.07764 0.0
H494 H 0.45328 0.56247 0.53767 0.0
H495 H 0.55048 0.50295 0.38525 0.0
H496 H 0.46818 0.49586 0.59626 0.0
H497 H 0.5486 0.57625 0.39618 0.0
H498 H 0.52393 0.4993 0.46987 0.0
H499 H 0.48981 0.56722 0.48931 0.0
C500 C 0.46439 0.54892 0.54129 0.0
C501 C 0.45774 0.5289 0.5721 0.0
C502 C 0.52997 0.51623 0.45514 0.0
C503 C 0.49975 0.53397 0.51452 0.0
C504 C 0.54531 0.51835 0.4073 0.0
C505 C 0.55128 0.53992 0.38306 0.0
C506 C 0.52066 0.53581 0.478 0.0
C507 C 0.54402 0.55928 0.41289 0.0
C508 C 0.48538 0.55166 0.51348 0.0
C509 C 0.47266 0.5116 0.57297 0.0
N510 N 0.52868 0.55673 0.4579 0.0
N511 N 0.49294 0.51441 0.54387 0.0
H512 H 0.08844 0.4438 0.15088 0.0
H513 H 0.21963 0.42816 0.09308 0.0
H514 H 0.1452 0.49456 0.20023 0.0
H515 H 0.16615 0.37203 0.09916 0.0
H516 H 0.19054 0.45508 0.09847 0.0
H517 H 0.11504 0.42021 0.10068 0.0
C518 C 0.10643 0.45016 0.15038 0.0
C519 C 0.1147 0.47097 0.18086 0.0
C520 C 0.18516 0.43684 0.09727 0.0
C521 C 0.14511 0.44416 0.12313 0.0
C522 C 0.20174 0.42142 0.0937 0.0
C523 C 0.19538 0.39778 0.09725 0.0
C524 C 0.1621 0.42855 0.104 0.0
C525 C 0.17189 0.39013 0.09762 0.0
C526 C 0.12158 0.43668 0.12171 0.0
C527 C 0.13815 0.47843 0.17824 0.0
N528 N 0.15612 0.40549 0.1021 0.0
N529 N 0.15257 0.46493 0.15045 0.0
H530 H 0.7865 0.90476 0.41879 0.0
H531 H 0.88974 0.00076 0.35837 0.0
H532 H 0.83188 0.93754 0.56278 0.0
H533 H 0.84182 0.97036 0.21684 0.0
H534 H 0.86989 0.97663 0.43334 0.0
H535 H 0.80771 0.92748 0.34365 0.0
C536 C 0.80098 0.91669 0.43465 0.0
C537 C 0.80737 0.91927 0.4973 0.0
C538 C 0.86374 0.97522 0.38585 0.0
C539 C 0.83177 0.94542 0.41127 0.0
C540 C 0.87508 0.98898 0.34299 0.0
C541 C 0.86741 0.98763 0.28118 0.0
C542 C 0.8446 0.95995 0.36686 0.0
C543 C 0.84833 0.97203 0.26399 0.0
C544 C 0.81308 0.92969 0.39167 0.0
C545 C 0.8263 0.935 0.515 0.0
N546 N 0.83759 0.95884 0.30655 0.0
N547 N 0.8378 0.9475 0.47225 0.0
H548 H 0.31701 0.69911 0.65264 0.0
H549 H 0.34061 0.56989 0.70616 0.0
H550 H 0.26352 0.64273 0.64487 0.0
H551 H 0.39293 0.62732 0.71012 0.0
H552 H 0.31123 0.59673 0.70313 0.0
H553 H 0.34388 0.67369 0.69201 0.0
C554 C 0.31086 0.68139 0.65969 0.0
C555 C 0.28807 0.67294 0.64447 0.0
C556 C 0.32914 0.60345 0.70576 0.0
C557 C 0.31889 0.64357 0.6892 0.0
C558 C 0.34594 0.58814 0.70788 0.0
C559 C 0.36927 0.59637 0.70724 0.0
C560 C 0.33579 0.62709 0.70309 0.0
C561 C 0.37515 0.62018 0.70949 0.0
C562 C 0.32623 0.66686 0.68234 0.0
C563 C 0.281 0.6499 0.6555 0.0
N564 N 0.35855 0.63465 0.7065 0.0
N565 N 0.29645 0.63591 0.67636 0.0
H566 H 0.69019 0.1794 0.86513 0.0
H567 H 0.61475 0.07767 -0.00242 0.0
H568 H 0.70935 0.15302 0.03951 0.0
H569 H 0.63257 0.07256 0.80753 0.0
H570 H 0.64485 0.10954 0.0147 0.0
H571 H 0.66471 0.14403 0.84249 0.0
C572 C 0.68911 0.16607 0.8984 0.0
C573 C 0.70176 0.16904 0.95434 0.0
C574 C 0.6422 0.10136 0.96936 0.0
C575 C 0.67249 0.12912 0.92931 0.0
C576 C 0.62495 0.08338 0.95938 0.0
C577 C 0.62117 0.07264 0.90096 0.0
C578 C 0.65529 0.10908 0.9202 0.0
C579 C 0.63502 0.08047 0.85318 0.0
C580 C 0.67473 0.14595 0.8853 0.0
C581 C 0.6999 0.1513 -0.00416 0.0
N582 N 0.65132 0.09855 0.8636 0.0
N583 N 0.68514 0.13221 0.983 0.0
H584 H 0.14881 0.56816 0.35896 0.0
H585 H 0.17197 0.70399 0.41608 0.0
H586 H 0.09863 0.61614 0.33179 0.0
H587 H 0.22126 0.65817 0.47249 0.0
H588 H 0.14707 0.67159 0.37375 0.0
H589 H 0.17772 0.60047 0.38752 0.0
C590 C 0.14401 0.58548 0.35772 0.0
C591 C 0.12125 0.5895 0.34338 0.0
C592 C 0.1633 0.66848 0.39533 0.0
C593 C 0.15401 0.62629 0.37648 0.0
C594 C 0.17763 0.68707 0.41983 0.0
C595 C 0.19882 0.68389 0.44845 0.0
C596 C 0.16995 0.64628 0.39931 0.0
C597 C 0.20504 0.66142 0.45122 0.0
C598 C 0.16044 0.60386 0.37459 0.0
C599 C 0.11589 0.61223 0.34304 0.0
N600 N 0.1906 0.6434 0.42706 0.0
N601 N 0.13208 0.62969 0.35966 0.0
H602 H 0.64127 0.99082 0.69346 0.0
H603 H 0.65489 0.87122 0.54149 0.0
H604 H 0.58361 0.94118 0.64381 0.0
H605 H 0.70905 0.92695 0.54937 0.0
H606 H 0.62704 0.89876 0.5583 0.0
H607 H 0.66489 0.97054 0.62417 0.0
C608 C 0.63349 0.97584 0.6673 0.0
C609 C 0.61059 0.96736 0.67556 0.0
C610 C 0.64494 0.90508 0.55471 0.0
C611 C 0.63757 0.94391 0.59652 0.0
C612 C 0.66086 0.88933 0.54481 0.0
C613 C 0.6844 0.89672 0.54576 0.0
C614 C 0.6527 0.9283 0.56689 0.0
C615 C 0.69111 0.92042 0.54935 0.0
C616 C 0.64695 0.96431 0.62745 0.0
C617 C 0.6013 0.94811 0.63967 0.0
N618 N 0.6754 0.93532 0.56165 0.0
N619 N 0.61495 0.93675 0.6027 0.0
H620 H 0.35079 0.49497 0.81206 0.0
H621 H 0.34875 0.38505 0.02036 0.0
H622 H 0.40735 0.45356 0.82812 0.0
H623 H 0.29588 0.43119 0.01824 0.0
H624 H 0.37008 0.40915 0.94784 0.0
H625 H 0.32999 0.47097 0.8853 0.0
C626 C 0.35885 0.48082 0.83095 0.0
C627 C 0.38087 0.47627 0.81384 0.0
C628 C 0.35383 0.41401 0.96337 0.0
C629 C 0.35707 0.44866 0.89787 0.0
C630 C 0.34163 0.40025 0.00475 0.0
C631 C 0.32049 0.4061 0.02548 0.0
C632 C 0.34478 0.43371 0.94233 0.0
C633 C 0.31212 0.426 0.00362 0.0
C634 C 0.34696 0.46713 0.87289 0.0
C635 C 0.39043 0.45771 0.83998 0.0
N636 N 0.32425 0.43904 0.96321 0.0
N637 N 0.37846 0.44456 0.8806 0.0
H638 H 0.78168 0.15762 0.14123 0.0
H639 H 0.8543 0.0814 0.24154 0.0
H640 H 0.83249 0.21163 0.20986 0.0
H641 H 0.90598 0.13849 0.22446 0.0
H642 H 0.82507 0.10825 0.24598 0.0
H643 H 0.80501 0.12942 0.1826 0.0
C644 C 0.79755 0.16357 0.16623 0.0
C645 C 0.80532 0.18701 0.17128 0.0
C646 C 0.84281 0.11492 0.24144 0.0
C647 C 0.83213 0.15472 0.21989 0.0
C648 C 0.85957 0.0996 0.23988 0.0
C649 C 0.88254 0.10767 0.23076 0.0
C650 C 0.84912 0.13838 0.23346 0.0
C651 C 0.88839 0.13146 0.22984 0.0
C652 C 0.81081 0.14741 0.19061 0.0
C653 C 0.82593 0.19372 0.20448 0.0
N654 N 0.87175 0.14594 0.23011 0.0
N655 N 0.83887 0.17762 0.22638 0.0
H656 H 0.80467 0.65487 0.93806 0.0
H657 H 0.86518 0.5395 0.89593 0.0
H658 H 0.81718 0.61042 0.08652 0.0
H659 H 0.85583 0.58617 0.75057 0.0
H660 H 0.84391 0.56296 0.96373 0.0
H661 H 0.81956 0.62766 0.86656 0.0
C662 C 0.81042 0.6393 0.95565 0.0
C663 C 0.80988 0.63504 0.01859 0.0
C664 C 0.84636 0.56798 0.91687 0.0
C665 C 0.82707 0.60378 0.93667 0.0
C666 C 0.85849 0.55458 0.87804 0.0
C667 C 0.8625 0.56099 0.81755 0.0
C668 C 0.83817 0.58799 0.89519 0.0
C669 C 0.8533 0.58065 0.79695 0.0
C670 C 0.81894 0.62376 0.91471 0.0
C671 C 0.8174 0.61448 0.03847 0.0
N672 N 0.84171 0.59352 0.8358 0.0
N673 N 0.82585 0.59969 -0.00228 0.0
H674 H 0.20779 0.2023 0.71336 0.0
H675 H 0.15673 0.07054 0.67974 0.0
H676 H 0.24919 0.14789 0.66586 0.0
H677 H 0.11535 0.12736 0.68712 0.0
H678 H 0.1913 0.09791 0.68518 0.0
H679 H 0.17426 0.17426 0.71456 0.0
C680 C 0.20989 0.18444 0.70329 0.0
C681 C 0.2314 0.1775 0.68921 0.0
C682 C 0.17463 0.10432 0.68569 0.0
C683 C 0.19288 0.14518 0.69063 0.0
C684 C 0.15489 0.08873 0.68282 0.0
C685 C 0.13307 0.09665 0.68269 0.0
C686 C 0.1725 0.12796 0.68905 0.0
C687 C 0.13176 0.12042 0.68666 0.0
C688 C 0.19067 0.16842 0.70388 0.0
C689 C 0.23295 0.15406 0.67666 0.0
N690 N 0.15117 0.13518 0.68969 0.0
N691 N 0.21393 0.13872 0.67766 0.0
H692 H 0.64948 0.36304 0.39563 0.0
H693 H 0.64148 0.4927 0.30778 0.0
H694 H 0.68459 0.42055 0.50079 0.0
H695 H 0.61165 0.43396 0.19755 0.0
H696 H 0.66091 0.46703 0.37308 0.0
H697 H 0.63869 0.38901 0.31772 0.0
C698 C 0.655 0.38117 0.40226 0.0
C699 C 0.6677 0.38969 0.45522 0.0
C700 C 0.65036 0.4598 0.33411 0.0
C701 C 0.65529 0.41966 0.36591 0.0
C702 C 0.6393 0.47445 0.29666 0.0
C703 C 0.62464 0.46544 0.24758 0.0
C704 C 0.64664 0.436 0.32249 0.0
C705 C 0.62256 0.44167 0.23527 0.0
C706 C 0.64889 0.39602 0.35754 0.0
C707 C 0.67465 0.4133 0.46082 0.0
N708 N 0.6332 0.42779 0.27287 0.0
N709 N 0.66812 0.42753 0.41701 0.0
H710 H 0.35127 0.97391 0.2518 0.0
H711 H 0.28931 0.84648 0.20163 0.0
H712 H 0.38512 0.91293 0.28079 0.0
H713 H 0.25825 0.90673 0.14773 0.0
H714 H 0.3244 0.87066 0.23199 0.0
H715 H 0.31642 0.94972 0.21793 0.0
C716 C 0.35134 0.95546 0.25172 0.0
C717 C 0.37122 0.94546 0.26914 0.0
C718 C 0.30999 0.87859 0.21303 0.0
C719 C 0.33144 0.9177 0.22969 0.0
C720 C 0.28994 0.86477 0.19538 0.0
C721 C 0.27074 0.87456 0.17211 0.0
C722 C 0.31084 0.90245 0.20791 0.0
C723 C 0.27263 0.89839 0.16521 0.0
C724 C 0.33148 0.94166 0.23186 0.0
C725 C 0.37027 0.92143 0.26767 0.0
N726 N 0.29226 0.91154 0.18353 0.0
N727 N 0.35075 0.9084 0.2482 0.0
H728 H 0.79066 0.34014 0.67736 0.0
H729 H 0.84745 0.46883 0.73304 0.0
H730 H 0.75647 0.39956 0.63263 0.0
H731 H 0.88787 0.4113 0.72257 0.0
H732 H 0.81304 0.44287 0.70819 0.0
H733 H 0.8259 0.36528 0.70222 0.0
C734 C 0.79061 0.35842 0.67205 0.0
C735 C 0.77053 0.36773 0.65285 0.0
C736 C 0.82943 0.43592 0.71151 0.0
C737 C 0.81064 0.39656 0.68247 0.0
C738 C 0.84911 0.4507 0.72629 0.0
C739 C 0.87069 0.44229 0.72971 0.0
C740 C 0.8312 0.41246 0.70056 0.0
C741 C 0.87165 0.41858 0.72024 0.0
C742 C 0.81071 0.37275 0.68645 0.0
C743 C 0.77151 0.39156 0.64697 0.0
N744 N 0.85218 0.40449 0.70601 0.0
N745 N 0.79115 0.40515 0.66228 0.0
H746 H 0.3556 0.18415 0.45488 0.0
H747 H 0.36405 0.04996 0.3959 0.0
H748 H 0.32064 0.13211 0.56317 0.0
H749 H 0.40114 0.10315 0.29571 0.0
H750 H 0.34492 0.07926 0.45098 0.0
H751 H 0.36951 0.15425 0.39023 0.0
C752 C 0.35079 0.16641 0.46505 0.0
C753 C 0.33708 0.16065 0.51492 0.0
C754 C 0.35711 0.08448 0.41659 0.0
C755 C 0.35304 0.12618 0.44073 0.0
C756 C 0.36799 0.06776 0.38495 0.0
C757 C 0.38438 0.07412 0.34143 0.0
C758 C 0.36264 0.10772 0.40459 0.0
C759 C 0.38876 0.09744 0.32916 0.0
C760 C 0.35874 0.1493 0.42797 0.0
C761 C 0.33128 0.13733 0.5254 0.0
N762 N 0.37808 0.11337 0.36081 0.0
N763 N 0.33939 0.12093 0.48882 0.0
H764 H 0.60079 0.62139 0.1912 0.0
H765 H 0.73397 0.64426 0.11912 0.0
H766 H 0.64476 0.56706 0.17035 0.0
H767 H 0.69143 0.69758 0.16783 0.0
H768 H 0.70125 0.61563 0.13205 0.0
H769 H 0.63367 0.64942 0.17806 0.0
C770 C 0.61737 0.61531 0.18399 0.0
C771 C 0.61996 0.59177 0.18184 0.0
C772 C 0.69912 0.63361 0.13985 0.0
C773 C 0.65781 0.62394 0.16638 0.0
C774 C 0.71776 0.64998 0.13223 0.0
C775 C 0.71549 0.67341 0.14242 0.0
C776 C 0.67803 0.64071 0.15744 0.0
C777 C 0.69406 0.67976 0.15957 0.0
C778 C 0.63618 0.63137 0.1765 0.0
C779 C 0.64195 0.58501 0.17249 0.0
N780 N 0.6762 0.66352 0.16646 0.0
N781 N 0.66001 0.60102 0.16487 0.0
H782 H 0.18702 0.92839 0.01227 0.0
H783 H 0.11548 0.93942 0.69756 0.0
H784 H 0.14898 0.87159 0.9108 0.0
H785 H 0.14174 0.99777 0.81433 0.0
H786 H 0.13357 0.91438 0.76699 0.0
H787 H 0.17608 0.95405 0.93234 0.0
C788 C 0.17654 0.9213 0.97301 0.0
C789 C 0.16867 0.89788 0.96849 0.0
C790 C 0.13552 0.93268 0.77723 0.0
C791 C 0.15624 0.927 0.8771 0.0
C792 C 0.12525 0.94702 0.73747 0.0
C793 C 0.12685 0.97071 0.75052 0.0
C794 C 0.14751 0.94207 0.83052 0.0
C795 C 0.13989 0.97957 0.80276 0.0
C796 C 0.17028 0.93594 0.92753 0.0
C797 C 0.1552 0.88958 0.91658 0.0
N798 N 0.14957 0.96522 0.84117 0.0
N799 N 0.14936 0.90412 0.8731 0.0
loop_
_geom_bond_atom_site_label_1
_geom_bond_atom_site_label_2
_geom_bond_distance
_geom_bond_site_symmetry_2
_ccdc_geom_bond_type
Mg0 O1 2.028 1_554 S
Mg0 O7 1.986 . S
Mg0 O9 2.114 . S
Mg0 O10 2.251 . S
Mg0 O13 2.010 . S
O1 Mg0 2.028 1_556 S
O1 C4 1.250 . S
O2 Mg3 2.028 . S
O2 C4 1.248 1_554 S
Mg3 O2 2.028 . S
Mg3 O8 2.032 . S
Mg3 O10 2.079 . S
C4 O1 1.250 . S
C4 O2 1.248 1_556 S
C5 O6 1.264 . S
C5 O13 1.249 . S
O6 C5 1.264 . S
O7 Mg0 1.986 . S
O7 C11 1.246 . S
O8 Mg3 2.032 . S
O8 C11 1.259 . S
O9 Mg0 2.114 . S
O9 C12 1.252 . S
O10 Mg0 2.251 . S
O10 Mg3 2.079 . S
O10 C12 1.273 . S
C11 O7 1.246 . S
C11 O8 1.259 . S
C12 O9 1.252 . S
C12 O10 1.273 . S
O13 Mg0 2.010 . S
O13 C5 1.249 . S
Mg14 O15 2.028 . S
Mg14 O21 1.986 . S
Mg14 O23 2.114 . S
Mg14 O24 2.251 . S
Mg14 O27 2.010 . S
O15 Mg14 2.028 . S
O15 C18 1.250 . S
O16 Mg17 2.028 . S
O16 C18 1.248 . S
Mg17 O16 2.028 . S
Mg17 O22 2.032 . S
Mg17 O24 2.079 . S
C18 O15 1.250 . S
C18 O16 1.248 . S
C19 O20 1.264 . S
C19 O27 1.249 1_565 S
O20 C19 1.264 . S
O21 Mg14 1.986 . S
O21 C25 1.246 . S
O22 Mg17 2.032 . S
O22 C25 1.259 . S
O23 Mg14 2.114 . S
O23 C26 1.252 . S
O24 Mg14 2.251 . S
O24 Mg17 2.079 . S
O24 C26 1.273 . S
C25 O21 1.246 . S
C25 O22 1.259 . S
C26 O23 1.252 . S
C26 O24 1.273 . S
O27 Mg14 2.010 . S
O27 C19 1.249 1_545 S
Mg28 O29 2.028 . S
Mg28 O35 1.986 . S
Mg28 O37 2.114 . S
Mg28 O38 2.251 . S
Mg28 O41 2.010 . S
O29 Mg28 2.028 . S
O29 C32 1.250 . S
O30 Mg31 2.028 . S
O30 C32 1.248 . S
Mg31 O30 2.028 . S
Mg31 O36 2.032 . S
Mg31 O38 2.079 . S
C32 O29 1.250 . S
C32 O30 1.248 . S
C33 O34 1.264 . S
C33 O41 1.249 . S
O34 C33 1.264 . S
O35 Mg28 1.986 . S
O35 C39 1.246 . S
O36 Mg31 2.032 . S
O36 C39 1.259 . S
O37 Mg28 2.114 . S
O37 C40 1.252 . S
O38 Mg28 2.251 . S
O38 Mg31 2.079 . S
O38 C40 1.273 . S
C39 O35 1.246 . S
C39 O36 1.259 . S
C40 O37 1.252 . S
C40 O38 1.273 . S
O41 Mg28 2.010 . S
O41 C33 1.249 . S
Mg42 O43 2.028 . S
Mg42 O49 1.986 . S
Mg42 O51 2.114 1_545 S
Mg42 O52 2.251 . S
Mg42 O55 2.010 1_545 S
O43 Mg42 2.028 . S
O43 C46 1.250 . S
O44 Mg45 2.028 . S
O44 C46 1.248 . S
Mg45 O44 2.028 . S
Mg45 O50 2.032 . S
Mg45 O52 2.079 . S
C46 O43 1.250 . S
C46 O44 1.248 . S
C47 O48 1.264 . S
C47 O55 1.249 . S
O48 C47 1.264 . S
O49 Mg42 1.986 . S
O49 C53 1.246 . S
O50 Mg45 2.032 . S
O50 C53 1.259 . S
O51 Mg42 2.114 1_565 S
O51 C54 1.252 1_565 S
O52 Mg42 2.251 . S
O52 Mg45 2.079 . S
O52 C54 1.273 . S
C53 O49 1.246 . S
C53 O50 1.259 . S
C54 O51 1.252 1_545 S
C54 O52 1.273 . S
O55 Mg42 2.010 1_565 S
O55 C47 1.249 . S
Mg56 O57 2.028 . S
Mg56 O63 1.986 1_554 S
Mg56 O65 2.114 . S
Mg56 O66 2.251 . S
Mg56 O69 2.010 . S
O57 Mg56 2.028 . S
O57 C60 1.250 . S
O58 Mg59 2.028 . S
O58 C60 1.248 . S
Mg59 O58 2.028 . S
Mg59 O64 2.032 1_554 S
Mg59 O66 2.079 . S
C60 O57 1.250 . S
C60 O58 1.248 . S
C61 O62 1.264 . S
C61 O69 1.249 . S
O62 C61 1.264 . S
O63 Mg56 1.986 1_556 S
O63 C67 1.246 . S
O64 Mg59 2.032 1_556 S
O64 C67 1.259 . S
O65 Mg56 2.114 . S
O65 C68 1.252 . S
O66 Mg56 2.251 . S
O66 Mg59 2.079 . S
O66 C68 1.273 . S
C67 O63 1.246 . S
C67 O64 1.259 . S
C68 O65 1.252 . S
C68 O66 1.273 . S
O69 Mg56 2.010 . S
O69 C61 1.249 . S
Mg70 O71 2.028 . S
Mg70 O77 1.986 . S
Mg70 O79 2.114 . S
Mg70 O80 2.251 . S
Mg70 O83 2.005 1_545 S
O71 Mg70 2.028 . S
O71 C74 1.250 . S
O72 Mg73 2.028 . S
O72 C74 1.248 . S
Mg73 O72 2.028 . S
Mg73 O78 2.032 . S
Mg73 O80 2.079 . S
C74 O71 1.250 . S
C74 O72 1.248 . S
C75 O76 1.264 . S
C75 O83 1.254 . S
O76 C75 1.264 . S
O77 Mg70 1.986 . S
O77 C81 1.246 . S
O78 Mg73 2.032 . S
O78 C81 1.259 . S
O79 Mg70 2.114 . S
O79 C82 1.252 . S
O80 Mg70 2.251 . S
O80 Mg73 2.079 . S
O80 C82 1.273 . S
C81 O77 1.246 . S
C81 O78 1.259 . S
C82 O79 1.252 . S
C82 O80 1.273 . S
O83 Mg70 2.005 1_565 S
O83 C75 1.254 . S
Mg84 O85 2.028 . S
Mg84 O91 1.986 . S
Mg84 O93 2.114 . S
Mg84 O94 2.251 . S
Mg84 O97 2.010 . S
O85 Mg84 2.028 . S
O85 C88 1.250 . S
O86 Mg87 2.028 . S
O86 C88 1.248 . S
Mg87 O86 2.028 . S
Mg87 O92 2.032 . S
Mg87 O94 2.079 . S
C88 O85 1.250 . S
C88 O86 1.248 . S
C89 O90 1.264 . S
C89 O97 1.249 . S
O90 C89 1.264 . S
O91 Mg84 1.986 . S
O91 C95 1.246 . S
O92 Mg87 2.032 . S
O92 C95 1.259 . S
O93 Mg84 2.114 . S
O93 C96 1.252 . S
O94 Mg84 2.251 . S
O94 Mg87 2.079 . S
O94 C96 1.273 . S
C95 O91 1.246 . S
C95 O92 1.259 . S
C96 O93 1.252 . S
C96 O94 1.273 . S
O97 Mg84 2.010 . S
O97 C89 1.249 . S
Mg98 O99 2.028 . S
Mg98 O105 1.986 . S
Mg98 O107 2.114 . S
Mg98 O108 2.251 . S
Mg98 O111 2.010 . S
O99 Mg98 2.028 . S
O99 C102 1.250 1_545 S
O100 Mg101 2.028 . S
O100 C102 1.248 . S
Mg101 O100 2.028 . S
Mg101 O106 2.032 . S
Mg101 O108 2.079 1_565 S
C102 O99 1.250 1_565 S
C102 O100 1.248 . S
C103 O104 1.264 . S
C103 O111 1.249 . S
O104 C103 1.264 . S
O105 Mg98 1.986 . S
O105 C109 1.246 . S
O106 Mg101 2.032 . S
O106 C109 1.259 1_565 S
O107 Mg98 2.114 . S
O107 C110 1.252 . S
O108 Mg98 2.251 . S
O108 Mg101 2.079 1_545 S
O108 C110 1.273 . S
C109 O105 1.246 . S
C109 O106 1.259 1_545 S
C110 O107 1.252 . S
C110 O108 1.273 . S
O111 Mg98 2.010 . S
O111 C103 1.249 . S
Mg112 O113 2.028 . S
Mg112 O119 1.986 . S
Mg112 O121 2.114 . S
Mg112 O122 2.251 . S
Mg112 O125 2.010 . S
O113 Mg112 2.028 . S
O113 C116 1.250 . S
O114 Mg115 2.028 . S
O114 C116 1.248 . S
Mg115 O114 2.028 . S
Mg115 O120 2.032 . S
Mg115 O122 2.079 . S
C116 O113 1.250 . S
C116 O114 1.248 . S
C117 O118 1.264 . S
C117 O125 1.249 . S
O118 C117 1.264 . S
O119 Mg112 1.986 . S
O119 C123 1.246 . S
O120 Mg115 2.032 . S
O120 C123 1.259 . S
O121 Mg112 2.114 . S
O121 C124 1.252 . S
O122 Mg112 2.251 . S
O122 Mg115 2.079 . S
O122 C124 1.273 . S
C123 O119 1.246 . S
C123 O120 1.259 . S
C124 O121 1.252 . S
C124 O122 1.273 . S
O125 Mg112 2.010 . S
O125 C117 1.249 . S
Mg126 O127 2.028 . S
Mg126 O133 1.986 . S
Mg126 O135 2.114 . S
Mg126 O136 2.251 . S
Mg126 O139 2.010 . S
O127 Mg126 2.028 . S
O127 C130 1.250 . S
O128 Mg129 2.028 . S
O128 C130 1.248 . S
Mg129 O128 2.028 . S
Mg129 O134 2.032 . S
Mg129 O136 2.079 . S
C130 O127 1.250 . S
C130 O128 1.248 . S
C131 O132 1.264 . S
C131 O139 1.249 . S
O132 C131 1.264 . S
O133 Mg126 1.986 . S
O133 C137 1.246 . S
O134 Mg129 2.032 . S
O134 C137 1.259 . S
O135 Mg126 2.114 . S
O135 C138 1.252 . S
O136 Mg126 2.251 . S
O136 Mg129 2.079 . S
O136 C138 1.273 . S
C137 O133 1.246 . S
C137 O134 1.259 . S
C138 O135 1.252 . S
C138 O136 1.273 . S
O139 Mg126 2.010 . S
O139 C131 1.249 . S
Mg140 O141 2.028 . S
Mg140 O147 1.986 . S
Mg140 O149 2.114 1_554 S
Mg140 O150 2.251 1_554 S
Mg140 O153 2.010 . S
O141 Mg140 2.028 . S
O141 C144 1.250 . S
O142 Mg143 2.028 . S
O142 C144 1.248 . S
Mg143 O142 2.028 . S
Mg143 O148 2.032 . S
Mg143 O150 2.079 1_554 S
C144 O141 1.250 . S
C144 O142 1.248 . S
C145 O146 1.264 . S
C145 O153 1.249 . S
O146 C145 1.264 . S
O147 Mg140 1.986 . S
O147 C151 1.246 . S
O148 Mg143 2.032 . S
O148 C151 1.259 . S
O149 Mg140 2.114 1_556 S
O149 C152 1.252 . S
O150 Mg140 2.251 1_556 S
O150 Mg143 2.079 1_556 S
O150 C152 1.273 . S
C151 O147 1.246 . S
C151 O148 1.259 . S
C152 O149 1.252 . S
C152 O150 1.273 . S
O153 Mg140 2.010 . S
O153 C145 1.249 . S
Mg154 O155 2.028 . S
Mg154 O161 1.986 . S
Mg154 O163 2.114 . S
Mg154 O164 2.251 . S
Mg154 O167 2.010 . S
O155 Mg154 2.028 . S
O155 C158 1.250 . S
O156 Mg157 2.028 . S
O156 C158 1.248 . S
Mg157 O156 2.028 . S
Mg157 O162 2.032 . S
Mg157 O164 2.079 . S
C158 O155 1.250 . S
C158 O156 1.248 . S
C159 O160 1.264 . S
C159 O167 1.249 . S
O160 C159 1.264 . S
O161 Mg154 1.986 . S
O161 C165 1.246 . S
O162 Mg157 2.032 . S
O162 C165 1.259 . S
O163 Mg154 2.114 . S
O163 C166 1.252 . S
O164 Mg154 2.251 . S
O164 Mg157 2.079 . S
O164 C166 1.273 . S
C165 O161 1.246 . S
C165 O162 1.259 . S
C166 O163 1.252 . S
C166 O164 1.273 . S
O167 Mg154 2.010 . S
O167 C159 1.249 . S
Mg168 O169 2.028 . S
Mg168 O175 1.986 . S
Mg168 O177 2.114 . S
Mg168 O178 2.251 . S
Mg168 O181 2.010 . S
O169 Mg168 2.028 . S
O169 C172 1.250 . S
O170 Mg171 2.028 . S
O170 C172 1.248 . S
Mg171 O170 2.028 . S
Mg171 O176 2.032 . S
Mg171 O178 2.079 . S
C172 O169 1.250 . S
C172 O170 1.248 . S
C173 O174 1.264 . S
C173 O181 1.249 . S
O174 C173 1.264 . S
O175 Mg168 1.986 . S
O175 C179 1.246 . S
O176 Mg171 2.032 . S
O176 C179 1.259 . S
O177 Mg168 2.114 . S
O177 C180 1.252 . S
O178 Mg168 2.251 . S
O178 Mg171 2.079 . S
O178 C180 1.273 . S
C179 O175 1.246 . S
C179 O176 1.259 . S
C180 O177 1.252 . S
C180 O178 1.273 . S
O181 Mg168 2.010 . S
O181 C173 1.249 . S
Mg182 O183 2.028 . S
Mg182 O189 1.986 . S
Mg182 O191 2.114 . S
Mg182 O192 2.251 . S
Mg182 O195 2.010 . S
O183 Mg182 2.028 . S
O183 C186 1.250 . S
O184 Mg185 2.028 . S
O184 C186 1.248 . S
Mg185 O184 2.028 . S
Mg185 O190 2.032 . S
Mg185 O192 2.079 . S
C186 O183 1.250 . S
C186 O184 1.248 . S
C187 O188 1.264 . S
C187 O195 1.249 . S
O188 C187 1.264 . S
O189 Mg182 1.986 . S
O189 C193 1.246 . S
O190 Mg185 2.032 . S
O190 C193 1.259 . S
O191 Mg182 2.114 . S
O191 C194 1.252 . S
O192 Mg182 2.251 . S
O192 Mg185 2.079 . S
O192 C194 1.273 . S
C193 O189 1.246 . S
C193 O190 1.259 . S
C194 O191 1.252 . S
C194 O192 1.273 . S
O195 Mg182 2.010 . S
O195 C187 1.249 . S
Mg196 O197 2.028 . S
Mg196 O203 1.986 1_554 S
Mg196 O205 2.114 . S
Mg196 O206 2.251 . S
Mg196 O209 2.010 . S
O197 Mg196 2.028 . S
O197 C200 1.250 . S
O198 Mg199 2.028 . S
O198 C200 1.248 . S
Mg199 O198 2.028 . S
Mg199 O204 2.032 1_554 S
Mg199 O206 2.079 . S
C200 O197 1.250 . S
C200 O198 1.248 . S
C201 O202 1.264 1_554 S
C201 O209 1.249 . S
O202 C201 1.264 1_556 S
O203 Mg196 1.986 1_556 S
O203 C207 1.246 . S
O204 Mg199 2.032 1_556 S
O204 C207 1.259 . S
O205 Mg196 2.114 . S
O205 C208 1.252 . S
O206 Mg196 2.251 . S
O206 Mg199 2.079 . S
O206 C208 1.273 . S
C207 O203 1.246 . S
C207 O204 1.259 . S
C208 O205 1.252 . S
C208 O206 1.273 . S
O209 Mg196 2.010 . S
O209 C201 1.249 . S
Mg210 O211 2.028 . S
Mg210 O217 1.986 . S
Mg210 O219 2.114 . S
Mg210 O220 2.251 . S
Mg210 O223 2.010 . S
O211 Mg210 2.028 . S
O211 C214 1.250 . S
O212 Mg213 2.028 . S
O212 C214 1.248 . S
Mg213 O212 2.028 . S
Mg213 O218 2.032 . S
Mg213 O220 2.079 . S
C214 O211 1.250 . S
C214 O212 1.248 . S
C215 O216 1.264 . S
C215 O223 1.249 . S
O216 C215 1.264 . S
O217 Mg210 1.986 . S
O217 C221 1.246 . S
O218 Mg213 2.032 . S
O218 C221 1.259 . S
O219 Mg210 2.114 . S
O219 C222 1.252 . S
O220 Mg210 2.251 . S
O220 Mg213 2.079 . S
O220 C222 1.273 . S
C221 O217 1.246 . S
C221 O218 1.259 . S
C222 O219 1.252 . S
C222 O220 1.273 . S
O223 Mg210 2.010 . S
O223 C215 1.249 . S
H224 C230 0.930 . S
H225 C234 0.930 . S
H226 C239 0.929 . S
H227 C237 0.929 . S
H228 C232 0.929 . S
H229 C238 0.929 . S
C230 H224 0.930 . S
C230 C231 1.367 . S
C230 C238 1.378 . S
C231 C230 1.367 . S
C231 C239 1.433 . S
C232 H228 0.929 . S
C232 C234 1.378 . S
C232 C236 1.350 . S
C233 C236 1.463 . S
C233 C238 1.350 . S
C233 N241 1.427 . S
C234 H225 0.930 . S
C234 C232 1.378 . S
C234 C235 1.367 . S
C235 C234 1.367 . S
C235 C237 1.433 . S
C236 C232 1.350 . S
C236 C233 1.463 . S
C236 N240 1.427 . S
C237 H227 0.929 . S
C237 C235 1.433 . S
C237 N240 1.384 . S
C238 H229 0.929 . S
C238 C230 1.378 . S
C238 C233 1.350 . S
C239 H226 0.929 . S
C239 C231 1.433 . S
C239 N241 1.384 . S
N240 C236 1.427 . S
N240 C237 1.384 . S
N241 C233 1.427 . S
N241 C239 1.384 . S
H242 C248 0.930 . S
H243 C252 0.930 1_565 S
H244 C257 0.929 . S
H245 C255 0.929 . S
H246 C250 0.929 . S
H247 C256 0.944 . S
C248 H242 0.930 . S
C248 C249 1.367 . S
C248 C256 1.378 . S
C249 C248 1.367 . S
C249 C257 1.433 . S
C250 H246 0.929 . S
C250 C252 1.378 . S
C250 C254 1.350 . S
C251 C254 1.463 1_655 S
C251 C256 1.350 . S
C251 N259 1.427 . S
C252 H243 0.930 1_545 S
C252 C250 1.378 . S
C252 C253 1.367 . S
C253 C252 1.367 . S
C253 C255 1.433 . S
C254 C250 1.350 . S
C254 C251 1.463 1_455 S
C254 N258 1.427 . S
C255 H245 0.929 . S
C255 C253 1.433 . S
C255 N258 1.384 . S
C256 H247 0.944 . S
C256 C248 1.378 . S
C256 C251 1.350 . S
C257 H244 0.929 . S
C257 C249 1.433 . S
C257 N259 1.384 . S
N258 C254 1.427 . S
N258 C255 1.384 . S
N259 C251 1.427 . S
N259 C257 1.384 . S
H260 C266 0.930 . S
H261 C270 0.930 . S
H262 C275 0.929 . S
H263 C273 0.929 . S
H264 C268 0.929 . S
H265 C274 0.929 . S
C266 H260 0.930 . S
C266 C267 1.367 . S
C266 C274 1.378 . S
C267 C266 1.367 . S
C267 C275 1.433 . S
C268 H264 0.929 . S
C268 C270 1.378 . S
C268 C272 1.350 . S
C269 C272 1.463 . S
C269 C274 1.350 . S
C269 N277 1.427 . S
C270 H261 0.930 . S
C270 C268 1.378 . S
C270 C271 1.367 . S
C271 C270 1.367 . S
C271 C273 1.433 . S
C272 C268 1.350 . S
C272 C269 1.463 . S
C272 N276 1.427 . S
C273 H263 0.929 . S
C273 C271 1.433 . S
C273 N276 1.384 . S
C274 H265 0.929 . S
C274 C266 1.378 . S
C274 C269 1.350 . S
C275 H262 0.929 . S
C275 C267 1.433 . S
C275 N277 1.384 . S
N276 C272 1.427 . S
N276 C273 1.384 . S
N277 C269 1.427 . S
N277 C275 1.384 . S
H278 C284 0.930 . S
H279 C288 0.930 . S
H280 C293 0.929 . S
H281 C291 0.929 . S
H282 C286 0.929 . S
H283 C292 0.929 . S
C284 H278 0.930 . S
C284 C285 1.367 . S
C284 C292 1.378 . S
C285 C284 1.367 . S
C285 C293 1.433 . S
C286 H282 0.929 . S
C286 C288 1.378 . S
C286 C290 1.350 . S
C287 C290 1.463 . S
C287 C292 1.350 . S
C287 N295 1.427 . S
C288 H279 0.930 . S
C288 C286 1.378 . S
C288 C289 1.367 1_554 S
C289 C288 1.367 1_556 S
C289 C291 1.433 . S
C290 C286 1.350 . S
C290 C287 1.463 . S
C290 N294 1.427 1_554 S
C291 H281 0.929 . S
C291 C289 1.433 . S
C291 N294 1.384 . S
C292 H283 0.929 . S
C292 C284 1.378 . S
C292 C287 1.350 . S
C293 H280 0.929 . S
C293 C285 1.433 . S
C293 N295 1.384 . S
N294 C290 1.427 1_556 S
N294 C291 1.384 . S
N295 C287 1.427 . S
N295 C293 1.384 . S
H296 C302 0.930 . S
H297 C306 0.930 . S
H298 C311 0.929 . S
H299 C309 0.929 . S
H300 C304 0.929 . S
H301 C310 0.929 . S
C302 H296 0.930 . S
C302 C303 1.367 . S
C302 C310 1.378 . S
C303 C302 1.367 . S
C303 C311 1.433 . S
C304 H300 0.929 . S
C304 C306 1.378 . S
C304 C308 1.350 . S
C305 C308 1.463 . S
C305 C310 1.350 . S
C305 N313 1.427 . S
C306 H297 0.930 . S
C306 C304 1.378 . S
C306 C307 1.367 . S
C307 C306 1.367 . S
C307 C309 1.433 . S
C308 C304 1.350 . S
C308 C305 1.463 . S
C308 N312 1.427 . S
C309 H299 0.929 . S
C309 C307 1.433 . S
C309 N312 1.384 . S
C310 H301 0.929 . S
C310 C302 1.378 . S
C310 C305 1.350 . S
C311 H298 0.929 . S
C311 C303 1.433 . S
C311 N313 1.384 . S
N312 C308 1.427 . S
N312 C309 1.384 . S
N313 C305 1.427 . S
N313 C311 1.384 . S
H314 C320 0.930 . S
H315 C324 0.930 . S
H316 C329 0.929 . S
H317 C327 0.929 1_565 S
H318 C322 0.929 . S
H319 C328 0.929 . S
C320 H314 0.930 . S
C320 C321 1.367 1_565 S
C320 C328 1.378 . S
C321 C320 1.367 1_545 S
C321 C329 1.433 . S
C322 H318 0.929 . S
C322 C324 1.378 . S
C322 C326 1.350 . S
C323 C326 1.463 . S
C323 C328 1.350 1_545 S
C323 N331 1.427 . S
C324 H315 0.930 . S
C324 C322 1.378 . S
C324 C325 1.367 . S
C325 C324 1.367 . S
C325 C327 1.433 . S
C326 C322 1.350 . S
C326 C323 1.463 . S
C326 N330 1.427 . S
C327 H317 0.929 1_545 S
C327 C325 1.433 . S
C327 N330 1.384 . S
C328 H319 0.929 . S
C328 C320 1.378 . S
C328 C323 1.350 1_565 S
C329 H316 0.929 . S
C329 C321 1.433 . S
C329 N331 1.384 . S
N330 C326 1.427 . S
N330 C327 1.384 . S
N331 C323 1.427 . S
N331 C329 1.384 . S
H332 C338 0.930 . S
H333 C342 0.930 . S
H334 C347 0.929 . S
H335 C345 0.929 . S
H336 C340 0.929 . S
H337 C346 0.929 . S
C338 H332 0.930 . S
C338 C339 1.367 . S
C338 C346 1.378 . S
C339 C338 1.367 . S
C339 C347 1.433 . S
C340 H336 0.929 . S
C340 C342 1.378 . S
C340 C344 1.350 . S
C341 C344 1.463 . S
C341 C346 1.350 . S
C341 N349 1.427 . S
C342 H333 0.930 . S
C342 C340 1.378 . S
C342 C343 1.367 . S
C343 C342 1.367 . S
C343 C345 1.433 . S
C344 C340 1.350 . S
C344 C341 1.463 . S
C344 N348 1.427 . S
C345 H335 0.929 . S
C345 C343 1.433 . S
C345 N348 1.384 . S
C346 H337 0.929 . S
C346 C338 1.378 . S
C346 C341 1.350 . S
C347 H334 0.929 . S
C347 C339 1.433 . S
C347 N349 1.384 . S
N348 C344 1.427 . S
N348 C345 1.384 . S
N349 C341 1.427 . S
N349 C347 1.384 . S
H350 C356 0.930 . S
H351 C360 0.930 . S
H352 C365 0.929 . S
H353 C363 0.929 . S
H354 C358 0.929 1_455 S
H355 C364 0.929 1_655 S
C356 H350 0.930 . S
C356 C357 1.367 . S
C356 C364 1.378 . S
C357 C356 1.367 . S
C357 C365 1.433 . S
C358 H354 0.929 1_655 S
C358 C360 1.378 . S
C358 C362 1.350 . S
C359 C362 1.463 1_455 S
C359 C364 1.350 1_554 S
C359 N367 1.427 . S
C360 H351 0.930 . S
C360 C358 1.378 . S
C360 C361 1.367 . S
C361 C360 1.367 . S
C361 C363 1.433 . S
C362 C358 1.350 . S
C362 C359 1.463 1_655 S
C362 N366 1.427 . S
C363 H353 0.929 . S
C363 C361 1.433 . S
C363 N366 1.384 . S
C364 H355 0.929 1_455 S
C364 C356 1.378 . S
C364 C359 1.350 1_556 S
C365 H352 0.929 . S
C365 C357 1.433 . S
C365 N367 1.384 1_556 S
N366 C362 1.427 . S
N366 C363 1.384 . S
N367 C359 1.427 . S
N367 C365 1.384 1_554 S
H368 C374 0.930 . S
H369 C378 0.930 . S
H370 C383 0.929 . S
H371 C381 0.929 . S
H372 C376 0.929 . S
H373 C382 0.929 . S
C374 H368 0.930 . S
C374 C375 1.367 . S
C374 C382 1.378 . S
C375 C374 1.367 . S
C375 C383 1.433 . S
C376 H372 0.929 . S
C376 C378 1.378 . S
C376 C380 1.350 . S
C377 C380 1.463 . S
C377 C382 1.350 . S
C377 N385 1.427 . S
C378 H369 0.930 . S
C378 C376 1.378 . S
C378 C379 1.367 . S
C379 C378 1.367 . S
C379 C381 1.433 . S
C380 C376 1.350 . S
C380 C377 1.463 . S
C380 N384 1.427 . S
C381 H371 0.929 . S
C381 C379 1.433 . S
C381 N384 1.384 . S
C382 H373 0.929 . S
C382 C374 1.378 . S
C382 C377 1.350 . S
C383 H370 0.929 . S
C383 C375 1.433 . S
C383 N385 1.384 . S
N384 C380 1.427 . S
N384 C381 1.384 . S
N385 C377 1.427 . S
N385 C383 1.384 . S
H386 C392 0.930 . S
H387 C396 0.930 . S
H388 C401 0.929 . S
H389 C399 0.929 . S
H390 C394 0.929 . S
H391 C400 0.929 . S
C392 H386 0.930 . S
C392 C393 1.367 . S
C392 C400 1.378 . S
C393 C392 1.367 . S
C393 C401 1.433 . S
C394 H390 0.929 . S
C394 C396 1.378 . S
C394 C398 1.350 . S
C395 C398 1.463 . S
C395 C400 1.350 . S
C395 N403 1.427 . S
C396 H387 0.930 . S
C396 C394 1.378 . S
C396 C397 1.367 . S
C397 C396 1.367 . S
C397 C399 1.433 . S
C398 C394 1.350 . S
C398 C395 1.463 . S
C398 N402 1.427 . S
C399 H389 0.929 . S
C399 C397 1.433 . S
C399 N402 1.384 . S
C400 H391 0.929 . S
C400 C392 1.378 . S
C400 C395 1.350 . S
C401 H388 0.929 . S
C401 C393 1.433 . S
C401 N403 1.384 . S
N402 C398 1.427 . S
N402 C399 1.384 . S
N403 C395 1.427 . S
N403 C401 1.384 . S
H404 C410 0.930 . S
H405 C414 0.930 . S
H406 C419 0.929 . S
H407 C417 0.929 . S
H408 C412 0.929 . S
H409 C418 0.929 . S
C410 H404 0.930 . S
C410 C411 1.367 . S
C410 C418 1.378 . S
C411 C410 1.367 . S
C411 C419 1.433 . S
C412 H408 0.929 . S
C412 C414 1.378 . S
C412 C416 1.350 . S
C413 C416 1.463 . S
C413 C418 1.350 . S
C413 N421 1.427 . S
C414 H405 0.930 . S
C414 C412 1.378 . S
C414 C415 1.367 . S
C415 C414 1.367 . S
C415 C417 1.433 . S
C416 C412 1.350 . S
C416 C413 1.463 . S
C416 N420 1.427 . S
C417 H407 0.929 . S
C417 C415 1.433 . S
C417 N420 1.384 . S
C418 H409 0.929 . S
C418 C410 1.378 . S
C418 C413 1.350 . S
C419 H406 0.929 . S
C419 C411 1.433 . S
C419 N421 1.384 . S
N420 C416 1.427 . S
N420 C417 1.384 . S
N421 C413 1.427 . S
N421 C419 1.384 . S
H422 C428 0.930 . S
H423 C432 0.930 . S
H424 C437 0.929 . S
H425 C435 0.929 . S
H426 C430 0.929 . S
H427 C436 0.929 . S
C428 H422 0.930 . S
C428 C429 1.367 . S
C428 C436 1.378 . S
C429 C428 1.367 . S
C429 C437 1.433 . S
C430 H426 0.929 . S
C430 C432 1.378 . S
C430 C434 1.350 . S
C431 C434 1.463 . S
C431 C436 1.350 . S
C431 N439 1.427 . S
C432 H423 0.930 . S
C432 C430 1.378 . S
C432 C433 1.367 . S
C433 C432 1.367 . S
C433 C435 1.433 . S
C434 C430 1.350 . S
C434 C431 1.463 . S
C434 N438 1.427 . S
C435 H425 0.929 . S
C435 C433 1.433 . S
C435 N438 1.384 . S
C436 H427 0.929 . S
C436 C428 1.378 . S
C436 C431 1.350 . S
C437 H424 0.929 . S
C437 C429 1.433 . S
C437 N439 1.384 . S
N438 C434 1.427 . S
N438 C435 1.384 . S
N439 C431 1.427 . S
N439 C437 1.384 . S
H440 C446 0.930 . S
H441 C450 0.930 . S
H442 C455 0.929 . S
H443 C453 0.929 . S
H444 C448 0.929 . S
H445 C454 0.929 . S
C446 H440 0.930 . S
C446 C447 1.367 . S
C446 C454 1.378 . S
C447 C446 1.367 . S
C447 C455 1.433 . S
C448 H444 0.929 . S
C448 C450 1.378 1_554 S
C448 C452 1.350 . S
C449 C452 1.463 . S
C449 C454 1.350 . S
C449 N457 1.427 . S
C450 H441 0.930 . S
C450 C448 1.378 1_556 S
C450 C451 1.367 . S
C451 C450 1.367 . S
C451 C453 1.433 . S
C452 C448 1.350 . S
C452 C449 1.463 . S
C452 N456 1.427 1_554 S
C453 H443 0.929 . S
C453 C451 1.433 . S
C453 N456 1.384 . S
C454 H445 0.929 . S
C454 C446 1.378 . S
C454 C449 1.350 . S
C455 H442 0.929 . S
C455 C447 1.433 . S
C455 N457 1.384 . S
N456 C452 1.427 1_556 S
N456 C453 1.384 . S
N457 C449 1.427 . S
N457 C455 1.384 . S
H458 C464 0.930 . S
H459 C468 0.930 . S
H460 C473 0.929 . S
H461 C471 0.929 . S
H462 C466 0.929 . S
H463 C472 0.929 . S
C464 H458 0.930 . S
C464 C465 1.367 . S
C464 C472 1.378 . S
C465 C464 1.367 . S
C465 C473 1.433 . S
C466 H462 0.929 . S
C466 C468 1.378 . S
C466 C470 1.350 . S
C467 C470 1.463 1_455 S
C467 C472 1.350 . S
C467 N475 1.427 . S
C468 H459 0.930 . S
C468 C466 1.378 . S
C468 C469 1.367 . S
C469 C468 1.367 . S
C469 C471 1.433 . S
C470 C466 1.350 . S
C470 C467 1.463 1_655 S
C470 N474 1.427 . S
C471 H461 0.929 . S
C471 C469 1.433 . S
C471 N474 1.384 . S
C472 H463 0.929 . S
C472 C464 1.378 . S
C472 C467 1.350 . S
C473 H460 0.929 . S
C473 C465 1.433 . S
C473 N475 1.384 . S
N474 C470 1.427 . S
N474 C471 1.384 . S
N475 C467 1.427 . S
N475 C473 1.384 . S
H476 C482 0.930 . S
H477 C486 0.930 . S
H478 C491 0.929 . S
H479 C489 0.929 . S
H480 C484 0.929 . S
H481 C490 0.929 . S
C482 H476 0.930 . S
C482 C483 1.367 . S
C482 C490 1.378 . S
C483 C482 1.367 . S
C483 C491 1.433 . S
C484 H480 0.929 . S
C484 C486 1.378 . S
C484 C488 1.350 . S
C485 C488 1.463 1_455 S
C485 C490 1.350 . S
C485 N493 1.427 . S
C486 H477 0.930 . S
C486 C484 1.378 . S
C486 C487 1.367 1_554 S
C487 C486 1.367 1_556 S
C487 C489 1.433 . S
C488 C484 1.350 . S
C488 C485 1.463 1_655 S
C488 N492 1.427 1_554 S
C489 H479 0.929 . S
C489 C487 1.433 . S
C489 N492 1.384 . S
C490 H481 0.929 . S
C490 C482 1.378 . S
C490 C485 1.350 . S
C491 H478 0.929 . S
C491 C483 1.433 . S
C491 N493 1.384 . S
N492 C488 1.427 1_556 S
N492 C489 1.384 . S
N493 C485 1.427 . S
N493 C491 1.384 . S
H494 C500 0.930 . S
H495 C504 0.930 . S
H496 C509 0.929 . S
H497 C507 0.929 . S
H498 C502 0.929 . S
H499 C508 0.929 . S
C500 H494 0.930 . S
C500 C501 1.367 . S
C500 C508 1.378 . S
C501 C500 1.367 . S
C501 C509 1.433 . S
C502 H498 0.929 . S
C502 C504 1.378 . S
C502 C506 1.350 . S
C503 C506 1.463 . S
C503 C508 1.350 . S
C503 N511 1.427 . S
C504 H495 0.930 . S
C504 C502 1.378 . S
C504 C505 1.367 . S
C505 C504 1.367 . S
C505 C507 1.433 . S
C506 C502 1.350 . S
C506 C503 1.463 . S
C506 N510 1.427 . S
C507 H497 0.929 . S
C507 C505 1.433 . S
C507 N510 1.384 . S
C508 H499 0.929 . S
C508 C500 1.378 . S
C508 C503 1.350 . S
C509 H496 0.929 . S
C509 C501 1.433 . S
C509 N511 1.384 . S
N510 C506 1.427 . S
N510 C507 1.384 . S
N511 C503 1.427 . S
N511 C509 1.384 . S
H512 C518 0.930 . S
H513 C522 0.930 . S
H514 C527 0.929 . S
H515 C525 0.929 . S
H516 C520 0.929 . S
H517 C526 0.929 . S
C518 H512 0.930 . S
C518 C519 1.367 . S
C518 C526 1.378 . S
C519 C518 1.367 . S
C519 C527 1.433 . S
C520 H516 0.929 . S
C520 C522 1.378 . S
C520 C524 1.350 . S
C521 C524 1.463 . S
C521 C526 1.350 . S
C521 N529 1.427 . S
C522 H513 0.930 . S
C522 C520 1.378 . S
C522 C523 1.367 . S
C523 C522 1.367 . S
C523 C525 1.433 . S
C524 C520 1.350 . S
C524 C521 1.463 . S
C524 N528 1.427 . S
C525 H515 0.929 . S
C525 C523 1.433 . S
C525 N528 1.384 . S
C526 H517 0.929 . S
C526 C518 1.378 . S
C526 C521 1.350 . S
C527 H514 0.929 . S
C527 C519 1.433 . S
C527 N529 1.384 . S
N528 C524 1.427 . S
N528 C525 1.384 . S
N529 C521 1.427 . S
N529 C527 1.384 . S
H530 C536 0.930 . S
H531 C540 0.930 . S
H532 C545 0.929 . S
H533 C543 0.929 . S
H534 C538 0.929 . S
H535 C544 0.929 . S
C536 H530 0.930 . S
C536 C537 1.367 . S
C536 C544 1.378 . S
C537 C536 1.367 . S
C537 C545 1.433 . S
C538 H534 0.929 . S
C538 C540 1.378 . S
C538 C542 1.350 . S
C539 C542 1.463 . S
C539 C544 1.350 . S
C539 N547 1.427 . S
C540 H531 0.930 . S
C540 C538 1.378 . S
C540 C541 1.367 . S
C541 C540 1.367 . S
C541 C543 1.433 . S
C542 C538 1.350 . S
C542 C539 1.463 . S
C542 N546 1.427 . S
C543 H533 0.929 . S
C543 C541 1.433 . S
C543 N546 1.384 . S
C544 H535 0.929 . S
C544 C536 1.378 . S
C544 C539 1.350 . S
C545 H532 0.929 . S
C545 C537 1.433 . S
C545 N547 1.384 . S
N546 C542 1.427 . S
N546 C543 1.384 . S
N547 C539 1.427 . S
N547 C545 1.384 . S
H548 C554 0.930 . S
H549 C558 0.930 . S
H550 C563 0.929 . S
H551 C561 0.929 . S
H552 C556 0.929 . S
H553 C562 0.929 . S
C554 H548 0.930 . S
C554 C555 1.367 . S
C554 C562 1.378 . S
C555 C554 1.367 . S
C555 C563 1.433 . S
C556 H552 0.929 . S
C556 C558 1.378 . S
C556 C560 1.350 . S
C557 C560 1.463 . S
C557 C562 1.350 . S
C557 N565 1.427 . S
C558 H549 0.930 . S
C558 C556 1.378 . S
C558 C559 1.367 . S
C559 C558 1.367 . S
C559 C561 1.433 . S
C560 C556 1.350 . S
C560 C557 1.463 . S
C560 N564 1.427 . S
C561 H551 0.929 . S
C561 C559 1.433 . S
C561 N564 1.384 . S
C562 H553 0.929 . S
C562 C554 1.378 . S
C562 C557 1.350 . S
C563 H550 0.929 . S
C563 C555 1.433 . S
C563 N565 1.384 . S
N564 C560 1.427 . S
N564 C561 1.384 . S
N565 C557 1.427 . S
N565 C563 1.384 . S
H566 C572 0.930 . S
H567 C576 0.930 . S
H568 C581 0.929 . S
H569 C579 0.929 . S
H570 C574 0.929 . S
H571 C580 0.929 . S
C572 H566 0.930 . S
C572 C573 1.367 . S
C572 C580 1.378 . S
C573 C572 1.367 . S
C573 C581 1.433 1_556 S
C574 H570 0.929 . S
C574 C576 1.378 . S
C574 C578 1.350 . S
C575 C578 1.463 . S
C575 C580 1.350 . S
C575 N583 1.427 1_556 S
C576 H567 0.930 . S
C576 C574 1.378 . S
C576 C577 1.367 . S
C577 C576 1.367 . S
C577 C579 1.433 . S
C578 C574 1.350 . S
C578 C575 1.463 . S
C578 N582 1.427 . S
C579 H569 0.929 . S
C579 C577 1.433 . S
C579 N582 1.384 . S
C580 H571 0.929 . S
C580 C572 1.378 . S
C580 C575 1.350 . S
C581 H568 0.929 . S
C581 C573 1.433 1_554 S
C581 N583 1.384 . S
N582 C578 1.427 . S
N582 C579 1.384 . S
N583 C575 1.427 1_554 S
N583 C581 1.384 . S
H584 C590 0.930 . S
H585 C594 0.930 . S
H586 C599 0.929 . S
H587 C597 0.929 . S
H588 C592 0.929 . S
H589 C598 0.929 . S
C590 H584 0.930 . S
C590 C591 1.367 . S
C590 C598 1.378 . S
C591 C590 1.367 . S
C591 C599 1.433 . S
C592 H588 0.929 . S
C592 C594 1.378 . S
C592 C596 1.350 . S
C593 C596 1.463 . S
C593 C598 1.350 . S
C593 N601 1.427 . S
C594 H585 0.930 . S
C594 C592 1.378 . S
C594 C595 1.367 . S
C595 C594 1.367 . S
C595 C597 1.433 . S
C596 C592 1.350 . S
C596 C593 1.463 . S
C596 N600 1.427 . S
C597 H587 0.929 . S
C597 C595 1.433 . S
C597 N600 1.384 . S
C598 H589 0.929 . S
C598 C590 1.378 . S
C598 C593 1.350 . S
C599 H586 0.929 . S
C599 C591 1.433 . S
C599 N601 1.384 . S
N600 C596 1.427 . S
N600 C597 1.384 . S
N601 C593 1.427 . S
N601 C599 1.384 . S
H602 C608 0.930 . S
H603 C612 0.930 . S
H604 C617 0.929 . S
H605 C615 0.929 . S
H606 C610 0.929 . S
H607 C616 0.929 . S
C608 H602 0.930 . S
C608 C609 1.367 . S
C608 C616 1.378 . S
C609 C608 1.367 . S
C609 C617 1.433 . S
C610 H606 0.929 . S
C610 C612 1.378 . S
C610 C614 1.350 . S
C611 C614 1.463 . S
C611 C616 1.350 . S
C611 N619 1.427 . S
C612 H603 0.930 . S
C612 C610 1.378 . S
C612 C613 1.367 . S
C613 C612 1.367 . S
C613 C615 1.433 . S
C614 C610 1.350 . S
C614 C611 1.463 . S
C614 N618 1.427 . S
C615 H605 0.929 . S
C615 C613 1.433 . S
C615 N618 1.384 . S
C616 H607 0.929 . S
C616 C608 1.378 . S
C616 C611 1.350 . S
C617 H604 0.929 . S
C617 C609 1.433 . S
C617 N619 1.384 . S
N618 C614 1.427 . S
N618 C615 1.384 . S
N619 C611 1.427 . S
N619 C617 1.384 . S
H620 C626 0.930 . S
H621 C630 0.930 . S
H622 C635 0.929 . S
H623 C633 0.929 1_554 S
H624 C628 0.929 . S
H625 C634 0.929 . S
C626 H620 0.930 . S
C626 C627 1.367 . S
C626 C634 1.378 . S
C627 C626 1.367 . S
C627 C635 1.433 . S
C628 H624 0.929 . S
C628 C630 1.378 . S
C628 C632 1.350 . S
C629 C632 1.463 . S
C629 C634 1.350 . S
C629 N637 1.427 . S
C630 H621 0.930 . S
C630 C628 1.378 . S
C630 C631 1.367 . S
C631 C630 1.367 . S
C631 C633 1.433 . S
C632 C628 1.350 . S
C632 C629 1.463 . S
C632 N636 1.427 . S
C633 H623 0.929 1_556 S
C633 C631 1.433 . S
C633 N636 1.384 . S
C634 H625 0.929 . S
C634 C626 1.378 . S
C634 C629 1.350 . S
C635 H622 0.929 . S
C635 C627 1.433 . S
C635 N637 1.384 . S
N636 C632 1.427 . S
N636 C633 1.384 . S
N637 C629 1.427 . S
N637 C635 1.384 . S
H638 C644 0.930 . S
H639 C648 0.930 . S
H640 C653 0.929 . S
H641 C651 0.929 . S
H642 C646 0.929 . S
H643 C652 0.929 . S
C644 H638 0.930 . S
C644 C645 1.367 . S
C644 C652 1.378 . S
C645 C644 1.367 . S
C645 C653 1.433 . S
C646 H642 0.929 . S
C646 C648 1.378 . S
C646 C650 1.350 . S
C647 C650 1.463 . S
C647 C652 1.350 . S
C647 N655 1.427 . S
C648 H639 0.930 . S
C648 C646 1.378 . S
C648 C649 1.367 . S
C649 C648 1.367 . S
C649 C651 1.433 . S
C650 C646 1.350 . S
C650 C647 1.463 . S
C650 N654 1.427 . S
C651 H641 0.929 . S
C651 C649 1.433 . S
C651 N654 1.384 . S
C652 H643 0.929 . S
C652 C644 1.378 . S
C652 C647 1.350 . S
C653 H640 0.929 . S
C653 C645 1.433 . S
C653 N655 1.384 . S
N654 C650 1.427 . S
N654 C651 1.384 . S
N655 C647 1.427 . S
N655 C653 1.384 . S
H656 C662 0.930 . S
H657 C666 0.930 . S
H658 C671 0.929 . S
H659 C669 0.929 . S
H660 C664 0.929 1_554 S
H661 C670 0.929 . S
C662 H656 0.930 . S
C662 C663 1.367 1_556 S
C662 C670 1.378 . S
C663 C662 1.367 1_554 S
C663 C671 1.433 . S
C664 H660 0.929 1_556 S
C664 C666 1.378 . S
C664 C668 1.350 . S
C665 C668 1.463 . S
C665 C670 1.350 . S
C665 N673 1.427 1_556 S
C666 H657 0.930 . S
C666 C664 1.378 . S
C666 C667 1.367 . S
C667 C666 1.367 . S
C667 C669 1.433 . S
C668 C664 1.350 . S
C668 C665 1.463 . S
C668 N672 1.427 . S
C669 H659 0.929 . S
C669 C667 1.433 . S
C669 N672 1.384 . S
C670 H661 0.929 . S
C670 C662 1.378 . S
C670 C665 1.350 . S
C671 H658 0.929 . S
C671 C663 1.433 . S
C671 N673 1.384 . S
N672 C668 1.427 . S
N672 C669 1.384 . S
N673 C665 1.427 1_554 S
N673 C671 1.384 . S
H674 C680 0.930 . S
H675 C684 0.930 . S
H676 C689 0.929 . S
H677 C687 0.929 . S
H678 C682 0.929 . S
H679 C688 0.929 . S
C680 H674 0.930 . S
C680 C681 1.367 . S
C680 C688 1.378 . S
C681 C680 1.367 . S
C681 C689 1.433 . S
C682 H678 0.929 . S
C682 C684 1.378 . S
C682 C686 1.350 . S
C683 C686 1.463 . S
C683 C688 1.350 . S
C683 N691 1.427 . S
C684 H675 0.930 . S
C684 C682 1.378 . S
C684 C685 1.367 . S
C685 C684 1.367 . S
C685 C687 1.433 . S
C686 C682 1.350 . S
C686 C683 1.463 . S
C686 N690 1.427 . S
C687 H677 0.929 . S
C687 C685 1.433 . S
C687 N690 1.384 . S
C688 H679 0.929 . S
C688 C680 1.378 . S
C688 C683 1.350 . S
C689 H676 0.929 . S
C689 C681 1.433 . S
C689 N691 1.384 . S
N690 C686 1.427 . S
N690 C687 1.384 . S
N691 C683 1.427 . S
N691 C689 1.384 . S
H692 C698 0.930 . S
H693 C702 0.930 . S
H694 C707 0.929 . S
H695 C705 0.929 . S
H696 C700 0.929 . S
H697 C706 0.929 . S
C698 H692 0.930 . S
C698 C699 1.367 . S
C698 C706 1.378 . S
C699 C698 1.367 . S
C699 C707 1.433 . S
C700 H696 0.929 . S
C700 C702 1.378 . S
C700 C704 1.350 . S
C701 C704 1.463 . S
C701 C706 1.350 . S
C701 N709 1.427 . S
C702 H693 0.930 . S
C702 C700 1.378 . S
C702 C703 1.367 . S
C703 C702 1.367 . S
C703 C705 1.433 . S
C704 C700 1.350 . S
C704 C701 1.463 . S
C704 N708 1.427 . S
C705 H695 0.929 . S
C705 C703 1.433 . S
C705 N708 1.384 . S
C706 H697 0.929 . S
C706 C698 1.378 . S
C706 C701 1.350 . S
C707 H694 0.929 . S
C707 C699 1.433 . S
C707 N709 1.384 . S
N708 C704 1.427 . S
N708 C705 1.384 . S
N709 C701 1.427 . S
N709 C707 1.384 . S
H710 C716 0.930 . S
H711 C720 0.930 . S
H712 C725 0.929 . S
H713 C723 0.929 . S
H714 C718 0.929 . S
H715 C724 0.929 . S
C716 H710 0.930 . S
C716 C717 1.367 . S
C716 C724 1.378 . S
C717 C716 1.367 . S
C717 C725 1.433 . S
C718 H714 0.929 . S
C718 C720 1.378 . S
C718 C722 1.350 . S
C719 C722 1.463 . S
C719 C724 1.350 . S
C719 N727 1.427 . S
C720 H711 0.930 . S
C720 C718 1.378 . S
C720 C721 1.367 . S
C721 C720 1.367 . S
C721 C723 1.433 . S
C722 C718 1.350 . S
C722 C719 1.463 . S
C722 N726 1.427 . S
C723 H713 0.929 . S
C723 C721 1.433 . S
C723 N726 1.384 . S
C724 H715 0.929 . S
C724 C716 1.378 . S
C724 C719 1.350 . S
C725 H712 0.929 . S
C725 C717 1.433 . S
C725 N727 1.384 . S
N726 C722 1.427 . S
N726 C723 1.384 . S
N727 C719 1.427 . S
N727 C725 1.384 . S
H728 C734 0.930 . S
H729 C738 0.930 . S
H730 C743 0.929 . S
H731 C741 0.929 . S
H732 C736 0.929 . S
H733 C742 0.929 . S
C734 H728 0.930 . S
C734 C735 1.367 . S
C734 C742 1.378 . S
C735 C734 1.367 . S
C735 C743 1.433 . S
C736 H732 0.929 . S
C736 C738 1.378 . S
C736 C740 1.350 . S
C737 C740 1.463 . S
C737 C742 1.350 . S
C737 N745 1.427 . S
C738 H729 0.930 . S
C738 C736 1.378 . S
C738 C739 1.367 . S
C739 C738 1.367 . S
C739 C741 1.433 . S
C740 C736 1.350 . S
C740 C737 1.463 . S
C740 N744 1.427 . S
C741 H731 0.929 . S
C741 C739 1.433 . S
C741 N744 1.384 . S
C742 H733 0.929 . S
C742 C734 1.378 . S
C742 C737 1.350 . S
C743 H730 0.929 . S
C743 C735 1.433 . S
C743 N745 1.384 . S
N744 C740 1.427 . S
N744 C741 1.384 . S
N745 C737 1.427 . S
N745 C743 1.384 . S
H746 C752 0.930 . S
H747 C756 0.930 . S
H748 C761 0.929 . S
H749 C759 0.929 . S
H750 C754 0.929 . S
H751 C760 0.929 . S
C752 H746 0.930 . S
C752 C753 1.367 . S
C752 C760 1.378 . S
C753 C752 1.367 . S
C753 C761 1.433 . S
C754 H750 0.929 . S
C754 C756 1.378 . S
C754 C758 1.350 . S
C755 C758 1.463 . S
C755 C760 1.350 . S
C755 N763 1.427 . S
C756 H747 0.930 . S
C756 C754 1.378 . S
C756 C757 1.367 . S
C757 C756 1.367 . S
C757 C759 1.433 . S
C758 C754 1.350 . S
C758 C755 1.463 . S
C758 N762 1.427 . S
C759 H749 0.929 . S
C759 C757 1.433 . S
C759 N762 1.384 . S
C760 H751 0.929 . S
C760 C752 1.378 . S
C760 C755 1.350 . S
C761 H748 0.929 . S
C761 C753 1.433 . S
C761 N763 1.384 . S
N762 C758 1.427 . S
N762 C759 1.384 . S
N763 C755 1.427 . S
N763 C761 1.384 . S
H764 C770 0.930 . S
H765 C774 0.930 . S
H766 C779 0.929 . S
H767 C777 0.929 . S
H768 C772 0.929 . S
H769 C778 0.929 . S
C770 H764 0.930 . S
C770 C771 1.367 . S
C770 C778 1.378 . S
C771 C770 1.367 . S
C771 C779 1.433 . S
C772 H768 0.929 . S
C772 C774 1.378 . S
C772 C776 1.350 . S
C773 C776 1.463 . S
C773 C778 1.350 . S
C773 N781 1.427 . S
C774 H765 0.930 . S
C774 C772 1.378 . S
C774 C775 1.367 . S
C775 C774 1.367 . S
C775 C777 1.433 . S
C776 C772 1.350 . S
C776 C773 1.463 . S
C776 N780 1.427 . S
C777 H767 0.929 . S
C777 C775 1.433 . S
C777 N780 1.384 . S
C778 H769 0.929 . S
C778 C770 1.378 . S
C778 C773 1.350 . S
C779 H766 0.929 . S
C779 C771 1.433 . S
C779 N781 1.384 . S
N780 C776 1.427 . S
N780 C777 1.384 . S
N781 C773 1.427 . S
N781 C779 1.384 . S
H782 C788 0.930 . S
H783 C792 0.930 . S
H784 C797 0.929 1_554 S
H785 C795 0.929 . S
H786 C790 0.929 . S
H787 C796 0.929 . S
C788 H782 0.930 . S
C788 C789 1.367 . S
C788 C796 1.378 . S
C789 C788 1.367 . S
C789 C797 1.433 . S
C790 H786 0.929 . S
C790 C792 1.378 . S
C790 C794 1.350 . S
C791 C794 1.463 . S
C791 C796 1.350 . S
C791 N799 1.427 . S
C792 H783 0.930 . S
C792 C790 1.378 . S
C792 C793 1.367 . S
C793 C792 1.367 . S
C793 C795 1.433 . S
C794 C790 1.350 . S
C794 C791 1.463 . S
C794 N798 1.427 . S
C795 H785 0.929 . S
C795 C793 1.433 . S
C795 N798 1.384 . S
C796 H787 0.929 . S
C796 C788 1.378 . S
C796 C791 1.350 . S
C797 H784 0.929 1_556 S
C797 C789 1.433 . S
C797 N799 1.384 . S
N798 C794 1.427 . S
N798 C795 1.384 . S
N799 C791 1.427 . S
N799 C797 1.384 . S
C231 C12 1.093 . S
C235 C179 1.095 . S
C249 C18 1.147 . S
C253 C82 1.157 . S
C267 C32 1.055 . S
C271 C207 1.058 . S
C285 C110 1.145 . S
C289 C54 1.143 . S
C303 C208 1.142 . S
C307 C40 1.140 . S
C321 C109 1.050 . S
C325 C46 1.044 . S
C339 C180 1.150 . S
C343 C4 1.151 . S
C357 C81 1.092 . S
C361 C26 1.102 . S
C375 C67 1.092 . S
C379 C124 1.093 . S
C393 C95 1.044 . S
C397 C144 1.041 . S
C411 C152 1.141 . S
C415 C96 1.141 . S
C429 C68 1.146 . S
C433 C116 1.139 . S
C447 C194 1.152 . S
C451 C130 1.153 . S
C465 C166 1.149 . S
C469 C222 1.150 . S
C483 C158 1.053 . S
C487 C221 1.057 . S
C501 C138 1.098 . S
C505 C193 1.101 . S
C519 C159 1.285 . S
C523 C11 1.457 . S
C537 C117 1.363 . S
C541 C19 1.365 . S
C555 C33 1.304 . S
C559 C137 1.449 . S
C573 C151 1.489 1_556 S
C577 C53 1.489 . S
C591 C165 1.492 . S
C595 C39 1.488 . S
C609 C47 1.286 . S
C613 C123 1.450 . S
C627 C131 1.352 . S
C631 C5 1.361 1_556 S
C645 C145 1.303 . S
C649 C25 1.447 . S
C663 C61 1.330 . S
C667 C215 1.335 . S
C681 C172 1.426 . S
C685 C74 1.435 . S
C699 C89 1.326 . S
C703 C187 1.345 . S
C717 C102 1.444 . S
C721 C200 1.439 . S
C735 C88 1.430 . S
C739 C214 1.438 . S
C753 C173 1.321 . S
C757 C103 1.346 . S
C771 C186 1.425 . S
C775 C60 1.433 . S
C789 C201 1.349 1_556 S
C793 C75 1.320 . S
