# Generated by pormake.
# Topology sve, (7)-cn, num edge types: 1
# Building blocks:
#     Node 0, Type 0, BuildingBlock: HICVOG_clean_sbu_0, # of connection points: 7
#     Node 1, Type 0, BuildingBlock: HICVOG_clean_sbu_0, # of connection points: 7
#     Node 2, Type 0, BuildingBlock: HICVOG_clean_sbu_0, # of connection points: 7
#     Node 3, Type 0, BuildingBlock: HICVOG_clean_sbu_0, # of connection points: 7
#     Edge 4, Type (0, 0), BuildingBlock: AJUNOK_clean_linker_0, # of connection points: 2
#     Edge 5, Type (0, 0), BuildingBlock: AJUNOK_clean_linker_0, # of connection points: 2
#     Edge 6, Type (0, 0), BuildingBlock: AJUNOK_clean_linker_0, # of connection points: 2
#     Edge 7, Type (0, 0), BuildingBlock: AJUNOK_clean_linker_0, # of connection points: 2
#     Edge 8, Type (0, 0), BuildingBlock: AJUNOK_clean_linker_0, # of connection points: 2
#     Edge 9, Type (0, 0), BuildingBlock: AJUNOK_clean_linker_0, # of connection points: 2
#     Edge 10, Type (0, 0), BuildingBlock: AJUNOK_clean_linker_0, # of connection points: 2
#     Edge 11, Type (0, 0), BuildingBlock: AJUNOK_clean_linker_0, # of connection points: 2
#     Edge 12, Type (0, 0), BuildingBlock: AJUNOK_clean_linker_0, # of connection points: 2
#     Edge 13, Type (0, 0), BuildingBlock: AJUNOK_clean_linker_0, # of connection points: 2
#     Edge 14, Type (0, 0), BuildingBlock: AJUNOK_clean_linker_0, # of connection points: 2
#     Edge 15, Type (0, 0), BuildingBlock: AJUNOK_clean_linker_0, # of connection points: 2
#     Edge 16, Type (0, 0), BuildingBlock: AJUNOK_clean_linker_0, # of connection points: 2
#     Edge 17, Type (0, 0), BuildingBlock: AJUNOK_clean_linker_0, # of connection points: 2
# Relax obj value: 0.283
# Max RMSD: 0.298
# Mean RMSD: 0.262
data_MOF--net-sve--node1-HICVOG_clean_sbu_0--edge1-AJUNOK_clean_linker_0
_symmetry_space_group_name_H-M    P1
_symmetry_Int_Tables_number       1
_symmetry_cell_setting            triclinic
loop_
_symmetry_equiv_pos_as_xyz
'x, y, z'
_cell_length_a     23.87169
_cell_length_b     20.383619
_cell_length_c     16.388127
_cell_angle_alpha  95.01739
_cell_angle_beta   83.221735
_cell_angle_gamma 90.176824
loop_
_atom_site_label
_atom_site_type_symbol
_atom_site_fract_x
_atom_site_fract_y
_atom_site_fract_z
_atom_type_partial_charge
Zn0 Zn 0.17991 0.30963 0.14613 0.0
C1 C 0.08238 0.42686 0.08292 0.0
N2 N 0.04424 0.39267 0.12866 0.0
C3 C 0.0672 0.33243 0.12453 0.0
N4 N 0.11948 0.33126 0.08175 0.0
N5 N 0.12708 0.38859 0.04982 0.0
C6 C 0.202 0.53375 0.97132 0.0
O7 O 0.19371 0.52482 0.05012 0.0
O8 O 0.16865 0.22155 0.1884 0.0
Zn9 Zn 0.18773 0.39538 0.95853 0.0
N10 N 0.17735 0.3725 0.24271 0.0
C11 C 0.17507 0.48309 0.30317 0.0
C12 C 0.17764 0.43808 0.23363 0.0
C13 C 0.17553 0.35002 0.31875 0.0
N14 N 0.17353 0.46068 0.37905 0.0
C15 C 0.17442 0.39509 0.38903 0.0
O16 O 0.26553 0.36761 0.98149 0.0
C17 C 0.29007 0.33283 0.02767 0.0
O18 O 0.26185 0.30699 0.08765 0.0
H19 H 0.17975 0.45516 0.17298 0.0
H20 H 0.17437 0.29757 0.32431 0.0
C21 C 0.17019 0.35783 0.79024 0.0
C22 C 0.1676 0.31213 0.72142 0.0
C23 C 0.16772 0.22493 0.80843 0.0
C24 C 0.17192 0.27037 0.87604 0.0
N25 N 0.17265 0.33577 0.86578 0.0
N26 N 0.16623 0.24673 0.73277 0.0
H27 H 0.1732 0.41006 0.78324 0.0
C28 C 0.15351 0.17293 0.143 0.0
O29 O 0.13217 0.18446 0.07543 0.0
O30 O 0.19863 0.48521 0.91865 0.0
H31 H 0.17578 0.25376 0.93603 0.0
H32 H 0.17466 0.53547 0.29686 0.0
H33 H 0.16697 0.17268 0.81564 0.0
Zn34 Zn 0.74509 0.20172 0.11843 0.0
C35 C 0.64435 0.08526 0.99488 0.0
N36 N 0.676 1.03511 0.01156 0.0
C37 C 0.71934 0.06585 0.04368 0.0
N38 N 0.71412 0.13248 0.04745 0.0
N39 N 0.66686 0.14405 0.01561 0.0
C40 C 0.53624 0.28761 0.95824 0.0
O41 O 0.56905 0.33697 0.93825 0.0
O42 O 0.82558 0.1872 0.14534 0.0
Zn43 Zn 0.64706 0.21973 0.9575 0.0
N44 N 0.691 0.21392 0.21711 0.0
C45 C 0.59733 0.24822 0.26896 0.0
C46 C 0.63993 0.23721 0.20351 0.0
C47 C 0.7012 0.20077 0.29416 0.0
N48 N 0.60731 0.23531 0.34576 0.0
C49 C 0.65791 0.21135 0.36073 0.0
O50 O 0.68416 0.30734 0.98761 0.0
C51 C 0.72434 0.32805 0.02744 0.0
O52 O 0.74856 0.29086 0.0714 0.0
H53 H 0.63253 0.24737 0.14198 0.0
H54 H 0.74261 0.18353 0.30339 0.0
C55 C 0.66293 0.19763 0.77152 0.0
C56 C 0.69847 0.17802 0.69797 0.0
C57 C 0.77256 0.15743 0.77722 0.0
C58 C 0.73798 0.17764 0.849 0.0
N59 N 0.68367 0.19622 0.8456 0.0
N60 N 0.75215 0.15829 0.7038 0.0
H61 H 0.61989 0.21351 0.76992 0.0
C62 C 0.86506 0.18784 0.08586 0.0
O63 O 0.85091 0.18611 0.01062 0.0
O64 O 0.5594 0.2327 0.96733 0.0
H65 H 0.75461 0.17889 0.90756 0.0
H66 H 0.5566 0.26699 0.25888 0.0
H67 H 0.8156 0.14196 0.77964 0.0
Zn68 Zn 0.8886 0.71384 0.13136 0.0
C69 C 0.84582 0.56904 0.97248 0.0
N70 N 0.89959 0.54806 0.96457 0.0
C71 C 0.92625 0.59557 1.00684 0.0
N72 N 0.88991 0.64427 0.04041 0.0
N73 N 0.84135 0.63025 0.01204 0.0
C74 C 0.70773 0.69628 0.97727 0.0
O75 O 0.72567 0.70378 0.0502 0.0
O76 O 0.9661 0.74065 0.15431 0.0
Zn77 Zn 0.82215 0.69713 0.94337 0.0
N78 N 0.84488 0.68256 0.22658 0.0
C79 C 0.75761 0.6395 0.28412 0.0
C80 C 0.79269 0.65869 0.21645 0.0
C81 C 0.86359 0.68807 0.30197 0.0
N82 N 0.77593 0.64567 0.35962 0.0
C83 C 0.82815 0.66932 0.37035 0.0
O84 O 0.8218 0.79183 0.99257 0.0
C85 C 0.83156 0.82714 0.05708 0.0
O86 O 0.85227 0.80229 0.11549 0.0
H87 H 0.7783 0.65493 0.15638 0.0
H88 H 0.90485 0.70852 0.30886 0.0
C89 C 0.85729 0.68714 0.77042 0.0
C90 C 0.89605 0.69049 0.69942 0.0
C91 C 0.9705 0.70193 0.7835 0.0
C92 C 0.9316 0.70107 0.85377 0.0
N93 N 0.87589 0.69332 0.84577 0.0
N94 N 0.95188 0.69692 0.70811 0.0
H95 H 0.81278 0.67987 0.76647 0.0
C96 C 0.98732 0.78026 0.10378 0.0
O97 O 0.96047 0.79111 0.04079 0.0
O98 O 0.74386 0.68483 0.91445 0.0
H99 H 0.94565 0.70709 0.91414 0.0
H100 H 0.71598 0.62043 0.27688 0.0
H101 H 1.01503 0.70754 0.78881 0.0
Zn102 Zn 0.40079 0.88344 0.91442 0.0
C103 C 0.33695 1.00316 0.10517 0.0
N104 N 0.37598 0.04603 0.07875 0.0
C105 C 0.41247 1.00874 0.02523 0.0
N106 N 0.39451 0.94533 0.01602 0.0
N107 N 0.34936 0.94231 0.07055 0.0
C108 C 0.20818 0.88792 0.11591 0.0
O109 O 0.23166 0.89289 0.04014 0.0
O110 O 0.47496 0.83546 0.89829 0.0
Zn111 Zn 0.31943 0.8662 0.12036 0.0
N112 N 0.38737 0.93264 0.82143 0.0
C113 C 0.34618 1.02583 0.77294 0.0
C114 C 0.36091 0.99215 0.83762 0.0
C115 C 0.39883 0.90486 0.7426 0.0
N116 N 0.35638 0.99754 0.69462 0.0
C117 C 0.38161 0.93732 0.67697 0.0
O118 O 0.30736 0.79496 0.03861 0.0
C119 C 0.31288 0.77677 0.96256 0.0
O120 O 0.3435 0.80785 0.91009 0.0
H121 H 0.35021 1.01296 0.90023 0.0
H122 H 0.42047 0.85787 0.73209 0.0
C123 C 0.36521 0.8622 0.27642 0.0
C124 C 0.39503 0.83209 0.33256 0.0
C125 C 0.42547 0.74768 0.22785 0.0
C126 C 0.39453 0.77647 0.17336 0.0
N127 N 0.36555 0.83345 0.19813 0.0
N128 N 0.42459 0.7757 0.30614 0.0
H129 H 0.34011 0.90623 0.29548 0.0
C130 C 0.49108 0.81758 0.96397 0.0
O131 O 0.46062 0.83505 0.03437 0.0
O132 O 0.23978 0.88134 0.17192 0.0
H133 H 0.39309 0.75308 0.11185 0.0
H134 H 0.32542 0.07338 0.78502 0.0
H135 H 0.44906 0.70263 0.20864 0.0
C136 C 0.06201 0.50457 0.98129 0.0
C137 C 0.0672 0.49334 0.0632 0.0
C138 C 0.02143 0.54929 0.96339 0.0
C139 C 0.98371 0.58222 0.02665 0.0
H140 H 0.08373 0.47277 0.93111 0.0
H141 H 1.01433 0.55106 0.89949 0.0
S142 S 0.98872 0.57839 0.25093 0.0
N143 N 0.04037 0.5287 0.20774 0.0
N144 N 0.96024 0.60693 0.17399 0.0
C145 C 0.99382 0.57777 0.10837 0.0
C146 C 0.03674 0.53455 0.12651 0.0
C147 C 0.5452 0.10559 0.04759 0.0
C148 C 0.58456 0.07607 0.98551 0.0
C149 C 0.48939 0.08487 0.05592 0.0
C150 C 0.47026 1.03377 1.00239 0.0
H151 H 0.55839 0.14181 0.09385 0.0
H152 H 0.46197 0.1071 0.10835 0.0
S153 S 0.55559 0.95116 0.81845 0.0
N154 N 0.60079 0.99949 0.86327 0.0
N155 N 0.49416 0.96303 0.87593 0.0
C156 C 0.50847 1.00778 0.93566 0.0
C157 C 0.56608 1.0283 0.92805 0.0
C158 C 0.13891 0.40598 0.5396 0.0
C159 C 0.17358 0.37303 0.47319 0.0
C160 C 0.13716 0.38644 0.61995 0.0
C161 C 0.17011 0.33324 0.63676 0.0
H162 H 0.11235 0.44671 0.52922 0.0
H163 H 0.10922 0.41254 0.66895 0.0
S164 S 0.27381 0.23675 0.48742 0.0
N165 N 0.24586 0.28884 0.43167 0.0
N166 N 0.24173 0.25152 0.5821 0.0
C167 C 0.20593 0.30096 0.57143 0.0
C168 C 0.20798 0.32102 0.48983 0.0
C169 C 0.64308 0.24406 0.51262 0.0
C170 C 0.66595 0.19926 0.44676 0.0
C171 C 0.6509 0.23538 0.59465 0.0
C172 C 0.68152 0.18115 0.61397 0.0
H173 H 0.62039 0.28742 0.50045 0.0
H174 H 0.63499 0.27291 0.64258 0.0
S175 S 0.74212 0.04403 0.46588 0.0
N176 N 0.7148 0.09475 0.40775 0.0
N177 N 0.72981 0.07844 0.56133 0.0
C178 C 0.70208 0.13425 0.54907 0.0
C179 C 0.69426 0.14322 0.46568 0.0
C180 C 0.89581 0.64767 0.46985 0.0
C181 C 0.84557 0.67685 0.4537 0.0
C182 C 0.91166 0.65251 0.54972 0.0
C183 C 0.87787 0.68685 0.61591 0.0
H184 H 0.92242 0.61989 0.42081 0.0
H185 H 0.95028 0.62833 0.55992 0.0
S186 S 0.74611 0.7796 0.60189 0.0
N187 N 0.76423 0.74507 0.50758 0.0
N188 N 0.79477 0.75654 0.65741 0.0
C189 C 0.82843 0.71828 0.59954 0.0
C190 C 0.81206 0.71256 0.51843 0.0
C191 C 0.39604 0.95001 0.52549 0.0
C192 C 0.38806 0.90799 0.58981 0.0
C193 C 0.39809 0.9255 0.44247 0.0
C194 C 0.39256 0.85785 0.42037 0.0
H195 H 0.40058 1.00257 0.53936 0.0
H196 H 0.40455 0.95972 0.39529 0.0
S197 S 0.36609 0.72706 0.56377 0.0
N198 N 0.37048 0.79533 0.62462 0.0
N199 N 0.37658 0.74932 0.46876 0.0
C200 C 0.38452 0.81517 0.48362 0.0
C201 C 0.38167 0.84014 0.56824 0.0
C202 C 0.19968 0.07315 0.07035 0.0
C203 C 0.1836 0.11037 0.14561 0.0
C204 C 0.2474 1.03297 0.06044 0.0
C205 C 0.27888 1.026 0.12627 0.0
H206 H 0.17975 0.08085 0.01585 0.0
H207 H 0.26237 1.01141 0.99896 0.0
S208 S 0.24631 0.09915 0.34066 0.0
N209 N 0.19675 0.12847 0.29111 0.0
N210 N 0.28646 0.05056 0.27175 0.0
C211 C 0.25941 0.05597 0.20424 0.0
C212 C 0.21106 0.09801 0.21441 0.0
C213 C 0.98478 0.27157 0.1884 0.0
C214 C 0.02704 0.27647 0.1216 0.0
C215 C 0.93433 0.23722 0.17863 0.0
C216 C 0.92373 0.20717 0.10116 0.0
H217 H 0.98882 0.29891 0.24713 0.0
H218 H 0.90171 0.23891 0.23066 0.0
S219 S 0.02333 0.19944 0.90853 0.0
N220 N 0.05625 0.24412 0.97678 0.0
N221 N 0.96307 0.17795 0.95892 0.0
C222 C 0.96774 0.20693 0.03572 0.0
C223 C 1.01885 0.24211 0.04569 0.0
C224 C 0.7839 0.9281 0.13427 0.0
C225 C 0.81692 0.89853 0.06385 0.0
C226 C 0.75864 0.99053 0.13343 0.0
C227 C 0.76689 1.0262 0.06313 0.0
H228 H 0.77327 0.90044 0.18741 0.0
H229 H 0.72795 1.00783 0.18481 0.0
S230 S 0.858 0.97557 0.86906 0.0
N231 N 0.86242 0.91337 0.92626 0.0
N232 N 0.81643 1.03085 0.92596 0.0
C233 C 0.80505 1.00023 0.99642 0.0
C234 C 0.8295 0.93624 0.99626 0.0
C235 C 0.07618 0.79268 0.17038 0.0
C236 C 0.04043 0.8148 0.11591 0.0
C237 C 0.12918 0.82115 0.17655 0.0
C238 C 0.14793 0.87233 0.12818 0.0
H239 H 0.06433 0.75119 0.20561 0.0
H240 H 0.15707 0.7998 0.21481 0.0
S241 S 0.06674 0.95554 0.98724 0.0
N242 N 0.02461 0.89705 0.02147 0.0
N243 N 0.12464 0.94912 0.03197 0.0
C244 C 0.11104 0.89794 0.07826 0.0
C245 C 0.05715 0.86943 0.07225 0.0
C246 C 0.77469 0.48502 0.93053 0.0
C247 C 0.80311 0.51797 0.99226 0.0
C248 C 0.74596 0.42555 0.94405 0.0
C249 C 0.74617 0.3961 0.01893 0.0
H250 H 0.77705 0.5035 0.87023 0.0
H251 H 0.72648 0.40047 0.89371 0.0
S252 S 0.81257 0.46495 0.20121 0.0
N253 N 0.82756 0.51845 0.13196 0.0
N254 N 0.77453 0.40734 0.15711 0.0
C255 C 0.7725 0.43034 0.08209 0.0
C256 C 0.80075 0.49102 0.06878 0.0
C257 C 0.55995 0.7618 0.03774 0.0
C258 C 0.54383 0.77961 0.96285 0.0
C259 C 0.61159 0.73076 0.04065 0.0
C260 C 0.6494 0.71633 0.96883 0.0
H261 H 0.53327 0.77352 0.09535 0.0
H262 H 0.62277 0.72038 0.10043 0.0
S263 S 0.62417 0.74503 0.75545 0.0
N264 N 0.56724 0.77468 0.81377 0.0
N265 N 0.66488 0.71649 0.81924 0.0
C266 C 0.63242 0.73008 0.89265 0.0
C267 C 0.57956 0.76183 0.8897 0.0
C268 C 0.1973 0.65479 0.98779 0.0
C269 C 0.22245 0.59762 0.94598 0.0
C270 C 0.22431 0.71526 0.98318 0.0
C271 C 0.27811 0.72028 0.93847 0.0
H272 H 0.15833 0.65206 0.02867 0.0
H273 H 0.20516 0.75732 0.02103 0.0
S274 S 0.35691 0.58665 0.80668 0.0
N275 N 0.29959 0.55065 0.84813 0.0
N276 N 0.35162 0.66509 0.84211 0.0
C277 C 0.30088 0.66492 0.88926 0.0
C278 C 0.27272 0.60308 0.89272 0.0
C279 C 0.43864 0.25831 0.02465 0.0
C280 C 0.4733 0.29769 0.97315 0.0
C281 C 0.37989 0.27006 0.04269 0.0
C282 C 0.35289 0.32144 0.00938 0.0
H283 H 0.45719 0.21898 0.05284 0.0
H284 H 0.35546 0.23831 0.08284 0.0
S285 S 0.42431 0.43822 0.8694 0.0
N286 N 0.47562 0.38981 0.88828 0.0
N287 N 0.36646 0.41177 0.92137 0.0
C288 C 0.38718 0.36073 0.95712 0.0
C289 C 0.44683 0.34899 0.93936 0.0
loop_
_geom_bond_atom_site_label_1
_geom_bond_atom_site_label_2
_geom_bond_distance
_geom_bond_site_symmetry_2
_ccdc_geom_bond_type
Zn0 N4 2.020 . S
Zn0 O8 2.019 . S
Zn0 N10 2.119 . S
Zn0 O18 1.975 . S
C1 N2 1.334 . S
C1 N5 1.336 . S
N2 C1 1.334 . S
N2 C3 1.334 . S
C3 N2 1.334 . S
C3 N4 1.336 . S
N4 Zn0 2.020 . S
N4 C3 1.336 . S
N4 N5 1.354 . S
N5 C1 1.336 . S
N5 N4 1.354 . S
N5 Zn9 2.020 1_554 S
C6 O7 1.244 . S
C6 O30 1.257 1_554 S
O7 C6 1.244 . S
O8 Zn0 2.019 . S
O8 C28 1.257 . S
Zn9 N5 2.020 1_556 S
Zn9 O16 1.975 1_556 S
Zn9 N25 2.119 . S
Zn9 O30 2.019 . S
N10 Zn0 2.119 . S
N10 C12 1.334 . S
N10 C13 1.328 . S
C11 C12 1.391 . S
C11 N14 1.329 . S
C11 H32 0.930 . S
C12 N10 1.334 . S
C12 C11 1.391 . S
C12 H19 0.930 . S
C13 N10 1.328 . S
C13 C15 1.392 . S
C13 H20 0.930 . S
N14 C11 1.329 . S
N14 C15 1.331 . S
C15 C13 1.392 . S
C15 N14 1.331 . S
O16 Zn9 1.975 1_554 S
O16 C17 1.252 . S
C17 O16 1.252 . S
C17 O18 1.252 . S
O18 Zn0 1.975 . S
O18 C17 1.252 . S
H19 C12 0.930 . S
H20 C13 0.930 . S
C21 C22 1.392 . S
C21 N25 1.328 . S
C21 H27 0.930 . S
C22 C21 1.392 . S
C22 N26 1.331 . S
C23 C24 1.391 . S
C23 N26 1.329 . S
C23 H33 0.930 . S
C24 C23 1.391 . S
C24 N25 1.334 . S
C24 H31 0.930 . S
N25 Zn9 2.119 . S
N25 C21 1.328 . S
N25 C24 1.334 . S
N26 C22 1.331 . S
N26 C23 1.329 . S
H27 C21 0.930 . S
C28 O8 1.257 . S
C28 O29 1.244 . S
O29 C28 1.244 . S
O30 C6 1.257 1_556 S
O30 Zn9 2.019 . S
H31 C24 0.930 . S
H32 C11 0.930 . S
H33 C23 0.930 . S
Zn34 N38 2.020 . S
Zn34 O42 2.019 . S
Zn34 N44 2.119 . S
Zn34 O52 1.975 . S
C35 N36 1.334 1_556 S
C35 N39 1.336 . S
N36 C35 1.334 1_554 S
N36 C37 1.334 . S
C37 N36 1.334 . S
C37 N38 1.336 . S
N38 Zn34 2.020 . S
N38 C37 1.336 . S
N38 N39 1.354 1_554 S
N39 C35 1.336 . S
N39 N38 1.354 1_556 S
N39 Zn43 2.020 . S
C40 O41 1.244 1_556 S
C40 O64 1.257 . S
O41 C40 1.244 1_554 S
O42 Zn34 2.019 . S
O42 C62 1.257 . S
Zn43 N39 2.020 . S
Zn43 O50 1.975 1_556 S
Zn43 N59 2.119 . S
Zn43 O64 2.019 . S
N44 Zn34 2.119 . S
N44 C46 1.334 . S
N44 C47 1.328 . S
C45 C46 1.391 . S
C45 N48 1.329 . S
C45 H66 0.930 . S
C46 N44 1.334 . S
C46 C45 1.391 . S
C46 H53 0.930 . S
C47 N44 1.328 . S
C47 C49 1.392 . S
C47 H54 0.930 . S
N48 C45 1.329 . S
N48 C49 1.331 . S
C49 C47 1.392 . S
C49 N48 1.331 . S
O50 Zn43 1.975 1_554 S
O50 C51 1.252 . S
C51 O50 1.252 . S
C51 O52 1.252 . S
O52 Zn34 1.975 . S
O52 C51 1.252 . S
H53 C46 0.930 . S
H54 C47 0.930 . S
C55 C56 1.392 . S
C55 N59 1.328 . S
C55 H61 0.930 . S
C56 C55 1.392 . S
C56 N60 1.331 . S
C57 C58 1.391 . S
C57 N60 1.329 . S
C57 H67 0.930 . S
C58 C57 1.391 . S
C58 N59 1.334 . S
C58 H65 0.930 . S
N59 Zn43 2.119 . S
N59 C55 1.328 . S
N59 C58 1.334 . S
N60 C56 1.331 . S
N60 C57 1.329 . S
H61 C55 0.930 . S
C62 O42 1.257 . S
C62 O63 1.244 1_554 S
O63 C62 1.244 1_556 S
O64 C40 1.257 . S
O64 Zn43 2.019 . S
H65 C58 0.930 . S
H66 C45 0.930 . S
H67 C57 0.930 . S
Zn68 N72 2.020 . S
Zn68 O76 2.019 . S
Zn68 N78 2.119 . S
Zn68 O86 1.975 . S
C69 N70 1.334 1_556 S
C69 N73 1.336 . S
N70 C69 1.334 1_554 S
N70 C71 1.334 . S
C71 N70 1.334 . S
C71 N72 1.336 . S
N72 Zn68 2.020 . S
N72 C71 1.336 . S
N72 N73 1.354 1_554 S
N73 C69 1.336 . S
N73 N72 1.354 1_556 S
N73 Zn77 2.020 . S
C74 O75 1.244 1_556 S
C74 O98 1.257 . S
O75 C74 1.244 1_554 S
O76 Zn68 2.019 . S
O76 C96 1.257 . S
Zn77 N73 2.020 . S
Zn77 O84 1.975 1_556 S
Zn77 N93 2.119 . S
Zn77 O98 2.019 . S
N78 Zn68 2.119 . S
N78 C80 1.334 . S
N78 C81 1.328 . S
C79 C80 1.391 . S
C79 N82 1.329 . S
C79 H100 0.930 . S
C80 N78 1.334 . S
C80 C79 1.391 . S
C80 H87 0.930 . S
C81 N78 1.328 . S
C81 C83 1.392 . S
C81 H88 0.930 . S
N82 C79 1.329 . S
N82 C83 1.331 . S
C83 C81 1.392 . S
C83 N82 1.331 . S
O84 Zn77 1.975 1_554 S
O84 C85 1.252 . S
C85 O84 1.252 . S
C85 O86 1.252 . S
O86 Zn68 1.975 . S
O86 C85 1.252 . S
H87 C80 0.930 . S
H88 C81 0.930 . S
C89 C90 1.392 . S
C89 N93 1.328 . S
C89 H95 0.930 . S
C90 C89 1.392 . S
C90 N94 1.331 . S
C91 C92 1.391 . S
C91 N94 1.329 . S
C91 H101 0.930 . S
C92 C91 1.391 . S
C92 N93 1.334 . S
C92 H99 0.930 . S
N93 Zn77 2.119 . S
N93 C89 1.328 . S
N93 C92 1.334 . S
N94 C90 1.331 . S
N94 C91 1.329 . S
H95 C89 0.930 . S
C96 O76 1.257 . S
C96 O97 1.244 1_554 S
O97 C96 1.244 1_556 S
O98 C74 1.257 . S
O98 Zn77 2.019 . S
H99 C92 0.930 . S
H100 C79 0.930 . S
H101 C91 0.930 . S
Zn102 N106 2.020 . S
Zn102 O110 2.019 . S
Zn102 N112 2.119 . S
Zn102 O120 1.975 . S
C103 N104 1.334 . S
C103 N107 1.336 . S
N104 C103 1.334 . S
N104 C105 1.334 1_554 S
C105 N104 1.334 1_556 S
C105 N106 1.336 . S
N106 Zn102 2.020 . S
N106 C105 1.336 . S
N106 N107 1.354 1_556 S
N107 C103 1.336 . S
N107 N106 1.354 1_554 S
N107 Zn111 2.020 . S
C108 O109 1.244 1_554 S
C108 O132 1.257 . S
O109 C108 1.244 1_556 S
O110 Zn102 2.019 . S
O110 C130 1.257 . S
Zn111 N107 2.020 . S
Zn111 O118 1.975 . S
Zn111 N127 2.119 . S
Zn111 O132 2.019 . S
N112 Zn102 2.119 . S
N112 C114 1.334 . S
N112 C115 1.328 . S
C113 C114 1.391 . S
C113 N116 1.329 . S
C113 H134 0.930 . S
C114 N112 1.334 . S
C114 C113 1.391 . S
C114 H121 0.930 . S
C115 N112 1.328 . S
C115 C117 1.392 . S
C115 H122 0.930 . S
N116 C113 1.329 . S
N116 C117 1.331 . S
C117 C115 1.392 . S
C117 N116 1.331 . S
O118 Zn111 1.975 . S
O118 C119 1.252 1_554 S
C119 O118 1.252 1_556 S
C119 O120 1.252 . S
O120 Zn102 1.975 . S
O120 C119 1.252 . S
H121 C114 0.930 . S
H122 C115 0.930 . S
C123 C124 1.392 . S
C123 N127 1.328 . S
C123 H129 0.930 . S
C124 C123 1.392 . S
C124 N128 1.331 . S
C125 C126 1.391 . S
C125 N128 1.329 . S
C125 H135 0.930 . S
C126 C125 1.391 . S
C126 N127 1.334 . S
C126 H133 0.930 . S
N127 Zn111 2.119 . S
N127 C123 1.328 . S
N127 C126 1.334 . S
N128 C124 1.331 . S
N128 C125 1.329 . S
H129 C123 0.930 . S
C130 O110 1.257 . S
C130 O131 1.244 1_556 S
O131 C130 1.244 1_554 S
O132 C108 1.257 . S
O132 Zn111 2.019 . S
H133 C126 0.930 . S
H134 C113 0.930 . S
H135 C125 0.930 . S
C136 C137 1.369 1_556 S
C136 C138 1.419 1_455 S
C136 H140 0.930 . S
C137 C136 1.369 1_554 S
C137 C146 1.429 1_455 S
C138 C136 1.419 1_655 S
C138 C139 1.363 1_556 S
C138 H141 0.929 . S
C139 C138 1.363 1_554 S
C139 C145 1.428 . S
H140 C136 0.930 . S
H141 C138 0.929 . S
S142 N143 1.600 1_655 S
S142 N144 1.610 . S
N143 S142 1.600 1_455 S
N143 C146 1.347 1_455 S
N144 S142 1.610 . S
N144 C145 1.351 . S
C145 C139 1.428 . S
C145 N144 1.351 . S
C145 C146 1.434 . S
C146 C137 1.429 1_655 S
C146 N143 1.347 1_655 S
C146 C145 1.434 . S
C147 C148 1.369 . S
C147 C149 1.419 . S
C147 H151 0.930 1_556 S
C148 C147 1.369 . S
C148 C157 1.429 1_545 S
C149 C147 1.419 . S
C149 C150 1.363 1_545 S
C149 H152 0.929 1_556 S
C150 C149 1.363 1_565 S
C150 C156 1.428 . S
H151 C147 0.930 1_554 S
H152 C149 0.929 1_554 S
S153 N154 1.613 . S
S153 N155 1.610 . S
N154 S153 1.613 . S
N154 C157 1.350 . S
N155 S153 1.610 . S
N155 C156 1.351 . S
C156 C150 1.428 . S
C156 N155 1.351 . S
C156 C157 1.434 . S
C157 C148 1.429 1_565 S
C157 N154 1.350 . S
C157 C156 1.434 . S
C158 C159 1.369 . S
C158 C160 1.419 . S
C158 H162 0.930 . S
C159 C158 1.369 . S
C159 C168 1.429 . S
C160 C158 1.419 . S
C160 C161 1.363 . S
C160 H163 0.929 . S
C161 C160 1.363 . S
C161 C167 1.428 . S
H162 C158 0.930 . S
H163 C160 0.929 . S
S164 N165 1.613 . S
S164 N166 1.610 . S
N165 S164 1.613 . S
N165 C168 1.350 . S
N166 S164 1.610 . S
N166 C167 1.351 . S
C167 C161 1.428 . S
C167 N166 1.351 . S
C167 C168 1.434 . S
C168 C159 1.429 . S
C168 N165 1.350 . S
C168 C167 1.434 . S
C169 C170 1.369 . S
C169 C171 1.419 . S
C169 H173 0.930 . S
C170 C169 1.369 . S
C170 C179 1.429 . S
C171 C169 1.419 . S
C171 C172 1.363 . S
C171 H174 0.929 . S
C172 C171 1.363 . S
C172 C178 1.428 . S
H173 C169 0.930 . S
H174 C171 0.929 . S
S175 N176 1.613 . S
S175 N177 1.610 . S
N176 S175 1.613 . S
N176 C179 1.350 . S
N177 S175 1.610 . S
N177 C178 1.351 . S
C178 C172 1.428 . S
C178 N177 1.351 . S
C178 C179 1.434 . S
C179 C170 1.429 . S
C179 N176 1.350 . S
C179 C178 1.434 . S
C180 C181 1.369 . S
C180 C182 1.419 . S
C180 H184 0.930 . S
C181 C180 1.369 . S
C181 C190 1.429 . S
C182 C180 1.419 . S
C182 C183 1.363 . S
C182 H185 0.929 . S
C183 C182 1.363 . S
C183 C189 1.428 . S
H184 C180 0.930 . S
H185 C182 0.929 . S
S186 N187 1.613 . S
S186 N188 1.610 . S
N187 S186 1.613 . S
N187 C190 1.350 . S
N188 S186 1.610 . S
N188 C189 1.351 . S
C189 C183 1.428 . S
C189 N188 1.351 . S
C189 C190 1.434 . S
C190 C181 1.429 . S
C190 N187 1.350 . S
C190 C189 1.434 . S
C191 C192 1.369 . S
C191 C193 1.419 . S
C191 H195 0.930 . S
C192 C191 1.369 . S
C192 C201 1.429 . S
C193 C191 1.419 . S
C193 C194 1.363 . S
C193 H196 0.929 . S
C194 C193 1.363 . S
C194 C200 1.428 . S
H195 C191 0.930 . S
H196 C193 0.929 . S
S197 N198 1.613 . S
S197 N199 1.610 . S
N198 S197 1.613 . S
N198 C201 1.350 . S
N199 S197 1.610 . S
N199 C200 1.351 . S
C200 C194 1.428 . S
C200 N199 1.351 . S
C200 C201 1.434 . S
C201 C192 1.429 . S
C201 N198 1.350 . S
C201 C200 1.434 . S
C202 C203 1.369 . S
C202 C204 1.419 1_545 S
C202 H206 0.930 1_554 S
C203 C202 1.369 . S
C203 C212 1.429 . S
C204 C202 1.419 1_565 S
C204 C205 1.363 . S
C204 H207 0.929 1_554 S
C205 C204 1.363 . S
C205 C211 1.428 1_565 S
H206 C202 0.930 1_556 S
H207 C204 0.929 1_556 S
S208 N209 1.613 . S
S208 N210 1.610 . S
N209 S208 1.613 . S
N209 C212 1.350 . S
N210 S208 1.610 . S
N210 C211 1.351 . S
C211 C205 1.428 1_545 S
C211 N210 1.351 . S
C211 C212 1.434 . S
C212 C203 1.429 . S
C212 N209 1.350 . S
C212 C211 1.434 . S
C213 C214 1.369 1_655 S
C213 C215 1.419 . S
C213 H217 0.930 . S
C214 C213 1.369 1_455 S
C214 C223 1.429 . S
C215 C213 1.419 . S
C215 C216 1.363 . S
C215 H218 0.929 . S
C216 C215 1.363 . S
C216 C222 1.428 . S
H217 C213 0.930 . S
H218 C215 0.929 . S
S219 N220 1.613 . S
S219 N221 1.610 1_455 S
N220 S219 1.613 . S
N220 C223 1.350 . S
N221 S219 1.610 1_655 S
N221 C222 1.351 . S
C222 C216 1.428 . S
C222 N221 1.351 . S
C222 C223 1.434 1_655 S
C223 C214 1.429 . S
C223 N220 1.350 . S
C223 C222 1.434 1_455 S
C224 C225 1.369 . S
C224 C226 1.419 . S
C224 H228 0.930 . S
C225 C224 1.369 . S
C225 C234 1.425 1_554 S
C226 C224 1.419 . S
C226 C227 1.363 . S
C226 H229 0.929 1_565 S
C227 C226 1.363 . S
C227 C233 1.428 . S
H228 C224 0.930 . S
H229 C226 0.929 1_545 S
S230 N231 1.613 . S
S230 N232 1.610 . S
N231 S230 1.613 . S
N231 C234 1.354 . S
N232 S230 1.610 . S
N232 C233 1.351 1_556 S
C233 C227 1.428 . S
C233 N232 1.351 1_554 S
C233 C234 1.434 1_554 S
C234 C225 1.425 1_556 S
C234 N231 1.354 . S
C234 C233 1.434 1_556 S
C235 C236 1.369 . S
C235 C237 1.419 . S
C235 H239 0.930 . S
C236 C235 1.369 . S
C236 C245 1.429 1_554 S
C237 C235 1.419 . S
C237 C238 1.363 . S
C237 H240 0.929 . S
C238 C237 1.363 . S
C238 C244 1.428 1_554 S
H239 C235 0.930 . S
H240 C237 0.929 . S
S241 N242 1.613 . S
S241 N243 1.610 . S
N242 S241 1.613 . S
N242 C245 1.350 . S
N243 S241 1.610 . S
N243 C244 1.351 . S
C244 C238 1.428 1_556 S
C244 N243 1.351 . S
C244 C245 1.434 . S
C245 C236 1.429 1_556 S
C245 N242 1.350 . S
C245 C244 1.434 . S
C246 C247 1.369 . S
C246 C248 1.419 . S
C246 H250 0.930 . S
C247 C246 1.369 . S
C247 C256 1.429 1_556 S
C248 C246 1.419 . S
C248 C249 1.363 1_556 S
C248 H251 0.929 . S
C249 C248 1.363 1_554 S
C249 C255 1.428 . S
H250 C246 0.930 . S
H251 C248 0.929 . S
S252 N253 1.613 . S
S252 N254 1.610 . S
N253 S252 1.613 . S
N253 C256 1.350 . S
N254 S252 1.610 . S
N254 C255 1.351 . S
C255 C249 1.428 . S
C255 N254 1.351 . S
C255 C256 1.434 . S
C256 C247 1.429 1_554 S
C256 N253 1.350 . S
C256 C255 1.434 . S
C257 C258 1.369 1_554 S
C257 C259 1.419 . S
C257 H261 0.930 . S
C258 C257 1.369 1_556 S
C258 C267 1.429 . S
C259 C257 1.419 . S
C259 C260 1.363 1_554 S
C259 H262 0.929 . S
C260 C259 1.363 1_556 S
C260 C266 1.428 . S
H261 C257 0.930 . S
H262 C259 0.929 . S
S263 N264 1.613 . S
S263 N265 1.610 . S
N264 S263 1.613 . S
N264 C267 1.350 . S
N265 S263 1.610 . S
N265 C266 1.351 . S
C266 C260 1.428 . S
C266 N265 1.351 . S
C266 C267 1.434 . S
C267 C258 1.429 . S
C267 N264 1.350 . S
C267 C266 1.434 . S
C268 C269 1.369 . S
C268 C270 1.419 . S
C268 H272 0.930 . S
C269 C268 1.369 . S
C269 C278 1.429 1_554 S
C270 C268 1.419 . S
C270 C271 1.363 1_554 S
C270 H273 0.929 . S
C271 C270 1.363 1_556 S
C271 C277 1.428 . S
H272 C268 0.930 . S
H273 C270 0.929 . S
S274 N275 1.613 . S
S274 N276 1.610 . S
N275 S274 1.613 . S
N275 C278 1.350 . S
N276 S274 1.610 . S
N276 C277 1.351 . S
C277 C271 1.428 . S
C277 N276 1.351 . S
C277 C278 1.434 . S
C278 C269 1.429 1_556 S
C278 N275 1.350 . S
C278 C277 1.434 . S
C279 C280 1.369 . S
C279 C281 1.419 . S
C279 H283 0.930 . S
C280 C279 1.369 . S
C280 C289 1.429 . S
C281 C279 1.419 . S
C281 C282 1.363 . S
C281 H284 0.929 . S
C282 C281 1.363 . S
C282 C288 1.428 . S
H283 C279 0.930 . S
H284 C281 0.929 . S
S285 N286 1.613 . S
S285 N287 1.610 . S
N286 S285 1.613 . S
N286 C289 1.350 . S
N287 S285 1.610 . S
N287 C288 1.351 . S
C288 C282 1.428 . S
C288 N287 1.351 . S
C288 C289 1.434 . S
C289 C280 1.429 . S
C289 N286 1.350 . S
C289 C288 1.434 . S
C137 C1 1.766 . S
C139 C71 1.813 . S
C148 C35 1.932 . S
C150 C105 1.922 . S
C159 C15 1.736 . S
C161 C22 1.719 . S
C170 C49 1.722 . S
C172 C56 1.732 . S
C181 C83 1.776 . S
C183 C90 1.793 . S
C192 C117 2.067 . S
C194 C124 2.066 . S
C203 C28 1.332 . S
C205 C103 1.398 . S
C214 C3 1.667 . S
C216 C62 1.818 . S
C225 C85 1.918 . S
C227 C37 1.799 1_565 S
C236 C96 0.920 1_455 S
C238 C108 0.902 . S
C247 C69 1.782 . S
C249 C51 1.961 . S
C258 C130 0.910 . S
C260 C74 0.902 . S
C269 C6 1.060 . S
C271 C119 1.058 . S
C280 C40 1.642 1_554 S
C282 C17 1.645 . S
