# Generated by pormake.
# Topology wnj, (7)-cn, num edge types: 1
# Building blocks:
#     Node 0, Type 0, BuildingBlock: OLANEW_clean_sbu_3, # of connection points: 7
#     Node 1, Type 0, BuildingBlock: OLANEW_clean_sbu_3, # of connection points: 7
#     Node 2, Type 0, BuildingBlock: OLANEW_clean_sbu_3, # of connection points: 7
#     Node 3, Type 0, BuildingBlock: OLANEW_clean_sbu_3, # of connection points: 7
#     Node 4, Type 0, BuildingBlock: OLANEW_clean_sbu_3, # of connection points: 7
#     Node 5, Type 0, BuildingBlock: OLANEW_clean_sbu_3, # of connection points: 7
#     Edge 6, Type (0, 0), None
#     Edge 7, Type (0, 0), None
#     Edge 8, Type (0, 0), None
#     Edge 9, Type (0, 0), None
#     Edge 10, Type (0, 0), None
#     Edge 11, Type (0, 0), None
#     Edge 12, Type (0, 0), None
#     Edge 13, Type (0, 0), None
#     Edge 14, Type (0, 0), None
#     Edge 15, Type (0, 0), None
#     Edge 16, Type (0, 0), None
#     Edge 17, Type (0, 0), None
#     Edge 18, Type (0, 0), None
#     Edge 19, Type (0, 0), None
#     Edge 20, Type (0, 0), None
#     Edge 21, Type (0, 0), None
#     Edge 22, Type (0, 0), None
#     Edge 23, Type (0, 0), None
#     Edge 24, Type (0, 0), None
#     Edge 25, Type (0, 0), None
#     Edge 26, Type (0, 0), None
# Relax obj value: 0.335
# Max RMSD: 0.278
# Mean RMSD: 0.278
data_MOF--net-wnj--node1-OLANEW_clean_sbu_3--edge1-none
_symmetry_space_group_name_H-M    P1
_symmetry_Int_Tables_number       1
_symmetry_cell_setting            triclinic
loop_
_symmetry_equiv_pos_as_xyz
'x, y, z'
_cell_length_a     22.314391
_cell_length_b     22.318944
_cell_length_c     28.959962
_cell_angle_alpha  90.00229
_cell_angle_beta   89.997202
_cell_angle_gamma 120.01705
loop_
_atom_site_label
_atom_site_type_symbol
_atom_site_fract_x
_atom_site_fract_y
_atom_site_fract_z
_atom_type_partial_charge
C0 C 1.02162 0.56072 -0.01515 0.0
C1 C 0.04253 0.63093 -0.01013 0.0
C2 C 0.09884 0.6715 0.01971 0.0
C3 C 0.13338 0.6419 0.04324 0.0
C4 C 0.10974 0.57154 0.03631 0.0
N5 N 0.05619 0.53614 0.00813 0.0
C6 C 0.13552 0.52811 0.05652 0.0
C7 C 0.111 0.40685 0.06408 0.0
C8 C 0.17692 0.41425 0.05816 0.0
C9 C 0.19136 0.3645 0.07568 0.0
C10 C 0.14045 0.30728 0.09957 0.0
C11 C 0.07527 0.30017 0.10641 0.0
C12 C 0.06063 0.34978 0.08888 0.0
Cd13 Cd 0.25001 0.62256 0.14652 0.0
Cd14 Cd 0.17395 0.71286 0.21747 0.0
C15 C 0.95937 0.41499 0.9039 0.0
C16 C 0.8806 0.34003 0.84344 0.0
C17 C 0.93791 0.3634 0.8134 0.0
C18 C 1.00497 0.41372 0.8271 0.0
C19 C 1.01392 0.44012 0.87182 0.0
C20 C 0.89198 0.36598 0.88911 0.0
Co21 Co 1.03022 0.44558 -0.00221 0.0
N22 N 0.10538 0.46572 0.95464 0.0
N23 N 1.00184 0.35418 -0.01241 0.0
C24 C 0.03982 0.34082 0.95863 0.0
C25 C 1.01827 0.27172 0.94823 0.0
C26 C 0.95636 0.21976 0.96875 0.0
C27 C 0.91747 0.23757 -0.00142 0.0
C28 C 0.94227 0.30782 0.0071 0.0
N29 N 0.95101 0.41038 0.04026 0.0
N30 N 0.09581 0.45825 0.04688 0.0
N31 N 0.97134 0.44862 0.94838 0.0
O32 O 0.22923 0.697 0.28442 0.0
O33 O 0.26846 0.67428 0.22264 0.0
C34 C 0.3504 0.57249 0.15684 0.0
O35 O 0.30496 0.56137 0.18747 0.0
O36 O 0.34863 0.60478 0.12121 0.0
C37 C 0.30291 0.79803 0.12898 0.0
O38 O 0.30747 0.74556 0.11607 0.0
O39 O 0.26176 0.79272 0.16143 0.0
C40 C 0.09993 0.40394 0.94106 0.0
O41 O 0.1468 0.40081 0.91534 0.0
O42 O 0.11598 0.57107 0.15279 0.0
O43 O 0.06487 0.61875 0.19169 0.0
C44 C 0.91277 0.33977 0.03707 0.0
O45 O 0.8599 0.3026 0.06446 0.0
C46 C 0.94179 0.4472 0.07778 0.0
C47 C 0.99251 0.47623 0.11154 0.0
C48 C 0.99213 0.52112 0.14455 0.0
C49 C 0.92944 0.52248 0.15117 0.0
C50 C 0.87164 0.48369 0.12144 0.0
C51 C 0.88048 0.44978 0.08311 0.0
C52 C 0.28062 0.70268 0.26211 0.0
O53 O 0.19976 0.55675 0.07474 0.0
C54 C 0.06045 0.57048 0.16632 0.0
C55 C 0.16731 0.53183 0.94685 0.0
C56 C 0.16407 0.58847 0.92858 0.0
C57 C 0.22443 0.64854 0.9153 0.0
C58 C 0.28869 0.6525 0.91908 0.0
C59 C 0.29296 0.59631 0.93687 0.0
C60 C 0.23252 0.53793 0.95273 0.0
C61 C 0.97204 0.51038 0.95141 0.0
O62 O 0.94249 0.52938 0.91985 0.0
H63 H 1.01764 0.65407 0.97069 0.0
H64 H 0.11627 0.72594 0.02409 0.0
H65 H 0.17657 0.67281 0.06592 0.0
H66 H 0.21735 0.45839 0.04029 0.0
H67 H 0.15168 0.26882 0.11313 0.0
H68 H 1.01056 0.3442 0.09572 0.0
H69 H 0.92975 0.34457 0.77847 0.0
H70 H 0.06317 0.48369 0.8805 0.0
H71 H 0.84885 0.34942 0.91269 0.0
H72 H 0.04761 0.25826 0.92492 0.0
H73 H 0.93837 0.16586 0.96136 0.0
H74 H 0.86999 0.19797 0.01421 0.0
H75 H 1.03367 0.46481 0.11206 0.0
H76 H 0.92574 0.55346 0.1786 0.0
H77 H 0.83862 0.42246 0.05871 0.0
H78 H 0.11526 0.58563 0.922 0.0
H79 H 0.33431 0.69786 0.90605 0.0
H80 H 0.23538 0.494 0.9656 0.0
C81 C 0.49694 0.47241 0.6516 0.0
C82 C 0.42672 0.42307 0.65663 0.0
C83 C 0.38617 0.43881 0.68648 0.0
C84 C 0.41578 0.50298 0.70998 0.0
C85 C 0.48616 0.54973 0.70304 0.0
N86 N 0.52154 0.53158 0.67486 0.0
C87 C 0.5296 0.61899 0.7232 0.0
C88 C 0.6509 0.7158 0.73073 0.0
C89 C 0.64353 0.77431 0.72479 0.0
C90 C 0.6933 0.83851 0.74231 0.0
C91 C 0.75051 0.84485 0.76621 0.0
C92 C 0.7576 0.78679 0.77306 0.0
C93 C 0.70797 0.72252 0.75553 0.0
Cd94 Cd 0.43534 0.63903 0.8132 0.0
Cd95 Cd 0.3453 0.47326 0.8838 0.0
C96 C 0.64262 0.55595 0.57057 0.0
C97 C 0.71756 0.55215 0.51011 0.0
C98 C 0.69421 0.58609 0.48008 0.0
C99 C 0.6439 0.60283 0.49378 0.0
C100 C 0.61749 0.58536 0.5385 0.0
C101 C 0.69161 0.53758 0.55578 0.0
Co102 Co 0.6121 0.59625 0.66445 0.0
N103 N 0.59186 0.65117 0.62132 0.0
N104 N 0.7035 0.65934 0.6542 0.0
C105 C 0.7168 0.71067 0.62525 0.0
C106 C 0.7859 0.75828 0.61481 0.0
C107 C 0.83791 0.74841 0.6353 0.0
C108 C 0.82016 0.69172 0.66513 0.0
C109 C 0.74991 0.6462 0.67368 0.0
N110 N 0.64741 0.55235 0.7069 0.0
N111 N 0.59947 0.64917 0.71355 0.0
N112 N 0.60902 0.5343 0.61506 0.0
O113 O 0.36064 0.54412 0.95069 0.0
O114 O 0.38264 0.60659 0.88912 0.0
C115 C 0.4855 0.78954 0.82344 0.0
O116 O 0.49667 0.75528 0.85407 0.0
O117 O 0.45323 0.75543 0.78781 0.0
C118 C 0.25976 0.51643 0.79551 0.0
O119 O 0.31229 0.57348 0.78262 0.0
O120 O 0.26503 0.48055 0.82792 0.0
C121 C 0.65363 0.70757 0.60772 0.0
O122 O 0.6567 0.75755 0.58201 0.0
O123 O 0.4868 0.5565 0.81955 0.0
O124 O 0.4391 0.45767 0.85837 0.0
C125 C 0.71802 0.58478 0.70367 0.0
O126 O 0.75525 0.56914 0.73104 0.0
C127 C 0.61064 0.5063 0.74443 0.0
C128 C 0.58162 0.52796 0.77822 0.0
C129 C 0.53679 0.48267 0.81125 0.0
C130 C 0.53546 0.41864 0.81785 0.0
C131 C 0.57424 0.39968 0.78808 0.0
C132 C 0.60809 0.44245 0.74974 0.0
C133 C 0.35472 0.58994 0.92872 0.0
O134 O 0.50095 0.6546 0.74136 0.0
C135 C 0.48741 0.50158 0.83305 0.0
C136 C 0.52571 0.64688 0.61355 0.0
C137 C 0.46906 0.58694 0.59532 0.0
C138 C 0.40893 0.58711 0.58207 0.0
C139 C 0.40492 0.64737 0.58584 0.0
C140 C 0.46112 0.7079 0.60357 0.0
C141 C 0.51956 0.70596 0.61941 0.0
C142 C 0.54726 0.4732 0.61812 0.0
O143 O 0.52823 0.42463 0.58656 0.0
H144 H 0.40356 0.37502 0.63746 0.0
H145 H 0.33171 0.40177 0.69088 0.0
H146 H 0.38489 0.51526 0.73267 0.0
H147 H 0.5994 0.77058 0.7069 0.0
H148 H 0.78899 0.89456 0.77976 0.0
H149 H 0.71353 0.67804 0.76239 0.0
H150 H 0.71305 0.59678 0.44514 0.0
H151 H 0.57391 0.59101 0.54718 0.0
H152 H 0.70816 0.51101 0.57936 0.0
H153 H 0.79931 0.80106 0.5915 0.0
H154 H 0.89181 0.78436 0.62788 0.0
H155 H 0.85981 0.68391 0.68073 0.0
H156 H 0.593 0.58053 0.77873 0.0
H157 H 0.50451 0.38394 0.84529 0.0
H158 H 0.63539 0.42793 0.72531 0.0
H159 H 0.47195 0.541 0.58874 0.0
H160 H 0.35951 0.64753 0.57283 0.0
H161 H 0.56348 0.7528 0.63226 0.0
C162 C 0.58504 0.03584 0.31804 0.0
C163 C 0.63438 1.01498 0.32305 0.0
C164 C 0.61863 0.95866 0.35287 0.0
C165 C 0.55445 0.92406 0.37637 0.0
C166 C 0.5077 0.94766 0.36945 0.0
N167 N 0.52586 1.00122 0.3413 0.0
C168 C 0.43847 0.92185 0.38967 0.0
C169 C 0.34171 0.94635 0.39732 0.0
C170 C 0.28315 0.88045 0.39143 0.0
C171 C 0.21898 0.86603 0.409 0.0
C172 C 0.21273 0.91693 0.43292 0.0
C173 C 0.27084 0.98209 0.43974 0.0
C174 C 0.33507 0.99672 0.42215 0.0
Cd175 Cd 0.4186 0.80774 0.47981 0.0
Cd176 Cd 0.58414 0.88345 0.55046 0.0
C177 C 0.50163 0.09825 0.2372 0.0
C178 C 0.50551 0.17712 0.17683 0.0
C179 C 0.47164 0.11987 0.14672 0.0
C180 C 0.45487 0.0528 0.16036 0.0
C181 C 0.47227 0.04379 0.20508 0.0
C182 C 0.52001 0.16565 0.22249 0.0
Co183 Co 0.46125 0.0272 0.331 0.0
N184 N 0.40624 0.95212 0.2878 0.0
N185 N 0.39821 0.05557 0.32085 0.0
C186 C 0.34686 1.01763 0.29187 0.0
C187 C 0.2993 0.03917 0.28149 0.0
C188 C 0.30925 0.10104 0.30205 0.0
C189 C 0.36596 0.1399 0.33189 0.0
C190 C 0.41143 0.11511 0.34038 0.0
N191 N 0.50524 0.10635 0.37352 0.0
N192 N 0.4083 0.96153 0.38007 0.0
N193 N 0.52325 0.08618 0.28166 0.0
O194 O 0.51323 0.82781 0.61731 0.0
O195 O 0.4508 0.78714 0.55572 0.0
C196 C 0.26805 0.70749 0.49009 0.0
O197 O 0.30237 0.75298 0.52069 0.0
O198 O 0.30212 0.70923 0.45447 0.0
C199 C 0.5412 0.75483 0.46216 0.0
O200 O 0.48415 0.75027 0.44925 0.0
O201 O 0.57705 0.79598 0.4946 0.0
C202 C 0.34988 0.95758 0.27425 0.0
O203 O 0.29983 0.91072 0.24854 0.0
O204 O 0.50124 0.94169 0.48617 0.0
O205 O 0.59999 0.99295 0.52509 0.0
C206 C 0.47287 0.14457 0.37035 0.0
O207 O 0.48858 0.19741 0.39776 0.0
C208 C 0.55137 0.11564 0.411 0.0
C209 C 0.52975 0.06493 0.44475 0.0
C210 C 0.57502 0.06551 0.47784 0.0
C211 C 0.63899 0.1283 0.48448 0.0
C212 C 0.65791 0.18603 0.45471 0.0
C213 C 0.61516 0.17704 0.41636 0.0
C214 C 0.46745 0.776 0.59535 0.0
O215 O 0.40289 0.85763 0.40792 0.0
C216 C 0.55613 0.99728 0.49968 0.0
C217 C 0.41035 0.89018 0.27992 0.0
C218 C 0.47014 0.89336 0.26152 0.0
C219 C 0.46962 0.83299 0.24799 0.0
C220 C 0.4092 0.76878 0.2517 0.0
C221 C 0.3489 0.76456 0.26975 0.0
C222 C 0.35116 0.82501 0.28579 0.0
C223 C 0.58432 0.08548 0.28466 0.0
O224 O 0.63292 0.11512 0.25313 0.0
H225 H 0.68245 0.03993 0.3039 0.0
H226 H 0.65568 0.94127 0.35726 0.0
H227 H 0.54217 0.88088 0.39905 0.0
H228 H 0.28682 0.84003 0.37354 0.0
H229 H 0.16304 0.9057 0.44652 0.0
H230 H 0.37961 0.04676 0.42899 0.0
H231 H 0.461 0.12808 0.11179 0.0
H232 H 0.46661 0.99456 0.21373 0.0
H233 H 0.54654 0.20872 0.24612 0.0
H234 H 0.2565 1.00987 0.25817 0.0
H235 H 0.27333 0.11903 0.29468 0.0
H236 H 0.37384 0.18734 0.34755 0.0
H237 H 0.4772 0.02365 0.44522 0.0
H238 H 0.67367 0.13212 0.51195 0.0
H239 H 0.62964 0.21888 0.39195 0.0
H240 H 0.51621 0.94215 0.25504 0.0
H241 H 0.40879 0.72316 0.23855 0.0
H242 H 0.30448 0.8222 0.29884 0.0
C243 C 0.57267 1.01048 0.96946 0.0
C244 C 0.64293 0.03154 0.96451 0.0
C245 C 0.68346 0.08786 0.93467 0.0
C246 C 0.65376 0.12226 0.91109 0.0
C247 C 0.58334 0.09847 0.91796 0.0
N248 N 0.54799 0.04492 0.94614 0.0
C249 C 0.5398 0.12406 0.89767 0.0
C250 C 0.41846 0.09937 0.89008 0.0
C251 C 0.42577 0.16524 0.89599 0.0
C252 C 0.37595 0.17958 0.87847 0.0
C253 C 0.31876 0.12863 0.85458 0.0
C254 C 0.31174 0.0635 0.84776 0.0
C255 C 0.36141 0.04895 0.86529 0.0
Cd256 Cd 0.63449 0.23869 0.80763 0.0
Cd257 Cd 0.72524 0.16232 0.7362 0.0
C258 C 0.42663 0.94772 0.05022 0.0
C259 C 0.35155 0.86876 0.11056 0.0
C260 C 0.37481 0.926 0.14066 0.0
C261 C 0.42509 0.99311 0.12704 0.0
C262 C 0.4516 1.00218 0.08234 0.0
C263 C 0.37763 0.88028 0.06492 0.0
Co264 Co 0.45733 1.01873 0.9564 0.0
N265 N 0.47725 0.09382 -0.00043 0.0
N266 N 0.36585 0.99015 0.96652 0.0
C267 C 0.35233 0.02803 -0.00454 0.0
C268 C 0.28316 1.00635 0.0058 0.0
C269 C 0.23131 0.94441 -0.01475 0.0
C270 C 0.2493 0.90563 0.95545 0.0
C271 C 0.31961 0.93056 0.94699 0.0
N272 N 0.42233 0.93955 0.91391 0.0
N273 N 0.46994 0.08428 0.90729 0.0
N274 N 0.46042 0.95987 0.0058 0.0
O275 O 0.70879 0.21728 0.66915 0.0
O276 O 0.68488 0.25467 0.73122 0.0
C277 C 0.58479 0.33932 0.79728 0.0
O278 O 0.57361 0.29391 0.76663 0.0
O279 O 0.61704 0.33748 0.8329 0.0
C280 C 0.8099 0.29147 0.82494 0.0
O281 O 0.75745 0.29603 0.8379 0.0
O282 O 0.80459 0.25037 0.79245 0.0
C283 C 0.41535 0.0882 0.01308 0.0
O284 O 0.41202 0.13498 0.03877 0.0
O285 O 0.583 0.10469 0.80148 0.0
O286 O 0.63072 0.0537 0.76244 0.0
C287 C 0.35171 0.9012 0.91705 0.0
O288 O 0.31466 0.84832 0.88965 0.0
C289 C 0.45927 0.93042 0.87641 0.0
C290 C 0.48825 0.98116 0.84266 0.0
C291 C 0.53321 0.98088 0.80966 0.0
C292 C 0.53466 0.91825 0.80301 0.0
C293 C 0.49591 0.86041 0.83271 0.0
C294 C 0.46194 0.86918 0.87105 0.0
C295 C 0.71401 0.26806 0.69196 0.0
O296 O 0.56833 0.18821 0.8793 0.0
C297 C 0.5825 0.04923 0.78791 0.0
C298 C 0.54326 0.15583 0.00751 0.0
C299 C 0.59989 0.15276 0.02598 0.0
C300 C 0.65966 0.21318 0.03963 0.0
C301 C 0.66335 0.27733 0.03595 0.0
C302 C 0.60726 0.28145 0.01782 0.0
C303 C 0.54917 0.22096 0.00168 0.0
C304 C 0.52231 0.96079 0.00285 0.0
O305 O 0.54134 0.9313 0.03443 0.0
H306 H 0.66615 1.00675 -0.01628 0.0
H307 H 0.73795 0.10541 0.93032 0.0
H308 H 0.68463 0.16544 0.8884 0.0
H309 H 0.4699 0.2057 0.91385 0.0
H310 H 0.28024 0.13979 0.84103 0.0
H311 H 0.35591 0.99892 0.85845 0.0
H312 H 0.35589 0.91777 0.17558 0.0
H313 H 0.49513 0.05146 0.0737 0.0
H314 H 0.36118 0.83721 0.0413 0.0
H315 H 0.26958 0.0356 0.0291 0.0
H316 H 0.17737 0.92632 -0.0074 0.0
H317 H 0.20977 0.85813 0.9398 0.0
H318 H 0.47672 1.02224 0.84214 0.0
H319 H 0.56569 0.91463 0.77557 0.0
H320 H 0.43466 0.8273 0.89545 0.0
H321 H 0.59724 0.10402 0.03245 0.0
H322 H 0.70849 0.32297 0.04918 0.0
H323 H 0.50528 0.22368 -0.01143 0.0
C324 C 0.0469 0.57364 0.63632 0.0
C325 C 1.02585 0.62283 0.63138 0.0
C326 C 0.9695 0.60701 0.60156 0.0
C327 C 0.93506 0.5429 0.57799 0.0
C328 C 0.95884 0.49628 0.58484 0.0
N329 N 1.01242 0.51451 0.613 0.0
C330 C 0.93326 0.42718 0.5645 0.0
C331 C 0.958 0.33061 0.55681 0.0
C332 C 0.89213 0.272 0.5627 0.0
C333 C 0.87781 0.20786 0.54513 0.0
C334 C 0.92879 0.20171 0.52122 0.0
C335 C 0.99392 0.25988 0.51441 0.0
C336 C 1.00844 0.32407 0.53199 0.0
Cd337 Cd 0.8188 0.40737 0.47435 0.0
Cd338 Cd 0.89519 0.57441 0.40284 0.0
C339 C 0.10994 0.49051 0.71692 0.0
C340 C 0.189 0.49441 0.77716 0.0
C341 C 0.1318 0.4605 0.80733 0.0
C342 C 0.06467 0.44368 0.79377 0.0
C343 C 0.05554 0.46107 0.74908 0.0
C344 C 0.17741 0.50894 0.73154 0.0
Co345 Co 0.03871 0.45012 0.62317 0.0
N346 N 0.96369 0.39486 0.6664 0.0
N347 N 0.06737 0.38729 0.63321 0.0
C348 C 1.02957 0.33586 0.66216 0.0
C349 C 0.05133 0.28845 0.67246 0.0
C350 C 0.11326 0.29863 0.65185 0.0
C351 C 0.15196 0.35542 0.62204 0.0
C352 C 0.12696 0.40072 0.61363 0.0
N353 N 0.11784 0.4944 0.58062 0.0
N354 N 0.97307 0.39714 0.57409 0.0
N355 N 0.09768 0.51212 0.67252 0.0
O356 O 0.84016 0.50286 0.33585 0.0
O357 O 0.80264 0.4416 0.39794 0.0
C358 C 0.71821 0.257 0.46395 0.0
O359 O 0.76369 0.29128 0.43333 0.0
O360 O 0.71996 0.29107 0.49956 0.0
C361 C 0.76607 0.52999 0.4916 0.0
O362 O 0.76149 0.47298 0.50459 0.0
O363 O 0.80717 0.56575 0.45909 0.0
C364 C 0.96942 0.33863 0.67987 0.0
O365 O 0.92269 0.28845 0.70557 0.0
O366 O 0.95275 0.49 0.46819 0.0
O367 O 1.00385 0.58866 0.42907 0.0
C368 C 0.15625 0.4622 0.58371 0.0
O369 O 0.20911 0.4781 0.55627 0.0
C370 C 0.12697 0.54051 0.54316 0.0
C371 C 0.0762 0.51878 0.50944 0.0
C372 C 0.07658 0.56399 0.47639 0.0
C373 C 0.13929 0.62803 0.4697 0.0
C374 C 0.19712 0.64709 0.4994 0.0
C375 C 0.1883 0.60439 0.53776 0.0
C376 C 0.78933 0.45732 0.35865 0.0
O377 O 0.86915 0.39158 0.54606 0.0
C378 C 1.00825 0.54493 0.4546 0.0
C379 C 0.90159 0.39866 0.67445 0.0
C380 C 0.90452 0.45821 0.69307 0.0
C381 C 0.84403 0.45719 0.70702 0.0
C382 C 0.77994 0.39655 0.70343 0.0
C383 C 0.77596 0.33657 0.68501 0.0
C384 C 0.83652 0.33931 0.66867 0.0
C385 C 0.0967 0.57304 0.66962 0.0
O386 O 0.12627 0.6216 0.70119 0.0
H387 H 0.05069 0.67086 0.65058 0.0
H388 H 0.95197 0.64395 0.59722 0.0
H389 H 0.89187 0.53057 0.5553 0.0
H390 H 0.85164 0.27559 0.58057 0.0
H391 H 0.91765 0.15206 0.50763 0.0
H392 H 0.05846 0.36865 0.52516 0.0
H393 H 0.14008 0.44983 0.84225 0.0
H394 H 1.00625 0.45533 0.74048 0.0
H395 H 0.22043 0.5355 0.70787 0.0
H396 H 1.02214 0.2456 0.69577 0.0
H397 H 0.13141 0.26283 0.65916 0.0
H398 H 0.19946 0.36346 0.60635 0.0
H399 H 0.03505 0.46618 0.50895 0.0
H400 H 0.14297 0.66265 0.44223 0.0
H401 H 0.23021 0.61896 0.56213 0.0
H402 H 0.95322 0.50445 0.69942 0.0
H403 H 0.73425 0.39578 0.7168 0.0
H404 H 0.83392 0.29286 0.65534 0.0
C405 C 0.48399 0.48484 0.30295 0.0
C406 C 0.43477 0.41458 0.29799 0.0
C407 C 0.45059 0.37407 0.26817 0.0
C408 C 0.51473 0.40377 0.24462 0.0
C409 C 0.56137 0.47418 0.25149 0.0
N410 N 0.54315 0.50952 0.27964 0.0
C411 C 0.63053 0.51772 0.2312 0.0
C412 C 0.72716 0.63905 0.22353 0.0
C413 C 0.78577 0.63181 0.22941 0.0
C414 C 0.84992 0.68163 0.21183 0.0
C415 C 0.85609 0.73876 0.18792 0.0
C416 C 0.79793 0.7457 0.18111 0.0
C417 C 0.73372 0.69602 0.1987 0.0
Cd418 Cd 0.6503 0.42327 0.14102 0.0
Cd419 Cd 0.48381 0.33289 0.06985 0.0
C420 C 0.56716 0.63098 0.3836 0.0
C421 C 0.56324 0.70612 0.44383 0.0
C422 C 0.59713 0.68285 0.47401 0.0
C423 C 0.61396 0.63256 0.46045 0.0
C424 C 0.59657 0.60603 0.41576 0.0
C425 C 0.54873 0.68001 0.39821 0.0
Co426 Co 0.60761 0.60019 0.28986 0.0
N427 N 0.66278 0.58035 0.3331 0.0
N428 N 0.67052 0.69169 0.29996 0.0
C429 C 0.72192 0.70526 0.32892 0.0
C430 C 0.7694 0.77442 0.33925 0.0
C431 C 0.75932 0.82623 0.31866 0.0
C432 C 0.70254 0.8082 0.28884 0.0
C433 C 0.65717 0.73789 0.2804 0.0
N434 N 0.56344 0.63514 0.24733 0.0
N435 N 0.66061 0.58757 0.2408 0.0
N436 N 0.54557 0.59712 0.3392 0.0
O437 O 0.5551 0.34885 0.00295 0.0
O438 O 0.61693 0.37176 0.06482 0.0
C439 C 0.80072 0.47316 0.13069 0.0
O440 O 0.7665 0.48444 0.10008 0.0
O441 O 0.7666 0.44082 0.16629 0.0
C442 C 0.52762 0.24783 0.15841 0.0
O443 O 0.58465 0.3003 0.17138 0.0
O444 O 0.49183 0.25313 0.12593 0.0
C445 C 0.71907 0.64229 0.34659 0.0
O446 O 0.76924 0.64569 0.37226 0.0
O447 O 0.56767 0.47455 0.13476 0.0
O448 O 0.46896 0.42701 0.09573 0.0
C449 C 0.5957 0.70575 0.25046 0.0
O450 O 0.57987 0.74277 0.22304 0.0
C451 C 0.51731 0.59821 0.20987 0.0
C452 C 0.539 0.56918 0.17612 0.0
C453 C 0.49378 0.52444 0.14303 0.0
C454 C 0.42977 0.52317 0.13636 0.0
C455 C 0.41076 0.56192 0.16611 0.0
C456 C 0.45347 0.59572 0.20448 0.0
C457 C 0.60077 0.34328 0.02538 0.0
O458 O 0.66613 0.4892 0.21281 0.0
C459 C 0.51276 0.47517 0.1212 0.0
C460 C 0.65888 0.51441 0.34112 0.0
C461 C 0.59928 0.4578 0.35973 0.0
C462 C 0.60021 0.3983 0.37367 0.0
C463 C 0.66082 0.39481 0.37007 0.0
C464 C 0.72085 0.4508 0.35166 0.0
C465 C 0.7182 0.50865 0.33533 0.0
C466 C 0.48461 0.53521 0.33627 0.0
O467 O 0.43603 0.5162 0.36783 0.0
H468 H 0.38672 0.39138 0.31718 0.0
H469 H 0.41363 0.31959 0.26382 0.0
H470 H 0.52706 0.37291 0.22193 0.0
H471 H 0.78216 0.58773 0.24728 0.0
H472 H 0.90576 0.77728 0.17432 0.0
H473 H 0.68915 0.70146 0.19187 0.0
H474 H 0.60779 0.70179 0.50893 0.0
H475 H 0.60231 0.5625 0.40716 0.0
H476 H 0.52219 0.69645 0.37453 0.0
H477 H 0.81225 0.78804 0.36256 0.0
H478 H 0.79516 0.88017 0.32599 0.0
H479 H 0.69456 0.84768 0.27317 0.0
H480 H 0.59158 0.58056 0.17566 0.0
H481 H 0.39514 0.49228 0.10887 0.0
H482 H 0.43895 0.62305 0.22888 0.0
H483 H 0.55307 0.46031 0.3661 0.0
H484 H 0.66151 0.34986 0.38343 0.0
H485 H 0.76469 0.55249 0.32201 0.0
loop_
_geom_bond_atom_site_label_1
_geom_bond_atom_site_label_2
_geom_bond_distance
_geom_bond_site_symmetry_2
_ccdc_geom_bond_type
C0 C1 1.359 . S
C0 N5 1.330 1_556 S
C0 C61 1.504 1_455 S
C1 C0 1.359 . S
C1 C2 1.366 1_556 S
C1 H63 0.929 . S
C2 C1 1.366 1_554 S
C2 C3 1.415 . S
C2 H64 0.932 . S
C3 C2 1.415 . S
C3 C4 1.366 . S
C3 H65 0.931 . S
C4 C3 1.366 . S
C4 N5 1.325 . S
C4 C6 1.516 . S
N5 C0 1.330 1_554 S
N5 C4 1.325 . S
N5 Co21 1.869 . S
C6 C4 1.516 . S
C6 N30 1.316 . S
C6 O53 1.263 . S
C7 C8 1.421 . S
C7 C12 1.360 . S
C7 N30 1.436 . S
C8 C7 1.421 . S
C8 C9 1.379 . S
C8 H66 0.929 . S
C9 C8 1.379 . S
C9 C10 1.417 . S
C10 C9 1.417 . S
C10 C11 1.352 . S
C10 H67 0.929 . S
C11 C10 1.352 . S
C11 C12 1.393 . S
C12 C7 1.360 . S
C12 C11 1.393 . S
C12 H68 0.931 . S
Cd13 O33 2.329 . S
Cd13 O35 2.350 . S
Cd13 O36 2.277 . S
Cd13 O38 2.173 . S
Cd13 O42 2.263 . S
Cd13 O53 2.366 . S
Cd14 O32 2.352 . S
Cd14 O39 2.250 . S
Cd14 O43 2.308 . S
C15 C19 1.403 . S
C15 C20 1.370 . S
C15 N31 1.423 . S
C16 C17 1.389 . S
C16 C20 1.389 . S
C17 C16 1.389 . S
C17 C18 1.379 . S
C17 H69 0.929 . S
C18 C17 1.379 . S
C18 C19 1.405 . S
C19 C15 1.403 . S
C19 C18 1.405 . S
C19 H70 0.932 . S
C20 C15 1.370 . S
C20 C16 1.389 . S
C20 H71 0.931 1_556 S
Co21 N5 1.869 . S
Co21 N22 1.955 1_554 S
Co21 N23 1.864 . S
Co21 N29 1.958 . S
Co21 N30 1.953 . S
Co21 N31 1.974 1_454 S
N22 Co21 1.955 1_556 S
N22 C40 1.329 . S
N22 C55 1.432 . S
N23 Co21 1.864 . S
N23 C24 1.327 1_554 S
N23 C28 1.342 1_455 S
C24 N23 1.327 1_556 S
C24 C25 1.407 . S
C24 C40 1.481 . S
C25 C24 1.407 . S
C25 C26 1.364 1_456 S
C25 H72 0.930 . S
C26 C25 1.364 1_654 S
C26 C27 1.390 . S
C26 H73 0.931 . S
C27 C26 1.390 . S
C27 C28 1.346 . S
C27 H74 0.930 . S
C28 N23 1.342 1_655 S
C28 C27 1.346 . S
C28 C44 1.516 . S
N29 Co21 1.958 . S
N29 C44 1.324 1_455 S
N29 C46 1.427 . S
N30 C6 1.316 . S
N30 C7 1.436 . S
N30 Co21 1.953 . S
N31 C15 1.423 . S
N31 Co21 1.974 1_656 S
N31 C61 1.309 . S
O32 Cd14 2.352 . S
O32 C52 1.235 . S
O33 Cd13 2.329 . S
O33 C52 1.270 . S
C34 O35 1.270 . S
C34 O36 1.248 . S
O35 Cd13 2.350 . S
O35 C34 1.270 . S
O36 Cd13 2.277 . S
O36 C34 1.248 . S
C37 O38 1.277 . S
C37 O39 1.230 . S
O38 Cd13 2.173 . S
O38 C37 1.277 . S
O39 Cd14 2.250 . S
O39 C37 1.230 . S
C40 N22 1.329 . S
C40 C24 1.481 . S
C40 O41 1.246 . S
O41 C40 1.246 . S
O42 Cd13 2.263 . S
O42 C54 1.258 . S
O43 Cd14 2.308 . S
O43 C54 1.274 . S
C44 C28 1.516 . S
C44 N29 1.324 1_655 S
C44 O45 1.238 . S
O45 C44 1.238 . S
C46 N29 1.427 . S
C46 C47 1.394 . S
C46 C51 1.395 1_455 S
C47 C46 1.394 . S
C47 C48 1.380 . S
C47 H75 0.929 . S
C48 C47 1.380 . S
C48 C49 1.384 . S
C48 C54 1.495 . S
C49 C48 1.384 . S
C49 C50 1.382 1_455 S
C49 H76 0.930 . S
C50 C49 1.382 1_655 S
C50 C51 1.398 . S
C51 C46 1.395 1_655 S
C51 C50 1.398 . S
C51 H77 0.930 . S
C52 O32 1.235 . S
C52 O33 1.270 . S
O53 C6 1.263 . S
O53 Cd13 2.366 . S
C54 O42 1.258 . S
C54 O43 1.274 . S
C54 C48 1.495 . S
C55 N22 1.432 . S
C55 C56 1.381 . S
C55 C60 1.385 . S
C56 C55 1.381 . S
C56 C57 1.371 . S
C56 H78 0.932 . S
C57 C56 1.371 . S
C57 C58 1.400 . S
C58 C57 1.400 . S
C58 C59 1.351 . S
C58 H79 0.930 . S
C59 C58 1.351 . S
C59 C60 1.388 . S
C60 C55 1.385 . S
C60 C59 1.388 . S
C60 H80 0.929 . S
C61 C0 1.504 1_655 S
C61 N31 1.309 . S
C61 O62 1.258 . S
O62 C61 1.258 . S
H63 C1 0.929 . S
H64 C2 0.932 . S
H65 C3 0.931 . S
H66 C8 0.929 . S
H67 C10 0.929 . S
H68 C12 0.931 . S
H69 C17 0.929 . S
H70 C19 0.932 . S
H71 C20 0.931 1_554 S
H72 C25 0.930 . S
H73 C26 0.931 . S
H74 C27 0.930 . S
H75 C47 0.929 . S
H76 C49 0.930 . S
H77 C51 0.930 . S
H78 C56 0.932 . S
H79 C58 0.930 . S
H80 C60 0.929 . S
C81 C82 1.359 . S
C81 N86 1.330 . S
C81 C142 1.504 . S
C82 C81 1.359 . S
C82 C83 1.366 . S
C82 H144 0.929 . S
C83 C82 1.366 . S
C83 C84 1.415 . S
C83 H145 0.932 . S
C84 C83 1.415 . S
C84 C85 1.366 . S
C84 H146 0.931 . S
C85 C84 1.366 . S
C85 N86 1.325 . S
C85 C87 1.516 . S
N86 C81 1.330 . S
N86 C85 1.325 . S
N86 Co102 1.869 . S
C87 C85 1.516 . S
C87 N111 1.316 . S
C87 O134 1.263 . S
C88 C89 1.421 . S
C88 C93 1.360 . S
C88 N111 1.436 . S
C89 C88 1.421 . S
C89 C90 1.379 . S
C89 H147 0.929 . S
C90 C89 1.379 . S
C90 C91 1.417 . S
C91 C90 1.417 . S
C91 C92 1.352 . S
C91 H148 0.929 . S
C92 C91 1.352 . S
C92 C93 1.393 . S
C93 C88 1.360 . S
C93 C92 1.393 . S
C93 H149 0.931 . S
Cd94 O114 2.329 . S
Cd94 O116 2.350 . S
Cd94 O117 2.277 . S
Cd94 O119 2.173 . S
Cd94 O123 2.263 . S
Cd94 O134 2.366 . S
Cd95 O113 2.352 . S
Cd95 O120 2.250 . S
Cd95 O124 2.308 . S
C96 C100 1.403 . S
C96 C101 1.370 . S
C96 N112 1.423 . S
C97 C98 1.389 . S
C97 C101 1.389 . S
C98 C97 1.389 . S
C98 C99 1.379 . S
C98 H150 0.929 . S
C99 C98 1.379 . S
C99 C100 1.405 . S
C100 C96 1.403 . S
C100 C99 1.405 . S
C100 H151 0.932 . S
C101 C96 1.370 . S
C101 C97 1.389 . S
C101 H152 0.931 . S
Co102 N86 1.869 . S
Co102 N103 1.955 . S
Co102 N104 1.864 . S
Co102 N110 1.958 . S
Co102 N111 1.953 . S
Co102 N112 1.974 . S
N103 Co102 1.955 . S
N103 C121 1.329 . S
N103 C136 1.432 . S
N104 Co102 1.864 . S
N104 C105 1.327 . S
N104 C109 1.342 . S
C105 N104 1.327 . S
C105 C106 1.407 . S
C105 C121 1.481 . S
C106 C105 1.407 . S
C106 C107 1.364 . S
C106 H153 0.930 . S
C107 C106 1.364 . S
C107 C108 1.390 . S
C107 H154 0.931 . S
C108 C107 1.390 . S
C108 C109 1.346 . S
C108 H155 0.930 . S
C109 N104 1.342 . S
C109 C108 1.346 . S
C109 C125 1.516 . S
N110 Co102 1.958 . S
N110 C125 1.324 . S
N110 C127 1.427 . S
N111 C87 1.316 . S
N111 C88 1.436 . S
N111 Co102 1.953 . S
N112 C96 1.423 . S
N112 Co102 1.974 . S
N112 C142 1.309 . S
O113 Cd95 2.352 . S
O113 C133 1.235 . S
O114 Cd94 2.329 . S
O114 C133 1.270 . S
C115 O116 1.270 . S
C115 O117 1.248 . S
O116 Cd94 2.350 . S
O116 C115 1.270 . S
O117 Cd94 2.277 . S
O117 C115 1.248 . S
C118 O119 1.277 . S
C118 O120 1.230 . S
O119 Cd94 2.173 . S
O119 C118 1.277 . S
O120 Cd95 2.250 . S
O120 C118 1.230 . S
C121 N103 1.329 . S
C121 C105 1.481 . S
C121 O122 1.246 . S
O122 C121 1.246 . S
O123 Cd94 2.263 . S
O123 C135 1.258 . S
O124 Cd95 2.308 . S
O124 C135 1.274 . S
C125 C109 1.516 . S
C125 N110 1.324 . S
C125 O126 1.238 . S
O126 C125 1.238 . S
C127 N110 1.427 . S
C127 C128 1.394 . S
C127 C132 1.395 . S
C128 C127 1.394 . S
C128 C129 1.380 . S
C128 H156 0.929 . S
C129 C128 1.380 . S
C129 C130 1.384 . S
C129 C135 1.495 . S
C130 C129 1.384 . S
C130 C131 1.382 . S
C130 H157 0.930 . S
C131 C130 1.382 . S
C131 C132 1.398 . S
C132 C127 1.395 . S
C132 C131 1.398 . S
C132 H158 0.930 . S
C133 O113 1.235 . S
C133 O114 1.270 . S
O134 C87 1.263 . S
O134 Cd94 2.366 . S
C135 O123 1.258 . S
C135 O124 1.274 . S
C135 C129 1.495 . S
C136 N103 1.432 . S
C136 C137 1.381 . S
C136 C141 1.385 . S
C137 C136 1.381 . S
C137 C138 1.371 . S
C137 H159 0.932 . S
C138 C137 1.371 . S
C138 C139 1.400 . S
C139 C138 1.400 . S
C139 C140 1.351 . S
C139 H160 0.930 . S
C140 C139 1.351 . S
C140 C141 1.388 . S
C141 C136 1.385 . S
C141 C140 1.388 . S
C141 H161 0.929 . S
C142 C81 1.504 . S
C142 N112 1.309 . S
C142 O143 1.258 . S
O143 C142 1.258 . S
H144 C82 0.929 . S
H145 C83 0.932 . S
H146 C84 0.931 . S
H147 C89 0.929 . S
H148 C91 0.929 . S
H149 C93 0.931 . S
H150 C98 0.929 . S
H151 C100 0.932 . S
H152 C101 0.931 . S
H153 C106 0.930 . S
H154 C107 0.931 . S
H155 C108 0.930 . S
H156 C128 0.929 . S
H157 C130 0.930 . S
H158 C132 0.930 . S
H159 C137 0.932 . S
H160 C139 0.930 . S
H161 C141 0.929 . S
C162 C163 1.359 . S
C162 N167 1.330 . S
C162 C223 1.504 1_565 S
C163 C162 1.359 . S
C163 C164 1.366 . S
C163 H225 0.929 . S
C164 C163 1.366 . S
C164 C165 1.415 . S
C164 H226 0.932 . S
C165 C164 1.415 . S
C165 C166 1.366 . S
C165 H227 0.931 . S
C166 C165 1.366 . S
C166 N167 1.325 . S
C166 C168 1.516 . S
N167 C162 1.330 . S
N167 C166 1.325 . S
N167 Co183 1.869 . S
C168 C166 1.516 . S
C168 N192 1.316 . S
C168 O215 1.263 . S
C169 C170 1.421 . S
C169 C174 1.360 . S
C169 N192 1.436 . S
C170 C169 1.421 . S
C170 C171 1.379 . S
C170 H228 0.929 . S
C171 C170 1.379 . S
C171 C172 1.417 . S
C172 C171 1.417 . S
C172 C173 1.352 . S
C172 H229 0.929 . S
C173 C172 1.352 . S
C173 C174 1.393 . S
C174 C169 1.360 . S
C174 C173 1.393 . S
C174 H230 0.931 . S
Cd175 O195 2.329 . S
Cd175 O197 2.350 . S
Cd175 O198 2.277 . S
Cd175 O200 2.173 . S
Cd175 O204 2.263 . S
Cd175 O215 2.366 . S
Cd176 O194 2.352 . S
Cd176 O201 2.250 . S
Cd176 O205 2.308 . S
C177 C181 1.403 . S
C177 C182 1.370 . S
C177 N193 1.423 . S
C178 C179 1.389 . S
C178 C182 1.389 . S
C179 C178 1.389 . S
C179 C180 1.379 . S
C179 H231 0.929 . S
C180 C179 1.379 . S
C180 C181 1.405 . S
C181 C177 1.403 . S
C181 C180 1.405 . S
C181 H232 0.932 . S
C182 C177 1.370 . S
C182 C178 1.389 . S
C182 H233 0.931 . S
Co183 N167 1.869 . S
Co183 N184 1.955 . S
Co183 N185 1.864 . S
Co183 N191 1.958 . S
Co183 N192 1.953 . S
Co183 N193 1.974 1_565 S
N184 Co183 1.955 . S
N184 C202 1.329 . S
N184 C217 1.432 . S
N185 Co183 1.864 . S
N185 C186 1.327 . S
N185 C190 1.342 1_565 S
C186 N185 1.327 . S
C186 C187 1.407 . S
C186 C202 1.481 . S
C187 C186 1.407 . S
C187 C188 1.364 1_565 S
C187 H234 0.930 . S
C188 C187 1.364 1_545 S
C188 C189 1.390 . S
C188 H235 0.931 . S
C189 C188 1.390 . S
C189 C190 1.346 . S
C189 H236 0.930 . S
C190 N185 1.342 1_545 S
C190 C189 1.346 . S
C190 C206 1.516 . S
N191 Co183 1.958 . S
N191 C206 1.324 1_565 S
N191 C208 1.427 . S
N192 C168 1.316 . S
N192 C169 1.436 . S
N192 Co183 1.953 . S
N193 C177 1.423 . S
N193 Co183 1.974 1_545 S
N193 C223 1.309 . S
O194 Cd176 2.352 . S
O194 C214 1.235 . S
O195 Cd175 2.329 . S
O195 C214 1.270 . S
C196 O197 1.270 . S
C196 O198 1.248 . S
O197 Cd175 2.350 . S
O197 C196 1.270 . S
O198 Cd175 2.277 . S
O198 C196 1.248 . S
C199 O200 1.277 . S
C199 O201 1.230 . S
O200 Cd175 2.173 . S
O200 C199 1.277 . S
O201 Cd176 2.250 . S
O201 C199 1.230 . S
C202 N184 1.329 . S
C202 C186 1.481 . S
C202 O203 1.246 . S
O203 C202 1.246 . S
O204 Cd175 2.263 . S
O204 C216 1.258 . S
O205 Cd176 2.308 . S
O205 C216 1.274 . S
C206 C190 1.516 . S
C206 N191 1.324 1_545 S
C206 O207 1.238 . S
O207 C206 1.238 . S
C208 N191 1.427 . S
C208 C209 1.394 . S
C208 C213 1.395 1_565 S
C209 C208 1.394 . S
C209 C210 1.380 . S
C209 H237 0.929 . S
C210 C209 1.380 . S
C210 C211 1.384 . S
C210 C216 1.495 . S
C211 C210 1.384 . S
C211 C212 1.382 1_565 S
C211 H238 0.930 . S
C212 C211 1.382 1_545 S
C212 C213 1.398 . S
C213 C208 1.395 1_545 S
C213 C212 1.398 . S
C213 H239 0.930 . S
C214 O194 1.235 . S
C214 O195 1.270 . S
O215 C168 1.263 . S
O215 Cd175 2.366 . S
C216 O204 1.258 . S
C216 O205 1.274 . S
C216 C210 1.495 . S
C217 N184 1.432 . S
C217 C218 1.381 . S
C217 C222 1.385 . S
C218 C217 1.381 . S
C218 C219 1.371 . S
C218 H240 0.932 . S
C219 C218 1.371 . S
C219 C220 1.400 . S
C220 C219 1.400 . S
C220 C221 1.351 . S
C220 H241 0.930 . S
C221 C220 1.351 . S
C221 C222 1.388 . S
C222 C217 1.385 . S
C222 C221 1.388 . S
C222 H242 0.929 . S
C223 C162 1.504 1_545 S
C223 N193 1.309 . S
C223 O224 1.258 . S
O224 C223 1.258 . S
H225 C163 0.929 . S
H226 C164 0.932 . S
H227 C165 0.931 . S
H228 C170 0.929 . S
H229 C172 0.929 . S
H230 C174 0.931 . S
H231 C179 0.929 . S
H232 C181 0.932 . S
H233 C182 0.931 . S
H234 C187 0.930 . S
H235 C188 0.931 . S
H236 C189 0.930 . S
H237 C209 0.929 . S
H238 C211 0.930 . S
H239 C213 0.930 . S
H240 C218 0.932 . S
H241 C220 0.930 . S
H242 C222 0.929 . S
C243 C244 1.359 . S
C243 N248 1.330 1_554 S
C243 C304 1.504 1_545 S
C244 C243 1.359 . S
C244 C245 1.366 1_554 S
C244 H306 0.929 . S
C245 C244 1.366 1_556 S
C245 C246 1.415 . S
C245 H307 0.932 . S
C246 C245 1.415 . S
C246 C247 1.366 . S
C246 H308 0.931 . S
C247 C246 1.366 . S
C247 N248 1.325 . S
C247 C249 1.516 . S
N248 C243 1.330 1_556 S
N248 C247 1.325 . S
N248 Co264 1.869 . S
C249 C247 1.516 . S
C249 N273 1.316 . S
C249 O296 1.263 . S
C250 C251 1.421 . S
C250 C255 1.360 . S
C250 N273 1.436 . S
C251 C250 1.421 . S
C251 C252 1.379 . S
C251 H309 0.929 . S
C252 C251 1.379 . S
C252 C253 1.417 . S
C253 C252 1.417 . S
C253 C254 1.352 . S
C253 H310 0.929 . S
C254 C253 1.352 . S
C254 C255 1.393 . S
C255 C250 1.360 . S
C255 C254 1.393 . S
C255 H311 0.931 . S
Cd256 O276 2.329 . S
Cd256 O278 2.350 . S
Cd256 O279 2.277 . S
Cd256 O281 2.173 . S
Cd256 O285 2.263 . S
Cd256 O296 2.366 . S
Cd257 O275 2.352 . S
Cd257 O282 2.250 . S
Cd257 O286 2.308 . S
C258 C262 1.403 . S
C258 C263 1.370 . S
C258 N274 1.423 . S
C259 C260 1.389 . S
C259 C263 1.389 . S
C260 C259 1.389 . S
C260 C261 1.379 . S
C260 H312 0.929 . S
C261 C260 1.379 . S
C261 C262 1.405 . S
C262 C258 1.403 . S
C262 C261 1.405 . S
C262 H313 0.932 . S
C263 C258 1.370 . S
C263 C259 1.389 . S
C263 H314 0.931 1_554 S
Co264 N248 1.869 . S
Co264 N265 1.955 1_556 S
Co264 N266 1.864 . S
Co264 N272 1.958 . S
Co264 N273 1.953 . S
Co264 N274 1.974 1_546 S
N265 Co264 1.955 1_554 S
N265 C283 1.329 . S
N265 C298 1.432 . S
N266 Co264 1.864 . S
N266 C267 1.327 1_556 S
N266 C271 1.342 1_545 S
C267 N266 1.327 1_554 S
C267 C268 1.407 . S
C267 C283 1.481 . S
C268 C267 1.407 . S
C268 C269 1.364 1_544 S
C268 H315 0.930 . S
C269 C268 1.364 1_566 S
C269 C270 1.390 . S
C269 H316 0.931 . S
C270 C269 1.390 . S
C270 C271 1.346 . S
C270 H317 0.930 . S
C271 N266 1.342 1_565 S
C271 C270 1.346 . S
C271 C287 1.516 . S
N272 Co264 1.958 . S
N272 C287 1.324 1_545 S
N272 C289 1.427 . S
N273 C249 1.316 . S
N273 C250 1.436 . S
N273 Co264 1.953 . S
N274 C258 1.423 . S
N274 Co264 1.974 1_564 S
N274 C304 1.309 . S
O275 Cd257 2.352 . S
O275 C295 1.235 . S
O276 Cd256 2.329 . S
O276 C295 1.270 . S
C277 O278 1.270 . S
C277 O279 1.248 . S
O278 Cd256 2.350 . S
O278 C277 1.270 . S
O279 Cd256 2.277 . S
O279 C277 1.248 . S
C280 O281 1.277 . S
C280 O282 1.230 . S
O281 Cd256 2.173 . S
O281 C280 1.277 . S
O282 Cd257 2.250 . S
O282 C280 1.230 . S
C283 N265 1.329 . S
C283 C267 1.481 . S
C283 O284 1.246 . S
O284 C283 1.246 . S
O285 Cd256 2.263 . S
O285 C297 1.258 . S
O286 Cd257 2.308 . S
O286 C297 1.274 . S
C287 C271 1.516 . S
C287 N272 1.324 1_565 S
C287 O288 1.238 . S
O288 C287 1.238 . S
C289 N272 1.427 . S
C289 C290 1.394 . S
C289 C294 1.395 1_545 S
C290 C289 1.394 . S
C290 C291 1.380 . S
C290 H318 0.929 . S
C291 C290 1.380 . S
C291 C292 1.384 . S
C291 C297 1.495 . S
C292 C291 1.384 . S
C292 C293 1.382 1_545 S
C292 H319 0.930 . S
C293 C292 1.382 1_565 S
C293 C294 1.398 . S
C294 C289 1.395 1_565 S
C294 C293 1.398 . S
C294 H320 0.930 . S
C295 O275 1.235 . S
C295 O276 1.270 . S
O296 C249 1.263 . S
O296 Cd256 2.366 . S
C297 O285 1.258 . S
C297 O286 1.274 . S
C297 C291 1.495 . S
C298 N265 1.432 . S
C298 C299 1.381 . S
C298 C303 1.385 . S
C299 C298 1.381 . S
C299 C300 1.371 . S
C299 H321 0.932 . S
C300 C299 1.371 . S
C300 C301 1.400 . S
C301 C300 1.400 . S
C301 C302 1.351 . S
C301 H322 0.930 . S
C302 C301 1.351 . S
C302 C303 1.388 . S
C303 C298 1.385 . S
C303 C302 1.388 . S
C303 H323 0.929 . S
C304 C243 1.504 1_565 S
C304 N274 1.309 . S
C304 O305 1.258 . S
O305 C304 1.258 . S
H306 C244 0.929 . S
H307 C245 0.932 . S
H308 C246 0.931 . S
H309 C251 0.929 . S
H310 C253 0.929 . S
H311 C255 0.931 . S
H312 C260 0.929 . S
H313 C262 0.932 . S
H314 C263 0.931 1_556 S
H315 C268 0.930 . S
H316 C269 0.931 . S
H317 C270 0.930 . S
H318 C290 0.929 . S
H319 C292 0.930 . S
H320 C294 0.930 . S
H321 C299 0.932 . S
H322 C301 0.930 . S
H323 C303 0.929 . S
C324 C325 1.359 . S
C324 N329 1.330 . S
C324 C385 1.504 1_655 S
C325 C324 1.359 . S
C325 C326 1.366 . S
C325 H387 0.929 . S
C326 C325 1.366 . S
C326 C327 1.415 . S
C326 H388 0.932 . S
C327 C326 1.415 . S
C327 C328 1.366 . S
C327 H389 0.931 . S
C328 C327 1.366 . S
C328 N329 1.325 . S
C328 C330 1.516 . S
N329 C324 1.330 . S
N329 C328 1.325 . S
N329 Co345 1.869 . S
C330 C328 1.516 . S
C330 N354 1.316 . S
C330 O377 1.263 . S
C331 C332 1.421 . S
C331 C336 1.360 . S
C331 N354 1.436 . S
C332 C331 1.421 . S
C332 C333 1.379 . S
C332 H390 0.929 . S
C333 C332 1.379 . S
C333 C334 1.417 . S
C334 C333 1.417 . S
C334 C335 1.352 . S
C334 H391 0.929 . S
C335 C334 1.352 . S
C335 C336 1.393 . S
C336 C331 1.360 . S
C336 C335 1.393 . S
C336 H392 0.931 . S
Cd337 O357 2.329 . S
Cd337 O359 2.350 . S
Cd337 O360 2.277 . S
Cd337 O362 2.173 . S
Cd337 O366 2.263 . S
Cd337 O377 2.366 . S
Cd338 O356 2.352 . S
Cd338 O363 2.250 . S
Cd338 O367 2.308 . S
C339 C343 1.403 . S
C339 C344 1.370 . S
C339 N355 1.423 . S
C340 C341 1.389 . S
C340 C344 1.389 . S
C341 C340 1.389 . S
C341 C342 1.379 . S
C341 H393 0.929 . S
C342 C341 1.379 . S
C342 C343 1.405 . S
C343 C339 1.403 . S
C343 C342 1.405 . S
C343 H394 0.932 . S
C344 C339 1.370 . S
C344 C340 1.389 . S
C344 H395 0.931 . S
Co345 N329 1.869 . S
Co345 N346 1.955 . S
Co345 N347 1.864 . S
Co345 N353 1.958 . S
Co345 N354 1.953 . S
Co345 N355 1.974 1_655 S
N346 Co345 1.955 . S
N346 C364 1.329 . S
N346 C379 1.432 . S
N347 Co345 1.864 . S
N347 C348 1.327 . S
N347 C352 1.342 1_655 S
C348 N347 1.327 . S
C348 C349 1.407 . S
C348 C364 1.481 . S
C349 C348 1.407 . S
C349 C350 1.364 1_655 S
C349 H396 0.930 . S
C350 C349 1.364 1_455 S
C350 C351 1.390 . S
C350 H397 0.931 . S
C351 C350 1.390 . S
C351 C352 1.346 . S
C351 H398 0.930 . S
C352 N347 1.342 1_455 S
C352 C351 1.346 . S
C352 C368 1.516 . S
N353 Co345 1.958 . S
N353 C368 1.324 1_655 S
N353 C370 1.427 . S
N354 C330 1.316 . S
N354 C331 1.436 . S
N354 Co345 1.953 . S
N355 C339 1.423 . S
N355 Co345 1.974 1_455 S
N355 C385 1.309 . S
O356 Cd338 2.352 . S
O356 C376 1.235 . S
O357 Cd337 2.329 . S
O357 C376 1.270 . S
C358 O359 1.270 . S
C358 O360 1.248 . S
O359 Cd337 2.350 . S
O359 C358 1.270 . S
O360 Cd337 2.277 . S
O360 C358 1.248 . S
C361 O362 1.277 . S
C361 O363 1.230 . S
O362 Cd337 2.173 . S
O362 C361 1.277 . S
O363 Cd338 2.250 . S
O363 C361 1.230 . S
C364 N346 1.329 . S
C364 C348 1.481 . S
C364 O365 1.246 . S
O365 C364 1.246 . S
O366 Cd337 2.263 . S
O366 C378 1.258 . S
O367 Cd338 2.308 . S
O367 C378 1.274 . S
C368 C352 1.516 . S
C368 N353 1.324 1_455 S
C368 O369 1.238 . S
O369 C368 1.238 . S
C370 N353 1.427 . S
C370 C371 1.394 . S
C370 C375 1.395 1_655 S
C371 C370 1.394 . S
C371 C372 1.380 . S
C371 H399 0.929 . S
C372 C371 1.380 . S
C372 C373 1.384 . S
C372 C378 1.495 . S
C373 C372 1.384 . S
C373 C374 1.382 1_655 S
C373 H400 0.930 . S
C374 C373 1.382 1_455 S
C374 C375 1.398 . S
C375 C370 1.395 1_455 S
C375 C374 1.398 . S
C375 H401 0.930 . S
C376 O356 1.235 . S
C376 O357 1.270 . S
O377 C330 1.263 . S
O377 Cd337 2.366 . S
C378 O366 1.258 . S
C378 O367 1.274 . S
C378 C372 1.495 . S
C379 N346 1.432 . S
C379 C380 1.381 . S
C379 C384 1.385 . S
C380 C379 1.381 . S
C380 C381 1.371 . S
C380 H402 0.932 . S
C381 C380 1.371 . S
C381 C382 1.400 . S
C382 C381 1.400 . S
C382 C383 1.351 . S
C382 H403 0.930 . S
C383 C382 1.351 . S
C383 C384 1.388 . S
C384 C379 1.385 . S
C384 C383 1.388 . S
C384 H404 0.929 . S
C385 C324 1.504 1_455 S
C385 N355 1.309 . S
C385 O386 1.258 . S
O386 C385 1.258 . S
H387 C325 0.929 . S
H388 C326 0.932 . S
H389 C327 0.931 . S
H390 C332 0.929 . S
H391 C334 0.929 . S
H392 C336 0.931 . S
H393 C341 0.929 . S
H394 C343 0.932 . S
H395 C344 0.931 . S
H396 C349 0.930 . S
H397 C350 0.931 . S
H398 C351 0.930 . S
H399 C371 0.929 . S
H400 C373 0.930 . S
H401 C375 0.930 . S
H402 C380 0.932 . S
H403 C382 0.930 . S
H404 C384 0.929 . S
C405 C406 1.359 . S
C405 N410 1.330 . S
C405 C466 1.504 . S
C406 C405 1.359 . S
C406 C407 1.366 . S
C406 H468 0.929 . S
C407 C406 1.366 . S
C407 C408 1.415 . S
C407 H469 0.932 . S
C408 C407 1.415 . S
C408 C409 1.366 . S
C408 H470 0.931 . S
C409 C408 1.366 . S
C409 N410 1.325 . S
C409 C411 1.516 . S
N410 C405 1.330 . S
N410 C409 1.325 . S
N410 Co426 1.869 . S
C411 C409 1.516 . S
C411 N435 1.316 . S
C411 O458 1.263 . S
C412 C413 1.421 . S
C412 C417 1.360 . S
C412 N435 1.436 . S
C413 C412 1.421 . S
C413 C414 1.379 . S
C413 H471 0.929 . S
C414 C413 1.379 . S
C414 C415 1.417 . S
C415 C414 1.417 . S
C415 C416 1.352 . S
C415 H472 0.929 . S
C416 C415 1.352 . S
C416 C417 1.393 . S
C417 C412 1.360 . S
C417 C416 1.393 . S
C417 H473 0.931 . S
Cd418 O438 2.329 . S
Cd418 O440 2.350 . S
Cd418 O441 2.277 . S
Cd418 O443 2.173 . S
Cd418 O447 2.263 . S
Cd418 O458 2.366 . S
Cd419 O437 2.352 . S
Cd419 O444 2.250 . S
Cd419 O448 2.308 . S
C420 C424 1.403 . S
C420 C425 1.370 . S
C420 N436 1.423 . S
C421 C422 1.389 . S
C421 C425 1.389 . S
C422 C421 1.389 . S
C422 C423 1.379 . S
C422 H474 0.929 . S
C423 C422 1.379 . S
C423 C424 1.405 . S
C424 C420 1.403 . S
C424 C423 1.405 . S
C424 H475 0.932 . S
C425 C420 1.370 . S
C425 C421 1.389 . S
C425 H476 0.931 . S
Co426 N410 1.869 . S
Co426 N427 1.955 . S
Co426 N428 1.864 . S
Co426 N434 1.958 . S
Co426 N435 1.953 . S
Co426 N436 1.974 . S
N427 Co426 1.955 . S
N427 C445 1.329 . S
N427 C460 1.432 . S
N428 Co426 1.864 . S
N428 C429 1.327 . S
N428 C433 1.342 . S
C429 N428 1.327 . S
C429 C430 1.407 . S
C429 C445 1.481 . S
C430 C429 1.407 . S
C430 C431 1.364 . S
C430 H477 0.930 . S
C431 C430 1.364 . S
C431 C432 1.390 . S
C431 H478 0.931 . S
C432 C431 1.390 . S
C432 C433 1.346 . S
C432 H479 0.930 . S
C433 N428 1.342 . S
C433 C432 1.346 . S
C433 C449 1.516 . S
N434 Co426 1.958 . S
N434 C449 1.324 . S
N434 C451 1.427 . S
N435 C411 1.316 . S
N435 C412 1.436 . S
N435 Co426 1.953 . S
N436 C420 1.423 . S
N436 Co426 1.974 . S
N436 C466 1.309 . S
O437 Cd419 2.352 . S
O437 C457 1.235 . S
O438 Cd418 2.329 . S
O438 C457 1.270 . S
C439 O440 1.270 . S
C439 O441 1.248 . S
O440 Cd418 2.350 . S
O440 C439 1.270 . S
O441 Cd418 2.277 . S
O441 C439 1.248 . S
C442 O443 1.277 . S
C442 O444 1.230 . S
O443 Cd418 2.173 . S
O443 C442 1.277 . S
O444 Cd419 2.250 . S
O444 C442 1.230 . S
C445 N427 1.329 . S
C445 C429 1.481 . S
C445 O446 1.246 . S
O446 C445 1.246 . S
O447 Cd418 2.263 . S
O447 C459 1.258 . S
O448 Cd419 2.308 . S
O448 C459 1.274 . S
C449 C433 1.516 . S
C449 N434 1.324 . S
C449 O450 1.238 . S
O450 C449 1.238 . S
C451 N434 1.427 . S
C451 C452 1.394 . S
C451 C456 1.395 . S
C452 C451 1.394 . S
C452 C453 1.380 . S
C452 H480 0.929 . S
C453 C452 1.380 . S
C453 C454 1.384 . S
C453 C459 1.495 . S
C454 C453 1.384 . S
C454 C455 1.382 . S
C454 H481 0.930 . S
C455 C454 1.382 . S
C455 C456 1.398 . S
C456 C451 1.395 . S
C456 C455 1.398 . S
C456 H482 0.930 . S
C457 O437 1.235 . S
C457 O438 1.270 . S
O458 C411 1.263 . S
O458 Cd418 2.366 . S
C459 O447 1.258 . S
C459 O448 1.274 . S
C459 C453 1.495 . S
C460 N427 1.432 . S
C460 C461 1.381 . S
C460 C465 1.385 . S
C461 C460 1.381 . S
C461 C462 1.371 . S
C461 H483 0.932 . S
C462 C461 1.371 . S
C462 C463 1.400 . S
C463 C462 1.400 . S
C463 C464 1.351 . S
C463 H484 0.930 . S
C464 C463 1.351 . S
C464 C465 1.388 . S
C465 C460 1.385 . S
C465 C464 1.388 . S
C465 H485 0.929 . S
C466 C405 1.504 . S
C466 N436 1.309 . S
C466 O467 1.258 . S
O467 C466 1.258 . S
H468 C406 0.929 . S
H469 C407 0.932 . S
H470 C408 0.931 . S
H471 C413 0.929 . S
H472 C415 0.929 . S
H473 C417 0.931 . S
H474 C422 0.929 . S
H475 C424 0.932 . S
H476 C425 0.931 . S
H477 C430 0.930 . S
H478 C431 0.931 . S
H479 C432 0.930 . S
H480 C452 0.929 . S
H481 C454 0.930 . S
H482 C456 0.930 . S
H483 C461 0.932 . S
H484 C463 0.930 . S
H485 C465 0.929 . S
C37 C259 2.931 . S
C118 C340 2.931 . S
C199 C421 2.931 . S
C280 C16 2.931 . S
C361 C97 2.931 . S
C442 C178 2.931 . S
C455 C34 4.014 . S
C115 C293 4.013 . S
C374 C196 4.014 . S
C131 C277 4.014 . S
C358 C212 4.014 . S
C50 C439 4.013 . S
C342 C18 5.513 1_455 S
C423 C99 5.513 . S
C180 C261 5.513 1_545 S
C59 C133 1.284 . S
C214 C140 1.283 . S
C52 C221 1.283 . S
C457 C302 1.284 . S
C295 C383 1.283 . S
C464 C376 1.283 . S
