# Generated by pormake.
# Topology pcl, (4)-cn, num edge types: 1
# Building blocks:
#     Node 0, Type 0, BuildingBlock: NAHDIM_clean_sbu_0, # of connection points: 4
#     Node 1, Type 0, BuildingBlock: NAHDIM_clean_sbu_0, # of connection points: 4
#     Node 2, Type 0, BuildingBlock: NAHDIM_clean_sbu_0, # of connection points: 4
#     Node 3, Type 0, BuildingBlock: NAHDIM_clean_sbu_0, # of connection points: 4
#     Node 4, Type 0, BuildingBlock: NAHDIM_clean_sbu_0, # of connection points: 4
#     Node 5, Type 0, BuildingBlock: NAHDIM_clean_sbu_0, # of connection points: 4
#     Node 6, Type 0, BuildingBlock: NAHDIM_clean_sbu_0, # of connection points: 4
#     Node 7, Type 0, BuildingBlock: NAHDIM_clean_sbu_0, # of connection points: 4
#     Node 8, Type 0, BuildingBlock: NAHDIM_clean_sbu_0, # of connection points: 4
#     Node 9, Type 0, BuildingBlock: NAHDIM_clean_sbu_0, # of connection points: 4
#     Node 10, Type 0, BuildingBlock: NAHDIM_clean_sbu_0, # of connection points: 4
#     Node 11, Type 0, BuildingBlock: NAHDIM_clean_sbu_0, # of connection points: 4
#     Node 12, Type 0, BuildingBlock: NAHDIM_clean_sbu_0, # of connection points: 4
#     Node 13, Type 0, BuildingBlock: NAHDIM_clean_sbu_0, # of connection points: 4
#     Node 14, Type 0, BuildingBlock: NAHDIM_clean_sbu_0, # of connection points: 4
#     Node 15, Type 0, BuildingBlock: NAHDIM_clean_sbu_0, # of connection points: 4
#     Edge 16, Type (0, 0), BuildingBlock: EZIPEK_clean_linker_0, # of connection points: 2
#     Edge 17, Type (0, 0), BuildingBlock: EZIPEK_clean_linker_0, # of connection points: 2
#     Edge 18, Type (0, 0), BuildingBlock: EZIPEK_clean_linker_0, # of connection points: 2
#     Edge 19, Type (0, 0), BuildingBlock: EZIPEK_clean_linker_0, # of connection points: 2
#     Edge 20, Type (0, 0), BuildingBlock: EZIPEK_clean_linker_0, # of connection points: 2
#     Edge 21, Type (0, 0), BuildingBlock: EZIPEK_clean_linker_0, # of connection points: 2
#     Edge 22, Type (0, 0), BuildingBlock: EZIPEK_clean_linker_0, # of connection points: 2
#     Edge 23, Type (0, 0), BuildingBlock: EZIPEK_clean_linker_0, # of connection points: 2
#     Edge 24, Type (0, 0), BuildingBlock: EZIPEK_clean_linker_0, # of connection points: 2
#     Edge 25, Type (0, 0), BuildingBlock: EZIPEK_clean_linker_0, # of connection points: 2
#     Edge 26, Type (0, 0), BuildingBlock: EZIPEK_clean_linker_0, # of connection points: 2
#     Edge 27, Type (0, 0), BuildingBlock: EZIPEK_clean_linker_0, # of connection points: 2
#     Edge 28, Type (0, 0), BuildingBlock: EZIPEK_clean_linker_0, # of connection points: 2
#     Edge 29, Type (0, 0), BuildingBlock: EZIPEK_clean_linker_0, # of connection points: 2
#     Edge 30, Type (0, 0), BuildingBlock: EZIPEK_clean_linker_0, # of connection points: 2
#     Edge 31, Type (0, 0), BuildingBlock: EZIPEK_clean_linker_0, # of connection points: 2
#     Edge 32, Type (0, 0), BuildingBlock: EZIPEK_clean_linker_0, # of connection points: 2
#     Edge 33, Type (0, 0), BuildingBlock: EZIPEK_clean_linker_0, # of connection points: 2
#     Edge 34, Type (0, 0), BuildingBlock: EZIPEK_clean_linker_0, # of connection points: 2
#     Edge 35, Type (0, 0), BuildingBlock: EZIPEK_clean_linker_0, # of connection points: 2
#     Edge 36, Type (0, 0), BuildingBlock: EZIPEK_clean_linker_0, # of connection points: 2
#     Edge 37, Type (0, 0), BuildingBlock: EZIPEK_clean_linker_0, # of connection points: 2
#     Edge 38, Type (0, 0), BuildingBlock: EZIPEK_clean_linker_0, # of connection points: 2
#     Edge 39, Type (0, 0), BuildingBlock: EZIPEK_clean_linker_0, # of connection points: 2
#     Edge 40, Type (0, 0), BuildingBlock: EZIPEK_clean_linker_0, # of connection points: 2
#     Edge 41, Type (0, 0), BuildingBlock: EZIPEK_clean_linker_0, # of connection points: 2
#     Edge 42, Type (0, 0), BuildingBlock: EZIPEK_clean_linker_0, # of connection points: 2
#     Edge 43, Type (0, 0), BuildingBlock: EZIPEK_clean_linker_0, # of connection points: 2
#     Edge 44, Type (0, 0), BuildingBlock: EZIPEK_clean_linker_0, # of connection points: 2
#     Edge 45, Type (0, 0), BuildingBlock: EZIPEK_clean_linker_0, # of connection points: 2
#     Edge 46, Type (0, 0), BuildingBlock: EZIPEK_clean_linker_0, # of connection points: 2
#     Edge 47, Type (0, 0), BuildingBlock: EZIPEK_clean_linker_0, # of connection points: 2
# Relax obj value: 0.088
# Max RMSD: 0.097
# Mean RMSD: 0.088
data_MOF--net-pcl--node1-NAHDIM_clean_sbu_0--edge1-EZIPEK_clean_linker_0
_symmetry_space_group_name_H-M    P1
_symmetry_Int_Tables_number       1
_symmetry_cell_setting            triclinic
loop_
_symmetry_equiv_pos_as_xyz
'x, y, z'
_cell_length_a     35.839882
_cell_length_b     35.504697
_cell_length_c     31.354035
_cell_angle_alpha  89.95581
_cell_angle_beta   90.084291
_cell_angle_gamma 89.965465
loop_
_atom_site_label
_atom_site_type_symbol
_atom_site_fract_x
_atom_site_fract_y
_atom_site_fract_z
_atom_type_partial_charge
C0 C 0.19386 0.29056 0.03576 0.0
O1 O 0.21248 0.30604 0.06729 0.0
O2 O 0.15536 0.34496 0.11949 0.0
Zn3 Zn 0.13843 0.34523 0.05843 0.0
O4 O 0.15149 0.3943 0.03043 0.0
C5 C 0.06132 0.36734 0.05222 0.0
O6 O 0.07588 0.40061 0.04476 0.0
O7 O 0.16161 0.3026 0.02608 0.0
C8 C 0.18397 0.40778 0.02523 0.0
O9 O 0.21332 0.38954 0.03952 0.0
C10 C 0.14392 0.37112 0.14377 0.0
O11 O 0.12319 0.39828 0.12801 0.0
O12 O 0.08249 0.33909 0.05823 0.0
C13 C 0.80653 0.70369 0.54885 0.0
O14 O 0.83579 0.71429 0.57105 0.0
O15 O 0.82104 0.63621 0.6435 0.0
Zn16 Zn 0.82908 0.63253 0.57999 0.0
O17 O 0.81964 0.58012 0.55905 0.0
C18 C 0.90856 0.6276 0.58676 0.0
O19 O 0.90004 0.60445 0.61786 0.0
O20 O 0.797 0.66927 0.54847 0.0
C21 C 0.82603 0.57386 0.51989 0.0
O22 O 0.83476 0.60202 0.49463 0.0
C23 C 0.82417 0.60709 0.66686 0.0
O24 O 0.82992 0.57412 0.64907 0.0
O25 O 0.8828 0.64412 0.56614 0.0
C26 C 0.21558 0.66908 0.95146 0.0
O27 O 0.23463 0.63812 0.94432 0.0
O28 O 0.16724 0.6246 0.85247 0.0
Zn29 Zn 0.15558 0.6262 0.9156 0.0
O30 O 0.17323 0.57976 0.94732 0.0
C31 C 0.07723 0.60649 0.92731 0.0
O32 O 0.08951 0.57171 0.92574 0.0
O33 O 0.1813 0.67075 0.9414 0.0
C34 C 0.17205 0.54654 0.93235 0.0
O35 O 0.16105 0.54116 0.8929 0.0
C36 C 0.14618 0.6071 0.82657 0.0
O37 O 0.11701 0.58872 0.84079 0.0
O38 O 0.1 0.63377 0.92409 0.0
C39 C 0.79552 0.30342 0.4609 0.0
O40 O 0.77552 0.33134 0.44559 0.0
O41 O 0.84937 0.34923 0.36879 0.0
Zn42 Zn 0.85521 0.34966 0.43262 0.0
O43 O 0.83355 0.39692 0.45742 0.0
C44 C 0.93258 0.32966 0.4252 0.0
O45 O 0.92022 0.30782 0.3945 0.0
O46 O 0.83083 0.30463 0.45868 0.0
C47 C 0.84653 0.42797 0.44399 0.0
O48 O 0.87215 0.42799 0.41412 0.0
C49 C 0.82199 0.36445 0.34964 0.0
O50 O 0.79523 0.3805 0.37164 0.0
O51 O 0.90983 0.34951 0.44653 0.0
C52 C 0.7839 0.68842 0.95217 0.0
O53 O 0.76821 0.67205 0.91918 0.0
O54 O 0.82744 0.58476 0.96425 0.0
Zn55 Zn 0.84037 0.63371 0.93594 0.0
O56 O 0.82461 0.63293 0.87458 0.0
C57 C 0.91748 0.61204 0.94271 0.0
O58 O 0.90283 0.57875 0.94982 0.0
O59 O 0.81525 0.67677 0.96578 0.0
C60 C 0.83725 0.60756 0.85007 0.0
O61 O 0.85914 0.58118 0.86546 0.0
C62 C 0.79503 0.57131 0.96999 0.0
O63 O 0.7655 0.58978 0.95658 0.0
O64 O 0.89636 0.64039 0.93698 0.0
C65 C 0.22816 0.32548 0.45935 0.0
O66 O 0.24179 0.35914 0.45191 0.0
O67 O 0.16857 0.4052 0.43786 0.0
Zn68 Zn 0.16498 0.35356 0.4122 0.0
O69 O 0.17823 0.35457 0.35006 0.0
C70 C 0.09142 0.34598 0.44773 0.0
O71 O 0.10642 0.36306 0.48068 0.0
O72 O 0.19621 0.31664 0.44497 0.0
C73 C 0.15566 0.37291 0.32666 0.0
O74 O 0.12767 0.39095 0.34425 0.0
C75 C 0.19165 0.43073 0.42757 0.0
O76 O 0.21633 0.42464 0.39743 0.0
O77 O 0.11127 0.33824 0.41542 0.0
C78 C 0.76323 0.30958 0.03889 0.0
O79 O 0.74605 0.34224 0.0402 0.0
O80 O 0.80589 0.39789 0.04451 0.0
Zn81 Zn 0.82309 0.35156 0.07695 0.0
O82 O 0.81178 0.35459 0.14015 0.0
C83 C 0.9014 0.37066 0.06526 0.0
O84 O 0.88908 0.40542 0.06696 0.0
O85 O 0.79632 0.30662 0.05304 0.0
C86 C 0.83402 0.37019 0.16637 0.0
O87 O 0.86431 0.38679 0.15238 0.0
C88 C 0.80729 0.43095 0.05987 0.0
O89 O 0.81838 0.43581 0.09936 0.0
O90 O 0.87861 0.34336 0.06822 0.0
C91 C 0.20467 0.68041 0.52349 0.0
O92 O 0.22185 0.64799 0.5283 0.0
O93 O 0.15576 0.5948 0.51713 0.0
Zn94 Zn 0.14444 0.63826 0.55688 0.0
O95 O 0.16158 0.63041 0.61796 0.0
C96 C 0.0659 0.62223 0.55641 0.0
O97 O 0.07776 0.58742 0.553 0.0
O98 O 0.17062 0.68353 0.53393 0.0
C99 C 0.14288 0.61045 0.64396 0.0
O100 O 0.11401 0.59125 0.63033 0.0
C101 C 0.16666 0.5626 0.52961 0.0
O102 O 0.17188 0.55644 0.57045 0.0
O103 O 0.08926 0.64909 0.55752 0.0
C104 C 0.70843 0.81438 0.03009 0.0
O105 O 0.72386 0.84789 0.03149 0.0
O106 O 0.65707 0.84834 0.13801 0.0
Zn107 Zn 0.64861 0.8511 0.07493 0.0
O108 O 0.66324 0.90182 0.05181 0.0
C109 C 0.57185 0.86291 0.09049 0.0
O110 O 0.58595 0.88266 0.12201 0.0
O111 O 0.67634 0.80921 0.04615 0.0
C112 C 0.65134 0.90984 0.01471 0.0
O113 O 0.63359 0.88409 0.99251 0.0
C114 C 0.68799 0.85293 0.15708 0.0
O115 O 0.71825 0.86065 0.13518 0.0
O116 O 0.59344 0.84556 0.0651 0.0
C117 C 0.3076 0.21428 0.55848 0.0
O118 O 0.31509 0.21864 0.59918 0.0
O119 O 0.33166 0.14075 0.63156 0.0
Zn120 Zn 0.34354 0.14186 0.56908 0.0
O121 O 0.32909 0.09325 0.54082 0.0
C122 C 0.42111 0.13824 0.5921 0.0
O123 O 0.4073 0.12609 0.62835 0.0
O124 O 0.3171 0.18422 0.53949 0.0
C125 C 0.34723 0.06352 0.54972 0.0
O126 O 0.37232 0.06431 0.58025 0.0
C127 C 0.29971 0.13763 0.6486 0.0
O128 O 0.2698 0.1343 0.62465 0.0
O129 O 0.39921 0.14805 0.56213 0.0
C130 C 0.69308 0.17903 0.96398 0.0
O131 O 0.71335 0.14887 0.95695 0.0
O132 O 0.65021 0.13676 0.86094 0.0
Zn133 Zn 0.63708 0.13468 0.92317 0.0
O134 O 0.65499 0.08694 0.95091 0.0
C135 C 0.56063 0.12735 0.89582 0.0
O136 O 0.57621 0.12012 0.85886 0.0
O137 O 0.659 0.17957 0.95286 0.0
C138 C 0.64473 0.05573 0.93506 0.0
O139 O 0.62521 0.05536 0.89961 0.0
C140 C 0.68197 0.13377 0.84341 0.0
O141 O 0.71187 0.12754 0.8666 0.0
O142 O 0.58088 0.13516 0.92798 0.0
C143 C 0.28246 0.80763 0.45182 0.0
O144 O 0.26402 0.83673 0.43682 0.0
O145 O 0.33463 0.85312 0.36217 0.0
Zn146 Zn 0.34494 0.85088 0.42506 0.0
O147 O 0.32947 0.89864 0.45472 0.0
C148 C 0.42302 0.85338 0.40475 0.0
O149 O 0.41021 0.86553 0.36798 0.0
O150 O 0.31783 0.80717 0.45045 0.0
C151 C 0.34854 0.92816 0.44788 0.0
O152 O 0.37488 0.92746 0.41884 0.0
C153 C 0.30875 0.87154 0.34399 0.0
O154 O 0.28456 0.89061 0.36683 0.0
O155 O 0.40034 0.84411 0.43406 0.0
C156 C 0.26195 0.16909 0.94199 0.0
O157 O 0.24281 0.14575 0.91798 0.0
O158 O 0.31847 0.075 0.94905 0.0
Zn159 Zn 0.32429 0.12324 0.91684 0.0
O160 O 0.30681 0.1168 0.85665 0.0
C161 C 0.40095 0.1087 0.90538 0.0
O162 O 0.38747 0.07519 0.89666 0.0
O163 O 0.29695 0.16503 0.94597 0.0
C164 C 0.31177 0.14415 0.83121 0.0
O165 O 0.32587 0.17582 0.84561 0.0
C166 C 0.29 0.05383 0.94766 0.0
O167 O 0.26111 0.06313 0.9241 0.0
O168 O 0.37889 0.13525 0.91536 0.0
C169 C 0.72418 0.81075 0.44717 0.0
O170 O 0.74024 0.83055 0.41696 0.0
O171 O 0.6634 0.9034 0.45774 0.0
Zn172 Zn 0.65961 0.85494 0.4257 0.0
O173 O 0.67614 0.86286 0.36531 0.0
C174 C 0.5825 0.86578 0.41674 0.0
O175 O 0.59447 0.90016 0.40969 0.0
O176 O 0.68999 0.8159 0.45579 0.0
C177 C 0.67478 0.83563 0.33916 0.0
O178 O 0.66479 0.80207 0.35258 0.0
C179 C 0.6917 0.92482 0.45639 0.0
O180 O 0.72073 0.9155 0.43316 0.0
O181 O 0.60575 0.83977 0.4249 0.0
C182 C 0.27906 0.79762 0.0375 0.0
O183 O 0.25839 0.8278 0.04287 0.0
O184 O 0.31872 0.88806 0.03605 0.0
Zn185 Zn 0.33386 0.84505 0.07466 0.0
O186 O 0.31351 0.85077 0.13463 0.0
C187 C 0.41161 0.8683 0.075 0.0
O188 O 0.39743 0.90226 0.07169 0.0
O189 O 0.31301 0.79792 0.04909 0.0
C190 C 0.33113 0.86935 0.16287 0.0
O191 O 0.36177 0.88732 0.15247 0.0
C192 C 0.31346 0.92137 0.04942 0.0
O193 O 0.3169 0.92872 0.09021 0.0
O194 O 0.39009 0.8399 0.0765 0.0
C195 C 0.72066 0.17788 0.53974 0.0
O196 O 0.73717 0.14527 0.54573 0.0
O197 O 0.6689 0.09274 0.53833 0.0
Zn198 Zn 0.65865 0.1386 0.57413 0.0
O199 O 0.67408 0.1295 0.63473 0.0
C200 C 0.5808 0.12417 0.5812 0.0
O201 O 0.59308 0.09013 0.58961 0.0
O202 O 0.6867 0.18212 0.54999 0.0
C203 C 0.6705 0.15564 0.66199 0.0
O204 O 0.65855 0.18892 0.64975 0.0
C205 C 0.67507 0.06073 0.55505 0.0
O206 O 0.67515 0.05714 0.59674 0.0
O207 O 0.6038 0.15036 0.57307 0.0
C208 C -0.00126 0.37125 0.01735 0.0
C209 C 0.02033 0.36322 0.05417 0.0
C210 C 0.96332 0.35076 0.09497 0.0
C211 C 0.94184 0.36385 0.05989 0.0
N212 N 0.93817 0.38697 0.9877 0.0
N213 N 0.02393 0.34894 0.12934 0.0
C214 C 0.95932 0.37411 0.021 0.0
C215 C 0.00288 0.35341 0.09325 0.0
N216 N 0.01594 0.37489 0.97864 0.0
N217 N 0.94595 0.33607 0.13003 0.0
H218 H 0.05295 0.35095 0.1296 0.0
H219 H 0.01265 0.3462 0.15976 0.0
H220 H 0.91704 0.33463 0.13307 0.0
H221 H 0.96006 0.32239 0.15461 0.0
H222 H 0.00166 0.37707 0.94982 0.0
H223 H 0.04475 0.37244 0.97479 0.0
H224 H 0.94929 0.39964 0.9606 0.0
H225 H 0.90909 0.38638 0.9879 0.0
C226 C 0.97244 0.65058 0.60385 0.0
C227 C 0.94804 0.63256 0.57481 0.0
C228 C 0.00087 0.61701 0.52865 0.0
C229 C 0.02556 0.6295 0.56106 0.0
N230 N 0.03523 0.65501 0.63174 0.0
N231 N 0.93837 0.59672 0.51036 0.0
C232 C 0.01154 0.64592 0.5991 0.0
C233 C 0.96198 0.61562 0.53709 0.0
N234 N 0.95814 0.6727 0.63551 0.0
N235 N 0.01462 0.60722 0.48953 0.0
H236 H 0.90957 0.59606 0.51469 0.0
H237 H 0.94747 0.57972 0.4854 0.0
H238 H 0.04298 0.60841 0.48217 0.0
H239 H -0.00221 0.60139 0.46326 0.0
H240 H 0.97451 0.68942 0.65537 0.0
H241 H 0.92957 0.67741 0.63887 0.0
H242 H 0.02609 0.66283 0.66198 0.0
H243 H 0.06408 0.65192 0.62993 0.0
C244 C 0.97559 0.62451 0.90045 0.0
C245 C 0.95849 0.61582 0.94007 0.0
C246 C 0.01974 0.60433 0.97243 0.0
C247 C 0.03686 0.61349 0.93298 0.0
N248 N 0.03237 0.63957 0.86206 0.0
N249 N 0.96363 0.60522 0.01572 0.0
C250 C 0.01518 0.62619 0.89791 0.0
C251 C 0.98042 0.60799 0.97669 0.0
N252 N 0.95412 0.62878 0.86466 0.0
N253 N 0.04111 0.59174 0.00568 0.0
H254 H 0.93491 0.60819 0.01994 0.0
H255 H 0.9782 0.60321 0.04437 0.0
H256 H 0.07018 0.59168 0.00492 0.0
H257 H 0.03015 0.57988 0.03333 0.0
H258 H 0.96497 0.63068 0.83396 0.0
H259 H 0.92508 0.62751 0.86507 0.0
H260 H 0.01825 0.65304 0.83733 0.0
H261 H 0.06125 0.64002 0.85834 0.0
C262 C 0.0326 0.30958 0.45944 0.0
C263 C 0.05053 0.34256 0.44441 0.0
C264 C 0.99076 0.36819 0.41965 0.0
C265 C 0.97314 0.33408 0.4321 0.0
N266 N 0.97652 0.27117 0.46085 0.0
N267 N 0.04852 0.40242 0.40812 0.0
C268 C 0.99387 0.3044 0.45116 0.0
C269 C 0.03007 0.37176 0.42414 0.0
N270 N 0.05258 0.28369 0.48238 0.0
N271 N 0.96981 0.39717 0.40356 0.0
H272 H 0.07699 0.40701 0.41275 0.0
H273 H 0.03633 0.42256 0.38843 0.0
H274 H 0.94149 0.3947 0.3965 0.0
H275 H 0.97985 0.42434 0.39889 0.0
H276 H 0.04077 0.26077 0.498 0.0
H277 H 0.0811 0.28649 0.48832 0.0
H278 H 0.99052 0.24692 0.47043 0.0
H279 H 0.94788 0.26705 0.45716 0.0
C280 C 0.46931 0.84695 0.11392 0.0
C281 C 0.45259 0.86349 0.07729 0.0
C282 C 0.51431 0.87978 0.04926 0.0
C283 C 0.531 0.86141 0.08463 0.0
N284 N 0.52531 0.82117 0.14621 0.0
N285 N 0.45895 0.88775 0.00579 0.0
C286 C 0.50875 0.84305 0.11565 0.0
C287 C 0.47505 0.87759 0.04365 0.0
N288 N 0.44778 0.83669 0.14797 0.0
N289 N 0.53571 0.90073 0.02208 0.0
H290 H 0.43035 0.88557 0.00014 0.0
H291 H 0.47421 0.8947 0.97866 0.0
H292 H 0.56457 0.90315 0.02519 0.0
H293 H 0.52457 0.91827 -0.00135 0.0
H294 H 0.45878 0.82879 0.17741 0.0
H295 H 0.4188 0.83884 0.14815 0.0
H296 H 0.51048 0.80381 0.1669 0.0
H297 H 0.55417 0.81773 0.14845 0.0
C298 C 0.52404 0.15253 0.61493 0.0
C299 C 0.5403 0.13169 0.58118 0.0
C300 C 0.47841 0.11624 0.55316 0.0
C301 C 0.46204 0.13841 0.5859 0.0
N302 N 0.4691 0.18449 0.6418 0.0
N303 N 0.53412 0.10169 0.51268 0.0
C304 C 0.48484 0.15864 0.61498 0.0
C305 C 0.5178 0.11602 0.54856 0.0
N306 N 0.54579 0.16519 0.64779 0.0
N307 N 0.45666 0.09374 0.52795 0.0
H308 H 0.56292 0.10182 0.50801 0.0
H309 H 0.5191 0.09328 0.48587 0.0
H310 H 0.42769 0.09266 0.53015 0.0
H311 H 0.46752 0.07369 0.50715 0.0
H312 H 0.53497 0.17662 0.67574 0.0
H313 H 0.5747 0.16181 0.64855 0.0
H314 H 0.48459 0.20278 0.66078 0.0
H315 H 0.44054 0.19022 0.64207 0.0
C316 C 0.49616 0.14824 0.87612 0.0
C317 C 0.51971 0.12413 0.90021 0.0
C318 C 0.46505 0.09388 0.93206 0.0
C319 C 0.44166 0.11504 0.90448 0.0
N320 N 0.43486 0.15815 0.84539 0.0
N321 N 0.52701 0.06938 0.94519 0.0
C322 C 0.45713 0.14125 0.87527 0.0
C323 C 0.50431 0.09576 0.92677 0.0
N324 N 0.51099 0.17839 0.85495 0.0
N325 N 0.4498 0.07281 0.96413 0.0
H326 H 0.55585 0.06916 0.94115 0.0
H327 H 0.51701 0.04569 0.96109 0.0
H328 H 0.42112 0.07106 0.96939 0.0
H329 H 0.46563 0.05997 0.98794 0.0
H330 H 0.49482 0.1992 0.84053 0.0
H331 H 0.53946 0.1845 0.85508 0.0
H332 H 0.44522 0.17425 0.8203 0.0
H333 H 0.40619 0.15343 0.84334 0.0
C334 C 0.48023 0.87507 0.44416 0.0
C335 C 0.46379 0.85222 0.41205 0.0
C336 C 0.52571 0.83617 0.38432 0.0
C337 C 0.54204 0.85822 0.41706 0.0
N338 N 0.53608 0.89118 0.48384 0.0
N339 N 0.47043 0.80421 0.35827 0.0
C340 C 0.51963 0.87532 0.4488 0.0
C341 C 0.48645 0.83064 0.38416 0.0
N342 N 0.45851 0.89817 0.46867 0.0
N343 N 0.54745 0.82199 0.35231 0.0
H344 H 0.44178 0.79901 0.35793 0.0
H345 H 0.4857 0.78502 0.34025 0.0
H346 H 0.57639 0.82498 0.35163 0.0
H347 H 0.53663 0.80959 0.32487 0.0
H348 H 0.46934 0.91886 0.48868 0.0
H349 H 0.42951 0.8988 0.46687 0.0
H350 H 0.52119 0.90056 0.51028 0.0
H351 H 0.56494 0.89174 0.48831 0.0
C352 C 0.13615 0.33916 0.21453 0.0
C353 C 0.15091 0.36944 0.19022 0.0
C354 C 0.17094 0.40126 0.25573 0.0
C355 C 0.15759 0.37027 0.27978 0.0
N356 N 0.13387 0.30674 0.28252 0.0
N357 N 0.18895 0.42526 0.18627 0.0
C358 C 0.14249 0.33813 0.25924 0.0
C359 C 0.17027 0.39936 0.21044 0.0
N360 N 0.11395 0.31271 0.19545 0.0
N361 N 0.18354 0.43277 0.27624 0.0
H362 H 0.18961 0.42417 0.15303 0.0
H363 H 0.20654 0.4457 0.199 0.0
H364 H 0.18603 0.43442 0.30935 0.0
H365 H 0.18949 0.45799 0.26072 0.0
H366 H 0.09875 0.29267 0.21232 0.0
H367 H 0.10797 0.31258 0.16291 0.0
H368 H 0.12681 0.28101 0.26879 0.0
H369 H 0.13664 0.30538 0.3156 0.0
C370 C 0.85082 0.63451 0.73435 0.0
C371 C 0.82463 0.61037 0.71399 0.0
C372 C 0.80605 0.58472 0.78346 0.0
C373 C 0.83093 0.61008 0.80368 0.0
N374 N 0.87145 0.66426 0.7997 0.0
N375 N 0.77171 0.56873 0.71928 0.0
C376 C 0.85134 0.63678 0.77953 0.0
C377 C 0.80061 0.5872 0.73861 0.0
N378 N 0.87696 0.65336 0.71087 0.0
N379 N 0.78791 0.55804 0.80708 0.0
H380 H 0.76626 0.5708 0.68667 0.0
H381 H 0.75104 0.55432 0.73593 0.0
H382 H 0.78964 0.55676 0.84026 0.0
H383 H 0.77292 0.53588 0.7937 0.0
H384 H 0.89962 0.66739 0.72429 0.0
H385 H 0.87818 0.6524 0.67777 0.0
H386 H 0.88321 0.68712 0.78381 0.0
H387 H 0.87393 0.6661 0.83276 0.0
C388 C 0.16681 0.58004 0.75703 0.0
C389 C 0.15168 0.61071 0.78011 0.0
C390 C 0.13979 0.64483 0.71346 0.0
C391 C 0.15034 0.61215 0.6903 0.0
N392 N 0.17302 0.54825 0.68893 0.0
N393 N 0.12195 0.6716 0.78167 0.0
C394 C 0.16386 0.57969 0.71179 0.0
C395 C 0.13819 0.64321 0.75874 0.0
N396 N 0.18453 0.55165 0.7785 0.0
N397 N 0.13079 0.67725 0.69218 0.0
H398 H 0.12116 0.67191 0.81492 0.0
H399 H 0.10721 0.6938 0.76798 0.0
H400 H 0.12961 0.67917 0.65905 0.0
H401 H 0.12698 0.70313 0.70713 0.0
H402 H 0.19923 0.53007 0.76363 0.0
H403 H 0.18727 0.55143 0.81163 0.0
H404 H 0.17869 0.52217 0.70267 0.0
H405 H 0.17325 0.54775 0.65568 0.0
C406 C 0.82657 0.33309 0.23409 0.0
C407 C 0.82698 0.36842 0.21281 0.0
C408 C 0.82463 0.4012 0.28144 0.0
C409 C 0.8217 0.36596 0.30254 0.0
N410 N 0.81232 0.29882 0.29897 0.0
N411 N 0.81814 0.43571 0.21527 0.0
C412 C 0.82034 0.332 0.27883 0.0
C413 C 0.82348 0.40238 0.23623 0.0
N414 N 0.8341 0.30074 0.21208 0.0
N415 N 0.83053 0.43336 0.30443 0.0
H416 H 0.81666 0.43757 0.18214 0.0
H417 H 0.81151 0.46081 0.23068 0.0
H418 H 0.83238 0.43366 0.33758 0.0
H419 H 0.83705 0.45918 0.29053 0.0
H420 H 0.83838 0.27478 0.22679 0.0
H421 H 0.83929 0.30021 0.17937 0.0
H422 H 0.80705 0.27377 0.28278 0.0
H423 H 0.80753 0.29702 0.33173 0.0
C424 C 0.65735 0.86804 0.27096 0.0
C425 C 0.6808 0.8424 0.29315 0.0
C426 C 0.71069 0.82432 0.22592 0.0
C427 C 0.6887 0.85156 0.20423 0.0
N428 N 0.64837 0.90589 0.20755 0.0
N429 N 0.73503 0.80221 0.29367 0.0
C430 C 0.66429 0.87548 0.22726 0.0
C431 C 0.70911 0.82235 0.27119 0.0
N432 N 0.62718 0.88375 0.29085 0.0
N433 N 0.7316 0.79909 0.20331 0.0
H434 H 0.73492 0.80057 0.32688 0.0
H435 H 0.75855 0.79013 0.27979 0.0
H436 H 0.73357 0.79953 0.17016 0.0
H437 H 0.7447 0.77591 0.21715 0.0
H438 H 0.60685 0.89922 0.27475 0.0
H439 H 0.62034 0.87846 0.32259 0.0
H440 H 0.63326 0.9264 0.22383 0.0
H441 H 0.65356 0.91278 0.17575 0.0
C442 C 0.27947 0.16399 0.76404 0.0
C443 C 0.30483 0.13952 0.78505 0.0
C444 C 0.31804 0.10789 0.71742 0.0
C445 C 0.29731 0.13596 0.69563 0.0
N446 N 0.26091 0.19317 0.69747 0.0
N447 N 0.35257 0.09149 0.78105 0.0
C448 C 0.27831 0.16449 0.71871 0.0
C449 C 0.32505 0.11205 0.76168 0.0
N450 N 0.25601 0.18619 0.78746 0.0
N451 N 0.33054 0.07691 0.69583 0.0
H452 H 0.35946 0.09422 0.81319 0.0
H453 H 0.37096 0.07422 0.76437 0.0
H454 H 0.32529 0.07267 0.66344 0.0
H455 H 0.34267 0.05374 0.71082 0.0
H456 H 0.23435 0.20182 0.77408 0.0
H457 H 0.25595 0.18627 0.82074 0.0
H458 H 0.25046 0.21707 0.71254 0.0
H459 H 0.25933 0.19452 0.66434 0.0
C460 C 0.66267 0.1108 0.77173 0.0
C461 C 0.68418 0.13621 0.79641 0.0
C462 C 0.70257 0.16964 0.73134 0.0
C463 C 0.67659 0.14777 0.70781 0.0
N464 N 0.62725 0.1013 0.70703 0.0
N465 N 0.72182 0.19245 0.80079 0.0
C466 C 0.65556 0.11911 0.72825 0.0
C467 C 0.70374 0.16619 0.77653 0.0
N468 N 0.64962 0.07832 0.78974 0.0
N469 N 0.72673 0.19299 0.71043 0.0
H470 H 0.72352 0.19086 0.83394 0.0
H471 H 0.73276 0.2173 0.78836 0.0
H472 H 0.72693 0.19587 0.67731 0.0
H473 H 0.74877 0.20675 0.72546 0.0
H474 H 0.6368 0.05698 0.77228 0.0
H475 H 0.65523 0.07094 0.82132 0.0
H476 H 0.60845 0.08324 0.72195 0.0
H477 H 0.62009 0.10724 0.67551 0.0
C478 C 0.31341 0.90478 0.22868 0.0
C479 C 0.31854 0.86971 0.20785 0.0
C480 C 0.3055 0.83689 0.27493 0.0
C481 C 0.30711 0.87176 0.29684 0.0
N482 N 0.31662 0.93912 0.29513 0.0
N483 N 0.32387 0.80186 0.2123 0.0
C484 C 0.31165 0.90589 0.27389 0.0
C485 C 0.31527 0.8355 0.23109 0.0
N486 N 0.30961 0.93699 0.2052 0.0
N487 N 0.29424 0.80517 0.29601 0.0
H488 H 0.33211 0.79934 0.18059 0.0
H489 H 0.32605 0.7767 0.22924 0.0
H490 H 0.28627 0.80547 0.32802 0.0
H491 H 0.28911 0.77963 0.28078 0.0
H492 H 0.30216 0.96283 0.21841 0.0
H493 H 0.31003 0.93705 0.17198 0.0
H494 H 0.32453 0.96403 0.28008 0.0
H495 H 0.31589 0.9413 0.32822 0.0
C496 C 0.21708 0.19188 -0.00255 0.0
C497 C 0.24301 0.20012 0.9646 0.0
C498 C 0.23816 0.26758 0.98009 0.0
C499 C 0.21057 0.25949 0.01113 0.0
N500 N 0.16956 0.21516 0.04572 0.0
N501 N 0.27324 0.24544 0.91896 0.0
C502 C 0.19862 0.22198 0.01857 0.0
C503 C 0.25226 0.23791 0.95437 0.0
N504 N 0.21153 0.15538 0.00994 0.0
N505 N 0.25109 0.30359 0.97544 0.0
H506 H 0.28351 0.22441 0.89895 0.0
H507 H 0.27774 0.27246 0.90715 0.0
H508 H 0.24025 0.32637 0.99235 0.0
H509 H 0.27419 0.3106 0.95697 0.0
H510 H 0.19629 0.14778 0.03684 0.0
H511 H 0.22465 0.13254 0.99541 0.0
H512 H 0.15668 0.18902 0.04868 0.0
H513 H 0.1565 0.23629 0.06335 0.0
C514 C 0.78452 0.72698 0.47775 0.0
C515 C 0.78593 0.7314 0.52273 0.0
C516 C 0.75103 0.79047 0.51711 0.0
C517 C 0.74618 0.78387 0.47282 0.0
N518 N 0.75305 0.74314 0.4118 0.0
N519 N 0.76581 0.76388 0.58625 0.0
C520 C 0.76155 0.75141 0.45327 0.0
C521 C 0.76798 0.76227 0.54274 0.0
N522 N 0.80624 0.70042 0.45825 0.0
N523 N 0.74062 0.82423 0.53439 0.0
H524 H 0.77759 0.74354 0.60618 0.0
H525 H 0.74956 0.78348 0.6025 0.0
H526 H 0.72843 0.8458 0.51656 0.0
H527 H 0.74713 0.83222 0.56548 0.0
H528 H 0.80935 0.69858 0.4253 0.0
H529 H 0.824 0.6824 0.47498 0.0
H530 H 0.76007 0.71774 0.39726 0.0
H531 H 0.7361 0.76025 0.3929 0.0
C532 C 0.25523 0.76687 0.97118 0.0
C533 C 0.26359 0.76439 0.01537 0.0
C534 C 0.24238 0.69869 0.01707 0.0
C535 C 0.23338 0.7014 0.97303 0.0
N536 N 0.22812 0.73769 0.9083 0.0
N537 N 0.26945 0.72799 0.07996 0.0
C538 C 0.23896 0.73542 0.9501 0.0
C539 C 0.25851 0.73022 0.03818 0.0
N540 N 0.26483 0.79865 0.94898 0.0
N541 N 0.23337 0.66666 0.03914 0.0
H542 H 0.2791 0.75111 0.09725 0.0
H543 H 0.27076 0.70307 0.09734 0.0
H544 H 0.22148 0.64303 0.02483 0.0
H545 H 0.23541 0.66385 0.07206 0.0
H546 H 0.26321 0.80121 0.916 0.0
H547 H 0.27711 0.82211 0.96322 0.0
H548 H 0.22693 0.76263 0.89095 0.0
H549 H 0.21849 0.71456 0.89098 0.0
C550 C 0.73328 0.21799 0.47592 0.0
C551 C 0.74087 0.20911 0.5192 0.0
C552 C 0.78275 0.26331 0.52489 0.0
C553 C 0.777 0.27079 0.48088 0.0
N554 N 0.75223 0.25212 0.41254 0.0
N555 N 0.77606 0.21941 0.58373 0.0
C556 C 0.75363 0.24735 0.45582 0.0
C557 C 0.76676 0.2305 0.5433 0.0
N558 N 0.70639 0.19853 0.45415 0.0
N559 N 0.80193 0.28856 0.54951 0.0
H560 H 0.76368 0.19647 0.59895 0.0
H561 H 0.79782 0.23123 0.60118 0.0
H562 H 0.81369 0.31317 0.53732 0.0
H563 H 0.80362 0.28689 0.5826 0.0
H564 H 0.69631 0.20661 0.42435 0.0
H565 H 0.69234 0.17543 0.46694 0.0
H566 H 0.73899 0.23345 0.3919 0.0
H567 H 0.76701 0.27314 0.39661 0.0
C568 C 0.73864 0.75097 0.03577 0.0
C569 C 0.7285 0.78249 0.01041 0.0
C570 C 0.75889 0.75411 0.94839 0.0
C571 C 0.76552 0.72098 0.97257 0.0
N572 N 0.75663 0.68519 0.03724 0.0
N573 N 0.72303 0.81156 0.94111 0.0
C574 C 0.75411 0.71866 0.01579 0.0
C575 C 0.73708 0.78346 0.9663 0.0
N576 N 0.73465 0.75239 0.07911 0.0
N577 N 0.77453 0.75809 0.90889 0.0
H578 H 0.7063 0.83317 0.95294 0.0
H579 H 0.725 0.81154 0.90797 0.0
H580 H 0.79115 0.7374 0.89486 0.0
H581 H 0.77398 0.78321 0.89172 0.0
H582 H 0.74528 0.73196 0.09965 0.0
H583 H 0.72363 0.77568 0.09496 0.0
H584 H 0.74496 0.68072 0.06721 0.0
H585 H 0.76755 0.66077 0.02362 0.0
C586 C 0.25086 0.25392 0.54552 0.0
C587 C 0.28796 0.24413 0.53448 0.0
C588 C 0.28524 0.28628 0.47268 0.0
C589 C 0.24926 0.2983 0.48572 0.0
N590 N 0.20115 0.2998 0.53954 0.0
N591 N 0.34328 0.2561 0.49289 0.0
C592 C 0.23299 0.28393 0.52363 0.0
C593 C 0.30601 0.26182 0.49959 0.0
N594 N 0.23203 0.23346 0.57551 0.0
N595 N 0.29888 0.29678 0.43375 0.0
H596 H 0.35953 0.23864 0.5122 0.0
H597 H 0.3588 0.27132 0.47073 0.0
H598 H 0.28431 0.31422 0.41274 0.0
H599 H 0.32312 0.28554 0.4206 0.0
H600 H 0.20364 0.23675 0.58153 0.0
H601 H 0.24388 0.2107 0.59159 0.0
H602 H 0.19023 0.29304 0.56935 0.0
H603 H 0.18759 0.32241 0.52494 0.0
C604 C 0.73622 0.27627 0.97567 0.0
C605 C 0.74454 0.27649 0.01993 0.0
C606 C 0.72087 0.21201 0.02703 0.0
C607 C 0.7103 0.21272 0.98339 0.0
N608 N 0.70401 0.24623 0.91674 0.0
N609 N 0.74007 0.24762 0.08934 0.0
C610 C 0.71662 0.24518 0.95793 0.0
C611 C 0.73573 0.24511 0.04607 0.0
N612 N 0.74879 0.30489 0.95022 0.0
N613 N 0.71682 0.17961 0.05022 0.0
H614 H 0.75068 0.2715 0.10445 0.0
H615 H 0.73046 0.2274 0.11071 0.0
H616 H 0.70393 0.1555 0.03824 0.0
H617 H 0.72814 0.17574 0.08049 0.0
H618 H 0.74743 0.30445 0.91707 0.0
H619 H 0.76347 0.32804 0.96194 0.0
H620 H 0.70359 0.27056 0.89821 0.0
H621 H 0.69175 0.22321 0.90157 0.0
C622 C 0.23837 0.71092 0.4628 0.0
C623 C 0.22461 0.71297 0.50515 0.0
C624 C 0.24574 0.77841 0.51089 0.0
C625 C 0.26217 0.77527 0.46993 0.0
N626 N 0.27821 0.73791 0.40835 0.0
N627 N 0.21995 0.74594 0.57218 0.0
C628 C 0.25983 0.74125 0.44637 0.0
C629 C 0.22939 0.74606 0.52991 0.0
N630 N 0.22934 0.68083 0.4376 0.0
N631 N 0.24572 0.81232 0.53156 0.0
H632 H 0.20838 0.72261 0.58745 0.0
H633 H 0.22644 0.76771 0.59313 0.0
H634 H 0.25911 0.83619 0.51968 0.0
H635 H 0.23039 0.81757 0.5591 0.0
H636 H 0.23499 0.67957 0.40508 0.0
H637 H 0.21321 0.65827 0.44824 0.0
H638 H 0.28135 0.71249 0.39222 0.0
H639 H 0.29252 0.76014 0.39406 0.0
C640 C 0.20488 0.48515 0.94463 0.0
C641 C 0.1804 0.51357 0.95988 0.0
C642 C 0.16912 0.47616 0.02426 0.0
C643 C 0.1877 0.44529 0.00524 0.0
N644 N 0.22159 0.41902 0.94585 0.0
N645 N 0.13549 0.53408 0.01285 0.0
C646 C 0.2056 0.44946 0.96523 0.0
C647 C 0.16188 0.50886 -0.00035 0.0
N648 N 0.22804 0.49259 0.91107 0.0
N649 N 0.15878 0.47433 0.06614 0.0
H650 H 0.12844 0.55828 -0.00398 0.0
H651 H 0.11806 0.5293 0.03886 0.0
H652 H 0.16439 0.45091 0.08521 0.0
H653 H 0.14843 0.49733 0.08303 0.0
H654 H 0.24892 0.47421 0.90106 0.0
H655 H 0.22898 0.51881 0.89605 0.0
H656 H 0.23112 0.4194 0.91449 0.0
H657 H 0.22297 0.39249 0.96004 0.0
C658 C 0.80457 0.52369 0.46957 0.0
C659 C 0.82813 0.53484 0.50367 0.0
C660 C 0.85797 0.47269 0.5037 0.0
C661 C 0.83766 0.46334 0.46638 0.0
N662 N 0.79278 0.47947 0.41213 0.0
N663 N 0.88058 0.52202 0.55011 0.0
C664 C 0.81115 0.48868 0.44889 0.0
C665 C 0.85544 0.50976 0.52034 0.0
N666 N 0.77523 0.54612 0.45791 0.0
N667 N 0.87975 0.44611 0.52323 0.0
H668 H 0.88006 0.54893 0.56322 0.0
H669 H 0.90398 0.50666 0.55937 0.0
H670 H 0.88346 0.419 0.51117 0.0
H671 H 0.89174 0.44983 0.55321 0.0
H672 H 0.75481 0.53808 0.43612 0.0
H673 H 0.76942 0.57173 0.47281 0.0
H674 H 0.77659 0.49838 0.39472 0.0
H675 H 0.79524 0.45313 0.39776 0.0
C676 C 0.77437 0.49246 0.04889 0.0
C677 C 0.79885 0.46432 0.03299 0.0
C678 C 0.8102 0.50294 0.96954 0.0
C679 C 0.79156 0.53345 0.98926 0.0
N680 N 0.75775 0.55862 0.04932 0.0
N681 N 0.84376 0.44474 0.97962 0.0
C682 C 0.77368 0.52854 0.02917 0.0
C683 C 0.8174 0.46976 0.99337 0.0
N684 N 0.75119 0.48441 0.08225 0.0
N685 N 0.82062 0.50555 0.92772 0.0
H686 H 0.85068 0.42019 -0.00411 0.0
H687 H 0.86124 0.44996 0.95376 0.0
H688 H 0.81505 0.5293 0.90917 0.0
H689 H 0.83103 0.48287 0.91034 0.0
H690 H 0.73032 0.50261 0.09268 0.0
H691 H 0.75023 0.45791 0.09662 0.0
H692 H 0.74826 0.55763 0.08068 0.0
H693 H 0.75643 0.58544 0.03583 0.0
C694 C 0.21628 0.48064 0.4768 0.0
C695 C 0.18847 0.46805 0.44799 0.0
C696 C 0.14726 0.51968 0.46933 0.0
C697 C 0.17509 0.53245 0.4983 0.0
N698 N 0.23957 0.53183 0.52044 0.0
N699 N 0.13235 0.48064 0.40821 0.0
C700 C 0.21072 0.51495 0.49923 0.0
C701 C 0.15548 0.48925 0.44154 0.0
N702 N 0.24723 0.45907 0.48415 0.0
N703 N 0.11236 0.53515 0.46973 0.0
H704 H 0.13792 0.45878 0.38692 0.0
H705 H 0.10979 0.49729 0.39906 0.0
H706 H 0.10517 0.55814 0.48844 0.0
H707 H 0.08968 0.52364 0.45356 0.0
H708 H 0.26616 0.4644 0.50864 0.0
H709 H 0.25278 0.4343 0.4675 0.0
H710 H 0.26705 0.52239 0.51888 0.0
H711 H 0.23678 0.55761 0.53607 0.0
C712 C 0.62963 0.01334 -0.00351 0.0
C713 C 0.65054 0.02025 0.95886 0.0
C714 C 0.6749 0.95571 0.96025 0.0
C715 C 0.65396 0.94871 -0.00215 0.0
N716 N 0.61554 0.97164 0.05557 0.0
N717 N 0.69787 0.0015 0.90888 0.0
C718 C 0.63289 0.9779 0.01736 0.0
C719 C 0.67461 0.99239 0.94187 0.0
N720 N 0.60492 0.03987 0.01084 0.0
N721 N 0.69471 0.92705 0.94192 0.0
H722 H 0.69832 0.0282 0.89494 0.0
H723 H 0.71867 0.98384 0.89727 0.0
H724 H 0.6979 0.90077 0.95631 0.0
H725 H 0.70685 0.92862 0.91186 0.0
H726 H 0.58508 0.03487 0.03435 0.0
H727 H 0.60247 0.06663 -0.00252 0.0
H728 H 0.60391 0.9929 0.07413 0.0
H729 H 0.61446 0.94542 0.07041 0.0
C730 C 0.34119 -0.00197 0.45376 0.0
C731 C 0.34329 0.96245 0.47418 0.0
C732 C 0.33863 -0.00627 0.54361 0.0
C733 C 0.34303 0.02916 0.52336 0.0
N734 N 0.35638 0.06405 0.45869 0.0
N735 N 0.35133 0.92705 0.53968 0.0
C736 C 0.34618 0.0312 0.47824 0.0
C737 C 0.34368 0.96031 0.51947 0.0
N738 N 0.33377 0.00023 0.41109 0.0
N739 N 0.32903 0.99193 0.58572 0.0
H740 H 0.3573 0.9021 0.52364 0.0
H741 H 0.35567 0.92514 0.57249 0.0
H742 H 0.32413 0.01588 0.60416 0.0
H743 H 0.32205 0.96681 0.60096 0.0
H744 H 0.32856 0.02563 0.39547 0.0
H745 H 0.32871 0.9765 0.3924 0.0
H746 H 0.36269 0.06567 0.42631 0.0
H747 H 0.36259 0.08871 0.47521 0.0
C748 C 0.27242 0.97502 0.02732 0.0
C749 C 0.30419 0.95218 0.01933 0.0
C750 C 0.31928 0.99085 0.95698 0.0
C751 C 0.29154 0.01701 0.96945 0.0
N752 N 0.24289 0.03592 0.01797 0.0
N753 N 0.3604 0.94047 0.97864 0.0
C754 C 0.26809 0.00949 0.00477 0.0
C755 C 0.32811 0.96031 0.98438 0.0
N756 N 0.24587 0.96322 0.0556 0.0
N757 N 0.33672 -0.00513 0.91849 0.0
H758 H 0.36827 0.91781 -0.00235 0.0
H759 H 0.38102 0.94838 0.95704 0.0
H760 H 0.3304 0.01664 0.89729 0.0
H761 H 0.35451 0.97462 0.90568 0.0
H762 H 0.22041 0.97687 0.05976 0.0
H763 H 0.24764 0.93759 0.07179 0.0
H764 H 0.2282 0.03393 0.04652 0.0
H765 H 0.23853 0.06124 0.00186 0.0
C766 C 0.71352 0.00498 0.53306 0.0
C767 C 0.68097 0.02732 0.52768 0.0
C768 C 0.66088 0.98672 0.46898 0.0
C769 C 0.69029 0.96142 0.47867 0.0
N770 N 0.74235 0.94386 0.52342 0.0
N771 N 0.6203 0.03576 0.49517 0.0
C772 C 0.71622 0.9699 0.51149 0.0
C773 C 0.65379 0.01736 0.49671 0.0
N774 N 0.74236 0.01784 0.55762 0.0
N775 N 0.64034 0.98204 0.43259 0.0
H776 H 0.61335 0.05761 0.51579 0.0
H777 H 0.59802 0.02688 0.47632 0.0
H778 H 0.64558 0.96054 0.41073 0.0
H779 H 0.6209 0.00172 0.42184 0.0
H780 H 0.76822 0.0045 0.55923 0.0
H781 H 0.74178 0.04383 0.5731 0.0
H782 H 0.75912 0.94684 0.55037 0.0
H783 H 0.74527 0.91782 0.50846 0.0
loop_
_geom_bond_atom_site_label_1
_geom_bond_atom_site_label_2
_geom_bond_distance
_geom_bond_site_symmetry_2
_ccdc_geom_bond_type
C0 O1 1.160 . S
C0 O7 1.185 . S
O1 C0 1.160 . S
O2 Zn3 1.899 . S
O2 C10 1.284 . S
Zn3 O2 1.899 . S
Zn3 O4 2.032 . S
Zn3 O7 2.086 . S
Zn3 O12 1.977 . S
O4 Zn3 2.032 . S
O4 C8 1.278 . S
C5 O6 1.203 . S
C5 O12 1.267 . S
O6 C5 1.203 . S
O7 C0 1.185 . S
O7 Zn3 2.086 . S
C8 O4 1.278 . S
C8 O9 1.211 . S
O9 C8 1.211 . S
C10 O2 1.284 . S
C10 O11 1.273 . S
O11 C10 1.273 . S
O12 Zn3 1.977 . S
O12 C5 1.267 . S
C13 O14 1.160 . S
C13 O20 1.185 . S
O14 C13 1.160 . S
O15 Zn16 1.899 . S
O15 C23 1.284 . S
Zn16 O15 1.899 . S
Zn16 O17 2.032 . S
Zn16 O20 2.086 . S
Zn16 O25 1.977 . S
O17 Zn16 2.032 . S
O17 C21 1.278 . S
C18 O19 1.203 . S
C18 O25 1.267 . S
O19 C18 1.203 . S
O20 C13 1.185 . S
O20 Zn16 2.086 . S
C21 O17 1.278 . S
C21 O22 1.211 . S
O22 C21 1.211 . S
C23 O15 1.284 . S
C23 O24 1.273 . S
O24 C23 1.273 . S
O25 Zn16 1.977 . S
O25 C18 1.267 . S
C26 O27 1.160 . S
C26 O33 1.185 . S
O27 C26 1.160 . S
O28 Zn29 1.899 . S
O28 C36 1.284 . S
Zn29 O28 1.899 . S
Zn29 O30 2.032 . S
Zn29 O33 2.086 . S
Zn29 O38 1.977 . S
O30 Zn29 2.032 . S
O30 C34 1.278 . S
C31 O32 1.203 . S
C31 O38 1.267 . S
O32 C31 1.203 . S
O33 C26 1.185 . S
O33 Zn29 2.086 . S
C34 O30 1.278 . S
C34 O35 1.211 . S
O35 C34 1.211 . S
C36 O28 1.284 . S
C36 O37 1.273 . S
O37 C36 1.273 . S
O38 Zn29 1.977 . S
O38 C31 1.267 . S
C39 O40 1.160 . S
C39 O46 1.185 . S
O40 C39 1.160 . S
O41 Zn42 1.899 . S
O41 C49 1.284 . S
Zn42 O41 1.899 . S
Zn42 O43 2.032 . S
Zn42 O46 2.086 . S
Zn42 O51 1.977 . S
O43 Zn42 2.032 . S
O43 C47 1.278 . S
C44 O45 1.203 . S
C44 O51 1.267 . S
O45 C44 1.203 . S
O46 C39 1.185 . S
O46 Zn42 2.086 . S
C47 O43 1.278 . S
C47 O48 1.211 . S
O48 C47 1.211 . S
C49 O41 1.284 . S
C49 O50 1.273 . S
O50 C49 1.273 . S
O51 Zn42 1.977 . S
O51 C44 1.267 . S
C52 O53 1.160 . S
C52 O59 1.185 . S
O53 C52 1.160 . S
O54 Zn55 1.899 . S
O54 C62 1.284 . S
Zn55 O54 1.899 . S
Zn55 O56 2.032 . S
Zn55 O59 2.086 . S
Zn55 O64 1.977 . S
O56 Zn55 2.032 . S
O56 C60 1.278 . S
C57 O58 1.203 . S
C57 O64 1.267 . S
O58 C57 1.203 . S
O59 C52 1.185 . S
O59 Zn55 2.086 . S
C60 O56 1.278 . S
C60 O61 1.211 . S
O61 C60 1.211 . S
C62 O54 1.284 . S
C62 O63 1.273 . S
O63 C62 1.273 . S
O64 Zn55 1.977 . S
O64 C57 1.267 . S
C65 O66 1.160 . S
C65 O72 1.185 . S
O66 C65 1.160 . S
O67 Zn68 1.899 . S
O67 C75 1.284 . S
Zn68 O67 1.899 . S
Zn68 O69 2.032 . S
Zn68 O72 2.086 . S
Zn68 O77 1.977 . S
O69 Zn68 2.032 . S
O69 C73 1.278 . S
C70 O71 1.203 . S
C70 O77 1.267 . S
O71 C70 1.203 . S
O72 C65 1.185 . S
O72 Zn68 2.086 . S
C73 O69 1.278 . S
C73 O74 1.211 . S
O74 C73 1.211 . S
C75 O67 1.284 . S
C75 O76 1.273 . S
O76 C75 1.273 . S
O77 Zn68 1.977 . S
O77 C70 1.267 . S
C78 O79 1.160 . S
C78 O85 1.185 . S
O79 C78 1.160 . S
O80 Zn81 1.899 . S
O80 C88 1.284 . S
Zn81 O80 1.899 . S
Zn81 O82 2.032 . S
Zn81 O85 2.086 . S
Zn81 O90 1.977 . S
O82 Zn81 2.032 . S
O82 C86 1.278 . S
C83 O84 1.203 . S
C83 O90 1.267 . S
O84 C83 1.203 . S
O85 C78 1.185 . S
O85 Zn81 2.086 . S
C86 O82 1.278 . S
C86 O87 1.211 . S
O87 C86 1.211 . S
C88 O80 1.284 . S
C88 O89 1.273 . S
O89 C88 1.273 . S
O90 Zn81 1.977 . S
O90 C83 1.267 . S
C91 O92 1.160 . S
C91 O98 1.185 . S
O92 C91 1.160 . S
O93 Zn94 1.899 . S
O93 C101 1.284 . S
Zn94 O93 1.899 . S
Zn94 O95 2.032 . S
Zn94 O98 2.086 . S
Zn94 O103 1.977 . S
O95 Zn94 2.032 . S
O95 C99 1.278 . S
C96 O97 1.203 . S
C96 O103 1.267 . S
O97 C96 1.203 . S
O98 C91 1.185 . S
O98 Zn94 2.086 . S
C99 O95 1.278 . S
C99 O100 1.211 . S
O100 C99 1.211 . S
C101 O93 1.284 . S
C101 O102 1.273 . S
O102 C101 1.273 . S
O103 Zn94 1.977 . S
O103 C96 1.267 . S
C104 O105 1.160 . S
C104 O111 1.185 . S
O105 C104 1.160 . S
O106 Zn107 1.899 . S
O106 C114 1.284 . S
Zn107 O106 1.899 . S
Zn107 O108 2.032 . S
Zn107 O111 2.086 . S
Zn107 O116 1.977 . S
O108 Zn107 2.032 . S
O108 C112 1.278 . S
C109 O110 1.203 . S
C109 O116 1.267 . S
O110 C109 1.203 . S
O111 C104 1.185 . S
O111 Zn107 2.086 . S
C112 O108 1.278 . S
C112 O113 1.211 . S
O113 C112 1.211 . S
C114 O106 1.284 . S
C114 O115 1.273 . S
O115 C114 1.273 . S
O116 Zn107 1.977 . S
O116 C109 1.267 . S
C117 O118 1.160 . S
C117 O124 1.185 . S
O118 C117 1.160 . S
O119 Zn120 1.899 . S
O119 C127 1.284 . S
Zn120 O119 1.899 . S
Zn120 O121 2.032 . S
Zn120 O124 2.086 . S
Zn120 O129 1.977 . S
O121 Zn120 2.032 . S
O121 C125 1.278 . S
C122 O123 1.203 . S
C122 O129 1.267 . S
O123 C122 1.203 . S
O124 C117 1.185 . S
O124 Zn120 2.086 . S
C125 O121 1.278 . S
C125 O126 1.211 . S
O126 C125 1.211 . S
C127 O119 1.284 . S
C127 O128 1.273 . S
O128 C127 1.273 . S
O129 Zn120 1.977 . S
O129 C122 1.267 . S
C130 O131 1.160 . S
C130 O137 1.185 . S
O131 C130 1.160 . S
O132 Zn133 1.899 . S
O132 C140 1.284 . S
Zn133 O132 1.899 . S
Zn133 O134 2.032 . S
Zn133 O137 2.086 . S
Zn133 O142 1.977 . S
O134 Zn133 2.032 . S
O134 C138 1.278 . S
C135 O136 1.203 . S
C135 O142 1.267 . S
O136 C135 1.203 . S
O137 C130 1.185 . S
O137 Zn133 2.086 . S
C138 O134 1.278 . S
C138 O139 1.211 . S
O139 C138 1.211 . S
C140 O132 1.284 . S
C140 O141 1.273 . S
O141 C140 1.273 . S
O142 Zn133 1.977 . S
O142 C135 1.267 . S
C143 O144 1.160 . S
C143 O150 1.185 . S
O144 C143 1.160 . S
O145 Zn146 1.899 . S
O145 C153 1.284 . S
Zn146 O145 1.899 . S
Zn146 O147 2.032 . S
Zn146 O150 2.086 . S
Zn146 O155 1.977 . S
O147 Zn146 2.032 . S
O147 C151 1.278 . S
C148 O149 1.203 . S
C148 O155 1.267 . S
O149 C148 1.203 . S
O150 C143 1.185 . S
O150 Zn146 2.086 . S
C151 O147 1.278 . S
C151 O152 1.211 . S
O152 C151 1.211 . S
C153 O145 1.284 . S
C153 O154 1.273 . S
O154 C153 1.273 . S
O155 Zn146 1.977 . S
O155 C148 1.267 . S
C156 O157 1.160 . S
C156 O163 1.185 . S
O157 C156 1.160 . S
O158 Zn159 1.899 . S
O158 C166 1.284 . S
Zn159 O158 1.899 . S
Zn159 O160 2.032 . S
Zn159 O163 2.086 . S
Zn159 O168 1.977 . S
O160 Zn159 2.032 . S
O160 C164 1.278 . S
C161 O162 1.203 . S
C161 O168 1.267 . S
O162 C161 1.203 . S
O163 C156 1.185 . S
O163 Zn159 2.086 . S
C164 O160 1.278 . S
C164 O165 1.211 . S
O165 C164 1.211 . S
C166 O158 1.284 . S
C166 O167 1.273 . S
O167 C166 1.273 . S
O168 Zn159 1.977 . S
O168 C161 1.267 . S
C169 O170 1.160 . S
C169 O176 1.185 . S
O170 C169 1.160 . S
O171 Zn172 1.899 . S
O171 C179 1.284 . S
Zn172 O171 1.899 . S
Zn172 O173 2.032 . S
Zn172 O176 2.086 . S
Zn172 O181 1.977 . S
O173 Zn172 2.032 . S
O173 C177 1.278 . S
C174 O175 1.203 . S
C174 O181 1.267 . S
O175 C174 1.203 . S
O176 C169 1.185 . S
O176 Zn172 2.086 . S
C177 O173 1.278 . S
C177 O178 1.211 . S
O178 C177 1.211 . S
C179 O171 1.284 . S
C179 O180 1.273 . S
O180 C179 1.273 . S
O181 Zn172 1.977 . S
O181 C174 1.267 . S
C182 O183 1.160 . S
C182 O189 1.185 . S
O183 C182 1.160 . S
O184 Zn185 1.899 . S
O184 C192 1.284 . S
Zn185 O184 1.899 . S
Zn185 O186 2.032 . S
Zn185 O189 2.086 . S
Zn185 O194 1.977 . S
O186 Zn185 2.032 . S
O186 C190 1.278 . S
C187 O188 1.203 . S
C187 O194 1.267 . S
O188 C187 1.203 . S
O189 C182 1.185 . S
O189 Zn185 2.086 . S
C190 O186 1.278 . S
C190 O191 1.211 . S
O191 C190 1.211 . S
C192 O184 1.284 . S
C192 O193 1.273 . S
O193 C192 1.273 . S
O194 Zn185 1.977 . S
O194 C187 1.267 . S
C195 O196 1.160 . S
C195 O202 1.185 . S
O196 C195 1.160 . S
O197 Zn198 1.899 . S
O197 C205 1.284 . S
Zn198 O197 1.899 . S
Zn198 O199 2.032 . S
Zn198 O202 2.086 . S
Zn198 O207 1.977 . S
O199 Zn198 2.032 . S
O199 C203 1.278 . S
C200 O201 1.203 . S
C200 O207 1.267 . S
O201 C200 1.203 . S
O202 C195 1.185 . S
O202 Zn198 2.086 . S
C203 O199 1.278 . S
C203 O204 1.211 . S
O204 C203 1.211 . S
C205 O197 1.284 . S
C205 O206 1.273 . S
O206 C205 1.273 . S
O207 Zn198 1.977 . S
O207 C200 1.267 . S
C208 C209 1.363 . S
C208 C214 1.379 1_455 S
C208 N216 1.356 . S
C209 C208 1.363 . S
C209 C215 1.363 . S
C210 C211 1.363 . S
C210 C215 1.379 1_655 S
C210 N217 1.356 . S
C211 C210 1.363 . S
C211 C214 1.363 . S
N212 C214 1.356 . S
N212 H224 0.984 1_554 S
N212 H225 0.985 . S
N213 C215 1.356 . S
N213 H218 0.984 . S
N213 H219 0.985 . S
C214 C208 1.379 1_655 S
C214 C211 1.363 . S
C214 N212 1.356 . S
C215 C209 1.363 . S
C215 C210 1.379 1_455 S
C215 N213 1.356 . S
N216 C208 1.356 . S
N216 H222 0.984 1_554 S
N216 H223 0.984 . S
N217 C210 1.356 . S
N217 H220 0.984 . S
N217 H221 0.985 . S
H218 N213 0.984 . S
H219 N213 0.985 . S
H220 N217 0.984 . S
H221 N217 0.985 . S
H222 N216 0.984 1_556 S
H223 N216 0.984 . S
H224 N212 0.984 1_556 S
H225 N212 0.985 . S
C226 C227 1.363 . S
C226 C232 1.379 1_655 S
C226 N234 1.356 . S
C227 C226 1.363 . S
C227 C233 1.363 . S
C228 C229 1.363 . S
C228 C233 1.379 1_455 S
C228 N235 1.356 . S
C229 C228 1.363 . S
C229 C232 1.363 . S
N230 C232 1.356 . S
N230 H242 0.984 . S
N230 H243 0.985 . S
N231 C233 1.356 . S
N231 H236 0.984 . S
N231 H237 0.985 . S
C232 C226 1.379 1_455 S
C232 C229 1.363 . S
C232 N230 1.356 . S
C233 C227 1.363 . S
C233 C228 1.379 1_655 S
C233 N231 1.356 . S
N234 C226 1.356 . S
N234 H240 0.984 . S
N234 H241 0.984 . S
N235 C228 1.356 . S
N235 H238 0.984 . S
N235 H239 0.985 . S
H236 N231 0.984 . S
H237 N231 0.985 . S
H238 N235 0.984 . S
H239 N235 0.985 . S
H240 N234 0.984 . S
H241 N234 0.984 . S
H242 N230 0.984 . S
H243 N230 0.985 . S
C244 C245 1.363 . S
C244 C250 1.379 1_655 S
C244 N252 1.356 . S
C245 C244 1.363 . S
C245 C251 1.363 . S
C246 C247 1.363 . S
C246 C251 1.379 1_455 S
C246 N253 1.356 . S
C247 C246 1.363 . S
C247 C250 1.363 . S
N248 C250 1.356 . S
N248 H260 0.984 . S
N248 H261 0.985 . S
N249 C251 1.356 . S
N249 H254 0.984 . S
N249 H255 0.985 1_556 S
C250 C244 1.379 1_455 S
C250 C247 1.363 . S
C250 N248 1.356 . S
C251 C245 1.363 . S
C251 C246 1.379 1_655 S
C251 N249 1.356 . S
N252 C244 1.356 . S
N252 H258 0.984 . S
N252 H259 0.984 . S
N253 C246 1.356 . S
N253 H256 0.984 . S
N253 H257 0.985 1_556 S
H254 N249 0.984 . S
H255 N249 0.985 1_554 S
H256 N253 0.984 . S
H257 N253 0.985 1_554 S
H258 N252 0.984 . S
H259 N252 0.984 . S
H260 N248 0.984 . S
H261 N248 0.985 . S
C262 C263 1.363 . S
C262 C268 1.379 1_455 S
C262 N270 1.356 . S
C263 C262 1.363 . S
C263 C269 1.363 . S
C264 C265 1.363 . S
C264 C269 1.379 1_655 S
C264 N271 1.356 . S
C265 C264 1.363 . S
C265 C268 1.363 . S
N266 C268 1.356 . S
N266 H278 0.984 . S
N266 H279 0.985 . S
N267 C269 1.356 . S
N267 H272 0.984 . S
N267 H273 0.985 . S
C268 C262 1.379 1_655 S
C268 C265 1.363 . S
C268 N266 1.356 . S
C269 C263 1.363 . S
C269 C264 1.379 1_455 S
C269 N267 1.356 . S
N270 C262 1.356 . S
N270 H276 0.984 . S
N270 H277 0.984 . S
N271 C264 1.356 . S
N271 H274 0.984 . S
N271 H275 0.985 . S
H272 N267 0.984 . S
H273 N267 0.985 . S
H274 N271 0.984 . S
H275 N271 0.985 . S
H276 N270 0.984 . S
H277 N270 0.984 . S
H278 N266 0.984 . S
H279 N266 0.985 . S
C280 C281 1.363 . S
C280 C286 1.379 . S
C280 N288 1.356 . S
C281 C280 1.363 . S
C281 C287 1.363 . S
C282 C283 1.363 . S
C282 C287 1.379 . S
C282 N289 1.356 . S
C283 C282 1.363 . S
C283 C286 1.363 . S
N284 C286 1.356 . S
N284 H296 0.984 . S
N284 H297 0.985 . S
N285 C287 1.356 . S
N285 H290 0.984 . S
N285 H291 0.985 1_554 S
C286 C280 1.379 . S
C286 C283 1.363 . S
C286 N284 1.356 . S
C287 C281 1.363 . S
C287 C282 1.379 . S
C287 N285 1.356 . S
N288 C280 1.356 . S
N288 H294 0.984 . S
N288 H295 0.984 . S
N289 C282 1.356 . S
N289 H292 0.984 . S
N289 H293 0.985 1_554 S
H290 N285 0.984 . S
H291 N285 0.985 1_556 S
H292 N289 0.984 . S
H293 N289 0.985 1_556 S
H294 N288 0.984 . S
H295 N288 0.984 . S
H296 N284 0.984 . S
H297 N284 0.985 . S
C298 C299 1.363 . S
C298 C304 1.379 . S
C298 N306 1.356 . S
C299 C298 1.363 . S
C299 C305 1.363 . S
C300 C301 1.363 . S
C300 C305 1.379 . S
C300 N307 1.356 . S
C301 C300 1.363 . S
C301 C304 1.363 . S
N302 C304 1.356 . S
N302 H314 0.984 . S
N302 H315 0.985 . S
N303 C305 1.356 . S
N303 H308 0.984 . S
N303 H309 0.985 . S
C304 C298 1.379 . S
C304 C301 1.363 . S
C304 N302 1.356 . S
C305 C299 1.363 . S
C305 C300 1.379 . S
C305 N303 1.356 . S
N306 C298 1.356 . S
N306 H312 0.984 . S
N306 H313 0.984 . S
N307 C300 1.356 . S
N307 H310 0.984 . S
N307 H311 0.985 . S
H308 N303 0.984 . S
H309 N303 0.985 . S
H310 N307 0.984 . S
H311 N307 0.985 . S
H312 N306 0.984 . S
H313 N306 0.984 . S
H314 N302 0.984 . S
H315 N302 0.985 . S
C316 C317 1.363 . S
C316 C322 1.379 . S
C316 N324 1.356 . S
C317 C316 1.363 . S
C317 C323 1.363 . S
C318 C319 1.363 . S
C318 C323 1.379 . S
C318 N325 1.356 . S
C319 C318 1.363 . S
C319 C322 1.363 . S
N320 C322 1.356 . S
N320 H332 0.984 . S
N320 H333 0.985 . S
N321 C323 1.356 . S
N321 H326 0.984 . S
N321 H327 0.985 . S
C322 C316 1.379 . S
C322 C319 1.363 . S
C322 N320 1.356 . S
C323 C317 1.363 . S
C323 C318 1.379 . S
C323 N321 1.356 . S
N324 C316 1.356 . S
N324 H330 0.984 . S
N324 H331 0.984 . S
N325 C318 1.356 . S
N325 H328 0.984 . S
N325 H329 0.985 . S
H326 N321 0.984 . S
H327 N321 0.985 . S
H328 N325 0.984 . S
H329 N325 0.985 . S
H330 N324 0.984 . S
H331 N324 0.984 . S
H332 N320 0.984 . S
H333 N320 0.985 . S
C334 C335 1.363 . S
C334 C340 1.379 . S
C334 N342 1.356 . S
C335 C334 1.363 . S
C335 C341 1.363 . S
C336 C337 1.363 . S
C336 C341 1.379 . S
C336 N343 1.356 . S
C337 C336 1.363 . S
C337 C340 1.363 . S
N338 C340 1.356 . S
N338 H350 0.984 . S
N338 H351 0.985 . S
N339 C341 1.356 . S
N339 H344 0.984 . S
N339 H345 0.985 . S
C340 C334 1.379 . S
C340 C337 1.363 . S
C340 N338 1.356 . S
C341 C335 1.363 . S
C341 C336 1.379 . S
C341 N339 1.356 . S
N342 C334 1.356 . S
N342 H348 0.984 . S
N342 H349 0.984 . S
N343 C336 1.356 . S
N343 H346 0.984 . S
N343 H347 0.985 . S
H344 N339 0.984 . S
H345 N339 0.985 . S
H346 N343 0.984 . S
H347 N343 0.985 . S
H348 N342 0.984 . S
H349 N342 0.984 . S
H350 N338 0.984 . S
H351 N338 0.985 . S
C352 C353 1.363 . S
C352 C358 1.379 . S
C352 N360 1.356 . S
C353 C352 1.363 . S
C353 C359 1.363 . S
C354 C355 1.363 . S
C354 C359 1.379 . S
C354 N361 1.356 . S
C355 C354 1.363 . S
C355 C358 1.363 . S
N356 C358 1.356 . S
N356 H368 0.984 . S
N356 H369 0.985 . S
N357 C359 1.356 . S
N357 H362 0.984 . S
N357 H363 0.985 . S
C358 C352 1.379 . S
C358 C355 1.363 . S
C358 N356 1.356 . S
C359 C353 1.363 . S
C359 C354 1.379 . S
C359 N357 1.356 . S
N360 C352 1.356 . S
N360 H366 0.984 . S
N360 H367 0.984 . S
N361 C354 1.356 . S
N361 H364 0.984 . S
N361 H365 0.985 . S
H362 N357 0.984 . S
H363 N357 0.985 . S
H364 N361 0.984 . S
H365 N361 0.985 . S
H366 N360 0.984 . S
H367 N360 0.984 . S
H368 N356 0.984 . S
H369 N356 0.985 . S
C370 C371 1.363 . S
C370 C376 1.379 . S
C370 N378 1.356 . S
C371 C370 1.363 . S
C371 C377 1.363 . S
C372 C373 1.363 . S
C372 C377 1.379 . S
C372 N379 1.356 . S
C373 C372 1.363 . S
C373 C376 1.363 . S
N374 C376 1.356 . S
N374 H386 0.984 . S
N374 H387 0.985 . S
N375 C377 1.356 . S
N375 H380 0.984 . S
N375 H381 0.985 . S
C376 C370 1.379 . S
C376 C373 1.363 . S
C376 N374 1.356 . S
C377 C371 1.363 . S
C377 C372 1.379 . S
C377 N375 1.356 . S
N378 C370 1.356 . S
N378 H384 0.984 . S
N378 H385 0.984 . S
N379 C372 1.356 . S
N379 H382 0.984 . S
N379 H383 0.985 . S
H380 N375 0.984 . S
H381 N375 0.985 . S
H382 N379 0.984 . S
H383 N379 0.985 . S
H384 N378 0.984 . S
H385 N378 0.984 . S
H386 N374 0.984 . S
H387 N374 0.985 . S
C388 C389 1.363 . S
C388 C394 1.379 . S
C388 N396 1.356 . S
C389 C388 1.363 . S
C389 C395 1.363 . S
C390 C391 1.363 . S
C390 C395 1.379 . S
C390 N397 1.356 . S
C391 C390 1.363 . S
C391 C394 1.363 . S
N392 C394 1.356 . S
N392 H404 0.984 . S
N392 H405 0.985 . S
N393 C395 1.356 . S
N393 H398 0.984 . S
N393 H399 0.985 . S
C394 C388 1.379 . S
C394 C391 1.363 . S
C394 N392 1.356 . S
C395 C389 1.363 . S
C395 C390 1.379 . S
C395 N393 1.356 . S
N396 C388 1.356 . S
N396 H402 0.984 . S
N396 H403 0.984 . S
N397 C390 1.356 . S
N397 H400 0.984 . S
N397 H401 0.985 . S
H398 N393 0.984 . S
H399 N393 0.985 . S
H400 N397 0.984 . S
H401 N397 0.985 . S
H402 N396 0.984 . S
H403 N396 0.984 . S
H404 N392 0.984 . S
H405 N392 0.985 . S
C406 C407 1.363 . S
C406 C412 1.379 . S
C406 N414 1.356 . S
C407 C406 1.363 . S
C407 C413 1.363 . S
C408 C409 1.363 . S
C408 C413 1.379 . S
C408 N415 1.356 . S
C409 C408 1.363 . S
C409 C412 1.363 . S
N410 C412 1.356 . S
N410 H422 0.984 . S
N410 H423 0.985 . S
N411 C413 1.356 . S
N411 H416 0.984 . S
N411 H417 0.985 . S
C412 C406 1.379 . S
C412 C409 1.363 . S
C412 N410 1.356 . S
C413 C407 1.363 . S
C413 C408 1.379 . S
C413 N411 1.356 . S
N414 C406 1.356 . S
N414 H420 0.984 . S
N414 H421 0.984 . S
N415 C408 1.356 . S
N415 H418 0.984 . S
N415 H419 0.985 . S
H416 N411 0.984 . S
H417 N411 0.985 . S
H418 N415 0.984 . S
H419 N415 0.985 . S
H420 N414 0.984 . S
H421 N414 0.984 . S
H422 N410 0.984 . S
H423 N410 0.985 . S
C424 C425 1.363 . S
C424 C430 1.379 . S
C424 N432 1.356 . S
C425 C424 1.363 . S
C425 C431 1.363 . S
C426 C427 1.363 . S
C426 C431 1.379 . S
C426 N433 1.356 . S
C427 C426 1.363 . S
C427 C430 1.363 . S
N428 C430 1.356 . S
N428 H440 0.984 . S
N428 H441 0.985 . S
N429 C431 1.356 . S
N429 H434 0.984 . S
N429 H435 0.985 . S
C430 C424 1.379 . S
C430 C427 1.363 . S
C430 N428 1.356 . S
C431 C425 1.363 . S
C431 C426 1.379 . S
C431 N429 1.356 . S
N432 C424 1.356 . S
N432 H438 0.984 . S
N432 H439 0.984 . S
N433 C426 1.356 . S
N433 H436 0.984 . S
N433 H437 0.985 . S
H434 N429 0.984 . S
H435 N429 0.985 . S
H436 N433 0.984 . S
H437 N433 0.985 . S
H438 N432 0.984 . S
H439 N432 0.984 . S
H440 N428 0.984 . S
H441 N428 0.985 . S
C442 C443 1.363 . S
C442 C448 1.379 . S
C442 N450 1.356 . S
C443 C442 1.363 . S
C443 C449 1.363 . S
C444 C445 1.363 . S
C444 C449 1.379 . S
C444 N451 1.356 . S
C445 C444 1.363 . S
C445 C448 1.363 . S
N446 C448 1.356 . S
N446 H458 0.984 . S
N446 H459 0.985 . S
N447 C449 1.356 . S
N447 H452 0.984 . S
N447 H453 0.985 . S
C448 C442 1.379 . S
C448 C445 1.363 . S
C448 N446 1.356 . S
C449 C443 1.363 . S
C449 C444 1.379 . S
C449 N447 1.356 . S
N450 C442 1.356 . S
N450 H456 0.984 . S
N450 H457 0.984 . S
N451 C444 1.356 . S
N451 H454 0.984 . S
N451 H455 0.985 . S
H452 N447 0.984 . S
H453 N447 0.985 . S
H454 N451 0.984 . S
H455 N451 0.985 . S
H456 N450 0.984 . S
H457 N450 0.984 . S
H458 N446 0.984 . S
H459 N446 0.985 . S
C460 C461 1.363 . S
C460 C466 1.379 . S
C460 N468 1.356 . S
C461 C460 1.363 . S
C461 C467 1.363 . S
C462 C463 1.363 . S
C462 C467 1.379 . S
C462 N469 1.356 . S
C463 C462 1.363 . S
C463 C466 1.363 . S
N464 C466 1.356 . S
N464 H476 0.984 . S
N464 H477 0.985 . S
N465 C467 1.356 . S
N465 H470 0.984 . S
N465 H471 0.985 . S
C466 C460 1.379 . S
C466 C463 1.363 . S
C466 N464 1.356 . S
C467 C461 1.363 . S
C467 C462 1.379 . S
C467 N465 1.356 . S
N468 C460 1.356 . S
N468 H474 0.984 . S
N468 H475 0.984 . S
N469 C462 1.356 . S
N469 H472 0.984 . S
N469 H473 0.985 . S
H470 N465 0.984 . S
H471 N465 0.985 . S
H472 N469 0.984 . S
H473 N469 0.985 . S
H474 N468 0.984 . S
H475 N468 0.984 . S
H476 N464 0.984 . S
H477 N464 0.985 . S
C478 C479 1.363 . S
C478 C484 1.379 . S
C478 N486 1.356 . S
C479 C478 1.363 . S
C479 C485 1.363 . S
C480 C481 1.363 . S
C480 C485 1.379 . S
C480 N487 1.356 . S
C481 C480 1.363 . S
C481 C484 1.363 . S
N482 C484 1.356 . S
N482 H494 0.984 . S
N482 H495 0.985 . S
N483 C485 1.356 . S
N483 H488 0.984 . S
N483 H489 0.985 . S
C484 C478 1.379 . S
C484 C481 1.363 . S
C484 N482 1.356 . S
C485 C479 1.363 . S
C485 C480 1.379 . S
C485 N483 1.356 . S
N486 C478 1.356 . S
N486 H492 0.984 . S
N486 H493 0.984 . S
N487 C480 1.356 . S
N487 H490 0.984 . S
N487 H491 0.985 . S
H488 N483 0.984 . S
H489 N483 0.985 . S
H490 N487 0.984 . S
H491 N487 0.985 . S
H492 N486 0.984 . S
H493 N486 0.984 . S
H494 N482 0.984 . S
H495 N482 0.985 . S
C496 C497 1.363 1_554 S
C496 C502 1.379 . S
C496 N504 1.354 1_554 S
C497 C496 1.363 1_556 S
C497 C503 1.363 . S
C498 C499 1.363 1_556 S
C498 C503 1.379 . S
C498 N505 1.356 1_556 S
C499 C498 1.363 1_554 S
C499 C502 1.363 . S
N500 C502 1.356 . S
N500 H512 0.984 . S
N500 H513 0.985 . S
N501 C503 1.356 . S
N501 H506 0.984 . S
N501 H507 0.985 . S
C502 C496 1.379 . S
C502 C499 1.363 . S
C502 N500 1.356 . S
C503 C497 1.363 . S
C503 C498 1.379 . S
C503 N501 1.356 . S
N504 C496 1.354 1_556 S
N504 H510 0.972 1_556 S
N504 H511 1.000 . S
N505 C498 1.356 1_554 S
N505 H508 0.986 . S
N505 H509 0.983 1_554 S
H506 N501 0.984 . S
H507 N501 0.985 . S
H508 N505 0.986 . S
H509 N505 0.983 1_556 S
H510 N504 0.972 1_554 S
H511 N504 1.000 . S
H512 N500 0.984 . S
H513 N500 0.985 . S
C514 C515 1.363 . S
C514 C520 1.379 . S
C514 N522 1.356 . S
C515 C514 1.363 . S
C515 C521 1.363 . S
C516 C517 1.363 . S
C516 C521 1.379 . S
C516 N523 1.356 . S
C517 C516 1.363 . S
C517 C520 1.363 . S
N518 C520 1.356 . S
N518 H530 0.984 . S
N518 H531 0.985 . S
N519 C521 1.356 . S
N519 H524 0.984 . S
N519 H525 0.985 . S
C520 C514 1.379 . S
C520 C517 1.363 . S
C520 N518 1.356 . S
C521 C515 1.363 . S
C521 C516 1.379 . S
C521 N519 1.356 . S
N522 C514 1.356 . S
N522 H528 0.984 . S
N522 H529 0.984 . S
N523 C516 1.356 . S
N523 H526 0.984 . S
N523 H527 0.985 . S
H524 N519 0.984 . S
H525 N519 0.985 . S
H526 N523 0.984 . S
H527 N523 0.985 . S
H528 N522 0.984 . S
H529 N522 0.984 . S
H530 N518 0.984 . S
H531 N518 0.985 . S
C532 C533 1.363 1_556 S
C532 C538 1.379 . S
C532 N540 1.356 . S
C533 C532 1.363 1_554 S
C533 C539 1.363 . S
C534 C535 1.363 1_554 S
C534 C539 1.379 . S
C534 N541 1.356 . S
C535 C534 1.363 1_556 S
C535 C538 1.363 . S
N536 C538 1.356 . S
N536 H548 0.984 . S
N536 H549 0.985 . S
N537 C539 1.356 . S
N537 H542 0.984 . S
N537 H543 0.985 . S
C538 C532 1.379 . S
C538 C535 1.363 . S
C538 N536 1.356 . S
C539 C533 1.363 . S
C539 C534 1.379 . S
C539 N537 1.356 . S
N540 C532 1.356 . S
N540 H546 0.984 . S
N540 H547 0.985 1_556 S
N541 C534 1.356 . S
N541 H544 0.997 . S
N541 H545 0.985 . S
H542 N537 0.984 . S
H543 N537 0.985 . S
H544 N541 0.997 . S
H545 N541 0.985 . S
H546 N540 0.984 . S
H547 N540 0.985 1_554 S
H548 N536 0.984 . S
H549 N536 0.985 . S
C550 C551 1.363 . S
C550 C556 1.379 . S
C550 N558 1.356 . S
C551 C550 1.363 . S
C551 C557 1.363 . S
C552 C553 1.363 . S
C552 C557 1.379 . S
C552 N559 1.356 . S
C553 C552 1.363 . S
C553 C556 1.363 . S
N554 C556 1.356 . S
N554 H566 0.984 . S
N554 H567 0.985 . S
N555 C557 1.356 . S
N555 H560 0.984 . S
N555 H561 0.985 . S
C556 C550 1.379 . S
C556 C553 1.363 . S
C556 N554 1.356 . S
C557 C551 1.363 . S
C557 C552 1.379 . S
C557 N555 1.356 . S
N558 C550 1.356 . S
N558 H564 0.984 . S
N558 H565 0.984 . S
N559 C552 1.356 . S
N559 H562 0.984 . S
N559 H563 0.985 . S
H560 N555 0.984 . S
H561 N555 0.985 . S
H562 N559 0.984 . S
H563 N559 0.985 . S
H564 N558 0.984 . S
H565 N558 0.984 . S
H566 N554 0.984 . S
H567 N554 0.985 . S
C568 C569 1.363 . S
C568 C574 1.379 . S
C568 N576 1.356 . S
C569 C568 1.363 . S
C569 C575 1.363 1_554 S
C570 C571 1.363 . S
C570 C575 1.379 . S
C570 N577 1.356 . S
C571 C570 1.363 . S
C571 C574 1.363 1_556 S
N572 C574 1.356 . S
N572 H584 0.984 . S
N572 H585 0.985 1_554 S
N573 C575 1.356 . S
N573 H578 0.984 1_556 S
N573 H579 0.985 . S
C574 C568 1.379 . S
C574 C571 1.363 1_554 S
C574 N572 1.356 . S
C575 C569 1.363 1_556 S
C575 C570 1.379 . S
C575 N573 1.356 . S
N576 C568 1.356 . S
N576 H582 0.984 . S
N576 H583 0.984 . S
N577 C570 1.356 . S
N577 H580 0.984 . S
N577 H581 0.985 . S
H578 N573 0.984 1_554 S
H579 N573 0.985 . S
H580 N577 0.984 . S
H581 N577 0.985 . S
H582 N576 0.984 . S
H583 N576 0.984 . S
H584 N572 0.984 . S
H585 N572 0.985 1_556 S
C586 C587 1.363 . S
C586 C592 1.379 . S
C586 N594 1.356 . S
C587 C586 1.363 . S
C587 C593 1.363 . S
C588 C589 1.363 . S
C588 C593 1.379 . S
C588 N595 1.356 . S
C589 C588 1.363 . S
C589 C592 1.363 . S
N590 C592 1.356 . S
N590 H602 0.984 . S
N590 H603 0.985 . S
N591 C593 1.356 . S
N591 H596 0.984 . S
N591 H597 0.985 . S
C592 C586 1.379 . S
C592 C589 1.363 . S
C592 N590 1.356 . S
C593 C587 1.363 . S
C593 C588 1.379 . S
C593 N591 1.356 . S
N594 C586 1.356 . S
N594 H600 0.984 . S
N594 H601 0.984 . S
N595 C588 1.356 . S
N595 H598 0.984 . S
N595 H599 0.985 . S
H596 N591 0.984 . S
H597 N591 0.985 . S
H598 N595 0.984 . S
H599 N595 0.985 . S
H600 N594 0.984 . S
H601 N594 0.984 . S
H602 N590 0.984 . S
H603 N590 0.985 . S
C604 C605 1.363 1_556 S
C604 C610 1.379 . S
C604 N612 1.356 . S
C605 C604 1.363 1_554 S
C605 C611 1.363 . S
C606 C607 1.363 1_554 S
C606 C611 1.379 . S
C606 N613 1.356 . S
C607 C606 1.363 1_556 S
C607 C610 1.363 . S
N608 C610 1.356 . S
N608 H620 0.984 . S
N608 H621 0.985 . S
N609 C611 1.356 . S
N609 H614 0.984 . S
N609 H615 0.985 . S
C610 C604 1.379 . S
C610 C607 1.363 . S
C610 N608 1.356 . S
C611 C605 1.363 . S
C611 C606 1.379 . S
C611 N609 1.356 . S
N612 C604 1.356 . S
N612 H618 0.984 . S
N612 H619 0.984 1_556 S
N613 C606 1.356 . S
N613 H616 0.984 1_554 S
N613 H617 0.985 . S
H614 N609 0.984 . S
H615 N609 0.985 . S
H616 N613 0.984 1_556 S
H617 N613 0.985 . S
H618 N612 0.984 . S
H619 N612 0.984 1_554 S
H620 N608 0.984 . S
H621 N608 0.985 . S
C622 C623 1.363 . S
C622 C628 1.379 . S
C622 N630 1.356 . S
C623 C622 1.363 . S
C623 C629 1.363 . S
C624 C625 1.363 . S
C624 C629 1.379 . S
C624 N631 1.356 . S
C625 C624 1.363 . S
C625 C628 1.363 . S
N626 C628 1.356 . S
N626 H638 0.984 . S
N626 H639 0.985 . S
N627 C629 1.356 . S
N627 H632 0.984 . S
N627 H633 0.985 . S
C628 C622 1.379 . S
C628 C625 1.363 . S
C628 N626 1.356 . S
C629 C623 1.363 . S
C629 C624 1.379 . S
C629 N627 1.356 . S
N630 C622 1.356 . S
N630 H636 0.984 . S
N630 H637 0.984 . S
N631 C624 1.356 . S
N631 H634 0.984 . S
N631 H635 0.985 . S
H632 N627 0.984 . S
H633 N627 0.985 . S
H634 N631 0.984 . S
H635 N631 0.985 . S
H636 N630 0.984 . S
H637 N630 0.984 . S
H638 N626 0.984 . S
H639 N626 0.985 . S
C640 C641 1.363 . S
C640 C646 1.379 1_556 S
C640 N648 1.356 . S
C641 C640 1.363 . S
C641 C647 1.363 . S
C642 C643 1.363 . S
C642 C647 1.379 1_554 S
C642 N649 1.356 . S
C643 C642 1.363 . S
C643 C646 1.363 . S
N644 C646 1.356 . S
N644 H656 0.984 . S
N644 H657 0.985 . S
N645 C647 1.356 . S
N645 H650 0.984 . S
N645 H651 0.985 . S
C646 C640 1.379 1_554 S
C646 C643 1.363 . S
C646 N644 1.356 . S
C647 C641 1.363 . S
C647 C642 1.379 1_556 S
C647 N645 1.356 . S
N648 C640 1.356 . S
N648 H654 0.984 . S
N648 H655 0.984 . S
N649 C642 1.356 . S
N649 H652 0.984 . S
N649 H653 0.985 . S
H650 N645 0.984 . S
H651 N645 0.985 . S
H652 N649 0.984 . S
H653 N649 0.985 . S
H654 N648 0.984 . S
H655 N648 0.984 . S
H656 N644 0.984 . S
H657 N644 0.985 . S
C658 C659 1.363 . S
C658 C664 1.379 . S
C658 N666 1.356 . S
C659 C658 1.363 . S
C659 C665 1.363 . S
C660 C661 1.363 . S
C660 C665 1.379 . S
C660 N667 1.356 . S
C661 C660 1.363 . S
C661 C664 1.363 . S
N662 C664 1.356 . S
N662 H674 0.984 . S
N662 H675 0.985 . S
N663 C665 1.356 . S
N663 H668 0.984 . S
N663 H669 0.985 . S
C664 C658 1.379 . S
C664 C661 1.363 . S
C664 N662 1.356 . S
C665 C659 1.363 . S
C665 C660 1.379 . S
C665 N663 1.356 . S
N666 C658 1.356 . S
N666 H672 0.984 . S
N666 H673 0.984 . S
N667 C660 1.356 . S
N667 H670 0.984 . S
N667 H671 0.985 . S
H668 N663 0.984 . S
H669 N663 0.985 . S
H670 N667 0.984 . S
H671 N667 0.985 . S
H672 N666 0.984 . S
H673 N666 0.984 . S
H674 N662 0.984 . S
H675 N662 0.985 . S
C676 C677 1.363 . S
C676 C682 1.379 . S
C676 N684 1.356 . S
C677 C676 1.363 . S
C677 C683 1.363 1_554 S
C678 C679 1.363 . S
C678 C683 1.379 . S
C678 N685 1.356 . S
C679 C678 1.363 . S
C679 C682 1.363 1_556 S
N680 C682 1.356 . S
N680 H692 0.984 . S
N680 H693 0.985 . S
N681 C683 1.356 . S
N681 H686 0.984 . S
N681 H687 0.985 . S
C682 C676 1.379 . S
C682 C679 1.363 1_554 S
C682 N680 1.356 . S
C683 C677 1.363 1_556 S
C683 C678 1.379 . S
C683 N681 1.356 . S
N684 C676 1.356 . S
N684 H690 0.984 . S
N684 H691 0.984 . S
N685 C678 1.356 . S
N685 H688 0.984 . S
N685 H689 0.985 . S
H686 N681 0.984 . S
H687 N681 0.985 . S
H688 N685 0.984 . S
H689 N685 0.985 . S
H690 N684 0.984 . S
H691 N684 0.984 . S
H692 N680 0.984 . S
H693 N680 0.985 . S
C694 C695 1.363 . S
C694 C700 1.379 . S
C694 N702 1.356 . S
C695 C694 1.363 . S
C695 C701 1.363 . S
C696 C697 1.363 . S
C696 C701 1.379 . S
C696 N703 1.356 . S
C697 C696 1.363 . S
C697 C700 1.363 . S
N698 C700 1.356 . S
N698 H710 0.984 . S
N698 H711 0.985 . S
N699 C701 1.356 . S
N699 H704 0.984 . S
N699 H705 0.985 . S
C700 C694 1.379 . S
C700 C697 1.363 . S
C700 N698 1.356 . S
C701 C695 1.363 . S
C701 C696 1.379 . S
C701 N699 1.356 . S
N702 C694 1.356 . S
N702 H708 0.984 . S
N702 H709 0.984 . S
N703 C696 1.356 . S
N703 H706 0.984 . S
N703 H707 0.985 . S
H704 N699 0.984 . S
H705 N699 0.985 . S
H706 N703 0.984 . S
H707 N703 0.985 . S
H708 N702 0.984 . S
H709 N702 0.984 . S
H710 N698 0.984 . S
H711 N698 0.985 . S
C712 C713 1.363 1_554 S
C712 C718 1.379 1_545 S
C712 N720 1.356 . S
C713 C712 1.363 1_556 S
C713 C719 1.363 . S
C714 C715 1.363 1_556 S
C714 C719 1.379 1_565 S
C714 N721 1.356 . S
C715 C714 1.363 1_554 S
C715 C718 1.363 . S
N716 C718 1.356 . S
N716 H728 0.984 . S
N716 H729 0.985 . S
N717 C719 1.356 . S
N717 H722 0.984 . S
N717 H723 0.985 . S
C718 C712 1.379 1_565 S
C718 C715 1.363 . S
C718 N716 1.356 . S
C719 C713 1.363 . S
C719 C714 1.379 1_545 S
C719 N717 1.356 . S
N720 C712 1.356 . S
N720 H726 0.984 . S
N720 H727 0.984 1_554 S
N721 C714 1.356 . S
N721 H724 0.984 1_556 S
N721 H725 0.985 . S
H722 N717 0.984 . S
H723 N717 0.985 . S
H724 N721 0.984 1_554 S
H725 N721 0.985 . S
H726 N720 0.984 . S
H727 N720 0.984 1_556 S
H728 N716 0.984 . S
H729 N716 0.985 . S
C730 C731 1.386 . S
C730 C736 1.356 1_565 S
C730 N738 1.365 . S
C731 C730 1.386 . S
C731 C737 1.363 . S
C732 C733 1.386 . S
C732 C737 1.356 1_545 S
C732 N739 1.365 . S
C733 C732 1.386 . S
C733 C736 1.363 . S
N734 C736 1.356 . S
N734 H746 0.984 . S
N734 H747 0.985 . S
N735 C737 1.356 . S
N735 H740 0.984 . S
N735 H741 0.985 . S
C736 C730 1.356 1_545 S
C736 C733 1.363 . S
C736 N734 1.356 . S
C737 C731 1.363 . S
C737 C732 1.356 1_565 S
C737 N735 1.356 . S
N738 C730 1.365 . S
N738 H744 0.984 1_565 S
N738 H745 0.984 . S
N739 C732 1.365 . S
N739 H742 0.984 . S
N739 H743 0.985 1_545 S
H740 N735 0.984 . S
H741 N735 0.985 . S
H742 N739 0.984 . S
H743 N739 0.985 1_565 S
H744 N738 0.984 1_545 S
H745 N738 0.984 . S
H746 N734 0.984 . S
H747 N734 0.985 . S
C748 C749 1.363 . S
C748 C754 1.379 1_565 S
C748 N756 1.356 . S
C749 C748 1.363 . S
C749 C755 1.363 1_554 S
C750 C751 1.363 . S
C750 C755 1.379 1_545 S
C750 N757 1.356 . S
C751 C750 1.363 . S
C751 C754 1.363 1_556 S
N752 C754 1.356 . S
N752 H764 0.984 . S
N752 H765 0.985 . S
N753 C755 1.356 . S
N753 H758 0.984 . S
N753 H759 0.985 . S
C754 C748 1.379 1_545 S
C754 C751 1.363 1_554 S
C754 N752 1.356 . S
C755 C749 1.363 1_556 S
C755 C750 1.379 1_565 S
C755 N753 1.356 . S
N756 C748 1.356 . S
N756 H762 0.983 1_565 S
N756 H763 0.984 . S
N757 C750 1.356 . S
N757 H760 0.984 . S
N757 H761 0.983 1_545 S
H758 N753 0.984 . S
H759 N753 0.985 . S
H760 N757 0.984 . S
H761 N757 0.983 1_565 S
H762 N756 0.983 1_545 S
H763 N756 0.984 . S
H764 N752 0.984 . S
H765 N752 0.985 . S
C766 C767 1.363 . S
C766 C772 1.379 1_545 S
C766 N774 1.356 . S
C767 C766 1.363 . S
C767 C773 1.363 . S
C768 C769 1.363 . S
C768 C773 1.379 1_565 S
C768 N775 1.356 . S
C769 C768 1.363 . S
C769 C772 1.363 . S
N770 C772 1.356 . S
N770 H782 0.984 . S
N770 H783 0.985 . S
N771 C773 1.356 . S
N771 H776 0.984 . S
N771 H777 0.985 . S
C772 C766 1.379 1_565 S
C772 C769 1.363 . S
C772 N770 1.356 . S
C773 C767 1.363 . S
C773 C768 1.379 1_545 S
C773 N771 1.356 . S
N774 C766 1.356 . S
N774 H780 0.968 1_545 S
N774 H781 0.984 . S
N775 C768 1.356 . S
N775 H778 0.984 . S
N775 H779 0.968 1_565 S
H776 N771 0.984 . S
H777 N771 0.985 . S
H778 N775 0.984 . S
H779 N775 0.968 1_545 S
H780 N774 0.968 1_565 S
H781 N774 0.984 . S
H782 N770 0.984 . S
H783 N770 0.985 . S
C209 C5 1.433 . S
C211 C83 1.434 . S
C227 C18 1.433 . S
C229 C96 1.434 . S
C245 C57 1.434 . S
C247 C31 1.433 . S
C263 C70 1.434 . S
C265 C44 1.433 . S
C281 C187 1.434 . S
C283 C109 1.433 . S
C299 C200 1.434 . S
C301 C122 1.433 . S
C317 C135 1.433 . S
C319 C161 1.434 . S
C335 C148 1.433 . S
C337 C174 1.434 . S
C353 C10 1.436 . S
C355 C73 1.395 . S
C371 C23 1.436 . S
C373 C60 1.395 . S
C389 C36 1.436 . S
C391 C99 1.395 . S
C407 C86 1.395 . S
C409 C49 1.436 . S
C425 C177 1.395 . S
C427 C114 1.436 . S
C443 C164 1.395 . S
C445 C127 1.436 . S
C461 C140 1.436 . S
C463 C203 1.395 . S
C479 C190 1.395 . S
C481 C153 1.436 . S
C497 C156 1.335 . S
C499 C0 1.337 . S
C515 C13 1.337 . S
C517 C169 1.335 . S
C533 C182 1.335 . S
C535 C26 1.337 . S
C551 C195 1.335 . S
C553 C39 1.337 . S
C569 C104 1.337 . S
C571 C52 1.335 . S
C587 C117 1.337 . S
C589 C65 1.335 . S
C605 C78 1.335 . S
C607 C130 1.337 . S
C623 C91 1.335 . S
C625 C143 1.337 . S
C641 C34 1.389 . S
C643 C8 1.389 . S
C659 C21 1.389 . S
C661 C47 1.389 . S
C677 C88 1.429 . S
C679 C62 1.429 . S
C695 C75 1.429 . S
C697 C101 1.429 . S
C713 C138 1.389 . S
C715 C112 1.389 . S
C731 C151 1.389 . S
C733 C125 1.389 . S
C749 C192 1.429 . S
C751 C166 1.429 . S
C767 C205 1.429 . S
C769 C179 1.429 . S
