# Generated by pormake.
# Topology crs, (6)-cn, num edge types: 1
# Building blocks:
#     Node 0, Type 0, BuildingBlock: UKALOJ_clean_sbu_0, # of connection points: 6
#     Node 1, Type 0, BuildingBlock: UKALOJ_clean_sbu_0, # of connection points: 6
#     Node 2, Type 0, BuildingBlock: UKALOJ_clean_sbu_0, # of connection points: 6
#     Node 3, Type 0, BuildingBlock: UKALOJ_clean_sbu_0, # of connection points: 6
#     Node 4, Type 0, BuildingBlock: UKALOJ_clean_sbu_0, # of connection points: 6
#     Node 5, Type 0, BuildingBlock: UKALOJ_clean_sbu_0, # of connection points: 6
#     Node 6, Type 0, BuildingBlock: UKALOJ_clean_sbu_0, # of connection points: 6
#     Node 7, Type 0, BuildingBlock: UKALOJ_clean_sbu_0, # of connection points: 6
#     Node 8, Type 0, BuildingBlock: UKALOJ_clean_sbu_0, # of connection points: 6
#     Node 9, Type 0, BuildingBlock: UKALOJ_clean_sbu_0, # of connection points: 6
#     Node 10, Type 0, BuildingBlock: UKALOJ_clean_sbu_0, # of connection points: 6
#     Node 11, Type 0, BuildingBlock: UKALOJ_clean_sbu_0, # of connection points: 6
#     Node 12, Type 0, BuildingBlock: UKALOJ_clean_sbu_0, # of connection points: 6
#     Node 13, Type 0, BuildingBlock: UKALOJ_clean_sbu_0, # of connection points: 6
#     Node 14, Type 0, BuildingBlock: UKALOJ_clean_sbu_0, # of connection points: 6
#     Node 15, Type 0, BuildingBlock: UKALOJ_clean_sbu_0, # of connection points: 6
#     Edge 16, Type (0, 0), BuildingBlock: AJUNOK_clean_linker_0, # of connection points: 2
#     Edge 17, Type (0, 0), BuildingBlock: AJUNOK_clean_linker_0, # of connection points: 2
#     Edge 18, Type (0, 0), BuildingBlock: AJUNOK_clean_linker_0, # of connection points: 2
#     Edge 19, Type (0, 0), BuildingBlock: AJUNOK_clean_linker_0, # of connection points: 2
#     Edge 20, Type (0, 0), BuildingBlock: AJUNOK_clean_linker_0, # of connection points: 2
#     Edge 21, Type (0, 0), BuildingBlock: AJUNOK_clean_linker_0, # of connection points: 2
#     Edge 22, Type (0, 0), BuildingBlock: AJUNOK_clean_linker_0, # of connection points: 2
#     Edge 23, Type (0, 0), BuildingBlock: AJUNOK_clean_linker_0, # of connection points: 2
#     Edge 24, Type (0, 0), BuildingBlock: AJUNOK_clean_linker_0, # of connection points: 2
#     Edge 25, Type (0, 0), BuildingBlock: AJUNOK_clean_linker_0, # of connection points: 2
#     Edge 26, Type (0, 0), BuildingBlock: AJUNOK_clean_linker_0, # of connection points: 2
#     Edge 27, Type (0, 0), BuildingBlock: AJUNOK_clean_linker_0, # of connection points: 2
#     Edge 28, Type (0, 0), BuildingBlock: AJUNOK_clean_linker_0, # of connection points: 2
#     Edge 29, Type (0, 0), BuildingBlock: AJUNOK_clean_linker_0, # of connection points: 2
#     Edge 30, Type (0, 0), BuildingBlock: AJUNOK_clean_linker_0, # of connection points: 2
#     Edge 31, Type (0, 0), BuildingBlock: AJUNOK_clean_linker_0, # of connection points: 2
#     Edge 32, Type (0, 0), BuildingBlock: AJUNOK_clean_linker_0, # of connection points: 2
#     Edge 33, Type (0, 0), BuildingBlock: AJUNOK_clean_linker_0, # of connection points: 2
#     Edge 34, Type (0, 0), BuildingBlock: AJUNOK_clean_linker_0, # of connection points: 2
#     Edge 35, Type (0, 0), BuildingBlock: AJUNOK_clean_linker_0, # of connection points: 2
#     Edge 36, Type (0, 0), BuildingBlock: AJUNOK_clean_linker_0, # of connection points: 2
#     Edge 37, Type (0, 0), BuildingBlock: AJUNOK_clean_linker_0, # of connection points: 2
#     Edge 38, Type (0, 0), BuildingBlock: AJUNOK_clean_linker_0, # of connection points: 2
#     Edge 39, Type (0, 0), BuildingBlock: AJUNOK_clean_linker_0, # of connection points: 2
#     Edge 40, Type (0, 0), BuildingBlock: AJUNOK_clean_linker_0, # of connection points: 2
#     Edge 41, Type (0, 0), BuildingBlock: AJUNOK_clean_linker_0, # of connection points: 2
#     Edge 42, Type (0, 0), BuildingBlock: AJUNOK_clean_linker_0, # of connection points: 2
#     Edge 43, Type (0, 0), BuildingBlock: AJUNOK_clean_linker_0, # of connection points: 2
#     Edge 44, Type (0, 0), BuildingBlock: AJUNOK_clean_linker_0, # of connection points: 2
#     Edge 45, Type (0, 0), BuildingBlock: AJUNOK_clean_linker_0, # of connection points: 2
#     Edge 46, Type (0, 0), BuildingBlock: AJUNOK_clean_linker_0, # of connection points: 2
#     Edge 47, Type (0, 0), BuildingBlock: AJUNOK_clean_linker_0, # of connection points: 2
#     Edge 48, Type (0, 0), BuildingBlock: AJUNOK_clean_linker_0, # of connection points: 2
#     Edge 49, Type (0, 0), BuildingBlock: AJUNOK_clean_linker_0, # of connection points: 2
#     Edge 50, Type (0, 0), BuildingBlock: AJUNOK_clean_linker_0, # of connection points: 2
#     Edge 51, Type (0, 0), BuildingBlock: AJUNOK_clean_linker_0, # of connection points: 2
#     Edge 52, Type (0, 0), BuildingBlock: AJUNOK_clean_linker_0, # of connection points: 2
#     Edge 53, Type (0, 0), BuildingBlock: AJUNOK_clean_linker_0, # of connection points: 2
#     Edge 54, Type (0, 0), BuildingBlock: AJUNOK_clean_linker_0, # of connection points: 2
#     Edge 55, Type (0, 0), BuildingBlock: AJUNOK_clean_linker_0, # of connection points: 2
#     Edge 56, Type (0, 0), BuildingBlock: AJUNOK_clean_linker_0, # of connection points: 2
#     Edge 57, Type (0, 0), BuildingBlock: AJUNOK_clean_linker_0, # of connection points: 2
#     Edge 58, Type (0, 0), BuildingBlock: AJUNOK_clean_linker_0, # of connection points: 2
#     Edge 59, Type (0, 0), BuildingBlock: AJUNOK_clean_linker_0, # of connection points: 2
#     Edge 60, Type (0, 0), BuildingBlock: AJUNOK_clean_linker_0, # of connection points: 2
#     Edge 61, Type (0, 0), BuildingBlock: AJUNOK_clean_linker_0, # of connection points: 2
#     Edge 62, Type (0, 0), BuildingBlock: AJUNOK_clean_linker_0, # of connection points: 2
#     Edge 63, Type (0, 0), BuildingBlock: AJUNOK_clean_linker_0, # of connection points: 2
# Relax obj value: 0.564
# Max RMSD: 0.378
# Mean RMSD: 0.264
data_MOF--net-crs--node1-UKALOJ_clean_sbu_0--edge1-AJUNOK_clean_linker_0
_symmetry_space_group_name_H-M    P1
_symmetry_Int_Tables_number       1
_symmetry_cell_setting            triclinic
loop_
_symmetry_equiv_pos_as_xyz
'x, y, z'
_cell_length_a     35.710429
_cell_length_b     35.779483
_cell_length_c     30.328405
_cell_angle_alpha  85.448815
_cell_angle_beta   94.550805
_cell_angle_gamma 105.08582
loop_
_atom_site_label
_atom_site_type_symbol
_atom_site_fract_x
_atom_site_fract_y
_atom_site_fract_z
_atom_type_partial_charge
Zn0 Zn -0.01159 0.01318 0.01978 0.0
O1 O 0.02463 -0.00518 0.07033 0.0
C2 C 0.05915 0.07099 0.98251 0.0
Zn3 Zn 0.01862 -0.00744 0.96842 0.0
C4 C 0.05236 0.98105 0.06153 0.0
O5 O 0.0568 0.97629 0.02119 0.0
C6 C 0.95309 0.02453 0.92799 0.0
O7 O 0.97776 0.94072 0.9798 0.0
O8 O 0.94588 0.95982 0.02911 0.0
N9 N 0.04146 0.96593 0.92327 0.0
C10 C 0.02309 0.94031 0.89324 0.0
C11 C 0.08332 0.94244 0.89462 0.0
N12 N 0.07897 0.96739 0.92383 0.0
N13 N 0.04865 0.92552 0.87476 0.0
C14 C 0.98206 0.06559 0.09451 0.0
C15 C 0.92193 0.06442 0.08897 0.0
N16 N 0.96474 0.03965 0.06438 0.0
N17 N 0.92728 0.03874 0.06135 0.0
N18 N 0.95589 0.08151 0.11026 0.0
H19 H 0.0312 0.07779 0.14163 0.0
H20 H 0.0358 0.10935 0.09246 0.0
H21 H 0.04115 0.06067 0.09115 0.0
C22 C 0.02502 0.07878 0.10523 0.0
C23 C 0.9799 0.92556 0.88577 0.0
H24 H 0.97025 0.89741 0.90503 0.0
H25 H 0.97167 0.92031 0.85037 0.0
H26 H 0.96441 0.94593 0.89593 0.0
O27 O 0.98 0.01007 0.91772 0.0
O28 O 0.95107 0.03047 0.96839 0.0
C29 C 0.95027 0.93363 0.00549 0.0
O30 O 0.0324 0.06551 0.00939 0.0
O31 O 0.06011 0.04453 0.95752 0.0
Zn32 Zn 0.04861 0.26949 0.27865 0.0
O33 O 0.02601 0.22014 0.24119 0.0
C34 C 0.09535 0.30743 0.19994 0.0
Zn35 Zn 0.01666 0.30194 0.23009 0.0
C36 C 0.00424 0.22076 0.20608 0.0
O37 O -0.0043 0.25223 0.19256 0.0
C38 C 0.05749 0.34969 0.3065 0.0
O39 O 0.96837 0.28185 0.26938 0.0
O40 O -6e-05 0.25107 0.31801 0.0
N41 N 0.98467 0.33117 0.18762 0.0
C42 C 0.95612 0.34759 0.19577 0.0
C43 C 0.95755 0.34805 0.1256 0.0
N44 N 0.98565 0.3317 0.14396 0.0
N45 N 0.93849 0.35795 0.15752 0.0
C46 C 0.09647 0.21091 0.3151 0.0
C47 C 0.09221 0.21078 0.38486 0.0
N48 N 0.07765 0.23795 0.32186 0.0
N49 N 0.07527 0.23794 0.36527 0.0
N50 N 0.10581 0.19356 0.35402 0.0
H51 H 0.08413 0.16888 0.26606 0.0
H52 H 0.13326 0.19777 0.26906 0.0
H53 H 0.09551 0.2184 0.24323 0.0
C54 C 0.10258 0.19867 0.27061 0.0
C55 C 0.9457 0.35435 0.24095 0.0
H56 H 0.93478 0.38078 0.23968 0.0
H57 H 0.97083 0.35743 0.26531 0.0
H58 H 0.92225 0.3295 0.25255 0.0
O59 O 0.03752 0.35129 0.26994 0.0
O60 O 0.06881 0.31911 0.31747 0.0
C61 C 0.96893 0.26072 0.30492 0.0
O62 O 0.0971 0.28789 0.2368 0.0
O63 O 0.06523 0.31974 0.18946 0.0
Zn64 Zn 0.74517 0.28432 0.54545 0.0
O65 O 0.69098 0.2483 0.5295 0.0
C66 C 0.77151 0.21378 0.58366 0.0
Zn67 Zn 0.76624 0.25434 0.49482 0.0
C68 C 0.68346 0.22355 0.50041 0.0
O69 O 0.71082 0.21815 0.47933 0.0
C70 C 0.82648 0.31892 0.5371 0.0
O71 O 0.75417 0.29564 0.44648 0.0
O72 O 0.73328 0.32645 0.49505 0.0
N73 N 0.79099 0.23048 0.4494 0.0
C74 C 0.81893 0.24712 0.42131 0.0
C75 C 0.81002 0.18591 0.42025 0.0
N76 N 0.78532 0.19242 0.44844 0.0
N77 N 0.83109 0.21984 0.40268 0.0
C78 C 0.69626 0.28778 0.62373 0.0
C79 C 0.69754 0.34764 0.62325 0.0
N80 N 0.72008 0.30654 0.59211 0.0
N81 N 0.72101 0.34381 0.59205 0.0
N82 N 0.68226 0.31293 0.64402 0.0
H83 H 0.65199 0.23508 0.63717 0.0
H84 H 0.69854 0.23681 0.66449 0.0
H85 H 0.69045 0.22818 0.60669 0.0
C86 C 0.68372 0.24454 0.63291 0.0
C87 C 0.83731 0.28982 0.41475 0.0
H88 H 0.82133 0.30774 0.42955 0.0
H89 H 0.83899 0.29817 0.3788 0.0
H90 H 0.86754 0.2962 0.42961 0.0
O91 O 0.82072 0.29191 0.51069 0.0
O92 O 0.79896 0.32224 0.55925 0.0
C93 C 0.74072 0.32356 0.45519 0.0
O94 O 0.75859 0.2415 0.59462 0.0
O95 O 0.77765 0.21229 0.54328 0.0
Zn96 Zn 0.73656 0.01657 0.77388 0.0
O97 O 0.75073 0.07249 0.73869 0.0
C98 C 0.68296 -0.00918 0.69358 0.0
Zn99 Zn 0.76529 -0.00712 0.72358 0.0
C100 C 0.76986 0.07753 0.70394 0.0
O101 O 0.78104 0.04926 0.69132 0.0
C102 C 0.73347 0.93164 0.79319 0.0
O103 O 0.8172 0.00646 0.76674 0.0
O104 O 0.78897 0.03115 0.81484 0.0
N105 N 0.79288 0.97007 0.67847 0.0
C106 C 0.81726 0.94652 0.68453 0.0
C107 C 0.80217 0.95092 0.6153 0.0
N108 N 0.78374 0.9728 0.63535 0.0
N109 N 0.82346 0.93409 0.64542 0.0
C110 C 0.70112 0.06768 0.83131 0.0
C111 C 0.65404 0.02385 0.85683 0.0
N112 N 0.70436 0.03344 0.81847 0.0
N113 N 0.67523 0.00633 0.83483 0.0
N114 N 0.66932 0.06255 0.85524 0.0
H115 H 0.7596 0.10038 0.82063 0.0
H116 H 0.73108 0.12578 0.84805 0.0
H117 H 0.72246 0.11847 0.7895 0.0
C118 C 0.73033 0.10536 0.82209 0.0
C119 C 0.83338 0.9338 0.72877 0.0
H120 H 0.81714 0.93833 0.75642 0.0
H121 H 0.86393 0.95084 0.73404 0.0
H122 H 0.83328 0.90271 0.72949 0.0
O123 O 0.74894 0.93671 0.75623 0.0
O124 O 0.72389 0.95997 0.80786 0.0
C125 C 0.81903 0.02235 0.80332 0.0
O126 O 0.6846 0.00295 0.73211 0.0
O127 O 0.71262 0.98186 0.68116 0.0
Zn128 Zn 0.55828 0.78939 0.26975 0.0
O129 O 0.53653 0.73808 0.23631 0.0
C130 C 0.60244 0.83137 0.19282 0.0
Zn131 Zn 0.52486 0.81653 0.2181 0.0
C132 C 0.51518 0.73689 0.20066 0.0
O133 O 0.50786 0.76758 0.18288 0.0
C134 C 0.56677 0.86934 0.28646 0.0
O135 O 0.47808 0.79159 0.25807 0.0
O136 O 0.51362 0.77015 0.31156 0.0
N137 N 0.49053 0.84112 0.17545 0.0
C138 C 0.46028 0.85498 0.18308 0.0
C139 C 0.46447 0.85824 0.11298 0.0
N140 N 0.49326 0.84323 0.13192 0.0
N141 N 0.44342 0.86548 0.14459 0.0
C142 C 0.59064 0.72715 0.32489 0.0
C143 C 0.65045 0.75664 0.33407 0.0
N144 N 0.59431 0.7643 0.31007 0.0
N145 N 0.6314 0.78278 0.31661 0.0
N146 N 0.62553 0.72143 0.33933 0.0
H147 H 0.52905 0.70787 0.33358 0.0
H148 H 0.55567 0.6719 0.34944 0.0
H149 H 0.54593 0.68436 0.29205 0.0
C150 C 0.55314 0.69612 0.32514 0.0
C151 C 0.44741 0.85903 0.228 0.0
H152 H 0.42354 0.83334 0.2367 0.0
H153 H 0.43598 0.8851 0.22768 0.0
H154 H 0.47148 0.86125 0.25374 0.0
O155 O 0.54245 0.86625 0.25325 0.0
O156 O 0.57851 0.84016 0.30195 0.0
C157 C 0.48066 0.77297 0.29511 0.0
O158 O 0.60331 0.80935 0.22756 0.0
O159 O 0.57106 0.83966 0.17889 0.0
Zn160 Zn 0.2571 0.77941 0.5179 0.0
O161 O 0.21016 0.73016 0.52385 0.0
C162 C 0.31078 0.7399 0.56784 0.0
Zn163 Zn 0.28525 0.75056 0.47376 0.0
C164 C 0.21167 0.70091 0.50367 0.0
O165 O 0.24014 0.70241 0.4808 0.0
C166 C 0.3318 0.82802 0.48783 0.0
O167 O 0.25413 0.77095 0.41828 0.0
O168 O 0.22744 0.79933 0.46376 0.0
N169 N 0.30884 0.72118 0.43482 0.0
C170 C 0.32848 0.73338 0.39824 0.0
C171 C 0.33429 0.67646 0.41741 0.0
N172 N 0.31184 0.68555 0.44638 0.0
N173 N 0.34455 0.70583 0.38655 0.0
C174 C 0.21055 0.79878 0.58985 0.0
C175 C 0.21224 0.85797 0.57191 0.0
N176 N 0.23389 0.8101 0.55612 0.0
N177 N 0.23556 0.8471 0.54547 0.0
N178 N 0.19648 0.8282 0.6003 0.0
H179 H 0.17014 0.74291 0.59219 0.0
H180 H 0.19331 0.7575 0.64499 0.0
H181 H 0.22012 0.74184 0.60545 0.0
C182 C 0.19804 0.75789 0.60926 0.0
C183 C 0.33702 0.77412 0.37763 0.0
H184 H 0.31725 0.79055 0.38767 0.0
H185 H 0.33441 0.77378 0.34101 0.0
H186 H 0.36738 0.78955 0.38745 0.0
O187 O 0.33223 0.79863 0.46761 0.0
O188 O 0.30345 0.8274 0.51067 0.0
C189 C 0.23119 0.79156 0.42463 0.0
O190 O 0.28707 0.75997 0.57273 0.0
O191 O 0.31522 0.73088 0.5293 0.0
Zn192 Zn 0.30275 0.58926 0.78744 0.0
O193 O 0.32093 0.63998 0.74631 0.0
C194 C 0.2486 0.55212 0.71545 0.0
Zn195 Zn 0.33082 0.56105 0.74218 0.0
C196 C 0.34132 0.64179 0.71332 0.0
O197 O 0.35127 0.6119 0.70418 0.0
C198 C 0.28832 0.50747 0.81302 0.0
O199 O 0.38191 0.57385 0.78368 0.0
O200 O 0.35472 0.60487 0.82613 0.0
N201 N 0.35227 0.53072 0.70098 0.0
C202 C 0.36927 0.50158 0.71135 0.0
C203 C 0.34793 0.49726 0.64373 0.0
N204 N 0.33938 0.52832 0.65882 0.0
N205 N 0.36609 0.47967 0.67637 0.0
C206 C 0.24894 0.63596 0.81651 0.0
C207 C 0.25223 0.62614 0.88678 0.0
N208 N 0.27656 0.61679 0.82699 0.0
N209 N 0.27895 0.61113 0.87072 0.0
N210 N 0.23328 0.64211 0.85335 0.0
H211 H 0.23125 0.67505 0.76662 0.0
H212 H 0.20427 0.62548 0.76417 0.0
H213 H 0.25279 0.64087 0.74491 0.0
C214 C 0.23381 0.64471 0.77026 0.0
C215 C 0.39131 0.49641 0.75469 0.0
H216 H 0.41375 0.52363 0.76066 0.0
H217 H 0.40636 0.47296 0.75462 0.0
H218 H 0.37163 0.49034 0.78229 0.0
O219 O 0.30803 0.50928 0.77956 0.0
O220 O 0.28423 0.53848 0.82712 0.0
C221 C 0.38398 0.59341 0.81746 0.0
O222 O 0.2499 0.57065 0.74965 0.0
O223 O 0.27983 0.54773 0.70237 0.0
Zn224 Zn 0.00961 0.51858 0.46651 0.0
O225 O 0.02897 0.48433 0.42306 0.0
C226 C 0.95849 0.44706 0.50536 0.0
Zn227 Zn 0.03883 0.49138 0.52147 0.0
C228 C 0.04793 0.4595 0.43605 0.0
O229 O 0.05736 0.4557 0.47733 0.0
C230 C -0.00107 0.55151 0.54884 0.0
O231 O 0.08994 0.53408 0.51304 0.0
O232 O 0.05998 0.56271 0.46074 0.0
N233 N 0.06595 0.46994 0.57495 0.0
C234 C 0.08783 0.48942 0.60821 0.0
C235 C 0.09587 0.4323 0.61376 0.0
N236 N 0.07056 0.43426 0.57871 0.0
N237 N 0.1065 0.46637 0.63323 0.0
C238 C 0.96204 0.53512 0.38161 0.0
C239 C 0.98065 0.59693 0.37513 0.0
N240 N -0.01165 0.54659 0.41495 0.0
N241 N 0.0003 0.58493 0.41066 0.0
N242 N 0.95701 0.56616 0.35589 0.0
H243 H 0.95589 0.47352 0.3894 0.0
H244 H 0.92726 0.48846 0.34295 0.0
H245 H 0.91306 0.48883 0.39839 0.0
C246 C 0.93833 0.49411 0.37756 0.0
C247 C 0.09513 0.5323 0.61408 0.0
H248 H 0.08402 0.5486 0.58617 0.0
H249 H 0.12674 0.54576 0.61911 0.0
H250 H 0.08135 0.53627 0.64428 0.0
O251 O 0.01813 0.52743 0.56419 0.0
O252 O -0.00993 0.55305 0.50768 0.0
C253 C 0.08979 0.56252 0.48582 0.0
O254 O 0.95762 0.47363 0.47498 0.0
O255 O -0.01094 0.44803 0.52992 0.0
Zn256 Zn 0.23337 0.2845 0.98157 0.0
O257 O 0.27583 0.33646 0.98986 0.0
C258 C 0.29417 0.24669 0.95417 0.0
Zn259 Zn 0.26123 0.25719 0.03749 0.0
C260 C 0.30426 0.33663 0.01731 0.0
O261 O 0.30474 0.30706 0.0425 0.0
C262 C 0.19045 0.20376 -0.00093 0.0
O263 O 0.22809 0.27657 0.08151 0.0
O264 O 0.19722 0.30193 0.02685 0.0
N265 N 0.28999 0.2365 0.08836 0.0
C266 C 0.27848 0.21209 0.12321 0.0
C267 C 0.34042 0.2267 0.12634 0.0
N268 N 0.32849 0.24619 0.09063 0.0
N269 N 0.30957 0.2057 0.14776 0.0
C270 C 0.22852 0.338 0.89911 0.0
C271 C 0.17021 0.34284 0.89713 0.0
N272 N 0.20991 0.3117 0.92957 0.0
N273 N 0.17347 0.31425 0.92783 0.0
N274 N 0.20435 0.35791 0.87851 0.0
H275 H 0.28431 0.37921 0.90343 0.0
H276 H 0.27693 0.34862 0.85802 0.0
H277 H 0.2874 0.33005 0.91276 0.0
C278 C 0.27167 0.34909 0.89351 0.0
C279 C 0.23704 0.19064 0.12998 0.0
H280 H 0.21679 0.20764 0.11537 0.0
H281 H 0.23226 0.18408 0.16574 0.0
H282 H 0.23042 0.16277 0.11368 0.0
O283 O 0.21637 0.20519 0.03076 0.0
O284 O 0.19105 0.23332 0.97286 0.0
C285 C 0.20224 0.29416 0.06837 0.0
O286 O 0.26975 0.26534 0.93828 0.0
O287 O 0.29559 0.23795 0.99542 0.0
Zn288 Zn 0.21932 -0.00577 0.28806 0.0
O289 O 0.24267 0.04988 0.26094 0.0
C290 C 0.17171 0.97253 0.20257 0.0
Zn291 Zn 0.25123 0.97294 0.23977 0.0
C292 C 0.26564 0.05627 0.22998 0.0
O293 O 0.27276 0.0281 0.21262 0.0
C294 C 0.20831 0.90985 0.30028 0.0
O295 O 0.30083 0.98324 0.28546 0.0
O296 O 0.26973 0.00346 0.33433 0.0
N297 N 0.279 0.95357 0.19444 0.0
C298 C 0.30316 0.93016 0.1972 0.0
C299 C 0.29827 0.95064 0.12944 0.0
N300 N 0.27574 0.966 0.15232 0.0
N301 N 0.3155 0.92786 0.15687 0.0
C302 C 0.17422 0.04839 0.32114 0.0
C303 C 0.17212 0.03386 0.39055 0.0
N304 N 0.1901 0.01799 0.32973 0.0
N305 N 0.18859 0.00889 0.37291 0.0
N306 N 0.16305 0.05894 0.3586 0.0
H307 H 0.17192 0.05082 0.24888 0.0
H308 H 0.1909 0.09632 0.27342 0.0
H309 H 0.13995 0.07425 0.27247 0.0
C310 C 0.16899 0.06809 0.27626 0.0
C311 C 0.31702 0.91207 0.23958 0.0
H312 H 0.30251 0.91754 0.26837 0.0
H313 H 0.34894 0.92363 0.24484 0.0
H314 H 0.31113 0.8803 0.23732 0.0
O315 O 0.23014 0.91713 0.26795 0.0
O316 O 0.19807 0.93743 0.31601 0.0
C317 C 0.30108 -0.0027 0.32278 0.0
O318 O 0.16987 0.98504 0.24028 0.0
O319 O 0.20279 0.96457 0.19403 0.0
Zn320 Zn 0.49622 0.22795 0.82154 0.0
O321 O 0.46472 0.18299 0.78214 0.0
C322 C 0.54649 0.26113 0.74516 0.0
Zn323 Zn 0.47007 0.26401 0.77125 0.0
C324 C 0.44325 0.18586 0.74724 0.0
O325 O 0.43906 0.21898 0.73299 0.0
C326 C 0.52372 0.3062 0.84446 0.0
O327 O 0.42223 0.25527 0.81158 0.0
O328 O 0.44643 0.2184 0.86176 0.0
N329 N 0.45353 0.30536 0.7308 0.0
C330 C 0.41985 0.31361 0.71622 0.0
C331 C 0.46574 0.36168 0.69619 0.0
N332 N 0.48192 0.33508 0.71774 0.0
N333 N 0.42674 0.3492 0.69485 0.0
C334 C 0.54505 0.16851 0.84581 0.0
C335 C 0.55421 0.16915 0.916 0.0
N336 N 0.52269 0.19008 0.85962 0.0
N337 N 0.52841 0.1903 0.90333 0.0
N338 N 0.56552 0.15562 0.88039 0.0
H339 H 0.52077 0.16183 0.77785 0.0
H340 H 0.54997 0.1293 0.7974 0.0
H341 H 0.57212 0.17938 0.78355 0.0
C342 C 0.54671 0.15922 0.79858 0.0
C343 C 0.38091 0.2858 0.7207 0.0
H344 H 0.38269 0.25587 0.71616 0.0
H345 H 0.35895 0.29372 0.69633 0.0
H346 H 0.3719 0.2864 0.75457 0.0
O347 O 0.50225 0.30914 0.80968 0.0
O348 O 0.52641 0.27303 0.86006 0.0
C349 C 0.41921 0.23451 0.84791 0.0
O350 O 0.54551 0.24081 0.78144 0.0
O351 O 0.51696 0.27288 0.7316 0.0
Zn352 Zn 0.00392 0.71572 0.74362 0.0
O353 O -0.00198 0.67152 0.69926 0.0
C354 C 0.05236 0.77163 0.67897 0.0
Zn355 Zn 0.97012 0.74376 0.69228 0.0
C356 C 0.9798 0.67027 0.66137 0.0
O357 O 0.96307 0.69717 0.64847 0.0
C358 C -0.00045 0.78966 0.77369 0.0
O359 O 0.92036 0.71215 0.7241 0.0
O360 O 0.95367 0.68381 0.77347 0.0
N361 N 0.93643 0.77347 0.65166 0.0
C362 C 0.91404 0.79573 0.66373 0.0
C363 C 0.91761 0.80489 0.59383 0.0
N364 N 0.93841 0.77911 0.60808 0.0
N365 N 0.90217 0.81578 0.62828 0.0
C366 C 0.07174 0.68354 0.78597 0.0
C367 C 0.05572 0.6691 0.85268 0.0
N368 N 0.0366 0.69021 0.78836 0.0
N369 N 0.02658 0.68104 0.82977 0.0
N370 N 0.0844 0.67066 0.82586 0.0
H371 H 0.07281 0.68441 0.71481 0.0
H372 H 0.11126 0.66734 0.74553 0.0
H373 H 0.11292 0.71805 0.74199 0.0
C374 C 0.09324 0.68846 0.74453 0.0
C375 C 0.90331 0.79835 0.7101 0.0
H376 H 0.87271 0.80018 0.70962 0.0
H377 H 0.92181 0.82527 0.72388 0.0
H378 H 0.90681 0.7734 0.73228 0.0
O379 O 0.98104 0.78983 0.73621 0.0
O380 O 0.01083 0.75981 0.78739 0.0
C381 C 0.92123 0.68871 0.75762 0.0
O382 O 0.05359 0.74922 0.71338 0.0
O383 O 0.01978 0.77436 0.66102 0.0
Zn384 Zn 0.72487 0.51523 0.26682 0.0
O385 O 0.72603 0.55951 0.21499 0.0
C386 C 0.66008 0.46289 0.21517 0.0
Zn387 Zn 0.74438 0.48055 0.22008 0.0
C388 C 0.73878 0.55756 0.17744 0.0
O389 O 0.74849 0.52705 0.16948 0.0
C390 C 0.73183 0.43999 0.31077 0.0
O391 O 0.80004 0.50828 0.24272 0.0
O392 O 0.78099 0.54343 0.28798 0.0
N393 N 0.76804 0.4505 0.17962 0.0
C394 C 0.79502 0.43026 0.18932 0.0
C395 C 0.78602 0.43442 0.11896 0.0
N396 N 0.76248 0.453 0.13585 0.0
N397 N 0.8064 0.41963 0.15196 0.0
C398 C 0.70499 0.58112 0.31308 0.0
C399 C 0.66191 0.54916 0.35596 0.0
N400 N 0.70209 0.54334 0.30907 0.0
N401 N 0.67571 0.52348 0.33628 0.0
N402 N 0.68018 0.58556 0.34229 0.0
H403 H 0.7566 0.606 0.27754 0.0
H404 H 0.73902 0.64021 0.30587 0.0
H405 H 0.71374 0.62069 0.25603 0.0
C406 C 0.73032 0.61384 0.28668 0.0
C407 C 0.8124 0.42289 0.23494 0.0
H408 H 0.84346 0.42327 0.23371 0.0
H409 H 0.79682 0.39372 0.24826 0.0
H410 H 0.81011 0.44433 0.2581 0.0
O411 O 0.74052 0.43505 0.27211 0.0
O412 O 0.72433 0.47165 0.3177 0.0
C413 C 0.80816 0.53427 0.27044 0.0
O414 O 0.6687 0.48701 0.24513 0.0
O415 O 0.68721 0.454 0.19688 0.0
Zn416 Zn 0.75508 0.7678 0.01222 0.0
O417 O 0.69609 0.74094 0.00846 0.0
C418 C 0.77048 0.69661 0.05654 0.0
Zn419 Zn 0.77001 0.73365 0.96279 0.0
C420 C 0.68743 0.71048 0.98717 0.0
O421 O 0.71184 0.70385 0.96262 0.0
C422 C 0.83895 0.78884 0.99428 0.0
O423 O 0.7578 0.77246 0.90859 0.0
O424 O 0.74735 0.80807 0.9591 0.0
N425 N 0.77821 0.69584 0.92045 0.0
C426 C 0.79818 0.70116 0.88376 0.0
C427 C 0.77724 0.64011 0.89713 0.0
N428 N 0.76487 0.65791 0.9285 0.0
N429 N 0.79773 0.66673 0.86839 0.0
C430 C 0.72481 0.80755 0.08281 0.0
C431 C 0.75987 0.86567 0.07416 0.0
N432 N 0.74999 0.80762 0.05247 0.0
N433 N 0.77201 0.84362 0.04731 0.0
N434 N 0.73062 0.84339 0.09694 0.0
H435 H 0.69978 0.74609 0.09136 0.0
H436 H 0.6659 0.77453 0.07365 0.0
H437 H 0.68511 0.77447 0.13023 0.0
C438 C 0.69215 0.77354 0.09543 0.0
C439 C 0.82102 0.73967 0.8649 0.0
H440 H 0.81932 0.76398 0.88417 0.0
H441 H 0.80979 0.74469 0.83038 0.0
H442 H 0.85192 0.73931 0.86373 0.0
O443 O 0.82959 0.76434 0.96473 0.0
O444 O 0.81342 0.79352 0.01811 0.0
C445 C 0.74927 0.80299 0.91852 0.0
O446 O 0.76078 0.72692 0.06513 0.0
O447 O 0.77994 0.69379 0.01752 0.0
Zn448 Zn 0.48752 0.04147 0.52777 0.0
O449 O 0.53084 0.03186 0.57933 0.0
C450 C 0.54038 0.10943 0.49123 0.0
Zn451 Zn 0.51806 0.02471 0.47598 0.0
C452 C 0.55876 0.01982 0.56704 0.0
O453 O 0.56006 0.01558 0.52613 0.0
C454 C 0.44507 0.03973 0.43623 0.0
O455 O 0.48987 0.96603 0.48121 0.0
O456 O 0.45956 0.9835 0.53319 0.0
N457 N 0.55428 0.01866 0.4319 0.0
C458 C 0.54975 -0.00313 0.39708 0.0
C459 C 0.60979 0.0269 0.4041 0.0
N460 N 0.59144 0.03777 0.43596 0.0
N461 N 0.58401 0.00181 0.37892 0.0
C462 C 0.45848 0.06987 0.60919 0.0
C463 C 0.39698 0.05167 0.5964 0.0
N464 N 0.45185 0.05063 0.57195 0.0
N465 N 0.41365 0.03908 0.5642 0.0
N466 N 0.42458 0.07047 0.62532 0.0
H467 H 0.50597 0.07232 0.65726 0.0
H468 H 0.49743 0.11866 0.64007 0.0
H469 H 0.5203 0.09466 0.60389 0.0
C470 C 0.49791 0.09021 0.62829 0.0
C471 C 0.51302 0.96744 0.38383 0.0
H472 H 0.48754 0.97177 0.39912 0.0
H473 H 0.51636 0.93795 0.3941 0.0
H474 H 0.50764 0.96907 0.3473 0.0
O475 O 0.47566 0.0318 0.42556 0.0
O476 O 0.44342 0.04784 0.47605 0.0
C477 C 0.46332 0.95801 0.50839 0.0
O478 O 0.51604 0.1014 0.52106 0.0
O479 O 0.54514 0.08251 0.46962 0.0
Zn480 Zn 0.49244 0.52951 0.05484 0.0
O481 O 0.51285 0.4985 0.1099 0.0
C482 C 0.5696 0.57822 0.04314 0.0
Zn483 Zn 0.52251 0.50424 0.00927 0.0
C484 C 0.53312 0.47556 0.1025 0.0
O485 O 0.54062 0.47261 0.06304 0.0
C486 C 0.48288 0.55807 0.961 0.0
O487 O 0.47419 0.45792 -0.00144 0.0
O488 O 0.44531 0.48333 0.04522 0.0
N489 N 0.55576 0.48326 0.97209 0.0
C490 C 0.54657 0.46091 0.93738 0.0
C491 C 0.60493 0.46204 0.9598 0.0
N492 N 0.59228 0.4846 0.98554 0.0
N493 N 0.57681 0.44709 0.92913 0.0
C494 C 0.47183 0.57251 0.12798 0.0
C495 C 0.41448 0.57569 0.1066 0.0
N496 N 0.4605 0.55044 0.09325 0.0
N497 N 0.42444 0.5515 0.0806 0.0
N498 N 0.44381 0.58928 0.13662 0.0
H499 H 0.52845 0.56116 0.14379 0.0
H500 H 0.51121 0.58427 0.18565 0.0
H501 H 0.52836 0.61167 0.13594 0.0
C502 C 0.51233 0.58266 0.14942 0.0
C503 C 0.50674 0.449 0.91478 0.0
H504 H 0.49096 0.42048 0.92969 0.0
H505 H 0.50866 0.44581 0.87903 0.0
H506 H 0.49011 0.47065 0.91821 0.0
O507 O 0.50458 0.53619 0.95478 0.0
O508 O 0.47264 0.55974 -0.00023 0.0
C509 C 0.44444 0.4573 0.01904 0.0
O510 O 0.53965 0.57806 0.06281 0.0
O511 O 0.56967 0.55014 0.02034 0.0
C512 C 0.98236 0.11528 0.17796 0.0
C513 C 0.96392 0.11541 0.13539 0.0
C514 C -0.00519 0.14938 0.20069 0.0
C515 C -0.01087 0.18493 0.1817 0.0
H516 H 0.98772 0.08867 0.19341 0.0
H517 H 0.00936 0.14783 0.23326 0.0
S518 S 0.94095 0.1998 0.07094 0.0
N519 N 0.93965 0.15318 0.07524 0.0
N520 N 0.96252 0.21747 0.1178 0.0
C521 C 0.96959 0.18504 0.13946 0.0
C522 C 0.95704 0.15022 0.11639 0.0
C523 C 0.86365 0.24037 0.33338 0.0
C524 C 0.86466 0.22587 0.37759 0.0
C525 C 0.89744 0.25081 0.30993 0.0
C526 C 0.9335 0.24753 0.33017 0.0
H527 H 0.83665 0.24427 0.31725 0.0
H528 H 0.89523 0.26181 0.27578 0.0
S529 S 0.95069 0.2116 0.44632 0.0
N530 N 0.90364 0.20874 0.44115 0.0
N531 N 0.96763 0.22852 0.39755 0.0
C532 C 0.93454 0.23248 0.37446 0.0
C533 C 0.89999 0.22168 0.3981 0.0
C534 C 0.75849 0.14392 0.68636 0.0
C535 C 0.77553 0.11462 0.6758 0.0
C536 C 0.75897 0.17677 0.65748 0.0
C537 C 0.7762 0.1817 0.61652 0.0
H538 H 0.74342 0.14095 0.71651 0.0
H539 H 0.74438 0.1977 0.66671 0.0
S540 S 0.82911 0.11606 0.57516 0.0
N541 N 0.81347 0.09481 0.62295 0.0
N542 N 0.81402 0.15611 0.56881 0.0
C543 C 0.79513 0.15368 0.60655 0.0
C544 C 0.79488 0.12034 0.63607 0.0
C545 C 0.91839 0.01382 0.85276 0.0
C546 C 0.92147 0.02954 0.89444 0.0
C547 C 0.88596 0.01297 0.82302 0.0
C548 C 0.85502 0.02776 0.83351 0.0
H549 H 0.94052 0.00068 0.84351 0.0
H550 H 0.88472 -0.00053 0.79206 0.0
S551 S 0.85054 0.07586 0.93646 0.0
N552 N 0.89193 0.06309 0.94316 0.0
N553 N 0.83119 0.06143 0.88748 0.0
C554 C 0.85857 0.04523 0.87421 0.0
C555 C 0.89165 0.04613 0.90454 0.0
C556 C 0.07898 -0.01321 0.14054 0.0
C557 C 0.08091 0.97429 0.09797 0.0
C558 C 0.10761 0.98483 0.17453 0.0
C559 C 0.13947 0.97019 0.1676 0.0
H560 H 0.05576 -0.0006 0.1475 0.0
H561 H 0.10524 -0.00399 0.20608 0.0
S562 S 0.15644 0.93019 0.06356 0.0
N563 N 0.1161 0.94429 0.05185 0.0
N564 N 0.16972 0.94033 0.11553 0.0
C565 C 0.14092 0.95602 0.12576 0.0
C566 C 0.11176 0.95814 0.09107 0.0
C567 C 0.04441 0.43904 0.35795 0.0
C568 C 0.05601 0.43381 0.40312 0.0
C569 C 0.04719 0.41307 0.32666 0.0
C570 C 0.06179 0.38047 0.3388 0.0
H571 H 0.03179 0.46283 0.34664 0.0
H572 H 0.03637 0.41792 0.29288 0.0
S573 S 0.09914 0.35486 0.45212 0.0
N574 N 0.08502 0.39455 0.45778 0.0
N575 N 0.09036 0.34586 0.39921 0.0
C576 C 0.0753 0.37585 0.38347 0.0
C577 C 0.07237 0.40238 0.41547 0.0
C578 C 0.6141 0.30889 0.65501 0.0
C579 C 0.65004 0.30327 0.6718 0.0
C580 C 0.58079 0.29455 0.67877 0.0
C581 C 0.58223 0.27408 0.72033 0.0
H582 H 0.6116 0.32339 0.62259 0.0
H583 H 0.55364 0.29939 0.66415 0.0
S584 S 0.67077 0.25414 0.77952 0.0
N585 N 0.68611 0.27758 0.73253 0.0
N586 N 0.62367 0.25082 0.77801 0.0
C587 C 0.61846 0.26907 0.73785 0.0
C588 C 0.65233 0.28366 0.7134 0.0
C589 C 0.72203 0.89345 0.86613 0.0
C590 C 0.73245 0.89551 0.82202 0.0
C591 C 0.72679 0.86304 0.89642 0.0
C592 C 0.74205 0.83303 0.88414 0.0
H593 H 0.71137 0.91628 0.87802 0.0
H594 H 0.71908 0.8636 0.93015 0.0
S595 S 0.77137 0.82289 0.77185 0.0
N596 N 0.75672 0.86323 0.76689 0.0
N597 N 0.76572 0.80629 0.82391 0.0
C598 C 0.75111 0.83374 0.83969 0.0
C599 C 0.74629 0.86483 0.80869 0.0
C600 C 0.18234 0.29063 0.14664 0.0
C601 C 0.1771 0.30271 0.10163 0.0
C602 C 0.15713 0.29429 0.17841 0.0
C603 C 0.12536 0.31036 0.16697 0.0
H604 H 0.20551 0.27697 0.15749 0.0
H605 H 0.16194 0.28307 0.21204 0.0
S606 S 0.10038 0.34978 0.05443 0.0
N607 N 0.13893 0.33389 0.0479 0.0
N608 N 0.09165 0.34092 0.10741 0.0
C609 C 0.12078 0.32432 0.12246 0.0
C610 C 0.14651 0.32044 0.08994 0.0
C611 C 0.74286 0.37608 0.34086 0.0
C612 C 0.73168 0.40993 0.34779 0.0
C613 C 0.74494 0.34825 0.37559 0.0
C614 C 0.73579 0.35285 0.41893 0.0
H615 H 0.75062 0.37112 0.30843 0.0
H616 H 0.75433 0.32308 0.36828 0.0
S617 S 0.70305 0.43544 0.45458 0.0
N618 N 0.70995 0.44585 0.40137 0.0
N619 N 0.71385 0.3935 0.46643 0.0
C620 C 0.72371 0.38613 0.42622 0.0
C621 C 0.72165 0.41461 0.39079 0.0
C622 C 0.59011 0.01664 0.64459 0.0
C623 C 0.58933 0.00996 0.59937 0.0
C624 C 0.61932 0.00855 0.67503 0.0
C625 C 0.64917 -0.00668 0.66178 0.0
H626 H 0.56838 0.02889 0.65657 0.0
H627 H 0.619 0.0154 0.70913 0.0
S628 S 0.65915 0.96798 0.54762 0.0
N629 N 0.62027 0.98513 0.54332 0.0
N630 N 0.67474 0.97019 0.60028 0.0
C631 C 0.648 0.98531 0.61692 0.0
C632 C 0.61832 -0.00641 0.58588 0.0
C633 C 0.04101 0.8561 0.86712 0.0
C634 C 0.0395 0.89271 0.84801 0.0
C635 C 0.02735 0.82282 0.84307 0.0
C636 C 0.01152 0.82505 0.79913 0.0
H637 H 0.05194 0.85321 0.90122 0.0
H638 H 0.02902 0.79513 0.8592 0.0
S639 S 0.00309 0.91537 0.73414 0.0
N640 N 0.02238 0.93004 0.78309 0.0
N641 N -0.00313 0.86787 0.73721 0.0
C642 C 0.01047 0.86192 0.77961 0.0
C643 C 0.02449 0.89566 0.80422 0.0
C644 C 0.10902 0.11649 0.0273 0.0
C645 C 0.09201 0.10534 0.98537 0.0
C646 C 0.14189 0.14762 0.03149 0.0
C647 C 0.15829 0.16899 0.99383 0.0
H648 H 0.09743 0.10052 0.05711 0.0
H649 H 0.15396 0.15554 0.06438 0.0
S650 S 0.12533 0.15058 0.87659 0.0
N651 N 0.09462 0.11685 0.9056 0.0
N652 N 0.15589 0.17646 0.91325 0.0
C653 C 0.14171 0.15799 0.95166 0.0
C654 C 0.1087 0.12577 0.94746 0.0
C655 C 0.6731 0.642 0.37912 0.0
C656 C 0.66443 0.61825 0.3431 0.0
C657 C 0.65952 0.67555 0.37828 0.0
C658 C 0.63682 0.68571 0.34157 0.0
H659 H 0.69101 0.63492 0.40743 0.0
H660 H 0.66706 0.69391 0.40605 0.0
S661 S 0.60735 0.63271 0.23893 0.0
N662 N 0.63184 0.60633 0.2705 0.0
N663 N 0.60807 0.67025 0.26762 0.0
C664 C 0.62824 0.66198 0.30541 0.0
C665 C 0.64155 0.62789 0.30659 0.0
C666 C 0.40289 0.85725 0.48621 0.0
C667 C 0.36504 0.86171 0.48807 0.0
C668 C 0.43525 0.88859 0.49295 0.0
C669 C 0.43022 0.92469 0.50216 0.0
H670 H 0.40752 0.8292 0.48107 0.0
H671 H 0.46414 0.88443 0.49192 0.0
S672 S 0.33685 0.95246 0.50175 0.0
N673 N 0.32426 0.90571 0.49356 0.0
N674 N 0.38475 0.96455 0.50637 0.0
C675 C 0.39241 0.92984 0.50144 0.0
C676 C 0.3598 0.89826 0.49433 0.0
C677 C 0.1555 0.69434 0.83072 0.0
C678 C 0.12188 0.66456 0.83869 0.0
C679 C 0.19241 0.68765 0.83867 0.0
C680 C 0.19663 0.65104 0.85477 0.0
H681 H 0.15304 0.72257 0.8171 0.0
H682 H 0.21777 0.71059 0.83039 0.0
S683 S 0.11767 0.56415 0.88216 0.0
N684 N 0.09495 0.59794 0.86511 0.0
N685 N 0.16457 0.58511 0.87957 0.0
C686 C 0.16333 0.6216 0.86469 0.0
C687 C 0.12579 0.62846 0.85677 0.0
C688 C 0.85913 0.38914 0.53582 0.0
C689 C 0.86182 0.35071 0.534 0.0
C690 C 0.89019 0.42057 0.52477 0.0
C691 C 0.92493 0.41435 0.51241 0.0
H692 H 0.83234 0.39502 0.54414 0.0
H693 H 0.88724 0.4498 0.52645 0.0
S694 S 0.94715 0.31982 0.50328 0.0
N695 N 0.90211 0.3084 0.51898 0.0
N696 N 0.96103 0.3677 0.49957 0.0
C697 C 0.92839 0.37628 0.51132 0.0
C698 C 0.89664 0.34433 0.52179 0.0
C699 C 0.34256 0.87145 0.1575 0.0
C700 C 0.34548 0.91087 0.14636 0.0
C701 C 0.37422 0.85594 0.15406 0.0
C702 C 0.40931 0.8794 0.13885 0.0
H703 H 0.31616 0.85298 0.17036 0.0
H704 H 0.37202 0.82598 0.16514 0.0
S705 S 0.43042 0.98333 0.10234 0.0
N706 N 0.38507 0.97235 0.11704 0.0
N707 N 0.44465 0.94275 0.11009 0.0
C708 C 0.41175 0.91808 0.12492 0.0
C709 C 0.37966 0.93397 0.12871 0.0
C710 C 0.39679 0.43549 0.64348 0.0
C711 C 0.37373 0.44239 0.67559 0.0
C712 C 0.41062 0.4021 0.64748 0.0
C713 C 0.40201 0.37487 0.68382 0.0
H714 H 0.40628 0.45723 0.61696 0.0
H715 H 0.43072 0.39897 0.62393 0.0
S716 S 0.33691 0.37764 0.77259 0.0
N717 N 0.3368 0.41677 0.73995 0.0
N718 N 0.36591 0.35612 0.75045 0.0
C719 C 0.37615 0.38016 0.71404 0.0
C720 C 0.36115 0.41346 0.70905 0.0
C721 C 0.15958 0.81383 0.66673 0.0
C722 C 0.16101 0.82345 0.62116 0.0
C723 C 0.12394 0.79882 0.6857 0.0
C724 C 0.08878 0.79304 0.65949 0.0
H725 H 0.18624 0.81572 0.68711 0.0
H726 H 0.12403 0.79028 0.72078 0.0
S727 S 0.0778 0.81694 0.53869 0.0
N728 N 0.12516 0.8288 0.55065 0.0
N729 N 0.05775 0.80096 0.58611 0.0
C730 C 0.08993 0.80516 0.61429 0.0
C731 C 0.12625 0.82033 0.59513 0.0
C732 C 0.18573 0.86654 0.36624 0.0
C733 C 0.20184 0.87156 0.32475 0.0
C734 C 0.19165 0.83723 0.39706 0.0
C735 C 0.21403 0.81209 0.38748 0.0
H736 H 0.17154 0.88741 0.37666 0.0
H737 H 0.18149 0.83661 0.42991 0.0
S738 S 0.25109 0.80513 0.27844 0.0
N739 N 0.23225 0.84287 0.2716 0.0
N740 N 0.24396 0.78806 0.33011 0.0
C741 C 0.22503 0.81303 0.3439 0.0
C742 C 0.21875 0.84278 0.31229 0.0
C743 C -0.00273 0.60825 0.64966 0.0
C744 C 0.98056 0.63849 0.63247 0.0
C745 C 0.00185 0.57964 0.62289 0.0
C746 C -0.01002 0.57982 0.57756 0.0
H747 H 0.00775 0.60694 0.68412 0.0
H748 H 0.01565 0.5577 0.6378 0.0
S749 S 0.94312 0.65163 0.51612 0.0
N750 N 0.95095 0.66597 0.56721 0.0
N751 N 0.95939 0.61242 0.51687 0.0
C752 C 0.97218 0.60926 0.56009 0.0
C753 C 0.96751 0.63845 0.58747 0.0
C754 C 0.4148 0.72114 0.3841 0.0
C755 C 0.37807 0.71365 0.36151 0.0
C756 C 0.44808 0.73991 0.36214 0.0
C757 C 0.4454 0.75203 0.31703 0.0
H758 H 0.41738 0.71473 0.41955 0.0
H759 H 0.4758 0.74631 0.38105 0.0
S760 S 0.35573 0.73393 0.24239 0.0
N761 N 0.34077 0.71569 0.29159 0.0
N762 N 0.4033 0.75107 0.24945 0.0
C763 C 0.40889 0.74238 0.29353 0.0
C764 C 0.37518 0.723 0.31601 0.0
C765 C 0.30139 0.10204 0.17317 0.0
C766 C 0.2836 0.09595 0.21373 0.0
C767 C 0.31394 0.13925 0.15369 0.0
C768 C 0.30904 0.17118 0.17422 0.0
H769 H 0.3036 0.07789 0.15501 0.0
H770 H 0.32452 0.1429 0.1207 0.0
S771 S 0.27199 0.17198 0.28415 0.0
N772 N 0.26801 0.12573 0.27727 0.0
N773 N 0.29071 0.19598 0.2389 0.0
C774 C 0.29485 0.16613 0.21636 0.0
C775 C 0.28223 0.12827 0.23659 0.0
C776 C 0.82016 0.67688 0.79335 0.0
C777 C 0.82259 0.66049 0.83663 0.0
C778 C 0.85112 0.6826 0.76605 0.0
C779 C 0.88556 0.67226 0.78147 0.0
H780 H 0.79544 0.68808 0.78197 0.0
H781 H 0.84907 0.69792 0.73404 0.0
S782 S 0.90237 0.62123 0.88976 0.0
N783 N 0.85886 0.6288 0.89168 0.0
N784 N 0.91733 0.63895 0.84041 0.0
C785 C 0.88634 0.65177 0.823 0.0
C786 C 0.85469 0.646 0.85065 0.0
C787 C 0.32512 0.70305 0.68556 0.0
C788 C 0.34577 0.67523 0.6808 0.0
C789 C 0.31681 0.72664 0.64928 0.0
C790 C 0.32901 0.72327 0.60716 0.0
H791 H 0.3122 0.7043 0.71638 0.0
H792 H 0.29806 0.74531 0.65373 0.0
S793 S 0.39468 0.66408 0.58093 0.0
N794 N 0.3862 0.65231 0.63361 0.0
N795 N 0.37053 0.6969 0.56514 0.0
C796 C 0.35447 0.69975 0.60351 0.0
C797 C 0.36297 0.67569 0.64054 0.0
C798 C 0.33874 0.02311 0.39298 0.0
C799 C 0.33826 0.0088 0.35087 0.0
C800 C 0.37354 0.03479 0.41944 0.0
C801 C 0.40957 0.0329 0.405 0.0
H802 H 0.31193 0.02496 0.40595 0.0
H803 H 0.37193 0.04444 0.45203 0.0
S804 S 0.42487 -0.00044 0.2963 0.0
N805 N 0.37763 -0.00519 0.29542 0.0
N806 N 0.4425 0.01692 0.34458 0.0
C807 C 0.40962 0.0196 0.36244 0.0
C808 C 0.37421 0.00748 0.33565 0.0
C809 C 0.8966 0.82996 0.0325 0.0
C810 C 0.87403 0.82042 0.99285 0.0
C811 C 0.92088 0.86729 0.03726 0.0
C812 C 0.92204 0.89616 0.00297 0.0
H813 H 0.89402 0.80896 0.0606 0.0
H814 H 0.93843 0.87373 0.06786 0.0
S815 S 0.86625 0.88666 0.8943 0.0
N816 N 0.85388 0.84291 0.91934 0.0
N817 N 0.89783 0.91359 0.9292 0.0
C818 C 0.89968 0.88698 0.96333 0.0
C819 C 0.87611 0.84886 0.95796 0.0
C820 C 0.61784 0.19469 0.52798 0.0
C821 C 0.64328 0.20033 0.49343 0.0
C822 C 0.58145 0.16816 0.52513 0.0
C823 C 0.56942 0.14682 0.48743 0.0
H824 H 0.62701 0.20887 0.55868 0.0
H825 H 0.56438 0.16189 0.55406 0.0
S826 S 0.62076 0.15904 0.38338 0.0
N827 N 0.65099 0.18818 0.41741 0.0
N828 N 0.58198 0.13891 0.41135 0.0
C829 C 0.59249 0.15596 0.45053 0.0
C830 C 0.62977 0.18243 0.45377 0.0
C831 C 0.87159 0.42273 0.12821 0.0
C832 C 0.83744 0.40171 0.14793 0.0
C833 C 0.90438 0.4077 0.13001 0.0
C834 C 0.90378 0.37138 0.15166 0.0
H835 H 0.8734 0.45157 0.11313 0.0
H836 H 0.93081 0.42509 0.11603 0.0
S837 S 0.81975 0.30326 0.20319 0.0
N838 N 0.80383 0.3417 0.18609 0.0
N839 N 0.86515 0.31318 0.1889 0.0
C840 C 0.86911 0.34935 0.16927 0.0
C841 C 0.83596 0.36462 0.16757 0.0
C842 C 0.15928 0.59641 0.49374 0.0
C843 C 0.12042 0.59793 0.49011 0.0
C844 C 0.18881 0.63006 0.49985 0.0
C845 C 0.18008 0.66575 0.5038 0.0
H846 H 0.16682 0.56926 0.49108 0.0
H847 H 0.2187 0.62823 0.50101 0.0
S848 S 0.08226 0.68335 0.50217 0.0
N849 N 0.07412 0.63668 0.49438 0.0
N850 N 0.13 0.70016 0.50687 0.0
C851 C 0.14121 0.6672 0.50249 0.0
C852 C 0.11117 0.63311 0.49526 0.0
C853 C 0.64924 0.12415 0.84119 0.0
C854 C 0.64898 0.08994 0.86766 0.0
C855 C 0.62375 0.14684 0.84766 0.0
C856 C 0.59555 0.13539 0.87932 0.0
H857 H 0.66748 0.13263 0.81353 0.0
H858 H 0.62534 0.17294 0.82661 0.0
S859 S 0.58536 0.05122 0.96076 0.0
N860 N 0.62104 0.0485 0.93066 0.0
N861 N 0.57145 0.09005 0.94054 0.0
C862 C 0.59638 0.10277 0.90779 0.0
C863 C 0.62316 0.08016 0.90218 0.0
C864 C 0.77579 0.59955 0.11613 0.0
C865 C 0.74536 0.59199 0.14518 0.0
C866 C 0.78453 0.63379 0.08826 0.0
C867 C 0.7635 0.66204 0.08873 0.0
H868 H 0.79345 0.57918 0.11545 0.0
H869 H 0.808 0.63822 0.06631 0.0
S870 S 0.67715 0.65321 0.15338 0.0
N871 N 0.69156 0.61366 0.16883 0.0
N872 N 0.70816 0.67776 0.11744 0.0
C873 C 0.73229 0.65413 0.11667 0.0
C874 C 0.72319 0.61923 0.14458 0.0
C875 C 0.89422 0.58075 0.34388 0.0
C876 C 0.92372 0.56745 0.32761 0.0
C877 C 0.85715 0.57254 0.32291 0.0
C878 C 0.84878 0.55056 0.2853 0.0
H879 H 0.89912 0.59481 0.37493 0.0
H880 H 0.83445 0.58104 0.33816 0.0
S881 S 0.91937 0.51649 0.22544 0.0
N882 N 0.94484 0.5372 0.26891 0.0
N883 N 0.87493 0.52136 0.22854 0.0
C884 C 0.87941 0.54078 0.26616 0.0
C885 C 0.9171 0.54935 0.28765 0.0
C886 C 0.2113 0.50901 0.65804 0.0
C887 C 0.21126 0.52974 0.69562 0.0
C888 C 0.17709 0.48492 0.64027 0.0
C889 C 0.14165 0.48069 0.65936 0.0
H890 H 0.23787 0.51169 0.64174 0.0
H891 H 0.17785 0.47131 0.60982 0.0
S892 S 0.12552 0.52595 0.7593 0.0
N893 N 0.17257 0.54243 0.75279 0.0
N894 N 0.10816 0.4971 0.71849 0.0
C895 C 0.14119 0.49985 0.69774 0.0
C896 C 0.17598 0.52457 0.71595 0.0
C897 C 0.67371 0.84475 0.19102 0.0
C898 C 0.63781 0.84591 0.16891 0.0
C899 C 0.70667 0.84962 0.16739 0.0
C900 C 0.70446 0.85591 0.12136 0.0
H901 H 0.67579 0.83723 0.2263 0.0
H902 H 0.73284 0.84438 0.18438 0.0
S903 S 0.61988 0.86852 0.04898 0.0
N904 N 0.60361 0.85964 0.09923 0.0
N905 N 0.66626 0.86853 0.05496 0.0
C906 C 0.67026 0.86178 0.09958 0.0
C907 C 0.63655 0.85676 0.12343 0.0
C908 C 0.61189 0.43353 0.15587 0.0
C909 C 0.61976 0.45221 0.19582 0.0
C910 C 0.57976 0.43659 0.12782 0.0
C911 C 0.55482 0.45872 0.13875 0.0
H912 H 0.63264 0.41994 0.14396 0.0
H913 H 0.57701 0.42504 0.09541 0.0
S914 S 0.55499 0.50066 0.24669 0.0
N915 N 0.59402 0.48374 0.25059 0.0
N916 N 0.53396 0.49012 0.19718 0.0
C917 C 0.5585 0.47148 0.18184 0.0
C918 C 0.59107 0.46808 0.21064 0.0
C919 C 0.37299 0.4353 0.01764 0.0
C920 C 0.40882 0.42675 0.0135 0.0
C921 C 0.33854 0.40599 0.01749 0.0
C922 C 0.33948 0.36752 0.0144 0.0
H923 H 0.37167 0.46475 0.02169 0.0
H924 H 0.31137 0.4132 0.02137 0.0
S925 S 0.42498 0.33059 -0.00172 0.0
N926 N 0.44273 0.37775 0.00237 0.0
N927 N 0.37773 0.32222 0.00315 0.0
C928 C 0.37475 0.35872 0.00837 0.0
C929 C 0.40965 0.38859 0.00759 0.0
C930 C 0.1593 0.16289 0.34899 0.0
C931 C 0.12153 0.16036 0.36091 0.0
C932 C 0.17349 0.12976 0.35072 0.0
C933 C 0.15019 0.09307 0.36395 0.0
H934 H 0.17753 0.19052 0.33732 0.0
H935 H 0.20245 0.13252 0.34048 0.0
S936 S 0.04999 0.07158 0.40036 0.0
N937 N 0.06175 0.11892 0.38837 0.0
N938 N 0.08842 0.05637 0.39105 0.0
C939 C 0.11305 0.09045 0.37776 0.0
C940 C 0.09866 0.12423 0.37628 0.0
C941 C 0.2352 0.40117 0.81813 0.0
C942 C 0.21746 0.39616 0.85848 0.0
C943 C 0.25863 0.43723 0.80414 0.0
C944 C 0.26506 0.46952 0.83012 0.0
H945 H 0.23255 0.37647 0.79857 0.0
H946 H 0.27193 0.43963 0.77282 0.0
S947 S 0.22395 0.47101 0.93834 0.0
N948 N 0.20697 0.42585 0.92402 0.0
N949 N 0.25049 0.49418 0.89759 0.0
C950 C 0.24624 0.46508 0.86992 0.0
C951 C 0.22243 0.42828 0.88406 0.0
C952 C 0.35921 0.23374 0.94658 0.0
C953 C 0.32365 0.23883 0.92648 0.0
C954 C 0.38939 0.23041 0.9212 0.0
C955 C 0.38517 0.23176 0.87466 0.0
H956 H 0.36448 0.23394 0.98224 0.0
H957 H 0.41678 0.22849 0.9381 0.0
S958 S 0.29566 0.23768 0.80618 0.0
N959 N 0.2848 0.24102 0.85739 0.0
N960 N 0.3406 0.23294 0.80999 0.0
C961 C 0.34889 0.23423 0.85439 0.0
C962 C 0.31841 0.23826 0.88015 0.0
C963 C 0.46959 0.56761 0.87977 0.0
C964 C 0.46569 0.57732 0.92286 0.0
C965 C 0.44576 0.57706 0.84421 0.0
C966 C 0.41698 0.5961 0.85066 0.0
H967 H 0.4891 0.55013 0.87382 0.0
H968 H 0.44806 0.56668 0.81227 0.0
S969 S 0.40385 0.63853 0.95446 0.0
N970 N 0.43765 0.61511 0.96814 0.0
N971 N 0.39236 0.63246 0.90124 0.0
C972 C 0.41665 0.61076 0.89232 0.0
C973 C 0.4411 0.60132 0.92855 0.0
C974 C 0.62205 0.68181 0.0167 0.0
C975 C 0.65731 0.67724 0.00347 0.0
C976 C 0.59423 0.64981 0.03392 0.0
C977 C 0.60166 0.61292 0.03919 0.0
H978 H 0.61552 0.70985 0.0124 0.0
H979 H 0.56608 0.6535 0.0406 0.0
S980 S 0.69301 0.58794 0.01975 0.0
N981 N 0.7003 0.63417 0.00328 0.0
N982 N 0.64868 0.57494 0.03731 0.0
C983 C 0.63818 0.60898 0.03024 0.0
C984 C 0.66586 0.64092 0.01173 0.0
C985 C 0.90122 0.87973 0.65232 0.0
C986 C 0.88353 0.84697 0.62838 0.0
C987 C 0.882 0.90874 0.65664 0.0
C988 C 0.84424 0.90583 0.63747 0.0
H989 H 0.92993 0.88261 0.66822 0.0
H990 H 0.89665 0.93343 0.67539 0.0
S991 S 0.78611 0.82635 0.57 0.0
N992 N 0.82713 0.8139 0.58384 0.0
N993 N 0.79057 0.86813 0.59221 0.0
C994 C 0.82687 0.87383 0.61209 0.0
C995 C 0.8466 0.84441 0.60755 0.0
C996 C 0.41294 0.15713 0.67669 0.0
C997 C 0.42866 0.15198 0.72013 0.0
C998 C 0.40839 0.12854 0.64641 0.0
C999 C 0.41942 0.09417 0.65876 0.0
H1000 H 0.4067 0.18441 0.66497 0.0
H1001 H 0.39908 0.13448 0.61231 0.0
S1002 S 0.45449 0.06294 0.76986 0.0
N1003 N 0.44903 0.1067 0.77558 0.0
N1004 N 0.44143 0.05379 0.71755 0.0
C1005 C 0.43159 0.08701 0.70275 0.0
C1006 C 0.43585 0.11574 0.73384 0.0
C1007 C 0.55243 0.37724 0.8411 0.0
C1008 C 0.54458 0.34153 0.8662 0.0
C1009 C 0.56672 0.41214 0.86161 0.0
C1010 C 0.57341 0.41226 0.90766 0.0
H1011 H 0.54593 0.37836 0.80558 0.0
H1012 H 0.57014 0.43927 0.84189 0.0
S1013 S 0.56052 0.32704 0.98788 0.0
N1014 N 0.5474 0.30843 0.93918 0.0
N1015 N 0.57377 0.37452 0.97768 0.0
C1016 C 0.56823 0.37688 0.93281 0.0
C1017 C 0.55388 0.34128 0.91203 0.0
C1018 C 0.57033 0.93941 0.2859 0.0
C1019 C 0.58031 0.90655 0.30705 0.0
C1020 C 0.57641 0.97336 0.30793 0.0
C1021 C 0.59258 0.97527 0.35142 0.0
H1022 H 0.55553 0.93823 0.25325 0.0
H1023 H 0.56511 -0.00308 0.29265 0.0
S1024 S 0.62988 0.90043 0.41864 0.0
N1025 N 0.61242 0.88025 0.37167 0.0
N1026 N 0.62315 0.94454 0.41302 0.0
C1027 C 0.60655 0.94446 0.37112 0.0
C1028 C 0.60043 0.90978 0.34891 0.0
C1029 C 0.46141 0.63148 0.19816 0.0
C1030 C 0.45275 0.62705 0.15278 0.0
C1031 C 0.4818 0.66737 0.21344 0.0
C1032 C 0.49434 0.6996 0.1836 0.0
H1033 H 0.45421 0.60654 0.22151 0.0
H1034 H 0.48785 0.66979 0.24876 0.0
S1035 S 0.47718 0.70269 0.06148 0.0
N1036 N 0.45663 0.65746 0.07825 0.0
N1037 N 0.49488 0.72532 0.10694 0.0
C1038 C 0.48415 0.69589 0.13829 0.0
C1039 C 0.46329 0.65944 0.12286 0.0
loop_
_geom_bond_atom_site_label_1
_geom_bond_atom_site_label_2
_geom_bond_distance
_geom_bond_site_symmetry_2
_ccdc_geom_bond_type
Zn0 O1 2.055 . S
Zn0 O8 2.046 1_445 S
Zn0 N16 2.036 1_455 S
Zn0 O28 2.053 1_454 S
Zn0 O30 2.066 . S
O1 Zn0 2.055 . S
O1 C4 1.259 . S
C2 O30 1.256 1_556 S
C2 O31 1.244 . S
Zn3 O5 2.046 1_556 S
Zn3 O7 2.055 1_456 S
Zn3 N9 2.036 . S
Zn3 O27 2.066 1_465 S
Zn3 O31 2.053 1_565 S
C4 O1 1.259 . S
C4 O5 1.254 1_545 S
O5 Zn3 2.046 1_554 S
O5 C4 1.254 1_565 S
C6 O27 1.256 . S
C6 O28 1.244 . S
O7 Zn3 2.055 1_654 S
O7 C29 1.259 . S
O8 Zn0 2.046 1_665 S
O8 C29 1.254 . S
N9 Zn3 2.036 . S
N9 C10 1.298 . S
N9 N12 1.398 . S
C10 N9 1.298 . S
C10 N13 1.367 . S
C10 C23 1.481 1_455 S
C11 N12 1.299 . S
C11 N13 1.379 . S
N12 N9 1.398 . S
N12 C11 1.299 . S
N13 C10 1.367 . S
N13 C11 1.379 . S
C14 N16 1.298 1_455 S
C14 N18 1.367 1_455 S
C14 C22 1.481 . S
C15 N17 1.299 . S
C15 N18 1.379 . S
N16 Zn0 2.036 1_655 S
N16 C14 1.298 1_655 S
N16 N17 1.398 . S
N17 C15 1.299 . S
N17 N16 1.398 . S
N18 C14 1.367 1_655 S
N18 C15 1.379 . S
H19 C22 0.980 . S
H20 C22 0.981 . S
H21 C22 0.981 . S
C22 C14 1.481 . S
C22 H19 0.980 . S
C22 H20 0.981 . S
C22 H21 0.981 . S
C23 C10 1.481 1_655 S
C23 H24 0.980 . S
C23 H25 0.981 . S
C23 H26 0.981 . S
H24 C23 0.980 . S
H25 C23 0.981 . S
H26 C23 0.981 . S
O27 Zn3 2.066 1_645 S
O27 C6 1.256 . S
O28 Zn0 2.053 1_656 S
O28 C6 1.244 . S
C29 O7 1.259 . S
C29 O8 1.254 . S
O30 Zn0 2.066 . S
O30 C2 1.256 1_554 S
O31 C2 1.244 . S
O31 Zn3 2.053 1_545 S
Zn32 O33 2.055 . S
Zn32 O40 2.046 . S
Zn32 N48 2.036 . S
Zn32 O60 2.053 . S
Zn32 O62 2.066 . S
O33 Zn32 2.055 . S
O33 C36 1.259 . S
C34 O62 1.256 . S
C34 O63 1.244 . S
Zn35 O37 2.046 . S
Zn35 O39 2.055 1_455 S
Zn35 N41 2.046 . S
Zn35 O59 2.066 . S
Zn35 O63 2.053 . S
C36 O33 1.259 . S
C36 O37 1.254 . S
O37 Zn35 2.046 . S
O37 C36 1.254 . S
C38 O59 1.256 . S
C38 O60 1.244 . S
O39 Zn35 2.055 1_655 S
O39 C61 1.268 . S
O40 Zn32 2.046 . S
O40 C61 1.228 1_455 S
N41 Zn35 2.046 . S
N41 C42 1.286 1_455 S
N41 N44 1.402 . S
C42 N41 1.286 1_655 S
C42 N45 1.367 . S
C42 C55 1.481 . S
C43 N44 1.299 1_655 S
C43 N45 1.379 . S
N44 N41 1.402 . S
N44 C43 1.299 1_455 S
N45 C42 1.367 . S
N45 C43 1.379 . S
C46 N48 1.298 . S
C46 N50 1.367 . S
C46 C54 1.481 . S
C47 N49 1.299 . S
C47 N50 1.379 . S
N48 Zn32 2.036 . S
N48 C46 1.298 . S
N48 N49 1.398 . S
N49 C47 1.299 . S
N49 N48 1.398 . S
N50 C46 1.367 . S
N50 C47 1.379 . S
H51 C54 0.980 . S
H52 C54 0.981 . S
H53 C54 0.981 . S
C54 C46 1.481 . S
C54 H51 0.980 . S
C54 H52 0.981 . S
C54 H53 0.981 . S
C55 C42 1.481 . S
C55 H56 0.980 . S
C55 H57 0.981 . S
C55 H58 0.981 . S
H56 C55 0.980 . S
H57 C55 0.981 . S
H58 C55 0.981 . S
O59 Zn35 2.066 . S
O59 C38 1.256 . S
O60 Zn32 2.053 . S
O60 C38 1.244 . S
C61 O39 1.268 . S
C61 O40 1.228 1_655 S
O62 Zn32 2.066 . S
O62 C34 1.256 . S
O63 C34 1.244 . S
O63 Zn35 2.053 . S
Zn64 O65 2.055 . S
Zn64 O72 2.046 . S
Zn64 N80 2.036 . S
Zn64 O92 2.053 . S
Zn64 O94 2.066 . S
O65 Zn64 2.055 . S
O65 C68 1.259 . S
C66 O94 1.256 . S
C66 O95 1.244 . S
Zn67 O69 2.046 . S
Zn67 O71 2.055 . S
Zn67 N73 2.036 . S
Zn67 O91 2.066 . S
Zn67 O95 2.053 . S
C68 O65 1.259 . S
C68 O69 1.254 . S
O69 Zn67 2.046 . S
O69 C68 1.254 . S
C70 O91 1.256 . S
C70 O92 1.244 . S
O71 Zn67 2.055 . S
O71 C93 1.259 . S
O72 Zn64 2.046 . S
O72 C93 1.254 . S
N73 Zn67 2.036 . S
N73 C74 1.298 . S
N73 N76 1.398 . S
C74 N73 1.298 . S
C74 N77 1.367 . S
C74 C87 1.481 . S
C75 N76 1.299 . S
C75 N77 1.379 . S
N76 N73 1.398 . S
N76 C75 1.299 . S
N77 C74 1.367 . S
N77 C75 1.379 . S
C78 N80 1.298 . S
C78 N82 1.367 . S
C78 C86 1.481 . S
C79 N81 1.299 . S
C79 N82 1.379 . S
N80 Zn64 2.036 . S
N80 C78 1.298 . S
N80 N81 1.398 . S
N81 C79 1.299 . S
N81 N80 1.398 . S
N82 C78 1.367 . S
N82 C79 1.379 . S
H83 C86 0.980 . S
H84 C86 0.981 . S
H85 C86 0.981 . S
C86 C78 1.481 . S
C86 H83 0.980 . S
C86 H84 0.981 . S
C86 H85 0.981 . S
C87 C74 1.481 . S
C87 H88 0.980 . S
C87 H89 0.981 . S
C87 H90 0.981 . S
H88 C87 0.980 . S
H89 C87 0.981 . S
H90 C87 0.981 . S
O91 Zn67 2.066 . S
O91 C70 1.256 . S
O92 Zn64 2.053 . S
O92 C70 1.244 . S
C93 O71 1.259 . S
C93 O72 1.254 . S
O94 Zn64 2.066 . S
O94 C66 1.256 . S
O95 C66 1.244 . S
O95 Zn67 2.053 . S
Zn96 O97 2.055 . S
Zn96 O104 2.046 . S
Zn96 N112 2.036 . S
Zn96 O124 2.059 . S
Zn96 O126 2.066 . S
O97 Zn96 2.055 . S
O97 C100 1.259 . S
C98 O126 1.256 . S
C98 O127 1.258 . S
Zn99 O101 2.046 . S
Zn99 O103 2.055 . S
Zn99 N105 2.036 1_545 S
Zn99 O123 2.066 1_545 S
Zn99 O127 2.051 . S
C100 O97 1.259 . S
C100 O101 1.254 . S
O101 Zn99 2.046 . S
O101 C100 1.254 . S
C102 O123 1.256 . S
C102 O124 1.237 1_565 S
O103 Zn99 2.055 . S
O103 C125 1.259 . S
O104 Zn96 2.046 . S
O104 C125 1.254 . S
N105 Zn99 2.036 1_565 S
N105 C106 1.298 . S
N105 N108 1.398 . S
C106 N105 1.298 . S
C106 N109 1.367 . S
C106 C119 1.481 . S
C107 N108 1.299 . S
C107 N109 1.379 . S
N108 N105 1.398 . S
N108 C107 1.299 . S
N109 C106 1.367 . S
N109 C107 1.379 . S
C110 N112 1.298 . S
C110 N114 1.367 . S
C110 C118 1.481 . S
C111 N113 1.299 . S
C111 N114 1.379 . S
N112 Zn96 2.036 . S
N112 C110 1.298 . S
N112 N113 1.398 . S
N113 C111 1.299 . S
N113 N112 1.398 . S
N114 C110 1.367 . S
N114 C111 1.379 . S
H115 C118 0.980 . S
H116 C118 0.981 . S
H117 C118 0.981 . S
C118 C110 1.481 . S
C118 H115 0.980 . S
C118 H116 0.981 . S
C118 H117 0.981 . S
C119 C106 1.481 . S
C119 H120 0.980 . S
C119 H121 0.981 . S
C119 H122 0.981 . S
H120 C119 0.980 . S
H121 C119 0.981 . S
H122 C119 0.981 . S
O123 Zn99 2.066 1_565 S
O123 C102 1.256 . S
O124 Zn96 2.059 . S
O124 C102 1.237 1_545 S
C125 O103 1.259 . S
C125 O104 1.254 . S
O126 Zn96 2.066 . S
O126 C98 1.256 . S
O127 C98 1.258 . S
O127 Zn99 2.051 . S
Zn128 O129 2.055 . S
Zn128 O136 2.046 . S
Zn128 N144 2.036 . S
Zn128 O156 2.053 . S
Zn128 O158 2.066 . S
O129 Zn128 2.055 . S
O129 C132 1.259 . S
C130 O158 1.256 . S
C130 O159 1.244 . S
Zn131 O133 2.046 . S
Zn131 O135 2.055 . S
Zn131 N137 2.036 . S
Zn131 O155 2.066 . S
Zn131 O159 2.053 . S
C132 O129 1.259 . S
C132 O133 1.254 . S
O133 Zn131 2.046 . S
O133 C132 1.254 . S
C134 O155 1.256 . S
C134 O156 1.244 . S
O135 Zn131 2.055 . S
O135 C157 1.259 . S
O136 Zn128 2.046 . S
O136 C157 1.254 . S
N137 Zn131 2.036 . S
N137 C138 1.298 . S
N137 N140 1.398 . S
C138 N137 1.298 . S
C138 N141 1.367 . S
C138 C151 1.481 . S
C139 N140 1.299 . S
C139 N141 1.379 . S
N140 N137 1.398 . S
N140 C139 1.299 . S
N141 C138 1.367 . S
N141 C139 1.379 . S
C142 N144 1.298 . S
C142 N146 1.367 . S
C142 C150 1.481 . S
C143 N145 1.299 . S
C143 N146 1.379 . S
N144 Zn128 2.036 . S
N144 C142 1.298 . S
N144 N145 1.398 . S
N145 C143 1.299 . S
N145 N144 1.398 . S
N146 C142 1.367 . S
N146 C143 1.379 . S
H147 C150 0.980 . S
H148 C150 0.981 . S
H149 C150 0.981 . S
C150 C142 1.481 . S
C150 H147 0.980 . S
C150 H148 0.981 . S
C150 H149 0.981 . S
C151 C138 1.481 . S
C151 H152 0.980 . S
C151 H153 0.981 . S
C151 H154 0.981 . S
H152 C151 0.980 . S
H153 C151 0.981 . S
H154 C151 0.981 . S
O155 Zn131 2.066 . S
O155 C134 1.256 . S
O156 Zn128 2.053 . S
O156 C134 1.244 . S
C157 O135 1.259 . S
C157 O136 1.254 . S
O158 Zn128 2.066 . S
O158 C130 1.256 . S
O159 C130 1.244 . S
O159 Zn131 2.053 . S
Zn160 O161 2.055 . S
Zn160 O168 2.046 . S
Zn160 N176 2.036 . S
Zn160 O188 2.053 . S
Zn160 O190 2.066 . S
O161 Zn160 2.055 . S
O161 C164 1.259 . S
C162 O190 1.256 . S
C162 O191 1.244 . S
Zn163 O165 2.046 . S
Zn163 O167 2.055 . S
Zn163 N169 2.036 . S
Zn163 O187 2.066 . S
Zn163 O191 2.053 . S
C164 O161 1.259 . S
C164 O165 1.254 . S
O165 Zn163 2.046 . S
O165 C164 1.254 . S
C166 O187 1.256 . S
C166 O188 1.244 . S
O167 Zn163 2.055 . S
O167 C189 1.259 . S
O168 Zn160 2.046 . S
O168 C189 1.254 . S
N169 Zn163 2.036 . S
N169 C170 1.298 . S
N169 N172 1.398 . S
C170 N169 1.298 . S
C170 N173 1.367 . S
C170 C183 1.481 . S
C171 N172 1.299 . S
C171 N173 1.379 . S
N172 N169 1.398 . S
N172 C171 1.299 . S
N173 C170 1.367 . S
N173 C171 1.379 . S
C174 N176 1.298 . S
C174 N178 1.367 . S
C174 C182 1.481 . S
C175 N177 1.299 . S
C175 N178 1.379 . S
N176 Zn160 2.036 . S
N176 C174 1.298 . S
N176 N177 1.398 . S
N177 C175 1.299 . S
N177 N176 1.398 . S
N178 C174 1.367 . S
N178 C175 1.379 . S
H179 C182 0.980 . S
H180 C182 0.981 . S
H181 C182 0.981 . S
C182 C174 1.481 . S
C182 H179 0.980 . S
C182 H180 0.981 . S
C182 H181 0.981 . S
C183 C170 1.481 . S
C183 H184 0.980 . S
C183 H185 0.981 . S
C183 H186 0.981 . S
H184 C183 0.980 . S
H185 C183 0.981 . S
H186 C183 0.981 . S
O187 Zn163 2.066 . S
O187 C166 1.256 . S
O188 Zn160 2.053 . S
O188 C166 1.244 . S
C189 O167 1.259 . S
C189 O168 1.254 . S
O190 Zn160 2.066 . S
O190 C162 1.256 . S
O191 C162 1.244 . S
O191 Zn163 2.053 . S
Zn192 O193 2.055 . S
Zn192 O200 2.046 . S
Zn192 N208 2.036 . S
Zn192 O220 2.053 . S
Zn192 O222 2.066 . S
O193 Zn192 2.055 . S
O193 C196 1.259 . S
C194 O222 1.256 . S
C194 O223 1.244 . S
Zn195 O197 2.046 . S
Zn195 O199 2.055 . S
Zn195 N201 2.036 . S
Zn195 O219 2.066 . S
Zn195 O223 2.053 . S
C196 O193 1.259 . S
C196 O197 1.254 . S
O197 Zn195 2.046 . S
O197 C196 1.254 . S
C198 O219 1.256 . S
C198 O220 1.244 . S
O199 Zn195 2.055 . S
O199 C221 1.259 . S
O200 Zn192 2.046 . S
O200 C221 1.254 . S
N201 Zn195 2.036 . S
N201 C202 1.298 . S
N201 N204 1.398 . S
C202 N201 1.298 . S
C202 N205 1.367 . S
C202 C215 1.481 . S
C203 N204 1.299 . S
C203 N205 1.379 . S
N204 N201 1.398 . S
N204 C203 1.299 . S
N205 C202 1.367 . S
N205 C203 1.379 . S
C206 N208 1.298 . S
C206 N210 1.367 . S
C206 C214 1.481 . S
C207 N209 1.299 . S
C207 N210 1.379 . S
N208 Zn192 2.036 . S
N208 C206 1.298 . S
N208 N209 1.398 . S
N209 C207 1.299 . S
N209 N208 1.398 . S
N210 C206 1.367 . S
N210 C207 1.379 . S
H211 C214 0.980 . S
H212 C214 0.981 . S
H213 C214 0.981 . S
C214 C206 1.481 . S
C214 H211 0.980 . S
C214 H212 0.981 . S
C214 H213 0.981 . S
C215 C202 1.481 . S
C215 H216 0.980 . S
C215 H217 0.981 . S
C215 H218 0.981 . S
H216 C215 0.980 . S
H217 C215 0.981 . S
H218 C215 0.981 . S
O219 Zn195 2.066 . S
O219 C198 1.256 . S
O220 Zn192 2.053 . S
O220 C198 1.244 . S
C221 O199 1.259 . S
C221 O200 1.254 . S
O222 Zn192 2.066 . S
O222 C194 1.256 . S
O223 C194 1.244 . S
O223 Zn195 2.053 . S
Zn224 O225 2.055 1_655 S
Zn224 O232 2.046 1_655 S
Zn224 N240 2.036 . S
Zn224 O252 2.053 . S
Zn224 O254 2.066 . S
O225 Zn224 2.055 1_455 S
O225 C228 1.259 . S
C226 O254 1.256 . S
C226 O255 1.244 . S
Zn227 O229 2.046 . S
Zn227 O231 2.055 . S
Zn227 N233 2.036 . S
Zn227 O251 2.066 . S
Zn227 O255 2.053 1_455 S
C228 O225 1.259 . S
C228 O229 1.254 . S
O229 Zn227 2.046 . S
O229 C228 1.254 . S
C230 O251 1.256 . S
C230 O252 1.244 1_455 S
O231 Zn227 2.055 . S
O231 C253 1.259 . S
O232 Zn224 2.046 1_455 S
O232 C253 1.254 . S
N233 Zn227 2.036 . S
N233 C234 1.298 . S
N233 N236 1.398 . S
C234 N233 1.298 . S
C234 N237 1.367 . S
C234 C247 1.481 . S
C235 N236 1.299 . S
C235 N237 1.379 . S
N236 N233 1.398 . S
N236 C235 1.299 . S
N237 C234 1.367 . S
N237 C235 1.379 . S
C238 N240 1.298 . S
C238 N242 1.367 . S
C238 C246 1.481 . S
C239 N241 1.299 . S
C239 N242 1.379 . S
N240 Zn224 2.036 . S
N240 C238 1.298 . S
N240 N241 1.398 . S
N241 C239 1.299 . S
N241 N240 1.398 . S
N242 C238 1.367 . S
N242 C239 1.379 . S
H243 C246 0.980 . S
H244 C246 0.981 . S
H245 C246 0.981 . S
C246 C238 1.481 . S
C246 H243 0.980 . S
C246 H244 0.981 . S
C246 H245 0.981 . S
C247 C234 1.481 . S
C247 H248 0.980 . S
C247 H249 0.981 . S
C247 H250 0.981 . S
H248 C247 0.980 . S
H249 C247 0.981 . S
H250 C247 0.981 . S
O251 Zn227 2.066 . S
O251 C230 1.256 . S
O252 Zn224 2.053 . S
O252 C230 1.244 1_655 S
C253 O231 1.259 . S
C253 O232 1.254 . S
O254 Zn224 2.066 . S
O254 C226 1.256 . S
O255 C226 1.244 . S
O255 Zn227 2.053 1_655 S
Zn256 O257 2.055 1_556 S
Zn256 O264 2.046 1_556 S
Zn256 N272 2.036 . S
Zn256 O284 2.053 . S
Zn256 O286 2.066 . S
O257 Zn256 2.055 1_554 S
O257 C260 1.259 . S
C258 O286 1.256 . S
C258 O287 1.244 . S
Zn259 O261 2.046 . S
Zn259 O263 2.055 . S
Zn259 N265 2.036 . S
Zn259 O283 2.066 . S
Zn259 O287 2.053 1_554 S
C260 O257 1.259 . S
C260 O261 1.254 . S
O261 Zn259 2.046 . S
O261 C260 1.254 . S
C262 O283 1.256 1_556 S
C262 O284 1.244 . S
O263 Zn259 2.055 . S
O263 C285 1.259 . S
O264 Zn256 2.046 1_554 S
O264 C285 1.254 . S
N265 Zn259 2.036 . S
N265 C266 1.298 . S
N265 N268 1.398 . S
C266 N265 1.298 . S
C266 N269 1.367 . S
C266 C279 1.481 . S
C267 N268 1.299 . S
C267 N269 1.379 . S
N268 N265 1.398 . S
N268 C267 1.299 . S
N269 C266 1.367 . S
N269 C267 1.379 . S
C270 N272 1.298 . S
C270 N274 1.367 . S
C270 C278 1.481 . S
C271 N273 1.299 . S
C271 N274 1.379 . S
N272 Zn256 2.036 . S
N272 C270 1.298 . S
N272 N273 1.398 . S
N273 C271 1.299 . S
N273 N272 1.398 . S
N274 C270 1.367 . S
N274 C271 1.379 . S
H275 C278 0.980 . S
H276 C278 0.981 . S
H277 C278 0.981 . S
C278 C270 1.481 . S
C278 H275 0.980 . S
C278 H276 0.981 . S
C278 H277 0.981 . S
C279 C266 1.481 . S
C279 H280 0.980 . S
C279 H281 0.981 . S
C279 H282 0.981 . S
H280 C279 0.980 . S
H281 C279 0.981 . S
H282 C279 0.981 . S
O283 Zn259 2.066 . S
O283 C262 1.256 1_554 S
O284 Zn256 2.053 . S
O284 C262 1.244 . S
C285 O263 1.259 . S
C285 O264 1.254 . S
O286 Zn256 2.066 . S
O286 C258 1.256 . S
O287 C258 1.244 . S
O287 Zn259 2.053 1_556 S
Zn288 O289 2.055 . S
Zn288 O296 2.046 . S
Zn288 N304 2.036 . S
Zn288 O316 2.053 1_545 S
Zn288 O318 2.066 . S
O289 Zn288 2.055 . S
O289 C292 1.259 . S
C290 O318 1.256 1_565 S
C290 O319 1.244 . S
Zn291 O293 2.046 1_565 S
Zn291 O295 2.055 1_565 S
Zn291 N297 2.036 . S
Zn291 O315 2.066 . S
Zn291 O319 2.053 . S
C292 O289 1.259 . S
C292 O293 1.254 . S
O293 Zn291 2.046 1_545 S
O293 C292 1.254 . S
C294 O315 1.256 . S
C294 O316 1.244 . S
O295 Zn291 2.055 1_545 S
O295 C317 1.259 . S
O296 Zn288 2.046 . S
O296 C317 1.254 . S
N297 Zn291 2.036 . S
N297 C298 1.298 . S
N297 N300 1.398 . S
C298 N297 1.298 . S
C298 N301 1.367 . S
C298 C311 1.481 . S
C299 N300 1.299 . S
C299 N301 1.379 . S
N300 N297 1.398 . S
N300 C299 1.299 . S
N301 C298 1.367 . S
N301 C299 1.379 . S
C302 N304 1.298 . S
C302 N306 1.367 . S
C302 C310 1.481 . S
C303 N305 1.299 . S
C303 N306 1.379 . S
N304 Zn288 2.036 . S
N304 C302 1.298 . S
N304 N305 1.398 . S
N305 C303 1.299 . S
N305 N304 1.398 . S
N306 C302 1.367 . S
N306 C303 1.379 . S
H307 C310 0.980 . S
H308 C310 0.981 . S
H309 C310 0.981 . S
C310 C302 1.481 . S
C310 H307 0.980 . S
C310 H308 0.981 . S
C310 H309 0.981 . S
C311 C298 1.481 . S
C311 H312 0.980 . S
C311 H313 0.981 . S
C311 H314 0.981 . S
H312 C311 0.980 . S
H313 C311 0.981 . S
H314 C311 0.981 . S
O315 Zn291 2.066 . S
O315 C294 1.256 . S
O316 Zn288 2.053 1_565 S
O316 C294 1.244 . S
C317 O295 1.259 . S
C317 O296 1.254 . S
O318 Zn288 2.066 . S
O318 C290 1.256 1_545 S
O319 C290 1.244 . S
O319 Zn291 2.053 . S
Zn320 O321 2.055 . S
Zn320 O328 2.046 . S
Zn320 N336 2.036 . S
Zn320 O348 2.053 . S
Zn320 O350 2.066 . S
O321 Zn320 2.055 . S
O321 C324 1.259 . S
C322 O350 1.256 . S
C322 O351 1.244 . S
Zn323 O325 2.046 . S
Zn323 O327 2.055 . S
Zn323 N329 2.036 . S
Zn323 O347 2.066 . S
Zn323 O351 2.053 . S
C324 O321 1.259 . S
C324 O325 1.254 . S
O325 Zn323 2.046 . S
O325 C324 1.254 . S
C326 O347 1.256 . S
C326 O348 1.244 . S
O327 Zn323 2.055 . S
O327 C349 1.259 . S
O328 Zn320 2.046 . S
O328 C349 1.254 . S
N329 Zn323 2.036 . S
N329 C330 1.298 . S
N329 N332 1.398 . S
C330 N329 1.298 . S
C330 N333 1.367 . S
C330 C343 1.481 . S
C331 N332 1.299 . S
C331 N333 1.379 . S
N332 N329 1.398 . S
N332 C331 1.299 . S
N333 C330 1.367 . S
N333 C331 1.379 . S
C334 N336 1.298 . S
C334 N338 1.367 . S
C334 C342 1.481 . S
C335 N337 1.299 . S
C335 N338 1.379 . S
N336 Zn320 2.036 . S
N336 C334 1.298 . S
N336 N337 1.398 . S
N337 C335 1.299 . S
N337 N336 1.398 . S
N338 C334 1.367 . S
N338 C335 1.379 . S
H339 C342 0.980 . S
H340 C342 0.981 . S
H341 C342 0.981 . S
C342 C334 1.481 . S
C342 H339 0.980 . S
C342 H340 0.981 . S
C342 H341 0.981 . S
C343 C330 1.481 . S
C343 H344 0.980 . S
C343 H345 0.981 . S
C343 H346 0.981 . S
H344 C343 0.980 . S
H345 C343 0.981 . S
H346 C343 0.981 . S
O347 Zn323 2.066 . S
O347 C326 1.256 . S
O348 Zn320 2.053 . S
O348 C326 1.244 . S
C349 O327 1.259 . S
C349 O328 1.254 . S
O350 Zn320 2.066 . S
O350 C322 1.256 . S
O351 C322 1.244 . S
O351 Zn323 2.053 . S
Zn352 O353 2.055 1_455 S
Zn352 O360 2.046 1_455 S
Zn352 N368 2.036 . S
Zn352 O380 2.053 . S
Zn352 O382 2.066 . S
O353 Zn352 2.055 1_655 S
O353 C356 1.259 . S
C354 O382 1.256 . S
C354 O383 1.244 . S
Zn355 O357 2.046 . S
Zn355 O359 2.055 . S
Zn355 N361 2.036 . S
Zn355 O379 2.066 . S
Zn355 O383 2.053 1_655 S
C356 O353 1.259 . S
C356 O357 1.254 . S
O357 Zn355 2.046 . S
O357 C356 1.254 . S
C358 O379 1.256 1_455 S
C358 O380 1.244 . S
O359 Zn355 2.055 . S
O359 C381 1.259 . S
O360 Zn352 2.046 1_655 S
O360 C381 1.254 . S
N361 Zn355 2.036 . S
N361 C362 1.298 . S
N361 N364 1.398 . S
C362 N361 1.298 . S
C362 N365 1.367 . S
C362 C375 1.481 . S
C363 N364 1.299 . S
C363 N365 1.379 . S
N364 N361 1.398 . S
N364 C363 1.299 . S
N365 C362 1.367 . S
N365 C363 1.379 . S
C366 N368 1.298 . S
C366 N370 1.367 . S
C366 C374 1.481 . S
C367 N369 1.299 . S
C367 N370 1.379 . S
N368 Zn352 2.036 . S
N368 C366 1.298 . S
N368 N369 1.398 . S
N369 C367 1.299 . S
N369 N368 1.398 . S
N370 C366 1.367 . S
N370 C367 1.379 . S
H371 C374 0.980 . S
H372 C374 0.981 . S
H373 C374 0.981 . S
C374 C366 1.481 . S
C374 H371 0.980 . S
C374 H372 0.981 . S
C374 H373 0.981 . S
C375 C362 1.481 . S
C375 H376 0.980 . S
C375 H377 0.981 . S
C375 H378 0.981 . S
H376 C375 0.980 . S
H377 C375 0.981 . S
H378 C375 0.981 . S
O379 Zn355 2.066 . S
O379 C358 1.256 1_655 S
O380 Zn352 2.053 . S
O380 C358 1.244 . S
C381 O359 1.259 . S
C381 O360 1.254 . S
O382 Zn352 2.066 . S
O382 C354 1.256 . S
O383 C354 1.244 . S
O383 Zn355 2.053 1_455 S
Zn384 O385 2.055 . S
Zn384 O392 2.046 . S
Zn384 N400 2.036 . S
Zn384 O412 2.053 . S
Zn384 O414 2.066 . S
O385 Zn384 2.055 . S
O385 C388 1.259 . S
C386 O414 1.256 . S
C386 O415 1.244 . S
Zn387 O389 2.046 . S
Zn387 O391 2.055 . S
Zn387 N393 2.036 . S
Zn387 O411 2.066 . S
Zn387 O415 2.053 . S
C388 O385 1.259 . S
C388 O389 1.254 . S
O389 Zn387 2.046 . S
O389 C388 1.254 . S
C390 O411 1.256 . S
C390 O412 1.244 . S
O391 Zn387 2.055 . S
O391 C413 1.259 . S
O392 Zn384 2.046 . S
O392 C413 1.254 . S
N393 Zn387 2.036 . S
N393 C394 1.298 . S
N393 N396 1.398 . S
C394 N393 1.298 . S
C394 N397 1.367 . S
C394 C407 1.481 . S
C395 N396 1.299 . S
C395 N397 1.379 . S
N396 N393 1.398 . S
N396 C395 1.299 . S
N397 C394 1.367 . S
N397 C395 1.379 . S
C398 N400 1.298 . S
C398 N402 1.367 . S
C398 C406 1.481 . S
C399 N401 1.299 . S
C399 N402 1.379 . S
N400 Zn384 2.036 . S
N400 C398 1.298 . S
N400 N401 1.398 . S
N401 C399 1.299 . S
N401 N400 1.398 . S
N402 C398 1.367 . S
N402 C399 1.379 . S
H403 C406 0.980 . S
H404 C406 0.981 . S
H405 C406 0.981 . S
C406 C398 1.481 . S
C406 H403 0.980 . S
C406 H404 0.981 . S
C406 H405 0.981 . S
C407 C394 1.481 . S
C407 H408 0.980 . S
C407 H409 0.981 . S
C407 H410 0.981 . S
H408 C407 0.980 . S
H409 C407 0.981 . S
H410 C407 0.981 . S
O411 Zn387 2.066 . S
O411 C390 1.256 . S
O412 Zn384 2.053 . S
O412 C390 1.244 . S
C413 O391 1.259 . S
C413 O392 1.254 . S
O414 Zn384 2.066 . S
O414 C386 1.256 . S
O415 C386 1.244 . S
O415 Zn387 2.053 . S
Zn416 O417 2.055 . S
Zn416 O424 2.046 1_554 S
Zn416 N432 2.036 . S
Zn416 O444 2.053 . S
Zn416 O446 2.066 . S
O417 Zn416 2.055 . S
O417 C420 1.259 1_554 S
C418 O446 1.256 . S
C418 O447 1.244 . S
Zn419 O421 2.046 . S
Zn419 O423 2.055 . S
Zn419 N425 2.036 . S
Zn419 O443 2.066 . S
Zn419 O447 2.053 1_556 S
C420 O417 1.259 1_556 S
C420 O421 1.254 . S
O421 Zn419 2.046 . S
O421 C420 1.254 . S
C422 O443 1.256 1_554 S
C422 O444 1.244 . S
O423 Zn419 2.055 . S
O423 C445 1.259 . S
O424 Zn416 2.046 1_556 S
O424 C445 1.254 . S
N425 Zn419 2.036 . S
N425 C426 1.298 . S
N425 N428 1.398 . S
C426 N425 1.298 . S
C426 N429 1.367 . S
C426 C439 1.481 . S
C427 N428 1.299 . S
C427 N429 1.379 . S
N428 N425 1.398 . S
N428 C427 1.299 . S
N429 C426 1.367 . S
N429 C427 1.379 . S
C430 N432 1.298 . S
C430 N434 1.367 . S
C430 C438 1.481 . S
C431 N433 1.299 . S
C431 N434 1.379 . S
N432 Zn416 2.036 . S
N432 C430 1.298 . S
N432 N433 1.398 . S
N433 C431 1.299 . S
N433 N432 1.398 . S
N434 C430 1.367 . S
N434 C431 1.379 . S
H435 C438 0.980 . S
H436 C438 0.981 . S
H437 C438 0.981 . S
C438 C430 1.481 . S
C438 H435 0.980 . S
C438 H436 0.981 . S
C438 H437 0.981 . S
C439 C426 1.481 . S
C439 H440 0.980 . S
C439 H441 0.981 . S
C439 H442 0.981 . S
H440 C439 0.980 . S
H441 C439 0.981 . S
H442 C439 0.981 . S
O443 Zn419 2.066 . S
O443 C422 1.256 1_556 S
O444 Zn416 2.053 . S
O444 C422 1.244 . S
C445 O423 1.259 . S
C445 O424 1.254 . S
O446 Zn416 2.066 . S
O446 C418 1.256 . S
O447 C418 1.244 . S
O447 Zn419 2.053 1_554 S
Zn448 O449 2.055 . S
Zn448 O456 2.046 1_545 S
Zn448 N464 2.036 . S
Zn448 O476 2.053 . S
Zn448 O478 2.066 . S
O449 Zn448 2.055 . S
O449 C452 1.259 . S
C450 O478 1.256 . S
C450 O479 1.244 . S
Zn451 O453 2.046 1_545 S
Zn451 O455 2.055 1_545 S
Zn451 N457 2.036 1_545 S
Zn451 O475 2.066 . S
Zn451 O479 2.053 . S
C452 O449 1.259 . S
C452 O453 1.254 1_545 S
O453 Zn451 2.046 1_565 S
O453 C452 1.254 1_565 S
C454 O475 1.256 . S
C454 O476 1.244 . S
O455 Zn451 2.055 1_565 S
O455 C477 1.259 . S
O456 Zn448 2.046 1_565 S
O456 C477 1.254 . S
N457 Zn451 2.036 1_565 S
N457 C458 1.298 . S
N457 N460 1.398 . S
C458 N457 1.298 . S
C458 N461 1.367 . S
C458 C471 1.481 . S
C459 N460 1.299 . S
C459 N461 1.379 . S
N460 N457 1.398 . S
N460 C459 1.299 . S
N461 C458 1.367 . S
N461 C459 1.379 . S
C462 N464 1.298 . S
C462 N466 1.367 . S
C462 C470 1.481 . S
C463 N465 1.299 . S
C463 N466 1.379 . S
N464 Zn448 2.036 . S
N464 C462 1.298 . S
N464 N465 1.398 . S
N465 C463 1.299 . S
N465 N464 1.398 . S
N466 C462 1.367 . S
N466 C463 1.379 . S
H467 C470 0.980 . S
H468 C470 0.981 . S
H469 C470 0.981 . S
C470 C462 1.481 . S
C470 H467 0.980 . S
C470 H468 0.981 . S
C470 H469 0.981 . S
C471 C458 1.481 . S
C471 H472 0.980 . S
C471 H473 0.981 . S
C471 H474 0.981 . S
H472 C471 0.980 . S
H473 C471 0.981 . S
H474 C471 0.981 . S
O475 Zn451 2.066 . S
O475 C454 1.256 . S
O476 Zn448 2.053 . S
O476 C454 1.244 . S
C477 O455 1.259 . S
C477 O456 1.254 . S
O478 Zn448 2.066 . S
O478 C450 1.256 . S
O479 C450 1.244 . S
O479 Zn451 2.053 . S
Zn480 O481 2.055 . S
Zn480 O488 2.046 . S
Zn480 N496 2.036 . S
Zn480 O508 2.053 1_554 S
Zn480 O510 2.066 . S
O481 Zn480 2.055 . S
O481 C484 1.259 . S
C482 O510 1.256 1_556 S
C482 O511 1.244 . S
Zn483 O485 2.046 1_556 S
Zn483 O487 2.055 1_556 S
Zn483 N489 2.036 . S
Zn483 O507 2.066 . S
Zn483 O511 2.053 . S
C484 O481 1.259 . S
C484 O485 1.254 . S
O485 Zn483 2.046 1_554 S
O485 C484 1.254 . S
C486 O507 1.256 . S
C486 O508 1.244 . S
O487 Zn483 2.055 1_554 S
O487 C509 1.259 . S
O488 Zn480 2.046 . S
O488 C509 1.254 . S
N489 Zn483 2.036 . S
N489 C490 1.298 . S
N489 N492 1.398 . S
C490 N489 1.298 . S
C490 N493 1.367 . S
C490 C503 1.481 . S
C491 N492 1.299 . S
C491 N493 1.379 . S
N492 N489 1.398 . S
N492 C491 1.299 . S
N493 C490 1.367 . S
N493 C491 1.379 . S
C494 N496 1.298 . S
C494 N498 1.367 . S
C494 C502 1.481 . S
C495 N497 1.299 . S
C495 N498 1.379 . S
N496 Zn480 2.036 . S
N496 C494 1.298 . S
N496 N497 1.398 . S
N497 C495 1.299 . S
N497 N496 1.398 . S
N498 C494 1.367 . S
N498 C495 1.379 . S
H499 C502 0.980 . S
H500 C502 0.981 . S
H501 C502 0.981 . S
C502 C494 1.481 . S
C502 H499 0.980 . S
C502 H500 0.981 . S
C502 H501 0.981 . S
C503 C490 1.481 . S
C503 H504 0.980 . S
C503 H505 0.981 . S
C503 H506 0.981 . S
H504 C503 0.980 . S
H505 C503 0.981 . S
H506 C503 0.981 . S
O507 Zn483 2.066 . S
O507 C486 1.256 . S
O508 Zn480 2.053 1_556 S
O508 C486 1.244 . S
C509 O487 1.259 . S
C509 O488 1.254 . S
O510 Zn480 2.066 . S
O510 C482 1.256 1_554 S
O511 C482 1.244 . S
O511 Zn483 2.053 . S
C512 C513 1.369 1_655 S
C512 C514 1.419 . S
C512 H516 0.930 . S
C513 C512 1.369 1_455 S
C513 C522 1.429 . S
C514 C512 1.419 . S
C514 C515 1.363 1_655 S
C514 H517 0.929 . S
C515 C514 1.363 1_455 S
C515 C521 1.428 . S
H516 C512 0.930 . S
H517 C514 0.929 . S
S518 N519 1.613 . S
S518 N520 1.610 . S
N519 S518 1.613 . S
N519 C522 1.350 . S
N520 S518 1.610 . S
N520 C521 1.351 . S
C521 C515 1.428 . S
C521 N520 1.351 . S
C521 C522 1.434 . S
C522 C513 1.429 . S
C522 N519 1.350 . S
C522 C521 1.434 . S
C523 C524 1.369 . S
C523 C525 1.419 . S
C523 H527 0.930 . S
C524 C523 1.369 . S
C524 C533 1.429 . S
C525 C523 1.419 . S
C525 C526 1.363 . S
C525 H528 0.929 . S
C526 C525 1.363 . S
C526 C532 1.428 . S
H527 C523 0.930 . S
H528 C525 0.929 . S
S529 N530 1.613 . S
S529 N531 1.610 1_655 S
N530 S529 1.613 . S
N530 C533 1.350 . S
N531 S529 1.610 1_455 S
N531 C532 1.351 1_455 S
C532 C526 1.428 . S
C532 N531 1.351 1_655 S
C532 C533 1.434 . S
C533 C524 1.429 . S
C533 N530 1.350 . S
C533 C532 1.434 . S
C534 C535 1.369 . S
C534 C536 1.419 . S
C534 H538 0.930 . S
C535 C534 1.369 . S
C535 C544 1.429 . S
C536 C534 1.419 . S
C536 C537 1.363 . S
C536 H539 0.929 . S
C537 C536 1.363 . S
C537 C543 1.428 . S
H538 C534 0.930 . S
H539 C536 0.929 . S
S540 N541 1.613 . S
S540 N542 1.610 . S
N541 S540 1.613 . S
N541 C544 1.350 . S
N542 S540 1.610 . S
N542 C543 1.351 . S
C543 C537 1.428 . S
C543 N542 1.351 . S
C543 C544 1.434 . S
C544 C535 1.429 . S
C544 N541 1.350 . S
C544 C543 1.434 . S
C545 C546 1.369 . S
C545 C547 1.419 . S
C545 H549 0.930 . S
C546 C545 1.369 . S
C546 C555 1.429 . S
C547 C545 1.419 . S
C547 C548 1.363 . S
C547 H550 0.929 . S
C548 C547 1.363 . S
C548 C554 1.428 . S
H549 C545 0.930 . S
H550 C547 0.929 . S
S551 N552 1.613 . S
S551 N553 1.610 . S
N552 S551 1.613 . S
N552 C555 1.350 . S
N553 S551 1.610 . S
N553 C554 1.351 . S
C554 C548 1.428 . S
C554 N553 1.351 . S
C554 C555 1.434 . S
C555 C546 1.429 . S
C555 N552 1.350 . S
C555 C554 1.434 . S
C556 C557 1.369 . S
C556 C558 1.419 . S
C556 H560 0.930 . S
C557 C556 1.369 . S
C557 C566 1.429 1_545 S
C558 C556 1.419 . S
C558 C559 1.363 1_545 S
C558 H561 0.929 . S
C559 C558 1.363 1_565 S
C559 C565 1.428 . S
H560 C556 0.930 . S
H561 C558 0.929 . S
S562 N563 1.613 . S
S562 N564 1.610 . S
N563 S562 1.613 . S
N563 C566 1.350 . S
N564 S562 1.610 . S
N564 C565 1.351 . S
C565 C559 1.428 . S
C565 N564 1.351 . S
C565 C566 1.434 . S
C566 C557 1.429 1_565 S
C566 N563 1.350 . S
C566 C565 1.434 . S
C567 C568 1.369 . S
C567 C569 1.419 . S
C567 H571 0.930 1_455 S
C568 C567 1.369 . S
C568 C577 1.429 . S
C569 C567 1.419 . S
C569 C570 1.363 . S
C569 H572 0.929 . S
C570 C569 1.363 . S
C570 C576 1.428 . S
H571 C567 0.930 1_655 S
H572 C569 0.929 . S
S573 N574 1.613 . S
S573 N575 1.610 . S
N574 S573 1.613 . S
N574 C577 1.350 . S
N575 S573 1.610 . S
N575 C576 1.351 . S
C576 C570 1.428 . S
C576 N575 1.351 . S
C576 C577 1.434 . S
C577 C568 1.429 . S
C577 N574 1.350 . S
C577 C576 1.434 . S
C578 C579 1.369 . S
C578 C580 1.419 . S
C578 H582 0.930 . S
C579 C578 1.369 . S
C579 C588 1.429 . S
C580 C578 1.419 . S
C580 C581 1.363 . S
C580 H583 0.929 . S
C581 C580 1.363 . S
C581 C587 1.428 . S
H582 C578 0.930 . S
H583 C580 0.929 . S
S584 N585 1.613 . S
S584 N586 1.610 . S
N585 S584 1.613 . S
N585 C588 1.350 . S
N586 S584 1.610 . S
N586 C587 1.351 . S
C587 C581 1.428 . S
C587 N586 1.351 . S
C587 C588 1.434 . S
C588 C579 1.429 . S
C588 N585 1.350 . S
C588 C587 1.434 . S
C589 C590 1.369 . S
C589 C591 1.419 . S
C589 H593 0.930 . S
C590 C589 1.369 . S
C590 C599 1.429 . S
C591 C589 1.419 . S
C591 C592 1.363 . S
C591 H594 0.929 . S
C592 C591 1.363 . S
C592 C598 1.428 . S
H593 C589 0.930 . S
H594 C591 0.929 . S
S595 N596 1.613 . S
S595 N597 1.610 . S
N596 S595 1.613 . S
N596 C599 1.350 . S
N597 S595 1.610 . S
N597 C598 1.351 . S
C598 C592 1.428 . S
C598 N597 1.351 . S
C598 C599 1.434 . S
C599 C590 1.429 . S
C599 N596 1.350 . S
C599 C598 1.434 . S
C600 C601 1.369 . S
C600 C602 1.419 . S
C600 H604 0.930 . S
C601 C600 1.369 . S
C601 C610 1.429 . S
C602 C600 1.419 . S
C602 C603 1.363 . S
C602 H605 0.929 . S
C603 C602 1.363 . S
C603 C609 1.428 . S
H604 C600 0.930 . S
H605 C602 0.929 . S
S606 N607 1.613 . S
S606 N608 1.610 . S
N607 S606 1.613 . S
N607 C610 1.350 . S
N608 S606 1.610 . S
N608 C609 1.351 . S
C609 C603 1.428 . S
C609 N608 1.351 . S
C609 C610 1.434 . S
C610 C601 1.429 . S
C610 N607 1.350 . S
C610 C609 1.434 . S
C611 C612 1.369 . S
C611 C613 1.419 . S
C611 H615 0.930 . S
C612 C611 1.369 . S
C612 C621 1.429 . S
C613 C611 1.419 . S
C613 C614 1.363 . S
C613 H616 0.929 . S
C614 C613 1.363 . S
C614 C620 1.428 . S
H615 C611 0.930 . S
H616 C613 0.929 . S
S617 N618 1.613 . S
S617 N619 1.610 . S
N618 S617 1.613 . S
N618 C621 1.350 . S
N619 S617 1.610 . S
N619 C620 1.351 . S
C620 C614 1.428 . S
C620 N619 1.351 . S
C620 C621 1.434 . S
C621 C612 1.429 . S
C621 N618 1.350 . S
C621 C620 1.434 . S
C622 C623 1.369 1_565 S
C622 C624 1.419 . S
C622 H626 0.930 . S
C623 C622 1.369 1_545 S
C623 C632 1.429 . S
C624 C622 1.419 . S
C624 C625 1.363 1_565 S
C624 H627 0.929 . S
C625 C624 1.363 1_545 S
C625 C631 1.428 . S
H626 C622 0.930 . S
H627 C624 0.929 . S
S628 N629 1.613 . S
S628 N630 1.610 . S
N629 S628 1.613 . S
N629 C632 1.350 . S
N630 S628 1.610 . S
N630 C631 1.351 . S
C631 C625 1.428 . S
C631 N630 1.351 . S
C631 C632 1.434 . S
C632 C623 1.429 . S
C632 N629 1.350 . S
C632 C631 1.434 . S
C633 C634 1.369 . S
C633 C635 1.419 . S
C633 H637 0.930 . S
C634 C633 1.369 . S
C634 C643 1.429 . S
C635 C633 1.419 . S
C635 C636 1.363 . S
C635 H638 0.929 . S
C636 C635 1.363 . S
C636 C642 1.428 . S
H637 C633 0.930 . S
H638 C635 0.929 . S
S639 N640 1.613 . S
S639 N641 1.610 . S
N640 S639 1.613 . S
N640 C643 1.350 . S
N641 S639 1.610 . S
N641 C642 1.351 . S
C642 C636 1.428 . S
C642 N641 1.351 . S
C642 C643 1.434 . S
C643 C634 1.429 . S
C643 N640 1.350 . S
C643 C642 1.434 . S
C644 C645 1.369 1_554 S
C644 C646 1.419 . S
C644 H648 0.930 . S
C645 C644 1.369 1_556 S
C645 C654 1.429 . S
C646 C644 1.419 . S
C646 C647 1.363 1_554 S
C646 H649 0.929 . S
C647 C646 1.363 1_556 S
C647 C653 1.428 . S
H648 C644 0.930 . S
H649 C646 0.929 . S
S650 N651 1.613 . S
S650 N652 1.610 . S
N651 S650 1.613 . S
N651 C654 1.350 . S
N652 S650 1.610 . S
N652 C653 1.351 . S
C653 C647 1.428 . S
C653 N652 1.351 . S
C653 C654 1.434 . S
C654 C645 1.429 . S
C654 N651 1.350 . S
C654 C653 1.434 . S
C655 C656 1.369 . S
C655 C657 1.419 . S
C655 H659 0.930 . S
C656 C655 1.369 . S
C656 C665 1.429 . S
C657 C655 1.419 . S
C657 C658 1.363 . S
C657 H660 0.929 . S
C658 C657 1.363 . S
C658 C664 1.428 . S
H659 C655 0.930 . S
H660 C657 0.929 . S
S661 N662 1.613 . S
S661 N663 1.610 . S
N662 S661 1.613 . S
N662 C665 1.350 . S
N663 S661 1.610 . S
N663 C664 1.351 . S
C664 C658 1.428 . S
C664 N663 1.351 . S
C664 C665 1.434 . S
C665 C656 1.429 . S
C665 N662 1.350 . S
C665 C664 1.434 . S
C666 C667 1.369 . S
C666 C668 1.419 . S
C666 H670 0.930 . S
C667 C666 1.369 . S
C667 C676 1.429 . S
C668 C666 1.419 . S
C668 C669 1.363 . S
C668 H671 0.929 . S
C669 C668 1.363 . S
C669 C675 1.428 . S
H670 C666 0.930 . S
H671 C668 0.929 . S
S672 N673 1.613 . S
S672 N674 1.610 . S
N673 S672 1.613 . S
N673 C676 1.350 . S
N674 S672 1.610 . S
N674 C675 1.351 . S
C675 C669 1.428 . S
C675 N674 1.351 . S
C675 C676 1.434 . S
C676 C667 1.429 . S
C676 N673 1.350 . S
C676 C675 1.434 . S
C677 C678 1.369 . S
C677 C679 1.419 . S
C677 H681 0.930 . S
C678 C677 1.369 . S
C678 C687 1.429 . S
C679 C677 1.419 . S
C679 C680 1.363 . S
C679 H682 0.929 . S
C680 C679 1.363 . S
C680 C686 1.428 . S
H681 C677 0.930 . S
H682 C679 0.929 . S
S683 N684 1.613 . S
S683 N685 1.610 . S
N684 S683 1.613 . S
N684 C687 1.350 . S
N685 S683 1.610 . S
N685 C686 1.351 . S
C686 C680 1.428 . S
C686 N685 1.351 . S
C686 C687 1.434 . S
C687 C678 1.429 . S
C687 N684 1.350 . S
C687 C686 1.434 . S
C688 C689 1.369 . S
C688 C690 1.419 . S
C688 H692 0.930 . S
C689 C688 1.369 . S
C689 C698 1.429 . S
C690 C688 1.419 . S
C690 C691 1.363 . S
C690 H693 0.929 . S
C691 C690 1.363 . S
C691 C697 1.428 . S
H692 C688 0.930 . S
H693 C690 0.929 . S
S694 N695 1.613 . S
S694 N696 1.610 . S
N695 S694 1.613 . S
N695 C698 1.350 . S
N696 S694 1.610 . S
N696 C697 1.351 . S
C697 C691 1.428 . S
C697 N696 1.351 . S
C697 C698 1.434 . S
C698 C689 1.429 . S
C698 N695 1.350 . S
C698 C697 1.434 . S
C699 C700 1.369 . S
C699 C701 1.419 . S
C699 H703 0.930 . S
C700 C699 1.369 . S
C700 C709 1.429 . S
C701 C699 1.419 . S
C701 C702 1.363 . S
C701 H704 0.929 . S
C702 C701 1.363 . S
C702 C708 1.428 . S
H703 C699 0.930 . S
H704 C701 0.929 . S
S705 N706 1.613 . S
S705 N707 1.610 . S
N706 S705 1.613 . S
N706 C709 1.350 . S
N707 S705 1.610 . S
N707 C708 1.351 . S
C708 C702 1.428 . S
C708 N707 1.351 . S
C708 C709 1.434 . S
C709 C700 1.429 . S
C709 N706 1.350 . S
C709 C708 1.434 . S
C710 C711 1.369 . S
C710 C712 1.419 . S
C710 H714 0.930 . S
C711 C710 1.369 . S
C711 C720 1.429 . S
C712 C710 1.419 . S
C712 C713 1.363 . S
C712 H715 0.929 . S
C713 C712 1.363 . S
C713 C719 1.428 . S
H714 C710 0.930 . S
H715 C712 0.929 . S
S716 N717 1.613 . S
S716 N718 1.610 . S
N717 S716 1.613 . S
N717 C720 1.350 . S
N718 S716 1.610 . S
N718 C719 1.351 . S
C719 C713 1.428 . S
C719 N718 1.351 . S
C719 C720 1.434 . S
C720 C711 1.429 . S
C720 N717 1.350 . S
C720 C719 1.434 . S
C721 C722 1.369 . S
C721 C723 1.419 . S
C721 H725 0.930 . S
C722 C721 1.369 . S
C722 C731 1.429 . S
C723 C721 1.419 . S
C723 C724 1.363 . S
C723 H726 0.929 . S
C724 C723 1.363 . S
C724 C730 1.428 . S
H725 C721 0.930 . S
H726 C723 0.929 . S
S727 N728 1.613 . S
S727 N729 1.610 . S
N728 S727 1.613 . S
N728 C731 1.350 . S
N729 S727 1.610 . S
N729 C730 1.351 . S
C730 C724 1.428 . S
C730 N729 1.351 . S
C730 C731 1.434 . S
C731 C722 1.429 . S
C731 N728 1.350 . S
C731 C730 1.434 . S
C732 C733 1.369 . S
C732 C734 1.419 . S
C732 H736 0.930 . S
C733 C732 1.369 . S
C733 C742 1.429 . S
C734 C732 1.419 . S
C734 C735 1.363 . S
C734 H737 0.929 . S
C735 C734 1.363 . S
C735 C741 1.428 . S
H736 C732 0.930 . S
H737 C734 0.929 . S
S738 N739 1.613 . S
S738 N740 1.610 . S
N739 S738 1.613 . S
N739 C742 1.350 . S
N740 S738 1.610 . S
N740 C741 1.351 . S
C741 C735 1.428 . S
C741 N740 1.351 . S
C741 C742 1.434 . S
C742 C733 1.429 . S
C742 N739 1.350 . S
C742 C741 1.434 . S
C743 C744 1.369 . S
C743 C745 1.419 1_655 S
C743 H747 0.930 . S
C744 C743 1.369 . S
C744 C753 1.429 . S
C745 C743 1.419 1_455 S
C745 C746 1.363 1_455 S
C745 H748 0.929 . S
C746 C745 1.363 1_655 S
C746 C752 1.428 . S
H747 C743 0.930 . S
H748 C745 0.929 . S
S749 N750 1.613 . S
S749 N751 1.610 . S
N750 S749 1.613 . S
N750 C753 1.350 . S
N751 S749 1.610 . S
N751 C752 1.351 . S
C752 C746 1.428 . S
C752 N751 1.351 . S
C752 C753 1.434 . S
C753 C744 1.429 . S
C753 N750 1.350 . S
C753 C752 1.434 . S
C754 C755 1.369 . S
C754 C756 1.419 . S
C754 H758 0.930 . S
C755 C754 1.369 . S
C755 C764 1.429 . S
C756 C754 1.419 . S
C756 C757 1.363 . S
C756 H759 0.929 . S
C757 C756 1.363 . S
C757 C763 1.428 . S
H758 C754 0.930 . S
H759 C756 0.929 . S
S760 N761 1.613 . S
S760 N762 1.610 . S
N761 S760 1.613 . S
N761 C764 1.350 . S
N762 S760 1.610 . S
N762 C763 1.351 . S
C763 C757 1.428 . S
C763 N762 1.351 . S
C763 C764 1.434 . S
C764 C755 1.429 . S
C764 N761 1.350 . S
C764 C763 1.434 . S
C765 C766 1.369 . S
C765 C767 1.419 . S
C765 H769 0.930 . S
C766 C765 1.369 . S
C766 C775 1.429 . S
C767 C765 1.419 . S
C767 C768 1.363 . S
C767 H770 0.929 . S
C768 C767 1.363 . S
C768 C774 1.428 . S
H769 C765 0.930 . S
H770 C767 0.929 . S
S771 N772 1.613 . S
S771 N773 1.610 . S
N772 S771 1.613 . S
N772 C775 1.350 . S
N773 S771 1.610 . S
N773 C774 1.351 . S
C774 C768 1.428 . S
C774 N773 1.351 . S
C774 C775 1.434 . S
C775 C766 1.429 . S
C775 N772 1.350 . S
C775 C774 1.434 . S
C776 C777 1.369 . S
C776 C778 1.419 . S
C776 H780 0.930 . S
C777 C776 1.369 . S
C777 C786 1.429 . S
C778 C776 1.419 . S
C778 C779 1.363 . S
C778 H781 0.929 . S
C779 C778 1.363 . S
C779 C785 1.428 . S
H780 C776 0.930 . S
H781 C778 0.929 . S
S782 N783 1.613 . S
S782 N784 1.610 . S
N783 S782 1.613 . S
N783 C786 1.350 . S
N784 S782 1.610 . S
N784 C785 1.351 . S
C785 C779 1.428 . S
C785 N784 1.351 . S
C785 C786 1.434 . S
C786 C777 1.429 . S
C786 N783 1.350 . S
C786 C785 1.434 . S
C787 C788 1.369 . S
C787 C789 1.419 . S
C787 H791 0.930 . S
C788 C787 1.369 . S
C788 C797 1.429 . S
C789 C787 1.419 . S
C789 C790 1.363 . S
C789 H792 0.929 . S
C790 C789 1.363 . S
C790 C796 1.428 . S
H791 C787 0.930 . S
H792 C789 0.929 . S
S793 N794 1.613 . S
S793 N795 1.610 . S
N794 S793 1.613 . S
N794 C797 1.350 . S
N795 S793 1.610 . S
N795 C796 1.351 . S
C796 C790 1.428 . S
C796 N795 1.351 . S
C796 C797 1.434 . S
C797 C788 1.429 . S
C797 N794 1.350 . S
C797 C796 1.434 . S
C798 C799 1.369 . S
C798 C800 1.419 . S
C798 H802 0.930 . S
C799 C798 1.369 . S
C799 C808 1.429 . S
C800 C798 1.419 . S
C800 C801 1.363 . S
C800 H803 0.929 . S
C801 C800 1.363 . S
C801 C807 1.428 . S
H802 C798 0.930 . S
H803 C800 0.929 . S
S804 N805 1.613 . S
S804 N806 1.610 . S
N805 S804 1.613 . S
N805 C808 1.350 1_565 S
N806 S804 1.610 . S
N806 C807 1.351 1_565 S
C807 C801 1.428 . S
C807 N806 1.351 1_545 S
C807 C808 1.434 . S
C808 C799 1.429 . S
C808 N805 1.350 1_545 S
C808 C807 1.434 . S
C809 C810 1.369 . S
C809 C811 1.419 . S
C809 H813 0.930 . S
C810 C809 1.369 . S
C810 C819 1.429 . S
C811 C809 1.419 . S
C811 C812 1.363 . S
C811 H814 0.929 . S
C812 C811 1.363 . S
C812 C818 1.428 . S
H813 C809 0.930 . S
H814 C811 0.929 . S
S815 N816 1.613 . S
S815 N817 1.610 . S
N816 S815 1.613 . S
N816 C819 1.350 1_556 S
N817 S815 1.610 . S
N817 C818 1.351 1_556 S
C818 C812 1.428 . S
C818 N817 1.351 1_554 S
C818 C819 1.434 . S
C819 C810 1.429 . S
C819 N816 1.350 1_554 S
C819 C818 1.434 . S
C820 C821 1.369 . S
C820 C822 1.419 . S
C820 H824 0.930 . S
C821 C820 1.369 . S
C821 C830 1.429 . S
C822 C820 1.419 . S
C822 C823 1.363 . S
C822 H825 0.929 . S
C823 C822 1.363 . S
C823 C829 1.428 . S
H824 C820 0.930 . S
H825 C822 0.929 . S
S826 N827 1.613 . S
S826 N828 1.610 . S
N827 S826 1.613 . S
N827 C830 1.350 . S
N828 S826 1.610 . S
N828 C829 1.351 . S
C829 C823 1.428 . S
C829 N828 1.351 . S
C829 C830 1.434 . S
C830 C821 1.429 . S
C830 N827 1.350 . S
C830 C829 1.434 . S
C831 C832 1.369 . S
C831 C833 1.419 . S
C831 H835 0.930 . S
C832 C831 1.369 . S
C832 C841 1.429 . S
C833 C831 1.419 . S
C833 C834 1.363 . S
C833 H836 0.929 . S
C834 C833 1.363 . S
C834 C840 1.428 . S
H835 C831 0.930 . S
H836 C833 0.929 . S
S837 N838 1.613 . S
S837 N839 1.610 . S
N838 S837 1.613 . S
N838 C841 1.350 . S
N839 S837 1.610 . S
N839 C840 1.351 . S
C840 C834 1.428 . S
C840 N839 1.351 . S
C840 C841 1.434 . S
C841 C832 1.429 . S
C841 N838 1.350 . S
C841 C840 1.434 . S
C842 C843 1.369 . S
C842 C844 1.419 . S
C842 H846 0.930 . S
C843 C842 1.369 . S
C843 C852 1.429 . S
C844 C842 1.419 . S
C844 C845 1.363 . S
C844 H847 0.929 . S
C845 C844 1.363 . S
C845 C851 1.428 . S
H846 C842 0.930 . S
H847 C844 0.929 . S
S848 N849 1.613 . S
S848 N850 1.610 . S
N849 S848 1.613 . S
N849 C852 1.350 . S
N850 S848 1.610 . S
N850 C851 1.351 . S
C851 C845 1.428 . S
C851 N850 1.351 . S
C851 C852 1.434 . S
C852 C843 1.429 . S
C852 N849 1.350 . S
C852 C851 1.434 . S
C853 C854 1.369 . S
C853 C855 1.419 . S
C853 H857 0.930 . S
C854 C853 1.369 . S
C854 C863 1.429 . S
C855 C853 1.419 . S
C855 C856 1.363 . S
C855 H858 0.929 . S
C856 C855 1.363 . S
C856 C862 1.428 . S
H857 C853 0.930 . S
H858 C855 0.929 . S
S859 N860 1.613 . S
S859 N861 1.610 . S
N860 S859 1.613 . S
N860 C863 1.350 . S
N861 S859 1.610 . S
N861 C862 1.351 . S
C862 C856 1.428 . S
C862 N861 1.351 . S
C862 C863 1.434 . S
C863 C854 1.429 . S
C863 N860 1.350 . S
C863 C862 1.434 . S
C864 C865 1.369 . S
C864 C866 1.419 . S
C864 H868 0.930 . S
C865 C864 1.369 . S
C865 C874 1.429 . S
C866 C864 1.419 . S
C866 C867 1.363 . S
C866 H869 0.929 . S
C867 C866 1.363 . S
C867 C873 1.428 . S
H868 C864 0.930 . S
H869 C866 0.929 . S
S870 N871 1.613 . S
S870 N872 1.610 . S
N871 S870 1.613 . S
N871 C874 1.350 . S
N872 S870 1.610 . S
N872 C873 1.351 . S
C873 C867 1.428 . S
C873 N872 1.351 . S
C873 C874 1.434 . S
C874 C865 1.429 . S
C874 N871 1.350 . S
C874 C873 1.434 . S
C875 C876 1.369 . S
C875 C877 1.419 . S
C875 H879 0.930 . S
C876 C875 1.369 . S
C876 C885 1.429 . S
C877 C875 1.419 . S
C877 C878 1.363 . S
C877 H880 0.929 . S
C878 C877 1.363 . S
C878 C884 1.428 . S
H879 C875 0.930 . S
H880 C877 0.929 . S
S881 N882 1.613 . S
S881 N883 1.610 . S
N882 S881 1.613 . S
N882 C885 1.350 . S
N883 S881 1.610 . S
N883 C884 1.351 . S
C884 C878 1.428 . S
C884 N883 1.351 . S
C884 C885 1.434 . S
C885 C876 1.429 . S
C885 N882 1.350 . S
C885 C884 1.434 . S
C886 C887 1.369 . S
C886 C888 1.419 . S
C886 H890 0.930 . S
C887 C886 1.369 . S
C887 C896 1.429 . S
C888 C886 1.419 . S
C888 C889 1.363 . S
C888 H891 0.929 . S
C889 C888 1.363 . S
C889 C895 1.428 . S
H890 C886 0.930 . S
H891 C888 0.929 . S
S892 N893 1.613 . S
S892 N894 1.610 . S
N893 S892 1.613 . S
N893 C896 1.350 . S
N894 S892 1.610 . S
N894 C895 1.351 . S
C895 C889 1.428 . S
C895 N894 1.351 . S
C895 C896 1.434 . S
C896 C887 1.429 . S
C896 N893 1.350 . S
C896 C895 1.434 . S
C897 C898 1.369 . S
C897 C899 1.419 . S
C897 H901 0.930 . S
C898 C897 1.369 . S
C898 C907 1.429 . S
C899 C897 1.419 . S
C899 C900 1.363 . S
C899 H902 0.929 . S
C900 C899 1.363 . S
C900 C906 1.428 . S
H901 C897 0.930 . S
H902 C899 0.929 . S
S903 N904 1.613 . S
S903 N905 1.610 . S
N904 S903 1.613 . S
N904 C907 1.350 . S
N905 S903 1.610 . S
N905 C906 1.351 . S
C906 C900 1.428 . S
C906 N905 1.351 . S
C906 C907 1.434 . S
C907 C898 1.429 . S
C907 N904 1.350 . S
C907 C906 1.434 . S
C908 C909 1.369 . S
C908 C910 1.419 . S
C908 H912 0.930 . S
C909 C908 1.369 . S
C909 C918 1.429 . S
C910 C908 1.419 . S
C910 C911 1.363 . S
C910 H913 0.929 . S
C911 C910 1.363 . S
C911 C917 1.428 . S
H912 C908 0.930 . S
H913 C910 0.929 . S
S914 N915 1.613 . S
S914 N916 1.610 . S
N915 S914 1.613 . S
N915 C918 1.350 . S
N916 S914 1.610 . S
N916 C917 1.351 . S
C917 C911 1.428 . S
C917 N916 1.351 . S
C917 C918 1.434 . S
C918 C909 1.429 . S
C918 N915 1.350 . S
C918 C917 1.434 . S
C919 C920 1.369 . S
C919 C921 1.419 . S
C919 H923 0.930 . S
C920 C919 1.369 . S
C920 C929 1.429 . S
C921 C919 1.419 . S
C921 C922 1.363 . S
C921 H924 0.929 . S
C922 C921 1.363 . S
C922 C928 1.428 . S
H923 C919 0.930 . S
H924 C921 0.929 . S
S925 N926 1.613 . S
S925 N927 1.610 . S
N926 S925 1.613 . S
N926 C929 1.350 . S
N927 S925 1.610 . S
N927 C928 1.351 . S
C928 C922 1.428 . S
C928 N927 1.351 . S
C928 C929 1.434 . S
C929 C920 1.429 . S
C929 N926 1.350 . S
C929 C928 1.434 . S
C930 C931 1.369 . S
C930 C932 1.419 . S
C930 H934 0.930 . S
C931 C930 1.369 . S
C931 C940 1.429 . S
C932 C930 1.419 . S
C932 C933 1.363 . S
C932 H935 0.929 . S
C933 C932 1.363 . S
C933 C939 1.428 . S
H934 C930 0.930 . S
H935 C932 0.929 . S
S936 N937 1.613 . S
S936 N938 1.610 . S
N937 S936 1.613 . S
N937 C940 1.350 . S
N938 S936 1.610 . S
N938 C939 1.351 . S
C939 C933 1.428 . S
C939 N938 1.351 . S
C939 C940 1.434 . S
C940 C931 1.429 . S
C940 N937 1.350 . S
C940 C939 1.434 . S
C941 C942 1.369 . S
C941 C943 1.419 . S
C941 H945 0.930 . S
C942 C941 1.369 . S
C942 C951 1.429 . S
C943 C941 1.419 . S
C943 C944 1.363 . S
C943 H946 0.929 . S
C944 C943 1.363 . S
C944 C950 1.428 . S
H945 C941 0.930 . S
H946 C943 0.929 . S
S947 N948 1.613 . S
S947 N949 1.610 . S
N948 S947 1.613 . S
N948 C951 1.350 . S
N949 S947 1.610 . S
N949 C950 1.351 . S
C950 C944 1.428 . S
C950 N949 1.351 . S
C950 C951 1.434 . S
C951 C942 1.429 . S
C951 N948 1.350 . S
C951 C950 1.434 . S
C952 C953 1.369 . S
C952 C954 1.419 . S
C952 H956 0.930 . S
C953 C952 1.369 . S
C953 C962 1.429 . S
C954 C952 1.419 . S
C954 C955 1.363 . S
C954 H957 0.929 . S
C955 C954 1.363 . S
C955 C961 1.428 . S
H956 C952 0.930 . S
H957 C954 0.929 . S
S958 N959 1.613 . S
S958 N960 1.610 . S
N959 S958 1.613 . S
N959 C962 1.350 . S
N960 S958 1.610 . S
N960 C961 1.351 . S
C961 C955 1.428 . S
C961 N960 1.351 . S
C961 C962 1.434 . S
C962 C953 1.429 . S
C962 N959 1.350 . S
C962 C961 1.434 . S
C963 C964 1.369 . S
C963 C965 1.419 . S
C963 H967 0.930 . S
C964 C963 1.369 . S
C964 C973 1.429 . S
C965 C963 1.419 . S
C965 C966 1.363 . S
C965 H968 0.929 . S
C966 C965 1.363 . S
C966 C972 1.428 . S
H967 C963 0.930 . S
H968 C965 0.929 . S
S969 N970 1.613 . S
S969 N971 1.610 . S
N970 S969 1.613 . S
N970 C973 1.350 . S
N971 S969 1.610 . S
N971 C972 1.351 . S
C972 C966 1.428 . S
C972 N971 1.351 . S
C972 C973 1.434 . S
C973 C964 1.429 . S
C973 N970 1.350 . S
C973 C972 1.434 . S
C974 C975 1.369 . S
C974 C976 1.419 . S
C974 H978 0.930 . S
C975 C974 1.369 . S
C975 C984 1.429 . S
C976 C974 1.419 . S
C976 C977 1.363 . S
C976 H979 0.929 . S
C977 C976 1.363 . S
C977 C983 1.428 . S
H978 C974 0.930 . S
H979 C976 0.929 . S
S980 N981 1.613 . S
S980 N982 1.610 . S
N981 S980 1.613 . S
N981 C984 1.350 . S
N982 S980 1.610 . S
N982 C983 1.351 . S
C983 C977 1.428 . S
C983 N982 1.351 . S
C983 C984 1.434 . S
C984 C975 1.429 . S
C984 N981 1.350 . S
C984 C983 1.434 . S
C985 C986 1.369 . S
C985 C987 1.419 . S
C985 H989 0.930 . S
C986 C985 1.369 . S
C986 C995 1.429 . S
C987 C985 1.419 . S
C987 C988 1.363 . S
C987 H990 0.929 . S
C988 C987 1.363 . S
C988 C994 1.428 . S
H989 C985 0.930 . S
H990 C987 0.929 . S
S991 N992 1.613 . S
S991 N993 1.610 . S
N992 S991 1.613 . S
N992 C995 1.350 . S
N993 S991 1.610 . S
N993 C994 1.351 . S
C994 C988 1.428 . S
C994 N993 1.351 . S
C994 C995 1.434 . S
C995 C986 1.429 . S
C995 N992 1.350 . S
C995 C994 1.434 . S
C996 C997 1.369 . S
C996 C998 1.419 . S
C996 H1000 0.930 . S
C997 C996 1.369 . S
C997 C1006 1.429 . S
C998 C996 1.419 . S
C998 C999 1.363 . S
C998 H1001 0.929 . S
C999 C998 1.363 . S
C999 C1005 1.428 . S
H1000 C996 0.930 . S
H1001 C998 0.929 . S
S1002 N1003 1.613 . S
S1002 N1004 1.610 . S
N1003 S1002 1.613 . S
N1003 C1006 1.350 . S
N1004 S1002 1.610 . S
N1004 C1005 1.351 . S
C1005 C999 1.428 . S
C1005 N1004 1.351 . S
C1005 C1006 1.434 . S
C1006 C997 1.429 . S
C1006 N1003 1.350 . S
C1006 C1005 1.434 . S
C1007 C1008 1.369 . S
C1007 C1009 1.419 . S
C1007 H1011 0.930 . S
C1008 C1007 1.369 . S
C1008 C1017 1.429 . S
C1009 C1007 1.419 . S
C1009 C1010 1.363 . S
C1009 H1012 0.929 . S
C1010 C1009 1.363 . S
C1010 C1016 1.428 . S
H1011 C1007 0.930 . S
H1012 C1009 0.929 . S
S1013 N1014 1.613 . S
S1013 N1015 1.610 . S
N1014 S1013 1.613 . S
N1014 C1017 1.350 . S
N1015 S1013 1.610 . S
N1015 C1016 1.351 . S
C1016 C1010 1.428 . S
C1016 N1015 1.351 . S
C1016 C1017 1.434 . S
C1017 C1008 1.429 . S
C1017 N1014 1.350 . S
C1017 C1016 1.434 . S
C1018 C1019 1.369 . S
C1018 C1020 1.419 . S
C1018 H1022 0.930 . S
C1019 C1018 1.369 . S
C1019 C1028 1.429 . S
C1020 C1018 1.419 . S
C1020 C1021 1.363 . S
C1020 H1023 0.929 . S
C1021 C1020 1.363 . S
C1021 C1027 1.428 . S
H1022 C1018 0.930 . S
H1023 C1020 0.929 . S
S1024 N1025 1.613 . S
S1024 N1026 1.610 . S
N1025 S1024 1.613 . S
N1025 C1028 1.350 . S
N1026 S1024 1.610 . S
N1026 C1027 1.351 . S
C1027 C1021 1.428 . S
C1027 N1026 1.351 . S
C1027 C1028 1.434 . S
C1028 C1019 1.429 . S
C1028 N1025 1.350 . S
C1028 C1027 1.434 . S
C1029 C1030 1.369 . S
C1029 C1031 1.419 . S
C1029 H1033 0.930 . S
C1030 C1029 1.369 . S
C1030 C1039 1.429 . S
C1031 C1029 1.419 . S
C1031 C1032 1.363 . S
C1031 H1034 0.929 . S
C1032 C1031 1.363 . S
C1032 C1038 1.428 . S
H1033 C1029 0.930 . S
H1034 C1031 0.929 . S
S1035 N1036 1.613 . S
S1035 N1037 1.610 . S
N1036 S1035 1.613 . S
N1036 C1039 1.350 . S
N1037 S1035 1.610 . S
N1037 C1038 1.351 . S
C1038 C1032 1.428 . S
C1038 N1037 1.351 . S
C1038 C1039 1.434 . S
C1039 C1030 1.429 . S
C1039 N1036 1.350 . S
C1039 C1038 1.434 . S
C513 N18 0.998 1_455 S
C515 C36 0.989 . S
C524 N77 0.995 . S
C526 C61 1.015 . S
C535 C100 1.645 . S
C537 C66 1.664 . S
C546 C6 1.663 . S
C548 C125 1.643 . S
C557 C4 1.834 . S
C559 C290 1.806 . S
C568 C228 1.844 . S
C570 C38 1.786 . S
C579 N82 1.232 . S
C581 C322 1.238 . S
C590 C102 1.658 . S
C592 C445 1.680 . S
C601 C285 1.846 . S
C603 C34 1.783 . S
C612 C390 1.806 . S
C614 C93 1.836 . S
C623 C452 1.681 . S
C625 C98 1.657 . S
C634 N13 1.234 . S
C636 C358 1.238 . S
C645 C2 1.385 . S
C647 C262 1.387 . S
C656 N402 0.881 . S
C658 N146 0.887 . S
C667 C166 1.335 . S
C669 C477 1.331 . S
C678 N370 0.612 . S
C680 N210 0.590 . S
C689 C70 1.381 . S
C691 C226 1.387 . S
C700 N301 0.870 . S
C702 N141 0.895 . S
C711 N205 0.601 . S
C713 N333 0.606 . S
C722 N178 0.912 . S
C724 C354 0.938 . S
C733 C294 1.198 . S
C735 C189 1.240 . S
C744 C356 1.649 . S
C746 C230 1.702 1_655 S
C755 N173 0.582 . S
C757 C157 0.582 . S
C766 C292 0.604 . S
C768 N269 0.607 . S
C777 N429 0.817 . S
C779 C381 0.829 . S
C788 C196 1.351 . S
C790 C162 1.403 . S
C799 C317 1.519 . S
C801 C454 1.535 . S
C810 C422 1.294 . S
C812 C29 1.285 . S
C821 C68 1.288 . S
C823 C450 1.295 . S
C832 N397 1.178 . S
C834 N45 1.167 . S
C843 C253 1.245 . S
C845 C164 1.244 . S
C854 N114 0.690 . S
C856 N338 0.697 . S
C865 C388 1.520 . S
C867 C418 1.535 . S
C876 N242 0.606 . S
C878 C413 0.605 . S
C887 C194 1.075 . S
C889 N237 1.067 . S
C898 C130 0.845 . S
C900 N434 0.846 . S
C909 C386 1.195 . S
C911 C484 1.241 . S
C920 C509 1.242 . S
C922 C260 1.245 . S
C931 N50 1.160 . S
C933 N306 1.180 . S
C942 N274 1.057 . S
C944 C198 1.084 . S
C953 C258 1.702 . S
C955 C349 1.646 . S
C964 C486 1.407 . S
C966 C221 1.344 . S
C975 C420 1.333 . S
C977 C482 1.336 . S
C986 N365 0.699 . S
C988 N109 0.690 . S
C997 C324 0.821 . S
C999 N466 0.822 . S
C1008 C326 0.941 . S
C1010 N493 0.915 . S
C1019 C134 0.857 . S
C1021 N461 0.837 . S
C1030 N498 0.594 . S
C1032 C132 0.577 . S
