# Generated by pormake.
# Topology snl, (6)-cn, num edge types: 1
# Building blocks:
#     Node 0, Type 0, BuildingBlock: MIDCAF_clean_sbu_0, # of connection points: 6
#     Node 1, Type 0, BuildingBlock: MIDCAF_clean_sbu_0, # of connection points: 6
#     Node 2, Type 0, BuildingBlock: MIDCAF_clean_sbu_0, # of connection points: 6
#     Node 3, Type 0, BuildingBlock: MIDCAF_clean_sbu_0, # of connection points: 6
#     Node 4, Type 0, BuildingBlock: MIDCAF_clean_sbu_0, # of connection points: 6
#     Node 5, Type 0, BuildingBlock: MIDCAF_clean_sbu_0, # of connection points: 6
#     Node 6, Type 0, BuildingBlock: MIDCAF_clean_sbu_0, # of connection points: 6
#     Node 7, Type 0, BuildingBlock: MIDCAF_clean_sbu_0, # of connection points: 6
#     Node 8, Type 0, BuildingBlock: MIDCAF_clean_sbu_0, # of connection points: 6
#     Node 9, Type 0, BuildingBlock: MIDCAF_clean_sbu_0, # of connection points: 6
#     Node 10, Type 0, BuildingBlock: MIDCAF_clean_sbu_0, # of connection points: 6
#     Node 11, Type 0, BuildingBlock: MIDCAF_clean_sbu_0, # of connection points: 6
#     Node 12, Type 0, BuildingBlock: MIDCAF_clean_sbu_0, # of connection points: 6
#     Node 13, Type 0, BuildingBlock: MIDCAF_clean_sbu_0, # of connection points: 6
#     Node 14, Type 0, BuildingBlock: MIDCAF_clean_sbu_0, # of connection points: 6
#     Node 15, Type 0, BuildingBlock: MIDCAF_clean_sbu_0, # of connection points: 6
#     Edge 16, Type (0, 0), BuildingBlock: CIFDUS_clean_linker_0, # of connection points: 2
#     Edge 17, Type (0, 0), BuildingBlock: CIFDUS_clean_linker_0, # of connection points: 2
#     Edge 18, Type (0, 0), BuildingBlock: CIFDUS_clean_linker_0, # of connection points: 2
#     Edge 19, Type (0, 0), BuildingBlock: CIFDUS_clean_linker_0, # of connection points: 2
#     Edge 20, Type (0, 0), BuildingBlock: CIFDUS_clean_linker_0, # of connection points: 2
#     Edge 21, Type (0, 0), BuildingBlock: CIFDUS_clean_linker_0, # of connection points: 2
#     Edge 22, Type (0, 0), BuildingBlock: CIFDUS_clean_linker_0, # of connection points: 2
#     Edge 23, Type (0, 0), BuildingBlock: CIFDUS_clean_linker_0, # of connection points: 2
#     Edge 24, Type (0, 0), BuildingBlock: CIFDUS_clean_linker_0, # of connection points: 2
#     Edge 25, Type (0, 0), BuildingBlock: CIFDUS_clean_linker_0, # of connection points: 2
#     Edge 26, Type (0, 0), BuildingBlock: CIFDUS_clean_linker_0, # of connection points: 2
#     Edge 27, Type (0, 0), BuildingBlock: CIFDUS_clean_linker_0, # of connection points: 2
#     Edge 28, Type (0, 0), BuildingBlock: CIFDUS_clean_linker_0, # of connection points: 2
#     Edge 29, Type (0, 0), BuildingBlock: CIFDUS_clean_linker_0, # of connection points: 2
#     Edge 30, Type (0, 0), BuildingBlock: CIFDUS_clean_linker_0, # of connection points: 2
#     Edge 31, Type (0, 0), BuildingBlock: CIFDUS_clean_linker_0, # of connection points: 2
#     Edge 32, Type (0, 0), BuildingBlock: CIFDUS_clean_linker_0, # of connection points: 2
#     Edge 33, Type (0, 0), BuildingBlock: CIFDUS_clean_linker_0, # of connection points: 2
#     Edge 34, Type (0, 0), BuildingBlock: CIFDUS_clean_linker_0, # of connection points: 2
#     Edge 35, Type (0, 0), BuildingBlock: CIFDUS_clean_linker_0, # of connection points: 2
#     Edge 36, Type (0, 0), BuildingBlock: CIFDUS_clean_linker_0, # of connection points: 2
#     Edge 37, Type (0, 0), BuildingBlock: CIFDUS_clean_linker_0, # of connection points: 2
#     Edge 38, Type (0, 0), BuildingBlock: CIFDUS_clean_linker_0, # of connection points: 2
#     Edge 39, Type (0, 0), BuildingBlock: CIFDUS_clean_linker_0, # of connection points: 2
#     Edge 40, Type (0, 0), BuildingBlock: CIFDUS_clean_linker_0, # of connection points: 2
#     Edge 41, Type (0, 0), BuildingBlock: CIFDUS_clean_linker_0, # of connection points: 2
#     Edge 42, Type (0, 0), BuildingBlock: CIFDUS_clean_linker_0, # of connection points: 2
#     Edge 43, Type (0, 0), BuildingBlock: CIFDUS_clean_linker_0, # of connection points: 2
#     Edge 44, Type (0, 0), BuildingBlock: CIFDUS_clean_linker_0, # of connection points: 2
#     Edge 45, Type (0, 0), BuildingBlock: CIFDUS_clean_linker_0, # of connection points: 2
#     Edge 46, Type (0, 0), BuildingBlock: CIFDUS_clean_linker_0, # of connection points: 2
#     Edge 47, Type (0, 0), BuildingBlock: CIFDUS_clean_linker_0, # of connection points: 2
#     Edge 48, Type (0, 0), BuildingBlock: CIFDUS_clean_linker_0, # of connection points: 2
#     Edge 49, Type (0, 0), BuildingBlock: CIFDUS_clean_linker_0, # of connection points: 2
#     Edge 50, Type (0, 0), BuildingBlock: CIFDUS_clean_linker_0, # of connection points: 2
#     Edge 51, Type (0, 0), BuildingBlock: CIFDUS_clean_linker_0, # of connection points: 2
#     Edge 52, Type (0, 0), BuildingBlock: CIFDUS_clean_linker_0, # of connection points: 2
#     Edge 53, Type (0, 0), BuildingBlock: CIFDUS_clean_linker_0, # of connection points: 2
#     Edge 54, Type (0, 0), BuildingBlock: CIFDUS_clean_linker_0, # of connection points: 2
#     Edge 55, Type (0, 0), BuildingBlock: CIFDUS_clean_linker_0, # of connection points: 2
#     Edge 56, Type (0, 0), BuildingBlock: CIFDUS_clean_linker_0, # of connection points: 2
#     Edge 57, Type (0, 0), BuildingBlock: CIFDUS_clean_linker_0, # of connection points: 2
#     Edge 58, Type (0, 0), BuildingBlock: CIFDUS_clean_linker_0, # of connection points: 2
#     Edge 59, Type (0, 0), BuildingBlock: CIFDUS_clean_linker_0, # of connection points: 2
#     Edge 60, Type (0, 0), BuildingBlock: CIFDUS_clean_linker_0, # of connection points: 2
#     Edge 61, Type (0, 0), BuildingBlock: CIFDUS_clean_linker_0, # of connection points: 2
#     Edge 62, Type (0, 0), BuildingBlock: CIFDUS_clean_linker_0, # of connection points: 2
#     Edge 63, Type (0, 0), BuildingBlock: CIFDUS_clean_linker_0, # of connection points: 2
# Relax obj value: 0.110
# Max RMSD: 0.168
# Mean RMSD: 0.168
data_MOF--net-snl--node1-MIDCAF_clean_sbu_0--edge1-CIFDUS_clean_linker_0
_symmetry_space_group_name_H-M    P1
_symmetry_Int_Tables_number       1
_symmetry_cell_setting            triclinic
loop_
_symmetry_equiv_pos_as_xyz
'x, y, z'
_cell_length_a     53.351938
_cell_length_b     53.269533
_cell_length_c     13.56719
_cell_angle_alpha  89.901252
_cell_angle_beta   90.313866
_cell_angle_gamma 89.77851
loop_
_atom_site_label
_atom_site_type_symbol
_atom_site_fract_x
_atom_site_fract_y
_atom_site_fract_z
_atom_type_partial_charge
Zn0 Zn 0.1012 0.58954 0.32835 0.0
Zn1 Zn 0.14819 0.65656 0.19763 0.0
Zn2 Zn 0.12725 0.6221 0.2441 0.0
C3 C 0.11298 0.67843 0.29013 0.0
C4 C 0.18375 0.62764 0.27683 0.0
O5 O 0.12857 0.59199 0.13473 0.0
O6 O 0.11352 0.56363 0.23757 0.0
C7 C 0.06768 0.62701 0.28395 0.0
O8 O 0.10468 0.65749 0.25578 0.0
O9 O 0.13634 0.68167 0.29617 0.0
O10 O 0.18191 0.6424 0.2047 0.0
O11 O 0.16375 0.62143 0.32377 0.0
O12 O 0.06715 0.60457 0.3138 0.0
O13 O 0.08866 0.63713 0.26009 0.0
O14 O 0.14559 0.61332 0.38962 0.0
O15 O 0.11676 0.58942 0.45915 0.0
C16 C 0.13725 0.60101 0.46479 0.0
O17 O 0.137 0.61577 0.08741 0.0
O18 O 0.13457 0.65648 0.06163 0.0
C19 C 0.12406 0.569 0.15727 0.0
C20 C 0.13628 0.63451 0.02705 0.0
Zn21 Zn 0.6355 0.83349 0.43056 0.0
Zn22 Zn 0.57784 0.90182 0.31595 0.0
Zn23 Zn 0.60813 0.86872 0.37331 0.0
C24 C 0.55553 0.88148 0.47881 0.0
C25 C 0.62239 0.92735 0.33936 0.0
O26 O 0.64647 0.8855 0.39426 0.0
O27 O 0.66738 0.85117 0.43563 0.0
C28 C 0.61498 0.81535 0.26146 0.0
O29 O 0.57617 0.86882 0.47841 0.0
O30 O 0.55158 0.89827 0.41503 0.0
O31 O 0.5996 0.93118 0.31921 0.0
O32 O 0.62992 0.905 0.36275 0.0
O33 O 0.63007 0.80855 0.32807 0.0
O34 O 0.60533 0.83761 0.26266 0.0
O35 O 0.59606 0.85605 0.52742 0.0
O36 O 0.62272 0.82552 0.56156 0.0
C37 C 0.60504 0.83958 0.58875 0.0
O38 O 0.59498 0.85923 0.21669 0.0
O39 O 0.56959 0.89082 0.18224 0.0
C40 C 0.6671 0.87451 0.4203 0.0
C41 C 0.58056 0.87107 0.1548 0.0
Zn42 Zn 0.4104 0.41608 0.73804 0.0
Zn43 Zn 0.35911 0.34996 0.61535 0.0
Zn44 Zn 0.38174 0.3853 0.65552 0.0
C45 C 0.36732 0.37463 0.44021 0.0
C46 C 0.39751 0.32734 0.68367 0.0
O47 O 0.36548 0.39513 0.80417 0.0
O48 O 0.39553 0.41861 0.86855 0.0
C49 C 0.38772 0.43832 0.56876 0.0
O50 O 0.37014 0.39298 0.50118 0.0
O51 O 0.36716 0.35241 0.47322 0.0
O52 O 0.37459 0.3226 0.69601 0.0
O53 O 0.40404 0.34955 0.65612 0.0
O54 O 0.40012 0.44256 0.64631 0.0
O55 O 0.38042 0.41598 0.54786 0.0
O56 O 0.4205 0.36942 0.66859 0.0
O57 O 0.44381 0.4001 0.72794 0.0
C58 C 0.44204 0.37806 0.69496 0.0
O59 O 0.34629 0.38655 0.74241 0.0
O60 O 0.32533 0.36214 0.64109 0.0
C61 C 0.37471 0.40778 0.87718 0.0
C62 C 0.32523 0.3786 0.7074 0.0
Zn63 Zn 0.84621 0.1568 0.04327 0.0
Zn64 Zn 0.9171 0.10594 0.93913 0.0
Zn65 Zn 0.88299 0.13237 0.97096 0.0
C66 C 0.89354 0.11241 0.75967 0.0
C67 C 0.94014 0.1479 0.98349 0.0
O68 O 0.87334 0.11964 0.12611 0.0
O69 O 0.84298 0.14456 0.17909 0.0
C70 C 0.82909 0.13261 0.87241 0.0
O71 O 0.87553 0.11825 0.81876 0.0
O72 O 0.91535 0.1094 0.79433 0.0
O73 O 0.9437 0.12539 0.00944 0.0
O74 O 0.91799 0.15475 0.95575 0.0
O75 O 0.82149 0.1439 0.94825 0.0
O76 O 0.85262 0.12797 0.86059 0.0
O77 O 0.89684 0.17143 0.97659 0.0
O78 O 0.86196 0.19028 0.02396 0.0
C79 C 0.88456 0.19155 -0.00289 0.0
O80 O 0.88485 0.10017 0.07694 0.0
O81 O 0.9065 0.073 0.98914 0.0
C82 C 0.85827 0.12693 0.19515 0.0
C83 C 0.89255 0.07755 0.06137 0.0
Zn84 Zn 0.09406 0.40216 0.83659 0.0
Zn85 Zn 0.15748 0.34833 0.92872 0.0
Zn86 Zn 0.12854 0.37761 0.87967 0.0
C87 C 0.14582 0.37299 0.098 0.0
C88 C 0.12372 0.3177 0.87002 0.0
O89 O 0.13836 0.38983 0.72969 0.0
O90 O 0.09909 0.39911 0.69221 0.0
C91 C 0.12148 0.43233 0.95559 0.0
O92 O 0.13839 0.38896 0.03231 0.0
O93 O 0.15175 0.35102 0.07184 0.0
O94 O 0.14719 0.317 0.86002 0.0
O95 O 0.11292 0.3388 0.88901 0.0
O96 O 0.10576 0.43407 0.88649 0.0
O97 O 0.12965 0.41045 0.98155 0.0
O98 O 0.09279 0.35571 0.86592 0.0
O99 O 0.06503 0.38509 0.89887 0.0
C100 C 0.07001 0.36224 0.88452 0.0
O101 O 0.16121 0.38341 0.77921 0.0
O102 O 0.18704 0.36668 0.88797 0.0
C103 C 0.12153 0.39599 0.66535 0.0
C104 C 0.18365 0.38026 0.81314 0.0
Zn105 Zn 0.90073 0.90791 0.42163 0.0
Zn106 Zn 0.83702 0.85408 0.26737 0.0
Zn107 Zn 0.8661 0.88447 0.3356 0.0
C108 C 0.84881 0.8906 0.12458 0.0
C109 C 0.87495 0.82408 0.29749 0.0
O110 O 0.85201 0.8914 0.48407 0.0
O111 O 0.88612 0.9075 0.55192 0.0
C112 C 0.8808 0.94139 0.28362 0.0
O113 O 0.85706 0.90269 0.19965 0.0
O114 O 0.84188 0.86804 0.13336 0.0
O115 O 0.8516 0.82065 0.29958 0.0
O116 O 0.88363 0.8467 0.30084 0.0
O117 O 0.89651 0.94015 0.35328 0.0
O118 O 0.86865 0.92151 0.25785 0.0
O119 O 0.90242 0.86311 0.33001 0.0
O120 O 0.93086 0.88739 0.40021 0.0
C121 C 0.92532 0.86734 0.35621 0.0
O122 O 0.83085 0.88362 0.42846 0.0
O123 O 0.80541 0.8641 0.32532 0.0
C124 C 0.86368 0.90047 0.55923 0.0
C125 C 0.80853 0.87696 0.40197 0.0
Zn126 Zn 0.3585 0.66136 0.44355 0.0
Zn127 Zn 0.41927 0.61299 0.3073 0.0
Zn128 Zn 0.38511 0.63545 0.36451 0.0
C129 C 0.38366 0.62021 0.1554 0.0
C130 C 0.44246 0.65398 0.33765 0.0
O131 O 0.38256 0.61963 0.51075 0.0
O132 O 0.37169 0.65582 0.57683 0.0
C133 C 0.32774 0.63153 0.33854 0.0
O134 O 0.36908 0.62509 0.22763 0.0
O135 O 0.40701 0.61782 0.16963 0.0
O136 O 0.44906 0.63162 0.35426 0.0
O137 O 0.41888 0.65922 0.33033 0.0
O138 O 0.32786 0.64273 0.42007 0.0
O139 O 0.34814 0.63055 0.28799 0.0
O140 O 0.39947 0.675 0.37227 0.0
O141 O 0.3632 0.6946 0.38289 0.0
C142 C 0.38657 0.69549 0.37067 0.0
O143 O 0.38924 0.59953 0.45118 0.0
O144 O 0.41385 0.57896 0.34954 0.0
C145 C 0.3782 0.63316 0.58699 0.0
C146 C 0.39865 0.57863 0.41995 0.0
Zn147 Zn 0.66958 0.15263 0.4771 0.0
Zn148 Zn 0.61548 0.08826 0.57461 0.0
Zn149 Zn 0.64383 0.11955 0.52134 0.0
C150 C 0.58417 0.12564 0.52624 0.0
C151 C 0.6424 0.06494 0.4316 0.0
O152 O 0.67749 0.11795 0.62133 0.0
O153 O 0.70179 0.14016 0.52461 0.0
C154 C 0.63107 0.1782 0.54616 0.0
O155 O 0.60561 0.13646 0.53577 0.0
O156 O 0.5831 0.10199 0.5242 0.0
O157 O 0.63087 0.05953 0.50939 0.0
O158 O 0.64637 0.08821 0.40974 0.0
O159 O 0.65442 0.18164 0.54548 0.0
O160 O 0.62232 0.15619 0.5265 0.0
O161 O 0.6554 0.11124 0.36658 0.0
O162 O 0.66574 0.15034 0.33344 0.0
C163 C 0.66199 0.12823 0.3038 0.0
O164 O 0.65701 0.10779 0.67082 0.0
O165 O 0.62201 0.08934 0.71739 0.0
C166 C 0.69956 0.12567 0.59737 0.0
C167 C 0.64356 0.09746 0.73852 0.0
Zn168 Zn 0.92059 0.4047 0.68542 0.0
Zn169 Zn 0.84833 0.36804 0.87385 0.0
Zn170 Zn 0.88205 0.38858 0.77354 0.0
C171 C 0.8607 0.40846 0.9847 0.0
C172 C 0.88368 0.33138 0.86426 0.0
O173 O 0.86923 0.39849 0.61967 0.0
O174 O 0.90511 0.41176 0.55871 0.0
C175 C 0.90901 0.44061 0.82583 0.0
O176 O 0.87546 0.41151 0.91044 0.0
O177 O 0.84563 0.39034 0.98526 0.0
O178 O 0.8623 0.33445 0.90144 0.0
O179 O 0.89395 0.3494 0.81539 0.0
O180 O 0.92608 0.43516 0.76552 0.0
O181 O 0.89091 0.42519 0.84194 0.0
O182 O 0.91528 0.36246 0.78503 0.0
O183 O 0.94555 0.37762 0.69242 0.0
C184 C 0.93779 0.36098 0.75068 0.0
O185 O 0.84889 0.38617 0.67285 0.0
O186 O 0.82137 0.37093 0.77876 0.0
C187 C 0.88196 0.40803 0.54797 0.0
C188 C 0.82642 0.37919 0.69426 0.0
Zn189 Zn 0.40896 0.10819 0.67152 0.0
Zn190 Zn 0.36318 0.17536 0.5645 0.0
Zn191 Zn 0.38486 0.13944 0.61734 0.0
C192 C 0.36624 0.14775 0.39896 0.0
C193 C 0.40518 0.19444 0.64558 0.0
O194 O 0.3733 0.1296 0.77004 0.0
O195 O 0.41141 0.11711 0.81117 0.0
C196 C 0.37239 0.08705 0.56133 0.0
O197 O 0.37139 0.13125 0.46583 0.0
O198 O 0.36521 0.17072 0.42144 0.0
O199 O 0.38285 0.20134 0.63072 0.0
O200 O 0.41156 0.17139 0.63119 0.0
O201 O 0.38287 0.08349 0.64353 0.0
O202 O 0.37555 0.10823 0.51722 0.0
O203 O 0.42525 0.15074 0.60607 0.0
O204 O 0.4377 0.11191 0.58115 0.0
C205 C 0.44203 0.13511 0.57583 0.0
O206 O 0.3525 0.13975 0.71845 0.0
O207 O 0.33122 0.16467 0.6191 0.0
C208 C 0.38935 0.12277 0.83657 0.0
C209 C 0.3314 0.14901 0.68875 0.0
Zn210 Zn 0.58303 0.60178 0.05087 0.0
Zn211 Zn 0.65145 0.64035 0.20937 0.0
Zn212 Zn 0.62157 0.62221 0.12561 0.0
C213 C 0.63078 0.61673 0.34744 0.0
C214 C 0.63042 0.67935 0.12265 0.0
O215 O 0.63502 0.61238 0.98279 0.0
O216 O 0.59828 0.60202 0.91921 0.0
C217 C 0.60226 0.56705 0.18457 0.0
O218 O 0.62627 0.60414 0.26862 0.0
O219 O 0.63722 0.63946 0.34136 0.0
O220 O 0.65291 0.67239 0.13336 0.0
O221 O 0.61295 0.66313 0.13705 0.0
O222 O 0.58566 0.56863 0.11813 0.0
O223 O 0.61558 0.58647 0.2061 0.0
O224 O 0.59091 0.65002 0.13956 0.0
O225 O 0.55815 0.62778 0.09145 0.0
C226 C 0.56704 0.6477 0.12776 0.0
O227 O 0.65756 0.62106 0.04233 0.0
O228 O 0.67575 0.61307 0.18347 0.0
C229 C 0.62161 0.60514 0.90977 0.0
C230 C 0.67718 0.61399 0.09105 0.0
Zn231 Zn 0.13541 0.82984 0.06433 0.0
Zn232 Zn 0.08277 0.89507 0.16369 0.0
Zn233 Zn 0.1102 0.86451 0.11732 0.0
C234 C 0.05069 0.8608 0.11637 0.0
C235 C 0.11065 0.91814 0.03032 0.0
O236 O 0.14405 0.86698 0.21311 0.0
O237 O 0.16675 0.84081 0.12498 0.0
C238 C 0.09538 0.8065 0.14072 0.0
O239 O 0.07139 0.84951 0.13866 0.0
O240 O 0.051 0.88407 0.0992 0.0
O241 O 0.10083 0.92365 0.11145 0.0
O242 O 0.11223 0.89492 0.00411 0.0
O243 O 0.11777 0.80107 0.12047 0.0
O244 O 0.0878 0.82945 0.13592 0.0
O245 O 0.1209 0.87222 0.95994 0.0
O246 O 0.13458 0.83435 0.92152 0.0
C247 C 0.12926 0.85647 0.89542 0.0
O248 O 0.12367 0.87755 0.26405 0.0
O249 O 0.08642 0.89163 0.30733 0.0
C250 C 0.1655 0.85724 0.19145 0.0
C251 C 0.10865 0.88595 0.3308 0.0
Zn252 Zn 0.86164 0.66652 0.00649 0.0
Zn253 Zn 0.89285 0.59743 0.20402 0.0
Zn254 Zn 0.87787 0.63191 0.10339 0.0
C255 C 0.92607 0.63634 0.24046 0.0
C256 C 0.89728 0.57906 0.01868 0.0
O257 O 0.83911 0.63217 0.14907 0.0
O258 O 0.82647 0.65551 0.02433 0.0
C259 C 0.89252 0.69095 0.12633 0.0
O260 O 0.91288 0.64649 0.17108 0.0
O261 O 0.91997 0.61518 0.27431 0.0
O262 O 0.90417 0.57406 0.10537 0.0
O263 O 0.88618 0.60011 -2e-05 0.0
O264 O 0.87396 0.69651 0.07277 0.0
O265 O 0.8986 0.66768 0.13914 0.0
O266 O 0.87654 0.62092 0.94099 0.0
O267 O 0.87538 0.65905 0.87685 0.0
C268 C 0.87702 0.63565 0.86502 0.0
O269 O 0.85397 0.62335 0.23795 0.0
O270 O 0.86534 0.5857 0.28794 0.0
C271 C 0.82135 0.64071 0.09409 0.0
C272 C 0.85286 0.60542 0.30249 0.0
Zn273 Zn 0.09719 0.0975 0.77442 0.0
Zn274 Zn 0.15948 0.14316 0.97051 0.0
Zn275 Zn 0.13338 0.11583 0.86327 0.0
C276 C 0.1249 0.17592 0.91404 0.0
C277 C 0.18928 0.12708 0.8129 0.0
O278 O 0.12883 0.07872 0.93343 0.0
O279 O 0.09935 0.06405 0.83485 0.0
C280 C 0.07388 0.13639 0.84436 0.0
O281 O 0.11774 0.15475 0.87744 0.0
O282 O 0.14474 0.17705 0.96453 0.0
O283 O 0.19019 0.13675 0.89748 0.0
O284 O 0.16822 0.11963 0.77647 0.0
O285 O 0.067 0.11794 0.79315 0.0
O286 O 0.09713 0.13833 0.87092 0.0
O287 O 0.14866 0.10615 0.71619 0.0
O288 O 0.11244 0.09703 0.64564 0.0
C289 C 0.13594 0.09891 0.64038 0.0
O290 O 0.14058 0.09492 0.00338 0.0
O291 O 0.15821 0.12482 0.0924 0.0
C292 C 0.11546 0.06029 0.90169 0.0
C293 C 0.15024 0.10267 0.08517 0.0
Zn294 Zn 0.60456 0.40318 0.54616 0.0
Zn295 Zn 0.65581 0.33913 0.378 0.0
Zn296 Zn 0.62973 0.37228 0.45416 0.0
C297 C 0.64718 0.37426 0.23145 0.0
C298 C 0.61648 0.31215 0.4384 0.0
O299 O 0.64978 0.38159 0.59364 0.0
O300 O 0.62344 0.40755 0.66636 0.0
C301 C 0.61353 0.42749 0.37564 0.0
O302 O 0.63706 0.38634 0.30342 0.0
O303 O 0.65453 0.35197 0.24396 0.0
O304 O 0.63807 0.30805 0.4049 0.0
O305 O 0.6094 0.33485 0.45781 0.0
O306 O 0.60464 0.43169 0.4596 0.0
O307 O 0.62287 0.40572 0.3546 0.0
O308 O 0.59339 0.35346 0.49156 0.0
O309 O 0.57315 0.3851 0.56052 0.0
C310 C 0.57354 0.36261 0.53209 0.0
O311 O 0.66773 0.37236 0.52601 0.0
O312 O 0.68867 0.34468 0.43783 0.0
C313 C 0.64354 0.39514 0.66845 0.0
C314 C 0.68862 0.36162 0.50244 0.0
Zn315 Zn 0.33122 0.85997 0.55794 0.0
Zn316 Zn 0.38745 0.91092 0.37803 0.0
Zn317 Zn 0.35847 0.8879 0.45726 0.0
C318 C 0.36014 0.89654 0.23188 0.0
C319 C 0.4172 0.88245 0.48227 0.0
O320 O 0.35074 0.909 0.59314 0.0
O321 O 0.33186 0.87936 0.67916 0.0
C322 C 0.30376 0.87318 0.39123 0.0
O323 O 0.34542 0.89457 0.30635 0.0
O324 O 0.3836 0.89643 0.24572 0.0
O325 O 0.41777 0.90541 0.4603 0.0
O326 O 0.39668 0.87017 0.46892 0.0
O327 O 0.3011 0.86437 0.47675 0.0
O328 O 0.32529 0.8811 0.3624 0.0
O329 O 0.37902 0.85185 0.4801 0.0
O330 O 0.35055 0.82807 0.5521 0.0
C331 C 0.37198 0.83042 0.51431 0.0
O332 O 0.35705 0.92643 0.52115 0.0
O333 O 0.37097 0.94356 0.38502 0.0
C334 C 0.34082 0.90118 0.67382 0.0
C335 C 0.35984 0.94595 0.46588 0.0
H336 H 0.14914 0.59251 0.91991 0.0
H337 H 0.1307 0.67119 0.89015 0.0
H338 H 0.136 0.66876 0.71332 0.0
H339 H 0.14122 0.64377 0.56456 0.0
H340 H 0.15389 0.56421 0.58817 0.0
H341 H 0.15617 0.56744 0.76839 0.0
C342 C 0.14594 0.60896 0.87451 0.0
C343 C 0.13898 0.63179 0.91874 0.0
C344 C 0.14851 0.6074 0.77124 0.0
C345 C 0.13577 0.65321 0.85872 0.0
C346 C 0.13894 0.65195 0.75713 0.0
C347 C 0.14556 0.62738 0.60925 0.0
C348 C 0.14804 0.60395 0.56381 0.0
C349 C 0.14492 0.62912 0.71238 0.0
C350 C 0.15261 0.58256 0.62211 0.0
C351 C 0.15342 0.58435 0.72506 0.0
H352 H 0.60456 0.83326 0.05236 0.0
H353 H 0.55151 0.89392 0.01507 0.0
H354 H 0.55253 0.88862 0.83753 0.0
H355 H 0.57222 0.87003 0.69071 0.0
H356 H 0.6223 0.80687 0.72829 0.0
H357 H 0.61821 0.80962 0.90605 0.0
C358 C 0.59264 0.84479 0.00606 0.0
C359 C 0.57823 0.86406 0.04844 0.0
C360 C 0.59291 0.84143 0.9028 0.0
C361 C 0.56311 0.87902 0.98563 0.0
C362 C 0.56364 0.87608 0.88334 0.0
C363 C 0.58164 0.8564 0.73728 0.0
C364 C 0.59775 0.83853 0.6949 0.0
C365 C 0.57903 0.85781 0.84069 0.0
C366 C 0.60992 0.82112 0.75781 0.0
C367 C 0.6077 0.82267 0.8602 0.0
H368 H 0.36558 0.41861 0.33242 0.0
H369 H 0.35963 0.33811 0.30438 0.0
H370 H 0.35542 0.34191 0.12732 0.0
H371 H 0.35893 0.36721 0.97752 0.0
H372 H 0.36857 0.44715 0.00125 0.0
H373 H 0.36513 0.44461 0.18083 0.0
C374 C 0.3634 0.40198 0.28751 0.0
C375 C 0.36359 0.37816 0.33231 0.0
C376 C 0.36133 0.40417 0.18406 0.0
C377 C 0.36005 0.35677 0.27264 0.0
C378 C 0.35748 0.35885 0.17077 0.0
C379 C 0.35924 0.38414 0.02193 0.0
C380 C 0.36375 0.4073 0.97662 0.0
C381 C 0.35871 0.38235 0.12531 0.0
C382 C 0.36481 0.4291 0.03493 0.0
C383 C 0.36322 0.42762 0.13767 0.0
H384 H 0.8501 0.1073 0.65109 0.0
H385 H 0.93038 0.11205 0.62281 0.0
H386 H 0.92662 0.11224 0.44468 0.0
H387 H 0.90066 0.11651 0.29634 0.0
H388 H 0.82025 0.11671 0.32197 0.0
H389 H 0.82375 0.10926 0.49973 0.0
C390 C 0.86661 0.10892 0.60583 0.0
C391 C 0.89029 0.1106 0.65098 0.0
C392 C 0.86433 0.10985 0.50222 0.0
C393 C 0.91176 0.1111 0.59082 0.0
C394 C 0.90971 0.11124 0.48841 0.0
C395 C 0.88394 0.11423 0.34062 0.0
C396 C 0.86029 0.11696 0.29645 0.0
C397 C 0.8861 0.1113 0.44327 0.0
C398 C 0.83871 0.11457 0.35473 0.0
C399 C 0.84069 0.11054 0.45645 0.0
H400 H 0.1182 0.40677 0.20409 0.0
H401 H 0.17787 0.35226 0.22997 0.0
H402 H 0.17771 0.35642 0.40861 0.0
H403 H 0.15698 0.37149 0.55861 0.0
H404 H 0.09758 0.42619 0.53404 0.0
H405 H 0.10134 0.42617 0.35491 0.0
C406 C 0.1316 0.39638 0.24879 0.0
C407 C 0.14788 0.37917 0.2039 0.0
C408 C 0.13128 0.39865 0.35217 0.0
C409 C 0.1649 0.36547 0.26292 0.0
C410 C 0.16486 0.3678 0.36521 0.0
C411 C 0.14558 0.38407 0.5142 0.0
C412 C 0.12719 0.39885 0.55944 0.0
C413 C 0.14764 0.38378 0.41092 0.0
C414 C 0.11185 0.41448 0.50071 0.0
C415 C 0.11394 0.41448 0.39819 0.0
H416 H 0.81918 0.87805 0.97244 0.0
H417 H 0.88067 0.92619 0.05473 0.0
H418 H 0.88606 0.93852 0.88309 0.0
H419 H 0.87852 0.92943 0.71013 0.0
H420 H 0.82399 0.87388 0.62742 0.0
H421 H 0.80997 0.87082 0.79821 0.0
C422 C 0.83345 0.8916 0.95272 0.0
C423 C 0.84927 0.90157 0.02572 0.0
C424 C 0.83769 0.89699 0.85362 0.0
C425 C 0.86777 0.91895 -2e-05 0.0
C426 C 0.87111 0.92566 0.90176 0.0
C427 C 0.8633 0.91691 0.72928 0.0
C428 C 0.85206 0.90186 0.65667 0.0
C429 C 0.85692 0.91391 0.82799 0.0
C430 C 0.83227 0.886 0.68191 0.0
C431 C 0.82467 0.88398 0.77971 0.0
H432 H 0.34768 0.64598 0.73288 0.0
H433 H 0.40899 0.59641 0.66085 0.0
H434 H 0.41283 0.58414 0.83476 0.0
H435 H 0.40293 0.59308 0.00763 0.0
H436 H 0.34415 0.64584 0.07786 0.0
H437 H 0.33442 0.65088 0.90293 0.0
C438 C 0.36174 0.63231 0.75535 0.0
C439 C 0.37852 0.62252 0.68603 0.0
C440 C 0.3641 0.62595 0.8544 0.0
C441 C 0.39616 0.60431 0.71418 0.0
C442 C 0.39835 0.59741 0.81314 0.0
C443 C 0.38768 0.60529 0.98432 0.0
C444 C 0.37422 0.61915 0.05443 0.0
C445 C 0.38308 0.60894 0.88405 0.0
C446 C 0.35435 0.6347 0.02471 0.0
C447 C 0.34908 0.63785 0.92491 0.0
H448 H 0.67041 0.132 0.8412 0.0
H449 H 0.63344 0.06059 0.86992 0.0
H450 H 0.63814 0.06227 0.04898 0.0
H451 H 0.64803 0.08676 0.19836 0.0
H452 H 0.68353 0.15882 0.16817 0.0
H453 H 0.68446 0.15409 0.99025 0.0
C454 C 0.66405 0.11652 0.88664 0.0
C455 C 0.65161 0.09625 0.84271 0.0
C456 C 0.66617 0.11792 0.98984 0.0
C457 C 0.64307 0.07645 0.90241 0.0
C458 C 0.64562 0.07744 0.00482 0.0
C459 C 0.65619 0.10116 0.1529 0.0
C460 C 0.66511 0.12319 0.19692 0.0
C461 C 0.65635 0.09851 0.04965 0.0
C462 C 0.676 0.14176 0.13663 0.0
C463 C 0.67662 0.13911 0.03446 0.0
H464 H 0.82809 0.4109 0.13623 0.0
H465 H 0.90213 0.43422 0.04891 0.0
H466 H 0.9137 0.44004 0.22159 0.0
H467 H 0.90583 0.42935 0.39348 0.0
H468 H 0.83336 0.402 0.48147 0.0
H469 H 0.81817 0.40629 0.31177 0.0
C470 C 0.84658 0.41795 0.15478 0.0
C471 C 0.86442 0.42162 0.07962 0.0
C472 C 0.85363 0.41946 0.25424 0.0
C473 C 0.88804 0.43126 0.10473 0.0
C474 C 0.8948 0.43411 0.20381 0.0
C475 C 0.88657 0.42447 0.37638 0.0
C476 C 0.87097 0.41418 0.4499 0.0
C477 C 0.87826 0.42671 0.27868 0.0
C478 C 0.84596 0.40891 0.4261 0.0
C479 C 0.83727 0.41161 0.32907 0.0
H480 H 0.38946 0.11093 0.29584 0.0
H481 H 0.33487 0.17041 0.26895 0.0
H482 H 0.33441 0.16579 0.08998 0.0
H483 H 0.35413 0.14895 0.94005 0.0
H484 H 0.41039 0.09098 0.96851 0.0
H485 H 0.40532 0.09057 0.14662 0.0
C486 C 0.37691 0.12226 0.25082 0.0
C487 C 0.36234 0.14098 0.29493 0.0
C488 C 0.37733 0.12006 0.14772 0.0
C489 C 0.34644 0.15595 0.236 0.0
C490 C 0.34621 0.1534 0.13371 0.0
C491 C 0.36484 0.13592 0.9853 0.0
C492 C 0.38287 0.12038 0.94162 0.0
C493 C 0.3623 0.13618 0.08842 0.0
C494 C 0.3967 0.10352 0.00087 0.0
C495 C 0.39381 0.1032 0.10278 0.0
H496 H 0.60227 0.57793 0.76153 0.0
H497 H 0.66478 0.62523 0.83852 0.0
H498 H 0.67626 0.62855 0.66526 0.0
H499 H 0.66289 0.62542 0.49364 0.0
H500 H 0.59782 0.58182 0.41575 0.0
H501 H 0.59286 0.56925 0.58846 0.0
C502 C 0.61868 0.5886 0.74038 0.0
C503 C 0.63235 0.60197 0.81166 0.0
C504 C 0.62432 0.59132 0.64085 0.0
C505 C 0.65397 0.61503 0.7845 0.0
C506 C 0.66034 0.61709 0.68552 0.0
C507 C 0.64785 0.61285 0.51467 0.0
C508 C 0.63029 0.60499 0.44424 0.0
C509 C 0.64476 0.60653 0.61329 0.0
C510 C 0.6113 0.5882 0.47009 0.0
C511 C 0.60845 0.58116 0.5684 0.0
H512 H 0.14187 0.85705 0.435 0.0
H513 H 0.09054 0.91933 0.46261 0.0
H514 H 0.09436 0.91776 0.64163 0.0
H515 H 0.10749 0.89463 0.79059 0.0
H516 H 0.15864 0.83231 0.76293 0.0
H517 H 0.15979 0.83796 0.58506 0.0
C518 C 0.13216 0.87072 0.48019 0.0
C519 C 0.11583 0.8881 0.43578 0.0
C520 C 0.13402 0.86942 0.5836 0.0
C521 C 0.10308 0.90556 0.49532 0.0
C522 C 0.10516 0.90465 0.59779 0.0
C523 C 0.11939 0.88284 0.74591 0.0
C524 C 0.13264 0.86302 0.79011 0.0
C525 C 0.11983 0.88605 0.64295 0.0
C526 C 0.14784 0.84755 0.73078 0.0
C527 C 0.14858 0.85075 0.62879 0.0
H528 H 0.84402 0.60507 0.7668 0.0
H529 H 0.91096 0.64912 0.73082 0.0
H530 H 0.90643 0.64717 0.55216 0.0
H531 H 0.88282 0.63465 0.40633 0.0
H532 H 0.81825 0.58713 0.43472 0.0
H533 H 0.82162 0.58952 0.61581 0.0
C534 C 0.85805 0.61339 0.71947 0.0
C535 C 0.87815 0.62679 0.76194 0.0
C536 C 0.85503 0.61258 0.61573 0.0
C537 C 0.89572 0.63824 0.69983 0.0
C538 C 0.89287 0.63753 0.59769 0.0
C539 C 0.86903 0.62542 0.4523 0.0
C540 C 0.84959 0.61174 0.40757 0.0
C541 C 0.87228 0.62535 0.55503 0.0
C542 C 0.83269 0.5987 0.4677 0.0
C543 C 0.83498 0.59964 0.57106 0.0
H544 H 0.1144 0.07262 0.49352 0.0
H545 H 0.18338 0.10937 0.57292 0.0
H546 H 0.19738 0.10691 0.40143 0.0
H547 H 0.18528 0.1029 0.22718 0.0
H548 H 0.11393 0.07056 0.14894 0.0
H549 H 0.10589 0.0614 0.32265 0.0
C550 C 0.13267 0.07992 0.47386 0.0
C551 C 0.14739 0.09259 0.54462 0.0
C552 C 0.14006 0.07892 0.3754 0.0
C553 C 0.1714 0.10067 0.5189 0.0
C554 C 0.17936 0.09908 0.42104 0.0
C555 C 0.16835 0.09304 0.24818 0.0
C556 C 0.14993 0.08783 0.17639 0.0
C557 C 0.16317 0.08956 0.34812 0.0
C558 C 0.1283 0.07473 0.20317 0.0
C559 C 0.12356 0.06991 0.30255 0.0
H560 H 0.67082 0.35299 0.07667 0.0
H561 H 0.63303 0.42089 0.16459 0.0
H562 H 0.63464 0.43655 -0.00439 0.0
H563 H 0.6405 0.4274 0.82062 0.0
H564 H 0.67464 0.35742 0.73225 0.0
H565 H 0.68221 0.34663 0.90485 0.0
C566 C 0.66304 0.37134 0.0595 0.0
C567 C 0.65076 0.38545 0.13277 0.0
C568 C 0.66381 0.37986 0.96215 0.0
C569 C 0.64167 0.40942 0.10927 0.0
C570 C 0.64282 0.41838 0.01268 0.0
C571 C 0.65019 0.41006 0.83908 0.0
C572 C 0.65647 0.39293 0.76419 0.0
C573 C 0.65292 0.40327 0.93805 0.0
C574 C 0.66951 0.37084 0.7886 0.0
C575 C 0.67348 0.3645 0.88732 0.0
H576 H 0.3863 0.91537 0.07896 0.0
H577 H 0.31189 0.89343 0.16437 0.0
H578 H 0.29699 0.89957 -0.00463 0.0
H579 H 0.30741 0.90434 0.82019 0.0
H580 H 0.38188 0.92662 0.73629 0.0
H581 H 0.39423 0.92907 0.90976 0.0
C582 C 0.36679 0.91191 0.0608 0.0
C583 C 0.35045 0.90221 0.13239 0.0
C584 C 0.35836 0.91631 0.96459 0.0
C585 C 0.32502 0.89927 0.109 0.0
C586 C 0.31647 0.90328 0.01291 0.0
C587 C 0.32601 0.91079 0.84042 0.0
C588 C 0.34394 0.91473 0.76668 0.0
C589 C 0.33324 0.91086 0.93952 0.0
C590 C 0.36785 0.92344 0.79238 0.0
C591 C 0.37504 0.9243 0.89137 0.0
H592 H 0.07831 0.69629 0.16272 0.0
H593 H 0.1126 0.71021 0.44533 0.0
H594 H 0.1002 0.75431 0.43629 0.0
H595 H 0.09271 0.78968 0.32499 0.0
H596 H 0.06527 0.77645 0.03125 0.0
H597 H 0.06075 0.7317 0.06754 0.0
C598 C 0.08186 0.70879 0.22428 0.0
C599 C 0.09657 0.70034 0.30394 0.0
C600 C 0.07626 0.73451 0.21505 0.0
C601 C 0.10141 0.71654 0.38312 0.0
C602 C 0.09452 0.74179 0.37743 0.0
C603 C 0.0843 0.77714 0.27127 0.0
C604 C 0.07945 0.78606 0.17575 0.0
C605 C 0.08381 0.75127 0.29037 0.0
C606 C 0.06894 0.76986 0.10557 0.0
C607 C 0.06685 0.74419 0.12585 0.0
H608 H 0.52493 0.8422 0.45351 0.0
H609 H 0.53737 0.90739 0.63396 0.0
H610 H 0.49273 0.90958 0.67198 0.0
H611 H 0.45025 0.9006 0.61298 0.0
H612 H 0.43715 0.83786 0.41996 0.0
H613 H 0.48175 0.82662 0.42833 0.0
C614 C 0.51797 0.85593 0.50576 0.0
C615 C 0.53422 0.87465 0.54106 0.0
C616 C 0.49201 0.85799 0.52173 0.0
C617 C 0.52513 0.89272 0.60691 0.0
C618 C 0.49954 0.89421 0.62709 0.0
C619 C 0.45708 0.8839 0.57585 0.0
C620 C 0.44077 0.87035 0.51427 0.0
C621 C 0.48273 0.87816 0.57868 0.0
C622 C 0.4495 0.8486 0.46732 0.0
C623 C 0.47503 0.84235 0.47146 0.0
H624 H 0.40624 0.29331 0.82772 0.0
H625 H 0.4275 0.3139 0.5329 0.0
H626 H 0.44148 0.27093 0.50106 0.0
H627 H 0.43387 0.22639 0.54159 0.0
H628 H 0.41224 0.20611 0.83596 0.0
H629 H 0.41353 0.25001 0.88596 0.0
C630 C 0.41514 0.28858 0.75841 0.0
C631 C 0.41532 0.30628 0.6818 0.0
C632 C 0.42285 0.26381 0.74051 0.0
C633 C 0.42705 0.30033 0.59248 0.0
C634 C 0.43482 0.27571 0.57401 0.0
C635 C 0.43121 0.23148 0.61824 0.0
C636 C 0.42239 0.21334 0.68458 0.0
C637 C 0.43093 0.25695 0.64503 0.0
C638 C 0.41897 0.21992 0.78372 0.0
C639 C 0.41915 0.24512 0.81175 0.0
H640 H 0.9817 0.15615 0.09464 0.0
H641 H 0.94925 0.17008 0.80829 0.0
H642 H 0.99101 0.17331 0.73683 0.0
H643 H 0.0353 0.15974 0.75022 0.0
H644 H 0.068 0.14734 0.03719 0.0
H645 H 0.02779 0.15664 0.11481 0.0
C646 C 0.98385 0.1613 0.01775 0.0
C647 C 0.96255 0.1624 0.95634 0.0
C648 C 0.00798 0.16277 0.97697 0.0
C649 C 0.96541 0.16916 0.85695 0.0
C650 C 0.98933 0.17059 0.8157 0.0
C651 C 0.03385 0.16031 0.82991 0.0
C652 C 0.05429 0.15239 0.88808 0.0
C653 C 0.01061 0.16558 0.87388 0.0
C654 C 0.05242 0.15333 0.99114 0.0
C655 C 0.02934 0.15835 0.03546 0.0
H656 H 0.11732 0.28124 0.73363 0.0
H657 H 0.10244 0.30046 0.03584 0.0
H658 H 0.09648 0.25614 0.07648 0.0
H659 H 0.10587 0.21209 0.03244 0.0
H660 H 0.11845 0.19281 0.72859 0.0
H661 H 0.11426 0.23693 0.68087 0.0
C662 C 0.1116 0.27571 0.80713 0.0
C663 C 0.11054 0.29379 0.88205 0.0
C664 C 0.10822 0.25021 0.82974 0.0
C665 C 0.10321 0.28669 0.9772 0.0
C666 C 0.10011 0.26135 0.00064 0.0
C667 C 0.10655 0.21752 0.95539 0.0
C668 C 0.11278 0.19954 0.88409 0.0
C669 C 0.10407 0.2429 0.92868 0.0
C670 C 0.11361 0.2065 0.7844 0.0
C671 C 0.11149 0.23174 0.75731 0.0
H672 H 0.03468 0.83815 0.28115 0.0
H673 H 0.01161 0.8593 0.98797 0.0
H674 H 0.96757 0.85538 0.03431 0.0
H675 H 0.93691 0.8575 0.16829 0.0
H676 H 0.96099 0.84415 0.46708 0.0
H677 H 0.00294 0.83281 0.40986 0.0
C678 C 0.01994 0.8407 0.22655 0.0
C679 C 0.02617 0.84894 0.13148 0.0
C680 C 0.99472 0.84033 0.25604 0.0
C681 C 0.00708 0.8528 0.06146 0.0
C682 C 0.98193 0.85085 0.08836 0.0
C683 C 0.95108 0.85091 0.21999 0.0
C684 C 0.94605 0.85148 0.32138 0.0
C685 C 0.97559 0.8463 0.18699 0.0
C686 C 0.96456 0.84361 0.38856 0.0
C687 C 0.9886 0.83742 0.35586 0.0
H688 H 0.40227 0.71902 0.53193 0.0
H689 H 0.39391 0.72779 0.2183 0.0
H690 H 0.39527 0.77357 0.23565 0.0
H691 H 0.38772 0.80996 0.34406 0.0
H692 H 0.38904 0.79974 0.65889 0.0
H693 H 0.40213 0.75602 0.63851 0.0
C694 C 0.40206 0.73105 0.46723 0.0
C695 C 0.3983 0.72031 0.37402 0.0
C696 C 0.40098 0.75719 0.4789 0.0
C697 C 0.39725 0.73582 0.2905 0.0
C698 C 0.39763 0.76196 0.30076 0.0
C699 C 0.39194 0.79834 0.40783 0.0
C700 C 0.38753 0.80781 0.50276 0.0
C701 C 0.39785 0.77279 0.39512 0.0
C702 C 0.39246 0.79268 0.5853 0.0
C703 C 0.39973 0.76767 0.57353 0.0
H704 H 0.54647 0.12232 0.39561 0.0
H705 H 0.56855 0.15948 0.66352 0.0
H706 H 0.52474 0.17106 0.69535 0.0
H707 H 0.47957 0.162 0.66359 0.0
H708 H 0.4587 0.12383 0.39589 0.0
H709 H 0.50242 0.12199 0.34525 0.0
C710 C 0.54173 0.1338 0.45891 0.0
C711 C 0.56043 0.13984 0.52771 0.0
C712 C 0.51661 0.13999 0.47705 0.0
C713 C 0.55431 0.1547 0.60953 0.0
C714 C 0.52924 0.16108 0.62816 0.0
C715 C 0.48462 0.15435 0.59234 0.0
C716 C 0.46611 0.14293 0.53352 0.0
C717 C 0.51007 0.15265 0.565 0.0
C718 C 0.47275 0.13271 0.442 0.0
C719 C 0.49775 0.13144 0.41347 0.0
H720 H 0.90267 0.21641 0.83637 0.0
H721 H 0.88977 0.22334 0.14836 0.0
H722 H 0.89351 0.26885 0.13709 0.0
H723 H 0.89088 0.30637 0.03354 0.0
H724 H 0.90229 0.30069 0.72066 0.0
H725 H 0.90915 0.25521 0.73654 0.0
C726 C 0.90182 0.22791 0.90218 0.0
C727 C 0.89594 0.21669 0.99314 0.0
C728 C 0.90313 0.25432 0.89441 0.0
C729 C 0.8944 0.23168 0.07785 0.0
C730 C 0.89628 0.25771 0.07124 0.0
C731 C 0.89576 0.29525 0.96944 0.0
C732 C 0.89581 0.30661 0.87609 0.0
C733 C 0.8992 0.26924 0.9792 0.0
C734 C 0.90221 0.29222 0.79332 0.0
C735 C 0.90587 0.2662 0.80239 0.0
H736 H 0.64208 0.79474 0.11702 0.0
H737 H 0.57071 0.79078 0.26168 0.0
H738 H 0.56654 0.74663 0.21433 0.0
H739 H 0.58867 0.70721 0.16937 0.0
H740 H 0.66119 0.71195 0.03141 0.0
H741 H 0.65929 0.75752 0.0365 0.0
C742 C 0.62502 0.78452 0.13324 0.0
C743 C 0.60677 0.79579 0.19255 0.0
C744 C 0.62336 0.75896 0.10957 0.0
C745 C 0.58485 0.78246 0.21476 0.0
C746 C 0.58272 0.75706 0.18937 0.0
C747 C 0.60362 0.71827 0.13758 0.0
C748 C 0.62536 0.70623 0.10285 0.0
C749 C 0.60267 0.74471 0.1426 0.0
C750 C 0.64453 0.72078 0.06102 0.0
C751 C 0.64348 0.74689 0.06372 0.0
H752 H 0.91497 0.73356 0.06477 0.0
H753 H 0.89037 0.69443 0.32446 0.0
H754 H 0.88631 0.73428 0.41233 0.0
H755 H 0.87939 0.78019 0.39813 0.0
H756 H 0.90549 0.81929 0.14052 0.0
H757 H 0.91993 0.77966 0.06932 0.0
C758 C 0.91012 0.73372 0.14233 0.0
C759 C 0.90279 0.71121 0.18806 0.0
C760 C 0.90747 0.75677 0.1917 0.0
C761 C 0.8963 0.71153 0.28816 0.0
C762 C 0.89354 0.73439 0.33783 0.0
C763 C 0.88922 0.78006 0.32835 0.0
C764 C 0.89118 0.80245 0.2739 0.0
C765 C 0.89748 0.75716 0.28802 0.0
C766 C 0.90392 0.80224 0.1837 0.0
C767 C 0.91193 0.77954 0.14259 0.0
H768 H 0.60032 0.20043 0.41288 0.0
H769 H 0.62808 0.20648 0.71025 0.0
H770 H 0.61749 0.25111 0.71284 0.0
H771 H 0.61236 0.28946 0.61402 0.0
H772 H 0.58971 0.28399 0.31022 0.0
H773 H 0.58529 0.23851 0.32653 0.0
C774 C 0.60276 0.21132 0.47973 0.0
C775 C 0.61493 0.20034 0.56126 0.0
C776 C 0.59795 0.23737 0.47843 0.0
C777 C 0.61857 0.21462 0.64696 0.0
C778 C 0.6128 0.24022 0.64795 0.0
C779 C 0.605 0.27841 0.55335 0.0
C780 C 0.60125 0.28995 0.46127 0.0
C781 C 0.60415 0.25209 0.56182 0.0
C782 C 0.59236 0.27548 0.38216 0.0
C783 C 0.5903 0.24939 0.39109 0.0
H784 H 0.97574 0.33531 0.66383 0.0
H785 H 0.94331 0.35237 0.94603 0.0
H786 H 0.98428 0.34802 0.02495 0.0
H787 H 0.02991 0.35316 0.00092 0.0
H788 H 0.06235 0.33495 0.71993 0.0
H789 H 0.02087 0.32522 0.65347 0.0
C790 C 0.97746 0.33662 0.74338 0.0
C791 C 0.95684 0.34494 0.79871 0.0
C792 C 1.00122 0.33455 0.78792 0.0
C793 C 0.95903 0.34623 0.90178 0.0
C794 C 0.98258 0.34415 0.9468 0.0
C795 C 0.02796 0.34572 0.92689 0.0
C796 C 0.04888 0.34529 0.86447 0.0
C797 C 0.004 0.3404 0.88903 0.0
C798 C 0.04639 0.3355 0.76897 0.0
C799 C 0.02262 0.33025 0.73058 0.0
H800 H 0.48617 0.66768 0.42432 0.0
H801 H 0.4423 0.67598 0.15893 0.0
H802 H 0.48042 0.68134 0.06271 0.0
H803 H 0.52519 0.66955 0.05147 0.0
H804 H 0.56919 0.66261 0.31724 0.0
H805 H 0.53224 0.67165 0.41662 0.0
C806 C 0.48497 0.67223 0.34644 0.0
C807 C 0.46167 0.67086 0.29808 0.0
C808 C 0.50704 0.67486 0.29143 0.0
C809 C 0.46013 0.67688 0.19746 0.0
C810 C 0.48198 0.67951 0.14209 0.0
C811 C 0.52689 0.67143 0.13084 0.0
C812 C 0.54955 0.66486 0.17747 0.0
C813 C 0.50548 0.67644 0.18747 0.0
C814 C 0.5518 0.6675 0.28006 0.0
C815 C 0.53059 0.67234 0.337 0.0
H816 H 0.46053 0.35608 0.53003 0.0
H817 H 0.47524 0.36739 0.83926 0.0
H818 H 0.51864 0.3539 0.81778 0.0
H819 H 0.55389 0.35048 0.7052 0.0
H820 H 0.5409 0.34532 0.3929 0.0
H821 H 0.49555 0.34366 0.42035 0.0
C822 C 0.4731 0.35461 0.59291 0.0
C823 C 0.46501 0.36289 0.68588 0.0
C824 C 0.49846 0.34815 0.57876 0.0
C825 C 0.4813 0.36123 0.76707 0.0
C826 C 0.50609 0.35362 0.75467 0.0
C827 C 0.54111 0.34759 0.64376 0.0
C828 C 0.55051 0.34812 0.54741 0.0
C829 C 0.51521 0.34862 0.65999 0.0
C830 C 0.53399 0.34469 0.46781 0.0
C831 C 0.50803 0.3443 0.48356 0.0
H832 H 0.03117 0.6317 0.41817 0.0
H833 H 0.05099 0.65235 0.12189 0.0
H834 H 0.00727 0.6638 0.08641 0.0
H835 H 0.96252 0.65813 0.13022 0.0
H836 H 0.94361 0.63669 0.42707 0.0
H837 H 0.98778 0.63645 0.47348 0.0
C838 C 0.02596 0.6395 0.34694 0.0
C839 C 0.04388 0.64074 0.27201 0.0
C840 C 1.00091 0.64581 0.32727 0.0
C841 C 0.03728 0.65113 0.18031 0.0
C842 C 0.01228 0.65751 0.15994 0.0
C843 C 0.96808 0.65461 0.20604 0.0
C844 C 0.95002 0.64695 0.27478 0.0
C845 C 0.99371 0.6536 0.23134 0.0
C846 C 0.95733 0.64236 0.37283 0.0
C847 C 0.98259 0.64194 0.39913 0.0
H848 H 0.14553 0.52623 0.21688 0.0
H849 H 0.11611 0.56375 0.95903 0.0
H850 H 0.11662 0.52395 0.86873 0.0
H851 H 0.11835 0.47822 0.8742 0.0
H852 H 0.14485 0.43989 0.13552 0.0
H853 H 0.15252 0.48052 0.21484 0.0
C854 C 0.13986 0.52572 0.13995 0.0
C855 C 0.13087 0.54776 0.09396 0.0
C856 C 0.13902 0.50266 0.09091 0.0
C857 C 0.1236 0.54713 -0.00523 0.0
C858 C 0.12347 0.5243 0.94408 0.0
C859 C 0.12593 0.47864 0.94855 0.0
C860 C 0.13004 0.45604 0.00085 0.0
C861 C 0.12999 0.50189 0.99315 0.0
C862 C 0.14081 0.45696 0.09517 0.0
C863 C 0.14526 0.48018 0.1401 0.0
H864 H 0.70188 0.86509 0.55783 0.0
H865 H 0.6869 0.91247 0.30651 0.0
H866 H 0.73154 0.92339 0.29825 0.0
H867 H 0.77521 0.91097 0.33806 0.0
H868 H 0.78888 0.85691 0.56864 0.0
H869 H 0.74478 0.85771 0.61259 0.0
C870 C 0.7083 0.87841 0.50293 0.0
C871 C 0.69127 0.88773 0.43198 0.0
C872 C 0.734 0.88331 0.49545 0.0
C873 C 0.69965 0.90512 0.36193 0.0
C874 C 0.72523 0.91109 0.35668 0.0
C875 C 0.76861 0.90041 0.40119 0.0
C876 C 0.78557 0.88485 0.45333 0.0
C877 C 0.7427 0.89915 0.41961 0.0
C878 C 0.77672 0.87029 0.53183 0.0
C879 C 0.75124 0.87017 0.55487 0.0
H880 H 0.36461 0.47944 0.63195 0.0
H881 H 0.39973 0.44707 0.37647 0.0
H882 H 0.40427 0.48898 0.30413 0.0
H883 H 0.40494 0.53433 0.32821 0.0
H884 H 0.37227 0.56726 0.58858 0.0
H885 H 0.36053 0.5253 0.64661 0.0
C886 C 0.37238 0.48161 0.55865 0.0
C887 C 0.3816 0.46037 0.50863 0.0
C888 C 0.37633 0.50574 0.52116 0.0
C889 C 0.39194 0.46312 0.4147 0.0
C890 C 0.39505 0.48711 0.37474 0.0
C891 C 0.39528 0.53247 0.39797 0.0
C892 C 0.39034 0.55386 0.45619 0.0
C893 C 0.3885 0.50849 0.42986 0.0
C894 C 0.37697 0.55108 0.54416 0.0
C895 C 0.37007 0.52714 0.57667 0.0
H896 H 0.78678 0.10685 0.90389 0.0
H897 H 0.82786 0.14641 0.67992 0.0
H898 H 0.79148 0.14461 0.56961 0.0
H899 H 0.74699 0.13693 0.54675 0.0
H900 H 0.7044 0.09969 0.77322 0.0
H901 H 0.74251 0.09534 0.87369 0.0
C902 C 0.78788 0.11437 0.82965 0.0
C903 C 0.81007 0.12612 0.79837 0.0
C904 C 0.76655 0.11419 0.76873 0.0
C905 C 0.81127 0.13645 0.70363 0.0
C906 C 0.79035 0.13579 0.64151 0.0
C907 C 0.7459 0.12767 0.61786 0.0
C908 C 0.72259 0.11943 0.65411 0.0
C909 C 0.76772 0.12546 0.67473 0.0
C910 C 0.72186 0.10688 0.74503 0.0
C911 C 0.74369 0.10429 0.80209 0.0
H912 H 0.9344 0.54553 0.00691 0.0
H913 H 0.86276 0.56473 0.87898 0.0
H914 H 0.85909 0.52206 0.81181 0.0
H915 H 0.87465 0.47788 0.80561 0.0
H916 H 0.94609 0.45965 0.93762 0.0
H917 H 0.95102 0.50312 0.99172 0.0
C918 C 0.91828 0.54056 0.9619 0.0
C919 C 0.89887 0.55816 0.94782 0.0
C920 C 0.91579 0.51587 0.92861 0.0
C921 C 0.8781 0.55161 0.88948 0.0
C922 C 0.87577 0.52705 0.85317 0.0
C923 C 0.891 0.48349 0.84788 0.0
C924 C 0.90966 0.46563 0.87083 0.0
C925 C 0.89405 0.50876 0.87582 0.0
C926 C 0.93129 0.47307 0.92183 0.0
C927 C 0.93424 0.49793 0.95138 0.0
H928 H 0.23222 0.10762 0.88237 0.0
H929 H 0.20019 0.14676 0.63327 0.0
H930 H 0.24219 0.15536 0.57073 0.0
H931 H 0.28707 0.15644 0.59839 0.0
H932 H 0.32017 0.1201 0.85282 0.0
H933 H 0.27832 0.1061 0.90402 0.0
C934 C 0.23456 0.11731 0.81261 0.0
C935 C 0.21321 0.12577 0.76016 0.0
C936 C 0.25875 0.12345 0.78071 0.0
C937 C 0.21627 0.13898 0.67186 0.0
C938 C 0.24029 0.14443 0.63771 0.0
C939 C 0.28534 0.14552 0.66554 0.0
C940 C 0.30675 0.13989 0.72335 0.0
C941 C 0.26151 0.13753 0.69349 0.0
C942 C 0.30401 0.12511 0.80824 0.0
C943 C 0.28012 0.117 0.83694 0.0
H944 H 0.58203 0.52203 0.13442 0.0
H945 H 0.6367 0.5557 0.32898 0.0
H946 H 0.64774 0.51436 0.39363 0.0
H947 H 0.64039 0.46893 0.40094 0.0
H948 H 0.58537 0.43519 0.21008 0.0
H949 H 0.5767 0.47621 0.13408 0.0
C950 C 0.59627 0.52042 0.19141 0.0
C951 C 0.60802 0.54216 0.2286 0.0
C952 C 0.60297 0.49649 0.22659 0.0
C953 C 0.62682 0.5395 0.30085 0.0
C954 C 0.6334 0.51579 0.33698 0.0
C955 C 0.62715 0.47052 0.34019 0.0
C956 C 0.61404 0.44912 0.30868 0.0
C957 C 0.62154 0.49422 0.30062 0.0
C958 C 0.59623 0.45134 0.23283 0.0
C959 C 0.59098 0.47483 0.19094 0.0
H960 H 0.25948 0.89381 0.43683 0.0
H961 H 0.29745 0.85155 0.21153 0.0
H962 H 0.25744 0.84433 0.12708 0.0
H963 H 0.21195 0.84638 0.12757 0.0
H964 H 0.173 0.88738 0.35483 0.0
H965 H 0.21336 0.89861 0.43 0.0
C966 C 0.25894 0.88359 0.36773 0.0
C967 C 0.2813 0.87376 0.32843 0.0
C968 C 0.2358 0.87878 0.32211 0.0
C969 C 0.28054 0.85999 0.24074 0.0
C970 C 0.25766 0.85555 0.19364 0.0
C971 C 0.2121 0.85778 0.19374 0.0
C972 C 0.18936 0.86544 0.2373 0.0
C973 C 0.23519 0.86425 0.23537 0.0
C974 C 0.19013 0.88075 0.32128 0.0
C975 C 0.21321 0.88728 0.36374 0.0
H976 H 0.61947 0.96715 0.2181 0.0
H977 H 0.66123 0.93821 0.46653 0.0
H978 H 0.67796 0.98025 0.49868 0.0
H979 H 0.6718 0.026 0.48071 0.0
H980 H 0.62393 0.05437 0.24922 0.0
H981 H 0.61934 0.01218 0.18287 0.0
C982 C 0.63287 0.96991 0.27754 0.0
C983 C 0.63888 0.94969 0.34075 0.0
C984 C 0.64126 0.99428 0.29835 0.0
C985 C 0.6564 0.95341 0.41673 0.0
C986 C 0.6657 0.97754 0.43568 0.0
C987 C 0.66146 0.023 0.41265 0.0
C988 C 0.64892 0.04348 0.36793 0.0
C989 C 0.65707 0.9983 0.38045 0.0
C990 C 0.63488 0.03934 0.28188 0.0
C991 C 0.63161 0.01497 0.2458 0.0
H992 H 0.22262 0.39971 0.9104 0.0
H993 H 0.19634 0.38284 0.6171 0.0
H994 H 0.23934 0.38521 0.55572 0.0
H995 H 0.28431 0.38316 0.59335 0.0
H996 H 0.31093 0.39627 0.88961 0.0
H997 H 0.26773 0.40443 0.94294 0.0
C998 C 0.22627 0.39734 0.83232 0.0
C999 C 0.20644 0.39074 0.76821 0.0
C1000 C 0.25109 0.3974 0.79931 0.0
C1001 C 0.21119 0.38799 0.66745 0.0
C1002 C 0.23586 0.38896 0.63295 0.0
C1003 C 0.2807 0.38815 0.66951 0.0
C1004 C 0.30061 0.38844 0.73846 0.0
C1005 C 0.25595 0.39218 0.6994 0.0
C1006 C 0.29587 0.39565 0.83584 0.0
C1007 C 0.2712 0.40021 0.86609 0.0
H1008 H 0.90028 0.98577 0.3417 0.0
H1009 H 0.8498 0.95394 0.12659 0.0
H1010 H 0.84739 0.99445 0.04138 0.0
H1011 H 0.86305 0.03801 0.02109 0.0
H1012 H 0.91024 0.07012 0.2461 0.0
H1013 H 0.90972 0.03048 0.3377 0.0
C1014 C 0.88867 0.98753 0.27616 0.0
C1015 C 0.87661 0.96626 0.23643 0.0
C1016 C 0.88642 0.01108 0.23098 0.0
C1017 C 0.86068 0.96944 0.1546 0.0
C1018 C 0.85893 0.99276 0.10704 0.0
C1019 C 0.87254 0.03642 0.09177 0.0
C1020 C 0.88652 0.05678 0.12786 0.0
C1021 C 0.87225 0.01353 0.14331 0.0
C1022 C 0.89902 0.05473 0.21851 0.0
C1023 C 0.89899 0.032 0.26988 0.0
H1024 H 0.2219 0.62063 0.15244 0.0
H1025 H 0.20232 0.6148 0.45979 0.0
H1026 H 0.24684 0.60989 0.50289 0.0
H1027 H 0.29071 0.61538 0.45499 0.0
H1028 H 0.31007 0.62483 0.14895 0.0
H1029 H 0.26597 0.61954 0.10233 0.0
C1030 C 0.22736 0.61788 0.22889 0.0
C1031 C 0.20906 0.61875 0.3035 0.0
C1032 C 0.25282 0.61593 0.25275 0.0
C1033 C 0.21615 0.61445 0.40161 0.0
C1034 C 0.24155 0.61181 0.426 0.0
C1035 C 0.28535 0.61585 0.37772 0.0
C1036 C 0.30345 0.62133 0.30533 0.0
C1037 C 0.25999 0.61378 0.35252 0.0
C1038 C 0.29647 0.62107 0.20573 0.0
C1039 C 0.27124 0.61822 0.17944 0.0
H1040 H 0.35724 0.98657 0.34761 0.0
H1041 H 0.34487 0.96291 0.64808 0.0
H1042 H 0.34057 0.00688 0.69802 0.0
H1043 H 0.34888 0.05101 0.6615 0.0
H1044 H 0.36751 0.074 0.36596 0.0
H1045 H 0.35977 0.03122 0.30715 0.0
C1046 C 0.3533 0.99094 0.42406 0.0
C1047 C 0.35216 0.97154 0.49498 0.0
C1048 C 0.35195 0.01611 0.45243 0.0
C1049 C 0.34626 0.97748 0.59272 0.0
C1050 C 0.34386 1.0026 0.62108 0.0
C1051 C 0.35065 0.04677 0.5836 0.0
C1052 C 0.35939 0.06534 0.51818 0.0
C1053 C 0.34793 0.02196 0.55237 0.0
C1054 C 0.36098 0.05997 0.41745 0.0
C1055 C 0.3569 0.03544 0.3844 0.0
H1056 H 0.78161 0.65469 0.9816 0.0
H1057 H 0.8028 0.6047 0.21924 0.0
H1058 H 0.76046 0.58734 0.2201 0.0
H1059 H 0.71695 0.58876 0.16208 0.0
H1060 H 0.69503 0.64223 0.93838 0.0
H1061 H 0.73872 0.65442 0.9175 0.0
C1062 C 0.77706 0.64003 0.03402 0.0
C1063 C 0.79535 0.6313 0.1015 0.0
C1064 C 0.75278 0.63013 0.03381 0.0
C1065 C 0.78906 0.6121 0.16781 0.0
C1066 C 0.76493 0.60196 0.16746 0.0
C1067 C 0.72187 0.60254 0.10648 0.0
C1068 C 0.70277 0.6143 0.05071 0.0
C1069 C 0.74663 0.61102 0.1014 0.0
C1070 C 0.70932 0.6322 0.97953 0.0
C1071 C 0.73426 0.63974 0.96992 0.0
H1072 H 0.0967 0.01855 0.81668 0.0
H1073 H 0.14676 0.04257 0.04895 0.0
H1074 H 0.15433 0.99871 0.09469 0.0
H1075 H 0.14298 0.95409 0.07893 0.0
H1076 H 0.09115 0.93115 0.85225 0.0
H1077 H 0.08939 0.97402 0.78885 0.0
C1078 C 0.10926 0.01435 0.87768 0.0
C1079 C 0.12038 0.03399 0.93205 0.0
C1080 C 0.1139 0.98921 0.90179 0.0
C1081 C 0.13722 0.02797 0.00842 0.0
C1082 C 0.14182 1.00286 0.03354 0.0
C1083 C 0.13222 0.95838 0.01284 0.0
C1084 C 0.11782 0.9394 0.96815 0.0
C1085 C 0.1299 0.9834 0.98176 0.0
C1086 C 0.10334 0.94511 0.8846 0.0
C1087 C 0.10172 0.96983 0.85053 0.0
H1088 H 0.73474 0.34522 0.44902 0.0
H1089 H 0.69797 0.39845 0.64005 0.0
H1090 H 0.73859 0.41168 0.7047 0.0
H1091 H 0.78425 0.40553 0.7161 0.0
H1092 H 0.82088 0.35266 0.52456 0.0
H1093 H 0.78055 0.34276 0.44636 0.0
C1094 C 0.73547 0.35971 0.50502 0.0
C1095 C 0.71309 0.37004 0.54282 0.0
C1096 C 0.75892 0.36776 0.53934 0.0
C1097 C 0.71466 0.38934 0.6129 0.0
C1098 C 0.73796 0.39722 0.64867 0.0
C1099 C 0.78343 0.39255 0.65458 0.0
C1100 C 0.80538 0.38011 0.62449 0.0
C1101 C 0.76015 0.38629 0.61337 0.0
C1102 C 0.80424 0.36286 0.54681 0.0
C1103 C 0.78116 0.3569 0.50367 0.0
loop_
_geom_bond_atom_site_label_1
_geom_bond_atom_site_label_2
_geom_bond_distance
_geom_bond_site_symmetry_2
_ccdc_geom_bond_type
Zn0 O6 1.920 . S
Zn0 O12 1.898 . S
Zn0 O15 1.905 . S
Zn1 O9 1.905 1_556 S
Zn1 O10 1.898 1_556 S
Zn1 O18 1.920 . S
Zn2 O5 2.080 . S
Zn2 O8 2.114 . S
Zn2 O11 2.120 . S
Zn2 O13 2.120 . S
Zn2 O14 2.114 . S
Zn2 O17 2.080 1_554 S
C3 O8 1.166 . S
C3 O9 1.182 . S
C4 O10 1.167 . S
C4 O11 1.299 . S
O5 Zn2 2.080 . S
O5 C19 1.305 . S
O6 Zn0 1.920 . S
O6 C19 1.234 . S
C7 O12 1.167 . S
C7 O13 1.299 . S
O8 Zn2 2.114 . S
O8 C3 1.166 . S
O9 Zn1 1.905 1_554 S
O9 C3 1.182 . S
O10 Zn1 1.898 1_554 S
O10 C4 1.167 . S
O11 Zn2 2.120 . S
O11 C4 1.299 . S
O12 Zn0 1.898 . S
O12 C7 1.167 . S
O13 Zn2 2.120 . S
O13 C7 1.299 . S
O14 Zn2 2.114 . S
O14 C16 1.166 . S
O15 Zn0 1.905 . S
O15 C16 1.182 . S
C16 O14 1.166 . S
C16 O15 1.182 . S
O17 Zn2 2.080 1_556 S
O17 C20 1.305 . S
O18 Zn1 1.920 . S
O18 C20 1.234 . S
C19 O5 1.305 . S
C19 O6 1.234 . S
C20 O17 1.305 . S
C20 O18 1.234 . S
Zn21 O27 1.920 . S
Zn21 O33 1.898 . S
Zn21 O36 1.905 . S
Zn22 O30 1.905 . S
Zn22 O31 1.898 . S
Zn22 O39 1.920 . S
Zn23 O26 2.080 . S
Zn23 O29 2.114 . S
Zn23 O32 2.120 . S
Zn23 O34 2.120 . S
Zn23 O35 2.114 . S
Zn23 O38 2.080 . S
C24 O29 1.166 . S
C24 O30 1.182 . S
C25 O31 1.167 . S
C25 O32 1.299 . S
O26 Zn23 2.080 . S
O26 C40 1.305 . S
O27 Zn21 1.920 . S
O27 C40 1.234 . S
C28 O33 1.167 . S
C28 O34 1.299 . S
O29 Zn23 2.114 . S
O29 C24 1.166 . S
O30 Zn22 1.905 . S
O30 C24 1.182 . S
O31 Zn22 1.898 . S
O31 C25 1.167 . S
O32 Zn23 2.120 . S
O32 C25 1.299 . S
O33 Zn21 1.898 . S
O33 C28 1.167 . S
O34 Zn23 2.120 . S
O34 C28 1.299 . S
O35 Zn23 2.114 . S
O35 C37 1.166 . S
O36 Zn21 1.905 . S
O36 C37 1.182 . S
C37 O35 1.166 . S
C37 O36 1.182 . S
O38 Zn23 2.080 . S
O38 C41 1.305 . S
O39 Zn22 1.920 . S
O39 C41 1.234 . S
C40 O26 1.305 . S
C40 O27 1.234 . S
C41 O38 1.305 . S
C41 O39 1.234 . S
Zn42 O48 1.920 . S
Zn42 O54 1.898 . S
Zn42 O57 1.905 . S
Zn43 O51 1.905 . S
Zn43 O52 1.898 . S
Zn43 O60 1.920 . S
Zn44 O47 2.080 . S
Zn44 O50 2.114 . S
Zn44 O53 2.120 . S
Zn44 O55 2.120 . S
Zn44 O56 2.114 . S
Zn44 O59 2.080 . S
C45 O50 1.166 . S
C45 O51 1.182 . S
C46 O52 1.167 . S
C46 O53 1.299 . S
O47 Zn44 2.080 . S
O47 C61 1.305 . S
O48 Zn42 1.920 . S
O48 C61 1.234 . S
C49 O54 1.167 . S
C49 O55 1.299 . S
O50 Zn44 2.114 . S
O50 C45 1.166 . S
O51 Zn43 1.905 . S
O51 C45 1.182 . S
O52 Zn43 1.898 . S
O52 C46 1.167 . S
O53 Zn44 2.120 . S
O53 C46 1.299 . S
O54 Zn42 1.898 . S
O54 C49 1.167 . S
O55 Zn44 2.120 . S
O55 C49 1.299 . S
O56 Zn44 2.114 . S
O56 C58 1.166 . S
O57 Zn42 1.905 . S
O57 C58 1.182 . S
C58 O56 1.166 . S
C58 O57 1.182 . S
O59 Zn44 2.080 . S
O59 C62 1.305 . S
O60 Zn43 1.920 . S
O60 C62 1.234 . S
C61 O47 1.305 . S
C61 O48 1.234 . S
C62 O59 1.305 . S
C62 O60 1.234 . S
Zn63 O69 1.920 . S
Zn63 O75 1.898 1_554 S
Zn63 O78 1.905 1_554 S
Zn64 O72 1.905 . S
Zn64 O73 1.898 . S
Zn64 O81 1.920 . S
Zn65 O68 2.080 1_556 S
Zn65 O71 2.114 . S
Zn65 O74 2.120 . S
Zn65 O76 2.120 . S
Zn65 O77 2.114 . S
Zn65 O80 2.080 . S
C66 O71 1.166 . S
C66 O72 1.182 . S
C67 O73 1.167 . S
C67 O74 1.299 . S
O68 Zn65 2.080 1_554 S
O68 C82 1.305 . S
O69 Zn63 1.920 . S
O69 C82 1.234 . S
C70 O75 1.167 . S
C70 O76 1.299 . S
O71 Zn65 2.114 . S
O71 C66 1.166 . S
O72 Zn64 1.905 . S
O72 C66 1.182 . S
O73 Zn64 1.898 . S
O73 C67 1.167 . S
O74 Zn65 2.120 . S
O74 C67 1.299 . S
O75 Zn63 1.898 1_556 S
O75 C70 1.167 . S
O76 Zn65 2.120 . S
O76 C70 1.299 . S
O77 Zn65 2.114 . S
O77 C79 1.166 . S
O78 Zn63 1.905 1_556 S
O78 C79 1.182 . S
C79 O77 1.166 . S
C79 O78 1.182 . S
O80 Zn65 2.080 . S
O80 C83 1.305 . S
O81 Zn64 1.920 . S
O81 C83 1.234 . S
C82 O68 1.305 . S
C82 O69 1.234 . S
C83 O80 1.305 . S
C83 O81 1.234 . S
Zn84 O90 1.920 . S
Zn84 O96 1.898 . S
Zn84 O99 1.905 . S
Zn85 O93 1.905 . S
Zn85 O94 1.898 1_554 S
Zn85 O102 1.920 1_554 S
Zn86 O89 2.080 . S
Zn86 O92 2.114 1_556 S
Zn86 O95 2.120 . S
Zn86 O97 2.120 . S
Zn86 O98 2.114 . S
Zn86 O101 2.080 . S
C87 O92 1.166 . S
C87 O93 1.182 . S
C88 O94 1.167 . S
C88 O95 1.299 . S
O89 Zn86 2.080 . S
O89 C103 1.305 . S
O90 Zn84 1.920 . S
O90 C103 1.234 . S
C91 O96 1.167 . S
C91 O97 1.299 . S
O92 Zn86 2.114 1_554 S
O92 C87 1.166 . S
O93 Zn85 1.905 . S
O93 C87 1.182 . S
O94 Zn85 1.898 1_556 S
O94 C88 1.167 . S
O95 Zn86 2.120 . S
O95 C88 1.299 . S
O96 Zn84 1.898 . S
O96 C91 1.167 . S
O97 Zn86 2.120 . S
O97 C91 1.299 . S
O98 Zn86 2.114 . S
O98 C100 1.166 . S
O99 Zn84 1.905 . S
O99 C100 1.182 . S
C100 O98 1.166 . S
C100 O99 1.182 . S
O101 Zn86 2.080 . S
O101 C104 1.305 . S
O102 Zn85 1.920 1_556 S
O102 C104 1.234 . S
C103 O89 1.305 . S
C103 O90 1.234 . S
C104 O101 1.305 . S
C104 O102 1.234 . S
Zn105 O111 1.920 . S
Zn105 O117 1.898 . S
Zn105 O120 1.905 . S
Zn106 O114 1.905 . S
Zn106 O115 1.898 1_556 S
Zn106 O123 1.920 1_556 S
Zn107 O110 2.080 . S
Zn107 O113 2.114 1_554 S
Zn107 O116 2.120 . S
Zn107 O118 2.120 . S
Zn107 O119 2.114 . S
Zn107 O122 2.080 . S
C108 O113 1.166 . S
C108 O114 1.182 . S
C109 O115 1.167 . S
C109 O116 1.299 . S
O110 Zn107 2.080 . S
O110 C124 1.305 . S
O111 Zn105 1.920 . S
O111 C124 1.234 . S
C112 O117 1.167 . S
C112 O118 1.299 . S
O113 Zn107 2.114 1_556 S
O113 C108 1.166 . S
O114 Zn106 1.905 . S
O114 C108 1.182 . S
O115 Zn106 1.898 1_554 S
O115 C109 1.167 . S
O116 Zn107 2.120 . S
O116 C109 1.299 . S
O117 Zn105 1.898 . S
O117 C112 1.167 . S
O118 Zn107 2.120 . S
O118 C112 1.299 . S
O119 Zn107 2.114 . S
O119 C121 1.166 . S
O120 Zn105 1.905 . S
O120 C121 1.182 . S
C121 O119 1.166 . S
C121 O120 1.182 . S
O122 Zn107 2.080 . S
O122 C125 1.305 . S
O123 Zn106 1.920 1_554 S
O123 C125 1.234 . S
C124 O110 1.305 . S
C124 O111 1.234 . S
C125 O122 1.305 . S
C125 O123 1.234 . S
Zn126 O132 1.920 . S
Zn126 O138 1.898 . S
Zn126 O141 1.905 . S
Zn127 O135 1.905 . S
Zn127 O136 1.898 . S
Zn127 O144 1.920 . S
Zn128 O131 2.080 . S
Zn128 O134 2.114 . S
Zn128 O137 2.120 . S
Zn128 O139 2.120 . S
Zn128 O140 2.114 . S
Zn128 O143 2.080 . S
C129 O134 1.166 . S
C129 O135 1.182 . S
C130 O136 1.167 . S
C130 O137 1.299 . S
O131 Zn128 2.080 . S
O131 C145 1.305 . S
O132 Zn126 1.920 . S
O132 C145 1.234 . S
C133 O138 1.167 . S
C133 O139 1.299 . S
O134 Zn128 2.114 . S
O134 C129 1.166 . S
O135 Zn127 1.905 . S
O135 C129 1.182 . S
O136 Zn127 1.898 . S
O136 C130 1.167 . S
O137 Zn128 2.120 . S
O137 C130 1.299 . S
O138 Zn126 1.898 . S
O138 C133 1.167 . S
O139 Zn128 2.120 . S
O139 C133 1.299 . S
O140 Zn128 2.114 . S
O140 C142 1.166 . S
O141 Zn126 1.905 . S
O141 C142 1.182 . S
C142 O140 1.166 . S
C142 O141 1.182 . S
O143 Zn128 2.080 . S
O143 C146 1.305 . S
O144 Zn127 1.920 . S
O144 C146 1.234 . S
C145 O131 1.305 . S
C145 O132 1.234 . S
C146 O143 1.305 . S
C146 O144 1.234 . S
Zn147 O153 1.920 . S
Zn147 O159 1.898 . S
Zn147 O162 1.905 . S
Zn148 O156 1.905 . S
Zn148 O157 1.898 . S
Zn148 O165 1.920 . S
Zn149 O152 2.080 . S
Zn149 O155 2.114 . S
Zn149 O158 2.120 . S
Zn149 O160 2.120 . S
Zn149 O161 2.114 . S
Zn149 O164 2.080 . S
C150 O155 1.166 . S
C150 O156 1.182 . S
C151 O157 1.167 . S
C151 O158 1.299 . S
O152 Zn149 2.080 . S
O152 C166 1.305 . S
O153 Zn147 1.920 . S
O153 C166 1.234 . S
C154 O159 1.167 . S
C154 O160 1.299 . S
O155 Zn149 2.114 . S
O155 C150 1.166 . S
O156 Zn148 1.905 . S
O156 C150 1.182 . S
O157 Zn148 1.898 . S
O157 C151 1.167 . S
O158 Zn149 2.120 . S
O158 C151 1.299 . S
O159 Zn147 1.898 . S
O159 C154 1.167 . S
O160 Zn149 2.120 . S
O160 C154 1.299 . S
O161 Zn149 2.114 . S
O161 C163 1.166 . S
O162 Zn147 1.905 . S
O162 C163 1.182 . S
C163 O161 1.166 . S
C163 O162 1.182 . S
O164 Zn149 2.080 . S
O164 C167 1.305 . S
O165 Zn148 1.920 . S
O165 C167 1.234 . S
C166 O152 1.305 . S
C166 O153 1.234 . S
C167 O164 1.305 . S
C167 O165 1.234 . S
Zn168 O174 1.920 . S
Zn168 O180 1.898 . S
Zn168 O183 1.905 . S
Zn169 O177 1.905 . S
Zn169 O178 1.898 1_554 S
Zn169 O186 1.920 1_554 S
Zn170 O173 2.080 . S
Zn170 O176 2.114 1_556 S
Zn170 O179 2.120 . S
Zn170 O181 2.120 . S
Zn170 O182 2.114 . S
Zn170 O185 2.080 . S
C171 O176 1.166 . S
C171 O177 1.182 . S
C172 O178 1.167 . S
C172 O179 1.299 . S
O173 Zn170 2.080 . S
O173 C187 1.305 . S
O174 Zn168 1.920 . S
O174 C187 1.234 . S
C175 O180 1.167 . S
C175 O181 1.299 . S
O176 Zn170 2.114 1_554 S
O176 C171 1.166 . S
O177 Zn169 1.905 . S
O177 C171 1.182 . S
O178 Zn169 1.898 1_556 S
O178 C172 1.167 . S
O179 Zn170 2.120 . S
O179 C172 1.299 . S
O180 Zn168 1.898 . S
O180 C175 1.167 . S
O181 Zn170 2.120 . S
O181 C175 1.299 . S
O182 Zn170 2.114 . S
O182 C184 1.166 . S
O183 Zn168 1.905 . S
O183 C184 1.182 . S
C184 O182 1.166 . S
C184 O183 1.182 . S
O185 Zn170 2.080 . S
O185 C188 1.305 . S
O186 Zn169 1.920 1_556 S
O186 C188 1.234 . S
C187 O173 1.305 . S
C187 O174 1.234 . S
C188 O185 1.305 . S
C188 O186 1.234 . S
Zn189 O195 1.920 . S
Zn189 O201 1.898 . S
Zn189 O204 1.905 . S
Zn190 O198 1.905 . S
Zn190 O199 1.898 . S
Zn190 O207 1.920 . S
Zn191 O194 2.080 . S
Zn191 O197 2.114 . S
Zn191 O200 2.120 . S
Zn191 O202 2.120 . S
Zn191 O203 2.114 . S
Zn191 O206 2.080 . S
C192 O197 1.166 . S
C192 O198 1.182 . S
C193 O199 1.167 . S
C193 O200 1.299 . S
O194 Zn191 2.080 . S
O194 C208 1.305 . S
O195 Zn189 1.920 . S
O195 C208 1.234 . S
C196 O201 1.167 . S
C196 O202 1.299 . S
O197 Zn191 2.114 . S
O197 C192 1.166 . S
O198 Zn190 1.905 . S
O198 C192 1.182 . S
O199 Zn190 1.898 . S
O199 C193 1.167 . S
O200 Zn191 2.120 . S
O200 C193 1.299 . S
O201 Zn189 1.898 . S
O201 C196 1.167 . S
O202 Zn191 2.120 . S
O202 C196 1.299 . S
O203 Zn191 2.114 . S
O203 C205 1.166 . S
O204 Zn189 1.905 . S
O204 C205 1.182 . S
C205 O203 1.166 . S
C205 O204 1.182 . S
O206 Zn191 2.080 . S
O206 C209 1.305 . S
O207 Zn190 1.920 . S
O207 C209 1.234 . S
C208 O194 1.305 . S
C208 O195 1.234 . S
C209 O206 1.305 . S
C209 O207 1.234 . S
Zn210 O216 1.920 . S
Zn210 O222 1.898 . S
Zn210 O225 1.905 . S
Zn211 O219 1.905 . S
Zn211 O220 1.898 . S
Zn211 O228 1.920 . S
Zn212 O215 2.080 . S
Zn212 O218 2.114 . S
Zn212 O221 2.120 . S
Zn212 O223 2.120 . S
Zn212 O224 2.114 . S
Zn212 O227 2.080 . S
C213 O218 1.166 . S
C213 O219 1.182 . S
C214 O220 1.167 . S
C214 O221 1.299 . S
O215 Zn212 2.080 . S
O215 C229 1.305 . S
O216 Zn210 1.920 . S
O216 C229 1.234 . S
C217 O222 1.167 . S
C217 O223 1.299 . S
O218 Zn212 2.114 . S
O218 C213 1.166 . S
O219 Zn211 1.905 . S
O219 C213 1.182 . S
O220 Zn211 1.898 . S
O220 C214 1.167 . S
O221 Zn212 2.120 . S
O221 C214 1.299 . S
O222 Zn210 1.898 . S
O222 C217 1.167 . S
O223 Zn212 2.120 . S
O223 C217 1.299 . S
O224 Zn212 2.114 . S
O224 C226 1.166 . S
O225 Zn210 1.905 . S
O225 C226 1.182 . S
C226 O224 1.166 . S
C226 O225 1.182 . S
O227 Zn212 2.080 . S
O227 C230 1.305 . S
O228 Zn211 1.920 . S
O228 C230 1.234 . S
C229 O215 1.305 . S
C229 O216 1.234 . S
C230 O227 1.305 . S
C230 O228 1.234 . S
Zn231 O237 1.920 1_556 S
Zn231 O243 1.898 1_556 S
Zn231 O246 1.905 . S
Zn232 O240 1.905 . S
Zn232 O241 1.898 . S
Zn232 O249 1.920 . S
Zn233 O236 2.080 . S
Zn233 O239 2.114 . S
Zn233 O242 2.120 . S
Zn233 O244 2.120 . S
Zn233 O245 2.114 1_554 S
Zn233 O248 2.080 . S
C234 O239 1.166 . S
C234 O240 1.182 . S
C235 O241 1.167 . S
C235 O242 1.299 . S
O236 Zn233 2.080 . S
O236 C250 1.305 . S
O237 Zn231 1.920 1_554 S
O237 C250 1.234 . S
C238 O243 1.167 . S
C238 O244 1.299 . S
O239 Zn233 2.114 . S
O239 C234 1.166 . S
O240 Zn232 1.905 . S
O240 C234 1.182 . S
O241 Zn232 1.898 . S
O241 C235 1.167 . S
O242 Zn233 2.120 . S
O242 C235 1.299 . S
O243 Zn231 1.898 1_554 S
O243 C238 1.167 . S
O244 Zn233 2.120 . S
O244 C238 1.299 . S
O245 Zn233 2.114 1_556 S
O245 C247 1.166 . S
O246 Zn231 1.905 . S
O246 C247 1.182 . S
C247 O245 1.166 . S
C247 O246 1.182 . S
O248 Zn233 2.080 . S
O248 C251 1.305 . S
O249 Zn232 1.920 . S
O249 C251 1.234 . S
C250 O236 1.305 . S
C250 O237 1.234 . S
C251 O248 1.305 . S
C251 O249 1.234 . S
Zn252 O258 1.920 1_556 S
Zn252 O264 1.898 1_556 S
Zn252 O267 1.905 . S
Zn253 O261 1.905 . S
Zn253 O262 1.898 . S
Zn253 O270 1.920 . S
Zn254 O257 2.080 . S
Zn254 O260 2.114 . S
Zn254 O263 2.120 . S
Zn254 O265 2.120 . S
Zn254 O266 2.114 1_554 S
Zn254 O269 2.080 . S
C255 O260 1.166 . S
C255 O261 1.182 . S
C256 O262 1.167 . S
C256 O263 1.299 . S
O257 Zn254 2.080 . S
O257 C271 1.305 . S
O258 Zn252 1.920 1_554 S
O258 C271 1.234 . S
C259 O264 1.167 . S
C259 O265 1.299 . S
O260 Zn254 2.114 . S
O260 C255 1.166 . S
O261 Zn253 1.905 . S
O261 C255 1.182 . S
O262 Zn253 1.898 . S
O262 C256 1.167 . S
O263 Zn254 2.120 . S
O263 C256 1.299 . S
O264 Zn252 1.898 1_554 S
O264 C259 1.167 . S
O265 Zn254 2.120 . S
O265 C259 1.299 . S
O266 Zn254 2.114 1_556 S
O266 C268 1.166 . S
O267 Zn252 1.905 . S
O267 C268 1.182 . S
C268 O266 1.166 . S
C268 O267 1.182 . S
O269 Zn254 2.080 . S
O269 C272 1.305 . S
O270 Zn253 1.920 . S
O270 C272 1.234 . S
C271 O257 1.305 . S
C271 O258 1.234 . S
C272 O269 1.305 . S
C272 O270 1.234 . S
Zn273 O279 1.920 . S
Zn273 O285 1.898 . S
Zn273 O288 1.905 . S
Zn274 O282 1.905 1_554 S
Zn274 O283 1.898 1_554 S
Zn274 O291 1.920 . S
Zn275 O278 2.080 . S
Zn275 O281 2.114 . S
Zn275 O284 2.120 . S
Zn275 O286 2.120 . S
Zn275 O287 2.114 . S
Zn275 O290 2.080 1_556 S
C276 O281 1.166 . S
C276 O282 1.182 . S
C277 O283 1.167 . S
C277 O284 1.299 . S
O278 Zn275 2.080 . S
O278 C292 1.305 . S
O279 Zn273 1.920 . S
O279 C292 1.234 . S
C280 O285 1.167 . S
C280 O286 1.299 . S
O281 Zn275 2.114 . S
O281 C276 1.166 . S
O282 Zn274 1.905 1_556 S
O282 C276 1.182 . S
O283 Zn274 1.898 1_556 S
O283 C277 1.167 . S
O284 Zn275 2.120 . S
O284 C277 1.299 . S
O285 Zn273 1.898 . S
O285 C280 1.167 . S
O286 Zn275 2.120 . S
O286 C280 1.299 . S
O287 Zn275 2.114 . S
O287 C289 1.166 . S
O288 Zn273 1.905 . S
O288 C289 1.182 . S
C289 O287 1.166 . S
C289 O288 1.182 . S
O290 Zn275 2.080 1_554 S
O290 C293 1.305 . S
O291 Zn274 1.920 . S
O291 C293 1.234 . S
C292 O278 1.305 . S
C292 O279 1.234 . S
C293 O290 1.305 . S
C293 O291 1.234 . S
Zn294 O300 1.920 . S
Zn294 O306 1.898 . S
Zn294 O309 1.905 . S
Zn295 O303 1.905 . S
Zn295 O304 1.898 . S
Zn295 O312 1.920 . S
Zn296 O299 2.080 . S
Zn296 O302 2.114 . S
Zn296 O305 2.120 . S
Zn296 O307 2.120 . S
Zn296 O308 2.114 . S
Zn296 O311 2.080 . S
C297 O302 1.166 . S
C297 O303 1.182 . S
C298 O304 1.167 . S
C298 O305 1.299 . S
O299 Zn296 2.080 . S
O299 C313 1.305 . S
O300 Zn294 1.920 . S
O300 C313 1.234 . S
C301 O306 1.167 . S
C301 O307 1.299 . S
O302 Zn296 2.114 . S
O302 C297 1.166 . S
O303 Zn295 1.905 . S
O303 C297 1.182 . S
O304 Zn295 1.898 . S
O304 C298 1.167 . S
O305 Zn296 2.120 . S
O305 C298 1.299 . S
O306 Zn294 1.898 . S
O306 C301 1.167 . S
O307 Zn296 2.120 . S
O307 C301 1.299 . S
O308 Zn296 2.114 . S
O308 C310 1.166 . S
O309 Zn294 1.905 . S
O309 C310 1.182 . S
C310 O308 1.166 . S
C310 O309 1.182 . S
O311 Zn296 2.080 . S
O311 C314 1.305 . S
O312 Zn295 1.920 . S
O312 C314 1.234 . S
C313 O299 1.305 . S
C313 O300 1.234 . S
C314 O311 1.305 . S
C314 O312 1.234 . S
Zn315 O321 1.920 . S
Zn315 O327 1.898 . S
Zn315 O330 1.905 . S
Zn316 O324 1.905 . S
Zn316 O325 1.898 . S
Zn316 O333 1.920 . S
Zn317 O320 2.080 . S
Zn317 O323 2.114 . S
Zn317 O326 2.120 . S
Zn317 O328 2.120 . S
Zn317 O329 2.114 . S
Zn317 O332 2.080 . S
C318 O323 1.166 . S
C318 O324 1.182 . S
C319 O325 1.167 . S
C319 O326 1.299 . S
O320 Zn317 2.080 . S
O320 C334 1.305 . S
O321 Zn315 1.920 . S
O321 C334 1.234 . S
C322 O327 1.167 . S
C322 O328 1.299 . S
O323 Zn317 2.114 . S
O323 C318 1.166 . S
O324 Zn316 1.905 . S
O324 C318 1.182 . S
O325 Zn316 1.898 . S
O325 C319 1.167 . S
O326 Zn317 2.120 . S
O326 C319 1.299 . S
O327 Zn315 1.898 . S
O327 C322 1.167 . S
O328 Zn317 2.120 . S
O328 C322 1.299 . S
O329 Zn317 2.114 . S
O329 C331 1.166 . S
O330 Zn315 1.905 . S
O330 C331 1.182 . S
C331 O329 1.166 . S
C331 O330 1.182 . S
O332 Zn317 2.080 . S
O332 C335 1.305 . S
O333 Zn316 1.920 . S
O333 C335 1.234 . S
C334 O320 1.305 . S
C334 O321 1.234 . S
C335 O332 1.305 . S
C335 O333 1.234 . S
H336 C342 0.930 . S
H337 C345 0.930 . S
H338 C346 0.930 . S
H339 C347 0.930 . S
H340 C350 0.930 . S
H341 C351 0.930 . S
C342 H336 0.930 . S
C342 C343 1.355 . S
C342 C344 1.415 . S
C343 C342 1.355 . S
C343 C345 1.419 . S
C344 C342 1.415 . S
C344 C349 1.425 . S
C344 C351 1.409 . S
C345 H337 0.930 . S
C345 C343 1.419 . S
C345 C346 1.362 . S
C346 H338 0.930 . S
C346 C345 1.362 . S
C346 C349 1.409 . S
C347 H339 0.930 . S
C347 C348 1.355 . S
C347 C349 1.415 . S
C348 C347 1.355 . S
C348 C350 1.419 . S
C349 C344 1.425 . S
C349 C346 1.409 . S
C349 C347 1.415 . S
C350 H340 0.930 . S
C350 C348 1.419 . S
C350 C351 1.362 . S
C351 H341 0.930 . S
C351 C344 1.409 . S
C351 C350 1.362 . S
H352 C358 0.930 1_554 S
H353 C361 0.930 . S
H354 C362 0.930 . S
H355 C363 0.930 . S
H356 C366 0.930 . S
H357 C367 0.930 . S
C358 H352 0.930 1_556 S
C358 C359 1.355 1_556 S
C358 C360 1.415 . S
C359 C358 1.355 1_554 S
C359 C361 1.419 . S
C360 C358 1.415 . S
C360 C365 1.425 . S
C360 C367 1.409 . S
C361 H353 0.930 . S
C361 C359 1.419 . S
C361 C362 1.362 1_554 S
C362 H354 0.930 . S
C362 C361 1.362 1_556 S
C362 C365 1.409 . S
C363 H355 0.930 . S
C363 C364 1.355 . S
C363 C365 1.415 . S
C364 C363 1.355 . S
C364 C366 1.419 . S
C365 C360 1.425 . S
C365 C362 1.409 . S
C365 C363 1.415 . S
C366 H356 0.930 . S
C366 C364 1.419 . S
C366 C367 1.362 . S
C367 H357 0.930 . S
C367 C360 1.409 . S
C367 C366 1.362 . S
H368 C374 0.930 . S
H369 C377 0.930 . S
H370 C378 0.930 . S
H371 C379 0.926 1_556 S
H372 C382 0.930 . S
H373 C383 0.930 . S
C374 H368 0.930 . S
C374 C375 1.355 . S
C374 C376 1.415 . S
C375 C374 1.355 . S
C375 C377 1.419 . S
C376 C374 1.415 . S
C376 C381 1.425 . S
C376 C383 1.409 . S
C377 H369 0.930 . S
C377 C375 1.419 . S
C377 C378 1.362 . S
C378 H370 0.930 . S
C378 C377 1.362 . S
C378 C381 1.409 . S
C379 H371 0.926 1_554 S
C379 C380 1.350 1_554 S
C379 C381 1.422 . S
C380 C379 1.350 1_556 S
C380 C382 1.419 . S
C381 C376 1.425 . S
C381 C378 1.409 . S
C381 C379 1.422 . S
C382 H372 0.930 . S
C382 C380 1.419 . S
C382 C383 1.362 1_556 S
C383 H373 0.930 . S
C383 C376 1.409 . S
C383 C382 1.362 1_554 S
H384 C390 0.930 . S
H385 C393 0.930 . S
H386 C394 0.930 . S
H387 C395 0.930 . S
H388 C398 0.930 . S
H389 C399 0.930 . S
C390 H384 0.930 . S
C390 C391 1.355 . S
C390 C392 1.415 . S
C391 C390 1.355 . S
C391 C393 1.419 . S
C392 C390 1.415 . S
C392 C397 1.425 . S
C392 C399 1.409 . S
C393 H385 0.930 . S
C393 C391 1.419 . S
C393 C394 1.362 . S
C394 H386 0.930 . S
C394 C393 1.362 . S
C394 C397 1.409 . S
C395 H387 0.930 . S
C395 C396 1.355 . S
C395 C397 1.415 . S
C396 C395 1.355 . S
C396 C398 1.419 . S
C397 C392 1.425 . S
C397 C394 1.409 . S
C397 C395 1.415 . S
C398 H388 0.930 . S
C398 C396 1.419 . S
C398 C399 1.362 . S
C399 H389 0.930 . S
C399 C392 1.409 . S
C399 C398 1.362 . S
H400 C406 0.930 . S
H401 C409 0.930 . S
H402 C410 0.930 . S
H403 C411 0.930 . S
H404 C414 0.930 . S
H405 C415 0.930 . S
C406 H400 0.930 . S
C406 C407 1.355 . S
C406 C408 1.415 . S
C407 C406 1.355 . S
C407 C409 1.419 . S
C408 C406 1.415 . S
C408 C413 1.425 . S
C408 C415 1.409 . S
C409 H401 0.930 . S
C409 C407 1.419 . S
C409 C410 1.362 . S
C410 H402 0.930 . S
C410 C409 1.362 . S
C410 C413 1.409 . S
C411 H403 0.930 . S
C411 C412 1.355 . S
C411 C413 1.415 . S
C412 C411 1.355 . S
C412 C414 1.419 . S
C413 C408 1.425 . S
C413 C410 1.409 . S
C413 C411 1.415 . S
C414 H404 0.930 . S
C414 C412 1.419 . S
C414 C415 1.362 . S
C415 H405 0.930 . S
C415 C408 1.409 . S
C415 C414 1.362 . S
H416 C422 0.930 . S
H417 C425 0.930 . S
H418 C426 0.930 . S
H419 C427 0.930 . S
H420 C430 0.930 . S
H421 C431 0.930 . S
C422 H416 0.930 . S
C422 C423 1.355 . S
C422 C424 1.415 . S
C423 C422 1.355 . S
C423 C425 1.419 . S
C424 C422 1.415 . S
C424 C429 1.425 . S
C424 C431 1.409 . S
C425 H417 0.930 . S
C425 C423 1.419 . S
C425 C426 1.362 . S
C426 H418 0.930 . S
C426 C425 1.362 . S
C426 C429 1.409 . S
C427 H419 0.930 . S
C427 C428 1.355 . S
C427 C429 1.415 . S
C428 C427 1.355 . S
C428 C430 1.419 . S
C429 C424 1.425 . S
C429 C426 1.409 . S
C429 C427 1.415 . S
C430 H420 0.930 . S
C430 C428 1.419 . S
C430 C431 1.362 . S
C431 H421 0.930 . S
C431 C424 1.409 . S
C431 C430 1.362 . S
H432 C438 0.930 . S
H433 C441 0.930 . S
H434 C442 0.930 . S
H435 C443 0.930 1_554 S
H436 C446 0.930 . S
H437 C447 0.930 . S
C438 H432 0.930 . S
C438 C439 1.355 . S
C438 C440 1.415 . S
C439 C438 1.355 . S
C439 C441 1.419 . S
C440 C438 1.415 . S
C440 C445 1.425 . S
C440 C447 1.409 . S
C441 H433 0.930 . S
C441 C439 1.419 . S
C441 C442 1.362 . S
C442 H434 0.930 . S
C442 C441 1.362 . S
C442 C445 1.409 . S
C443 H435 0.930 1_556 S
C443 C444 1.355 1_556 S
C443 C445 1.415 . S
C444 C443 1.355 1_554 S
C444 C446 1.419 . S
C445 C440 1.425 . S
C445 C442 1.409 . S
C445 C443 1.415 . S
C446 H436 0.930 . S
C446 C444 1.419 . S
C446 C447 1.362 1_554 S
C447 H437 0.930 . S
C447 C440 1.409 . S
C447 C446 1.362 1_556 S
H448 C454 0.930 1_556 S
H449 C457 0.930 . S
H450 C458 0.930 . S
H451 C459 0.930 . S
H452 C462 0.930 . S
H453 C463 0.930 . S
C454 H448 0.930 1_554 S
C454 C455 1.355 1_554 S
C454 C456 1.415 . S
C455 C454 1.355 1_556 S
C455 C457 1.419 . S
C456 C454 1.415 . S
C456 C461 1.425 . S
C456 C463 1.409 . S
C457 H449 0.930 . S
C457 C455 1.419 . S
C457 C458 1.362 1_556 S
C458 H450 0.930 . S
C458 C457 1.362 1_554 S
C458 C461 1.409 . S
C459 H451 0.930 . S
C459 C460 1.355 . S
C459 C461 1.415 . S
C460 C459 1.355 . S
C460 C462 1.419 . S
C461 C456 1.425 . S
C461 C458 1.409 . S
C461 C459 1.415 . S
C462 H452 0.930 . S
C462 C460 1.419 . S
C462 C463 1.362 . S
C463 H453 0.930 . S
C463 C456 1.409 . S
C463 C462 1.362 . S
H464 C470 0.930 . S
H465 C473 0.930 . S
H466 C474 0.930 . S
H467 C475 0.930 . S
H468 C478 0.930 . S
H469 C479 0.930 . S
C470 H464 0.930 . S
C470 C471 1.355 . S
C470 C472 1.415 . S
C471 C470 1.355 . S
C471 C473 1.419 . S
C472 C470 1.415 . S
C472 C477 1.425 . S
C472 C479 1.409 . S
C473 H465 0.930 . S
C473 C471 1.419 . S
C473 C474 1.362 . S
C474 H466 0.930 . S
C474 C473 1.362 . S
C474 C477 1.409 . S
C475 H467 0.930 . S
C475 C476 1.355 . S
C475 C477 1.415 . S
C476 C475 1.355 . S
C476 C478 1.419 . S
C477 C472 1.425 . S
C477 C474 1.409 . S
C477 C475 1.415 . S
C478 H468 0.930 . S
C478 C476 1.419 . S
C478 C479 1.362 . S
C479 H469 0.930 . S
C479 C472 1.409 . S
C479 C478 1.362 . S
H480 C486 0.930 . S
H481 C489 0.930 . S
H482 C490 0.930 . S
H483 C491 0.930 1_556 S
H484 C494 0.930 . S
H485 C495 0.930 . S
C486 H480 0.930 . S
C486 C487 1.355 . S
C486 C488 1.415 . S
C487 C486 1.355 . S
C487 C489 1.419 . S
C488 C486 1.415 . S
C488 C493 1.425 . S
C488 C495 1.409 . S
C489 H481 0.930 . S
C489 C487 1.419 . S
C489 C490 1.362 . S
C490 H482 0.930 . S
C490 C489 1.362 . S
C490 C493 1.409 . S
C491 H483 0.930 1_554 S
C491 C492 1.355 1_554 S
C491 C493 1.415 . S
C492 C491 1.355 1_556 S
C492 C494 1.419 . S
C493 C488 1.425 . S
C493 C490 1.409 . S
C493 C491 1.415 . S
C494 H484 0.930 . S
C494 C492 1.419 . S
C494 C495 1.362 1_556 S
C495 H485 0.930 . S
C495 C488 1.409 . S
C495 C494 1.362 1_554 S
H496 C502 0.927 1_554 S
H497 C505 0.930 . S
H498 C506 0.930 . S
H499 C507 0.930 . S
H500 C510 0.930 . S
H501 C511 0.930 . S
C502 H496 0.927 1_556 S
C502 C503 1.355 1_556 S
C502 C504 1.415 . S
C503 C502 1.355 1_554 S
C503 C505 1.419 . S
C504 C502 1.415 . S
C504 C509 1.425 . S
C504 C511 1.409 . S
C505 H497 0.930 . S
C505 C503 1.419 . S
C505 C506 1.362 1_554 S
C506 H498 0.930 . S
C506 C505 1.362 1_556 S
C506 C509 1.409 . S
C507 H499 0.930 . S
C507 C508 1.355 . S
C507 C509 1.415 . S
C508 C507 1.355 . S
C508 C510 1.419 . S
C509 C504 1.425 . S
C509 C506 1.409 . S
C509 C507 1.415 . S
C510 H500 0.930 . S
C510 C508 1.419 . S
C510 C511 1.362 . S
C511 H501 0.930 . S
C511 C504 1.409 . S
C511 C510 1.362 . S
H512 C518 0.930 . S
H513 C521 0.930 . S
H514 C522 0.930 . S
H515 C523 0.930 . S
H516 C526 0.930 . S
H517 C527 0.930 . S
C518 H512 0.930 . S
C518 C519 1.355 . S
C518 C520 1.415 . S
C519 C518 1.355 . S
C519 C521 1.419 . S
C520 C518 1.415 . S
C520 C525 1.425 . S
C520 C527 1.409 . S
C521 H513 0.930 . S
C521 C519 1.419 . S
C521 C522 1.362 . S
C522 H514 0.930 . S
C522 C521 1.362 . S
C522 C525 1.409 . S
C523 H515 0.930 . S
C523 C524 1.355 . S
C523 C525 1.415 . S
C524 C523 1.355 . S
C524 C526 1.419 . S
C525 C520 1.425 . S
C525 C522 1.409 . S
C525 C523 1.415 . S
C526 H516 0.930 . S
C526 C524 1.419 . S
C526 C527 1.362 . S
C527 H517 0.930 . S
C527 C520 1.409 . S
C527 C526 1.362 . S
H528 C534 0.930 . S
H529 C537 0.930 . S
H530 C538 0.930 . S
H531 C539 0.930 . S
H532 C542 0.930 . S
H533 C543 0.930 . S
C534 H528 0.930 . S
C534 C535 1.355 . S
C534 C536 1.415 . S
C535 C534 1.355 . S
C535 C537 1.419 . S
C536 C534 1.415 . S
C536 C541 1.425 . S
C536 C543 1.409 . S
C537 H529 0.930 . S
C537 C535 1.419 . S
C537 C538 1.362 . S
C538 H530 0.930 . S
C538 C537 1.362 . S
C538 C541 1.409 . S
C539 H531 0.930 . S
C539 C540 1.355 . S
C539 C541 1.415 . S
C540 C539 1.355 . S
C540 C542 1.419 . S
C541 C536 1.425 . S
C541 C538 1.409 . S
C541 C539 1.415 . S
C542 H532 0.930 . S
C542 C540 1.419 . S
C542 C543 1.362 . S
C543 H533 0.930 . S
C543 C536 1.409 . S
C543 C542 1.362 . S
H544 C550 0.930 . S
H545 C553 0.930 . S
H546 C554 0.930 . S
H547 C555 0.930 . S
H548 C558 0.930 . S
H549 C559 0.930 . S
C550 H544 0.930 . S
C550 C551 1.355 . S
C550 C552 1.415 . S
C551 C550 1.355 . S
C551 C553 1.419 . S
C552 C550 1.415 . S
C552 C557 1.425 . S
C552 C559 1.409 . S
C553 H545 0.930 . S
C553 C551 1.419 . S
C553 C554 1.362 . S
C554 H546 0.930 . S
C554 C553 1.362 . S
C554 C557 1.409 . S
C555 H547 0.930 . S
C555 C556 1.355 . S
C555 C557 1.415 . S
C556 C555 1.355 . S
C556 C558 1.419 . S
C557 C552 1.425 . S
C557 C554 1.409 . S
C557 C555 1.415 . S
C558 H548 0.930 . S
C558 C556 1.419 . S
C558 C559 1.362 . S
C559 H549 0.930 . S
C559 C552 1.409 . S
C559 C558 1.362 . S
H560 C566 0.930 . S
H561 C569 0.930 . S
H562 C570 0.930 . S
H563 C571 0.930 1_556 S
H564 C574 0.930 . S
H565 C575 0.930 . S
C566 H560 0.930 . S
C566 C567 1.355 . S
C566 C568 1.415 . S
C567 C566 1.355 . S
C567 C569 1.419 . S
C568 C566 1.415 . S
C568 C573 1.425 . S
C568 C575 1.409 . S
C569 H561 0.930 . S
C569 C567 1.419 . S
C569 C570 1.362 . S
C570 H562 0.930 . S
C570 C569 1.362 . S
C570 C573 1.409 . S
C571 H563 0.930 1_554 S
C571 C572 1.355 1_554 S
C571 C573 1.415 . S
C572 C571 1.355 1_556 S
C572 C574 1.419 . S
C573 C568 1.425 . S
C573 C570 1.409 . S
C573 C571 1.415 . S
C574 H564 0.930 . S
C574 C572 1.419 . S
C574 C575 1.362 1_556 S
C575 H565 0.930 . S
C575 C568 1.409 . S
C575 C574 1.362 1_554 S
H576 C582 0.930 . S
H577 C585 0.930 . S
H578 C586 0.930 . S
H579 C587 0.930 . S
H580 C590 0.930 . S
H581 C591 0.930 . S
C582 H576 0.930 . S
C582 C583 1.355 . S
C582 C584 1.415 1_554 S
C583 C582 1.355 . S
C583 C585 1.419 . S
C584 C582 1.415 1_556 S
C584 C589 1.425 . S
C584 C591 1.409 . S
C585 H577 0.930 . S
C585 C583 1.419 . S
C585 C586 1.362 1_554 S
C586 H578 0.930 . S
C586 C585 1.362 1_556 S
C586 C589 1.409 . S
C587 H579 0.930 . S
C587 C588 1.355 . S
C587 C589 1.415 . S
C588 C587 1.355 . S
C588 C590 1.419 . S
C589 C584 1.425 . S
C589 C586 1.409 . S
C589 C587 1.415 . S
C590 H580 0.930 . S
C590 C588 1.419 . S
C590 C591 1.362 . S
C591 H581 0.930 . S
C591 C584 1.409 . S
C591 C590 1.362 . S
H592 C598 0.930 . S
H593 C601 0.930 . S
H594 C602 0.930 . S
H595 C603 0.930 . S
H596 C606 0.930 . S
H597 C607 0.930 . S
C598 H592 0.930 . S
C598 C599 1.355 . S
C598 C600 1.415 . S
C599 C598 1.355 . S
C599 C601 1.419 . S
C600 C598 1.415 . S
C600 C605 1.425 . S
C600 C607 1.409 . S
C601 H593 0.930 . S
C601 C599 1.419 . S
C601 C602 1.362 . S
C602 H594 0.930 . S
C602 C601 1.362 . S
C602 C605 1.409 . S
C603 H595 0.930 . S
C603 C604 1.355 . S
C603 C605 1.415 . S
C604 C603 1.355 . S
C604 C606 1.419 . S
C605 C600 1.425 . S
C605 C602 1.409 . S
C605 C603 1.415 . S
C606 H596 0.930 . S
C606 C604 1.419 . S
C606 C607 1.362 . S
C607 H597 0.930 . S
C607 C600 1.409 . S
C607 C606 1.362 . S
H608 C614 0.930 . S
H609 C617 0.930 . S
H610 C618 0.930 . S
H611 C619 0.930 . S
H612 C622 0.930 . S
H613 C623 0.930 . S
C614 H608 0.930 . S
C614 C615 1.355 . S
C614 C616 1.415 . S
C615 C614 1.355 . S
C615 C617 1.419 . S
C616 C614 1.415 . S
C616 C621 1.425 . S
C616 C623 1.409 . S
C617 H609 0.930 . S
C617 C615 1.419 . S
C617 C618 1.362 . S
C618 H610 0.930 . S
C618 C617 1.362 . S
C618 C621 1.409 . S
C619 H611 0.930 . S
C619 C620 1.355 . S
C619 C621 1.415 . S
C620 C619 1.355 . S
C620 C622 1.419 . S
C621 C616 1.425 . S
C621 C618 1.409 . S
C621 C619 1.415 . S
C622 H612 0.930 . S
C622 C620 1.419 . S
C622 C623 1.362 . S
C623 H613 0.930 . S
C623 C616 1.409 . S
C623 C622 1.362 . S
H624 C630 0.930 . S
H625 C633 0.930 . S
H626 C634 0.930 . S
H627 C635 0.930 . S
H628 C638 0.930 . S
H629 C639 0.930 . S
C630 H624 0.930 . S
C630 C631 1.355 . S
C630 C632 1.415 . S
C631 C630 1.355 . S
C631 C633 1.419 . S
C632 C630 1.415 . S
C632 C637 1.425 . S
C632 C639 1.409 . S
C633 H625 0.930 . S
C633 C631 1.419 . S
C633 C634 1.362 . S
C634 H626 0.930 . S
C634 C633 1.362 . S
C634 C637 1.409 . S
C635 H627 0.930 . S
C635 C636 1.355 . S
C635 C637 1.415 . S
C636 C635 1.355 . S
C636 C638 1.419 . S
C637 C632 1.425 . S
C637 C634 1.409 . S
C637 C635 1.415 . S
C638 H628 0.930 . S
C638 C636 1.419 . S
C638 C639 1.362 . S
C639 H629 0.930 . S
C639 C632 1.409 . S
C639 C638 1.362 . S
H640 C646 0.930 . S
H641 C649 0.930 . S
H642 C650 0.930 . S
H643 C651 0.930 . S
H644 C654 0.930 . S
H645 C655 0.930 . S
C646 H640 0.930 . S
C646 C647 1.355 . S
C646 C648 1.415 . S
C647 C646 1.355 . S
C647 C649 1.419 . S
C648 C646 1.415 . S
C648 C653 1.425 1_655 S
C648 C655 1.409 1_655 S
C649 H641 0.930 . S
C649 C647 1.419 . S
C649 C650 1.362 . S
C650 H642 0.930 . S
C650 C649 1.362 . S
C650 C653 1.409 1_655 S
C651 H643 0.930 . S
C651 C652 1.355 . S
C651 C653 1.415 . S
C652 C651 1.355 . S
C652 C654 1.419 . S
C653 C648 1.425 1_455 S
C653 C650 1.409 1_455 S
C653 C651 1.415 . S
C654 H644 0.930 . S
C654 C652 1.419 . S
C654 C655 1.362 . S
C655 H645 0.930 . S
C655 C648 1.409 1_455 S
C655 C654 1.362 . S
H656 C662 0.930 . S
H657 C665 0.930 . S
H658 C666 0.930 1_554 S
H659 C667 0.930 . S
H660 C670 0.930 . S
H661 C671 0.930 . S
C662 H656 0.930 . S
C662 C663 1.355 . S
C662 C664 1.415 . S
C663 C662 1.355 . S
C663 C665 1.419 . S
C664 C662 1.415 . S
C664 C669 1.425 . S
C664 C671 1.409 . S
C665 H657 0.930 . S
C665 C663 1.419 . S
C665 C666 1.362 . S
C666 H658 0.930 1_556 S
C666 C665 1.362 . S
C666 C669 1.409 . S
C667 H659 0.930 . S
C667 C668 1.355 . S
C667 C669 1.415 . S
C668 C667 1.355 . S
C668 C670 1.419 . S
C669 C664 1.425 . S
C669 C666 1.409 . S
C669 C667 1.415 . S
C670 H660 0.930 . S
C670 C668 1.419 . S
C670 C671 1.362 . S
C671 H661 0.930 . S
C671 C664 1.409 . S
C671 C670 1.362 . S
H672 C678 0.930 . S
H673 C681 0.930 1_556 S
H674 C682 0.930 1_556 S
H675 C683 0.930 . S
H676 C686 0.930 . S
H677 C687 0.930 . S
C678 H672 0.930 . S
C678 C679 1.355 . S
C678 C680 1.415 . S
C679 C678 1.355 . S
C679 C681 1.419 . S
C680 C678 1.415 . S
C680 C685 1.425 1_455 S
C680 C687 1.409 1_455 S
C681 H673 0.930 1_554 S
C681 C679 1.419 . S
C681 C682 1.362 . S
C682 H674 0.930 1_554 S
C682 C681 1.362 . S
C682 C685 1.409 1_455 S
C683 H675 0.930 . S
C683 C684 1.355 . S
C683 C685 1.415 . S
C684 C683 1.355 . S
C684 C686 1.419 . S
C685 C680 1.425 1_655 S
C685 C682 1.409 1_655 S
C685 C683 1.415 . S
C686 H676 0.930 . S
C686 C684 1.419 . S
C686 C687 1.362 . S
C687 H677 0.930 . S
C687 C680 1.409 1_655 S
C687 C686 1.362 . S
H688 C694 0.930 . S
H689 C697 0.930 . S
H690 C698 0.930 . S
H691 C699 0.930 . S
H692 C702 0.930 . S
H693 C703 0.930 . S
C694 H688 0.930 . S
C694 C695 1.355 . S
C694 C696 1.415 . S
C695 C694 1.355 . S
C695 C697 1.419 . S
C696 C694 1.415 . S
C696 C701 1.425 . S
C696 C703 1.409 . S
C697 H689 0.930 . S
C697 C695 1.419 . S
C697 C698 1.362 . S
C698 H690 0.930 . S
C698 C697 1.362 . S
C698 C701 1.409 . S
C699 H691 0.930 . S
C699 C700 1.355 . S
C699 C701 1.415 . S
C700 C699 1.355 . S
C700 C702 1.419 . S
C701 C696 1.425 . S
C701 C698 1.409 . S
C701 C699 1.415 . S
C702 H692 0.930 . S
C702 C700 1.419 . S
C702 C703 1.362 . S
C703 H693 0.930 . S
C703 C696 1.409 . S
C703 C702 1.362 . S
H704 C710 0.930 . S
H705 C713 0.930 . S
H706 C714 0.930 . S
H707 C715 0.930 . S
H708 C718 0.930 . S
H709 C719 0.930 . S
C710 H704 0.930 . S
C710 C711 1.355 . S
C710 C712 1.415 . S
C711 C710 1.355 . S
C711 C713 1.419 . S
C712 C710 1.415 . S
C712 C717 1.425 . S
C712 C719 1.409 . S
C713 H705 0.930 . S
C713 C711 1.419 . S
C713 C714 1.362 . S
C714 H706 0.930 . S
C714 C713 1.362 . S
C714 C717 1.409 . S
C715 H707 0.930 . S
C715 C716 1.355 . S
C715 C717 1.415 . S
C716 C715 1.355 . S
C716 C718 1.419 . S
C717 C712 1.425 . S
C717 C714 1.409 . S
C717 C715 1.415 . S
C718 H708 0.930 . S
C718 C716 1.419 . S
C718 C719 1.362 . S
C719 H709 0.930 . S
C719 C712 1.409 . S
C719 C718 1.362 . S
H720 C726 0.930 . S
H721 C729 0.930 . S
H722 C730 0.930 . S
H723 C731 0.930 . S
H724 C734 0.930 . S
H725 C735 0.930 . S
C726 H720 0.930 . S
C726 C727 1.355 . S
C726 C728 1.415 . S
C727 C726 1.355 . S
C727 C729 1.419 . S
C728 C726 1.415 . S
C728 C733 1.425 . S
C728 C735 1.409 . S
C729 H721 0.930 . S
C729 C727 1.419 . S
C729 C730 1.362 . S
C730 H722 0.930 . S
C730 C729 1.362 . S
C730 C733 1.409 . S
C731 H723 0.930 . S
C731 C732 1.355 . S
C731 C733 1.415 . S
C732 C731 1.355 . S
C732 C734 1.419 . S
C733 C728 1.425 . S
C733 C730 1.409 . S
C733 C731 1.415 . S
C734 H724 0.930 . S
C734 C732 1.419 . S
C734 C735 1.362 . S
C735 H725 0.930 . S
C735 C728 1.409 . S
C735 C734 1.362 . S
H736 C742 0.930 . S
H737 C745 0.930 . S
H738 C746 0.930 . S
H739 C747 0.930 . S
H740 C750 0.930 . S
H741 C751 0.930 . S
C742 H736 0.930 . S
C742 C743 1.355 . S
C742 C744 1.415 . S
C743 C742 1.355 . S
C743 C745 1.419 . S
C744 C742 1.415 . S
C744 C749 1.425 . S
C744 C751 1.409 . S
C745 H737 0.930 . S
C745 C743 1.419 . S
C745 C746 1.362 . S
C746 H738 0.930 . S
C746 C745 1.362 . S
C746 C749 1.409 . S
C747 H739 0.930 . S
C747 C748 1.355 . S
C747 C749 1.415 . S
C748 C747 1.355 . S
C748 C750 1.419 . S
C749 C744 1.425 . S
C749 C746 1.409 . S
C749 C747 1.415 . S
C750 H740 0.930 . S
C750 C748 1.419 . S
C750 C751 1.362 . S
C751 H741 0.930 . S
C751 C744 1.409 . S
C751 C750 1.362 . S
H752 C758 0.930 . S
H753 C761 0.930 . S
H754 C762 0.930 . S
H755 C763 0.930 . S
H756 C766 0.930 . S
H757 C767 0.930 1_556 S
C758 H752 0.930 . S
C758 C759 1.355 . S
C758 C760 1.415 . S
C759 C758 1.355 . S
C759 C761 1.419 . S
C760 C758 1.415 . S
C760 C765 1.425 . S
C760 C767 1.409 . S
C761 H753 0.930 . S
C761 C759 1.419 . S
C761 C762 1.362 . S
C762 H754 0.930 . S
C762 C761 1.362 . S
C762 C765 1.409 . S
C763 H755 0.930 . S
C763 C764 1.355 . S
C763 C765 1.415 . S
C764 C763 1.355 . S
C764 C766 1.419 . S
C765 C760 1.425 . S
C765 C762 1.409 . S
C765 C763 1.415 . S
C766 H756 0.930 . S
C766 C764 1.419 . S
C766 C767 1.362 . S
C767 H757 0.930 1_554 S
C767 C760 1.409 . S
C767 C766 1.362 . S
H768 C774 0.930 . S
H769 C777 0.930 . S
H770 C778 0.930 . S
H771 C779 0.930 . S
H772 C782 0.930 . S
H773 C783 0.930 . S
C774 H768 0.930 . S
C774 C775 1.355 . S
C774 C776 1.415 . S
C775 C774 1.355 . S
C775 C777 1.419 . S
C776 C774 1.415 . S
C776 C781 1.425 . S
C776 C783 1.409 . S
C777 H769 0.930 . S
C777 C775 1.419 . S
C777 C778 1.362 . S
C778 H770 0.930 . S
C778 C777 1.362 . S
C778 C781 1.409 . S
C779 H771 0.930 . S
C779 C780 1.355 . S
C779 C781 1.415 . S
C780 C779 1.355 . S
C780 C782 1.419 . S
C781 C776 1.425 . S
C781 C778 1.409 . S
C781 C779 1.415 . S
C782 H772 0.930 . S
C782 C780 1.419 . S
C782 C783 1.362 . S
C783 H773 0.930 . S
C783 C776 1.409 . S
C783 C782 1.362 . S
H784 C790 0.930 . S
H785 C793 0.930 . S
H786 C794 0.930 . S
H787 C795 0.930 . S
H788 C798 0.930 . S
H789 C799 0.930 . S
C790 H784 0.930 . S
C790 C791 1.355 . S
C790 C792 1.415 . S
C791 C790 1.355 . S
C791 C793 1.419 . S
C792 C790 1.415 . S
C792 C797 1.425 1_655 S
C792 C799 1.409 1_655 S
C793 H785 0.930 . S
C793 C791 1.419 . S
C793 C794 1.362 . S
C794 H786 0.930 . S
C794 C793 1.362 . S
C794 C797 1.409 1_655 S
C795 H787 0.930 . S
C795 C796 1.355 . S
C795 C797 1.415 . S
C796 C795 1.355 . S
C796 C798 1.419 . S
C797 C792 1.425 1_455 S
C797 C794 1.409 1_455 S
C797 C795 1.415 . S
C798 H788 0.930 . S
C798 C796 1.419 . S
C798 C799 1.362 . S
C799 H789 0.930 . S
C799 C792 1.409 1_455 S
C799 C798 1.362 . S
H800 C806 0.930 . S
H801 C809 0.930 . S
H802 C810 0.930 . S
H803 C811 0.930 . S
H804 C814 0.930 . S
H805 C815 0.930 . S
C806 H800 0.930 . S
C806 C807 1.355 . S
C806 C808 1.415 . S
C807 C806 1.355 . S
C807 C809 1.419 . S
C808 C806 1.415 . S
C808 C813 1.425 . S
C808 C815 1.409 . S
C809 H801 0.930 . S
C809 C807 1.419 . S
C809 C810 1.362 . S
C810 H802 0.930 . S
C810 C809 1.362 . S
C810 C813 1.409 . S
C811 H803 0.930 . S
C811 C812 1.355 . S
C811 C813 1.415 . S
C812 C811 1.355 . S
C812 C814 1.419 . S
C813 C808 1.425 . S
C813 C810 1.409 . S
C813 C811 1.415 . S
C814 H804 0.930 . S
C814 C812 1.419 . S
C814 C815 1.362 . S
C815 H805 0.930 . S
C815 C808 1.409 . S
C815 C814 1.362 . S
H816 C822 0.930 . S
H817 C825 0.930 . S
H818 C826 0.930 . S
H819 C827 0.930 . S
H820 C830 0.930 . S
H821 C831 0.930 . S
C822 H816 0.930 . S
C822 C823 1.355 . S
C822 C824 1.415 . S
C823 C822 1.355 . S
C823 C825 1.419 . S
C824 C822 1.415 . S
C824 C829 1.425 . S
C824 C831 1.409 . S
C825 H817 0.930 . S
C825 C823 1.419 . S
C825 C826 1.362 . S
C826 H818 0.930 . S
C826 C825 1.362 . S
C826 C829 1.409 . S
C827 H819 0.930 . S
C827 C828 1.355 . S
C827 C829 1.415 . S
C828 C827 1.355 . S
C828 C830 1.419 . S
C829 C824 1.425 . S
C829 C826 1.409 . S
C829 C827 1.415 . S
C830 H820 0.930 . S
C830 C828 1.419 . S
C830 C831 1.362 . S
C831 H821 0.930 . S
C831 C824 1.409 . S
C831 C830 1.362 . S
H832 C838 0.930 . S
H833 C841 0.930 . S
H834 C842 0.930 1_556 S
H835 C843 0.930 . S
H836 C846 0.930 . S
H837 C847 0.930 . S
C838 H832 0.930 . S
C838 C839 1.355 . S
C838 C840 1.415 . S
C839 C838 1.355 . S
C839 C841 1.419 . S
C840 C838 1.415 . S
C840 C845 1.425 1_455 S
C840 C847 1.409 1_455 S
C841 H833 0.930 . S
C841 C839 1.419 . S
C841 C842 1.362 . S
C842 H834 0.930 1_554 S
C842 C841 1.362 . S
C842 C845 1.409 1_455 S
C843 H835 0.930 . S
C843 C844 1.355 . S
C843 C845 1.415 . S
C844 C843 1.355 . S
C844 C846 1.419 . S
C845 C840 1.425 1_655 S
C845 C842 1.409 1_655 S
C845 C843 1.415 . S
C846 H836 0.930 . S
C846 C844 1.419 . S
C846 C847 1.362 . S
C847 H837 0.930 . S
C847 C840 1.409 1_655 S
C847 C846 1.362 . S
H848 C854 0.930 . S
H849 C857 0.930 . S
H850 C858 0.930 . S
H851 C859 0.930 . S
H852 C862 0.930 . S
H853 C863 0.930 . S
C854 H848 0.930 . S
C854 C855 1.355 . S
C854 C856 1.415 . S
C855 C854 1.355 . S
C855 C857 1.419 1_554 S
C856 C854 1.415 . S
C856 C861 1.425 1_554 S
C856 C863 1.409 . S
C857 H849 0.930 . S
C857 C855 1.419 1_556 S
C857 C858 1.362 . S
C858 H850 0.930 . S
C858 C857 1.362 . S
C858 C861 1.409 . S
C859 H851 0.930 . S
C859 C860 1.355 . S
C859 C861 1.415 . S
C860 C859 1.355 . S
C860 C862 1.419 1_556 S
C861 C856 1.425 1_556 S
C861 C858 1.409 . S
C861 C859 1.415 . S
C862 H852 0.930 . S
C862 C860 1.419 1_554 S
C862 C863 1.362 . S
C863 H853 0.930 . S
C863 C856 1.409 . S
C863 C862 1.362 . S
H864 C870 0.930 . S
H865 C873 0.930 . S
H866 C874 0.930 . S
H867 C875 0.930 . S
H868 C878 0.930 . S
H869 C879 0.930 . S
C870 H864 0.930 . S
C870 C871 1.355 . S
C870 C872 1.415 . S
C871 C870 1.355 . S
C871 C873 1.419 . S
C872 C870 1.415 . S
C872 C877 1.425 . S
C872 C879 1.409 . S
C873 H865 0.930 . S
C873 C871 1.419 . S
C873 C874 1.362 . S
C874 H866 0.930 . S
C874 C873 1.362 . S
C874 C877 1.409 . S
C875 H867 0.930 . S
C875 C876 1.355 . S
C875 C877 1.415 . S
C876 C875 1.355 . S
C876 C878 1.419 . S
C877 C872 1.425 . S
C877 C874 1.409 . S
C877 C875 1.415 . S
C878 H868 0.930 . S
C878 C876 1.419 . S
C878 C879 1.362 . S
C879 H869 0.930 . S
C879 C872 1.409 . S
C879 C878 1.362 . S
H880 C886 0.930 . S
H881 C889 0.930 . S
H882 C890 0.930 . S
H883 C891 0.930 . S
H884 C894 0.930 . S
H885 C895 0.930 . S
C886 H880 0.930 . S
C886 C887 1.355 . S
C886 C888 1.415 . S
C887 C886 1.355 . S
C887 C889 1.419 . S
C888 C886 1.415 . S
C888 C893 1.425 . S
C888 C895 1.409 . S
C889 H881 0.930 . S
C889 C887 1.419 . S
C889 C890 1.362 . S
C890 H882 0.930 . S
C890 C889 1.362 . S
C890 C893 1.409 . S
C891 H883 0.930 . S
C891 C892 1.355 . S
C891 C893 1.415 . S
C892 C891 1.355 . S
C892 C894 1.419 . S
C893 C888 1.425 . S
C893 C890 1.409 . S
C893 C891 1.415 . S
C894 H884 0.930 . S
C894 C892 1.419 . S
C894 C895 1.362 . S
C895 H885 0.930 . S
C895 C888 1.409 . S
C895 C894 1.362 . S
H896 C902 0.930 . S
H897 C905 0.930 . S
H898 C906 0.930 . S
H899 C907 0.930 . S
H900 C910 0.930 . S
H901 C911 0.930 . S
C902 H896 0.930 . S
C902 C903 1.355 . S
C902 C904 1.415 . S
C903 C902 1.355 . S
C903 C905 1.419 . S
C904 C902 1.415 . S
C904 C909 1.425 . S
C904 C911 1.409 . S
C905 H897 0.930 . S
C905 C903 1.419 . S
C905 C906 1.362 . S
C906 H898 0.930 . S
C906 C905 1.362 . S
C906 C909 1.409 . S
C907 H899 0.930 . S
C907 C908 1.355 . S
C907 C909 1.415 . S
C908 C907 1.355 . S
C908 C910 1.419 . S
C909 C904 1.425 . S
C909 C906 1.409 . S
C909 C907 1.415 . S
C910 H900 0.930 . S
C910 C908 1.419 . S
C910 C911 1.362 . S
C911 H901 0.930 . S
C911 C904 1.409 . S
C911 C910 1.362 . S
H912 C918 0.930 . S
H913 C921 0.930 . S
H914 C922 0.930 . S
H915 C923 0.930 . S
H916 C926 0.930 . S
H917 C927 0.930 . S
C918 H912 0.930 . S
C918 C919 1.355 1_556 S
C918 C920 1.415 . S
C919 C918 1.355 1_554 S
C919 C921 1.419 . S
C920 C918 1.415 . S
C920 C925 1.425 1_556 S
C920 C927 1.409 . S
C921 H913 0.930 . S
C921 C919 1.419 . S
C921 C922 1.362 . S
C922 H914 0.930 . S
C922 C921 1.362 . S
C922 C925 1.409 . S
C923 H915 0.930 . S
C923 C924 1.355 1_554 S
C923 C925 1.415 . S
C924 C923 1.355 1_556 S
C924 C926 1.419 . S
C925 C920 1.425 1_554 S
C925 C922 1.409 . S
C925 C923 1.415 . S
C926 H916 0.930 . S
C926 C924 1.419 . S
C926 C927 1.362 . S
C927 H917 0.930 . S
C927 C920 1.409 . S
C927 C926 1.362 . S
H928 C934 0.930 . S
H929 C937 0.930 . S
H930 C938 0.930 . S
H931 C939 0.930 . S
H932 C942 0.930 . S
H933 C943 0.930 . S
C934 H928 0.930 . S
C934 C935 1.355 . S
C934 C936 1.415 . S
C935 C934 1.355 . S
C935 C937 1.419 . S
C936 C934 1.415 . S
C936 C941 1.425 . S
C936 C943 1.409 . S
C937 H929 0.930 . S
C937 C935 1.419 . S
C937 C938 1.362 . S
C938 H930 0.930 . S
C938 C937 1.362 . S
C938 C941 1.409 . S
C939 H931 0.930 . S
C939 C940 1.355 . S
C939 C941 1.415 . S
C940 C939 1.355 . S
C940 C942 1.419 . S
C941 C936 1.425 . S
C941 C938 1.409 . S
C941 C939 1.415 . S
C942 H932 0.930 . S
C942 C940 1.419 . S
C942 C943 1.362 . S
C943 H933 0.930 . S
C943 C936 1.409 . S
C943 C942 1.362 . S
H944 C950 0.930 . S
H945 C953 0.930 . S
H946 C954 0.930 . S
H947 C955 0.930 . S
H948 C958 0.930 . S
H949 C959 0.930 . S
C950 H944 0.930 . S
C950 C951 1.355 . S
C950 C952 1.415 . S
C951 C950 1.355 . S
C951 C953 1.419 . S
C952 C950 1.415 . S
C952 C957 1.425 . S
C952 C959 1.409 . S
C953 H945 0.930 . S
C953 C951 1.419 . S
C953 C954 1.362 . S
C954 H946 0.930 . S
C954 C953 1.362 . S
C954 C957 1.409 . S
C955 H947 0.930 . S
C955 C956 1.355 . S
C955 C957 1.415 . S
C956 C955 1.355 . S
C956 C958 1.419 . S
C957 C952 1.425 . S
C957 C954 1.409 . S
C957 C955 1.415 . S
C958 H948 0.930 . S
C958 C956 1.419 . S
C958 C959 1.362 . S
C959 H949 0.930 . S
C959 C952 1.409 . S
C959 C958 1.362 . S
H960 C966 0.930 . S
H961 C969 0.930 . S
H962 C970 0.930 . S
H963 C971 0.930 . S
H964 C974 0.930 . S
H965 C975 0.930 . S
C966 H960 0.930 . S
C966 C967 1.355 . S
C966 C968 1.415 . S
C967 C966 1.355 . S
C967 C969 1.419 . S
C968 C966 1.415 . S
C968 C973 1.425 . S
C968 C975 1.409 . S
C969 H961 0.930 . S
C969 C967 1.419 . S
C969 C970 1.362 . S
C970 H962 0.930 . S
C970 C969 1.362 . S
C970 C973 1.409 . S
C971 H963 0.930 . S
C971 C972 1.355 . S
C971 C973 1.415 . S
C972 C971 1.355 . S
C972 C974 1.419 . S
C973 C968 1.425 . S
C973 C970 1.409 . S
C973 C971 1.415 . S
C974 H964 0.930 . S
C974 C972 1.419 . S
C974 C975 1.362 . S
C975 H965 0.930 . S
C975 C968 1.409 . S
C975 C974 1.362 . S
H976 C982 0.930 . S
H977 C985 0.930 . S
H978 C986 0.930 . S
H979 C987 0.930 . S
H980 C990 0.930 . S
H981 C991 0.930 . S
C982 H976 0.930 . S
C982 C983 1.355 . S
C982 C984 1.415 . S
C983 C982 1.355 . S
C983 C985 1.419 . S
C984 C982 1.415 . S
C984 C989 1.425 1_565 S
C984 C991 1.409 1_565 S
C985 H977 0.930 . S
C985 C983 1.419 . S
C985 C986 1.362 . S
C986 H978 0.930 . S
C986 C985 1.362 . S
C986 C989 1.409 1_565 S
C987 H979 0.930 . S
C987 C988 1.355 . S
C987 C989 1.415 . S
C988 C987 1.355 . S
C988 C990 1.419 . S
C989 C984 1.425 1_545 S
C989 C986 1.409 1_545 S
C989 C987 1.415 . S
C990 H980 0.930 . S
C990 C988 1.419 . S
C990 C991 1.362 . S
C991 H981 0.930 . S
C991 C984 1.409 1_545 S
C991 C990 1.362 . S
H992 C998 0.930 . S
H993 C1001 0.930 . S
H994 C1002 0.930 . S
H995 C1003 0.930 . S
H996 C1006 0.930 . S
H997 C1007 0.930 . S
C998 H992 0.930 . S
C998 C999 1.355 . S
C998 C1000 1.415 . S
C999 C998 1.355 . S
C999 C1001 1.419 . S
C1000 C998 1.415 . S
C1000 C1005 1.425 . S
C1000 C1007 1.409 . S
C1001 H993 0.930 . S
C1001 C999 1.419 . S
C1001 C1002 1.362 . S
C1002 H994 0.930 . S
C1002 C1001 1.362 . S
C1002 C1005 1.409 . S
C1003 H995 0.930 . S
C1003 C1004 1.355 . S
C1003 C1005 1.415 . S
C1004 C1003 1.355 . S
C1004 C1006 1.419 . S
C1005 C1000 1.425 . S
C1005 C1002 1.409 . S
C1005 C1003 1.415 . S
C1006 H996 0.930 . S
C1006 C1004 1.419 . S
C1006 C1007 1.362 . S
C1007 H997 0.930 . S
C1007 C1000 1.409 . S
C1007 C1006 1.362 . S
H1008 C1014 0.930 . S
H1009 C1017 0.930 . S
H1010 C1018 0.930 . S
H1011 C1019 0.930 . S
H1012 C1022 0.930 . S
H1013 C1023 0.930 . S
C1014 H1008 0.930 . S
C1014 C1015 1.355 . S
C1014 C1016 1.415 . S
C1015 C1014 1.355 . S
C1015 C1017 1.419 1_554 S
C1016 C1014 1.415 . S
C1016 C1021 1.425 1_564 S
C1016 C1023 1.409 1_565 S
C1017 H1009 0.930 . S
C1017 C1015 1.419 1_556 S
C1017 C1018 1.362 . S
C1018 H1010 0.930 . S
C1018 C1017 1.362 . S
C1018 C1021 1.409 1_565 S
C1019 H1011 0.930 . S
C1019 C1020 1.355 . S
C1019 C1021 1.415 . S
C1020 C1019 1.355 . S
C1020 C1022 1.419 1_556 S
C1021 C1016 1.425 1_546 S
C1021 C1018 1.409 1_545 S
C1021 C1019 1.415 . S
C1022 H1012 0.930 . S
C1022 C1020 1.419 1_554 S
C1022 C1023 1.362 . S
C1023 H1013 0.930 . S
C1023 C1016 1.409 1_545 S
C1023 C1022 1.362 . S
H1024 C1030 0.930 . S
H1025 C1033 0.930 . S
H1026 C1034 0.930 . S
H1027 C1035 0.930 . S
H1028 C1038 0.930 . S
H1029 C1039 0.930 . S
C1030 H1024 0.930 . S
C1030 C1031 1.355 . S
C1030 C1032 1.415 . S
C1031 C1030 1.355 . S
C1031 C1033 1.419 . S
C1032 C1030 1.415 . S
C1032 C1037 1.425 . S
C1032 C1039 1.409 . S
C1033 H1025 0.930 . S
C1033 C1031 1.419 . S
C1033 C1034 1.362 . S
C1034 H1026 0.930 . S
C1034 C1033 1.362 . S
C1034 C1037 1.409 . S
C1035 H1027 0.930 . S
C1035 C1036 1.355 . S
C1035 C1037 1.415 . S
C1036 C1035 1.355 . S
C1036 C1038 1.419 . S
C1037 C1032 1.425 . S
C1037 C1034 1.409 . S
C1037 C1035 1.415 . S
C1038 H1028 0.930 . S
C1038 C1036 1.419 . S
C1038 C1039 1.362 . S
C1039 H1029 0.930 . S
C1039 C1032 1.409 . S
C1039 C1038 1.362 . S
H1040 C1046 0.930 . S
H1041 C1049 0.930 . S
H1042 C1050 0.930 . S
H1043 C1051 0.930 . S
H1044 C1054 0.930 . S
H1045 C1055 0.930 . S
C1046 H1040 0.930 . S
C1046 C1047 1.355 . S
C1046 C1048 1.415 . S
C1047 C1046 1.355 . S
C1047 C1049 1.419 . S
C1048 C1046 1.415 . S
C1048 C1053 1.425 1_565 S
C1048 C1055 1.409 1_565 S
C1049 H1041 0.930 . S
C1049 C1047 1.419 . S
C1049 C1050 1.362 . S
C1050 H1042 0.930 . S
C1050 C1049 1.362 . S
C1050 C1053 1.409 1_565 S
C1051 H1043 0.930 . S
C1051 C1052 1.355 . S
C1051 C1053 1.415 . S
C1052 C1051 1.355 . S
C1052 C1054 1.419 . S
C1053 C1048 1.425 1_545 S
C1053 C1050 1.409 1_545 S
C1053 C1051 1.415 . S
C1054 H1044 0.930 . S
C1054 C1052 1.419 . S
C1054 C1055 1.362 . S
C1055 H1045 0.930 . S
C1055 C1048 1.409 1_545 S
C1055 C1054 1.362 . S
H1056 C1062 0.930 . S
H1057 C1065 0.930 . S
H1058 C1066 0.930 . S
H1059 C1067 0.930 . S
H1060 C1070 0.930 . S
H1061 C1071 0.930 . S
C1062 H1056 0.930 . S
C1062 C1063 1.355 . S
C1062 C1064 1.415 . S
C1063 C1062 1.355 . S
C1063 C1065 1.419 . S
C1064 C1062 1.415 . S
C1064 C1069 1.425 . S
C1064 C1071 1.409 . S
C1065 H1057 0.930 . S
C1065 C1063 1.419 . S
C1065 C1066 1.362 . S
C1066 H1058 0.930 . S
C1066 C1065 1.362 . S
C1066 C1069 1.409 . S
C1067 H1059 0.930 . S
C1067 C1068 1.355 . S
C1067 C1069 1.415 . S
C1068 C1067 1.355 . S
C1068 C1070 1.419 . S
C1069 C1064 1.425 . S
C1069 C1066 1.409 . S
C1069 C1067 1.415 . S
C1070 H1060 0.930 . S
C1070 C1068 1.419 . S
C1070 C1071 1.362 . S
C1071 H1061 0.930 . S
C1071 C1064 1.409 . S
C1071 C1070 1.362 . S
H1072 C1078 0.930 . S
H1073 C1081 0.930 . S
H1074 C1082 0.930 1_554 S
H1075 C1083 0.930 . S
H1076 C1086 0.930 . S
H1077 C1087 0.930 1_556 S
C1078 H1072 0.930 . S
C1078 C1079 1.355 . S
C1078 C1080 1.415 . S
C1079 C1078 1.355 . S
C1079 C1081 1.419 . S
C1080 C1078 1.415 . S
C1080 C1085 1.425 1_546 S
C1080 C1087 1.409 1_546 S
C1081 H1073 0.930 . S
C1081 C1079 1.419 . S
C1081 C1082 1.362 . S
C1082 H1074 0.930 1_556 S
C1082 C1081 1.362 . S
C1082 C1085 1.409 1_546 S
C1083 H1075 0.930 . S
C1083 C1084 1.355 . S
C1083 C1085 1.415 . S
C1084 C1083 1.355 . S
C1084 C1086 1.419 . S
C1085 C1080 1.425 1_564 S
C1085 C1082 1.409 1_564 S
C1085 C1083 1.415 . S
C1086 H1076 0.930 . S
C1086 C1084 1.419 . S
C1086 C1087 1.362 . S
C1087 H1077 0.930 1_554 S
C1087 C1080 1.409 1_564 S
C1087 C1086 1.362 . S
H1088 C1094 0.930 . S
H1089 C1097 0.930 . S
H1090 C1098 0.930 . S
H1091 C1099 0.930 . S
H1092 C1102 0.930 . S
H1093 C1103 0.930 . S
C1094 H1088 0.930 . S
C1094 C1095 1.355 . S
C1094 C1096 1.415 . S
C1095 C1094 1.355 . S
C1095 C1097 1.419 . S
C1096 C1094 1.415 . S
C1096 C1101 1.425 . S
C1096 C1103 1.409 . S
C1097 H1089 0.930 . S
C1097 C1095 1.419 . S
C1097 C1098 1.362 . S
C1098 H1090 0.930 . S
C1098 C1097 1.362 . S
C1098 C1101 1.409 . S
C1099 H1091 0.930 . S
C1099 C1100 1.355 . S
C1099 C1101 1.415 . S
C1100 C1099 1.355 . S
C1100 C1102 1.419 . S
C1101 C1096 1.425 . S
C1101 C1098 1.409 . S
C1101 C1099 1.415 . S
C1102 H1092 0.930 . S
C1102 C1100 1.419 . S
C1102 C1103 1.362 . S
C1103 H1093 0.930 . S
C1103 C1096 1.409 . S
C1103 C1102 1.362 . S
C343 C20 1.295 . S
C348 C16 1.308 . S
C359 C41 1.295 . S
C364 C37 1.317 . S
C375 C45 1.313 . S
C380 C61 1.293 . S
C391 C66 1.301 . S
C396 C82 1.300 . S
C407 C87 1.296 . S
C412 C103 1.300 . S
C423 C108 1.351 . S
C428 C124 1.384 . S
C439 C145 1.392 . S
C444 C129 1.368 . S
C455 C167 1.354 . S
C460 C163 1.317 . S
C471 C171 1.320 . S
C476 C187 1.358 . S
C487 C192 1.300 . S
C492 C208 1.327 . S
C503 C229 1.393 . S
C508 C213 1.391 . S
C519 C251 1.306 . S
C524 C247 1.348 . S
C535 C268 1.299 . S
C540 C272 1.313 . S
C551 C289 1.355 . S
C556 C293 1.387 . S
C567 C297 1.370 . S
C572 C313 1.392 . S
C583 C318 1.332 . S
C588 C334 1.296 . S
C599 C3 1.274 . S
C604 C238 1.374 . S
C615 C24 1.346 . S
C620 C319 1.276 . S
C631 C46 1.327 . S
C636 C193 1.284 . S
C647 C67 1.346 . S
C652 C280 1.221 . S
C663 C88 1.372 . S
C668 C276 1.301 . S
C679 C234 1.400 . S
C684 C121 1.311 . S
C695 C142 1.323 . S
C700 C331 1.393 . S
C711 C150 1.339 . S
C716 C205 1.351 . S
C727 C79 1.399 . S
C732 C172 1.267 . S
C743 C28 1.355 . S
C748 C214 1.251 . S
C759 C259 1.294 . S
C764 C109 1.320 . S
C775 C154 1.248 . S
C780 C298 1.365 . S
C791 C184 1.352 . S
C796 C100 1.353 . S
C807 C130 1.361 . S
C812 C226 1.271 . S
C823 C58 1.398 . S
C828 C310 1.281 . S
C839 C7 1.272 . S
C844 C255 1.349 . S
C855 C19 1.396 . S
C860 C91 1.388 . S
C871 C40 1.405 . S
C876 C125 1.380 . S
C887 C49 1.378 . S
C892 C146 1.401 . S
C903 C70 1.403 . S
C908 C166 1.418 . S
C919 C256 1.329 . S
C924 C175 1.308 . S
C935 C277 1.373 . S
C940 C209 1.412 . S
C951 C217 1.390 . S
C956 C301 1.399 . S
C967 C322 1.308 . S
C972 C250 1.367 . S
C983 C25 1.386 . S
C988 C151 1.331 . S
C999 C104 1.397 . S
C1004 C62 1.363 . S
C1015 C112 1.379 . S
C1020 C83 1.323 . S
C1031 C4 1.422 . S
C1036 C133 1.405 . S
C1047 C335 1.334 . S
C1052 C196 1.387 . S
C1063 C271 1.391 . S
C1068 C230 1.401 . S
C1079 C292 1.402 . S
C1084 C235 1.347 . S
C1095 C314 1.356 . S
C1100 C188 1.312 . S
