# Generated by pormake.
# Topology xff, (7)-cn, num edge types: 1
# Building blocks:
#     Node 0, Type 0, BuildingBlock: HICVOG_clean_sbu_0, # of connection points: 7
#     Node 1, Type 0, BuildingBlock: HICVOG_clean_sbu_0, # of connection points: 7
#     Node 2, Type 0, BuildingBlock: HICVOG_clean_sbu_0, # of connection points: 7
#     Node 3, Type 0, BuildingBlock: HICVOG_clean_sbu_0, # of connection points: 7
#     Node 4, Type 0, BuildingBlock: HICVOG_clean_sbu_0, # of connection points: 7
#     Node 5, Type 0, BuildingBlock: HICVOG_clean_sbu_0, # of connection points: 7
#     Node 6, Type 0, BuildingBlock: HICVOG_clean_sbu_0, # of connection points: 7
#     Node 7, Type 0, BuildingBlock: HICVOG_clean_sbu_0, # of connection points: 7
#     Node 8, Type 0, BuildingBlock: HICVOG_clean_sbu_0, # of connection points: 7
#     Node 9, Type 0, BuildingBlock: HICVOG_clean_sbu_0, # of connection points: 7
#     Node 10, Type 0, BuildingBlock: HICVOG_clean_sbu_0, # of connection points: 7
#     Node 11, Type 0, BuildingBlock: HICVOG_clean_sbu_0, # of connection points: 7
#     Node 12, Type 0, BuildingBlock: HICVOG_clean_sbu_0, # of connection points: 7
#     Node 13, Type 0, BuildingBlock: HICVOG_clean_sbu_0, # of connection points: 7
#     Node 14, Type 0, BuildingBlock: HICVOG_clean_sbu_0, # of connection points: 7
#     Node 15, Type 0, BuildingBlock: HICVOG_clean_sbu_0, # of connection points: 7
#     Edge 16, Type (0, 0), BuildingBlock: KIFKEQ_clean_linker_1, # of connection points: 2
#     Edge 17, Type (0, 0), BuildingBlock: KIFKEQ_clean_linker_1, # of connection points: 2
#     Edge 18, Type (0, 0), BuildingBlock: KIFKEQ_clean_linker_1, # of connection points: 2
#     Edge 19, Type (0, 0), BuildingBlock: KIFKEQ_clean_linker_1, # of connection points: 2
#     Edge 20, Type (0, 0), BuildingBlock: KIFKEQ_clean_linker_1, # of connection points: 2
#     Edge 21, Type (0, 0), BuildingBlock: KIFKEQ_clean_linker_1, # of connection points: 2
#     Edge 22, Type (0, 0), BuildingBlock: KIFKEQ_clean_linker_1, # of connection points: 2
#     Edge 23, Type (0, 0), BuildingBlock: KIFKEQ_clean_linker_1, # of connection points: 2
#     Edge 24, Type (0, 0), BuildingBlock: KIFKEQ_clean_linker_1, # of connection points: 2
#     Edge 25, Type (0, 0), BuildingBlock: KIFKEQ_clean_linker_1, # of connection points: 2
#     Edge 26, Type (0, 0), BuildingBlock: KIFKEQ_clean_linker_1, # of connection points: 2
#     Edge 27, Type (0, 0), BuildingBlock: KIFKEQ_clean_linker_1, # of connection points: 2
#     Edge 28, Type (0, 0), BuildingBlock: KIFKEQ_clean_linker_1, # of connection points: 2
#     Edge 29, Type (0, 0), BuildingBlock: KIFKEQ_clean_linker_1, # of connection points: 2
#     Edge 30, Type (0, 0), BuildingBlock: KIFKEQ_clean_linker_1, # of connection points: 2
#     Edge 31, Type (0, 0), BuildingBlock: KIFKEQ_clean_linker_1, # of connection points: 2
#     Edge 32, Type (0, 0), BuildingBlock: KIFKEQ_clean_linker_1, # of connection points: 2
#     Edge 33, Type (0, 0), BuildingBlock: KIFKEQ_clean_linker_1, # of connection points: 2
#     Edge 34, Type (0, 0), BuildingBlock: KIFKEQ_clean_linker_1, # of connection points: 2
#     Edge 35, Type (0, 0), BuildingBlock: KIFKEQ_clean_linker_1, # of connection points: 2
#     Edge 36, Type (0, 0), BuildingBlock: KIFKEQ_clean_linker_1, # of connection points: 2
#     Edge 37, Type (0, 0), BuildingBlock: KIFKEQ_clean_linker_1, # of connection points: 2
#     Edge 38, Type (0, 0), BuildingBlock: KIFKEQ_clean_linker_1, # of connection points: 2
#     Edge 39, Type (0, 0), BuildingBlock: KIFKEQ_clean_linker_1, # of connection points: 2
#     Edge 40, Type (0, 0), BuildingBlock: KIFKEQ_clean_linker_1, # of connection points: 2
#     Edge 41, Type (0, 0), BuildingBlock: KIFKEQ_clean_linker_1, # of connection points: 2
#     Edge 42, Type (0, 0), BuildingBlock: KIFKEQ_clean_linker_1, # of connection points: 2
#     Edge 43, Type (0, 0), BuildingBlock: KIFKEQ_clean_linker_1, # of connection points: 2
#     Edge 44, Type (0, 0), BuildingBlock: KIFKEQ_clean_linker_1, # of connection points: 2
#     Edge 45, Type (0, 0), BuildingBlock: KIFKEQ_clean_linker_1, # of connection points: 2
#     Edge 46, Type (0, 0), BuildingBlock: KIFKEQ_clean_linker_1, # of connection points: 2
#     Edge 47, Type (0, 0), BuildingBlock: KIFKEQ_clean_linker_1, # of connection points: 2
#     Edge 48, Type (0, 0), BuildingBlock: KIFKEQ_clean_linker_1, # of connection points: 2
#     Edge 49, Type (0, 0), BuildingBlock: KIFKEQ_clean_linker_1, # of connection points: 2
#     Edge 50, Type (0, 0), BuildingBlock: KIFKEQ_clean_linker_1, # of connection points: 2
#     Edge 51, Type (0, 0), BuildingBlock: KIFKEQ_clean_linker_1, # of connection points: 2
#     Edge 52, Type (0, 0), BuildingBlock: KIFKEQ_clean_linker_1, # of connection points: 2
#     Edge 53, Type (0, 0), BuildingBlock: KIFKEQ_clean_linker_1, # of connection points: 2
#     Edge 54, Type (0, 0), BuildingBlock: KIFKEQ_clean_linker_1, # of connection points: 2
#     Edge 55, Type (0, 0), BuildingBlock: KIFKEQ_clean_linker_1, # of connection points: 2
#     Edge 56, Type (0, 0), BuildingBlock: KIFKEQ_clean_linker_1, # of connection points: 2
#     Edge 57, Type (0, 0), BuildingBlock: KIFKEQ_clean_linker_1, # of connection points: 2
#     Edge 58, Type (0, 0), BuildingBlock: KIFKEQ_clean_linker_1, # of connection points: 2
#     Edge 59, Type (0, 0), BuildingBlock: KIFKEQ_clean_linker_1, # of connection points: 2
#     Edge 60, Type (0, 0), BuildingBlock: KIFKEQ_clean_linker_1, # of connection points: 2
#     Edge 61, Type (0, 0), BuildingBlock: KIFKEQ_clean_linker_1, # of connection points: 2
#     Edge 62, Type (0, 0), BuildingBlock: KIFKEQ_clean_linker_1, # of connection points: 2
#     Edge 63, Type (0, 0), BuildingBlock: KIFKEQ_clean_linker_1, # of connection points: 2
#     Edge 64, Type (0, 0), BuildingBlock: KIFKEQ_clean_linker_1, # of connection points: 2
#     Edge 65, Type (0, 0), BuildingBlock: KIFKEQ_clean_linker_1, # of connection points: 2
#     Edge 66, Type (0, 0), BuildingBlock: KIFKEQ_clean_linker_1, # of connection points: 2
#     Edge 67, Type (0, 0), BuildingBlock: KIFKEQ_clean_linker_1, # of connection points: 2
#     Edge 68, Type (0, 0), BuildingBlock: KIFKEQ_clean_linker_1, # of connection points: 2
#     Edge 69, Type (0, 0), BuildingBlock: KIFKEQ_clean_linker_1, # of connection points: 2
#     Edge 70, Type (0, 0), BuildingBlock: KIFKEQ_clean_linker_1, # of connection points: 2
#     Edge 71, Type (0, 0), BuildingBlock: KIFKEQ_clean_linker_1, # of connection points: 2
# Relax obj value: 0.349
# Max RMSD: 0.250
# Mean RMSD: 0.250
data_MOF--net-xff--node1-HICVOG_clean_sbu_0--edge1-KIFKEQ_clean_linker_1
_symmetry_space_group_name_H-M    P1
_symmetry_Int_Tables_number       1
_symmetry_cell_setting            triclinic
loop_
_symmetry_equiv_pos_as_xyz
'x, y, z'
_cell_length_a     29.415594
_cell_length_b     29.397647
_cell_length_c     69.311953
_cell_angle_alpha  89.883763
_cell_angle_beta   89.990072
_cell_angle_gamma 89.987665
loop_
_atom_site_label
_atom_site_type_symbol
_atom_site_fract_x
_atom_site_fract_y
_atom_site_fract_z
_atom_type_partial_charge
Zn0 Zn 0.21498 0.09966 0.04377 0.0
C1 C 0.24512 0.21227 0.01292 0.0
N2 N 0.22793 0.23189 0.02884 0.0
C3 C 0.22003 0.19622 0.04036 0.0
N4 N 0.23221 0.1567 0.03212 0.0
N5 N 0.24837 0.1663 0.01475 0.0
C6 C 0.23753 0.13865 0.96264 0.0
O7 O 0.20059 0.13668 0.97327 0.0
O8 O 0.2406 0.09451 0.07064 0.0
Zn9 Zn 0.28064 0.12198 -0.00098 0.0
N10 N 0.14968 0.10287 0.04525 0.0
C11 C 0.07957 0.11619 0.02912 0.0
C12 C 0.1265 0.10971 0.02855 0.0
C13 C 0.12795 0.10208 0.06254 0.0
N14 N 0.05773 0.11543 0.04638 0.0
C15 C 0.08055 0.10825 0.0632 0.0
O16 O 0.26292 0.05466 0.00152 0.0
C17 C 0.247 1.02717 0.01406 0.0
O18 O 0.23073 0.04152 0.02991 0.0
H19 H 0.14459 0.11097 0.01497 0.0
H20 H 0.14768 0.09798 0.0756 0.0
C21 C 0.37271 0.15522 -0.00011 0.0
C22 C 0.41825 0.15498 0.00623 0.0
C23 C 0.40219 0.0898 0.02547 0.0
C24 C 0.35727 0.09063 0.01931 0.0
N25 N 0.34343 0.12325 0.00671 0.0
N26 N 0.43138 0.1219 0.01886 0.0
H27 H 0.36024 0.17991 0.98962 0.0
C28 C 0.28289 0.09871 0.07395 0.0
O29 O 0.31054 0.10774 0.05957 0.0
O30 O 0.27608 0.13643 0.97085 0.0
H31 H 0.33353 0.06553 0.02461 0.0
H32 H 0.06066 0.12204 0.01596 0.0
H33 H 0.41378 0.06409 0.03551 0.0
Zn34 Zn 0.71892 0.46477 0.2926 0.0
C35 C 0.60688 0.49397 0.26122 0.0
N36 N 0.58712 0.47507 0.27677 0.0
C37 C 0.62245 0.46733 0.28845 0.0
N38 N 0.662 0.481 0.28058 0.0
N39 N 0.65264 0.49827 0.26336 0.0
C40 C 0.69446 0.48531 0.21211 0.0
O41 O 0.70804 0.45256 0.22369 0.0
O42 O 0.72082 0.48959 0.31955 0.0
Zn43 Zn 0.69647 0.53163 0.24766 0.0
N44 N 0.71771 0.39935 0.29393 0.0
C45 C 0.71991 0.32875 0.27734 0.0
C46 C 0.72316 0.37601 0.27721 0.0
C47 C 0.70875 0.37754 0.31082 0.0
N48 N 0.71106 0.30683 0.29418 0.0
C49 C 0.70504 0.32977 0.31106 0.0
O50 O 0.76425 0.51605 0.25109 0.0
C51 C 0.79174 0.5 0.2636 0.0
O52 O 0.77732 0.48243 0.27922 0.0
H53 H 0.72959 0.39415 0.26389 0.0
H54 H 0.705 0.39745 0.32381 0.0
C55 C 0.65915 0.62316 0.24784 0.0
C56 C 0.65832 0.66902 0.25383 0.0
C57 C 0.72503 0.65576 0.27242 0.0
C58 C 0.72526 0.61057 0.26665 0.0
N59 N 0.69248 0.59512 0.25451 0.0
N60 N 0.69169 0.68367 0.26597 0.0
H61 H 0.63419 0.60963 0.23797 0.0
C62 C 0.73183 0.53055 0.323 0.0
O63 O 0.74348 0.55721 0.3086 0.0
O64 O 0.68395 0.52358 0.21936 0.0
H65 H 0.75147 0.58793 0.27182 0.0
H66 H 0.72424 0.30959 0.26416 0.0
H67 H 0.75093 0.66856 0.28206 0.0
Zn68 Zn 0.34306 0.96742 0.54599 0.0
C69 C 0.31636 0.85322 0.51563 0.0
N70 N 0.33129 0.83378 0.53199 0.0
C71 C 0.33817 0.86952 0.54354 0.0
N72 N 0.32751 0.90916 0.53481 0.0
N73 N 0.31343 0.89924 0.51714 0.0
C74 C 0.32736 0.93982 0.46469 0.0
O75 O 0.3598 0.95552 0.47588 0.0
O76 O 0.31581 0.97421 0.57248 0.0
Zn77 Zn 0.28192 0.94241 0.50044 0.0
N78 N 0.4084 0.96654 0.54745 0.0
C79 C 0.47808 0.96778 0.53012 0.0
C80 C 0.43088 0.97082 0.53043 0.0
C81 C 0.43106 0.95911 0.56425 0.0
N82 N 0.50085 0.96016 0.54684 0.0
C83 C 0.47884 0.95537 0.56402 0.0
O84 O 0.29753 1.0103 0.50272 0.0
C85 C 0.31189 0.03851 0.51525 0.0
O86 O 0.32704 1.0249 0.53143 0.0
H87 H 0.41206 0.97613 0.51721 0.0
H88 H 0.41184 0.9563 0.57749 0.0
C89 C 0.18976 0.90854 0.49943 0.0
C90 C 0.14399 0.90765 0.50548 0.0
C91 C 0.15905 0.96983 0.52646 0.0
C92 C 0.20423 0.97 0.52064 0.0
N93 N 0.21862 0.93957 0.50725 0.0
N94 N 0.13024 0.93873 0.51884 0.0
H95 H 0.2027 0.88533 0.48869 0.0
C96 C 0.27504 0.96261 0.57604 0.0
O97 O 0.25019 0.94416 0.56241 0.0
O98 O 0.29 0.92769 0.47234 0.0
H99 H 0.22779 0.99409 0.52683 0.0
H100 H 0.49653 0.97118 0.51669 0.0
H101 H 0.147 0.99388 0.53709 0.0
Zn102 Zn 0.85434 0.58486 0.79162 0.0
C103 C 0.9645 0.53808 0.76226 0.0
N104 N 0.98249 0.53936 0.78004 0.0
C105 C 0.94734 0.55271 0.79086 0.0
N106 N 0.90934 0.55936 0.78041 0.0
N107 N 0.91958 0.54923 0.76226 0.0
C108 C 0.85563 0.61208 0.714 0.0
O109 O 0.82193 0.62129 0.72579 0.0
O110 O 0.84832 0.56076 0.81868 0.0
Zn111 Zn 0.8747 0.54138 0.74168 0.0
N112 N 0.86132 0.65023 0.79264 0.0
C113 C 0.88496 0.71891 0.7775 0.0
C114 C 0.87746 0.67211 0.77678 0.0
C115 C 0.85197 0.67324 0.80918 0.0
N116 N 0.8759 0.74193 0.79403 0.0
C117 C 0.85929 0.72056 0.81 0.0
O118 O 0.80729 0.54454 0.74938 0.0
C119 C 0.77992 0.55498 0.76293 0.0
O120 O 0.79451 0.57013 0.77891 0.0
H121 H 0.88493 0.65317 0.7638 0.0
H122 H 0.84024 0.65446 0.82165 0.0
C123 C 0.90808 0.44857 0.73771 0.0
C124 C 0.91052 0.40606 0.72838 0.0
C125 C 0.85491 0.43148 0.7059 0.0
C126 C 0.85328 0.47355 0.71503 0.0
N127 N 0.88001 0.48135 0.73065 0.0
N128 N 0.88356 0.39902 0.71268 0.0
H129 H 0.92853 0.45616 0.75016 0.0
C130 C 0.85168 0.51831 0.82192 0.0
O131 O 0.85925 0.49055 0.80743 0.0
O132 O 0.88546 0.58326 0.71917 0.0
H133 H 0.83095 0.50001 0.70973 0.0
H134 H 0.89809 0.73681 0.76504 0.0
H135 H 0.8339 0.42475 0.69342 0.0
Zn136 Zn 0.79042 0.93641 0.9874 0.0
C137 C 0.80218 0.86325 0.93818 0.0
N138 N 0.78989 0.82794 0.94918 0.0
C139 C 0.78841 0.84613 0.96693 0.0
N140 N 0.7987 0.89128 0.96678 0.0
N141 N 0.80827 0.9015 0.94855 0.0
C142 C 0.77 0.96035 0.90697 0.0
O143 O 0.74186 0.95227 0.92129 0.0
O144 O 0.82713 0.92317 0.01135 0.0
Zn145 Zn 0.83575 0.95563 0.93748 0.0
N146 N 0.72814 0.93578 -0.00363 0.0
C147 C 0.67357 0.97283 0.01619 0.0
C148 C 0.71729 0.97012 0.00862 0.0
C149 C 0.6969 0.90389 0.99131 0.0
N150 N 0.64249 0.94078 0.01133 0.0
C151 C 0.65263 0.90608 -0.00094 0.0
O152 O 0.82384 1.01617 0.95037 0.0
C153 C 0.81034 1.03094 0.96661 0.0
O154 O 0.79907 1.00357 0.98005 0.0
H155 H 0.74264 0.99511 0.01253 0.0
H156 H 0.70686 0.87697 0.98171 0.0
C157 C 0.92388 0.94877 0.91985 0.0
C158 C 0.97011 0.93649 0.9192 0.0
C159 C 0.96694 0.91765 0.95251 0.0
C160 C 0.92112 0.92977 0.95303 0.0
N161 N 0.90049 0.94482 0.93669 0.0
N162 N 0.99024 0.92102 0.93564 0.0
H163 H 0.90605 0.95965 0.90699 0.0
C164 C 0.85729 0.95081 0.01727 0.0
O165 O 0.87094 0.98349 0.00569 0.0
O166 O 0.81239 0.96294 0.91036 0.0
H167 H 0.90179 0.92637 0.96624 0.0
H168 H 0.66444 0.99997 0.02597 0.0
H169 H 0.98377 0.90523 0.96535 0.0
Zn170 Zn 0.35529 0.58369 0.69006 0.0
C171 C 0.46428 0.53463 0.71957 0.0
N172 N 0.48216 0.53482 0.70175 0.0
C173 C 0.4472 0.54846 0.69086 0.0
N174 N 0.40945 0.55639 0.70131 0.0
N175 N 0.41962 0.54681 0.71953 0.0
C176 C 0.35599 0.61104 0.76792 0.0
O177 O 0.32193 0.62016 0.75628 0.0
O178 O 0.34885 0.56082 0.66279 0.0
Zn179 Zn 0.37455 0.54048 0.74018 0.0
N180 N 0.36456 0.64882 0.68939 0.0
C181 C 0.3891 0.71608 0.70528 0.0
C182 C 0.37876 0.6698 0.70575 0.0
C183 C 0.35979 0.67227 0.67256 0.0
N184 N 0.38489 0.73947 0.68844 0.0
C185 C 0.37029 0.719 0.67196 0.0
O186 O 0.30737 0.54462 0.7323 0.0
C187 C 0.28015 0.55525 0.71871 0.0
O188 O 0.29495 0.57005 0.70266 0.0
H189 H 0.38272 0.65047 0.71894 0.0
H190 H 0.34961 0.65418 0.6597 0.0
C191 C 0.40637 0.44733 0.74463 0.0
C192 C 0.40795 0.40482 0.75405 0.0
C193 C 0.35216 0.43107 0.77623 0.0
C194 C 0.35134 0.47314 0.76699 0.0
N195 N 0.37857 0.48052 0.75148 0.0
N196 N 0.38052 0.39818 0.76965 0.0
H197 H 0.42732 0.45459 0.73228 0.0
C198 C 0.35105 0.51849 0.65919 0.0
O199 O 0.35771 0.4897 0.67344 0.0
O200 O 0.38586 0.58245 0.76259 0.0
H201 H 0.32924 0.49993 0.77214 0.0
H202 H 0.40078 0.73324 0.71815 0.0
H203 H 0.33074 0.42469 0.78863 0.0
Zn204 Zn 0.77911 0.12368 0.4831 0.0
C205 C 0.71336 0.19671 0.44236 0.0
N206 N 0.72043 0.23235 0.45393 0.0
C207 C 0.7399 0.21315 0.46949 0.0
N208 N 0.74533 0.16745 0.46741 0.0
N209 N 0.72812 0.15757 0.45026 0.0
C210 C 0.78194 0.09687 0.40914 0.0
O211 O 0.80919 0.10358 0.42388 0.0
O212 O 0.774 0.13721 0.51138 0.0
Zn213 Zn 0.71259 0.1001 0.43853 0.0
N214 N 0.84252 0.1259 0.47588 0.0
C215 C 0.90531 0.08778 0.46149 0.0
C216 C 0.85921 0.08978 0.46589 0.0
C217 C 0.87007 0.16071 0.48136 0.0
N218 N 0.93294 0.12218 0.46711 0.0
C219 C 0.91665 0.15887 0.47686 0.0
O220 O 0.72928 0.04253 0.45256 0.0
C221 C 0.74622 1.02838 0.46832 0.0
O222 O 0.76228 0.05605 0.48071 0.0
H223 H 0.83702 0.06241 0.46154 0.0
H224 H 0.85605 0.18878 0.48949 0.0
C225 C 0.62564 0.10799 0.41964 0.0
C226 C 0.57785 0.11141 0.41926 0.0
C227 C 0.57647 0.09999 0.45324 0.0
C228 C 0.6237 0.09707 0.4535 0.0
N229 N 0.64725 0.10098 0.43673 0.0
N230 N 0.55476 0.10701 0.43621 0.0
H231 H 0.64574 0.11052 0.40663 0.0
C232 C 0.73564 0.13751 0.5198 0.0
O233 O 0.69847 0.13453 0.50937 0.0
O234 O 0.73928 0.09505 0.41196 0.0
H235 H 0.64167 0.09212 0.46696 0.0
H236 H 0.9191 0.05908 0.45369 0.0
H237 H 0.55716 0.09688 0.46646 0.0
Zn238 Zn 0.22005 0.46794 0.18925 0.0
C239 C 0.1075 0.49205 0.22107 0.0
N240 N 0.08813 0.47354 0.20538 0.0
C241 C 0.12355 0.46715 0.19359 0.0
N242 N 0.16272 0.48156 0.20149 0.0
N243 N 0.15311 0.49769 0.21886 0.0
C244 C 0.18032 0.49109 0.27127 0.0
O245 O 0.18087 0.45329 0.26119 0.0
O246 O 0.22276 0.49405 0.16236 0.0
Zn247 Zn 0.19636 0.53272 0.23413 0.0
N248 N 0.22143 0.40253 0.18781 0.0
C249 C 0.22661 0.33229 0.20469 0.0
C250 C 0.2275 0.37965 0.20465 0.0
C251 C 0.21416 0.38013 0.17095 0.0
N252 N 0.21934 0.30979 0.1879 0.0
C253 C 0.21273 0.33222 0.17091 0.0
O254 O 0.26428 0.51743 0.23147 0.0
C255 C 0.2919 0.5028 0.21872 0.0
O256 O 0.27765 0.48639 0.20289 0.0
H257 H 0.23267 0.39822 0.21793 0.0
H258 H 0.20988 0.39965 0.15784 0.0
C259 C 0.15877 0.62325 0.23264 0.0
C260 C 0.15676 0.66854 0.22595 0.0
C261 C 0.22225 0.65479 0.20667 0.0
C262 C 0.22365 0.61008 0.21317 0.0
N263 N 0.19196 0.59519 0.22595 0.0
N264 N 0.18895 0.68273 0.21313 0.0
H265 H 0.13487 0.61014 0.24309 0.0
C266 C 0.21594 0.53603 0.15903 0.0
O267 O 0.20538 0.56308 0.1734 0.0
O268 O 0.18316 0.52898 0.2625 0.0
H269 H 0.24974 0.58733 0.20798 0.0
H270 H 0.23149 0.31352 0.21797 0.0
H271 H 0.2472 0.66718 0.19646 0.0
Zn272 Zn 0.71327 0.60077 0.54247 0.0
C273 C 0.74189 0.71331 0.51134 0.0
N274 N 0.72512 0.73304 0.5273 0.0
C275 C 0.71726 0.69748 0.53888 0.0
N276 N 0.72912 0.65788 0.53059 0.0
N277 N 0.74512 0.6674 0.51319 0.0
C278 C 0.73231 0.62546 0.46194 0.0
O279 O 0.69984 0.61084 0.47341 0.0
O280 O 0.73607 0.60072 0.56981 0.0
Zn281 Zn 0.77796 0.62367 0.49749 0.0
N282 N 0.64785 0.6008 0.54302 0.0
C283 C 0.57777 0.61369 0.5268 0.0
C284 C 0.6251 0.61105 0.52652 0.0
C285 C 0.62534 0.59284 0.55979 0.0
N286 N 0.55514 0.60569 0.54355 0.0
C287 C 0.57758 0.59495 0.56013 0.0
O288 O 0.76251 0.55591 0.50079 0.0
C289 C 0.74835 0.5281 0.5136 0.0
O290 O 0.73227 0.54216 0.52954 0.0
H291 H 0.64371 0.61769 0.51335 0.0
H292 H 0.6447 0.58599 0.57273 0.0
C293 C 0.86975 0.65941 0.49718 0.0
C294 C 0.91544 0.66035 0.50334 0.0
C295 C 0.90092 0.5964 0.5235 0.0
C296 C 0.85584 0.59611 0.51757 0.0
N297 N 0.84117 0.62741 0.50454 0.0
N298 N 0.92942 0.62842 0.51633 0.0
H299 H 0.85675 0.6833 0.48668 0.0
C300 C 0.77801 0.60454 0.57387 0.0
O301 O 0.80777 0.60711 0.55978 0.0
O302 O 0.7702 0.63681 0.4693 0.0
H303 H 0.83264 0.57114 0.52338 0.0
H304 H 0.55914 0.62214 0.51382 0.0
H305 H 0.91316 0.57166 0.53384 0.0
Zn306 Zn 0.19159 0.03833 0.75135 0.0
C307 C 0.11986 0.96748 0.79086 0.0
N308 N 0.0843 0.97397 0.77915 0.0
C309 C 0.1031 0.99434 0.76372 0.0
N310 N 0.14863 1.0009 0.76599 0.0
N311 N 0.15871 0.98344 0.78312 0.0
C312 C 0.21135 0.03836 0.82499 0.0
O313 O 0.19846 0.06443 0.8106 0.0
O314 O 0.18013 0.03722 0.72281 0.0
Zn315 Zn 0.21675 0.97026 0.79512 0.0
N316 N 0.18632 0.09982 0.76075 0.0
C317 C 0.21599 0.15763 0.78107 0.0
C318 C 0.21867 0.11415 0.77333 0.0
C319 C 0.15151 0.12747 0.75532 0.0
N320 N 0.18108 0.18511 0.77586 0.0
C321 C 0.14838 0.17162 0.76317 0.0
O322 O 0.27447 0.98855 0.78123 0.0
C323 C 0.28796 1.00666 0.76558 0.0
O324 O 0.25964 1.02313 0.75352 0.0
H325 H 0.24609 0.09176 0.7775 0.0
H326 H 0.12733 0.11497 0.74489 0.0
C327 C 0.21091 0.8826 0.81374 0.0
C328 C 0.21043 0.83468 0.81397 0.0
C329 C 0.2258 0.83455 0.7803 0.0
C330 C 0.22585 0.88191 0.78016 0.0
N331 N 0.2186 0.9049 0.79684 0.0
N332 N 0.21822 0.81214 0.79713 0.0
H333 H 0.20569 0.90218 0.82674 0.0
C334 C 0.17104 1.00121 0.71347 0.0
O335 O 0.1629 0.96328 0.72289 0.0
O336 O 0.21999 0.99669 0.82183 0.0
H337 H 0.23138 0.90039 0.76685 0.0
H338 H 0.24131 0.16945 0.7912 0.0
H339 H 0.23165 0.81569 0.76715 0.0
Zn340 Zn 0.7871 0.4363 -0.00305 0.0
C341 C 0.84801 0.3629 0.03835 0.0
N342 N 0.84083 0.32703 0.0269 0.0
C343 C 0.82387 0.34625 0.01082 0.0
N344 N 0.81993 0.3922 0.01251 0.0
N345 N 0.83567 0.40214 0.02989 0.0
C346 C 0.78593 0.47532 0.07248 0.0
O347 O 0.76053 0.49083 0.05836 0.0
O348 O 0.79143 0.42288 0.96871 0.0
Zn349 Zn 0.85191 0.45899 0.04191 0.0
N350 N 0.72434 0.43446 0.00475 0.0
C351 C 0.66539 0.4683 0.02324 0.0
C352 C 0.71023 0.46763 0.01699 0.0
C353 C 0.69533 0.40179 -0.00163 0.0
N354 N 0.63648 0.43555 0.01707 0.0
C355 C 0.64984 0.40195 0.00479 0.0
O356 O 0.83661 0.51794 0.02815 0.0
C357 C 0.82045 0.53153 0.01212 0.0
O358 O 0.80468 0.50344 -0.00019 0.0
H359 H 0.73362 0.49346 0.02182 0.0
H360 H 0.7079 0.37668 0.98835 0.0
C361 C 0.93764 0.45543 0.06159 0.0
C362 C 0.98478 0.4481 0.06281 0.0
C363 C 0.98806 0.44155 0.02872 0.0
C364 C 0.94133 0.44903 0.0276 0.0
N365 N 0.91711 0.45567 0.04404 0.0
N366 N 1.00866 0.44108 0.04625 0.0
H367 H 0.91716 0.45945 0.07444 0.0
C368 C 0.82971 0.42038 0.96031 0.0
O369 O 0.86699 0.42127 0.97074 0.0
O370 O 0.82568 0.46088 0.06877 0.0
H371 H 0.92418 0.4485 0.01379 0.0
H372 H 0.65362 0.49447 0.03298 0.0
H373 H 1.00778 0.43579 0.01578 0.0
Zn374 Zn 0.3662 1.03107 0.2494 0.0
C375 C 0.43893 0.10071 0.28881 0.0
N376 N 0.47405 0.09475 0.27682 0.0
C377 C 0.4547 0.07417 0.26159 0.0
N378 N 0.40937 0.06722 0.26425 0.0
N379 N 0.39988 0.08445 0.28144 0.0
C380 C 0.32588 0.03406 0.32519 0.0
O381 O 0.30787 1.00924 0.31145 0.0
O382 O 0.37796 0.03532 0.22093 0.0
Zn383 Zn 0.34261 0.09818 0.29394 0.0
N384 N 0.37203 0.96871 0.25765 0.0
C385 C 0.34348 0.90992 0.27784 0.0
C386 C 0.34166 0.9544 0.2711 0.0
C387 C 0.40432 0.94022 0.25048 0.0
N388 N 0.37582 0.88153 0.27088 0.0
C389 C 0.40667 0.89506 0.25735 0.0
O390 O 0.28442 0.0793 0.2806 0.0
C391 C 0.27031 0.06128 0.26505 0.0
O392 O 0.2981 0.04549 0.25261 0.0
H393 H 0.31606 0.9774 0.27648 0.0
H394 H 0.42718 0.95284 0.23951 0.0
C395 C 0.35063 0.186 0.31202 0.0
C396 C 0.35257 0.23391 0.31204 0.0
C397 C 0.33578 0.2339 0.27847 0.0
C398 C 0.33428 0.18657 0.27856 0.0
N399 N 0.34154 0.16365 0.2953 0.0
N400 N 0.34477 0.25635 0.29513 0.0
H401 H 0.35587 0.1664 0.32504 0.0
C402 C 0.38029 0.07361 0.21245 0.0
O403 O 0.38013 0.11093 0.22285 0.0
O404 O 0.34186 0.07304 0.32105 0.0
H405 H 0.32779 0.16804 0.26537 0.0
H406 H 0.31952 0.89801 0.28855 0.0
H407 H 0.33 0.25272 0.26527 0.0
Zn408 Zn 0.28405 0.44308 0.48355 0.0
C409 C 0.34913 0.37158 0.44227 0.0
N410 N 0.34243 0.33555 0.45374 0.0
C411 C 0.32324 0.35415 0.46946 0.0
N412 N 0.31763 0.39992 0.46758 0.0
N413 N 0.33443 0.41045 0.4504 0.0
C414 C 0.27936 0.47132 0.40954 0.0
O415 O 0.25233 0.46355 0.42427 0.0
O416 O 0.2896 0.4285 0.51173 0.0
Zn417 Zn 0.34925 0.46861 0.43884 0.0
N418 N 0.22054 0.44107 0.47649 0.0
C419 C 0.15747 0.47972 0.46252 0.0
C420 C 0.20365 0.47761 0.46679 0.0
C421 C 0.19314 0.40595 0.48181 0.0
N422 N 0.12999 0.44501 0.468 0.0
C423 C 0.1465 0.4079 0.47745 0.0
O424 O 0.33287 0.52597 0.45327 0.0
C425 C 0.31648 0.53923 0.46926 0.0
O426 O 0.30085 0.5108 0.4815 0.0
H427 H 0.22572 0.50521 0.46255 0.0
H428 H 0.20735 0.37751 0.4897 0.0
C429 C 0.43604 0.46127 0.41962 0.0
C430 C 0.48388 0.45841 0.41913 0.0
C431 C 0.4856 0.47004 0.45306 0.0
C432 C 0.43834 0.47244 0.45344 0.0
N433 N 0.41459 0.46817 0.43675 0.0
N434 N 0.50714 0.46317 0.436 0.0
H435 H 0.41581 0.45841 0.40666 0.0
C436 C 0.32812 0.42724 0.52001 0.0
O437 O 0.36514 0.42992 0.50946 0.0
O438 O 0.32197 0.4741 0.41233 0.0
H439 H 0.42052 0.47731 0.46694 0.0
H440 H 0.14351 0.50876 0.45496 0.0
H441 H 0.50505 0.47345 0.46622 0.0
Zn442 Zn 0.86479 1.02859 0.23435 0.0
C443 C 0.94036 0.0898 0.1937 0.0
N444 N 0.97553 0.08245 0.20552 0.0
C445 C 0.95545 0.06573 0.22144 0.0
N446 N 0.90961 0.0619 0.21929 0.0
N447 N 0.90066 0.07759 0.20178 0.0
C448 C 0.85017 1.02684 0.15788 0.0
O449 O 0.85171 0.99699 0.17199 0.0
O450 O 0.87692 0.0327 0.26274 0.0
Zn451 Zn 0.84443 0.09307 0.1891 0.0
N452 N 0.868 0.96589 0.22648 0.0
C453 C 0.8369 0.90663 0.20734 0.0
C454 C 0.83617 0.95141 0.2137 0.0
C455 C 0.90081 0.9374 0.23323 0.0
N456 N 0.86983 0.87827 0.21386 0.0
C457 C 0.90224 0.89208 0.22663 0.0
O458 O 0.78487 0.07588 0.20197 0.0
C459 C 0.77018 0.06035 0.21796 0.0
O460 O 0.79746 0.0457 0.23087 0.0
H461 H 0.81049 0.97452 0.2084 0.0
H462 H 0.92494 0.95031 0.2436 0.0
C463 C 0.84634 0.18029 0.17039 0.0
C464 C 0.85368 0.2275 0.16972 0.0
C465 C 0.85961 0.22858 0.20385 0.0
C466 C 0.85249 0.1817 0.20443 0.0
N467 N 0.84627 0.15852 0.1877 0.0
N468 N 0.86037 0.25033 0.18655 0.0
H469 H 0.84263 0.16071 0.15728 0.0
C470 C 0.88129 0.07072 0.27121 0.0
O471 O 0.88272 0.10815 0.26084 0.0
O472 O 0.84605 0.06881 0.16189 0.0
H473 H 0.8531 0.16361 0.21804 0.0
H474 H 0.81179 0.89455 0.19717 0.0
H475 H 0.86509 0.24746 0.21703 0.0
Zn476 Zn 0.28265 0.62282 0.98385 0.0
C477 C 0.21291 0.69591 0.94466 0.0
N478 N 0.21932 0.73107 0.95655 0.0
C479 C 0.23921 0.71153 0.97194 0.0
N480 N 0.24574 0.66613 0.96942 0.0
N481 N 0.22855 0.65677 0.95223 0.0
C482 C 0.27978 0.60441 0.90829 0.0
O483 O 0.3098 0.60639 0.92227 0.0
O484 O 0.28028 0.6348 0.01236 0.0
Zn485 Zn 0.21466 0.59978 0.93985 0.0
N486 N 0.3444 0.62785 0.97456 0.0
C487 C 0.40175 0.59687 0.95429 0.0
C488 C 0.35804 0.59545 0.96186 0.0
C489 C 0.37291 0.66186 0.9801 0.0
N490 N 0.43016 0.63077 0.95971 0.0
C491 C 0.41728 0.66367 0.9724 0.0
O492 O 0.23431 0.5413 0.95281 0.0
C493 C 0.25171 0.52714 0.96851 0.0
O494 O 0.26708 0.55489 0.98106 0.0
H495 H 0.33504 0.56875 0.95753 0.0
H496 H 0.36109 0.68646 0.99053 0.0
C497 C 0.12707 0.59242 0.92201 0.0
C498 C 0.07927 0.59385 0.92158 0.0
C499 C 0.07871 0.60831 0.95526 0.0
C500 C 0.12606 0.60631 0.95562 0.0
N501 N 0.14921 0.59849 0.939 0.0
N502 N 0.05645 0.60212 0.93831 0.0
H503 H 0.1467 0.58757 0.90898 0.0
C504 C 0.24207 0.63676 0.02089 0.0
O505 O 0.2047 0.63624 0.01051 0.0
O506 O 0.23788 0.60083 0.91249 0.0
H507 H 0.14438 0.61158 0.96896 0.0
H508 H 0.41303 0.57134 0.94414 0.0
H509 H 0.05977 0.61484 0.96835 0.0
Zn510 Zn 0.71763 0.97028 0.68851 0.0
C511 C 0.60364 0.99209 0.72005 0.0
N512 N 0.58529 0.97019 0.70493 0.0
C513 C 0.62091 0.96432 0.6932 0.0
N514 N 0.65931 0.98208 0.70058 0.0
N515 N 0.64887 1.00001 0.71755 0.0
C516 C 0.67439 0.99627 0.76885 0.0
O517 O 0.6754 0.95934 0.7582 0.0
O518 O 0.72137 0.99683 0.66167 0.0
Zn519 Zn 0.69087 0.03778 0.73232 0.0
N520 N 0.72083 0.90495 0.68677 0.0
C521 C 0.73053 0.83469 0.70327 0.0
C522 C 0.72917 0.88203 0.70342 0.0
C523 C 0.71327 0.88256 0.66992 0.0
N524 N 0.7233 0.81221 0.68647 0.0
C525 C 0.71439 0.83466 0.66968 0.0
O526 O 0.75924 1.02328 0.7305 0.0
C527 C 0.78773 1.00737 0.71839 0.0
O528 O 0.77447 0.9894 0.70271 0.0
H529 H 0.73455 0.90054 0.7167 0.0
H530 H 0.70708 0.90206 0.65693 0.0
C531 C 0.64999 0.1267 0.72836 0.0
C532 C 0.64684 0.171 0.7206 0.0
C533 C 0.71522 0.15794 0.70312 0.0
C534 C 0.71793 0.11432 0.71078 0.0
N535 N 0.68521 0.09943 0.72309 0.0
N536 N 0.67992 0.18503 0.70817 0.0
H537 H 0.62553 0.11377 0.7386 0.0
C538 C 0.71524 0.03892 0.65833 0.0
O539 O 0.70446 0.06598 0.67265 0.0
O540 O 0.67704 0.03485 0.76063 0.0
H541 H 0.74572 0.09226 0.70676 0.0
H542 H 0.73729 0.8159 0.7164 0.0
H543 H 0.74085 0.17019 0.6932 0.0
H544 H 0.16591 0.3566 0.13781 0.0
H545 H 0.24285 0.24654 0.16338 0.0
H546 H 0.16078 0.31424 0.1078 0.0
H547 H 0.23675 0.20386 0.1334 0.0
H548 H 0.28214 0.19374 0.06843 0.0
H549 H 0.27329 0.2184 0.1017 0.0
H550 H 0.13073 0.24433 0.09131 0.0
H551 H 0.1399 0.21791 0.05787 0.0
C552 C 0.18165 0.32342 0.13712 0.0
C553 C 0.20586 0.30558 0.15294 0.0
C554 C 0.178 0.29876 0.11997 0.0
C555 C 0.19856 0.25581 0.11822 0.0
C556 C 0.2209 0.23707 0.13429 0.0
C557 C 0.22431 0.26157 0.15146 0.0
C558 C 0.24848 0.20236 0.0736 0.0
C559 C 0.21132 0.20219 0.061 0.0
C560 C 0.24342 0.21696 0.09258 0.0
C561 C 0.20126 0.23319 0.09915 0.0
C562 C 0.16361 0.232 0.08661 0.0
C563 C 0.16868 0.21667 0.06761 0.0
H564 H 0.4561 0.41693 0.38519 0.0
H565 H 0.57124 0.48364 0.41173 0.0
H566 H 0.49759 0.41248 0.35497 0.0
H567 H 0.61328 0.47743 0.38163 0.0
H568 H 0.63413 0.52491 0.31796 0.0
H569 H 0.60641 0.51602 0.35083 0.0
H570 H 0.56166 0.37964 0.33741 0.0
H571 H 0.58977 0.38916 0.30429 0.0
C572 C 0.49017 0.43069 0.38467 0.0
C573 C 0.5097 0.4519 0.40087 0.0
C574 C 0.51435 0.42731 0.36736 0.0
C575 C 0.55868 0.44489 0.36583 0.0
C576 C 0.57896 0.46414 0.38225 0.0
C577 C 0.55483 0.46752 0.39954 0.0
C578 C 0.62037 0.49232 0.32236 0.0
C579 C 0.6156 0.45709 0.30895 0.0
C580 C 0.60408 0.48727 0.34113 0.0
C581 C 0.58186 0.44705 0.34679 0.0
C582 C 0.57836 0.41114 0.33346 0.0
C583 C 0.59483 0.41629 0.31463 0.0
H584 H 0.27337 0.86072 0.57037 0.0
H585 H 0.41849 0.85668 0.56242 0.0
H586 H 0.28186 0.83063 0.60293 0.0
H587 H 0.42737 0.8246 0.59495 0.0
H588 H 0.42282 0.79095 0.66065 0.0
H589 H 0.41662 0.83601 0.63099 0.0
H590 H 0.30311 0.75326 0.61294 0.0
H591 H 0.30865 0.70905 0.64249 0.0
C592 C 0.30729 0.85544 0.576 0.0
C593 C 0.34541 0.86309 0.56432 0.0
C594 C 0.31214 0.83717 0.59447 0.0
C595 C 0.35526 0.82489 0.60147 0.0
C596 C 0.39375 0.83423 0.59005 0.0
C597 C 0.38878 0.85279 0.57151 0.0
C598 C 0.39645 0.78253 0.65035 0.0
C599 C 0.36657 0.74603 0.65388 0.0
C600 C 0.39308 0.80821 0.63335 0.0
C601 C 0.35923 0.79839 0.61969 0.0
C602 C 0.32921 0.76211 0.6233 0.0
C603 C 0.33283 0.73626 0.64015 0.0
H604 H 0.99828 0.63213 0.91108 0.0
H605 H 0.10133 0.53833 0.89128 0.0
H606 H 0.95601 0.62074 0.88101 0.0
H607 H 0.06014 0.52814 0.86133 0.0
H608 H 0.96601 0.486 0.81599 0.0
H609 H 0.98979 0.49427 0.84951 0.0
H610 H 0.96654 0.63921 0.84583 0.0
H611 H 0.94179 0.63033 0.81225 0.0
C612 C 1.0119 0.60914 0.90034 0.0
C613 C 0.05354 0.58673 0.90345 0.0
C614 C 0.9878 0.60281 0.88313 0.0
C615 C 1.00462 0.57341 0.86886 0.0
C616 C 0.0459 0.55055 0.87215 0.0
C617 C 0.06999 0.55703 0.88922 0.0
C618 C 0.9648 0.51937 0.82259 0.0
C619 C 0.95161 0.55749 0.81181 0.0
C620 C 0.97866 0.52419 0.84168 0.0
C621 C 0.98081 0.56748 0.85018 0.0
C622 C 0.96492 0.60538 0.83971 0.0
C623 C 0.95055 0.60039 0.82056 0.0
H624 H 0.79396 0.70557 0.83775 0.0
H625 H 0.90301 0.7972 0.82231 0.0
H626 H 0.78062 0.74871 0.86702 0.0
H627 H 0.88864 0.84135 0.85156 0.0
H628 H 0.88364 0.85958 0.9197 0.0
H629 H 0.89713 0.83142 0.88697 0.0
H630 H 0.75206 0.82189 0.87797 0.0
H631 H 0.73913 0.8496 0.91072 0.0
C632 C 0.81532 0.73476 0.84061 0.0
C633 C 0.85014 0.74737 0.82777 0.0
C634 C 0.80712 0.76005 0.85729 0.0
C635 C 0.8334 0.79869 0.8616 0.0
C636 C 0.86795 0.81165 0.84871 0.0
C637 C 0.876 0.78644 0.83191 0.0
C638 C 0.85485 0.85344 0.91035 0.0
C639 C 0.81042 0.8578 0.91742 0.0
C640 C 0.86245 0.83688 0.89168 0.0
C641 C 0.82564 0.82381 0.87994 0.0
C642 C 0.78115 0.83084 0.88675 0.0
C643 C 0.77368 0.84715 0.90538 0.0
H644 H 0.44497 0.62714 0.67015 0.0
H645 H 0.46369 0.48229 0.66523 0.0
H646 H 0.46859 0.63687 0.63649 0.0
H647 H 0.48666 0.49142 0.63159 0.0
H648 H 0.59801 0.53509 0.5892 0.0
H649 H 0.5572 0.5233 0.61917 0.0
H650 H 0.4557 0.62105 0.60145 0.0
H651 H 0.49763 0.63401 0.57138 0.0
C652 C 0.45218 0.59734 0.66155 0.0
C653 C 0.45179 0.55399 0.66996 0.0
C654 C 0.46597 0.60279 0.64235 0.0
C655 C 0.48001 0.56491 0.63148 0.0
C656 C 0.47685 0.5213 0.63971 0.0
C657 C 0.46348 0.51599 0.65886 0.0
C658 C 0.56728 0.55448 0.59169 0.0
C659 C 0.55158 0.58621 0.57806 0.0
C660 C 0.54339 0.54711 0.60877 0.0
C661 C 0.50308 0.57111 0.61264 0.0
C662 C 0.48679 0.60226 0.59888 0.0
C663 C 0.51068 0.60949 0.58168 0.0
H664 H 0.63372 0.22492 0.42614 0.0
H665 H 0.77219 0.18878 0.41319 0.0
H666 H 0.62315 0.25073 0.39267 0.0
H667 H 0.76189 0.21275 0.3799 0.0
H668 H 0.7298 0.24239 0.31881 0.0
H669 H 0.72277 0.20094 0.3491 0.0
H670 H 0.65467 0.31624 0.37463 0.0
H671 H 0.66019 0.35721 0.34424 0.0
C672 C 0.66125 0.22094 0.41589 0.0
C673 C 0.70312 0.20295 0.42183 0.0
C674 C 0.65542 0.23596 0.39686 0.0
C675 C 0.69159 0.23346 0.38359 0.0
C676 C 0.73294 0.21403 0.38955 0.0
C677 C 0.73877 0.19965 0.40855 0.0
C678 C 0.71271 0.25877 0.33077 0.0
C679 C 0.69681 0.30375 0.32916 0.0
C680 C 0.70881 0.23498 0.34815 0.0
C681 C 0.68867 0.25548 0.36433 0.0
C682 C 0.67027 0.2994 0.36242 0.0
C683 C 0.67424 0.32327 0.34503 0.0
H684 H 0.05549 0.3939 0.07395 0.0
H685 H 0.96888 0.50286 0.09388 0.0
H686 H 0.0967 0.39544 0.10476 0.0
H687 H 1.0098 0.50428 0.12439 0.0
H688 H 0.11971 0.53226 0.16677 0.0
H689 H 0.09145 0.52545 0.13383 0.0
H690 H 0.07631 0.3805 0.14173 0.0
H691 H 0.10608 0.38754 0.17479 0.0
C692 C 0.04526 0.41806 0.0849 0.0
C693 C 1.00876 0.44802 0.08158 0.0
C694 C 0.06868 0.41878 0.10249 0.0
C695 C 0.05658 0.4502 0.11682 0.0
C696 C 1.0201 0.48004 0.11348 0.0
C697 C 0.99634 0.47886 0.09609 0.0
C698 C 0.11247 0.49872 0.16111 0.0
C699 C 0.11661 0.4602 0.1729 0.0
C700 C 0.09553 0.4949 0.14243 0.0
C701 C 0.08149 0.4525 0.13533 0.0
C702 C 0.08733 0.4135 0.14685 0.0
C703 C 0.10438 0.41743 0.16565 0.0
H704 H 0.75144 0.75258 0.66104 0.0
H705 H 0.66243 0.85587 0.63763 0.0
H706 H 0.74588 0.71016 0.63098 0.0
H707 H 0.65751 0.81356 0.60748 0.0
H708 H 0.63796 0.7128 0.55832 0.0
H709 H 0.63126 0.74029 0.59175 0.0
H710 H 0.77679 0.728 0.59849 0.0
H711 H 0.78307 0.70187 0.56529 0.0
C712 C 0.73031 0.76604 0.64958 0.0
C713 C 0.70813 0.80812 0.65166 0.0
C714 C 0.7272 0.7417 0.63236 0.0
C715 C 0.70139 0.75855 0.61688 0.0
C716 C 0.67741 0.79953 0.61922 0.0
C717 C 0.68085 0.82416 0.63642 0.0
C718 C 0.66808 0.71481 0.56727 0.0
C719 C 0.71084 0.70389 0.55965 0.0
C720 C 0.66439 0.73082 0.58625 0.0
C721 C 0.7035 0.73611 0.59775 0.0
C722 C 0.74596 0.72356 0.59016 0.0
C723 C 0.74959 0.70831 0.57121 0.0
H724 H 0.11714 1.03003 0.81875 0.0
H725 H 0.10007 0.88668 0.80839 0.0
H726 H 0.08761 1.02093 0.85135 0.0
H727 H 0.06825 0.87741 0.84097 0.0
H728 H 0.03817 0.87989 0.90727 0.0
H729 H 0.08295 0.88477 0.87748 0.0
H730 H 1.00757 1.00456 0.86075 0.0
H731 H 0.96348 1.00013 0.89037 0.0
C732 C 0.10915 0.99615 0.82386 0.0
C733 C 0.11281 0.95871 0.81149 0.0
C734 C 0.09117 0.99107 0.84234 0.0
C735 C 0.07526 0.94853 0.84865 0.0
C736 C 0.08063 0.91053 0.83655 0.0
C737 C 0.09891 0.91571 0.81799 0.0
C738 C 0.03133 0.90731 0.89722 0.0
C739 C 0.99694 0.93934 0.9011 0.0
C740 C 0.05681 0.90994 0.88017 0.0
C741 C 0.04894 0.94518 0.86688 0.0
C742 C 1.01481 0.97732 0.87085 0.0
C743 C 0.98908 0.97441 0.88772 0.0
H744 H 0.79807 0.21626 0.13861 0.0
H745 H 0.91174 0.29548 0.1592 0.0
H746 H 0.79987 0.25784 0.10812 0.0
H747 H 0.91376 0.33697 0.12839 0.0
H748 H 0.925 0.33866 0.05775 0.0
H749 H 0.92853 0.31145 0.09134 0.0
H750 H 0.7862 0.3432 0.09845 0.0
H751 H 0.78302 0.37052 0.06515 0.0
C752 C 0.82364 0.24234 0.13655 0.0
C753 C 0.85497 0.25246 0.1512 0.0
C754 C 0.82438 0.26642 0.1192 0.0
C755 C 0.85681 0.3007 0.11603 0.0
C756 C 0.88846 0.31067 0.13056 0.0
C757 C 0.88717 0.2871 0.14812 0.0
C758 C 0.89508 0.34115 0.06681 0.0
C759 C 0.85396 0.35724 0.05919 0.0
C760 C 0.89702 0.32563 0.08592 0.0
C761 C 0.85749 0.32495 0.09733 0.0
C762 C 0.81701 0.34313 0.08988 0.0
C763 C 0.81529 0.35913 0.07096 0.0
H764 H 0.60582 0.15213 0.38512 0.0
H765 H 0.49005 0.08734 0.41215 0.0
H766 H 0.56423 0.15647 0.35493 0.0
H767 H 0.44792 0.09343 0.38206 0.0
H768 H 0.42723 0.04394 0.31872 0.0
H769 H 0.45481 0.05372 0.35153 0.0
H770 H 0.50035 0.18943 0.33718 0.0
H771 H 0.47236 0.17906 0.3041 0.0
C772 C 0.57158 0.1388 0.38472 0.0
C773 C 0.5519 0.11809 0.40105 0.0
C774 C 0.54735 0.14212 0.36743 0.0
C775 C 0.50285 0.12498 0.36604 0.0
C776 C 0.48239 0.10637 0.38258 0.0
C777 C 0.50657 0.10304 0.39986 0.0
C778 C 0.44115 0.0766 0.32288 0.0
C779 C 0.44621 0.11139 0.30923 0.0
C780 C 0.45734 0.08215 0.34163 0.0
C781 C 0.4797 0.12243 0.34702 0.0
C782 C 0.4835 0.15791 0.33344 0.0
C783 C 0.46715 0.15226 0.31463 0.0
H784 H 0.39924 0.20847 0.34516 0.0
H785 H 0.32638 0.32102 0.31934 0.0
H786 H 0.40565 0.25088 0.37509 0.0
H787 H 0.3344 0.36393 0.34911 0.0
H788 H 0.28905 0.37927 0.41356 0.0
H789 H 0.29769 0.35404 0.38041 0.0
H790 H 0.43729 0.31729 0.39214 0.0
H791 H 0.42833 0.34425 0.42547 0.0
C792 C 0.38461 0.24219 0.34576 0.0
C793 C 0.36096 0.26064 0.32991 0.0
C794 C 0.38911 0.26691 0.36288 0.0
C795 C 0.3702 0.31067 0.36454 0.0
C796 C 0.3488 0.33005 0.34838 0.0
C797 C 0.34433 0.30541 0.33128 0.0
C798 C 0.3223 0.3685 0.40868 0.0
C799 C 0.35862 0.36578 0.42166 0.0
C800 C 0.32719 0.35334 0.38976 0.0
C801 C 0.36826 0.33373 0.38358 0.0
C802 C 0.40518 0.33209 0.39649 0.0
C803 C 0.40029 0.34784 0.41545 0.0
H804 H 0.95006 1.02223 0.16846 0.0
H805 H 0.9504 0.16842 0.17298 0.0
H806 H 0.97766 1.02752 0.13535 0.0
H807 H 0.97886 0.17412 0.13966 0.0
H808 H 1.00572 0.158 0.07315 0.0
H809 H 0.9631 0.15512 0.10358 0.0
H810 H 0.05542 0.05253 0.12494 0.0
H811 H 0.09731 0.05482 0.09476 0.0
C812 C 0.95484 0.05556 0.16206 0.0
C813 C 0.94734 0.09495 0.17292 0.0
C814 C 0.97106 0.05861 0.14324 0.0
C815 C 0.98092 0.10119 0.13506 0.0
C816 C 0.97122 0.14089 0.14561 0.0
C817 C 0.95495 0.13773 0.16457 0.0
C818 C 1.01676 0.13482 0.08438 0.0
C819 C 0.05519 0.10705 0.08165 0.0
C820 C 0.99251 0.13336 0.10176 0.0
C821 C 1.00584 0.10345 0.11652 0.0
C822 C 0.04406 0.07556 0.11371 0.0
C823 C 0.06847 0.07734 0.0965 0.0
H824 H 0.13341 0.71583 0.92607 0.0
H825 H 0.27743 0.69835 0.91768 0.0
H826 H 0.12617 0.74378 0.89268 0.0
H827 H 0.27055 0.72465 0.88449 0.0
H828 H 0.24325 0.75046 0.82222 0.0
H829 H 0.23678 0.70799 0.8523 0.0
H830 H 0.15521 0.8157 0.87659 0.0
H831 H 0.16095 0.85803 0.84645 0.0
C832 C 0.16309 0.71648 0.91682 0.0
C833 C 0.20567 0.70336 0.92399 0.0
C834 C 0.15911 0.73269 0.89785 0.0
C835 C 0.19776 0.73604 0.88594 0.0
C836 C 0.23999 0.72156 0.89313 0.0
C837 C 0.24395 0.70611 0.91205 0.0
C838 C 0.22342 0.76491 0.83387 0.0
C839 C 0.20348 0.80817 0.832 0.0
C840 C 0.21978 0.74054 0.8511 0.0
C841 C 0.19569 0.75859 0.86681 0.0
C842 C 0.17378 0.80077 0.86468 0.0
C843 C 0.17772 0.82539 0.84747 0.0
H844 H 0.56674 0.97986 0.57038 0.0
H845 H 0.45326 0.91241 0.59797 0.0
H846 H 0.6106 0.97279 0.60001 0.0
H847 H 0.49687 0.90649 0.62765 0.0
H848 H 0.5936 0.88404 0.67731 0.0
H849 H 0.56511 0.8735 0.64426 0.0
H850 H 0.59995 1.01295 0.63109 0.0
H851 H 0.62577 1.02339 0.66405 0.0
C852 C 0.55117 0.96321 0.58267 0.0
C853 C 0.50592 0.94782 0.58185 0.0
C854 C 0.57637 0.95922 0.59965 0.0
C855 C 0.55708 0.93941 0.61618 0.0
C856 C 0.51278 0.92172 0.61511 0.0
C857 C 0.48744 0.9259 0.59813 0.0
C858 C 0.59644 0.9117 0.66703 0.0
C859 C 0.61418 0.95384 0.67275 0.0
C860 C 0.57988 0.90589 0.64825 0.0
C861 C 0.58077 0.94227 0.63502 0.0
C862 C 0.60004 0.98384 0.6407 0.0
C863 C 0.61572 0.98971 0.65948 0.0
H864 H 0.2807 0.98199 0.98241 0.0
H865 H 0.22238 0.9581 0.03872 0.0
H866 H 0.28801 0.90026 0.97765 0.0
H867 H 0.23075 0.87634 0.03416 0.0
H868 H 0.19229 0.73878 0.00325 0.0
H869 H 0.19847 0.8155 0.01612 0.0
H870 H 0.327 0.83219 0.98679 0.0
H871 H 0.31947 0.75579 0.97346 0.0
C872 C 0.26957 0.95939 -0.00617 0.0
C873 C 0.25058 0.97698 0.01088 0.0
C874 C 0.27434 0.9123 0.99122 0.0
C875 C 0.26042 0.88126 0.0056 0.0
C876 C 0.24163 0.89892 0.02269 0.0
C877 C 0.23678 0.94601 0.0253 0.0
C878 C 0.22323 0.75779 0.00058 0.0
C879 C 0.25579 0.74085 0.98763 0.0
C880 C 0.22652 0.8023 0.00771 0.0
C881 C 0.2626 0.83091 0.00205 0.0
C882 C 0.29804 0.81177 0.99105 0.0
C883 C 0.29455 0.76732 0.98388 0.0
H884 H 0.06397 0.57274 0.22345 0.0
H885 H 0.07918 0.44333 0.25181 0.0
H886 H 0.98764 0.5804 0.23689 0.0
H887 H 1.0026 0.44979 0.26485 0.0
H888 H 0.83708 0.53597 0.23236 0.0
H889 H 0.91882 0.54292 0.22754 0.0
H890 H 0.94247 0.48205 0.28342 0.0
H891 H 0.8607 0.47413 0.28804 0.0
C892 C 0.05205 0.54722 0.23355 0.0
C893 C 0.07802 0.50787 0.23689 0.0
C894 C 1.00765 0.55087 0.24081 0.0
C895 C 0.98805 0.51504 0.25149 0.0
C896 C 1.01616 0.47817 0.25671 0.0
C897 C 0.0606 0.4747 0.24948 0.0
C898 C 0.85962 0.52405 0.24365 0.0
C899 C 0.84194 0.50412 0.26052 0.0
C900 C 0.90672 0.52857 0.241 0.0
C901 C 0.93771 0.51341 0.25515 0.0
C902 C 0.91995 0.49385 0.27211 0.0
C903 C 0.87284 0.4893 0.27476 0.0
H904 H 0.37076 0.32613 0.50067 0.0
H905 H 0.24381 0.30857 0.47084 0.0
H906 H 0.36402 0.24983 0.51423 0.0
H907 H 0.23575 0.23271 0.4848 0.0
H908 H 0.33659 0.10905 0.53907 0.0
H909 H 0.33012 0.19062 0.53317 0.0
H910 H 0.27406 0.16346 0.47677 0.0
H911 H 0.27963 0.08201 0.48283 0.0
C912 C 0.33981 0.30712 0.49808 0.0
C913 C 0.30726 0.32391 0.48506 0.0
C914 C 0.33619 0.26286 0.50562 0.0
C915 C 0.29989 0.23426 0.50024 0.0
C916 C 0.2648 0.25312 0.48892 0.0
C917 C 0.26861 0.29727 0.48136 0.0
C918 C 0.32279 0.12039 0.5254 0.0
C919 C 0.30883 0.08857 0.5114 0.0
C920 C 0.3191 0.16738 0.52201 0.0
C921 C 0.30122 0.1841 0.50454 0.0
C922 C 0.28708 0.15221 0.49059 0.0
C923 C 0.29079 0.10525 0.49397 0.0
H924 H 0.73574 0.512 0.73323 0.0
H925 H 0.71019 0.58403 0.78639 0.0
H926 H 0.65425 0.50197 0.7287 0.0
H927 H 0.62833 0.57384 0.78182 0.0
H928 H 0.48999 0.59796 0.74599 0.0
H929 H 0.56664 0.60054 0.75974 0.0
H930 H 0.58855 0.46146 0.74218 0.0
H931 H 0.51266 0.45954 0.72822 0.0
C932 C 0.71282 0.52559 0.74401 0.0
C933 C 0.72986 0.54885 0.76017 0.0
C934 C 0.66592 0.51945 0.74151 0.0
C935 C 0.63448 0.53663 0.75502 0.0
C936 C 0.65143 0.56014 0.77114 0.0
C937 C 0.69847 0.56589 0.77375 0.0
C938 C 0.51015 0.56711 0.74618 0.0
C939 C 0.49496 0.52836 0.73624 0.0
C940 C 0.55451 0.56877 0.75377 0.0
C941 C 0.5844 0.53163 0.75154 0.0
C942 C 0.56698 0.4911 0.74373 0.0
C943 C 0.52291 0.48956 0.73615 0.0
H944 H 0.743 0.30317 0.0084 0.0
H945 H 0.87249 0.31714 0.98013 0.0
H946 H 0.73406 0.22735 -0.00542 0.0
H947 H 0.86448 0.24107 0.96655 0.0
H948 H 0.77732 0.07596 -0.00162 0.0
H949 H 0.77209 0.15763 0.00371 0.0
H950 H 0.8289 0.18237 0.94721 0.0
H951 H 0.83468 0.10042 0.94195 0.0
C952 C 0.76832 0.29111 -0.00173 0.0
C953 C 0.808 0.31661 -0.00497 0.0
C954 C 0.76385 0.24704 0.99075 0.0
C955 C 0.79916 0.22725 0.97987 0.0
C956 C 0.8365 0.25488 0.97484 0.0
C957 C 0.84087 0.29898 0.98238 0.0
C958 C 0.78859 0.09868 0.98703 0.0
C959 C 0.80665 0.08121 0.96976 0.0
C960 C 0.78511 0.14576 0.99 0.0
C961 C 0.79969 0.17702 0.97584 0.0
C962 C 0.81748 0.15956 0.9585 0.0
C963 C 0.82076 0.1124 0.95548 0.0
H964 H 0.99032 0.6002 0.73523 0.0
H965 H 1.01263 0.4625 0.75428 0.0
H966 H 0.06695 0.60195 0.72143 0.0
H967 H 0.08839 0.46353 0.74021 0.0
H968 H 0.23567 0.51357 0.74871 0.0
H969 H 0.15415 0.50414 0.7533 0.0
H970 H 0.12868 0.57438 0.69963 0.0
H971 H 0.21062 0.584 0.695 0.0
C972 C 1.01037 0.56928 0.73531 0.0
C973 C 0.99507 0.531 0.74561 0.0
C974 C 0.05472 0.57047 0.72768 0.0
C975 C 0.08449 0.53332 0.73023 0.0
C976 C 0.06693 0.49318 0.73841 0.0
C977 C 1.0229 0.49212 0.74604 0.0
C978 C 0.21285 0.52694 0.73782 0.0
C979 C 0.23004 0.54958 0.72148 0.0
C980 C 0.16592 0.52113 0.74035 0.0
C981 C 0.13459 0.53801 0.72671 0.0
C982 C 0.15169 0.56091 0.71042 0.0
C983 C 0.19877 0.56635 0.70777 0.0
H984 H 0.78256 0.98331 0.49956 0.0
H985 H 0.71981 0.95928 0.44417 0.0
H986 H 0.79029 0.90154 0.50436 0.0
H987 H 0.72855 0.87756 0.44877 0.0
H988 H 0.8223 0.75696 0.50817 0.0
H989 H 0.82867 0.83338 0.49459 0.0
H990 H 0.69744 0.81694 0.46753 0.0
H991 H 0.69224 0.74026 0.4807 0.0
C992 C 0.77054 0.96067 0.48836 0.0
C993 C 0.75019 0.97822 0.47155 0.0
C994 C 0.77554 0.91359 0.49098 0.0
C995 C 0.76047 0.88254 0.47687 0.0
C996 C 0.74034 0.90015 0.46002 0.0
C997 C 0.7353 0.94723 0.4574 0.0
C998 C 0.79632 0.76862 0.49824 0.0
C999 C 0.7571 0.74232 0.49526 0.0
C1000 C 0.79927 0.81302 0.4909 0.0
C1001 C 0.76285 0.83221 0.48048 0.0
C1002 C 0.7262 0.80368 0.4755 0.0
C1003 C 0.72345 0.75921 0.48279 0.0
H1004 H 0.33713 0.53727 0.25023 0.0
H1005 H 0.36084 0.47873 0.19401 0.0
H1006 H 0.41887 0.54439 0.25502 0.0
H1007 H 0.44256 0.48684 0.19862 0.0
H1008 H 0.56365 0.57481 0.25922 0.0
H1009 H 0.48739 0.58292 0.24577 0.0
H1010 H 0.5028 0.45367 0.21696 0.0
H1011 H 0.57936 0.44678 0.23 0.0
C1012 C 0.35969 0.52612 0.23883 0.0
C1013 C 0.34205 0.50707 0.2218 0.0
C1014 C 0.40677 0.53075 0.24146 0.0
C1015 C 0.43774 0.51657 0.22714 0.0
C1016 C 0.42003 0.49789 0.21004 0.0
C1017 C 0.37296 0.49323 0.20741 0.0
C1018 C 0.55184 0.54973 0.24893 0.0
C1019 C 0.57787 0.51056 0.24539 0.0
C1020 C 0.5075 0.55363 0.24167 0.0
C1021 C 0.48805 0.51822 0.23077 0.0
C1022 C 0.51627 0.48169 0.22529 0.0
C1023 C 0.56068 0.47799 0.23252 0.0
H1024 H 0.78201 0.48394 0.48172 0.0
H1025 H 0.7249 0.45816 0.5381 0.0
H1026 H 0.78885 0.40243 0.47635 0.0
H1027 H 0.73268 0.37647 0.53289 0.0
H1028 H 0.69266 0.24033 0.50083 0.0
H1029 H 0.69931 0.31658 0.51428 0.0
H1030 H 0.82768 0.33383 0.48489 0.0
H1031 H 0.81964 0.25806 0.47099 0.0
C1032 C 0.77115 0.46096 0.49305 0.0
C1033 C 0.75261 0.47799 0.5103 0.0
C1034 C 0.77559 0.41398 0.49007 0.0
C1035 C 0.76174 0.38241 0.50425 0.0
C1036 C 0.7435 0.39947 0.52157 0.0
C1037 C 0.73905 0.44651 0.52455 0.0
C1038 C 0.72363 0.25936 0.49824 0.0
C1039 C 0.75613 0.24272 0.48519 0.0
C1040 C 0.7272 0.30357 0.50572 0.0
C1041 C 0.76345 0.33221 0.50027 0.0
C1042 C 0.79865 0.31338 0.48903 0.0
C1043 C 0.79486 0.26928 0.48152 0.0
H1044 H 0.33129 0.04047 0.73337 0.0
H1045 H 0.35863 0.98161 0.7893 0.0
H1046 H 0.41267 0.04572 0.72722 0.0
H1047 H 0.44005 0.988 0.78339 0.0
H1048 H 0.57457 0.94608 0.75142 0.0
H1049 H 0.49851 0.95418 0.76481 0.0
H1050 H 0.48294 0.08182 0.73453 0.0
H1051 H 0.55868 0.07233 0.72068 0.0
C1052 C 0.35459 1.02892 0.74444 0.0
C1053 C 0.33799 1.01026 0.76178 0.0
C1054 C 0.40154 0.03243 0.74101 0.0
C1055 C 0.43351 1.01758 0.75483 0.0
C1056 C 0.41682 0.99944 0.77228 0.0
C1057 C 0.36988 0.99581 0.77568 0.0
C1058 C 0.55596 0.97719 0.74857 0.0
C1059 C 0.57323 1.00911 0.73537 0.0
C1060 C 0.5118 0.98161 0.75604 0.0
C1061 C 0.48364 1.01813 0.75042 0.0
C1062 C 0.50293 0.05259 0.73884 0.0
C1063 C 0.54705 0.04796 0.73134 0.0
H1064 H 0.8544 0.82393 -0.00722 0.0
H1065 H 0.71648 0.79392 0.97635 0.0
H1066 H 0.86179 0.74756 0.00663 0.0
H1067 H 0.72306 0.71849 0.99056 0.0
H1068 H 0.77706 0.5739 0.98204 0.0
H1069 H 0.76523 0.65487 0.97695 0.0
H1070 H 0.84029 0.68447 0.02894 0.0
H1071 H 0.85252 0.6029 0.03405 0.0
C1072 C 0.82468 0.80218 -0.0067 0.0
C1073 C 0.78464 0.81528 0.98371 0.0
C1074 C 0.82911 0.75801 0.00096 0.0
C1075 C 0.79347 0.72623 -0.00084 0.0
C1076 C 0.75165 0.74153 -0.00826 0.0
C1077 C 0.7474 0.78536 0.98404 0.0
C1078 C 0.79128 0.59747 -0.0076 0.0
C1079 C 0.81582 0.5815 0.00846 0.0
C1080 C 0.78399 0.64411 0.9896 0.0
C1081 C 0.80111 0.67645 0.00271 0.0
C1082 C 0.82649 0.66066 0.01858 0.0
C1083 C 0.83352 0.6138 0.02148 0.0
H1084 H 0.98243 0.11543 0.25204 0.0
H1085 H 0.99921 0.98531 0.22467 0.0
H1086 H 0.05881 0.10997 0.26537 0.0
H1087 H 0.07533 0.97867 0.23841 0.0
H1088 H 0.22562 1.0239 0.23399 0.0
H1089 H 0.14402 1.0163 0.229 0.0
H1090 H 0.11907 0.07885 0.28433 0.0
H1091 H 0.20074 0.08738 0.28913 0.0
C1092 C 1.00126 0.08412 0.25001 0.0
C1093 C 0.98434 0.05045 0.23758 0.0
C1094 C 0.04562 0.08124 0.2574 0.0
C1095 C 0.07415 0.04446 0.25253 0.0
C1096 C 0.05501 1.00815 0.24206 0.0
C1097 C 1.01071 1.01122 0.23464 0.0
C1098 C 0.20283 0.03604 0.24513 0.0
C1099 C 0.22015 0.05661 0.2619 0.0
C1100 C 0.15579 1.03116 0.24238 0.0
C1101 C 0.12446 0.04659 0.25632 0.0
C1102 C 0.14184 0.0668 0.27318 0.0
C1103 C 0.1889 0.07169 0.27593 0.0
H1104 H 0.36983 0.82699 0.48603 0.0
H1105 H 0.23702 0.80823 0.51082 0.0
H1106 H 0.36646 0.75095 0.47215 0.0
H1107 H 0.23268 0.7324 0.49661 0.0
H1108 H 0.27828 0.58215 0.50057 0.0
H1109 H 0.2706 0.66351 0.50632 0.0
H1110 H 0.33678 0.69164 0.45197 0.0
H1111 H 0.34526 0.61017 0.44638 0.0
C1112 C 0.33857 0.80775 0.48741 0.0
C1113 C 0.30343 0.82395 0.49927 0.0
C1114 C 0.33686 0.76364 0.4797 0.0
C1115 C 0.29984 0.73467 0.48371 0.0
C1116 C 0.26233 0.75309 0.49364 0.0
C1117 C 0.26418 0.79716 0.50136 0.0
C1118 C 0.2913 0.60558 0.48983 0.0
C1119 C 0.31269 0.58921 0.47306 0.0
C1120 C 0.28635 0.65247 0.49301 0.0
C1121 C 0.30263 0.68459 0.47953 0.0
C1122 C 0.32399 0.66819 0.46274 0.0
C1123 C 0.32886 0.62127 0.45954 0.0
H1124 H 0.72478 1.0259 0.24947 0.0
H1125 H 0.70104 0.08671 0.1936 0.0
H1126 H 0.64309 1.02045 0.25464 0.0
H1127 H 0.61918 0.0804 0.19863 0.0
H1128 H 0.48389 0.12225 0.23083 0.0
H1129 H 0.5601 0.11432 0.21752 0.0
H1130 H 0.57331 0.98373 0.24564 0.0
H1131 H 0.49726 0.99272 0.25928 0.0
C1132 C 0.70222 0.03792 0.23821 0.0
C1133 C 0.71991 0.05708 0.22117 0.0
C1134 C 0.65511 0.03426 0.24108 0.0
C1135 C 0.62405 0.04961 0.227 0.0
C1136 C 0.64177 0.06844 0.20988 0.0
C1137 C 0.68892 0.07205 0.20699 0.0
C1138 C 0.50198 0.09058 0.23316 0.0
C1139 C 0.48412 0.05777 0.24582 0.0
C1140 C 0.5462 0.08626 0.22577 0.0
C1141 C 0.57375 0.04894 0.23092 0.0
C1142 C 0.55373 1.01356 0.24175 0.0
C1143 C 0.50949 1.01802 0.24914 0.0
H1144 H 0.32575 0.25562 0.00955 0.0
H1145 H 0.1951 0.23998 0.98247 0.0
H1146 H 0.33291 0.33164 -0.00439 0.0
H1147 H 0.20118 0.31621 0.96889 0.0
H1148 H 0.22519 0.45752 0.94457 0.0
H1149 H 0.23306 0.37578 0.94961 0.0
H1150 H 0.29573 0.40081 0.00493 0.0
H1151 H 0.28877 0.48247 -0.0003 0.0
C1152 C 0.29976 0.26739 -0.00036 0.0
C1153 C 0.26024 0.24143 -0.00317 0.0
C1154 C 0.30319 0.31158 -0.00792 0.0
C1155 C 0.26697 0.33097 0.98159 0.0
C1156 C 0.22984 0.3028 0.97687 0.0
C1157 C 0.22658 0.25856 0.98441 0.0
C1158 C 0.24079 0.44568 0.95781 0.0
C1159 C 0.25609 0.47696 0.97177 0.0
C1160 C 0.24529 0.3986 0.9607 0.0
C1161 C 0.26532 0.38124 0.97763 0.0
C1162 C 0.281 0.41259 -0.0085 0.0
C1163 C 0.27649 0.45965 0.98861 0.0
H1164 H 0.07353 0.94705 0.73291 0.0
H1165 H 0.05885 0.07491 0.76233 0.0
H1166 H 0.99768 0.95517 0.71945 0.0
H1167 H 0.98301 0.08418 0.74852 0.0
H1168 H 0.83108 0.04218 0.75038 0.0
H1169 H 0.91255 0.04796 0.75635 0.0
H1170 H 0.93969 0.98918 0.70046 0.0
H1171 H 0.85831 0.98233 0.69471 0.0
C1172 C 0.05534 0.97855 0.73538 0.0
C1173 C 0.07296 1.011 0.74822 0.0
C1174 C 1.01122 0.98294 0.72792 0.0
C1175 C 0.98334 1.01987 0.73321 0.0
C1176 C 1.00286 0.05471 0.74443 0.0
C1177 C 0.04703 0.05018 0.7519 0.0
C1178 C 0.85435 1.03051 0.73934 0.0
C1179 C 0.83773 1.01139 0.72213 0.0
C1180 C 0.90132 0.03433 0.74266 0.0
C1181 C 0.93322 1.01929 0.72886 0.0
C1182 C 0.91649 1.00077 0.71154 0.0
C1183 C 0.86957 0.99686 0.70824 0.0
H1184 H 0.30669 0.12215 0.93736 0.0
H1185 H 0.16147 0.14405 0.93995 0.0
H1186 H 0.30021 0.10178 0.90341 0.0
H1187 H 0.15529 0.12393 0.9058 0.0
H1188 H 0.17608 0.11813 0.83866 0.0
H1189 H 0.18274 0.14885 0.87139 0.0
H1190 H 0.26137 0.03141 0.88835 0.0
H1191 H 0.2544 1.00045 0.85586 0.0
C1192 C 0.27349 0.12347 0.93062 0.0
C1193 C 0.23449 0.13424 0.94142 0.0
C1194 C 0.26982 0.11153 0.91121 0.0
C1195 C 0.2272 0.11073 0.90211 0.0
C1196 C 0.18855 0.12431 0.91251 0.0
C1197 C 0.19211 0.13573 0.93205 0.0
C1198 C 0.19483 0.09895 0.84939 0.0
C1199 C 0.21487 0.05696 0.8447 0.0
C1200 C 0.19847 0.11646 0.86809 0.0
C1201 C 0.2229 0.09267 0.88228 0.0
C1202 C 0.24288 0.05073 0.87758 0.0
C1203 C 0.23864 0.0329 0.85903 0.0
H1204 H 0.82806 0.44106 0.10449 0.0
H1205 H 0.70414 0.50676 0.0858 0.0
H1206 H 0.80005 0.44027 0.13753 0.0
H1207 H 0.676 0.5057 0.11895 0.0
H1208 H 0.6759 0.54829 0.184 0.0
H1209 H 0.69422 0.54324 0.14975 0.0
H1210 H 0.74159 0.40549 0.15804 0.0
H1211 H 0.72386 0.41066 0.19231 0.0
C1212 C 0.79472 0.45513 0.10741 0.0
C1213 C 0.76841 0.47414 0.09251 0.0
C1214 C 0.77852 0.45437 0.12634 0.0
C1215 C 0.73573 0.47285 0.13087 0.0
C1216 C 0.70925 0.49155 0.11595 0.0
C1217 C 0.72535 0.49204 0.09696 0.0
C1218 C 0.68958 0.51669 0.17848 0.0
C1219 C 0.69887 0.48006 0.19094 0.0
C1220 C 0.69995 0.51374 0.15882 0.0
C1221 C 0.71988 0.47415 0.15123 0.0
C1222 C 0.72704 0.43676 0.16353 0.0
C1223 C 0.71656 0.43964 0.18315 0.0
H1224 H 0.36136 0.07652 0.35686 0.0
H1225 H 0.29625 0.95185 0.33884 0.0
H1226 H 0.36503 0.04798 0.38981 0.0
H1227 H 0.30025 0.92315 0.37186 0.0
H1228 H 0.26326 0.91969 0.43734 0.0
H1229 H 0.26531 0.93915 0.40314 0.0
H1230 H 0.40206 0.99033 0.40977 0.0
H1231 H 0.39982 0.97156 0.44401 0.0
C1232 C 0.34807 0.0429 0.35989 0.0
C1233 C 0.32842 1.01651 0.34521 0.0
C1234 C 0.35046 1.02639 0.37878 0.0
C1235 C 0.33304 0.9832 0.38347 0.0
C1236 C 0.3136 0.95671 0.36876 0.0
C1237 C 0.31141 0.97314 0.34983 0.0
C1238 C 0.29404 0.93442 0.43145 0.0
C1239 C 0.33119 0.94449 0.44346 0.0
C1240 C 0.29526 0.94547 0.41182 0.0
C1241 C 0.33365 0.96683 0.40378 0.0
C1242 C 0.37165 0.97471 0.4156 0.0
C1243 C 0.37047 0.96361 0.4352 0.0
H1244 H 0.72483 0.60124 0.60609 0.0
H1245 H 0.86333 0.62329 0.5875 0.0
H1246 H 0.74784 0.61213 0.63943 0.0
H1247 H 0.88621 0.63547 0.62095 0.0
H1248 H 0.91192 0.58689 0.68444 0.0
H1249 H 0.89537 0.59091 0.65012 0.0
H1250 H 0.77393 0.66844 0.66219 0.0
H1251 H 0.79 0.6638 0.6966 0.0
C1252 C 0.76021 0.60854 0.60911 0.0
C1253 C 0.79235 0.61086 0.59415 0.0
C1254 C 0.77333 0.61533 0.62824 0.0
C1255 C 0.81886 0.62497 0.63288 0.0
C1256 C 0.85095 0.62777 0.61789 0.0
C1257 C 0.83783 0.62077 0.59872 0.0
C1258 C 0.88225 0.60578 0.67978 0.0
C1259 C 0.85187 0.62437 0.69332 0.0
C1260 C 0.8728 0.60815 0.66005 0.0
C1261 C 0.83287 0.62929 0.65341 0.0
C1262 C 0.80447 0.65108 0.66686 0.0
C1263 C 0.8139 0.64872 0.6866 0.0
H1264 H 0.82091 0.89971 0.04651 0.0
H1265 H 0.91603 1.00873 0.03548 0.0
H1266 H 0.82492 0.91534 0.08091 0.0
H1267 H 0.92094 1.02359 0.07001 0.0
H1268 H 0.85892 0.08101 0.12604 0.0
H1269 H 0.86894 0.05766 0.09268 0.0
H1270 H 0.86851 0.91665 0.11043 0.0
H1271 H 0.85756 0.94009 0.14389 0.0
C1272 C 0.84365 0.92622 0.05144 0.0
C1273 C 0.86765 0.95339 0.03818 0.0
C1274 C 0.84603 0.93514 0.07123 0.0
C1275 C 0.87265 0.97126 0.07822 0.0
C1276 C 0.89925 0.99621 0.06506 0.0
C1277 C 0.89675 0.98741 0.04527 0.0
C1278 C 0.86083 0.04499 0.12285 0.0
C1279 C 0.85679 1.01239 0.13761 0.0
C1280 C 0.86718 0.03158 0.10372 0.0
C1281 C 0.86959 0.98522 0.09883 0.0
C1282 C 0.86631 0.95261 0.11365 0.0
C1283 C 0.86009 0.96605 0.13283 0.0
H1284 H 0.4117 0.58404 0.79742 0.0
H1285 H 0.29182 0.6643 0.7854 0.0
H1286 H 0.39556 0.58833 0.83177 0.0
H1287 H 0.27626 0.66936 0.81986 0.0
H1288 H 0.22596 0.60325 0.87621 0.0
H1289 H 0.24879 0.61379 0.8428 0.0
H1290 H 0.38804 0.63301 0.86088 0.0
H1291 H 0.36532 0.6212 0.89441 0.0
C1292 C 0.3826 0.60371 0.80211 0.0
C1293 C 0.35263 0.6232 0.78861 0.0
C1294 C 0.37338 0.60624 0.82187 0.0
C1295 C 0.33412 0.62847 0.82856 0.0
C1296 C 0.30622 0.65109 0.81514 0.0
C1297 C 0.31537 0.6485 0.79539 0.0
C1298 C 0.26149 0.60959 0.87309 0.0
C1299 C 0.2939 0.61085 0.88797 0.0
C1300 C 0.27453 0.61619 0.85392 0.0
C1301 C 0.32025 0.62452 0.84914 0.0
C1302 C 0.35261 0.62632 0.86405 0.0
C1303 C 0.33957 0.61955 0.88326 0.0
H1304 H 0.75437 0.99833 0.62715 0.0
H1305 H 0.68198 0.11949 0.64447 0.0
H1306 H 0.75982 1.02794 0.59429 0.0
H1307 H 0.68692 0.14871 0.6114 0.0
H1308 H 0.66061 0.14297 0.54312 0.0
H1309 H 0.65573 0.12255 0.57734 0.0
H1310 H 0.8003 0.09786 0.57844 0.0
H1311 H 0.80553 0.11871 0.54445 0.0
C1312 C 0.73958 1.03123 0.62393 0.0
C1313 C 0.71799 0.0567 0.6384 0.0
C1314 C 0.74291 0.04825 0.60516 0.0
C1315 C 0.72405 0.09071 0.6004 0.0
C1316 C 0.70173 0.11589 0.61475 0.0
C1317 C 0.6991 0.09922 0.63364 0.0
C1318 C 0.69146 0.13398 0.55075 0.0
C1319 C 0.73339 0.13218 0.54103 0.0
C1320 C 0.68864 0.12237 0.57032 0.0
C1321 C 0.72757 0.10814 0.58039 0.0
C1322 C 0.76972 0.1082 0.5709 0.0
C1323 C 0.77268 0.12044 0.55147 0.0
H1324 H 0.19607 0.44319 0.3966 0.0
H1325 H 0.32118 0.50619 0.37774 0.0
H1326 H 0.16621 0.44829 0.36363 0.0
H1327 H 0.291 0.51187 0.34503 0.0
H1328 H 0.20255 0.56107 0.29528 0.0
H1329 H 0.22288 0.55634 0.32932 0.0
H1330 H 0.19035 0.41324 0.32958 0.0
H1331 H 0.17045 0.41756 0.2953 0.0
C1332 C 0.21704 0.45834 0.38547 0.0
C1333 C 0.26087 0.47452 0.38976 0.0
C1334 C 0.20002 0.46105 0.36664 0.0
C1335 C 0.2262 0.48081 0.3519 0.0
C1336 C 0.26994 0.497 0.35621 0.0
C1337 C 0.28725 0.49355 0.3749 0.0
C1338 C 0.19897 0.52869 0.30261 0.0
C1339 C 0.18527 0.48956 0.29252 0.0
C1340 C 0.21087 0.52601 0.32207 0.0
C1341 C 0.20861 0.48436 0.33195 0.0
C1342 C 0.19232 0.44576 0.32225 0.0
C1343 C 0.18104 0.44826 0.30265 0.0
H1344 H 0.70244 0.48615 0.35531 0.0
H1345 H 0.75587 0.61524 0.33575 0.0
H1346 H 0.69865 0.51519 0.38812 0.0
H1347 H 0.75197 0.64432 0.36872 0.0
H1348 H 0.79406 0.64879 0.43406 0.0
H1349 H 0.79114 0.62961 0.39986 0.0
H1350 H 0.65738 0.57191 0.40775 0.0
H1351 H 0.66034 0.59066 0.44195 0.0
C1352 C 0.71324 0.5208 0.35799 0.0
C1353 C 0.72958 0.54835 0.34292 0.0
C1354 C 0.71072 0.53755 0.37678 0.0
C1355 C 0.72484 0.58212 0.38098 0.0
C1356 C 0.74111 0.60975 0.36592 0.0
C1357 C 0.74327 0.5931 0.34706 0.0
C1358 C 0.76371 0.63269 0.42845 0.0
C1359 C 0.72766 0.62079 0.44078 0.0
C1360 C 0.76199 0.62184 0.40883 0.0
C1361 C 0.72426 0.59874 0.40118 0.0
C1362 C 0.68723 0.58902 0.41331 0.0
C1363 C 0.68884 0.60006 0.43289 0.0
H1364 H 0.22443 0.90373 0.59743 0.0
H1365 H 0.28202 0.03847 0.59784 0.0
H1366 H 0.19657 0.91453 0.63018 0.0
H1367 H 0.25035 0.0518 0.62968 0.0
H1368 H 0.23657 0.047 0.69425 0.0
H1369 H 0.25963 0.03799 0.66105 0.0
H1370 H 0.14767 0.94475 0.65181 0.0
H1371 H 0.12758 0.95099 0.68588 0.0
C1372 C 0.23036 0.936 0.60451 0.0
C1373 C 0.25581 0.97006 0.59535 0.0
C1374 C 0.21393 0.94257 0.62325 0.0
C1375 C 0.22119 0.98409 0.63296 0.0
C1376 C 0.24518 1.01876 0.62321 0.0
C1377 C 0.26307 1.01144 0.60482 0.0
C1378 C 0.2166 1.02497 0.68503 0.0
C1379 C 0.1802 0.99981 0.69257 0.0
C1380 C 0.22963 1.01992 0.66582 0.0
C1381 C 0.20564 0.99066 0.65336 0.0
C1382 C 0.1679 0.96679 0.66087 0.0
C1383 C 0.15585 0.97073 0.68035 0.0
H1384 H 0.90458 0.41231 0.93702 0.0
H1385 H 0.7605 0.44134 0.93566 0.0
H1386 H 0.91014 0.43266 0.9028 0.0
H1387 H 0.76646 0.46208 0.9017 0.0
H1388 H 0.81549 0.56052 0.8533 0.0
H1389 H 0.80988 0.53107 0.88618 0.0
H1390 H 0.87736 0.40751 0.86864 0.0
H1391 H 0.88244 0.43663 0.83554 0.0
C1392 C 0.87405 0.42233 0.92938 0.0
C1393 C 0.83219 0.42555 0.9391 0.0
C1394 C 0.87726 0.43389 0.90983 0.0
C1395 C 0.83882 0.44944 0.89978 0.0
C1396 C 0.79667 0.45071 0.90924 0.0
C1397 C 0.7933 0.43855 0.92865 0.0
C1398 C 0.82904 0.52704 0.85643 0.0
C1399 C 0.84899 0.50067 0.84183 0.0
C1400 C 0.82565 0.51015 0.8752 0.0
C1401 C 0.84285 0.46691 0.87983 0.0
C1402 C 0.86377 0.44091 0.86537 0.0
C1403 C 0.86643 0.45748 0.84647 0.0
H1404 H 0.35685 1.00493 0.18796 0.0
H1405 H 0.38984 0.1482 0.18904 0.0
H1406 H 0.33619 1.01131 0.15401 0.0
H1407 H 0.36954 0.15422 0.15486 0.0
H1408 H 0.36499 0.12778 0.08775 0.0
H1409 H 0.39369 0.12157 0.12084 0.0
H1410 H 0.26904 0.05564 0.13811 0.0
H1411 H 0.24003 0.06233 0.10523 0.0
C1412 C 0.36049 0.03762 0.18089 0.0
C1413 C 0.37466 0.07618 0.19125 0.0
C1414 C 0.34836 0.04126 0.16148 0.0
C1415 C 0.35084 0.08333 0.15193 0.0
C1416 C 0.36739 0.12139 0.16192 0.0
C1417 C 0.37891 0.11792 0.18147 0.0
C1418 C 0.34377 0.11191 0.09862 0.0
C1419 C 0.30037 0.09528 0.09389 0.0
C1420 C 0.36014 0.10857 0.11753 0.0
C1421 C 0.3337 0.08778 0.13193 0.0
C1422 C 0.29031 0.07129 0.1272 0.0
C1423 C 0.27365 0.07532 0.10841 0.0
H1424 H 0.40324 0.41859 0.54311 0.0
H1425 H 0.25922 0.44765 0.54488 0.0
H1426 H 0.40913 0.43755 0.57744 0.0
H1427 H 0.26551 0.46714 0.57894 0.0
H1428 H 0.31569 0.56302 0.62812 0.0
H1429 H 0.30991 0.53553 0.59496 0.0
H1430 H 0.37568 0.41015 0.6115 0.0
H1431 H 0.3808 0.43723 0.64486 0.0
C1432 C 0.3728 0.42835 0.55086 0.0
C1433 C 0.33084 0.43186 0.54124 0.0
C1434 C 0.3762 0.43914 0.57047 0.0
C1435 C 0.33786 0.45428 0.58069 0.0
C1436 C 0.29565 0.45603 0.57129 0.0
C1437 C 0.29207 0.44457 0.55182 0.0
C1438 C 0.32882 0.52956 0.62471 0.0
C1439 C 0.34827 0.50208 0.6391 0.0
C1440 C 0.32534 0.51379 0.60578 0.0
C1441 C 0.34204 0.47062 0.60078 0.0
C1442 C 0.36249 0.44352 0.61504 0.0
C1443 C 0.36517 0.45893 0.63409 0.0
H1444 H 0.86631 0.12181 0.39624 0.0
H1445 H 0.73879 0.06408 0.37735 0.0
H1446 H 0.8962 0.11528 0.36332 0.0
H1447 H 0.76897 0.05695 0.34471 0.0
H1448 H 0.85628 1.00241 0.29568 0.0
H1449 H 0.83582 1.00898 0.32963 0.0
H1450 H 0.87351 0.15079 0.3289 0.0
H1451 H 0.89358 0.14466 0.29468 0.0
C1452 C 0.8448 0.10756 0.3851 0.0
C1453 C 0.8003 0.09321 0.38937 0.0
C1454 C 0.86185 0.10403 0.36631 0.0
C1455 C 0.83497 0.08526 0.35161 0.0
C1456 C 0.79053 0.07103 0.35588 0.0
C1457 C 0.77323 0.07531 0.37453 0.0
C1458 C 0.86095 0.03489 0.30277 0.0
C1459 C 0.87615 0.07317 0.29242 0.0
C1460 C 0.84899 0.03862 0.32218 0.0
C1461 C 0.85266 0.08047 0.33174 0.0
C1462 C 0.87043 0.11814 0.3218 0.0
C1463 C 0.8818 0.11461 0.30224 0.0
H1464 H 0.16747 0.64564 0.0442 0.0
H1465 H 0.31088 0.61368 0.04548 0.0
H1466 H 0.16132 0.62466 0.07829 0.0
H1467 H 0.30444 0.59246 0.07941 0.0
H1468 H 0.25488 0.49509 0.12789 0.0
H1469 H 0.26213 0.52517 0.0952 0.0
H1470 H 0.19146 0.6473 0.11232 0.0
H1471 H 0.18456 0.61745 0.14522 0.0
C1472 C 0.19777 0.63483 0.05181 0.0
C1473 C 0.23958 0.631 0.04209 0.0
C1474 C 0.19423 0.62292 0.07131 0.0
C1475 C 0.2323 0.60644 0.08137 0.0
C1476 C 0.27446 0.60451 0.0719 0.0
C1477 C 0.27815 0.61698 0.0525 0.0
C1478 C 0.24091 0.52837 0.12471 0.0
C1479 C 0.21937 0.55401 0.13915 0.0
C1480 C 0.24532 0.54569 0.10603 0.0
C1481 C 0.22769 0.5887 0.1013 0.0
C1482 C 0.20537 0.61405 0.11561 0.0
C1483 C 0.20159 0.59702 0.13442 0.0
H1484 H 0.68757 0.93363 0.89281 0.0
H1485 H 0.81349 0.99853 0.87623 0.0
H1486 H 0.6588 0.9432 0.85988 0.0
H1487 H 0.78445 1.00852 0.8435 0.0
H1488 H 0.69858 0.06337 0.79399 0.0
H1489 H 0.71859 0.05479 0.82796 0.0
H1490 H 0.68185 0.91279 0.8257 0.0
H1491 H 0.66217 0.92105 0.79156 0.0
C1492 C 0.70897 0.95012 0.88217 0.0
C1493 C 0.75267 0.96559 0.8871 0.0
C1494 C 0.69256 0.95539 0.86335 0.0
C1495 C 0.71927 0.97697 0.84926 0.0
C1496 C 0.76296 0.99233 0.85419 0.0
C1497 C 0.77965 0.98636 0.87287 0.0
C1498 C 0.694 1.03047 0.80078 0.0
C1499 C 0.67913 0.99277 0.79004 0.0
C1500 C 0.70577 1.02555 0.82018 0.0
C1501 C 0.70223 0.98304 0.82933 0.0
C1502 C 0.68484 0.94594 0.81895 0.0
C1503 C 0.67367 0.95068 0.79943 0.0
H1504 H 0.55788 0.40746 0.00763 0.0
H1505 H 0.66461 0.31522 0.98972 0.0
H1506 H 0.50254 0.34768 0.00356 0.0
H1507 H 0.6085 0.25641 0.98439 0.0
H1508 H 0.40403 0.24065 0.98985 0.0
H1509 H 0.46036 0.29883 0.9838 0.0
H1510 H 0.56577 0.20883 0.00465 0.0
H1511 H 0.5102 0.14946 0.00944 0.0
C1512 C 0.56963 0.37478 0.00244 0.0
C1513 C 0.61615 0.36653 -0.00075 0.0
C1514 C 0.53755 0.3405 -0.00017 0.0
C1515 C 0.55093 0.29697 -0.00627 0.0
C1516 C 0.59705 0.28933 0.98942 0.0
C1517 C 0.62935 0.32355 -0.00774 0.0
C1518 C 0.43922 0.23238 -0.00738 0.0
C1519 C 0.45217 0.18989 0.00028 0.0
C1520 C 0.47165 0.26628 0.98936 0.0
C1521 C 0.51766 0.25888 -0.00606 0.0
C1522 C 0.53083 0.21579 0.00071 0.0
C1523 C 0.49862 0.18177 0.00373 0.0
H1524 H 0.66227 0.76126 0.25548 0.0
H1525 H 0.57126 0.65182 0.23964 0.0
H1526 H 0.60106 0.81521 0.25176 0.0
H1527 H 0.51074 0.70653 0.23468 0.0
H1528 H 0.49029 0.91115 0.2396 0.0
H1529 H 0.54933 0.85603 0.23281 0.0
H1530 H 0.4639 0.74874 0.25534 0.0
H1531 H 0.40374 0.80302 0.2609 0.0
C1532 C 0.6295 0.74862 0.2508 0.0
C1533 C 0.62203 0.70175 0.24816 0.0
C1534 C 0.59434 0.7799 0.24839 0.0
C1535 C 0.55064 0.76538 0.24306 0.0
C1536 C 0.54376 0.71889 0.23916 0.0
C1537 C 0.57891 0.68739 0.24179 0.0
C1538 C 0.48323 0.87575 0.24258 0.0
C1539 C 0.44184 0.86189 0.25095 0.0
C1540 C 0.51761 0.84403 0.23889 0.0
C1541 C 0.51178 0.79785 0.24371 0.0
C1542 C 0.46967 0.78378 0.25118 0.0
C1543 C 0.4352 0.81527 0.25465 0.0
H1544 H 0.15949 0.82362 0.48804 0.0
H1545 H 0.05188 0.91277 0.50769 0.0
H1546 H 0.10382 0.76537 0.48104 0.0
H1547 H 0.99695 0.85332 0.50199 0.0
H1548 H 0.89929 0.74624 0.48767 0.0
H1549 H 0.95473 0.80564 0.4818 0.0
H1550 H 0.0622 0.71522 0.50033 0.0
H1551 H 1.00751 0.65502 0.50493 0.0
C1552 C 0.1241 0.83145 0.49058 0.0
C1553 C 0.11054 0.87328 0.49862 0.0
C1554 C 0.09205 0.79751 0.48678 0.0
C1555 C 0.04582 0.8042 0.49119 0.0
C1556 C 0.03205 0.84685 0.49818 0.0
C1557 C 0.06389 0.88092 0.50173 0.0
C1558 C 0.93477 0.73828 0.48991 0.0
C1559 C 0.94861 0.69552 0.49697 0.0
C1560 C 0.96668 0.77279 0.48676 0.0
C1561 C 1.01302 0.76563 0.49084 0.0
C1562 C 1.02702 0.72213 0.4968 0.0
C1563 C 0.99533 0.68758 0.49972 0.0
H1564 H 0.06365 0.15469 0.74644 0.0
H1565 H 0.14814 0.26322 0.76877 0.0
H1566 H 1.00497 0.20982 0.73864 0.0
H1567 H 0.08878 0.31771 0.76125 0.0
H1568 H 0.95331 0.39338 0.76388 0.0
H1569 H 1.00909 0.33586 0.7722 0.0
H1570 H 0.9954 0.27629 0.71566 0.0
H1571 H 0.9404 0.33451 0.7069 0.0
C1572 C 0.07031 0.19006 0.74953 0.0
C1573 C 0.11142 0.2042 0.75807 0.0
C1574 C 0.0363 0.22169 0.74513 0.0
C1575 C 0.04231 0.26799 0.74938 0.0
C1576 C 0.08298 0.28213 0.75804 0.0
C1577 C 0.11708 0.25072 0.76228 0.0
C1578 C 0.96241 0.36875 0.75299 0.0
C1579 C 0.94278 0.36966 0.73445 0.0
C1580 C 0.99429 0.33544 0.75789 0.0
C1581 C 1.00677 0.30183 0.74453 0.0
C1582 C 0.98618 0.30164 0.72629 0.0
C1583 C 0.95468 0.33518 0.72129 0.0
H1584 H 0.64517 0.84868 0.96743 0.0
H1585 H 0.57859 0.88503 0.02093 0.0
H1586 H 0.58793 0.79077 0.96184 0.0
H1587 H 0.52087 0.82747 0.01498 0.0
H1588 H 0.40136 0.75142 0.98567 0.0
H1589 H 0.4576 0.81017 -0.00787 0.0
H1590 H 0.56509 0.71723 0.97653 0.0
H1591 H 0.5093 0.65826 0.97023 0.0
C1592 C 0.61891 0.84413 0.97817 0.0
C1593 C 0.61733 0.8712 -0.0051 0.0
C1594 C 0.58582 0.81097 0.97486 0.0
C1595 C 0.55009 0.80439 0.98804 0.0
C1596 C 0.54782 0.83199 0.0045 0.0
C1597 C 0.58105 0.86493 0.0079 0.0
C1598 C 0.4369 0.74301 0.98393 0.0
C1599 C 0.4506 0.69971 0.97751 0.0
C1600 C 0.46917 0.7769 0.98756 0.0
C1601 C 0.51572 0.76836 0.98471 0.0
C1602 C 0.52941 0.72506 0.97854 0.0
C1603 C 0.49732 0.69122 0.975 0.0
H1604 H 0.56174 0.15326 0.73691 0.0
H1605 H 0.64618 0.26264 0.71507 0.0
H1606 H 0.50247 0.20798 0.74444 0.0
H1607 H 0.58624 0.31661 0.72227 0.0
H1608 H 0.43707 0.33325 0.77585 0.0
H1609 H 0.49212 0.2748 0.76742 0.0
H1610 H 0.50652 0.33367 0.71067 0.0
H1611 H 0.45067 0.39131 0.71864 0.0
C1612 C 0.56825 0.18872 0.73387 0.0
C1613 C 0.60952 0.20324 0.72554 0.0
C1614 C 0.53391 0.22009 0.73811 0.0
C1615 C 0.53975 0.26645 0.73387 0.0
C1616 C 0.58059 0.28096 0.72545 0.0
C1617 C 0.61501 0.24984 0.72139 0.0
C1618 C 0.4515 0.33368 0.76148 0.0
C1619 C 0.43988 0.36804 0.74817 0.0
C1620 C 0.48301 0.30002 0.75667 0.0
C1621 C 0.50387 0.30004 0.73848 0.0
C1622 C 0.49152 0.33343 0.72495 0.0
C1623 C 0.45963 0.36681 0.72965 0.0
H1624 H 0.16009 0.31652 0.47336 0.0
H1625 H 0.06133 0.41563 0.49201 0.0
H1626 H 0.10384 0.25652 0.4768 0.0
H1627 H 1.00534 0.35545 0.49652 0.0
H1628 H 0.9031 0.25046 0.4735 0.0
H1629 H 0.95944 0.31022 0.47722 0.0
H1630 H 0.05822 0.21021 0.49584 0.0
H1631 H 1.0021 0.15032 0.49106 0.0
C1632 C 0.1267 0.32519 0.4788 0.0
C1633 C 0.11498 0.37062 0.4824 0.0
C1634 C 0.09431 0.29077 0.48084 0.0
C1635 C 0.04965 0.30099 0.48681 0.0
C1636 C 0.03891 0.34632 0.49143 0.0
C1637 C 0.07106 0.3808 0.48901 0.0
C1638 C 0.93657 0.24148 0.47876 0.0
C1639 C 0.94832 0.19585 0.48197 0.0
C1640 C 0.96902 0.27576 0.48096 0.0
C1641 C 1.01377 0.2652 0.48672 0.0
C1642 C 1.02456 0.21963 0.49094 0.0
C1643 C 0.99234 0.1853 0.48836 0.0
H1644 H 0.07134 0.65082 0.24173 0.0
H1645 H 0.15897 0.76071 0.223 0.0
H1646 H 1.01081 0.70491 0.24751 0.0
H1647 H 0.09749 0.81407 0.22763 0.0
H1648 H 0.89972 0.79999 0.22322 0.0
H1649 H 0.96109 0.74631 0.22747 0.0
H1650 H 0.04797 0.85432 0.2481 0.0
H1651 H 0.98759 0.90877 0.24272 0.0
C1652 C 0.07829 0.68639 0.23911 0.0
C1653 C 0.12048 0.70106 0.23176 0.0
C1654 C 0.04309 0.7175 0.24222 0.0
C1655 C 0.04895 0.7639 0.23785 0.0
C1656 C 0.0917 0.77879 0.2314 0.0
C1657 C 0.12696 0.74787 0.22848 0.0
C1658 C 0.93175 0.81252 0.22879 0.0
C1659 C 0.93834 0.85917 0.23236 0.0
C1660 C 0.96694 0.78139 0.23148 0.0
C1661 C 1.00974 0.7959 0.23801 0.0
C1662 C 1.01566 0.84205 0.24272 0.0
C1663 C 0.98053 0.87338 0.23983 0.0
loop_
_geom_bond_atom_site_label_1
_geom_bond_atom_site_label_2
_geom_bond_distance
_geom_bond_site_symmetry_2
_ccdc_geom_bond_type
Zn0 N4 2.020 . S
Zn0 O8 2.019 . S
Zn0 N10 2.119 . S
Zn0 O18 1.975 . S
C1 N2 1.334 . S
C1 N5 1.336 . S
N2 C1 1.334 . S
N2 C3 1.334 . S
C3 N2 1.334 . S
C3 N4 1.336 . S
N4 Zn0 2.020 . S
N4 C3 1.336 . S
N4 N5 1.354 . S
N5 C1 1.336 . S
N5 N4 1.354 . S
N5 Zn9 2.020 . S
C6 O7 1.244 . S
C6 O30 1.257 . S
O7 C6 1.244 . S
O8 Zn0 2.019 . S
O8 C28 1.257 . S
Zn9 N5 2.020 . S
Zn9 O16 1.975 . S
Zn9 N25 2.119 . S
Zn9 O30 2.019 1_554 S
N10 Zn0 2.119 . S
N10 C12 1.334 . S
N10 C13 1.328 . S
C11 C12 1.391 . S
C11 N14 1.329 . S
C11 H32 0.930 . S
C12 N10 1.334 . S
C12 C11 1.391 . S
C12 H19 0.930 . S
C13 N10 1.328 . S
C13 C15 1.392 . S
C13 H20 0.930 . S
N14 C11 1.329 . S
N14 C15 1.331 . S
C15 C13 1.392 . S
C15 N14 1.331 . S
O16 Zn9 1.975 . S
O16 C17 1.252 . S
C17 O16 1.252 . S
C17 O18 1.252 . S
O18 Zn0 1.975 . S
O18 C17 1.252 . S
H19 C12 0.930 . S
H20 C13 0.930 . S
C21 C22 1.392 . S
C21 N25 1.328 1_556 S
C21 H27 0.930 . S
C22 C21 1.392 . S
C22 N26 1.331 1_556 S
C23 C24 1.391 . S
C23 N26 1.329 . S
C23 H33 0.930 . S
C24 C23 1.391 . S
C24 N25 1.334 . S
C24 H31 0.930 . S
N25 Zn9 2.119 . S
N25 C21 1.328 1_554 S
N25 C24 1.334 . S
N26 C22 1.331 1_554 S
N26 C23 1.329 . S
H27 C21 0.930 . S
C28 O8 1.257 . S
C28 O29 1.244 . S
O29 C28 1.244 . S
O30 C6 1.257 . S
O30 Zn9 2.019 1_556 S
H31 C24 0.930 . S
H32 C11 0.930 . S
H33 C23 0.930 . S
Zn34 N38 2.020 . S
Zn34 O42 2.019 . S
Zn34 N44 2.119 . S
Zn34 O52 1.975 . S
C35 N36 1.334 . S
C35 N39 1.336 . S
N36 C35 1.334 . S
N36 C37 1.334 . S
C37 N36 1.334 . S
C37 N38 1.336 . S
N38 Zn34 2.020 . S
N38 C37 1.336 . S
N38 N39 1.354 . S
N39 C35 1.336 . S
N39 N38 1.354 . S
N39 Zn43 2.020 . S
C40 O41 1.244 . S
C40 O64 1.257 . S
O41 C40 1.244 . S
O42 Zn34 2.019 . S
O42 C62 1.257 . S
Zn43 N39 2.020 . S
Zn43 O50 1.975 . S
Zn43 N59 2.119 . S
Zn43 O64 2.019 . S
N44 Zn34 2.119 . S
N44 C46 1.334 . S
N44 C47 1.328 . S
C45 C46 1.391 . S
C45 N48 1.329 . S
C45 H66 0.930 . S
C46 N44 1.334 . S
C46 C45 1.391 . S
C46 H53 0.930 . S
C47 N44 1.328 . S
C47 C49 1.392 . S
C47 H54 0.930 . S
N48 C45 1.329 . S
N48 C49 1.331 . S
C49 C47 1.392 . S
C49 N48 1.331 . S
O50 Zn43 1.975 . S
O50 C51 1.252 . S
C51 O50 1.252 . S
C51 O52 1.252 . S
O52 Zn34 1.975 . S
O52 C51 1.252 . S
H53 C46 0.930 . S
H54 C47 0.930 . S
C55 C56 1.392 . S
C55 N59 1.328 . S
C55 H61 0.930 . S
C56 C55 1.392 . S
C56 N60 1.331 . S
C57 C58 1.391 . S
C57 N60 1.329 . S
C57 H67 0.930 . S
C58 C57 1.391 . S
C58 N59 1.334 . S
C58 H65 0.930 . S
N59 Zn43 2.119 . S
N59 C55 1.328 . S
N59 C58 1.334 . S
N60 C56 1.331 . S
N60 C57 1.329 . S
H61 C55 0.930 . S
C62 O42 1.257 . S
C62 O63 1.244 . S
O63 C62 1.244 . S
O64 C40 1.257 . S
O64 Zn43 2.019 . S
H65 C58 0.930 . S
H66 C45 0.930 . S
H67 C57 0.930 . S
Zn68 N72 2.020 . S
Zn68 O76 2.019 . S
Zn68 N78 2.119 . S
Zn68 O86 1.975 . S
C69 N70 1.334 . S
C69 N73 1.336 . S
N70 C69 1.334 . S
N70 C71 1.334 . S
C71 N70 1.334 . S
C71 N72 1.336 . S
N72 Zn68 2.020 . S
N72 C71 1.336 . S
N72 N73 1.354 . S
N73 C69 1.336 . S
N73 N72 1.354 . S
N73 Zn77 2.020 . S
C74 O75 1.244 . S
C74 O98 1.257 . S
O75 C74 1.244 . S
O76 Zn68 2.019 . S
O76 C96 1.257 . S
Zn77 N73 2.020 . S
Zn77 O84 1.975 . S
Zn77 N93 2.119 . S
Zn77 O98 2.019 . S
N78 Zn68 2.119 . S
N78 C80 1.334 . S
N78 C81 1.328 . S
C79 C80 1.391 . S
C79 N82 1.329 . S
C79 H100 0.930 . S
C80 N78 1.334 . S
C80 C79 1.391 . S
C80 H87 0.930 . S
C81 N78 1.328 . S
C81 C83 1.392 . S
C81 H88 0.930 . S
N82 C79 1.329 . S
N82 C83 1.331 . S
C83 C81 1.392 . S
C83 N82 1.331 . S
O84 Zn77 1.975 . S
O84 C85 1.252 . S
C85 O84 1.252 . S
C85 O86 1.252 . S
O86 Zn68 1.975 . S
O86 C85 1.252 . S
H87 C80 0.930 . S
H88 C81 0.930 . S
C89 C90 1.392 . S
C89 N93 1.328 . S
C89 H95 0.930 . S
C90 C89 1.392 . S
C90 N94 1.331 . S
C91 C92 1.391 . S
C91 N94 1.329 . S
C91 H101 0.930 . S
C92 C91 1.391 . S
C92 N93 1.334 . S
C92 H99 0.930 . S
N93 Zn77 2.119 . S
N93 C89 1.328 . S
N93 C92 1.334 . S
N94 C90 1.331 . S
N94 C91 1.329 . S
H95 C89 0.930 . S
C96 O76 1.257 . S
C96 O97 1.244 . S
O97 C96 1.244 . S
O98 C74 1.257 . S
O98 Zn77 2.019 . S
H99 C92 0.930 . S
H100 C79 0.930 . S
H101 C91 0.930 . S
Zn102 N106 2.020 . S
Zn102 O110 2.019 . S
Zn102 N112 2.119 . S
Zn102 O120 1.975 . S
C103 N104 1.334 . S
C103 N107 1.336 . S
N104 C103 1.334 . S
N104 C105 1.334 . S
C105 N104 1.334 . S
C105 N106 1.336 . S
N106 Zn102 2.020 . S
N106 C105 1.336 . S
N106 N107 1.354 . S
N107 C103 1.336 . S
N107 N106 1.354 . S
N107 Zn111 2.020 . S
C108 O109 1.244 . S
C108 O132 1.257 . S
O109 C108 1.244 . S
O110 Zn102 2.019 . S
O110 C130 1.257 . S
Zn111 N107 2.020 . S
Zn111 O118 1.975 . S
Zn111 N127 2.119 . S
Zn111 O132 2.019 . S
N112 Zn102 2.119 . S
N112 C114 1.334 . S
N112 C115 1.328 . S
C113 C114 1.391 . S
C113 N116 1.329 . S
C113 H134 0.930 . S
C114 N112 1.334 . S
C114 C113 1.391 . S
C114 H121 0.930 . S
C115 N112 1.328 . S
C115 C117 1.392 . S
C115 H122 0.930 . S
N116 C113 1.329 . S
N116 C117 1.331 . S
C117 C115 1.392 . S
C117 N116 1.331 . S
O118 Zn111 1.975 . S
O118 C119 1.252 . S
C119 O118 1.252 . S
C119 O120 1.252 . S
O120 Zn102 1.975 . S
O120 C119 1.252 . S
H121 C114 0.930 . S
H122 C115 0.930 . S
C123 C124 1.392 . S
C123 N127 1.328 . S
C123 H129 0.930 . S
C124 C123 1.392 . S
C124 N128 1.331 . S
C125 C126 1.391 . S
C125 N128 1.329 . S
C125 H135 0.930 . S
C126 C125 1.391 . S
C126 N127 1.334 . S
C126 H133 0.930 . S
N127 Zn111 2.119 . S
N127 C123 1.328 . S
N127 C126 1.334 . S
N128 C124 1.331 . S
N128 C125 1.329 . S
H129 C123 0.930 . S
C130 O110 1.257 . S
C130 O131 1.244 . S
O131 C130 1.244 . S
O132 C108 1.257 . S
O132 Zn111 2.019 . S
H133 C126 0.930 . S
H134 C113 0.930 . S
H135 C125 0.930 . S
Zn136 N140 2.020 . S
Zn136 O144 2.019 1_556 S
Zn136 N146 2.119 . S
Zn136 O154 1.975 . S
C137 N138 1.334 . S
C137 N141 1.336 . S
N138 C137 1.334 . S
N138 C139 1.334 . S
C139 N138 1.334 . S
C139 N140 1.336 . S
N140 Zn136 2.020 . S
N140 C139 1.336 . S
N140 N141 1.354 . S
N141 C137 1.336 . S
N141 N140 1.354 . S
N141 Zn145 2.020 . S
C142 O143 1.244 . S
C142 O166 1.257 . S
O143 C142 1.244 . S
O144 Zn136 2.019 1_554 S
O144 C164 1.257 . S
Zn145 N141 2.020 . S
Zn145 O152 1.975 . S
Zn145 N161 2.119 . S
Zn145 O166 2.019 . S
N146 Zn136 2.119 . S
N146 C148 1.334 . S
N146 C149 1.328 1_556 S
C147 C148 1.391 . S
C147 N150 1.329 . S
C147 H168 0.930 . S
C148 N146 1.334 . S
C148 C147 1.391 . S
C148 H155 0.930 . S
C149 N146 1.328 1_554 S
C149 C151 1.392 . S
C149 H156 0.930 . S
N150 C147 1.329 . S
N150 C151 1.331 1_556 S
C151 C149 1.392 . S
C151 N150 1.331 1_554 S
O152 Zn145 1.975 . S
O152 C153 1.252 . S
C153 O152 1.252 . S
C153 O154 1.252 . S
O154 Zn136 1.975 . S
O154 C153 1.252 . S
H155 C148 0.930 . S
H156 C149 0.930 . S
C157 C158 1.392 . S
C157 N161 1.328 . S
C157 H163 0.930 . S
C158 C157 1.392 . S
C158 N162 1.331 . S
C159 C160 1.391 . S
C159 N162 1.329 . S
C159 H169 0.930 . S
C160 C159 1.391 . S
C160 N161 1.334 . S
C160 H167 0.930 . S
N161 Zn145 2.119 . S
N161 C157 1.328 . S
N161 C160 1.334 . S
N162 C158 1.331 . S
N162 C159 1.329 . S
H163 C157 0.930 . S
C164 O144 1.257 . S
C164 O165 1.244 . S
O165 C164 1.244 . S
O166 C142 1.257 . S
O166 Zn145 2.019 . S
H167 C160 0.930 . S
H168 C147 0.930 . S
H169 C159 0.930 . S
Zn170 N174 2.020 . S
Zn170 O178 2.019 . S
Zn170 N180 2.119 . S
Zn170 O188 1.975 . S
C171 N172 1.334 . S
C171 N175 1.336 . S
N172 C171 1.334 . S
N172 C173 1.334 . S
C173 N172 1.334 . S
C173 N174 1.336 . S
N174 Zn170 2.020 . S
N174 C173 1.336 . S
N174 N175 1.354 . S
N175 C171 1.336 . S
N175 N174 1.354 . S
N175 Zn179 2.020 . S
C176 O177 1.244 . S
C176 O200 1.257 . S
O177 C176 1.244 . S
O178 Zn170 2.019 . S
O178 C198 1.257 . S
Zn179 N175 2.020 . S
Zn179 O186 1.975 . S
Zn179 N195 2.119 . S
Zn179 O200 2.019 . S
N180 Zn170 2.119 . S
N180 C182 1.334 . S
N180 C183 1.328 . S
C181 C182 1.391 . S
C181 N184 1.329 . S
C181 H202 0.930 . S
C182 N180 1.334 . S
C182 C181 1.391 . S
C182 H189 0.930 . S
C183 N180 1.328 . S
C183 C185 1.392 . S
C183 H190 0.930 . S
N184 C181 1.329 . S
N184 C185 1.331 . S
C185 C183 1.392 . S
C185 N184 1.331 . S
O186 Zn179 1.975 . S
O186 C187 1.252 . S
C187 O186 1.252 . S
C187 O188 1.252 . S
O188 Zn170 1.975 . S
O188 C187 1.252 . S
H189 C182 0.930 . S
H190 C183 0.930 . S
C191 C192 1.392 . S
C191 N195 1.328 . S
C191 H197 0.930 . S
C192 C191 1.392 . S
C192 N196 1.331 . S
C193 C194 1.391 . S
C193 N196 1.329 . S
C193 H203 0.930 . S
C194 C193 1.391 . S
C194 N195 1.334 . S
C194 H201 0.930 . S
N195 Zn179 2.119 . S
N195 C191 1.328 . S
N195 C194 1.334 . S
N196 C192 1.331 . S
N196 C193 1.329 . S
H197 C191 0.930 . S
C198 O178 1.257 . S
C198 O199 1.244 . S
O199 C198 1.244 . S
O200 C176 1.257 . S
O200 Zn179 2.019 . S
H201 C194 0.930 . S
H202 C181 0.930 . S
H203 C193 0.930 . S
Zn204 N208 2.020 . S
Zn204 O212 2.019 . S
Zn204 N214 2.119 . S
Zn204 O222 1.975 . S
C205 N206 1.334 . S
C205 N209 1.336 . S
N206 C205 1.334 . S
N206 C207 1.334 . S
C207 N206 1.334 . S
C207 N208 1.336 . S
N208 Zn204 2.020 . S
N208 C207 1.336 . S
N208 N209 1.354 . S
N209 C205 1.336 . S
N209 N208 1.354 . S
N209 Zn213 2.020 . S
C210 O211 1.244 . S
C210 O234 1.257 . S
O211 C210 1.244 . S
O212 Zn204 2.019 . S
O212 C232 1.257 . S
Zn213 N209 2.020 . S
Zn213 O220 1.975 . S
Zn213 N229 2.119 . S
Zn213 O234 2.019 . S
N214 Zn204 2.119 . S
N214 C216 1.334 . S
N214 C217 1.328 . S
C215 C216 1.391 . S
C215 N218 1.329 . S
C215 H236 0.930 . S
C216 N214 1.334 . S
C216 C215 1.391 . S
C216 H223 0.930 . S
C217 N214 1.328 . S
C217 C219 1.392 . S
C217 H224 0.930 . S
N218 C215 1.329 . S
N218 C219 1.331 . S
C219 C217 1.392 . S
C219 N218 1.331 . S
O220 Zn213 1.975 . S
O220 C221 1.252 . S
C221 O220 1.252 . S
C221 O222 1.252 . S
O222 Zn204 1.975 . S
O222 C221 1.252 . S
H223 C216 0.930 . S
H224 C217 0.930 . S
C225 C226 1.392 . S
C225 N229 1.328 . S
C225 H231 0.930 . S
C226 C225 1.392 . S
C226 N230 1.331 . S
C227 C228 1.391 . S
C227 N230 1.329 . S
C227 H237 0.930 . S
C228 C227 1.391 . S
C228 N229 1.334 . S
C228 H235 0.930 . S
N229 Zn213 2.119 . S
N229 C225 1.328 . S
N229 C228 1.334 . S
N230 C226 1.331 . S
N230 C227 1.329 . S
H231 C225 0.930 . S
C232 O212 1.257 . S
C232 O233 1.244 . S
O233 C232 1.244 . S
O234 C210 1.257 . S
O234 Zn213 2.019 . S
H235 C228 0.930 . S
H236 C215 0.930 . S
H237 C227 0.930 . S
Zn238 N242 2.020 . S
Zn238 O246 2.019 . S
Zn238 N248 2.119 . S
Zn238 O256 1.975 . S
C239 N240 1.334 . S
C239 N243 1.336 . S
N240 C239 1.334 . S
N240 C241 1.334 . S
C241 N240 1.334 . S
C241 N242 1.336 . S
N242 Zn238 2.020 . S
N242 C241 1.336 . S
N242 N243 1.354 . S
N243 C239 1.336 . S
N243 N242 1.354 . S
N243 Zn247 2.020 . S
C244 O245 1.244 . S
C244 O268 1.257 . S
O245 C244 1.244 . S
O246 Zn238 2.019 . S
O246 C266 1.257 . S
Zn247 N243 2.020 . S
Zn247 O254 1.975 . S
Zn247 N263 2.119 . S
Zn247 O268 2.019 . S
N248 Zn238 2.119 . S
N248 C250 1.334 . S
N248 C251 1.328 . S
C249 C250 1.391 . S
C249 N252 1.329 . S
C249 H270 0.930 . S
C250 N248 1.334 . S
C250 C249 1.391 . S
C250 H257 0.930 . S
C251 N248 1.328 . S
C251 C253 1.392 . S
C251 H258 0.930 . S
N252 C249 1.329 . S
N252 C253 1.331 . S
C253 C251 1.392 . S
C253 N252 1.331 . S
O254 Zn247 1.975 . S
O254 C255 1.252 . S
C255 O254 1.252 . S
C255 O256 1.252 . S
O256 Zn238 1.975 . S
O256 C255 1.252 . S
H257 C250 0.930 . S
H258 C251 0.930 . S
C259 C260 1.392 . S
C259 N263 1.328 . S
C259 H265 0.930 . S
C260 C259 1.392 . S
C260 N264 1.331 . S
C261 C262 1.391 . S
C261 N264 1.329 . S
C261 H271 0.930 . S
C262 C261 1.391 . S
C262 N263 1.334 . S
C262 H269 0.930 . S
N263 Zn247 2.119 . S
N263 C259 1.328 . S
N263 C262 1.334 . S
N264 C260 1.331 . S
N264 C261 1.329 . S
H265 C259 0.930 . S
C266 O246 1.257 . S
C266 O267 1.244 . S
O267 C266 1.244 . S
O268 C244 1.257 . S
O268 Zn247 2.019 . S
H269 C262 0.930 . S
H270 C249 0.930 . S
H271 C261 0.930 . S
Zn272 N276 2.020 . S
Zn272 O280 2.019 . S
Zn272 N282 2.119 . S
Zn272 O290 1.975 . S
C273 N274 1.334 . S
C273 N277 1.336 . S
N274 C273 1.334 . S
N274 C275 1.334 . S
C275 N274 1.334 . S
C275 N276 1.336 . S
N276 Zn272 2.020 . S
N276 C275 1.336 . S
N276 N277 1.354 . S
N277 C273 1.336 . S
N277 N276 1.354 . S
N277 Zn281 2.020 . S
C278 O279 1.244 . S
C278 O302 1.257 . S
O279 C278 1.244 . S
O280 Zn272 2.019 . S
O280 C300 1.257 . S
Zn281 N277 2.020 . S
Zn281 O288 1.975 . S
Zn281 N297 2.119 . S
Zn281 O302 2.019 . S
N282 Zn272 2.119 . S
N282 C284 1.334 . S
N282 C285 1.328 . S
C283 C284 1.391 . S
C283 N286 1.329 . S
C283 H304 0.930 . S
C284 N282 1.334 . S
C284 C283 1.391 . S
C284 H291 0.930 . S
C285 N282 1.328 . S
C285 C287 1.392 . S
C285 H292 0.930 . S
N286 C283 1.329 . S
N286 C287 1.331 . S
C287 C285 1.392 . S
C287 N286 1.331 . S
O288 Zn281 1.975 . S
O288 C289 1.252 . S
C289 O288 1.252 . S
C289 O290 1.252 . S
O290 Zn272 1.975 . S
O290 C289 1.252 . S
H291 C284 0.930 . S
H292 C285 0.930 . S
C293 C294 1.392 . S
C293 N297 1.328 . S
C293 H299 0.930 . S
C294 C293 1.392 . S
C294 N298 1.331 . S
C295 C296 1.391 . S
C295 N298 1.329 . S
C295 H305 0.930 . S
C296 C295 1.391 . S
C296 N297 1.334 . S
C296 H303 0.930 . S
N297 Zn281 2.119 . S
N297 C293 1.328 . S
N297 C296 1.334 . S
N298 C294 1.331 . S
N298 C295 1.329 . S
H299 C293 0.930 . S
C300 O280 1.257 . S
C300 O301 1.244 . S
O301 C300 1.244 . S
O302 C278 1.257 . S
O302 Zn281 2.019 . S
H303 C296 0.930 . S
H304 C283 0.930 . S
H305 C295 0.930 . S
Zn306 N310 2.020 . S
Zn306 O314 2.019 . S
Zn306 N316 2.119 . S
Zn306 O324 1.975 . S
C307 N308 1.334 . S
C307 N311 1.336 1_565 S
N308 C307 1.334 . S
N308 C309 1.334 1_565 S
C309 N308 1.334 1_545 S
C309 N310 1.336 . S
N310 Zn306 2.020 . S
N310 C309 1.336 . S
N310 N311 1.354 . S
N311 C307 1.336 1_545 S
N311 N310 1.354 . S
N311 Zn315 2.019 1_545 S
C312 O313 1.244 . S
C312 O336 1.257 . S
O313 C312 1.244 . S
O314 Zn306 2.019 . S
O314 C334 1.276 . S
Zn315 N311 2.019 1_565 S
Zn315 O322 1.965 1_565 S
Zn315 N331 2.138 . S
Zn315 O336 2.018 1_565 S
N316 Zn306 2.119 . S
N316 C318 1.334 . S
N316 C319 1.328 . S
C317 C318 1.391 . S
C317 N320 1.329 . S
C317 H338 0.930 . S
C318 N316 1.334 . S
C318 C317 1.391 . S
C318 H325 0.930 . S
C319 N316 1.328 . S
C319 C321 1.392 . S
C319 H326 0.930 . S
N320 C317 1.329 . S
N320 C321 1.331 . S
C321 C319 1.392 . S
C321 N320 1.331 . S
O322 Zn315 1.965 1_545 S
O322 C323 1.252 . S
C323 O322 1.252 . S
C323 O324 1.252 . S
O324 Zn306 1.975 . S
O324 C323 1.252 . S
H325 C318 0.930 . S
H326 C319 0.930 . S
C327 C328 1.392 . S
C327 N331 1.328 . S
C327 H333 0.930 . S
C328 C327 1.392 . S
C328 N332 1.331 . S
C329 C330 1.391 . S
C329 N332 1.329 . S
C329 H339 0.930 . S
C330 C329 1.391 . S
C330 N331 1.334 . S
C330 H337 0.930 . S
N331 Zn315 2.138 . S
N331 C327 1.328 . S
N331 C330 1.334 . S
N332 C328 1.331 . S
N332 C329 1.329 . S
H333 C327 0.930 . S
C334 O314 1.276 . S
C334 O335 1.230 1_545 S
O335 C334 1.230 1_565 S
O336 C312 1.257 . S
O336 Zn315 2.018 1_545 S
H337 C330 0.930 . S
H338 C317 0.930 . S
H339 C329 0.930 . S
Zn340 N344 2.020 . S
Zn340 O348 2.019 1_554 S
Zn340 N350 2.119 . S
Zn340 O358 1.975 . S
C341 N342 1.334 . S
C341 N345 1.336 . S
N342 C341 1.334 . S
N342 C343 1.334 . S
C343 N342 1.334 . S
C343 N344 1.336 . S
N344 Zn340 2.020 . S
N344 C343 1.336 . S
N344 N345 1.354 . S
N345 C341 1.336 . S
N345 N344 1.354 . S
N345 Zn349 2.020 . S
C346 O347 1.244 . S
C346 O370 1.257 . S
O347 C346 1.244 . S
O348 Zn340 2.019 1_556 S
O348 C368 1.257 . S
Zn349 N345 2.020 . S
Zn349 O356 1.975 . S
Zn349 N365 2.119 . S
Zn349 O370 2.019 . S
N350 Zn340 2.119 . S
N350 C352 1.334 . S
N350 C353 1.328 1_554 S
C351 C352 1.391 . S
C351 N354 1.329 . S
C351 H372 0.930 . S
C352 N350 1.334 . S
C352 C351 1.391 . S
C352 H359 0.930 . S
C353 N350 1.328 1_556 S
C353 C355 1.392 . S
C353 H360 0.930 . S
N354 C351 1.329 . S
N354 C355 1.331 1_554 S
C355 C353 1.392 . S
C355 N354 1.331 1_556 S
O356 Zn349 1.975 . S
O356 C357 1.252 . S
C357 O356 1.252 . S
C357 O358 1.252 . S
O358 Zn340 1.975 . S
O358 C357 1.252 . S
H359 C352 0.930 . S
H360 C353 0.930 . S
C361 C362 1.392 . S
C361 N365 1.328 . S
C361 H367 0.930 . S
C362 C361 1.392 . S
C362 N366 1.331 . S
C363 C364 1.391 . S
C363 N366 1.329 . S
C363 H373 0.930 . S
C364 C363 1.391 . S
C364 N365 1.334 . S
C364 H371 0.930 . S
N365 Zn349 2.119 . S
N365 C361 1.328 . S
N365 C364 1.334 . S
N366 C362 1.331 . S
N366 C363 1.329 . S
H367 C361 0.930 . S
C368 O348 1.257 . S
C368 O369 1.244 . S
O369 C368 1.244 . S
O370 C346 1.257 . S
O370 Zn349 2.019 . S
H371 C364 0.930 . S
H372 C351 0.930 . S
H373 C363 0.930 . S
Zn374 N378 2.020 . S
Zn374 O382 2.019 . S
Zn374 N384 2.119 . S
Zn374 O392 1.975 . S
C375 N376 1.334 . S
C375 N379 1.336 1_545 S
N376 C375 1.334 . S
N376 C377 1.334 1_545 S
C377 N376 1.334 1_565 S
C377 N378 1.336 . S
N378 Zn374 2.020 . S
N378 C377 1.336 . S
N378 N379 1.354 . S
N379 C375 1.336 1_565 S
N379 N378 1.354 . S
N379 Zn383 2.019 1_565 S
C380 O381 1.244 . S
C380 O404 1.257 . S
O381 C380 1.244 . S
O382 Zn374 2.019 . S
O382 C402 1.276 . S
Zn383 N379 2.019 1_545 S
Zn383 O390 1.965 1_545 S
Zn383 N399 2.138 . S
Zn383 O404 2.018 1_545 S
N384 Zn374 2.119 . S
N384 C386 1.334 . S
N384 C387 1.328 . S
C385 C386 1.391 . S
C385 N388 1.329 . S
C385 H406 0.930 . S
C386 N384 1.334 . S
C386 C385 1.391 . S
C386 H393 0.930 . S
C387 N384 1.328 . S
C387 C389 1.392 . S
C387 H394 0.930 . S
N388 C385 1.329 . S
N388 C389 1.331 . S
C389 C387 1.392 . S
C389 N388 1.331 . S
O390 Zn383 1.965 1_565 S
O390 C391 1.252 . S
C391 O390 1.252 . S
C391 O392 1.252 . S
O392 Zn374 1.975 . S
O392 C391 1.252 . S
H393 C386 0.930 . S
H394 C387 0.930 . S
C395 C396 1.392 . S
C395 N399 1.328 . S
C395 H401 0.930 . S
C396 C395 1.392 . S
C396 N400 1.331 . S
C397 C398 1.391 . S
C397 N400 1.329 . S
C397 H407 0.930 . S
C398 C397 1.391 . S
C398 N399 1.334 . S
C398 H405 0.930 . S
N399 Zn383 2.138 . S
N399 C395 1.328 . S
N399 C398 1.334 . S
N400 C396 1.331 . S
N400 C397 1.329 . S
H401 C395 0.930 . S
C402 O382 1.276 . S
C402 O403 1.230 1_565 S
O403 C402 1.230 1_545 S
O404 C380 1.257 . S
O404 Zn383 2.018 1_565 S
H405 C398 0.930 . S
H406 C385 0.930 . S
H407 C397 0.930 . S
Zn408 N412 2.020 . S
Zn408 O416 2.019 . S
Zn408 N418 2.119 . S
Zn408 O426 1.975 . S
C409 N410 1.334 . S
C409 N413 1.336 . S
N410 C409 1.334 . S
N410 C411 1.334 . S
C411 N410 1.334 . S
C411 N412 1.336 . S
N412 Zn408 2.020 . S
N412 C411 1.336 . S
N412 N413 1.354 . S
N413 C409 1.336 . S
N413 N412 1.354 . S
N413 Zn417 2.020 . S
C414 O415 1.244 . S
C414 O438 1.257 . S
O415 C414 1.244 . S
O416 Zn408 2.019 . S
O416 C436 1.257 . S
Zn417 N413 2.020 . S
Zn417 O424 1.975 . S
Zn417 N433 2.119 . S
Zn417 O438 2.019 . S
N418 Zn408 2.119 . S
N418 C420 1.334 . S
N418 C421 1.328 . S
C419 C420 1.391 . S
C419 N422 1.329 . S
C419 H440 0.930 . S
C420 N418 1.334 . S
C420 C419 1.391 . S
C420 H427 0.930 . S
C421 N418 1.328 . S
C421 C423 1.392 . S
C421 H428 0.930 . S
N422 C419 1.329 . S
N422 C423 1.331 . S
C423 C421 1.392 . S
C423 N422 1.331 . S
O424 Zn417 1.975 . S
O424 C425 1.252 . S
C425 O424 1.252 . S
C425 O426 1.252 . S
O426 Zn408 1.975 . S
O426 C425 1.252 . S
H427 C420 0.930 . S
H428 C421 0.930 . S
C429 C430 1.392 . S
C429 N433 1.328 . S
C429 H435 0.930 . S
C430 C429 1.392 . S
C430 N434 1.331 . S
C431 C432 1.391 . S
C431 N434 1.329 . S
C431 H441 0.930 . S
C432 C431 1.391 . S
C432 N433 1.334 . S
C432 H439 0.930 . S
N433 Zn417 2.119 . S
N433 C429 1.328 . S
N433 C432 1.334 . S
N434 C430 1.331 . S
N434 C431 1.329 . S
H435 C429 0.930 . S
C436 O416 1.257 . S
C436 O437 1.244 . S
O437 C436 1.244 . S
O438 C414 1.257 . S
O438 Zn417 2.019 . S
H439 C432 0.930 . S
H440 C419 0.930 . S
H441 C431 0.930 . S
Zn442 N446 2.020 . S
Zn442 O450 2.019 . S
Zn442 N452 2.119 . S
Zn442 O460 1.975 . S
C443 N444 1.334 . S
C443 N447 1.336 1_545 S
N444 C443 1.334 . S
N444 C445 1.334 1_545 S
C445 N444 1.334 1_565 S
C445 N446 1.336 . S
N446 Zn442 2.020 . S
N446 C445 1.336 . S
N446 N447 1.354 . S
N447 C443 1.336 1_565 S
N447 N446 1.354 . S
N447 Zn451 2.019 1_565 S
C448 O449 1.244 . S
C448 O472 1.257 . S
O449 C448 1.244 . S
O450 Zn442 2.019 . S
O450 C470 1.276 . S
Zn451 N447 2.019 1_545 S
Zn451 O458 1.965 1_545 S
Zn451 N467 2.138 . S
Zn451 O472 2.018 1_545 S
N452 Zn442 2.119 . S
N452 C454 1.334 . S
N452 C455 1.328 . S
C453 C454 1.391 . S
C453 N456 1.329 . S
C453 H474 0.930 . S
C454 N452 1.334 . S
C454 C453 1.391 . S
C454 H461 0.930 . S
C455 N452 1.328 . S
C455 C457 1.392 . S
C455 H462 0.930 . S
N456 C453 1.329 . S
N456 C457 1.331 . S
C457 C455 1.392 . S
C457 N456 1.331 . S
O458 Zn451 1.965 1_565 S
O458 C459 1.252 . S
C459 O458 1.252 . S
C459 O460 1.252 . S
O460 Zn442 1.975 . S
O460 C459 1.252 . S
H461 C454 0.930 . S
H462 C455 0.930 . S
C463 C464 1.392 . S
C463 N467 1.328 . S
C463 H469 0.930 . S
C464 C463 1.392 . S
C464 N468 1.331 . S
C465 C466 1.391 . S
C465 N468 1.329 . S
C465 H475 0.930 . S
C466 C465 1.391 . S
C466 N467 1.334 . S
C466 H473 0.930 . S
N467 Zn451 2.138 . S
N467 C463 1.328 . S
N467 C466 1.334 . S
N468 C464 1.331 . S
N468 C465 1.329 . S
H469 C463 0.930 . S
C470 O450 1.276 . S
C470 O471 1.230 1_565 S
O471 C470 1.230 1_545 S
O472 C448 1.257 . S
O472 Zn451 2.018 1_565 S
H473 C466 0.930 . S
H474 C453 0.930 . S
H475 C465 0.930 . S
Zn476 N480 2.020 . S
Zn476 O484 2.019 1_556 S
Zn476 N486 2.119 . S
Zn476 O494 1.975 . S
C477 N478 1.334 . S
C477 N481 1.336 . S
N478 C477 1.334 . S
N478 C479 1.334 . S
C479 N478 1.334 . S
C479 N480 1.336 . S
N480 Zn476 2.020 . S
N480 C479 1.336 . S
N480 N481 1.354 . S
N481 C477 1.336 . S
N481 N480 1.354 . S
N481 Zn485 2.020 . S
C482 O483 1.244 . S
C482 O506 1.257 . S
O483 C482 1.244 . S
O484 Zn476 2.019 1_554 S
O484 C504 1.257 . S
Zn485 N481 2.020 . S
Zn485 O492 1.975 . S
Zn485 N501 2.119 . S
Zn485 O506 2.019 . S
N486 Zn476 2.119 . S
N486 C488 1.334 . S
N486 C489 1.328 1_556 S
C487 C488 1.391 . S
C487 N490 1.329 . S
C487 H508 0.930 . S
C488 N486 1.334 . S
C488 C487 1.391 . S
C488 H495 0.930 . S
C489 N486 1.328 1_554 S
C489 C491 1.392 . S
C489 H496 0.930 . S
N490 C487 1.329 . S
N490 C491 1.331 1_556 S
C491 C489 1.392 . S
C491 N490 1.331 1_554 S
O492 Zn485 1.975 . S
O492 C493 1.252 . S
C493 O492 1.252 . S
C493 O494 1.252 . S
O494 Zn476 1.975 . S
O494 C493 1.252 . S
H495 C488 0.930 . S
H496 C489 0.930 . S
C497 C498 1.392 . S
C497 N501 1.328 . S
C497 H503 0.930 . S
C498 C497 1.392 . S
C498 N502 1.331 . S
C499 C500 1.391 . S
C499 N502 1.329 . S
C499 H509 0.930 . S
C500 C499 1.391 . S
C500 N501 1.334 . S
C500 H507 0.930 . S
N501 Zn485 2.119 . S
N501 C497 1.328 . S
N501 C500 1.334 . S
N502 C498 1.331 . S
N502 C499 1.329 . S
H503 C497 0.930 . S
C504 O484 1.257 . S
C504 O505 1.244 . S
O505 C504 1.244 . S
O506 C482 1.257 . S
O506 Zn485 2.019 . S
H507 C500 0.930 . S
H508 C487 0.930 . S
H509 C499 0.930 . S
Zn510 N514 2.019 1_565 S
Zn510 O518 2.018 1_565 S
Zn510 N520 2.138 . S
Zn510 O528 1.965 1_565 S
C511 N512 1.334 1_545 S
C511 N515 1.336 . S
N512 C511 1.334 1_565 S
N512 C513 1.334 . S
C513 N512 1.334 . S
C513 N514 1.336 1_565 S
N514 Zn510 2.019 1_545 S
N514 C513 1.336 1_545 S
N514 N515 1.354 . S
N515 C511 1.336 . S
N515 N514 1.354 . S
N515 Zn519 2.020 . S
C516 O517 1.230 1_545 S
C516 O540 1.276 . S
O517 C516 1.230 1_565 S
O518 Zn510 2.018 1_545 S
O518 C538 1.257 . S
Zn519 N515 2.020 . S
Zn519 O526 1.975 . S
Zn519 N535 2.119 . S
Zn519 O540 2.019 . S
N520 Zn510 2.138 . S
N520 C522 1.334 . S
N520 C523 1.328 . S
C521 C522 1.391 . S
C521 N524 1.329 . S
C521 H542 0.930 . S
C522 N520 1.334 . S
C522 C521 1.391 . S
C522 H529 0.930 . S
C523 N520 1.328 . S
C523 C525 1.392 . S
C523 H530 0.930 . S
N524 C521 1.329 . S
N524 C525 1.331 . S
C525 C523 1.392 . S
C525 N524 1.331 . S
O526 Zn519 1.975 . S
O526 C527 1.252 . S
C527 O526 1.252 . S
C527 O528 1.252 . S
O528 Zn510 1.965 1_545 S
O528 C527 1.252 . S
H529 C522 0.930 . S
H530 C523 0.930 . S
C531 C532 1.392 . S
C531 N535 1.328 . S
C531 H537 0.930 . S
C532 C531 1.392 . S
C532 N536 1.331 . S
C533 C534 1.391 . S
C533 N536 1.329 . S
C533 H543 0.930 . S
C534 C533 1.391 . S
C534 N535 1.334 . S
C534 H541 0.930 . S
N535 Zn519 2.119 . S
N535 C531 1.328 . S
N535 C534 1.334 . S
N536 C532 1.331 . S
N536 C533 1.329 . S
H537 C531 0.930 . S
C538 O518 1.257 . S
C538 O539 1.244 . S
O539 C538 1.244 . S
O540 C516 1.276 . S
O540 Zn519 2.019 . S
H541 C534 0.930 . S
H542 C521 0.930 . S
H543 C533 0.930 . S
H544 C552 0.950 . S
H545 C557 0.950 . S
H546 C554 0.950 . S
H547 C556 0.950 . S
H548 C558 0.950 . S
H549 C560 0.950 . S
H550 C562 0.950 . S
H551 C563 0.950 . S
C552 H544 0.950 . S
C552 C553 1.386 . S
C552 C554 1.391 . S
C553 C552 1.386 . S
C553 C557 1.393 . S
C554 H546 0.950 . S
C554 C552 1.391 . S
C554 C555 1.400 . S
C555 C554 1.400 . S
C555 C556 1.398 . S
C555 C561 1.491 . S
C556 H547 0.950 . S
C556 C555 1.398 . S
C556 C557 1.391 . S
C557 H545 0.950 . S
C557 C553 1.393 . S
C557 C556 1.391 . S
C558 H548 0.950 . S
C558 C559 1.386 . S
C558 C560 1.391 . S
C559 C558 1.386 . S
C559 C563 1.393 . S
C560 H549 0.950 . S
C560 C558 1.391 . S
C560 C561 1.400 . S
C561 C555 1.491 . S
C561 C560 1.400 . S
C561 C562 1.398 . S
C562 H550 0.950 . S
C562 C561 1.398 . S
C562 C563 1.391 . S
C563 H551 0.950 . S
C563 C559 1.393 . S
C563 C562 1.391 . S
H564 C572 0.950 . S
H565 C577 0.950 . S
H566 C574 0.950 . S
H567 C576 0.950 . S
H568 C578 0.950 . S
H569 C580 0.950 . S
H570 C582 0.950 . S
H571 C583 0.950 . S
C572 H564 0.950 . S
C572 C573 1.386 . S
C572 C574 1.391 . S
C573 C572 1.386 . S
C573 C577 1.393 . S
C574 H566 0.950 . S
C574 C572 1.391 . S
C574 C575 1.400 . S
C575 C574 1.400 . S
C575 C576 1.398 . S
C575 C581 1.491 . S
C576 H567 0.950 . S
C576 C575 1.398 . S
C576 C577 1.391 . S
C577 H565 0.950 . S
C577 C573 1.393 . S
C577 C576 1.391 . S
C578 H568 0.950 . S
C578 C579 1.386 . S
C578 C580 1.391 . S
C579 C578 1.386 . S
C579 C583 1.393 . S
C580 H569 0.950 . S
C580 C578 1.391 . S
C580 C581 1.400 . S
C581 C575 1.491 . S
C581 C580 1.400 . S
C581 C582 1.398 . S
C582 H570 0.950 . S
C582 C581 1.398 . S
C582 C583 1.391 . S
C583 H571 0.950 . S
C583 C579 1.393 . S
C583 C582 1.391 . S
H584 C592 0.950 . S
H585 C597 0.950 . S
H586 C594 0.950 . S
H587 C596 0.950 . S
H588 C598 0.950 . S
H589 C600 0.950 . S
H590 C602 0.950 . S
H591 C603 0.950 . S
C592 H584 0.950 . S
C592 C593 1.386 . S
C592 C594 1.391 . S
C593 C592 1.386 . S
C593 C597 1.393 . S
C594 H586 0.950 . S
C594 C592 1.391 . S
C594 C595 1.400 . S
C595 C594 1.400 . S
C595 C596 1.398 . S
C595 C601 1.491 . S
C596 H587 0.950 . S
C596 C595 1.398 . S
C596 C597 1.391 . S
C597 H585 0.950 . S
C597 C593 1.393 . S
C597 C596 1.391 . S
C598 H588 0.950 . S
C598 C599 1.386 . S
C598 C600 1.391 . S
C599 C598 1.386 . S
C599 C603 1.393 . S
C600 H589 0.950 . S
C600 C598 1.391 . S
C600 C601 1.400 . S
C601 C595 1.491 . S
C601 C600 1.400 . S
C601 C602 1.398 . S
C602 H590 0.950 . S
C602 C601 1.398 . S
C602 C603 1.391 . S
C603 H591 0.950 . S
C603 C599 1.393 . S
C603 C602 1.391 . S
H604 C612 0.950 . S
H605 C617 0.950 . S
H606 C614 0.950 . S
H607 C616 0.950 . S
H608 C618 0.950 . S
H609 C620 0.950 . S
H610 C622 0.950 . S
H611 C623 0.950 . S
C612 H604 0.950 . S
C612 C613 1.386 . S
C612 C614 1.391 . S
C613 C612 1.386 . S
C613 C617 1.393 . S
C614 H606 0.950 . S
C614 C612 1.391 . S
C614 C615 1.400 . S
C615 C614 1.400 . S
C615 C616 1.398 . S
C615 C621 1.491 . S
C616 H607 0.950 . S
C616 C615 1.398 . S
C616 C617 1.391 . S
C617 H605 0.950 . S
C617 C613 1.393 . S
C617 C616 1.391 . S
C618 H608 0.950 . S
C618 C619 1.386 1_455 S
C618 C620 1.391 . S
C619 C618 1.386 1_655 S
C619 C623 1.393 . S
C620 H609 0.950 . S
C620 C618 1.391 . S
C620 C621 1.400 . S
C621 C615 1.491 . S
C621 C620 1.400 . S
C621 C622 1.398 1_455 S
C622 H610 0.950 . S
C622 C621 1.398 1_655 S
C622 C623 1.391 . S
C623 H611 0.950 . S
C623 C619 1.393 . S
C623 C622 1.391 . S
H624 C632 0.950 . S
H625 C637 0.950 . S
H626 C634 0.950 . S
H627 C636 0.950 . S
H628 C638 0.950 . S
H629 C640 0.950 . S
H630 C642 0.950 . S
H631 C643 0.950 . S
C632 H624 0.950 . S
C632 C633 1.386 . S
C632 C634 1.391 . S
C633 C632 1.386 . S
C633 C637 1.393 . S
C634 H626 0.950 . S
C634 C632 1.391 . S
C634 C635 1.400 . S
C635 C634 1.400 . S
C635 C636 1.398 . S
C635 C641 1.491 . S
C636 H627 0.950 . S
C636 C635 1.398 . S
C636 C637 1.391 . S
C637 H625 0.950 . S
C637 C633 1.393 . S
C637 C636 1.391 . S
C638 H628 0.950 . S
C638 C639 1.386 . S
C638 C640 1.391 . S
C639 C638 1.386 . S
C639 C643 1.393 . S
C640 H629 0.950 . S
C640 C638 1.391 . S
C640 C641 1.400 . S
C641 C635 1.491 . S
C641 C640 1.400 . S
C641 C642 1.398 . S
C642 H630 0.950 . S
C642 C641 1.398 . S
C642 C643 1.391 . S
C643 H631 0.950 . S
C643 C639 1.393 . S
C643 C642 1.391 . S
H644 C652 0.950 . S
H645 C657 0.950 . S
H646 C654 0.950 . S
H647 C656 0.950 . S
H648 C658 0.950 . S
H649 C660 0.950 . S
H650 C662 0.950 . S
H651 C663 0.950 . S
C652 H644 0.950 . S
C652 C653 1.386 . S
C652 C654 1.391 . S
C653 C652 1.386 . S
C653 C657 1.393 . S
C654 H646 0.950 . S
C654 C652 1.391 . S
C654 C655 1.400 . S
C655 C654 1.400 . S
C655 C656 1.398 . S
C655 C661 1.491 . S
C656 H647 0.950 . S
C656 C655 1.398 . S
C656 C657 1.391 . S
C657 H645 0.950 . S
C657 C653 1.393 . S
C657 C656 1.391 . S
C658 H648 0.950 . S
C658 C659 1.386 . S
C658 C660 1.391 . S
C659 C658 1.386 . S
C659 C663 1.393 . S
C660 H649 0.950 . S
C660 C658 1.391 . S
C660 C661 1.400 . S
C661 C655 1.491 . S
C661 C660 1.400 . S
C661 C662 1.398 . S
C662 H650 0.950 . S
C662 C661 1.398 . S
C662 C663 1.391 . S
C663 H651 0.950 . S
C663 C659 1.393 . S
C663 C662 1.391 . S
H664 C672 0.950 . S
H665 C677 0.950 . S
H666 C674 0.950 . S
H667 C676 0.950 . S
H668 C678 0.950 . S
H669 C680 0.950 . S
H670 C682 0.950 . S
H671 C683 0.950 . S
C672 H664 0.950 . S
C672 C673 1.386 . S
C672 C674 1.391 . S
C673 C672 1.386 . S
C673 C677 1.393 . S
C674 H666 0.950 . S
C674 C672 1.391 . S
C674 C675 1.400 . S
C675 C674 1.400 . S
C675 C676 1.398 . S
C675 C681 1.491 . S
C676 H667 0.950 . S
C676 C675 1.398 . S
C676 C677 1.391 . S
C677 H665 0.950 . S
C677 C673 1.393 . S
C677 C676 1.391 . S
C678 H668 0.950 . S
C678 C679 1.386 . S
C678 C680 1.391 . S
C679 C678 1.386 . S
C679 C683 1.393 . S
C680 H669 0.950 . S
C680 C678 1.391 . S
C680 C681 1.400 . S
C681 C675 1.491 . S
C681 C680 1.400 . S
C681 C682 1.398 . S
C682 H670 0.950 . S
C682 C681 1.398 . S
C682 C683 1.391 . S
C683 H671 0.950 . S
C683 C679 1.393 . S
C683 C682 1.391 . S
H684 C692 0.950 . S
H685 C697 0.950 . S
H686 C694 0.950 1_455 S
H687 C696 0.950 . S
H688 C698 0.950 . S
H689 C700 0.950 . S
H690 C702 0.950 . S
H691 C703 0.950 . S
C692 H684 0.950 . S
C692 C693 1.386 . S
C692 C694 1.391 . S
C693 C692 1.386 . S
C693 C697 1.393 . S
C694 H686 0.950 1_655 S
C694 C692 1.391 . S
C694 C695 1.400 . S
C695 C694 1.400 . S
C695 C696 1.398 . S
C695 C701 1.491 . S
C696 H687 0.950 . S
C696 C695 1.398 . S
C696 C697 1.391 . S
C697 H685 0.950 . S
C697 C693 1.393 . S
C697 C696 1.391 . S
C698 H688 0.950 . S
C698 C699 1.386 1_655 S
C698 C700 1.391 . S
C699 C698 1.386 1_455 S
C699 C703 1.393 . S
C700 H689 0.950 . S
C700 C698 1.391 . S
C700 C701 1.400 . S
C701 C695 1.491 . S
C701 C700 1.400 . S
C701 C702 1.398 1_655 S
C702 H690 0.950 . S
C702 C701 1.398 1_455 S
C702 C703 1.391 . S
C703 H691 0.950 . S
C703 C699 1.393 . S
C703 C702 1.391 . S
H704 C712 0.950 . S
H705 C717 0.950 . S
H706 C714 0.950 . S
H707 C716 0.950 . S
H708 C718 0.950 . S
H709 C720 0.950 . S
H710 C722 0.950 . S
H711 C723 0.950 . S
C712 H704 0.950 . S
C712 C713 1.386 . S
C712 C714 1.391 . S
C713 C712 1.386 . S
C713 C717 1.393 . S
C714 H706 0.950 . S
C714 C712 1.391 . S
C714 C715 1.400 . S
C715 C714 1.400 . S
C715 C716 1.398 . S
C715 C721 1.491 . S
C716 H707 0.950 . S
C716 C715 1.398 . S
C716 C717 1.391 . S
C717 H705 0.950 . S
C717 C713 1.393 . S
C717 C716 1.391 . S
C718 H708 0.950 . S
C718 C719 1.386 . S
C718 C720 1.391 . S
C719 C718 1.386 . S
C719 C723 1.393 . S
C720 H709 0.950 . S
C720 C718 1.391 . S
C720 C721 1.400 . S
C721 C715 1.491 . S
C721 C720 1.400 . S
C721 C722 1.398 . S
C722 H710 0.950 . S
C722 C721 1.398 . S
C722 C723 1.391 . S
C723 H711 0.950 . S
C723 C719 1.393 . S
C723 C722 1.391 . S
H724 C732 0.950 . S
H725 C737 0.950 . S
H726 C734 0.950 . S
H727 C736 0.948 1_655 S
H728 C738 0.950 . S
H729 C740 0.950 . S
H730 C742 0.950 1_545 S
H731 C743 0.950 1_545 S
C732 H724 0.950 . S
C732 C733 1.386 1_545 S
C732 C734 1.391 1_455 S
C733 C732 1.386 1_565 S
C733 C737 1.393 . S
C734 H726 0.950 . S
C734 C732 1.391 1_655 S
C734 C735 1.400 1_545 S
C735 C734 1.400 1_565 S
C735 C736 1.398 1_655 S
C735 C741 1.491 . S
C736 H727 0.948 1_455 S
C736 C735 1.398 1_455 S
C736 C737 1.391 . S
C737 H725 0.950 . S
C737 C733 1.393 . S
C737 C736 1.391 . S
C738 H728 0.950 . S
C738 C739 1.386 . S
C738 C740 1.391 . S
C739 C738 1.386 . S
C739 C743 1.393 . S
C740 H729 0.950 . S
C740 C738 1.391 . S
C740 C741 1.400 . S
C741 C735 1.491 . S
C741 C740 1.400 . S
C741 C742 1.398 . S
C742 H730 0.950 1_565 S
C742 C741 1.398 . S
C742 C743 1.391 . S
C743 H731 0.950 1_565 S
C743 C739 1.393 . S
C743 C742 1.391 . S
H744 C752 0.950 . S
H745 C757 0.950 . S
H746 C754 0.950 . S
H747 C756 0.950 . S
H748 C758 0.950 . S
H749 C760 0.950 . S
H750 C762 0.950 . S
H751 C763 0.950 . S
C752 H744 0.950 . S
C752 C753 1.386 . S
C752 C754 1.391 . S
C753 C752 1.386 . S
C753 C757 1.393 . S
C754 H746 0.950 . S
C754 C752 1.391 . S
C754 C755 1.400 . S
C755 C754 1.400 . S
C755 C756 1.398 . S
C755 C761 1.491 . S
C756 H747 0.950 . S
C756 C755 1.398 . S
C756 C757 1.391 . S
C757 H745 0.950 . S
C757 C753 1.393 . S
C757 C756 1.391 . S
C758 H748 0.950 . S
C758 C759 1.386 . S
C758 C760 1.391 . S
C759 C758 1.386 . S
C759 C763 1.393 . S
C760 H749 0.950 . S
C760 C758 1.391 . S
C760 C761 1.400 . S
C761 C755 1.491 . S
C761 C760 1.400 . S
C761 C762 1.398 . S
C762 H750 0.950 . S
C762 C761 1.398 . S
C762 C763 1.391 . S
C763 H751 0.950 . S
C763 C759 1.393 . S
C763 C762 1.391 . S
H764 C772 0.950 . S
H765 C777 0.950 . S
H766 C774 0.950 . S
H767 C776 0.950 . S
H768 C778 0.950 . S
H769 C780 0.950 . S
H770 C782 0.950 . S
H771 C783 0.950 . S
C772 H764 0.950 . S
C772 C773 1.386 . S
C772 C774 1.391 . S
C773 C772 1.386 . S
C773 C777 1.393 . S
C774 H766 0.950 . S
C774 C772 1.391 . S
C774 C775 1.400 . S
C775 C774 1.400 . S
C775 C776 1.398 . S
C775 C781 1.491 . S
C776 H767 0.950 . S
C776 C775 1.398 . S
C776 C777 1.391 . S
C777 H765 0.950 . S
C777 C773 1.393 . S
C777 C776 1.391 . S
C778 H768 0.950 . S
C778 C779 1.386 . S
C778 C780 1.391 . S
C779 C778 1.386 . S
C779 C783 1.393 . S
C780 H769 0.950 . S
C780 C778 1.391 . S
C780 C781 1.400 . S
C781 C775 1.491 . S
C781 C780 1.400 . S
C781 C782 1.398 . S
C782 H770 0.950 . S
C782 C781 1.398 . S
C782 C783 1.391 . S
C783 H771 0.950 . S
C783 C779 1.393 . S
C783 C782 1.391 . S
H784 C792 0.950 . S
H785 C797 0.950 . S
H786 C794 0.950 . S
H787 C796 0.950 . S
H788 C798 0.950 . S
H789 C800 0.950 . S
H790 C802 0.950 . S
H791 C803 0.950 . S
C792 H784 0.950 . S
C792 C793 1.386 . S
C792 C794 1.391 . S
C793 C792 1.386 . S
C793 C797 1.393 . S
C794 H786 0.950 . S
C794 C792 1.391 . S
C794 C795 1.400 . S
C795 C794 1.400 . S
C795 C796 1.398 . S
C795 C801 1.491 . S
C796 H787 0.950 . S
C796 C795 1.398 . S
C796 C797 1.391 . S
C797 H785 0.950 . S
C797 C793 1.393 . S
C797 C796 1.391 . S
C798 H788 0.950 . S
C798 C799 1.386 . S
C798 C800 1.391 . S
C799 C798 1.386 . S
C799 C803 1.393 . S
C800 H789 0.950 . S
C800 C798 1.391 . S
C800 C801 1.400 . S
C801 C795 1.491 . S
C801 C800 1.400 . S
C801 C802 1.398 . S
C802 H790 0.950 . S
C802 C801 1.398 . S
C802 C803 1.391 . S
C803 H791 0.950 . S
C803 C799 1.393 . S
C803 C802 1.391 . S
H804 C812 0.950 . S
H805 C817 0.950 . S
H806 C814 0.950 . S
H807 C816 0.950 . S
H808 C818 0.950 . S
H809 C820 0.950 . S
H810 C822 0.950 1_565 S
H811 C823 0.950 1_565 S
C812 H804 0.950 . S
C812 C813 1.386 1_565 S
C812 C814 1.391 1_655 S
C813 C812 1.386 1_545 S
C813 C817 1.393 . S
C814 H806 0.950 . S
C814 C812 1.391 1_455 S
C814 C815 1.400 1_565 S
C815 C814 1.400 1_545 S
C815 C816 1.398 1_455 S
C815 C821 1.491 . S
C816 H807 0.950 . S
C816 C815 1.398 1_655 S
C816 C817 1.391 . S
C817 H805 0.950 . S
C817 C813 1.393 . S
C817 C816 1.391 . S
C818 H808 0.950 . S
C818 C819 1.386 . S
C818 C820 1.391 . S
C819 C818 1.386 . S
C819 C823 1.393 . S
C820 H809 0.950 . S
C820 C818 1.391 . S
C820 C821 1.400 . S
C821 C815 1.491 . S
C821 C820 1.400 . S
C821 C822 1.398 . S
C822 H810 0.950 1_545 S
C822 C821 1.398 . S
C822 C823 1.391 . S
C823 H811 0.950 1_545 S
C823 C819 1.393 . S
C823 C822 1.391 . S
H824 C832 0.950 . S
H825 C837 0.950 . S
H826 C834 0.950 . S
H827 C836 0.950 . S
H828 C838 0.950 . S
H829 C840 0.950 . S
H830 C842 0.950 . S
H831 C843 0.950 . S
C832 H824 0.950 . S
C832 C833 1.386 . S
C832 C834 1.391 . S
C833 C832 1.386 . S
C833 C837 1.393 . S
C834 H826 0.950 . S
C834 C832 1.391 . S
C834 C835 1.400 . S
C835 C834 1.400 . S
C835 C836 1.398 . S
C835 C841 1.491 . S
C836 H827 0.950 . S
C836 C835 1.398 . S
C836 C837 1.391 . S
C837 H825 0.950 . S
C837 C833 1.393 . S
C837 C836 1.391 . S
C838 H828 0.950 . S
C838 C839 1.386 . S
C838 C840 1.391 . S
C839 C838 1.386 . S
C839 C843 1.393 . S
C840 H829 0.950 . S
C840 C838 1.391 . S
C840 C841 1.400 . S
C841 C835 1.491 . S
C841 C840 1.400 . S
C841 C842 1.398 . S
C842 H830 0.950 . S
C842 C841 1.398 . S
C842 C843 1.391 . S
C843 H831 0.950 . S
C843 C839 1.393 . S
C843 C842 1.391 . S
H844 C852 0.950 1_545 S
H845 C857 0.950 . S
H846 C854 0.950 1_545 S
H847 C856 0.950 . S
H848 C858 0.950 . S
H849 C860 0.950 . S
H850 C862 0.950 . S
H851 C863 0.950 . S
C852 H844 0.950 1_565 S
C852 C853 1.386 . S
C852 C854 1.391 . S
C853 C852 1.386 . S
C853 C857 1.393 . S
C854 H846 0.950 1_565 S
C854 C852 1.391 . S
C854 C855 1.400 . S
C855 C854 1.400 . S
C855 C856 1.398 . S
C855 C861 1.491 . S
C856 H847 0.950 . S
C856 C855 1.398 . S
C856 C857 1.391 . S
C857 H845 0.950 . S
C857 C853 1.393 . S
C857 C856 1.391 . S
C858 H848 0.950 . S
C858 C859 1.386 . S
C858 C860 1.391 . S
C859 C858 1.386 . S
C859 C863 1.393 1_565 S
C860 H849 0.950 . S
C860 C858 1.391 . S
C860 C861 1.400 . S
C861 C855 1.491 . S
C861 C860 1.400 . S
C861 C862 1.398 1_565 S
C862 H850 0.950 . S
C862 C861 1.398 1_545 S
C862 C863 1.391 . S
C863 H851 0.950 . S
C863 C859 1.393 1_545 S
C863 C862 1.391 . S
H864 C872 0.934 1_546 S
H865 C877 0.950 . S
H866 C874 0.950 . S
H867 C876 0.950 . S
H868 C878 0.950 . S
H869 C880 0.950 . S
H870 C882 0.950 . S
H871 C883 0.950 . S
C872 H864 0.934 1_564 S
C872 C873 1.386 . S
C872 C874 1.391 1_554 S
C873 C872 1.386 . S
C873 C877 1.393 . S
C874 H866 0.950 . S
C874 C872 1.391 1_556 S
C874 C875 1.400 1_556 S
C875 C874 1.400 1_554 S
C875 C876 1.398 . S
C875 C881 1.493 . S
C876 H867 0.950 . S
C876 C875 1.398 . S
C876 C877 1.391 . S
C877 H865 0.950 . S
C877 C873 1.393 . S
C877 C876 1.391 . S
C878 H868 0.950 . S
C878 C879 1.386 1_554 S
C878 C880 1.391 . S
C879 C878 1.386 1_556 S
C879 C883 1.393 . S
C880 H869 0.950 . S
C880 C878 1.391 . S
C880 C881 1.405 . S
C881 C875 1.493 . S
C881 C880 1.405 . S
C881 C882 1.391 1_554 S
C882 H870 0.950 . S
C882 C881 1.391 1_556 S
C882 C883 1.391 . S
C883 H871 0.950 . S
C883 C879 1.393 . S
C883 C882 1.391 . S
H884 C892 0.950 . S
H885 C897 0.950 . S
H886 C894 0.950 . S
H887 C896 0.950 . S
H888 C898 0.950 . S
H889 C900 0.950 . S
H890 C902 0.950 . S
H891 C903 0.950 . S
C892 H884 0.950 . S
C892 C893 1.386 . S
C892 C894 1.391 . S
C893 C892 1.386 . S
C893 C897 1.393 . S
C894 H886 0.950 . S
C894 C892 1.391 . S
C894 C895 1.400 . S
C895 C894 1.400 . S
C895 C896 1.398 . S
C895 C901 1.491 . S
C896 H887 0.950 . S
C896 C895 1.398 . S
C896 C897 1.391 . S
C897 H885 0.950 . S
C897 C893 1.393 . S
C897 C896 1.391 . S
C898 H888 0.950 . S
C898 C899 1.386 . S
C898 C900 1.391 . S
C899 C898 1.386 . S
C899 C903 1.393 . S
C900 H889 0.950 . S
C900 C898 1.391 . S
C900 C901 1.400 . S
C901 C895 1.491 . S
C901 C900 1.400 . S
C901 C902 1.398 . S
C902 H890 0.950 . S
C902 C901 1.398 . S
C902 C903 1.391 . S
C903 H891 0.950 . S
C903 C899 1.393 . S
C903 C902 1.391 . S
H904 C912 0.950 . S
H905 C917 0.950 . S
H906 C914 0.950 . S
H907 C916 0.950 . S
H908 C918 0.950 . S
H909 C920 0.950 . S
H910 C922 0.950 . S
H911 C923 0.950 . S
C912 H904 0.950 . S
C912 C913 1.386 . S
C912 C914 1.391 . S
C913 C912 1.386 . S
C913 C917 1.393 . S
C914 H906 0.950 . S
C914 C912 1.391 . S
C914 C915 1.400 . S
C915 C914 1.400 . S
C915 C916 1.398 . S
C915 C921 1.491 . S
C916 H907 0.950 . S
C916 C915 1.398 . S
C916 C917 1.391 . S
C917 H905 0.950 . S
C917 C913 1.393 . S
C917 C916 1.391 . S
C918 H908 0.950 . S
C918 C919 1.386 . S
C918 C920 1.391 . S
C919 C918 1.386 . S
C919 C923 1.393 . S
C920 H909 0.950 . S
C920 C918 1.391 . S
C920 C921 1.400 . S
C921 C915 1.491 . S
C921 C920 1.400 . S
C921 C922 1.398 . S
C922 H910 0.950 . S
C922 C921 1.398 . S
C922 C923 1.391 . S
C923 H911 0.950 . S
C923 C919 1.393 . S
C923 C922 1.391 . S
H924 C932 0.950 . S
H925 C937 0.950 . S
H926 C934 0.950 . S
H927 C936 0.950 . S
H928 C938 0.950 . S
H929 C940 0.950 . S
H930 C942 0.950 . S
H931 C943 0.950 . S
C932 H924 0.950 . S
C932 C933 1.386 . S
C932 C934 1.391 . S
C933 C932 1.386 . S
C933 C937 1.393 . S
C934 H926 0.950 . S
C934 C932 1.391 . S
C934 C935 1.400 . S
C935 C934 1.400 . S
C935 C936 1.398 . S
C935 C941 1.491 . S
C936 H927 0.950 . S
C936 C935 1.398 . S
C936 C937 1.391 . S
C937 H925 0.950 . S
C937 C933 1.393 . S
C937 C936 1.391 . S
C938 H928 0.950 . S
C938 C939 1.386 . S
C938 C940 1.391 . S
C939 C938 1.386 . S
C939 C943 1.393 . S
C940 H929 0.950 . S
C940 C938 1.391 . S
C940 C941 1.400 . S
C941 C935 1.491 . S
C941 C940 1.400 . S
C941 C942 1.398 . S
C942 H930 0.950 . S
C942 C941 1.398 . S
C942 C943 1.391 . S
C943 H931 0.950 . S
C943 C939 1.393 . S
C943 C942 1.391 . S
H944 C952 0.950 . S
H945 C957 0.950 . S
H946 C954 0.950 . S
H947 C956 0.950 . S
H948 C958 0.950 1_564 S
H949 C960 0.950 . S
H950 C962 0.950 . S
H951 C963 0.950 . S
C952 H944 0.950 . S
C952 C953 1.386 1_556 S
C952 C954 1.391 . S
C953 C952 1.386 1_554 S
C953 C957 1.393 . S
C954 H946 0.950 . S
C954 C952 1.391 . S
C954 C955 1.414 . S
C955 C954 1.414 . S
C955 C956 1.376 1_556 S
C955 C961 1.498 . S
C956 H947 0.950 . S
C956 C955 1.376 1_554 S
C956 C957 1.391 . S
C957 H945 0.950 . S
C957 C953 1.393 . S
C957 C956 1.391 . S
C958 H948 0.950 1_546 S
C958 C959 1.386 . S
C958 C960 1.391 1_556 S
C959 C958 1.386 . S
C959 C963 1.393 . S
C960 H949 0.950 . S
C960 C958 1.391 1_554 S
C960 C961 1.400 1_554 S
C961 C955 1.498 . S
C961 C960 1.400 1_556 S
C961 C962 1.398 . S
C962 H950 0.950 . S
C962 C961 1.398 . S
C962 C963 1.391 . S
C963 H951 0.950 . S
C963 C959 1.393 . S
C963 C962 1.391 . S
H964 C972 0.950 . S
H965 C977 0.950 . S
H966 C974 0.950 . S
H967 C976 0.950 . S
H968 C978 0.950 . S
H969 C980 0.950 . S
H970 C982 0.950 . S
H971 C983 0.950 . S
C972 H964 0.950 . S
C972 C973 1.386 . S
C972 C974 1.391 . S
C973 C972 1.386 . S
C973 C977 1.393 . S
C974 H966 0.950 . S
C974 C972 1.391 . S
C974 C975 1.400 . S
C975 C974 1.400 . S
C975 C976 1.398 . S
C975 C981 1.491 . S
C976 H967 0.950 . S
C976 C975 1.398 . S
C976 C977 1.391 . S
C977 H965 0.950 . S
C977 C973 1.393 . S
C977 C976 1.391 . S
C978 H968 0.950 . S
C978 C979 1.386 . S
C978 C980 1.391 . S
C979 C978 1.386 . S
C979 C983 1.393 . S
C980 H969 0.950 . S
C980 C978 1.391 . S
C980 C981 1.400 . S
C981 C975 1.491 . S
C981 C980 1.400 . S
C981 C982 1.398 . S
C982 H970 0.950 . S
C982 C981 1.398 . S
C982 C983 1.391 . S
C983 H971 0.950 . S
C983 C979 1.393 . S
C983 C982 1.391 . S
H984 C992 0.950 . S
H985 C997 0.950 . S
H986 C994 0.950 . S
H987 C996 0.950 . S
H988 C998 0.950 . S
H989 C1000 0.950 . S
H990 C1002 0.950 . S
H991 C1003 0.950 . S
C992 H984 0.950 . S
C992 C993 1.386 . S
C992 C994 1.391 . S
C993 C992 1.386 . S
C993 C997 1.393 . S
C994 H986 0.950 . S
C994 C992 1.391 . S
C994 C995 1.400 . S
C995 C994 1.400 . S
C995 C996 1.398 . S
C995 C1001 1.491 . S
C996 H987 0.950 . S
C996 C995 1.398 . S
C996 C997 1.391 . S
C997 H985 0.950 . S
C997 C993 1.393 . S
C997 C996 1.391 . S
C998 H988 0.950 . S
C998 C999 1.386 . S
C998 C1000 1.391 . S
C999 C998 1.386 . S
C999 C1003 1.393 . S
C1000 H989 0.950 . S
C1000 C998 1.391 . S
C1000 C1001 1.400 . S
C1001 C995 1.491 . S
C1001 C1000 1.400 . S
C1001 C1002 1.398 . S
C1002 H990 0.950 . S
C1002 C1001 1.398 . S
C1002 C1003 1.391 . S
C1003 H991 0.950 . S
C1003 C999 1.393 . S
C1003 C1002 1.391 . S
H1004 C1012 0.950 . S
H1005 C1017 0.950 . S
H1006 C1014 0.950 . S
H1007 C1016 0.950 . S
H1008 C1018 0.950 . S
H1009 C1020 0.950 . S
H1010 C1022 0.950 . S
H1011 C1023 0.950 . S
C1012 H1004 0.950 . S
C1012 C1013 1.386 . S
C1012 C1014 1.391 . S
C1013 C1012 1.386 . S
C1013 C1017 1.393 . S
C1014 H1006 0.950 . S
C1014 C1012 1.391 . S
C1014 C1015 1.400 . S
C1015 C1014 1.400 . S
C1015 C1016 1.398 . S
C1015 C1021 1.491 . S
C1016 H1007 0.950 . S
C1016 C1015 1.398 . S
C1016 C1017 1.391 . S
C1017 H1005 0.950 . S
C1017 C1013 1.393 . S
C1017 C1016 1.391 . S
C1018 H1008 0.950 . S
C1018 C1019 1.386 . S
C1018 C1020 1.391 . S
C1019 C1018 1.386 . S
C1019 C1023 1.393 . S
C1020 H1009 0.950 . S
C1020 C1018 1.391 . S
C1020 C1021 1.400 . S
C1021 C1015 1.491 . S
C1021 C1020 1.400 . S
C1021 C1022 1.398 . S
C1022 H1010 0.950 . S
C1022 C1021 1.398 . S
C1022 C1023 1.391 . S
C1023 H1011 0.950 . S
C1023 C1019 1.393 . S
C1023 C1022 1.391 . S
H1024 C1032 0.950 . S
H1025 C1037 0.950 . S
H1026 C1034 0.950 . S
H1027 C1036 0.950 . S
H1028 C1038 0.950 . S
H1029 C1040 0.950 . S
H1030 C1042 0.950 . S
H1031 C1043 0.950 . S
C1032 H1024 0.950 . S
C1032 C1033 1.386 . S
C1032 C1034 1.391 . S
C1033 C1032 1.386 . S
C1033 C1037 1.393 . S
C1034 H1026 0.950 . S
C1034 C1032 1.391 . S
C1034 C1035 1.400 . S
C1035 C1034 1.400 . S
C1035 C1036 1.398 . S
C1035 C1041 1.491 . S
C1036 H1027 0.950 . S
C1036 C1035 1.398 . S
C1036 C1037 1.391 . S
C1037 H1025 0.950 . S
C1037 C1033 1.393 . S
C1037 C1036 1.391 . S
C1038 H1028 0.950 . S
C1038 C1039 1.386 . S
C1038 C1040 1.391 . S
C1039 C1038 1.386 . S
C1039 C1043 1.393 . S
C1040 H1029 0.950 . S
C1040 C1038 1.391 . S
C1040 C1041 1.400 . S
C1041 C1035 1.491 . S
C1041 C1040 1.400 . S
C1041 C1042 1.398 . S
C1042 H1030 0.950 . S
C1042 C1041 1.398 . S
C1042 C1043 1.391 . S
C1043 H1031 0.950 . S
C1043 C1039 1.393 . S
C1043 C1042 1.391 . S
H1044 C1052 0.950 . S
H1045 C1057 0.950 . S
H1046 C1054 0.950 . S
H1047 C1056 0.950 . S
H1048 C1058 0.950 . S
H1049 C1060 0.950 . S
H1050 C1062 0.950 . S
H1051 C1063 0.950 . S
C1052 H1044 0.950 . S
C1052 C1053 1.386 . S
C1052 C1054 1.391 . S
C1053 C1052 1.386 . S
C1053 C1057 1.393 . S
C1054 H1046 0.950 . S
C1054 C1052 1.391 . S
C1054 C1055 1.400 . S
C1055 C1054 1.400 . S
C1055 C1056 1.398 . S
C1055 C1061 1.491 . S
C1056 H1047 0.950 . S
C1056 C1055 1.398 . S
C1056 C1057 1.391 . S
C1057 H1045 0.950 . S
C1057 C1053 1.393 . S
C1057 C1056 1.391 . S
C1058 H1048 0.950 . S
C1058 C1059 1.386 . S
C1058 C1060 1.391 . S
C1059 C1058 1.386 . S
C1059 C1063 1.393 . S
C1060 H1049 0.950 . S
C1060 C1058 1.391 . S
C1060 C1061 1.400 . S
C1061 C1055 1.491 . S
C1061 C1060 1.400 . S
C1061 C1062 1.398 . S
C1062 H1050 0.950 . S
C1062 C1061 1.398 . S
C1062 C1063 1.391 . S
C1063 H1051 0.950 . S
C1063 C1059 1.393 . S
C1063 C1062 1.391 . S
H1064 C1072 0.950 . S
H1065 C1077 0.950 . S
H1066 C1074 0.950 . S
H1067 C1076 0.950 . S
H1068 C1078 0.950 1_556 S
H1069 C1080 0.950 . S
H1070 C1082 0.950 . S
H1071 C1083 0.950 . S
C1072 H1064 0.950 . S
C1072 C1073 1.386 1_554 S
C1072 C1074 1.391 . S
C1073 C1072 1.386 1_556 S
C1073 C1077 1.393 . S
C1074 H1066 0.950 . S
C1074 C1072 1.391 . S
C1074 C1075 1.415 . S
C1075 C1074 1.415 . S
C1075 C1076 1.375 1_554 S
C1075 C1081 1.499 . S
C1076 H1067 0.950 . S
C1076 C1075 1.375 1_556 S
C1076 C1077 1.391 . S
C1077 H1065 0.950 . S
C1077 C1073 1.393 . S
C1077 C1076 1.391 . S
C1078 H1068 0.950 1_554 S
C1078 C1079 1.386 . S
C1078 C1080 1.391 1_554 S
C1079 C1078 1.386 . S
C1079 C1083 1.393 . S
C1080 H1069 0.950 . S
C1080 C1078 1.391 1_556 S
C1080 C1081 1.400 1_556 S
C1081 C1075 1.499 . S
C1081 C1080 1.400 1_554 S
C1081 C1082 1.398 . S
C1082 H1070 0.950 . S
C1082 C1081 1.398 . S
C1082 C1083 1.391 . S
C1083 H1071 0.950 . S
C1083 C1079 1.393 . S
C1083 C1082 1.391 . S
H1084 C1092 0.950 . S
H1085 C1097 0.950 . S
H1086 C1094 0.950 . S
H1087 C1096 0.950 . S
H1088 C1098 0.950 . S
H1089 C1100 0.950 . S
H1090 C1102 0.950 . S
H1091 C1103 0.950 . S
C1092 H1084 0.950 . S
C1092 C1093 1.386 1_545 S
C1092 C1094 1.391 . S
C1093 C1092 1.386 1_565 S
C1093 C1097 1.393 . S
C1094 H1086 0.950 . S
C1094 C1092 1.391 . S
C1094 C1095 1.400 1_545 S
C1095 C1094 1.400 1_565 S
C1095 C1096 1.398 . S
C1095 C1101 1.491 . S
C1096 H1087 0.950 . S
C1096 C1095 1.398 . S
C1096 C1097 1.391 . S
C1097 H1085 0.950 . S
C1097 C1093 1.393 . S
C1097 C1096 1.391 . S
C1098 H1088 0.950 . S
C1098 C1099 1.386 . S
C1098 C1100 1.391 . S
C1099 C1098 1.386 . S
C1099 C1103 1.393 1_565 S
C1100 H1089 0.950 . S
C1100 C1098 1.391 . S
C1100 C1101 1.400 . S
C1101 C1095 1.491 . S
C1101 C1100 1.400 . S
C1101 C1102 1.398 1_565 S
C1102 H1090 0.950 . S
C1102 C1101 1.398 1_545 S
C1102 C1103 1.391 . S
C1103 H1091 0.950 . S
C1103 C1099 1.393 1_545 S
C1103 C1102 1.391 . S
H1104 C1112 0.950 . S
H1105 C1117 0.950 . S
H1106 C1114 0.950 . S
H1107 C1116 0.950 . S
H1108 C1118 0.950 . S
H1109 C1120 0.950 . S
H1110 C1122 0.950 . S
H1111 C1123 0.950 . S
C1112 H1104 0.950 . S
C1112 C1113 1.386 . S
C1112 C1114 1.391 . S
C1113 C1112 1.386 . S
C1113 C1117 1.393 . S
C1114 H1106 0.950 . S
C1114 C1112 1.391 . S
C1114 C1115 1.400 . S
C1115 C1114 1.400 . S
C1115 C1116 1.398 . S
C1115 C1121 1.491 . S
C1116 H1107 0.950 . S
C1116 C1115 1.398 . S
C1116 C1117 1.391 . S
C1117 H1105 0.950 . S
C1117 C1113 1.393 . S
C1117 C1116 1.391 . S
C1118 H1108 0.950 . S
C1118 C1119 1.386 . S
C1118 C1120 1.391 . S
C1119 C1118 1.386 . S
C1119 C1123 1.393 . S
C1120 H1109 0.950 . S
C1120 C1118 1.391 . S
C1120 C1121 1.400 . S
C1121 C1115 1.491 . S
C1121 C1120 1.400 . S
C1121 C1122 1.398 . S
C1122 H1110 0.950 . S
C1122 C1121 1.398 . S
C1122 C1123 1.391 . S
C1123 H1111 0.950 . S
C1123 C1119 1.393 . S
C1123 C1122 1.391 . S
H1124 C1132 0.950 . S
H1125 C1137 0.950 . S
H1126 C1134 0.950 . S
H1127 C1136 0.950 . S
H1128 C1138 0.950 1_545 S
H1129 C1140 0.955 . S
H1130 C1142 0.950 . S
H1131 C1143 0.950 . S
C1132 H1124 0.950 . S
C1132 C1133 1.386 . S
C1132 C1134 1.391 . S
C1133 C1132 1.386 . S
C1133 C1137 1.393 . S
C1134 H1126 0.950 . S
C1134 C1132 1.391 . S
C1134 C1135 1.400 . S
C1135 C1134 1.400 . S
C1135 C1136 1.398 . S
C1135 C1141 1.491 . S
C1136 H1127 0.950 . S
C1136 C1135 1.398 . S
C1136 C1137 1.391 . S
C1137 H1125 0.950 . S
C1137 C1133 1.393 . S
C1137 C1136 1.391 . S
C1138 H1128 0.950 1_565 S
C1138 C1139 1.386 . S
C1138 C1140 1.391 . S
C1139 C1138 1.386 . S
C1139 C1143 1.393 . S
C1140 H1129 0.955 . S
C1140 C1138 1.391 . S
C1140 C1141 1.400 . S
C1141 C1135 1.491 . S
C1141 C1140 1.400 . S
C1141 C1142 1.398 . S
C1142 H1130 0.950 . S
C1142 C1141 1.398 . S
C1142 C1143 1.391 . S
C1143 H1131 0.950 . S
C1143 C1139 1.393 . S
C1143 C1142 1.391 . S
H1144 C1152 0.950 . S
H1145 C1157 0.958 . S
H1146 C1154 0.950 . S
H1147 C1156 0.950 . S
H1148 C1158 0.950 . S
H1149 C1160 0.950 . S
H1150 C1162 0.950 1_554 S
H1151 C1163 0.950 . S
C1152 H1144 0.950 . S
C1152 C1153 1.386 . S
C1152 C1154 1.391 . S
C1153 C1152 1.386 . S
C1153 C1157 1.393 . S
C1154 H1146 0.950 . S
C1154 C1152 1.391 . S
C1154 C1155 1.383 1_554 S
C1155 C1154 1.383 1_556 S
C1155 C1156 1.405 . S
C1155 C1161 1.503 . S
C1156 H1147 0.950 . S
C1156 C1155 1.405 . S
C1156 C1157 1.391 1_556 S
C1157 H1145 0.958 . S
C1157 C1153 1.393 . S
C1157 C1156 1.391 1_554 S
C1158 H1148 0.950 . S
C1158 C1159 1.386 . S
C1158 C1160 1.391 . S
C1159 C1158 1.386 . S
C1159 C1163 1.393 . S
C1160 H1149 0.950 . S
C1160 C1158 1.391 . S
C1160 C1161 1.400 . S
C1161 C1155 1.503 . S
C1161 C1160 1.400 . S
C1161 C1162 1.398 . S
C1162 H1150 0.950 1_556 S
C1162 C1161 1.398 . S
C1162 C1163 1.391 . S
C1163 H1151 0.950 . S
C1163 C1159 1.393 . S
C1163 C1162 1.391 . S
H1164 C1172 0.950 . S
H1165 C1177 0.950 . S
H1166 C1174 0.951 . S
H1167 C1176 0.950 . S
H1168 C1178 0.950 . S
H1169 C1180 0.950 . S
H1170 C1182 0.950 1_565 S
H1171 C1183 0.960 . S
C1172 H1164 0.950 . S
C1172 C1173 1.386 1_565 S
C1172 C1174 1.392 . S
C1173 C1172 1.386 1_545 S
C1173 C1177 1.393 . S
C1174 H1166 0.951 . S
C1174 C1172 1.392 . S
C1174 C1175 1.398 1_565 S
C1175 C1174 1.398 1_545 S
C1175 C1176 1.398 . S
C1175 C1181 1.491 . S
C1176 H1167 0.950 . S
C1176 C1175 1.398 . S
C1176 C1177 1.391 . S
C1177 H1165 0.950 . S
C1177 C1173 1.393 . S
C1177 C1176 1.391 . S
C1178 H1168 0.950 . S
C1178 C1179 1.386 . S
C1178 C1180 1.391 . S
C1179 C1178 1.386 . S
C1179 C1183 1.393 . S
C1180 H1169 0.950 . S
C1180 C1178 1.391 . S
C1180 C1181 1.400 . S
C1181 C1175 1.491 . S
C1181 C1180 1.400 . S
C1181 C1182 1.398 . S
C1182 H1170 0.950 1_545 S
C1182 C1181 1.398 . S
C1182 C1183 1.391 . S
C1183 H1171 0.960 . S
C1183 C1179 1.393 . S
C1183 C1182 1.391 . S
H1184 C1192 0.950 . S
H1185 C1197 0.950 . S
H1186 C1194 0.950 . S
H1187 C1196 0.950 . S
H1188 C1198 0.950 . S
H1189 C1200 0.950 . S
H1190 C1202 0.950 . S
H1191 C1203 0.950 . S
C1192 H1184 0.950 . S
C1192 C1193 1.386 . S
C1192 C1194 1.391 . S
C1193 C1192 1.386 . S
C1193 C1197 1.393 . S
C1194 H1186 0.950 . S
C1194 C1192 1.391 . S
C1194 C1195 1.400 . S
C1195 C1194 1.400 . S
C1195 C1196 1.398 . S
C1195 C1201 1.491 . S
C1196 H1187 0.950 . S
C1196 C1195 1.398 . S
C1196 C1197 1.391 . S
C1197 H1185 0.950 . S
C1197 C1193 1.393 . S
C1197 C1196 1.391 . S
C1198 H1188 0.950 . S
C1198 C1199 1.386 . S
C1198 C1200 1.391 . S
C1199 C1198 1.386 . S
C1199 C1203 1.393 . S
C1200 H1189 0.950 . S
C1200 C1198 1.391 . S
C1200 C1201 1.400 . S
C1201 C1195 1.491 . S
C1201 C1200 1.400 . S
C1201 C1202 1.398 . S
C1202 H1190 0.950 . S
C1202 C1201 1.398 . S
C1202 C1203 1.391 . S
C1203 H1191 0.950 . S
C1203 C1199 1.393 . S
C1203 C1202 1.391 . S
H1204 C1212 0.950 . S
H1205 C1217 0.950 . S
H1206 C1214 0.950 . S
H1207 C1216 0.950 . S
H1208 C1218 0.950 . S
H1209 C1220 0.950 . S
H1210 C1222 0.950 . S
H1211 C1223 0.950 . S
C1212 H1204 0.950 . S
C1212 C1213 1.386 . S
C1212 C1214 1.391 . S
C1213 C1212 1.386 . S
C1213 C1217 1.393 . S
C1214 H1206 0.950 . S
C1214 C1212 1.391 . S
C1214 C1215 1.400 . S
C1215 C1214 1.400 . S
C1215 C1216 1.398 . S
C1215 C1221 1.491 . S
C1216 H1207 0.950 . S
C1216 C1215 1.398 . S
C1216 C1217 1.391 . S
C1217 H1205 0.950 . S
C1217 C1213 1.393 . S
C1217 C1216 1.391 . S
C1218 H1208 0.950 . S
C1218 C1219 1.386 . S
C1218 C1220 1.391 . S
C1219 C1218 1.386 . S
C1219 C1223 1.393 . S
C1220 H1209 0.950 . S
C1220 C1218 1.391 . S
C1220 C1221 1.400 . S
C1221 C1215 1.491 . S
C1221 C1220 1.400 . S
C1221 C1222 1.398 . S
C1222 H1210 0.950 . S
C1222 C1221 1.398 . S
C1222 C1223 1.391 . S
C1223 H1211 0.950 . S
C1223 C1219 1.393 . S
C1223 C1222 1.391 . S
H1224 C1232 0.950 . S
H1225 C1237 0.950 . S
H1226 C1234 0.950 . S
H1227 C1236 0.950 . S
H1228 C1238 0.950 . S
H1229 C1240 0.950 . S
H1230 C1242 0.950 . S
H1231 C1243 0.950 . S
C1232 H1224 0.950 . S
C1232 C1233 1.386 . S
C1232 C1234 1.391 . S
C1233 C1232 1.386 . S
C1233 C1237 1.393 . S
C1234 H1226 0.950 . S
C1234 C1232 1.391 . S
C1234 C1235 1.400 . S
C1235 C1234 1.400 . S
C1235 C1236 1.398 . S
C1235 C1241 1.491 . S
C1236 H1227 0.950 . S
C1236 C1235 1.398 . S
C1236 C1237 1.391 . S
C1237 H1225 0.950 . S
C1237 C1233 1.393 . S
C1237 C1236 1.391 . S
C1238 H1228 0.950 . S
C1238 C1239 1.386 . S
C1238 C1240 1.391 . S
C1239 C1238 1.386 . S
C1239 C1243 1.393 . S
C1240 H1229 0.950 . S
C1240 C1238 1.391 . S
C1240 C1241 1.400 . S
C1241 C1235 1.491 . S
C1241 C1240 1.400 . S
C1241 C1242 1.398 . S
C1242 H1230 0.950 . S
C1242 C1241 1.398 . S
C1242 C1243 1.391 . S
C1243 H1231 0.950 . S
C1243 C1239 1.393 . S
C1243 C1242 1.391 . S
H1244 C1252 0.950 . S
H1245 C1257 0.950 . S
H1246 C1254 0.950 . S
H1247 C1256 0.950 . S
H1248 C1258 0.950 . S
H1249 C1260 0.950 . S
H1250 C1262 0.950 . S
H1251 C1263 0.950 . S
C1252 H1244 0.950 . S
C1252 C1253 1.386 . S
C1252 C1254 1.391 . S
C1253 C1252 1.386 . S
C1253 C1257 1.393 . S
C1254 H1246 0.950 . S
C1254 C1252 1.391 . S
C1254 C1255 1.400 . S
C1255 C1254 1.400 . S
C1255 C1256 1.398 . S
C1255 C1261 1.491 . S
C1256 H1247 0.950 . S
C1256 C1255 1.398 . S
C1256 C1257 1.391 . S
C1257 H1245 0.950 . S
C1257 C1253 1.393 . S
C1257 C1256 1.391 . S
C1258 H1248 0.950 . S
C1258 C1259 1.386 . S
C1258 C1260 1.391 . S
C1259 C1258 1.386 . S
C1259 C1263 1.393 . S
C1260 H1249 0.950 . S
C1260 C1258 1.391 . S
C1260 C1261 1.400 . S
C1261 C1255 1.491 . S
C1261 C1260 1.400 . S
C1261 C1262 1.398 . S
C1262 H1250 0.950 . S
C1262 C1261 1.398 . S
C1262 C1263 1.391 . S
C1263 H1251 0.950 . S
C1263 C1259 1.393 . S
C1263 C1262 1.391 . S
H1264 C1272 0.950 . S
H1265 C1277 0.950 . S
H1266 C1274 0.950 . S
H1267 C1276 0.950 . S
H1268 C1278 0.950 . S
H1269 C1280 0.950 . S
H1270 C1282 0.950 . S
H1271 C1283 0.950 . S
C1272 H1264 0.950 . S
C1272 C1273 1.386 . S
C1272 C1274 1.391 . S
C1273 C1272 1.386 . S
C1273 C1277 1.393 . S
C1274 H1266 0.950 . S
C1274 C1272 1.391 . S
C1274 C1275 1.400 . S
C1275 C1274 1.400 . S
C1275 C1276 1.398 . S
C1275 C1281 1.491 . S
C1276 H1267 0.950 . S
C1276 C1275 1.398 . S
C1276 C1277 1.391 . S
C1277 H1265 0.950 . S
C1277 C1273 1.393 . S
C1277 C1276 1.391 . S
C1278 H1268 0.950 . S
C1278 C1279 1.386 . S
C1278 C1280 1.391 . S
C1279 C1278 1.386 . S
C1279 C1283 1.393 . S
C1280 H1269 0.950 . S
C1280 C1278 1.391 . S
C1280 C1281 1.400 . S
C1281 C1275 1.491 . S
C1281 C1280 1.400 . S
C1281 C1282 1.398 . S
C1282 H1270 0.950 . S
C1282 C1281 1.398 . S
C1282 C1283 1.391 . S
C1283 H1271 0.950 . S
C1283 C1279 1.393 . S
C1283 C1282 1.391 . S
H1284 C1292 0.950 . S
H1285 C1297 0.950 . S
H1286 C1294 0.950 . S
H1287 C1296 0.950 . S
H1288 C1298 0.950 . S
H1289 C1300 0.950 . S
H1290 C1302 0.950 . S
H1291 C1303 0.950 . S
C1292 H1284 0.950 . S
C1292 C1293 1.386 . S
C1292 C1294 1.391 . S
C1293 C1292 1.386 . S
C1293 C1297 1.393 . S
C1294 H1286 0.950 . S
C1294 C1292 1.391 . S
C1294 C1295 1.400 . S
C1295 C1294 1.400 . S
C1295 C1296 1.398 . S
C1295 C1301 1.491 . S
C1296 H1287 0.950 . S
C1296 C1295 1.398 . S
C1296 C1297 1.391 . S
C1297 H1285 0.950 . S
C1297 C1293 1.393 . S
C1297 C1296 1.391 . S
C1298 H1288 0.950 . S
C1298 C1299 1.386 . S
C1298 C1300 1.391 . S
C1299 C1298 1.386 . S
C1299 C1303 1.393 . S
C1300 H1289 0.950 . S
C1300 C1298 1.391 . S
C1300 C1301 1.400 . S
C1301 C1295 1.491 . S
C1301 C1300 1.400 . S
C1301 C1302 1.398 . S
C1302 H1290 0.950 . S
C1302 C1301 1.398 . S
C1302 C1303 1.391 . S
C1303 H1291 0.950 . S
C1303 C1299 1.393 . S
C1303 C1302 1.391 . S
H1304 C1312 0.950 1_565 S
H1305 C1317 0.950 . S
H1306 C1314 0.950 . S
H1307 C1316 0.950 . S
H1308 C1318 0.950 . S
H1309 C1320 0.950 . S
H1310 C1322 0.950 . S
H1311 C1323 0.950 . S
C1312 H1304 0.950 1_545 S
C1312 C1313 1.386 . S
C1312 C1314 1.391 . S
C1313 C1312 1.386 . S
C1313 C1317 1.393 . S
C1314 H1306 0.950 . S
C1314 C1312 1.391 . S
C1314 C1315 1.400 . S
C1315 C1314 1.400 . S
C1315 C1316 1.398 . S
C1315 C1321 1.491 . S
C1316 H1307 0.950 . S
C1316 C1315 1.398 . S
C1316 C1317 1.391 . S
C1317 H1305 0.950 . S
C1317 C1313 1.393 . S
C1317 C1316 1.391 . S
C1318 H1308 0.950 . S
C1318 C1319 1.386 . S
C1318 C1320 1.391 . S
C1319 C1318 1.386 . S
C1319 C1323 1.393 . S
C1320 H1309 0.950 . S
C1320 C1318 1.391 . S
C1320 C1321 1.400 . S
C1321 C1315 1.491 . S
C1321 C1320 1.400 . S
C1321 C1322 1.398 . S
C1322 H1310 0.950 . S
C1322 C1321 1.398 . S
C1322 C1323 1.391 . S
C1323 H1311 0.950 . S
C1323 C1319 1.393 . S
C1323 C1322 1.391 . S
H1324 C1332 0.950 . S
H1325 C1337 0.950 . S
H1326 C1334 0.950 . S
H1327 C1336 0.950 . S
H1328 C1338 0.950 . S
H1329 C1340 0.950 . S
H1330 C1342 0.950 . S
H1331 C1343 0.950 . S
C1332 H1324 0.950 . S
C1332 C1333 1.386 . S
C1332 C1334 1.391 . S
C1333 C1332 1.386 . S
C1333 C1337 1.393 . S
C1334 H1326 0.950 . S
C1334 C1332 1.391 . S
C1334 C1335 1.400 . S
C1335 C1334 1.400 . S
C1335 C1336 1.398 . S
C1335 C1341 1.491 . S
C1336 H1327 0.950 . S
C1336 C1335 1.398 . S
C1336 C1337 1.391 . S
C1337 H1325 0.950 . S
C1337 C1333 1.393 . S
C1337 C1336 1.391 . S
C1338 H1328 0.950 . S
C1338 C1339 1.386 . S
C1338 C1340 1.391 . S
C1339 C1338 1.386 . S
C1339 C1343 1.393 . S
C1340 H1329 0.950 . S
C1340 C1338 1.391 . S
C1340 C1341 1.400 . S
C1341 C1335 1.491 . S
C1341 C1340 1.400 . S
C1341 C1342 1.398 . S
C1342 H1330 0.950 . S
C1342 C1341 1.398 . S
C1342 C1343 1.391 . S
C1343 H1331 0.950 . S
C1343 C1339 1.393 . S
C1343 C1342 1.391 . S
H1344 C1352 0.950 . S
H1345 C1357 0.950 . S
H1346 C1354 0.950 . S
H1347 C1356 0.950 . S
H1348 C1358 0.950 . S
H1349 C1360 0.950 . S
H1350 C1362 0.950 . S
H1351 C1363 0.950 . S
C1352 H1344 0.950 . S
C1352 C1353 1.386 . S
C1352 C1354 1.391 . S
C1353 C1352 1.386 . S
C1353 C1357 1.393 . S
C1354 H1346 0.950 . S
C1354 C1352 1.391 . S
C1354 C1355 1.400 . S
C1355 C1354 1.400 . S
C1355 C1356 1.398 . S
C1355 C1361 1.491 . S
C1356 H1347 0.950 . S
C1356 C1355 1.398 . S
C1356 C1357 1.391 . S
C1357 H1345 0.950 . S
C1357 C1353 1.393 . S
C1357 C1356 1.391 . S
C1358 H1348 0.950 . S
C1358 C1359 1.386 . S
C1358 C1360 1.391 . S
C1359 C1358 1.386 . S
C1359 C1363 1.393 . S
C1360 H1349 0.950 . S
C1360 C1358 1.391 . S
C1360 C1361 1.400 . S
C1361 C1355 1.491 . S
C1361 C1360 1.400 . S
C1361 C1362 1.398 . S
C1362 H1350 0.950 . S
C1362 C1361 1.398 . S
C1362 C1363 1.391 . S
C1363 H1351 0.950 . S
C1363 C1359 1.393 . S
C1363 C1362 1.391 . S
H1364 C1372 0.950 . S
H1365 C1377 0.950 . S
H1366 C1374 0.950 . S
H1367 C1376 0.950 . S
H1368 C1378 0.950 . S
H1369 C1380 0.950 . S
H1370 C1382 0.950 . S
H1371 C1383 0.950 . S
C1372 H1364 0.950 . S
C1372 C1373 1.386 . S
C1372 C1374 1.391 . S
C1373 C1372 1.386 . S
C1373 C1377 1.393 . S
C1374 H1366 0.950 . S
C1374 C1372 1.391 . S
C1374 C1375 1.400 . S
C1375 C1374 1.400 . S
C1375 C1376 1.398 . S
C1375 C1381 1.491 . S
C1376 H1367 0.950 . S
C1376 C1375 1.398 . S
C1376 C1377 1.391 . S
C1377 H1365 0.950 . S
C1377 C1373 1.393 . S
C1377 C1376 1.391 . S
C1378 H1368 0.950 . S
C1378 C1379 1.386 1_545 S
C1378 C1380 1.391 1_545 S
C1379 C1378 1.386 1_565 S
C1379 C1383 1.393 . S
C1380 H1369 0.950 . S
C1380 C1378 1.391 1_565 S
C1380 C1381 1.400 . S
C1381 C1375 1.491 . S
C1381 C1380 1.400 . S
C1381 C1382 1.398 . S
C1382 H1370 0.950 . S
C1382 C1381 1.398 . S
C1382 C1383 1.391 . S
C1383 H1371 0.950 . S
C1383 C1379 1.393 . S
C1383 C1382 1.391 . S
H1384 C1392 0.950 . S
H1385 C1397 0.950 . S
H1386 C1394 0.950 . S
H1387 C1396 0.950 . S
H1388 C1398 0.950 . S
H1389 C1400 0.950 . S
H1390 C1402 0.950 . S
H1391 C1403 0.950 . S
C1392 H1384 0.950 . S
C1392 C1393 1.386 . S
C1392 C1394 1.391 . S
C1393 C1392 1.386 . S
C1393 C1397 1.393 . S
C1394 H1386 0.950 . S
C1394 C1392 1.391 . S
C1394 C1395 1.400 . S
C1395 C1394 1.400 . S
C1395 C1396 1.398 . S
C1395 C1401 1.491 . S
C1396 H1387 0.950 . S
C1396 C1395 1.398 . S
C1396 C1397 1.391 . S
C1397 H1385 0.950 . S
C1397 C1393 1.393 . S
C1397 C1396 1.391 . S
C1398 H1388 0.950 . S
C1398 C1399 1.386 . S
C1398 C1400 1.391 . S
C1399 C1398 1.386 . S
C1399 C1403 1.393 . S
C1400 H1389 0.950 . S
C1400 C1398 1.391 . S
C1400 C1401 1.400 . S
C1401 C1395 1.491 . S
C1401 C1400 1.400 . S
C1401 C1402 1.398 . S
C1402 H1390 0.950 . S
C1402 C1401 1.398 . S
C1402 C1403 1.391 . S
C1403 H1391 0.950 . S
C1403 C1399 1.393 . S
C1403 C1402 1.391 . S
H1404 C1412 0.950 . S
H1405 C1417 0.950 . S
H1406 C1414 0.950 . S
H1407 C1416 0.950 . S
H1408 C1418 0.950 . S
H1409 C1420 0.950 . S
H1410 C1422 0.950 1_565 S
H1411 C1423 0.950 . S
C1412 H1404 0.950 . S
C1412 C1413 1.386 1_565 S
C1412 C1414 1.391 . S
C1413 C1412 1.386 1_545 S
C1413 C1417 1.393 . S
C1414 H1406 0.950 . S
C1414 C1412 1.391 . S
C1414 C1415 1.400 1_565 S
C1415 C1414 1.400 1_545 S
C1415 C1416 1.398 . S
C1415 C1421 1.491 . S
C1416 H1407 0.950 . S
C1416 C1415 1.398 . S
C1416 C1417 1.391 . S
C1417 H1405 0.950 . S
C1417 C1413 1.393 . S
C1417 C1416 1.391 . S
C1418 H1408 0.950 . S
C1418 C1419 1.386 . S
C1418 C1420 1.391 . S
C1419 C1418 1.386 . S
C1419 C1423 1.393 . S
C1420 H1409 0.950 . S
C1420 C1418 1.391 . S
C1420 C1421 1.400 . S
C1421 C1415 1.491 . S
C1421 C1420 1.400 . S
C1421 C1422 1.398 . S
C1422 H1410 0.950 1_545 S
C1422 C1421 1.398 . S
C1422 C1423 1.391 . S
C1423 H1411 0.950 . S
C1423 C1419 1.393 . S
C1423 C1422 1.391 . S
H1424 C1432 0.950 . S
H1425 C1437 0.950 . S
H1426 C1434 0.950 . S
H1427 C1436 0.950 . S
H1428 C1438 0.950 . S
H1429 C1440 0.950 . S
H1430 C1442 0.950 . S
H1431 C1443 0.950 . S
C1432 H1424 0.950 . S
C1432 C1433 1.386 . S
C1432 C1434 1.391 . S
C1433 C1432 1.386 . S
C1433 C1437 1.393 . S
C1434 H1426 0.950 . S
C1434 C1432 1.391 . S
C1434 C1435 1.400 . S
C1435 C1434 1.400 . S
C1435 C1436 1.398 . S
C1435 C1441 1.491 . S
C1436 H1427 0.950 . S
C1436 C1435 1.398 . S
C1436 C1437 1.391 . S
C1437 H1425 0.950 . S
C1437 C1433 1.393 . S
C1437 C1436 1.391 . S
C1438 H1428 0.950 . S
C1438 C1439 1.386 . S
C1438 C1440 1.391 . S
C1439 C1438 1.386 . S
C1439 C1443 1.393 . S
C1440 H1429 0.950 . S
C1440 C1438 1.391 . S
C1440 C1441 1.400 . S
C1441 C1435 1.491 . S
C1441 C1440 1.400 . S
C1441 C1442 1.398 . S
C1442 H1430 0.950 . S
C1442 C1441 1.398 . S
C1442 C1443 1.391 . S
C1443 H1431 0.950 . S
C1443 C1439 1.393 . S
C1443 C1442 1.391 . S
H1444 C1452 0.950 . S
H1445 C1457 0.950 . S
H1446 C1454 0.950 . S
H1447 C1456 0.945 1_565 S
H1448 C1458 0.950 . S
H1449 C1460 0.955 . S
H1450 C1462 0.950 . S
H1451 C1463 0.950 . S
C1452 H1444 0.950 . S
C1452 C1453 1.386 . S
C1452 C1454 1.391 . S
C1453 C1452 1.386 . S
C1453 C1457 1.393 . S
C1454 H1446 0.950 . S
C1454 C1452 1.391 . S
C1454 C1455 1.400 . S
C1455 C1454 1.400 . S
C1455 C1456 1.398 . S
C1455 C1461 1.491 . S
C1456 H1447 0.945 1_545 S
C1456 C1455 1.398 . S
C1456 C1457 1.391 . S
C1457 H1445 0.950 . S
C1457 C1453 1.393 . S
C1457 C1456 1.391 . S
C1458 H1448 0.950 . S
C1458 C1459 1.386 1_565 S
C1458 C1460 1.394 . S
C1459 C1458 1.386 1_545 S
C1459 C1463 1.393 . S
C1460 H1449 0.955 . S
C1460 C1458 1.394 . S
C1460 C1461 1.393 1_565 S
C1461 C1455 1.491 . S
C1461 C1460 1.393 1_545 S
C1461 C1462 1.398 . S
C1462 H1450 0.950 . S
C1462 C1461 1.398 . S
C1462 C1463 1.391 . S
C1463 H1451 0.950 . S
C1463 C1459 1.393 . S
C1463 C1462 1.391 . S
H1464 C1472 0.950 . S
H1465 C1477 0.950 . S
H1466 C1474 0.950 . S
H1467 C1476 0.950 . S
H1468 C1478 0.950 . S
H1469 C1480 0.950 . S
H1470 C1482 0.950 . S
H1471 C1483 0.950 . S
C1472 H1464 0.950 . S
C1472 C1473 1.386 . S
C1472 C1474 1.391 . S
C1473 C1472 1.386 . S
C1473 C1477 1.393 . S
C1474 H1466 0.950 . S
C1474 C1472 1.391 . S
C1474 C1475 1.400 . S
C1475 C1474 1.400 . S
C1475 C1476 1.398 . S
C1475 C1481 1.491 . S
C1476 H1467 0.950 . S
C1476 C1475 1.398 . S
C1476 C1477 1.391 . S
C1477 H1465 0.950 . S
C1477 C1473 1.393 . S
C1477 C1476 1.391 . S
C1478 H1468 0.950 . S
C1478 C1479 1.386 . S
C1478 C1480 1.391 . S
C1479 C1478 1.386 . S
C1479 C1483 1.393 . S
C1480 H1469 0.950 . S
C1480 C1478 1.391 . S
C1480 C1481 1.400 . S
C1481 C1475 1.491 . S
C1481 C1480 1.400 . S
C1481 C1482 1.398 . S
C1482 H1470 0.950 . S
C1482 C1481 1.398 . S
C1482 C1483 1.391 . S
C1483 H1471 0.950 . S
C1483 C1479 1.393 . S
C1483 C1482 1.391 . S
H1484 C1492 0.950 . S
H1485 C1497 0.950 . S
H1486 C1494 0.950 . S
H1487 C1496 0.950 . S
H1488 C1498 0.950 . S
H1489 C1500 0.950 1_545 S
H1490 C1502 0.950 . S
H1491 C1503 0.950 . S
C1492 H1484 0.950 . S
C1492 C1493 1.386 . S
C1492 C1494 1.391 . S
C1493 C1492 1.386 . S
C1493 C1497 1.393 . S
C1494 H1486 0.950 . S
C1494 C1492 1.391 . S
C1494 C1495 1.400 . S
C1495 C1494 1.400 . S
C1495 C1496 1.398 . S
C1495 C1501 1.491 . S
C1496 H1487 0.950 . S
C1496 C1495 1.398 . S
C1496 C1497 1.391 . S
C1497 H1485 0.950 . S
C1497 C1493 1.393 . S
C1497 C1496 1.391 . S
C1498 H1488 0.950 . S
C1498 C1499 1.386 1_545 S
C1498 C1500 1.391 1_545 S
C1499 C1498 1.386 1_565 S
C1499 C1503 1.393 . S
C1500 H1489 0.950 1_565 S
C1500 C1498 1.391 1_565 S
C1500 C1501 1.400 . S
C1501 C1495 1.491 . S
C1501 C1500 1.400 . S
C1501 C1502 1.398 . S
C1502 H1490 0.950 . S
C1502 C1501 1.398 . S
C1502 C1503 1.391 . S
C1503 H1491 0.950 . S
C1503 C1499 1.393 . S
C1503 C1502 1.391 . S
H1504 C1512 0.950 . S
H1505 C1517 0.950 . S
H1506 C1514 0.950 . S
H1507 C1516 0.950 . S
H1508 C1518 0.950 . S
H1509 C1520 0.950 . S
H1510 C1522 0.950 . S
H1511 C1523 0.950 . S
C1512 H1504 0.950 . S
C1512 C1513 1.386 1_554 S
C1512 C1514 1.391 . S
C1513 C1512 1.386 1_556 S
C1513 C1517 1.393 . S
C1514 H1506 0.950 . S
C1514 C1512 1.391 . S
C1514 C1515 1.400 1_554 S
C1515 C1514 1.400 1_556 S
C1515 C1516 1.398 . S
C1515 C1521 1.491 . S
C1516 H1507 0.950 . S
C1516 C1515 1.398 . S
C1516 C1517 1.391 . S
C1517 H1505 0.950 . S
C1517 C1513 1.393 . S
C1517 C1516 1.391 . S
C1518 H1508 0.950 . S
C1518 C1519 1.386 . S
C1518 C1520 1.391 . S
C1519 C1518 1.386 . S
C1519 C1523 1.393 1_556 S
C1520 H1509 0.950 . S
C1520 C1518 1.391 . S
C1520 C1521 1.400 . S
C1521 C1515 1.491 . S
C1521 C1520 1.400 . S
C1521 C1522 1.398 1_556 S
C1522 H1510 0.950 . S
C1522 C1521 1.398 1_554 S
C1522 C1523 1.391 . S
C1523 H1511 0.950 . S
C1523 C1519 1.393 1_554 S
C1523 C1522 1.391 . S
H1524 C1532 0.950 . S
H1525 C1537 0.950 . S
H1526 C1534 0.950 . S
H1527 C1536 0.950 . S
H1528 C1538 0.950 . S
H1529 C1540 0.950 . S
H1530 C1542 0.950 . S
H1531 C1543 0.950 . S
C1532 H1524 0.950 . S
C1532 C1533 1.386 . S
C1532 C1534 1.391 . S
C1533 C1532 1.386 . S
C1533 C1537 1.393 . S
C1534 H1526 0.950 . S
C1534 C1532 1.391 . S
C1534 C1535 1.400 . S
C1535 C1534 1.400 . S
C1535 C1536 1.398 . S
C1535 C1541 1.491 . S
C1536 H1527 0.950 . S
C1536 C1535 1.398 . S
C1536 C1537 1.391 . S
C1537 H1525 0.950 . S
C1537 C1533 1.393 . S
C1537 C1536 1.391 . S
C1538 H1528 0.950 . S
C1538 C1539 1.386 . S
C1538 C1540 1.391 . S
C1539 C1538 1.386 . S
C1539 C1543 1.393 . S
C1540 H1529 0.950 . S
C1540 C1538 1.391 . S
C1540 C1541 1.400 . S
C1541 C1535 1.491 . S
C1541 C1540 1.400 . S
C1541 C1542 1.398 . S
C1542 H1530 0.950 . S
C1542 C1541 1.398 . S
C1542 C1543 1.391 . S
C1543 H1531 0.950 . S
C1543 C1539 1.393 . S
C1543 C1542 1.391 . S
H1544 C1552 0.950 . S
H1545 C1557 0.950 . S
H1546 C1554 0.950 . S
H1547 C1556 0.960 . S
H1548 C1558 0.950 . S
H1549 C1560 0.950 . S
H1550 C1562 0.960 . S
H1551 C1563 0.950 . S
C1552 H1544 0.950 . S
C1552 C1553 1.386 . S
C1552 C1554 1.391 . S
C1553 C1552 1.386 . S
C1553 C1557 1.393 . S
C1554 H1546 0.950 . S
C1554 C1552 1.391 . S
C1554 C1555 1.400 . S
C1555 C1554 1.400 . S
C1555 C1556 1.395 1_455 S
C1555 C1561 1.491 1_455 S
C1556 H1547 0.960 . S
C1556 C1555 1.395 1_655 S
C1556 C1557 1.384 1_655 S
C1557 H1545 0.950 . S
C1557 C1553 1.393 . S
C1557 C1556 1.384 1_455 S
C1558 H1548 0.950 . S
C1558 C1559 1.386 . S
C1558 C1560 1.391 . S
C1559 C1558 1.386 . S
C1559 C1563 1.393 . S
C1560 H1549 0.950 . S
C1560 C1558 1.391 . S
C1560 C1561 1.400 . S
C1561 C1555 1.491 1_655 S
C1561 C1560 1.400 . S
C1561 C1562 1.395 1_655 S
C1562 H1550 0.960 . S
C1562 C1561 1.395 1_455 S
C1562 C1563 1.384 1_455 S
C1563 H1551 0.950 . S
C1563 C1559 1.393 . S
C1563 C1562 1.384 1_655 S
H1564 C1572 0.950 . S
H1565 C1577 0.950 . S
H1566 C1574 0.950 . S
H1567 C1576 0.950 . S
H1568 C1578 0.950 . S
H1569 C1580 0.950 . S
H1570 C1582 0.950 . S
H1571 C1583 0.950 . S
C1572 H1564 0.950 . S
C1572 C1573 1.386 . S
C1572 C1574 1.391 . S
C1573 C1572 1.386 . S
C1573 C1577 1.393 . S
C1574 H1566 0.950 . S
C1574 C1572 1.391 . S
C1574 C1575 1.400 . S
C1575 C1574 1.400 . S
C1575 C1576 1.398 . S
C1575 C1581 1.491 1_455 S
C1576 H1567 0.950 . S
C1576 C1575 1.398 . S
C1576 C1577 1.391 . S
C1577 H1565 0.950 . S
C1577 C1573 1.393 . S
C1577 C1576 1.391 . S
C1578 H1568 0.950 . S
C1578 C1579 1.386 . S
C1578 C1580 1.391 . S
C1579 C1578 1.386 . S
C1579 C1583 1.393 . S
C1580 H1569 0.950 . S
C1580 C1578 1.391 . S
C1580 C1581 1.400 . S
C1581 C1575 1.491 1_655 S
C1581 C1580 1.400 . S
C1581 C1582 1.398 . S
C1582 H1570 0.950 . S
C1582 C1581 1.398 . S
C1582 C1583 1.391 . S
C1583 H1571 0.950 . S
C1583 C1579 1.393 . S
C1583 C1582 1.391 . S
H1584 C1592 0.950 . S
H1585 C1597 0.928 1_556 S
H1586 C1594 0.950 . S
H1587 C1596 0.923 1_556 S
H1588 C1598 0.963 . S
H1589 C1600 0.957 . S
H1590 C1602 0.950 . S
H1591 C1603 0.950 . S
C1592 H1584 0.950 . S
C1592 C1593 1.386 . S
C1592 C1594 1.391 . S
C1593 C1592 1.386 . S
C1593 C1597 1.415 . S
C1594 H1586 0.950 . S
C1594 C1592 1.391 . S
C1594 C1595 1.400 . S
C1595 C1594 1.400 . S
C1595 C1596 1.427 . S
C1595 C1601 1.491 . S
C1596 H1587 0.923 1_554 S
C1596 C1595 1.427 . S
C1596 C1597 1.391 . S
C1597 H1585 0.928 1_554 S
C1597 C1593 1.415 . S
C1597 C1596 1.391 . S
C1598 H1588 0.963 . S
C1598 C1599 1.372 1_556 S
C1598 C1600 1.391 . S
C1599 C1598 1.372 1_554 S
C1599 C1603 1.393 . S
C1600 H1589 0.957 . S
C1600 C1598 1.391 . S
C1600 C1601 1.393 1_556 S
C1601 C1595 1.491 . S
C1601 C1600 1.393 1_554 S
C1601 C1602 1.398 . S
C1602 H1590 0.950 . S
C1602 C1601 1.398 . S
C1602 C1603 1.391 . S
C1603 H1591 0.950 . S
C1603 C1599 1.393 . S
C1603 C1602 1.391 . S
H1604 C1612 0.950 . S
H1605 C1617 0.950 . S
H1606 C1614 0.950 . S
H1607 C1616 0.950 . S
H1608 C1618 0.950 . S
H1609 C1620 0.950 . S
H1610 C1622 0.950 . S
H1611 C1623 0.950 . S
C1612 H1604 0.950 . S
C1612 C1613 1.386 . S
C1612 C1614 1.391 . S
C1613 C1612 1.386 . S
C1613 C1617 1.393 . S
C1614 H1606 0.950 . S
C1614 C1612 1.391 . S
C1614 C1615 1.400 . S
C1615 C1614 1.400 . S
C1615 C1616 1.398 . S
C1615 C1621 1.491 . S
C1616 H1607 0.950 . S
C1616 C1615 1.398 . S
C1616 C1617 1.391 . S
C1617 H1605 0.950 . S
C1617 C1613 1.393 . S
C1617 C1616 1.391 . S
C1618 H1608 0.950 . S
C1618 C1619 1.386 . S
C1618 C1620 1.391 . S
C1619 C1618 1.386 . S
C1619 C1623 1.393 . S
C1620 H1609 0.950 . S
C1620 C1618 1.391 . S
C1620 C1621 1.400 . S
C1621 C1615 1.491 . S
C1621 C1620 1.400 . S
C1621 C1622 1.398 . S
C1622 H1610 0.950 . S
C1622 C1621 1.398 . S
C1622 C1623 1.391 . S
C1623 H1611 0.950 . S
C1623 C1619 1.393 . S
C1623 C1622 1.391 . S
H1624 C1632 0.950 . S
H1625 C1637 0.950 . S
H1626 C1634 0.950 . S
H1627 C1636 0.950 1_655 S
H1628 C1638 0.950 . S
H1629 C1640 0.950 . S
H1630 C1642 0.950 1_455 S
H1631 C1643 0.950 . S
C1632 H1624 0.950 . S
C1632 C1633 1.386 . S
C1632 C1634 1.391 . S
C1633 C1632 1.386 . S
C1633 C1637 1.393 . S
C1634 H1626 0.950 . S
C1634 C1632 1.391 . S
C1634 C1635 1.400 . S
C1635 C1634 1.400 . S
C1635 C1636 1.398 . S
C1635 C1641 1.491 1_455 S
C1636 H1627 0.950 1_455 S
C1636 C1635 1.398 . S
C1636 C1637 1.391 . S
C1637 H1625 0.950 . S
C1637 C1633 1.393 . S
C1637 C1636 1.391 . S
C1638 H1628 0.950 . S
C1638 C1639 1.386 . S
C1638 C1640 1.391 . S
C1639 C1638 1.386 . S
C1639 C1643 1.393 . S
C1640 H1629 0.950 . S
C1640 C1638 1.391 . S
C1640 C1641 1.400 . S
C1641 C1635 1.491 1_655 S
C1641 C1640 1.400 . S
C1641 C1642 1.398 . S
C1642 H1630 0.950 1_655 S
C1642 C1641 1.398 . S
C1642 C1643 1.391 . S
C1643 H1631 0.950 . S
C1643 C1639 1.393 . S
C1643 C1642 1.391 . S
H1644 C1652 0.950 . S
H1645 C1657 0.950 . S
H1646 C1654 0.950 . S
H1647 C1656 0.950 . S
H1648 C1658 0.950 . S
H1649 C1660 0.950 . S
H1650 C1662 0.950 . S
H1651 C1663 0.950 . S
C1652 H1644 0.950 . S
C1652 C1653 1.386 . S
C1652 C1654 1.391 . S
C1653 C1652 1.386 . S
C1653 C1657 1.393 . S
C1654 H1646 0.950 . S
C1654 C1652 1.391 . S
C1654 C1655 1.400 . S
C1655 C1654 1.400 . S
C1655 C1656 1.398 . S
C1655 C1661 1.491 1_455 S
C1656 H1647 0.950 . S
C1656 C1655 1.398 . S
C1656 C1657 1.391 . S
C1657 H1645 0.950 . S
C1657 C1653 1.393 . S
C1657 C1656 1.391 . S
C1658 H1648 0.950 . S
C1658 C1659 1.386 . S
C1658 C1660 1.391 . S
C1659 C1658 1.386 . S
C1659 C1663 1.393 . S
C1660 H1649 0.950 . S
C1660 C1658 1.391 . S
C1660 C1661 1.400 . S
C1661 C1655 1.491 1_655 S
C1661 C1660 1.400 . S
C1661 C1662 1.398 . S
C1662 H1650 0.950 . S
C1662 C1661 1.398 . S
C1662 C1663 1.391 . S
C1663 H1651 0.950 . S
C1663 C1659 1.393 . S
C1663 C1662 1.391 . S
C553 C253 1.459 . S
C559 C3 1.409 . S
C573 C430 1.458 . S
C579 C37 1.415 . S
C593 C71 1.403 . S
C599 C185 1.458 . S
C613 C498 1.453 . S
C619 C105 1.412 . S
C633 C117 1.452 . S
C639 C137 1.409 . S
C653 C173 1.398 . S
C659 C287 1.457 . S
C673 C205 1.390 . S
C679 C49 1.453 . S
C693 C362 1.459 . S
C699 C241 1.406 . S
C713 C525 1.452 . S
C719 C275 1.390 . S
C733 C307 1.392 . S
C739 C158 1.456 . S
C753 C464 1.455 . S
C759 C341 1.391 . S
C773 C226 1.458 . S
C779 C375 1.406 . S
C793 C396 1.453 . S
C799 C409 1.389 . S
C813 C443 1.415 . S
C819 C15 1.454 . S
C833 C477 1.393 . S
C839 C328 1.451 . S
C853 C83 1.457 . S
C859 C513 1.417 . S
C873 C17 2.169 1_565 S
C879 C479 2.057 . S
C893 C239 2.053 1_655 S
C899 C51 2.165 . S
C913 C411 2.074 . S
C919 C85 2.164 1_545 S
C933 C119 2.167 . S
C939 C171 2.052 . S
C953 C343 2.065 . S
C959 C153 2.167 1_545 S
C973 C103 2.056 1_455 S
C979 C187 2.169 . S
C993 C221 2.165 1_565 S
C999 C273 2.053 . S
C1013 C255 2.161 . S
C1019 C35 2.059 . S
C1033 C289 2.165 . S
C1039 C207 2.053 . S
C1053 C323 2.168 . S
C1059 C511 2.060 . S
C1073 C139 2.071 . S
C1079 C357 2.158 . S
C1093 C445 2.074 1_455 S
C1099 C391 2.159 . S
C1113 C69 2.061 . S
C1119 C425 2.168 . S
C1133 C459 2.159 . S
C1139 C377 2.068 . S
C1153 C1 2.075 . S
C1159 C493 2.160 . S
C1173 C309 2.055 1_655 S
C1179 C527 2.169 . S
C1193 C6 1.292 . S
C1199 C312 1.325 . S
C1213 C346 1.329 . S
C1219 C40 1.309 . S
C1233 C380 1.329 . S
C1239 C74 1.308 . S
C1253 C300 1.330 . S
C1259 C108 1.310 . S
C1273 C164 1.312 . S
C1279 C448 1.330 . S
C1293 C176 1.298 . S
C1299 C482 1.326 . S
C1313 C538 1.332 . S
C1319 C232 1.309 . S
C1333 C414 1.325 . S
C1339 C244 1.292 . S
C1353 C62 1.328 . S
C1359 C278 1.305 . S
C1373 C96 1.332 . S
C1379 C334 1.306 1_565 S
C1393 C368 1.312 . S
C1399 C130 1.332 . S
C1413 C402 1.286 1_545 S
C1419 C28 1.325 . S
C1433 C436 1.292 . S
C1439 C198 1.326 . S
C1453 C210 1.325 . S
C1459 C470 1.287 1_545 S
C1473 C504 1.291 . S
C1479 C266 1.325 . S
C1493 C142 1.325 . S
C1499 C516 1.290 1_565 S
C1513 C355 0.771 . S
C1519 C22 0.752 . S
C1533 C56 0.765 . S
C1539 C389 0.760 . S
C1553 C90 0.722 . S
C1559 C294 0.788 . S
C1573 C321 0.741 . S
C1579 C124 0.779 . S
C1593 C151 0.785 . S
C1599 C491 0.730 . S
C1613 C532 0.739 . S
C1619 C192 0.729 . S
C1633 C423 0.787 . S
C1639 C219 0.727 . S
C1653 C260 0.767 . S
C1659 C457 0.757 . S
