# Generated by pormake.
# Topology afi, (4)-cn, num edge types: 1
# Building blocks:
#     Node 0, Type 0, BuildingBlock: KUFVIS_clean_sbu_0, # of connection points: 4
#     Node 1, Type 0, BuildingBlock: KUFVIS_clean_sbu_0, # of connection points: 4
#     Node 2, Type 0, BuildingBlock: KUFVIS_clean_sbu_0, # of connection points: 4
#     Node 3, Type 0, BuildingBlock: KUFVIS_clean_sbu_0, # of connection points: 4
#     Node 4, Type 0, BuildingBlock: KUFVIS_clean_sbu_0, # of connection points: 4
#     Node 5, Type 0, BuildingBlock: KUFVIS_clean_sbu_0, # of connection points: 4
#     Node 6, Type 0, BuildingBlock: KUFVIS_clean_sbu_0, # of connection points: 4
#     Node 7, Type 0, BuildingBlock: KUFVIS_clean_sbu_0, # of connection points: 4
#     Node 8, Type 0, BuildingBlock: KUFVIS_clean_sbu_0, # of connection points: 4
#     Node 9, Type 0, BuildingBlock: KUFVIS_clean_sbu_0, # of connection points: 4
#     Node 10, Type 0, BuildingBlock: KUFVIS_clean_sbu_0, # of connection points: 4
#     Node 11, Type 0, BuildingBlock: KUFVIS_clean_sbu_0, # of connection points: 4
#     Node 12, Type 0, BuildingBlock: KUFVIS_clean_sbu_0, # of connection points: 4
#     Node 13, Type 0, BuildingBlock: KUFVIS_clean_sbu_0, # of connection points: 4
#     Node 14, Type 0, BuildingBlock: KUFVIS_clean_sbu_0, # of connection points: 4
#     Node 15, Type 0, BuildingBlock: KUFVIS_clean_sbu_0, # of connection points: 4
#     Node 16, Type 0, BuildingBlock: KUFVIS_clean_sbu_0, # of connection points: 4
#     Node 17, Type 0, BuildingBlock: KUFVIS_clean_sbu_0, # of connection points: 4
#     Node 18, Type 0, BuildingBlock: KUFVIS_clean_sbu_0, # of connection points: 4
#     Node 19, Type 0, BuildingBlock: KUFVIS_clean_sbu_0, # of connection points: 4
#     Node 20, Type 0, BuildingBlock: KUFVIS_clean_sbu_0, # of connection points: 4
#     Node 21, Type 0, BuildingBlock: KUFVIS_clean_sbu_0, # of connection points: 4
#     Node 22, Type 0, BuildingBlock: KUFVIS_clean_sbu_0, # of connection points: 4
#     Node 23, Type 0, BuildingBlock: KUFVIS_clean_sbu_0, # of connection points: 4
#     Edge 24, Type (0, 0), BuildingBlock: UVAHIK_clean_linker_0, # of connection points: 2
#     Edge 25, Type (0, 0), BuildingBlock: UVAHIK_clean_linker_0, # of connection points: 2
#     Edge 26, Type (0, 0), BuildingBlock: UVAHIK_clean_linker_0, # of connection points: 2
#     Edge 27, Type (0, 0), BuildingBlock: UVAHIK_clean_linker_0, # of connection points: 2
#     Edge 28, Type (0, 0), BuildingBlock: UVAHIK_clean_linker_0, # of connection points: 2
#     Edge 29, Type (0, 0), BuildingBlock: UVAHIK_clean_linker_0, # of connection points: 2
#     Edge 30, Type (0, 0), BuildingBlock: UVAHIK_clean_linker_0, # of connection points: 2
#     Edge 31, Type (0, 0), BuildingBlock: UVAHIK_clean_linker_0, # of connection points: 2
#     Edge 32, Type (0, 0), BuildingBlock: UVAHIK_clean_linker_0, # of connection points: 2
#     Edge 33, Type (0, 0), BuildingBlock: UVAHIK_clean_linker_0, # of connection points: 2
#     Edge 34, Type (0, 0), BuildingBlock: UVAHIK_clean_linker_0, # of connection points: 2
#     Edge 35, Type (0, 0), BuildingBlock: UVAHIK_clean_linker_0, # of connection points: 2
#     Edge 36, Type (0, 0), BuildingBlock: UVAHIK_clean_linker_0, # of connection points: 2
#     Edge 37, Type (0, 0), BuildingBlock: UVAHIK_clean_linker_0, # of connection points: 2
#     Edge 38, Type (0, 0), BuildingBlock: UVAHIK_clean_linker_0, # of connection points: 2
#     Edge 39, Type (0, 0), BuildingBlock: UVAHIK_clean_linker_0, # of connection points: 2
#     Edge 40, Type (0, 0), BuildingBlock: UVAHIK_clean_linker_0, # of connection points: 2
#     Edge 41, Type (0, 0), BuildingBlock: UVAHIK_clean_linker_0, # of connection points: 2
#     Edge 42, Type (0, 0), BuildingBlock: UVAHIK_clean_linker_0, # of connection points: 2
#     Edge 43, Type (0, 0), BuildingBlock: UVAHIK_clean_linker_0, # of connection points: 2
#     Edge 44, Type (0, 0), BuildingBlock: UVAHIK_clean_linker_0, # of connection points: 2
#     Edge 45, Type (0, 0), BuildingBlock: UVAHIK_clean_linker_0, # of connection points: 2
#     Edge 46, Type (0, 0), BuildingBlock: UVAHIK_clean_linker_0, # of connection points: 2
#     Edge 47, Type (0, 0), BuildingBlock: UVAHIK_clean_linker_0, # of connection points: 2
#     Edge 48, Type (0, 0), BuildingBlock: UVAHIK_clean_linker_0, # of connection points: 2
#     Edge 49, Type (0, 0), BuildingBlock: UVAHIK_clean_linker_0, # of connection points: 2
#     Edge 50, Type (0, 0), BuildingBlock: UVAHIK_clean_linker_0, # of connection points: 2
#     Edge 51, Type (0, 0), BuildingBlock: UVAHIK_clean_linker_0, # of connection points: 2
#     Edge 52, Type (0, 0), BuildingBlock: UVAHIK_clean_linker_0, # of connection points: 2
#     Edge 53, Type (0, 0), BuildingBlock: UVAHIK_clean_linker_0, # of connection points: 2
#     Edge 54, Type (0, 0), BuildingBlock: UVAHIK_clean_linker_0, # of connection points: 2
#     Edge 55, Type (0, 0), BuildingBlock: UVAHIK_clean_linker_0, # of connection points: 2
#     Edge 56, Type (0, 0), BuildingBlock: UVAHIK_clean_linker_0, # of connection points: 2
#     Edge 57, Type (0, 0), BuildingBlock: UVAHIK_clean_linker_0, # of connection points: 2
#     Edge 58, Type (0, 0), BuildingBlock: UVAHIK_clean_linker_0, # of connection points: 2
#     Edge 59, Type (0, 0), BuildingBlock: UVAHIK_clean_linker_0, # of connection points: 2
#     Edge 60, Type (0, 0), BuildingBlock: UVAHIK_clean_linker_0, # of connection points: 2
#     Edge 61, Type (0, 0), BuildingBlock: UVAHIK_clean_linker_0, # of connection points: 2
#     Edge 62, Type (0, 0), BuildingBlock: UVAHIK_clean_linker_0, # of connection points: 2
#     Edge 63, Type (0, 0), BuildingBlock: UVAHIK_clean_linker_0, # of connection points: 2
#     Edge 64, Type (0, 0), BuildingBlock: UVAHIK_clean_linker_0, # of connection points: 2
#     Edge 65, Type (0, 0), BuildingBlock: UVAHIK_clean_linker_0, # of connection points: 2
#     Edge 66, Type (0, 0), BuildingBlock: UVAHIK_clean_linker_0, # of connection points: 2
#     Edge 67, Type (0, 0), BuildingBlock: UVAHIK_clean_linker_0, # of connection points: 2
#     Edge 68, Type (0, 0), BuildingBlock: UVAHIK_clean_linker_0, # of connection points: 2
#     Edge 69, Type (0, 0), BuildingBlock: UVAHIK_clean_linker_0, # of connection points: 2
#     Edge 70, Type (0, 0), BuildingBlock: UVAHIK_clean_linker_0, # of connection points: 2
#     Edge 71, Type (0, 0), BuildingBlock: UVAHIK_clean_linker_0, # of connection points: 2
# Relax obj value: 0.075
# Max RMSD: 0.080
# Mean RMSD: 0.080
data_MOF--net-afi--node1-KUFVIS_clean_sbu_0--edge1-UVAHIK_clean_linker_0
_symmetry_space_group_name_H-M    P1
_symmetry_Int_Tables_number       1
_symmetry_cell_setting            triclinic
loop_
_symmetry_equiv_pos_as_xyz
'x, y, z'
_cell_length_a     87.057117
_cell_length_b     87.0626
_cell_length_c     50.877907
_cell_angle_alpha  89.987922
_cell_angle_beta   89.997637
_cell_angle_gamma 120.00828
loop_
_atom_site_label
_atom_site_type_symbol
_atom_site_fract_x
_atom_site_fract_y
_atom_site_fract_z
_atom_type_partial_charge
Mn0 Mn 0.46247 0.12239 0.19731 0.0
Mn1 Mn 0.49921 0.15441 0.16729 0.0
C2 C 0.49037 0.13174 0.21481 0.0
C3 C 0.44163 0.09241 0.20384 0.0
C4 C 0.47473 0.16219 0.19988 0.0
O5 O 0.45346 0.12261 0.16025 0.0
O6 O 0.47899 0.14405 0.14232 0.0
C7 C 0.50462 0.13151 0.12985 0.0
N8 N 0.51082 0.14362 0.1497 0.0
C9 C 0.53864 0.14398 0.15041 0.0
C10 C 0.53259 0.13159 0.12986 0.0
C11 C 0.5155 0.12531 0.11958 0.0
C12 C 0.52723 0.14971 0.1598 0.0
H13 H 0.49146 0.12658 0.12196 0.0
C14 C 0.46246 0.13245 0.141 0.0
O15 O 0.4381 0.1048 0.21003 0.0
O16 O 0.45686 0.09744 0.1929 0.0
N17 N 0.51984 0.16547 0.18919 0.0
C18 C 0.52346 0.177 0.20948 0.0
C19 C 0.53999 0.18439 0.22214 0.0
C20 C 0.55264 0.17994 0.21371 0.0
C21 C 0.54868 0.1682 0.1926 0.0
C22 C 0.53206 0.1614 0.18056 0.0
H23 H 0.5138 0.18048 0.21603 0.0
O24 O 0.47643 0.12416 0.22971 0.0
O25 O 0.48756 0.13375 0.19036 0.0
O26 O 0.4637 0.14611 0.20608 0.0
O27 O 0.48834 0.16661 0.18547 0.0
C28 C 0.56048 0.1628 0.18324 0.0
C29 C 0.55544 0.15066 0.16221 0.0
H30 H 0.54091 0.12672 0.12196 0.0
H31 H 0.5107 0.11568 0.1038 0.0
H32 H 0.54295 0.19345 0.23841 0.0
H33 H 0.56531 0.18556 0.22366 0.0
H34 H 0.57338 0.16776 0.19225 0.0
H35 H 0.56454 0.14645 0.15539 0.0
Mn36 Mn 0.34385 0.46029 0.19622 0.0
Mn37 Mn 0.349 0.49686 0.16511 0.0
C38 C 0.36235 0.48831 0.2134 0.0
C39 C 0.35275 0.43941 0.20411 0.0
C40 C 0.31645 0.47278 0.19743 0.0
O41 O 0.33491 0.451 0.15916 0.0
O42 O 0.33911 0.4764 0.14058 0.0
C43 C 0.37744 0.5017 0.12832 0.0
N44 N 0.3715 0.50817 0.14777 0.0
C45 C 0.3991 0.53586 0.14834 0.0
C46 C 0.40547 0.52954 0.1282 0.0
C47 C 0.3946 0.51237 0.11818 0.0
C48 C 0.38187 0.52464 0.1576 0.0
H49 H 0.36916 0.48849 0.12065 0.0
C50 C 0.33416 0.45985 0.13965 0.0
O51 O 0.33677 0.43601 0.20963 0.0
O52 O 0.36314 0.4545 0.19292 0.0
N53 N 0.35859 0.51771 0.18654 0.0
C54 C 0.35064 0.5216 0.20646 0.0
C55 C 0.35982 0.53823 0.21883 0.0
C56 C 0.37701 0.55069 0.21049 0.0
C57 C 0.38484 0.54645 0.18975 0.0
C58 C 0.37497 0.52975 0.17798 0.0
H59 H 0.33742 0.51208 0.21295 0.0
O60 O 0.35576 0.47448 0.22857 0.0
O61 O 0.35776 0.48532 0.18886 0.0
O62 O 0.32134 0.46171 0.20405 0.0
O63 O 0.32582 0.48631 0.18298 0.0
C64 C 0.40212 0.55805 0.18051 0.0
C65 C 0.40927 0.55274 0.15987 0.0
H66 H 0.41872 0.5377 0.12041 0.0
H67 H 0.39945 0.50737 0.10272 0.0
H68 H 0.35368 0.5414 0.23481 0.0
H69 H 0.3841 0.56344 0.22022 0.0
H70 H 0.41011 0.57101 0.18934 0.0
H71 H 0.42265 0.5617 0.15315 0.0
Mn72 Mn 0.88719 0.34208 0.19488 0.0
Mn73 Mn 0.85596 0.34718 0.1631 0.0
C74 C 0.87747 0.36046 0.21181 0.0
C75 C 0.91694 0.35104 0.20313 0.0
C76 C 0.84737 0.31453 0.19533 0.0
O77 O 0.88781 0.33321 0.15788 0.0
O78 O 0.86698 0.33768 0.13867 0.0
C79 C 0.87975 0.376 0.12695 0.0
N80 N 0.86715 0.36981 0.14614 0.0
C81 C 0.86678 0.39726 0.14696 0.0
C82 C 0.87966 0.40389 0.12708 0.0
C83 C 0.88619 0.39321 0.11707 0.0
C84 C 0.86082 0.37999 0.15596 0.0
H85 H 0.88486 0.36787 0.11929 0.0
C86 C 0.87856 0.33269 0.13802 0.0
O87 O 0.90437 0.33505 0.20856 0.0
O88 O 0.91227 0.36142 0.19186 0.0
N89 N 0.84436 0.35644 0.18444 0.0
C90 C 0.83237 0.34828 0.20415 0.0
C91 C 0.82472 0.35726 0.21652 0.0
C92 C 0.82937 0.37447 0.2084 0.0
C93 C 0.84158 0.38252 0.18787 0.0
C94 C 0.84863 0.37285 0.1761 0.0
H95 H 0.82875 0.33505 0.21048 0.0
O96 O 0.88466 0.35391 0.22713 0.0
O97 O 0.87605 0.35592 0.18727 0.0
O98 O 0.86328 0.31955 0.20245 0.0
O99 O 0.8433 0.32384 0.18057 0.0
C100 C 0.84722 0.39985 0.17888 0.0
C101 C 0.85984 0.40723 0.15848 0.0
H102 H 0.88473 0.41719 0.11949 0.0
H103 H 0.8962 0.39826 0.10181 0.0
H104 H 0.8153 0.35095 0.23234 0.0
H105 H 0.82356 0.38141 0.21814 0.0
H106 H 0.84208 0.40769 0.18772 0.0
H107 H 0.86422 0.42064 0.15195 0.0
Mn108 Mn 0.54796 0.88498 0.19772 0.0
Mn109 Mn 0.51124 0.85317 0.16742 0.0
C110 C 0.52005 0.87553 0.21528 0.0
C111 C 0.56881 0.91492 0.20454 0.0
C112 C 0.53571 0.84517 0.19964 0.0
O113 O 0.557 0.88497 0.1606 0.0
O114 O 0.53147 0.8637 0.14246 0.0
C115 C 0.50582 0.87632 0.13048 0.0
N116 N 0.49962 0.86407 0.15015 0.0
C117 C 0.47179 0.86368 0.15111 0.0
C118 C 0.47784 0.87622 0.13075 0.0
C119 C 0.49494 0.88258 0.12043 0.0
C120 C 0.48321 0.8579 0.16028 0.0
H121 H 0.51899 0.88131 0.12257 0.0
C122 C 0.54801 0.87529 0.14124 0.0
O123 O 0.57234 0.90251 0.21054 0.0
O124 O 0.55357 0.90995 0.19366 0.0
N125 N 0.49061 0.84196 0.18931 0.0
C126 C 0.487 0.8303 0.20943 0.0
C127 C 0.47047 0.82282 0.22212 0.0
C128 C 0.45782 0.82731 0.21389 0.0
C129 C 0.46177 0.83919 0.19295 0.0
C130 C 0.47838 0.84607 0.18087 0.0
H131 H 0.49667 0.82679 0.21582 0.0
O132 O 0.53398 0.88302 0.2302 0.0
O133 O 0.52289 0.87367 0.19077 0.0
O134 O 0.54672 0.8612 0.2061 0.0
O135 O 0.52212 0.84086 0.18524 0.0
C136 C 0.44996 0.84463 0.1838 0.0
C137 C 0.45499 0.85691 0.16295 0.0
H138 H 0.46952 0.88113 0.12302 0.0
H139 H 0.49974 0.89232 0.1048 0.0
H140 H 0.46752 0.81366 0.23826 0.0
H141 H 0.44515 0.82163 0.22386 0.0
H142 H 0.43706 0.83961 0.19285 0.0
H143 H 0.44588 0.86116 0.1563 0.0
Mn144 Mn 0.66613 0.54533 0.1954 0.0
Mn145 Mn 0.66119 0.50878 0.16455 0.0
C146 C 0.64787 0.51737 0.21293 0.0
C147 C 0.65698 0.5661 0.20258 0.0
C148 C 0.69386 0.53333 0.19643 0.0
O149 O 0.67501 0.55447 0.15827 0.0
O150 O 0.67043 0.529 0.13956 0.0
C151 C 0.63214 0.50305 0.12841 0.0
N152 N 0.63849 0.49697 0.14782 0.0
C153 C 0.61118 0.46902 0.14932 0.0
C154 C 0.60439 0.47494 0.12923 0.0
C155 C 0.6149 0.49204 0.11877 0.0
C156 C 0.62847 0.48055 0.15807 0.0
H157 H 0.64014 0.51621 0.12041 0.0
C158 C 0.67543 0.54556 0.13857 0.0
O159 O 0.67297 0.56966 0.20838 0.0
O160 O 0.64669 0.55086 0.19171 0.0
N161 N 0.65218 0.48818 0.18645 0.0
C162 C 0.66049 0.48471 0.20633 0.0
C163 C 0.65168 0.46823 0.21916 0.0
C164 C 0.63447 0.45546 0.21133 0.0
C165 C 0.62626 0.45926 0.19063 0.0
C166 C 0.63577 0.47585 0.17839 0.0
H167 H 0.67372 0.49447 0.21244 0.0
O168 O 0.65431 0.53128 0.2279 0.0
O169 O 0.65241 0.52027 0.18836 0.0
O170 O 0.68873 0.54416 0.2034 0.0
O171 O 0.68462 0.51985 0.18181 0.0
C172 C 0.60893 0.44735 0.1819 0.0
C173 C 0.60138 0.45224 0.1613 0.0
H174 H 0.59107 0.46653 0.12182 0.0
H175 H 0.60972 0.49674 0.10335 0.0
H176 H 0.6581 0.46539 0.23512 0.0
H177 H 0.62765 0.44283 0.22144 0.0
H178 H 0.60121 0.43447 0.19109 0.0
H179 H 0.58796 0.44305 0.15498 0.0
Mn180 Mn 0.12359 0.66501 0.19501 0.0
Mn181 Mn 0.15525 0.66034 0.16377 0.0
C182 C 0.13322 0.64655 0.21197 0.0
C183 C 0.09366 0.65579 0.20227 0.0
C184 C 0.16334 0.69269 0.19644 0.0
O185 O 0.1234 0.67424 0.15811 0.0
O186 O 0.14435 0.66986 0.13914 0.0
C187 C 0.13197 0.63169 0.12705 0.0
N188 N 0.14437 0.63782 0.14651 0.0
C189 C 0.14496 0.61048 0.14722 0.0
C190 C 0.13228 0.60392 0.12707 0.0
C191 C 0.12574 0.61456 0.11697 0.0
C192 C 0.15072 0.62768 0.15641 0.0
H193 H 0.12684 0.63979 0.11932 0.0
C194 C 0.13277 0.67485 0.13836 0.0
O195 O 0.10608 0.67172 0.20835 0.0
O196 O 0.09862 0.64562 0.19107 0.0
N197 N 0.16676 0.65107 0.18531 0.0
C198 C 0.17851 0.65916 0.20529 0.0
C199 C 0.18615 0.6502 0.21778 0.0
C200 C 0.1817 0.63307 0.2095 0.0
C201 C 0.16972 0.62509 0.1887 0.0
C202 C 0.16268 0.63475 0.17682 0.0
H203 H 0.18199 0.67232 0.21174 0.0
O204 O 0.12576 0.65288 0.22718 0.0
O205 O 0.13492 0.65134 0.18751 0.0
O206 O 0.14736 0.68753 0.20335 0.0
O207 O 0.16759 0.68357 0.18157 0.0
C208 C 0.1643 0.60786 0.17952 0.0
C209 C 0.1519 0.60054 0.15884 0.0
H210 H 0.12738 0.59068 0.11932 0.0
H211 H 0.11589 0.60955 0.1015 0.0
H212 H 0.19539 0.65645 0.23381 0.0
H213 H 0.18749 0.62614 0.21933 0.0
H214 H 0.16944 0.60003 0.18843 0.0
H215 H 0.14768 0.58719 0.15217 0.0
Mn216 Mn 0.88605 0.54585 0.30976 0.0
Mn217 Mn 0.85442 0.50894 0.33994 0.0
C218 C 0.87669 0.51802 0.29197 0.0
C219 C 0.91588 0.56682 0.30243 0.0
C220 C 0.84616 0.53332 0.308 0.0
O221 O 0.88614 0.55476 0.34702 0.0
O222 O 0.8648 0.52915 0.36492 0.0
C223 C 0.87776 0.50377 0.37681 0.0
N224 N 0.8655 0.49749 0.35715 0.0
C225 C 0.86545 0.46983 0.35606 0.0
C226 C 0.87799 0.47596 0.37641 0.0
C227 C 0.88419 0.49301 0.38679 0.0
C228 C 0.85949 0.48112 0.34696 0.0
H229 H 0.88262 0.5169 0.38476 0.0
C230 C 0.87639 0.54569 0.36629 0.0
O231 O 0.90335 0.57027 0.29692 0.0
O232 O 0.91112 0.55163 0.31331 0.0
N233 N 0.84335 0.48832 0.31803 0.0
C234 C 0.83165 0.48461 0.29795 0.0
C235 C 0.82431 0.46811 0.28523 0.0
C236 C 0.829 0.45558 0.29337 0.0
C237 C 0.84091 0.45962 0.31427 0.0
C238 C 0.84764 0.4762 0.3264 0.0
H239 H 0.82799 0.49418 0.29162 0.0
O240 O 0.88402 0.532 0.27712 0.0
O241 O 0.8749 0.52075 0.31655 0.0
O242 O 0.86218 0.54449 0.30174 0.0
O243 O 0.8419 0.51964 0.32216 0.0
C244 C 0.84654 0.44795 0.32334 0.0
C245 C 0.85884 0.45307 0.34417 0.0
H246 H 0.88304 0.46773 0.38409 0.0
H247 H 0.89393 0.49787 0.40241 0.0
H248 H 0.81512 0.46509 0.26912 0.0
H249 H 0.82342 0.44293 0.28336 0.0
H250 H 0.84165 0.43508 0.31424 0.0
H251 H 0.86323 0.44406 0.35076 0.0
Mn252 Mn 0.34299 0.88451 0.31062 0.0
Mn253 Mn 0.3479 0.8529 0.34157 0.0
C254 C 0.36146 0.87496 0.29346 0.0
C255 C 0.35202 0.91434 0.30291 0.0
C256 C 0.31546 0.84466 0.30915 0.0
O257 O 0.33399 0.88481 0.34767 0.0
O258 O 0.33806 0.8635 0.36615 0.0
C259 C 0.37632 0.87629 0.37853 0.0
N260 N 0.37037 0.86395 0.35899 0.0
C261 C 0.3979 0.86373 0.3584 0.0
C262 C 0.40428 0.87636 0.37864 0.0
C263 C 0.39345 0.88268 0.38871 0.0
C264 C 0.3807 0.85782 0.3491 0.0
H265 H 0.36807 0.88125 0.38624 0.0
C266 C 0.33318 0.87514 0.36714 0.0
O267 O 0.33604 0.90183 0.29729 0.0
O268 O 0.36234 0.90956 0.31409 0.0
N269 N 0.35745 0.84164 0.32006 0.0
C270 C 0.3495 0.82988 0.30003 0.0
C271 C 0.35865 0.82243 0.28759 0.0
C272 C 0.37581 0.82706 0.29596 0.0
C273 C 0.38363 0.83904 0.3168 0.0
C274 C 0.3738 0.84589 0.32863 0.0
H275 H 0.33631 0.82627 0.29352 0.0
O276 O 0.35495 0.88227 0.2783 0.0
O277 O 0.35679 0.87329 0.31796 0.0
O278 O 0.32044 0.86066 0.3026 0.0
O279 O 0.32474 0.8404 0.32362 0.0
C280 C 0.40089 0.84463 0.32608 0.0
C281 C 0.40803 0.857 0.34682 0.0
H282 H 0.41751 0.88138 0.38646 0.0
H283 H 0.39831 0.89249 0.40424 0.0
H284 H 0.35251 0.81319 0.27153 0.0
H285 H 0.38288 0.8214 0.28617 0.0
H286 H 0.40885 0.83964 0.31722 0.0
H287 H 0.42139 0.86135 0.35357 0.0
Mn288 Mn 0.46231 0.34173 0.31333 0.0
Mn289 Mn 0.49876 0.34658 0.34442 0.0
C290 C 0.49033 0.35996 0.29595 0.0
C291 C 0.44162 0.35096 0.30596 0.0
C292 C 0.47425 0.31395 0.31244 0.0
O293 O 0.45306 0.33282 0.35042 0.0
O294 O 0.47847 0.33733 0.36928 0.0
C295 C 0.50443 0.37561 0.38054 0.0
N296 N 0.51055 0.36926 0.36119 0.0
C297 C 0.53852 0.39656 0.35982 0.0
C298 C 0.53255 0.40335 0.37986 0.0
C299 C 0.51542 0.39284 0.39023 0.0
C300 C 0.52699 0.37928 0.35103 0.0
H301 H 0.49124 0.36761 0.38847 0.0
C302 C 0.46191 0.33236 0.37017 0.0
O303 O 0.43803 0.33496 0.30018 0.0
O304 O 0.45683 0.3612 0.31694 0.0
N305 N 0.51942 0.35559 0.32264 0.0
C306 C 0.52293 0.34729 0.3028 0.0
C307 C 0.53945 0.3561 0.29006 0.0
C308 C 0.5522 0.3733 0.29794 0.0
C309 C 0.54836 0.3815 0.31861 0.0
C310 C 0.53174 0.37199 0.33076 0.0
H311 H 0.51318 0.33407 0.29665 0.0
O312 O 0.47645 0.35354 0.2809 0.0
O313 O 0.48736 0.35541 0.32051 0.0
O314 O 0.46345 0.3191 0.3054 0.0
O315 O 0.4877 0.32317 0.32712 0.0
C316 C 0.56026 0.39883 0.32738 0.0
C317 C 0.55533 0.40637 0.34793 0.0
H318 H 0.54095 0.41666 0.3873 0.0
H319 H 0.51069 0.39802 0.40561 0.0
H320 H 0.54231 0.34969 0.27413 0.0
H321 H 0.56486 0.38012 0.2879 0.0
H322 H 0.57316 0.40654 0.31825 0.0
H323 H 0.56451 0.41977 0.35429 0.0
Mn324 Mn 0.12449 0.4612 0.31026 0.0
Mn325 Mn 0.15639 0.49815 0.33996 0.0
C326 C 0.13389 0.48897 0.29221 0.0
C327 C 0.09453 0.44032 0.30372 0.0
C328 C 0.16429 0.47342 0.30823 0.0
O329 O 0.12462 0.45244 0.34755 0.0
O330 O 0.14594 0.47812 0.36527 0.0
C331 C 0.13336 0.50386 0.37672 0.0
N332 N 0.14555 0.50991 0.35697 0.0
C333 C 0.1459 0.53771 0.35543 0.0
C334 C 0.13344 0.53183 0.37588 0.0
C335 C 0.12712 0.51482 0.38653 0.0
C336 C 0.15168 0.52623 0.34652 0.0
H337 H 0.1284 0.49077 0.38488 0.0
C338 C 0.13436 0.46159 0.36676 0.0
O339 O 0.10693 0.43674 0.29783 0.0
O340 O 0.09954 0.45563 0.31437 0.0
N341 N 0.16754 0.5186 0.3177 0.0
C342 C 0.17912 0.52205 0.29753 0.0
C343 C 0.18654 0.53846 0.28453 0.0
C344 C 0.18206 0.55117 0.29248 0.0
C345 C 0.17026 0.5474 0.31347 0.0
C346 C 0.16344 0.53089 0.32587 0.0
H347 H 0.18262 0.51233 0.29135 0.0
O348 O 0.12635 0.47492 0.27753 0.0
O349 O 0.13582 0.48632 0.31678 0.0
O350 O 0.14824 0.46237 0.30191 0.0
O351 O 0.16866 0.48712 0.32239 0.0
C352 C 0.16483 0.55926 0.32235 0.0
C353 C 0.15262 0.55441 0.34327 0.0
H354 H 0.12853 0.5402 0.38342 0.0
H355 H 0.11743 0.51015 0.40223 0.0
H356 H 0.19565 0.54128 0.26835 0.0
H357 H 0.1877 0.56375 0.28225 0.0
H358 H 0.1698 0.57208 0.31305 0.0
H359 H 0.14838 0.56356 0.34972 0.0
Mn360 Mn 0.66754 0.12292 0.31022 0.0
Mn361 Mn 0.66254 0.15465 0.34059 0.0
C362 C 0.64892 0.13223 0.29285 0.0
C363 C 0.65861 0.09306 0.30301 0.0
C364 C 0.6949 0.1628 0.30801 0.0
O365 O 0.67667 0.12294 0.34729 0.0
O366 O 0.67257 0.14434 0.36534 0.0
C367 C 0.63434 0.13142 0.37797 0.0
N368 N 0.64015 0.14362 0.35823 0.0
C369 C 0.61253 0.14367 0.3577 0.0
C370 C 0.60629 0.13119 0.37815 0.0
C371 C 0.61724 0.12502 0.38829 0.0
C372 C 0.6297 0.1496 0.34827 0.0
H373 H 0.64267 0.12658 0.38574 0.0
C374 C 0.67752 0.13275 0.36657 0.0
O375 O 0.67455 0.10558 0.29719 0.0
O376 O 0.64827 0.09786 0.31411 0.0
N377 N 0.6528 0.16565 0.31892 0.0
C378 C 0.66063 0.17731 0.29873 0.0
C379 C 0.65138 0.18462 0.28623 0.0
C380 C 0.63423 0.17997 0.29472 0.0
C381 C 0.62653 0.1681 0.31572 0.0
C382 C 0.63647 0.16139 0.3276 0.0
H383 H 0.67382 0.18095 0.29214 0.0
O384 O 0.65544 0.12485 0.27784 0.0
O385 O 0.65366 0.13409 0.31734 0.0
O386 O 0.68998 0.14676 0.30181 0.0
O387 O 0.68561 0.16711 0.32238 0.0
C388 C 0.6093 0.1625 0.32513 0.0
C389 C 0.60228 0.15025 0.34605 0.0
H390 H 0.59308 0.12617 0.38608 0.0
H391 H 0.61248 0.11533 0.40398 0.0
H392 H 0.65742 0.19378 0.27005 0.0
H393 H 0.62708 0.18553 0.28489 0.0
H394 H 0.60125 0.16738 0.31623 0.0
H395 H 0.58894 0.14589 0.35291 0.0
Mn396 Mn 0.54826 0.66498 0.3103 0.0
Mn397 Mn 0.51158 0.6598 0.34107 0.0
C398 C 0.52031 0.64659 0.2928 0.0
C399 C 0.56908 0.65597 0.30259 0.0
C400 C 0.53594 0.6925 0.3092 0.0
O401 O 0.55739 0.67375 0.34748 0.0
O402 O 0.5319 0.66947 0.36585 0.0
C403 C 0.50639 0.63111 0.37759 0.0
N404 N 0.50009 0.63721 0.35812 0.0
C405 C 0.47234 0.60967 0.35705 0.0
C406 C 0.47849 0.60314 0.37721 0.0
C407 C 0.4956 0.6139 0.38749 0.0
C408 C 0.48366 0.62694 0.34804 0.0
H409 H 0.51956 0.63931 0.38546 0.0
C410 C 0.54843 0.6744 0.36694 0.0
O411 O 0.57259 0.67199 0.29713 0.0
O412 O 0.55392 0.6456 0.31361 0.0
N413 N 0.49088 0.65041 0.31934 0.0
C414 C 0.48716 0.6585 0.29941 0.0
C415 C 0.47063 0.64944 0.28678 0.0
C416 C 0.45806 0.63222 0.29486 0.0
C417 C 0.46211 0.62424 0.31562 0.0
C418 C 0.47873 0.63399 0.32765 0.0
H419 H 0.49677 0.67174 0.29312 0.0
O420 O 0.5342 0.65321 0.27777 0.0
O421 O 0.5232 0.65111 0.31737 0.0
O422 O 0.54698 0.68757 0.30254 0.0
O423 O 0.52233 0.68309 0.3235 0.0
C424 C 0.45039 0.60692 0.32461 0.0
C425 C 0.45553 0.59962 0.34526 0.0
H426 H 0.47024 0.58985 0.38482 0.0
H427 H 0.50047 0.60893 0.40296 0.0
H428 H 0.4676 0.65569 0.27078 0.0
H429 H 0.44537 0.62522 0.28492 0.0
H430 H 0.43749 0.59902 0.31558 0.0
H431 H 0.44649 0.58621 0.35179 0.0
Mn432 Mn 0.54832 0.88488 0.81051 0.0
Mn433 Mn 0.51162 0.85338 0.84129 0.0
C434 C 0.52037 0.87528 0.79297 0.0
C435 C 0.56917 0.91469 0.80273 0.0
C436 C 0.53599 0.84503 0.80952 0.0
O437 O 0.55742 0.88527 0.84774 0.0
O438 O 0.53192 0.86406 0.86609 0.0
C439 C 0.50641 0.87691 0.87771 0.0
N440 N 0.50012 0.86449 0.85827 0.0
C441 C 0.47235 0.86424 0.85716 0.0
C442 C 0.47849 0.87694 0.87729 0.0
C443 C 0.49561 0.88332 0.88757 0.0
C444 C 0.48369 0.85831 0.84818 0.0
H445 H 0.51958 0.88191 0.88559 0.0
C446 C 0.54846 0.87568 0.8672 0.0
O447 O 0.57266 0.90216 0.79737 0.0
O448 O 0.554 0.90994 0.8137 0.0
N449 N 0.49092 0.84204 0.81956 0.0
C450 C 0.48721 0.83021 0.79968 0.0
C451 C 0.47067 0.82269 0.78706 0.0
C452 C 0.45808 0.82732 0.79512 0.0
C453 C 0.46213 0.83938 0.81582 0.0
C454 C 0.47876 0.8463 0.82783 0.0
H455 H 0.49683 0.82658 0.79342 0.0
O456 O 0.53427 0.88255 0.77795 0.0
O457 O 0.52325 0.87368 0.81755 0.0
O458 O 0.54704 0.861 0.80287 0.0
O459 O 0.52238 0.84083 0.8238 0.0
C460 C 0.45041 0.84498 0.82478 0.0
C461 C 0.45553 0.85744 0.84538 0.0
H462 H 0.47023 0.88198 0.88486 0.0
H463 H 0.50047 0.89319 0.90301 0.0
H464 H 0.46764 0.81338 0.77111 0.0
H465 H 0.44539 0.82161 0.78519 0.0
H466 H 0.43749 0.83994 0.81576 0.0
H467 H 0.44648 0.8618 0.85189 0.0
Mn468 Mn 0.66693 0.54605 0.81265 0.0
Mn469 Mn 0.66205 0.50963 0.8439 0.0
C470 C 0.64867 0.518 0.79537 0.0
C471 C 0.65791 0.56682 0.8047 0.0
C472 C 0.69465 0.53401 0.81181 0.0
O473 O 0.67572 0.55535 0.84975 0.0
O474 O 0.67143 0.53001 0.86856 0.0
C475 C 0.63321 0.50415 0.88032 0.0
N476 N 0.63947 0.49793 0.86097 0.0
C477 C 0.61236 0.46979 0.86054 0.0
C478 C 0.60566 0.47585 0.88058 0.0
C479 C 0.61612 0.49313 0.89046 0.0
C480 C 0.62949 0.48136 0.85124 0.0
H481 H 0.64119 0.51744 0.88792 0.0
C482 C 0.6763 0.54655 0.86946 0.0
O483 O 0.67392 0.57031 0.79929 0.0
O484 O 0.64751 0.55168 0.81577 0.0
N485 N 0.65292 0.48887 0.82235 0.0
C486 C 0.66107 0.48531 0.80233 0.0
C487 C 0.65223 0.46868 0.78991 0.0
C488 C 0.63519 0.45587 0.79833 0.0
C489 C 0.62717 0.45977 0.81919 0.0
C490 C 0.63666 0.47652 0.83092 0.0
H491 H 0.67417 0.4951 0.7958 0.0
O492 O 0.6552 0.53185 0.78025 0.0
O493 O 0.65315 0.52098 0.81996 0.0
O494 O 0.68956 0.54488 0.80493 0.0
O495 O 0.68538 0.52052 0.82639 0.0
C496 C 0.61004 0.44778 0.82858 0.0
C497 C 0.60261 0.4528 0.84918 0.0
H498 H 0.59246 0.46741 0.88839 0.0
H499 H 0.61101 0.49793 0.90584 0.0
H500 H 0.65851 0.46577 0.77383 0.0
H501 H 0.62835 0.44311 0.78856 0.0
H502 H 0.60236 0.43474 0.81986 0.0
H503 H 0.58933 0.44355 0.85597 0.0
Mn504 Mn 0.12362 0.66574 0.81281 0.0
Mn505 Mn 0.15496 0.66066 0.84426 0.0
C506 C 0.1333 0.64736 0.79571 0.0
C507 C 0.09382 0.6567 0.80475 0.0
C508 C 0.16344 0.69329 0.81206 0.0
O509 O 0.12311 0.67462 0.84985 0.0
O510 O 0.14403 0.67019 0.86881 0.0
C511 C 0.13131 0.63189 0.88057 0.0
N512 N 0.14383 0.63805 0.86127 0.0
C513 C 0.14419 0.61059 0.86039 0.0
C514 C 0.13138 0.60399 0.88037 0.0
C515 C 0.1249 0.61468 0.89047 0.0
C516 C 0.15012 0.62786 0.85136 0.0
H517 H 0.12622 0.64002 0.8883 0.0
C518 C 0.13245 0.67517 0.86961 0.0
O519 O 0.10635 0.67271 0.79927 0.0
O520 O 0.09856 0.64636 0.81598 0.0
N521 N 0.16648 0.65137 0.8228 0.0
C522 C 0.17839 0.65951 0.80299 0.0
C523 C 0.186 0.65052 0.79053 0.0
C524 C 0.18137 0.63331 0.79865 0.0
C525 C 0.16923 0.62528 0.81927 0.0
C526 C 0.16223 0.63497 0.83113 0.0
H527 H 0.182 0.67274 0.79666 0.0
O528 O 0.12606 0.65391 0.78049 0.0
O529 O 0.13479 0.65191 0.82026 0.0
O530 O 0.1475 0.6883 0.80511 0.0
O531 O 0.16756 0.68398 0.82672 0.0
C532 C 0.16363 0.60796 0.82828 0.0
C533 C 0.15108 0.60061 0.84877 0.0
H534 H 0.12634 0.5907 0.88798 0.0
H535 H 0.11495 0.60965 0.90581 0.0
H536 H 0.19536 0.6568 0.77464 0.0
H537 H 0.18714 0.62636 0.78884 0.0
H538 H 0.16873 0.60011 0.81937 0.0
H539 H 0.14672 0.5872 0.85531 0.0
Mn540 Mn 0.46279 0.12265 0.8105 0.0
Mn541 Mn 0.49951 0.15421 0.84115 0.0
C542 C 0.49073 0.13202 0.79314 0.0
C543 C 0.44184 0.09283 0.80303 0.0
C544 C 0.47536 0.16255 0.80877 0.0
O545 O 0.45364 0.12252 0.8476 0.0
O546 O 0.47913 0.14377 0.86585 0.0
C547 C 0.50443 0.13077 0.87816 0.0
N548 N 0.51084 0.14307 0.85856 0.0
C549 C 0.53851 0.14313 0.85789 0.0
C550 C 0.53225 0.13054 0.87819 0.0
C551 C 0.51512 0.12432 0.88832 0.0
C552 C 0.52728 0.14911 0.8486 0.0
H553 H 0.49125 0.12589 0.88592 0.0
C554 C 0.46258 0.13221 0.86698 0.0
O555 O 0.43844 0.10538 0.79736 0.0
O556 O 0.45697 0.09758 0.81413 0.0
N557 N 0.52027 0.16532 0.81952 0.0
C558 C 0.52412 0.17708 0.79948 0.0
C559 C 0.54071 0.18446 0.787 0.0
C560 C 0.55319 0.17976 0.79535 0.0
C561 C 0.549 0.16778 0.81621 0.0
C562 C 0.53233 0.16101 0.82808 0.0
H563 H 0.51458 0.18076 0.79299 0.0
O564 O 0.47685 0.12471 0.77809 0.0
O565 O 0.48784 0.13377 0.81766 0.0
O566 O 0.46424 0.14655 0.80236 0.0
O567 O 0.48892 0.16677 0.82318 0.0
C568 C 0.56062 0.16213 0.82548 0.0
C569 C 0.55536 0.14978 0.84626 0.0
H570 H 0.54042 0.12547 0.88601 0.0
H571 H 0.51016 0.11454 0.9039 0.0
H572 H 0.54384 0.19371 0.77093 0.0
H573 H 0.56591 0.18538 0.78555 0.0
H574 H 0.57355 0.16706 0.81659 0.0
H575 H 0.56433 0.14538 0.853 0.0
Mn576 Mn 0.34351 0.45977 0.80979 0.0
Mn577 Mn 0.34944 0.49642 0.84164 0.0
C578 C 0.36289 0.48779 0.79341 0.0
C579 C 0.35129 0.43806 0.80198 0.0
C580 C 0.31701 0.47336 0.80841 0.0
O581 O 0.33383 0.4502 0.8465 0.0
O582 O 0.33901 0.47574 0.86578 0.0
C583 C 0.37739 0.50024 0.87865 0.0
N584 N 0.37181 0.50713 0.85931 0.0
C585 C 0.3997 0.53453 0.85952 0.0
C586 C 0.4057 0.52777 0.87956 0.0
C587 C 0.39451 0.51054 0.88912 0.0
C588 C 0.3825 0.52367 0.84989 0.0
H589 H 0.36886 0.48698 0.88598 0.0
C590 C 0.33344 0.45906 0.86627 0.0
O591 O 0.33574 0.43555 0.79572 0.0
O592 O 0.36201 0.45285 0.81368 0.0
N593 N 0.35958 0.51748 0.82062 0.0
C594 C 0.35195 0.52183 0.80077 0.0
C595 C 0.36146 0.53859 0.78888 0.0
C596 C 0.37865 0.55073 0.79763 0.0
C597 C 0.38615 0.54603 0.81828 0.0
C598 C 0.37596 0.52921 0.82957 0.0
H599 H 0.33872 0.51256 0.794 0.0
O600 O 0.3562 0.47412 0.77795 0.0
O601 O 0.35798 0.48467 0.81783 0.0
O602 O 0.32167 0.46219 0.80139 0.0
O603 O 0.32639 0.48652 0.82349 0.0
C604 C 0.40341 0.55728 0.8279 0.0
C605 C 0.4102 0.55152 0.84845 0.0
H606 H 0.41892 0.53565 0.88762 0.0
H607 H 0.39908 0.5052 0.9045 0.0
H608 H 0.35557 0.54213 0.77296 0.0
H609 H 0.38598 0.5636 0.78828 0.0
H610 H 0.41164 0.57032 0.81944 0.0
H611 H 0.42356 0.56021 0.85547 0.0
Mn612 Mn 0.88721 0.3421 0.81266 0.0
Mn613 Mn 0.8556 0.34679 0.84401 0.0
C614 C 0.8774 0.36038 0.79557 0.0
C615 C 0.91714 0.3514 0.80525 0.0
C616 C 0.8475 0.31426 0.8118 0.0
O617 O 0.88758 0.33308 0.84966 0.0
O618 O 0.86671 0.33755 0.86873 0.0
C619 C 0.87894 0.37578 0.88021 0.0
N620 N 0.86645 0.36944 0.86088 0.0
C621 C 0.86568 0.39669 0.85973 0.0
C622 C 0.87846 0.40347 0.87975 0.0
C623 C 0.88513 0.39298 0.88999 0.0
C624 C 0.85997 0.37944 0.85083 0.0
H625 H 0.88418 0.3678 0.88805 0.0
C626 C 0.87831 0.33259 0.86948 0.0
O627 O 0.90475 0.33542 0.79934 0.0
O628 O 0.91215 0.36158 0.81635 0.0
N629 N 0.8439 0.3558 0.82235 0.0
C630 C 0.83209 0.34752 0.80248 0.0
C631 C 0.82433 0.35632 0.78985 0.0
C632 C 0.82873 0.37348 0.79785 0.0
C633 C 0.84077 0.38166 0.81853 0.0
C634 C 0.84792 0.37216 0.83057 0.0
H635 H 0.82866 0.33433 0.79625 0.0
O636 O 0.88485 0.35403 0.78038 0.0
O637 O 0.87581 0.35571 0.82007 0.0
O638 O 0.86345 0.31947 0.80463 0.0
O639 O 0.84328 0.32341 0.82662 0.0
C640 C 0.84614 0.39894 0.82742 0.0
C641 C 0.85862 0.40647 0.84796 0.0
H642 H 0.88333 0.41675 0.88726 0.0
H643 H 0.89506 0.39815 0.90535 0.0
H644 H 0.81505 0.34992 0.77391 0.0
H645 H 0.82285 0.38029 0.7879 0.0
H646 H 0.8409 0.40665 0.81839 0.0
H647 H 0.86281 0.41985 0.8544 0.0
Mn648 Mn 0.1247 0.46196 0.69769 0.0
Mn649 Mn 0.15609 0.49887 0.66722 0.0
C650 C 0.13399 0.48979 0.71539 0.0
C651 C 0.09492 0.44089 0.70521 0.0
C652 C 0.16464 0.47468 0.6991 0.0
O653 O 0.12453 0.45299 0.66046 0.0
O654 O 0.14569 0.4786 0.64234 0.0
C655 C 0.1325 0.50381 0.63057 0.0
N656 N 0.14484 0.51019 0.65011 0.0
C657 C 0.14475 0.53778 0.65118 0.0
C658 C 0.13212 0.53155 0.63095 0.0
C659 C 0.12595 0.51448 0.62064 0.0
C660 C 0.15083 0.52657 0.66023 0.0
H661 H 0.12766 0.49067 0.62267 0.0
C662 C 0.13418 0.46204 0.6411 0.0
O663 O 0.10752 0.43753 0.71067 0.0
O664 O 0.09959 0.45605 0.69429 0.0
N665 N 0.16717 0.51955 0.68901 0.0
C666 C 0.17898 0.52336 0.70898 0.0
C667 C 0.18631 0.53988 0.72162 0.0
C668 C 0.18151 0.55234 0.71351 0.0
C669 C 0.16949 0.54819 0.69272 0.0
C670 C 0.16277 0.53159 0.68068 0.0
H671 H 0.18272 0.51384 0.71528 0.0
O672 O 0.12676 0.47584 0.7303 0.0
O673 O 0.13571 0.48703 0.69079 0.0
O674 O 0.14866 0.46347 0.70554 0.0
O675 O 0.16877 0.4883 0.68488 0.0
C676 C 0.16374 0.55978 0.6837 0.0
C677 C 0.15134 0.55456 0.66299 0.0
H678 H 0.12698 0.53971 0.62331 0.0
H679 H 0.11614 0.50955 0.60511 0.0
H680 H 0.19558 0.54299 0.73763 0.0
H681 H 0.18708 0.56501 0.72344 0.0
H682 H 0.16862 0.57267 0.69274 0.0
H683 H 0.14687 0.56351 0.65643 0.0
Mn684 Mn 0.66749 0.12268 0.69694 0.0
Mn685 Mn 0.66276 0.15473 0.66708 0.0
C686 C 0.64893 0.13199 0.71454 0.0
C687 C 0.65832 0.09268 0.70338 0.0
C688 C 0.69503 0.16248 0.69963 0.0
O689 O 0.67673 0.12296 0.65986 0.0
O690 O 0.67264 0.14443 0.64205 0.0
C691 C 0.63446 0.13188 0.62959 0.0
N692 N 0.64036 0.14396 0.64948 0.0
C693 C 0.61288 0.14429 0.65025 0.0
C694 C 0.60655 0.13193 0.62966 0.0
C695 C 0.61738 0.12568 0.61932 0.0
C696 C 0.63003 0.15002 0.65963 0.0
H697 H 0.64271 0.12698 0.62166 0.0
C698 C 0.67757 0.13283 0.64067 0.0
O699 O 0.67424 0.10505 0.70959 0.0
O700 O 0.64813 0.09774 0.69247 0.0
N701 N 0.65317 0.16574 0.68905 0.0
C702 C 0.66107 0.17724 0.70938 0.0
C703 C 0.65192 0.18459 0.7221 0.0
C704 C 0.63482 0.18013 0.71369 0.0
C705 C 0.62704 0.16843 0.69253 0.0
C706 C 0.63687 0.16167 0.68044 0.0
H707 H 0.67422 0.18072 0.71592 0.0
O708 O 0.65531 0.12441 0.72939 0.0
O709 O 0.65376 0.13404 0.69008 0.0
O710 O 0.69 0.1464 0.70576 0.0
O711 O 0.68583 0.16692 0.68528 0.0
C712 C 0.60985 0.16303 0.68318 0.0
C713 C 0.60275 0.15093 0.66211 0.0
H714 H 0.59336 0.12706 0.62176 0.0
H715 H 0.61256 0.11608 0.60351 0.0
H716 H 0.65801 0.19362 0.73841 0.0
H717 H 0.62775 0.18572 0.72369 0.0
H718 H 0.60189 0.16795 0.69224 0.0
H719 H 0.58944 0.14672 0.6553 0.0
Mn720 Mn 0.54861 0.66503 0.69738 0.0
Mn721 Mn 0.51178 0.66 0.66731 0.0
C722 C 0.52076 0.64649 0.71505 0.0
C723 C 0.56947 0.65595 0.70407 0.0
C724 C 0.53623 0.69249 0.69952 0.0
O725 O 0.55756 0.67411 0.66024 0.0
O726 O 0.53196 0.66981 0.64227 0.0
C727 C 0.50642 0.63153 0.63023 0.0
N728 N 0.50021 0.6375 0.65 0.0
C729 C 0.47249 0.60995 0.65108 0.0
C730 C 0.47854 0.60354 0.63062 0.0
C731 C 0.49559 0.61438 0.62019 0.0
C732 C 0.48385 0.62717 0.66023 0.0
H733 H 0.51955 0.63978 0.62224 0.0
C734 C 0.54851 0.6748 0.64096 0.0
O735 O 0.57301 0.6719 0.7101 0.0
O736 O 0.55423 0.64571 0.69319 0.0
N737 N 0.49119 0.65047 0.6893 0.0
C738 C 0.48756 0.65844 0.7095 0.0
C739 C 0.47109 0.64929 0.72231 0.0
C740 C 0.45849 0.63211 0.71412 0.0
C741 C 0.46245 0.62426 0.69309 0.0
C742 C 0.47901 0.63409 0.6809 0.0
H743 H 0.4972 0.67164 0.71588 0.0
O744 O 0.53473 0.65299 0.72991 0.0
O745 O 0.52353 0.6512 0.69054 0.0
O746 O 0.54731 0.68754 0.70586 0.0
O747 O 0.52261 0.68317 0.68519 0.0
C748 C 0.4507 0.60698 0.68397 0.0
C749 C 0.45574 0.59981 0.66303 0.0
H750 H 0.47026 0.59029 0.62289 0.0
H751 H 0.50039 0.6095 0.60448 0.0
H752 H 0.46814 0.65544 0.73852 0.0
H753 H 0.44586 0.62504 0.72419 0.0
H754 H 0.43785 0.59902 0.69311 0.0
H755 H 0.44668 0.58644 0.65639 0.0
Mn756 Mn 0.88632 0.54585 0.69719 0.0
Mn757 Mn 0.85436 0.50894 0.66745 0.0
C758 C 0.87693 0.51804 0.71512 0.0
C759 C 0.91628 0.56675 0.70376 0.0
C760 C 0.84651 0.53361 0.69943 0.0
O761 O 0.88616 0.55466 0.65995 0.0
O762 O 0.86478 0.52902 0.64223 0.0
C763 C 0.87734 0.50331 0.63046 0.0
N764 N 0.86518 0.49722 0.65026 0.0
C765 C 0.86481 0.46941 0.65155 0.0
C766 C 0.87725 0.47533 0.63106 0.0
C767 C 0.88356 0.49237 0.62051 0.0
C768 C 0.85906 0.48088 0.66061 0.0
H769 H 0.88228 0.51642 0.62238 0.0
C770 C 0.87637 0.54555 0.64075 0.0
O771 O 0.90386 0.57029 0.70969 0.0
O772 O 0.91129 0.55146 0.69304 0.0
N773 N 0.84325 0.48844 0.68962 0.0
C774 C 0.83168 0.48495 0.70983 0.0
C775 C 0.82427 0.46851 0.72274 0.0
C776 C 0.82873 0.45581 0.71464 0.0
C777 C 0.84051 0.45963 0.6936 0.0
C778 C 0.84733 0.47617 0.6813 0.0
H779 H 0.82819 0.49465 0.71612 0.0
O780 O 0.88448 0.53207 0.72984 0.0
O781 O 0.87498 0.52073 0.69058 0.0
O782 O 0.86257 0.54466 0.70567 0.0
O783 O 0.84211 0.51993 0.68522 0.0
C784 C 0.84593 0.44778 0.68457 0.0
C785 C 0.85811 0.45268 0.66361 0.0
H786 H 0.88214 0.46697 0.6234 0.0
H787 H 0.89322 0.49707 0.60478 0.0
H788 H 0.81518 0.46565 0.73895 0.0
H789 H 0.8231 0.4432 0.72479 0.0
H790 H 0.84096 0.43494 0.6938 0.0
H791 H 0.86233 0.44354 0.65705 0.0
Mn792 Mn 0.34362 0.88478 0.69726 0.0
Mn793 Mn 0.34815 0.8528 0.66677 0.0
C794 C 0.36212 0.87527 0.71446 0.0
C795 C 0.35287 0.91476 0.70408 0.0
C796 C 0.31594 0.84501 0.69953 0.0
O797 O 0.33435 0.88474 0.66029 0.0
O798 O 0.33835 0.86334 0.64201 0.0
C799 C 0.37649 0.87578 0.62939 0.0
N800 N 0.37054 0.86358 0.64914 0.0
C801 C 0.39795 0.86311 0.64967 0.0
C802 C 0.40432 0.87558 0.62922 0.0
C803 C 0.39356 0.88196 0.61908 0.0
C804 C 0.38081 0.85739 0.6591 0.0
H805 H 0.36829 0.88078 0.62162 0.0
C806 C 0.33347 0.87499 0.64092 0.0
O807 O 0.33694 0.90238 0.71027 0.0
O808 O 0.36302 0.90972 0.693 0.0
N809 N 0.35765 0.84158 0.68847 0.0
C810 C 0.34973 0.83 0.70871 0.0
C811 C 0.35882 0.82253 0.72126 0.0
C812 C 0.3759 0.82696 0.71277 0.0
C813 C 0.38371 0.83875 0.69171 0.0
C814 C 0.37393 0.84563 0.67978 0.0
H815 H 0.33659 0.82655 0.71531 0.0
O816 O 0.35581 0.88282 0.72952 0.0
O817 O 0.35726 0.87337 0.69003 0.0
O818 O 0.32108 0.86107 0.70594 0.0
O819 O 0.32506 0.8406 0.68496 0.0
C820 C 0.40089 0.84413 0.6823 0.0
C821 C 0.40802 0.85634 0.66135 0.0
H822 H 0.41751 0.88044 0.62129 0.0
H823 H 0.39842 0.89165 0.60338 0.0
H824 H 0.35271 0.81343 0.73749 0.0
H825 H 0.38294 0.82129 0.72265 0.0
H826 H 0.40881 0.83912 0.69124 0.0
H827 H 0.42133 0.86054 0.6545 0.0
Mn828 Mn 0.46202 0.34161 0.69526 0.0
Mn829 Mn 0.49834 0.34692 0.66309 0.0
C830 C 0.49016 0.36067 0.71152 0.0
C831 C 0.44051 0.34965 0.70322 0.0
C832 C 0.47502 0.31465 0.69651 0.0
O833 O 0.45227 0.33195 0.65864 0.0
O834 O 0.47761 0.33687 0.63906 0.0
C835 C 0.50267 0.37507 0.62609 0.0
N836 N 0.5094 0.36927 0.64535 0.0
C837 C 0.53731 0.39663 0.64446 0.0
C838 C 0.53072 0.40286 0.6245 0.0
C839 C 0.51331 0.39205 0.61533 0.0
C840 C 0.5261 0.3796 0.65442 0.0
H841 H 0.48929 0.36682 0.61902 0.0
C842 C 0.46095 0.33149 0.63868 0.0
O843 O 0.43788 0.33405 0.70946 0.0
O844 O 0.45533 0.3603 0.6915 0.0
N845 N 0.51945 0.35669 0.68394 0.0
C846 C 0.52357 0.34894 0.70391 0.0
C847 C 0.54042 0.35816 0.71562 0.0
C848 C 0.55289 0.37514 0.70652 0.0
C849 C 0.54843 0.38272 0.68569 0.0
C850 C 0.53147 0.37287 0.67471 0.0
H851 H 0.51406 0.33588 0.71095 0.0
O852 O 0.47651 0.35417 0.72701 0.0
O853 O 0.48696 0.35582 0.68707 0.0
O854 O 0.46409 0.31958 0.70367 0.0
O855 O 0.48813 0.32384 0.68124 0.0
C856 C 0.56006 0.39975 0.67562 0.0
C857 C 0.55448 0.40674 0.6551 0.0
H858 H 0.53886 0.41597 0.6162 0.0
H859 H 0.5081 0.3968 0.60001 0.0
H860 H 0.54377 0.3522 0.73166 0.0
H861 H 0.56582 0.38226 0.71573 0.0
H862 H 0.57325 0.40769 0.68375 0.0
H863 H 0.56346 0.41995 0.64779 0.0
C864 C 0.41249 0.06756 0.22061 0.0
C865 C 0.42968 0.07355 0.2109 0.0
C866 C 0.4019 0.04994 0.22901 0.0
C867 C 0.39934 0.00558 0.22706 0.0
H868 H 0.36974 0.99591 0.28881 0.0
C869 C 0.37733 0.94457 0.29312 0.0
C870 C 0.35891 0.93296 0.29451 0.0
C871 C 0.38417 0.96154 0.28249 0.0
C872 C 0.37784 0.99845 0.27141 0.0
H873 H 0.44922 0.06573 0.20237 0.0
H874 H 0.43126 0.03554 0.21772 0.0
H875 H 0.38505 0.02583 0.2701 0.0
H876 H 0.33321 0.93033 0.28681 0.0
H877 H 0.34532 0.96048 0.26896 0.0
H878 H 0.39286 0.97841 0.22945 0.0
C879 C 0.42554 0.04408 0.21816 0.0
C880 C 0.38655 0.01555 0.26054 0.0
C881 C 0.43596 0.06153 0.20947 0.0
C882 C 0.34746 0.93898 0.28599 0.0
C883 C 0.35435 0.95618 0.27583 0.0
C884 C 0.39093 0.98866 0.23823 0.0
C885 C 0.40836 0.03798 0.22817 0.0
C886 C 0.39769 0.01944 0.23845 0.0
C887 C 0.37276 0.96743 0.2735 0.0
C888 C 0.38031 0.985 0.26067 0.0
H889 H 0.40727 0.07651 0.22193 0.0
H890 H 0.38868 0.04574 0.2362 0.0
H891 H 0.40732 0.00781 0.20964 0.0
H892 H 0.38653 0.94034 0.29939 0.0
H893 H 0.39842 0.97003 0.28099 0.0
C894 C 0.41258 0.34667 0.28875 0.0
C895 C 0.42977 0.35789 0.29844 0.0
C896 C 0.40207 0.3537 0.28001 0.0
C897 C 0.3997 0.3956 0.28101 0.0
H898 H 0.37011 0.37534 0.21935 0.0
C899 C 0.37796 0.43437 0.21401 0.0
C900 C 0.35955 0.42765 0.21266 0.0
C901 C 0.38473 0.42424 0.22484 0.0
C902 C 0.37821 0.381 0.23672 0.0
H903 H 0.44939 0.38529 0.30655 0.0
H904 H 0.43156 0.39752 0.29062 0.0
H905 H 0.38532 0.36077 0.23853 0.0
H906 H 0.3338 0.4047 0.2206 0.0
H907 H 0.34579 0.38665 0.23879 0.0
H908 H 0.39333 0.41636 0.27814 0.0
C909 C 0.42578 0.38325 0.29045 0.0
C910 C 0.38686 0.37263 0.24786 0.0
C911 C 0.43613 0.37622 0.29948 0.0
C912 C 0.34804 0.41023 0.22138 0.0
C913 C 0.35486 0.39991 0.23175 0.0
C914 C 0.39136 0.4041 0.26958 0.0
C915 C 0.4086 0.37214 0.28049 0.0
C916 C 0.398 0.38 0.26993 0.0
C917 C 0.37327 0.40701 0.23406 0.0
C918 C 0.38074 0.39702 0.24716 0.0
H919 H 0.4073 0.33247 0.28773 0.0
H920 H 0.38884 0.34466 0.27286 0.0
H921 H 0.40768 0.40146 0.29841 0.0
H922 H 0.38721 0.44775 0.20759 0.0
H923 H 0.39897 0.42994 0.22633 0.0
C924 C 0.94142 0.34633 0.22039 0.0
C925 C 0.93549 0.35785 0.21179 0.0
C926 C 0.95855 0.35314 0.23076 0.0
C927 C 0.99089 0.38958 0.2687 0.0
H928 H 0.02819 0.38373 0.23719 0.0
C929 C 0.06365 0.43461 0.29788 0.0
C930 C 0.07568 0.42834 0.2966 0.0
C931 C 0.04622 0.42417 0.2891 0.0
C932 C 0.01787 0.38521 0.24665 0.0
H933 H 0.94299 0.3855 0.20697 0.0
H934 H 0.97256 0.39726 0.22572 0.0
H935 H 0.99835 0.36848 0.2182 0.0
H936 H 0.0787 0.40593 0.28577 0.0
H937 H 0.04797 0.38731 0.27134 0.0
H938 H 0.00993 0.4059 0.29745 0.0
C939 C 0.96404 0.38301 0.22413 0.0
C940 C 1.00081 0.37654 0.23562 0.0
C941 C 0.94714 0.37625 0.2133 0.0
C942 C 0.06973 0.41114 0.28697 0.0
C943 C 0.05214 0.40054 0.27848 0.0
C944 C 0.00776 0.39795 0.28002 0.0
C945 C 0.96983 0.37154 0.2332 0.0
C946 C 0.98733 0.37901 0.24622 0.0
C947 C 0.04017 0.40699 0.27916 0.0
C948 C 0.02167 0.39632 0.26876 0.0
H949 H 0.93273 0.33209 0.21948 0.0
H950 H 0.96277 0.34407 0.23768 0.0
H951 H 0.98061 0.3915 0.27738 0.0
H952 H 0.06782 0.44787 0.30491 0.0
H953 H 0.03767 0.42989 0.28942 0.0
C954 C 0.57453 0.94581 0.21035 0.0
C955 C 0.58078 0.93376 0.21169 0.0
C956 C 0.58499 0.96325 0.21905 0.0
C957 C 0.62405 0.99173 0.26127 0.0
H958 H 0.61782 0.02892 0.23011 0.0
C959 C 0.66322 0.06844 0.28616 0.0
C960 C 0.65176 0.07441 0.29486 0.0
C961 C 0.65634 0.05121 0.27612 0.0
C962 C 0.61973 0.01865 0.23891 0.0
H963 H 0.60317 0.93073 0.2226 0.0
H964 H 0.62183 0.96149 0.2369 0.0
H965 H 0.60329 0.9995 0.21037 0.0
H966 H 0.62414 0.06688 0.30024 0.0
H967 H 0.61226 0.03714 0.28208 0.0
H968 H 0.64091 0.01138 0.28949 0.0
C969 C 0.6086 0.95732 0.22976 0.0
C970 C 0.61129 1.00172 0.22778 0.0
C971 C 0.59797 0.93971 0.22135 0.0
C972 C 0.63334 0.0627 0.29383 0.0
C973 C 0.62651 0.0457 0.28334 0.0
C974 C 0.63281 0.00884 0.2721 0.0
C975 C 0.60217 0.9693 0.22897 0.0
C976 C 0.6129 0.98785 0.23919 0.0
C977 C 0.63792 0.03988 0.27413 0.0
C978 C 0.63036 0.0223 0.26133 0.0
H979 H 0.56127 0.94164 0.20329 0.0
H980 H 0.57929 0.97181 0.21865 0.0
H981 H 0.62553 0.98144 0.27084 0.0
H982 H 0.67746 0.07716 0.28669 0.0
H983 H 0.66536 0.04696 0.26908 0.0
C984 C 0.59826 0.66053 0.28555 0.0
C985 C 0.5808 0.64909 0.29416 0.0
C986 C 0.60855 0.65363 0.27532 0.0
C987 C 0.60425 0.61696 0.23774 0.0
H988 H 0.64744 0.62288 0.26916 0.0
C989 C 0.63181 0.57176 0.2088 0.0
C990 C 0.65012 0.57804 0.2099 0.0
C991 C 0.62485 0.58222 0.21761 0.0
C992 C 0.63562 0.62137 0.25973 0.0
H993 H 0.56057 0.62147 0.29915 0.0
H994 H 0.57832 0.60957 0.28065 0.0
H995 H 0.63296 0.63828 0.288 0.0
H996 H 0.67559 0.60048 0.22052 0.0
H997 H 0.66353 0.61913 0.23502 0.0
H998 H 0.60684 0.60047 0.20917 0.0
C999 C 0.58409 0.62382 0.28212 0.0
C1000 C 0.6273 0.63013 0.27067 0.0
C1001 C 0.57399 0.63066 0.29281 0.0
C1002 C 0.6614 0.59526 0.21945 0.0
C1003 C 0.65445 0.60588 0.22797 0.0
C1004 C 0.61269 0.60851 0.22651 0.0
C1005 C 0.60136 0.63521 0.27303 0.0
C1006 C 0.61133 0.62764 0.2601 0.0
C1007 C 0.63602 0.59943 0.22742 0.0
C1008 C 0.62824 0.61016 0.23774 0.0
H1009 H 0.60386 0.67478 0.28633 0.0
H1010 H 0.62185 0.66265 0.26837 0.0
H1011 H 0.59203 0.61503 0.22908 0.0
H1012 H 0.62269 0.55849 0.20183 0.0
H1013 H 0.61059 0.5765 0.2174 0.0
C1014 C 0.0689 0.66003 0.2196 0.0
C1015 C 0.07485 0.64885 0.20967 0.0
C1016 C 0.05133 0.65298 0.22821 0.0
C1017 C 0.00696 0.61118 0.22639 0.0
H1018 H 0.99749 0.63093 0.28852 0.0
C1019 C 0.9462 0.57195 0.29278 0.0
C1020 C 0.93451 0.57866 0.29417 0.0
C1021 C 0.96316 0.58217 0.28215 0.0
C1022 C 0.99998 0.62542 0.27101 0.0
H1023 H 0.067 0.62151 0.20099 0.0
H1024 H 0.03689 0.60923 0.2167 0.0
H1025 H 0.02736 0.6456 0.26959 0.0
H1026 H 0.93174 0.60166 0.28651 0.0
H1027 H 0.96188 0.61984 0.26867 0.0
H1028 H 0.97979 0.59047 0.22887 0.0
C1029 C 0.04542 0.62349 0.21716 0.0
C1030 C 0.01704 0.63384 0.26002 0.0
C1031 C 0.06283 0.63055 0.20826 0.0
C1032 C 0.94046 0.59614 0.2857 0.0
C1033 C 0.95765 0.60653 0.27553 0.0
C1034 C 0.99008 0.60263 0.23767 0.0
C1035 C 0.03937 0.63455 0.22736 0.0
C1036 C 0.02086 0.62666 0.23779 0.0
C1037 C 0.96896 0.59945 0.27318 0.0
C1038 C 0.98649 0.60953 0.26025 0.0
H1039 H 0.07785 0.67421 0.22091 0.0
H1040 H 0.04715 0.66198 0.23557 0.0
H1041 H 0.00914 0.60548 0.20887 0.0
H1042 H 0.94204 0.55853 0.299 0.0
H1043 H 0.97171 0.57647 0.28062 0.0
C1044 C 0.57416 0.9449 0.79261 0.0
C1045 C 0.58096 0.93329 0.79429 0.0
C1046 C 0.58437 0.96185 0.78194 0.0
C1047 C 0.62774 0.99871 0.77116 0.0
H1048 H 0.60789 0.00808 0.70909 0.0
C1049 C 0.66251 0.0678 0.72028 0.0
C1050 C 0.65136 0.07381 0.71044 0.0
C1051 C 0.65542 0.05018 0.7287 0.0
C1052 C 0.61357 0.00585 0.7266 0.0
H1053 H 0.60406 0.93063 0.78706 0.0
H1054 H 0.62222 0.96075 0.76916 0.0
H1055 H 0.59281 0.9787 0.72895 0.0
H1056 H 0.62404 0.06603 0.70168 0.0
H1057 H 0.6117 0.03583 0.71705 0.0
H1058 H 0.64796 0.02607 0.76987 0.0
C1059 C 0.60886 0.95647 0.77582 0.0
C1060 C 0.60497 0.98894 0.7378 0.0
C1061 C 0.59848 0.93929 0.78602 0.0
C1062 C 0.63305 0.06181 0.70888 0.0
C1063 C 0.62597 0.04435 0.71759 0.0
C1064 C 0.63621 0.0158 0.76026 0.0
C1065 C 0.60172 0.96772 0.77321 0.0
C1066 C 0.61183 0.98528 0.76035 0.0
C1067 C 0.63699 0.03824 0.72775 0.0
C1068 C 0.62906 0.0197 0.73805 0.0
H1069 H 0.5607 0.94069 0.79867 0.0
H1070 H 0.57863 0.97034 0.78022 0.0
H1071 H 0.63322 0.99617 0.78865 0.0
H1072 H 0.67668 0.07674 0.7217 0.0
H1073 H 0.6644 0.04596 0.73601 0.0
C1074 C 0.66267 0.59613 0.78798 0.0
C1075 C 0.65111 0.5786 0.79621 0.0
C1076 C 0.65591 0.60652 0.77771 0.0
C1077 C 0.61979 0.6027 0.7393 0.0
H1078 H 0.62541 0.64561 0.77133 0.0
C1079 C 0.57512 0.63074 0.70972 0.0
C1080 C 0.58139 0.64903 0.71128 0.0
C1081 C 0.58546 0.62367 0.71859 0.0
C1082 C 0.624 0.63388 0.76174 0.0
H1083 H 0.62344 0.55836 0.80047 0.0
H1084 H 0.61178 0.57631 0.78188 0.0
H1085 H 0.64046 0.63084 0.7904 0.0
H1086 H 0.60371 0.67436 0.7227 0.0
H1087 H 0.62217 0.66211 0.7373 0.0
H1088 H 0.60376 0.60568 0.71032 0.0
C1089 C 0.62601 0.58204 0.78369 0.0
C1090 C 0.63255 0.62539 0.77281 0.0
C1091 C 0.63271 0.57182 0.79444 0.0
C1092 C 0.5985 0.6602 0.72128 0.0
C1093 C 0.60901 0.65312 0.72986 0.0
C1094 C 0.61155 0.61132 0.72794 0.0
C1095 C 0.63753 0.59939 0.77499 0.0
C1096 C 0.63015 0.60951 0.76201 0.0
C1097 C 0.60255 0.6347 0.7289 0.0
C1098 C 0.6131 0.62677 0.73938 0.0
H1099 H 0.67691 0.6017 0.7891 0.0
H1100 H 0.66503 0.61988 0.77107 0.0
H1101 H 0.61794 0.59056 0.73046 0.0
H1102 H 0.56192 0.62171 0.7024 0.0
H1103 H 0.57973 0.60941 0.71804 0.0
C1104 C 0.94715 0.57247 0.70983 0.0
C1105 C 0.93511 0.57874 0.71093 0.0
C1106 C 0.96456 0.58294 0.71868 0.0
C1107 C 0.99283 0.62206 0.76095 0.0
H1108 H 0.03017 0.6157 0.73071 0.0
C1109 C 0.06926 0.66124 0.78736 0.0
C1110 C 0.07524 0.6498 0.79612 0.0
C1111 C 0.05211 0.65432 0.77696 0.0
C1112 C 0.01987 0.61764 0.73925 0.0
H1113 H 0.93207 0.60117 0.72151 0.0
H1114 H 0.96276 0.61983 0.73604 0.0
H1115 H 1.00088 0.60116 0.71056 0.0
H1116 H 0.06784 0.62219 0.8012 0.0
H1117 H 0.03826 0.61027 0.78242 0.0
H1118 H 0.01231 0.63896 0.78933 0.0
C1119 C 0.95861 0.60659 0.729 0.0
C1120 C 1.003 0.60919 0.72789 0.0
C1121 C 0.94104 0.59596 0.72045 0.0
C1122 C 0.06365 0.63138 0.79475 0.0
C1123 C 0.04674 0.62452 0.7839 0.0
C1124 C 0.00987 0.63082 0.77201 0.0
C1125 C 0.97059 0.60014 0.72851 0.0
C1126 C 0.98907 0.61085 0.73897 0.0
C1127 C 0.04089 0.6359 0.77465 0.0
C1128 C 0.02339 0.62833 0.76159 0.0
H1129 H 0.943 0.5592 0.70289 0.0
H1130 H 0.97311 0.57722 0.7185 0.0
H1131 H 0.98249 0.62357 0.77027 0.0
H1132 H 0.0779 0.67549 0.78815 0.0
H1133 H 0.04785 0.66333 0.76991 0.0
C1134 C 0.43674 0.06251 0.79351 0.0
C1135 C 0.43003 0.0742 0.79475 0.0
C1136 C 0.42655 0.04553 0.78295 0.0
C1137 C 0.38328 0.00872 0.77183 0.0
H1138 H 0.40334 0.9993 0.71005 0.0
C1139 C 0.34867 0.93962 0.72101 0.0
C1140 C 0.35984 0.93361 0.71125 0.0
C1141 C 0.35574 0.95723 0.72945 0.0
C1142 C 0.3976 1.00154 0.72748 0.0
H1143 H 0.40706 0.07697 0.78685 0.0
H1144 H 0.38891 0.04681 0.76913 0.0
H1145 H 0.41834 0.02871 0.72982 0.0
H1146 H 0.38718 0.94137 0.70271 0.0
H1147 H 0.39949 0.97155 0.71814 0.0
H1148 H 0.36307 0.98135 0.77055 0.0
C1149 C 0.40221 0.05105 0.77606 0.0
C1150 C 0.40616 0.01847 0.73863 0.0
C1151 C 0.41258 0.06825 0.78616 0.0
C1152 C 0.37815 0.94559 0.70984 0.0
C1153 C 0.38522 0.96304 0.71858 0.0
C1154 C 0.37486 0.99162 0.76098 0.0
C1155 C 0.40928 0.03972 0.77388 0.0
C1156 C 0.39921 0.02215 0.76107 0.0
C1157 C 0.37417 0.96916 0.72861 0.0
C1158 C 0.38208 0.9877 0.73888 0.0
H1159 H 0.45015 0.06668 0.79983 0.0
H1160 H 0.43224 0.03698 0.78156 0.0
H1161 H 0.37774 0.01127 0.78924 0.0
H1162 H 0.33448 0.9307 0.72232 0.0
H1163 H 0.34674 0.96145 0.73667 0.0
C1164 C 0.37306 0.42726 0.80425 0.0
C1165 C 0.3572 0.42544 0.79417 0.0
C1166 C 0.37968 0.41659 0.79491 0.0
C1167 C 0.37982 0.39268 0.7361 0.0
H1168 H 0.40026 0.37201 0.78193 0.0
C1169 C 0.42995 0.37164 0.70128 0.0
C1170 C 0.42793 0.35562 0.71102 0.0
C1171 C 0.41921 0.3782 0.71055 0.0
C1172 C 0.39446 0.37756 0.76887 0.0
H1173 H 0.33563 0.4107 0.76681 0.0
H1174 H 0.34735 0.3922 0.75025 0.0
H1175 H 0.38519 0.38672 0.80097 0.0
H1176 H 0.41277 0.33372 0.7377 0.0
H1177 H 0.39415 0.34532 0.75413 0.0
H1178 H 0.3895 0.38391 0.70401 0.0
C1179 C 0.35462 0.40188 0.76542 0.0
C1180 C 0.38595 0.38609 0.77978 0.0
C1181 C 0.34786 0.41239 0.77503 0.0
C1182 C 0.41463 0.34608 0.72975 0.0
C1183 C 0.40404 0.35277 0.73929 0.0
C1184 C 0.38854 0.38436 0.72519 0.0
C1185 C 0.37072 0.40402 0.77503 0.0
C1186 C 0.37867 0.39388 0.76352 0.0
C1187 C 0.40636 0.36901 0.73002 0.0
C1188 C 0.39608 0.37682 0.74146 0.0
H1189 H 0.38057 0.4372 0.81899 0.0
H1190 H 0.39218 0.41865 0.80257 0.0
H1191 H 0.37447 0.39869 0.72306 0.0
H1192 H 0.44009 0.37931 0.68686 0.0
H1193 H 0.42141 0.39082 0.70317 0.0
C1194 C 0.06454 0.43558 0.71487 0.0
C1195 C 0.07632 0.42897 0.71352 0.0
C1196 C 0.04759 0.4253 0.72549 0.0
C1197 C 0.01093 0.38198 0.73665 0.0
H1198 H 1.00161 0.40186 0.79875 0.0
C1199 C 0.94195 0.34722 0.78796 0.0
C1200 C 0.93595 0.35838 0.79782 0.0
C1201 C 0.95953 0.35431 0.77937 0.0
C1202 C 1.00383 0.39617 0.78124 0.0
H1203 H 0.07925 0.40608 0.72126 0.0
H1204 H 0.04914 0.38778 0.7391 0.0
H1205 H 0.03098 0.41694 0.77881 0.0
H1206 H 0.94372 0.38572 0.80637 0.0
H1207 H 0.97385 0.39805 0.79071 0.0
H1208 H 0.98357 0.36174 0.73803 0.0
C1209 C 0.05329 0.40106 0.73221 0.0
C1210 C 0.02073 0.40477 0.77 0.0
C1211 C 0.07047 0.41153 0.72204 0.0
C1212 C 0.94793 0.3767 0.79916 0.0
C1213 C 0.96534 0.38379 0.79029 0.0
C1214 C 0.99385 0.37351 0.74761 0.0
C1215 C 0.04189 0.40805 0.73451 0.0
C1216 C 0.02436 0.3979 0.74743 0.0
C1217 C 0.97145 0.37274 0.78018 0.0
C1218 C 0.98997 0.38067 0.76982 0.0
H1219 H 0.06862 0.44898 0.7086 0.0
H1220 H 0.03897 0.43091 0.72699 0.0
H1221 H 0.01345 0.3765 0.71916 0.0
H1222 H 0.93303 0.33304 0.7867 0.0
H1223 H 0.96375 0.34533 0.77208 0.0
C1224 C 0.48369 0.19435 0.20256 0.0
C1225 C 0.47221 0.17672 0.21044 0.0
C1226 C 0.48229 0.20831 0.21344 0.0
C1227 C 0.48492 0.2356 0.25232 0.0
H1228 H 0.44015 0.23362 0.26601 0.0
C1229 C 0.48244 0.29014 0.31199 0.0
C1230 C 0.47165 0.29672 0.30254 0.0
C1231 C 0.48109 0.27467 0.30164 0.0
C1232 C 0.45276 0.2344 0.26218 0.0
H1233 H 0.44983 0.16003 0.23557 0.0
H1234 H 0.44749 0.18456 0.25478 0.0
H1235 H 0.44034 0.20829 0.24534 0.0
H1236 H 0.45052 0.2917 0.27519 0.0
H1237 H 0.44831 0.26469 0.25685 0.0
H1238 H 0.49742 0.2617 0.26858 0.0
C1239 C 0.45752 0.18747 0.23997 0.0
C1240 C 0.45286 0.21982 0.25058 0.0
C1241 C 0.45891 0.17342 0.22903 0.0
C1242 C 0.45905 0.28705 0.28296 0.0
C1243 C 0.45773 0.27151 0.27251 0.0
C1244 C 0.48482 0.25008 0.26391 0.0
C1245 C 0.4694 0.20512 0.2326 0.0
C1246 C 0.46897 0.22031 0.24538 0.0
C1247 C 0.46897 0.26532 0.28142 0.0
C1248 C 0.46876 0.2497 0.26904 0.0
H1249 H 0.494 0.19749 0.18813 0.0
H1250 H 0.49142 0.22169 0.20687 0.0
H1251 H 0.49757 0.23637 0.24896 0.0
H1252 H 0.49218 0.29706 0.32725 0.0
H1253 H 0.48969 0.27009 0.30938 0.0
C1254 C 0.17577 0.45789 0.279 0.0
C1255 C 0.17886 0.47079 0.29815 0.0
C1256 C 0.18992 0.45648 0.26846 0.0
C1257 C 0.23837 0.48358 0.25869 0.0
H1258 H 0.2358 0.43887 0.24221 0.0
C1259 C 0.28927 0.45732 0.22637 0.0
C1260 C 0.29933 0.47037 0.20751 0.0
C1261 C 0.27376 0.45604 0.23687 0.0
C1262 C 0.23675 0.45146 0.24685 0.0
H1263 H 0.19928 0.49179 0.32198 0.0
H1264 H 0.22363 0.48916 0.30396 0.0
H1265 H 0.21032 0.43894 0.26258 0.0
H1266 H 0.30041 0.49181 0.18421 0.0
H1267 H 0.27351 0.48941 0.20217 0.0
H1268 H 0.26477 0.49616 0.24351 0.0
C1269 C 0.21038 0.48038 0.29661 0.0
C1270 C 0.22209 0.45149 0.25827 0.0
C1271 C 0.19633 0.48182 0.30706 0.0
C1272 C 0.29318 0.4817 0.19888 0.0
C1273 C 0.27775 0.4804 0.2093 0.0
C1274 C 0.25293 0.48354 0.24728 0.0
C1275 C 0.20744 0.46794 0.27683 0.0
C1276 C 0.22277 0.46759 0.26442 0.0
C1277 C 0.26799 0.46778 0.22876 0.0
C1278 C 0.25233 0.46751 0.24114 0.0
H1279 H 0.16251 0.44916 0.27167 0.0
H1280 H 0.1872 0.4468 0.25315 0.0
H1281 H 0.23931 0.49623 0.2628 0.0
H1282 H 0.29357 0.44835 0.23348 0.0
H1283 H 0.26661 0.44622 0.25194 0.0
C1284 C 0.72195 0.17418 0.27888 0.0
C1285 C 0.71192 0.17741 0.29746 0.0
C1286 C 0.73737 0.18827 0.26794 0.0
C1287 C 0.77431 0.22059 0.25728 0.0
H1288 H 0.77176 0.26258 0.23958 0.0
C1289 C 0.83549 0.2876 0.22477 0.0
C1290 C 0.83263 0.29739 0.2053 0.0
C1291 C 0.82122 0.27213 0.23527 0.0
C1292 C 0.77269 0.25093 0.24416 0.0
H1293 H 0.71076 0.1981 0.31974 0.0
H1294 H 0.73752 0.22239 0.30103 0.0
H1295 H 0.74625 0.23726 0.2592 0.0
H1296 H 0.81248 0.29802 0.18089 0.0
H1297 H 0.78787 0.27115 0.19883 0.0
H1298 H 0.80078 0.23433 0.24172 0.0
C1299 C 0.73333 0.20903 0.29446 0.0
C1300 C 0.75811 0.23646 0.25576 0.0
C1301 C 0.71798 0.19502 0.30533 0.0
C1302 C 0.81524 0.291 0.19604 0.0
C1303 C 0.80106 0.27558 0.20645 0.0
C1304 C 0.78899 0.23516 0.24566 0.0
C1305 C 0.74308 0.2059 0.27532 0.0
C1306 C 0.75871 0.22112 0.26258 0.0
C1307 C 0.80378 0.26611 0.22653 0.0
C1308 C 0.78833 0.2505 0.23891 0.0
H1309 H 0.71771 0.1608 0.27234 0.0
H1310 H 0.74452 0.1854 0.25313 0.0
H1311 H 0.77527 0.20903 0.26243 0.0
H1312 H 0.84868 0.2921 0.23239 0.0
H1313 H 0.82378 0.26522 0.25082 0.0
C1314 C 0.52692 0.81303 0.20136 0.0
C1315 C 0.53825 0.83056 0.20981 0.0
C1316 C 0.52832 0.79897 0.21183 0.0
C1317 C 0.52543 0.7712 0.24995 0.0
H1318 H 0.57015 0.7732 0.26424 0.0
C1319 C 0.52753 0.71615 0.30873 0.0
C1320 C 0.53849 0.70974 0.2994 0.0
C1321 C 0.52892 0.73168 0.29858 0.0
C1322 C 0.55756 0.77241 0.26022 0.0
H1323 H 0.56037 0.84697 0.23551 0.0
H1324 H 0.56268 0.82225 0.25405 0.0
H1325 H 0.57006 0.79874 0.24413 0.0
H1326 H 0.55995 0.71512 0.27249 0.0
H1327 H 0.56221 0.74224 0.25449 0.0
H1328 H 0.51285 0.74489 0.26548 0.0
C1329 C 0.55278 0.8195 0.2391 0.0
C1330 C 0.55751 0.78711 0.24895 0.0
C1331 C 0.5514 0.83366 0.22854 0.0
C1332 C 0.55128 0.71963 0.28014 0.0
C1333 C 0.55263 0.73523 0.26989 0.0
C1334 C 0.52547 0.7566 0.26121 0.0
C1335 C 0.54104 0.80195 0.23117 0.0
C1336 C 0.54142 0.78662 0.24356 0.0
C1337 C 0.54124 0.74127 0.27869 0.0
C1338 C 0.54151 0.75699 0.26656 0.0
H1339 H 0.51674 0.81005 0.18678 0.0
H1340 H 0.51931 0.78568 0.20484 0.0
H1341 H 0.51279 0.77042 0.24643 0.0
H1342 H 0.51766 0.70906 0.32376 0.0
H1343 H 0.52019 0.73613 0.30625 0.0
C1344 C 0.72078 0.54858 0.22587 0.0
C1345 C 0.71107 0.53591 0.20638 0.0
C1346 C 0.73631 0.54991 0.23636 0.0
C1347 C 0.75776 0.52283 0.24523 0.0
H1348 H 0.7996 0.5674 0.26331 0.0
C1349 C 0.83464 0.54904 0.27922 0.0
C1350 C 0.8315 0.53576 0.29775 0.0
C1351 C 0.82049 0.55035 0.26851 0.0
C1352 C 0.78805 0.55486 0.25821 0.0
H1353 H 0.71066 0.51526 0.18191 0.0
H1354 H 0.73762 0.51775 0.19985 0.0
H1355 H 0.77419 0.56749 0.24275 0.0
H1356 H 0.81093 0.51393 0.32023 0.0
H1357 H 0.78654 0.51638 0.30191 0.0
H1358 H 0.77155 0.51015 0.26017 0.0
C1359 C 0.73308 0.52641 0.20749 0.0
C1360 C 0.77343 0.5549 0.24668 0.0
C1361 C 0.71761 0.52505 0.19708 0.0
C1362 C 0.81393 0.52422 0.30583 0.0
C1363 C 0.79987 0.52555 0.2952 0.0
C1364 C 0.77229 0.52279 0.25675 0.0
C1365 C 0.74246 0.53861 0.22759 0.0
C1366 C 0.75812 0.53886 0.23998 0.0
C1367 C 0.80289 0.53842 0.27607 0.0
C1368 C 0.78761 0.53877 0.26349 0.0
H1369 H 0.71617 0.55717 0.23352 0.0
H1370 H 0.74317 0.55939 0.25193 0.0
H1371 H 0.74613 0.51021 0.24068 0.0
H1372 H 0.84798 0.55816 0.27252 0.0
H1373 H 0.82328 0.56036 0.25371 0.0
C1374 C 0.1955 0.71606 0.19822 0.0
C1375 C 0.17797 0.70978 0.20676 0.0
C1376 C 0.20956 0.73143 0.20892 0.0
C1377 C 0.23734 0.75602 0.24735 0.0
H1378 H 0.2351 0.79842 0.26315 0.0
C1379 C 0.29199 0.81253 0.30767 0.0
C1380 C 0.29833 0.83003 0.29893 0.0
C1381 C 0.27657 0.79846 0.2971 0.0
C1382 C 0.23596 0.78671 0.25871 0.0
H1383 H 0.16157 0.71523 0.23288 0.0
H1384 H 0.18627 0.74208 0.25178 0.0
H1385 H 0.20968 0.77301 0.24246 0.0
H1386 H 0.29295 0.84638 0.2726 0.0
H1387 H 0.26603 0.82166 0.25388 0.0
H1388 H 0.2636 0.76963 0.26305 0.0
C1389 C 0.18902 0.73508 0.23659 0.0
C1390 C 0.22133 0.77209 0.2471 0.0
C1391 C 0.17487 0.71964 0.22582 0.0
C1392 C 0.28849 0.8331 0.27981 0.0
C1393 C 0.273 0.81893 0.26915 0.0
C1394 C 0.25187 0.77054 0.25895 0.0
C1395 C 0.20658 0.74099 0.22856 0.0
C1396 C 0.22189 0.75659 0.24119 0.0
C1397 C 0.26703 0.8014 0.27738 0.0
C1398 C 0.25139 0.78607 0.26485 0.0
H1399 H 0.19847 0.70898 0.18342 0.0
H1400 H 0.22286 0.73577 0.20186 0.0
H1401 H 0.23818 0.74423 0.24342 0.0
H1402 H 0.29905 0.8096 0.32255 0.0
H1403 H 0.27218 0.78519 0.30432 0.0
C1404 C 0.5518 0.7196 0.7286 0.0
C1405 C 0.53872 0.7096 0.70976 0.0
C1406 C 0.55312 0.73509 0.73923 0.0
C1407 C 0.55776 0.77215 0.7493 0.0
H1408 H 0.51302 0.76963 0.76547 0.0
C1409 C 0.55143 0.83329 0.78059 0.0
C1410 C 0.53856 0.83036 0.79973 0.0
C1411 C 0.55281 0.81907 0.77033 0.0
C1412 C 0.52566 0.77055 0.76132 0.0
H1413 H 0.51726 0.70863 0.68662 0.0
H1414 H 0.51972 0.73549 0.70481 0.0
H1415 H 0.51305 0.7441 0.74635 0.0
H1416 H 0.51758 0.81013 0.82382 0.0
H1417 H 0.52016 0.78562 0.80629 0.0
H1418 H 0.57032 0.79864 0.76478 0.0
C1419 C 0.52873 0.73121 0.71183 0.0
C1420 C 0.52567 0.75596 0.75001 0.0
C1421 C 0.52739 0.7158 0.70128 0.0
C1422 C 0.52753 0.81295 0.80891 0.0
C1423 C 0.52893 0.79882 0.79874 0.0
C1424 C 0.55775 0.78684 0.76063 0.0
C1425 C 0.54138 0.7409 0.73127 0.0
C1426 C 0.54169 0.75655 0.74374 0.0
C1427 C 0.54135 0.80161 0.77899 0.0
C1428 C 0.54168 0.78619 0.76683 0.0
H1429 H 0.56076 0.71525 0.73559 0.0
H1430 H 0.56297 0.7422 0.75427 0.0
H1431 H 0.57033 0.77309 0.74458 0.0
H1432 H 0.56016 0.8465 0.77306 0.0
H1433 H 0.56246 0.82167 0.75503 0.0
C1434 C 0.71814 0.52539 0.81059 0.0
C1435 C 0.71182 0.53654 0.80177 0.0
C1436 C 0.73358 0.52673 0.80008 0.0
C1437 C 0.75822 0.52342 0.76192 0.0
H1438 H 0.80053 0.56802 0.74549 0.0
C1439 C 0.81443 0.52504 0.70119 0.0
C1440 C 0.83197 0.53621 0.70973 0.0
C1441 C 0.80042 0.52645 0.71187 0.0
C1442 C 0.78885 0.55547 0.75011 0.0
H1443 H 0.71728 0.55829 0.77541 0.0
H1444 H 0.74423 0.56048 0.75683 0.0
H1445 H 0.77515 0.5681 0.7662 0.0
H1446 H 0.84847 0.55805 0.73579 0.0
H1447 H 0.82386 0.56038 0.75469 0.0
H1448 H 0.77182 0.51073 0.74635 0.0
C1449 C 0.73722 0.55078 0.77209 0.0
C1450 C 0.77425 0.55551 0.76173 0.0
C1451 C 0.72172 0.54947 0.78267 0.0
C1452 C 0.83515 0.54922 0.72874 0.0
C1453 C 0.82105 0.55061 0.73951 0.0
C1454 C 0.77272 0.52338 0.75031 0.0
C1455 C 0.74315 0.5392 0.78036 0.0
C1456 C 0.75877 0.53946 0.76785 0.0
C1457 C 0.80347 0.53901 0.7315 0.0
C1458 C 0.78821 0.53937 0.74416 0.0
H1459 H 0.71104 0.51538 0.82544 0.0
H1460 H 0.73795 0.51784 0.80733 0.0
H1461 H 0.74645 0.51081 0.766 0.0
H1462 H 0.8114 0.51497 0.6864 0.0
H1463 H 0.78711 0.51756 0.70481 0.0
C1464 C 0.28914 0.83367 0.72922 0.0
C1465 C 0.29884 0.83048 0.70998 0.0
C1466 C 0.27366 0.81959 0.74006 0.0
C1467 C 0.25232 0.77119 0.75047 0.0
H1468 H 0.21024 0.77387 0.76698 0.0
C1469 C 0.17519 0.72046 0.7831 0.0
C1470 C 0.17816 0.71043 0.80202 0.0
C1471 C 0.18943 0.73594 0.77255 0.0
C1472 C 0.22186 0.77289 0.76234 0.0
H1473 H 0.29929 0.80991 0.68636 0.0
H1474 H 0.27244 0.78566 0.70491 0.0
H1475 H 0.23574 0.79924 0.74632 0.0
H1476 H 0.19851 0.70937 0.82539 0.0
H1477 H 0.22304 0.73624 0.80733 0.0
H1478 H 0.23852 0.74487 0.76594 0.0
C1479 C 0.27695 0.79896 0.71208 0.0
C1480 C 0.23653 0.78749 0.75075 0.0
C1481 C 0.29235 0.81295 0.70133 0.0
C1482 C 0.19564 0.71658 0.81068 0.0
C1483 C 0.20979 0.73199 0.8002 0.0
C1484 C 0.23775 0.75669 0.76205 0.0
C1485 C 0.26756 0.80202 0.73191 0.0
C1486 C 0.25192 0.78676 0.74457 0.0
C1487 C 0.20694 0.74171 0.78067 0.0
C1488 C 0.22233 0.75733 0.7682 0.0
H1489 H 0.29371 0.84699 0.73636 0.0
H1490 H 0.2668 0.8224 0.75539 0.0
H1491 H 0.26401 0.77022 0.74634 0.0
H1492 H 0.16193 0.71615 0.77595 0.0
H1493 H 0.18677 0.74306 0.75743 0.0
C1494 C 0.45996 0.28767 0.72585 0.0
C1495 C 0.47292 0.29771 0.70688 0.0
C1496 C 0.45881 0.27226 0.73646 0.0
C1497 C 0.45424 0.23535 0.74656 0.0
H1498 H 0.49894 0.2377 0.76234 0.0
C1499 C 0.46009 0.17421 0.77933 0.0
C1500 C 0.473 0.17723 0.79844 0.0
C1501 C 0.45888 0.18841 0.76857 0.0
C1502 C 0.48632 0.23682 0.75827 0.0
H1503 H 0.49445 0.29893 0.68364 0.0
H1504 H 0.49228 0.27216 0.70181 0.0
H1505 H 0.49897 0.26319 0.74292 0.0
H1506 H 0.49427 0.19764 0.82192 0.0
H1507 H 0.49198 0.22211 0.80354 0.0
H1508 H 0.44164 0.20899 0.76249 0.0
C1509 C 0.48321 0.27634 0.7089 0.0
C1510 C 0.48633 0.2514 0.74679 0.0
C1511 C 0.48438 0.29169 0.69835 0.0
C1512 C 0.48427 0.19473 0.80706 0.0
C1513 C 0.48304 0.20885 0.79639 0.0
C1514 C 0.45423 0.22069 0.75807 0.0
C1515 C 0.47061 0.26655 0.72837 0.0
C1516 C 0.47032 0.25087 0.74073 0.0
C1517 C 0.47055 0.20594 0.77669 0.0
C1518 C 0.47029 0.2213 0.76416 0.0
H1519 H 0.45091 0.29188 0.7329 0.0
H1520 H 0.44902 0.2651 0.75155 0.0
H1521 H 0.44167 0.23445 0.74198 0.0
H1522 H 0.45118 0.16093 0.77221 0.0
H1523 H 0.44917 0.18571 0.75333 0.0
C1524 C 0.19685 0.48366 0.70046 0.0
C1525 C 0.17938 0.4723 0.70913 0.0
C1526 C 0.21101 0.48237 0.7108 0.0
C1527 C 0.23916 0.48535 0.74828 0.0
H1528 H 0.23676 0.44057 0.7636 0.0
C1529 C 0.29422 0.48295 0.80697 0.0
C1530 C 0.30011 0.47144 0.79819 0.0
C1531 C 0.27886 0.48191 0.79666 0.0
C1532 C 0.23767 0.45318 0.75928 0.0
H1533 H 0.16317 0.45029 0.73513 0.0
H1534 H 0.18803 0.44818 0.75345 0.0
H1535 H 0.21123 0.44072 0.74366 0.0
H1536 H 0.29406 0.44948 0.77195 0.0
H1537 H 0.26729 0.44783 0.75369 0.0
H1538 H 0.2656 0.49787 0.76332 0.0
C1539 C 0.19068 0.458 0.73841 0.0
C1540 C 0.22298 0.45326 0.74811 0.0
C1541 C 0.17643 0.45927 0.72798 0.0
C1542 C 0.28995 0.45857 0.77919 0.0
C1543 C 0.27454 0.45755 0.7688 0.0
C1544 C 0.25377 0.48527 0.75942 0.0
C1545 C 0.20818 0.46974 0.73022 0.0
C1546 C 0.22358 0.46937 0.74238 0.0
C1547 C 0.26895 0.46939 0.77717 0.0
C1548 C 0.25324 0.46921 0.76513 0.0
H1549 H 0.19969 0.49376 0.6858 0.0
H1550 H 0.22425 0.49138 0.7036 0.0
H1551 H 0.24004 0.49801 0.74451 0.0
H1552 H 0.30155 0.49294 0.82173 0.0
H1553 H 0.27477 0.49099 0.80398 0.0
C1554 C 0.83575 0.28744 0.7821 0.0
C1555 C 0.83287 0.29702 0.80191 0.0
C1556 C 0.82152 0.2719 0.7717 0.0
C1557 C 0.77292 0.25028 0.76379 0.0
H1558 H 0.77571 0.20867 0.74442 0.0
C1559 C 0.72219 0.17369 0.72855 0.0
C1560 C 0.7121 0.17701 0.71019 0.0
C1561 C 0.73766 0.18774 0.73947 0.0
C1562 C 0.7747 0.22015 0.74989 0.0
H1563 H 0.81277 0.29716 0.82706 0.0
H1564 H 0.78826 0.27018 0.80927 0.0
H1565 H 0.80129 0.234 0.76499 0.0
H1566 H 0.71092 0.19782 0.68824 0.0
H1567 H 0.73773 0.22201 0.70693 0.0
H1568 H 0.74637 0.23652 0.74915 0.0
C1569 C 0.80141 0.27484 0.80132 0.0
C1570 C 0.78941 0.23473 0.76143 0.0
C1571 C 0.81554 0.29032 0.81163 0.0
C1572 C 0.71817 0.19466 0.7025 0.0
C1573 C 0.73355 0.20862 0.71334 0.0
C1574 C 0.75831 0.2358 0.75226 0.0
C1575 C 0.80412 0.2656 0.78088 0.0
C1576 C 0.78866 0.24996 0.76856 0.0
C1577 C 0.74335 0.2054 0.73228 0.0
C1578 C 0.759 0.22057 0.74503 0.0
H1579 H 0.8489 0.29219 0.77414 0.0
H1580 H 0.82406 0.26515 0.75587 0.0
H1581 H 0.77191 0.26185 0.76868 0.0
H1582 H 0.71795 0.16028 0.73494 0.0
H1583 H 0.74486 0.1848 0.7541 0.0
C1584 C 0.45764 0.14559 0.1009 0.0
C1585 C 0.45401 0.13035 0.11513 0.0
C1586 C 0.45344 0.14445 0.07428 0.0
C1587 C 0.43084 0.11422 0.01779 0.0
H1588 H 0.47118 0.15108 0.98011 0.0
C1589 C 0.44512 0.11349 0.90528 0.0
C1590 C 0.45403 0.13008 0.89276 0.0
C1591 C 0.44111 0.1124 0.9322 0.0
C1592 C 0.45961 0.14086 0.9902 0.0
H1593 H 0.44221 0.10182 0.1133 0.0
H1594 H 0.43522 0.0998 0.06621 0.0
H1595 H 0.47121 0.15116 0.02756 0.0
H1596 H 0.46427 0.15824 0.89755 0.0
H1597 H 0.45664 0.15634 0.94392 0.0
H1598 H 0.41955 0.10374 0.97984 0.0
C1599 C 0.44101 0.11261 0.07579 0.0
C1600 C 0.45963 0.1409 0.01755 0.0
C1601 C 0.44498 0.11373 0.10272 0.0
C1602 C 0.45749 0.14531 0.90686 0.0
C1603 C 0.45326 0.14421 0.93346 0.0
C1604 C 0.43083 0.11417 0.99015 0.0
C1605 C 0.44591 0.12809 0.06105 0.0
C1606 C 0.44522 0.12771 0.03178 0.0
C1607 C 0.44586 0.1279 0.9468 0.0
C1608 C 0.44519 0.12761 0.97607 0.0
H1609 H 0.46451 0.15854 0.11012 0.0
H1610 H 0.45693 0.15657 0.06372 0.0
H1611 H 0.41956 0.10383 0.02817 0.0
H1612 H 0.44249 0.10159 0.89481 0.0
H1613 H 0.43542 0.09964 0.94188 0.0
C1614 C 0.31478 0.45335 0.90577 0.0
C1615 C 0.32682 0.45022 0.8918 0.0
C1616 C 0.3116 0.44906 0.93236 0.0
C1617 C 0.32006 0.42731 0.98927 0.0
H1618 H 0.32235 0.46728 0.02643 0.0
C1619 C 0.33554 0.44244 0.10141 0.0
C1620 C 0.32769 0.45116 0.11397 0.0
C1621 C 0.33246 0.43824 0.07456 0.0
C1622 C 0.32133 0.4558 0.01649 0.0
H1623 H 0.34427 0.43927 0.89405 0.0
H1624 H 0.3391 0.43212 0.94106 0.0
H1625 H 0.32207 0.467 0.97898 0.0
H1626 H 0.30934 0.4609 0.10937 0.0
H1627 H 0.30332 0.45292 0.06315 0.0
H1628 H 0.31979 0.41643 0.02734 0.0
C1629 C 0.3318 0.43754 0.93131 0.0
C1630 C 0.32117 0.45564 0.98914 0.0
C1631 C 0.33476 0.44159 0.90441 0.0
C1632 C 0.31562 0.45426 0.10002 0.0
C1633 C 0.31232 0.44984 0.07349 0.0
C1634 C 0.32022 0.42748 0.0169 0.0
C1635 C 0.32077 0.44197 0.94581 0.0
C1636 C 0.32041 0.44138 0.97509 0.0
C1637 C 0.32137 0.44261 0.06008 0.0
C1638 C 0.32074 0.44171 0.03081 0.0
H1639 H 0.30848 0.45996 0.89639 0.0
H1640 H 0.30265 0.4522 0.94274 0.0
H1641 H 0.31953 0.41615 0.97903 0.0
H1642 H 0.34504 0.44009 0.11177 0.0
H1643 H 0.33966 0.43271 0.06484 0.0
C1644 C 0.86685 0.31816 0.91282 0.0
C1645 C 0.88114 0.32654 0.89525 0.0
C1646 C 0.86952 0.31451 0.93854 0.0
C1647 C 0.90265 0.33221 0.98996 0.0
H1648 H 0.8671 0.291 0.02776 0.0
C1649 C 0.89836 0.33062 0.10382 0.0
C1650 C 0.88136 0.32655 0.11231 0.0
C1651 C 0.90106 0.32719 0.07776 0.0
C1652 C 0.87724 0.30253 0.0175 0.0
H1653 H 0.9094 0.33711 0.89053 0.0
H1654 H 0.9142 0.33096 0.93606 0.0
H1655 H 0.86703 0.29102 0.9798 0.0
H1656 H 0.85377 0.31472 0.10086 0.0
H1657 H 0.85838 0.30852 0.05594 0.0
H1658 H 0.91222 0.3441 0.02773 0.0
C1659 C 0.90089 0.32713 0.92969 0.0
C1660 C 0.87721 0.30254 0.99004 0.0
C1661 C 0.89813 0.33054 0.90364 0.0
C1662 C 0.86702 0.31806 0.09484 0.0
C1663 C 0.86966 0.31439 0.06912 0.0
C1664 C 0.90268 0.3322 0.0175 0.0
C1665 C 0.88662 0.31932 0.94751 0.0
C1666 C 0.8894 0.31768 0.97598 0.0
C1667 C 0.88675 0.31929 0.06003 0.0
C1668 C 0.88947 0.31766 0.03153 0.0
H1669 H 0.85359 0.31488 0.90688 0.0
H1670 H 0.85828 0.30871 0.95179 0.0
H1671 H 0.91216 0.34412 0.97971 0.0
H1672 H 0.90965 0.33728 0.11685 0.0
H1673 H 0.91437 0.33108 0.0713 0.0
C1674 C 0.56542 0.89415 0.10303 0.0
C1675 C 0.5565 0.87751 0.11539 0.0
C1676 C 0.56945 0.89536 0.0761 0.0
C1677 C 0.55116 0.8671 0.01778 0.0
H1678 H 0.59114 0.90454 0.98024 0.0
C1679 C 0.55371 0.86278 0.90715 0.0
C1680 C 0.55699 0.87794 0.89302 0.0
C1681 C 0.55789 0.86393 0.93378 0.0
C1682 C 0.57988 0.89404 0.99051 0.0
H1683 H 0.54625 0.84937 0.11031 0.0
H1684 H 0.55393 0.85147 0.06394 0.0
H1685 H 0.59101 0.9044 0.02857 0.0
H1686 H 0.56815 0.90639 0.89502 0.0
H1687 H 0.57513 0.90843 0.94214 0.0
H1688 H 0.53976 0.85688 0.98028 0.0
C1689 C 0.55729 0.86355 0.07452 0.0
C1690 C 0.5798 0.89396 0.01814 0.0
C1691 C 0.55303 0.86234 0.10113 0.0
C1692 C 0.56567 0.89454 0.90553 0.0
C1693 C 0.56963 0.89568 0.93247 0.0
C1694 C 0.55124 0.86717 0.99043 0.0
C1695 C 0.56472 0.87993 0.06134 0.0
C1696 C 0.56546 0.88036 0.03207 0.0
C1697 C 0.56506 0.88023 0.9471 0.0
C1698 C 0.56563 0.88051 0.97637 0.0
H1699 H 0.56806 0.90602 0.11364 0.0
H1700 H 0.57515 0.90817 0.06656 0.0
H1701 H 0.5396 0.85676 0.02774 0.0
H1702 H 0.54711 0.84984 0.89785 0.0
H1703 H 0.55464 0.85185 0.94427 0.0
C1704 C 0.67764 0.56742 0.10423 0.0
C1705 C 0.68145 0.55431 0.11269 0.0
C1706 C 0.68109 0.57353 0.07816 0.0
C1707 C 0.70569 0.57426 0.018 0.0
H1708 H 0.66445 0.56826 0.97996 0.0
C1709 C 0.69073 0.54935 0.91274 0.0
C1710 C 0.68233 0.55532 0.89531 0.0
C1711 C 0.69427 0.55547 0.93857 0.0
C1712 C 0.67626 0.57046 0.99028 0.0
H1713 H 0.69279 0.53813 0.10111 0.0
H1714 H 0.69904 0.54892 0.05616 0.0
H1715 H 0.66421 0.56797 0.02798 0.0
H1716 H 0.67164 0.57293 0.89095 0.0
H1717 H 0.67762 0.58352 0.93666 0.0
H1718 H 0.71739 0.57581 0.98038 0.0
C1719 C 0.69336 0.55449 0.06939 0.0
C1720 C 0.67612 0.57029 0.01782 0.0
C1721 C 0.68965 0.54819 0.09513 0.0
C1722 C 0.67822 0.56819 0.90396 0.0
C1723 C 0.68153 0.57414 0.93011 0.0
C1724 C 0.70584 0.57445 0.99054 0.0
C1725 C 0.68876 0.56691 0.06038 0.0
C1726 C 0.69053 0.57139 0.03192 0.0
C1727 C 0.68933 0.56759 0.9478 0.0
C1728 C 0.69082 0.57175 0.97637 0.0
H1729 H 0.67121 0.57228 0.11733 0.0
H1730 H 0.67743 0.58313 0.07175 0.0
H1731 H 0.71712 0.57546 0.02834 0.0
H1732 H 0.6941 0.53948 0.90661 0.0
H1733 H 0.70006 0.54994 0.95169 0.0
C1734 C 0.14413 0.68973 0.91279 0.0
C1735 C 0.12975 0.68132 0.89539 0.0
C1736 C 0.14159 0.6934 0.93856 0.0
C1737 C 0.10862 0.67568 0.99032 0.0
H1738 H 0.14453 0.71665 0.02809 0.0
C1739 C 0.11311 0.67716 0.10417 0.0
C1740 C 0.13005 0.68103 0.11261 0.0
C1741 C 0.11043 0.68064 0.07812 0.0
C1742 C 0.13429 0.70519 0.01783 0.0
H1743 H 0.10146 0.67073 0.89102 0.0
H1744 H 0.0969 0.67692 0.93664 0.0
H1745 H 0.14443 0.71674 0.98013 0.0
H1746 H 0.1576 0.69254 0.10105 0.0
H1747 H 0.15304 0.69883 0.05614 0.0
H1748 H 0.09908 0.66376 0.02809 0.0
C1749 C 0.11018 0.68075 0.9301 0.0
C1750 C 0.13423 0.70524 0.99037 0.0
C1751 C 0.1128 0.67732 0.904 0.0
C1752 C 0.14438 0.68936 0.09508 0.0
C1753 C 0.14178 0.69308 0.06937 0.0
C1754 C 0.10867 0.67563 0.01786 0.0
C1755 C 0.12454 0.68857 0.94777 0.0
C1756 C 0.1219 0.69018 0.97631 0.0
C1757 C 0.12473 0.68839 0.06034 0.0
C1758 C 0.122 0.69009 0.03187 0.0
H1759 H 0.15736 0.69301 0.90669 0.0
H1760 H 0.1529 0.6992 0.95168 0.0
H1761 H 0.09899 0.66383 0.98008 0.0
H1762 H 0.10181 0.67063 0.11724 0.0
H1763 H 0.09715 0.67691 0.07172 0.0
C1764 C 0.86319 0.55005 0.60043 0.0
C1765 C 0.87845 0.55386 0.61476 0.0
C1766 C 0.86433 0.55418 0.57378 0.0
C1767 C 0.89448 0.57699 0.51734 0.0
H1768 H 0.85797 0.53639 0.47969 0.0
C1769 C 0.89513 0.56311 0.40461 0.0
C1770 C 0.8785 0.55406 0.39222 0.0
C1771 C 0.89627 0.567 0.43158 0.0
C1772 C 0.8681 0.54802 0.48978 0.0
H1773 H 0.90701 0.56592 0.61305 0.0
H1774 H 0.90904 0.5728 0.56589 0.0
H1775 H 0.85795 0.53632 0.52716 0.0
H1776 H 0.8503 0.54344 0.39734 0.0
H1777 H 0.85228 0.55084 0.4438 0.0
H1778 H 0.90479 0.58841 0.47938 0.0
C1779 C 0.89621 0.56691 0.57543 0.0
C1780 C 0.86809 0.54799 0.51713 0.0
C1781 C 0.89508 0.563 0.60239 0.0
C1782 C 0.86326 0.55032 0.40653 0.0
C1783 C 0.8644 0.55443 0.43319 0.0
C1784 C 0.8945 0.57703 0.48971 0.0
C1785 C 0.88073 0.56184 0.56062 0.0
C1786 C 0.88114 0.5625 0.53135 0.0
C1787 C 0.88078 0.56199 0.44637 0.0
C1788 C 0.88116 0.56257 0.47564 0.0
H1789 H 0.85023 0.54311 0.60962 0.0
H1790 H 0.8522 0.55055 0.56317 0.0
H1791 H 0.90476 0.58835 0.52772 0.0
H1792 H 0.90705 0.56596 0.39398 0.0
H1793 H 0.90908 0.57282 0.44113 0.0
C1794 C 0.31517 0.86205 0.60106 0.0
C1795 C 0.32709 0.87722 0.61516 0.0
C1796 C 0.31202 0.86323 0.57449 0.0
C1797 C 0.32011 0.89359 0.51794 0.0
H1798 H 0.32233 0.85609 0.48015 0.0
C1799 C 0.33482 0.894 0.40543 0.0
C1800 C 0.32682 0.87742 0.39288 0.0
C1801 C 0.33194 0.89514 0.43235 0.0
C1802 C 0.32133 0.8665 0.49028 0.0
H1803 H 0.34433 0.90567 0.61315 0.0
H1804 H 0.33921 0.90775 0.56614 0.0
H1805 H 0.32241 0.85602 0.52761 0.0
H1806 H 0.3084 0.84936 0.39759 0.0
H1807 H 0.30274 0.85137 0.44396 0.0
H1808 H 0.31952 0.90424 0.48002 0.0
C1809 C 0.33201 0.89498 0.57578 0.0
C1810 C 0.32138 0.86646 0.51763 0.0
C1811 C 0.33494 0.89382 0.60267 0.0
C1812 C 0.31479 0.86228 0.40693 0.0
C1813 C 0.3117 0.86344 0.43353 0.0
C1814 C 0.32007 0.89364 0.49031 0.0
C1815 C 0.32108 0.87955 0.56117 0.0
C1816 C 0.32063 0.87989 0.5319 0.0
C1817 C 0.32091 0.87971 0.44691 0.0
C1818 C 0.32055 0.87997 0.47619 0.0
H1819 H 0.3089 0.84911 0.61035 0.0
H1820 H 0.30312 0.85116 0.56404 0.0
H1821 H 0.31957 0.90416 0.52835 0.0
H1822 H 0.34431 0.90583 0.39499 0.0
H1823 H 0.33926 0.90788 0.44206 0.0
C1824 C 0.43894 0.3291 0.60454 0.0
C1825 C 0.45189 0.3251 0.6131 0.0
C1826 C 0.43287 0.32568 0.57845 0.0
C1827 C 0.4326 0.30145 0.51793 0.0
H1828 H 0.43906 0.34314 0.48069 0.0
C1829 C 0.45914 0.318 0.41353 0.0
C1830 C 0.45308 0.32626 0.39598 0.0
C1831 C 0.45276 0.31419 0.43921 0.0
C1832 C 0.43674 0.33121 0.49078 0.0
H1833 H 0.46776 0.31337 0.60177 0.0
H1834 H 0.45709 0.30719 0.55679 0.0
H1835 H 0.43869 0.34278 0.5287 0.0
H1836 H 0.43511 0.33649 0.3913 0.0
H1837 H 0.42409 0.33009 0.43679 0.0
H1838 H 0.4317 0.29029 0.48008 0.0
C1839 C 0.45158 0.31298 0.56993 0.0
C1840 C 0.43652 0.331 0.51832 0.0
C1841 C 0.45781 0.31664 0.5957 0.0
C1842 C 0.43993 0.33002 0.4044 0.0
C1843 C 0.43372 0.32646 0.43041 0.0
C1844 C 0.43285 0.30167 0.49047 0.0
C1845 C 0.43941 0.31788 0.56074 0.0
C1846 C 0.43525 0.31642 0.53217 0.0
C1847 C 0.44029 0.31873 0.44819 0.0
C1848 C 0.43571 0.31685 0.47662 0.0
H1849 H 0.43425 0.33574 0.61753 0.0
H1850 H 0.42345 0.32955 0.57193 0.0
H1851 H 0.43127 0.28989 0.52804 0.0
H1852 H 0.46923 0.31488 0.40758 0.0
H1853 H 0.45829 0.30846 0.45244 0.0
C1854 C 0.11545 0.44454 0.60283 0.0
C1855 C 0.13207 0.4536 0.61524 0.0
C1856 C 0.11433 0.44057 0.5759 0.0
C1857 C 0.14255 0.45935 0.51772 0.0
H1858 H 0.10586 0.41897 0.4799 0.0
C1859 C 0.1475 0.4571 0.40712 0.0
C1860 C 0.13226 0.45331 0.39277 0.0
C1861 C 0.14634 0.453 0.43378 0.0
C1862 C 0.11615 0.43034 0.49024 0.0
H1863 H 0.16027 0.46414 0.61022 0.0
H1864 H 0.15831 0.4566 0.56381 0.0
H1865 H 0.10581 0.41902 0.52824 0.0
H1866 H 0.1037 0.44131 0.39445 0.0
H1867 H 0.10163 0.43449 0.44162 0.0
H1868 H 0.15273 0.47096 0.48031 0.0
C1869 C 0.14618 0.45307 0.57438 0.0
C1870 C 0.11612 0.43037 0.51788 0.0
C1871 C 0.14731 0.45725 0.601 0.0
C1872 C 0.11562 0.44421 0.40513 0.0
C1873 C 0.11446 0.44034 0.4321 0.0
C1874 C 0.14258 0.45933 0.49037 0.0
C1875 C 0.12981 0.4455 0.56117 0.0
C1876 C 0.12946 0.44484 0.5319 0.0
C1877 C 0.12994 0.4454 0.44693 0.0
C1878 C 0.12952 0.44479 0.4762 0.0
H1879 H 0.10353 0.44175 0.61342 0.0
H1880 H 0.10152 0.43475 0.56631 0.0
H1881 H 0.15268 0.47099 0.52777 0.0
H1882 H 0.16047 0.46401 0.39795 0.0
H1883 H 0.15846 0.45662 0.44442 0.0
C1884 C 0.67638 0.11408 0.40488 0.0
C1885 C 0.68395 0.13068 0.39239 0.0
C1886 C 0.67928 0.113 0.43181 0.0
C1887 C 0.68889 0.14136 0.48985 0.0
H1888 H 0.69223 0.10452 0.52783 0.0
C1889 C 0.69549 0.14608 0.60056 0.0
C1890 C 0.68395 0.1308 0.61478 0.0
C1891 C 0.69859 0.14498 0.57394 0.0
C1892 C 0.69125 0.11485 0.51744 0.0
H1893 H 0.70168 0.15887 0.39725 0.0
H1894 H 0.70736 0.15699 0.44365 0.0
H1895 H 0.69224 0.10447 0.47949 0.0
H1896 H 0.66738 0.10225 0.61292 0.0
H1897 H 0.67242 0.1003 0.56584 0.0
H1898 H 0.68744 0.15157 0.52722 0.0
C1899 C 0.69872 0.14485 0.43315 0.0
C1900 C 0.69125 0.11483 0.48981 0.0
C1901 C 0.69561 0.14594 0.40653 0.0
C1902 C 0.67647 0.11419 0.60235 0.0
C1903 C 0.67935 0.11311 0.57542 0.0
C1904 C 0.68888 0.14138 0.5172 0.0
C1905 C 0.6899 0.12851 0.44645 0.0
C1906 C 0.69023 0.12821 0.47572 0.0
C1907 C 0.68987 0.12862 0.56071 0.0
C1908 C 0.69021 0.12826 0.53143 0.0
H1909 H 0.6672 0.10215 0.39437 0.0
H1910 H 0.67228 0.10022 0.44146 0.0
H1911 H 0.68747 0.15153 0.47976 0.0
H1912 H 0.7015 0.15902 0.60979 0.0
H1913 H 0.70717 0.15713 0.5634 0.0
C1914 C 0.56575 0.67291 0.40525 0.0
C1915 C 0.557 0.68075 0.39272 0.0
C1916 C 0.56977 0.67582 0.43217 0.0
C1917 C 0.55144 0.68599 0.49011 0.0
H1918 H 0.59135 0.68877 0.52814 0.0
C1919 C 0.55336 0.69271 0.6008 0.0
C1920 C 0.55694 0.68108 0.61507 0.0
C1921 C 0.55758 0.69575 0.57418 0.0
C1922 C 0.58011 0.68794 0.51775 0.0
H1923 H 0.54704 0.6989 0.39748 0.0
H1924 H 0.55468 0.70458 0.44385 0.0
H1925 H 0.59139 0.68866 0.47981 0.0
H1926 H 0.56865 0.66427 0.61329 0.0
H1927 H 0.57565 0.66919 0.5662 0.0
H1928 H 0.53986 0.68479 0.52745 0.0
C1929 C 0.55794 0.69575 0.4334 0.0
C1930 C 0.58013 0.68788 0.49011 0.0
C1931 C 0.5537 0.69264 0.4068 0.0
C1932 C 0.56592 0.67343 0.60268 0.0
C1933 C 0.5699 0.67625 0.57575 0.0
C1934 C 0.55141 0.68603 0.51746 0.0
C1935 C 0.56518 0.68669 0.44675 0.0
C1936 C 0.56583 0.68706 0.47601 0.0
C1937 C 0.56507 0.68687 0.56099 0.0
C1938 C 0.56577 0.68716 0.53171 0.0
H1939 H 0.56825 0.66355 0.39478 0.0
H1940 H 0.57534 0.66863 0.44186 0.0
H1941 H 0.53992 0.68474 0.48 0.0
H1942 H 0.54653 0.69884 0.61 0.0
H1943 H 0.55414 0.70442 0.56361 0.0
C1944 C 0.51592 0.14185 0.24595 0.0
C1945 C 0.5069 0.13255 0.22329 0.0
C1946 C 0.53168 0.14242 0.2535 0.0
C1947 C 0.55462 0.11733 0.25023 0.0
H1948 H 0.59827 0.16208 0.25998 0.0
C1949 C 0.63341 0.14231 0.26182 0.0
C1950 C 0.63315 0.13294 0.28439 0.0
C1951 C 0.61816 0.14278 0.25429 0.0
C1952 C 0.58616 0.14952 0.25725 0.0
H1953 H 0.50623 0.11545 0.19188 0.0
H1954 H 0.53348 0.11605 0.20541 0.0
H1955 H 0.57087 0.16199 0.24806 0.0
H1956 H 0.61673 0.11564 0.31565 0.0
H1957 H 0.58999 0.11608 0.30215 0.0
H1958 H 0.56974 0.10484 0.25988 0.0
C1959 C 0.52873 0.12331 0.2169 0.0
C1960 C 0.57052 0.14947 0.25065 0.0
C1961 C 0.51325 0.12306 0.2091 0.0
C1962 C 0.61729 0.12329 0.29851 0.0
C1963 C 0.60201 0.12346 0.29072 0.0
C1964 C 0.57013 0.11738 0.25733 0.0
C1965 C 0.53818 0.13313 0.23901 0.0
C1966 C 0.55465 0.13336 0.24695 0.0
C1967 C 0.60234 0.13333 0.26871 0.0
C1968 C 0.58605 0.13346 0.26078 0.0
H1969 H 0.511 0.14898 0.2574 0.0
H1970 H 0.53866 0.14992 0.27079 0.0
H1971 H 0.54253 0.10475 0.24754 0.0
H1972 H 0.64546 0.14956 0.25043 0.0
H1973 H 0.61865 0.15034 0.23707 0.0
C1974 C 0.49469 0.63133 0.26172 0.0
C1975 C 0.50381 0.63089 0.28417 0.0
C1976 C 0.47898 0.61614 0.254 0.0
C1977 C 0.44029 0.5841 0.25628 0.0
H1978 H 0.44139 0.54046 0.24656 0.0
C1979 C 0.37762 0.51402 0.2443 0.0
C1980 C 0.37805 0.50486 0.2219 0.0
C1981 C 0.3928 0.52978 0.25191 0.0
C1982 C 0.44091 0.55255 0.24923 0.0
H1983 H 0.50469 0.61423 0.31503 0.0
H1984 H 0.47751 0.5876 0.30125 0.0
H1985 H 0.46848 0.5676 0.25916 0.0
H1986 H 0.39469 0.50395 0.19103 0.0
H1987 H 0.42129 0.53122 0.20462 0.0
H1988 H 0.41257 0.56888 0.24676 0.0
C1989 C 0.48215 0.59971 0.29003 0.0
C1990 C 0.45635 0.56803 0.25649 0.0
C1991 C 0.49759 0.61493 0.29799 0.0
C1992 C 0.394 0.51108 0.20803 0.0
C1993 C 0.4092 0.52657 0.21588 0.0
C1994 C 0.42472 0.56849 0.24949 0.0
C1995 C 0.47261 0.6002 0.26812 0.0
C1996 C 0.45621 0.58396 0.25998 0.0
C1997 C 0.40871 0.53616 0.23773 0.0
C1998 C 0.42494 0.55261 0.24578 0.0
H1999 H 0.4995 0.64347 0.25055 0.0
H2000 H 0.47193 0.61676 0.23687 0.0
H2001 H 0.43985 0.59621 0.25904 0.0
H2002 H 0.36549 0.5092 0.25552 0.0
H2003 H 0.39218 0.53686 0.269 0.0
C2004 C 0.88559 0.49526 0.29702 0.0
C2005 C 0.87594 0.50158 0.28317 0.0
C2006 C 0.8854 0.47987 0.28891 0.0
C2007 C 0.89143 0.45422 0.25527 0.0
H2008 H 0.84681 0.41058 0.24459 0.0
C2009 C 0.88629 0.39209 0.2065 0.0
C2010 C 0.87647 0.37609 0.22022 0.0
C2011 C 0.88593 0.40725 0.21434 0.0
C2012 C 0.85933 0.42268 0.24759 0.0
H2013 H 0.85929 0.49752 0.24935 0.0
H2014 H 0.85848 0.47002 0.2354 0.0
H2015 H 0.84674 0.43782 0.25707 0.0
H2016 H 0.85931 0.3634 0.25355 0.0
H2017 H 0.85821 0.39002 0.267 0.0
H2018 H 0.90406 0.43926 0.24543 0.0
C2019 C 0.86605 0.47696 0.25267 0.0
C2020 C 0.85929 0.43824 0.25449 0.0
C2021 C 0.86654 0.49262 0.26054 0.0
C2022 C 0.8667 0.37557 0.24244 0.0
C2023 C 0.86604 0.39071 0.25003 0.0
C2024 C 0.89147 0.4388 0.24791 0.0
C2025 C 0.8755 0.47047 0.26682 0.0
C2026 C 0.87536 0.45411 0.25854 0.0
C2027 C 0.87569 0.40668 0.23602 0.0
C2028 C 0.87544 0.42288 0.24412 0.0
H2029 H 0.89328 0.50224 0.3142 0.0
H2030 H 0.89278 0.47514 0.30015 0.0
H2031 H 0.90398 0.46631 0.25821 0.0
H2032 H 0.89426 0.39285 0.18964 0.0
H2033 H 0.89347 0.41939 0.20321 0.0
C2034 C 0.49447 0.86524 0.24641 0.0
C2035 C 0.50352 0.87468 0.22385 0.0
C2036 C 0.4787 0.86464 0.25404 0.0
C2037 C 0.45573 0.88975 0.25102 0.0
H2038 H 0.41213 0.84497 0.2609 0.0
C2039 C 0.37693 0.86467 0.26267 0.0
C2040 C 0.37721 0.87417 0.28509 0.0
C2041 C 0.39217 0.86416 0.25521 0.0
C2042 C 0.42423 0.85753 0.25813 0.0
H2043 H 0.50423 0.89196 0.19269 0.0
H2044 H 0.47696 0.89128 0.20634 0.0
H2045 H 0.43955 0.84511 0.24889 0.0
H2046 H 0.39367 0.89165 0.31616 0.0
H2047 H 0.42039 0.89113 0.30279 0.0
H2048 H 0.44058 0.90221 0.26067 0.0
C2049 C 0.48169 0.88396 0.21771 0.0
C2050 C 0.43988 0.85761 0.25149 0.0
C2051 C 0.49718 0.88426 0.20983 0.0
C2052 C 0.39309 0.88389 0.29914 0.0
C2053 C 0.40836 0.88368 0.29142 0.0
C2054 C 0.44021 0.88967 0.25814 0.0
C2055 C 0.47221 0.87401 0.23971 0.0
C2056 C 0.45574 0.87374 0.24773 0.0
C2057 C 0.40801 0.87369 0.26955 0.0
C2058 C 0.42431 0.87358 0.26164 0.0
H2059 H 0.49936 0.85804 0.25773 0.0
H2060 H 0.4717 0.85703 0.27125 0.0
H2061 H 0.46781 0.90235 0.2483 0.0
H2062 H 0.36486 0.85736 0.25133 0.0
H2063 H 0.39166 0.85652 0.2381 0.0
C2064 C 0.61629 0.4943 0.20803 0.0
C2065 C 0.63235 0.50075 0.22167 0.0
C2066 C 0.60121 0.47882 0.21626 0.0
C2067 C 0.56989 0.45328 0.25062 0.0
H2068 H 0.57095 0.40968 0.26124 0.0
C2069 C 0.51342 0.39152 0.30093 0.0
C2070 C 0.50697 0.37547 0.28728 0.0
C2071 C 0.52892 0.4066 0.29274 0.0
C2072 C 0.57051 0.42178 0.25826 0.0
H2073 H 0.64524 0.49682 0.25523 0.0
H2074 H 0.61877 0.46918 0.2694 0.0
H2075 H 0.59812 0.43684 0.24796 0.0
H2076 H 0.51096 0.36258 0.25377 0.0
H2077 H 0.53863 0.38904 0.2397 0.0
H2078 H 0.54243 0.43841 0.26127 0.0
C2079 C 0.61797 0.47607 0.25218 0.0
C2080 C 0.58602 0.43728 0.2509 0.0
C2081 C 0.63302 0.49181 0.24419 0.0
C2082 C 0.51595 0.37479 0.26482 0.0
C2083 C 0.53172 0.38984 0.25688 0.0
C2084 C 0.55451 0.43792 0.25842 0.0
C2085 C 0.60194 0.46948 0.23828 0.0
C2086 C 0.58579 0.45314 0.24688 0.0
C2087 C 0.5383 0.40587 0.27078 0.0
C2088 C 0.55465 0.42201 0.26221 0.0
H2089 H 0.61541 0.50126 0.19095 0.0
H2090 H 0.58902 0.47401 0.20522 0.0
H2091 H 0.5694 0.46536 0.24772 0.0
H2092 H 0.50643 0.39241 0.31796 0.0
H2093 H 0.53372 0.41879 0.30379 0.0
C2094 C 0.14385 0.63135 0.24266 0.0
C2095 C 0.13426 0.63093 0.22026 0.0
C2096 C 0.14452 0.61621 0.25017 0.0
C2097 C 0.15141 0.58432 0.24757 0.0
H2098 H 0.10674 0.54066 0.25787 0.0
C2099 C 0.14404 0.51429 0.26061 0.0
C2100 C 0.13469 0.50542 0.28333 0.0
C2101 C 0.14457 0.52996 0.25266 0.0
C2102 C 0.1193 0.55276 0.25501 0.0
H2103 H 0.11683 0.61433 0.18927 0.0
H2104 H 0.11764 0.58777 0.20272 0.0
H2105 H 0.10669 0.56772 0.24502 0.0
H2106 H 0.11749 0.50493 0.31445 0.0
H2107 H 0.11804 0.53203 0.30024 0.0
H2108 H 0.16399 0.56919 0.25719 0.0
C2109 C 0.12502 0.59985 0.21403 0.0
C2110 C 0.11927 0.56818 0.24761 0.0
C2111 C 0.12465 0.61502 0.20627 0.0
C2112 C 0.12513 0.51183 0.29719 0.0
C2113 C 0.12535 0.52723 0.28899 0.0
C2114 C 0.15144 0.56876 0.25449 0.0
C2115 C 0.13508 0.60033 0.2359 0.0
C2116 C 0.13531 0.58412 0.24396 0.0
C2117 C 0.1352 0.53653 0.26681 0.0
C2118 C 0.13536 0.55289 0.25843 0.0
H2119 H 0.15107 0.64345 0.25397 0.0
H2120 H 0.15221 0.61682 0.26729 0.0
H2121 H 0.16394 0.59644 0.24468 0.0
H2122 H 0.15122 0.50932 0.24941 0.0
H2123 H 0.1521 0.53683 0.23532 0.0
C2124 C 0.49474 0.86485 0.76189 0.0
C2125 C 0.50387 0.87445 0.7843 0.0
C2126 C 0.479 0.86427 0.75418 0.0
C2127 C 0.44025 0.85752 0.75668 0.0
H2128 H 0.44127 0.9022 0.74648 0.0
C2129 C 0.37757 0.86502 0.74534 0.0
C2130 C 0.37783 0.87439 0.72276 0.0
C2131 C 0.39277 0.86443 0.75276 0.0
C2132 C 0.44081 0.88964 0.74929 0.0
H2133 H 0.50474 0.89204 0.81507 0.0
H2134 H 0.47753 0.89141 0.80127 0.0
H2135 H 0.46843 0.90224 0.75894 0.0
H2136 H 0.39421 0.89154 0.69136 0.0
H2137 H 0.42088 0.89089 0.70465 0.0
H2138 H 0.41248 0.84496 0.74747 0.0
C2139 C 0.48218 0.88394 0.79009 0.0
C2140 C 0.4563 0.88966 0.75646 0.0
C2141 C 0.49764 0.88421 0.79806 0.0
C2142 C 0.39365 0.88389 0.7085 0.0
C2143 C 0.40888 0.8836 0.71618 0.0
C2144 C 0.42464 0.8575 0.74999 0.0
C2145 C 0.47262 0.87384 0.76825 0.0
C2146 C 0.45619 0.87362 0.76013 0.0
C2147 C 0.40856 0.87375 0.73822 0.0
C2148 C 0.42483 0.87358 0.74612 0.0
H2149 H 0.49955 0.8575 0.75077 0.0
H2150 H 0.47193 0.85655 0.73709 0.0
H2151 H 0.43984 0.845 0.75958 0.0
H2152 H 0.36555 0.85788 0.75684 0.0
H2153 H 0.39229 0.8569 0.77001 0.0
C2154 C 0.61728 0.49436 0.80037 0.0
C2155 C 0.63331 0.50128 0.78655 0.0
C2156 C 0.60238 0.47872 0.7921 0.0
C2157 C 0.58333 0.44899 0.73434 0.0
H2158 H 0.55087 0.41685 0.78681 0.0
C2159 C 0.514 0.392 0.70619 0.0
C2160 C 0.50703 0.37597 0.72003 0.0
C2161 C 0.52977 0.40682 0.7143 0.0
C2162 C 0.55988 0.4255 0.77183 0.0
H2163 H 0.64629 0.49803 0.75254 0.0
H2164 H 0.62041 0.4702 0.73839 0.0
H2165 H 0.57791 0.44311 0.80064 0.0
H2166 H 0.51034 0.36291 0.75388 0.0
H2167 H 0.53839 0.38859 0.76769 0.0
H2168 H 0.56543 0.43123 0.70552 0.0
C2169 C 0.61922 0.47686 0.75557 0.0
C2170 C 0.57534 0.44076 0.77979 0.0
C2171 C 0.63408 0.49271 0.76371 0.0
C2172 C 0.5157 0.37512 0.74271 0.0
C2173 C 0.53166 0.38988 0.75066 0.0
C2174 C 0.56791 0.43367 0.72637 0.0
C2175 C 0.60317 0.46962 0.76976 0.0
C2176 C 0.58719 0.45284 0.76118 0.0
C2177 C 0.53896 0.40593 0.73649 0.0
C2178 C 0.55586 0.4218 0.74499 0.0
H2179 H 0.61626 0.50112 0.81759 0.0
H2180 H 0.59019 0.47391 0.80314 0.0
H2181 H 0.59198 0.45803 0.71939 0.0
H2182 H 0.50717 0.39308 0.6891 0.0
H2183 H 0.53463 0.41902 0.70328 0.0
C2184 C 0.14394 0.63222 0.76492 0.0
C2185 C 0.13425 0.63172 0.78724 0.0
C2186 C 0.14456 0.61707 0.75729 0.0
C2187 C 0.11917 0.56897 0.75958 0.0
H2188 H 0.1639 0.57001 0.75004 0.0
C2189 C 0.14421 0.51524 0.74673 0.0
C2190 C 0.13472 0.50622 0.72419 0.0
C2191 C 0.14468 0.5309 0.7546 0.0
C2192 C 0.15135 0.56957 0.75272 0.0
H2193 H 0.11657 0.61499 0.81794 0.0
H2194 H 0.11731 0.58844 0.8043 0.0
H2195 H 0.16383 0.59725 0.76252 0.0
H2196 H 0.11722 0.50544 0.69334 0.0
H2197 H 0.11769 0.53252 0.70739 0.0
H2198 H 0.10665 0.54145 0.74939 0.0
C2199 C 0.12481 0.60056 0.79313 0.0
C2200 C 0.15131 0.58513 0.75963 0.0
C2201 C 0.12448 0.61573 0.80101 0.0
C2202 C 0.12497 0.51247 0.71044 0.0
C2203 C 0.12514 0.52785 0.71856 0.0
C2204 C 0.11921 0.55355 0.75222 0.0
C2205 C 0.13497 0.60112 0.77136 0.0
C2206 C 0.1352 0.58491 0.76324 0.0
C2207 C 0.13513 0.53731 0.74054 0.0
C2208 C 0.13528 0.55368 0.74881 0.0
H2209 H 0.15129 0.64438 0.75379 0.0
H2210 H 0.15233 0.61774 0.74025 0.0
H2211 H 0.10659 0.5685 0.76217 0.0
H2212 H 0.15154 0.51041 0.75784 0.0
H2213 H 0.15232 0.53789 0.77179 0.0
C2214 C 0.63347 0.14202 0.74576 0.0
C2215 C 0.6332 0.13277 0.72305 0.0
C2216 C 0.61826 0.14254 0.75335 0.0
C2217 C 0.58643 0.14953 0.75068 0.0
H2218 H 0.5426 0.10483 0.75966 0.0
C2219 C 0.51637 0.14227 0.76213 0.0
C2220 C 0.50723 0.13278 0.78461 0.0
C2221 C 0.5321 0.14279 0.75453 0.0
C2222 C 0.55475 0.1174 0.75718 0.0
H2223 H 0.61679 0.11573 0.69158 0.0
H2224 H 0.59012 0.11626 0.70517 0.0
H2225 H 0.56975 0.10483 0.74721 0.0
H2226 H 0.50631 0.11532 0.81563 0.0
H2227 H 0.53351 0.11584 0.80202 0.0
H2228 H 0.57126 0.16207 0.7602 0.0
C2229 C 0.60212 0.1235 0.71668 0.0
C2230 C 0.57022 0.1174 0.75002 0.0
C2231 C 0.61736 0.12329 0.70883 0.0
C2232 C 0.51343 0.12307 0.79856 0.0
C2233 C 0.52888 0.12328 0.7907 0.0
C2234 C 0.57083 0.14954 0.75735 0.0
C2235 C 0.60247 0.13326 0.73884 0.0
C2236 C 0.58622 0.13345 0.74683 0.0
C2237 C 0.53845 0.13327 0.76879 0.0
C2238 C 0.55488 0.13345 0.76079 0.0
H2239 H 0.64551 0.14914 0.75722 0.0
H2240 H 0.61876 0.15 0.77068 0.0
H2241 H 0.5986 0.16207 0.74816 0.0
H2242 H 0.51157 0.14958 0.75086 0.0
H2243 H 0.53918 0.15043 0.73739 0.0
C2244 C 0.37835 0.51367 0.76291 0.0
C2245 C 0.37867 0.50435 0.78518 0.0
C2246 C 0.39357 0.52944 0.7555 0.0
C2247 C 0.44168 0.5522 0.75845 0.0
H2248 H 0.44049 0.59582 0.74902 0.0
C2249 C 0.4953 0.63103 0.74634 0.0
C2250 C 0.50431 0.63074 0.72367 0.0
C2251 C 0.47966 0.61578 0.75408 0.0
C2252 C 0.44097 0.58373 0.75168 0.0
H2253 H 0.39518 0.50314 0.81598 0.0
H2254 H 0.42189 0.53045 0.80272 0.0
H2255 H 0.41325 0.56841 0.76111 0.0
H2256 H 0.50508 0.61426 0.69242 0.0
H2257 H 0.47801 0.58752 0.70627 0.0
H2258 H 0.46925 0.56735 0.74852 0.0
C2259 C 0.40984 0.52592 0.79143 0.0
C2260 C 0.42542 0.56807 0.75838 0.0
C2261 C 0.39457 0.51041 0.7991 0.0
C2262 C 0.49806 0.61485 0.70964 0.0
C2263 C 0.48269 0.59957 0.71763 0.0
C2264 C 0.4571 0.56773 0.75126 0.0
C2265 C 0.40944 0.53568 0.76974 0.0
C2266 C 0.42568 0.5522 0.76193 0.0
C2267 C 0.47325 0.59992 0.73977 0.0
C2268 C 0.45691 0.58364 0.7479 0.0
H2269 H 0.36625 0.50898 0.75165 0.0
H2270 H 0.39302 0.53665 0.73852 0.0
H2271 H 0.44219 0.54011 0.76099 0.0
H2272 H 0.50015 0.64312 0.75766 0.0
H2273 H 0.47268 0.6163 0.77138 0.0
C2274 C 0.88601 0.39194 0.80103 0.0
C2275 C 0.87634 0.37598 0.78718 0.0
C2276 C 0.88563 0.40709 0.79317 0.0
C2277 C 0.8592 0.42258 0.75968 0.0
H2278 H 0.90391 0.46614 0.74899 0.0
C2279 C 0.86675 0.49269 0.74666 0.0
C2280 C 0.87609 0.50156 0.72393 0.0
C2281 C 0.86618 0.47698 0.75455 0.0
C2282 C 0.89134 0.45407 0.75195 0.0
H2283 H 0.85938 0.36334 0.75365 0.0
H2284 H 0.85824 0.38993 0.74017 0.0
H2285 H 0.90391 0.43908 0.76189 0.0
H2286 H 0.89321 0.50201 0.69272 0.0
H2287 H 0.89258 0.47485 0.70681 0.0
H2288 H 0.84666 0.43776 0.75012 0.0
C2289 C 0.86598 0.3906 0.75724 0.0
C2290 C 0.89134 0.43864 0.75938 0.0
C2291 C 0.86666 0.37548 0.76484 0.0
C2292 C 0.88558 0.4951 0.70999 0.0
C2293 C 0.88531 0.47967 0.71812 0.0
C2294 C 0.8592 0.43815 0.75273 0.0
C2295 C 0.8755 0.40654 0.77136 0.0
C2296 C 0.87529 0.42274 0.76319 0.0
C2297 C 0.87548 0.47037 0.74031 0.0
C2298 C 0.87529 0.45399 0.74865 0.0
H2299 H 0.8939 0.39269 0.81798 0.0
H2300 H 0.89308 0.41921 0.80437 0.0
H2301 H 0.84667 0.41049 0.76269 0.0
H2302 H 0.85962 0.49769 0.75792 0.0
H2303 H 0.85866 0.47012 0.7719 0.0
loop_
_geom_bond_atom_site_label_1
_geom_bond_atom_site_label_2
_geom_bond_distance
_geom_bond_site_symmetry_2
_ccdc_geom_bond_type
Mn0 O5 2.095 . S
Mn0 O15 2.162 . S
Mn0 O16 2.297 . S
Mn0 O24 2.385 . S
Mn0 O25 2.209 . S
Mn0 O26 2.094 . S
Mn1 O6 2.121 . S
Mn1 N8 2.257 . S
Mn1 N17 2.282 . S
Mn1 O25 2.215 . S
Mn1 O27 2.117 . S
C2 O24 1.234 . S
C2 O25 1.283 . S
C3 O15 1.281 . S
C3 O16 1.236 . S
C4 O26 1.240 . S
C4 O27 1.264 . S
O5 Mn0 2.095 . S
O5 C14 1.250 . S
O6 Mn1 2.121 . S
O6 C14 1.258 . S
C7 N8 1.326 . S
C7 C11 1.460 . S
C7 H13 0.929 . S
N8 Mn1 2.257 . S
N8 C7 1.326 . S
N8 C12 1.362 . S
C9 C10 1.258 . S
C9 C12 1.431 . S
C9 C29 1.449 . S
C10 C9 1.258 . S
C10 C11 1.477 . S
C10 H30 0.931 . S
C11 C7 1.460 . S
C11 C10 1.477 . S
C11 H31 0.930 . S
C12 N8 1.362 . S
C12 C9 1.431 . S
C12 C22 1.476 . S
H13 C7 0.929 . S
C14 O5 1.250 . S
C14 O6 1.258 . S
O15 Mn0 2.162 . S
O15 C3 1.281 . S
O16 Mn0 2.297 . S
O16 C3 1.236 . S
N17 Mn1 2.282 . S
N17 C18 1.328 . S
N17 C22 1.318 . S
C18 N17 1.328 . S
C18 C19 1.457 . S
C18 H23 0.929 . S
C19 C18 1.457 . S
C19 C20 1.291 . S
C19 H32 0.931 . S
C20 C19 1.291 . S
C20 C21 1.373 . S
C20 H33 0.929 . S
C21 C20 1.373 . S
C21 C22 1.396 . S
C21 C28 1.403 . S
C22 C12 1.476 . S
C22 N17 1.318 . S
C22 C21 1.396 . S
H23 C18 0.929 . S
O24 Mn0 2.385 . S
O24 C2 1.234 . S
O25 Mn0 2.209 . S
O25 Mn1 2.215 . S
O25 C2 1.283 . S
O26 Mn0 2.094 . S
O26 C4 1.240 . S
O27 Mn1 2.117 . S
O27 C4 1.264 . S
C28 C21 1.403 . S
C28 C29 1.399 . S
C28 H34 0.929 . S
C29 C9 1.449 . S
C29 C28 1.399 . S
C29 H35 0.930 . S
H30 C10 0.931 . S
H31 C11 0.930 . S
H32 C19 0.931 . S
H33 C20 0.929 . S
H34 C28 0.929 . S
H35 C29 0.930 . S
Mn36 O41 2.095 . S
Mn36 O51 2.162 . S
Mn36 O52 2.297 . S
Mn36 O60 2.385 . S
Mn36 O61 2.209 . S
Mn36 O62 2.094 . S
Mn37 O42 2.121 . S
Mn37 N44 2.257 . S
Mn37 N53 2.282 . S
Mn37 O61 2.215 . S
Mn37 O63 2.117 . S
C38 O60 1.234 . S
C38 O61 1.283 . S
C39 O51 1.281 . S
C39 O52 1.236 . S
C40 O62 1.240 . S
C40 O63 1.264 . S
O41 Mn36 2.095 . S
O41 C50 1.250 . S
O42 Mn37 2.121 . S
O42 C50 1.258 . S
C43 N44 1.326 . S
C43 C47 1.460 . S
C43 H49 0.929 . S
N44 Mn37 2.257 . S
N44 C43 1.326 . S
N44 C48 1.362 . S
C45 C46 1.258 . S
C45 C48 1.431 . S
C45 C65 1.449 . S
C46 C45 1.258 . S
C46 C47 1.477 . S
C46 H66 0.931 . S
C47 C43 1.460 . S
C47 C46 1.477 . S
C47 H67 0.930 . S
C48 N44 1.362 . S
C48 C45 1.431 . S
C48 C58 1.476 . S
H49 C43 0.929 . S
C50 O41 1.250 . S
C50 O42 1.258 . S
O51 Mn36 2.162 . S
O51 C39 1.281 . S
O52 Mn36 2.297 . S
O52 C39 1.236 . S
N53 Mn37 2.282 . S
N53 C54 1.328 . S
N53 C58 1.318 . S
C54 N53 1.328 . S
C54 C55 1.457 . S
C54 H59 0.929 . S
C55 C54 1.457 . S
C55 C56 1.291 . S
C55 H68 0.931 . S
C56 C55 1.291 . S
C56 C57 1.373 . S
C56 H69 0.929 . S
C57 C56 1.373 . S
C57 C58 1.396 . S
C57 C64 1.403 . S
C58 C48 1.476 . S
C58 N53 1.318 . S
C58 C57 1.396 . S
H59 C54 0.929 . S
O60 Mn36 2.385 . S
O60 C38 1.234 . S
O61 Mn36 2.209 . S
O61 Mn37 2.215 . S
O61 C38 1.283 . S
O62 Mn36 2.094 . S
O62 C40 1.240 . S
O63 Mn37 2.117 . S
O63 C40 1.264 . S
C64 C57 1.403 . S
C64 C65 1.399 . S
C64 H70 0.929 . S
C65 C45 1.449 . S
C65 C64 1.399 . S
C65 H71 0.930 . S
H66 C46 0.931 . S
H67 C47 0.930 . S
H68 C55 0.931 . S
H69 C56 0.929 . S
H70 C64 0.929 . S
H71 C65 0.930 . S
Mn72 O77 2.095 . S
Mn72 O87 2.162 . S
Mn72 O88 2.297 . S
Mn72 O96 2.385 . S
Mn72 O97 2.209 . S
Mn72 O98 2.094 . S
Mn73 O78 2.121 . S
Mn73 N80 2.257 . S
Mn73 N89 2.282 . S
Mn73 O97 2.215 . S
Mn73 O99 2.117 . S
C74 O96 1.234 . S
C74 O97 1.283 . S
C75 O87 1.281 . S
C75 O88 1.236 . S
C76 O98 1.240 . S
C76 O99 1.264 . S
O77 Mn72 2.095 . S
O77 C86 1.250 . S
O78 Mn73 2.121 . S
O78 C86 1.258 . S
C79 N80 1.326 . S
C79 C83 1.460 . S
C79 H85 0.929 . S
N80 Mn73 2.257 . S
N80 C79 1.326 . S
N80 C84 1.362 . S
C81 C82 1.258 . S
C81 C84 1.431 . S
C81 C101 1.449 . S
C82 C81 1.258 . S
C82 C83 1.477 . S
C82 H102 0.931 . S
C83 C79 1.460 . S
C83 C82 1.477 . S
C83 H103 0.930 . S
C84 N80 1.362 . S
C84 C81 1.431 . S
C84 C94 1.476 . S
H85 C79 0.929 . S
C86 O77 1.250 . S
C86 O78 1.258 . S
O87 Mn72 2.162 . S
O87 C75 1.281 . S
O88 Mn72 2.297 . S
O88 C75 1.236 . S
N89 Mn73 2.282 . S
N89 C90 1.328 . S
N89 C94 1.318 . S
C90 N89 1.328 . S
C90 C91 1.457 . S
C90 H95 0.929 . S
C91 C90 1.457 . S
C91 C92 1.291 . S
C91 H104 0.931 . S
C92 C91 1.291 . S
C92 C93 1.373 . S
C92 H105 0.929 . S
C93 C92 1.373 . S
C93 C94 1.396 . S
C93 C100 1.403 . S
C94 C84 1.476 . S
C94 N89 1.318 . S
C94 C93 1.396 . S
H95 C90 0.929 . S
O96 Mn72 2.385 . S
O96 C74 1.234 . S
O97 Mn72 2.209 . S
O97 Mn73 2.215 . S
O97 C74 1.283 . S
O98 Mn72 2.094 . S
O98 C76 1.240 . S
O99 Mn73 2.117 . S
O99 C76 1.264 . S
C100 C93 1.403 . S
C100 C101 1.399 . S
C100 H106 0.929 . S
C101 C81 1.449 . S
C101 C100 1.399 . S
C101 H107 0.930 . S
H102 C82 0.931 . S
H103 C83 0.930 . S
H104 C91 0.931 . S
H105 C92 0.929 . S
H106 C100 0.929 . S
H107 C101 0.930 . S
Mn108 O113 2.095 . S
Mn108 O123 2.162 . S
Mn108 O124 2.297 . S
Mn108 O132 2.385 . S
Mn108 O133 2.209 . S
Mn108 O134 2.094 . S
Mn109 O114 2.121 . S
Mn109 N116 2.257 . S
Mn109 N125 2.282 . S
Mn109 O133 2.215 . S
Mn109 O135 2.117 . S
C110 O132 1.234 . S
C110 O133 1.283 . S
C111 O123 1.281 . S
C111 O124 1.236 . S
C112 O134 1.240 . S
C112 O135 1.264 . S
O113 Mn108 2.095 . S
O113 C122 1.250 . S
O114 Mn109 2.121 . S
O114 C122 1.258 . S
C115 N116 1.326 . S
C115 C119 1.460 . S
C115 H121 0.929 . S
N116 Mn109 2.257 . S
N116 C115 1.326 . S
N116 C120 1.362 . S
C117 C118 1.258 . S
C117 C120 1.431 . S
C117 C137 1.449 . S
C118 C117 1.258 . S
C118 C119 1.477 . S
C118 H138 0.931 . S
C119 C115 1.460 . S
C119 C118 1.477 . S
C119 H139 0.930 . S
C120 N116 1.362 . S
C120 C117 1.431 . S
C120 C130 1.476 . S
H121 C115 0.929 . S
C122 O113 1.250 . S
C122 O114 1.258 . S
O123 Mn108 2.162 . S
O123 C111 1.281 . S
O124 Mn108 2.297 . S
O124 C111 1.236 . S
N125 Mn109 2.282 . S
N125 C126 1.328 . S
N125 C130 1.318 . S
C126 N125 1.328 . S
C126 C127 1.457 . S
C126 H131 0.929 . S
C127 C126 1.457 . S
C127 C128 1.291 . S
C127 H140 0.931 . S
C128 C127 1.291 . S
C128 C129 1.373 . S
C128 H141 0.929 . S
C129 C128 1.373 . S
C129 C130 1.396 . S
C129 C136 1.403 . S
C130 C120 1.476 . S
C130 N125 1.318 . S
C130 C129 1.396 . S
H131 C126 0.929 . S
O132 Mn108 2.385 . S
O132 C110 1.234 . S
O133 Mn108 2.209 . S
O133 Mn109 2.215 . S
O133 C110 1.283 . S
O134 Mn108 2.094 . S
O134 C112 1.240 . S
O135 Mn109 2.117 . S
O135 C112 1.264 . S
C136 C129 1.403 . S
C136 C137 1.399 . S
C136 H142 0.929 . S
C137 C117 1.449 . S
C137 C136 1.399 . S
C137 H143 0.930 . S
H138 C118 0.931 . S
H139 C119 0.930 . S
H140 C127 0.931 . S
H141 C128 0.929 . S
H142 C136 0.929 . S
H143 C137 0.930 . S
Mn144 O149 2.095 . S
Mn144 O159 2.162 . S
Mn144 O160 2.297 . S
Mn144 O168 2.385 . S
Mn144 O169 2.209 . S
Mn144 O170 2.094 . S
Mn145 O150 2.121 . S
Mn145 N152 2.257 . S
Mn145 N161 2.282 . S
Mn145 O169 2.215 . S
Mn145 O171 2.117 . S
C146 O168 1.234 . S
C146 O169 1.283 . S
C147 O159 1.281 . S
C147 O160 1.236 . S
C148 O170 1.240 . S
C148 O171 1.264 . S
O149 Mn144 2.095 . S
O149 C158 1.250 . S
O150 Mn145 2.121 . S
O150 C158 1.258 . S
C151 N152 1.326 . S
C151 C155 1.460 . S
C151 H157 0.929 . S
N152 Mn145 2.257 . S
N152 C151 1.326 . S
N152 C156 1.362 . S
C153 C154 1.258 . S
C153 C156 1.431 . S
C153 C173 1.449 . S
C154 C153 1.258 . S
C154 C155 1.477 . S
C154 H174 0.931 . S
C155 C151 1.460 . S
C155 C154 1.477 . S
C155 H175 0.930 . S
C156 N152 1.362 . S
C156 C153 1.431 . S
C156 C166 1.476 . S
H157 C151 0.929 . S
C158 O149 1.250 . S
C158 O150 1.258 . S
O159 Mn144 2.162 . S
O159 C147 1.281 . S
O160 Mn144 2.297 . S
O160 C147 1.236 . S
N161 Mn145 2.282 . S
N161 C162 1.328 . S
N161 C166 1.318 . S
C162 N161 1.328 . S
C162 C163 1.457 . S
C162 H167 0.929 . S
C163 C162 1.457 . S
C163 C164 1.291 . S
C163 H176 0.931 . S
C164 C163 1.291 . S
C164 C165 1.373 . S
C164 H177 0.929 . S
C165 C164 1.373 . S
C165 C166 1.396 . S
C165 C172 1.403 . S
C166 C156 1.476 . S
C166 N161 1.318 . S
C166 C165 1.396 . S
H167 C162 0.929 . S
O168 Mn144 2.385 . S
O168 C146 1.234 . S
O169 Mn144 2.209 . S
O169 Mn145 2.215 . S
O169 C146 1.283 . S
O170 Mn144 2.094 . S
O170 C148 1.240 . S
O171 Mn145 2.117 . S
O171 C148 1.264 . S
C172 C165 1.403 . S
C172 C173 1.399 . S
C172 H178 0.929 . S
C173 C153 1.449 . S
C173 C172 1.399 . S
C173 H179 0.930 . S
H174 C154 0.931 . S
H175 C155 0.930 . S
H176 C163 0.931 . S
H177 C164 0.929 . S
H178 C172 0.929 . S
H179 C173 0.930 . S
Mn180 O185 2.095 . S
Mn180 O195 2.162 . S
Mn180 O196 2.297 . S
Mn180 O204 2.385 . S
Mn180 O205 2.209 . S
Mn180 O206 2.094 . S
Mn181 O186 2.121 . S
Mn181 N188 2.257 . S
Mn181 N197 2.282 . S
Mn181 O205 2.215 . S
Mn181 O207 2.117 . S
C182 O204 1.234 . S
C182 O205 1.283 . S
C183 O195 1.281 . S
C183 O196 1.236 . S
C184 O206 1.240 . S
C184 O207 1.264 . S
O185 Mn180 2.095 . S
O185 C194 1.250 . S
O186 Mn181 2.121 . S
O186 C194 1.258 . S
C187 N188 1.326 . S
C187 C191 1.460 . S
C187 H193 0.929 . S
N188 Mn181 2.257 . S
N188 C187 1.326 . S
N188 C192 1.362 . S
C189 C190 1.258 . S
C189 C192 1.431 . S
C189 C209 1.449 . S
C190 C189 1.258 . S
C190 C191 1.477 . S
C190 H210 0.931 . S
C191 C187 1.460 . S
C191 C190 1.477 . S
C191 H211 0.930 . S
C192 N188 1.362 . S
C192 C189 1.431 . S
C192 C202 1.476 . S
H193 C187 0.929 . S
C194 O185 1.250 . S
C194 O186 1.258 . S
O195 Mn180 2.162 . S
O195 C183 1.281 . S
O196 Mn180 2.297 . S
O196 C183 1.236 . S
N197 Mn181 2.282 . S
N197 C198 1.328 . S
N197 C202 1.318 . S
C198 N197 1.328 . S
C198 C199 1.457 . S
C198 H203 0.929 . S
C199 C198 1.457 . S
C199 C200 1.291 . S
C199 H212 0.931 . S
C200 C199 1.291 . S
C200 C201 1.373 . S
C200 H213 0.929 . S
C201 C200 1.373 . S
C201 C202 1.396 . S
C201 C208 1.403 . S
C202 C192 1.476 . S
C202 N197 1.318 . S
C202 C201 1.396 . S
H203 C198 0.929 . S
O204 Mn180 2.385 . S
O204 C182 1.234 . S
O205 Mn180 2.209 . S
O205 Mn181 2.215 . S
O205 C182 1.283 . S
O206 Mn180 2.094 . S
O206 C184 1.240 . S
O207 Mn181 2.117 . S
O207 C184 1.264 . S
C208 C201 1.403 . S
C208 C209 1.399 . S
C208 H214 0.929 . S
C209 C189 1.449 . S
C209 C208 1.399 . S
C209 H215 0.930 . S
H210 C190 0.931 . S
H211 C191 0.930 . S
H212 C199 0.931 . S
H213 C200 0.929 . S
H214 C208 0.929 . S
H215 C209 0.930 . S
Mn216 O221 2.095 . S
Mn216 O231 2.162 . S
Mn216 O232 2.297 . S
Mn216 O240 2.385 . S
Mn216 O241 2.209 . S
Mn216 O242 2.094 . S
Mn217 O222 2.121 . S
Mn217 N224 2.257 . S
Mn217 N233 2.282 . S
Mn217 O241 2.215 . S
Mn217 O243 2.117 . S
C218 O240 1.234 . S
C218 O241 1.283 . S
C219 O231 1.281 . S
C219 O232 1.236 . S
C220 O242 1.240 . S
C220 O243 1.264 . S
O221 Mn216 2.095 . S
O221 C230 1.250 . S
O222 Mn217 2.121 . S
O222 C230 1.258 . S
C223 N224 1.326 . S
C223 C227 1.460 . S
C223 H229 0.929 . S
N224 Mn217 2.257 . S
N224 C223 1.326 . S
N224 C228 1.362 . S
C225 C226 1.258 . S
C225 C228 1.431 . S
C225 C245 1.449 . S
C226 C225 1.258 . S
C226 C227 1.477 . S
C226 H246 0.931 . S
C227 C223 1.460 . S
C227 C226 1.477 . S
C227 H247 0.930 . S
C228 N224 1.362 . S
C228 C225 1.431 . S
C228 C238 1.476 . S
H229 C223 0.929 . S
C230 O221 1.250 . S
C230 O222 1.258 . S
O231 Mn216 2.162 . S
O231 C219 1.281 . S
O232 Mn216 2.297 . S
O232 C219 1.236 . S
N233 Mn217 2.282 . S
N233 C234 1.328 . S
N233 C238 1.318 . S
C234 N233 1.328 . S
C234 C235 1.457 . S
C234 H239 0.929 . S
C235 C234 1.457 . S
C235 C236 1.291 . S
C235 H248 0.931 . S
C236 C235 1.291 . S
C236 C237 1.373 . S
C236 H249 0.929 . S
C237 C236 1.373 . S
C237 C238 1.396 . S
C237 C244 1.403 . S
C238 C228 1.476 . S
C238 N233 1.318 . S
C238 C237 1.396 . S
H239 C234 0.929 . S
O240 Mn216 2.385 . S
O240 C218 1.234 . S
O241 Mn216 2.209 . S
O241 Mn217 2.215 . S
O241 C218 1.283 . S
O242 Mn216 2.094 . S
O242 C220 1.240 . S
O243 Mn217 2.117 . S
O243 C220 1.264 . S
C244 C237 1.403 . S
C244 C245 1.399 . S
C244 H250 0.929 . S
C245 C225 1.449 . S
C245 C244 1.399 . S
C245 H251 0.930 . S
H246 C226 0.931 . S
H247 C227 0.930 . S
H248 C235 0.931 . S
H249 C236 0.929 . S
H250 C244 0.929 . S
H251 C245 0.930 . S
Mn252 O257 2.095 . S
Mn252 O267 2.162 . S
Mn252 O268 2.297 . S
Mn252 O276 2.385 . S
Mn252 O277 2.209 . S
Mn252 O278 2.094 . S
Mn253 O258 2.121 . S
Mn253 N260 2.257 . S
Mn253 N269 2.282 . S
Mn253 O277 2.215 . S
Mn253 O279 2.117 . S
C254 O276 1.234 . S
C254 O277 1.283 . S
C255 O267 1.281 . S
C255 O268 1.236 . S
C256 O278 1.240 . S
C256 O279 1.264 . S
O257 Mn252 2.095 . S
O257 C266 1.250 . S
O258 Mn253 2.121 . S
O258 C266 1.258 . S
C259 N260 1.326 . S
C259 C263 1.460 . S
C259 H265 0.929 . S
N260 Mn253 2.257 . S
N260 C259 1.326 . S
N260 C264 1.362 . S
C261 C262 1.258 . S
C261 C264 1.431 . S
C261 C281 1.449 . S
C262 C261 1.258 . S
C262 C263 1.477 . S
C262 H282 0.931 . S
C263 C259 1.460 . S
C263 C262 1.477 . S
C263 H283 0.930 . S
C264 N260 1.362 . S
C264 C261 1.431 . S
C264 C274 1.476 . S
H265 C259 0.929 . S
C266 O257 1.250 . S
C266 O258 1.258 . S
O267 Mn252 2.162 . S
O267 C255 1.281 . S
O268 Mn252 2.297 . S
O268 C255 1.236 . S
N269 Mn253 2.282 . S
N269 C270 1.328 . S
N269 C274 1.318 . S
C270 N269 1.328 . S
C270 C271 1.457 . S
C270 H275 0.929 . S
C271 C270 1.457 . S
C271 C272 1.291 . S
C271 H284 0.931 . S
C272 C271 1.291 . S
C272 C273 1.373 . S
C272 H285 0.929 . S
C273 C272 1.373 . S
C273 C274 1.396 . S
C273 C280 1.403 . S
C274 C264 1.476 . S
C274 N269 1.318 . S
C274 C273 1.396 . S
H275 C270 0.929 . S
O276 Mn252 2.385 . S
O276 C254 1.234 . S
O277 Mn252 2.209 . S
O277 Mn253 2.215 . S
O277 C254 1.283 . S
O278 Mn252 2.094 . S
O278 C256 1.240 . S
O279 Mn253 2.117 . S
O279 C256 1.264 . S
C280 C273 1.403 . S
C280 C281 1.399 . S
C280 H286 0.929 . S
C281 C261 1.449 . S
C281 C280 1.399 . S
C281 H287 0.930 . S
H282 C262 0.931 . S
H283 C263 0.930 . S
H284 C271 0.931 . S
H285 C272 0.929 . S
H286 C280 0.929 . S
H287 C281 0.930 . S
Mn288 O293 2.095 . S
Mn288 O303 2.162 . S
Mn288 O304 2.297 . S
Mn288 O312 2.385 . S
Mn288 O313 2.209 . S
Mn288 O314 2.094 . S
Mn289 O294 2.121 . S
Mn289 N296 2.257 . S
Mn289 N305 2.282 . S
Mn289 O313 2.215 . S
Mn289 O315 2.117 . S
C290 O312 1.234 . S
C290 O313 1.283 . S
C291 O303 1.281 . S
C291 O304 1.236 . S
C292 O314 1.240 . S
C292 O315 1.264 . S
O293 Mn288 2.095 . S
O293 C302 1.250 . S
O294 Mn289 2.121 . S
O294 C302 1.258 . S
C295 N296 1.326 . S
C295 C299 1.460 . S
C295 H301 0.929 . S
N296 Mn289 2.257 . S
N296 C295 1.326 . S
N296 C300 1.362 . S
C297 C298 1.258 . S
C297 C300 1.431 . S
C297 C317 1.449 . S
C298 C297 1.258 . S
C298 C299 1.477 . S
C298 H318 0.931 . S
C299 C295 1.460 . S
C299 C298 1.477 . S
C299 H319 0.930 . S
C300 N296 1.362 . S
C300 C297 1.431 . S
C300 C310 1.476 . S
H301 C295 0.929 . S
C302 O293 1.250 . S
C302 O294 1.258 . S
O303 Mn288 2.162 . S
O303 C291 1.281 . S
O304 Mn288 2.297 . S
O304 C291 1.236 . S
N305 Mn289 2.282 . S
N305 C306 1.328 . S
N305 C310 1.318 . S
C306 N305 1.328 . S
C306 C307 1.457 . S
C306 H311 0.929 . S
C307 C306 1.457 . S
C307 C308 1.291 . S
C307 H320 0.931 . S
C308 C307 1.291 . S
C308 C309 1.373 . S
C308 H321 0.929 . S
C309 C308 1.373 . S
C309 C310 1.396 . S
C309 C316 1.403 . S
C310 C300 1.476 . S
C310 N305 1.318 . S
C310 C309 1.396 . S
H311 C306 0.929 . S
O312 Mn288 2.385 . S
O312 C290 1.234 . S
O313 Mn288 2.209 . S
O313 Mn289 2.215 . S
O313 C290 1.283 . S
O314 Mn288 2.094 . S
O314 C292 1.240 . S
O315 Mn289 2.117 . S
O315 C292 1.264 . S
C316 C309 1.403 . S
C316 C317 1.399 . S
C316 H322 0.929 . S
C317 C297 1.449 . S
C317 C316 1.399 . S
C317 H323 0.930 . S
H318 C298 0.931 . S
H319 C299 0.930 . S
H320 C307 0.931 . S
H321 C308 0.929 . S
H322 C316 0.929 . S
H323 C317 0.930 . S
Mn324 O329 2.095 . S
Mn324 O339 2.162 . S
Mn324 O340 2.297 . S
Mn324 O348 2.385 . S
Mn324 O349 2.209 . S
Mn324 O350 2.094 . S
Mn325 O330 2.121 . S
Mn325 N332 2.257 . S
Mn325 N341 2.282 . S
Mn325 O349 2.215 . S
Mn325 O351 2.117 . S
C326 O348 1.234 . S
C326 O349 1.283 . S
C327 O339 1.281 . S
C327 O340 1.236 . S
C328 O350 1.240 . S
C328 O351 1.264 . S
O329 Mn324 2.095 . S
O329 C338 1.250 . S
O330 Mn325 2.121 . S
O330 C338 1.258 . S
C331 N332 1.326 . S
C331 C335 1.460 . S
C331 H337 0.929 . S
N332 Mn325 2.257 . S
N332 C331 1.326 . S
N332 C336 1.362 . S
C333 C334 1.258 . S
C333 C336 1.431 . S
C333 C353 1.449 . S
C334 C333 1.258 . S
C334 C335 1.477 . S
C334 H354 0.931 . S
C335 C331 1.460 . S
C335 C334 1.477 . S
C335 H355 0.930 . S
C336 N332 1.362 . S
C336 C333 1.431 . S
C336 C346 1.476 . S
H337 C331 0.929 . S
C338 O329 1.250 . S
C338 O330 1.258 . S
O339 Mn324 2.162 . S
O339 C327 1.281 . S
O340 Mn324 2.297 . S
O340 C327 1.236 . S
N341 Mn325 2.282 . S
N341 C342 1.328 . S
N341 C346 1.318 . S
C342 N341 1.328 . S
C342 C343 1.457 . S
C342 H347 0.929 . S
C343 C342 1.457 . S
C343 C344 1.291 . S
C343 H356 0.931 . S
C344 C343 1.291 . S
C344 C345 1.373 . S
C344 H357 0.929 . S
C345 C344 1.373 . S
C345 C346 1.396 . S
C345 C352 1.403 . S
C346 C336 1.476 . S
C346 N341 1.318 . S
C346 C345 1.396 . S
H347 C342 0.929 . S
O348 Mn324 2.385 . S
O348 C326 1.234 . S
O349 Mn324 2.209 . S
O349 Mn325 2.215 . S
O349 C326 1.283 . S
O350 Mn324 2.094 . S
O350 C328 1.240 . S
O351 Mn325 2.117 . S
O351 C328 1.264 . S
C352 C345 1.403 . S
C352 C353 1.399 . S
C352 H358 0.929 . S
C353 C333 1.449 . S
C353 C352 1.399 . S
C353 H359 0.930 . S
H354 C334 0.931 . S
H355 C335 0.930 . S
H356 C343 0.931 . S
H357 C344 0.929 . S
H358 C352 0.929 . S
H359 C353 0.930 . S
Mn360 O365 2.095 . S
Mn360 O375 2.162 . S
Mn360 O376 2.297 . S
Mn360 O384 2.385 . S
Mn360 O385 2.209 . S
Mn360 O386 2.094 . S
Mn361 O366 2.121 . S
Mn361 N368 2.257 . S
Mn361 N377 2.282 . S
Mn361 O385 2.215 . S
Mn361 O387 2.117 . S
C362 O384 1.234 . S
C362 O385 1.283 . S
C363 O375 1.281 . S
C363 O376 1.236 . S
C364 O386 1.240 . S
C364 O387 1.264 . S
O365 Mn360 2.095 . S
O365 C374 1.250 . S
O366 Mn361 2.121 . S
O366 C374 1.258 . S
C367 N368 1.326 . S
C367 C371 1.460 . S
C367 H373 0.929 . S
N368 Mn361 2.257 . S
N368 C367 1.326 . S
N368 C372 1.362 . S
C369 C370 1.258 . S
C369 C372 1.431 . S
C369 C389 1.449 . S
C370 C369 1.258 . S
C370 C371 1.477 . S
C370 H390 0.931 . S
C371 C367 1.460 . S
C371 C370 1.477 . S
C371 H391 0.930 . S
C372 N368 1.362 . S
C372 C369 1.431 . S
C372 C382 1.476 . S
H373 C367 0.929 . S
C374 O365 1.250 . S
C374 O366 1.258 . S
O375 Mn360 2.162 . S
O375 C363 1.281 . S
O376 Mn360 2.297 . S
O376 C363 1.236 . S
N377 Mn361 2.282 . S
N377 C378 1.328 . S
N377 C382 1.318 . S
C378 N377 1.328 . S
C378 C379 1.457 . S
C378 H383 0.929 . S
C379 C378 1.457 . S
C379 C380 1.291 . S
C379 H392 0.931 . S
C380 C379 1.291 . S
C380 C381 1.373 . S
C380 H393 0.929 . S
C381 C380 1.373 . S
C381 C382 1.396 . S
C381 C388 1.403 . S
C382 C372 1.476 . S
C382 N377 1.318 . S
C382 C381 1.396 . S
H383 C378 0.929 . S
O384 Mn360 2.385 . S
O384 C362 1.234 . S
O385 Mn360 2.209 . S
O385 Mn361 2.215 . S
O385 C362 1.283 . S
O386 Mn360 2.094 . S
O386 C364 1.240 . S
O387 Mn361 2.117 . S
O387 C364 1.264 . S
C388 C381 1.403 . S
C388 C389 1.399 . S
C388 H394 0.929 . S
C389 C369 1.449 . S
C389 C388 1.399 . S
C389 H395 0.930 . S
H390 C370 0.931 . S
H391 C371 0.930 . S
H392 C379 0.931 . S
H393 C380 0.929 . S
H394 C388 0.929 . S
H395 C389 0.930 . S
Mn396 O401 2.095 . S
Mn396 O411 2.162 . S
Mn396 O412 2.297 . S
Mn396 O420 2.385 . S
Mn396 O421 2.209 . S
Mn396 O422 2.094 . S
Mn397 O402 2.121 . S
Mn397 N404 2.257 . S
Mn397 N413 2.282 . S
Mn397 O421 2.215 . S
Mn397 O423 2.117 . S
C398 O420 1.234 . S
C398 O421 1.283 . S
C399 O411 1.281 . S
C399 O412 1.236 . S
C400 O422 1.240 . S
C400 O423 1.264 . S
O401 Mn396 2.095 . S
O401 C410 1.250 . S
O402 Mn397 2.121 . S
O402 C410 1.258 . S
C403 N404 1.326 . S
C403 C407 1.460 . S
C403 H409 0.929 . S
N404 Mn397 2.257 . S
N404 C403 1.326 . S
N404 C408 1.362 . S
C405 C406 1.258 . S
C405 C408 1.431 . S
C405 C425 1.449 . S
C406 C405 1.258 . S
C406 C407 1.477 . S
C406 H426 0.931 . S
C407 C403 1.460 . S
C407 C406 1.477 . S
C407 H427 0.930 . S
C408 N404 1.362 . S
C408 C405 1.431 . S
C408 C418 1.476 . S
H409 C403 0.929 . S
C410 O401 1.250 . S
C410 O402 1.258 . S
O411 Mn396 2.162 . S
O411 C399 1.281 . S
O412 Mn396 2.297 . S
O412 C399 1.236 . S
N413 Mn397 2.282 . S
N413 C414 1.328 . S
N413 C418 1.318 . S
C414 N413 1.328 . S
C414 C415 1.457 . S
C414 H419 0.929 . S
C415 C414 1.457 . S
C415 C416 1.291 . S
C415 H428 0.931 . S
C416 C415 1.291 . S
C416 C417 1.373 . S
C416 H429 0.929 . S
C417 C416 1.373 . S
C417 C418 1.396 . S
C417 C424 1.403 . S
C418 C408 1.476 . S
C418 N413 1.318 . S
C418 C417 1.396 . S
H419 C414 0.929 . S
O420 Mn396 2.385 . S
O420 C398 1.234 . S
O421 Mn396 2.209 . S
O421 Mn397 2.215 . S
O421 C398 1.283 . S
O422 Mn396 2.094 . S
O422 C400 1.240 . S
O423 Mn397 2.117 . S
O423 C400 1.264 . S
C424 C417 1.403 . S
C424 C425 1.399 . S
C424 H430 0.929 . S
C425 C405 1.449 . S
C425 C424 1.399 . S
C425 H431 0.930 . S
H426 C406 0.931 . S
H427 C407 0.930 . S
H428 C415 0.931 . S
H429 C416 0.929 . S
H430 C424 0.929 . S
H431 C425 0.930 . S
Mn432 O437 2.095 . S
Mn432 O447 2.162 . S
Mn432 O448 2.297 . S
Mn432 O456 2.385 . S
Mn432 O457 2.209 . S
Mn432 O458 2.094 . S
Mn433 O438 2.121 . S
Mn433 N440 2.257 . S
Mn433 N449 2.282 . S
Mn433 O457 2.215 . S
Mn433 O459 2.117 . S
C434 O456 1.234 . S
C434 O457 1.283 . S
C435 O447 1.281 . S
C435 O448 1.236 . S
C436 O458 1.240 . S
C436 O459 1.264 . S
O437 Mn432 2.095 . S
O437 C446 1.250 . S
O438 Mn433 2.121 . S
O438 C446 1.258 . S
C439 N440 1.326 . S
C439 C443 1.460 . S
C439 H445 0.929 . S
N440 Mn433 2.257 . S
N440 C439 1.326 . S
N440 C444 1.362 . S
C441 C442 1.258 . S
C441 C444 1.431 . S
C441 C461 1.449 . S
C442 C441 1.258 . S
C442 C443 1.477 . S
C442 H462 0.931 . S
C443 C439 1.460 . S
C443 C442 1.477 . S
C443 H463 0.930 . S
C444 N440 1.362 . S
C444 C441 1.431 . S
C444 C454 1.476 . S
H445 C439 0.929 . S
C446 O437 1.250 . S
C446 O438 1.258 . S
O447 Mn432 2.162 . S
O447 C435 1.281 . S
O448 Mn432 2.297 . S
O448 C435 1.236 . S
N449 Mn433 2.282 . S
N449 C450 1.328 . S
N449 C454 1.318 . S
C450 N449 1.328 . S
C450 C451 1.457 . S
C450 H455 0.929 . S
C451 C450 1.457 . S
C451 C452 1.291 . S
C451 H464 0.931 . S
C452 C451 1.291 . S
C452 C453 1.373 . S
C452 H465 0.929 . S
C453 C452 1.373 . S
C453 C454 1.396 . S
C453 C460 1.403 . S
C454 C444 1.476 . S
C454 N449 1.318 . S
C454 C453 1.396 . S
H455 C450 0.929 . S
O456 Mn432 2.385 . S
O456 C434 1.234 . S
O457 Mn432 2.209 . S
O457 Mn433 2.215 . S
O457 C434 1.283 . S
O458 Mn432 2.094 . S
O458 C436 1.240 . S
O459 Mn433 2.117 . S
O459 C436 1.264 . S
C460 C453 1.403 . S
C460 C461 1.399 . S
C460 H466 0.929 . S
C461 C441 1.449 . S
C461 C460 1.399 . S
C461 H467 0.930 . S
H462 C442 0.931 . S
H463 C443 0.930 . S
H464 C451 0.931 . S
H465 C452 0.929 . S
H466 C460 0.929 . S
H467 C461 0.930 . S
Mn468 O473 2.095 . S
Mn468 O483 2.162 . S
Mn468 O484 2.297 . S
Mn468 O492 2.385 . S
Mn468 O493 2.209 . S
Mn468 O494 2.094 . S
Mn469 O474 2.121 . S
Mn469 N476 2.257 . S
Mn469 N485 2.282 . S
Mn469 O493 2.215 . S
Mn469 O495 2.117 . S
C470 O492 1.234 . S
C470 O493 1.283 . S
C471 O483 1.281 . S
C471 O484 1.236 . S
C472 O494 1.240 . S
C472 O495 1.264 . S
O473 Mn468 2.095 . S
O473 C482 1.250 . S
O474 Mn469 2.121 . S
O474 C482 1.258 . S
C475 N476 1.326 . S
C475 C479 1.460 . S
C475 H481 0.929 . S
N476 Mn469 2.257 . S
N476 C475 1.326 . S
N476 C480 1.362 . S
C477 C478 1.258 . S
C477 C480 1.431 . S
C477 C497 1.449 . S
C478 C477 1.258 . S
C478 C479 1.477 . S
C478 H498 0.931 . S
C479 C475 1.460 . S
C479 C478 1.477 . S
C479 H499 0.930 . S
C480 N476 1.362 . S
C480 C477 1.431 . S
C480 C490 1.476 . S
H481 C475 0.929 . S
C482 O473 1.250 . S
C482 O474 1.258 . S
O483 Mn468 2.162 . S
O483 C471 1.281 . S
O484 Mn468 2.297 . S
O484 C471 1.236 . S
N485 Mn469 2.282 . S
N485 C486 1.328 . S
N485 C490 1.318 . S
C486 N485 1.328 . S
C486 C487 1.457 . S
C486 H491 0.929 . S
C487 C486 1.457 . S
C487 C488 1.291 . S
C487 H500 0.931 . S
C488 C487 1.291 . S
C488 C489 1.373 . S
C488 H501 0.929 . S
C489 C488 1.373 . S
C489 C490 1.396 . S
C489 C496 1.403 . S
C490 C480 1.476 . S
C490 N485 1.318 . S
C490 C489 1.396 . S
H491 C486 0.929 . S
O492 Mn468 2.385 . S
O492 C470 1.234 . S
O493 Mn468 2.209 . S
O493 Mn469 2.215 . S
O493 C470 1.283 . S
O494 Mn468 2.094 . S
O494 C472 1.240 . S
O495 Mn469 2.117 . S
O495 C472 1.264 . S
C496 C489 1.403 . S
C496 C497 1.399 . S
C496 H502 0.929 . S
C497 C477 1.449 . S
C497 C496 1.399 . S
C497 H503 0.930 . S
H498 C478 0.931 . S
H499 C479 0.930 . S
H500 C487 0.931 . S
H501 C488 0.929 . S
H502 C496 0.929 . S
H503 C497 0.930 . S
Mn504 O509 2.095 . S
Mn504 O519 2.162 . S
Mn504 O520 2.297 . S
Mn504 O528 2.385 . S
Mn504 O529 2.209 . S
Mn504 O530 2.094 . S
Mn505 O510 2.121 . S
Mn505 N512 2.257 . S
Mn505 N521 2.282 . S
Mn505 O529 2.215 . S
Mn505 O531 2.117 . S
C506 O528 1.234 . S
C506 O529 1.283 . S
C507 O519 1.281 . S
C507 O520 1.236 . S
C508 O530 1.240 . S
C508 O531 1.264 . S
O509 Mn504 2.095 . S
O509 C518 1.250 . S
O510 Mn505 2.121 . S
O510 C518 1.258 . S
C511 N512 1.326 . S
C511 C515 1.460 . S
C511 H517 0.929 . S
N512 Mn505 2.257 . S
N512 C511 1.326 . S
N512 C516 1.362 . S
C513 C514 1.258 . S
C513 C516 1.431 . S
C513 C533 1.449 . S
C514 C513 1.258 . S
C514 C515 1.477 . S
C514 H534 0.931 . S
C515 C511 1.460 . S
C515 C514 1.477 . S
C515 H535 0.930 . S
C516 N512 1.362 . S
C516 C513 1.431 . S
C516 C526 1.476 . S
H517 C511 0.929 . S
C518 O509 1.250 . S
C518 O510 1.258 . S
O519 Mn504 2.162 . S
O519 C507 1.281 . S
O520 Mn504 2.297 . S
O520 C507 1.236 . S
N521 Mn505 2.282 . S
N521 C522 1.328 . S
N521 C526 1.318 . S
C522 N521 1.328 . S
C522 C523 1.457 . S
C522 H527 0.929 . S
C523 C522 1.457 . S
C523 C524 1.291 . S
C523 H536 0.931 . S
C524 C523 1.291 . S
C524 C525 1.373 . S
C524 H537 0.929 . S
C525 C524 1.373 . S
C525 C526 1.396 . S
C525 C532 1.403 . S
C526 C516 1.476 . S
C526 N521 1.318 . S
C526 C525 1.396 . S
H527 C522 0.929 . S
O528 Mn504 2.385 . S
O528 C506 1.234 . S
O529 Mn504 2.209 . S
O529 Mn505 2.215 . S
O529 C506 1.283 . S
O530 Mn504 2.094 . S
O530 C508 1.240 . S
O531 Mn505 2.117 . S
O531 C508 1.264 . S
C532 C525 1.403 . S
C532 C533 1.399 . S
C532 H538 0.929 . S
C533 C513 1.449 . S
C533 C532 1.399 . S
C533 H539 0.930 . S
H534 C514 0.931 . S
H535 C515 0.930 . S
H536 C523 0.931 . S
H537 C524 0.929 . S
H538 C532 0.929 . S
H539 C533 0.930 . S
Mn540 O545 2.095 . S
Mn540 O555 2.162 . S
Mn540 O556 2.297 . S
Mn540 O564 2.385 . S
Mn540 O565 2.209 . S
Mn540 O566 2.094 . S
Mn541 O546 2.121 . S
Mn541 N548 2.257 . S
Mn541 N557 2.282 . S
Mn541 O565 2.215 . S
Mn541 O567 2.117 . S
C542 O564 1.234 . S
C542 O565 1.283 . S
C543 O555 1.281 . S
C543 O556 1.236 . S
C544 O566 1.240 . S
C544 O567 1.264 . S
O545 Mn540 2.095 . S
O545 C554 1.250 . S
O546 Mn541 2.121 . S
O546 C554 1.258 . S
C547 N548 1.326 . S
C547 C551 1.460 . S
C547 H553 0.929 . S
N548 Mn541 2.257 . S
N548 C547 1.326 . S
N548 C552 1.362 . S
C549 C550 1.258 . S
C549 C552 1.431 . S
C549 C569 1.449 . S
C550 C549 1.258 . S
C550 C551 1.477 . S
C550 H570 0.931 . S
C551 C547 1.460 . S
C551 C550 1.477 . S
C551 H571 0.930 . S
C552 N548 1.362 . S
C552 C549 1.431 . S
C552 C562 1.476 . S
H553 C547 0.929 . S
C554 O545 1.250 . S
C554 O546 1.258 . S
O555 Mn540 2.162 . S
O555 C543 1.281 . S
O556 Mn540 2.297 . S
O556 C543 1.236 . S
N557 Mn541 2.282 . S
N557 C558 1.328 . S
N557 C562 1.318 . S
C558 N557 1.328 . S
C558 C559 1.457 . S
C558 H563 0.929 . S
C559 C558 1.457 . S
C559 C560 1.291 . S
C559 H572 0.931 . S
C560 C559 1.291 . S
C560 C561 1.373 . S
C560 H573 0.929 . S
C561 C560 1.373 . S
C561 C562 1.396 . S
C561 C568 1.403 . S
C562 C552 1.476 . S
C562 N557 1.318 . S
C562 C561 1.396 . S
H563 C558 0.929 . S
O564 Mn540 2.385 . S
O564 C542 1.234 . S
O565 Mn540 2.209 . S
O565 Mn541 2.215 . S
O565 C542 1.283 . S
O566 Mn540 2.094 . S
O566 C544 1.240 . S
O567 Mn541 2.117 . S
O567 C544 1.264 . S
C568 C561 1.403 . S
C568 C569 1.399 . S
C568 H574 0.929 . S
C569 C549 1.449 . S
C569 C568 1.399 . S
C569 H575 0.930 . S
H570 C550 0.931 . S
H571 C551 0.930 . S
H572 C559 0.931 . S
H573 C560 0.929 . S
H574 C568 0.929 . S
H575 C569 0.930 . S
Mn576 O581 2.095 . S
Mn576 O591 2.162 . S
Mn576 O592 2.297 . S
Mn576 O600 2.385 . S
Mn576 O601 2.209 . S
Mn576 O602 2.094 . S
Mn577 O582 2.121 . S
Mn577 N584 2.257 . S
Mn577 N593 2.282 . S
Mn577 O601 2.215 . S
Mn577 O603 2.117 . S
C578 O600 1.234 . S
C578 O601 1.283 . S
C579 O591 1.281 . S
C579 O592 1.236 . S
C580 O602 1.240 . S
C580 O603 1.264 . S
O581 Mn576 2.095 . S
O581 C590 1.250 . S
O582 Mn577 2.121 . S
O582 C590 1.258 . S
C583 N584 1.326 . S
C583 C587 1.460 . S
C583 H589 0.929 . S
N584 Mn577 2.257 . S
N584 C583 1.326 . S
N584 C588 1.362 . S
C585 C586 1.258 . S
C585 C588 1.431 . S
C585 C605 1.449 . S
C586 C585 1.258 . S
C586 C587 1.477 . S
C586 H606 0.931 . S
C587 C583 1.460 . S
C587 C586 1.477 . S
C587 H607 0.930 . S
C588 N584 1.362 . S
C588 C585 1.431 . S
C588 C598 1.476 . S
H589 C583 0.929 . S
C590 O581 1.250 . S
C590 O582 1.258 . S
O591 Mn576 2.162 . S
O591 C579 1.281 . S
O592 Mn576 2.297 . S
O592 C579 1.236 . S
N593 Mn577 2.282 . S
N593 C594 1.328 . S
N593 C598 1.318 . S
C594 N593 1.328 . S
C594 C595 1.457 . S
C594 H599 0.929 . S
C595 C594 1.457 . S
C595 C596 1.291 . S
C595 H608 0.931 . S
C596 C595 1.291 . S
C596 C597 1.373 . S
C596 H609 0.929 . S
C597 C596 1.373 . S
C597 C598 1.396 . S
C597 C604 1.403 . S
C598 C588 1.476 . S
C598 N593 1.318 . S
C598 C597 1.396 . S
H599 C594 0.929 . S
O600 Mn576 2.385 . S
O600 C578 1.234 . S
O601 Mn576 2.209 . S
O601 Mn577 2.215 . S
O601 C578 1.283 . S
O602 Mn576 2.094 . S
O602 C580 1.240 . S
O603 Mn577 2.117 . S
O603 C580 1.264 . S
C604 C597 1.403 . S
C604 C605 1.399 . S
C604 H610 0.929 . S
C605 C585 1.449 . S
C605 C604 1.399 . S
C605 H611 0.930 . S
H606 C586 0.931 . S
H607 C587 0.930 . S
H608 C595 0.931 . S
H609 C596 0.929 . S
H610 C604 0.929 . S
H611 C605 0.930 . S
Mn612 O617 2.095 . S
Mn612 O627 2.162 . S
Mn612 O628 2.297 . S
Mn612 O636 2.385 . S
Mn612 O637 2.209 . S
Mn612 O638 2.094 . S
Mn613 O618 2.121 . S
Mn613 N620 2.257 . S
Mn613 N629 2.282 . S
Mn613 O637 2.215 . S
Mn613 O639 2.117 . S
C614 O636 1.234 . S
C614 O637 1.283 . S
C615 O627 1.281 . S
C615 O628 1.236 . S
C616 O638 1.240 . S
C616 O639 1.264 . S
O617 Mn612 2.095 . S
O617 C626 1.250 . S
O618 Mn613 2.121 . S
O618 C626 1.258 . S
C619 N620 1.326 . S
C619 C623 1.460 . S
C619 H625 0.929 . S
N620 Mn613 2.257 . S
N620 C619 1.326 . S
N620 C624 1.362 . S
C621 C622 1.258 . S
C621 C624 1.431 . S
C621 C641 1.449 . S
C622 C621 1.258 . S
C622 C623 1.477 . S
C622 H642 0.931 . S
C623 C619 1.460 . S
C623 C622 1.477 . S
C623 H643 0.930 . S
C624 N620 1.362 . S
C624 C621 1.431 . S
C624 C634 1.476 . S
H625 C619 0.929 . S
C626 O617 1.250 . S
C626 O618 1.258 . S
O627 Mn612 2.162 . S
O627 C615 1.281 . S
O628 Mn612 2.297 . S
O628 C615 1.236 . S
N629 Mn613 2.282 . S
N629 C630 1.328 . S
N629 C634 1.318 . S
C630 N629 1.328 . S
C630 C631 1.457 . S
C630 H635 0.929 . S
C631 C630 1.457 . S
C631 C632 1.291 . S
C631 H644 0.931 . S
C632 C631 1.291 . S
C632 C633 1.373 . S
C632 H645 0.929 . S
C633 C632 1.373 . S
C633 C634 1.396 . S
C633 C640 1.403 . S
C634 C624 1.476 . S
C634 N629 1.318 . S
C634 C633 1.396 . S
H635 C630 0.929 . S
O636 Mn612 2.385 . S
O636 C614 1.234 . S
O637 Mn612 2.209 . S
O637 Mn613 2.215 . S
O637 C614 1.283 . S
O638 Mn612 2.094 . S
O638 C616 1.240 . S
O639 Mn613 2.117 . S
O639 C616 1.264 . S
C640 C633 1.403 . S
C640 C641 1.399 . S
C640 H646 0.929 . S
C641 C621 1.449 . S
C641 C640 1.399 . S
C641 H647 0.930 . S
H642 C622 0.931 . S
H643 C623 0.930 . S
H644 C631 0.931 . S
H645 C632 0.929 . S
H646 C640 0.929 . S
H647 C641 0.930 . S
Mn648 O653 2.095 . S
Mn648 O663 2.162 . S
Mn648 O664 2.297 . S
Mn648 O672 2.385 . S
Mn648 O673 2.209 . S
Mn648 O674 2.094 . S
Mn649 O654 2.121 . S
Mn649 N656 2.257 . S
Mn649 N665 2.282 . S
Mn649 O673 2.215 . S
Mn649 O675 2.117 . S
C650 O672 1.234 . S
C650 O673 1.283 . S
C651 O663 1.281 . S
C651 O664 1.236 . S
C652 O674 1.240 . S
C652 O675 1.264 . S
O653 Mn648 2.095 . S
O653 C662 1.250 . S
O654 Mn649 2.121 . S
O654 C662 1.258 . S
C655 N656 1.326 . S
C655 C659 1.460 . S
C655 H661 0.929 . S
N656 Mn649 2.257 . S
N656 C655 1.326 . S
N656 C660 1.362 . S
C657 C658 1.258 . S
C657 C660 1.431 . S
C657 C677 1.449 . S
C658 C657 1.258 . S
C658 C659 1.477 . S
C658 H678 0.931 . S
C659 C655 1.460 . S
C659 C658 1.477 . S
C659 H679 0.930 . S
C660 N656 1.362 . S
C660 C657 1.431 . S
C660 C670 1.476 . S
H661 C655 0.929 . S
C662 O653 1.250 . S
C662 O654 1.258 . S
O663 Mn648 2.162 . S
O663 C651 1.281 . S
O664 Mn648 2.297 . S
O664 C651 1.236 . S
N665 Mn649 2.282 . S
N665 C666 1.328 . S
N665 C670 1.318 . S
C666 N665 1.328 . S
C666 C667 1.457 . S
C666 H671 0.929 . S
C667 C666 1.457 . S
C667 C668 1.291 . S
C667 H680 0.931 . S
C668 C667 1.291 . S
C668 C669 1.373 . S
C668 H681 0.929 . S
C669 C668 1.373 . S
C669 C670 1.396 . S
C669 C676 1.403 . S
C670 C660 1.476 . S
C670 N665 1.318 . S
C670 C669 1.396 . S
H671 C666 0.929 . S
O672 Mn648 2.385 . S
O672 C650 1.234 . S
O673 Mn648 2.209 . S
O673 Mn649 2.215 . S
O673 C650 1.283 . S
O674 Mn648 2.094 . S
O674 C652 1.240 . S
O675 Mn649 2.117 . S
O675 C652 1.264 . S
C676 C669 1.403 . S
C676 C677 1.399 . S
C676 H682 0.929 . S
C677 C657 1.449 . S
C677 C676 1.399 . S
C677 H683 0.930 . S
H678 C658 0.931 . S
H679 C659 0.930 . S
H680 C667 0.931 . S
H681 C668 0.929 . S
H682 C676 0.929 . S
H683 C677 0.930 . S
Mn684 O689 2.095 . S
Mn684 O699 2.162 . S
Mn684 O700 2.297 . S
Mn684 O708 2.385 . S
Mn684 O709 2.209 . S
Mn684 O710 2.094 . S
Mn685 O690 2.121 . S
Mn685 N692 2.257 . S
Mn685 N701 2.282 . S
Mn685 O709 2.215 . S
Mn685 O711 2.117 . S
C686 O708 1.234 . S
C686 O709 1.283 . S
C687 O699 1.281 . S
C687 O700 1.236 . S
C688 O710 1.240 . S
C688 O711 1.264 . S
O689 Mn684 2.095 . S
O689 C698 1.250 . S
O690 Mn685 2.121 . S
O690 C698 1.258 . S
C691 N692 1.326 . S
C691 C695 1.460 . S
C691 H697 0.929 . S
N692 Mn685 2.257 . S
N692 C691 1.326 . S
N692 C696 1.362 . S
C693 C694 1.258 . S
C693 C696 1.431 . S
C693 C713 1.449 . S
C694 C693 1.258 . S
C694 C695 1.477 . S
C694 H714 0.931 . S
C695 C691 1.460 . S
C695 C694 1.477 . S
C695 H715 0.930 . S
C696 N692 1.362 . S
C696 C693 1.431 . S
C696 C706 1.476 . S
H697 C691 0.929 . S
C698 O689 1.250 . S
C698 O690 1.258 . S
O699 Mn684 2.162 . S
O699 C687 1.281 . S
O700 Mn684 2.297 . S
O700 C687 1.236 . S
N701 Mn685 2.282 . S
N701 C702 1.328 . S
N701 C706 1.318 . S
C702 N701 1.328 . S
C702 C703 1.457 . S
C702 H707 0.929 . S
C703 C702 1.457 . S
C703 C704 1.291 . S
C703 H716 0.931 . S
C704 C703 1.291 . S
C704 C705 1.373 . S
C704 H717 0.929 . S
C705 C704 1.373 . S
C705 C706 1.396 . S
C705 C712 1.403 . S
C706 C696 1.476 . S
C706 N701 1.318 . S
C706 C705 1.396 . S
H707 C702 0.929 . S
O708 Mn684 2.385 . S
O708 C686 1.234 . S
O709 Mn684 2.209 . S
O709 Mn685 2.215 . S
O709 C686 1.283 . S
O710 Mn684 2.094 . S
O710 C688 1.240 . S
O711 Mn685 2.117 . S
O711 C688 1.264 . S
C712 C705 1.403 . S
C712 C713 1.399 . S
C712 H718 0.929 . S
C713 C693 1.449 . S
C713 C712 1.399 . S
C713 H719 0.930 . S
H714 C694 0.931 . S
H715 C695 0.930 . S
H716 C703 0.931 . S
H717 C704 0.929 . S
H718 C712 0.929 . S
H719 C713 0.930 . S
Mn720 O725 2.095 . S
Mn720 O735 2.162 . S
Mn720 O736 2.297 . S
Mn720 O744 2.385 . S
Mn720 O745 2.209 . S
Mn720 O746 2.094 . S
Mn721 O726 2.121 . S
Mn721 N728 2.257 . S
Mn721 N737 2.282 . S
Mn721 O745 2.215 . S
Mn721 O747 2.117 . S
C722 O744 1.234 . S
C722 O745 1.283 . S
C723 O735 1.281 . S
C723 O736 1.236 . S
C724 O746 1.240 . S
C724 O747 1.264 . S
O725 Mn720 2.095 . S
O725 C734 1.250 . S
O726 Mn721 2.121 . S
O726 C734 1.258 . S
C727 N728 1.326 . S
C727 C731 1.460 . S
C727 H733 0.929 . S
N728 Mn721 2.257 . S
N728 C727 1.326 . S
N728 C732 1.362 . S
C729 C730 1.258 . S
C729 C732 1.431 . S
C729 C749 1.449 . S
C730 C729 1.258 . S
C730 C731 1.477 . S
C730 H750 0.931 . S
C731 C727 1.460 . S
C731 C730 1.477 . S
C731 H751 0.930 . S
C732 N728 1.362 . S
C732 C729 1.431 . S
C732 C742 1.476 . S
H733 C727 0.929 . S
C734 O725 1.250 . S
C734 O726 1.258 . S
O735 Mn720 2.162 . S
O735 C723 1.281 . S
O736 Mn720 2.297 . S
O736 C723 1.236 . S
N737 Mn721 2.282 . S
N737 C738 1.328 . S
N737 C742 1.318 . S
C738 N737 1.328 . S
C738 C739 1.457 . S
C738 H743 0.929 . S
C739 C738 1.457 . S
C739 C740 1.291 . S
C739 H752 0.931 . S
C740 C739 1.291 . S
C740 C741 1.373 . S
C740 H753 0.929 . S
C741 C740 1.373 . S
C741 C742 1.396 . S
C741 C748 1.403 . S
C742 C732 1.476 . S
C742 N737 1.318 . S
C742 C741 1.396 . S
H743 C738 0.929 . S
O744 Mn720 2.385 . S
O744 C722 1.234 . S
O745 Mn720 2.209 . S
O745 Mn721 2.215 . S
O745 C722 1.283 . S
O746 Mn720 2.094 . S
O746 C724 1.240 . S
O747 Mn721 2.117 . S
O747 C724 1.264 . S
C748 C741 1.403 . S
C748 C749 1.399 . S
C748 H754 0.929 . S
C749 C729 1.449 . S
C749 C748 1.399 . S
C749 H755 0.930 . S
H750 C730 0.931 . S
H751 C731 0.930 . S
H752 C739 0.931 . S
H753 C740 0.929 . S
H754 C748 0.929 . S
H755 C749 0.930 . S
Mn756 O761 2.095 . S
Mn756 O771 2.162 . S
Mn756 O772 2.297 . S
Mn756 O780 2.385 . S
Mn756 O781 2.209 . S
Mn756 O782 2.094 . S
Mn757 O762 2.121 . S
Mn757 N764 2.257 . S
Mn757 N773 2.282 . S
Mn757 O781 2.215 . S
Mn757 O783 2.117 . S
C758 O780 1.234 . S
C758 O781 1.283 . S
C759 O771 1.281 . S
C759 O772 1.236 . S
C760 O782 1.240 . S
C760 O783 1.264 . S
O761 Mn756 2.095 . S
O761 C770 1.250 . S
O762 Mn757 2.121 . S
O762 C770 1.258 . S
C763 N764 1.326 . S
C763 C767 1.460 . S
C763 H769 0.929 . S
N764 Mn757 2.257 . S
N764 C763 1.326 . S
N764 C768 1.362 . S
C765 C766 1.258 . S
C765 C768 1.431 . S
C765 C785 1.449 . S
C766 C765 1.258 . S
C766 C767 1.477 . S
C766 H786 0.931 . S
C767 C763 1.460 . S
C767 C766 1.477 . S
C767 H787 0.930 . S
C768 N764 1.362 . S
C768 C765 1.431 . S
C768 C778 1.476 . S
H769 C763 0.929 . S
C770 O761 1.250 . S
C770 O762 1.258 . S
O771 Mn756 2.162 . S
O771 C759 1.281 . S
O772 Mn756 2.297 . S
O772 C759 1.236 . S
N773 Mn757 2.282 . S
N773 C774 1.328 . S
N773 C778 1.318 . S
C774 N773 1.328 . S
C774 C775 1.457 . S
C774 H779 0.929 . S
C775 C774 1.457 . S
C775 C776 1.291 . S
C775 H788 0.931 . S
C776 C775 1.291 . S
C776 C777 1.373 . S
C776 H789 0.929 . S
C777 C776 1.373 . S
C777 C778 1.396 . S
C777 C784 1.403 . S
C778 C768 1.476 . S
C778 N773 1.318 . S
C778 C777 1.396 . S
H779 C774 0.929 . S
O780 Mn756 2.385 . S
O780 C758 1.234 . S
O781 Mn756 2.209 . S
O781 Mn757 2.215 . S
O781 C758 1.283 . S
O782 Mn756 2.094 . S
O782 C760 1.240 . S
O783 Mn757 2.117 . S
O783 C760 1.264 . S
C784 C777 1.403 . S
C784 C785 1.399 . S
C784 H790 0.929 . S
C785 C765 1.449 . S
C785 C784 1.399 . S
C785 H791 0.930 . S
H786 C766 0.931 . S
H787 C767 0.930 . S
H788 C775 0.931 . S
H789 C776 0.929 . S
H790 C784 0.929 . S
H791 C785 0.930 . S
Mn792 O797 2.095 . S
Mn792 O807 2.162 . S
Mn792 O808 2.297 . S
Mn792 O816 2.385 . S
Mn792 O817 2.209 . S
Mn792 O818 2.094 . S
Mn793 O798 2.121 . S
Mn793 N800 2.257 . S
Mn793 N809 2.282 . S
Mn793 O817 2.215 . S
Mn793 O819 2.117 . S
C794 O816 1.234 . S
C794 O817 1.283 . S
C795 O807 1.281 . S
C795 O808 1.236 . S
C796 O818 1.240 . S
C796 O819 1.264 . S
O797 Mn792 2.095 . S
O797 C806 1.250 . S
O798 Mn793 2.121 . S
O798 C806 1.258 . S
C799 N800 1.326 . S
C799 C803 1.460 . S
C799 H805 0.929 . S
N800 Mn793 2.257 . S
N800 C799 1.326 . S
N800 C804 1.362 . S
C801 C802 1.258 . S
C801 C804 1.431 . S
C801 C821 1.449 . S
C802 C801 1.258 . S
C802 C803 1.477 . S
C802 H822 0.931 . S
C803 C799 1.460 . S
C803 C802 1.477 . S
C803 H823 0.930 . S
C804 N800 1.362 . S
C804 C801 1.431 . S
C804 C814 1.476 . S
H805 C799 0.929 . S
C806 O797 1.250 . S
C806 O798 1.258 . S
O807 Mn792 2.162 . S
O807 C795 1.281 . S
O808 Mn792 2.297 . S
O808 C795 1.236 . S
N809 Mn793 2.282 . S
N809 C810 1.328 . S
N809 C814 1.318 . S
C810 N809 1.328 . S
C810 C811 1.457 . S
C810 H815 0.929 . S
C811 C810 1.457 . S
C811 C812 1.291 . S
C811 H824 0.931 . S
C812 C811 1.291 . S
C812 C813 1.373 . S
C812 H825 0.929 . S
C813 C812 1.373 . S
C813 C814 1.396 . S
C813 C820 1.403 . S
C814 C804 1.476 . S
C814 N809 1.318 . S
C814 C813 1.396 . S
H815 C810 0.929 . S
O816 Mn792 2.385 . S
O816 C794 1.234 . S
O817 Mn792 2.209 . S
O817 Mn793 2.215 . S
O817 C794 1.283 . S
O818 Mn792 2.094 . S
O818 C796 1.240 . S
O819 Mn793 2.117 . S
O819 C796 1.264 . S
C820 C813 1.403 . S
C820 C821 1.399 . S
C820 H826 0.929 . S
C821 C801 1.449 . S
C821 C820 1.399 . S
C821 H827 0.930 . S
H822 C802 0.931 . S
H823 C803 0.930 . S
H824 C811 0.931 . S
H825 C812 0.929 . S
H826 C820 0.929 . S
H827 C821 0.930 . S
Mn828 O833 2.095 . S
Mn828 O843 2.162 . S
Mn828 O844 2.297 . S
Mn828 O852 2.385 . S
Mn828 O853 2.209 . S
Mn828 O854 2.094 . S
Mn829 O834 2.121 . S
Mn829 N836 2.257 . S
Mn829 N845 2.282 . S
Mn829 O853 2.215 . S
Mn829 O855 2.117 . S
C830 O852 1.234 . S
C830 O853 1.283 . S
C831 O843 1.281 . S
C831 O844 1.236 . S
C832 O854 1.240 . S
C832 O855 1.264 . S
O833 Mn828 2.095 . S
O833 C842 1.250 . S
O834 Mn829 2.121 . S
O834 C842 1.258 . S
C835 N836 1.326 . S
C835 C839 1.460 . S
C835 H841 0.929 . S
N836 Mn829 2.257 . S
N836 C835 1.326 . S
N836 C840 1.362 . S
C837 C838 1.258 . S
C837 C840 1.431 . S
C837 C857 1.449 . S
C838 C837 1.258 . S
C838 C839 1.477 . S
C838 H858 0.931 . S
C839 C835 1.460 . S
C839 C838 1.477 . S
C839 H859 0.930 . S
C840 N836 1.362 . S
C840 C837 1.431 . S
C840 C850 1.476 . S
H841 C835 0.929 . S
C842 O833 1.250 . S
C842 O834 1.258 . S
O843 Mn828 2.162 . S
O843 C831 1.281 . S
O844 Mn828 2.297 . S
O844 C831 1.236 . S
N845 Mn829 2.282 . S
N845 C846 1.328 . S
N845 C850 1.318 . S
C846 N845 1.328 . S
C846 C847 1.457 . S
C846 H851 0.929 . S
C847 C846 1.457 . S
C847 C848 1.291 . S
C847 H860 0.931 . S
C848 C847 1.291 . S
C848 C849 1.373 . S
C848 H861 0.929 . S
C849 C848 1.373 . S
C849 C850 1.396 . S
C849 C856 1.403 . S
C850 C840 1.476 . S
C850 N845 1.318 . S
C850 C849 1.396 . S
H851 C846 0.929 . S
O852 Mn828 2.385 . S
O852 C830 1.234 . S
O853 Mn828 2.209 . S
O853 Mn829 2.215 . S
O853 C830 1.283 . S
O854 Mn828 2.094 . S
O854 C832 1.240 . S
O855 Mn829 2.117 . S
O855 C832 1.264 . S
C856 C849 1.403 . S
C856 C857 1.399 . S
C856 H862 0.929 . S
C857 C837 1.449 . S
C857 C856 1.399 . S
C857 H863 0.930 . S
H858 C838 0.931 . S
H859 C839 0.930 . S
H860 C847 0.931 . S
H861 C848 0.929 . S
H862 C856 0.929 . S
H863 C857 0.930 . S
C864 C865 1.349 . S
C864 C866 1.327 . S
C864 H889 0.950 . S
C865 C864 1.349 . S
C865 C881 1.349 . S
C866 C864 1.327 . S
C866 C885 1.429 . S
C866 H890 0.950 . S
C867 C884 1.574 1_545 S
C867 C886 1.368 . S
C867 H891 0.949 . S
H868 C872 0.949 . S
C869 C870 1.349 . S
C869 C871 1.327 . S
C869 H892 0.950 . S
C870 C869 1.349 . S
C870 C882 1.349 . S
C871 C869 1.327 . S
C871 C887 1.429 . S
C871 H893 0.950 . S
C872 H868 0.949 . S
C872 C880 1.574 1_565 S
C872 C888 1.368 . S
H873 C881 0.950 . S
H874 C879 0.950 . S
H875 C880 0.949 . S
H876 C882 0.950 . S
H877 C883 0.950 . S
H878 C884 0.949 . S
C879 H874 0.950 . S
C879 C881 1.327 . S
C879 C885 1.429 . S
C880 C872 1.574 1_545 S
C880 H875 0.949 . S
C880 C886 1.368 . S
C881 C865 1.349 . S
C881 H873 0.950 . S
C881 C879 1.327 . S
C882 C870 1.349 . S
C882 H876 0.950 . S
C882 C883 1.327 . S
C883 H877 0.950 . S
C883 C882 1.327 . S
C883 C887 1.429 . S
C884 C867 1.574 1_565 S
C884 H878 0.949 . S
C884 C888 1.368 . S
C885 C866 1.429 . S
C885 C879 1.429 . S
C885 C886 1.523 . S
C886 C867 1.368 . S
C886 C880 1.368 . S
C886 C885 1.523 . S
C887 C871 1.429 . S
C887 C883 1.429 . S
C887 C888 1.523 . S
C888 C872 1.368 . S
C888 C884 1.368 . S
C888 C887 1.523 . S
H889 C864 0.950 . S
H890 C866 0.950 . S
H891 C867 0.949 . S
H892 C869 0.950 . S
H893 C871 0.950 . S
C894 C895 1.349 . S
C894 C896 1.327 . S
C894 H919 0.950 . S
C895 C894 1.349 . S
C895 C911 1.349 . S
C896 C894 1.327 . S
C896 C915 1.429 . S
C896 H920 0.950 . S
C897 C914 1.574 . S
C897 C916 1.368 . S
C897 H921 0.949 . S
H898 C902 0.949 . S
C899 C900 1.349 . S
C899 C901 1.327 . S
C899 H922 0.950 . S
C900 C899 1.349 . S
C900 C912 1.349 . S
C901 C899 1.327 . S
C901 C917 1.429 . S
C901 H923 0.950 . S
C902 H898 0.949 . S
C902 C910 1.574 . S
C902 C918 1.368 . S
H903 C911 0.950 . S
H904 C909 0.950 . S
H905 C910 0.949 . S
H906 C912 0.950 . S
H907 C913 0.950 . S
H908 C914 0.949 . S
C909 H904 0.950 . S
C909 C911 1.327 . S
C909 C915 1.429 . S
C910 C902 1.574 . S
C910 H905 0.949 . S
C910 C916 1.368 . S
C911 C895 1.349 . S
C911 H903 0.950 . S
C911 C909 1.327 . S
C912 C900 1.349 . S
C912 H906 0.950 . S
C912 C913 1.327 . S
C913 H907 0.950 . S
C913 C912 1.327 . S
C913 C917 1.429 . S
C914 C897 1.574 . S
C914 H908 0.949 . S
C914 C918 1.368 . S
C915 C896 1.429 . S
C915 C909 1.429 . S
C915 C916 1.523 . S
C916 C897 1.368 . S
C916 C910 1.368 . S
C916 C915 1.523 . S
C917 C901 1.429 . S
C917 C913 1.429 . S
C917 C918 1.523 . S
C918 C902 1.368 . S
C918 C914 1.368 . S
C918 C917 1.523 . S
H919 C894 0.950 . S
H920 C896 0.950 . S
H921 C897 0.949 . S
H922 C899 0.950 . S
H923 C901 0.950 . S
C924 C925 1.349 . S
C924 C926 1.327 . S
C924 H949 0.950 . S
C925 C924 1.349 . S
C925 C941 1.349 . S
C926 C924 1.327 . S
C926 C945 1.429 . S
C926 H950 0.950 . S
C927 C944 1.574 1_655 S
C927 C946 1.368 . S
C927 H951 0.949 . S
H928 C932 0.949 . S
C929 C930 1.349 . S
C929 C931 1.327 . S
C929 H952 0.950 . S
C930 C929 1.349 . S
C930 C942 1.349 . S
C931 C929 1.327 . S
C931 C947 1.429 . S
C931 H953 0.950 . S
C932 H928 0.949 . S
C932 C940 1.574 1_455 S
C932 C948 1.368 . S
H933 C941 0.950 . S
H934 C939 0.950 . S
H935 C940 0.949 . S
H936 C942 0.950 . S
H937 C943 0.950 . S
H938 C944 0.949 . S
C939 H934 0.950 . S
C939 C941 1.327 . S
C939 C945 1.429 . S
C940 C932 1.574 1_655 S
C940 H935 0.949 . S
C940 C946 1.368 . S
C941 C925 1.349 . S
C941 H933 0.950 . S
C941 C939 1.327 . S
C942 C930 1.349 . S
C942 H936 0.950 . S
C942 C943 1.327 . S
C943 H937 0.950 . S
C943 C942 1.327 . S
C943 C947 1.429 . S
C944 C927 1.574 1_455 S
C944 H938 0.949 . S
C944 C948 1.368 . S
C945 C926 1.429 . S
C945 C939 1.429 . S
C945 C946 1.523 . S
C946 C927 1.368 . S
C946 C940 1.368 . S
C946 C945 1.523 . S
C947 C931 1.429 . S
C947 C943 1.429 . S
C947 C948 1.523 . S
C948 C932 1.368 . S
C948 C944 1.368 . S
C948 C947 1.523 . S
H949 C924 0.950 . S
H950 C926 0.950 . S
H951 C927 0.949 . S
H952 C929 0.950 . S
H953 C931 0.950 . S
C954 C955 1.349 . S
C954 C956 1.327 . S
C954 H979 0.950 . S
C955 C954 1.349 . S
C955 C971 1.349 . S
C956 C954 1.327 . S
C956 C975 1.429 . S
C956 H980 0.950 . S
C957 C974 1.574 1_565 S
C957 C976 1.368 . S
C957 H981 0.949 . S
H958 C962 0.949 . S
C959 C960 1.349 . S
C959 C961 1.327 . S
C959 H982 0.950 . S
C960 C959 1.349 . S
C960 C972 1.349 . S
C961 C959 1.327 . S
C961 C977 1.429 . S
C961 H983 0.950 . S
C962 H958 0.949 . S
C962 C970 1.574 1_545 S
C962 C978 1.368 . S
H963 C971 0.950 . S
H964 C969 0.950 . S
H965 C970 0.949 . S
H966 C972 0.950 . S
H967 C973 0.950 . S
H968 C974 0.949 . S
C969 H964 0.950 . S
C969 C971 1.327 . S
C969 C975 1.429 . S
C970 C962 1.574 1_565 S
C970 H965 0.949 . S
C970 C976 1.368 . S
C971 C955 1.349 . S
C971 H963 0.950 . S
C971 C969 1.327 . S
C972 C960 1.349 . S
C972 H966 0.950 . S
C972 C973 1.327 . S
C973 H967 0.950 . S
C973 C972 1.327 . S
C973 C977 1.429 . S
C974 C957 1.574 1_545 S
C974 H968 0.949 . S
C974 C978 1.368 . S
C975 C956 1.429 . S
C975 C969 1.429 . S
C975 C976 1.523 . S
C976 C957 1.368 . S
C976 C970 1.368 . S
C976 C975 1.523 . S
C977 C961 1.429 . S
C977 C973 1.429 . S
C977 C978 1.523 . S
C978 C962 1.368 . S
C978 C974 1.368 . S
C978 C977 1.523 . S
H979 C954 0.950 . S
H980 C956 0.950 . S
H981 C957 0.949 . S
H982 C959 0.950 . S
H983 C961 0.950 . S
C984 C985 1.349 . S
C984 C986 1.327 . S
C984 H1009 0.950 . S
C985 C984 1.349 . S
C985 C1001 1.349 . S
C986 C984 1.327 . S
C986 C1005 1.429 . S
C986 H1010 0.950 . S
C987 C1004 1.574 . S
C987 C1006 1.368 . S
C987 H1011 0.949 . S
H988 C992 0.949 . S
C989 C990 1.349 . S
C989 C991 1.327 . S
C989 H1012 0.950 . S
C990 C989 1.349 . S
C990 C1002 1.349 . S
C991 C989 1.327 . S
C991 C1007 1.429 . S
C991 H1013 0.950 . S
C992 H988 0.949 . S
C992 C1000 1.574 . S
C992 C1008 1.368 . S
H993 C1001 0.950 . S
H994 C999 0.950 . S
H995 C1000 0.949 . S
H996 C1002 0.950 . S
H997 C1003 0.950 . S
H998 C1004 0.949 . S
C999 H994 0.950 . S
C999 C1001 1.327 . S
C999 C1005 1.429 . S
C1000 C992 1.574 . S
C1000 H995 0.949 . S
C1000 C1006 1.368 . S
C1001 C985 1.349 . S
C1001 H993 0.950 . S
C1001 C999 1.327 . S
C1002 C990 1.349 . S
C1002 H996 0.950 . S
C1002 C1003 1.327 . S
C1003 H997 0.950 . S
C1003 C1002 1.327 . S
C1003 C1007 1.429 . S
C1004 C987 1.574 . S
C1004 H998 0.949 . S
C1004 C1008 1.368 . S
C1005 C986 1.429 . S
C1005 C999 1.429 . S
C1005 C1006 1.523 . S
C1006 C987 1.368 . S
C1006 C1000 1.368 . S
C1006 C1005 1.523 . S
C1007 C991 1.429 . S
C1007 C1003 1.429 . S
C1007 C1008 1.523 . S
C1008 C992 1.368 . S
C1008 C1004 1.368 . S
C1008 C1007 1.523 . S
H1009 C984 0.950 . S
H1010 C986 0.950 . S
H1011 C987 0.949 . S
H1012 C989 0.950 . S
H1013 C991 0.950 . S
C1014 C1015 1.349 . S
C1014 C1016 1.327 . S
C1014 H1039 0.950 . S
C1015 C1014 1.349 . S
C1015 C1031 1.349 . S
C1016 C1014 1.327 . S
C1016 C1035 1.429 . S
C1016 H1040 0.950 . S
C1017 C1034 1.574 1_455 S
C1017 C1036 1.368 . S
C1017 H1041 0.949 . S
H1018 C1022 0.949 . S
C1019 C1020 1.349 . S
C1019 C1021 1.327 . S
C1019 H1042 0.950 . S
C1020 C1019 1.349 . S
C1020 C1032 1.349 . S
C1021 C1019 1.327 . S
C1021 C1037 1.429 . S
C1021 H1043 0.950 . S
C1022 H1018 0.949 . S
C1022 C1030 1.574 1_655 S
C1022 C1038 1.368 . S
H1023 C1031 0.950 . S
H1024 C1029 0.950 . S
H1025 C1030 0.949 . S
H1026 C1032 0.950 . S
H1027 C1033 0.950 . S
H1028 C1034 0.949 . S
C1029 H1024 0.950 . S
C1029 C1031 1.327 . S
C1029 C1035 1.429 . S
C1030 C1022 1.574 1_455 S
C1030 H1025 0.949 . S
C1030 C1036 1.368 . S
C1031 C1015 1.349 . S
C1031 H1023 0.950 . S
C1031 C1029 1.327 . S
C1032 C1020 1.349 . S
C1032 H1026 0.950 . S
C1032 C1033 1.327 . S
C1033 H1027 0.950 . S
C1033 C1032 1.327 . S
C1033 C1037 1.429 . S
C1034 C1017 1.574 1_655 S
C1034 H1028 0.949 . S
C1034 C1038 1.368 . S
C1035 C1016 1.429 . S
C1035 C1029 1.429 . S
C1035 C1036 1.523 . S
C1036 C1017 1.368 . S
C1036 C1030 1.368 . S
C1036 C1035 1.523 . S
C1037 C1021 1.429 . S
C1037 C1033 1.429 . S
C1037 C1038 1.523 . S
C1038 C1022 1.368 . S
C1038 C1034 1.368 . S
C1038 C1037 1.523 . S
H1039 C1014 0.950 . S
H1040 C1016 0.950 . S
H1041 C1017 0.949 . S
H1042 C1019 0.950 . S
H1043 C1021 0.950 . S
C1044 C1045 1.349 . S
C1044 C1046 1.327 . S
C1044 H1069 0.950 . S
C1045 C1044 1.349 . S
C1045 C1061 1.349 . S
C1046 C1044 1.327 . S
C1046 C1065 1.429 . S
C1046 H1070 0.950 . S
C1047 C1064 1.574 1_565 S
C1047 C1066 1.368 . S
C1047 H1071 0.949 . S
H1048 C1052 0.949 . S
C1049 C1050 1.349 . S
C1049 C1051 1.327 . S
C1049 H1072 0.950 . S
C1050 C1049 1.349 . S
C1050 C1062 1.349 . S
C1051 C1049 1.327 . S
C1051 C1067 1.429 . S
C1051 H1073 0.950 . S
C1052 H1048 0.949 . S
C1052 C1060 1.574 1_545 S
C1052 C1068 1.368 . S
H1053 C1061 0.950 . S
H1054 C1059 0.950 . S
H1055 C1060 0.949 . S
H1056 C1062 0.950 . S
H1057 C1063 0.950 . S
H1058 C1064 0.949 . S
C1059 H1054 0.950 . S
C1059 C1061 1.327 . S
C1059 C1065 1.429 . S
C1060 C1052 1.574 1_565 S
C1060 H1055 0.949 . S
C1060 C1066 1.368 . S
C1061 C1045 1.349 . S
C1061 H1053 0.950 . S
C1061 C1059 1.327 . S
C1062 C1050 1.349 . S
C1062 H1056 0.950 . S
C1062 C1063 1.327 . S
C1063 H1057 0.950 . S
C1063 C1062 1.327 . S
C1063 C1067 1.429 . S
C1064 C1047 1.574 1_545 S
C1064 H1058 0.949 . S
C1064 C1068 1.368 . S
C1065 C1046 1.429 . S
C1065 C1059 1.429 . S
C1065 C1066 1.523 . S
C1066 C1047 1.368 . S
C1066 C1060 1.368 . S
C1066 C1065 1.523 . S
C1067 C1051 1.429 . S
C1067 C1063 1.429 . S
C1067 C1068 1.523 . S
C1068 C1052 1.368 . S
C1068 C1064 1.368 . S
C1068 C1067 1.523 . S
H1069 C1044 0.950 . S
H1070 C1046 0.950 . S
H1071 C1047 0.949 . S
H1072 C1049 0.950 . S
H1073 C1051 0.950 . S
C1074 C1075 1.349 . S
C1074 C1076 1.327 . S
C1074 H1099 0.950 . S
C1075 C1074 1.349 . S
C1075 C1091 1.349 . S
C1076 C1074 1.327 . S
C1076 C1095 1.429 . S
C1076 H1100 0.950 . S
C1077 C1094 1.574 . S
C1077 C1096 1.368 . S
C1077 H1101 0.949 . S
H1078 C1082 0.949 . S
C1079 C1080 1.349 . S
C1079 C1081 1.327 . S
C1079 H1102 0.950 . S
C1080 C1079 1.349 . S
C1080 C1092 1.349 . S
C1081 C1079 1.327 . S
C1081 C1097 1.429 . S
C1081 H1103 0.950 . S
C1082 H1078 0.949 . S
C1082 C1090 1.574 . S
C1082 C1098 1.368 . S
H1083 C1091 0.950 . S
H1084 C1089 0.950 . S
H1085 C1090 0.949 . S
H1086 C1092 0.950 . S
H1087 C1093 0.950 . S
H1088 C1094 0.949 . S
C1089 H1084 0.950 . S
C1089 C1091 1.327 . S
C1089 C1095 1.429 . S
C1090 C1082 1.574 . S
C1090 H1085 0.949 . S
C1090 C1096 1.368 . S
C1091 C1075 1.349 . S
C1091 H1083 0.950 . S
C1091 C1089 1.327 . S
C1092 C1080 1.349 . S
C1092 H1086 0.950 . S
C1092 C1093 1.327 . S
C1093 H1087 0.950 . S
C1093 C1092 1.327 . S
C1093 C1097 1.429 . S
C1094 C1077 1.574 . S
C1094 H1088 0.949 . S
C1094 C1098 1.368 . S
C1095 C1076 1.429 . S
C1095 C1089 1.429 . S
C1095 C1096 1.523 . S
C1096 C1077 1.368 . S
C1096 C1090 1.368 . S
C1096 C1095 1.523 . S
C1097 C1081 1.429 . S
C1097 C1093 1.429 . S
C1097 C1098 1.523 . S
C1098 C1082 1.368 . S
C1098 C1094 1.368 . S
C1098 C1097 1.523 . S
H1099 C1074 0.950 . S
H1100 C1076 0.950 . S
H1101 C1077 0.949 . S
H1102 C1079 0.950 . S
H1103 C1081 0.950 . S
C1104 C1105 1.349 . S
C1104 C1106 1.327 . S
C1104 H1129 0.950 . S
C1105 C1104 1.349 . S
C1105 C1121 1.349 . S
C1106 C1104 1.327 . S
C1106 C1125 1.429 . S
C1106 H1130 0.950 . S
C1107 C1124 1.574 1_655 S
C1107 C1126 1.368 . S
C1107 H1131 0.949 . S
H1108 C1112 0.949 . S
C1109 C1110 1.349 . S
C1109 C1111 1.327 . S
C1109 H1132 0.950 . S
C1110 C1109 1.349 . S
C1110 C1122 1.349 . S
C1111 C1109 1.327 . S
C1111 C1127 1.429 . S
C1111 H1133 0.950 . S
C1112 H1108 0.949 . S
C1112 C1120 1.574 1_455 S
C1112 C1128 1.368 . S
H1113 C1121 0.950 . S
H1114 C1119 0.950 . S
H1115 C1120 0.949 . S
H1116 C1122 0.950 . S
H1117 C1123 0.950 . S
H1118 C1124 0.949 . S
C1119 H1114 0.950 . S
C1119 C1121 1.327 . S
C1119 C1125 1.429 . S
C1120 C1112 1.574 1_655 S
C1120 H1115 0.949 . S
C1120 C1126 1.368 . S
C1121 C1105 1.349 . S
C1121 H1113 0.950 . S
C1121 C1119 1.327 . S
C1122 C1110 1.349 . S
C1122 H1116 0.950 . S
C1122 C1123 1.327 . S
C1123 H1117 0.950 . S
C1123 C1122 1.327 . S
C1123 C1127 1.429 . S
C1124 C1107 1.574 1_455 S
C1124 H1118 0.949 . S
C1124 C1128 1.368 . S
C1125 C1106 1.429 . S
C1125 C1119 1.429 . S
C1125 C1126 1.523 . S
C1126 C1107 1.368 . S
C1126 C1120 1.368 . S
C1126 C1125 1.523 . S
C1127 C1111 1.429 . S
C1127 C1123 1.429 . S
C1127 C1128 1.523 . S
C1128 C1112 1.368 . S
C1128 C1124 1.368 . S
C1128 C1127 1.523 . S
H1129 C1104 0.950 . S
H1130 C1106 0.950 . S
H1131 C1107 0.949 . S
H1132 C1109 0.950 . S
H1133 C1111 0.950 . S
C1134 C1135 1.349 . S
C1134 C1136 1.327 . S
C1134 H1159 0.950 . S
C1135 C1134 1.349 . S
C1135 C1151 1.349 . S
C1136 C1134 1.327 . S
C1136 C1155 1.429 . S
C1136 H1160 0.950 . S
C1137 C1154 1.574 1_545 S
C1137 C1156 1.368 . S
C1137 H1161 0.949 . S
H1138 C1142 0.949 . S
C1139 C1140 1.349 . S
C1139 C1141 1.327 . S
C1139 H1162 0.950 . S
C1140 C1139 1.349 . S
C1140 C1152 1.349 . S
C1141 C1139 1.327 . S
C1141 C1157 1.429 . S
C1141 H1163 0.950 . S
C1142 H1138 0.949 . S
C1142 C1150 1.574 1_565 S
C1142 C1158 1.368 . S
H1143 C1151 0.950 . S
H1144 C1149 0.950 . S
H1145 C1150 0.949 . S
H1146 C1152 0.950 . S
H1147 C1153 0.950 . S
H1148 C1154 0.949 . S
C1149 H1144 0.950 . S
C1149 C1151 1.327 . S
C1149 C1155 1.429 . S
C1150 C1142 1.574 1_545 S
C1150 H1145 0.949 . S
C1150 C1156 1.368 . S
C1151 C1135 1.349 . S
C1151 H1143 0.950 . S
C1151 C1149 1.327 . S
C1152 C1140 1.349 . S
C1152 H1146 0.950 . S
C1152 C1153 1.327 . S
C1153 H1147 0.950 . S
C1153 C1152 1.327 . S
C1153 C1157 1.429 . S
C1154 C1137 1.574 1_565 S
C1154 H1148 0.949 . S
C1154 C1158 1.368 . S
C1155 C1136 1.429 . S
C1155 C1149 1.429 . S
C1155 C1156 1.523 . S
C1156 C1137 1.368 . S
C1156 C1150 1.368 . S
C1156 C1155 1.523 . S
C1157 C1141 1.429 . S
C1157 C1153 1.429 . S
C1157 C1158 1.523 . S
C1158 C1142 1.368 . S
C1158 C1154 1.368 . S
C1158 C1157 1.523 . S
H1159 C1134 0.950 . S
H1160 C1136 0.950 . S
H1161 C1137 0.949 . S
H1162 C1139 0.950 . S
H1163 C1141 0.950 . S
C1164 C1165 1.349 . S
C1164 C1166 1.327 . S
C1164 H1189 0.950 . S
C1165 C1164 1.349 . S
C1165 C1181 1.349 . S
C1166 C1164 1.327 . S
C1166 C1185 1.429 . S
C1166 H1190 0.950 . S
C1167 C1184 1.574 . S
C1167 C1186 1.368 . S
C1167 H1191 0.949 . S
H1168 C1172 0.949 . S
C1169 C1170 1.349 . S
C1169 C1171 1.327 . S
C1169 H1192 0.950 . S
C1170 C1169 1.349 . S
C1170 C1182 1.349 . S
C1171 C1169 1.327 . S
C1171 C1187 1.429 . S
C1171 H1193 0.950 . S
C1172 H1168 0.949 . S
C1172 C1180 1.574 . S
C1172 C1188 1.368 . S
H1173 C1181 0.950 . S
H1174 C1179 0.950 . S
H1175 C1180 0.949 . S
H1176 C1182 0.950 . S
H1177 C1183 0.950 . S
H1178 C1184 0.949 . S
C1179 H1174 0.950 . S
C1179 C1181 1.327 . S
C1179 C1185 1.429 . S
C1180 C1172 1.574 . S
C1180 H1175 0.949 . S
C1180 C1186 1.368 . S
C1181 C1165 1.349 . S
C1181 H1173 0.950 . S
C1181 C1179 1.327 . S
C1182 C1170 1.349 . S
C1182 H1176 0.950 . S
C1182 C1183 1.327 . S
C1183 H1177 0.950 . S
C1183 C1182 1.327 . S
C1183 C1187 1.429 . S
C1184 C1167 1.574 . S
C1184 H1178 0.949 . S
C1184 C1188 1.368 . S
C1185 C1166 1.429 . S
C1185 C1179 1.429 . S
C1185 C1186 1.523 . S
C1186 C1167 1.368 . S
C1186 C1180 1.368 . S
C1186 C1185 1.523 . S
C1187 C1171 1.429 . S
C1187 C1183 1.429 . S
C1187 C1188 1.523 . S
C1188 C1172 1.368 . S
C1188 C1184 1.368 . S
C1188 C1187 1.523 . S
H1189 C1164 0.950 . S
H1190 C1166 0.950 . S
H1191 C1167 0.949 . S
H1192 C1169 0.950 . S
H1193 C1171 0.950 . S
C1194 C1195 1.349 . S
C1194 C1196 1.327 . S
C1194 H1219 0.950 . S
C1195 C1194 1.349 . S
C1195 C1211 1.349 . S
C1196 C1194 1.327 . S
C1196 C1215 1.429 . S
C1196 H1220 0.950 . S
C1197 C1214 1.574 1_455 S
C1197 C1216 1.368 . S
C1197 H1221 0.949 . S
H1198 C1202 0.949 . S
C1199 C1200 1.349 . S
C1199 C1201 1.327 . S
C1199 H1222 0.950 . S
C1200 C1199 1.349 . S
C1200 C1212 1.349 . S
C1201 C1199 1.327 . S
C1201 C1217 1.429 . S
C1201 H1223 0.950 . S
C1202 H1198 0.949 . S
C1202 C1210 1.574 1_655 S
C1202 C1218 1.368 . S
H1203 C1211 0.950 . S
H1204 C1209 0.950 . S
H1205 C1210 0.949 . S
H1206 C1212 0.950 . S
H1207 C1213 0.950 . S
H1208 C1214 0.949 . S
C1209 H1204 0.950 . S
C1209 C1211 1.327 . S
C1209 C1215 1.429 . S
C1210 C1202 1.574 1_455 S
C1210 H1205 0.949 . S
C1210 C1216 1.368 . S
C1211 C1195 1.349 . S
C1211 H1203 0.950 . S
C1211 C1209 1.327 . S
C1212 C1200 1.349 . S
C1212 H1206 0.950 . S
C1212 C1213 1.327 . S
C1213 H1207 0.950 . S
C1213 C1212 1.327 . S
C1213 C1217 1.429 . S
C1214 C1197 1.574 1_655 S
C1214 H1208 0.949 . S
C1214 C1218 1.368 . S
C1215 C1196 1.429 . S
C1215 C1209 1.429 . S
C1215 C1216 1.523 . S
C1216 C1197 1.368 . S
C1216 C1210 1.368 . S
C1216 C1215 1.523 . S
C1217 C1201 1.429 . S
C1217 C1213 1.429 . S
C1217 C1218 1.523 . S
C1218 C1202 1.368 . S
C1218 C1214 1.368 . S
C1218 C1217 1.523 . S
H1219 C1194 0.950 . S
H1220 C1196 0.950 . S
H1221 C1197 0.949 . S
H1222 C1199 0.950 . S
H1223 C1201 0.950 . S
C1224 C1225 1.349 . S
C1224 C1226 1.327 . S
C1224 H1249 0.950 . S
C1225 C1224 1.349 . S
C1225 C1241 1.349 . S
C1226 C1224 1.327 . S
C1226 C1245 1.429 . S
C1226 H1250 0.950 . S
C1227 C1244 1.574 . S
C1227 C1246 1.368 . S
C1227 H1251 0.949 . S
H1228 C1232 0.949 . S
C1229 C1230 1.349 . S
C1229 C1231 1.327 . S
C1229 H1252 0.950 . S
C1230 C1229 1.349 . S
C1230 C1242 1.349 . S
C1231 C1229 1.327 . S
C1231 C1247 1.429 . S
C1231 H1253 0.950 . S
C1232 H1228 0.949 . S
C1232 C1240 1.574 . S
C1232 C1248 1.368 . S
H1233 C1241 0.950 . S
H1234 C1239 0.950 . S
H1235 C1240 0.949 . S
H1236 C1242 0.950 . S
H1237 C1243 0.950 . S
H1238 C1244 0.949 . S
C1239 H1234 0.950 . S
C1239 C1241 1.327 . S
C1239 C1245 1.429 . S
C1240 C1232 1.574 . S
C1240 H1235 0.949 . S
C1240 C1246 1.368 . S
C1241 C1225 1.349 . S
C1241 H1233 0.950 . S
C1241 C1239 1.327 . S
C1242 C1230 1.349 . S
C1242 H1236 0.950 . S
C1242 C1243 1.327 . S
C1243 H1237 0.950 . S
C1243 C1242 1.327 . S
C1243 C1247 1.429 . S
C1244 C1227 1.574 . S
C1244 H1238 0.949 . S
C1244 C1248 1.368 . S
C1245 C1226 1.429 . S
C1245 C1239 1.429 . S
C1245 C1246 1.523 . S
C1246 C1227 1.368 . S
C1246 C1240 1.368 . S
C1246 C1245 1.523 . S
C1247 C1231 1.429 . S
C1247 C1243 1.429 . S
C1247 C1248 1.523 . S
C1248 C1232 1.368 . S
C1248 C1244 1.368 . S
C1248 C1247 1.523 . S
H1249 C1224 0.950 . S
H1250 C1226 0.950 . S
H1251 C1227 0.949 . S
H1252 C1229 0.950 . S
H1253 C1231 0.950 . S
C1254 C1255 1.349 . S
C1254 C1256 1.327 . S
C1254 H1279 0.950 . S
C1255 C1254 1.349 . S
C1255 C1271 1.349 . S
C1256 C1254 1.327 . S
C1256 C1275 1.429 . S
C1256 H1280 0.950 . S
C1257 C1274 1.574 . S
C1257 C1276 1.368 . S
C1257 H1281 0.949 . S
H1258 C1262 0.949 . S
C1259 C1260 1.349 . S
C1259 C1261 1.327 . S
C1259 H1282 0.950 . S
C1260 C1259 1.349 . S
C1260 C1272 1.349 . S
C1261 C1259 1.327 . S
C1261 C1277 1.429 . S
C1261 H1283 0.950 . S
C1262 H1258 0.949 . S
C1262 C1270 1.574 . S
C1262 C1278 1.368 . S
H1263 C1271 0.950 . S
H1264 C1269 0.950 . S
H1265 C1270 0.949 . S
H1266 C1272 0.950 . S
H1267 C1273 0.950 . S
H1268 C1274 0.949 . S
C1269 H1264 0.950 . S
C1269 C1271 1.327 . S
C1269 C1275 1.429 . S
C1270 C1262 1.574 . S
C1270 H1265 0.949 . S
C1270 C1276 1.368 . S
C1271 C1255 1.349 . S
C1271 H1263 0.950 . S
C1271 C1269 1.327 . S
C1272 C1260 1.349 . S
C1272 H1266 0.950 . S
C1272 C1273 1.327 . S
C1273 H1267 0.950 . S
C1273 C1272 1.327 . S
C1273 C1277 1.429 . S
C1274 C1257 1.574 . S
C1274 H1268 0.949 . S
C1274 C1278 1.368 . S
C1275 C1256 1.429 . S
C1275 C1269 1.429 . S
C1275 C1276 1.523 . S
C1276 C1257 1.368 . S
C1276 C1270 1.368 . S
C1276 C1275 1.523 . S
C1277 C1261 1.429 . S
C1277 C1273 1.429 . S
C1277 C1278 1.523 . S
C1278 C1262 1.368 . S
C1278 C1274 1.368 . S
C1278 C1277 1.523 . S
H1279 C1254 0.950 . S
H1280 C1256 0.950 . S
H1281 C1257 0.949 . S
H1282 C1259 0.950 . S
H1283 C1261 0.950 . S
C1284 C1285 1.349 . S
C1284 C1286 1.327 . S
C1284 H1309 0.950 . S
C1285 C1284 1.349 . S
C1285 C1301 1.349 . S
C1286 C1284 1.327 . S
C1286 C1305 1.429 . S
C1286 H1310 0.950 . S
C1287 C1304 1.574 . S
C1287 C1306 1.368 . S
C1287 H1311 0.949 . S
H1288 C1292 0.949 . S
C1289 C1290 1.349 . S
C1289 C1291 1.327 . S
C1289 H1312 0.950 . S
C1290 C1289 1.349 . S
C1290 C1302 1.349 . S
C1291 C1289 1.327 . S
C1291 C1307 1.429 . S
C1291 H1313 0.950 . S
C1292 H1288 0.949 . S
C1292 C1300 1.574 . S
C1292 C1308 1.368 . S
H1293 C1301 0.950 . S
H1294 C1299 0.950 . S
H1295 C1300 0.949 . S
H1296 C1302 0.950 . S
H1297 C1303 0.950 . S
H1298 C1304 0.949 . S
C1299 H1294 0.950 . S
C1299 C1301 1.327 . S
C1299 C1305 1.429 . S
C1300 C1292 1.574 . S
C1300 H1295 0.949 . S
C1300 C1306 1.368 . S
C1301 C1285 1.349 . S
C1301 H1293 0.950 . S
C1301 C1299 1.327 . S
C1302 C1290 1.349 . S
C1302 H1296 0.950 . S
C1302 C1303 1.327 . S
C1303 H1297 0.950 . S
C1303 C1302 1.327 . S
C1303 C1307 1.429 . S
C1304 C1287 1.574 . S
C1304 H1298 0.949 . S
C1304 C1308 1.368 . S
C1305 C1286 1.429 . S
C1305 C1299 1.429 . S
C1305 C1306 1.523 . S
C1306 C1287 1.368 . S
C1306 C1300 1.368 . S
C1306 C1305 1.523 . S
C1307 C1291 1.429 . S
C1307 C1303 1.429 . S
C1307 C1308 1.523 . S
C1308 C1292 1.368 . S
C1308 C1304 1.368 . S
C1308 C1307 1.523 . S
H1309 C1284 0.950 . S
H1310 C1286 0.950 . S
H1311 C1287 0.949 . S
H1312 C1289 0.950 . S
H1313 C1291 0.950 . S
C1314 C1315 1.349 . S
C1314 C1316 1.327 . S
C1314 H1339 0.950 . S
C1315 C1314 1.349 . S
C1315 C1331 1.349 . S
C1316 C1314 1.327 . S
C1316 C1335 1.429 . S
C1316 H1340 0.950 . S
C1317 C1334 1.574 . S
C1317 C1336 1.368 . S
C1317 H1341 0.949 . S
H1318 C1322 0.949 . S
C1319 C1320 1.349 . S
C1319 C1321 1.327 . S
C1319 H1342 0.950 . S
C1320 C1319 1.349 . S
C1320 C1332 1.349 . S
C1321 C1319 1.327 . S
C1321 C1337 1.429 . S
C1321 H1343 0.950 . S
C1322 H1318 0.949 . S
C1322 C1330 1.574 . S
C1322 C1338 1.368 . S
H1323 C1331 0.950 . S
H1324 C1329 0.950 . S
H1325 C1330 0.949 . S
H1326 C1332 0.950 . S
H1327 C1333 0.950 . S
H1328 C1334 0.949 . S
C1329 H1324 0.950 . S
C1329 C1331 1.327 . S
C1329 C1335 1.429 . S
C1330 C1322 1.574 . S
C1330 H1325 0.949 . S
C1330 C1336 1.368 . S
C1331 C1315 1.349 . S
C1331 H1323 0.950 . S
C1331 C1329 1.327 . S
C1332 C1320 1.349 . S
C1332 H1326 0.950 . S
C1332 C1333 1.327 . S
C1333 H1327 0.950 . S
C1333 C1332 1.327 . S
C1333 C1337 1.429 . S
C1334 C1317 1.574 . S
C1334 H1328 0.949 . S
C1334 C1338 1.368 . S
C1335 C1316 1.429 . S
C1335 C1329 1.429 . S
C1335 C1336 1.523 . S
C1336 C1317 1.368 . S
C1336 C1330 1.368 . S
C1336 C1335 1.523 . S
C1337 C1321 1.429 . S
C1337 C1333 1.429 . S
C1337 C1338 1.523 . S
C1338 C1322 1.368 . S
C1338 C1334 1.368 . S
C1338 C1337 1.523 . S
H1339 C1314 0.950 . S
H1340 C1316 0.950 . S
H1341 C1317 0.949 . S
H1342 C1319 0.950 . S
H1343 C1321 0.950 . S
C1344 C1345 1.349 . S
C1344 C1346 1.327 . S
C1344 H1369 0.950 . S
C1345 C1344 1.349 . S
C1345 C1361 1.349 . S
C1346 C1344 1.327 . S
C1346 C1365 1.429 . S
C1346 H1370 0.950 . S
C1347 C1364 1.574 . S
C1347 C1366 1.368 . S
C1347 H1371 0.949 . S
H1348 C1352 0.949 . S
C1349 C1350 1.349 . S
C1349 C1351 1.327 . S
C1349 H1372 0.950 . S
C1350 C1349 1.349 . S
C1350 C1362 1.349 . S
C1351 C1349 1.327 . S
C1351 C1367 1.429 . S
C1351 H1373 0.950 . S
C1352 H1348 0.949 . S
C1352 C1360 1.574 . S
C1352 C1368 1.368 . S
H1353 C1361 0.950 . S
H1354 C1359 0.950 . S
H1355 C1360 0.949 . S
H1356 C1362 0.950 . S
H1357 C1363 0.950 . S
H1358 C1364 0.949 . S
C1359 H1354 0.950 . S
C1359 C1361 1.327 . S
C1359 C1365 1.429 . S
C1360 C1352 1.574 . S
C1360 H1355 0.949 . S
C1360 C1366 1.368 . S
C1361 C1345 1.349 . S
C1361 H1353 0.950 . S
C1361 C1359 1.327 . S
C1362 C1350 1.349 . S
C1362 H1356 0.950 . S
C1362 C1363 1.327 . S
C1363 H1357 0.950 . S
C1363 C1362 1.327 . S
C1363 C1367 1.429 . S
C1364 C1347 1.574 . S
C1364 H1358 0.949 . S
C1364 C1368 1.368 . S
C1365 C1346 1.429 . S
C1365 C1359 1.429 . S
C1365 C1366 1.523 . S
C1366 C1347 1.368 . S
C1366 C1360 1.368 . S
C1366 C1365 1.523 . S
C1367 C1351 1.429 . S
C1367 C1363 1.429 . S
C1367 C1368 1.523 . S
C1368 C1352 1.368 . S
C1368 C1364 1.368 . S
C1368 C1367 1.523 . S
H1369 C1344 0.950 . S
H1370 C1346 0.950 . S
H1371 C1347 0.949 . S
H1372 C1349 0.950 . S
H1373 C1351 0.950 . S
C1374 C1375 1.349 . S
C1374 C1376 1.327 . S
C1374 H1399 0.950 . S
C1375 C1374 1.349 . S
C1375 C1391 1.349 . S
C1376 C1374 1.327 . S
C1376 C1395 1.429 . S
C1376 H1400 0.950 . S
C1377 C1394 1.574 . S
C1377 C1396 1.368 . S
C1377 H1401 0.949 . S
H1378 C1382 0.949 . S
C1379 C1380 1.349 . S
C1379 C1381 1.327 . S
C1379 H1402 0.950 . S
C1380 C1379 1.349 . S
C1380 C1392 1.349 . S
C1381 C1379 1.327 . S
C1381 C1397 1.429 . S
C1381 H1403 0.950 . S
C1382 H1378 0.949 . S
C1382 C1390 1.574 . S
C1382 C1398 1.368 . S
H1383 C1391 0.950 . S
H1384 C1389 0.950 . S
H1385 C1390 0.949 . S
H1386 C1392 0.950 . S
H1387 C1393 0.950 . S
H1388 C1394 0.949 . S
C1389 H1384 0.950 . S
C1389 C1391 1.327 . S
C1389 C1395 1.429 . S
C1390 C1382 1.574 . S
C1390 H1385 0.949 . S
C1390 C1396 1.368 . S
C1391 C1375 1.349 . S
C1391 H1383 0.950 . S
C1391 C1389 1.327 . S
C1392 C1380 1.349 . S
C1392 H1386 0.950 . S
C1392 C1393 1.327 . S
C1393 H1387 0.950 . S
C1393 C1392 1.327 . S
C1393 C1397 1.429 . S
C1394 C1377 1.574 . S
C1394 H1388 0.949 . S
C1394 C1398 1.368 . S
C1395 C1376 1.429 . S
C1395 C1389 1.429 . S
C1395 C1396 1.523 . S
C1396 C1377 1.368 . S
C1396 C1390 1.368 . S
C1396 C1395 1.523 . S
C1397 C1381 1.429 . S
C1397 C1393 1.429 . S
C1397 C1398 1.523 . S
C1398 C1382 1.368 . S
C1398 C1394 1.368 . S
C1398 C1397 1.523 . S
H1399 C1374 0.950 . S
H1400 C1376 0.950 . S
H1401 C1377 0.949 . S
H1402 C1379 0.950 . S
H1403 C1381 0.950 . S
C1404 C1405 1.349 . S
C1404 C1406 1.327 . S
C1404 H1429 0.950 . S
C1405 C1404 1.349 . S
C1405 C1421 1.349 . S
C1406 C1404 1.327 . S
C1406 C1425 1.429 . S
C1406 H1430 0.950 . S
C1407 C1424 1.574 . S
C1407 C1426 1.368 . S
C1407 H1431 0.949 . S
H1408 C1412 0.949 . S
C1409 C1410 1.349 . S
C1409 C1411 1.327 . S
C1409 H1432 0.950 . S
C1410 C1409 1.349 . S
C1410 C1422 1.349 . S
C1411 C1409 1.327 . S
C1411 C1427 1.429 . S
C1411 H1433 0.950 . S
C1412 H1408 0.949 . S
C1412 C1420 1.574 . S
C1412 C1428 1.368 . S
H1413 C1421 0.950 . S
H1414 C1419 0.950 . S
H1415 C1420 0.949 . S
H1416 C1422 0.950 . S
H1417 C1423 0.950 . S
H1418 C1424 0.949 . S
C1419 H1414 0.950 . S
C1419 C1421 1.327 . S
C1419 C1425 1.429 . S
C1420 C1412 1.574 . S
C1420 H1415 0.949 . S
C1420 C1426 1.368 . S
C1421 C1405 1.349 . S
C1421 H1413 0.950 . S
C1421 C1419 1.327 . S
C1422 C1410 1.349 . S
C1422 H1416 0.950 . S
C1422 C1423 1.327 . S
C1423 H1417 0.950 . S
C1423 C1422 1.327 . S
C1423 C1427 1.429 . S
C1424 C1407 1.574 . S
C1424 H1418 0.949 . S
C1424 C1428 1.368 . S
C1425 C1406 1.429 . S
C1425 C1419 1.429 . S
C1425 C1426 1.523 . S
C1426 C1407 1.368 . S
C1426 C1420 1.368 . S
C1426 C1425 1.523 . S
C1427 C1411 1.429 . S
C1427 C1423 1.429 . S
C1427 C1428 1.523 . S
C1428 C1412 1.368 . S
C1428 C1424 1.368 . S
C1428 C1427 1.523 . S
H1429 C1404 0.950 . S
H1430 C1406 0.950 . S
H1431 C1407 0.949 . S
H1432 C1409 0.950 . S
H1433 C1411 0.950 . S
C1434 C1435 1.349 . S
C1434 C1436 1.327 . S
C1434 H1459 0.950 . S
C1435 C1434 1.349 . S
C1435 C1451 1.349 . S
C1436 C1434 1.327 . S
C1436 C1455 1.429 . S
C1436 H1460 0.950 . S
C1437 C1454 1.574 . S
C1437 C1456 1.368 . S
C1437 H1461 0.949 . S
H1438 C1442 0.949 . S
C1439 C1440 1.349 . S
C1439 C1441 1.327 . S
C1439 H1462 0.950 . S
C1440 C1439 1.349 . S
C1440 C1452 1.349 . S
C1441 C1439 1.327 . S
C1441 C1457 1.429 . S
C1441 H1463 0.950 . S
C1442 H1438 0.949 . S
C1442 C1450 1.574 . S
C1442 C1458 1.368 . S
H1443 C1451 0.950 . S
H1444 C1449 0.950 . S
H1445 C1450 0.949 . S
H1446 C1452 0.950 . S
H1447 C1453 0.950 . S
H1448 C1454 0.949 . S
C1449 H1444 0.950 . S
C1449 C1451 1.327 . S
C1449 C1455 1.429 . S
C1450 C1442 1.574 . S
C1450 H1445 0.949 . S
C1450 C1456 1.368 . S
C1451 C1435 1.349 . S
C1451 H1443 0.950 . S
C1451 C1449 1.327 . S
C1452 C1440 1.349 . S
C1452 H1446 0.950 . S
C1452 C1453 1.327 . S
C1453 H1447 0.950 . S
C1453 C1452 1.327 . S
C1453 C1457 1.429 . S
C1454 C1437 1.574 . S
C1454 H1448 0.949 . S
C1454 C1458 1.368 . S
C1455 C1436 1.429 . S
C1455 C1449 1.429 . S
C1455 C1456 1.523 . S
C1456 C1437 1.368 . S
C1456 C1450 1.368 . S
C1456 C1455 1.523 . S
C1457 C1441 1.429 . S
C1457 C1453 1.429 . S
C1457 C1458 1.523 . S
C1458 C1442 1.368 . S
C1458 C1454 1.368 . S
C1458 C1457 1.523 . S
H1459 C1434 0.950 . S
H1460 C1436 0.950 . S
H1461 C1437 0.949 . S
H1462 C1439 0.950 . S
H1463 C1441 0.950 . S
C1464 C1465 1.349 . S
C1464 C1466 1.327 . S
C1464 H1489 0.950 . S
C1465 C1464 1.349 . S
C1465 C1481 1.349 . S
C1466 C1464 1.327 . S
C1466 C1485 1.429 . S
C1466 H1490 0.950 . S
C1467 C1484 1.574 . S
C1467 C1486 1.368 . S
C1467 H1491 0.949 . S
H1468 C1472 0.949 . S
C1469 C1470 1.349 . S
C1469 C1471 1.327 . S
C1469 H1492 0.950 . S
C1470 C1469 1.349 . S
C1470 C1482 1.349 . S
C1471 C1469 1.327 . S
C1471 C1487 1.429 . S
C1471 H1493 0.950 . S
C1472 H1468 0.949 . S
C1472 C1480 1.574 . S
C1472 C1488 1.368 . S
H1473 C1481 0.950 . S
H1474 C1479 0.950 . S
H1475 C1480 0.949 . S
H1476 C1482 0.950 . S
H1477 C1483 0.950 . S
H1478 C1484 0.949 . S
C1479 H1474 0.950 . S
C1479 C1481 1.327 . S
C1479 C1485 1.429 . S
C1480 C1472 1.574 . S
C1480 H1475 0.949 . S
C1480 C1486 1.368 . S
C1481 C1465 1.349 . S
C1481 H1473 0.950 . S
C1481 C1479 1.327 . S
C1482 C1470 1.349 . S
C1482 H1476 0.950 . S
C1482 C1483 1.327 . S
C1483 H1477 0.950 . S
C1483 C1482 1.327 . S
C1483 C1487 1.429 . S
C1484 C1467 1.574 . S
C1484 H1478 0.949 . S
C1484 C1488 1.368 . S
C1485 C1466 1.429 . S
C1485 C1479 1.429 . S
C1485 C1486 1.523 . S
C1486 C1467 1.368 . S
C1486 C1480 1.368 . S
C1486 C1485 1.523 . S
C1487 C1471 1.429 . S
C1487 C1483 1.429 . S
C1487 C1488 1.523 . S
C1488 C1472 1.368 . S
C1488 C1484 1.368 . S
C1488 C1487 1.523 . S
H1489 C1464 0.950 . S
H1490 C1466 0.950 . S
H1491 C1467 0.949 . S
H1492 C1469 0.950 . S
H1493 C1471 0.950 . S
C1494 C1495 1.349 . S
C1494 C1496 1.327 . S
C1494 H1519 0.950 . S
C1495 C1494 1.349 . S
C1495 C1511 1.349 . S
C1496 C1494 1.327 . S
C1496 C1515 1.429 . S
C1496 H1520 0.950 . S
C1497 C1514 1.574 . S
C1497 C1516 1.368 . S
C1497 H1521 0.949 . S
H1498 C1502 0.949 . S
C1499 C1500 1.349 . S
C1499 C1501 1.327 . S
C1499 H1522 0.950 . S
C1500 C1499 1.349 . S
C1500 C1512 1.349 . S
C1501 C1499 1.327 . S
C1501 C1517 1.429 . S
C1501 H1523 0.950 . S
C1502 H1498 0.949 . S
C1502 C1510 1.574 . S
C1502 C1518 1.368 . S
H1503 C1511 0.950 . S
H1504 C1509 0.950 . S
H1505 C1510 0.949 . S
H1506 C1512 0.950 . S
H1507 C1513 0.950 . S
H1508 C1514 0.949 . S
C1509 H1504 0.950 . S
C1509 C1511 1.327 . S
C1509 C1515 1.429 . S
C1510 C1502 1.574 . S
C1510 H1505 0.949 . S
C1510 C1516 1.368 . S
C1511 C1495 1.349 . S
C1511 H1503 0.950 . S
C1511 C1509 1.327 . S
C1512 C1500 1.349 . S
C1512 H1506 0.950 . S
C1512 C1513 1.327 . S
C1513 H1507 0.950 . S
C1513 C1512 1.327 . S
C1513 C1517 1.429 . S
C1514 C1497 1.574 . S
C1514 H1508 0.949 . S
C1514 C1518 1.368 . S
C1515 C1496 1.429 . S
C1515 C1509 1.429 . S
C1515 C1516 1.523 . S
C1516 C1497 1.368 . S
C1516 C1510 1.368 . S
C1516 C1515 1.523 . S
C1517 C1501 1.429 . S
C1517 C1513 1.429 . S
C1517 C1518 1.523 . S
C1518 C1502 1.368 . S
C1518 C1514 1.368 . S
C1518 C1517 1.523 . S
H1519 C1494 0.950 . S
H1520 C1496 0.950 . S
H1521 C1497 0.949 . S
H1522 C1499 0.950 . S
H1523 C1501 0.950 . S
C1524 C1525 1.349 . S
C1524 C1526 1.327 . S
C1524 H1549 0.950 . S
C1525 C1524 1.349 . S
C1525 C1541 1.349 . S
C1526 C1524 1.327 . S
C1526 C1545 1.429 . S
C1526 H1550 0.950 . S
C1527 C1544 1.574 . S
C1527 C1546 1.368 . S
C1527 H1551 0.949 . S
H1528 C1532 0.949 . S
C1529 C1530 1.349 . S
C1529 C1531 1.327 . S
C1529 H1552 0.950 . S
C1530 C1529 1.349 . S
C1530 C1542 1.349 . S
C1531 C1529 1.327 . S
C1531 C1547 1.429 . S
C1531 H1553 0.950 . S
C1532 H1528 0.949 . S
C1532 C1540 1.574 . S
C1532 C1548 1.368 . S
H1533 C1541 0.950 . S
H1534 C1539 0.950 . S
H1535 C1540 0.949 . S
H1536 C1542 0.950 . S
H1537 C1543 0.950 . S
H1538 C1544 0.949 . S
C1539 H1534 0.950 . S
C1539 C1541 1.327 . S
C1539 C1545 1.429 . S
C1540 C1532 1.574 . S
C1540 H1535 0.949 . S
C1540 C1546 1.368 . S
C1541 C1525 1.349 . S
C1541 H1533 0.950 . S
C1541 C1539 1.327 . S
C1542 C1530 1.349 . S
C1542 H1536 0.950 . S
C1542 C1543 1.327 . S
C1543 H1537 0.950 . S
C1543 C1542 1.327 . S
C1543 C1547 1.429 . S
C1544 C1527 1.574 . S
C1544 H1538 0.949 . S
C1544 C1548 1.368 . S
C1545 C1526 1.429 . S
C1545 C1539 1.429 . S
C1545 C1546 1.523 . S
C1546 C1527 1.368 . S
C1546 C1540 1.368 . S
C1546 C1545 1.523 . S
C1547 C1531 1.429 . S
C1547 C1543 1.429 . S
C1547 C1548 1.523 . S
C1548 C1532 1.368 . S
C1548 C1544 1.368 . S
C1548 C1547 1.523 . S
H1549 C1524 0.950 . S
H1550 C1526 0.950 . S
H1551 C1527 0.949 . S
H1552 C1529 0.950 . S
H1553 C1531 0.950 . S
C1554 C1555 1.349 . S
C1554 C1556 1.327 . S
C1554 H1579 0.950 . S
C1555 C1554 1.349 . S
C1555 C1571 1.349 . S
C1556 C1554 1.327 . S
C1556 C1575 1.429 . S
C1556 H1580 0.950 . S
C1557 C1574 1.574 . S
C1557 C1576 1.368 . S
C1557 H1581 0.949 . S
H1558 C1562 0.949 . S
C1559 C1560 1.349 . S
C1559 C1561 1.327 . S
C1559 H1582 0.950 . S
C1560 C1559 1.349 . S
C1560 C1572 1.349 . S
C1561 C1559 1.327 . S
C1561 C1577 1.429 . S
C1561 H1583 0.950 . S
C1562 H1558 0.949 . S
C1562 C1570 1.574 . S
C1562 C1578 1.368 . S
H1563 C1571 0.950 . S
H1564 C1569 0.950 . S
H1565 C1570 0.949 . S
H1566 C1572 0.950 . S
H1567 C1573 0.950 . S
H1568 C1574 0.949 . S
C1569 H1564 0.950 . S
C1569 C1571 1.327 . S
C1569 C1575 1.429 . S
C1570 C1562 1.574 . S
C1570 H1565 0.949 . S
C1570 C1576 1.368 . S
C1571 C1555 1.349 . S
C1571 H1563 0.950 . S
C1571 C1569 1.327 . S
C1572 C1560 1.349 . S
C1572 H1566 0.950 . S
C1572 C1573 1.327 . S
C1573 H1567 0.950 . S
C1573 C1572 1.327 . S
C1573 C1577 1.429 . S
C1574 C1557 1.574 . S
C1574 H1568 0.949 . S
C1574 C1578 1.368 . S
C1575 C1556 1.429 . S
C1575 C1569 1.429 . S
C1575 C1576 1.523 . S
C1576 C1557 1.368 . S
C1576 C1570 1.368 . S
C1576 C1575 1.523 . S
C1577 C1561 1.429 . S
C1577 C1573 1.429 . S
C1577 C1578 1.523 . S
C1578 C1562 1.368 . S
C1578 C1574 1.368 . S
C1578 C1577 1.523 . S
H1579 C1554 0.950 . S
H1580 C1556 0.950 . S
H1581 C1557 0.949 . S
H1582 C1559 0.950 . S
H1583 C1561 0.950 . S
C1584 C1585 1.349 . S
C1584 C1586 1.327 . S
C1584 H1609 0.950 . S
C1585 C1584 1.349 . S
C1585 C1601 1.349 . S
C1586 C1584 1.327 . S
C1586 C1605 1.429 . S
C1586 H1610 0.950 . S
C1587 C1604 1.574 1_554 S
C1587 C1606 1.368 . S
C1587 H1611 0.949 . S
H1588 C1592 0.949 . S
C1589 C1590 1.349 . S
C1589 C1591 1.327 . S
C1589 H1612 0.950 . S
C1590 C1589 1.349 . S
C1590 C1602 1.349 . S
C1591 C1589 1.327 . S
C1591 C1607 1.429 . S
C1591 H1613 0.950 . S
C1592 H1588 0.949 . S
C1592 C1600 1.574 1_556 S
C1592 C1608 1.368 . S
H1593 C1601 0.950 . S
H1594 C1599 0.950 . S
H1595 C1600 0.949 . S
H1596 C1602 0.950 . S
H1597 C1603 0.950 . S
H1598 C1604 0.949 . S
C1599 H1594 0.950 . S
C1599 C1601 1.327 . S
C1599 C1605 1.429 . S
C1600 C1592 1.574 1_554 S
C1600 H1595 0.949 . S
C1600 C1606 1.368 . S
C1601 C1585 1.349 . S
C1601 H1593 0.950 . S
C1601 C1599 1.327 . S
C1602 C1590 1.349 . S
C1602 H1596 0.950 . S
C1602 C1603 1.327 . S
C1603 H1597 0.950 . S
C1603 C1602 1.327 . S
C1603 C1607 1.429 . S
C1604 C1587 1.574 1_556 S
C1604 H1598 0.949 . S
C1604 C1608 1.368 . S
C1605 C1586 1.429 . S
C1605 C1599 1.429 . S
C1605 C1606 1.523 . S
C1606 C1587 1.368 . S
C1606 C1600 1.368 . S
C1606 C1605 1.523 . S
C1607 C1591 1.429 . S
C1607 C1603 1.429 . S
C1607 C1608 1.523 . S
C1608 C1592 1.368 . S
C1608 C1604 1.368 . S
C1608 C1607 1.523 . S
H1609 C1584 0.950 . S
H1610 C1586 0.950 . S
H1611 C1587 0.949 . S
H1612 C1589 0.950 . S
H1613 C1591 0.950 . S
C1614 C1615 1.349 . S
C1614 C1616 1.327 . S
C1614 H1639 0.950 . S
C1615 C1614 1.349 . S
C1615 C1631 1.349 . S
C1616 C1614 1.327 . S
C1616 C1635 1.429 . S
C1616 H1640 0.950 . S
C1617 C1634 1.574 1_556 S
C1617 C1636 1.368 . S
C1617 H1641 0.949 . S
H1618 C1622 0.949 . S
C1619 C1620 1.349 . S
C1619 C1621 1.327 . S
C1619 H1642 0.950 . S
C1620 C1619 1.349 . S
C1620 C1632 1.349 . S
C1621 C1619 1.327 . S
C1621 C1637 1.429 . S
C1621 H1643 0.950 . S
C1622 H1618 0.949 . S
C1622 C1630 1.574 1_554 S
C1622 C1638 1.368 . S
H1623 C1631 0.950 . S
H1624 C1629 0.950 . S
H1625 C1630 0.949 . S
H1626 C1632 0.950 . S
H1627 C1633 0.950 . S
H1628 C1634 0.949 . S
C1629 H1624 0.950 . S
C1629 C1631 1.327 . S
C1629 C1635 1.429 . S
C1630 C1622 1.574 1_556 S
C1630 H1625 0.949 . S
C1630 C1636 1.368 . S
C1631 C1615 1.349 . S
C1631 H1623 0.950 . S
C1631 C1629 1.327 . S
C1632 C1620 1.349 . S
C1632 H1626 0.950 . S
C1632 C1633 1.327 . S
C1633 H1627 0.950 . S
C1633 C1632 1.327 . S
C1633 C1637 1.429 . S
C1634 C1617 1.574 1_554 S
C1634 H1628 0.949 . S
C1634 C1638 1.368 . S
C1635 C1616 1.429 . S
C1635 C1629 1.429 . S
C1635 C1636 1.523 . S
C1636 C1617 1.368 . S
C1636 C1630 1.368 . S
C1636 C1635 1.523 . S
C1637 C1621 1.429 . S
C1637 C1633 1.429 . S
C1637 C1638 1.523 . S
C1638 C1622 1.368 . S
C1638 C1634 1.368 . S
C1638 C1637 1.523 . S
H1639 C1614 0.950 . S
H1640 C1616 0.950 . S
H1641 C1617 0.949 . S
H1642 C1619 0.950 . S
H1643 C1621 0.950 . S
C1644 C1645 1.349 . S
C1644 C1646 1.327 . S
C1644 H1669 0.950 . S
C1645 C1644 1.349 . S
C1645 C1661 1.349 . S
C1646 C1644 1.327 . S
C1646 C1665 1.429 . S
C1646 H1670 0.950 . S
C1647 C1664 1.574 1_556 S
C1647 C1666 1.368 . S
C1647 H1671 0.949 . S
H1648 C1652 0.949 . S
C1649 C1650 1.349 . S
C1649 C1651 1.327 . S
C1649 H1672 0.950 . S
C1650 C1649 1.349 . S
C1650 C1662 1.349 . S
C1651 C1649 1.327 . S
C1651 C1667 1.429 . S
C1651 H1673 0.950 . S
C1652 H1648 0.949 . S
C1652 C1660 1.574 1_554 S
C1652 C1668 1.368 . S
H1653 C1661 0.950 . S
H1654 C1659 0.950 . S
H1655 C1660 0.949 . S
H1656 C1662 0.950 . S
H1657 C1663 0.950 . S
H1658 C1664 0.949 . S
C1659 H1654 0.950 . S
C1659 C1661 1.327 . S
C1659 C1665 1.429 . S
C1660 C1652 1.574 1_556 S
C1660 H1655 0.949 . S
C1660 C1666 1.368 . S
C1661 C1645 1.349 . S
C1661 H1653 0.950 . S
C1661 C1659 1.327 . S
C1662 C1650 1.349 . S
C1662 H1656 0.950 . S
C1662 C1663 1.327 . S
C1663 H1657 0.950 . S
C1663 C1662 1.327 . S
C1663 C1667 1.429 . S
C1664 C1647 1.574 1_554 S
C1664 H1658 0.949 . S
C1664 C1668 1.368 . S
C1665 C1646 1.429 . S
C1665 C1659 1.429 . S
C1665 C1666 1.523 . S
C1666 C1647 1.368 . S
C1666 C1660 1.368 . S
C1666 C1665 1.523 . S
C1667 C1651 1.429 . S
C1667 C1663 1.429 . S
C1667 C1668 1.523 . S
C1668 C1652 1.368 . S
C1668 C1664 1.368 . S
C1668 C1667 1.523 . S
H1669 C1644 0.950 . S
H1670 C1646 0.950 . S
H1671 C1647 0.949 . S
H1672 C1649 0.950 . S
H1673 C1651 0.950 . S
C1674 C1675 1.349 . S
C1674 C1676 1.327 . S
C1674 H1699 0.950 . S
C1675 C1674 1.349 . S
C1675 C1691 1.349 . S
C1676 C1674 1.327 . S
C1676 C1695 1.429 . S
C1676 H1700 0.950 . S
C1677 C1694 1.574 1_554 S
C1677 C1696 1.368 . S
C1677 H1701 0.949 . S
H1678 C1682 0.949 . S
C1679 C1680 1.349 . S
C1679 C1681 1.327 . S
C1679 H1702 0.950 . S
C1680 C1679 1.349 . S
C1680 C1692 1.349 . S
C1681 C1679 1.327 . S
C1681 C1697 1.429 . S
C1681 H1703 0.950 . S
C1682 H1678 0.949 . S
C1682 C1690 1.574 1_556 S
C1682 C1698 1.368 . S
H1683 C1691 0.950 . S
H1684 C1689 0.950 . S
H1685 C1690 0.949 . S
H1686 C1692 0.950 . S
H1687 C1693 0.950 . S
H1688 C1694 0.949 . S
C1689 H1684 0.950 . S
C1689 C1691 1.327 . S
C1689 C1695 1.429 . S
C1690 C1682 1.574 1_554 S
C1690 H1685 0.949 . S
C1690 C1696 1.368 . S
C1691 C1675 1.349 . S
C1691 H1683 0.950 . S
C1691 C1689 1.327 . S
C1692 C1680 1.349 . S
C1692 H1686 0.950 . S
C1692 C1693 1.327 . S
C1693 H1687 0.950 . S
C1693 C1692 1.327 . S
C1693 C1697 1.429 . S
C1694 C1677 1.574 1_556 S
C1694 H1688 0.949 . S
C1694 C1698 1.368 . S
C1695 C1676 1.429 . S
C1695 C1689 1.429 . S
C1695 C1696 1.523 . S
C1696 C1677 1.368 . S
C1696 C1690 1.368 . S
C1696 C1695 1.523 . S
C1697 C1681 1.429 . S
C1697 C1693 1.429 . S
C1697 C1698 1.523 . S
C1698 C1682 1.368 . S
C1698 C1694 1.368 . S
C1698 C1697 1.523 . S
H1699 C1674 0.950 . S
H1700 C1676 0.950 . S
H1701 C1677 0.949 . S
H1702 C1679 0.950 . S
H1703 C1681 0.950 . S
C1704 C1705 1.349 . S
C1704 C1706 1.327 . S
C1704 H1729 0.950 . S
C1705 C1704 1.349 . S
C1705 C1721 1.349 . S
C1706 C1704 1.327 . S
C1706 C1725 1.429 . S
C1706 H1730 0.950 . S
C1707 C1724 1.574 1_554 S
C1707 C1726 1.368 . S
C1707 H1731 0.949 . S
H1708 C1712 0.949 . S
C1709 C1710 1.349 . S
C1709 C1711 1.327 . S
C1709 H1732 0.950 . S
C1710 C1709 1.349 . S
C1710 C1722 1.349 . S
C1711 C1709 1.327 . S
C1711 C1727 1.429 . S
C1711 H1733 0.950 . S
C1712 H1708 0.949 . S
C1712 C1720 1.574 1_556 S
C1712 C1728 1.368 . S
H1713 C1721 0.950 . S
H1714 C1719 0.950 . S
H1715 C1720 0.949 . S
H1716 C1722 0.950 . S
H1717 C1723 0.950 . S
H1718 C1724 0.949 . S
C1719 H1714 0.950 . S
C1719 C1721 1.327 . S
C1719 C1725 1.429 . S
C1720 C1712 1.574 1_554 S
C1720 H1715 0.949 . S
C1720 C1726 1.368 . S
C1721 C1705 1.349 . S
C1721 H1713 0.950 . S
C1721 C1719 1.327 . S
C1722 C1710 1.349 . S
C1722 H1716 0.950 . S
C1722 C1723 1.327 . S
C1723 H1717 0.950 . S
C1723 C1722 1.327 . S
C1723 C1727 1.429 . S
C1724 C1707 1.574 1_556 S
C1724 H1718 0.949 . S
C1724 C1728 1.368 . S
C1725 C1706 1.429 . S
C1725 C1719 1.429 . S
C1725 C1726 1.523 . S
C1726 C1707 1.368 . S
C1726 C1720 1.368 . S
C1726 C1725 1.523 . S
C1727 C1711 1.429 . S
C1727 C1723 1.429 . S
C1727 C1728 1.523 . S
C1728 C1712 1.368 . S
C1728 C1724 1.368 . S
C1728 C1727 1.523 . S
H1729 C1704 0.950 . S
H1730 C1706 0.950 . S
H1731 C1707 0.949 . S
H1732 C1709 0.950 . S
H1733 C1711 0.950 . S
C1734 C1735 1.349 . S
C1734 C1736 1.327 . S
C1734 H1759 0.950 . S
C1735 C1734 1.349 . S
C1735 C1751 1.349 . S
C1736 C1734 1.327 . S
C1736 C1755 1.429 . S
C1736 H1760 0.950 . S
C1737 C1754 1.574 1_556 S
C1737 C1756 1.368 . S
C1737 H1761 0.949 . S
H1738 C1742 0.949 . S
C1739 C1740 1.349 . S
C1739 C1741 1.327 . S
C1739 H1762 0.950 . S
C1740 C1739 1.349 . S
C1740 C1752 1.349 . S
C1741 C1739 1.327 . S
C1741 C1757 1.429 . S
C1741 H1763 0.950 . S
C1742 H1738 0.949 . S
C1742 C1750 1.574 1_554 S
C1742 C1758 1.368 . S
H1743 C1751 0.950 . S
H1744 C1749 0.950 . S
H1745 C1750 0.949 . S
H1746 C1752 0.950 . S
H1747 C1753 0.950 . S
H1748 C1754 0.949 . S
C1749 H1744 0.950 . S
C1749 C1751 1.327 . S
C1749 C1755 1.429 . S
C1750 C1742 1.574 1_556 S
C1750 H1745 0.949 . S
C1750 C1756 1.368 . S
C1751 C1735 1.349 . S
C1751 H1743 0.950 . S
C1751 C1749 1.327 . S
C1752 C1740 1.349 . S
C1752 H1746 0.950 . S
C1752 C1753 1.327 . S
C1753 H1747 0.950 . S
C1753 C1752 1.327 . S
C1753 C1757 1.429 . S
C1754 C1737 1.574 1_554 S
C1754 H1748 0.949 . S
C1754 C1758 1.368 . S
C1755 C1736 1.429 . S
C1755 C1749 1.429 . S
C1755 C1756 1.523 . S
C1756 C1737 1.368 . S
C1756 C1750 1.368 . S
C1756 C1755 1.523 . S
C1757 C1741 1.429 . S
C1757 C1753 1.429 . S
C1757 C1758 1.523 . S
C1758 C1742 1.368 . S
C1758 C1754 1.368 . S
C1758 C1757 1.523 . S
H1759 C1734 0.950 . S
H1760 C1736 0.950 . S
H1761 C1737 0.949 . S
H1762 C1739 0.950 . S
H1763 C1741 0.950 . S
C1764 C1765 1.349 . S
C1764 C1766 1.327 . S
C1764 H1789 0.950 . S
C1765 C1764 1.349 . S
C1765 C1781 1.349 . S
C1766 C1764 1.327 . S
C1766 C1785 1.429 . S
C1766 H1790 0.950 . S
C1767 C1784 1.574 . S
C1767 C1786 1.368 . S
C1767 H1791 0.949 . S
H1768 C1772 0.949 . S
C1769 C1770 1.349 . S
C1769 C1771 1.327 . S
C1769 H1792 0.950 . S
C1770 C1769 1.349 . S
C1770 C1782 1.349 . S
C1771 C1769 1.327 . S
C1771 C1787 1.429 . S
C1771 H1793 0.950 . S
C1772 H1768 0.949 . S
C1772 C1780 1.574 . S
C1772 C1788 1.368 . S
H1773 C1781 0.950 . S
H1774 C1779 0.950 . S
H1775 C1780 0.949 . S
H1776 C1782 0.950 . S
H1777 C1783 0.950 . S
H1778 C1784 0.949 . S
C1779 H1774 0.950 . S
C1779 C1781 1.327 . S
C1779 C1785 1.429 . S
C1780 C1772 1.574 . S
C1780 H1775 0.949 . S
C1780 C1786 1.368 . S
C1781 C1765 1.349 . S
C1781 H1773 0.950 . S
C1781 C1779 1.327 . S
C1782 C1770 1.349 . S
C1782 H1776 0.950 . S
C1782 C1783 1.327 . S
C1783 H1777 0.950 . S
C1783 C1782 1.327 . S
C1783 C1787 1.429 . S
C1784 C1767 1.574 . S
C1784 H1778 0.949 . S
C1784 C1788 1.368 . S
C1785 C1766 1.429 . S
C1785 C1779 1.429 . S
C1785 C1786 1.523 . S
C1786 C1767 1.368 . S
C1786 C1780 1.368 . S
C1786 C1785 1.523 . S
C1787 C1771 1.429 . S
C1787 C1783 1.429 . S
C1787 C1788 1.523 . S
C1788 C1772 1.368 . S
C1788 C1784 1.368 . S
C1788 C1787 1.523 . S
H1789 C1764 0.950 . S
H1790 C1766 0.950 . S
H1791 C1767 0.949 . S
H1792 C1769 0.950 . S
H1793 C1771 0.950 . S
C1794 C1795 1.349 . S
C1794 C1796 1.327 . S
C1794 H1819 0.950 . S
C1795 C1794 1.349 . S
C1795 C1811 1.349 . S
C1796 C1794 1.327 . S
C1796 C1815 1.429 . S
C1796 H1820 0.950 . S
C1797 C1814 1.574 . S
C1797 C1816 1.368 . S
C1797 H1821 0.949 . S
H1798 C1802 0.949 . S
C1799 C1800 1.349 . S
C1799 C1801 1.327 . S
C1799 H1822 0.950 . S
C1800 C1799 1.349 . S
C1800 C1812 1.349 . S
C1801 C1799 1.327 . S
C1801 C1817 1.429 . S
C1801 H1823 0.950 . S
C1802 H1798 0.949 . S
C1802 C1810 1.574 . S
C1802 C1818 1.368 . S
H1803 C1811 0.950 . S
H1804 C1809 0.950 . S
H1805 C1810 0.949 . S
H1806 C1812 0.950 . S
H1807 C1813 0.950 . S
H1808 C1814 0.949 . S
C1809 H1804 0.950 . S
C1809 C1811 1.327 . S
C1809 C1815 1.429 . S
C1810 C1802 1.574 . S
C1810 H1805 0.949 . S
C1810 C1816 1.368 . S
C1811 C1795 1.349 . S
C1811 H1803 0.950 . S
C1811 C1809 1.327 . S
C1812 C1800 1.349 . S
C1812 H1806 0.950 . S
C1812 C1813 1.327 . S
C1813 H1807 0.950 . S
C1813 C1812 1.327 . S
C1813 C1817 1.429 . S
C1814 C1797 1.574 . S
C1814 H1808 0.949 . S
C1814 C1818 1.368 . S
C1815 C1796 1.429 . S
C1815 C1809 1.429 . S
C1815 C1816 1.523 . S
C1816 C1797 1.368 . S
C1816 C1810 1.368 . S
C1816 C1815 1.523 . S
C1817 C1801 1.429 . S
C1817 C1813 1.429 . S
C1817 C1818 1.523 . S
C1818 C1802 1.368 . S
C1818 C1814 1.368 . S
C1818 C1817 1.523 . S
H1819 C1794 0.950 . S
H1820 C1796 0.950 . S
H1821 C1797 0.949 . S
H1822 C1799 0.950 . S
H1823 C1801 0.950 . S
C1824 C1825 1.349 . S
C1824 C1826 1.327 . S
C1824 H1849 0.950 . S
C1825 C1824 1.349 . S
C1825 C1841 1.349 . S
C1826 C1824 1.327 . S
C1826 C1845 1.429 . S
C1826 H1850 0.950 . S
C1827 C1844 1.574 . S
C1827 C1846 1.368 . S
C1827 H1851 0.949 . S
H1828 C1832 0.949 . S
C1829 C1830 1.349 . S
C1829 C1831 1.327 . S
C1829 H1852 0.950 . S
C1830 C1829 1.349 . S
C1830 C1842 1.349 . S
C1831 C1829 1.327 . S
C1831 C1847 1.429 . S
C1831 H1853 0.950 . S
C1832 H1828 0.949 . S
C1832 C1840 1.574 . S
C1832 C1848 1.368 . S
H1833 C1841 0.950 . S
H1834 C1839 0.950 . S
H1835 C1840 0.949 . S
H1836 C1842 0.950 . S
H1837 C1843 0.950 . S
H1838 C1844 0.949 . S
C1839 H1834 0.950 . S
C1839 C1841 1.327 . S
C1839 C1845 1.429 . S
C1840 C1832 1.574 . S
C1840 H1835 0.949 . S
C1840 C1846 1.368 . S
C1841 C1825 1.349 . S
C1841 H1833 0.950 . S
C1841 C1839 1.327 . S
C1842 C1830 1.349 . S
C1842 H1836 0.950 . S
C1842 C1843 1.327 . S
C1843 H1837 0.950 . S
C1843 C1842 1.327 . S
C1843 C1847 1.429 . S
C1844 C1827 1.574 . S
C1844 H1838 0.949 . S
C1844 C1848 1.368 . S
C1845 C1826 1.429 . S
C1845 C1839 1.429 . S
C1845 C1846 1.523 . S
C1846 C1827 1.368 . S
C1846 C1840 1.368 . S
C1846 C1845 1.523 . S
C1847 C1831 1.429 . S
C1847 C1843 1.429 . S
C1847 C1848 1.523 . S
C1848 C1832 1.368 . S
C1848 C1844 1.368 . S
C1848 C1847 1.523 . S
H1849 C1824 0.950 . S
H1850 C1826 0.950 . S
H1851 C1827 0.949 . S
H1852 C1829 0.950 . S
H1853 C1831 0.950 . S
C1854 C1855 1.349 . S
C1854 C1856 1.327 . S
C1854 H1879 0.950 . S
C1855 C1854 1.349 . S
C1855 C1871 1.349 . S
C1856 C1854 1.327 . S
C1856 C1875 1.429 . S
C1856 H1880 0.950 . S
C1857 C1874 1.574 . S
C1857 C1876 1.368 . S
C1857 H1881 0.949 . S
H1858 C1862 0.949 . S
C1859 C1860 1.349 . S
C1859 C1861 1.327 . S
C1859 H1882 0.950 . S
C1860 C1859 1.349 . S
C1860 C1872 1.349 . S
C1861 C1859 1.327 . S
C1861 C1877 1.429 . S
C1861 H1883 0.950 . S
C1862 H1858 0.949 . S
C1862 C1870 1.574 . S
C1862 C1878 1.368 . S
H1863 C1871 0.950 . S
H1864 C1869 0.950 . S
H1865 C1870 0.949 . S
H1866 C1872 0.950 . S
H1867 C1873 0.950 . S
H1868 C1874 0.949 . S
C1869 H1864 0.950 . S
C1869 C1871 1.327 . S
C1869 C1875 1.429 . S
C1870 C1862 1.574 . S
C1870 H1865 0.949 . S
C1870 C1876 1.368 . S
C1871 C1855 1.349 . S
C1871 H1863 0.950 . S
C1871 C1869 1.327 . S
C1872 C1860 1.349 . S
C1872 H1866 0.950 . S
C1872 C1873 1.327 . S
C1873 H1867 0.950 . S
C1873 C1872 1.327 . S
C1873 C1877 1.429 . S
C1874 C1857 1.574 . S
C1874 H1868 0.949 . S
C1874 C1878 1.368 . S
C1875 C1856 1.429 . S
C1875 C1869 1.429 . S
C1875 C1876 1.523 . S
C1876 C1857 1.368 . S
C1876 C1870 1.368 . S
C1876 C1875 1.523 . S
C1877 C1861 1.429 . S
C1877 C1873 1.429 . S
C1877 C1878 1.523 . S
C1878 C1862 1.368 . S
C1878 C1874 1.368 . S
C1878 C1877 1.523 . S
H1879 C1854 0.950 . S
H1880 C1856 0.950 . S
H1881 C1857 0.949 . S
H1882 C1859 0.950 . S
H1883 C1861 0.950 . S
C1884 C1885 1.349 . S
C1884 C1886 1.327 . S
C1884 H1909 0.950 . S
C1885 C1884 1.349 . S
C1885 C1901 1.349 . S
C1886 C1884 1.327 . S
C1886 C1905 1.429 . S
C1886 H1910 0.950 . S
C1887 C1904 1.574 . S
C1887 C1906 1.368 . S
C1887 H1911 0.949 . S
H1888 C1892 0.949 . S
C1889 C1890 1.349 . S
C1889 C1891 1.327 . S
C1889 H1912 0.950 . S
C1890 C1889 1.349 . S
C1890 C1902 1.349 . S
C1891 C1889 1.327 . S
C1891 C1907 1.429 . S
C1891 H1913 0.950 . S
C1892 H1888 0.949 . S
C1892 C1900 1.574 . S
C1892 C1908 1.368 . S
H1893 C1901 0.950 . S
H1894 C1899 0.950 . S
H1895 C1900 0.949 . S
H1896 C1902 0.950 . S
H1897 C1903 0.950 . S
H1898 C1904 0.949 . S
C1899 H1894 0.950 . S
C1899 C1901 1.327 . S
C1899 C1905 1.429 . S
C1900 C1892 1.574 . S
C1900 H1895 0.949 . S
C1900 C1906 1.368 . S
C1901 C1885 1.349 . S
C1901 H1893 0.950 . S
C1901 C1899 1.327 . S
C1902 C1890 1.349 . S
C1902 H1896 0.950 . S
C1902 C1903 1.327 . S
C1903 H1897 0.950 . S
C1903 C1902 1.327 . S
C1903 C1907 1.429 . S
C1904 C1887 1.574 . S
C1904 H1898 0.949 . S
C1904 C1908 1.368 . S
C1905 C1886 1.429 . S
C1905 C1899 1.429 . S
C1905 C1906 1.523 . S
C1906 C1887 1.368 . S
C1906 C1900 1.368 . S
C1906 C1905 1.523 . S
C1907 C1891 1.429 . S
C1907 C1903 1.429 . S
C1907 C1908 1.523 . S
C1908 C1892 1.368 . S
C1908 C1904 1.368 . S
C1908 C1907 1.523 . S
H1909 C1884 0.950 . S
H1910 C1886 0.950 . S
H1911 C1887 0.949 . S
H1912 C1889 0.950 . S
H1913 C1891 0.950 . S
C1914 C1915 1.349 . S
C1914 C1916 1.327 . S
C1914 H1939 0.950 . S
C1915 C1914 1.349 . S
C1915 C1931 1.349 . S
C1916 C1914 1.327 . S
C1916 C1935 1.429 . S
C1916 H1940 0.950 . S
C1917 C1934 1.574 . S
C1917 C1936 1.368 . S
C1917 H1941 0.949 . S
H1918 C1922 0.949 . S
C1919 C1920 1.349 . S
C1919 C1921 1.327 . S
C1919 H1942 0.950 . S
C1920 C1919 1.349 . S
C1920 C1932 1.349 . S
C1921 C1919 1.327 . S
C1921 C1937 1.429 . S
C1921 H1943 0.950 . S
C1922 H1918 0.949 . S
C1922 C1930 1.574 . S
C1922 C1938 1.368 . S
H1923 C1931 0.950 . S
H1924 C1929 0.950 . S
H1925 C1930 0.949 . S
H1926 C1932 0.950 . S
H1927 C1933 0.950 . S
H1928 C1934 0.949 . S
C1929 H1924 0.950 . S
C1929 C1931 1.327 . S
C1929 C1935 1.429 . S
C1930 C1922 1.574 . S
C1930 H1925 0.949 . S
C1930 C1936 1.368 . S
C1931 C1915 1.349 . S
C1931 H1923 0.950 . S
C1931 C1929 1.327 . S
C1932 C1920 1.349 . S
C1932 H1926 0.950 . S
C1932 C1933 1.327 . S
C1933 H1927 0.950 . S
C1933 C1932 1.327 . S
C1933 C1937 1.429 . S
C1934 C1917 1.574 . S
C1934 H1928 0.949 . S
C1934 C1938 1.368 . S
C1935 C1916 1.429 . S
C1935 C1929 1.429 . S
C1935 C1936 1.523 . S
C1936 C1917 1.368 . S
C1936 C1930 1.368 . S
C1936 C1935 1.523 . S
C1937 C1921 1.429 . S
C1937 C1933 1.429 . S
C1937 C1938 1.523 . S
C1938 C1922 1.368 . S
C1938 C1934 1.368 . S
C1938 C1937 1.523 . S
H1939 C1914 0.950 . S
H1940 C1916 0.950 . S
H1941 C1917 0.949 . S
H1942 C1919 0.950 . S
H1943 C1921 0.950 . S
C1944 C1945 1.349 . S
C1944 C1946 1.327 . S
C1944 H1969 0.950 . S
C1945 C1944 1.349 . S
C1945 C1961 1.349 . S
C1946 C1944 1.327 . S
C1946 C1965 1.429 . S
C1946 H1970 0.950 . S
C1947 C1964 1.574 . S
C1947 C1966 1.368 . S
C1947 H1971 0.949 . S
H1948 C1952 0.949 . S
C1949 C1950 1.349 . S
C1949 C1951 1.327 . S
C1949 H1972 0.950 . S
C1950 C1949 1.349 . S
C1950 C1962 1.349 . S
C1951 C1949 1.327 . S
C1951 C1967 1.429 . S
C1951 H1973 0.950 . S
C1952 H1948 0.949 . S
C1952 C1960 1.574 . S
C1952 C1968 1.368 . S
H1953 C1961 0.950 . S
H1954 C1959 0.950 . S
H1955 C1960 0.949 . S
H1956 C1962 0.950 . S
H1957 C1963 0.950 . S
H1958 C1964 0.949 . S
C1959 H1954 0.950 . S
C1959 C1961 1.327 . S
C1959 C1965 1.429 . S
C1960 C1952 1.574 . S
C1960 H1955 0.949 . S
C1960 C1966 1.368 . S
C1961 C1945 1.349 . S
C1961 H1953 0.950 . S
C1961 C1959 1.327 . S
C1962 C1950 1.349 . S
C1962 H1956 0.950 . S
C1962 C1963 1.327 . S
C1963 H1957 0.950 . S
C1963 C1962 1.327 . S
C1963 C1967 1.429 . S
C1964 C1947 1.574 . S
C1964 H1958 0.949 . S
C1964 C1968 1.368 . S
C1965 C1946 1.429 . S
C1965 C1959 1.429 . S
C1965 C1966 1.523 . S
C1966 C1947 1.368 . S
C1966 C1960 1.368 . S
C1966 C1965 1.523 . S
C1967 C1951 1.429 . S
C1967 C1963 1.429 . S
C1967 C1968 1.523 . S
C1968 C1952 1.368 . S
C1968 C1964 1.368 . S
C1968 C1967 1.523 . S
H1969 C1944 0.950 . S
H1970 C1946 0.950 . S
H1971 C1947 0.949 . S
H1972 C1949 0.950 . S
H1973 C1951 0.950 . S
C1974 C1975 1.349 . S
C1974 C1976 1.327 . S
C1974 H1999 0.950 . S
C1975 C1974 1.349 . S
C1975 C1991 1.349 . S
C1976 C1974 1.327 . S
C1976 C1995 1.429 . S
C1976 H2000 0.950 . S
C1977 C1994 1.574 . S
C1977 C1996 1.368 . S
C1977 H2001 0.949 . S
H1978 C1982 0.949 . S
C1979 C1980 1.349 . S
C1979 C1981 1.327 . S
C1979 H2002 0.950 . S
C1980 C1979 1.349 . S
C1980 C1992 1.349 . S
C1981 C1979 1.327 . S
C1981 C1997 1.429 . S
C1981 H2003 0.950 . S
C1982 H1978 0.949 . S
C1982 C1990 1.574 . S
C1982 C1998 1.368 . S
H1983 C1991 0.950 . S
H1984 C1989 0.950 . S
H1985 C1990 0.949 . S
H1986 C1992 0.950 . S
H1987 C1993 0.950 . S
H1988 C1994 0.949 . S
C1989 H1984 0.950 . S
C1989 C1991 1.327 . S
C1989 C1995 1.429 . S
C1990 C1982 1.574 . S
C1990 H1985 0.949 . S
C1990 C1996 1.368 . S
C1991 C1975 1.349 . S
C1991 H1983 0.950 . S
C1991 C1989 1.327 . S
C1992 C1980 1.349 . S
C1992 H1986 0.950 . S
C1992 C1993 1.327 . S
C1993 H1987 0.950 . S
C1993 C1992 1.327 . S
C1993 C1997 1.429 . S
C1994 C1977 1.574 . S
C1994 H1988 0.949 . S
C1994 C1998 1.368 . S
C1995 C1976 1.429 . S
C1995 C1989 1.429 . S
C1995 C1996 1.523 . S
C1996 C1977 1.368 . S
C1996 C1990 1.368 . S
C1996 C1995 1.523 . S
C1997 C1981 1.429 . S
C1997 C1993 1.429 . S
C1997 C1998 1.523 . S
C1998 C1982 1.368 . S
C1998 C1994 1.368 . S
C1998 C1997 1.523 . S
H1999 C1974 0.950 . S
H2000 C1976 0.950 . S
H2001 C1977 0.949 . S
H2002 C1979 0.950 . S
H2003 C1981 0.950 . S
C2004 C2005 1.349 . S
C2004 C2006 1.327 . S
C2004 H2029 0.950 . S
C2005 C2004 1.349 . S
C2005 C2021 1.349 . S
C2006 C2004 1.327 . S
C2006 C2025 1.429 . S
C2006 H2030 0.950 . S
C2007 C2024 1.574 . S
C2007 C2026 1.368 . S
C2007 H2031 0.949 . S
H2008 C2012 0.949 . S
C2009 C2010 1.349 . S
C2009 C2011 1.327 . S
C2009 H2032 0.950 . S
C2010 C2009 1.349 . S
C2010 C2022 1.349 . S
C2011 C2009 1.327 . S
C2011 C2027 1.429 . S
C2011 H2033 0.950 . S
C2012 H2008 0.949 . S
C2012 C2020 1.574 . S
C2012 C2028 1.368 . S
H2013 C2021 0.950 . S
H2014 C2019 0.950 . S
H2015 C2020 0.949 . S
H2016 C2022 0.950 . S
H2017 C2023 0.950 . S
H2018 C2024 0.949 . S
C2019 H2014 0.950 . S
C2019 C2021 1.327 . S
C2019 C2025 1.429 . S
C2020 C2012 1.574 . S
C2020 H2015 0.949 . S
C2020 C2026 1.368 . S
C2021 C2005 1.349 . S
C2021 H2013 0.950 . S
C2021 C2019 1.327 . S
C2022 C2010 1.349 . S
C2022 H2016 0.950 . S
C2022 C2023 1.327 . S
C2023 H2017 0.950 . S
C2023 C2022 1.327 . S
C2023 C2027 1.429 . S
C2024 C2007 1.574 . S
C2024 H2018 0.949 . S
C2024 C2028 1.368 . S
C2025 C2006 1.429 . S
C2025 C2019 1.429 . S
C2025 C2026 1.523 . S
C2026 C2007 1.368 . S
C2026 C2020 1.368 . S
C2026 C2025 1.523 . S
C2027 C2011 1.429 . S
C2027 C2023 1.429 . S
C2027 C2028 1.523 . S
C2028 C2012 1.368 . S
C2028 C2024 1.368 . S
C2028 C2027 1.523 . S
H2029 C2004 0.950 . S
H2030 C2006 0.950 . S
H2031 C2007 0.949 . S
H2032 C2009 0.950 . S
H2033 C2011 0.950 . S
C2034 C2035 1.349 . S
C2034 C2036 1.327 . S
C2034 H2059 0.950 . S
C2035 C2034 1.349 . S
C2035 C2051 1.349 . S
C2036 C2034 1.327 . S
C2036 C2055 1.429 . S
C2036 H2060 0.950 . S
C2037 C2054 1.574 . S
C2037 C2056 1.368 . S
C2037 H2061 0.949 . S
H2038 C2042 0.949 . S
C2039 C2040 1.349 . S
C2039 C2041 1.327 . S
C2039 H2062 0.950 . S
C2040 C2039 1.349 . S
C2040 C2052 1.349 . S
C2041 C2039 1.327 . S
C2041 C2057 1.429 . S
C2041 H2063 0.950 . S
C2042 H2038 0.949 . S
C2042 C2050 1.574 . S
C2042 C2058 1.368 . S
H2043 C2051 0.950 . S
H2044 C2049 0.950 . S
H2045 C2050 0.949 . S
H2046 C2052 0.950 . S
H2047 C2053 0.950 . S
H2048 C2054 0.949 . S
C2049 H2044 0.950 . S
C2049 C2051 1.327 . S
C2049 C2055 1.429 . S
C2050 C2042 1.574 . S
C2050 H2045 0.949 . S
C2050 C2056 1.368 . S
C2051 C2035 1.349 . S
C2051 H2043 0.950 . S
C2051 C2049 1.327 . S
C2052 C2040 1.349 . S
C2052 H2046 0.950 . S
C2052 C2053 1.327 . S
C2053 H2047 0.950 . S
C2053 C2052 1.327 . S
C2053 C2057 1.429 . S
C2054 C2037 1.574 . S
C2054 H2048 0.949 . S
C2054 C2058 1.368 . S
C2055 C2036 1.429 . S
C2055 C2049 1.429 . S
C2055 C2056 1.523 . S
C2056 C2037 1.368 . S
C2056 C2050 1.368 . S
C2056 C2055 1.523 . S
C2057 C2041 1.429 . S
C2057 C2053 1.429 . S
C2057 C2058 1.523 . S
C2058 C2042 1.368 . S
C2058 C2054 1.368 . S
C2058 C2057 1.523 . S
H2059 C2034 0.950 . S
H2060 C2036 0.950 . S
H2061 C2037 0.949 . S
H2062 C2039 0.950 . S
H2063 C2041 0.950 . S
C2064 C2065 1.349 . S
C2064 C2066 1.327 . S
C2064 H2089 0.950 . S
C2065 C2064 1.349 . S
C2065 C2081 1.349 . S
C2066 C2064 1.327 . S
C2066 C2085 1.429 . S
C2066 H2090 0.950 . S
C2067 C2084 1.574 . S
C2067 C2086 1.368 . S
C2067 H2091 0.949 . S
H2068 C2072 0.949 . S
C2069 C2070 1.349 . S
C2069 C2071 1.327 . S
C2069 H2092 0.950 . S
C2070 C2069 1.349 . S
C2070 C2082 1.349 . S
C2071 C2069 1.327 . S
C2071 C2087 1.429 . S
C2071 H2093 0.950 . S
C2072 H2068 0.949 . S
C2072 C2080 1.574 . S
C2072 C2088 1.368 . S
H2073 C2081 0.950 . S
H2074 C2079 0.950 . S
H2075 C2080 0.949 . S
H2076 C2082 0.950 . S
H2077 C2083 0.950 . S
H2078 C2084 0.949 . S
C2079 H2074 0.950 . S
C2079 C2081 1.327 . S
C2079 C2085 1.429 . S
C2080 C2072 1.574 . S
C2080 H2075 0.949 . S
C2080 C2086 1.368 . S
C2081 C2065 1.349 . S
C2081 H2073 0.950 . S
C2081 C2079 1.327 . S
C2082 C2070 1.349 . S
C2082 H2076 0.950 . S
C2082 C2083 1.327 . S
C2083 H2077 0.950 . S
C2083 C2082 1.327 . S
C2083 C2087 1.429 . S
C2084 C2067 1.574 . S
C2084 H2078 0.949 . S
C2084 C2088 1.368 . S
C2085 C2066 1.429 . S
C2085 C2079 1.429 . S
C2085 C2086 1.523 . S
C2086 C2067 1.368 . S
C2086 C2080 1.368 . S
C2086 C2085 1.523 . S
C2087 C2071 1.429 . S
C2087 C2083 1.429 . S
C2087 C2088 1.523 . S
C2088 C2072 1.368 . S
C2088 C2084 1.368 . S
C2088 C2087 1.523 . S
H2089 C2064 0.950 . S
H2090 C2066 0.950 . S
H2091 C2067 0.949 . S
H2092 C2069 0.950 . S
H2093 C2071 0.950 . S
C2094 C2095 1.349 . S
C2094 C2096 1.327 . S
C2094 H2119 0.950 . S
C2095 C2094 1.349 . S
C2095 C2111 1.349 . S
C2096 C2094 1.327 . S
C2096 C2115 1.429 . S
C2096 H2120 0.950 . S
C2097 C2114 1.574 . S
C2097 C2116 1.368 . S
C2097 H2121 0.949 . S
H2098 C2102 0.949 . S
C2099 C2100 1.349 . S
C2099 C2101 1.327 . S
C2099 H2122 0.950 . S
C2100 C2099 1.349 . S
C2100 C2112 1.349 . S
C2101 C2099 1.327 . S
C2101 C2117 1.429 . S
C2101 H2123 0.950 . S
C2102 H2098 0.949 . S
C2102 C2110 1.574 . S
C2102 C2118 1.368 . S
H2103 C2111 0.950 . S
H2104 C2109 0.950 . S
H2105 C2110 0.949 . S
H2106 C2112 0.950 . S
H2107 C2113 0.950 . S
H2108 C2114 0.949 . S
C2109 H2104 0.950 . S
C2109 C2111 1.327 . S
C2109 C2115 1.429 . S
C2110 C2102 1.574 . S
C2110 H2105 0.949 . S
C2110 C2116 1.368 . S
C2111 C2095 1.349 . S
C2111 H2103 0.950 . S
C2111 C2109 1.327 . S
C2112 C2100 1.349 . S
C2112 H2106 0.950 . S
C2112 C2113 1.327 . S
C2113 H2107 0.950 . S
C2113 C2112 1.327 . S
C2113 C2117 1.429 . S
C2114 C2097 1.574 . S
C2114 H2108 0.949 . S
C2114 C2118 1.368 . S
C2115 C2096 1.429 . S
C2115 C2109 1.429 . S
C2115 C2116 1.523 . S
C2116 C2097 1.368 . S
C2116 C2110 1.368 . S
C2116 C2115 1.523 . S
C2117 C2101 1.429 . S
C2117 C2113 1.429 . S
C2117 C2118 1.523 . S
C2118 C2102 1.368 . S
C2118 C2114 1.368 . S
C2118 C2117 1.523 . S
H2119 C2094 0.950 . S
H2120 C2096 0.950 . S
H2121 C2097 0.949 . S
H2122 C2099 0.950 . S
H2123 C2101 0.950 . S
C2124 C2125 1.349 . S
C2124 C2126 1.327 . S
C2124 H2149 0.950 . S
C2125 C2124 1.349 . S
C2125 C2141 1.349 . S
C2126 C2124 1.327 . S
C2126 C2145 1.429 . S
C2126 H2150 0.950 . S
C2127 C2144 1.574 . S
C2127 C2146 1.368 . S
C2127 H2151 0.949 . S
H2128 C2132 0.949 . S
C2129 C2130 1.349 . S
C2129 C2131 1.327 . S
C2129 H2152 0.950 . S
C2130 C2129 1.349 . S
C2130 C2142 1.349 . S
C2131 C2129 1.327 . S
C2131 C2147 1.429 . S
C2131 H2153 0.950 . S
C2132 H2128 0.949 . S
C2132 C2140 1.574 . S
C2132 C2148 1.368 . S
H2133 C2141 0.950 . S
H2134 C2139 0.950 . S
H2135 C2140 0.949 . S
H2136 C2142 0.950 . S
H2137 C2143 0.950 . S
H2138 C2144 0.949 . S
C2139 H2134 0.950 . S
C2139 C2141 1.327 . S
C2139 C2145 1.429 . S
C2140 C2132 1.574 . S
C2140 H2135 0.949 . S
C2140 C2146 1.368 . S
C2141 C2125 1.349 . S
C2141 H2133 0.950 . S
C2141 C2139 1.327 . S
C2142 C2130 1.349 . S
C2142 H2136 0.950 . S
C2142 C2143 1.327 . S
C2143 H2137 0.950 . S
C2143 C2142 1.327 . S
C2143 C2147 1.429 . S
C2144 C2127 1.574 . S
C2144 H2138 0.949 . S
C2144 C2148 1.368 . S
C2145 C2126 1.429 . S
C2145 C2139 1.429 . S
C2145 C2146 1.523 . S
C2146 C2127 1.368 . S
C2146 C2140 1.368 . S
C2146 C2145 1.523 . S
C2147 C2131 1.429 . S
C2147 C2143 1.429 . S
C2147 C2148 1.523 . S
C2148 C2132 1.368 . S
C2148 C2144 1.368 . S
C2148 C2147 1.523 . S
H2149 C2124 0.950 . S
H2150 C2126 0.950 . S
H2151 C2127 0.949 . S
H2152 C2129 0.950 . S
H2153 C2131 0.950 . S
C2154 C2155 1.349 . S
C2154 C2156 1.327 . S
C2154 H2179 0.950 . S
C2155 C2154 1.349 . S
C2155 C2171 1.349 . S
C2156 C2154 1.327 . S
C2156 C2175 1.429 . S
C2156 H2180 0.950 . S
C2157 C2174 1.574 . S
C2157 C2176 1.368 . S
C2157 H2181 0.949 . S
H2158 C2162 0.949 . S
C2159 C2160 1.349 . S
C2159 C2161 1.327 . S
C2159 H2182 0.950 . S
C2160 C2159 1.349 . S
C2160 C2172 1.349 . S
C2161 C2159 1.327 . S
C2161 C2177 1.429 . S
C2161 H2183 0.950 . S
C2162 H2158 0.949 . S
C2162 C2170 1.574 . S
C2162 C2178 1.368 . S
H2163 C2171 0.950 . S
H2164 C2169 0.950 . S
H2165 C2170 0.949 . S
H2166 C2172 0.950 . S
H2167 C2173 0.950 . S
H2168 C2174 0.949 . S
C2169 H2164 0.950 . S
C2169 C2171 1.327 . S
C2169 C2175 1.429 . S
C2170 C2162 1.574 . S
C2170 H2165 0.949 . S
C2170 C2176 1.368 . S
C2171 C2155 1.349 . S
C2171 H2163 0.950 . S
C2171 C2169 1.327 . S
C2172 C2160 1.349 . S
C2172 H2166 0.950 . S
C2172 C2173 1.327 . S
C2173 H2167 0.950 . S
C2173 C2172 1.327 . S
C2173 C2177 1.429 . S
C2174 C2157 1.574 . S
C2174 H2168 0.949 . S
C2174 C2178 1.368 . S
C2175 C2156 1.429 . S
C2175 C2169 1.429 . S
C2175 C2176 1.523 . S
C2176 C2157 1.368 . S
C2176 C2170 1.368 . S
C2176 C2175 1.523 . S
C2177 C2161 1.429 . S
C2177 C2173 1.429 . S
C2177 C2178 1.523 . S
C2178 C2162 1.368 . S
C2178 C2174 1.368 . S
C2178 C2177 1.523 . S
H2179 C2154 0.950 . S
H2180 C2156 0.950 . S
H2181 C2157 0.949 . S
H2182 C2159 0.950 . S
H2183 C2161 0.950 . S
C2184 C2185 1.349 . S
C2184 C2186 1.327 . S
C2184 H2209 0.950 . S
C2185 C2184 1.349 . S
C2185 C2201 1.349 . S
C2186 C2184 1.327 . S
C2186 C2205 1.429 . S
C2186 H2210 0.950 . S
C2187 C2204 1.574 . S
C2187 C2206 1.368 . S
C2187 H2211 0.949 . S
H2188 C2192 0.949 . S
C2189 C2190 1.349 . S
C2189 C2191 1.327 . S
C2189 H2212 0.950 . S
C2190 C2189 1.349 . S
C2190 C2202 1.349 . S
C2191 C2189 1.327 . S
C2191 C2207 1.429 . S
C2191 H2213 0.950 . S
C2192 H2188 0.949 . S
C2192 C2200 1.574 . S
C2192 C2208 1.368 . S
H2193 C2201 0.950 . S
H2194 C2199 0.950 . S
H2195 C2200 0.949 . S
H2196 C2202 0.950 . S
H2197 C2203 0.950 . S
H2198 C2204 0.949 . S
C2199 H2194 0.950 . S
C2199 C2201 1.327 . S
C2199 C2205 1.429 . S
C2200 C2192 1.574 . S
C2200 H2195 0.949 . S
C2200 C2206 1.368 . S
C2201 C2185 1.349 . S
C2201 H2193 0.950 . S
C2201 C2199 1.327 . S
C2202 C2190 1.349 . S
C2202 H2196 0.950 . S
C2202 C2203 1.327 . S
C2203 H2197 0.950 . S
C2203 C2202 1.327 . S
C2203 C2207 1.429 . S
C2204 C2187 1.574 . S
C2204 H2198 0.949 . S
C2204 C2208 1.368 . S
C2205 C2186 1.429 . S
C2205 C2199 1.429 . S
C2205 C2206 1.523 . S
C2206 C2187 1.368 . S
C2206 C2200 1.368 . S
C2206 C2205 1.523 . S
C2207 C2191 1.429 . S
C2207 C2203 1.429 . S
C2207 C2208 1.523 . S
C2208 C2192 1.368 . S
C2208 C2204 1.368 . S
C2208 C2207 1.523 . S
H2209 C2184 0.950 . S
H2210 C2186 0.950 . S
H2211 C2187 0.949 . S
H2212 C2189 0.950 . S
H2213 C2191 0.950 . S
C2214 C2215 1.349 . S
C2214 C2216 1.327 . S
C2214 H2239 0.950 . S
C2215 C2214 1.349 . S
C2215 C2231 1.349 . S
C2216 C2214 1.327 . S
C2216 C2235 1.429 . S
C2216 H2240 0.950 . S
C2217 C2234 1.574 . S
C2217 C2236 1.368 . S
C2217 H2241 0.949 . S
H2218 C2222 0.949 . S
C2219 C2220 1.349 . S
C2219 C2221 1.327 . S
C2219 H2242 0.950 . S
C2220 C2219 1.349 . S
C2220 C2232 1.349 . S
C2221 C2219 1.327 . S
C2221 C2237 1.429 . S
C2221 H2243 0.950 . S
C2222 H2218 0.949 . S
C2222 C2230 1.574 . S
C2222 C2238 1.368 . S
H2223 C2231 0.950 . S
H2224 C2229 0.950 . S
H2225 C2230 0.949 . S
H2226 C2232 0.950 . S
H2227 C2233 0.950 . S
H2228 C2234 0.949 . S
C2229 H2224 0.950 . S
C2229 C2231 1.327 . S
C2229 C2235 1.429 . S
C2230 C2222 1.574 . S
C2230 H2225 0.949 . S
C2230 C2236 1.368 . S
C2231 C2215 1.349 . S
C2231 H2223 0.950 . S
C2231 C2229 1.327 . S
C2232 C2220 1.349 . S
C2232 H2226 0.950 . S
C2232 C2233 1.327 . S
C2233 H2227 0.950 . S
C2233 C2232 1.327 . S
C2233 C2237 1.429 . S
C2234 C2217 1.574 . S
C2234 H2228 0.949 . S
C2234 C2238 1.368 . S
C2235 C2216 1.429 . S
C2235 C2229 1.429 . S
C2235 C2236 1.523 . S
C2236 C2217 1.368 . S
C2236 C2230 1.368 . S
C2236 C2235 1.523 . S
C2237 C2221 1.429 . S
C2237 C2233 1.429 . S
C2237 C2238 1.523 . S
C2238 C2222 1.368 . S
C2238 C2234 1.368 . S
C2238 C2237 1.523 . S
H2239 C2214 0.950 . S
H2240 C2216 0.950 . S
H2241 C2217 0.949 . S
H2242 C2219 0.950 . S
H2243 C2221 0.950 . S
C2244 C2245 1.349 . S
C2244 C2246 1.327 . S
C2244 H2269 0.950 . S
C2245 C2244 1.349 . S
C2245 C2261 1.349 . S
C2246 C2244 1.327 . S
C2246 C2265 1.429 . S
C2246 H2270 0.950 . S
C2247 C2264 1.574 . S
C2247 C2266 1.368 . S
C2247 H2271 0.949 . S
H2248 C2252 0.949 . S
C2249 C2250 1.349 . S
C2249 C2251 1.327 . S
C2249 H2272 0.950 . S
C2250 C2249 1.349 . S
C2250 C2262 1.349 . S
C2251 C2249 1.327 . S
C2251 C2267 1.429 . S
C2251 H2273 0.950 . S
C2252 H2248 0.949 . S
C2252 C2260 1.574 . S
C2252 C2268 1.368 . S
H2253 C2261 0.950 . S
H2254 C2259 0.950 . S
H2255 C2260 0.949 . S
H2256 C2262 0.950 . S
H2257 C2263 0.950 . S
H2258 C2264 0.949 . S
C2259 H2254 0.950 . S
C2259 C2261 1.327 . S
C2259 C2265 1.429 . S
C2260 C2252 1.574 . S
C2260 H2255 0.949 . S
C2260 C2266 1.368 . S
C2261 C2245 1.349 . S
C2261 H2253 0.950 . S
C2261 C2259 1.327 . S
C2262 C2250 1.349 . S
C2262 H2256 0.950 . S
C2262 C2263 1.327 . S
C2263 H2257 0.950 . S
C2263 C2262 1.327 . S
C2263 C2267 1.429 . S
C2264 C2247 1.574 . S
C2264 H2258 0.949 . S
C2264 C2268 1.368 . S
C2265 C2246 1.429 . S
C2265 C2259 1.429 . S
C2265 C2266 1.523 . S
C2266 C2247 1.368 . S
C2266 C2260 1.368 . S
C2266 C2265 1.523 . S
C2267 C2251 1.429 . S
C2267 C2263 1.429 . S
C2267 C2268 1.523 . S
C2268 C2252 1.368 . S
C2268 C2264 1.368 . S
C2268 C2267 1.523 . S
H2269 C2244 0.950 . S
H2270 C2246 0.950 . S
H2271 C2247 0.949 . S
H2272 C2249 0.950 . S
H2273 C2251 0.950 . S
C2274 C2275 1.349 . S
C2274 C2276 1.327 . S
C2274 H2299 0.950 . S
C2275 C2274 1.349 . S
C2275 C2291 1.349 . S
C2276 C2274 1.327 . S
C2276 C2295 1.429 . S
C2276 H2300 0.950 . S
C2277 C2294 1.574 . S
C2277 C2296 1.368 . S
C2277 H2301 0.949 . S
H2278 C2282 0.949 . S
C2279 C2280 1.349 . S
C2279 C2281 1.327 . S
C2279 H2302 0.950 . S
C2280 C2279 1.349 . S
C2280 C2292 1.349 . S
C2281 C2279 1.327 . S
C2281 C2297 1.429 . S
C2281 H2303 0.950 . S
C2282 H2278 0.949 . S
C2282 C2290 1.574 . S
C2282 C2298 1.368 . S
H2283 C2291 0.950 . S
H2284 C2289 0.950 . S
H2285 C2290 0.949 . S
H2286 C2292 0.950 . S
H2287 C2293 0.950 . S
H2288 C2294 0.949 . S
C2289 H2284 0.950 . S
C2289 C2291 1.327 . S
C2289 C2295 1.429 . S
C2290 C2282 1.574 . S
C2290 H2285 0.949 . S
C2290 C2296 1.368 . S
C2291 C2275 1.349 . S
C2291 H2283 0.950 . S
C2291 C2289 1.327 . S
C2292 C2280 1.349 . S
C2292 H2286 0.950 . S
C2292 C2293 1.327 . S
C2293 H2287 0.950 . S
C2293 C2292 1.327 . S
C2293 C2297 1.429 . S
C2294 C2277 1.574 . S
C2294 H2288 0.949 . S
C2294 C2298 1.368 . S
C2295 C2276 1.429 . S
C2295 C2289 1.429 . S
C2295 C2296 1.523 . S
C2296 C2277 1.368 . S
C2296 C2290 1.368 . S
C2296 C2295 1.523 . S
C2297 C2281 1.429 . S
C2297 C2293 1.429 . S
C2297 C2298 1.523 . S
C2298 C2282 1.368 . S
C2298 C2294 1.368 . S
C2298 C2297 1.523 . S
H2299 C2274 0.950 . S
H2300 C2276 0.950 . S
H2301 C2277 0.949 . S
H2302 C2279 0.950 . S
H2303 C2281 0.950 . S
C865 C3 1.497 . S
C870 C255 1.497 . S
C895 C291 1.497 . S
C900 C39 1.497 . S
C925 C75 1.497 . S
C930 C327 1.497 . S
C955 C111 1.497 . S
C960 C363 1.497 . S
C985 C399 1.497 . S
C990 C147 1.497 . S
C1015 C183 1.497 . S
C1020 C219 1.497 . S
C1045 C435 1.497 . S
C1050 C687 1.497 . S
C1075 C471 1.497 . S
C1080 C723 1.497 . S
C1105 C759 1.497 . S
C1110 C507 1.497 . S
C1135 C543 1.497 . S
C1140 C795 1.497 . S
C1165 C579 1.497 . S
C1170 C831 1.497 . S
C1195 C651 1.497 . S
C1200 C615 1.497 . S
C1225 C4 1.304 . S
C1230 C292 1.304 . S
C1255 C328 1.304 . S
C1260 C40 1.304 . S
C1285 C364 1.303 . S
C1290 C76 1.303 . S
C1315 C112 1.304 . S
C1320 C400 1.304 . S
C1345 C148 1.304 . S
C1350 C220 1.304 . S
C1375 C184 1.303 . S
C1380 C256 1.303 . S
C1405 C724 1.304 . S
C1410 C436 1.304 . S
C1435 C472 1.304 . S
C1440 C760 1.304 . S
C1465 C796 1.303 . S
C1470 C508 1.303 . S
C1495 C832 1.304 . S
C1500 C544 1.304 . S
C1525 C652 1.304 . S
C1530 C580 1.304 . S
C1555 C616 1.303 . S
C1560 C688 1.303 . S
C1585 C14 1.500 . S
C1590 C554 1.500 . S
C1615 C590 1.500 . S
C1620 C50 1.500 . S
C1645 C626 1.500 . S
C1650 C86 1.500 . S
C1675 C122 1.500 . S
C1680 C446 1.500 . S
C1705 C158 1.500 . S
C1710 C482 1.500 . S
C1735 C518 1.500 . S
C1740 C194 1.500 . S
C1765 C770 1.500 . S
C1770 C230 1.500 . S
C1795 C806 1.500 . S
C1800 C266 1.500 . S
C1825 C842 1.500 . S
C1830 C302 1.500 . S
C1855 C662 1.500 . S
C1860 C338 1.500 . S
C1885 C374 1.500 . S
C1890 C698 1.500 . S
C1915 C410 1.500 . S
C1920 C734 1.500 . S
C1945 C2 1.382 . S
C1950 C362 1.382 . S
C1975 C398 1.382 . S
C1980 C38 1.382 . S
C2005 C218 1.382 . S
C2010 C74 1.382 . S
C2035 C110 1.382 . S
C2040 C254 1.382 . S
C2065 C146 1.382 . S
C2070 C290 1.382 . S
C2095 C182 1.382 . S
C2100 C326 1.382 . S
C2125 C434 1.382 . S
C2130 C794 1.382 . S
C2155 C470 1.382 . S
C2160 C830 1.382 . S
C2185 C506 1.382 . S
C2190 C650 1.382 . S
C2215 C686 1.382 . S
C2220 C542 1.382 . S
C2245 C578 1.382 . S
C2250 C722 1.382 . S
C2275 C614 1.382 . S
C2280 C758 1.382 . S
