# Generated by pormake.
# Topology wjp, (5)-cn, num edge types: 1
# Building blocks:
#     Node 0, Type 0, BuildingBlock: BEQFEK_clean_sbu_0, # of connection points: 5
#     Node 1, Type 0, BuildingBlock: BEQFEK_clean_sbu_0, # of connection points: 5
#     Node 2, Type 0, BuildingBlock: BEQFEK_clean_sbu_0, # of connection points: 5
#     Node 3, Type 0, BuildingBlock: BEQFEK_clean_sbu_0, # of connection points: 5
#     Node 4, Type 0, BuildingBlock: BEQFEK_clean_sbu_0, # of connection points: 5
#     Node 5, Type 0, BuildingBlock: BEQFEK_clean_sbu_0, # of connection points: 5
#     Node 6, Type 0, BuildingBlock: BEQFEK_clean_sbu_0, # of connection points: 5
#     Node 7, Type 0, BuildingBlock: BEQFEK_clean_sbu_0, # of connection points: 5
#     Node 8, Type 0, BuildingBlock: BEQFEK_clean_sbu_0, # of connection points: 5
#     Node 9, Type 0, BuildingBlock: BEQFEK_clean_sbu_0, # of connection points: 5
#     Node 10, Type 0, BuildingBlock: BEQFEK_clean_sbu_0, # of connection points: 5
#     Node 11, Type 0, BuildingBlock: BEQFEK_clean_sbu_0, # of connection points: 5
#     Edge 12, Type (0, 0), None
#     Edge 13, Type (0, 0), None
#     Edge 14, Type (0, 0), None
#     Edge 15, Type (0, 0), None
#     Edge 16, Type (0, 0), None
#     Edge 17, Type (0, 0), None
#     Edge 18, Type (0, 0), None
#     Edge 19, Type (0, 0), None
#     Edge 20, Type (0, 0), None
#     Edge 21, Type (0, 0), None
#     Edge 22, Type (0, 0), None
#     Edge 23, Type (0, 0), None
#     Edge 24, Type (0, 0), None
#     Edge 25, Type (0, 0), None
#     Edge 26, Type (0, 0), None
#     Edge 27, Type (0, 0), None
#     Edge 28, Type (0, 0), None
#     Edge 29, Type (0, 0), None
#     Edge 30, Type (0, 0), None
#     Edge 31, Type (0, 0), None
#     Edge 32, Type (0, 0), None
#     Edge 33, Type (0, 0), None
#     Edge 34, Type (0, 0), None
#     Edge 35, Type (0, 0), None
#     Edge 36, Type (0, 0), None
#     Edge 37, Type (0, 0), None
#     Edge 38, Type (0, 0), None
#     Edge 39, Type (0, 0), None
#     Edge 40, Type (0, 0), None
#     Edge 41, Type (0, 0), None
# Relax obj value: 0.530
# Max RMSD: 0.264
# Mean RMSD: 0.264
data_MOF--net-wjp--node1-BEQFEK_clean_sbu_0--edge1-none
_symmetry_space_group_name_H-M    P1
_symmetry_Int_Tables_number       1
_symmetry_cell_setting            triclinic
loop_
_symmetry_equiv_pos_as_xyz
'x, y, z'
_cell_length_a     23.22381
_cell_length_b     23.223743
_cell_length_c     26.520192
_cell_angle_alpha  89.999035
_cell_angle_beta   90.00071
_cell_angle_gamma 119.99701
loop_
_atom_site_label
_atom_site_type_symbol
_atom_site_fract_x
_atom_site_fract_y
_atom_site_fract_z
_atom_type_partial_charge
Co0 Co 0.2111 0.15486 0.50743 0.0
Co1 Co 0.34988 0.25106 0.50496 0.0
C2 C 0.31967 0.17581 0.59016 0.0
O3 O 0.26258 0.16117 0.57266 0.0
O4 O 0.37216 0.2139 0.56523 0.0
C5 C 0.16389 0.03219 0.52437 0.0
O6 O 0.22845 0.06006 0.5188 0.0
C7 C 0.47844 0.37776 0.48893 0.0
C8 C 0.47944 0.38191 0.40564 0.0
C9 C 0.51547 0.41565 0.44776 0.0
N10 N 0.42334 0.32413 0.47158 0.0
N11 N 0.42441 0.32726 0.42176 0.0
C12 C 0.49439 0.39218 0.5437 0.0
H13 H 0.45518 0.35251 0.56734 0.0
H14 H 0.54303 0.39594 0.55186 0.0
H15 H 0.49845 0.44061 0.55326 0.0
C16 C 0.22889 0.105 0.41445 0.0
N17 N 0.25259 0.15173 0.4501 0.0
N18 N 0.31677 0.17969 0.45375 0.0
C19 C 0.33649 0.14681 0.4216 0.0
C20 C 0.2806 0.09722 0.39573 0.0
C21 C 0.15596 0.06316 0.40392 0.0
H22 H 0.1275 0.08267 0.42417 0.0
H23 H 0.13868 0.01134 0.41597 0.0
H24 H 0.14598 0.06363 0.36309 0.0
O25 O 0.19017 0.22306 0.49587 0.0
O26 O 0.28351 0.28386 0.53576 0.0
H27 H 0.42393 0.17798 0.37746 0.0
H28 H 0.40828 0.11489 0.42305 0.0
C29 C 0.40641 0.16114 0.41651 0.0
H30 H 0.4394 0.20014 0.44369 0.0
H31 H 0.38718 0.29218 0.39849 0.0
O32 O 0.13502 0.06564 0.51709 0.0
C33 C 0.22361 0.27023 0.5256 0.0
Co34 Co 0.054 0.21186 0.67412 0.0
Co35 Co 0.09656 0.35063 0.67165 0.0
C36 C 0.14159 0.32042 0.75685 0.0
O37 O 0.09914 0.26333 0.73935 0.0
O38 O 0.15599 0.37291 0.73192 0.0
C39 C 0.12947 0.16465 0.69107 0.0
O40 O 0.16615 0.22922 0.68552 0.0
C41 C 0.09841 0.4792 0.65561 0.0
C42 C 0.09526 0.48019 0.57231 0.0
C43 C 0.09755 0.51622 0.61443 0.0
N44 N 0.09695 0.4241 0.63826 0.0
N45 N 0.0949 0.42517 0.58843 0.0
C46 C 0.09993 0.49515 0.71038 0.0
H47 H 0.1004 0.45594 0.73402 0.0
H48 H 0.14481 0.54379 0.71854 0.0
H49 H 0.05557 0.4992 0.71993 0.0
C50 C 0.1217 0.22966 0.58116 0.0
N51 N 0.09865 0.25335 0.6168 0.0
N52 N 0.13484 0.31754 0.62044 0.0
C53 C 0.18744 0.33726 0.5883 0.0
C54 C 0.18119 0.28137 0.56245 0.0
C55 C 0.09063 0.15673 0.57061 0.0
H56 H 0.04266 0.12827 0.59086 0.0
H57 H 0.12517 0.13945 0.58266 0.0
H58 H 0.08019 0.14677 0.52978 0.0
O59 O 0.96488 0.19093 0.66254 0.0
O60 O -0.0026 0.28426 0.70243 0.0
H61 H 0.24364 0.42471 0.54415 0.0
H62 H 0.29114 0.40909 0.58971 0.0
C63 C 0.243 0.4072 0.58319 0.0
H64 H 0.237 0.44017 0.61039 0.0
H65 H 0.09275 0.38793 0.56517 0.0
O66 O 0.06715 0.13579 0.68378 0.0
C67 C 0.95114 0.22436 0.69227 0.0
Co68 Co 0.83991 0.05474 0.84078 0.0
Co69 Co 0.74368 0.0973 0.83831 0.0
C70 C 0.81892 0.14233 0.92351 0.0
O71 O 0.83357 0.09988 0.90601 0.0
O72 O 0.78083 0.15673 0.89858 0.0
C73 C 0.96258 0.13021 0.85775 0.0
O74 O 0.93469 0.16689 0.85219 0.0
C75 C 0.61696 0.09914 0.82227 0.0
C76 C 0.61284 0.09602 0.73897 0.0
C77 C 0.57908 0.09828 0.78109 0.0
N78 N 0.67061 0.0977 0.80492 0.0
N79 N 0.6675 0.09566 0.75509 0.0
C80 C 0.60253 0.10064 0.87704 0.0
H81 H 0.6422 0.10111 0.90068 0.0
H82 H 0.59874 0.14551 0.88521 0.0
H83 H 0.55411 0.05626 0.88658 0.0
C84 C 0.88981 0.12245 0.74782 0.0
N85 N 0.84306 0.09939 0.78346 0.0
N86 N 0.81506 0.13558 0.7871 0.0
C87 C 0.84793 0.18818 0.75496 0.0
C88 C 0.89757 0.18194 0.72912 0.0
C89 C 0.93167 0.09138 0.73728 0.0
H90 H 0.91217 0.04341 0.75753 0.0
H91 H 0.98349 0.12593 0.74934 0.0
H92 H 0.93121 0.08096 0.69646 0.0
O93 O 0.77172 0.96562 0.8292 0.0
O94 O 0.71089 0.99813 0.86908 0.0
H95 H 0.81666 0.24437 0.71081 0.0
H96 H 0.87979 0.29188 0.75636 0.0
C97 C 0.83355 0.24374 0.74985 0.0
H98 H 0.79457 0.23773 0.77705 0.0
H99 H 0.70259 0.09352 0.73182 0.0
O100 O 0.92913 0.06789 0.85045 0.0
C101 C 0.72454 0.95188 0.85893 0.0
Co102 Co 0.78289 0.84062 1.00744 0.0
Co103 Co 0.64412 0.74441 1.00497 0.0
C104 C 0.67433 0.81967 0.09016 0.0
O105 O 0.73142 0.83431 0.07266 0.0
O106 O 0.62183 0.78157 0.06523 0.0
C107 C 0.8301 0.9633 1.02438 0.0
O108 O 0.76554 0.93542 1.01881 0.0
C109 C 0.51556 0.6177 0.98894 0.0
C110 C 0.51455 0.61357 0.90564 0.0
C111 C 0.47853 0.57981 0.94776 0.0
N112 N 0.57065 0.67134 0.97158 0.0
N113 N 0.56957 0.66822 0.92176 0.0
C114 C 0.49963 0.60326 0.04371 0.0
H115 H 0.53883 0.64294 0.06734 0.0
H116 H 0.45098 0.59949 0.05188 0.0
H117 H 0.49558 0.55484 0.05325 0.0
C118 C 0.7651 0.89051 0.91447 0.0
N119 N 0.7414 0.84376 0.95011 0.0
N120 N 0.67722 0.81579 0.95376 0.0
C121 C 0.6575 0.84867 0.92162 0.0
C122 C 0.71339 0.8983 0.89577 0.0
C123 C 0.83803 0.93235 0.90393 0.0
H124 H 0.86649 0.91284 0.92417 0.0
H125 H 0.8553 0.98417 0.91598 0.0
H126 H 0.84799 0.93189 0.8631 0.0
O127 O 0.80383 0.77243 0.99587 0.0
O128 O 0.71049 0.71162 0.03576 0.0
H129 H 0.57005 0.81746 0.87748 0.0
H130 H 0.58569 0.88057 0.92305 0.0
C131 C 0.58757 0.83432 0.91652 0.0
H132 H 0.55459 0.79533 0.94371 0.0
H133 H 0.6068 0.70332 0.89849 0.0
O134 O 0.85897 0.92984 1.0171 0.0
C135 C 0.77039 0.72525 1.02561 0.0
Co136 Co 0.94001 0.78362 0.17412 0.0
Co137 Co 0.89746 0.64485 0.17165 0.0
C138 C 0.85243 0.67505 0.25685 0.0
O139 O 0.89487 0.73215 0.23935 0.0
O140 O 0.83803 0.62256 0.23192 0.0
C141 C 0.86453 0.83082 0.19107 0.0
O142 O 0.82785 0.76625 0.18553 0.0
C143 C 0.89562 0.5163 0.15561 0.0
C144 C 0.89876 0.51531 0.07231 0.0
C145 C 0.89649 0.47927 0.11443 0.0
N146 N 0.89708 0.57139 0.13826 0.0
N147 N 0.89913 0.57033 0.08843 0.0
C148 C 0.8941 0.50035 0.21038 0.0
H149 H 0.89364 0.53956 0.23402 0.0
H150 H 0.84923 0.45171 0.21854 0.0
H151 H 0.93847 0.49629 0.21993 0.0
C152 C 0.8723 0.76582 0.08116 0.0
N153 N 0.89536 0.74213 0.1168 0.0
N154 N 0.85917 0.67794 0.12044 0.0
C155 C 0.80656 0.65822 0.0883 0.0
C156 C 0.81281 0.71411 0.06246 0.0
C157 C 0.90337 0.83875 0.07062 0.0
H158 H 0.95134 0.86722 0.09086 0.0
H159 H 0.86882 0.85603 0.08267 0.0
H160 H 0.9138 0.84871 1.02979 0.0
O161 O 0.02913 0.80456 0.16254 0.0
O162 O 0.99662 0.71123 0.20243 0.0
H163 H 0.75037 0.57077 0.04415 0.0
H164 H 0.70287 0.58639 0.08971 0.0
C165 C 0.75101 0.58828 0.0832 0.0
H166 H 0.75702 0.55531 0.11039 0.0
H167 H 0.90127 0.60756 0.06516 0.0
O168 O 0.92684 0.85969 0.18378 0.0
C169 C 0.04287 0.77113 0.19227 0.0
Co170 Co 0.15407 0.94076 0.34079 0.0
Co171 Co 0.25033 0.89823 0.33831 0.0
C172 C 0.17509 0.85319 0.42352 0.0
O173 O 0.16043 0.89563 0.40602 0.0
O174 O 0.21319 0.8388 0.39858 0.0
C175 C 0.03141 0.86527 0.35777 0.0
O176 O 0.0593 0.8286 0.35221 0.0
C177 C 0.37705 0.89637 0.32227 0.0
C178 C 0.38118 0.89953 0.23897 0.0
C179 C 0.41494 0.89724 0.28109 0.0
N180 N 0.32341 0.89784 0.30492 0.0
N181 N 0.32653 0.89989 0.2551 0.0
C182 C 0.39148 0.89485 0.37704 0.0
H183 H 0.3518 0.89439 0.40068 0.0
H184 H 0.39524 0.84997 0.3852 0.0
H185 H 0.4399 0.93922 0.38659 0.0
C186 C 0.10417 0.87303 0.24784 0.0
N187 N 0.15092 0.8961 0.28347 0.0
N188 N 0.17895 0.85993 0.28711 0.0
C189 C 0.14609 0.80734 0.25496 0.0
C190 C 0.09643 0.81356 0.22912 0.0
C191 C 0.06229 0.90408 0.2373 0.0
H192 H 0.08178 0.95205 0.25754 0.0
H193 H 0.01048 0.86952 0.24936 0.0
H194 H 0.06275 0.91451 0.19647 0.0
O195 O 0.22223 0.02988 0.32919 0.0
O196 O 0.28312 0.9974 0.36908 0.0
H197 H 0.17742 0.75121 0.2108 0.0
H198 H 0.11428 0.70365 0.25633 0.0
C199 C 0.16051 0.7518 0.24984 0.0
H200 H 0.19948 0.75781 0.27705 0.0
H201 H 0.29144 0.90204 0.23183 0.0
O202 O 0.06484 0.92759 0.35046 0.0
C203 C 0.26943 0.04362 0.3589 0.0
Co204 Co 0.83988 0.78363 0.38765 0.0
Co205 Co 0.74369 0.64486 0.39012 0.0
C206 C 0.81893 0.67505 0.30493 0.0
O207 O 0.83357 0.73215 0.32243 0.0
O208 O 0.78084 0.62256 0.32986 0.0
C209 C 0.96256 0.83084 0.37071 0.0
O210 O 0.93468 0.76628 0.37627 0.0
C211 C 0.61697 0.5163 0.40616 0.0
C212 C 0.61284 0.51529 0.48945 0.0
C213 C 0.57908 0.47927 0.44733 0.0
N214 N 0.67062 0.57139 0.42351 0.0
N215 N 0.6675 0.57032 0.47334 0.0
C216 C 0.60255 0.50036 0.35139 0.0
H217 H 0.64222 0.53958 0.32775 0.0
H218 H 0.59879 0.45172 0.34322 0.0
H219 H 0.55412 0.49631 0.34184 0.0
C220 C 0.88976 0.76585 0.48063 0.0
N221 N 0.84303 0.74214 0.44498 0.0
N222 N 0.81506 0.67796 0.44133 0.0
C223 C 0.84795 0.65825 0.47348 0.0
C224 C 0.89755 0.71415 0.49935 0.0
C225 C 0.9316 0.83878 0.49116 0.0
H226 H 0.91208 0.86723 0.4709 0.0
H227 H 0.98342 0.85607 0.47911 0.0
H228 H 0.93112 0.84876 0.53199 0.0
O229 O 0.77169 0.80456 0.39921 0.0
O230 O 0.71089 0.71122 0.35933 0.0
H231 H 0.81677 0.57082 0.51763 0.0
H232 H 0.87987 0.58646 0.47204 0.0
C233 C 0.83362 0.58833 0.47858 0.0
H234 H 0.79462 0.55534 0.4514 0.0
H235 H 0.70259 0.60754 0.49661 0.0
O236 O 0.9291 0.85971 0.37799 0.0
C237 C 0.72452 0.77112 0.36948 0.0
Co238 Co 0.054 0.84068 0.5543 0.0
Co239 Co 0.09654 0.74444 0.55679 0.0
C240 C 0.14159 0.81969 0.47158 0.0
O241 O 0.09914 0.83434 0.48908 0.0
O242 O 0.15598 0.78159 0.49652 0.0
C243 C 0.12947 0.96335 0.53733 0.0
O244 O 0.16614 0.93546 0.54291 0.0
C245 C 0.0984 0.61773 0.57283 0.0
C246 C 0.09526 0.61359 0.65612 0.0
C247 C 0.09753 0.57984 0.614 0.0
N248 N 0.09694 0.67137 0.59017 0.0
N249 N 0.09488 0.66825 0.64 0.0
C250 C 0.09993 0.6033 0.51806 0.0
H251 H 0.10039 0.64298 0.49442 0.0
H252 H 0.14481 0.59954 0.5099 0.0
H253 H 0.05556 0.55488 0.5085 0.0
C254 C 0.12168 0.89056 0.64727 0.0
N255 N 0.09864 0.84382 0.61162 0.0
N256 N 0.13482 0.81582 0.60799 0.0
C257 C 0.18741 0.84867 0.64015 0.0
C258 C 0.18115 0.8983 0.666 0.0
C259 C 0.09061 0.93242 0.6578 0.0
H260 H 0.04265 0.91293 0.63755 0.0
H261 H 0.12517 0.98424 0.64574 0.0
H262 H 0.08017 0.93196 0.69862 0.0
O263 O 0.96488 0.77252 0.56589 0.0
O264 O -0.00263 0.71164 0.526 0.0
H265 H 0.24358 0.8174 0.6843 0.0
H266 H 0.2911 0.88053 0.63876 0.0
C267 C 0.24297 0.83429 0.64526 0.0
H268 H 0.23697 0.79532 0.61806 0.0
H269 H 0.09274 0.70334 0.66327 0.0
O270 O 0.06715 0.92991 0.54463 0.0
C271 C 0.95115 0.72532 0.53618 0.0
Co272 Co 0.21108 0.05473 0.72096 0.0
Co273 Co 0.34985 0.09727 0.72345 0.0
C274 C 0.31966 0.1423 0.63823 0.0
O275 O 0.26256 0.09986 0.65573 0.0
O276 O 0.37215 0.1567 0.66317 0.0
C277 C 0.16389 0.13022 0.704 0.0
O278 O 0.22846 0.16689 0.70955 0.0
C279 C 0.47842 0.09913 0.73949 0.0
C280 C 0.4794 0.09596 0.82278 0.0
C281 C 0.51544 0.09825 0.78066 0.0
N282 N 0.42331 0.09765 0.75684 0.0
N283 N 0.42437 0.09558 0.80666 0.0
C284 C 0.49438 0.10068 0.68472 0.0
H285 H 0.45517 0.10113 0.66108 0.0
H286 H 0.54302 0.14557 0.67657 0.0
H287 H 0.49847 0.05632 0.67516 0.0
C288 C 0.22888 0.12243 0.81393 0.0
N289 N 0.25258 0.09938 0.77828 0.0
N290 N 0.31676 0.13556 0.77465 0.0
C291 C 0.33649 0.18815 0.8068 0.0
C292 C 0.2806 0.18189 0.83266 0.0
C293 C 0.15595 0.09136 0.82446 0.0
H294 H 0.12749 0.0434 0.8042 0.0
H295 H 0.13869 0.12592 0.81241 0.0
H296 H 0.14598 0.08091 0.86528 0.0
O297 O 0.19012 0.96561 0.73256 0.0
O298 O 0.28348 0.9981 0.69267 0.0
H299 H 0.42393 0.2443 0.85097 0.0
H300 H 0.40833 0.29184 0.80543 0.0
C301 C 0.40643 0.2437 0.81193 0.0
H302 H 0.4394 0.2377 0.78472 0.0
H303 H 0.38713 0.09343 0.82993 0.0
O304 O 0.13502 0.0679 0.71129 0.0
C305 C 0.22357 0.95188 0.70284 0.0
Co306 Co 0.15409 0.21181 0.88764 0.0
Co307 Co 0.25033 0.35059 0.89012 0.0
C308 C 0.17508 0.3204 0.80492 0.0
O309 O 0.16043 0.26331 0.82242 0.0
O310 O 0.21318 0.3729 0.82986 0.0
C311 C 0.03142 0.16462 0.87069 0.0
O312 O 0.05931 0.22919 0.87626 0.0
C313 C 0.37703 0.47916 0.90616 0.0
C314 C 0.38118 0.48014 0.98945 0.0
C315 C 0.41493 0.51618 0.94734 0.0
N316 N 0.3234 0.42405 0.92351 0.0
N317 N 0.32653 0.42512 0.97334 0.0
C318 C 0.39145 0.49511 0.85139 0.0
H319 H 0.35178 0.4559 0.82775 0.0
H320 H 0.39519 0.54375 0.84324 0.0
H321 H 0.43988 0.49919 0.84183 0.0
C322 C 0.10422 0.22961 0.98062 0.0
N323 N 0.15096 0.25331 0.94497 0.0
N324 N 0.17895 0.31749 0.94133 0.0
C325 C 0.14608 0.33721 0.97348 0.0
C326 C 0.09646 0.28132 0.99934 0.0
C327 C 0.06237 0.15668 0.99115 0.0
H328 H 0.08187 0.12822 0.97089 0.0
H329 H 0.01055 0.13941 0.9791 0.0
H330 H 0.06284 0.1467 0.03197 0.0
O331 O 0.22227 0.19085 0.89922 0.0
O332 O 0.28312 0.28422 0.85933 0.0
H333 H 0.17731 0.42465 1.01764 0.0
H334 H 0.1142 0.40903 0.97207 0.0
C335 C 0.16044 0.40714 0.97859 0.0
H336 H 0.19942 0.44013 0.9514 0.0
H337 H 0.29144 0.38788 0.99661 0.0
O338 O 0.06487 0.13575 0.87798 0.0
C339 C 0.26945 0.22432 0.8695 0.0
Co340 Co 0.94001 0.15481 0.0543 0.0
Co341 Co 0.89748 0.25106 0.05679 0.0
C342 C 0.85243 0.17582 0.97158 0.0
O343 O 0.89487 0.16116 0.98908 0.0
O344 O 0.83804 0.21392 0.99652 0.0
C345 C 0.86453 0.03214 0.03733 0.0
O346 O 0.82786 0.06003 0.0429 0.0
C347 C 0.89563 0.37777 0.07283 0.0
C348 C 0.89879 0.38191 0.15612 0.0
C349 C 0.89651 0.41566 0.114 0.0
N350 N 0.8971 0.32413 0.09018 0.0
N351 N 0.89915 0.32725 0.14 0.0
C352 C 0.8941 0.39219 1.01806 0.0
H353 H 0.89364 0.35252 0.99442 0.0
H354 H 0.84921 0.39595 1.0099 0.0
H355 H 0.93846 0.44062 1.0085 0.0
C356 C 0.87232 0.10492 0.14727 0.0
N357 N 0.89537 0.15166 0.11162 0.0
N358 N 0.85919 0.17967 0.10799 0.0
C359 C 0.8066 0.14682 0.14014 0.0
C360 C 0.81286 0.09719 0.166 0.0
C361 C 0.90339 0.06305 0.1578 0.0
H362 H 0.95135 0.08255 0.13754 0.0
H363 H 0.86883 0.01124 0.14574 0.0
H364 H 0.91383 0.06352 0.19862 0.0
O365 O 0.02914 0.22297 0.06589 0.0
O366 O 0.99665 0.28385 1.026 0.0
H367 H 0.75043 0.17809 0.1843 0.0
H368 H 0.70291 0.11497 0.13875 0.0
C369 C 0.75105 0.16121 0.14526 0.0
H370 H 0.75706 0.20019 0.11806 0.0
H371 H 0.9013 0.29216 0.16327 0.0
O372 O 0.92685 0.06558 0.04463 0.0
C373 C 0.04287 0.27016 0.03618 0.0
Co374 Co 0.78292 0.94074 0.22096 0.0
Co375 Co 0.64414 0.89822 0.22344 0.0
C376 C 0.67433 0.85318 0.13823 0.0
O377 O 0.73143 0.89562 0.15572 0.0
O378 O 0.62184 0.83879 0.16317 0.0
C379 C 0.8301 0.86525 0.20399 0.0
O380 O 0.76554 0.82858 0.20953 0.0
C381 C 0.51558 0.89638 0.23949 0.0
C382 C 0.51459 0.89953 0.32278 0.0
C383 C 0.47856 0.89725 0.28066 0.0
N384 N 0.57068 0.89784 0.25683 0.0
N385 N 0.56962 0.89989 0.30666 0.0
C386 C 0.49963 0.89486 0.18471 0.0
H387 H 0.53884 0.89439 0.16108 0.0
H388 H 0.45099 0.84997 0.17656 0.0
H389 H 0.49556 0.93922 0.17516 0.0
C390 C 0.76511 0.87302 0.31391 0.0
N391 N 0.74142 0.89609 0.27827 0.0
N392 N 0.67723 0.85992 0.27464 0.0
C393 C 0.65749 0.80732 0.30679 0.0
C394 C 0.71339 0.81354 0.33262 0.0
C395 C 0.83803 0.90407 0.32445 0.0
H396 H 0.86651 0.95204 0.3042 0.0
H397 H 0.8553 0.86952 0.31239 0.0
H398 H 0.848 0.91451 0.36527 0.0
O399 O 0.80388 0.02987 0.23256 0.0
O400 O 0.71052 0.99739 0.19266 0.0
H401 H 0.57005 0.75119 0.35095 0.0
H402 H 0.58564 0.70363 0.30542 0.0
C403 C 0.58755 0.75178 0.31191 0.0
H404 H 0.55458 0.75779 0.2847 0.0
H405 H 0.60685 0.90203 0.32992 0.0
O406 O 0.85898 0.92757 0.21129 0.0
C407 C 0.77043 0.04361 0.20284 0.0
loop_
_geom_bond_atom_site_label_1
_geom_bond_atom_site_label_2
_geom_bond_distance
_geom_bond_site_symmetry_2
_ccdc_geom_bond_type
Co0 O3 1.970 . S
Co0 N17 1.989 . S
Co0 O25 1.967 . S
Co0 O32 1.920 . S
Co1 O4 1.966 . S
Co1 N10 2.022 . S
Co1 N18 1.993 . S
Co1 O26 1.941 . S
C2 O3 1.258 . S
C2 O4 1.263 . S
O3 Co0 1.970 . S
O3 C2 1.258 . S
O4 Co1 1.966 . S
O4 C2 1.263 . S
C5 O6 1.235 . S
C5 O32 1.289 1_565 S
O6 C5 1.235 . S
C7 C9 1.400 . S
C7 N10 1.351 . S
C7 C12 1.501 . S
C8 C9 1.387 . S
C8 N11 1.341 . S
C9 C7 1.400 . S
C9 C8 1.387 . S
N10 Co1 2.022 . S
N10 C7 1.351 . S
N10 N11 1.365 . S
N11 C8 1.341 . S
N11 N10 1.365 . S
N11 H31 0.862 . S
C12 C7 1.501 . S
C12 H13 0.961 . S
C12 H14 0.961 . S
C12 H15 0.960 . S
H13 C12 0.961 . S
H14 C12 0.961 . S
H15 C12 0.960 . S
C16 N17 1.342 . S
C16 C20 1.401 . S
C16 C21 1.499 . S
N17 Co0 1.989 . S
N17 C16 1.342 . S
N17 N18 1.388 . S
N18 Co1 1.993 . S
N18 N17 1.388 . S
N18 C19 1.346 . S
C19 N18 1.346 . S
C19 C20 1.396 . S
C19 C29 1.510 . S
C20 C16 1.401 . S
C20 C19 1.396 . S
C21 C16 1.499 . S
C21 H22 0.959 . S
C21 H23 0.960 . S
C21 H24 0.961 . S
H22 C21 0.959 . S
H23 C21 0.960 . S
H24 C21 0.961 . S
O25 Co0 1.967 . S
O25 C33 1.258 . S
O26 Co1 1.941 . S
O26 C33 1.266 . S
H27 C29 0.959 . S
H28 C29 0.961 . S
C29 C19 1.510 . S
C29 H27 0.959 . S
C29 H28 0.961 . S
C29 H30 0.960 . S
H30 C29 0.960 . S
H31 N11 0.862 . S
O32 Co0 1.920 . S
O32 C5 1.289 1_545 S
C33 O25 1.258 . S
C33 O26 1.266 . S
Co34 O37 1.970 . S
Co34 N51 1.989 . S
Co34 O59 1.967 1_455 S
Co34 O66 1.920 . S
Co35 O38 1.966 . S
Co35 N44 2.022 . S
Co35 N52 1.993 . S
Co35 O60 1.941 1_455 S
C36 O37 1.258 . S
C36 O38 1.263 . S
O37 Co34 1.970 . S
O37 C36 1.258 . S
O38 Co35 1.966 . S
O38 C36 1.263 . S
C39 O40 1.235 . S
C39 O66 1.289 . S
O40 C39 1.235 . S
C41 C43 1.400 . S
C41 N44 1.351 . S
C41 C46 1.501 . S
C42 C43 1.387 1_655 S
C42 N45 1.341 . S
C43 C41 1.400 . S
C43 C42 1.387 1_455 S
N44 Co35 2.022 . S
N44 C41 1.351 . S
N44 N45 1.365 1_455 S
N45 C42 1.341 . S
N45 N44 1.365 1_655 S
N45 H65 0.862 . S
C46 C41 1.501 . S
C46 H47 0.961 . S
C46 H48 0.961 . S
C46 H49 0.960 . S
H47 C46 0.961 . S
H48 C46 0.961 . S
H49 C46 0.960 . S
C50 N51 1.342 . S
C50 C54 1.401 . S
C50 C55 1.499 . S
N51 Co34 1.989 . S
N51 C50 1.342 . S
N51 N52 1.388 . S
N52 Co35 1.993 . S
N52 N51 1.388 . S
N52 C53 1.346 . S
C53 N52 1.346 . S
C53 C54 1.396 . S
C53 C63 1.510 . S
C54 C50 1.401 . S
C54 C53 1.396 . S
C55 C50 1.499 . S
C55 H56 0.959 . S
C55 H57 0.960 . S
C55 H58 0.961 . S
H56 C55 0.959 . S
H57 C55 0.960 . S
H58 C55 0.961 . S
O59 Co34 1.967 1_655 S
O59 C67 1.258 . S
O60 Co35 1.941 1_655 S
O60 C67 1.266 . S
H61 C63 0.959 . S
H62 C63 0.961 . S
C63 C53 1.510 . S
C63 H61 0.959 . S
C63 H62 0.961 . S
C63 H64 0.960 . S
H64 C63 0.960 . S
H65 N45 0.862 . S
O66 Co34 1.920 . S
O66 C39 1.289 . S
C67 O59 1.258 . S
C67 O60 1.266 . S
Co68 O71 1.970 . S
Co68 N85 1.989 . S
Co68 O93 1.967 1_545 S
Co68 O100 1.920 . S
Co69 O72 1.966 . S
Co69 N78 2.022 . S
Co69 N86 1.993 . S
Co69 O94 1.941 1_545 S
C70 O71 1.258 . S
C70 O72 1.263 . S
O71 Co68 1.970 . S
O71 C70 1.258 . S
O72 Co69 1.966 . S
O72 C70 1.263 . S
C73 O74 1.235 . S
C73 O100 1.289 1_455 S
O74 C73 1.235 . S
C75 C77 1.400 . S
C75 N78 1.351 . S
C75 C80 1.501 . S
C76 C77 1.387 1_565 S
C76 N79 1.341 . S
C77 C75 1.400 . S
C77 C76 1.387 1_545 S
N78 Co69 2.022 . S
N78 C75 1.351 . S
N78 N79 1.365 1_545 S
N79 C76 1.341 . S
N79 N78 1.365 1_565 S
N79 H99 0.862 . S
C80 C75 1.501 . S
C80 H81 0.961 . S
C80 H82 0.961 . S
C80 H83 0.960 . S
H81 C80 0.961 . S
H82 C80 0.961 . S
H83 C80 0.960 . S
C84 N85 1.342 . S
C84 C88 1.401 . S
C84 C89 1.499 . S
N85 Co68 1.989 . S
N85 C84 1.342 . S
N85 N86 1.388 . S
N86 Co69 1.993 . S
N86 N85 1.388 . S
N86 C87 1.346 . S
C87 N86 1.346 . S
C87 C88 1.396 . S
C87 C97 1.510 . S
C88 C84 1.401 . S
C88 C87 1.396 . S
C89 C84 1.499 . S
C89 H90 0.959 . S
C89 H91 0.960 . S
C89 H92 0.961 . S
H90 C89 0.959 . S
H91 C89 0.960 . S
H92 C89 0.961 . S
O93 Co68 1.967 1_565 S
O93 C101 1.258 . S
O94 Co69 1.941 1_565 S
O94 C101 1.266 . S
H95 C97 0.959 . S
H96 C97 0.961 . S
C97 C87 1.510 . S
C97 H95 0.959 . S
C97 H96 0.961 . S
C97 H98 0.960 . S
H98 C97 0.960 . S
H99 N79 0.862 . S
O100 Co68 1.920 . S
O100 C73 1.289 1_655 S
C101 O93 1.258 . S
C101 O94 1.266 . S
Co102 O105 1.970 1_556 S
Co102 N119 1.989 . S
Co102 O127 1.967 1_556 S
Co102 O134 1.920 . S
Co103 O106 1.966 1_556 S
Co103 N112 2.022 . S
Co103 N120 1.993 . S
Co103 O128 1.941 . S
C104 O105 1.258 . S
C104 O106 1.263 . S
O105 Co102 1.970 1_554 S
O105 C104 1.258 . S
O106 Co103 1.966 1_554 S
O106 C104 1.263 . S
C107 O108 1.236 . S
C107 O134 1.289 1_545 S
O108 C107 1.236 . S
C109 C111 1.400 . S
C109 N112 1.351 . S
C109 C114 1.501 . S
C110 C111 1.387 . S
C110 N113 1.341 . S
C111 C109 1.400 . S
C111 C110 1.387 . S
N112 Co103 2.022 . S
N112 C109 1.351 . S
N112 N113 1.365 . S
N113 C110 1.341 . S
N113 N112 1.365 . S
N113 H133 0.862 . S
C114 C109 1.501 . S
C114 H115 0.961 1_556 S
C114 H116 0.961 . S
C114 H117 0.960 1_556 S
H115 C114 0.961 1_554 S
H116 C114 0.961 . S
H117 C114 0.960 1_554 S
C118 N119 1.342 . S
C118 C122 1.401 . S
C118 C123 1.499 . S
N119 Co102 1.989 . S
N119 C118 1.342 . S
N119 N120 1.388 . S
N120 Co103 1.993 . S
N120 N119 1.388 . S
N120 C121 1.346 . S
C121 N120 1.346 . S
C121 C122 1.396 . S
C121 C131 1.510 . S
C122 C118 1.401 . S
C122 C121 1.396 . S
C123 C118 1.499 . S
C123 H124 0.959 . S
C123 H125 0.960 . S
C123 H126 0.961 . S
H124 C123 0.959 . S
H125 C123 0.960 . S
H126 C123 0.961 . S
O127 Co102 1.967 1_554 S
O127 C135 1.255 1_554 S
O128 Co103 1.941 . S
O128 C135 1.274 . S
H129 C131 0.959 . S
H130 C131 0.961 . S
C131 C121 1.510 . S
C131 H129 0.959 . S
C131 H130 0.961 . S
C131 H132 0.960 . S
H132 C131 0.960 . S
H133 N113 0.862 . S
O134 Co102 1.920 . S
O134 C107 1.289 1_565 S
C135 O127 1.255 1_556 S
C135 O128 1.274 . S
Co136 O139 1.970 . S
Co136 N153 1.989 . S
Co136 O161 1.967 1_655 S
Co136 O168 1.920 . S
Co137 O140 1.966 . S
Co137 N146 2.022 . S
Co137 N154 1.993 . S
Co137 O162 1.941 1_655 S
C138 O139 1.258 . S
C138 O140 1.263 . S
O139 Co136 1.970 . S
O139 C138 1.258 . S
O140 Co137 1.966 . S
O140 C138 1.263 . S
C141 O142 1.235 . S
C141 O168 1.289 . S
O142 C141 1.235 . S
C143 C145 1.400 . S
C143 N146 1.351 . S
C143 C148 1.501 . S
C144 C145 1.387 1_455 S
C144 N147 1.341 . S
C145 C143 1.400 . S
C145 C144 1.387 1_655 S
N146 Co137 2.022 . S
N146 C143 1.351 . S
N146 N147 1.365 1_655 S
N147 C144 1.341 . S
N147 N146 1.365 1_455 S
N147 H167 0.862 . S
C148 C143 1.501 . S
C148 H149 0.961 . S
C148 H150 0.961 . S
C148 H151 0.960 . S
H149 C148 0.961 . S
H150 C148 0.961 . S
H151 C148 0.960 . S
C152 N153 1.342 . S
C152 C156 1.401 . S
C152 C157 1.499 . S
N153 Co136 1.989 . S
N153 C152 1.342 . S
N153 N154 1.388 . S
N154 Co137 1.993 . S
N154 N153 1.388 . S
N154 C155 1.346 . S
C155 N154 1.346 . S
C155 C156 1.396 . S
C155 C165 1.510 . S
C156 C152 1.401 . S
C156 C155 1.396 . S
C157 C152 1.499 . S
C157 H158 0.959 . S
C157 H159 0.960 . S
C157 H160 0.961 . S
H158 C157 0.959 . S
H159 C157 0.960 . S
H160 C157 0.961 . S
O161 Co136 1.967 1_455 S
O161 C169 1.258 . S
O162 Co137 1.941 1_455 S
O162 C169 1.266 . S
H163 C165 0.959 1_556 S
H164 C165 0.961 . S
C165 C155 1.510 . S
C165 H163 0.959 1_554 S
C165 H164 0.961 . S
C165 H166 0.960 . S
H166 C165 0.960 . S
H167 N147 0.862 . S
O168 Co136 1.920 . S
O168 C141 1.289 . S
C169 O161 1.258 . S
C169 O162 1.266 . S
Co170 O173 1.970 . S
Co170 N187 1.989 . S
Co170 O195 1.967 1_565 S
Co170 O202 1.920 . S
Co171 O174 1.966 . S
Co171 N180 2.022 . S
Co171 N188 1.993 . S
Co171 O196 1.941 1_565 S
C172 O173 1.258 . S
C172 O174 1.263 . S
O173 Co170 1.970 . S
O173 C172 1.258 . S
O174 Co171 1.966 . S
O174 C172 1.263 . S
C175 O176 1.235 . S
C175 O202 1.289 1_655 S
O176 C175 1.235 . S
C177 C179 1.400 . S
C177 N180 1.351 . S
C177 C182 1.501 . S
C178 C179 1.387 1_545 S
C178 N181 1.341 . S
C179 C177 1.400 . S
C179 C178 1.387 1_565 S
N180 Co171 2.022 . S
N180 C177 1.351 . S
N180 N181 1.365 1_565 S
N181 C178 1.341 . S
N181 N180 1.365 1_545 S
N181 H201 0.862 . S
C182 C177 1.501 . S
C182 H183 0.961 . S
C182 H184 0.961 . S
C182 H185 0.960 . S
H183 C182 0.961 . S
H184 C182 0.961 . S
H185 C182 0.960 . S
C186 N187 1.342 . S
C186 C190 1.401 . S
C186 C191 1.499 . S
N187 Co170 1.989 . S
N187 C186 1.342 . S
N187 N188 1.388 . S
N188 Co171 1.993 . S
N188 N187 1.388 . S
N188 C189 1.346 . S
C189 N188 1.346 . S
C189 C190 1.396 . S
C189 C199 1.510 . S
C190 C186 1.401 . S
C190 C189 1.396 . S
C191 C186 1.499 . S
C191 H192 0.959 . S
C191 H193 0.960 . S
C191 H194 0.961 . S
H192 C191 0.959 . S
H193 C191 0.960 . S
H194 C191 0.961 . S
O195 Co170 1.967 1_545 S
O195 C203 1.258 . S
O196 Co171 1.941 1_545 S
O196 C203 1.266 . S
H197 C199 0.959 . S
H198 C199 0.961 . S
C199 C189 1.510 . S
C199 H197 0.959 . S
C199 H198 0.961 . S
C199 H200 0.960 . S
H200 C199 0.960 . S
H201 N181 0.862 . S
O202 Co170 1.920 . S
O202 C175 1.289 1_455 S
C203 O195 1.258 . S
C203 O196 1.266 . S
Co204 O207 1.970 . S
Co204 N221 1.989 . S
Co204 O229 1.967 . S
Co204 O236 1.920 . S
Co205 O208 1.966 . S
Co205 N214 2.022 . S
Co205 N222 1.993 . S
Co205 O230 1.941 . S
C206 O207 1.258 . S
C206 O208 1.263 . S
O207 Co204 1.970 . S
O207 C206 1.258 . S
O208 Co205 1.966 . S
O208 C206 1.263 . S
C209 O210 1.235 . S
C209 O236 1.289 1_455 S
O210 C209 1.235 . S
C211 C213 1.400 . S
C211 N214 1.351 . S
C211 C216 1.501 . S
C212 C213 1.387 . S
C212 N215 1.341 . S
C213 C211 1.400 . S
C213 C212 1.387 . S
N214 Co205 2.022 . S
N214 C211 1.351 . S
N214 N215 1.365 . S
N215 C212 1.341 . S
N215 N214 1.365 . S
N215 H235 0.862 . S
C216 C211 1.501 . S
C216 H217 0.961 . S
C216 H218 0.961 . S
C216 H219 0.960 . S
H217 C216 0.961 . S
H218 C216 0.961 . S
H219 C216 0.960 . S
C220 N221 1.342 . S
C220 C224 1.401 . S
C220 C225 1.499 . S
N221 Co204 1.989 . S
N221 C220 1.342 . S
N221 N222 1.388 . S
N222 Co205 1.993 . S
N222 N221 1.388 . S
N222 C223 1.346 . S
C223 N222 1.346 . S
C223 C224 1.396 . S
C223 C233 1.510 . S
C224 C220 1.401 . S
C224 C223 1.396 . S
C225 C220 1.499 . S
C225 H226 0.959 . S
C225 H227 0.960 . S
C225 H228 0.961 . S
H226 C225 0.959 . S
H227 C225 0.960 . S
H228 C225 0.961 . S
O229 Co204 1.967 . S
O229 C237 1.258 . S
O230 Co205 1.941 . S
O230 C237 1.266 . S
H231 C233 0.959 . S
H232 C233 0.961 . S
C233 C223 1.510 . S
C233 H231 0.959 . S
C233 H232 0.961 . S
C233 H234 0.960 . S
H234 C233 0.960 . S
H235 N215 0.862 . S
O236 Co204 1.920 . S
O236 C209 1.289 1_655 S
C237 O229 1.258 . S
C237 O230 1.266 . S
Co238 O241 1.970 . S
Co238 N255 1.989 . S
Co238 O263 1.967 1_455 S
Co238 O270 1.920 . S
Co239 O242 1.966 . S
Co239 N248 2.022 . S
Co239 N256 1.993 . S
Co239 O264 1.941 1_455 S
C240 O241 1.258 . S
C240 O242 1.263 . S
O241 Co238 1.970 . S
O241 C240 1.258 . S
O242 Co239 1.966 . S
O242 C240 1.263 . S
C243 O244 1.235 . S
C243 O270 1.289 1_545 S
O244 C243 1.235 . S
C245 C247 1.400 . S
C245 N248 1.351 . S
C245 C250 1.501 . S
C246 C247 1.387 1_655 S
C246 N249 1.341 . S
C247 C245 1.400 . S
C247 C246 1.387 1_455 S
N248 Co239 2.022 . S
N248 C245 1.351 . S
N248 N249 1.365 1_455 S
N249 C246 1.341 . S
N249 N248 1.365 1_655 S
N249 H269 0.862 . S
C250 C245 1.501 . S
C250 H251 0.961 . S
C250 H252 0.961 . S
C250 H253 0.960 . S
H251 C250 0.961 . S
H252 C250 0.961 . S
H253 C250 0.960 . S
C254 N255 1.342 . S
C254 C258 1.401 . S
C254 C259 1.499 . S
N255 Co238 1.989 . S
N255 C254 1.342 . S
N255 N256 1.388 . S
N256 Co239 1.993 . S
N256 N255 1.388 . S
N256 C257 1.346 . S
C257 N256 1.346 . S
C257 C258 1.396 . S
C257 C267 1.510 . S
C258 C254 1.401 . S
C258 C257 1.396 . S
C259 C254 1.499 . S
C259 H260 0.959 . S
C259 H261 0.960 . S
C259 H262 0.961 . S
H260 C259 0.959 . S
H261 C259 0.960 . S
H262 C259 0.961 . S
O263 Co238 1.967 1_655 S
O263 C271 1.258 . S
O264 Co239 1.941 1_655 S
O264 C271 1.266 . S
H265 C267 0.959 . S
H266 C267 0.961 . S
C267 C257 1.510 . S
C267 H265 0.959 . S
C267 H266 0.961 . S
C267 H268 0.960 . S
H268 C267 0.960 . S
H269 N249 0.862 . S
O270 Co238 1.920 . S
O270 C243 1.289 1_565 S
C271 O263 1.258 . S
C271 O264 1.266 . S
Co272 O275 1.970 . S
Co272 N289 1.989 . S
Co272 O297 1.967 1_545 S
Co272 O304 1.920 . S
Co273 O276 1.966 . S
Co273 N282 2.022 . S
Co273 N290 1.993 . S
Co273 O298 1.941 1_545 S
C274 O275 1.258 . S
C274 O276 1.263 . S
O275 Co272 1.970 . S
O275 C274 1.258 . S
O276 Co273 1.966 . S
O276 C274 1.263 . S
C277 O278 1.235 . S
C277 O304 1.289 . S
O278 C277 1.235 . S
C279 C281 1.400 . S
C279 N282 1.351 . S
C279 C284 1.501 . S
C280 C281 1.387 1_565 S
C280 N283 1.341 . S
C281 C279 1.400 . S
C281 C280 1.387 1_545 S
N282 Co273 2.022 . S
N282 C279 1.351 . S
N282 N283 1.365 1_545 S
N283 C280 1.341 . S
N283 N282 1.365 1_565 S
N283 H303 0.862 . S
C284 C279 1.501 . S
C284 H285 0.961 . S
C284 H286 0.961 . S
C284 H287 0.960 . S
H285 C284 0.961 . S
H286 C284 0.961 . S
H287 C284 0.960 . S
C288 N289 1.342 . S
C288 C292 1.401 . S
C288 C293 1.499 . S
N289 Co272 1.989 . S
N289 C288 1.342 . S
N289 N290 1.388 . S
N290 Co273 1.993 . S
N290 N289 1.388 . S
N290 C291 1.346 . S
C291 N290 1.346 . S
C291 C292 1.396 . S
C291 C301 1.510 . S
C292 C288 1.401 . S
C292 C291 1.396 . S
C293 C288 1.499 . S
C293 H294 0.959 . S
C293 H295 0.960 . S
C293 H296 0.961 . S
H294 C293 0.959 . S
H295 C293 0.960 . S
H296 C293 0.961 . S
O297 Co272 1.967 1_565 S
O297 C305 1.258 . S
O298 Co273 1.941 1_565 S
O298 C305 1.266 . S
H299 C301 0.959 . S
H300 C301 0.961 . S
C301 C291 1.510 . S
C301 H299 0.959 . S
C301 H300 0.961 . S
C301 H302 0.960 . S
H302 C301 0.960 . S
H303 N283 0.862 . S
O304 Co272 1.920 . S
O304 C277 1.289 . S
C305 O297 1.258 . S
C305 O298 1.266 . S
Co306 O309 1.970 . S
Co306 N323 1.989 . S
Co306 O331 1.967 . S
Co306 O338 1.920 . S
Co307 O310 1.966 . S
Co307 N316 2.022 . S
Co307 N324 1.993 . S
Co307 O332 1.941 . S
C308 O309 1.258 . S
C308 O310 1.263 . S
O309 Co306 1.970 . S
O309 C308 1.258 . S
O310 Co307 1.966 . S
O310 C308 1.263 . S
C311 O312 1.235 . S
C311 O338 1.289 1_655 S
O312 C311 1.235 . S
C313 C315 1.400 . S
C313 N316 1.351 . S
C313 C318 1.501 . S
C314 C315 1.387 . S
C314 N317 1.341 . S
C315 C313 1.400 . S
C315 C314 1.387 . S
N316 Co307 2.022 . S
N316 C313 1.351 . S
N316 N317 1.365 . S
N317 C314 1.341 . S
N317 N316 1.365 . S
N317 H337 0.862 . S
C318 C313 1.501 . S
C318 H319 0.961 . S
C318 H320 0.961 . S
C318 H321 0.960 . S
H319 C318 0.961 . S
H320 C318 0.961 . S
H321 C318 0.960 . S
C322 N323 1.342 . S
C322 C326 1.401 . S
C322 C327 1.499 . S
N323 Co306 1.989 . S
N323 C322 1.342 . S
N323 N324 1.388 . S
N324 Co307 1.993 . S
N324 N323 1.388 . S
N324 C325 1.346 . S
C325 N324 1.346 . S
C325 C326 1.396 . S
C325 C335 1.510 . S
C326 C322 1.401 . S
C326 C325 1.396 . S
C327 C322 1.499 . S
C327 H328 0.959 . S
C327 H329 0.960 . S
C327 H330 0.961 . S
H328 C327 0.959 . S
H329 C327 0.960 . S
H330 C327 0.961 . S
O331 Co306 1.967 . S
O331 C339 1.258 . S
O332 Co307 1.941 . S
O332 C339 1.266 . S
H333 C335 0.959 1_554 S
H334 C335 0.961 . S
C335 C325 1.510 . S
C335 H333 0.959 1_556 S
C335 H334 0.961 . S
C335 H336 0.960 . S
H336 C335 0.960 . S
H337 N317 0.862 . S
O338 Co306 1.920 . S
O338 C311 1.289 1_455 S
C339 O331 1.258 . S
C339 O332 1.266 . S
Co340 O343 1.970 1_554 S
Co340 N357 1.989 . S
Co340 O365 1.967 1_654 S
Co340 O372 1.920 . S
Co341 O344 1.966 1_554 S
Co341 N350 2.022 . S
Co341 N358 1.993 . S
Co341 O366 1.941 1_655 S
C342 O343 1.258 . S
C342 O344 1.263 . S
O343 Co340 1.970 1_556 S
O343 C342 1.258 . S
O344 Co341 1.966 1_556 S
O344 C342 1.263 . S
C345 O346 1.236 . S
C345 O372 1.289 1_565 S
O346 C345 1.236 . S
C347 C349 1.400 . S
C347 N350 1.351 . S
C347 C352 1.501 . S
C348 C349 1.387 1_455 S
C348 N351 1.341 . S
C349 C347 1.400 . S
C349 C348 1.387 1_655 S
N350 Co341 2.022 . S
N350 C347 1.351 . S
N350 N351 1.365 1_655 S
N351 C348 1.341 . S
N351 N350 1.365 1_455 S
N351 H371 0.862 . S
C352 C347 1.501 . S
C352 H353 0.961 1_554 S
C352 H354 0.961 . S
C352 H355 0.960 1_554 S
H353 C352 0.961 1_556 S
H354 C352 0.961 . S
H355 C352 0.960 1_556 S
C356 N357 1.342 . S
C356 C360 1.401 . S
C356 C361 1.499 . S
N357 Co340 1.989 . S
N357 C356 1.342 . S
N357 N358 1.388 . S
N358 Co341 1.993 . S
N358 N357 1.388 . S
N358 C359 1.346 . S
C359 N358 1.346 . S
C359 C360 1.396 . S
C359 C369 1.510 . S
C360 C356 1.401 . S
C360 C359 1.396 . S
C361 C356 1.499 . S
C361 H362 0.959 . S
C361 H363 0.960 . S
C361 H364 0.961 . S
H362 C361 0.959 . S
H363 C361 0.960 . S
H364 C361 0.961 . S
O365 Co340 1.967 1_456 S
O365 C373 1.255 1_556 S
O366 Co341 1.941 1_455 S
O366 C373 1.274 . S
H367 C369 0.959 . S
H368 C369 0.961 . S
C369 C359 1.510 . S
C369 H367 0.959 . S
C369 H368 0.961 . S
C369 H370 0.960 . S
H370 C369 0.960 . S
H371 N351 0.862 . S
O372 Co340 1.920 . S
O372 C345 1.289 1_545 S
C373 O365 1.255 1_554 S
C373 O366 1.274 . S
Co374 O377 1.970 . S
Co374 N391 1.989 . S
Co374 O399 1.967 1_565 S
Co374 O406 1.920 . S
Co375 O378 1.966 . S
Co375 N384 2.022 . S
Co375 N392 1.993 . S
Co375 O400 1.941 1_565 S
C376 O377 1.258 . S
C376 O378 1.263 . S
O377 Co374 1.970 . S
O377 C376 1.258 . S
O378 Co375 1.966 . S
O378 C376 1.263 . S
C379 O380 1.235 . S
C379 O406 1.289 . S
O380 C379 1.235 . S
C381 C383 1.400 . S
C381 N384 1.351 . S
C381 C386 1.501 . S
C382 C383 1.387 1_545 S
C382 N385 1.341 . S
C383 C381 1.400 . S
C383 C382 1.387 1_565 S
N384 Co375 2.022 . S
N384 C381 1.351 . S
N384 N385 1.365 1_565 S
N385 C382 1.341 . S
N385 N384 1.365 1_545 S
N385 H405 0.862 . S
C386 C381 1.501 . S
C386 H387 0.961 . S
C386 H388 0.961 . S
C386 H389 0.960 . S
H387 C386 0.961 . S
H388 C386 0.961 . S
H389 C386 0.960 . S
C390 N391 1.342 . S
C390 C394 1.401 . S
C390 C395 1.499 . S
N391 Co374 1.989 . S
N391 C390 1.342 . S
N391 N392 1.388 . S
N392 Co375 1.993 . S
N392 N391 1.388 . S
N392 C393 1.346 . S
C393 N392 1.346 . S
C393 C394 1.396 . S
C393 C403 1.510 . S
C394 C390 1.401 . S
C394 C393 1.396 . S
C395 C390 1.499 . S
C395 H396 0.959 . S
C395 H397 0.960 . S
C395 H398 0.961 . S
H396 C395 0.959 . S
H397 C395 0.960 . S
H398 C395 0.961 . S
O399 Co374 1.967 1_545 S
O399 C407 1.258 . S
O400 Co375 1.941 1_545 S
O400 C407 1.266 . S
H401 C403 0.959 . S
H402 C403 0.961 . S
C403 C393 1.510 . S
C403 H401 0.959 . S
C403 H402 0.961 . S
C403 H404 0.960 . S
H404 C403 0.960 . S
H405 N385 0.862 . S
O406 Co374 1.920 . S
O406 C379 1.289 . S
C407 O399 1.258 . S
C407 O400 1.266 . S
C213 C9 1.312 . S
C43 C247 1.312 . S
C281 C77 1.311 . S
C111 C315 1.312 . S
C349 C145 1.312 . S
C383 C179 1.312 . S
C243 C5 0.244 1_545 S
C39 C277 0.244 . S
C311 C73 0.244 1_655 S
C107 C345 0.242 1_546 S
C379 C141 0.244 . S
C175 C209 0.244 1_655 S
C203 C20 1.994 . S
C33 C54 1.994 . S
C88 C67 1.994 . S
C101 C122 1.994 . S
C135 C156 1.990 1_556 S
C169 C190 1.994 . S
C271 C224 1.994 . S
C258 C305 1.994 . S
C339 C292 1.994 . S
C373 C326 1.990 1_554 S
C407 C360 1.994 . S
C237 C394 1.994 . S
C2 C274 2.925 . S
C36 C308 2.925 . S
C70 C342 2.925 . S
C104 C376 2.925 . S
C138 C206 2.925 . S
C172 C240 2.925 . S
