# Generated by pormake.
# Topology wfe, (8)-cn, num edge types: 1
# Building blocks:
#     Node 0, Type 0, BuildingBlock: TAGTUT_clean_sbu_1, # of connection points: 8
#     Node 1, Type 0, BuildingBlock: TAGTUT_clean_sbu_1, # of connection points: 8
#     Node 2, Type 0, BuildingBlock: TAGTUT_clean_sbu_1, # of connection points: 8
#     Node 3, Type 0, BuildingBlock: TAGTUT_clean_sbu_1, # of connection points: 8
#     Node 4, Type 0, BuildingBlock: TAGTUT_clean_sbu_1, # of connection points: 8
#     Node 5, Type 0, BuildingBlock: TAGTUT_clean_sbu_1, # of connection points: 8
#     Node 6, Type 0, BuildingBlock: TAGTUT_clean_sbu_1, # of connection points: 8
#     Node 7, Type 0, BuildingBlock: TAGTUT_clean_sbu_1, # of connection points: 8
#     Edge 8, Type (0, 0), BuildingBlock: ZUJKAS_clean_linker_0, # of connection points: 2
#     Edge 9, Type (0, 0), BuildingBlock: ZUJKAS_clean_linker_0, # of connection points: 2
#     Edge 10, Type (0, 0), BuildingBlock: ZUJKAS_clean_linker_0, # of connection points: 2
#     Edge 11, Type (0, 0), BuildingBlock: ZUJKAS_clean_linker_0, # of connection points: 2
#     Edge 12, Type (0, 0), BuildingBlock: ZUJKAS_clean_linker_0, # of connection points: 2
#     Edge 13, Type (0, 0), BuildingBlock: ZUJKAS_clean_linker_0, # of connection points: 2
#     Edge 14, Type (0, 0), BuildingBlock: ZUJKAS_clean_linker_0, # of connection points: 2
#     Edge 15, Type (0, 0), BuildingBlock: ZUJKAS_clean_linker_0, # of connection points: 2
#     Edge 16, Type (0, 0), BuildingBlock: ZUJKAS_clean_linker_0, # of connection points: 2
#     Edge 17, Type (0, 0), BuildingBlock: ZUJKAS_clean_linker_0, # of connection points: 2
#     Edge 18, Type (0, 0), BuildingBlock: ZUJKAS_clean_linker_0, # of connection points: 2
#     Edge 19, Type (0, 0), BuildingBlock: ZUJKAS_clean_linker_0, # of connection points: 2
#     Edge 20, Type (0, 0), BuildingBlock: ZUJKAS_clean_linker_0, # of connection points: 2
#     Edge 21, Type (0, 0), BuildingBlock: ZUJKAS_clean_linker_0, # of connection points: 2
#     Edge 22, Type (0, 0), BuildingBlock: ZUJKAS_clean_linker_0, # of connection points: 2
#     Edge 23, Type (0, 0), BuildingBlock: ZUJKAS_clean_linker_0, # of connection points: 2
#     Edge 24, Type (0, 0), BuildingBlock: ZUJKAS_clean_linker_0, # of connection points: 2
#     Edge 25, Type (0, 0), BuildingBlock: ZUJKAS_clean_linker_0, # of connection points: 2
#     Edge 26, Type (0, 0), BuildingBlock: ZUJKAS_clean_linker_0, # of connection points: 2
#     Edge 27, Type (0, 0), BuildingBlock: ZUJKAS_clean_linker_0, # of connection points: 2
#     Edge 28, Type (0, 0), BuildingBlock: ZUJKAS_clean_linker_0, # of connection points: 2
#     Edge 29, Type (0, 0), BuildingBlock: ZUJKAS_clean_linker_0, # of connection points: 2
#     Edge 30, Type (0, 0), BuildingBlock: ZUJKAS_clean_linker_0, # of connection points: 2
#     Edge 31, Type (0, 0), BuildingBlock: ZUJKAS_clean_linker_0, # of connection points: 2
#     Edge 32, Type (0, 0), BuildingBlock: ZUJKAS_clean_linker_0, # of connection points: 2
#     Edge 33, Type (0, 0), BuildingBlock: ZUJKAS_clean_linker_0, # of connection points: 2
#     Edge 34, Type (0, 0), BuildingBlock: ZUJKAS_clean_linker_0, # of connection points: 2
#     Edge 35, Type (0, 0), BuildingBlock: ZUJKAS_clean_linker_0, # of connection points: 2
#     Edge 36, Type (0, 0), BuildingBlock: ZUJKAS_clean_linker_0, # of connection points: 2
#     Edge 37, Type (0, 0), BuildingBlock: ZUJKAS_clean_linker_0, # of connection points: 2
#     Edge 38, Type (0, 0), BuildingBlock: ZUJKAS_clean_linker_0, # of connection points: 2
#     Edge 39, Type (0, 0), BuildingBlock: ZUJKAS_clean_linker_0, # of connection points: 2
# Relax obj value: 0.273
# Max RMSD: 0.306
# Mean RMSD: 0.306
data_MOF--net-wfe--node1-TAGTUT_clean_sbu_1--edge1-ZUJKAS_clean_linker_0
_symmetry_space_group_name_H-M    P1
_symmetry_Int_Tables_number       1
_symmetry_cell_setting            triclinic
loop_
_symmetry_equiv_pos_as_xyz
'x, y, z'
_cell_length_a     47.001713
_cell_length_b     47.018415
_cell_length_c     31.749898
_cell_angle_alpha  90.08905
_cell_angle_beta   89.988152
_cell_angle_gamma 89.99403
loop_
_atom_site_label
_atom_site_type_symbol
_atom_site_fract_x
_atom_site_fract_y
_atom_site_fract_z
_atom_type_partial_charge
C0 C 0.52294 0.3702 0.1142 0.0
C1 C 0.48413 0.32005 0.20899 0.0
C2 C 0.59906 0.31348 0.26782 0.0
Mg3 Mg 0.51674 0.30491 0.12553 0.0
O4 O 0.5489 0.30963 0.15948 0.0
Mg5 Mg 0.55327 0.34118 0.20115 0.0
Mg6 Mg 0.56893 0.27888 0.18947 0.0
O7 O 0.59072 0.24814 0.21815 0.0
Mg8 Mg 0.62869 0.25731 0.22996 0.0
Mg9 Mg 0.5859 0.21667 0.17524 0.0
C10 C 0.55109 0.24887 0.09611 0.0
C11 C 0.52453 0.22973 0.21962 0.0
O12 O 0.53468 0.37127 0.15065 0.0
O13 O 0.51583 0.34663 0.09678 0.0
O14 O 0.50662 0.33249 0.22318 0.0
O15 O 0.48397 0.30638 0.17387 0.0
O16 O 0.53212 0.26777 0.08718 0.0
O17 O 0.56374 0.24928 0.132 0.0
C18 C 0.61332 0.32729 0.15675 0.0
O19 O 0.60782 0.30071 0.16119 0.0
O20 O 0.59704 0.34653 0.17213 0.0
O21 O 0.60905 0.18848 0.22505 0.0
O22 O 0.6383 0.21821 0.26032 0.0
O23 O 0.62753 0.22498 0.13911 0.0
C24 C 0.62774 0.19349 0.25374 0.0
O25 O 0.6518 0.25897 0.17208 0.0
O26 O 0.62057 0.29671 0.26444 0.0
C27 C 0.64831 0.24236 0.14075 0.0
O28 O 0.57551 0.30908 0.24737 0.0
O29 O 0.52843 0.25665 0.21544 0.0
O30 O 0.54323 0.21139 0.2083 0.0
C31 C 0.63785 0.02248 0.61652 0.0
C32 C 0.68853 0.98139 0.70874 0.0
C33 C 0.69771 0.09582 0.77107 0.0
Mg34 Mg 0.70315 0.01507 0.62601 0.0
O35 O 0.69971 0.04638 0.66194 0.0
Mg36 Mg 0.66852 0.05088 0.70407 0.0
Mg37 Mg 0.73114 0.06574 0.69148 0.0
O38 O 0.76251 0.08699 0.71962 0.0
Mg39 Mg 0.75394 0.12497 0.73234 0.0
Mg40 Mg 0.79348 0.08211 0.67586 0.0
C41 C 0.75954 0.04885 0.59656 0.0
C42 C 0.78044 0.02047 0.71958 0.0
O43 O 0.63735 0.03337 0.65362 0.0
O44 O 0.66116 0.0156 0.59817 0.0
O45 O 0.67694 0.00384 0.72462 0.0
O46 O 0.70126 0.98152 0.67288 0.0
O47 O 0.7401 0.03048 0.5874 0.0
O48 O 0.75999 0.06076 0.63303 0.0
C49 C 0.68281 0.11105 0.66076 0.0
O50 O 0.70937 0.10508 0.66442 0.0
O51 O 0.66349 0.09497 0.67624 0.0
O52 O 0.82259 0.10427 0.72573 0.0
O53 O 0.79351 0.13359 0.76208 0.0
O54 O 0.78545 0.12419 0.64093 0.0
C55 C 0.81804 0.12274 0.75495 0.0
O56 O 0.75216 0.14871 0.67503 0.0
O57 O 0.71477 0.11708 0.76761 0.0
C58 C 0.76848 0.14526 0.64337 0.0
O59 O 0.70152 0.07232 0.75014 0.0
O60 O 0.75345 0.02473 0.71656 0.0
O61 O 0.79862 0.03913 0.70763 0.0
C62 C 0.98311 0.1362 0.11576 0.0
C63 C 0.02389 0.18831 0.20771 0.0
C64 C 0.90918 0.19615 0.26903 0.0
Mg65 Mg 0.99018 0.2016 0.12465 0.0
O66 O 0.95875 0.19802 0.16032 0.0
Mg67 Mg 0.9547 0.16723 0.20313 0.0
Mg68 Mg 0.93916 0.2294 0.18952 0.0
O69 O 0.91759 0.26067 0.2173 0.0
Mg70 Mg 0.87952 0.25156 0.22875 0.0
Mg71 Mg 0.92247 0.29146 0.17341 0.0
C72 C 0.95653 0.2578 0.09482 0.0
C73 C 0.98411 0.27913 0.21755 0.0
O74 O 0.97236 0.13584 0.15294 0.0
O75 O 0.98988 0.15944 0.09721 0.0
O76 O 1.00159 0.17644 0.22351 0.0
O77 O 0.02367 0.20069 0.17164 0.0
O78 O 0.97504 0.23845 0.08585 0.0
O79 O 0.9442 0.25802 0.13096 0.0
C80 C 0.89417 0.18035 0.16015 0.0
O81 O 0.89989 0.20703 0.16244 0.0
O82 O 0.91061 0.16153 0.17614 0.0
O83 O 0.89972 0.32038 0.22289 0.0
O84 O 0.87006 0.29114 0.25818 0.0
O85 O 0.8808 0.28293 0.13775 0.0
C86 C 0.88095 0.31572 0.25162 0.0
O87 O 0.85662 0.24891 0.17056 0.0
O88 O 0.88763 0.21277 0.26468 0.0
C89 C 0.86018 0.26537 0.13915 0.0
O90 O 0.93283 0.2002 0.24864 0.0
O91 O 0.98002 0.25211 0.21455 0.0
O92 O 0.96531 0.29715 0.2056 0.0
C93 C 0.8724 0.48501 0.61652 0.0
C94 C 0.82021 0.52496 0.70897 0.0
C95 C 0.81241 0.41017 0.76831 0.0
Mg96 Mg 0.80692 0.49193 0.62522 0.0
O97 O 0.81075 0.46 0.6598 0.0
Mg98 Mg 0.84143 0.4558 0.70288 0.0
Mg99 Mg 0.77938 0.44007 0.68847 0.0
O100 O 0.7481 0.41828 0.71584 0.0
Mg101 Mg 0.75722 0.38033 0.72776 0.0
Mg102 Mg 0.71753 0.42296 0.6716 0.0
C103 C 0.75103 0.45807 0.59412 0.0
C104 C 0.72937 0.48446 0.71638 0.0
O105 O 0.87269 0.47383 0.65337 0.0
O106 O 0.8492 0.49206 0.59802 0.0
O107 O 0.83229 0.50256 0.724 0.0
O108 O 0.80746 0.52496 0.67314 0.0
O109 O 0.77014 0.47696 0.58589 0.0
O110 O 0.75099 0.44513 0.62975 0.0
C111 C 0.82865 0.3955 0.65866 0.0
O112 O 0.80194 0.40104 0.66118 0.0
O113 O 0.84739 0.41191 0.67498 0.0
O114 O 0.6884 0.3999 0.72022 0.0
O115 O 0.71749 0.37062 0.75645 0.0
O116 O 0.72655 0.38126 0.63596 0.0
C117 C 0.69289 0.3812 0.74902 0.0
O118 O 0.76022 0.35723 0.66984 0.0
O119 O 0.79583 0.3886 0.76405 0.0
C120 C 0.74403 0.36059 0.63804 0.0
O121 O 0.80837 0.43372 0.74775 0.0
O122 O 0.75642 0.48069 0.71338 0.0
O123 O 0.71142 0.46562 0.70428 0.0
C124 C 0.37929 0.81412 0.76042 0.0
C125 C 0.35864 0.76355 0.87185 0.0
C126 C 0.45427 0.75715 0.9178 0.0
Mg127 Mg 0.37828 0.75002 0.78253 0.0
O128 O 0.41627 0.75903 0.79459 0.0
Mg129 Mg 0.42086 0.79002 0.83845 0.0
Mg130 Mg 0.4376 0.72791 0.82308 0.0
O131 O 0.45703 0.69686 0.85293 0.0
Mg132 Mg 0.48807 0.70071 0.88933 0.0
Mg133 Mg 0.45317 0.66562 0.81067 0.0
C134 C 0.40769 0.69377 0.74405 0.0
C135 C 0.39253 0.6791 0.85312 0.0
O136 O 0.39799 0.81877 0.78922 0.0
O137 O 0.36868 0.7895 0.75322 0.0
O138 O 0.37931 0.78103 0.87371 0.0
O139 O 0.35497 0.74734 0.84015 0.0
O140 O 0.38643 0.71084 0.74778 0.0
O141 O 0.43144 0.69793 0.76424 0.0
C142 C 0.48256 0.77744 0.79493 0.0
O143 O 0.47858 0.75045 0.79843 0.0
O144 O 0.46373 0.79565 0.80623 0.0
O145 O 0.47046 0.63492 0.8615 0.0
O146 O 0.48737 0.65889 0.91739 0.0
O147 O 0.50023 0.67463 0.79074 0.0
C148 C 0.4808 0.63554 0.8989 0.0
O149 O 0.522 0.69902 0.84292 0.0
O150 O 0.47255 0.7378 0.92761 0.0
C151 C 0.52246 0.68643 0.80694 0.0
O152 O 0.44252 0.75713 0.88126 0.0
O153 O 0.39823 0.70576 0.85027 0.0
O154 O 0.40898 0.66013 0.83747 0.0
C155 C 0.19032 0.88594 0.25833 0.0
C156 C 0.23829 0.86144 0.37042 0.0
C157 C 0.24933 0.95661 0.41926 0.0
Mg158 Mg 0.25412 0.8818 0.28196 0.0
O159 O 0.24654 0.9199 0.29516 0.0
Mg160 Mg 0.2153 0.92529 0.3384 0.0
Mg161 Mg 0.27827 0.93989 0.32447 0.0
O162 O 0.30987 0.95802 0.35526 0.0
Mg163 Mg 0.30634 0.98944 0.39104 0.0
Mg164 Mg 0.34093 0.95379 0.31286 0.0
C165 C 0.31159 0.90973 0.24513 0.0
C166 C 0.32548 0.89325 0.35414 0.0
O167 O 0.18609 0.90434 0.28774 0.0
O168 O 0.21457 0.87445 0.25132 0.0
O169 O 0.22177 0.88285 0.37274 0.0
O170 O 0.25481 0.85776 0.33904 0.0
O171 O 0.29396 0.8889 0.24805 0.0
O172 O 0.30807 0.9333 0.26599 0.0
C173 C 0.23075 0.98674 0.29643 0.0
O174 O 0.25752 0.98173 0.30035 0.0
O175 O 0.21173 0.96862 0.30715 0.0
O176 O 0.37209 0.97054 0.36392 0.0
O177 O 0.34826 0.98869 0.41909 0.0
O178 O 0.33286 1.00099 0.29311 0.0
C179 C 0.37156 0.98144 0.40102 0.0
O180 O 0.30801 0.02308 0.34446 0.0
O181 O 0.26907 0.97448 0.42912 0.0
C182 C 0.32098 0.02334 0.30881 0.0
O183 O 0.24894 0.94509 0.3825 0.0
O184 O 0.29902 0.89968 0.35049 0.0
O185 O 0.34514 0.9093 0.33947 0.0
C186 C 0.12463 0.69132 0.75838 0.0
C187 C 0.14703 0.74264 0.86911 0.0
C188 C 0.05071 0.74755 0.91836 0.0
Mg189 Mg 0.12573 0.75547 0.78046 0.0
O190 O 0.08806 0.7463 0.79446 0.0
Mg191 Mg 0.08438 0.71533 0.83833 0.0
Mg192 Mg 0.06675 0.77717 0.82367 0.0
O193 O 0.04724 0.80809 0.8542 0.0
Mg194 Mg 0.01599 0.80369 0.89017 0.0
Mg195 Mg 0.05068 0.83947 0.81211 0.0
C196 C 0.09518 0.81117 0.74309 0.0
C197 C 0.11169 0.82616 0.85348 0.0
O198 O 0.10661 0.68662 0.78809 0.0
O199 O 0.13495 0.71599 0.75077 0.0
O200 O 0.12649 0.72505 0.87206 0.0
O201 O 0.15003 0.75859 0.83704 0.0
O202 O 0.11663 0.79429 0.7455 0.0
O203 O 0.07211 0.80716 0.76499 0.0
C204 C 0.02198 0.72714 0.79638 0.0
O205 O 0.02584 0.7542 0.79947 0.0
O206 O 0.0411 0.70922 0.80764 0.0
O207 O 0.03314 0.87 0.86341 0.0
O208 O 0.01579 0.84565 0.91855 0.0
O209 O 0.00368 0.83036 0.79252 0.0
C210 C 0.02235 0.86915 0.90055 0.0
O211 O 0.98212 0.80484 0.84345 0.0
O212 O 0.03199 0.76655 0.9281 0.0
C213 C 0.98154 0.81802 0.80799 0.0
O214 O 0.06274 0.74796 0.88198 0.0
O215 O 0.10611 0.79951 0.85001 0.0
O216 O 0.09502 0.84519 0.83857 0.0
C217 C 0.31229 0.6263 0.25989 0.0
C218 C 0.26191 0.64726 0.37131 0.0
C219 C 0.25917 0.54812 0.41629 0.0
Mg220 Mg 0.24815 0.62583 0.28299 0.0
O221 O 0.25865 0.58828 0.29533 0.0
Mg222 Mg 0.28971 0.58494 0.33928 0.0
Mg223 Mg 0.22833 0.56565 0.32343 0.0
O224 O 0.19826 0.54456 0.35307 0.0
Mg225 Mg 0.20421 0.51231 0.3868 0.0
Mg226 Mg 0.16683 0.54763 0.31091 0.0
C227 C 0.19336 0.59407 0.2441 0.0
C228 C 0.17806 0.60876 0.35356 0.0
O229 O 0.31774 0.6081 0.28908 0.0
O230 O 0.2873 0.63616 0.2531 0.0
O231 O 0.27988 0.62699 0.3733 0.0
O232 O 0.24501 0.64975 0.34017 0.0
O233 O 0.20938 0.6161 0.24798 0.0
O234 O 0.19839 0.57058 0.26443 0.0
C235 C 0.27973 0.52244 0.29617 0.0
O236 O 0.25257 0.5256 0.29871 0.0
O237 O 0.29701 0.54194 0.30816 0.0
O238 O 0.13736 0.52879 0.36207 0.0
O239 O 0.16256 0.51112 0.41624 0.0
O240 O 0.17669 0.50117 0.2895 0.0
C241 C 0.13878 0.51762 0.39889 0.0
O242 O 0.20291 0.4791 0.33907 0.0
O243 O 0.24199 0.52744 0.42443 0.0
C244 C 0.18935 0.47891 0.30391 0.0
O245 O 0.25692 0.56239 0.38199 0.0
O246 O 0.20489 0.60415 0.35041 0.0
O247 O 0.15973 0.59145 0.33835 0.0
H248 H 0.6784 0.18158 0.29005 0.0
H249 H 0.68405 0.16286 0.36124 0.0
H250 H 0.59481 0.14168 0.36479 0.0
H251 H 0.58914 0.16002 0.29308 0.0
H252 H 0.61611 0.18551 0.42459 0.0
H253 H 0.67916 0.08557 0.42686 0.0
H254 H 0.6919 0.11253 0.39146 0.0
H255 H 0.65794 0.09621 0.38207 0.0
C256 C 0.66037 0.17148 0.30516 0.0
C257 C 0.63337 0.17219 0.28632 0.0
C258 C 0.66357 0.16093 0.34584 0.0
C259 C 0.63978 0.15114 0.36813 0.0
C260 C 0.61337 0.14911 0.34782 0.0
H261 H 0.6288 0.12807 0.6389 0.0
H262 H 0.61519 0.14313 0.56812 0.0
C263 C 0.61024 0.15928 0.30676 0.0
C264 C 0.64176 0.14815 0.41417 0.0
H265 H 0.67678 0.11189 0.49084 0.0
C266 C 0.62896 0.16917 0.43937 0.0
C267 C 0.65884 0.12706 0.43285 0.0
C268 C 0.67262 0.10389 0.40703 0.0
C269 C 0.63382 0.17027 0.48293 0.0
C270 C 0.65149 0.14954 0.50146 0.0
C271 C 0.66346 0.12798 0.47634 0.0
C272 C 0.65845 0.14951 0.54675 0.0
C273 C 0.62103 0.19414 0.50846 0.0
C274 C 0.68708 0.14972 0.55876 0.0
C275 C 0.69487 0.14054 0.59867 0.0
C276 C 0.67425 0.13141 0.62763 0.0
C277 C 0.64531 0.13496 0.61741 0.0
C278 C 0.63745 0.14363 0.57691 0.0
H279 H 0.61362 0.21189 0.48817 0.0
H280 H 0.60247 0.18593 0.52629 0.0
H281 H 0.63666 0.20257 0.53154 0.0
H282 H 0.70363 0.15405 0.53588 0.0
H283 H 0.7171 0.13702 0.60455 0.0
H284 H 0.8497 0.08259 0.79421 0.0
H285 H 0.86432 0.08639 0.86804 0.0
H286 H 0.84683 0.17638 0.86573 0.0
H287 H 0.83176 0.17263 0.79232 0.0
H288 H 0.90033 0.12683 0.92433 0.0
H289 H 0.78269 0.13393 0.93909 0.0
H290 H 0.80012 0.12053 0.89238 0.0
H291 H 0.79836 0.15814 0.90195 0.0
C292 C 0.85062 0.10345 0.80871 0.0
C293 C 0.83934 0.1273 0.78798 0.0
C294 C 0.85868 0.10552 0.85099 0.0
C295 C 0.85584 0.1315 0.87226 0.0
C296 C 0.84874 0.1561 0.84972 0.0
H297 H 0.86898 0.21199 0.09933 0.0
H298 H 0.85192 0.19419 0.03236 0.0
C299 C 0.84043 0.154 0.80774 0.0
C300 C 0.85509 0.13227 0.91859 0.0
H301 H 0.8097 0.14484 1.00051 0.0
C302 C 0.88055 0.1303 0.94118 0.0
C303 C 0.82904 0.13632 0.94022 0.0
C304 C 0.80092 0.13711 0.9173 0.0
C305 C 0.88085 0.13423 0.98497 0.0
C306 C 0.85499 0.14005 1.00619 0.0
C307 C 0.82937 0.14044 0.98389 0.0
C308 C 0.85514 0.14995 0.05011 0.0
C309 C 0.90891 0.13367 0.00811 0.0
C310 C 0.86004 0.13093 0.08321 0.0
C311 C 0.86882 0.14123 0.12241 0.0
C312 C 0.87341 0.17058 0.12833 0.0
C313 C 0.86497 0.18949 0.09649 0.0
C314 C 0.85568 0.17926 0.05773 0.0
H315 H 0.92718 0.12971 0.98668 0.0
H316 H 0.91236 0.15423 0.0246 0.0
H317 H 0.90852 0.1167 0.03236 0.0
H318 H 0.85949 0.10819 0.0777 0.0
H319 H 0.87498 0.12605 0.14637 0.0
H320 H 0.92059 0.34924 0.28901 0.0
H321 H 0.91765 0.3646 0.36262 0.0
H322 H 0.82848 0.34321 0.36469 0.0
H323 H 0.83135 0.32745 0.29147 0.0
H324 H 0.87705 0.39987 0.41905 0.0
H325 H 0.87462 0.28246 0.43896 0.0
H326 H 0.88654 0.29939 0.39106 0.0
H327 H 0.84918 0.29646 0.40213 0.0
C328 C 0.90001 0.34937 0.30441 0.0
C329 C 0.87624 0.33685 0.28494 0.0
C330 C 0.89846 0.35786 0.34658 0.0
C331 C 0.87305 0.35421 0.36904 0.0
C332 C 0.84835 0.34573 0.34777 0.0
H333 H 0.79661 0.3698 0.59873 0.0
H334 H 0.81351 0.35243 0.53146 0.0
C335 C 0.84994 0.33701 0.3059 0.0
C336 C 0.87319 0.35438 0.41541 0.0
H337 H 0.86386 0.31031 0.49967 0.0
C338 C 0.87465 0.38035 0.43685 0.0
C339 C 0.87053 0.32868 0.43827 0.0
C340 C 0.87038 0.30009 0.41656 0.0
C341 C 0.87156 0.38141 0.48075 0.0
C342 C 0.86711 0.35582 0.50327 0.0
C343 C 0.86723 0.32977 0.48207 0.0
C344 C 0.858 0.35655 0.54754 0.0
C345 C 0.87153 0.40991 0.50271 0.0
C346 C 0.87751 0.36219 0.57982 0.0
C347 C 0.86773 0.3711 0.61928 0.0
C348 C 0.83839 0.37508 0.62629 0.0
C349 C 0.81911 0.36615 0.59516 0.0
C350 C 0.82883 0.35671 0.5562 0.0
H351 H 0.87485 0.42783 0.48048 0.0
H352 H 0.85097 0.41313 0.51929 0.0
H353 H 0.88864 0.41046 0.52679 0.0
H354 H 0.90015 0.362 0.57347 0.0
H355 H 0.88321 0.37771 0.64259 0.0
H356 H 0.63817 0.29293 0.09935 0.0
H357 H 0.65429 0.30645 0.03015 0.0
H358 H 0.64427 0.39485 0.06325 0.0
H359 H 0.63022 0.38121 0.13451 0.0
H360 H 0.61132 0.33401 0.98676 0.0
H361 H 0.71223 0.3957 0.98107 0.0
H362 H 0.70326 0.37263 0.02453 0.0
H363 H 0.68692 0.40699 0.02016 0.0
C364 C 0.64172 0.31516 0.09348 0.0
C365 C 0.63317 0.33578 0.12289 0.0
C366 C 0.65034 0.32296 0.05328 0.0
C367 C 0.65008 0.35161 0.04144 0.0
C368 C 0.64478 0.37258 0.07191 0.0
H369 H 0.65947 0.42023 0.78756 0.0
H370 H 0.64096 0.41504 0.85928 0.0
C371 C 0.63669 0.36471 0.11267 0.0
C372 C 0.64954 0.35865 0.9962 0.0
H373 H 0.68514 0.39332 0.91826 0.0
C374 C 0.62744 0.34706 0.97177 0.0
C375 C 0.67031 0.37597 0.97706 0.0
C376 C 0.69468 0.38842 1.00188 0.0
C377 C 0.62605 0.35164 0.9283 0.0
C378 C 0.64723 0.36828 0.90896 0.0
C379 C 0.66875 0.38078 0.93353 0.0
C380 C 0.64983 0.36998 0.86284 0.0
C381 C 0.60233 0.33826 0.90317 0.0
C382 C 0.65926 0.34598 0.84064 0.0
C383 C 0.66993 0.34891 0.79996 0.0
C384 C 0.67111 0.37584 0.78105 0.0
C385 C 0.65838 0.39917 0.80131 0.0
C386 C 0.64811 0.39632 0.84238 0.0
H387 H 0.58416 0.33203 0.92355 0.0
H388 H 0.59459 0.35306 0.87847 0.0
H389 H 0.61046 0.31884 0.8873 0.0
H390 H 0.66094 0.32554 0.85617 0.0
H391 H 0.67988 0.33072 0.78499 0.0
H392 H 0.41833 0.84704 0.72121 0.0
H393 H 0.41289 0.86501 0.64929 0.0
H394 H 0.32325 0.84565 0.6535 0.0
H395 H 0.32867 0.82724 0.7249 0.0
H396 H 0.39076 0.82041 0.59151 0.0
H397 H 0.32975 0.92151 0.58442 0.0
H398 H 0.35087 0.91147 0.62962 0.0
H399 H 0.31655 0.89565 0.62126 0.0
C400 C 0.3972 0.84817 0.70765 0.0
C401 C 0.37389 0.83574 0.72826 0.0
C402 C 0.3942 0.85813 0.66647 0.0
C403 C 0.36774 0.8564 0.64626 0.0
C404 C 0.34378 0.84733 0.66882 0.0
H405 H 0.29065 0.86711 0.40948 0.0
H406 H 0.30382 0.85063 0.47856 0.0
C407 C 0.34685 0.83696 0.70962 0.0
C408 C 0.36586 0.85849 0.60013 0.0
H409 H 0.33145 0.89368 0.52179 0.0
C410 C 0.37821 0.83667 0.57596 0.0
C411 C 0.34919 0.8795 0.58046 0.0
C412 C 0.33597 0.90353 0.60515 0.0
C413 C 0.37328 0.83468 0.5325 0.0
C414 C 0.35596 0.85529 0.51302 0.0
C415 C 0.34446 0.87766 0.53705 0.0
C416 C 0.34906 0.85452 0.46775 0.0
C417 C 0.38562 0.81005 0.5081 0.0
C418 C 0.37019 0.85978 0.43754 0.0
C419 C 0.36249 0.86831 0.39693 0.0
C420 C 0.33361 0.87233 0.38669 0.0
C421 C 0.31284 0.86342 0.41553 0.0
C422 C 0.32045 0.85449 0.45563 0.0
H423 H 0.39279 0.79264 0.52921 0.0
H424 H 0.3698 0.80136 0.48551 0.0
H425 H 0.40426 0.81756 0.48978 0.0
H426 H 0.39243 0.86008 0.44641 0.0
H427 H 0.37913 0.87491 0.37545 0.0
H428 H 0.16045 0.92677 0.21788 0.0
H429 H 0.14258 0.92205 0.14569 0.0
H430 H 0.15623 0.83142 0.15115 0.0
H431 H 0.17456 0.83612 0.22275 0.0
H432 H 0.18519 0.89709 0.08774 0.0
H433 H 0.08085 0.84189 0.08241 0.0
H434 H 0.09241 0.86257 0.12733 0.0
H435 H 0.10589 0.82722 0.11925 0.0
C436 C 0.15809 0.90569 0.20447 0.0
C437 C 0.16881 0.88176 0.22559 0.0
C438 C 0.1482 0.90308 0.16315 0.0
C439 C 0.1483 0.87644 0.14328 0.0
C440 C 0.15578 0.85212 0.16621 0.0
H441 H 0.13594 0.79318 0.91293 0.0
H442 H 0.15268 0.80885 0.98087 0.0
C443 C 0.1661 0.85477 0.20713 0.0
C444 C 0.14592 0.87428 0.09717 0.0
H445 H 0.10919 0.84004 0.02006 0.0
C446 C 0.16833 0.88509 0.07261 0.0
C447 C 0.12404 0.85843 0.07799 0.0
C448 C 0.09927 0.84702 0.10299 0.0
C449 C 0.17015 0.87913 0.02938 0.0
C450 C 0.14882 0.8623 0.01059 0.0
C451 C 0.12576 0.85263 0.03486 0.0
C452 C 0.14979 0.8536 0.96599 0.0
C453 C 0.19533 0.88977 1.00455 0.0
C454 C 0.14518 0.87354 0.93391 0.0
C455 C 0.13678 0.86436 0.89386 0.0
C456 C 0.13226 0.83521 0.88605 0.0
C457 C 0.14033 0.81547 0.91694 0.0
C458 C 0.14928 0.82455 0.95642 0.0
H459 H 0.18849 0.90783 0.98449 0.0
H460 H 0.21279 0.89726 0.02537 0.0
H461 H 0.20368 0.87285 0.98348 0.0
H462 H 0.14532 0.8961 0.94083 0.0
H463 H 0.13074 0.88018 0.87077 0.0
H464 H 0.17411 0.67886 0.71888 0.0
H465 H 0.1769 0.66239 0.646 0.0
H466 H 0.08751 0.64189 0.64833 0.0
H467 H 0.08471 0.65788 0.72169 0.0
H468 H 0.12765 0.60593 0.59229 0.0
H469 H 0.13167 0.7232 0.57106 0.0
H470 H 0.15648 0.70905 0.6087 0.0
H471 H 0.11898 0.70665 0.61882 0.0
C472 C 0.15546 0.66931 0.70461 0.0
C473 C 0.12916 0.66987 0.72552 0.0
C474 C 0.157 0.66019 0.66294 0.0
C475 C 0.13222 0.65178 0.6418 0.0
C476 C 0.10677 0.64856 0.66429 0.0
H477 H 0.12329 0.62612 0.36869 0.0
H478 H 0.10588 0.64232 0.4373 0.0
C479 C 0.10528 0.65741 0.70629 0.0
C480 C 0.13209 0.65138 0.59545 0.0
H481 H 0.14237 0.6949 0.51083 0.0
C482 C 0.13037 0.62532 0.57429 0.0
C483 C 0.13513 0.67693 0.57234 0.0
C484 C 0.13542 0.70562 0.59374 0.0
C485 C 0.1336 0.624 0.53043 0.0
C486 C 0.13852 0.64941 0.50769 0.0
C487 C 0.13864 0.67558 0.5286 0.0
C488 C 0.14786 0.64836 0.46355 0.0
C489 C 0.13333 0.59538 0.50879 0.0
C490 C 0.17708 0.6484 0.4552 0.0
C491 C 0.18708 0.63872 0.41652 0.0
C492 C 0.16799 0.62934 0.38541 0.0
C493 C 0.13859 0.63308 0.39204 0.0
C494 C 0.12855 0.64227 0.43119 0.0
H495 H 0.13002 0.57759 0.53126 0.0
H496 H 0.11605 0.59482 0.48498 0.0
H497 H 0.15376 0.59193 0.49195 0.0
H498 H 0.19223 0.65304 0.48002 0.0
H499 H 0.20968 0.63534 0.41318 0.0
H500 H 0.32266 0.6762 0.22039 0.0
H501 H 0.33816 0.67965 0.14714 0.0
H502 H 0.36174 0.59104 0.1484 0.0
H503 H 0.34665 0.58757 0.22207 0.0
H504 H 0.39593 0.63135 0.09255 0.0
H505 H 0.27856 0.63378 0.07197 0.0
H506 H 0.29231 0.65959 0.10848 0.0
H507 H 0.29539 0.62234 0.1202 0.0
C508 C 0.33263 0.6579 0.20576 0.0
C509 C 0.33321 0.63157 0.22653 0.0
C510 C 0.34119 0.6598 0.16387 0.0
C511 C 0.3502 0.63537 0.14236 0.0
C512 C 0.35455 0.61002 0.16462 0.0
H513 H 0.37389 0.62483 0.86895 0.0
H514 H 0.35783 0.6082 0.93798 0.0
C515 C 0.34623 0.60816 0.20681 0.0
C516 C 0.35042 0.63538 0.09598 0.0
H517 H 0.30651 0.64476 0.01145 0.0
C518 C 0.37643 0.63383 0.07466 0.0
C519 C 0.32476 0.63811 0.07296 0.0
C520 C 0.29611 0.63829 0.09445 0.0
C521 C 0.37757 0.63689 0.03077 0.0
C522 C 0.35203 0.64142 0.00812 0.0
C523 C 0.32593 0.64137 0.02917 0.0
C524 C 0.35286 0.65044 0.96385 0.0
C525 C 0.40612 0.63678 0.00895 0.0
C526 C 0.35339 0.67959 0.95517 0.0
C527 C 0.36304 0.68912 0.91626 0.0
C528 C 0.3718 0.66969 0.88522 0.0
C529 C 0.36741 0.64042 0.89221 0.0
C530 C 0.3583 0.63083 0.93162 0.0
H531 H 0.424 0.63333 0.03125 0.0
H532 H 0.40661 0.61969 0.98479 0.0
H533 H 0.40948 0.65733 0.99249 0.0
H534 H 0.34928 0.69499 0.97988 0.0
H535 H 0.36707 0.71152 0.91274 0.0
H536 H 0.49921 0.37794 0.03595 0.0
H537 H 0.49197 0.42298 0.99879 0.0
H538 H 0.5277 0.46865 0.10408 0.0
H539 H 0.5353 0.424 0.14127 0.0
H540 H 0.45997 0.47127 0.02525 0.0
H541 H 0.57422 0.49721 1.00286 0.0
H542 H 0.56208 0.46202 0.01676 0.0
H543 H 0.56452 0.48932 0.05629 0.0
C544 C 0.5056 0.39754 0.05119 0.0
C545 C 0.51799 0.39728 0.09153 0.0
C546 C 0.50142 0.42324 0.02991 0.0
C547 C 0.50972 0.44903 0.04848 0.0
C548 C 0.52168 0.4489 0.0889 0.0
H549 H 0.50256 0.62701 0.97812 0.0
H550 H 0.50856 0.58166 0.01487 0.0
C551 C 0.52586 0.42331 0.11017 0.0
C552 C 0.5055 0.47623 0.02603 0.0
H553 H 0.54102 0.5337 0.98678 0.0
C554 C 0.47766 0.48487 0.01657 0.0
C555 C 0.52867 0.49389 0.01494 0.0
C556 C 0.55909 0.4851 0.02285 0.0
C557 C 0.47232 0.51106 0.99697 0.0
C558 C 0.49549 0.52876 0.98607 0.0
C559 C 0.52333 0.52008 0.99541 0.0
C560 C 0.49135 0.55616 0.96415 0.0
C561 C 0.44194 0.51987 0.98887 0.0
C562 C 0.47998 0.5567 0.92338 0.0
C563 C 0.47658 0.58248 0.90226 0.0
C564 C 0.48462 0.60826 0.92149 0.0
C565 C 0.49614 0.60759 0.96238 0.0
C566 C 0.49958 0.58173 0.98344 0.0
H567 H 0.42667 0.50739 0.00814 0.0
H568 H 0.43885 0.54284 0.99574 0.0
H569 H 0.43679 0.51623 0.95518 0.0
H570 H 0.47398 0.53712 0.9077 0.0
H571 H 0.46769 0.58212 0.8708 0.0
H572 H 0.62919 0.99941 0.53805 0.0
H573 H 0.58384 0.99279 0.50146 0.0
H574 H 0.53925 0.02858 0.60771 0.0
H575 H 0.58431 0.03557 0.64441 0.0
H576 H 0.53583 0.96095 0.52818 0.0
H577 H 0.50966 0.07526 0.50737 0.0
H578 H 0.54495 0.06309 0.52074 0.0
H579 H 0.51785 0.06519 0.56055 0.0
C580 C 0.60977 0.00598 0.55363 0.0
C581 C 0.61048 0.01815 0.59415 0.0
C582 C 0.58388 1.00214 0.53267 0.0
C583 C 0.55827 0.01058 0.55165 0.0
C584 C 0.55884 0.02244 0.59218 0.0
H585 H 0.38013 0.0043 0.47963 0.0
H586 H 0.4254 0.01052 0.51658 0.0
C587 C 0.58466 0.02626 0.61319 0.0
C588 C 0.53086 0.00646 0.52949 0.0
H589 H 0.47342 0.04209 0.49018 0.0
C590 C 0.52222 0.97867 0.51965 0.0
C591 C 0.51317 0.02964 0.51859 0.0
C592 C 0.52191 0.06001 0.52698 0.0
C593 C 0.49607 0.97339 0.49978 0.0
C594 C 0.47838 0.99658 0.48887 0.0
C595 C 0.48702 0.02437 0.49872 0.0
C596 C 0.45099 0.99249 0.46661 0.0
C597 C 0.48732 0.94302 0.49141 0.0
C598 C 0.45047 0.98061 0.42609 0.0
C599 C 0.42469 0.97702 0.40487 0.0
C600 C 0.39888 0.9854 0.42368 0.0
C601 C 0.39954 0.99754 0.46421 0.0
C602 C 0.42539 1.00114 0.48539 0.0
H603 H 0.4995 0.92779 0.51114 0.0
H604 H 0.46425 0.93996 0.49751 0.0
H605 H 0.49148 0.9378 0.45788 0.0
H606 H 0.47006 0.97431 0.4107 0.0
H607 H 0.42507 0.96772 0.37365 0.0
H608 H 0.9714 0.08266 0.1448 0.0
H609 H 0.97831 0.03744 0.1083 0.0
H610 H 0.0106 0.08192 0.99972 0.0
H611 H 0.00405 0.12737 0.03604 0.0
H612 H 0.95457 0.01929 0.03125 0.0
H613 H 0.07264 0.02242 0.02455 0.0
H614 H 0.05222 0.0453 0.05885 0.0
H615 H 0.05521 0.05337 1.00372 0.0
C616 C 0.98009 0.08292 0.11321 0.0
C617 C 0.98735 0.10873 0.0935 0.0
C618 C 0.98397 0.05701 0.0924 0.0
C619 C 0.99533 0.05632 0.05158 0.0
C620 C 1.00232 0.08197 0.03155 0.0
H621 H 0.034 0.92297 0.87274 0.0
H622 H 0.0266 0.96782 0.90988 0.0
C623 C 0.99843 0.10795 0.05233 0.0
C624 C 0.99938 0.02871 0.02979 0.0
H625 H 0.04991 0.9853 0.98683 0.0
C626 C 0.97541 0.01177 0.02167 0.0
C627 C 0.0266 0.019 0.01739 0.0
C628 C 0.05321 0.0358 0.02683 0.0
C629 C 0.97787 0.98556 1.0007 0.0
C630 C 0.00509 0.97588 0.98822 0.0
C631 C 0.02907 0.9928 0.99644 0.0
C632 C 0.00917 0.94844 0.96596 0.0
C633 C 0.95126 0.96879 0.99117 0.0
C634 C 1.00206 0.92259 0.98537 0.0
C635 C 0.00623 0.8968 0.96419 0.0
C636 C 0.01773 0.89639 0.92326 0.0
C637 C 0.02502 0.92239 0.90414 0.0
C638 C 0.02085 0.94811 0.92533 0.0
H639 H 0.93183 0.98217 0.99356 0.0
H640 H 0.95224 0.95939 0.9591 0.0
H641 H 0.94926 0.95116 0.01418 0.0
H642 H 0.99352 0.92235 0.01705 0.0
H643 H 1.00053 0.87721 0.97999 0.0
H644 H 0.92573 0.47373 0.6466 0.0
H645 H 0.97109 0.47969 0.61038 0.0
H646 H 0.92726 0.51076 0.50041 0.0
H647 H 0.88159 0.50517 0.5365 0.0
H648 H 0.98888 0.4542 0.53489 0.0
H649 H 0.98784 0.57205 0.52294 0.0
H650 H 0.96444 0.55278 0.55783 0.0
H651 H 0.95663 0.55483 0.50251 0.0
C652 C 0.92562 0.48199 0.61477 0.0
C653 C 0.89993 0.48913 0.59456 0.0
C654 C 0.95162 0.48533 0.59413 0.0
C655 C 0.95254 0.496 0.55298 0.0
C656 C 0.92702 0.503 0.5325 0.0
H657 H 0.08468 0.52771 0.37125 0.0
H658 H 0.04028 0.52154 0.40976 0.0
C659 C 0.90093 0.49968 0.55314 0.0
C660 C 0.98022 0.4991 0.53124 0.0
H661 H 0.02447 0.54785 0.48604 0.0
C662 C 0.99677 0.47467 0.52437 0.0
C663 C 0.99041 0.52586 0.5177 0.0
C664 C 0.97408 0.55295 0.52588 0.0
C665 C 0.02301 0.4762 0.5034 0.0
C666 C 0.03309 0.50294 0.48959 0.0
C667 C 0.01663 0.52738 0.4967 0.0
C668 C 0.06029 0.50596 0.46653 0.0
C669 C 0.03939 0.44915 0.49521 0.0
C670 C 0.08632 0.49935 0.48583 0.0
C671 C 0.1119 0.5028 0.46385 0.0
C672 C 0.11184 0.51307 0.42224 0.0
C673 C 0.08562 0.51969 0.40318 0.0
C674 C 0.06016 0.51624 0.42514 0.0
H675 H 0.0259 0.42995 0.49937 0.0
H676 H 0.04828 0.44901 0.4628 0.0
H677 H 0.0574 0.44775 0.5177 0.0
H678 H 0.08688 0.49185 0.51806 0.0
H679 H 0.13168 0.49769 0.47961 0.0
H680 H 0.69794 0.2716 0.13682 0.0
H681 H 0.72839 0.27861 0.07649 0.0
H682 H 0.67254 0.22715 0.99983 0.0
H683 H 0.6415 0.21988 0.06118 0.0
H684 H 0.72742 0.2104 0.99228 0.0
H685 H 0.73206 0.32523 0.97111 0.0
H686 H 0.72305 0.31916 0.02517 0.0
H687 H 0.69939 0.3068 0.98428 0.0
C688 C 0.69189 0.26188 0.10719 0.0
C689 C 0.6674 0.24504 0.10397 0.0
C690 C 0.70903 0.26642 0.07225 0.0
C691 C 0.70216 0.2544 0.03295 0.0
C692 C 0.67782 0.23729 0.02948 0.0
H693 H 0.8655 0.29071 0.06139 0.0
H694 H 0.83341 0.28575 1.00081 0.0
C695 C 0.66042 0.23279 0.06473 0.0
C696 C 0.72376 0.25594 0.9991 0.0
H697 H 0.7788 0.30224 0.99755 0.0
C698 C 0.73847 0.23062 0.99054 0.0
C699 C 0.73798 0.28202 0.99233 0.0
C700 C 0.72207 0.30982 0.99308 0.0
C701 C 0.76829 0.23076 0.98981 0.0
C702 C 0.78253 0.25646 0.99929 0.0
C703 C 0.7678 0.28215 0.99355 0.0
C704 C 0.80497 0.25637 0.03202 0.0
C705 C 0.78407 0.20295 0.98768 0.0
C706 C 0.79929 0.2421 0.07002 0.0
C707 C 0.81708 0.24525 0.10462 0.0
C708 C 0.84106 0.26289 0.10234 0.0
C709 C 0.84703 0.27707 0.06423 0.0
C710 C 0.82899 0.27399 0.02938 0.0
H711 H 0.77455 0.18909 0.9631 0.0
H712 H 0.80699 0.20624 0.9807 0.0
H713 H 0.78205 0.19167 0.01822 0.0
H714 H 0.78024 0.22936 0.07372 0.0
H715 H 0.81181 0.23402 0.13335 0.0
H716 H 0.77625 0.31278 0.63349 0.0
H717 H 0.78093 0.28014 0.57519 0.0
H718 H 0.72293 0.33076 0.50115 0.0
H719 H 0.71807 0.36411 0.56035 0.0
H720 H 0.70725 0.27618 0.50071 0.0
H721 H 0.82012 0.27239 0.46422 0.0
H722 H 0.81807 0.28074 0.51913 0.0
H723 H 0.80285 0.30495 0.48113 0.0
C724 C 0.7647 0.31732 0.60476 0.0
C725 C 0.74664 0.34095 0.60181 0.0
C726 C 0.76786 0.29889 0.57088 0.0
C727 C 0.75312 0.30353 0.53295 0.0
C728 C 0.73509 0.3272 0.52962 0.0
H729 H 0.79005 0.13867 0.56323 0.0
H730 H 0.78247 0.17013 0.5025 0.0
C731 C 0.73205 0.34595 0.56371 0.0
C732 C 0.75301 0.28035 0.50132 0.0
H733 H 0.79956 0.22557 0.49551 0.0
C734 C 0.72741 0.26529 0.49673 0.0
C735 C 0.77878 0.26618 0.49202 0.0
C736 C 0.80643 0.28217 0.48878 0.0
C737 C 0.72781 0.23547 0.49651 0.0
C738 C 0.7541 0.22157 0.50305 0.0
C739 C 0.77922 0.2364 0.49377 0.0
C740 C 0.7561 0.19996 0.53674 0.0
C741 C 0.70016 0.21933 0.49812 0.0
C742 C 0.74474 0.20687 0.57645 0.0
C743 C 0.74947 0.18949 0.61105 0.0
C744 C 0.76582 0.16472 0.60703 0.0
C745 C 0.7775 0.15778 0.56739 0.0
C746 C 0.77283 0.17543 0.53251 0.0
H747 H 0.68408 0.22947 0.47735 0.0
H748 H 0.70321 0.19685 0.48832 0.0
H749 H 0.69164 0.21968 0.53072 0.0
H750 H 0.73285 0.22636 0.58118 0.0
H751 H 0.74021 0.19552 0.64101 0.0
H752 H 0.36858 0.78088 0.9526 0.0
H753 H 0.33606 0.77734 0.01325 0.0
H754 H 0.27502 0.73406 0.93437 0.0
H755 H 0.3066 0.73844 0.87429 0.0
H756 H 0.2799 0.80208 0.01213 0.0
H757 H 0.26897 0.68837 0.04431 0.0
H758 H 0.30291 0.70497 0.03257 0.0
H759 H 0.28 0.69283 0.99066 0.0
C760 C 0.34798 0.77101 0.94841 0.0
C761 C 0.33961 0.76084 0.90854 0.0
C762 C 0.32983 0.76842 0.98317 0.0
C763 C 0.30348 0.7549 0.97858 0.0
C764 C 0.29565 0.74387 0.93902 0.0
H765 H 0.19873 0.76852 0.86982 0.0
H766 H 0.2295 0.77673 0.92996 0.0
C767 C 0.31351 0.74678 0.90443 0.0
C768 C 0.28142 0.75622 0.0116 0.0
H769 H 0.22418 0.71282 0.01715 0.0
C770 C 0.26782 0.78262 0.01619 0.0
C771 C 0.26589 0.73128 0.02062 0.0
C772 C 0.28039 0.70278 0.02239 0.0
C773 C 0.23803 0.78391 0.01552 0.0
C774 C 0.22274 0.75838 0.00937 0.0
C775 C 0.23613 0.73253 0.019 0.0
C776 C 0.20119 0.75721 0.97559 0.0
C777 C 0.22352 0.81238 0.01234 0.0
C778 C 0.17539 0.74277 0.98084 0.0
C779 C 0.15785 0.73767 0.946 0.0
C780 C 0.16617 0.74649 0.90546 0.0
C781 C 0.19185 0.76122 0.90052 0.0
C782 C 0.20918 0.76642 0.93515 0.0
H783 H 0.2342 0.8282 0.03299 0.0
H784 H 0.22495 0.82025 0.97946 0.0
H785 H 0.20071 0.8108 0.0212 0.0
H786 H 0.16911 0.73518 0.01165 0.0
H787 H 0.13762 0.72718 0.95074 0.0
H788 H 0.21684 0.86875 0.45043 0.0
H789 H 0.22396 0.83747 0.51148 0.0
H790 H 0.27209 0.7798 0.43304 0.0
H791 H 0.26509 0.81042 0.37287 0.0
H792 H 0.20621 0.78131 0.51918 0.0
H793 H 0.30223 0.81016 0.52898 0.0
H794 H 0.31376 0.78929 0.48439 0.0
H795 H 0.32172 0.77732 0.53668 0.0
C796 C 0.22891 0.84934 0.44638 0.0
C797 C 0.24036 0.84197 0.40675 0.0
C798 C 0.23333 0.8318 0.48144 0.0
C799 C 0.24957 0.80694 0.47735 0.0
C800 C 0.26056 0.79953 0.4376 0.0
H801 H 0.22501 0.69157 0.37995 0.0
H802 H 0.22064 0.72404 0.43855 0.0
C803 C 0.25606 0.81679 0.40283 0.0
C804 C 0.25161 0.78566 0.51143 0.0
H805 H 0.29882 0.73154 0.51014 0.0
C806 C 0.22659 0.7705 0.51997 0.0
C807 C 0.27793 0.77178 0.51749 0.0
C808 C 0.30544 0.78817 0.51707 0.0
C809 C 0.22717 0.74069 0.51958 0.0
C810 C 0.25299 0.72698 0.509 0.0
C811 C 0.27853 0.74204 0.51478 0.0
C812 C 0.25308 0.70383 0.47714 0.0
C813 C 0.19966 0.7245 0.52329 0.0
C814 C 0.27379 0.68233 0.47765 0.0
C815 C 0.27709 0.66429 0.44289 0.0
C816 C 0.25947 0.66712 0.4073 0.0
C817 C 0.23878 0.68858 0.40693 0.0
C818 C 0.23576 0.70676 0.44121 0.0
H819 H 0.18751 0.73241 0.55091 0.0
H820 H 0.18632 0.72837 0.49502 0.0
H821 H 0.20333 0.70128 0.52678 0.0
H822 H 0.288 0.68008 0.5043 0.0
H823 H 0.29372 0.64842 0.44359 0.0
H824 H 0.54412 0.25246 0.01044 0.0
H825 H 0.56428 0.22175 0.95567 0.0
H826 H 0.60031 0.16754 0.05102 0.0
H827 H 0.57983 0.19782 0.10583 0.0
H828 H 0.62203 0.21034 0.94252 0.0
H829 H 0.56406 0.10944 0.97122 0.0
H830 H 0.55226 0.14308 0.99249 0.0
H831 H 0.58122 0.1243 0.01677 0.0
C832 C 0.55582 0.23369 0.01993 0.0
C833 C 0.56026 0.22785 0.06298 0.0
C834 C 0.56756 0.21618 0.9884 0.0
C835 C 0.58375 0.19202 0.99885 0.0
C836 C 0.58759 0.18569 0.04178 0.0
H837 H 0.68938 0.07414 0.85014 0.0
H838 H 0.66006 0.09602 0.90567 0.0
C839 C 0.57602 0.20331 0.07333 0.0
C840 C 0.5979 0.17459 0.96495 0.0
H841 H 0.60223 0.1076 0.92222 0.0
C842 C 0.61748 0.18793 0.93797 0.0
C843 C 0.59245 0.14516 0.95907 0.0
C844 C 0.57119 0.12961 0.98614 0.0
C845 C 0.6318 0.17284 0.90585 0.0
C846 C 0.62599 0.1435 0.89937 0.0
C847 C 0.60664 0.13004 0.92668 0.0
C848 C 0.64002 0.12675 0.86457 0.0
C849 C 0.65369 0.18842 0.87986 0.0
C850 C 0.63743 0.13536 0.82232 0.0
C851 C 0.65397 0.12266 0.79057 0.0
C852 C 0.67317 0.10057 0.79991 0.0
C853 C 0.67415 0.09042 0.84157 0.0
C854 C 0.65764 0.10326 0.8735 0.0
H855 H 0.66144 0.20788 0.89612 0.0
H856 H 0.67224 0.17459 0.87279 0.0
H857 H 0.64394 0.19503 0.8496 0.0
H858 H 0.62364 0.15295 0.81414 0.0
H859 H 0.65322 0.13148 0.75907 0.0
H860 H 0.75428 0.04374 0.51081 0.0
H861 H 0.78448 0.06426 0.45586 0.0
H862 H 0.84125 0.09705 0.55071 0.0
H863 H 0.81144 0.0762 0.60571 0.0
H864 H 0.79698 0.12185 0.44484 0.0
H865 H 0.89707 0.06115 0.46712 0.0
H866 H 0.86356 0.0497 0.48919 0.0
H867 H 0.88341 0.0778 0.5139 0.0
C868 C 0.7735 0.0548 0.52012 0.0
C869 C 0.78019 0.05823 0.56312 0.0
C870 C 0.79072 0.06674 0.4885 0.0
C871 C 0.81545 0.08214 0.49876 0.0
C872 C 0.82264 0.08496 0.54159 0.0
H873 H 0.93241 0.18726 0.34721 0.0
H874 H 0.91124 0.15808 0.40346 0.0
C875 C 0.80529 0.07318 0.57326 0.0
C876 C 0.83259 0.09652 0.46483 0.0
H877 H 0.89879 0.0999 0.41932 0.0
C878 C 0.81919 0.11685 0.43918 0.0
C879 C 0.86177 0.09048 0.45749 0.0
C880 C 0.87734 0.06844 0.48309 0.0
C881 C 0.83396 0.13128 0.40691 0.0
C882 C 0.863 0.12485 0.39892 0.0
C883 C 0.87657 0.1048 0.42495 0.0
C884 C 0.87925 0.13878 0.36359 0.0
C885 C 0.81837 0.15387 0.3823 0.0
C886 C 0.86965 0.13653 0.32176 0.0
C887 C 0.88192 0.15296 0.28962 0.0
C888 C 0.90453 0.17175 0.29811 0.0
C889 C 0.91565 0.17237 0.33927 0.0
C890 C 0.90324 0.15595 0.37162 0.0
H891 H 0.79946 0.16187 0.39968 0.0
H892 H 0.83252 0.17215 0.37515 0.0
H893 H 0.81088 0.14468 0.35207 0.0
H894 H 0.85164 0.12308 0.31426 0.0
H895 H 0.87241 0.15245 0.25854 0.0
H896 H 0.8571 0.37471 0.75698 0.0
H897 H 0.88636 0.35353 0.81252 0.0
H898 H 0.84925 0.41075 0.90334 0.0
H899 H 0.82019 0.43232 0.84733 0.0
H900 H 0.90766 0.39889 0.92003 0.0
H901 H 0.84695 0.29933 0.89456 0.0
H902 H 0.86455 0.31192 0.848 0.0
H903 H 0.83653 0.33273 0.87131 0.0
C904 C 0.85614 0.38367 0.78842 0.0
C905 C 0.83679 0.40569 0.79746 0.0
C906 C 0.87251 0.37115 0.82042 0.0
C907 C 0.86961 0.37993 0.86258 0.0
C908 C 0.85188 0.4034 0.87122 0.0
H909 H 0.92888 0.30949 0.10421 0.0
H910 H 0.90886 0.3398 0.04926 0.0
C911 C 0.83553 0.41605 0.83903 0.0
C912 C 0.8833 0.36323 0.89757 0.0
H913 H 0.88615 0.29661 0.94123 0.0
C914 C 0.90288 0.37656 0.9247 0.0
C915 C 0.87701 0.33405 0.90427 0.0
C916 C 0.85491 0.31868 0.87831 0.0
C917 C 0.91684 0.3614 0.95718 0.0
C918 C 0.91089 0.3321 0.9633 0.0
C919 C 0.89106 0.31892 0.93649 0.0
C920 C 0.92476 0.31462 0.99725 0.0
C921 C 0.9384 0.37674 0.98404 0.0
C922 C 0.94041 0.29007 0.98693 0.0
C923 C 0.95183 0.27251 0.01854 0.0
C924 C 0.94762 0.27873 0.06155 0.0
C925 C 0.93244 0.30368 0.07176 0.0
C926 C 0.92116 0.32133 0.04012 0.0
H927 H 0.94591 0.39665 0.96885 0.0
H928 H 0.92847 0.38249 0.0146 0.0
H929 H 0.95707 0.36297 0.99055 0.0
H930 H 0.94349 0.28422 0.95423 0.0
H931 H 0.96312 0.25344 0.00916 0.0
H932 H 0.70019 0.4287 0.60223 0.0
H933 H 0.6704 0.40889 0.54635 0.0
H934 H 0.72424 0.44787 0.45307 0.0
H935 H 0.75453 0.4673 0.50886 0.0
H936 H 0.63925 0.43323 0.47887 0.0
H937 H 0.72546 0.36333 0.41997 0.0
H938 H 0.72788 0.38206 0.46948 0.0
H939 H 0.7349 0.40033 0.42089 0.0
C940 C 0.70583 0.43313 0.56998 0.0
C941 C 0.73022 0.44938 0.56048 0.0
C942 C 0.68855 0.42187 0.53785 0.0
C943 C 0.69522 0.42634 0.49521 0.0
C944 C 0.71881 0.44358 0.48559 0.0
H945 H 0.63577 0.35703 0.25637 0.0
H946 H 0.65639 0.38707 0.31151 0.0
C947 C 0.73602 0.45496 0.51771 0.0
C948 C 0.67814 0.41231 0.46093 0.0
H949 H 0.68355 0.36557 0.37849 0.0
C950 C 0.64893 0.41839 0.45696 0.0
C951 C 0.69054 0.39272 0.43234 0.0
C952 C 0.72134 0.38395 0.43599 0.0
C953 C 0.63213 0.40614 0.42468 0.0
C954 C 0.64464 0.38678 0.39578 0.0
C955 C 0.6738 0.38054 0.40014 0.0
C956 C 0.62823 0.37249 0.36088 0.0
C957 C 0.60129 0.41462 0.42125 0.0
C958 C 0.60455 0.35495 0.36929 0.0
C959 C 0.59231 0.3381 0.33728 0.0
C960 C 0.60349 0.33831 0.29617 0.0
C961 C 0.62609 0.35701 0.28735 0.0
C962 C 0.63819 0.37391 0.31914 0.0
H963 H 0.59708 0.43522 0.43727 0.0
H964 H 0.59462 0.41638 0.38781 0.0
H965 H 0.58793 0.39816 0.43658 0.0
H966 H 0.59671 0.35279 0.40118 0.0
H967 H 0.57572 0.32312 0.34553 0.0
H968 H 0.45407 0.75117 1.00356 0.0
H969 H 0.43469 0.78341 0.05678 0.0
H970 H 0.41513 0.84457 0.95998 0.0
H971 H 0.43333 0.81174 0.90649 0.0
H972 H 0.44699 0.83255 0.08603 0.0
H973 H 0.34036 0.84526 0.01403 0.0
H974 H 0.36636 0.82118 0.99293 0.0
H975 H 0.36834 0.85849 0.98103 0.0
C976 C 0.44576 0.77154 0.9935 0.0
C977 C 0.44514 0.77857 0.95039 0.0
C978 C 0.43453 0.79008 0.02414 0.0
C979 C 0.42254 0.81648 0.01291 0.0
C980 C 0.42307 0.82407 0.96993 0.0
H981 H 0.32874 0.93932 0.17464 0.0
H982 H 0.3595 0.92079 0.118 0.0
C983 C 0.4338 0.80525 0.93913 0.0
C984 C 0.40992 0.83575 0.04639 0.0
H985 H 0.34968 0.87242 0.07489 0.0
C986 C 0.42567 0.84118 0.08333 0.0
C987 C 0.38219 0.84779 0.04341 0.0
C988 C 0.36321 0.84274 1.00589 0.0
C989 C 0.41454 0.85747 0.11701 0.0
C990 C 0.38652 0.86854 0.11453 0.0
C991 C 0.37114 0.86407 0.07713 0.0
C992 C 0.3718 0.88256 0.15134 0.0
C993 C 0.43315 0.86277 0.15492 0.0
C994 C 0.36888 0.86791 0.18967 0.0
C995 C 0.35156 0.87862 0.22202 0.0
C996 C 0.3366 0.90437 0.21726 0.0
C997 C 0.34063 0.91991 0.17991 0.0
C998 C 0.35792 0.90905 0.14723 0.0
H999 H 0.45605 0.86233 0.14628 0.0
H1000 H 0.4283 0.88357 0.16989 0.0
H1001 H 0.42949 0.84571 0.17841 0.0
H1002 H 0.37854 0.84719 0.19372 0.0
H1003 H 0.34836 0.86575 0.2499 0.0
H1004 H 0.07344 0.8189 0.66395 0.0
H1005 H 0.09523 0.84809 0.60833 0.0
H1006 H 0.15136 0.88572 0.70006 0.0
H1007 H 0.12985 0.85642 0.75529 0.0
H1008 H 0.10696 0.90704 0.59218 0.0
H1009 H 0.20638 0.8462 0.61835 0.0
H1010 H 0.17276 0.83562 0.64083 0.0
H1011 H 0.19324 0.8636 0.66483 0.0
C1012 C 0.08944 0.83443 0.67256 0.0
C1013 C 0.09934 0.83584 0.71437 0.0
C1014 C 0.10225 0.85085 0.64056 0.0
C1015 C 0.12551 0.86877 0.64956 0.0
C1016 C 0.13387 0.87178 0.69189 0.0
H1017 H 0.25374 0.96153 0.50513 0.0
H1018 H 0.22259 0.94162 0.55935 0.0
C1019 C 0.12114 0.85539 0.72372 0.0
C1020 C 0.14244 0.88253 0.61478 0.0
H1021 H 0.2093 0.88525 0.57161 0.0
C1022 C 0.12931 0.9022 0.58765 0.0
C1023 C 0.17165 0.87618 0.60825 0.0
C1024 C 0.18684 0.85406 0.63428 0.0
C1025 C 0.14469 0.91622 0.5554 0.0
C1026 C 0.17401 0.91018 0.54938 0.0
C1027 C 0.18698 0.89024 0.57619 0.0
C1028 C 0.19179 0.92421 0.51577 0.0
C1029 C 0.12951 0.93797 0.52874 0.0
C1030 C 0.18503 0.9215 0.47275 0.0
C1031 C 0.20292 0.93297 0.44147 0.0
C1032 C 0.22817 0.94748 0.45218 0.0
C1033 C 0.23445 0.9508 0.49535 0.0
C1034 C 0.21667 0.93919 0.52657 0.0
H1035 H 0.10972 0.94567 0.54412 0.0
H1036 H 0.14346 0.9565 0.52219 0.0
H1037 H 0.12356 0.92813 0.4982 0.0
H1038 H 0.16634 0.9097 0.46317 0.0
H1039 H 0.19707 0.93006 0.40887 0.0
H1040 H 0.15111 0.63262 0.25239 0.0
H1041 H 0.12123 0.65162 0.1962 0.0
H1042 H 0.15172 0.5863 0.11216 0.0
H1043 H 0.18211 0.56744 0.16877 0.0
H1044 H 0.15823 0.63793 0.07789 0.0
H1045 H 0.04816 0.63276 0.13766 0.0
H1046 H 0.0714 0.64978 0.17468 0.0
H1047 H 0.07682 0.6129 0.16145 0.0
C1048 C 0.15041 0.62143 0.22254 0.0
C1049 C 0.16846 0.59797 0.21557 0.0
C1050 C 0.1333 0.63244 0.19016 0.0
C1051 C 0.13371 0.6204 0.14957 0.0
C1052 C 0.15067 0.59599 0.14309 0.0
H1053 H 0.0762 0.69492 0.90652 0.0
H1054 H 0.09481 0.6624 0.95974 0.0
C1055 C 0.16776 0.58485 0.17573 0.0
C1056 C 0.11933 0.63537 0.11329 0.0
H1057 H 0.0567 0.66635 0.08201 0.0
C1058 C 0.13589 0.64372 0.07856 0.0
C1059 C 0.0902 0.64333 0.11384 0.0
C1060 C 0.07055 0.63397 0.14872 0.0
C1061 C 0.1247 0.6606 0.0457 0.0
C1062 C 0.09568 0.66919 0.04659 0.0
C1063 C 0.07893 0.6602 0.08091 0.0
C1064 C 0.08262 0.68824 0.01332 0.0
C1065 C 0.14472 0.67021 0.01151 0.0
C1066 C 0.06793 0.7132 0.02485 0.0
C1067 C 0.0567 0.7317 0.99416 0.0
C1068 C 0.05987 0.72599 0.95079 0.0
C1069 C 0.07374 0.70054 0.9393 0.0
C1070 C 0.08465 0.68186 0.97001 0.0
H1071 H 0.16729 0.66947 0.02188 0.0
H1072 H 0.1425 0.656 0.98378 0.0
H1073 H 0.13972 0.69219 1.00177 0.0
H1074 H 0.06572 0.71884 0.05777 0.0
H1075 H 0.04633 0.75105 1.00453 0.0
H1076 H 0.36211 0.65908 0.74741 0.0
H1077 H 0.34405 0.62819 0.69205 0.0
H1078 H 0.42102 0.64121 0.62076 0.0
H1079 H 0.43889 0.67327 0.67637 0.0
H1080 H 0.37732 0.6495 0.57147 0.0
H1081 H 0.35483 0.54908 0.65356 0.0
H1082 H 0.33782 0.5778 0.68075 0.0
H1083 H 0.37613 0.57672 0.67727 0.0
C1084 C 0.37574 0.65455 0.72069 0.0
C1085 C 0.40222 0.66836 0.71684 0.0
C1086 C 0.36532 0.6367 0.68882 0.0
C1087 C 0.38111 0.63172 0.65192 0.0
C1088 C 0.40832 0.64438 0.64884 0.0
H1089 H 0.30051 0.51822 0.46025 0.0
H1090 H 0.33298 0.53681 0.51487 0.0
C1091 C 0.41881 0.66242 0.68099 0.0
C1092 C 0.3677 0.616 0.61538 0.0
H1093 H 0.32683 0.55783 0.5906 0.0
C1094 C 0.36671 0.62921 0.57567 0.0
C1095 C 0.35404 0.5892 0.61988 0.0
C1096 C 0.35604 0.57227 0.66008 0.0
C1097 C 0.35154 0.6173 0.54149 0.0
C1098 C 0.33593 0.59167 0.54702 0.0
C1099 C 0.33814 0.57769 0.58606 0.0
C1100 C 0.31642 0.57983 0.51343 0.0
C1101 C 0.35264 0.6325 0.49969 0.0
C1102 C 0.29564 0.59725 0.49475 0.0
C1103 C 0.27783 0.58689 0.46272 0.0
C1104 C 0.27938 0.55841 0.44936 0.0
C1105 C 0.29911 0.54039 0.46932 0.0
C1106 C 0.31761 0.55105 0.50071 0.0
H1107 H 0.37294 0.64434 0.49601 0.0
H1108 H 0.35045 0.6175 0.47284 0.0
H1109 H 0.33511 0.64826 0.49825 0.0
H1110 H 0.29293 0.61894 0.50539 0.0
H1111 H 0.26213 0.60103 0.44915 0.0
H1112 H 0.47153 0.24105 0.18911 0.0
H1113 H 0.42873 0.21228 0.20098 0.0
H1114 H 0.4734 0.16426 0.29606 0.0
H1115 H 0.51647 0.19175 0.28216 0.0
H1116 H 0.45287 0.13011 0.24126 0.0
H1117 H 0.3662 0.20441 0.28465 0.0
H1118 H 0.3831 0.21351 0.23584 0.0
H1119 H 0.40309 0.21502 0.28415 0.0
C1120 C 0.47177 0.22496 0.2135 0.0
C1121 C 0.49713 0.21859 0.2349 0.0
C1122 C 0.44728 0.20853 0.22036 0.0
C1123 C 0.44766 0.18602 0.24955 0.0
C1124 C 0.47251 0.18133 0.27321 0.0
H1125 H 0.31998 0.07526 0.3475 0.0
H1126 H 0.34707 0.11698 0.32648 0.0
C1127 C 0.49708 0.19716 0.26554 0.0
C1128 C 0.42398 0.16495 0.25186 0.0
H1129 H 0.35247 0.15687 0.26801 0.0
C1130 C 0.43094 0.13606 0.24727 0.0
C1131 C 0.39528 0.17257 0.25955 0.0
C1132 C 0.38647 0.20304 0.26674 0.0
C1133 C 0.41046 0.11459 0.25143 0.0
C1134 C 0.38161 0.12213 0.25823 0.0
C1135 C 0.37444 0.15107 0.26204 0.0
C1136 C 0.35945 0.10003 0.26578 0.0
C1137 C 0.4204 0.08402 0.25064 0.0
C1138 C 0.35548 0.07738 0.2374 0.0
C1139 C 0.34045 0.05305 0.24975 0.0
C1140 C 0.3284 0.05135 0.29022 0.0
C1141 C 0.32913 0.07566 0.31619 0.0
C1142 C 0.34472 0.09965 0.30422 0.0
H1143 H 0.44367 0.08225 0.25619 0.0
H1144 H 0.4093 0.07119 0.27493 0.0
H1145 H 0.41585 0.07466 0.21926 0.0
H1146 H 0.36571 0.07763 0.20685 0.0
H1147 H 0.33992 0.0349 0.22871 0.0
H1148 H 0.75643 0.96705 0.71413 0.0
H1149 H 0.77993 0.92142 0.72997 0.0
H1150 H 0.85389 0.96668 0.77434 0.0
H1151 H 0.83086 0.0118 0.7587 0.0
H1152 H 0.83316 0.90345 0.69325 0.0
H1153 H 0.83995 0.90717 0.86692 0.0
H1154 H 0.81489 0.92845 0.83745 0.0
H1155 H 0.85123 0.93991 0.84322 0.0
C1156 C 0.77742 0.96718 0.72821 0.0
C1157 C 0.79181 0.99301 0.73515 0.0
C1158 C 0.79087 0.94114 0.73698 0.0
C1159 C 0.8186 0.94065 0.75366 0.0
C1160 C 0.83238 0.96648 0.76211 0.0
H1161 H 0.97025 0.851 0.73883 0.0
H1162 H 0.92522 0.87373 0.7221 0.0
C1163 C 0.81919 0.9923 0.75295 0.0
C1164 C 0.83455 0.91363 0.75939 0.0
H1165 H 0.87585 0.87919 0.83142 0.0
C1166 C 0.84197 0.89765 0.72362 0.0
C1167 C 0.84575 0.90577 0.79902 0.0
C1168 C 0.83731 0.92106 0.83891 0.0
C1169 C 0.86199 0.87544 0.726 0.0
C1170 C 0.87522 0.86936 0.76504 0.0
C1171 C 0.86604 0.8839 0.80131 0.0
C1172 C 0.90073 0.85065 0.76861 0.0
C1173 C 0.86931 0.85925 0.68643 0.0
C1174 C 0.90207 0.82937 0.79956 0.0
C1175 C 0.92804 0.81636 0.80952 0.0
C1176 C 0.95331 0.82463 0.78902 0.0
C1177 C 0.95136 0.84406 0.75543 0.0
C1178 C 0.92543 0.85707 0.74559 0.0
H1179 H 0.85085 0.85845 0.66462 0.0
H1180 H 0.8869 0.87032 0.66986 0.0
H1181 H 0.87618 0.83717 0.69353 0.0
H1182 H 0.88332 0.82399 0.81774 0.0
H1183 H 0.92858 0.80139 0.83539 0.0
H1184 H 0.20555 0.42562 0.33029 0.0
H1185 H 0.18199 0.38085 0.31266 0.0
H1186 H 0.13227 0.42382 0.21807 0.0
H1187 H 0.15592 0.4684 0.23482 0.0
H1188 H 0.12652 0.37469 0.32718 0.0
H1189 H 0.14583 0.3491 0.16009 0.0
H1190 H 0.16782 0.37394 0.18887 0.0
H1191 H 0.13473 0.38537 0.16573 0.0
C1192 C 0.19039 0.42541 0.30461 0.0
C1193 C 0.18238 0.45088 0.28448 0.0
C1194 C 0.17682 0.39972 0.29468 0.0
C1195 C 0.15524 0.39884 0.26409 0.0
C1196 C 0.14912 0.42369 0.24131 0.0
H1197 H 0.99294 0.32994 0.25572 0.0
H1198 H 0.03816 0.3531 0.27063 0.0
C1199 C 0.16268 0.44935 0.25114 0.0
C1200 C 0.13601 0.37371 0.26073 0.0
H1201 H 0.101 0.33187 0.18945 0.0
C1202 C 0.12151 0.36486 0.29716 0.0
C1203 C 0.12952 0.36049 0.22179 0.0
C1204 C 0.14556 0.36753 0.18203 0.0
C1205 C 0.09937 0.34484 0.29517 0.0
C1206 C 0.0912 0.33357 0.25568 0.0
C1207 C 0.10706 0.34072 0.21971 0.0
C1208 C 0.06411 0.31763 0.25035 0.0
C1209 C 0.08416 0.33673 0.33523 0.0
C1210 C 0.06354 0.28976 0.23419 0.0
C1211 C 0.03746 0.27623 0.22587 0.0
C1212 C 0.01164 0.29067 0.23276 0.0
C1213 C 0.01242 0.31822 0.25004 0.0
C1214 C 0.0383 0.33149 0.25876 0.0
H1215 H 0.09811 0.33956 0.36317 0.0
H1216 H 0.06532 0.35069 0.3394 0.0
H1217 H 0.07674 0.31432 0.33409 0.0
H1218 H 0.08324 0.27874 0.22724 0.0
H1219 H 0.03754 0.25513 0.21217 0.0
H1220 H 0.57391 0.68551 0.84656 0.0
H1221 H 0.61602 0.66 0.82378 0.0
H1222 H 0.57773 0.64573 0.70203 0.0
H1223 H 0.5345 0.66982 0.72585 0.0
H1224 H 0.5925 0.59861 0.73032 0.0
H1225 H 0.68546 0.66724 0.75674 0.0
H1226 H 0.66513 0.66579 0.80434 0.0
H1227 H 0.6497 0.6812 0.75755 0.0
C1228 C 0.57472 0.67788 0.81438 0.0
C1229 C 0.55061 0.67951 0.78818 0.0
C1230 C 0.59911 0.66333 0.8012 0.0
C1231 C 0.6004 0.65087 0.76099 0.0
C1232 C 0.57735 0.65495 0.73332 0.0
H1233 H 0.74328 0.53803 0.68991 0.0
H1234 H 0.71407 0.58101 0.69954 0.0
C1235 C 0.55263 0.6689 0.74687 0.0
C1236 C 0.62322 0.62979 0.75078 0.0
H1237 H 0.69439 0.61599 0.76164 0.0
C1238 C 0.61482 0.60279 0.73641 0.0
C1239 C 0.65257 0.63493 0.75806 0.0
C1240 C 0.6637 0.664 0.76955 0.0
C1241 C 0.63445 0.58063 0.73105 0.0
C1242 C 0.66331 0.585 0.74219 0.0
C1243 C 0.67215 0.61235 0.75431 0.0
C1244 C 0.68409 0.56106 0.74204 0.0
C1245 C 0.62388 0.55271 0.71342 0.0
C1246 C 0.67803 0.53616 0.76473 0.0
C1247 C 0.69429 0.51165 0.75868 0.0
C1248 C 0.71759 0.51182 0.73105 0.0
C1249 C 0.72552 0.53747 0.71167 0.0
C1250 C 0.70876 0.56195 0.71697 0.0
H1251 H 0.60458 0.55577 0.69372 0.0
H1252 H 0.6404 0.54207 0.69397 0.0
H1253 H 0.61802 0.53839 0.73978 0.0
H1254 H 0.65971 0.53519 0.78538 0.0
H1255 H 0.68782 0.49213 0.77407 0.0
H1256 H 0.67058 0.96995 0.78936 0.0
H1257 H 0.64547 0.92722 0.81259 0.0
H1258 H 0.66126 0.88808 0.69179 0.0
H1259 H 0.68774 0.92969 0.66963 0.0
H1260 H 0.59858 0.913 0.78255 0.0
H1261 H 0.6663 0.81892 0.7597 0.0
H1262 H 0.68079 0.85446 0.75911 0.0
H1263 H 0.66591 0.83901 0.71188 0.0
C1264 C 0.66976 0.95174 0.76846 0.0
C1265 C 0.68107 0.95341 0.72754 0.0
C1266 C 0.65522 0.9273 0.78166 0.0
C1267 C 0.65126 0.90417 0.75404 0.0
C1268 C 0.66444 0.90507 0.71433 0.0
H1269 H 0.49133 0.81858 0.73699 0.0
H1270 H 0.53482 0.84617 0.72657 0.0
C1271 C 0.67956 0.92917 0.70152 0.0
C1272 C 0.62966 0.88172 0.76362 0.0
H1273 H 0.61503 0.8107 0.75318 0.0
C1274 C 0.60254 0.8906 0.77688 0.0
C1275 C 0.63449 0.85227 0.75688 0.0
C1276 C 0.66359 0.84065 0.74658 0.0
C1277 C 0.58002 0.87131 0.78169 0.0
C1278 C 0.58415 0.84232 0.77112 0.0
C1279 C 0.61157 0.83303 0.76007 0.0
C1280 C 0.55995 0.82183 0.77087 0.0
C1281 C 0.55199 0.8824 0.79821 0.0
C1282 C 0.56029 0.79731 0.79623 0.0
C1283 C 0.53557 0.78083 0.80103 0.0
C1284 C 0.51021 0.78888 0.78085 0.0
C1285 C 0.5106 0.81202 0.75298 0.0
C1286 C 0.53536 0.82799 0.74745 0.0
H1287 H 0.55502 0.9018 0.81772 0.0
H1288 H 0.53813 0.88823 0.77129 0.0
H1289 H 0.54085 0.86619 0.81754 0.0
H1290 H 0.57909 0.79191 0.81425 0.0
H1291 H 0.5357 0.76321 0.82298 0.0
H1292 H 0.19629 0.99664 0.23017 0.0
H1293 H 0.16899 0.03989 0.21666 0.0
H1294 H 0.21181 0.08165 0.31992 0.0
H1295 H 0.24038 0.03869 0.33171 0.0
H1296 H 0.13219 0.05774 0.27074 0.0
H1297 H 0.20623 0.14698 0.23986 0.0
H1298 H 0.21743 0.11028 0.23804 0.0
H1299 H 0.21396 0.12835 0.28778 0.0
C1300 C 0.20072 0.01551 0.24869 0.0
C1301 C 0.22057 0.01457 0.2816 0.0
C1302 C 0.18497 0.04016 0.24124 0.0
C1303 C 0.18819 0.06417 0.26727 0.0
C1304 C 0.20926 0.06376 0.29876 0.0
H1305 H 0.03502 0.16851 0.28747 0.0
H1306 H 0.07804 0.14325 0.3094 0.0
C1307 C 0.22558 0.0392 0.30555 0.0
C1308 C 0.16677 0.08753 0.26493 0.0
H1309 H 0.15783 0.15932 0.25344 0.0
C1310 C 0.1379 0.07993 0.26682 0.0
C1311 C 0.17408 0.11655 0.25995 0.0
C1312 C 0.2046 0.12605 0.25588 0.0
C1313 C 0.1162 0.10018 0.26278 0.0
C1314 C 0.1234 0.12932 0.25869 0.0
C1315 C 0.15229 0.13709 0.25737 0.0
C1316 C 0.10107 0.15129 0.25158 0.0
C1317 C 0.08579 0.0898 0.26092 0.0
C1318 C 0.10086 0.16676 0.21383 0.0
C1319 C 0.07661 0.18193 0.20174 0.0
C1320 C 0.05192 0.18153 0.22692 0.0
C1321 C 0.05345 0.16885 0.26697 0.0
C1322 C 0.07796 0.15416 0.27939 0.0
H1323 H 0.08455 0.06669 0.25378 0.0
H1324 H 0.07546 0.09335 0.29191 0.0
H1325 H 0.07349 0.10142 0.23655 0.0
H1326 H 0.11855 0.16524 0.19206 0.0
H1327 H 0.07639 0.19164 0.17083 0.0
H1328 H 0.01336 0.67658 0.75749 0.0
H1329 H 0.96826 0.6531 0.7429 0.0
H1330 H 0.92279 0.72657 0.78866 0.0
H1331 H 0.96837 0.75052 0.80337 0.0
H1332 H 0.90606 0.67257 0.82563 0.0
H1333 H 0.90734 0.6673 0.65167 0.0
H1334 H 0.94057 0.65647 0.67442 0.0
H1335 H 0.92851 0.69254 0.68106 0.0
C1336 C 0.99381 0.68804 0.76378 0.0
C1337 C 0.99445 0.71542 0.7816 0.0
C1338 C 0.968 0.6746 0.75524 0.0
C1339 C 0.94214 0.68812 0.76439 0.0
C1340 C 0.94253 0.71583 0.78113 0.0
H1341 H 0.80256 0.57811 0.68411 0.0
H1342 H 0.82503 0.62327 0.70259 0.0
C1343 C 0.96854 0.72954 0.78926 0.0
C1344 C 0.91521 0.67194 0.75916 0.0
H1345 H 0.88002 0.63108 0.68722 0.0
C1346 C 0.89986 0.66402 0.79525 0.0
C1347 C 0.90685 0.66107 0.71952 0.0
C1348 C 0.92151 0.67001 0.6794 0.0
C1349 C 0.87779 0.64382 0.79307 0.0
C1350 C 0.87121 0.63097 0.7539 0.0
C1351 C 0.88512 0.64063 0.71742 0.0
C1352 C 0.85261 0.60541 0.75024 0.0
C1353 C 0.86231 0.63593 0.83296 0.0
C1354 C 0.85958 0.58046 0.77223 0.0
C1355 C 0.84664 0.55457 0.76193 0.0
C1356 C 0.82674 0.55293 0.72886 0.0
C1357 C 0.81792 0.57841 0.70953 0.0
C1358 C 0.83084 0.60433 0.71996 0.0
H1359 H 0.86177 0.65411 0.85535 0.0
H1360 H 0.84015 0.62903 0.8264 0.0
H1361 H 0.87374 0.6182 0.84861 0.0
H1362 H 0.87662 0.58049 0.79519 0.0
H1363 H 0.85403 0.53551 0.77761 0.0
H1364 H 0.4741 0.35438 0.27736 0.0
H1365 H 0.42946 0.37784 0.29466 0.0
H1366 H 0.38588 0.32685 0.20198 0.0
H1367 H 0.43064 0.30345 0.18388 0.0
H1368 H 0.37922 0.38249 0.18687 0.0
H1369 H 0.35536 0.36338 0.35461 0.0
H1370 H 0.39147 0.37477 0.34784 0.0
H1371 H 0.38002 0.34149 0.32531 0.0
C1372 C 0.45492 0.34733 0.2616 0.0
C1373 C 0.45623 0.32725 0.22868 0.0
C1374 C 0.42923 0.36078 0.27172 0.0
C1375 C 0.40418 0.35421 0.24964 0.0
C1376 C 0.40491 0.33236 0.21943 0.0
H1377 H 0.25743 0.46829 0.30125 0.0
H1378 H 0.28255 0.42335 0.28653 0.0
C1379 C 0.4306 0.31889 0.20923 0.0
C1380 C 0.37884 0.37314 0.25334 0.0
H1381 H 0.33669 0.4074 0.32505 0.0
C1382 C 0.36947 0.38739 0.217 0.0
C1383 C 0.36579 0.37947 0.29245 0.0
C1384 C 0.37349 0.36372 0.33215 0.0
C1385 C 0.349 0.4091 0.21919 0.0
C1386 C 0.33774 0.41705 0.25878 0.0
C1387 C 0.34551 0.40148 0.2947 0.0
C1388 C 0.32101 0.44365 0.26417 0.0
C1389 C 0.34033 0.42409 0.17923 0.0
C1390 C 0.33415 0.46985 0.25609 0.0
C1391 C 0.32003 0.49531 0.26464 0.0
C1392 C 0.29232 0.49526 0.28137 0.0
C1393 C 0.27864 0.46901 0.28798 0.0
C1394 C 0.29303 0.44336 0.27986 0.0
H1395 H 0.34366 0.41034 0.15116 0.0
H1396 H 0.31765 0.43067 0.18041 0.0
H1397 H 0.35357 0.44345 0.17527 0.0
H1398 H 0.35583 0.47063 0.24454 0.0
H1399 H 0.33118 0.51513 0.25917 0.0
loop_
_geom_bond_atom_site_label_1
_geom_bond_atom_site_label_2
_geom_bond_distance
_geom_bond_site_symmetry_2
_ccdc_geom_bond_type
C0 O12 1.241 . S
C0 O13 1.280 . S
C1 O14 1.277 . S
C1 O15 1.245 . S
C2 O26 1.247 . S
C2 O28 1.289 . S
Mg3 O4 1.926 . S
Mg3 O13 1.984 . S
Mg3 O15 1.988 . S
Mg3 O16 2.061 . S
O4 Mg3 1.926 . S
O4 Mg5 1.986 . S
O4 Mg6 1.917 . S
Mg5 O4 1.986 . S
Mg5 O12 2.042 . S
Mg5 O14 2.041 . S
Mg5 O20 2.038 . S
Mg5 O28 2.238 . S
Mg6 O4 1.917 . S
Mg6 O7 1.917 . S
Mg6 O17 2.106 . S
Mg6 O19 2.079 . S
Mg6 O28 2.106 . S
Mg6 O29 2.079 . S
O7 Mg6 1.917 . S
O7 Mg8 1.926 . S
O7 Mg9 1.986 . S
Mg8 O7 1.926 . S
Mg8 O22 1.984 . S
Mg8 O25 1.988 . S
Mg8 O26 2.061 . S
Mg9 O7 1.986 . S
Mg9 O17 2.238 . S
Mg9 O21 2.042 . S
Mg9 O23 2.041 . S
Mg9 O30 2.038 . S
C10 O16 1.247 . S
C10 O17 1.289 . S
C11 O29 1.245 . S
C11 O30 1.274 . S
O12 C0 1.241 . S
O12 Mg5 2.042 . S
O13 C0 1.280 . S
O13 Mg3 1.984 . S
O14 C1 1.277 . S
O14 Mg5 2.041 . S
O15 C1 1.245 . S
O15 Mg3 1.988 . S
O16 Mg3 2.061 . S
O16 C10 1.247 . S
O17 Mg6 2.106 . S
O17 Mg9 2.238 . S
O17 C10 1.289 . S
C18 O19 1.245 . S
C18 O20 1.274 . S
O19 Mg6 2.079 . S
O19 C18 1.245 . S
O20 Mg5 2.038 . S
O20 C18 1.274 . S
O21 Mg9 2.042 . S
O21 C24 1.241 . S
O22 Mg8 1.984 . S
O22 C24 1.280 . S
O23 Mg9 2.041 . S
O23 C27 1.277 . S
C24 O21 1.241 . S
C24 O22 1.280 . S
O25 Mg8 1.988 . S
O25 C27 1.245 . S
O26 C2 1.247 . S
O26 Mg8 2.061 . S
C27 O23 1.277 . S
C27 O25 1.245 . S
O28 C2 1.289 . S
O28 Mg5 2.238 . S
O28 Mg6 2.106 . S
O29 Mg6 2.079 . S
O29 C11 1.245 . S
O30 Mg9 2.038 . S
O30 C11 1.274 . S
C31 O43 1.241 . S
C31 O44 1.289 . S
C32 O45 1.277 . S
C32 O46 1.245 . S
C33 O57 1.247 . S
C33 O59 1.289 . S
Mg34 O35 1.926 1_565 S
Mg34 O44 1.983 1_565 S
Mg34 O46 1.988 . S
Mg34 O47 2.061 1_565 S
O35 Mg34 1.926 1_545 S
O35 Mg36 1.986 . S
O35 Mg37 1.917 . S
Mg36 O35 1.986 . S
Mg36 O43 2.042 . S
Mg36 O45 2.041 1_545 S
Mg36 O51 2.038 . S
Mg36 O59 2.238 . S
Mg37 O35 1.917 . S
Mg37 O38 1.917 . S
Mg37 O48 2.106 . S
Mg37 O50 2.079 . S
Mg37 O59 2.106 . S
Mg37 O60 2.079 . S
O38 Mg37 1.917 . S
O38 Mg39 1.926 . S
O38 Mg40 1.986 . S
Mg39 O38 1.926 . S
Mg39 O53 1.984 . S
Mg39 O56 1.988 . S
Mg39 O57 2.061 . S
Mg40 O38 1.986 . S
Mg40 O48 2.238 . S
Mg40 O52 2.042 . S
Mg40 O54 2.041 . S
Mg40 O61 2.038 . S
C41 O47 1.247 . S
C41 O48 1.289 . S
C42 O60 1.245 . S
C42 O61 1.274 . S
O43 C31 1.241 . S
O43 Mg36 2.042 . S
O44 C31 1.289 . S
O44 Mg34 1.983 1_545 S
O45 C32 1.277 . S
O45 Mg36 2.041 1_565 S
O46 C32 1.245 . S
O46 Mg34 1.988 . S
O47 Mg34 2.061 1_545 S
O47 C41 1.247 . S
O48 Mg37 2.106 . S
O48 Mg40 2.238 . S
O48 C41 1.289 . S
C49 O50 1.245 . S
C49 O51 1.274 . S
O50 Mg37 2.079 . S
O50 C49 1.245 . S
O51 Mg36 2.038 . S
O51 C49 1.274 . S
O52 Mg40 2.042 . S
O52 C55 1.241 . S
O53 Mg39 1.984 . S
O53 C55 1.280 . S
O54 Mg40 2.041 . S
O54 C58 1.277 . S
C55 O52 1.241 . S
C55 O53 1.280 . S
O56 Mg39 1.988 . S
O56 C58 1.245 . S
O57 C33 1.247 . S
O57 Mg39 2.061 . S
C58 O54 1.277 . S
C58 O56 1.245 . S
O59 C33 1.289 . S
O59 Mg36 2.238 . S
O59 Mg37 2.106 . S
O60 Mg37 2.079 . S
O60 C42 1.245 . S
O61 Mg40 2.038 . S
O61 C42 1.274 . S
C62 O74 1.241 . S
C62 O75 1.289 . S
C63 O76 1.277 . S
C63 O77 1.245 . S
C64 O88 1.247 . S
C64 O90 1.289 . S
Mg65 O66 1.926 1_455 S
Mg65 O75 1.983 1_455 S
Mg65 O77 1.988 . S
Mg65 O78 2.061 1_455 S
O66 Mg65 1.926 1_655 S
O66 Mg67 1.986 . S
O66 Mg68 1.917 . S
Mg67 O66 1.986 . S
Mg67 O74 2.042 . S
Mg67 O76 2.041 1_655 S
Mg67 O82 2.038 . S
Mg67 O90 2.238 . S
Mg68 O66 1.917 . S
Mg68 O69 1.917 . S
Mg68 O79 2.106 . S
Mg68 O81 2.079 . S
Mg68 O90 2.106 . S
Mg68 O91 2.079 . S
O69 Mg68 1.917 . S
O69 Mg70 1.926 . S
O69 Mg71 1.986 . S
Mg70 O69 1.926 . S
Mg70 O84 1.984 . S
Mg70 O87 1.988 . S
Mg70 O88 2.061 . S
Mg71 O69 1.986 . S
Mg71 O79 2.238 . S
Mg71 O83 2.042 . S
Mg71 O85 2.041 . S
Mg71 O92 2.038 . S
C72 O78 1.247 . S
C72 O79 1.289 . S
C73 O91 1.245 . S
C73 O92 1.274 . S
O74 C62 1.241 . S
O74 Mg67 2.042 . S
O75 C62 1.289 . S
O75 Mg65 1.983 1_655 S
O76 C63 1.277 . S
O76 Mg67 2.041 1_455 S
O77 C63 1.245 . S
O77 Mg65 1.988 . S
O78 Mg65 2.061 1_655 S
O78 C72 1.247 . S
O79 Mg68 2.106 . S
O79 Mg71 2.238 . S
O79 C72 1.289 . S
C80 O81 1.245 . S
C80 O82 1.274 . S
O81 Mg68 2.079 . S
O81 C80 1.245 . S
O82 Mg67 2.038 . S
O82 C80 1.274 . S
O83 Mg71 2.042 . S
O83 C86 1.241 . S
O84 Mg70 1.984 . S
O84 C86 1.280 . S
O85 Mg71 2.041 . S
O85 C89 1.277 . S
C86 O83 1.241 . S
C86 O84 1.280 . S
O87 Mg70 1.988 . S
O87 C89 1.245 . S
O88 C64 1.247 . S
O88 Mg70 2.061 . S
C89 O85 1.277 . S
C89 O87 1.245 . S
O90 C64 1.289 . S
O90 Mg67 2.238 . S
O90 Mg68 2.106 . S
O91 Mg68 2.079 . S
O91 C73 1.245 . S
O92 Mg71 2.038 . S
O92 C73 1.274 . S
C93 O105 1.241 . S
C93 O106 1.280 . S
C94 O107 1.277 . S
C94 O108 1.245 . S
C95 O119 1.247 . S
C95 O121 1.289 . S
Mg96 O97 1.926 . S
Mg96 O106 1.984 . S
Mg96 O108 1.988 . S
Mg96 O109 2.061 . S
O97 Mg96 1.926 . S
O97 Mg98 1.986 . S
O97 Mg99 1.917 . S
Mg98 O97 1.986 . S
Mg98 O105 2.042 . S
Mg98 O107 2.041 . S
Mg98 O113 2.038 . S
Mg98 O121 2.238 . S
Mg99 O97 1.917 . S
Mg99 O100 1.917 . S
Mg99 O110 2.106 . S
Mg99 O112 2.079 . S
Mg99 O121 2.106 . S
Mg99 O122 2.079 . S
O100 Mg99 1.917 . S
O100 Mg101 1.926 . S
O100 Mg102 1.986 . S
Mg101 O100 1.926 . S
Mg101 O115 1.984 . S
Mg101 O118 1.988 . S
Mg101 O119 2.061 . S
Mg102 O100 1.986 . S
Mg102 O110 2.238 . S
Mg102 O114 2.042 . S
Mg102 O116 2.041 . S
Mg102 O123 2.038 . S
C103 O109 1.247 . S
C103 O110 1.289 . S
C104 O122 1.245 . S
C104 O123 1.274 . S
O105 C93 1.241 . S
O105 Mg98 2.042 . S
O106 C93 1.280 . S
O106 Mg96 1.984 . S
O107 C94 1.277 . S
O107 Mg98 2.041 . S
O108 C94 1.245 . S
O108 Mg96 1.988 . S
O109 Mg96 2.061 . S
O109 C103 1.247 . S
O110 Mg99 2.106 . S
O110 Mg102 2.238 . S
O110 C103 1.289 . S
C111 O112 1.245 . S
C111 O113 1.274 . S
O112 Mg99 2.079 . S
O112 C111 1.245 . S
O113 Mg98 2.038 . S
O113 C111 1.274 . S
O114 Mg102 2.042 . S
O114 C117 1.241 . S
O115 Mg101 1.984 . S
O115 C117 1.280 . S
O116 Mg102 2.041 . S
O116 C120 1.277 . S
C117 O114 1.241 . S
C117 O115 1.280 . S
O118 Mg101 1.988 . S
O118 C120 1.245 . S
O119 C95 1.247 . S
O119 Mg101 2.061 . S
C120 O116 1.277 . S
C120 O118 1.245 . S
O121 C95 1.289 . S
O121 Mg98 2.238 . S
O121 Mg99 2.106 . S
O122 Mg99 2.079 . S
O122 C104 1.245 . S
O123 Mg102 2.038 . S
O123 C104 1.274 . S
C124 O136 1.241 . S
C124 O137 1.280 . S
C125 O138 1.277 . S
C125 O139 1.245 . S
C126 O150 1.247 . S
C126 O152 1.289 . S
Mg127 O128 1.926 . S
Mg127 O137 1.984 . S
Mg127 O139 1.988 . S
Mg127 O140 2.061 . S
O128 Mg127 1.926 . S
O128 Mg129 1.986 . S
O128 Mg130 1.917 . S
Mg129 O128 1.986 . S
Mg129 O136 2.042 . S
Mg129 O138 2.041 . S
Mg129 O144 2.038 . S
Mg129 O152 2.238 . S
Mg130 O128 1.917 . S
Mg130 O131 1.917 . S
Mg130 O141 2.106 . S
Mg130 O143 2.079 . S
Mg130 O152 2.106 . S
Mg130 O153 2.079 . S
O131 Mg130 1.917 . S
O131 Mg132 1.926 . S
O131 Mg133 1.986 . S
Mg132 O131 1.926 . S
Mg132 O146 1.984 . S
Mg132 O149 1.988 . S
Mg132 O150 2.061 . S
Mg133 O131 1.986 . S
Mg133 O141 2.238 . S
Mg133 O145 2.042 . S
Mg133 O147 2.041 . S
Mg133 O154 2.038 . S
C134 O140 1.247 . S
C134 O141 1.289 . S
C135 O153 1.245 . S
C135 O154 1.274 . S
O136 C124 1.241 . S
O136 Mg129 2.042 . S
O137 C124 1.280 . S
O137 Mg127 1.984 . S
O138 C125 1.277 . S
O138 Mg129 2.041 . S
O139 C125 1.245 . S
O139 Mg127 1.988 . S
O140 Mg127 2.061 . S
O140 C134 1.247 . S
O141 Mg130 2.106 . S
O141 Mg133 2.238 . S
O141 C134 1.289 . S
C142 O143 1.245 . S
C142 O144 1.274 . S
O143 Mg130 2.079 . S
O143 C142 1.245 . S
O144 Mg129 2.038 . S
O144 C142 1.274 . S
O145 Mg133 2.042 . S
O145 C148 1.241 . S
O146 Mg132 1.984 . S
O146 C148 1.280 . S
O147 Mg133 2.041 . S
O147 C151 1.277 . S
C148 O145 1.241 . S
C148 O146 1.280 . S
O149 Mg132 1.988 . S
O149 C151 1.245 . S
O150 C126 1.247 . S
O150 Mg132 2.061 . S
C151 O147 1.277 . S
C151 O149 1.245 . S
O152 C126 1.289 . S
O152 Mg129 2.238 . S
O152 Mg130 2.106 . S
O153 Mg130 2.079 . S
O153 C135 1.245 . S
O154 Mg133 2.038 . S
O154 C135 1.274 . S
C155 O167 1.241 . S
C155 O168 1.280 . S
C156 O169 1.277 . S
C156 O170 1.245 . S
C157 O181 1.247 . S
C157 O183 1.289 . S
Mg158 O159 1.926 . S
Mg158 O168 1.984 . S
Mg158 O170 1.988 . S
Mg158 O171 2.061 . S
O159 Mg158 1.926 . S
O159 Mg160 1.986 . S
O159 Mg161 1.917 . S
Mg160 O159 1.986 . S
Mg160 O167 2.042 . S
Mg160 O169 2.041 . S
Mg160 O175 2.038 . S
Mg160 O183 2.238 . S
Mg161 O159 1.917 . S
Mg161 O162 1.917 . S
Mg161 O172 2.106 . S
Mg161 O174 2.079 . S
Mg161 O183 2.106 . S
Mg161 O184 2.079 . S
O162 Mg161 1.917 . S
O162 Mg163 1.926 1_565 S
O162 Mg164 1.986 . S
Mg163 O162 1.926 1_545 S
Mg163 O177 1.983 1_545 S
Mg163 O180 1.988 . S
Mg163 O181 2.061 1_545 S
Mg164 O162 1.986 . S
Mg164 O172 2.238 . S
Mg164 O176 2.042 . S
Mg164 O178 2.041 1_565 S
Mg164 O185 2.038 . S
C165 O171 1.247 . S
C165 O172 1.289 . S
C166 O184 1.245 . S
C166 O185 1.274 . S
O167 C155 1.241 . S
O167 Mg160 2.042 . S
O168 C155 1.280 . S
O168 Mg158 1.984 . S
O169 C156 1.277 . S
O169 Mg160 2.041 . S
O170 C156 1.245 . S
O170 Mg158 1.988 . S
O171 Mg158 2.061 . S
O171 C165 1.247 . S
O172 Mg161 2.106 . S
O172 Mg164 2.238 . S
O172 C165 1.289 . S
C173 O174 1.245 . S
C173 O175 1.274 . S
O174 Mg161 2.079 . S
O174 C173 1.245 . S
O175 Mg160 2.038 . S
O175 C173 1.274 . S
O176 Mg164 2.042 . S
O176 C179 1.241 . S
O177 Mg163 1.983 1_565 S
O177 C179 1.289 . S
O178 Mg164 2.041 1_545 S
O178 C182 1.277 . S
C179 O176 1.241 . S
C179 O177 1.289 . S
O180 Mg163 1.988 . S
O180 C182 1.245 . S
O181 C157 1.247 . S
O181 Mg163 2.061 1_565 S
C182 O178 1.277 . S
C182 O180 1.245 . S
O183 C157 1.289 . S
O183 Mg160 2.238 . S
O183 Mg161 2.106 . S
O184 Mg161 2.079 . S
O184 C166 1.245 . S
O185 Mg164 2.038 . S
O185 C166 1.274 . S
C186 O198 1.241 . S
C186 O199 1.280 . S
C187 O200 1.277 . S
C187 O201 1.245 . S
C188 O212 1.247 . S
C188 O214 1.289 . S
Mg189 O190 1.926 . S
Mg189 O199 1.984 . S
Mg189 O201 1.988 . S
Mg189 O202 2.061 . S
O190 Mg189 1.926 . S
O190 Mg191 1.986 . S
O190 Mg192 1.917 . S
Mg191 O190 1.986 . S
Mg191 O198 2.042 . S
Mg191 O200 2.041 . S
Mg191 O206 2.038 . S
Mg191 O214 2.238 . S
Mg192 O190 1.917 . S
Mg192 O193 1.917 . S
Mg192 O203 2.106 . S
Mg192 O205 2.079 . S
Mg192 O214 2.106 . S
Mg192 O215 2.079 . S
O193 Mg192 1.917 . S
O193 Mg194 1.926 1_455 S
O193 Mg195 1.986 . S
Mg194 O193 1.926 1_655 S
Mg194 O208 1.983 1_655 S
Mg194 O211 1.988 . S
Mg194 O212 2.061 1_655 S
Mg195 O193 1.986 . S
Mg195 O203 2.238 . S
Mg195 O207 2.042 . S
Mg195 O209 2.041 1_455 S
Mg195 O216 2.038 . S
C196 O202 1.247 . S
C196 O203 1.289 . S
C197 O215 1.245 . S
C197 O216 1.274 . S
O198 C186 1.241 . S
O198 Mg191 2.042 . S
O199 C186 1.280 . S
O199 Mg189 1.984 . S
O200 C187 1.277 . S
O200 Mg191 2.041 . S
O201 C187 1.245 . S
O201 Mg189 1.988 . S
O202 Mg189 2.061 . S
O202 C196 1.247 . S
O203 Mg192 2.106 . S
O203 Mg195 2.238 . S
O203 C196 1.289 . S
C204 O205 1.245 . S
C204 O206 1.274 . S
O205 Mg192 2.079 . S
O205 C204 1.245 . S
O206 Mg191 2.038 . S
O206 C204 1.274 . S
O207 Mg195 2.042 . S
O207 C210 1.241 . S
O208 Mg194 1.983 1_455 S
O208 C210 1.289 . S
O209 Mg195 2.041 1_655 S
O209 C213 1.277 . S
C210 O207 1.241 . S
C210 O208 1.289 . S
O211 Mg194 1.988 . S
O211 C213 1.245 . S
O212 C188 1.247 . S
O212 Mg194 2.061 1_455 S
C213 O209 1.277 . S
C213 O211 1.245 . S
O214 C188 1.289 . S
O214 Mg191 2.238 . S
O214 Mg192 2.106 . S
O215 Mg192 2.079 . S
O215 C197 1.245 . S
O216 Mg195 2.038 . S
O216 C197 1.274 . S
C217 O229 1.241 . S
C217 O230 1.280 . S
C218 O231 1.277 . S
C218 O232 1.245 . S
C219 O243 1.247 . S
C219 O245 1.289 . S
Mg220 O221 1.926 . S
Mg220 O230 1.984 . S
Mg220 O232 1.988 . S
Mg220 O233 2.061 . S
O221 Mg220 1.926 . S
O221 Mg222 1.986 . S
O221 Mg223 1.917 . S
Mg222 O221 1.986 . S
Mg222 O229 2.042 . S
Mg222 O231 2.041 . S
Mg222 O237 2.038 . S
Mg222 O245 2.238 . S
Mg223 O221 1.917 . S
Mg223 O224 1.917 . S
Mg223 O234 2.106 . S
Mg223 O236 2.079 . S
Mg223 O245 2.106 . S
Mg223 O246 2.079 . S
O224 Mg223 1.917 . S
O224 Mg225 1.926 . S
O224 Mg226 1.986 . S
Mg225 O224 1.926 . S
Mg225 O239 1.984 . S
Mg225 O242 1.988 . S
Mg225 O243 2.061 . S
Mg226 O224 1.986 . S
Mg226 O234 2.238 . S
Mg226 O238 2.042 . S
Mg226 O240 2.041 . S
Mg226 O247 2.038 . S
C227 O233 1.247 . S
C227 O234 1.289 . S
C228 O246 1.245 . S
C228 O247 1.274 . S
O229 C217 1.241 . S
O229 Mg222 2.042 . S
O230 C217 1.280 . S
O230 Mg220 1.984 . S
O231 C218 1.277 . S
O231 Mg222 2.041 . S
O232 C218 1.245 . S
O232 Mg220 1.988 . S
O233 Mg220 2.061 . S
O233 C227 1.247 . S
O234 Mg223 2.106 . S
O234 Mg226 2.238 . S
O234 C227 1.289 . S
C235 O236 1.245 . S
C235 O237 1.274 . S
O236 Mg223 2.079 . S
O236 C235 1.245 . S
O237 Mg222 2.038 . S
O237 C235 1.274 . S
O238 Mg226 2.042 . S
O238 C241 1.241 . S
O239 Mg225 1.984 . S
O239 C241 1.280 . S
O240 Mg226 2.041 . S
O240 C244 1.277 . S
C241 O238 1.241 . S
C241 O239 1.280 . S
O242 Mg225 1.988 . S
O242 C244 1.245 . S
O243 C219 1.247 . S
O243 Mg225 2.061 . S
C244 O240 1.277 . S
C244 O242 1.245 . S
O245 C219 1.289 . S
O245 Mg222 2.238 . S
O245 Mg223 2.106 . S
O246 Mg223 2.079 . S
O246 C228 1.245 . S
O247 Mg226 2.038 . S
O247 C228 1.274 . S
H248 C256 0.929 . S
H249 C258 0.930 . S
H250 C260 0.930 . S
H251 C263 0.929 . S
H252 C266 0.930 . S
H253 C268 0.960 . S
H254 C268 0.960 . S
H255 C268 0.960 . S
C256 H248 0.929 . S
C256 C257 1.377 . S
C256 C258 1.384 . S
C257 C256 1.377 . S
C257 C263 1.390 . S
C258 H249 0.930 . S
C258 C256 1.384 . S
C258 C259 1.372 . S
C259 C258 1.372 . S
C259 C260 1.400 . S
C259 C264 1.490 . S
C260 H250 0.930 . S
C260 C259 1.400 . S
C260 C263 1.386 . S
H261 C277 0.930 . S
H262 C278 0.931 . S
C263 H251 0.929 . S
C263 C257 1.390 . S
C263 C260 1.386 . S
C264 C259 1.490 . S
C264 C266 1.395 . S
C264 C267 1.403 . S
H265 C271 0.930 . S
C266 H252 0.930 . S
C266 C264 1.395 . S
C266 C269 1.403 . S
C267 C264 1.403 . S
C267 C268 1.524 . S
C267 C271 1.400 . S
C268 H253 0.960 . S
C268 H254 0.960 . S
C268 H255 0.960 . S
C268 C267 1.524 . S
C269 C266 1.403 . S
C269 C270 1.392 . S
C269 C273 1.495 . S
C270 C269 1.392 . S
C270 C271 1.385 . S
C270 C272 1.478 . S
C271 H265 0.930 . S
C271 C267 1.400 . S
C271 C270 1.385 . S
C272 C270 1.478 . S
C272 C274 1.381 . S
C272 C278 1.383 . S
C273 C269 1.495 . S
C273 H279 0.959 . S
C273 H280 0.961 . S
C273 H281 0.960 . S
C274 C272 1.381 . S
C274 C275 1.394 . S
C274 H282 0.930 . S
C275 C274 1.394 . S
C275 C276 1.383 . S
C275 H283 0.929 . S
C276 C275 1.383 . S
C276 C277 1.377 . S
C277 H261 0.930 . S
C277 C276 1.377 . S
C277 C278 1.379 . S
C278 H262 0.931 . S
C278 C272 1.383 . S
C278 C277 1.379 . S
H279 C273 0.959 . S
H280 C273 0.961 . S
H281 C273 0.960 . S
H282 C274 0.930 . S
H283 C275 0.929 . S
H284 C292 0.929 . S
H285 C294 0.930 . S
H286 C296 0.930 . S
H287 C299 0.929 . S
H288 C302 0.930 . S
H289 C304 0.960 . S
H290 C304 0.960 . S
H291 C304 0.960 . S
C292 H284 0.929 . S
C292 C293 1.377 . S
C292 C294 1.384 . S
C293 C292 1.377 . S
C293 C299 1.390 . S
C294 H285 0.930 . S
C294 C292 1.384 . S
C294 C295 1.372 . S
C295 C294 1.372 . S
C295 C296 1.400 . S
C295 C300 1.490 . S
C296 H286 0.930 . S
C296 C295 1.400 . S
C296 C299 1.386 . S
H297 C313 0.930 . S
H298 C314 0.931 . S
C299 H287 0.929 . S
C299 C293 1.390 . S
C299 C296 1.386 . S
C300 C295 1.490 . S
C300 C302 1.395 . S
C300 C303 1.403 . S
H301 C307 0.930 . S
C302 H288 0.930 . S
C302 C300 1.395 . S
C302 C305 1.403 . S
C303 C300 1.403 . S
C303 C304 1.524 . S
C303 C307 1.400 . S
C304 H289 0.960 . S
C304 H290 0.960 . S
C304 H291 0.960 . S
C304 C303 1.524 . S
C305 C302 1.403 . S
C305 C306 1.392 . S
C305 C309 1.495 1_556 S
C306 C305 1.392 . S
C306 C307 1.385 . S
C306 C308 1.478 1_556 S
C307 H301 0.930 . S
C307 C303 1.400 . S
C307 C306 1.385 . S
C308 C306 1.478 1_554 S
C308 C310 1.381 . S
C308 C314 1.383 . S
C309 C305 1.495 1_554 S
C309 H315 0.959 1_554 S
C309 H316 0.961 . S
C309 H317 0.960 . S
C310 C308 1.381 . S
C310 C311 1.394 . S
C310 H318 0.930 . S
C311 C310 1.394 . S
C311 C312 1.383 . S
C311 H319 0.929 . S
C312 C311 1.383 . S
C312 C313 1.377 . S
C313 H297 0.930 . S
C313 C312 1.377 . S
C313 C314 1.379 . S
C314 H298 0.931 . S
C314 C308 1.383 . S
C314 C313 1.379 . S
H315 C309 0.959 1_556 S
H316 C309 0.961 . S
H317 C309 0.960 . S
H318 C310 0.930 . S
H319 C311 0.929 . S
H320 C328 0.929 . S
H321 C330 0.930 . S
H322 C332 0.930 . S
H323 C335 0.929 . S
H324 C338 0.930 . S
H325 C340 0.960 . S
H326 C340 0.960 . S
H327 C340 0.960 . S
C328 H320 0.929 . S
C328 C329 1.377 . S
C328 C330 1.384 . S
C329 C328 1.377 . S
C329 C335 1.390 . S
C330 H321 0.930 . S
C330 C328 1.384 . S
C330 C331 1.372 . S
C331 C330 1.372 . S
C331 C332 1.400 . S
C331 C336 1.490 . S
C332 H322 0.930 . S
C332 C331 1.400 . S
C332 C335 1.386 . S
H333 C349 0.930 . S
H334 C350 0.931 . S
C335 H323 0.929 . S
C335 C329 1.390 . S
C335 C332 1.386 . S
C336 C331 1.490 . S
C336 C338 1.395 . S
C336 C339 1.403 . S
H337 C343 0.930 . S
C338 H324 0.930 . S
C338 C336 1.395 . S
C338 C341 1.403 . S
C339 C336 1.403 . S
C339 C340 1.524 . S
C339 C343 1.400 . S
C340 H325 0.960 . S
C340 H326 0.960 . S
C340 H327 0.960 . S
C340 C339 1.524 . S
C341 C338 1.403 . S
C341 C342 1.392 . S
C341 C345 1.495 . S
C342 C341 1.392 . S
C342 C343 1.385 . S
C342 C344 1.478 . S
C343 H337 0.930 . S
C343 C339 1.400 . S
C343 C342 1.385 . S
C344 C342 1.478 . S
C344 C346 1.381 . S
C344 C350 1.383 . S
C345 C341 1.495 . S
C345 H351 0.959 . S
C345 H352 0.961 . S
C345 H353 0.960 . S
C346 C344 1.381 . S
C346 C347 1.394 . S
C346 H354 0.930 . S
C347 C346 1.394 . S
C347 C348 1.383 . S
C347 H355 0.929 . S
C348 C347 1.383 . S
C348 C349 1.377 . S
C349 H333 0.930 . S
C349 C348 1.377 . S
C349 C350 1.379 . S
C350 H334 0.931 . S
C350 C344 1.383 . S
C350 C349 1.379 . S
H351 C345 0.959 . S
H352 C345 0.961 . S
H353 C345 0.960 . S
H354 C346 0.930 . S
H355 C347 0.929 . S
H356 C364 0.929 . S
H357 C366 0.930 . S
H358 C368 0.930 . S
H359 C371 0.929 . S
H360 C374 0.930 . S
H361 C376 0.960 . S
H362 C376 0.960 . S
H363 C376 0.960 . S
C364 H356 0.929 . S
C364 C365 1.377 . S
C364 C366 1.384 . S
C365 C364 1.377 . S
C365 C371 1.390 . S
C366 H357 0.930 . S
C366 C364 1.384 . S
C366 C367 1.372 . S
C367 C366 1.372 . S
C367 C368 1.400 . S
C367 C372 1.490 1_554 S
C368 H358 0.930 . S
C368 C367 1.400 . S
C368 C371 1.386 . S
H369 C385 0.930 . S
H370 C386 0.931 . S
C371 H359 0.929 . S
C371 C365 1.390 . S
C371 C368 1.386 . S
C372 C367 1.490 1_556 S
C372 C374 1.395 . S
C372 C375 1.403 . S
H373 C379 0.930 . S
C374 H360 0.930 . S
C374 C372 1.395 . S
C374 C377 1.403 . S
C375 C372 1.403 . S
C375 C376 1.524 1_556 S
C375 C379 1.400 . S
C376 H361 0.960 . S
C376 H362 0.960 . S
C376 H363 0.960 . S
C376 C375 1.524 1_554 S
C377 C374 1.403 . S
C377 C378 1.392 . S
C377 C381 1.495 . S
C378 C377 1.392 . S
C378 C379 1.385 . S
C378 C380 1.478 . S
C379 H373 0.930 . S
C379 C375 1.400 . S
C379 C378 1.385 . S
C380 C378 1.478 . S
C380 C382 1.381 . S
C380 C386 1.383 . S
C381 C377 1.495 . S
C381 H387 0.959 . S
C381 H388 0.961 . S
C381 H389 0.960 . S
C382 C380 1.381 . S
C382 C383 1.394 . S
C382 H390 0.930 . S
C383 C382 1.394 . S
C383 C384 1.383 . S
C383 H391 0.929 . S
C384 C383 1.383 . S
C384 C385 1.377 . S
C385 H369 0.930 . S
C385 C384 1.377 . S
C385 C386 1.379 . S
C386 H370 0.931 . S
C386 C380 1.383 . S
C386 C385 1.379 . S
H387 C381 0.959 . S
H388 C381 0.961 . S
H389 C381 0.960 . S
H390 C382 0.930 . S
H391 C383 0.929 . S
H392 C400 0.929 . S
H393 C402 0.930 . S
H394 C404 0.930 . S
H395 C407 0.929 . S
H396 C410 0.930 . S
H397 C412 0.960 . S
H398 C412 0.960 . S
H399 C412 0.960 . S
C400 H392 0.929 . S
C400 C401 1.377 . S
C400 C402 1.384 . S
C401 C400 1.377 . S
C401 C407 1.390 . S
C402 H393 0.930 . S
C402 C400 1.384 . S
C402 C403 1.372 . S
C403 C402 1.372 . S
C403 C404 1.400 . S
C403 C408 1.490 . S
C404 H394 0.930 . S
C404 C403 1.400 . S
C404 C407 1.386 . S
H405 C421 0.930 . S
H406 C422 0.931 . S
C407 H395 0.929 . S
C407 C401 1.390 . S
C407 C404 1.386 . S
C408 C403 1.490 . S
C408 C410 1.395 . S
C408 C411 1.403 . S
H409 C415 0.930 . S
C410 H396 0.930 . S
C410 C408 1.395 . S
C410 C413 1.403 . S
C411 C408 1.403 . S
C411 C412 1.524 . S
C411 C415 1.400 . S
C412 H397 0.960 . S
C412 H398 0.960 . S
C412 H399 0.960 . S
C412 C411 1.524 . S
C413 C410 1.403 . S
C413 C414 1.392 . S
C413 C417 1.495 . S
C414 C413 1.392 . S
C414 C415 1.385 . S
C414 C416 1.478 . S
C415 H409 0.930 . S
C415 C411 1.400 . S
C415 C414 1.385 . S
C416 C414 1.478 . S
C416 C418 1.381 . S
C416 C422 1.383 . S
C417 C413 1.495 . S
C417 H423 0.959 . S
C417 H424 0.961 . S
C417 H425 0.960 . S
C418 C416 1.381 . S
C418 C419 1.394 . S
C418 H426 0.930 . S
C419 C418 1.394 . S
C419 C420 1.383 . S
C419 H427 0.929 . S
C420 C419 1.383 . S
C420 C421 1.377 . S
C421 H405 0.930 . S
C421 C420 1.377 . S
C421 C422 1.379 . S
C422 H406 0.931 . S
C422 C416 1.383 . S
C422 C421 1.379 . S
H423 C417 0.959 . S
H424 C417 0.961 . S
H425 C417 0.960 . S
H426 C418 0.930 . S
H427 C419 0.929 . S
H428 C436 0.929 . S
H429 C438 0.930 . S
H430 C440 0.930 . S
H431 C443 0.929 . S
H432 C446 0.930 . S
H433 C448 0.960 . S
H434 C448 0.960 . S
H435 C448 0.960 . S
C436 H428 0.929 . S
C436 C437 1.377 . S
C436 C438 1.384 . S
C437 C436 1.377 . S
C437 C443 1.390 . S
C438 H429 0.930 . S
C438 C436 1.384 . S
C438 C439 1.372 . S
C439 C438 1.372 . S
C439 C440 1.400 . S
C439 C444 1.490 . S
C440 H430 0.930 . S
C440 C439 1.400 . S
C440 C443 1.386 . S
H441 C457 0.930 . S
H442 C458 0.931 . S
C443 H431 0.929 . S
C443 C437 1.390 . S
C443 C440 1.386 . S
C444 C439 1.490 . S
C444 C446 1.395 . S
C444 C447 1.403 . S
H445 C451 0.930 . S
C446 H432 0.930 . S
C446 C444 1.395 . S
C446 C449 1.403 . S
C447 C444 1.403 . S
C447 C448 1.524 . S
C447 C451 1.400 . S
C448 H433 0.960 . S
C448 H434 0.960 . S
C448 H435 0.960 . S
C448 C447 1.524 . S
C449 C446 1.403 . S
C449 C450 1.392 . S
C449 C453 1.495 1_554 S
C450 C449 1.392 . S
C450 C451 1.385 . S
C450 C452 1.478 1_554 S
C451 H445 0.930 . S
C451 C447 1.400 . S
C451 C450 1.385 . S
C452 C450 1.478 1_556 S
C452 C454 1.381 . S
C452 C458 1.383 . S
C453 C449 1.495 1_556 S
C453 H459 0.959 1_556 S
C453 H460 0.961 . S
C453 H461 0.960 . S
C454 C452 1.381 . S
C454 C455 1.394 . S
C454 H462 0.930 . S
C455 C454 1.394 . S
C455 C456 1.383 . S
C455 H463 0.929 . S
C456 C455 1.383 . S
C456 C457 1.377 . S
C457 H441 0.930 . S
C457 C456 1.377 . S
C457 C458 1.379 . S
C458 H442 0.931 . S
C458 C452 1.383 . S
C458 C457 1.379 . S
H459 C453 0.959 1_554 S
H460 C453 0.961 . S
H461 C453 0.960 . S
H462 C454 0.930 . S
H463 C455 0.929 . S
H464 C472 0.929 . S
H465 C474 0.930 . S
H466 C476 0.930 . S
H467 C479 0.929 . S
H468 C482 0.930 . S
H469 C484 0.960 . S
H470 C484 0.960 . S
H471 C484 0.960 . S
C472 H464 0.929 . S
C472 C473 1.377 . S
C472 C474 1.384 . S
C473 C472 1.377 . S
C473 C479 1.390 . S
C474 H465 0.930 . S
C474 C472 1.384 . S
C474 C475 1.372 . S
C475 C474 1.372 . S
C475 C476 1.400 . S
C475 C480 1.490 . S
C476 H466 0.930 . S
C476 C475 1.400 . S
C476 C479 1.386 . S
H477 C493 0.930 . S
H478 C494 0.931 . S
C479 H467 0.929 . S
C479 C473 1.390 . S
C479 C476 1.386 . S
C480 C475 1.490 . S
C480 C482 1.395 . S
C480 C483 1.403 . S
H481 C487 0.930 . S
C482 H468 0.930 . S
C482 C480 1.395 . S
C482 C485 1.403 . S
C483 C480 1.403 . S
C483 C484 1.524 . S
C483 C487 1.400 . S
C484 H469 0.960 . S
C484 H470 0.960 . S
C484 H471 0.960 . S
C484 C483 1.524 . S
C485 C482 1.403 . S
C485 C486 1.392 . S
C485 C489 1.495 . S
C486 C485 1.392 . S
C486 C487 1.385 . S
C486 C488 1.478 . S
C487 H481 0.930 . S
C487 C483 1.400 . S
C487 C486 1.385 . S
C488 C486 1.478 . S
C488 C490 1.381 . S
C488 C494 1.383 . S
C489 C485 1.495 . S
C489 H495 0.959 . S
C489 H496 0.961 . S
C489 H497 0.960 . S
C490 C488 1.381 . S
C490 C491 1.394 . S
C490 H498 0.930 . S
C491 C490 1.394 . S
C491 C492 1.383 . S
C491 H499 0.929 . S
C492 C491 1.383 . S
C492 C493 1.377 . S
C493 H477 0.930 . S
C493 C492 1.377 . S
C493 C494 1.379 . S
C494 H478 0.931 . S
C494 C488 1.383 . S
C494 C493 1.379 . S
H495 C489 0.959 . S
H496 C489 0.961 . S
H497 C489 0.960 . S
H498 C490 0.930 . S
H499 C491 0.929 . S
H500 C508 0.929 . S
H501 C510 0.930 . S
H502 C512 0.930 . S
H503 C515 0.929 . S
H504 C518 0.930 . S
H505 C520 0.960 . S
H506 C520 0.960 . S
H507 C520 0.960 . S
C508 H500 0.929 . S
C508 C509 1.377 . S
C508 C510 1.384 . S
C509 C508 1.377 . S
C509 C515 1.390 . S
C510 H501 0.930 . S
C510 C508 1.384 . S
C510 C511 1.372 . S
C511 C510 1.372 . S
C511 C512 1.400 . S
C511 C516 1.490 . S
C512 H502 0.930 . S
C512 C511 1.400 . S
C512 C515 1.386 . S
H513 C529 0.930 . S
H514 C530 0.931 . S
C515 H503 0.929 . S
C515 C509 1.390 . S
C515 C512 1.386 . S
C516 C511 1.490 . S
C516 C518 1.395 . S
C516 C519 1.403 . S
H517 C523 0.930 1_556 S
C518 H504 0.930 . S
C518 C516 1.395 . S
C518 C521 1.403 . S
C519 C516 1.403 . S
C519 C520 1.524 . S
C519 C523 1.400 . S
C520 H505 0.960 . S
C520 H506 0.960 . S
C520 H507 0.960 . S
C520 C519 1.524 . S
C521 C518 1.403 . S
C521 C522 1.392 . S
C521 C525 1.495 . S
C522 C521 1.392 . S
C522 C523 1.385 . S
C522 C524 1.478 1_554 S
C523 H517 0.930 1_554 S
C523 C519 1.400 . S
C523 C522 1.385 . S
C524 C522 1.478 1_556 S
C524 C526 1.381 . S
C524 C530 1.383 . S
C525 C521 1.495 . S
C525 H531 0.959 . S
C525 H532 0.961 . S
C525 H533 0.960 . S
C526 C524 1.381 . S
C526 C527 1.394 . S
C526 H534 0.930 . S
C527 C526 1.394 . S
C527 C528 1.383 . S
C527 H535 0.929 . S
C528 C527 1.383 . S
C528 C529 1.377 . S
C529 H513 0.930 . S
C529 C528 1.377 . S
C529 C530 1.379 . S
C530 H514 0.931 . S
C530 C524 1.383 . S
C530 C529 1.379 . S
H531 C525 0.959 . S
H532 C525 0.961 . S
H533 C525 0.960 . S
H534 C526 0.930 . S
H535 C527 0.929 . S
H536 C544 0.929 1_556 S
H537 C546 0.930 . S
H538 C548 0.930 . S
H539 C551 0.929 . S
H540 C554 0.930 . S
H541 C556 0.960 . S
H542 C556 0.960 . S
H543 C556 0.960 . S
C544 H536 0.929 1_554 S
C544 C545 1.377 . S
C544 C546 1.384 1_554 S
C545 C544 1.377 . S
C545 C551 1.390 . S
C546 H537 0.930 . S
C546 C544 1.384 1_556 S
C546 C547 1.372 1_556 S
C547 C546 1.372 1_554 S
C547 C548 1.400 . S
C547 C552 1.490 . S
C548 H538 0.930 . S
C548 C547 1.400 . S
C548 C551 1.386 . S
H549 C565 0.917 1_554 S
H550 C566 0.931 1_554 S
C551 H539 0.929 . S
C551 C545 1.390 . S
C551 C548 1.386 . S
C552 C547 1.490 . S
C552 C554 1.395 1_554 S
C552 C555 1.403 . S
H553 C559 0.930 . S
C554 H540 0.930 . S
C554 C552 1.395 1_556 S
C554 C557 1.403 . S
C555 C552 1.403 . S
C555 C556 1.524 . S
C555 C559 1.400 . S
C556 H541 0.960 . S
C556 H542 0.960 . S
C556 H543 0.960 . S
C556 C555 1.524 . S
C557 C554 1.403 . S
C557 C558 1.392 . S
C557 C561 1.495 . S
C558 C557 1.392 . S
C558 C559 1.385 1_556 S
C558 C560 1.478 . S
C559 H553 0.930 . S
C559 C555 1.400 . S
C559 C558 1.385 1_554 S
C560 C558 1.478 . S
C560 C562 1.381 . S
C560 C566 1.383 . S
C561 C557 1.495 . S
C561 H567 0.959 . S
C561 H568 0.961 . S
C561 H569 0.960 . S
C562 C560 1.381 . S
C562 C563 1.394 . S
C562 H570 0.930 . S
C563 C562 1.394 . S
C563 C564 1.383 . S
C563 H571 0.929 . S
C564 C563 1.383 . S
C564 C565 1.377 . S
C565 H549 0.917 1_556 S
C565 C564 1.377 . S
C565 C566 1.379 . S
C566 H550 0.931 1_556 S
C566 C560 1.383 . S
C566 C565 1.379 . S
H567 C561 0.959 . S
H568 C561 0.961 . S
H569 C561 0.960 . S
H570 C562 0.930 . S
H571 C563 0.929 . S
H572 C580 0.929 . S
H573 C582 0.930 . S
H574 C584 0.930 . S
H575 C587 0.929 . S
H576 C590 0.930 . S
H577 C592 0.960 . S
H578 C592 0.960 . S
H579 C592 0.960 . S
C580 H572 0.929 . S
C580 C581 1.377 1_565 S
C580 C582 1.384 . S
C581 C580 1.377 1_545 S
C581 C587 1.390 . S
C582 H573 0.930 . S
C582 C580 1.384 . S
C582 C583 1.372 1_565 S
C583 C582 1.372 1_545 S
C583 C584 1.400 . S
C583 C588 1.490 . S
C584 H574 0.930 . S
C584 C583 1.400 . S
C584 C587 1.386 . S
H585 C601 0.930 1_545 S
H586 C602 0.930 1_545 S
C587 H575 0.929 . S
C587 C581 1.390 . S
C587 C584 1.386 . S
C588 C583 1.490 . S
C588 C590 1.395 1_545 S
C588 C591 1.403 . S
H589 C595 0.930 . S
C590 H576 0.930 . S
C590 C588 1.395 1_565 S
C590 C593 1.403 . S
C591 C588 1.403 . S
C591 C592 1.524 . S
C591 C595 1.400 . S
C592 H577 0.960 . S
C592 H578 0.960 . S
C592 H579 0.960 . S
C592 C591 1.524 . S
C593 C590 1.403 . S
C593 C594 1.392 . S
C593 C597 1.495 . S
C594 C593 1.392 . S
C594 C595 1.385 1_565 S
C594 C596 1.478 . S
C595 H589 0.930 . S
C595 C591 1.400 . S
C595 C594 1.385 1_545 S
C596 C594 1.478 . S
C596 C598 1.381 . S
C596 C602 1.384 . S
C597 C593 1.495 . S
C597 H603 0.959 . S
C597 H604 0.961 . S
C597 H605 0.960 . S
C598 C596 1.381 . S
C598 C599 1.394 . S
C598 H606 0.930 . S
C599 C598 1.394 . S
C599 C600 1.383 . S
C599 H607 0.929 . S
C600 C599 1.383 . S
C600 C601 1.377 . S
C601 H585 0.930 1_565 S
C601 C600 1.377 . S
C601 C602 1.380 . S
C602 H586 0.930 1_565 S
C602 C596 1.384 . S
C602 C601 1.380 . S
H603 C597 0.959 . S
H604 C597 0.961 . S
H605 C597 0.960 . S
H606 C598 0.930 . S
H607 C599 0.929 . S
H608 C616 0.929 . S
H609 C618 0.930 . S
H610 C620 0.930 1_556 S
H611 C623 0.929 1_456 S
H612 C626 0.930 . S
H613 C628 0.960 . S
H614 C628 0.960 . S
H615 C628 0.960 1_556 S
C616 H608 0.929 . S
C616 C617 1.377 . S
C616 C618 1.384 . S
C617 C616 1.377 . S
C617 C623 1.390 . S
C618 H609 0.930 . S
C618 C616 1.384 . S
C618 C619 1.372 . S
C619 C618 1.372 . S
C619 C620 1.400 1_655 S
C619 C624 1.490 . S
C620 H610 0.930 1_554 S
C620 C619 1.400 1_455 S
C620 C623 1.386 1_455 S
H621 C637 0.930 . S
H622 C638 0.931 . S
C623 H611 0.929 1_654 S
C623 C617 1.390 . S
C623 C620 1.386 1_655 S
C624 C619 1.490 . S
C624 C626 1.395 . S
C624 C627 1.403 1_655 S
H625 C631 0.930 . S
C626 H612 0.930 . S
C626 C624 1.395 . S
C626 C629 1.403 1_544 S
C627 C624 1.403 1_455 S
C627 C628 1.524 . S
C627 C631 1.400 1_544 S
C628 H613 0.960 . S
C628 H614 0.960 . S
C628 H615 0.960 1_554 S
C628 C627 1.524 . S
C629 C626 1.403 1_566 S
C629 C630 1.392 . S
C629 C633 1.495 . S
C630 C629 1.392 . S
C630 C631 1.385 1_655 S
C630 C632 1.478 1_655 S
C631 H625 0.930 . S
C631 C627 1.400 1_566 S
C631 C630 1.385 1_455 S
C632 C630 1.478 1_455 S
C632 C634 1.381 1_456 S
C632 C638 1.383 . S
C633 C629 1.495 . S
C633 H639 0.959 1_556 S
C633 H640 0.961 . S
C633 H641 0.960 1_556 S
C634 C632 1.381 1_654 S
C634 C635 1.394 1_654 S
C634 H642 0.930 . S
C635 C634 1.394 1_456 S
C635 C636 1.383 . S
C635 H643 0.929 1_456 S
C636 C635 1.383 . S
C636 C637 1.377 . S
C637 H621 0.930 . S
C637 C636 1.377 . S
C637 C638 1.379 . S
C638 H622 0.931 . S
C638 C632 1.383 . S
C638 C637 1.379 . S
H639 C633 0.959 1_554 S
H640 C633 0.961 . S
H641 C633 0.960 1_554 S
H642 C634 0.930 . S
H643 C635 0.929 1_654 S
H644 C652 0.929 . S
H645 C654 0.930 . S
H646 C656 0.930 . S
H647 C659 0.929 . S
H648 C662 0.930 . S
H649 C664 0.960 . S
H650 C664 0.960 . S
H651 C664 0.960 . S
C652 H644 0.929 . S
C652 C653 1.377 . S
C652 C654 1.384 . S
C653 C652 1.377 . S
C653 C659 1.390 . S
C654 H645 0.930 . S
C654 C652 1.384 . S
C654 C655 1.372 . S
C655 C654 1.372 . S
C655 C656 1.400 . S
C655 C660 1.490 . S
C656 H646 0.930 . S
C656 C655 1.400 . S
C656 C659 1.386 . S
H657 C673 0.930 . S
H658 C674 0.931 . S
C659 H647 0.929 . S
C659 C653 1.390 . S
C659 C656 1.386 . S
C660 C655 1.490 . S
C660 C662 1.395 . S
C660 C663 1.403 . S
H661 C667 0.930 . S
C662 H648 0.930 . S
C662 C660 1.395 . S
C662 C665 1.403 1_655 S
C663 C660 1.403 . S
C663 C664 1.524 . S
C663 C667 1.400 1_655 S
C664 H649 0.960 . S
C664 H650 0.960 . S
C664 H651 0.960 . S
C664 C663 1.524 . S
C665 C662 1.403 1_455 S
C665 C666 1.392 . S
C665 C669 1.495 . S
C666 C665 1.392 . S
C666 C667 1.385 . S
C666 C668 1.478 . S
C667 H661 0.930 . S
C667 C663 1.400 1_455 S
C667 C666 1.385 . S
C668 C666 1.478 . S
C668 C670 1.381 . S
C668 C674 1.383 . S
C669 C665 1.495 . S
C669 H675 0.959 . S
C669 H676 0.961 . S
C669 H677 0.960 . S
C670 C668 1.381 . S
C670 C671 1.394 . S
C670 H678 0.930 . S
C671 C670 1.394 . S
C671 C672 1.383 . S
C671 H679 0.929 . S
C672 C671 1.383 . S
C672 C673 1.377 . S
C673 H657 0.930 . S
C673 C672 1.377 . S
C673 C674 1.379 . S
C674 H658 0.931 . S
C674 C668 1.383 . S
C674 C673 1.379 . S
H675 C669 0.959 . S
H676 C669 0.961 . S
H677 C669 0.960 . S
H678 C670 0.930 . S
H679 C671 0.929 . S
H680 C688 0.929 . S
H681 C690 0.930 . S
H682 C692 0.930 . S
H683 C695 0.929 . S
H684 C698 0.930 . S
H685 C700 0.960 . S
H686 C700 0.960 . S
H687 C700 0.960 . S
C688 H680 0.929 . S
C688 C689 1.377 . S
C688 C690 1.384 . S
C689 C688 1.377 . S
C689 C695 1.390 . S
C690 H681 0.930 . S
C690 C688 1.384 . S
C690 C691 1.372 . S
C691 C690 1.372 . S
C691 C692 1.400 . S
C691 C696 1.490 . S
C692 H682 0.930 . S
C692 C691 1.400 . S
C692 C695 1.386 . S
H693 C709 0.930 . S
H694 C710 0.931 . S
C695 H683 0.929 . S
C695 C689 1.390 . S
C695 C692 1.386 . S
C696 C691 1.490 . S
C696 C698 1.395 . S
C696 C699 1.403 . S
H697 C703 0.930 . S
C698 H684 0.930 . S
C698 C696 1.395 . S
C698 C701 1.403 . S
C699 C696 1.403 . S
C699 C700 1.524 . S
C699 C703 1.400 . S
C700 H685 0.960 . S
C700 H686 0.960 . S
C700 H687 0.960 . S
C700 C699 1.524 . S
C701 C698 1.403 . S
C701 C702 1.392 . S
C701 C705 1.495 . S
C702 C701 1.392 . S
C702 C703 1.385 . S
C702 C704 1.478 . S
C703 H697 0.930 . S
C703 C699 1.400 . S
C703 C702 1.385 . S
C704 C702 1.478 . S
C704 C706 1.381 . S
C704 C710 1.383 . S
C705 C701 1.495 . S
C705 H711 0.959 . S
C705 H712 0.961 . S
C705 H713 0.960 . S
C706 C704 1.381 . S
C706 C707 1.394 . S
C706 H714 0.930 . S
C707 C706 1.394 . S
C707 C708 1.383 . S
C707 H715 0.929 . S
C708 C707 1.383 . S
C708 C709 1.377 . S
C709 H693 0.930 . S
C709 C708 1.377 . S
C709 C710 1.379 . S
C710 H694 0.931 . S
C710 C704 1.383 . S
C710 C709 1.379 . S
H711 C705 0.959 . S
H712 C705 0.961 . S
H713 C705 0.960 . S
H714 C706 0.930 . S
H715 C707 0.929 . S
H716 C724 0.929 . S
H717 C726 0.930 . S
H718 C728 0.930 . S
H719 C731 0.929 . S
H720 C734 0.930 . S
H721 C736 0.960 . S
H722 C736 0.960 . S
H723 C736 0.960 . S
C724 H716 0.929 . S
C724 C725 1.377 . S
C724 C726 1.384 . S
C725 C724 1.377 . S
C725 C731 1.390 . S
C726 H717 0.930 . S
C726 C724 1.384 . S
C726 C727 1.372 . S
C727 C726 1.372 . S
C727 C728 1.400 . S
C727 C732 1.490 . S
C728 H718 0.930 . S
C728 C727 1.400 . S
C728 C731 1.386 . S
H729 C745 0.930 . S
H730 C746 0.931 . S
C731 H719 0.929 . S
C731 C725 1.390 . S
C731 C728 1.386 . S
C732 C727 1.490 . S
C732 C734 1.395 . S
C732 C735 1.403 . S
H733 C739 0.930 . S
C734 H720 0.930 . S
C734 C732 1.395 . S
C734 C737 1.403 . S
C735 C732 1.403 . S
C735 C736 1.524 . S
C735 C739 1.400 . S
C736 H721 0.960 . S
C736 H722 0.960 . S
C736 H723 0.960 . S
C736 C735 1.524 . S
C737 C734 1.403 . S
C737 C738 1.392 . S
C737 C741 1.495 . S
C738 C737 1.392 . S
C738 C739 1.385 . S
C738 C740 1.478 . S
C739 H733 0.930 . S
C739 C735 1.400 . S
C739 C738 1.385 . S
C740 C738 1.478 . S
C740 C742 1.381 . S
C740 C746 1.383 . S
C741 C737 1.495 . S
C741 H747 0.959 . S
C741 H748 0.961 . S
C741 H749 0.960 . S
C742 C740 1.381 . S
C742 C743 1.394 . S
C742 H750 0.930 . S
C743 C742 1.394 . S
C743 C744 1.383 . S
C743 H751 0.929 . S
C744 C743 1.383 . S
C744 C745 1.377 . S
C745 H729 0.930 . S
C745 C744 1.377 . S
C745 C746 1.379 . S
C746 H730 0.931 . S
C746 C740 1.383 . S
C746 C745 1.379 . S
H747 C741 0.959 . S
H748 C741 0.961 . S
H749 C741 0.960 . S
H750 C742 0.930 . S
H751 C743 0.929 . S
H752 C760 0.929 . S
H753 C762 0.930 . S
H754 C764 0.930 . S
H755 C767 0.929 . S
H756 C770 0.930 . S
H757 C772 0.960 . S
H758 C772 0.960 . S
H759 C772 0.960 . S
C760 H752 0.929 . S
C760 C761 1.377 . S
C760 C762 1.384 . S
C761 C760 1.377 . S
C761 C767 1.390 . S
C762 H753 0.930 . S
C762 C760 1.384 . S
C762 C763 1.372 . S
C763 C762 1.372 . S
C763 C764 1.400 . S
C763 C768 1.490 . S
C764 H754 0.930 . S
C764 C763 1.400 . S
C764 C767 1.386 . S
H765 C781 0.930 . S
H766 C782 0.931 . S
C767 H755 0.929 . S
C767 C761 1.390 . S
C767 C764 1.386 . S
C768 C763 1.490 . S
C768 C770 1.395 . S
C768 C771 1.403 . S
H769 C775 0.930 . S
C770 H756 0.930 . S
C770 C768 1.395 . S
C770 C773 1.403 . S
C771 C768 1.403 . S
C771 C772 1.524 . S
C771 C775 1.400 . S
C772 H757 0.960 . S
C772 H758 0.960 . S
C772 H759 0.960 . S
C772 C771 1.524 . S
C773 C770 1.403 . S
C773 C774 1.392 . S
C773 C777 1.495 . S
C774 C773 1.392 . S
C774 C775 1.385 . S
C774 C776 1.478 . S
C775 H769 0.930 . S
C775 C771 1.400 . S
C775 C774 1.385 . S
C776 C774 1.478 . S
C776 C778 1.381 . S
C776 C782 1.383 . S
C777 C773 1.495 . S
C777 H783 0.959 . S
C777 H784 0.961 . S
C777 H785 0.960 . S
C778 C776 1.381 . S
C778 C779 1.394 . S
C778 H786 0.930 . S
C779 C778 1.394 . S
C779 C780 1.383 . S
C779 H787 0.929 . S
C780 C779 1.383 . S
C780 C781 1.377 . S
C781 H765 0.930 . S
C781 C780 1.377 . S
C781 C782 1.379 . S
C782 H766 0.931 . S
C782 C776 1.383 . S
C782 C781 1.379 . S
H783 C777 0.959 . S
H784 C777 0.961 . S
H785 C777 0.960 . S
H786 C778 0.930 . S
H787 C779 0.929 . S
H788 C796 0.929 . S
H789 C798 0.930 . S
H790 C800 0.930 . S
H791 C803 0.929 . S
H792 C806 0.930 . S
H793 C808 0.960 . S
H794 C808 0.960 . S
H795 C808 0.960 . S
C796 H788 0.929 . S
C796 C797 1.377 . S
C796 C798 1.384 . S
C797 C796 1.377 . S
C797 C803 1.390 . S
C798 H789 0.930 . S
C798 C796 1.384 . S
C798 C799 1.372 . S
C799 C798 1.372 . S
C799 C800 1.400 . S
C799 C804 1.490 . S
C800 H790 0.930 . S
C800 C799 1.400 . S
C800 C803 1.386 . S
H801 C817 0.930 . S
H802 C818 0.931 . S
C803 H791 0.929 . S
C803 C797 1.390 . S
C803 C800 1.386 . S
C804 C799 1.490 . S
C804 C806 1.395 . S
C804 C807 1.403 . S
H805 C811 0.930 . S
C806 H792 0.930 . S
C806 C804 1.395 . S
C806 C809 1.403 . S
C807 C804 1.403 . S
C807 C808 1.524 . S
C807 C811 1.400 . S
C808 H793 0.960 . S
C808 H794 0.960 . S
C808 H795 0.960 . S
C808 C807 1.524 . S
C809 C806 1.403 . S
C809 C810 1.392 . S
C809 C813 1.495 . S
C810 C809 1.392 . S
C810 C811 1.385 . S
C810 C812 1.478 . S
C811 H805 0.930 . S
C811 C807 1.400 . S
C811 C810 1.385 . S
C812 C810 1.478 . S
C812 C814 1.381 . S
C812 C818 1.383 . S
C813 C809 1.495 . S
C813 H819 0.959 . S
C813 H820 0.961 . S
C813 H821 0.960 . S
C814 C812 1.381 . S
C814 C815 1.394 . S
C814 H822 0.930 . S
C815 C814 1.394 . S
C815 C816 1.383 . S
C815 H823 0.929 . S
C816 C815 1.383 . S
C816 C817 1.377 . S
C817 H801 0.930 . S
C817 C816 1.377 . S
C817 C818 1.379 . S
C818 H802 0.931 . S
C818 C812 1.383 . S
C818 C817 1.379 . S
H819 C813 0.959 . S
H820 C813 0.961 . S
H821 C813 0.960 . S
H822 C814 0.930 . S
H823 C815 0.929 . S
H824 C832 0.929 . S
H825 C834 0.930 . S
H826 C836 0.930 . S
H827 C839 0.929 . S
H828 C842 0.930 . S
H829 C844 0.960 . S
H830 C844 0.960 . S
H831 C844 0.960 . S
C832 H824 0.929 . S
C832 C833 1.377 1_556 S
C832 C834 1.384 . S
C833 C832 1.377 1_554 S
C833 C839 1.390 . S
C834 H825 0.930 . S
C834 C832 1.384 . S
C834 C835 1.372 . S
C835 C834 1.372 . S
C835 C836 1.400 1_556 S
C835 C840 1.490 . S
C836 H826 0.930 . S
C836 C835 1.400 1_554 S
C836 C839 1.386 . S
H837 C853 0.930 . S
H838 C854 0.931 . S
C839 H827 0.929 . S
C839 C833 1.390 . S
C839 C836 1.386 . S
C840 C835 1.490 . S
C840 C842 1.395 . S
C840 C843 1.403 . S
H841 C847 0.930 . S
C842 H828 0.930 . S
C842 C840 1.395 . S
C842 C845 1.403 . S
C843 C840 1.403 . S
C843 C844 1.524 . S
C843 C847 1.400 . S
C844 H829 0.960 . S
C844 H830 0.960 . S
C844 H831 0.960 . S
C844 C843 1.524 . S
C845 C842 1.403 . S
C845 C846 1.392 . S
C845 C849 1.495 . S
C846 C845 1.392 . S
C846 C847 1.385 . S
C846 C848 1.478 . S
C847 H841 0.930 . S
C847 C843 1.400 . S
C847 C846 1.385 . S
C848 C846 1.478 . S
C848 C850 1.381 . S
C848 C854 1.383 . S
C849 C845 1.495 . S
C849 H855 0.959 . S
C849 H856 0.961 . S
C849 H857 0.960 . S
C850 C848 1.381 . S
C850 C851 1.394 . S
C850 H858 0.930 . S
C851 C850 1.394 . S
C851 C852 1.383 . S
C851 H859 0.929 . S
C852 C851 1.383 . S
C852 C853 1.377 . S
C853 H837 0.930 . S
C853 C852 1.377 . S
C853 C854 1.379 . S
C854 H838 0.931 . S
C854 C848 1.383 . S
C854 C853 1.379 . S
H855 C849 0.959 . S
H856 C849 0.961 . S
H857 C849 0.960 . S
H858 C850 0.930 . S
H859 C851 0.929 . S
H860 C868 0.929 . S
H861 C870 0.930 . S
H862 C872 0.930 . S
H863 C875 0.929 . S
H864 C878 0.930 . S
H865 C880 0.960 . S
H866 C880 0.960 . S
H867 C880 0.960 . S
C868 H860 0.929 . S
C868 C869 1.377 . S
C868 C870 1.384 . S
C869 C868 1.377 . S
C869 C875 1.390 . S
C870 H861 0.930 . S
C870 C868 1.384 . S
C870 C871 1.372 . S
C871 C870 1.372 . S
C871 C872 1.400 . S
C871 C876 1.490 . S
C872 H862 0.930 . S
C872 C871 1.400 . S
C872 C875 1.386 . S
H873 C889 0.930 . S
H874 C890 0.931 . S
C875 H863 0.929 . S
C875 C869 1.390 . S
C875 C872 1.386 . S
C876 C871 1.490 . S
C876 C878 1.395 . S
C876 C879 1.403 . S
H877 C883 0.930 . S
C878 H864 0.930 . S
C878 C876 1.395 . S
C878 C881 1.403 . S
C879 C876 1.403 . S
C879 C880 1.524 . S
C879 C883 1.400 . S
C880 H865 0.960 . S
C880 H866 0.960 . S
C880 H867 0.960 . S
C880 C879 1.524 . S
C881 C878 1.403 . S
C881 C882 1.392 . S
C881 C885 1.495 . S
C882 C881 1.392 . S
C882 C883 1.385 . S
C882 C884 1.478 . S
C883 H877 0.930 . S
C883 C879 1.400 . S
C883 C882 1.385 . S
C884 C882 1.478 . S
C884 C886 1.381 . S
C884 C890 1.383 . S
C885 C881 1.495 . S
C885 H891 0.959 . S
C885 H892 0.961 . S
C885 H893 0.960 . S
C886 C884 1.381 . S
C886 C887 1.394 . S
C886 H894 0.930 . S
C887 C886 1.394 . S
C887 C888 1.383 . S
C887 H895 0.929 . S
C888 C887 1.383 . S
C888 C889 1.377 . S
C889 H873 0.930 . S
C889 C888 1.377 . S
C889 C890 1.379 . S
C890 H874 0.931 . S
C890 C884 1.383 . S
C890 C889 1.379 . S
H891 C885 0.959 . S
H892 C885 0.961 . S
H893 C885 0.960 . S
H894 C886 0.930 . S
H895 C887 0.929 . S
H896 C904 0.929 . S
H897 C906 0.930 . S
H898 C908 0.930 . S
H899 C911 0.929 . S
H900 C914 0.930 . S
H901 C916 0.960 . S
H902 C916 0.960 . S
H903 C916 0.960 . S
C904 H896 0.929 . S
C904 C905 1.377 . S
C904 C906 1.384 . S
C905 C904 1.377 . S
C905 C911 1.390 . S
C906 H897 0.930 . S
C906 C904 1.384 . S
C906 C907 1.372 . S
C907 C906 1.372 . S
C907 C908 1.400 . S
C907 C912 1.490 . S
C908 H898 0.930 . S
C908 C907 1.400 . S
C908 C911 1.386 . S
H909 C925 0.930 . S
H910 C926 0.932 . S
C911 H899 0.929 . S
C911 C905 1.390 . S
C911 C908 1.386 . S
C912 C907 1.490 . S
C912 C914 1.395 . S
C912 C915 1.403 . S
H913 C919 0.930 . S
C914 H900 0.930 . S
C914 C912 1.395 . S
C914 C917 1.403 . S
C915 C912 1.403 . S
C915 C916 1.524 . S
C915 C919 1.400 . S
C916 H901 0.960 . S
C916 H902 0.960 . S
C916 H903 0.960 . S
C916 C915 1.524 . S
C917 C914 1.403 . S
C917 C918 1.392 . S
C917 C921 1.495 . S
C918 C917 1.392 . S
C918 C919 1.385 . S
C918 C920 1.478 . S
C919 H913 0.930 . S
C919 C915 1.400 . S
C919 C918 1.385 . S
C920 C918 1.478 . S
C920 C922 1.381 . S
C920 C926 1.383 1_556 S
C921 C917 1.495 . S
C921 H927 0.959 . S
C921 H928 0.961 1_556 S
C921 H929 0.960 . S
C922 C920 1.381 . S
C922 C923 1.394 1_556 S
C922 H930 0.930 . S
C923 C922 1.394 1_554 S
C923 C924 1.383 . S
C923 H931 0.929 . S
C924 C923 1.383 . S
C924 C925 1.377 . S
C925 H909 0.930 . S
C925 C924 1.377 . S
C925 C926 1.379 . S
C926 H910 0.932 . S
C926 C920 1.383 1_554 S
C926 C925 1.379 . S
H927 C921 0.959 . S
H928 C921 0.961 1_554 S
H929 C921 0.960 . S
H930 C922 0.930 . S
H931 C923 0.929 . S
H932 C940 0.929 . S
H933 C942 0.930 . S
H934 C944 0.930 . S
H935 C947 0.929 . S
H936 C950 0.930 . S
H937 C952 0.960 . S
H938 C952 0.960 . S
H939 C952 0.960 . S
C940 H932 0.929 . S
C940 C941 1.377 . S
C940 C942 1.384 . S
C941 C940 1.377 . S
C941 C947 1.390 . S
C942 H933 0.930 . S
C942 C940 1.384 . S
C942 C943 1.372 . S
C943 C942 1.372 . S
C943 C944 1.400 . S
C943 C948 1.490 . S
C944 H934 0.930 . S
C944 C943 1.400 . S
C944 C947 1.386 . S
H945 C961 0.930 . S
H946 C962 0.931 . S
C947 H935 0.929 . S
C947 C941 1.390 . S
C947 C944 1.386 . S
C948 C943 1.490 . S
C948 C950 1.395 . S
C948 C951 1.403 . S
H949 C955 0.930 . S
C950 H936 0.930 . S
C950 C948 1.395 . S
C950 C953 1.403 . S
C951 C948 1.403 . S
C951 C952 1.524 . S
C951 C955 1.400 . S
C952 H937 0.960 . S
C952 H938 0.960 . S
C952 H939 0.960 . S
C952 C951 1.524 . S
C953 C950 1.403 . S
C953 C954 1.392 . S
C953 C957 1.495 . S
C954 C953 1.392 . S
C954 C955 1.385 . S
C954 C956 1.478 . S
C955 H949 0.930 . S
C955 C951 1.400 . S
C955 C954 1.385 . S
C956 C954 1.478 . S
C956 C958 1.381 . S
C956 C962 1.383 . S
C957 C953 1.495 . S
C957 H963 0.959 . S
C957 H964 0.961 . S
C957 H965 0.960 . S
C958 C956 1.381 . S
C958 C959 1.394 . S
C958 H966 0.930 . S
C959 C958 1.394 . S
C959 C960 1.383 . S
C959 H967 0.929 . S
C960 C959 1.383 . S
C960 C961 1.377 . S
C961 H945 0.930 . S
C961 C960 1.377 . S
C961 C962 1.379 . S
C962 H946 0.931 . S
C962 C956 1.383 . S
C962 C961 1.379 . S
H963 C957 0.959 . S
H964 C957 0.961 . S
H965 C957 0.960 . S
H966 C958 0.930 . S
H967 C959 0.929 . S
H968 C976 0.929 . S
H969 C978 0.930 . S
H970 C980 0.930 . S
H971 C983 0.929 . S
H972 C986 0.930 . S
H973 C988 0.960 . S
H974 C988 0.960 1_556 S
H975 C988 0.960 1_556 S
C976 H968 0.929 . S
C976 C977 1.377 . S
C976 C978 1.384 1_556 S
C977 C976 1.377 . S
C977 C983 1.390 . S
C978 H969 0.930 . S
C978 C976 1.384 1_554 S
C978 C979 1.372 . S
C979 C978 1.372 . S
C979 C980 1.400 1_554 S
C979 C984 1.490 . S
C980 H970 0.930 . S
C980 C979 1.400 1_556 S
C980 C983 1.386 . S
H981 C997 0.930 . S
H982 C998 0.931 . S
C983 H971 0.929 . S
C983 C977 1.390 . S
C983 C980 1.386 . S
C984 C979 1.490 . S
C984 C986 1.395 . S
C984 C987 1.403 . S
H985 C991 0.930 . S
C986 H972 0.930 . S
C986 C984 1.395 . S
C986 C989 1.403 . S
C987 C984 1.403 . S
C987 C988 1.524 . S
C987 C991 1.400 . S
C988 H973 0.960 . S
C988 H974 0.960 1_554 S
C988 H975 0.960 1_554 S
C988 C987 1.524 . S
C989 C986 1.403 . S
C989 C990 1.392 . S
C989 C993 1.495 . S
C990 C989 1.392 . S
C990 C991 1.385 . S
C990 C992 1.478 . S
C991 H985 0.930 . S
C991 C987 1.400 . S
C991 C990 1.385 . S
C992 C990 1.478 . S
C992 C994 1.381 . S
C992 C998 1.383 . S
C993 C989 1.495 . S
C993 H999 0.959 . S
C993 H1000 0.961 . S
C993 H1001 0.960 . S
C994 C992 1.381 . S
C994 C995 1.394 . S
C994 H1002 0.930 . S
C995 C994 1.394 . S
C995 C996 1.383 . S
C995 H1003 0.929 . S
C996 C995 1.383 . S
C996 C997 1.377 . S
C997 H981 0.930 . S
C997 C996 1.377 . S
C997 C998 1.379 . S
C998 H982 0.931 . S
C998 C992 1.383 . S
C998 C997 1.379 . S
H999 C993 0.959 . S
H1000 C993 0.961 . S
H1001 C993 0.960 . S
H1002 C994 0.930 . S
H1003 C995 0.929 . S
H1004 C1012 0.929 . S
H1005 C1014 0.930 . S
H1006 C1016 0.930 . S
H1007 C1019 0.929 . S
H1008 C1022 0.930 . S
H1009 C1024 0.960 . S
H1010 C1024 0.960 . S
H1011 C1024 0.960 . S
C1012 H1004 0.929 . S
C1012 C1013 1.377 . S
C1012 C1014 1.384 . S
C1013 C1012 1.377 . S
C1013 C1019 1.390 . S
C1014 H1005 0.930 . S
C1014 C1012 1.384 . S
C1014 C1015 1.372 . S
C1015 C1014 1.372 . S
C1015 C1016 1.400 . S
C1015 C1020 1.490 . S
C1016 H1006 0.930 . S
C1016 C1015 1.400 . S
C1016 C1019 1.386 . S
H1017 C1033 0.930 . S
H1018 C1034 0.931 . S
C1019 H1007 0.929 . S
C1019 C1013 1.390 . S
C1019 C1016 1.386 . S
C1020 C1015 1.490 . S
C1020 C1022 1.395 . S
C1020 C1023 1.403 . S
H1021 C1027 0.930 . S
C1022 H1008 0.930 . S
C1022 C1020 1.395 . S
C1022 C1025 1.403 . S
C1023 C1020 1.403 . S
C1023 C1024 1.524 . S
C1023 C1027 1.400 . S
C1024 H1009 0.960 . S
C1024 H1010 0.960 . S
C1024 H1011 0.960 . S
C1024 C1023 1.524 . S
C1025 C1022 1.403 . S
C1025 C1026 1.392 . S
C1025 C1029 1.495 . S
C1026 C1025 1.392 . S
C1026 C1027 1.385 . S
C1026 C1028 1.478 . S
C1027 H1021 0.930 . S
C1027 C1023 1.400 . S
C1027 C1026 1.385 . S
C1028 C1026 1.478 . S
C1028 C1030 1.381 . S
C1028 C1034 1.383 . S
C1029 C1025 1.495 . S
C1029 H1035 0.959 . S
C1029 H1036 0.961 . S
C1029 H1037 0.960 . S
C1030 C1028 1.381 . S
C1030 C1031 1.394 . S
C1030 H1038 0.930 . S
C1031 C1030 1.394 . S
C1031 C1032 1.383 . S
C1031 H1039 0.929 . S
C1032 C1031 1.383 . S
C1032 C1033 1.377 . S
C1033 H1017 0.930 . S
C1033 C1032 1.377 . S
C1033 C1034 1.379 . S
C1034 H1018 0.931 . S
C1034 C1028 1.383 . S
C1034 C1033 1.379 . S
H1035 C1029 0.959 . S
H1036 C1029 0.961 . S
H1037 C1029 0.960 . S
H1038 C1030 0.930 . S
H1039 C1031 0.929 . S
H1040 C1048 0.929 . S
H1041 C1050 0.930 . S
H1042 C1052 0.930 . S
H1043 C1055 0.929 . S
H1044 C1058 0.930 . S
H1045 C1060 0.960 . S
H1046 C1060 0.960 . S
H1047 C1060 0.960 . S
C1048 H1040 0.929 . S
C1048 C1049 1.377 . S
C1048 C1050 1.384 . S
C1049 C1048 1.377 . S
C1049 C1055 1.390 . S
C1050 H1041 0.930 . S
C1050 C1048 1.384 . S
C1050 C1051 1.372 . S
C1051 C1050 1.372 . S
C1051 C1052 1.400 . S
C1051 C1056 1.490 . S
C1052 H1042 0.930 . S
C1052 C1051 1.400 . S
C1052 C1055 1.386 . S
H1053 C1069 0.930 . S
H1054 C1070 0.931 . S
C1055 H1043 0.929 . S
C1055 C1049 1.390 . S
C1055 C1052 1.386 . S
C1056 C1051 1.490 . S
C1056 C1058 1.395 . S
C1056 C1059 1.403 . S
H1057 C1063 0.930 . S
C1058 H1044 0.930 . S
C1058 C1056 1.395 . S
C1058 C1061 1.403 . S
C1059 C1056 1.403 . S
C1059 C1060 1.524 . S
C1059 C1063 1.400 . S
C1060 H1045 0.960 . S
C1060 H1046 0.960 . S
C1060 H1047 0.960 . S
C1060 C1059 1.524 . S
C1061 C1058 1.403 . S
C1061 C1062 1.392 . S
C1061 C1065 1.495 . S
C1062 C1061 1.392 . S
C1062 C1063 1.385 . S
C1062 C1064 1.478 . S
C1063 H1057 0.930 . S
C1063 C1059 1.400 . S
C1063 C1062 1.385 . S
C1064 C1062 1.478 . S
C1064 C1066 1.381 . S
C1064 C1070 1.383 1_554 S
C1065 C1061 1.495 . S
C1065 H1071 0.959 . S
C1065 H1072 0.961 1_554 S
C1065 H1073 0.960 . S
C1066 C1064 1.381 . S
C1066 C1067 1.394 1_554 S
C1066 H1074 0.930 . S
C1067 C1066 1.394 1_556 S
C1067 C1068 1.383 . S
C1067 H1075 0.929 . S
C1068 C1067 1.383 . S
C1068 C1069 1.377 . S
C1069 H1053 0.930 . S
C1069 C1068 1.377 . S
C1069 C1070 1.379 . S
C1070 H1054 0.931 . S
C1070 C1064 1.383 1_556 S
C1070 C1069 1.379 . S
H1071 C1065 0.959 . S
H1072 C1065 0.961 1_556 S
H1073 C1065 0.960 . S
H1074 C1066 0.930 . S
H1075 C1067 0.929 . S
H1076 C1084 0.929 . S
H1077 C1086 0.930 . S
H1078 C1088 0.930 . S
H1079 C1091 0.929 . S
H1080 C1094 0.930 . S
H1081 C1096 0.960 . S
H1082 C1096 0.960 . S
H1083 C1096 0.960 . S
C1084 H1076 0.929 . S
C1084 C1085 1.377 . S
C1084 C1086 1.384 . S
C1085 C1084 1.377 . S
C1085 C1091 1.390 . S
C1086 H1077 0.930 . S
C1086 C1084 1.384 . S
C1086 C1087 1.372 . S
C1087 C1086 1.372 . S
C1087 C1088 1.400 . S
C1087 C1092 1.490 . S
C1088 H1078 0.930 . S
C1088 C1087 1.400 . S
C1088 C1091 1.386 . S
H1089 C1105 0.930 . S
H1090 C1106 0.931 . S
C1091 H1079 0.929 . S
C1091 C1085 1.390 . S
C1091 C1088 1.386 . S
C1092 C1087 1.490 . S
C1092 C1094 1.395 . S
C1092 C1095 1.403 . S
H1093 C1099 0.930 . S
C1094 H1080 0.930 . S
C1094 C1092 1.395 . S
C1094 C1097 1.403 . S
C1095 C1092 1.403 . S
C1095 C1096 1.524 . S
C1095 C1099 1.400 . S
C1096 H1081 0.960 . S
C1096 H1082 0.960 . S
C1096 H1083 0.960 . S
C1096 C1095 1.524 . S
C1097 C1094 1.403 . S
C1097 C1098 1.392 . S
C1097 C1101 1.495 . S
C1098 C1097 1.392 . S
C1098 C1099 1.385 . S
C1098 C1100 1.478 . S
C1099 H1093 0.930 . S
C1099 C1095 1.400 . S
C1099 C1098 1.385 . S
C1100 C1098 1.478 . S
C1100 C1102 1.381 . S
C1100 C1106 1.383 . S
C1101 C1097 1.495 . S
C1101 H1107 0.959 . S
C1101 H1108 0.961 . S
C1101 H1109 0.960 . S
C1102 C1100 1.381 . S
C1102 C1103 1.394 . S
C1102 H1110 0.930 . S
C1103 C1102 1.394 . S
C1103 C1104 1.383 . S
C1103 H1111 0.929 . S
C1104 C1103 1.383 . S
C1104 C1105 1.377 . S
C1105 H1089 0.930 . S
C1105 C1104 1.377 . S
C1105 C1106 1.379 . S
C1106 H1090 0.931 . S
C1106 C1100 1.383 . S
C1106 C1105 1.379 . S
H1107 C1101 0.959 . S
H1108 C1101 0.961 . S
H1109 C1101 0.960 . S
H1110 C1102 0.930 . S
H1111 C1103 0.929 . S
H1112 C1120 0.929 . S
H1113 C1122 0.930 . S
H1114 C1124 0.930 . S
H1115 C1127 0.929 . S
H1116 C1130 0.930 . S
H1117 C1132 0.960 . S
H1118 C1132 0.960 . S
H1119 C1132 0.960 . S
C1120 H1112 0.929 . S
C1120 C1121 1.377 . S
C1120 C1122 1.384 . S
C1121 C1120 1.377 . S
C1121 C1127 1.390 . S
C1122 H1113 0.930 . S
C1122 C1120 1.384 . S
C1122 C1123 1.372 . S
C1123 C1122 1.372 . S
C1123 C1124 1.400 . S
C1123 C1128 1.490 . S
C1124 H1114 0.930 . S
C1124 C1123 1.400 . S
C1124 C1127 1.386 . S
H1125 C1141 0.930 . S
H1126 C1142 0.931 . S
C1127 H1115 0.929 . S
C1127 C1121 1.390 . S
C1127 C1124 1.386 . S
C1128 C1123 1.490 . S
C1128 C1130 1.395 . S
C1128 C1131 1.403 . S
H1129 C1135 0.930 . S
C1130 H1116 0.930 . S
C1130 C1128 1.395 . S
C1130 C1133 1.403 . S
C1131 C1128 1.403 . S
C1131 C1132 1.524 . S
C1131 C1135 1.400 . S
C1132 H1117 0.960 . S
C1132 H1118 0.960 . S
C1132 H1119 0.960 . S
C1132 C1131 1.524 . S
C1133 C1130 1.403 . S
C1133 C1134 1.392 . S
C1133 C1137 1.495 . S
C1134 C1133 1.392 . S
C1134 C1135 1.385 . S
C1134 C1136 1.478 . S
C1135 H1129 0.930 . S
C1135 C1131 1.400 . S
C1135 C1134 1.385 . S
C1136 C1134 1.478 . S
C1136 C1138 1.381 . S
C1136 C1142 1.383 . S
C1137 C1133 1.495 . S
C1137 H1143 0.959 . S
C1137 H1144 0.961 . S
C1137 H1145 0.960 . S
C1138 C1136 1.381 . S
C1138 C1139 1.394 . S
C1138 H1146 0.930 . S
C1139 C1138 1.394 . S
C1139 C1140 1.383 . S
C1139 H1147 0.929 . S
C1140 C1139 1.383 . S
C1140 C1141 1.377 . S
C1141 H1125 0.930 . S
C1141 C1140 1.377 . S
C1141 C1142 1.379 . S
C1142 H1126 0.931 . S
C1142 C1136 1.383 . S
C1142 C1141 1.379 . S
H1143 C1137 0.959 . S
H1144 C1137 0.961 . S
H1145 C1137 0.960 . S
H1146 C1138 0.930 . S
H1147 C1139 0.929 . S
H1148 C1156 0.929 . S
H1149 C1158 0.930 . S
H1150 C1160 0.930 . S
H1151 C1163 0.929 . S
H1152 C1166 0.930 . S
H1153 C1168 0.960 . S
H1154 C1168 0.960 . S
H1155 C1168 0.960 . S
C1156 H1148 0.929 . S
C1156 C1157 1.377 . S
C1156 C1158 1.384 . S
C1157 C1156 1.377 . S
C1157 C1163 1.390 1_565 S
C1158 H1149 0.930 . S
C1158 C1156 1.384 . S
C1158 C1159 1.372 . S
C1159 C1158 1.372 . S
C1159 C1160 1.400 . S
C1159 C1164 1.490 . S
C1160 H1150 0.930 . S
C1160 C1159 1.400 . S
C1160 C1163 1.386 1_565 S
H1161 C1177 0.930 . S
H1162 C1178 0.931 . S
C1163 H1151 0.929 . S
C1163 C1157 1.390 1_545 S
C1163 C1160 1.386 1_545 S
C1164 C1159 1.490 . S
C1164 C1166 1.395 . S
C1164 C1167 1.403 . S
H1165 C1171 0.930 . S
C1166 H1152 0.930 . S
C1166 C1164 1.395 . S
C1166 C1169 1.403 . S
C1167 C1164 1.403 . S
C1167 C1168 1.524 . S
C1167 C1171 1.400 . S
C1168 H1153 0.960 . S
C1168 H1154 0.960 . S
C1168 H1155 0.960 . S
C1168 C1167 1.524 . S
C1169 C1166 1.403 . S
C1169 C1170 1.392 . S
C1169 C1173 1.495 . S
C1170 C1169 1.392 . S
C1170 C1171 1.385 . S
C1170 C1172 1.478 . S
C1171 H1165 0.930 . S
C1171 C1167 1.400 . S
C1171 C1170 1.385 . S
C1172 C1170 1.478 . S
C1172 C1174 1.381 . S
C1172 C1178 1.383 . S
C1173 C1169 1.495 . S
C1173 H1179 0.959 . S
C1173 H1180 0.961 . S
C1173 H1181 0.960 . S
C1174 C1172 1.381 . S
C1174 C1175 1.394 . S
C1174 H1182 0.930 . S
C1175 C1174 1.394 . S
C1175 C1176 1.383 . S
C1175 H1183 0.929 . S
C1176 C1175 1.383 . S
C1176 C1177 1.377 . S
C1177 H1161 0.930 . S
C1177 C1176 1.377 . S
C1177 C1178 1.379 . S
C1178 H1162 0.931 . S
C1178 C1172 1.383 . S
C1178 C1177 1.379 . S
H1179 C1173 0.959 . S
H1180 C1173 0.961 . S
H1181 C1173 0.960 . S
H1182 C1174 0.930 . S
H1183 C1175 0.929 . S
H1184 C1192 0.929 . S
H1185 C1194 0.930 . S
H1186 C1196 0.930 . S
H1187 C1199 0.929 . S
H1188 C1202 0.930 . S
H1189 C1204 0.960 . S
H1190 C1204 0.960 . S
H1191 C1204 0.960 . S
C1192 H1184 0.929 . S
C1192 C1193 1.377 . S
C1192 C1194 1.384 . S
C1193 C1192 1.377 . S
C1193 C1199 1.390 . S
C1194 H1185 0.930 . S
C1194 C1192 1.384 . S
C1194 C1195 1.372 . S
C1195 C1194 1.372 . S
C1195 C1196 1.400 . S
C1195 C1200 1.490 . S
C1196 H1186 0.930 . S
C1196 C1195 1.400 . S
C1196 C1199 1.386 . S
H1197 C1213 0.930 . S
H1198 C1214 0.931 . S
C1199 H1187 0.929 . S
C1199 C1193 1.390 . S
C1199 C1196 1.386 . S
C1200 C1195 1.490 . S
C1200 C1202 1.395 . S
C1200 C1203 1.403 . S
H1201 C1207 0.930 . S
C1202 H1188 0.930 . S
C1202 C1200 1.395 . S
C1202 C1205 1.403 . S
C1203 C1200 1.403 . S
C1203 C1204 1.524 . S
C1203 C1207 1.400 . S
C1204 H1189 0.960 . S
C1204 H1190 0.960 . S
C1204 H1191 0.960 . S
C1204 C1203 1.524 . S
C1205 C1202 1.403 . S
C1205 C1206 1.392 . S
C1205 C1209 1.495 . S
C1206 C1205 1.392 . S
C1206 C1207 1.385 . S
C1206 C1208 1.478 . S
C1207 H1201 0.930 . S
C1207 C1203 1.400 . S
C1207 C1206 1.385 . S
C1208 C1206 1.478 . S
C1208 C1210 1.381 . S
C1208 C1214 1.383 . S
C1209 C1205 1.495 . S
C1209 H1215 0.959 . S
C1209 H1216 0.961 . S
C1209 H1217 0.960 . S
C1210 C1208 1.381 . S
C1210 C1211 1.394 . S
C1210 H1218 0.930 . S
C1211 C1210 1.394 . S
C1211 C1212 1.383 . S
C1211 H1219 0.929 . S
C1212 C1211 1.383 . S
C1212 C1213 1.377 1_455 S
C1213 H1197 0.930 . S
C1213 C1212 1.377 1_655 S
C1213 C1214 1.379 1_655 S
C1214 H1198 0.931 . S
C1214 C1208 1.383 . S
C1214 C1213 1.379 1_455 S
H1215 C1209 0.959 . S
H1216 C1209 0.961 . S
H1217 C1209 0.960 . S
H1218 C1210 0.930 . S
H1219 C1211 0.929 . S
H1220 C1228 0.929 . S
H1221 C1230 0.930 . S
H1222 C1232 0.930 . S
H1223 C1235 0.929 . S
H1224 C1238 0.930 . S
H1225 C1240 0.960 . S
H1226 C1240 0.960 . S
H1227 C1240 0.960 . S
C1228 H1220 0.929 . S
C1228 C1229 1.377 . S
C1228 C1230 1.384 . S
C1229 C1228 1.377 . S
C1229 C1235 1.390 . S
C1230 H1221 0.930 . S
C1230 C1228 1.384 . S
C1230 C1231 1.372 . S
C1231 C1230 1.372 . S
C1231 C1232 1.400 . S
C1231 C1236 1.490 . S
C1232 H1222 0.930 . S
C1232 C1231 1.400 . S
C1232 C1235 1.386 . S
H1233 C1249 0.930 . S
H1234 C1250 0.931 . S
C1235 H1223 0.929 . S
C1235 C1229 1.390 . S
C1235 C1232 1.386 . S
C1236 C1231 1.490 . S
C1236 C1238 1.395 . S
C1236 C1239 1.403 . S
H1237 C1243 0.930 . S
C1238 H1224 0.930 . S
C1238 C1236 1.395 . S
C1238 C1241 1.403 . S
C1239 C1236 1.403 . S
C1239 C1240 1.524 . S
C1239 C1243 1.400 . S
C1240 H1225 0.960 . S
C1240 H1226 0.960 . S
C1240 H1227 0.960 . S
C1240 C1239 1.524 . S
C1241 C1238 1.403 . S
C1241 C1242 1.392 . S
C1241 C1245 1.495 . S
C1242 C1241 1.392 . S
C1242 C1243 1.385 . S
C1242 C1244 1.478 . S
C1243 H1237 0.930 . S
C1243 C1239 1.400 . S
C1243 C1242 1.385 . S
C1244 C1242 1.478 . S
C1244 C1246 1.381 . S
C1244 C1250 1.383 . S
C1245 C1241 1.495 . S
C1245 H1251 0.959 . S
C1245 H1252 0.961 . S
C1245 H1253 0.960 . S
C1246 C1244 1.381 . S
C1246 C1247 1.394 . S
C1246 H1254 0.930 . S
C1247 C1246 1.394 . S
C1247 C1248 1.383 . S
C1247 H1255 0.929 . S
C1248 C1247 1.383 . S
C1248 C1249 1.377 . S
C1249 H1233 0.930 . S
C1249 C1248 1.377 . S
C1249 C1250 1.379 . S
C1250 H1234 0.931 . S
C1250 C1244 1.383 . S
C1250 C1249 1.379 . S
H1251 C1245 0.959 . S
H1252 C1245 0.961 . S
H1253 C1245 0.960 . S
H1254 C1246 0.930 . S
H1255 C1247 0.929 . S
H1256 C1264 0.929 . S
H1257 C1266 0.930 . S
H1258 C1268 0.930 . S
H1259 C1271 0.929 . S
H1260 C1274 0.930 . S
H1261 C1276 0.960 . S
H1262 C1276 0.960 . S
H1263 C1276 0.960 . S
C1264 H1256 0.929 . S
C1264 C1265 1.377 . S
C1264 C1266 1.384 . S
C1265 C1264 1.377 . S
C1265 C1271 1.390 . S
C1266 H1257 0.930 . S
C1266 C1264 1.384 . S
C1266 C1267 1.372 . S
C1267 C1266 1.372 . S
C1267 C1268 1.400 . S
C1267 C1272 1.490 . S
C1268 H1258 0.930 . S
C1268 C1267 1.400 . S
C1268 C1271 1.386 . S
H1269 C1285 0.930 . S
H1270 C1286 0.931 . S
C1271 H1259 0.929 . S
C1271 C1265 1.390 . S
C1271 C1268 1.386 . S
C1272 C1267 1.490 . S
C1272 C1274 1.395 . S
C1272 C1275 1.403 . S
H1273 C1279 0.930 . S
C1274 H1260 0.930 . S
C1274 C1272 1.395 . S
C1274 C1277 1.403 . S
C1275 C1272 1.403 . S
C1275 C1276 1.524 . S
C1275 C1279 1.400 . S
C1276 H1261 0.960 . S
C1276 H1262 0.960 . S
C1276 H1263 0.960 . S
C1276 C1275 1.524 . S
C1277 C1274 1.403 . S
C1277 C1278 1.392 . S
C1277 C1281 1.495 . S
C1278 C1277 1.392 . S
C1278 C1279 1.385 . S
C1278 C1280 1.478 . S
C1279 H1273 0.930 . S
C1279 C1275 1.400 . S
C1279 C1278 1.385 . S
C1280 C1278 1.478 . S
C1280 C1282 1.381 . S
C1280 C1286 1.383 . S
C1281 C1277 1.495 . S
C1281 H1287 0.959 . S
C1281 H1288 0.961 . S
C1281 H1289 0.960 . S
C1282 C1280 1.381 . S
C1282 C1283 1.394 . S
C1282 H1290 0.930 . S
C1283 C1282 1.394 . S
C1283 C1284 1.383 . S
C1283 H1291 0.929 . S
C1284 C1283 1.383 . S
C1284 C1285 1.377 . S
C1285 H1269 0.930 . S
C1285 C1284 1.377 . S
C1285 C1286 1.379 . S
C1286 H1270 0.931 . S
C1286 C1280 1.383 . S
C1286 C1285 1.379 . S
H1287 C1281 0.959 . S
H1288 C1281 0.961 . S
H1289 C1281 0.960 . S
H1290 C1282 0.930 . S
H1291 C1283 0.929 . S
H1292 C1300 0.929 . S
H1293 C1302 0.930 . S
H1294 C1304 0.930 . S
H1295 C1307 0.929 . S
H1296 C1310 0.930 . S
H1297 C1312 0.960 . S
H1298 C1312 0.960 . S
H1299 C1312 0.960 . S
C1300 H1292 0.929 . S
C1300 C1301 1.377 1_565 S
C1300 C1302 1.384 1_565 S
C1301 C1300 1.377 1_545 S
C1301 C1307 1.390 . S
C1302 H1293 0.930 . S
C1302 C1300 1.384 1_545 S
C1302 C1303 1.372 . S
C1303 C1302 1.372 . S
C1303 C1304 1.400 . S
C1303 C1308 1.490 . S
C1304 H1294 0.930 . S
C1304 C1303 1.400 . S
C1304 C1307 1.386 . S
H1305 C1321 0.930 . S
H1306 C1322 0.931 . S
C1307 H1295 0.929 . S
C1307 C1301 1.390 . S
C1307 C1304 1.386 . S
C1308 C1303 1.490 . S
C1308 C1310 1.395 . S
C1308 C1311 1.403 . S
H1309 C1315 0.930 . S
C1310 H1296 0.930 . S
C1310 C1308 1.395 . S
C1310 C1313 1.403 . S
C1311 C1308 1.403 . S
C1311 C1312 1.524 . S
C1311 C1315 1.400 . S
C1312 H1297 0.960 . S
C1312 H1298 0.960 . S
C1312 H1299 0.960 . S
C1312 C1311 1.524 . S
C1313 C1310 1.403 . S
C1313 C1314 1.392 . S
C1313 C1317 1.495 . S
C1314 C1313 1.392 . S
C1314 C1315 1.385 . S
C1314 C1316 1.478 . S
C1315 H1309 0.930 . S
C1315 C1311 1.400 . S
C1315 C1314 1.385 . S
C1316 C1314 1.478 . S
C1316 C1318 1.381 . S
C1316 C1322 1.383 . S
C1317 C1313 1.495 . S
C1317 H1323 0.959 . S
C1317 H1324 0.961 . S
C1317 H1325 0.960 . S
C1318 C1316 1.381 . S
C1318 C1319 1.394 . S
C1318 H1326 0.930 . S
C1319 C1318 1.394 . S
C1319 C1320 1.383 . S
C1319 H1327 0.929 . S
C1320 C1319 1.383 . S
C1320 C1321 1.377 . S
C1321 H1305 0.930 . S
C1321 C1320 1.377 . S
C1321 C1322 1.379 . S
C1322 H1306 0.931 . S
C1322 C1316 1.383 . S
C1322 C1321 1.379 . S
H1323 C1317 0.959 . S
H1324 C1317 0.961 . S
H1325 C1317 0.960 . S
H1326 C1318 0.930 . S
H1327 C1319 0.929 . S
H1328 C1336 0.929 . S
H1329 C1338 0.930 . S
H1330 C1340 0.930 . S
H1331 C1343 0.929 . S
H1332 C1346 0.930 . S
H1333 C1348 0.960 . S
H1334 C1348 0.960 . S
H1335 C1348 0.960 . S
C1336 H1328 0.929 . S
C1336 C1337 1.377 1_455 S
C1336 C1338 1.384 1_455 S
C1337 C1336 1.377 1_655 S
C1337 C1343 1.390 . S
C1338 H1329 0.930 . S
C1338 C1336 1.384 1_655 S
C1338 C1339 1.372 . S
C1339 C1338 1.372 . S
C1339 C1340 1.400 . S
C1339 C1344 1.490 . S
C1340 H1330 0.930 . S
C1340 C1339 1.400 . S
C1340 C1343 1.386 . S
H1341 C1357 0.930 . S
H1342 C1358 0.931 . S
C1343 H1331 0.929 . S
C1343 C1337 1.390 . S
C1343 C1340 1.386 . S
C1344 C1339 1.490 . S
C1344 C1346 1.395 . S
C1344 C1347 1.403 . S
H1345 C1351 0.930 . S
C1346 H1332 0.930 . S
C1346 C1344 1.395 . S
C1346 C1349 1.403 . S
C1347 C1344 1.403 . S
C1347 C1348 1.524 . S
C1347 C1351 1.400 . S
C1348 H1333 0.960 . S
C1348 H1334 0.960 . S
C1348 H1335 0.960 . S
C1348 C1347 1.524 . S
C1349 C1346 1.403 . S
C1349 C1350 1.392 . S
C1349 C1353 1.495 . S
C1350 C1349 1.392 . S
C1350 C1351 1.385 . S
C1350 C1352 1.478 . S
C1351 H1345 0.930 . S
C1351 C1347 1.400 . S
C1351 C1350 1.385 . S
C1352 C1350 1.478 . S
C1352 C1354 1.381 . S
C1352 C1358 1.383 . S
C1353 C1349 1.495 . S
C1353 H1359 0.959 . S
C1353 H1360 0.961 . S
C1353 H1361 0.960 . S
C1354 C1352 1.381 . S
C1354 C1355 1.394 . S
C1354 H1362 0.930 . S
C1355 C1354 1.394 . S
C1355 C1356 1.383 . S
C1355 H1363 0.929 . S
C1356 C1355 1.383 . S
C1356 C1357 1.377 . S
C1357 H1341 0.930 . S
C1357 C1356 1.377 . S
C1357 C1358 1.379 . S
C1358 H1342 0.931 . S
C1358 C1352 1.383 . S
C1358 C1357 1.379 . S
H1359 C1353 0.959 . S
H1360 C1353 0.961 . S
H1361 C1353 0.960 . S
H1362 C1354 0.930 . S
H1363 C1355 0.929 . S
H1364 C1372 0.929 . S
H1365 C1374 0.930 . S
H1366 C1376 0.930 . S
H1367 C1379 0.929 . S
H1368 C1382 0.930 . S
H1369 C1384 0.960 . S
H1370 C1384 0.960 . S
H1371 C1384 0.960 . S
C1372 H1364 0.929 . S
C1372 C1373 1.377 . S
C1372 C1374 1.384 . S
C1373 C1372 1.377 . S
C1373 C1379 1.390 . S
C1374 H1365 0.930 . S
C1374 C1372 1.384 . S
C1374 C1375 1.372 . S
C1375 C1374 1.372 . S
C1375 C1376 1.400 . S
C1375 C1380 1.490 . S
C1376 H1366 0.930 . S
C1376 C1375 1.400 . S
C1376 C1379 1.386 . S
H1377 C1393 0.930 . S
H1378 C1394 0.931 . S
C1379 H1367 0.929 . S
C1379 C1373 1.390 . S
C1379 C1376 1.386 . S
C1380 C1375 1.490 . S
C1380 C1382 1.395 . S
C1380 C1383 1.403 . S
H1381 C1387 0.930 . S
C1382 H1368 0.930 . S
C1382 C1380 1.395 . S
C1382 C1385 1.403 . S
C1383 C1380 1.403 . S
C1383 C1384 1.524 . S
C1383 C1387 1.400 . S
C1384 H1369 0.960 . S
C1384 H1370 0.960 . S
C1384 H1371 0.960 . S
C1384 C1383 1.524 . S
C1385 C1382 1.403 . S
C1385 C1386 1.392 . S
C1385 C1389 1.495 . S
C1386 C1385 1.392 . S
C1386 C1387 1.385 . S
C1386 C1388 1.478 . S
C1387 H1381 0.930 . S
C1387 C1383 1.400 . S
C1387 C1386 1.385 . S
C1388 C1386 1.478 . S
C1388 C1390 1.381 . S
C1388 C1394 1.383 . S
C1389 C1385 1.495 . S
C1389 H1395 0.959 . S
C1389 H1396 0.961 . S
C1389 H1397 0.960 . S
C1390 C1388 1.381 . S
C1390 C1391 1.394 . S
C1390 H1398 0.930 . S
C1391 C1390 1.394 . S
C1391 C1392 1.383 . S
C1391 H1399 0.929 . S
C1392 C1391 1.383 . S
C1392 C1393 1.377 . S
C1393 H1377 0.930 . S
C1393 C1392 1.377 . S
C1393 C1394 1.379 . S
C1394 H1378 0.931 . S
C1394 C1388 1.383 . S
C1394 C1393 1.379 . S
H1395 C1389 0.959 . S
H1396 C1389 0.961 . S
H1397 C1389 0.960 . S
H1398 C1390 0.930 . S
H1399 C1391 0.929 . S
C257 C24 1.221 . S
C276 C49 1.226 . S
C293 C55 1.222 . S
C312 C80 1.213 . S
C329 C86 1.230 . S
C348 C111 1.188 . S
C365 C18 1.221 . S
C384 C117 1.219 . S
C401 C124 1.226 . S
C420 C166 1.223 . S
C437 C155 1.230 . S
C456 C197 1.237 . S
C473 C186 1.221 . S
C492 C228 1.191 . S
C509 C217 1.223 . S
C528 C135 1.194 . S
C545 C0 1.257 . S
C564 C148 1.228 . S
C581 C31 1.261 . S
C600 C179 1.273 . S
C617 C62 1.243 . S
C636 C210 1.236 . S
C653 C93 1.244 . S
C672 C241 1.251 . S
C689 C27 0.529 . S
C708 C89 0.488 . S
C725 C120 0.528 . S
C744 C58 0.599 . S
C761 C125 0.555 . S
C780 C187 0.545 . S
C797 C156 0.528 . S
C816 C218 0.639 . S
C833 C10 2.348 . S
C852 C33 2.042 . S
C869 C41 2.347 . S
C888 C64 2.038 . S
C905 C95 2.070 . S
C924 C72 2.338 . S
C941 C103 2.349 . S
C960 C2 2.082 . S
C977 C126 2.348 . S
C996 C165 2.052 . S
C1013 C196 2.072 . S
C1032 C157 2.339 . S
C1049 C227 2.066 . S
C1068 C188 2.342 . S
C1085 C134 2.066 . S
C1104 C219 2.341 . S
C1121 C11 1.458 . S
C1140 C182 1.471 . S
C1157 C42 1.470 1_565 S
C1176 C213 1.522 . S
C1193 C244 1.504 . S
C1212 C73 1.494 1_455 S
C1229 C151 1.495 . S
C1248 C104 1.430 . S
C1265 C32 1.503 . S
C1284 C142 1.450 . S
C1301 C173 1.469 1_545 S
C1320 C63 1.486 . S
C1337 C204 1.463 1_655 S
C1356 C94 1.510 . S
C1373 C1 1.500 . S
C1392 C235 1.475 . S
