# Generated by pormake.
# Topology ukf, (4)-cn, num edge types: 1
# Building blocks:
#     Node 0, Type 0, BuildingBlock: TATPOV_clean_sbu_0, # of connection points: 4
#     Node 1, Type 0, BuildingBlock: TATPOV_clean_sbu_0, # of connection points: 4
#     Node 2, Type 0, BuildingBlock: TATPOV_clean_sbu_0, # of connection points: 4
#     Node 3, Type 0, BuildingBlock: TATPOV_clean_sbu_0, # of connection points: 4
#     Node 4, Type 0, BuildingBlock: TATPOV_clean_sbu_0, # of connection points: 4
#     Node 5, Type 0, BuildingBlock: TATPOV_clean_sbu_0, # of connection points: 4
#     Node 6, Type 0, BuildingBlock: TATPOV_clean_sbu_0, # of connection points: 4
#     Node 7, Type 0, BuildingBlock: TATPOV_clean_sbu_0, # of connection points: 4
#     Node 8, Type 0, BuildingBlock: TATPOV_clean_sbu_0, # of connection points: 4
#     Node 9, Type 0, BuildingBlock: TATPOV_clean_sbu_0, # of connection points: 4
#     Node 10, Type 0, BuildingBlock: TATPOV_clean_sbu_0, # of connection points: 4
#     Node 11, Type 0, BuildingBlock: TATPOV_clean_sbu_0, # of connection points: 4
#     Edge 12, Type (0, 0), BuildingBlock: MIFKUJ_clean_linker_0, # of connection points: 2
#     Edge 13, Type (0, 0), BuildingBlock: MIFKUJ_clean_linker_0, # of connection points: 2
#     Edge 14, Type (0, 0), BuildingBlock: MIFKUJ_clean_linker_0, # of connection points: 2
#     Edge 15, Type (0, 0), BuildingBlock: MIFKUJ_clean_linker_0, # of connection points: 2
#     Edge 16, Type (0, 0), BuildingBlock: MIFKUJ_clean_linker_0, # of connection points: 2
#     Edge 17, Type (0, 0), BuildingBlock: MIFKUJ_clean_linker_0, # of connection points: 2
#     Edge 18, Type (0, 0), BuildingBlock: MIFKUJ_clean_linker_0, # of connection points: 2
#     Edge 19, Type (0, 0), BuildingBlock: MIFKUJ_clean_linker_0, # of connection points: 2
#     Edge 20, Type (0, 0), BuildingBlock: MIFKUJ_clean_linker_0, # of connection points: 2
#     Edge 21, Type (0, 0), BuildingBlock: MIFKUJ_clean_linker_0, # of connection points: 2
#     Edge 22, Type (0, 0), BuildingBlock: MIFKUJ_clean_linker_0, # of connection points: 2
#     Edge 23, Type (0, 0), BuildingBlock: MIFKUJ_clean_linker_0, # of connection points: 2
#     Edge 24, Type (0, 0), BuildingBlock: MIFKUJ_clean_linker_0, # of connection points: 2
#     Edge 25, Type (0, 0), BuildingBlock: MIFKUJ_clean_linker_0, # of connection points: 2
#     Edge 26, Type (0, 0), BuildingBlock: MIFKUJ_clean_linker_0, # of connection points: 2
#     Edge 27, Type (0, 0), BuildingBlock: MIFKUJ_clean_linker_0, # of connection points: 2
#     Edge 28, Type (0, 0), BuildingBlock: MIFKUJ_clean_linker_0, # of connection points: 2
#     Edge 29, Type (0, 0), BuildingBlock: MIFKUJ_clean_linker_0, # of connection points: 2
#     Edge 30, Type (0, 0), BuildingBlock: MIFKUJ_clean_linker_0, # of connection points: 2
#     Edge 31, Type (0, 0), BuildingBlock: MIFKUJ_clean_linker_0, # of connection points: 2
#     Edge 32, Type (0, 0), BuildingBlock: MIFKUJ_clean_linker_0, # of connection points: 2
#     Edge 33, Type (0, 0), BuildingBlock: MIFKUJ_clean_linker_0, # of connection points: 2
#     Edge 34, Type (0, 0), BuildingBlock: MIFKUJ_clean_linker_0, # of connection points: 2
#     Edge 35, Type (0, 0), BuildingBlock: MIFKUJ_clean_linker_0, # of connection points: 2
# Relax obj value: 0.152
# Max RMSD: 0.163
# Mean RMSD: 0.163
data_MOF--net-ukf--node1-TATPOV_clean_sbu_0--edge1-MIFKUJ_clean_linker_0
_symmetry_space_group_name_H-M    P1
_symmetry_Int_Tables_number       1
_symmetry_cell_setting            triclinic
loop_
_symmetry_equiv_pos_as_xyz
'x, y, z'
_cell_length_a     40.33912
_cell_length_b     40.302451
_cell_length_c     85.284903
_cell_angle_alpha  89.985621
_cell_angle_beta   89.988132
_cell_angle_gamma 119.96413
loop_
_atom_site_label
_atom_site_type_symbol
_atom_site_fract_x
_atom_site_fract_y
_atom_site_fract_z
_atom_type_partial_charge
Zn0 Zn 0.37862 0.24874 0.01981 0.0
Zn1 Zn 0.38197 0.22041 0.04826 0.0
O2 O 0.32918 0.18127 0.03947 0.0
O3 O 0.32387 0.20635 0.01731 0.0
O4 O 0.38156 0.20263 0.07039 0.0
O5 O 0.3905 0.29911 0.02957 0.0
O6 O 0.39318 0.27508 0.05237 0.0
C7 C 0.30986 0.17973 0.02738 0.0
C8 C 0.43754 0.22662 0.02295 0.0
O9 O 0.42565 0.21841 0.03703 0.0
O10 O 0.42207 0.23927 0.01354 0.0
C11 C 0.41051 0.2224 0.07907 0.0
O12 O 0.44083 0.25184 0.07294 0.0
C13 C 0.3959 0.30281 0.04424 0.0
Zn14 Zn 0.12599 0.37389 0.36105 0.0
Zn15 Zn 0.16386 0.38613 0.38865 0.0
O16 O 0.15657 0.3344 0.38093 0.0
O17 O 0.12348 0.32293 0.35906 0.0
O18 O 0.18452 0.39365 0.41078 0.0
O19 O 0.0826 0.37705 0.37112 0.0
O20 O 0.11672 0.39178 0.39275 0.0
C21 C 0.13995 0.31305 0.36913 0.0
C22 C 0.20354 0.44119 0.36186 0.0
O23 O 0.20469 0.4304 0.37579 0.0
O24 O 0.17362 0.42273 0.35358 0.0
C25 C 0.18861 0.36942 0.41888 0.0
O26 O 0.18225 0.33726 0.41234 0.0
C27 C 0.08724 0.38702 0.38537 0.0
Zn28 Zn 0.77024 0.15594 0.68906 0.0
Zn29 Zn 0.79039 0.17171 0.71914 0.0
O30 O 0.82841 0.15668 0.7097 0.0
O31 O 0.80932 0.14009 0.68535 0.0
O32 O 0.80381 0.17873 0.74219 0.0
O33 O 0.71635 0.11776 0.69516 0.0
O34 O 0.73342 0.13064 0.71988 0.0
C35 C 0.83217 0.14455 0.69637 0.0
C36 C 0.79554 0.23461 0.69763 0.0
O37 O 0.79861 0.22378 0.71134 0.0
O38 O 0.785 0.21133 0.68624 0.0
C39 C 0.79006 0.19364 0.75139 0.0
O40 O 0.76843 0.20649 0.74558 0.0
C41 C 0.70782 0.11245 0.70957 0.0
Zn42 Zn 0.59096 0.74162 0.02311 0.0
Zn43 Zn 0.59042 0.77082 0.05147 0.0
O44 O 0.64327 0.81004 0.04228 0.0
O45 O 0.64364 0.78571 0.01918 0.0
O46 O 0.59026 0.78812 0.0737 0.0
O47 O 0.58323 0.69274 0.03286 0.0
O48 O 0.58003 0.71635 0.05568 0.0
C49 C 0.65992 0.81197 0.02929 0.0
C50 C 0.53151 0.76173 0.02683 0.0
O51 O 0.54561 0.77211 0.04054 0.0
O52 O 0.54552 0.74765 0.01741 0.0
C53 C 0.61785 0.79447 0.08276 0.0
O54 O 0.6472 0.79279 0.07702 0.0
C55 C 0.57831 0.68906 0.04755 0.0
Zn56 Zn 0.8623 0.61138 0.36521 0.0
Zn57 Zn 0.82902 0.60541 0.39293 0.0
O58 O 0.84096 0.65847 0.38433 0.0
O59 O 0.87123 0.66436 0.36212 0.0
O60 O 0.81034 0.60356 0.41506 0.0
O61 O 0.90299 0.60286 0.37465 0.0
O62 O 0.87277 0.59425 0.39705 0.0
C63 C 0.85777 0.67779 0.37207 0.0
C64 C 0.78269 0.54954 0.36722 0.0
O65 O 0.78452 0.56113 0.38127 0.0
O66 O 0.81158 0.56608 0.35827 0.0
C67 C 0.83386 0.62826 0.42465 0.0
O68 O 0.86738 0.65482 0.41942 0.0
C69 C 0.89961 0.59457 0.38908 0.0
Zn70 Zn 0.24544 0.85601 0.69072 0.0
Zn71 Zn 0.23039 0.82808 0.72019 0.0
O72 O 0.18677 0.83896 0.71508 0.0
O73 O 0.20279 0.86814 0.69217 0.0
O74 O 0.22347 0.81351 0.74311 0.0
O75 O 0.29898 0.89589 0.69655 0.0
O76 O 0.28535 0.87366 0.72063 0.0
C77 C 0.18042 0.85587 0.70382 0.0
C78 C 0.22683 0.7762 0.69358 0.0
O79 O 0.22511 0.78152 0.70823 0.0
O80 O 0.23413 0.80295 0.68392 0.0
C81 C 0.19209 0.79825 0.75065 0.0
O82 O 0.16011 0.78868 0.74314 0.0
C83 C 0.3089 0.89731 0.71071 0.0
Zn84 Zn 0.75194 0.62192 0.65081 0.0
Zn85 Zn 0.78041 0.61568 0.62277 0.0
O86 O 0.82029 0.66833 0.63136 0.0
O87 O 0.79555 0.67623 0.6531 0.0
O88 O 0.79856 0.61489 0.60076 0.0
O89 O 0.70222 0.61096 0.64071 0.0
O90 O 0.72617 0.60533 0.61838 0.0
C91 C 0.82248 0.68869 0.64318 0.0
C92 C 0.77266 0.56151 0.64897 0.0
O93 O 0.78151 0.57239 0.63479 0.0
O94 O 0.75989 0.57787 0.65785 0.0
C95 C 0.77699 0.58753 0.59166 0.0
O96 O 0.74516 0.55896 0.59728 0.0
C97 C 0.69868 0.60417 0.62613 0.0
Zn98 Zn 0.11979 0.75614 0.97905 0.0
Zn99 Zn 0.14654 0.77501 0.94942 0.0
O100 O 0.13707 0.81837 0.95661 0.0
O101 O 0.10893 0.79981 0.97964 0.0
O102 O 0.15844 0.78513 0.92633 0.0
O103 O 0.07904 0.70348 0.9723 0.0
O104 O 0.10119 0.72022 0.94834 0.0
C105 C 0.12128 0.82382 0.96853 0.0
C106 C 0.19908 0.77361 0.97444 0.0
O107 O 0.19325 0.77757 0.96005 0.0
O108 O 0.17304 0.76561 0.98454 0.0
C109 C 0.19025 0.7965 0.91942 0.0
O110 O 0.22086 0.80485 0.92772 0.0
C111 C 0.07764 0.69537 0.9579 0.0
Zn112 Zn 0.39006 0.13756 0.30517 0.0
Zn113 Zn 0.40009 0.17432 0.27768 0.0
O114 O 0.34732 0.16344 0.28579 0.0
O115 O 0.3366 0.12864 0.30711 0.0
O116 O 0.40395 0.19505 0.25582 0.0
O117 O 0.39947 0.09784 0.29511 0.0
O118 O 0.40993 0.12999 0.2731 0.0
C119 C 0.32578 0.14481 0.29729 0.0
C120 C 0.45324 0.21739 0.30447 0.0
O121 O 0.44363 0.21681 0.2902 0.0
O122 O 0.43499 0.18795 0.31305 0.0
C123 C 0.37709 0.17446 0.24635 0.0
O124 O 0.34756 0.14282 0.25158 0.0
C125 C 0.40862 0.10226 0.28076 0.0
Zn126 Zn 0.25528 0.38523 0.64703 0.0
Zn127 Zn 0.22685 0.38173 0.61814 0.0
O128 O 0.19076 0.32872 0.62799 0.0
O129 O 0.21614 0.33031 0.65102 0.0
O130 O 0.20975 0.37576 0.59552 0.0
O131 O 0.30699 0.39925 0.63833 0.0
O132 O 0.28336 0.39784 0.61496 0.0
C133 C 0.1903 0.31244 0.64089 0.0
C134 C 0.22729 0.4387 0.64158 0.0
O135 O 0.21987 0.4246 0.62778 0.0
O136 O 0.24189 0.42658 0.65164 0.0
C137 C 0.20981 0.40206 0.58727 0.0
O138 O 0.21864 0.43492 0.59385 0.0
C139 C 0.31138 0.40355 0.62364 0.0
Zn140 Zn 0.8531 0.24145 0.98003 0.0
Zn141 Zn 0.8297 0.21747 0.95072 0.0
O142 O 0.84306 0.17757 0.95958 0.0
O143 O 0.86686 0.20054 0.98289 0.0
O144 O 0.81552 0.20365 0.92794 0.0
O145 O 0.89193 0.29381 0.97252 0.0
O146 O 0.87273 0.27352 0.94851 0.0
C147 C 0.85802 0.17524 0.97243 0.0
C148 C 0.7737 0.21851 0.97456 0.0
O149 O 0.78115 0.21291 0.96061 0.0
O150 O 0.7993 0.2299 0.98506 0.0
C151 C 0.83019 0.18882 0.91919 0.0
O152 O 0.85422 0.17934 0.92527 0.0
C153 C 0.89423 0.30019 0.95793 0.0
Zn154 Zn 0.59796 0.85531 0.3086 0.0
Zn155 Zn 0.60184 0.82508 0.28143 0.0
O156 O 0.65092 0.83434 0.29298 0.0
O157 O 0.64445 0.85434 0.31621 0.0
O158 O 0.60616 0.80815 0.2596 0.0
O159 O 0.60311 0.90235 0.29818 0.0
O160 O 0.59626 0.87185 0.27597 0.0
C161 C 0.6628 0.84478 0.30698 0.0
C162 C 0.53362 0.77939 0.30284 0.0
O163 O 0.55301 0.78035 0.29087 0.0
O164 O 0.54557 0.80843 0.31168 0.0
C165 C 0.57786 0.79795 0.25041 0.0
O166 O 0.54644 0.79584 0.25593 0.0
C167 C 0.59892 0.90039 0.28346 0.0
H168 H 0.07098 0.83746 0.98475 0.0
H169 H 0.08069 0.89992 0.99287 0.0
H170 H 0.1867 0.95535 0.96679 0.0
H171 H 0.17548 0.89342 0.95781 0.0
H172 H 0.12844 0.94409 0.01112 0.0
H173 H 0.22193 0.04494 0.95948 0.0
H174 H 0.2191 0.04623 0.93064 0.0
H175 H 0.09787 0.96866 0.932 0.0
H176 H 0.09979 0.96732 0.96087 0.0
H177 H 0.28713 0.10742 0.03728 0.0
H178 H 0.23438 0.04835 0.02706 0.0
H179 H 0.19649 0.11325 0.99956 0.0
H180 H 0.25114 0.17275 0.00907 0.0
H181 H 0.19702 0.06611 0.98166 0.0
H182 H 0.13991 0.04843 0.03071 0.0
H183 H 0.13342 0.04768 0.05946 0.0
H184 H 0.16426 0.96024 0.06292 0.0
H185 H 0.17153 0.96083 0.03421 0.0
C186 C 0.09558 0.86317 0.98032 0.0
C187 C 0.1225 0.86071 0.97067 0.0
C188 C 0.10125 0.89886 0.98503 0.0
C189 C 0.13442 0.93268 0.98048 0.0
C190 C 0.16027 0.93008 0.97016 0.0
C191 C 0.154 0.89449 0.96508 0.0
C192 C 0.14513 0.96988 0.98819 0.0
C193 C 0.14286 0.97074 0.00463 0.0
C194 C 0.16238 0.00488 0.97979 0.0
C195 C 0.16104 0.00596 0.96239 0.0
C196 C 0.19459 0.0284 0.95366 0.0
C197 C 0.19316 0.02906 0.93729 0.0
C198 C 0.15834 0.00751 0.92949 0.0
C199 C 0.12484 0.98528 0.93805 0.0
C200 C 0.12609 0.98451 0.95442 0.0
C201 C 0.26701 0.10912 0.02937 0.0
C202 C 0.27334 0.14465 0.0239 0.0
C203 C 0.23653 0.0752 0.02359 0.0
C204 C 0.21093 0.07605 0.0126 0.0
C205 C 0.21582 0.11168 0.00795 0.0
C206 C 0.24695 0.14568 0.01344 0.0
C207 C 0.18262 0.04009 0.0046 0.0
C208 C 0.18152 0.03949 0.98812 0.0
C209 C 0.16069 0.00543 0.01293 0.0
C210 C 0.15631 0.00474 0.03026 0.0
C211 C 0.14551 0.02917 0.03759 0.0
C212 C 0.14168 0.02876 0.05389 0.0
C213 C 0.14843 0.00393 0.06301 0.0
C214 C 0.15898 0.97942 0.05584 0.0
C215 C 0.16288 0.97971 0.03954 0.0
H216 H 0.14546 0.00367 0.07563 0.0
H217 H 0.15731 0.00805 0.91682 0.0
H218 H 0.20004 0.3038 0.3772 0.0
H219 H 0.21705 0.25944 0.36519 0.0
H220 H 0.10821 0.20278 0.34127 0.0
H221 H 0.09211 0.24877 0.35256 0.0
H222 H 0.19771 0.18949 0.3624 0.0
H223 H 0.11902 0.17903 0.30463 0.0
H224 H 0.09327 0.21426 0.29012 0.0
H225 H 0.17585 0.31919 0.31215 0.0
H226 H 0.20233 0.28465 0.32662 0.0
H227 H 0.26283 0.09423 0.31397 0.0
H228 H 0.21448 0.1067 0.3254 0.0
H229 H 0.26519 0.2155 0.30138 0.0
H230 H 0.31198 0.20212 0.28928 0.0
H231 H 0.19433 0.19188 0.30425 0.0
H232 H 0.29258 0.20328 0.33987 0.0
H233 H 0.33019 0.18027 0.35432 0.0
H234 H 0.22786 0.09363 0.37661 0.0
H235 H 0.18959 0.1159 0.36213 0.0
C236 C 0.17932 0.28126 0.36971 0.0
C237 C 0.14506 0.28008 0.36559 0.0
C238 C 0.18906 0.25585 0.36283 0.0
C239 C 0.16439 0.22843 0.35193 0.0
C240 C 0.12823 0.22445 0.34925 0.0
C241 C 0.11892 0.25052 0.35579 0.0
C242 C 0.17853 0.20742 0.34222 0.0
C243 C 0.19651 0.1896 0.34969 0.0
C244 C 0.17768 0.20807 0.3256 0.0
C245 C 0.16225 0.22916 0.31684 0.0
C246 C 0.13169 0.20962 0.30634 0.0
C247 C 0.11699 0.22947 0.29813 0.0
C248 C 0.13281 0.26891 0.30026 0.0
C249 C 0.16352 0.28862 0.31055 0.0
C250 C 0.17837 0.26893 0.31876 0.0
C251 C 0.2628 0.12022 0.31075 0.0
C252 C 0.29142 0.14745 0.3009 0.0
C253 C 0.23536 0.12746 0.31738 0.0
C254 C 0.23696 0.16262 0.31469 0.0
C255 C 0.26344 0.18825 0.30375 0.0
C256 C 0.29024 0.18058 0.29681 0.0
C257 C 0.21438 0.17485 0.32442 0.0
C258 C 0.19467 0.19089 0.31696 0.0
C259 C 0.21529 0.17427 0.34105 0.0
C260 C 0.23821 0.16091 0.34978 0.0
C261 C 0.2781 0.17917 0.34778 0.0
C262 C 0.29953 0.16629 0.35598 0.0
C263 C 0.28141 0.13542 0.36634 0.0
C264 C 0.24183 0.11747 0.36855 0.0
C265 C 0.22026 0.1302 0.36036 0.0
H266 H 0.29804 0.12549 0.37268 0.0
H267 H 0.12136 0.2842 0.29391 0.0
H268 H 0.85326 0.12948 0.6681 0.0
H269 H 0.9149 0.13724 0.66109 0.0
H270 H 0.94964 0.15733 0.70965 0.0
H271 H 0.88808 0.15135 0.7167 0.0
H272 H -0.00125 0.21255 0.69361 0.0
H273 H 0.9438 0.07916 0.68724 0.0
H274 H 0.89698 0.0135 0.67898 0.0
H275 H 0.91945 0.04748 0.63066 0.0
H276 H 0.966 0.11349 0.63861 0.0
H277 H 0.18163 0.26975 0.66704 0.0
H278 H 0.12136 0.21957 0.67787 0.0
H279 H 0.06245 0.22081 0.63591 0.0
H280 H 0.12269 0.27129 0.62492 0.0
H281 H 0.03007 0.14527 0.65256 0.0
H282 H 0.07076 0.28105 0.66092 0.0
H283 H 0.11823 0.34643 0.66934 0.0
H284 H 0.12181 0.30428 0.7152 0.0
H285 H 0.07479 0.23851 0.70693 0.0
C286 C 0.87356 0.13463 0.6774 0.0
C287 C 0.86595 0.14048 0.69294 0.0
C288 C 0.90885 0.13864 0.67337 0.0
C289 C 0.93709 0.14771 0.68482 0.0
C290 C 0.92838 0.15043 0.70058 0.0
C291 C 0.89316 0.14699 0.70461 0.0
C292 C 0.97712 0.16078 0.67991 0.0
C293 C 0.00563 0.19704 0.68503 0.0
C294 C 0.98633 0.14115 0.66844 0.0
C295 C 0.95836 0.10141 0.66355 0.0
C296 C 0.9386 0.07273 0.67485 0.0
C297 C 0.91212 0.03541 0.67022 0.0
C298 C 0.90522 0.02633 0.65431 0.0
C299 C 0.92484 0.05455 0.64299 0.0
C300 C 0.95135 0.09192 0.64755 0.0
C301 C 0.15613 0.25856 0.65986 0.0
C302 C 0.15676 0.27524 0.64528 0.0
C303 C 0.12174 0.22969 0.66607 0.0
C304 C 0.08751 0.217 0.65778 0.0
C305 C 0.08868 0.23029 0.64247 0.0
C306 C 0.12312 0.25932 0.63624 0.0
C307 C 0.05054 0.19675 0.66614 0.0
C308 C 0.02294 0.15968 0.66156 0.0
C309 C 0.042 0.21532 0.67822 0.0
C310 C 0.06969 0.25489 0.68327 0.0
C311 C 0.0819 0.28572 0.67276 0.0
C312 C 0.10869 0.32283 0.6775 0.0
C313 C 0.12312 0.32949 0.69278 0.0
C314 C 0.11068 0.29907 0.70336 0.0
C315 C 0.08398 0.26187 0.69865 0.0
H316 H 0.14386 0.35824 0.69644 0.0
H317 H 0.8847 0.99743 0.65075 0.0
H318 H 0.71134 0.86913 0.04865 0.0
H319 H 0.76522 0.93104 0.04054 0.0
H320 H 0.74163 0.89619 0.99206 0.0
H321 H 0.68982 0.83402 1.00008 0.0
H322 H 0.81313 0.94121 0.99427 0.0
H323 H 0.70194 0.94646 0.01239 0.0
H324 H 0.65264 0.93851 0.03155 0.0
H325 H 0.74012 0.01512 0.06331 0.0
H326 H 0.78995 0.02316 0.04438 0.0
H327 H 0.82725 0.10734 0.95622 0.0
H328 H 0.81433 0.0456 0.96689 0.0
H329 H 0.87757 0.10187 0.00868 0.0
H330 H 0.89109 0.16355 0.99811 0.0
H331 H 0.79848 0.04964 0.01302 0.0
H332 H 0.90805 0.05454 0.98928 0.0
H333 H 0.95212 0.06277 0.96767 0.0
H334 H 0.86138 0.96729 0.94339 0.0
H335 H 0.81658 0.95881 0.96474 0.0
C336 C 0.7183 0.87446 0.0363 0.0
C337 C 0.69596 0.84694 0.025 0.0
C338 C 0.74898 0.90987 0.03166 0.0
C339 C 0.75685 0.91877 0.01564 0.0
C340 C 0.7362 0.89024 0.00448 0.0
C341 C 0.7063 0.85463 0.00911 0.0
C342 C 0.78317 0.95859 0.01025 0.0
C343 C 0.80995 0.96494 0.99838 0.0
C344 C 0.77949 0.9898 0.01571 0.0
C345 C 0.74962 0.98499 0.02708 0.0
C346 C 0.71063 0.9614 0.02351 0.0
C347 C 0.68261 0.9569 0.03431 0.0
C348 C 0.69325 0.97619 0.04866 0.0
C349 C 0.73193 0.00011 0.05221 0.0
C350 C 0.76007 0.00465 0.04145 0.0
C351 C 0.83964 0.10677 0.96742 0.0
C352 C 0.85945 0.14024 0.97647 0.0
C353 C 0.83231 0.07147 0.97349 0.0
C354 C 0.84474 0.06927 0.98863 0.0
C355 C 0.86768 0.10304 0.99699 0.0
C356 C 0.87524 0.13826 0.99092 0.0
C357 C 0.82768 0.03199 0.99683 0.0
C358 C 0.80243 0.02615 0.00919 0.0
C359 C 0.832 0.00123 0.99146 0.0
C360 C 0.85887 0.00621 0.97859 0.0
C361 C 0.89738 0.0355 0.97927 0.0
C362 C 0.92253 0.04016 0.96708 0.0
C363 C 0.90955 0.01561 0.95415 0.0
C364 C 0.8714 0.98629 0.95341 0.0
C365 C 0.84613 0.98151 0.96557 0.0
H366 H 0.92906 0.01927 0.94473 0.0
H367 H 0.67152 0.97268 0.05701 0.0
H368 H 0.71894 0.84033 0.29043 0.0
H369 H 0.76898 0.82923 0.30113 0.0
H370 H 0.72926 0.83028 0.34804 0.0
H371 H 0.68104 0.84343 0.33754 0.0
H372 H 0.80148 0.85899 0.34946 0.0
H373 H 0.6989 0.74506 0.3256 0.0
H374 H 0.65613 0.70637 0.3041 0.0
H375 H 0.75327 0.72442 0.27682 0.0
H376 H 0.79663 0.7636 0.29812 0.0
H377 H 0.81916 0.70855 0.38716 0.0
H378 H 0.80334 0.75504 0.37614 0.0
H379 H 0.87574 0.7713 0.33631 0.0
H380 H 0.8921 0.72545 0.34723 0.0
H381 H 0.79777 0.74183 0.32925 0.0
H382 H 0.89812 0.84548 0.35776 0.0
H383 H 0.93579 0.87883 0.38121 0.0
H384 H 0.83654 0.87364 0.40219 0.0
H385 H 0.79809 0.83975 0.37896 0.0
C386 C 0.72139 0.83882 0.30303 0.0
C387 C 0.69577 0.84229 0.31312 0.0
C388 C 0.74988 0.83235 0.30914 0.0
C389 C 0.75236 0.82799 0.3254 0.0
C390 C 0.72804 0.83348 0.33547 0.0
C391 C 0.70025 0.84081 0.32942 0.0
C392 C 0.77762 0.8144 0.33197 0.0
C393 C 0.80062 0.83333 0.34505 0.0
C394 C 0.77698 0.78117 0.32615 0.0
C395 C 0.75099 0.75763 0.31335 0.0
C396 C 0.71112 0.74097 0.31497 0.0
C397 C 0.68678 0.71894 0.30283 0.0
C398 C 0.70198 0.71305 0.28908 0.0
C399 C 0.74154 0.72909 0.28746 0.0
C400 C 0.76601 0.7512 0.29956 0.0
C401 C 0.83278 0.72301 0.37634 0.0
C402 C 0.85628 0.71271 0.36793 0.0
C403 C 0.82375 0.74963 0.37006 0.0
C404 C 0.83815 0.76627 0.35535 0.0
C405 C 0.86427 0.75862 0.34765 0.0
C406 C 0.87351 0.73232 0.35393 0.0
C407 C 0.821 0.78602 0.34685 0.0
C408 C 0.79932 0.768 0.33344 0.0
C409 C 0.8221 0.81935 0.35266 0.0
C410 C 0.84515 0.8398 0.36665 0.0
C411 C 0.88423 0.85115 0.36743 0.0
C412 C 0.90575 0.87022 0.38067 0.0
C413 C 0.88855 0.87829 0.39319 0.0
C414 C 0.84982 0.86736 0.39248 0.0
C415 C 0.82816 0.84827 0.37927 0.0
H416 H 0.90526 0.89306 0.40344 0.0
H417 H 0.6831 0.69598 0.27969 0.0
H418 H 0.89346 0.70703 0.63305 0.0
H419 H 0.95399 0.75437 0.64447 0.0
H420 H 0.89532 0.79778 0.67283 0.0
H421 H 0.83403 0.74848 0.66208 0.0
H422 H -0.00103 0.82454 0.64796 0.0
H423 H 0.93652 0.82317 0.70849 0.0
H424 H 0.87854 0.78347 0.72427 0.0
H425 H 0.86077 0.68274 0.6998 0.0
H426 H 0.91884 0.72183 0.68401 0.0
H427 H 0.16746 0.91058 0.69125 0.0
H428 H 0.10524 0.90219 0.68357 0.0
H429 H 0.0492 0.79001 0.70494 0.0
H430 H 0.11092 0.79969 0.71362 0.0
H431 H 0.00249 0.81373 0.70581 0.0
H432 H 0.0833 0.80929 0.66453 0.0
H433 H 0.14138 0.8358 0.6481 0.0
H434 H 0.1222 0.92642 0.63286 0.0
H435 H 0.0642 0.9006 0.64936 0.0
C436 C 0.89345 0.72721 0.64144 0.0
C437 C 0.85897 0.72361 0.64689 0.0
C438 C 0.9282 0.75442 0.64798 0.0
C439 C 0.92924 0.77906 0.65987 0.0
C440 C 0.89517 0.77833 0.66404 0.0
C441 C 0.8602 0.75035 0.6578 0.0
C442 C 0.96519 0.80187 0.66892 0.0
C443 C -0.00034 0.82262 0.66064 0.0
C444 C 0.96636 0.79923 0.68547 0.0
C445 C 0.93162 0.77547 0.69495 0.0
C446 C 0.92022 0.79255 0.70651 0.0
C447 C 0.88737 0.77016 0.71545 0.0
C448 C 0.8659 0.73063 0.71299 0.0
C449 C 0.87734 0.71338 0.70165 0.0
C450 C 0.91019 0.73562 0.6927 0.0
C451 C 0.14165 0.8848 0.69479 0.0
C452 C 0.14384 0.85556 0.70285 0.0
C453 C 0.10615 0.87986 0.69029 0.0
C454 C 0.07254 0.84487 0.69313 0.0
C455 C 0.07462 0.8172 0.70248 0.0
C456 C 0.10997 0.8227 0.70745 0.0
C457 C 0.03629 0.83456 0.68476 0.0
C458 C 0.00179 0.8166 0.69318 0.0
C459 C 0.03508 0.83786 0.66824 0.0
C460 C 0.06981 0.85336 0.65831 0.0
C461 C 0.09163 0.83499 0.65774 0.0
C462 C 0.1245 0.84987 0.64842 0.0
C463 C 0.13555 0.88285 0.63949 0.0
C464 C 0.11367 0.90095 0.63982 0.0
C465 C 0.08082 0.88622 0.64915 0.0
H466 H 0.161 0.89434 0.63228 0.0
H467 H 0.84046 0.71337 0.71991 0.0
H468 H 0.74375 0.21278 0.00375 0.0
H469 H 0.68281 0.20808 0.01062 0.0
H470 H 0.65662 0.20774 0.96158 0.0
H471 H 0.7177 0.21225 0.95454 0.0
H472 H 0.64795 0.26126 0.97956 0.0
H473 H 0.60847 0.12773 0.98129 0.0
H474 H 0.61264 0.07106 0.98916 0.0
H475 H 0.6017 0.09339 0.03755 0.0
H476 H 0.59802 0.15055 0.02999 0.0
H477 H 0.46155 0.22924 0.9928 0.0
H478 H 0.5153 0.22267 0.98369 0.0
H479 H 0.54055 0.20716 0.0314 0.0
H480 H 0.486 0.21263 0.0406 0.0
H481 H 0.548 0.15905 0.01273 0.0
H482 H 0.59237 0.29377 0.01203 0.0
H483 H 0.5909 0.35249 0.00521 0.0
H484 H 0.59585 0.33051 0.95625 0.0
H485 H 0.59682 0.27135 0.96277 0.0
C486 C 0.72493 0.21138 0.9944 0.0
C487 C 0.73559 0.21299 0.97859 0.0
C488 C 0.69003 0.20851 0.99836 0.0
C489 C 0.66518 0.20735 0.98661 0.0
C490 C 0.67544 0.20849 0.97081 0.0
C491 C 0.71024 0.21094 0.96682 0.0
C492 C 0.62953 0.20713 0.99094 0.0
C493 C 0.62569 0.23856 0.98656 0.0
C494 C 0.60124 0.17809 1.00049 0.0
C495 C 0.60329 0.14363 0.00508 0.0
C496 C 0.60727 0.12075 0.99362 0.0
C497 C 0.60948 0.0885 0.99802 0.0
C498 C 0.60752 0.07868 0.01384 0.0
C499 C 0.60325 0.10105 0.0253 0.0
C500 C 0.60105 0.13335 0.02096 0.0
C501 C 0.47848 0.22438 1.00138 0.0
C502 C 0.46966 0.22174 0.01745 0.0
C503 C 0.50929 0.22074 0.99614 0.0
C504 C 0.53238 0.21507 0.00688 0.0
C505 C 0.52318 0.21161 0.0229 0.0
C506 C 0.49207 0.21485 0.02815 0.0
C507 C 0.56641 0.21332 1.0014 0.0
C508 C 0.57005 0.1816 0.00562 0.0
C509 C 0.59483 0.24235 0.99184 0.0
C510 C 0.59424 0.27791 0.98789 0.0
C511 C 0.59282 0.30129 0.9998 0.0
C512 C 0.59214 0.33468 0.99599 0.0
C513 C 0.59317 0.34516 0.98031 0.0
C514 C 0.59498 0.32232 0.9684 0.0
C515 C 0.59563 0.28887 0.97214 0.0
H516 H 0.59265 0.37103 0.97738 0.0
H517 H 0.60924 0.05369 0.01723 0.0
H518 H 0.27767 0.47598 0.37208 0.0
H519 H 0.33308 0.53209 0.36086 0.0
H520 H 0.26057 0.5403 0.32569 0.0
H521 H 0.20544 0.48328 0.33644 0.0
H522 H 0.3233 0.55448 0.3125 0.0
H523 H 0.29279 0.59978 0.35908 0.0
H524 H 0.27943 0.60103 0.38723 0.0
H525 H 0.39136 0.62038 0.3987 0.0
H526 H 0.40521 0.61875 0.37061 0.0
H527 H 0.4744 0.77402 0.32002 0.0
H528 H 0.41682 0.71606 0.32843 0.0
H529 H 0.45512 0.64709 0.30428 0.0
H530 H 0.51204 0.70533 0.29518 0.0
H531 H 0.40824 0.66355 0.34681 0.0
H532 H 0.38049 0.56047 0.29465 0.0
H533 H 0.38847 0.56323 0.26591 0.0
H534 H 0.3834 0.6671 0.26439 0.0
H535 H 0.3749 0.66469 0.29308 0.0
C536 C 0.27356 0.48977 0.36196 0.0
C537 C 0.23715 0.47533 0.3552 0.0
C538 C 0.30524 0.52192 0.35558 0.0
C539 C 0.30098 0.54087 0.34255 0.0
C540 C 0.26467 0.52621 0.33571 0.0
C541 C 0.23312 0.49368 0.34192 0.0
C542 C 0.33418 0.57618 0.33616 0.0
C543 C 0.34188 0.57834 0.32001 0.0
C544 C 0.35806 0.6077 0.34586 0.0
C545 C 0.34988 0.60877 0.36276 0.0
C546 C 0.31445 0.60403 0.36761 0.0
C547 C 0.3068 0.60485 0.38355 0.0
C548 C 0.33449 0.61068 0.39475 0.0
C549 C 0.36992 0.61581 0.39002 0.0
C550 C 0.37769 0.61497 0.37409 0.0
C551 C 0.47032 0.74649 0.31634 0.0
C552 C 0.49768 0.74417 0.30694 0.0
C553 C 0.43744 0.71334 0.32121 0.0
C554 C 0.43141 0.67706 0.31698 0.0
C555 C 0.45863 0.67468 0.30746 0.0
C556 C 0.49124 0.70796 0.30231 0.0
C557 C 0.39741 0.64201 0.32312 0.0
C558 C 0.38969 0.63976 0.33927 0.0
C559 C 0.37275 0.61105 0.31332 0.0
C560 C 0.37748 0.61258 0.29604 0.0
C561 C 0.38095 0.58382 0.28817 0.0
C562 C 0.38559 0.58534 0.27189 0.0
C563 C 0.38658 0.6154 0.26334 0.0
C564 C 0.38279 0.64392 0.27104 0.0
C565 C 0.37811 0.64251 0.28731 0.0
H566 H 0.39019 0.61654 0.25073 0.0
H567 H 0.32852 0.6113 0.40708 0.0
H568 H 0.79581 0.28557 0.71909 0.0
H569 H 0.79848 0.34663 0.71343 0.0
H570 H 0.81203 0.33217 0.66417 0.0
H571 H 0.80941 0.27158 0.66967 0.0
H572 H 0.85818 0.40696 0.67404 0.0
H573 H 0.72554 0.30524 0.67837 0.0
H574 H 0.67087 0.25279 0.6923 0.0
H575 H 0.68114 0.33061 0.72887 0.0
H576 H 0.73628 0.38342 0.71525 0.0
H577 H 0.79344 0.51564 0.63306 0.0
H578 H 0.80293 0.46476 0.64377 0.0
H579 H 0.77454 0.48643 0.69 0.0
H580 H 0.76412 0.53671 0.67934 0.0
H581 H 0.74015 0.4124 0.68496 0.0
H582 H 0.86792 0.51586 0.67955 0.0
H583 H 0.92345 0.56871 0.66621 0.0
H584 H 0.92415 0.48956 0.6327 0.0
H585 H 0.86826 0.43628 0.64571 0.0
C586 C 0.80001 0.29579 0.7071 0.0
C587 C 0.80204 0.27363 0.69481 0.0
C588 C 0.80138 0.33054 0.70388 0.0
C589 C 0.80506 0.34366 0.68836 0.0
C590 C 0.80914 0.32255 0.67622 0.0
C591 C 0.80744 0.28781 0.67939 0.0
C592 C 0.80206 0.37787 0.68443 0.0
C593 C 0.83237 0.40819 0.67637 0.0
C594 C 0.76872 0.37977 0.68783 0.0
C595 C 0.7353 0.34815 0.6959 0.0
C596 C 0.71631 0.31109 0.68944 0.0
C597 C 0.68521 0.28131 0.69727 0.0
C598 C 0.67261 0.28833 0.71149 0.0
C599 C 0.69099 0.32519 0.71787 0.0
C600 C 0.72215 0.35505 0.71011 0.0
C601 C 0.78922 0.50961 0.64551 0.0
C602 C 0.77808 0.53032 0.65534 0.0
C603 C 0.79489 0.48065 0.65164 0.0
C604 C 0.79004 0.47216 0.66775 0.0
C605 C 0.77856 0.49253 0.67755 0.0
C606 C 0.77264 0.52131 0.67142 0.0
C607 C 0.79609 0.44141 0.67428 0.0
C608 C 0.76628 0.41164 0.68282 0.0
C609 C 0.83003 0.44016 0.6714 0.0
C610 C 0.86369 0.47211 0.66354 0.0
C611 C 0.87973 0.50976 0.66927 0.0
C612 C 0.9113 0.53978 0.66178 0.0
C613 C 0.92727 0.5325 0.6486 0.0
C614 C 0.91173 0.49516 0.64291 0.0
C615 C 0.88014 0.46502 0.65035 0.0
H616 H 0.95171 0.55579 0.64282 0.0
H617 H 0.64857 0.26525 0.71755 0.0
H618 H 0.22552 0.77961 0.00436 0.0
H619 H 0.28434 0.78184 0.01293 0.0
H620 H 0.31454 0.77741 0.96478 0.0
H621 H 0.25564 0.77531 0.95604 0.0
H622 H 0.31939 0.72414 0.98425 0.0
H623 H 0.36219 0.85884 0.98403 0.0
H624 H 0.35912 0.91673 0.99077 0.0
H625 H 0.36599 0.89611 0.03974 0.0
H626 H 0.36855 0.83775 0.0333 0.0
H627 H 0.50507 0.7566 0.99704 0.0
H628 H 0.45061 0.76217 0.98831 0.0
H629 H 0.42871 0.78141 0.03601 0.0
H630 H 0.48423 0.777 0.04484 0.0
H631 H 0.41949 0.82776 0.01682 0.0
H632 H 0.37486 0.6934 0.01794 0.0
H633 H 0.37587 0.63397 0.01215 0.0
H634 H 0.3695 0.65152 0.96283 0.0
H635 H 0.36898 0.71136 0.96832 0.0
C636 C 0.24476 0.77938 0.99556 0.0
C637 C 0.23584 0.77719 0.9795 0.0
C638 C 0.27845 0.78083 1.00049 0.0
C639 C 0.30384 0.77999 0.98948 0.0
C640 C 0.29528 0.77815 0.97344 0.0
C641 C 0.26171 0.77707 0.96848 0.0
C642 C 0.33841 0.77925 0.99481 0.0
C643 C 0.34164 0.74707 0.99115 0.0
C644 C 0.36662 0.80856 0.00428 0.0
C645 C 0.36519 0.84371 0.00818 0.0
C646 C 0.36271 0.86645 0.99624 0.0
C647 C 0.36113 0.8994 1.00001 0.0
C648 C 0.36226 0.91004 0.01568 0.0
C649 C 0.36508 0.88781 0.02761 0.0
C650 C 0.36663 0.85482 0.02391 0.0
C651 C 0.48873 0.76202 0.00571 0.0
C652 C 0.4988 0.76601 0.02167 0.0
C653 C 0.45747 0.76507 1.00069 0.0
C654 C 0.43506 0.77143 0.01153 0.0
C655 C 0.44549 0.77631 0.02744 0.0
C656 C 0.47715 0.77369 0.03248 0.0
C657 C 0.40066 0.77269 0.00619 0.0
C658 C 0.39735 0.80486 0.00988 0.0
C659 C 0.37205 0.74311 0.99689 0.0
C660 C 0.37225 0.70706 0.99354 0.0
C661 C 0.37396 0.68474 0.00586 0.0
C662 C 0.3744 0.65096 0.00263 0.0
C663 C 0.37285 0.63903 0.98713 0.0
C664 C 0.37075 0.66082 0.97483 0.0
C665 C 0.37035 0.69465 0.97799 0.0
H666 H 0.37319 0.61286 0.98465 0.0
H667 H 0.36105 0.93556 0.01857 0.0
H668 H 0.50744 0.28057 0.28875 0.0
H669 H 0.56216 0.33756 0.29993 0.0
H670 H 0.52738 0.29056 0.34639 0.0
H671 H 0.47275 0.2334 0.33535 0.0
H672 H 0.54824 0.36873 0.34397 0.0
H673 H 0.59731 0.28529 0.33041 0.0
H674 H 0.60952 0.24422 0.31269 0.0
H675 H 0.67345 0.3397 0.28189 0.0
H676 H 0.66113 0.38123 0.29932 0.0
H677 H 0.72104 0.496 0.384 0.0
H678 H 0.66368 0.44005 0.37376 0.0
H679 H 0.70616 0.47335 0.32657 0.0
H680 H 0.76393 0.52836 0.33673 0.0
H681 H 0.68028 0.40099 0.32974 0.0
H682 H 0.63174 0.48481 0.34236 0.0
H683 H 0.61874 0.5268 0.35917 0.0
H684 H 0.55342 0.43298 0.39054 0.0
H685 H 0.56645 0.39053 0.37402 0.0
C686 C 0.51135 0.28239 0.30135 0.0
C687 C 0.48586 0.25237 0.31116 0.0
C688 C 0.54265 0.31492 0.30771 0.0
C689 C 0.54885 0.31808 0.32397 0.0
C690 C 0.52303 0.2886 0.33381 0.0
C691 C 0.49197 0.2559 0.32746 0.0
C692 C 0.58274 0.35183 0.33069 0.0
C693 C 0.57717 0.37565 0.34103 0.0
C694 C 0.62033 0.36113 0.32654 0.0
C695 C 0.62797 0.33626 0.31609 0.0
C696 C 0.6137 0.29745 0.31979 0.0
C697 C 0.62069 0.2741 0.30981 0.0
C698 C 0.64216 0.28932 0.29615 0.0
C699 C 0.65678 0.32794 0.29246 0.0
C700 C 0.64982 0.3514 0.3024 0.0
C701 C 0.71802 0.49147 0.37144 0.0
C702 C 0.74706 0.51657 0.36119 0.0
C703 C 0.68514 0.45957 0.36559 0.0
C704 C 0.68037 0.45264 0.34936 0.0
C705 C 0.70919 0.47797 0.33913 0.0
C706 C 0.74221 0.50948 0.34497 0.0
C707 C 0.64602 0.41845 0.34298 0.0
C708 C 0.65144 0.39433 0.3327 0.0
C709 C 0.6083 0.40915 0.34708 0.0
C710 C 0.60041 0.4346 0.35704 0.0
C711 C 0.61486 0.47321 0.35291 0.0
C712 C 0.60744 0.49707 0.36238 0.0
C713 C 0.58536 0.48259 0.37594 0.0
C714 C 0.57057 0.44417 0.38005 0.0
C715 C 0.57793 0.42019 0.37063 0.0
H716 H 0.57964 0.50111 0.38325 0.0
H717 H 0.64755 0.2712 0.28844 0.0
H718 H 0.21271 0.48434 0.62219 0.0
H719 H 0.20556 0.53915 0.62981 0.0
H720 H 0.2182 0.51838 0.67845 0.0
H721 H 0.22537 0.46387 0.67101 0.0
H722 H 0.16078 0.53632 0.67373 0.0
H723 H 0.2932 0.58455 0.6592 0.0
H724 H 0.34509 0.59345 0.64133 0.0
H725 H 0.30818 0.64721 0.60754 0.0
H726 H 0.25571 0.63814 0.62514 0.0
H727 H 0.21914 0.71497 0.71062 0.0
H728 H 0.21234 0.65506 0.70056 0.0
H729 H 0.21367 0.69319 0.65316 0.0
H730 H 0.22131 0.75336 0.66308 0.0
H731 H 0.25953 0.66518 0.65539 0.0
H732 H 0.13053 0.62247 0.67042 0.0
H733 H 0.07789 0.61337 0.68787 0.0
H734 H 0.1062 0.54913 0.71994 0.0
H735 H 0.15937 0.55829 0.70278 0.0
C736 C 0.21357 0.49124 0.63451 0.0
C737 C 0.21995 0.46998 0.64599 0.0
C738 C 0.20957 0.52258 0.63884 0.0
C739 C 0.21166 0.53295 0.65469 0.0
C740 C 0.2165 0.51085 0.66617 0.0
C741 C 0.22082 0.47983 0.66187 0.0
C742 C 0.2109 0.56796 0.65938 0.0
C743 C 0.18245 0.56456 0.66981 0.0
C744 C 0.23867 0.60465 0.65396 0.0
C745 C 0.27028 0.61025 0.6434 0.0
C746 C 0.29596 0.59797 0.64791 0.0
C747 C 0.32551 0.6031 0.63784 0.0
C748 C 0.32986 0.62078 0.62329 0.0
C749 C 0.30473 0.63346 0.6188 0.0
C750 C 0.27509 0.62834 0.62882 0.0
C751 C 0.21774 0.71051 0.69806 0.0
C752 C 0.22088 0.73903 0.68767 0.0
C753 C 0.21364 0.67614 0.69232 0.0
C754 C 0.2121 0.66943 0.67609 0.0
C755 C 0.2148 0.6977 0.66572 0.0
C756 C 0.21913 0.7321 0.67143 0.0
C757 C 0.20951 0.63376 0.66989 0.0
C758 C 0.23747 0.637 0.65919 0.0
C759 C 0.18111 0.59694 0.675 0.0
C760 C 0.14917 0.59137 0.68537 0.0
C761 C 0.12573 0.60667 0.68126 0.0
C762 C 0.09576 0.60144 0.69108 0.0
C763 C 0.08876 0.58076 0.70502 0.0
C764 C 0.11168 0.56518 0.70914 0.0
C765 C 0.14171 0.57034 0.69936 0.0
H766 H 0.06553 0.57674 0.71261 0.0
H767 H 0.35276 0.62473 0.61551 0.0
H768 H 0.46767 0.25835 0.10066 0.0
H769 H 0.46288 0.25071 0.12914 0.0
H770 H 0.34433 0.1632 0.12477 0.0
H771 H 0.34878 0.17077 0.09626 0.0
H772 H 0.35443 0.21654 0.14668 0.0
H773 H 0.4106 0.13932 0.1343 0.0
H774 H 0.45775 0.12487 0.12249 0.0
H775 H 0.54741 0.21476 0.14951 0.0
H776 H 0.50085 0.23013 0.16133 0.0
H777 H 0.32219 0.14029 0.22385 0.0
H778 H 0.32933 0.15098 0.19557 0.0
H779 H 0.44696 0.23911 0.20203 0.0
H780 H 0.44009 0.22853 0.23042 0.0
H781 H 0.43885 0.18758 0.17919 0.0
H782 H 0.38241 0.26385 0.19202 0.0
H783 H 0.33519 0.27814 0.20389 0.0
H784 H 0.24604 0.19002 0.17603 0.0
H785 H 0.29265 0.17482 0.16416 0.0
C786 C 0.44067 0.23717 0.10573 0.0
C787 C 0.40859 0.21519 0.09617 0.0
C788 C 0.43801 0.2328 0.12202 0.0
C789 C 0.40328 0.20631 0.12908 0.0
C790 C 0.37139 0.18386 0.11956 0.0
C791 C 0.37405 0.18809 0.10326 0.0
C792 C 0.39982 0.20308 0.14641 0.0
C793 C 0.37252 0.20967 0.15378 0.0
C794 C 0.42421 0.19526 0.15569 0.0
C795 C 0.4523 0.18615 0.14858 0.0
C796 C 0.44043 0.15625 0.13762 0.0
C797 C 0.46704 0.14784 0.13094 0.0
C798 C 0.50557 0.16896 0.13521 0.0
C799 C 0.51756 0.19847 0.1462 0.0
C800 C 0.49107 0.20702 0.1529 0.0
C801 C 0.3495 0.16224 0.21929 0.0
C802 C 0.38059 0.18355 0.22939 0.0
C803 C 0.35349 0.16838 0.20311 0.0
C804 C 0.38863 0.19594 0.1967 0.0
C805 C 0.41959 0.21769 0.20675 0.0
C806 C 0.41555 0.21175 0.22297 0.0
C807 C 0.39331 0.20082 0.17944 0.0
C808 C 0.42084 0.19455 0.17209 0.0
C809 C 0.36913 0.20894 0.17018 0.0
C810 C 0.34098 0.21794 0.17731 0.0
C811 C 0.35267 0.24728 0.18853 0.0
C812 C 0.32603 0.25559 0.19523 0.0
C813 C 0.28762 0.23493 0.19075 0.0
C814 C 0.2758 0.20597 0.17951 0.0
C815 C 0.30232 0.19751 0.17278 0.0
H816 H 0.26704 0.24143 0.19595 0.0
H817 H 0.52613 0.16239 0.13004 0.0
H818 H 0.20403 0.3268 0.43954 0.0
H819 H 0.20917 0.33314 0.46809 0.0
H820 H 0.19223 0.43058 0.46554 0.0
H821 H 0.18825 0.42516 0.43703 0.0
H822 H 0.24436 0.44303 0.48678 0.0
H823 H 0.11812 0.33851 0.47499 0.0
H824 H 0.07164 0.27678 0.46304 0.0
H825 H 0.12047 0.22008 0.48884 0.0
H826 H 0.16756 0.28157 0.50079 0.0
H827 H 0.19764 0.4468 0.56653 0.0
H828 H 0.19361 0.44128 0.53795 0.0
H829 H 0.20759 0.34201 0.54049 0.0
H830 H 0.21014 0.3465 0.56904 0.0
H831 H 0.15713 0.3306 0.51919 0.0
H832 H 0.28331 0.4349 0.53106 0.0
H833 H 0.32995 0.49657 0.54301 0.0
H834 H 0.28167 0.55363 0.51709 0.0
H835 H 0.23443 0.49221 0.50514 0.0
C836 C 0.2018 0.34982 0.44505 0.0
C837 C 0.19547 0.3753 0.436 0.0
C838 C 0.2045 0.35327 0.46139 0.0
C839 C 0.20026 0.38185 0.46902 0.0
C840 C 0.19542 0.4082 0.45995 0.0
C841 C 0.19313 0.40503 0.44362 0.0
C842 C 0.19987 0.38382 0.48644 0.0
C843 C 0.22498 0.41856 0.49386 0.0
C844 C 0.17512 0.35172 0.49573 0.0
C845 C 0.14657 0.31468 0.48867 0.0
C846 C 0.11908 0.31291 0.47804 0.0
C847 C 0.09261 0.27796 0.47128 0.0
C848 C 0.09316 0.24455 0.47515 0.0
C849 C 0.12011 0.24599 0.48583 0.0
C850 C 0.14666 0.28087 0.49262 0.0
C851 C 0.19953 0.42361 0.561 0.0
C852 C 0.2044 0.39721 0.57006 0.0
C853 C 0.19749 0.42063 0.54464 0.0
C854 C 0.20115 0.39172 0.537 0.0
C855 C 0.20484 0.36466 0.54607 0.0
C856 C 0.20631 0.36728 0.56242 0.0
C857 C 0.20169 0.38982 0.51957 0.0
C858 C 0.17657 0.35508 0.51213 0.0
C859 C 0.22648 0.42191 0.51027 0.0
C860 C 0.25513 0.45891 0.51732 0.0
C861 C 0.28251 0.46057 0.52798 0.0
C862 C 0.30907 0.49548 0.53474 0.0
C863 C 0.30872 0.52898 0.53084 0.0
C864 C 0.28189 0.52766 0.52012 0.0
C865 C 0.25524 0.49282 0.51334 0.0
H866 H 0.32928 0.55597 0.53609 0.0
H867 H 0.07266 0.21753 0.46989 0.0
H868 H 0.79639 0.221 0.90193 0.0
H869 H 0.7891 0.22003 0.87352 0.0
H870 H 0.83993 0.1483 0.86917 0.0
H871 H 0.84855 0.15028 0.89762 0.0
H872 H 0.86967 0.2026 0.8483 0.0
H873 H 0.74098 0.11357 0.86405 0.0
H874 H 0.68111 0.09126 0.87894 0.0
H875 H 0.66747 0.18167 0.85913 0.0
H876 H 0.72752 0.20483 0.84426 0.0
H877 H 0.82132 0.15753 0.76779 0.0
H878 H 0.82751 0.15512 0.7962 0.0
H879 H 0.77903 0.22851 0.80228 0.0
H880 H 0.77172 0.23012 0.77388 0.0
H881 H 0.7476 0.17133 0.8222 0.0
H882 H 0.87721 0.26101 0.80691 0.0
H883 H 0.93704 0.28303 0.79201 0.0
H884 H 0.94864 0.19063 0.81097 0.0
H885 H 0.88861 0.16778 0.82583 0.0
C886 C 0.80568 0.20468 0.89496 0.0
C887 C 0.82299 0.18563 0.90206 0.0
C888 C 0.80135 0.20403 0.87868 0.0
C889 C 0.81348 0.18367 0.86915 0.0
C890 C 0.83032 0.16421 0.87625 0.0
C891 C 0.83511 0.16524 0.89253 0.0
C892 C 0.80997 0.18394 0.85178 0.0
C893 C 0.8428 0.19516 0.84259 0.0
C894 C 0.77517 0.17513 0.84429 0.0
C895 C 0.73892 0.16111 0.85314 0.0
C896 C 0.72534 0.12884 0.86295 0.0
C897 C 0.69135 0.11602 0.87137 0.0
C898 C 0.67054 0.13508 0.87001 0.0
C899 C 0.68363 0.16695 0.86018 0.0
C900 C 0.71761 0.1799 0.85174 0.0
C901 C 0.81224 0.17341 0.77516 0.0
C902 C 0.79609 0.19409 0.76856 0.0
C903 C 0.81592 0.17211 0.79142 0.0
C904 C 0.80414 0.19199 0.80142 0.0
C905 C 0.7883 0.21291 0.79483 0.0
C906 C 0.78427 0.21392 0.77858 0.0
C907 C 0.80733 0.19019 0.81875 0.0
C908 C 0.77442 0.17867 0.82792 0.0
C909 C 0.84203 0.19864 0.82622 0.0
C910 C 0.87824 0.21249 0.81736 0.0
C911 C 0.89239 0.24524 0.80781 0.0
C912 C 0.92635 0.2579 0.79939 0.0
C913 C 0.94657 0.23819 0.80051 0.0
C914 C 0.93293 0.20584 0.8101 0.0
C915 C 0.89896 0.19306 0.81853 0.0
H916 H 0.97286 0.24802 0.79398 0.0
H917 H 0.64425 0.12512 0.87654 0.0
H918 H 0.67425 0.81631 0.10474 0.0
H919 H 0.66808 0.81769 0.13319 0.0
H920 H 0.54859 0.78262 0.12807 0.0
H921 H 0.55486 0.78233 0.09956 0.0
H922 H 0.57828 0.83355 0.15043 0.0
H923 H 0.57918 0.71824 0.13787 0.0
H924 H 0.60399 0.67911 0.12606 0.0
H925 H 0.70622 0.73816 0.15372 0.0
H926 H 0.68223 0.77803 0.16555 0.0
H927 H 0.52158 0.77177 0.22823 0.0
H928 H 0.52871 0.77037 0.19985 0.0
H929 H 0.64964 0.81307 0.2055 0.0
H930 H 0.6426 0.81376 0.23399 0.0
H931 H 0.61943 0.7585 0.183 0.0
H932 H 0.61504 0.87341 0.1958 0.0
H933 H 0.58562 0.90788 0.20814 0.0
H934 H 0.48484 0.84445 0.18003 0.0
H935 H 0.51346 0.80931 0.16765 0.0
C936 C 0.64674 0.80925 0.10965 0.0
C937 C 0.61499 0.79895 0.09988 0.0
C938 C 0.64318 0.80982 0.12594 0.0
C939 C 0.60765 0.79942 0.13283 0.0
C940 C 0.57626 0.79058 0.12306 0.0
C941 C 0.5799 0.79041 0.10675 0.0
C942 C 0.60298 0.79691 0.15018 0.0
C943 C 0.58693 0.8168 0.15751 0.0
C944 C 0.61464 0.77543 0.15951 0.0
C945 C 0.62907 0.75138 0.15248 0.0
C946 C 0.60707 0.72307 0.14135 0.0
C947 C 0.62097 0.70073 0.13467 0.0
C948 C 0.65671 0.70622 0.13911 0.0
C949 C 0.67857 0.73399 0.15028 0.0
C950 C 0.66483 0.75645 0.15698 0.0
C951 C 0.54965 0.78051 0.22347 0.0
C952 C 0.58159 0.79321 0.23338 0.0
C953 C 0.55371 0.77987 0.20722 0.0
C954 C 0.58986 0.79243 0.20051 0.0
C955 C 0.62151 0.80349 0.2104 0.0
C956 C 0.61743 0.80387 0.22669 0.0
C957 C 0.59484 0.79517 0.1832 0.0
C958 C 0.61095 0.77534 0.17589 0.0
C959 C 0.58282 0.81632 0.17387 0.0
C960 C 0.56626 0.83851 0.1809 0.0
C961 C 0.58657 0.86676 0.19228 0.0
C962 C 0.57003 0.8864 0.19929 0.0
C963 C 0.53332 0.8782 0.19492 0.0
C964 C 0.51324 0.85068 0.18342 0.0
C965 C 0.52962 0.83095 0.17639 0.0
H966 H 0.52037 0.89308 0.20046 0.0
H967 H 0.66742 0.68889 0.13392 0.0
H968 H 0.73456 0.5357 0.56897 0.0
H969 H 0.74452 0.54227 0.54065 0.0
H970 H 0.84739 0.65115 0.5473 0.0
H971 H 0.83734 0.64506 0.57569 0.0
H972 H 0.80301 0.65594 0.52509 0.0
H973 H 0.85145 0.57158 0.53636 0.0
H974 H 0.85012 0.5143 0.54731 0.0
H975 H 0.75258 0.44197 0.51881 0.0
H976 H 0.75299 0.49883 0.50785 0.0
H977 H 0.87684 0.67821 0.44774 0.0
H978 H 0.86598 0.67075 0.476 0.0
H979 H 0.76147 0.56383 0.46854 0.0
H980 H 0.77226 0.57093 0.44017 0.0
H981 H 0.80594 0.55762 0.49106 0.0
H982 H 0.7581 0.6424 0.47963 0.0
H983 H 0.75996 0.69989 0.46864 0.0
H984 H 0.85708 0.77171 0.49743 0.0
H985 H 0.85614 0.71463 0.50844 0.0
C986 C 0.75956 0.56088 0.56445 0.0
C987 C 0.78516 0.58986 0.57462 0.0
C988 C 0.76527 0.56454 0.54823 0.0
C989 C 0.79683 0.59711 0.54183 0.0
C990 C 0.82281 0.62579 0.55197 0.0
C991 C 0.81712 0.62216 0.5682 0.0
C992 C 0.80184 0.60192 0.52456 0.0
C993 C 0.80423 0.63471 0.51767 0.0
C994 C 0.80235 0.57372 0.51483 0.0
C995 C 0.80203 0.53947 0.5214 0.0
C996 C 0.82951 0.54345 0.53253 0.0
C997 C 0.82897 0.51106 0.53872 0.0
C998 C 0.80122 0.47451 0.53379 0.0
C999 C 0.77402 0.47029 0.52263 0.0
C1000 C 0.77442 0.5026 0.51642 0.0
C1001 C 0.85133 0.65325 0.45207 0.0
C1002 C 0.82541 0.62516 0.44168 0.0
C1003 C 0.84511 0.64909 0.46825 0.0
C1004 C 0.81281 0.61683 0.47439 0.0
C1005 C 0.7866 0.58895 0.46405 0.0
C1006 C 0.79271 0.59315 0.44784 0.0
C1007 C 0.8072 0.61166 0.49162 0.0
C1008 C 0.80468 0.57882 0.49849 0.0
C1009 C 0.80665 0.63984 0.50134 0.0
C1010 C 0.80727 0.67423 0.49475 0.0
C1011 C 0.78006 0.67046 0.48352 0.0
C1012 C 0.7809 0.70297 0.47731 0.0
C1013 C 0.80868 0.73944 0.48231 0.0
C1014 C 0.83561 0.74345 0.49356 0.0
C1015 C 0.83491 0.71102 0.4998 0.0
H1016 H 0.80928 0.76457 0.47748 0.0
H1017 H 0.80085 0.44947 0.5386 0.0
H1018 H 0.2534 0.82267 0.90044 0.0
H1019 H 0.25495 0.82225 0.87173 0.0
H1020 H 0.13232 0.77261 0.87043 0.0
H1021 H 0.13045 0.77282 0.89902 0.0
H1022 H 0.15659 0.73569 0.85077 0.0
H1023 H 0.18896 0.8653 0.86192 0.0
H1024 H 0.22567 0.92895 0.87421 0.0
H1025 H 0.32821 0.94581 0.85174 0.0
H1026 H 0.29219 0.88197 0.83948 0.0
H1027 H 0.13076 0.76796 0.7707 0.0
H1028 H 0.13196 0.76616 0.79935 0.0
H1029 H 0.25491 0.81849 0.79842 0.0
H1030 H 0.25404 0.82068 0.76982 0.0
H1031 H 0.23238 0.85352 0.81925 0.0
H1032 H 0.1997 0.72472 0.80739 0.0
H1033 H 0.16302 0.66109 0.79509 0.0
H1034 H 0.06128 0.64251 0.81886 0.0
H1035 H 0.09725 0.7063 0.83114 0.0
C1036 C 0.22679 0.81183 0.89405 0.0
C1037 C 0.19182 0.79785 0.90205 0.0
C1038 C 0.22773 0.81168 0.87764 0.0
C1039 C 0.19374 0.79752 0.86894 0.0
C1040 C 0.15886 0.78359 0.8769 0.0
C1041 C 0.15791 0.78392 0.89327 0.0
C1042 C 0.19432 0.79678 0.85154 0.0
C1043 C 0.17281 0.76151 0.84386 0.0
C1044 C 0.21623 0.83032 0.84256 0.0
C1045 C 0.23796 0.86868 0.84993 0.0
C1046 C 0.21941 0.88243 0.85972 0.0
C1047 C 0.24007 0.91857 0.86665 0.0
C1048 C 0.27927 0.94136 0.8638 0.0
C1049 C 0.29786 0.92809 0.85396 0.0
C1050 C 0.27733 0.89194 0.84701 0.0
C1051 C 0.15803 0.77878 0.77657 0.0
C1052 C 0.19229 0.79448 0.76794 0.0
C1053 C 0.15867 0.77764 0.79296 0.0
C1054 C 0.19353 0.79203 0.80104 0.0
C1055 C 0.2277 0.80728 0.79244 0.0
C1056 C 0.2271 0.80835 0.77607 0.0
C1057 C 0.1945 0.79244 0.81845 0.0
C1058 C 0.21628 0.82766 0.82615 0.0
C1059 C 0.17285 0.75883 0.82744 0.0
C1060 C 0.1511 0.72047 0.82006 0.0
C1061 C 0.16943 0.70722 0.80989 0.0
C1062 C 0.14878 0.67109 0.80294 0.0
C1063 C 0.10982 0.64781 0.80616 0.0
C1064 C 0.09145 0.66059 0.81636 0.0
C1065 C 0.11196 0.69672 0.82333 0.0
H1066 H 0.09389 0.61984 0.80077 0.0
H1067 H 0.29522 0.96934 0.86917 0.0
H1068 H 0.54368 0.66272 0.07602 0.0
H1069 H 0.51453 0.5969 0.08586 0.0
H1070 H 0.55711 0.56536 0.04548 0.0
H1071 H 0.58601 0.63066 0.03556 0.0
H1072 H 0.45808 0.53691 0.07005 0.0
H1073 H 0.57338 0.49439 0.05416 0.0
H1074 H 0.6432 0.52228 0.05649 0.0
H1075 H 0.64584 0.59411 0.0942 0.0
H1076 H 0.57595 0.56627 0.09229 0.0
H1077 H 0.39425 0.3642 0.03173 0.0
H1078 H 0.42323 0.42877 0.04244 0.0
H1079 H 0.45615 0.39162 0.0841 0.0
H1080 H 0.42709 0.3266 0.07343 0.0
H1081 H 0.5161 0.45359 0.07097 0.0
H1082 H 0.39271 0.42131 0.088 0.0
H1083 H 0.32274 0.3935 0.08665 0.0
H1084 H 0.33601 0.47114 0.04951 0.0
H1085 H 0.40602 0.49906 0.05045 0.0
C1086 C 0.54762 0.64195 0.06945 0.0
C1087 C 0.56677 0.6517 0.05493 0.0
C1088 C 0.53091 0.6044 0.07508 0.0
C1089 C 0.5338 0.57635 0.06644 0.0
C1090 C 0.55497 0.58668 0.05245 0.0
C1091 C 0.57125 0.62397 0.04673 0.0
C1092 C 0.51066 0.53533 0.0706 0.0
C1093 C 0.47069 0.51864 0.07055 0.0
C1094 C 0.52724 0.51172 0.07172 0.0
C1095 C 0.56932 0.52825 0.07304 0.0
C1096 C 0.58876 0.51591 0.06304 0.0
C1097 C 0.6284 0.53178 0.06426 0.0
C1098 C 0.64895 0.55998 0.07547 0.0
C1099 C 0.6299 0.57233 0.0855 0.0
C1100 C 0.59027 0.55655 0.08433 0.0
C1101 C 0.40702 0.36953 0.04329 0.0
C1102 C 0.4086 0.34036 0.05168 0.0
C1103 C 0.42336 0.40642 0.04946 0.0
C1104 C 0.4416 0.4149 0.06411 0.0
C1105 C 0.44203 0.38557 0.0728 0.0
C1106 C 0.42536 0.34847 0.06669 0.0
C1107 C 0.46367 0.45528 0.06929 0.0
C1108 C 0.50342 0.47182 0.07104 0.0
C1109 C 0.44688 0.47877 0.06991 0.0
C1110 C 0.40471 0.46226 0.0693 0.0
C1111 C 0.38072 0.43233 0.07948 0.0
C1112 C 0.34103 0.41655 0.07879 0.0
C1113 C 0.32494 0.43054 0.068 0.0
C1114 C 0.34852 0.46037 0.05788 0.0
C1115 C 0.38823 0.47624 0.05851 0.0
H1116 H 0.2942 0.41827 0.06749 0.0
H1117 H 0.67963 0.57224 0.07639 0.0
H1118 H 0.9705 0.61014 0.37983 0.0
H1119 H 0.00099 0.57249 0.38604 0.0
H1120 H 0.91084 0.50527 0.41898 0.0
H1121 H 0.88089 0.54385 0.41324 0.0
H1122 H 0.97869 0.50945 0.42763 0.0
H1123 H 0.89834 0.47573 0.38251 0.0
H1124 H 0.87466 0.48784 0.35773 0.0
H1125 H 0.98395 0.5253 0.33618 0.0
H1126 H 0.00848 0.514 0.36092 0.0
H1127 H 0.01159 0.35873 0.37918 0.0
H1128 H 0.97272 0.3869 0.38702 0.0
H1129 H 0.06709 0.47155 0.4145 0.0
H1130 H 0.10494 0.44192 0.40748 0.0
H1131 H 0.98671 0.45069 0.37769 0.0
H1132 H 0.04129 0.51842 0.4397 0.0
H1133 H 0.05759 0.50054 0.465 0.0
H1134 H 0.98597 0.38141 0.45394 0.0
H1135 H 0.96879 0.39853 0.42868 0.0
C1136 C 0.9579 0.58821 0.38879 0.0
C1137 C 0.923 0.5794 0.39584 0.0
C1138 C 0.9753 0.56671 0.39232 0.0
C1139 C 0.95752 0.53543 0.40263 0.0
C1140 C 0.92485 0.52913 0.41092 0.0
C1141 C 0.90775 0.55117 0.4076 0.0
C1142 C 0.96948 0.50618 0.40269 0.0
C1143 C 0.98054 0.49647 0.41677 0.0
C1144 C 0.9701 0.48802 0.38859 0.0
C1145 C 0.95532 0.49429 0.3736 0.0
C1146 C 0.91738 0.48675 0.37251 0.0
C1147 C 0.90381 0.49346 0.35847 0.0
C1148 C 0.92781 0.50739 0.34539 0.0
C1149 C 0.9654 0.51454 0.34632 0.0
C1150 C 0.97915 0.50796 0.36034 0.0
C1151 C 0.02346 0.38254 0.38733 0.0
C1152 C 0.06128 0.39838 0.39263 0.0
C1153 C 0.00132 0.3987 0.39178 0.0
C1154 C 0.01695 0.43159 0.40128 0.0
C1155 C 0.05395 0.44584 0.40741 0.0
C1156 C 0.07573 0.429 0.4033 0.0
C1157 C -0.00268 0.45436 0.40262 0.0
C1158 C 0.98466 0.46303 0.3887 0.0
C1159 C 0.9941 0.47036 0.41695 0.0
C1160 C 0.00398 0.45981 0.43222 0.0
C1161 C 0.02884 0.48841 0.44269 0.0
C1162 C 0.03828 0.4784 0.45702 0.0
C1163 C 0.0229 0.43987 0.46106 0.0
C1164 C -0.00203 0.41125 0.45078 0.0
C1165 C 0.98843 0.4211 0.43644 0.0
H1166 H 0.03026 0.43219 0.47215 0.0
H1167 H 0.91725 0.51258 0.33454 0.0
H1168 H 0.64603 0.07751 0.69029 0.0
H1169 H 0.57879 0.04457 0.69766 0.0
H1170 H 0.60975 0.05901 0.74657 0.0
H1171 H 0.67785 0.09291 0.73933 0.0
H1172 H 0.54404 0.97999 0.73431 0.0
H1173 H 0.58494 0.11377 0.73828 0.0
H1174 H 0.61964 0.1811 0.72952 0.0
H1175 H 0.55298 0.15011 0.68726 0.0
H1176 H 0.51833 0.0825 0.69563 0.0
H1177 H 0.34198 0.90613 0.73969 0.0
H1178 H 0.40965 0.94711 0.74641 0.0
H1179 H 0.4332 0.9903 0.699 0.0
H1180 H 0.366 0.95036 0.69231 0.0
H1181 H 0.47318 0.04634 0.71909 0.0
H1182 H 0.44528 0.91478 0.71131 0.0
H1183 H 0.41228 0.84574 0.71745 0.0
H1184 H 0.45516 0.87099 0.7646 0.0
H1185 H 0.48806 0.94025 0.75876 0.0
C1186 C 0.63877 0.07338 0.70263 0.0
C1187 C 0.66735 0.0881 0.71422 0.0
C1188 C 0.6003 0.05461 0.70681 0.0
C1189 C 0.58957 0.04987 0.72262 0.0
C1190 C 0.61773 0.06265 0.7343 0.0
C1191 C 0.65649 0.08194 0.73013 0.0
C1192 C 0.5487 0.03295 0.72654 0.0
C1193 C 0.52847 0.99472 0.73148 0.0
C1194 C 0.5287 0.05224 0.72257 0.0
C1195 C 0.54914 0.093 0.71757 0.0
C1196 C 0.57787 0.12126 0.72707 0.0
C1197 C 0.5975 0.15949 0.72218 0.0
C1198 C 0.58853 0.16985 0.70784 0.0
C1199 C 0.55987 0.14203 0.69837 0.0
C1200 C 0.54019 0.10376 0.70319 0.0
C1201 C 0.36152 0.92479 0.73077 0.0
C1202 C 0.34868 0.92471 0.71542 0.0
C1203 C 0.40016 0.94808 0.73462 0.0
C1204 C 0.42651 0.97139 0.72315 0.0
C1205 C 0.41337 0.97258 0.70805 0.0
C1206 C 0.3749 0.94954 0.70422 0.0
C1207 C 0.46819 0.99277 0.72627 0.0
C1208 C 0.48864 0.03191 0.72256 0.0
C1209 C 0.48834 0.97416 0.73118 0.0
C1210 C 0.46866 0.93261 0.73467 0.0
C1211 C 0.44741 0.90558 0.72302 0.0
C1212 C 0.42878 0.86644 0.72644 0.0
C1213 C 0.43151 0.85399 0.74143 0.0
C1214 C 0.45299 0.88068 0.75301 0.0
C1215 C 0.47163 0.91987 0.74965 0.0
H1216 H 0.41707 0.82367 0.74405 0.0
H1217 H 0.60373 0.19944 0.70407 0.0
H1218 H 0.67504 0.56982 0.59747 0.0
H1219 H 0.60982 0.53818 0.58702 0.0
H1220 H 0.57263 0.57622 0.62715 0.0
H1221 H 0.63746 0.60775 0.63767 0.0
H1222 H 0.55071 0.47947 0.6019 0.0
H1223 H 0.49848 0.5872 0.61797 0.0
H1224 H 0.52296 0.65671 0.61651 0.0
H1225 H 0.6002 0.667 0.57972 0.0
H1226 H 0.57581 0.59747 0.58076 0.0
H1227 H 0.37307 0.40485 0.63722 0.0
H1228 H 0.4388 0.43751 0.6277 0.0
H1229 H 0.40317 0.4695 0.58537 0.0
H1230 H 0.3369 0.4366 0.59483 0.0
H1231 H 0.46173 0.53081 0.60005 0.0
H1232 H 0.43804 0.41069 0.58181 0.0
H1233 H 0.41357 0.34111 0.5824 0.0
H1234 H 0.48823 0.35558 0.62089 0.0
H1235 H 0.51276 0.42518 0.62071 0.0
C1236 C 0.65315 0.57222 0.60388 0.0
C1237 C 0.66127 0.59095 0.61849 0.0
C1238 C 0.61593 0.55409 0.59789 0.0
C1239 C 0.58648 0.55499 0.60627 0.0
C1240 C 0.59505 0.57562 0.62037 0.0
C1241 C 0.63208 0.59341 0.62643 0.0
C1242 C 0.54599 0.53041 0.60163 0.0
C1243 C 0.53125 0.49066 0.60121 0.0
C1244 C 0.52084 0.54516 0.60028 0.0
C1245 C 0.53534 0.58703 0.59949 0.0
C1246 C 0.52048 0.6042 0.60948 0.0
C1247 C 0.5344 0.64365 0.60875 0.0
C1248 C 0.56315 0.66626 0.59804 0.0
C1249 C 0.578 0.64947 0.58803 0.0
C1250 C 0.56417 0.61004 0.58871 0.0
C1251 C 0.37903 0.41819 0.62575 0.0
C1252 C 0.34988 0.41838 0.61682 0.0
C1253 C 0.41659 0.43664 0.62027 0.0
C1254 C 0.42578 0.45571 0.60579 0.0
C1255 C 0.39656 0.45476 0.59655 0.0
C1256 C 0.35877 0.4359 0.60196 0.0
C1257 C 0.46647 0.47997 0.6014 0.0
C1258 C 0.48124 0.51963 0.60018 0.0
C1259 C 0.49168 0.46515 0.60109 0.0
C1260 C 0.47722 0.42325 0.60125 0.0
C1261 C 0.4491 0.39904 0.59047 0.0
C1262 C 0.43523 0.35957 0.59072 0.0
C1263 C 0.44933 0.34393 0.60168 0.0
C1264 C 0.47737 0.36774 0.61239 0.0
C1265 C 0.49133 0.40723 0.61219 0.0
H1266 H 0.43854 0.31337 0.60186 0.0
H1267 H 0.57389 0.69679 0.5975 0.0
H1268 H 0.02537 0.63504 0.97532 0.0
H1269 H 0.99094 0.56786 0.96775 0.0
H1270 H 0.03608 0.5983 0.9208 0.0
H1271 H 0.07141 0.66588 0.92837 0.0
H1272 H 0.9383 0.52338 0.94692 0.0
H1273 H 0.05761 0.52937 0.90862 0.0
H1274 H 0.12693 0.57075 0.90396 0.0
H1275 H 0.14252 0.60997 0.95165 0.0
H1276 H 0.07342 0.5685 0.95661 0.0
H1277 H 0.90035 0.32712 0.92783 0.0
H1278 H 0.93076 0.39451 0.91972 0.0
H1279 H 0.97128 0.4299 0.9669 0.0
H1280 H 0.94186 0.36323 0.97508 0.0
H1281 H 0.02153 0.47001 0.93236 0.0
H1282 H 0.90856 0.46969 0.9712 0.0
H1283 H 0.8415 0.42672 0.97916 0.0
H1284 H 0.81592 0.37508 0.93347 0.0
H1285 H 0.88268 0.41814 0.9252 0.0
C1286 C 0.02754 0.62763 0.9633 0.0
C1287 C 0.05161 0.65577 0.95252 0.0
C1288 C 0.00767 0.58916 0.95897 0.0
C1289 C 0.01143 0.57805 0.94378 0.0
C1290 C 0.03326 0.60626 0.93264 0.0
C1291 C 0.05332 0.64486 0.93699 0.0
C1292 C 0.99526 0.53682 0.94031 0.0
C1293 C 0.95638 0.51181 0.94344 0.0
C1294 C 0.01875 0.52161 0.93566 0.0
C1295 C 0.06036 0.54628 0.9329 0.0
C1296 C 0.07589 0.5468 0.9181 0.0
C1297 C 0.11512 0.57025 0.91541 0.0
C1298 C 0.13909 0.5931 0.92748 0.0
C1299 C 0.12391 0.59239 0.94229 0.0
C1300 C 0.08472 0.56895 0.94504 0.0
C1301 C 0.91658 0.34925 0.93638 0.0
C1302 C 0.91827 0.33983 0.95216 0.0
C1303 C 0.93386 0.38764 0.93172 0.0
C1304 C 0.95275 0.41684 0.94279 0.0
C1305 C 0.95666 0.40754 0.95823 0.0
C1306 C 0.93973 0.3694 0.96288 0.0
C1307 C 0.9649 0.45701 0.93909 0.0
C1308 C 0.0031 0.48177 0.93495 0.0
C1309 C 0.94097 0.47208 0.94292 0.0
C1310 C 0.9006 0.44684 0.94765 0.0
C1311 C 0.88854 0.44927 0.96285 0.0
C1312 C 0.85061 0.4249 0.96741 0.0
C1313 C 0.82449 0.3981 0.95685 0.0
C1314 C 0.83621 0.39574 0.94167 0.0
C1315 C 0.87409 0.42008 0.93704 0.0
H1316 H 0.79516 0.37923 0.96041 0.0
H1317 H 0.16943 0.61126 0.92537 0.0
H1318 H 0.54788 0.88695 0.26013 0.0
H1319 H 0.52296 0.92875 0.25258 0.0
H1320 H 0.60935 0.01941 0.28101 0.0
H1321 H 0.63249 0.97661 0.28939 0.0
H1322 H 0.5467 0.00802 0.29025 0.0
H1323 H 0.59949 0.02613 0.2397 0.0
H1324 H 0.61634 0.01041 0.21407 0.0
H1325 H 0.49745 0.94633 0.20162 0.0
H1326 H 0.47974 0.96086 0.22732 0.0
H1327 H 0.4597 0.12156 0.25671 0.0
H1328 H 0.49667 0.09028 0.25027 0.0
H1329 H 0.42738 -0.00152 0.28226 0.0
H1330 H 0.39134 0.03025 0.28918 0.0
H1331 H 0.49049 0.02187 0.24066 0.0
H1332 H 0.48413 0.98803 0.3071 0.0
H1333 H 0.47419 0.01251 0.33214 0.0
H1334 H 0.51572 0.12354 0.31148 0.0
H1335 H 0.52647 0.09989 0.28641 0.0
C1336 C 0.56226 0.91621 0.26435 0.0
C1337 C 0.59165 0.92852 0.27551 0.0
C1338 C 0.54814 0.94024 0.25995 0.0
C1339 C 0.56402 0.97727 0.26631 0.0
C1340 C 0.59624 0.99082 0.27611 0.0
C1341 C 0.60955 0.96645 0.28087 0.0
C1342 C 0.54303 -0.00123 0.26521 0.0
C1343 C 0.53496 0.01133 0.27931 0.0
C1344 C 0.52787 0.00373 0.25097 0.0
C1345 C 0.53826 0.99441 0.23553 0.0
C1346 C 0.57687 0.00834 0.23158 0.0
C1347 C 0.58659 -0.00031 0.21702 0.0
C1348 C 0.55799 0.9774 0.20623 0.0
C1349 C 0.51959 0.96364 0.20999 0.0
C1350 C 0.50969 0.97206 0.22456 0.0
C1351 C 0.4516 0.09411 0.262 0.0
C1352 C 0.42325 0.07868 0.2737 0.0
C1353 C 0.4727 0.07624 0.25827 0.0
C1354 C 0.46533 0.04262 0.26608 0.0
C1355 C 0.43396 0.02486 0.27634 0.0
C1356 C 0.41341 0.04301 0.28029 0.0
C1357 C 0.49367 0.02951 0.26569 0.0
C1358 C 0.50292 0.01871 0.25143 0.0
C1359 C 0.51129 0.02737 0.27968 0.0
C1360 C 0.50578 0.04207 0.29485 0.0
C1361 C 0.49135 0.01772 0.30794 0.0
C1362 C 0.48554 0.03144 0.32213 0.0
C1363 C 0.49422 0.06952 0.32339 0.0
C1364 C 0.5089 0.09402 0.31048 0.0
C1365 C 0.51484 0.08047 0.29628 0.0
H1366 H 0.48962 0.08007 0.33437 0.0
H1367 H 0.56558 0.97078 0.19495 0.0
loop_
_geom_bond_atom_site_label_1
_geom_bond_atom_site_label_2
_geom_bond_distance
_geom_bond_site_symmetry_2
_ccdc_geom_bond_type
Zn0 O3 2.031 . S
Zn0 O5 2.049 . S
Zn0 O10 2.067 . S
Zn1 O2 1.962 . S
Zn1 O4 1.986 . S
Zn1 O6 1.996 . S
Zn1 O9 1.943 . S
O2 Zn1 1.962 . S
O2 C7 1.254 . S
O3 Zn0 2.031 . S
O3 C7 1.269 . S
O4 Zn1 1.986 . S
O4 C11 1.262 . S
O5 Zn0 2.049 . S
O5 C13 1.260 . S
O6 Zn1 1.996 . S
O6 C13 1.257 . S
C7 O2 1.254 . S
C7 O3 1.269 . S
C8 O9 1.249 . S
C8 O10 1.270 . S
O9 Zn1 1.943 . S
O9 C8 1.249 . S
O10 Zn0 2.067 . S
O10 C8 1.270 . S
C11 O4 1.262 . S
C11 O12 1.232 . S
O12 C11 1.232 . S
C13 O5 1.260 . S
C13 O6 1.257 . S
Zn14 O17 2.031 . S
Zn14 O19 2.049 . S
Zn14 O24 2.067 . S
Zn15 O16 1.962 . S
Zn15 O18 1.986 . S
Zn15 O20 1.996 . S
Zn15 O23 1.943 . S
O16 Zn15 1.962 . S
O16 C21 1.254 . S
O17 Zn14 2.031 . S
O17 C21 1.269 . S
O18 Zn15 1.986 . S
O18 C25 1.262 . S
O19 Zn14 2.049 . S
O19 C27 1.260 . S
O20 Zn15 1.996 . S
O20 C27 1.257 . S
C21 O16 1.254 . S
C21 O17 1.269 . S
C22 O23 1.249 . S
C22 O24 1.270 . S
O23 Zn15 1.943 . S
O23 C22 1.249 . S
O24 Zn14 2.067 . S
O24 C22 1.270 . S
C25 O18 1.262 . S
C25 O26 1.232 . S
O26 C25 1.232 . S
C27 O19 1.260 . S
C27 O20 1.257 . S
Zn28 O31 2.031 . S
Zn28 O33 2.049 . S
Zn28 O38 2.067 . S
Zn29 O30 1.962 . S
Zn29 O32 1.986 . S
Zn29 O34 1.996 . S
Zn29 O37 1.943 . S
O30 Zn29 1.962 . S
O30 C35 1.254 . S
O31 Zn28 2.031 . S
O31 C35 1.269 . S
O32 Zn29 1.986 . S
O32 C39 1.262 . S
O33 Zn28 2.049 . S
O33 C41 1.260 . S
O34 Zn29 1.996 . S
O34 C41 1.257 . S
C35 O30 1.254 . S
C35 O31 1.269 . S
C36 O37 1.249 . S
C36 O38 1.270 . S
O37 Zn29 1.943 . S
O37 C36 1.249 . S
O38 Zn28 2.067 . S
O38 C36 1.270 . S
C39 O32 1.262 . S
C39 O40 1.232 . S
O40 C39 1.232 . S
C41 O33 1.260 . S
C41 O34 1.257 . S
Zn42 O45 2.031 . S
Zn42 O47 2.049 . S
Zn42 O52 2.067 . S
Zn43 O44 1.962 . S
Zn43 O46 1.986 . S
Zn43 O48 1.996 . S
Zn43 O51 1.943 . S
O44 Zn43 1.962 . S
O44 C49 1.254 . S
O45 Zn42 2.031 . S
O45 C49 1.269 . S
O46 Zn43 1.986 . S
O46 C53 1.262 . S
O47 Zn42 2.049 . S
O47 C55 1.260 . S
O48 Zn43 1.996 . S
O48 C55 1.257 . S
C49 O44 1.254 . S
C49 O45 1.269 . S
C50 O51 1.249 . S
C50 O52 1.270 . S
O51 Zn43 1.943 . S
O51 C50 1.249 . S
O52 Zn42 2.067 . S
O52 C50 1.270 . S
C53 O46 1.262 . S
C53 O54 1.232 . S
O54 C53 1.232 . S
C55 O47 1.260 . S
C55 O48 1.257 . S
Zn56 O59 2.031 . S
Zn56 O61 2.049 . S
Zn56 O66 2.067 . S
Zn57 O58 1.962 . S
Zn57 O60 1.986 . S
Zn57 O62 1.996 . S
Zn57 O65 1.943 . S
O58 Zn57 1.962 . S
O58 C63 1.254 . S
O59 Zn56 2.031 . S
O59 C63 1.269 . S
O60 Zn57 1.986 . S
O60 C67 1.262 . S
O61 Zn56 2.049 . S
O61 C69 1.260 . S
O62 Zn57 1.996 . S
O62 C69 1.257 . S
C63 O58 1.254 . S
C63 O59 1.269 . S
C64 O65 1.249 . S
C64 O66 1.270 . S
O65 Zn57 1.943 . S
O65 C64 1.249 . S
O66 Zn56 2.067 . S
O66 C64 1.270 . S
C67 O60 1.262 . S
C67 O68 1.232 . S
O68 C67 1.232 . S
C69 O61 1.260 . S
C69 O62 1.257 . S
Zn70 O73 2.031 . S
Zn70 O75 2.049 . S
Zn70 O80 2.067 . S
Zn71 O72 1.962 . S
Zn71 O74 1.986 . S
Zn71 O76 1.996 . S
Zn71 O79 1.943 . S
O72 Zn71 1.962 . S
O72 C77 1.254 . S
O73 Zn70 2.031 . S
O73 C77 1.269 . S
O74 Zn71 1.986 . S
O74 C81 1.262 . S
O75 Zn70 2.049 . S
O75 C83 1.260 . S
O76 Zn71 1.996 . S
O76 C83 1.257 . S
C77 O72 1.254 . S
C77 O73 1.269 . S
C78 O79 1.249 . S
C78 O80 1.270 . S
O79 Zn71 1.943 . S
O79 C78 1.249 . S
O80 Zn70 2.067 . S
O80 C78 1.270 . S
C81 O74 1.262 . S
C81 O82 1.232 . S
O82 C81 1.232 . S
C83 O75 1.260 . S
C83 O76 1.257 . S
Zn84 O87 2.031 . S
Zn84 O89 2.049 . S
Zn84 O94 2.067 . S
Zn85 O86 1.962 . S
Zn85 O88 1.986 . S
Zn85 O90 1.996 . S
Zn85 O93 1.943 . S
O86 Zn85 1.962 . S
O86 C91 1.254 . S
O87 Zn84 2.031 . S
O87 C91 1.269 . S
O88 Zn85 1.986 . S
O88 C95 1.262 . S
O89 Zn84 2.049 . S
O89 C97 1.260 . S
O90 Zn85 1.996 . S
O90 C97 1.257 . S
C91 O86 1.254 . S
C91 O87 1.269 . S
C92 O93 1.249 . S
C92 O94 1.270 . S
O93 Zn85 1.943 . S
O93 C92 1.249 . S
O94 Zn84 2.067 . S
O94 C92 1.270 . S
C95 O88 1.262 . S
C95 O96 1.232 . S
O96 C95 1.232 . S
C97 O89 1.260 . S
C97 O90 1.257 . S
Zn98 O101 2.031 . S
Zn98 O103 2.049 . S
Zn98 O108 2.067 . S
Zn99 O100 1.962 . S
Zn99 O102 1.986 . S
Zn99 O104 1.996 . S
Zn99 O107 1.943 . S
O100 Zn99 1.962 . S
O100 C105 1.254 . S
O101 Zn98 2.031 . S
O101 C105 1.269 . S
O102 Zn99 1.986 . S
O102 C109 1.262 . S
O103 Zn98 2.049 . S
O103 C111 1.260 . S
O104 Zn99 1.996 . S
O104 C111 1.257 . S
C105 O100 1.254 . S
C105 O101 1.269 . S
C106 O107 1.249 . S
C106 O108 1.270 . S
O107 Zn99 1.943 . S
O107 C106 1.249 . S
O108 Zn98 2.067 . S
O108 C106 1.270 . S
C109 O102 1.262 . S
C109 O110 1.232 . S
O110 C109 1.232 . S
C111 O103 1.260 . S
C111 O104 1.257 . S
Zn112 O115 2.031 . S
Zn112 O117 2.049 . S
Zn112 O122 2.067 . S
Zn113 O114 1.962 . S
Zn113 O116 1.986 . S
Zn113 O118 1.996 . S
Zn113 O121 1.943 . S
O114 Zn113 1.962 . S
O114 C119 1.254 . S
O115 Zn112 2.031 . S
O115 C119 1.269 . S
O116 Zn113 1.986 . S
O116 C123 1.262 . S
O117 Zn112 2.049 . S
O117 C125 1.260 . S
O118 Zn113 1.996 . S
O118 C125 1.257 . S
C119 O114 1.254 . S
C119 O115 1.269 . S
C120 O121 1.249 . S
C120 O122 1.270 . S
O121 Zn113 1.943 . S
O121 C120 1.249 . S
O122 Zn112 2.067 . S
O122 C120 1.270 . S
C123 O116 1.262 . S
C123 O124 1.232 . S
O124 C123 1.232 . S
C125 O117 1.260 . S
C125 O118 1.257 . S
Zn126 O129 2.031 . S
Zn126 O131 2.049 . S
Zn126 O136 2.067 . S
Zn127 O128 1.962 . S
Zn127 O130 1.986 . S
Zn127 O132 1.996 . S
Zn127 O135 1.943 . S
O128 Zn127 1.962 . S
O128 C133 1.254 . S
O129 Zn126 2.031 . S
O129 C133 1.269 . S
O130 Zn127 1.986 . S
O130 C137 1.262 . S
O131 Zn126 2.049 . S
O131 C139 1.260 . S
O132 Zn127 1.996 . S
O132 C139 1.257 . S
C133 O128 1.254 . S
C133 O129 1.269 . S
C134 O135 1.249 . S
C134 O136 1.270 . S
O135 Zn127 1.943 . S
O135 C134 1.249 . S
O136 Zn126 2.067 . S
O136 C134 1.270 . S
C137 O130 1.262 . S
C137 O138 1.232 . S
O138 C137 1.232 . S
C139 O131 1.260 . S
C139 O132 1.257 . S
Zn140 O143 2.031 . S
Zn140 O145 2.049 . S
Zn140 O150 2.067 . S
Zn141 O142 1.962 . S
Zn141 O144 1.986 . S
Zn141 O146 1.996 . S
Zn141 O149 1.943 . S
O142 Zn141 1.962 . S
O142 C147 1.254 . S
O143 Zn140 2.031 . S
O143 C147 1.269 . S
O144 Zn141 1.986 . S
O144 C151 1.262 . S
O145 Zn140 2.049 . S
O145 C153 1.260 . S
O146 Zn141 1.996 . S
O146 C153 1.257 . S
C147 O142 1.254 . S
C147 O143 1.269 . S
C148 O149 1.249 . S
C148 O150 1.270 . S
O149 Zn141 1.943 . S
O149 C148 1.249 . S
O150 Zn140 2.067 . S
O150 C148 1.270 . S
C151 O144 1.262 . S
C151 O152 1.232 . S
O152 C151 1.232 . S
C153 O145 1.260 . S
C153 O146 1.257 . S
Zn154 O157 2.031 . S
Zn154 O159 2.049 . S
Zn154 O164 2.067 . S
Zn155 O156 1.962 . S
Zn155 O158 1.986 . S
Zn155 O160 1.996 . S
Zn155 O163 1.943 . S
O156 Zn155 1.962 . S
O156 C161 1.254 . S
O157 Zn154 2.031 . S
O157 C161 1.269 . S
O158 Zn155 1.986 . S
O158 C165 1.262 . S
O159 Zn154 2.049 . S
O159 C167 1.260 . S
O160 Zn155 1.996 . S
O160 C167 1.257 . S
C161 O156 1.254 . S
C161 O157 1.269 . S
C162 O163 1.249 . S
C162 O164 1.270 . S
O163 Zn155 1.943 . S
O163 C162 1.249 . S
O164 Zn154 2.067 . S
O164 C162 1.270 . S
C165 O158 1.262 . S
C165 O166 1.232 . S
O166 C165 1.232 . S
C167 O159 1.260 . S
C167 O160 1.257 . S
H168 C186 0.951 . S
H169 C188 0.951 . S
H170 C190 0.950 . S
H171 C191 0.950 . S
H172 C193 0.950 . S
H173 C196 0.950 . S
H174 C197 0.950 . S
H175 C199 0.950 . S
H176 C200 0.950 . S
H177 C201 0.951 . S
H178 C203 0.951 . S
H179 C205 0.950 . S
H180 C206 0.950 . S
H181 C208 0.950 . S
H182 C211 0.950 . S
H183 C212 0.950 . S
H184 C214 0.950 . S
H185 C215 0.950 . S
C186 H168 0.951 . S
C186 C187 1.366 . S
C186 C188 1.388 . S
C187 C186 1.366 . S
C187 C191 1.385 . S
C188 H169 0.951 . S
C188 C186 1.388 . S
C188 C189 1.366 . S
C189 C188 1.366 . S
C189 C190 1.414 . S
C189 C192 1.499 . S
C190 H170 0.950 . S
C190 C189 1.414 . S
C190 C191 1.374 . S
C191 H171 0.950 . S
C191 C187 1.385 . S
C191 C190 1.374 . S
C192 C189 1.499 . S
C192 C193 1.373 1_556 S
C192 C194 1.389 . S
C193 H172 0.950 . S
C193 C192 1.373 1_554 S
C193 C209 1.377 1_565 S
C194 C192 1.389 . S
C194 C195 1.524 . S
C194 C208 1.377 1_565 S
C195 C194 1.524 . S
C195 C196 1.397 . S
C195 C200 1.363 1_565 S
C196 H173 0.950 . S
C196 C195 1.397 . S
C196 C197 1.334 . S
C197 H174 0.950 . S
C197 C196 1.334 . S
C197 C198 1.287 . S
C198 C197 1.287 . S
C198 C199 1.524 1_565 S
C198 H217 0.913 . S
C199 H175 0.950 . S
C199 C198 1.524 1_545 S
C199 C200 1.415 . S
C200 H176 0.950 . S
C200 C195 1.363 1_545 S
C200 C199 1.415 . S
C201 H177 0.951 . S
C201 C202 1.366 . S
C201 C203 1.388 . S
C202 C201 1.366 . S
C202 C206 1.385 . S
C203 H178 0.951 . S
C203 C201 1.388 . S
C203 C204 1.366 . S
C204 C203 1.366 . S
C204 C205 1.414 . S
C204 C207 1.499 . S
C205 H179 0.950 . S
C205 C204 1.414 . S
C205 C206 1.374 . S
C206 H180 0.950 . S
C206 C202 1.385 . S
C206 C205 1.374 . S
C207 C204 1.499 . S
C207 C208 1.373 1_554 S
C207 C209 1.389 . S
C208 H181 0.950 . S
C208 C194 1.377 1_545 S
C208 C207 1.373 1_556 S
C209 C193 1.377 1_545 S
C209 C207 1.389 . S
C209 C210 1.524 . S
C210 C209 1.524 . S
C210 C211 1.397 . S
C210 C215 1.363 1_545 S
C211 H182 0.950 . S
C211 C210 1.397 . S
C211 C212 1.334 . S
C212 H183 0.950 . S
C212 C211 1.334 . S
C212 C213 1.287 . S
C213 C212 1.287 . S
C213 C214 1.524 1_545 S
C213 H216 0.999 . S
C214 H184 0.950 . S
C214 C213 1.524 1_565 S
C214 C215 1.415 . S
C215 H185 0.950 . S
C215 C210 1.363 1_565 S
C215 C214 1.415 . S
H216 C213 0.999 . S
H217 C198 0.913 . S
H218 C236 0.951 . S
H219 C238 0.951 . S
H220 C240 0.950 . S
H221 C241 0.950 . S
H222 C243 0.950 . S
H223 C246 0.950 . S
H224 C247 0.950 . S
H225 C249 0.950 . S
H226 C250 0.950 . S
H227 C251 0.951 . S
H228 C253 0.951 . S
H229 C255 0.950 . S
H230 C256 0.950 . S
H231 C258 0.950 . S
H232 C261 0.950 . S
H233 C262 0.950 . S
H234 C264 0.950 . S
H235 C265 0.950 . S
C236 H218 0.951 . S
C236 C237 1.366 . S
C236 C238 1.388 . S
C237 C236 1.366 . S
C237 C241 1.385 . S
C238 H219 0.951 . S
C238 C236 1.388 . S
C238 C239 1.366 . S
C239 C238 1.366 . S
C239 C240 1.414 . S
C239 C242 1.499 . S
C240 H220 0.950 . S
C240 C239 1.414 . S
C240 C241 1.374 . S
C241 H221 0.950 . S
C241 C237 1.385 . S
C241 C240 1.374 . S
C242 C239 1.499 . S
C242 C243 1.373 . S
C242 C244 1.389 . S
C243 H222 0.950 . S
C243 C242 1.373 . S
C243 C259 1.377 . S
C244 C242 1.389 . S
C244 C245 1.524 . S
C244 C258 1.377 . S
C245 C244 1.524 . S
C245 C246 1.397 . S
C245 C250 1.363 . S
C246 H223 0.950 . S
C246 C245 1.397 . S
C246 C247 1.334 . S
C247 H224 0.950 . S
C247 C246 1.334 . S
C247 C248 1.287 . S
C248 C247 1.287 . S
C248 C249 1.524 . S
C248 H267 0.913 . S
C249 H225 0.950 . S
C249 C248 1.524 . S
C249 C250 1.415 . S
C250 H226 0.950 . S
C250 C245 1.363 . S
C250 C249 1.415 . S
C251 H227 0.951 . S
C251 C252 1.366 . S
C251 C253 1.388 . S
C252 C251 1.366 . S
C252 C256 1.385 . S
C253 H228 0.951 . S
C253 C251 1.388 . S
C253 C254 1.366 . S
C254 C253 1.366 . S
C254 C255 1.414 . S
C254 C257 1.499 . S
C255 H229 0.950 . S
C255 C254 1.414 . S
C255 C256 1.374 . S
C256 H230 0.950 . S
C256 C252 1.385 . S
C256 C255 1.374 . S
C257 C254 1.499 . S
C257 C258 1.373 . S
C257 C259 1.389 . S
C258 H231 0.950 . S
C258 C244 1.377 . S
C258 C257 1.373 . S
C259 C243 1.377 . S
C259 C257 1.389 . S
C259 C260 1.524 . S
C260 C259 1.524 . S
C260 C261 1.397 . S
C260 C265 1.363 . S
C261 H232 0.950 . S
C261 C260 1.397 . S
C261 C262 1.334 . S
C262 H233 0.950 . S
C262 C261 1.334 . S
C262 C263 1.287 . S
C263 C262 1.287 . S
C263 C264 1.524 . S
C263 H266 0.999 . S
C264 H234 0.950 . S
C264 C263 1.524 . S
C264 C265 1.415 . S
C265 H235 0.950 . S
C265 C260 1.363 . S
C265 C264 1.415 . S
H266 C263 0.999 . S
H267 C248 0.913 . S
H268 C286 0.951 . S
H269 C288 0.951 . S
H270 C290 0.950 . S
H271 C291 0.950 . S
H272 C293 0.950 . S
H273 C296 0.950 . S
H274 C297 0.950 . S
H275 C299 0.950 . S
H276 C300 0.950 . S
H277 C301 0.951 . S
H278 C303 0.951 . S
H279 C305 0.950 . S
H280 C306 0.950 . S
H281 C308 0.950 . S
H282 C311 0.950 . S
H283 C312 0.950 . S
H284 C314 0.950 . S
H285 C315 0.950 . S
C286 H268 0.951 . S
C286 C287 1.366 . S
C286 C288 1.388 . S
C287 C286 1.366 . S
C287 C291 1.385 . S
C288 H269 0.951 . S
C288 C286 1.388 . S
C288 C289 1.366 . S
C289 C288 1.366 . S
C289 C290 1.414 . S
C289 C292 1.499 . S
C290 H270 0.950 . S
C290 C289 1.414 . S
C290 C291 1.374 . S
C291 H271 0.950 . S
C291 C287 1.385 . S
C291 C290 1.374 . S
C292 C289 1.499 . S
C292 C293 1.373 . S
C292 C294 1.389 . S
C293 H272 0.950 . S
C293 C292 1.373 . S
C293 C309 1.377 1_655 S
C294 C292 1.389 . S
C294 C295 1.524 . S
C294 C308 1.377 1_655 S
C295 C294 1.524 . S
C295 C296 1.397 . S
C295 C300 1.363 . S
C296 H273 0.950 . S
C296 C295 1.397 . S
C296 C297 1.334 . S
C297 H274 0.950 . S
C297 C296 1.334 . S
C297 C298 1.287 . S
C298 C297 1.287 . S
C298 C299 1.524 . S
C298 H317 0.913 . S
C299 H275 0.950 . S
C299 C298 1.524 . S
C299 C300 1.415 . S
C300 H276 0.950 . S
C300 C295 1.363 . S
C300 C299 1.415 . S
C301 H277 0.951 . S
C301 C302 1.366 . S
C301 C303 1.388 . S
C302 C301 1.366 . S
C302 C306 1.385 . S
C303 H278 0.951 . S
C303 C301 1.388 . S
C303 C304 1.366 . S
C304 C303 1.366 . S
C304 C305 1.414 . S
C304 C307 1.499 . S
C305 H279 0.950 . S
C305 C304 1.414 . S
C305 C306 1.374 . S
C306 H280 0.950 . S
C306 C302 1.385 . S
C306 C305 1.374 . S
C307 C304 1.499 . S
C307 C308 1.373 . S
C307 C309 1.389 . S
C308 H281 0.950 . S
C308 C294 1.377 1_455 S
C308 C307 1.373 . S
C309 C293 1.377 1_455 S
C309 C307 1.389 . S
C309 C310 1.524 . S
C310 C309 1.524 . S
C310 C311 1.397 . S
C310 C315 1.363 . S
C311 H282 0.950 . S
C311 C310 1.397 . S
C311 C312 1.334 . S
C312 H283 0.950 . S
C312 C311 1.334 . S
C312 C313 1.287 . S
C313 C312 1.287 . S
C313 C314 1.524 . S
C313 H316 0.999 . S
C314 H284 0.950 . S
C314 C313 1.524 . S
C314 C315 1.415 . S
C315 H285 0.950 . S
C315 C310 1.363 . S
C315 C314 1.415 . S
H316 C313 0.999 . S
H317 C298 0.913 . S
H318 C336 0.951 . S
H319 C338 0.951 . S
H320 C340 0.950 1_556 S
H321 C341 0.950 . S
H322 C343 0.950 . S
H323 C346 0.950 . S
H324 C347 0.950 . S
H325 C349 0.950 . S
H326 C350 0.950 . S
H327 C351 0.951 . S
H328 C353 0.951 . S
H329 C355 0.950 1_554 S
H330 C356 0.950 . S
H331 C358 0.950 . S
H332 C361 0.950 . S
H333 C362 0.950 . S
H334 C364 0.950 . S
H335 C365 0.950 . S
C336 H318 0.951 . S
C336 C337 1.366 . S
C336 C338 1.388 . S
C337 C336 1.366 . S
C337 C341 1.385 . S
C338 H319 0.951 . S
C338 C336 1.388 . S
C338 C339 1.366 . S
C339 C338 1.366 . S
C339 C340 1.414 . S
C339 C342 1.499 . S
C340 H320 0.950 1_554 S
C340 C339 1.414 . S
C340 C341 1.374 . S
C341 H321 0.950 . S
C341 C337 1.385 . S
C341 C340 1.374 . S
C342 C339 1.499 . S
C342 C343 1.373 1_554 S
C342 C344 1.389 . S
C343 H322 0.950 . S
C343 C342 1.373 1_556 S
C343 C359 1.377 1_565 S
C344 C342 1.389 . S
C344 C345 1.524 . S
C344 C358 1.377 1_565 S
C345 C344 1.524 . S
C345 C346 1.397 . S
C345 C350 1.363 1_565 S
C346 H323 0.950 . S
C346 C345 1.397 . S
C346 C347 1.334 . S
C347 H324 0.950 . S
C347 C346 1.334 . S
C347 C348 1.287 . S
C348 C347 1.287 . S
C348 C349 1.524 1_565 S
C348 H367 0.913 . S
C349 H325 0.950 . S
C349 C348 1.524 1_545 S
C349 C350 1.415 . S
C350 H326 0.950 . S
C350 C345 1.363 1_545 S
C350 C349 1.415 . S
C351 H327 0.951 . S
C351 C352 1.366 . S
C351 C353 1.388 . S
C352 C351 1.366 . S
C352 C356 1.385 . S
C353 H328 0.951 . S
C353 C351 1.388 . S
C353 C354 1.366 . S
C354 C353 1.366 . S
C354 C355 1.414 . S
C354 C357 1.499 . S
C355 H329 0.950 1_556 S
C355 C354 1.414 . S
C355 C356 1.374 . S
C356 H330 0.950 . S
C356 C352 1.385 . S
C356 C355 1.374 . S
C357 C354 1.499 . S
C357 C358 1.373 1_556 S
C357 C359 1.389 . S
C358 H331 0.950 . S
C358 C344 1.377 1_545 S
C358 C357 1.373 1_554 S
C359 C343 1.377 1_545 S
C359 C357 1.389 . S
C359 C360 1.524 . S
C360 C359 1.524 . S
C360 C361 1.397 . S
C360 C365 1.363 1_545 S
C361 H332 0.950 . S
C361 C360 1.397 . S
C361 C362 1.334 . S
C362 H333 0.950 . S
C362 C361 1.334 . S
C362 C363 1.287 . S
C363 C362 1.287 . S
C363 C364 1.524 1_545 S
C363 H366 0.999 . S
C364 H334 0.950 . S
C364 C363 1.524 1_565 S
C364 C365 1.415 . S
C365 H335 0.950 . S
C365 C360 1.363 1_565 S
C365 C364 1.415 . S
H366 C363 0.999 . S
H367 C348 0.913 . S
H368 C386 0.951 . S
H369 C388 0.951 . S
H370 C390 0.950 . S
H371 C391 0.950 . S
H372 C393 0.950 . S
H373 C396 0.950 . S
H374 C397 0.950 . S
H375 C399 0.950 . S
H376 C400 0.950 . S
H377 C401 0.951 . S
H378 C403 0.951 . S
H379 C405 0.950 . S
H380 C406 0.950 . S
H381 C408 0.950 . S
H382 C411 0.950 . S
H383 C412 0.950 . S
H384 C414 0.950 . S
H385 C415 0.950 . S
C386 H368 0.951 . S
C386 C387 1.366 . S
C386 C388 1.388 . S
C387 C386 1.366 . S
C387 C391 1.385 . S
C388 H369 0.951 . S
C388 C386 1.388 . S
C388 C389 1.366 . S
C389 C388 1.366 . S
C389 C390 1.414 . S
C389 C392 1.499 . S
C390 H370 0.950 . S
C390 C389 1.414 . S
C390 C391 1.374 . S
C391 H371 0.950 . S
C391 C387 1.385 . S
C391 C390 1.374 . S
C392 C389 1.499 . S
C392 C393 1.373 . S
C392 C394 1.389 . S
C393 H372 0.950 . S
C393 C392 1.373 . S
C393 C409 1.377 . S
C394 C392 1.389 . S
C394 C395 1.524 . S
C394 C408 1.377 . S
C395 C394 1.524 . S
C395 C396 1.397 . S
C395 C400 1.363 . S
C396 H373 0.950 . S
C396 C395 1.397 . S
C396 C397 1.334 . S
C397 H374 0.950 . S
C397 C396 1.334 . S
C397 C398 1.287 . S
C398 C397 1.287 . S
C398 C399 1.524 . S
C398 H417 0.913 . S
C399 H375 0.950 . S
C399 C398 1.524 . S
C399 C400 1.415 . S
C400 H376 0.950 . S
C400 C395 1.363 . S
C400 C399 1.415 . S
C401 H377 0.951 . S
C401 C402 1.366 . S
C401 C403 1.388 . S
C402 C401 1.366 . S
C402 C406 1.385 . S
C403 H378 0.951 . S
C403 C401 1.388 . S
C403 C404 1.366 . S
C404 C403 1.366 . S
C404 C405 1.414 . S
C404 C407 1.499 . S
C405 H379 0.950 . S
C405 C404 1.414 . S
C405 C406 1.374 . S
C406 H380 0.950 . S
C406 C402 1.385 . S
C406 C405 1.374 . S
C407 C404 1.499 . S
C407 C408 1.373 . S
C407 C409 1.389 . S
C408 H381 0.950 . S
C408 C394 1.377 . S
C408 C407 1.373 . S
C409 C393 1.377 . S
C409 C407 1.389 . S
C409 C410 1.524 . S
C410 C409 1.524 . S
C410 C411 1.397 . S
C410 C415 1.363 . S
C411 H382 0.950 . S
C411 C410 1.397 . S
C411 C412 1.334 . S
C412 H383 0.950 . S
C412 C411 1.334 . S
C412 C413 1.287 . S
C413 C412 1.287 . S
C413 C414 1.524 . S
C413 H416 0.999 . S
C414 H384 0.950 . S
C414 C413 1.524 . S
C414 C415 1.415 . S
C415 H385 0.950 . S
C415 C410 1.363 . S
C415 C414 1.415 . S
H416 C413 0.999 . S
H417 C398 0.913 . S
H418 C436 0.951 . S
H419 C438 0.951 . S
H420 C440 0.950 . S
H421 C441 0.950 . S
H422 C443 0.950 . S
H423 C446 0.950 . S
H424 C447 0.950 . S
H425 C449 0.950 . S
H426 C450 0.950 . S
H427 C451 0.951 . S
H428 C453 0.951 . S
H429 C455 0.950 . S
H430 C456 0.950 . S
H431 C458 0.950 . S
H432 C461 0.950 . S
H433 C462 0.950 . S
H434 C464 0.950 . S
H435 C465 0.950 . S
C436 H418 0.951 . S
C436 C437 1.366 . S
C436 C438 1.388 . S
C437 C436 1.366 . S
C437 C441 1.385 . S
C438 H419 0.951 . S
C438 C436 1.388 . S
C438 C439 1.366 . S
C439 C438 1.366 . S
C439 C440 1.414 . S
C439 C442 1.499 . S
C440 H420 0.950 . S
C440 C439 1.414 . S
C440 C441 1.374 . S
C441 H421 0.950 . S
C441 C437 1.385 . S
C441 C440 1.374 . S
C442 C439 1.499 . S
C442 C443 1.373 . S
C442 C444 1.389 . S
C443 H422 0.950 . S
C443 C442 1.373 . S
C443 C459 1.377 1_655 S
C444 C442 1.389 . S
C444 C445 1.524 . S
C444 C458 1.377 1_655 S
C445 C444 1.524 . S
C445 C446 1.397 . S
C445 C450 1.363 . S
C446 H423 0.950 . S
C446 C445 1.397 . S
C446 C447 1.334 . S
C447 H424 0.950 . S
C447 C446 1.334 . S
C447 C448 1.287 . S
C448 C447 1.287 . S
C448 C449 1.524 . S
C448 H467 0.913 . S
C449 H425 0.950 . S
C449 C448 1.524 . S
C449 C450 1.415 . S
C450 H426 0.950 . S
C450 C445 1.363 . S
C450 C449 1.415 . S
C451 H427 0.951 . S
C451 C452 1.366 . S
C451 C453 1.388 . S
C452 C451 1.366 . S
C452 C456 1.385 . S
C453 H428 0.951 . S
C453 C451 1.388 . S
C453 C454 1.366 . S
C454 C453 1.366 . S
C454 C455 1.414 . S
C454 C457 1.499 . S
C455 H429 0.950 . S
C455 C454 1.414 . S
C455 C456 1.374 . S
C456 H430 0.950 . S
C456 C452 1.385 . S
C456 C455 1.374 . S
C457 C454 1.499 . S
C457 C458 1.373 . S
C457 C459 1.389 . S
C458 H431 0.950 . S
C458 C444 1.377 1_455 S
C458 C457 1.373 . S
C459 C443 1.377 1_455 S
C459 C457 1.389 . S
C459 C460 1.524 . S
C460 C459 1.524 . S
C460 C461 1.397 . S
C460 C465 1.363 . S
C461 H432 0.950 . S
C461 C460 1.397 . S
C461 C462 1.334 . S
C462 H433 0.950 . S
C462 C461 1.334 . S
C462 C463 1.287 . S
C463 C462 1.287 . S
C463 C464 1.524 . S
C463 H466 0.999 . S
C464 H434 0.950 . S
C464 C463 1.524 . S
C464 C465 1.415 . S
C465 H435 0.950 . S
C465 C460 1.363 . S
C465 C464 1.415 . S
H466 C463 0.999 . S
H467 C448 0.913 . S
H468 C486 0.951 . S
H469 C488 0.951 . S
H470 C490 0.950 . S
H471 C491 0.950 . S
H472 C493 0.950 . S
H473 C496 0.950 . S
H474 C497 0.950 . S
H475 C499 0.950 . S
H476 C500 0.950 1_554 S
H477 C501 0.951 . S
H478 C503 0.951 . S
H479 C505 0.950 . S
H480 C506 0.950 . S
H481 C508 0.950 . S
H482 C511 0.950 . S
H483 C512 0.950 . S
H484 C514 0.950 . S
H485 C515 0.950 1_556 S
C486 H468 0.951 . S
C486 C487 1.366 . S
C486 C488 1.388 . S
C487 C486 1.366 . S
C487 C491 1.385 . S
C488 H469 0.951 . S
C488 C486 1.388 . S
C488 C489 1.366 . S
C489 C488 1.366 . S
C489 C490 1.414 . S
C489 C492 1.499 . S
C490 H470 0.950 . S
C490 C489 1.414 . S
C490 C491 1.374 . S
C491 H471 0.950 . S
C491 C487 1.385 . S
C491 C490 1.374 . S
C492 C489 1.499 . S
C492 C493 1.373 . S
C492 C494 1.389 . S
C493 H472 0.950 . S
C493 C492 1.373 . S
C493 C509 1.377 1_556 S
C494 C492 1.389 . S
C494 C495 1.524 . S
C494 C508 1.377 1_556 S
C495 C494 1.524 . S
C495 C496 1.397 . S
C495 C500 1.363 . S
C496 H473 0.950 . S
C496 C495 1.397 . S
C496 C497 1.334 . S
C497 H474 0.950 . S
C497 C496 1.334 . S
C497 C498 1.287 . S
C498 C497 1.287 . S
C498 C499 1.524 . S
C498 H517 0.913 . S
C499 H475 0.950 . S
C499 C498 1.524 . S
C499 C500 1.415 . S
C500 H476 0.950 1_556 S
C500 C495 1.363 . S
C500 C499 1.415 . S
C501 H477 0.951 . S
C501 C502 1.366 . S
C501 C503 1.388 . S
C502 C501 1.366 . S
C502 C506 1.385 . S
C503 H478 0.951 . S
C503 C501 1.388 . S
C503 C504 1.366 . S
C504 C503 1.366 . S
C504 C505 1.414 . S
C504 C507 1.499 . S
C505 H479 0.950 . S
C505 C504 1.414 . S
C505 C506 1.374 . S
C506 H480 0.950 . S
C506 C502 1.385 . S
C506 C505 1.374 . S
C507 C504 1.499 . S
C507 C508 1.373 . S
C507 C509 1.389 . S
C508 H481 0.950 . S
C508 C494 1.377 1_554 S
C508 C507 1.373 . S
C509 C493 1.377 1_554 S
C509 C507 1.389 . S
C509 C510 1.524 . S
C510 C509 1.524 . S
C510 C511 1.397 . S
C510 C515 1.363 . S
C511 H482 0.950 . S
C511 C510 1.397 . S
C511 C512 1.334 . S
C512 H483 0.950 . S
C512 C511 1.334 . S
C512 C513 1.287 . S
C513 C512 1.287 . S
C513 C514 1.524 . S
C513 H516 0.999 . S
C514 H484 0.950 . S
C514 C513 1.524 . S
C514 C515 1.415 . S
C515 H485 0.950 1_554 S
C515 C510 1.363 . S
C515 C514 1.415 . S
H516 C513 0.999 . S
H517 C498 0.913 . S
H518 C536 0.951 . S
H519 C538 0.951 . S
H520 C540 0.950 . S
H521 C541 0.950 . S
H522 C543 0.950 . S
H523 C546 0.950 . S
H524 C547 0.950 . S
H525 C549 0.950 . S
H526 C550 0.950 . S
H527 C551 0.951 . S
H528 C553 0.951 . S
H529 C555 0.950 . S
H530 C556 0.950 . S
H531 C558 0.950 . S
H532 C561 0.950 . S
H533 C562 0.950 . S
H534 C564 0.950 . S
H535 C565 0.950 . S
C536 H518 0.951 . S
C536 C537 1.366 . S
C536 C538 1.388 . S
C537 C536 1.366 . S
C537 C541 1.385 . S
C538 H519 0.951 . S
C538 C536 1.388 . S
C538 C539 1.366 . S
C539 C538 1.366 . S
C539 C540 1.414 . S
C539 C542 1.499 . S
C540 H520 0.950 . S
C540 C539 1.414 . S
C540 C541 1.374 . S
C541 H521 0.950 . S
C541 C537 1.385 . S
C541 C540 1.374 . S
C542 C539 1.499 . S
C542 C543 1.373 . S
C542 C544 1.389 . S
C543 H522 0.950 . S
C543 C542 1.373 . S
C543 C559 1.377 . S
C544 C542 1.389 . S
C544 C545 1.524 . S
C544 C558 1.377 . S
C545 C544 1.524 . S
C545 C546 1.397 . S
C545 C550 1.363 . S
C546 H523 0.950 . S
C546 C545 1.397 . S
C546 C547 1.334 . S
C547 H524 0.950 . S
C547 C546 1.334 . S
C547 C548 1.287 . S
C548 C547 1.287 . S
C548 C549 1.524 . S
C548 H567 0.913 . S
C549 H525 0.950 . S
C549 C548 1.524 . S
C549 C550 1.415 . S
C550 H526 0.950 . S
C550 C545 1.363 . S
C550 C549 1.415 . S
C551 H527 0.951 . S
C551 C552 1.366 . S
C551 C553 1.388 . S
C552 C551 1.366 . S
C552 C556 1.385 . S
C553 H528 0.951 . S
C553 C551 1.388 . S
C553 C554 1.366 . S
C554 C553 1.366 . S
C554 C555 1.414 . S
C554 C557 1.499 . S
C555 H529 0.950 . S
C555 C554 1.414 . S
C555 C556 1.374 . S
C556 H530 0.950 . S
C556 C552 1.385 . S
C556 C555 1.374 . S
C557 C554 1.499 . S
C557 C558 1.373 . S
C557 C559 1.389 . S
C558 H531 0.950 . S
C558 C544 1.377 . S
C558 C557 1.373 . S
C559 C543 1.377 . S
C559 C557 1.389 . S
C559 C560 1.524 . S
C560 C559 1.524 . S
C560 C561 1.397 . S
C560 C565 1.363 . S
C561 H532 0.950 . S
C561 C560 1.397 . S
C561 C562 1.334 . S
C562 H533 0.950 . S
C562 C561 1.334 . S
C562 C563 1.287 . S
C563 C562 1.287 . S
C563 C564 1.524 . S
C563 H566 0.999 . S
C564 H534 0.950 . S
C564 C563 1.524 . S
C564 C565 1.415 . S
C565 H535 0.950 . S
C565 C560 1.363 . S
C565 C564 1.415 . S
H566 C563 0.999 . S
H567 C548 0.913 . S
H568 C586 0.951 . S
H569 C588 0.951 . S
H570 C590 0.950 . S
H571 C591 0.950 . S
H572 C593 0.950 . S
H573 C596 0.950 . S
H574 C597 0.950 . S
H575 C599 0.950 . S
H576 C600 0.950 . S
H577 C601 0.951 . S
H578 C603 0.951 . S
H579 C605 0.950 . S
H580 C606 0.950 . S
H581 C608 0.950 . S
H582 C611 0.950 . S
H583 C612 0.950 . S
H584 C614 0.950 . S
H585 C615 0.950 . S
C586 H568 0.951 . S
C586 C587 1.366 . S
C586 C588 1.388 . S
C587 C586 1.366 . S
C587 C591 1.385 . S
C588 H569 0.951 . S
C588 C586 1.388 . S
C588 C589 1.366 . S
C589 C588 1.366 . S
C589 C590 1.414 . S
C589 C592 1.499 . S
C590 H570 0.950 . S
C590 C589 1.414 . S
C590 C591 1.374 . S
C591 H571 0.950 . S
C591 C587 1.385 . S
C591 C590 1.374 . S
C592 C589 1.499 . S
C592 C593 1.373 . S
C592 C594 1.389 . S
C593 H572 0.950 . S
C593 C592 1.373 . S
C593 C609 1.377 . S
C594 C592 1.389 . S
C594 C595 1.524 . S
C594 C608 1.377 . S
C595 C594 1.524 . S
C595 C596 1.397 . S
C595 C600 1.363 . S
C596 H573 0.950 . S
C596 C595 1.397 . S
C596 C597 1.334 . S
C597 H574 0.950 . S
C597 C596 1.334 . S
C597 C598 1.287 . S
C598 C597 1.287 . S
C598 C599 1.524 . S
C598 H617 0.913 . S
C599 H575 0.950 . S
C599 C598 1.524 . S
C599 C600 1.415 . S
C600 H576 0.950 . S
C600 C595 1.363 . S
C600 C599 1.415 . S
C601 H577 0.951 . S
C601 C602 1.366 . S
C601 C603 1.388 . S
C602 C601 1.366 . S
C602 C606 1.385 . S
C603 H578 0.951 . S
C603 C601 1.388 . S
C603 C604 1.366 . S
C604 C603 1.366 . S
C604 C605 1.414 . S
C604 C607 1.499 . S
C605 H579 0.950 . S
C605 C604 1.414 . S
C605 C606 1.374 . S
C606 H580 0.950 . S
C606 C602 1.385 . S
C606 C605 1.374 . S
C607 C604 1.499 . S
C607 C608 1.373 . S
C607 C609 1.389 . S
C608 H581 0.950 . S
C608 C594 1.377 . S
C608 C607 1.373 . S
C609 C593 1.377 . S
C609 C607 1.389 . S
C609 C610 1.524 . S
C610 C609 1.524 . S
C610 C611 1.397 . S
C610 C615 1.363 . S
C611 H582 0.950 . S
C611 C610 1.397 . S
C611 C612 1.334 . S
C612 H583 0.950 . S
C612 C611 1.334 . S
C612 C613 1.287 . S
C613 C612 1.287 . S
C613 C614 1.524 . S
C613 H616 0.999 . S
C614 H584 0.950 . S
C614 C613 1.524 . S
C614 C615 1.415 . S
C615 H585 0.950 . S
C615 C610 1.363 . S
C615 C614 1.415 . S
H616 C613 0.999 . S
H617 C598 0.913 . S
H618 C636 0.951 . S
H619 C638 1.003 . S
H620 C640 0.950 . S
H621 C641 0.950 . S
H622 C643 0.950 . S
H623 C646 0.950 . S
H624 C647 0.950 . S
H625 C649 0.950 . S
H626 C650 0.950 . S
H627 C651 0.951 . S
H628 C653 1.002 . S
H629 C655 0.950 . S
H630 C656 0.950 . S
H631 C658 0.950 . S
H632 C661 0.950 . S
H633 C662 0.950 . S
H634 C664 0.950 . S
H635 C665 0.950 . S
C636 H618 0.951 . S
C636 C637 1.366 . S
C636 C638 1.388 . S
C637 C636 1.366 . S
C637 C641 1.385 . S
C638 H619 1.003 . S
C638 C636 1.388 . S
C638 C639 1.366 . S
C639 C638 1.366 . S
C639 C640 1.414 . S
C639 C642 1.499 . S
C640 H620 0.950 . S
C640 C639 1.414 . S
C640 C641 1.374 . S
C641 H621 0.950 . S
C641 C637 1.385 . S
C641 C640 1.374 . S
C642 C639 1.499 . S
C642 C643 1.373 . S
C642 C644 1.389 1_556 S
C643 H622 0.950 . S
C643 C642 1.373 . S
C643 C659 1.377 . S
C644 C642 1.389 1_554 S
C644 C645 1.524 . S
C644 C658 1.377 . S
C645 C644 1.524 . S
C645 C646 1.397 . S
C645 C650 1.363 . S
C646 H623 0.950 . S
C646 C645 1.397 . S
C646 C647 1.334 . S
C647 H624 0.950 . S
C647 C646 1.334 . S
C647 C648 1.287 . S
C648 C647 1.287 . S
C648 C649 1.524 . S
C648 H667 0.913 . S
C649 H625 0.950 . S
C649 C648 1.524 . S
C649 C650 1.415 . S
C650 H626 0.950 . S
C650 C645 1.363 . S
C650 C649 1.415 . S
C651 H627 0.951 . S
C651 C652 1.366 . S
C651 C653 1.388 . S
C652 C651 1.366 . S
C652 C656 1.385 . S
C653 H628 1.002 . S
C653 C651 1.388 . S
C653 C654 1.366 . S
C654 C653 1.366 . S
C654 C655 1.414 . S
C654 C657 1.499 . S
C655 H629 0.950 . S
C655 C654 1.414 . S
C655 C656 1.374 . S
C656 H630 0.950 . S
C656 C652 1.385 . S
C656 C655 1.374 . S
C657 C654 1.499 . S
C657 C658 1.373 . S
C657 C659 1.389 1_554 S
C658 H631 0.950 . S
C658 C644 1.377 . S
C658 C657 1.373 . S
C659 C643 1.377 . S
C659 C657 1.389 1_556 S
C659 C660 1.524 . S
C660 C659 1.524 . S
C660 C661 1.397 . S
C660 C665 1.363 . S
C661 H632 0.950 . S
C661 C660 1.397 . S
C661 C662 1.334 . S
C662 H633 0.950 . S
C662 C661 1.334 . S
C662 C663 1.287 . S
C663 C662 1.287 . S
C663 C664 1.524 . S
C663 H666 0.999 . S
C664 H634 0.950 . S
C664 C663 1.524 . S
C664 C665 1.415 . S
C665 H635 0.950 . S
C665 C660 1.363 . S
C665 C664 1.415 . S
H666 C663 0.999 . S
H667 C648 0.913 . S
H668 C686 0.951 . S
H669 C688 0.951 . S
H670 C690 0.950 . S
H671 C691 0.950 . S
H672 C693 0.950 . S
H673 C696 0.950 . S
H674 C697 0.950 . S
H675 C699 0.950 . S
H676 C700 0.950 . S
H677 C701 0.951 . S
H678 C703 0.951 . S
H679 C705 0.950 . S
H680 C706 0.950 . S
H681 C708 0.950 . S
H682 C711 0.950 . S
H683 C712 0.950 . S
H684 C714 0.950 . S
H685 C715 0.950 . S
C686 H668 0.951 . S
C686 C687 1.366 . S
C686 C688 1.388 . S
C687 C686 1.366 . S
C687 C691 1.385 . S
C688 H669 0.951 . S
C688 C686 1.388 . S
C688 C689 1.366 . S
C689 C688 1.366 . S
C689 C690 1.414 . S
C689 C692 1.499 . S
C690 H670 0.950 . S
C690 C689 1.414 . S
C690 C691 1.374 . S
C691 H671 0.950 . S
C691 C687 1.385 . S
C691 C690 1.374 . S
C692 C689 1.499 . S
C692 C693 1.373 . S
C692 C694 1.389 . S
C693 H672 0.950 . S
C693 C692 1.373 . S
C693 C709 1.377 . S
C694 C692 1.389 . S
C694 C695 1.524 . S
C694 C708 1.377 . S
C695 C694 1.524 . S
C695 C696 1.397 . S
C695 C700 1.363 . S
C696 H673 0.950 . S
C696 C695 1.397 . S
C696 C697 1.334 . S
C697 H674 0.950 . S
C697 C696 1.334 . S
C697 C698 1.287 . S
C698 C697 1.287 . S
C698 C699 1.524 . S
C698 H717 0.913 . S
C699 H675 0.950 . S
C699 C698 1.524 . S
C699 C700 1.415 . S
C700 H676 0.950 . S
C700 C695 1.363 . S
C700 C699 1.415 . S
C701 H677 0.951 . S
C701 C702 1.366 . S
C701 C703 1.388 . S
C702 C701 1.366 . S
C702 C706 1.385 . S
C703 H678 0.951 . S
C703 C701 1.388 . S
C703 C704 1.366 . S
C704 C703 1.366 . S
C704 C705 1.414 . S
C704 C707 1.499 . S
C705 H679 0.950 . S
C705 C704 1.414 . S
C705 C706 1.374 . S
C706 H680 0.950 . S
C706 C702 1.385 . S
C706 C705 1.374 . S
C707 C704 1.499 . S
C707 C708 1.373 . S
C707 C709 1.389 . S
C708 H681 0.950 . S
C708 C694 1.377 . S
C708 C707 1.373 . S
C709 C693 1.377 . S
C709 C707 1.389 . S
C709 C710 1.524 . S
C710 C709 1.524 . S
C710 C711 1.397 . S
C710 C715 1.363 . S
C711 H682 0.950 . S
C711 C710 1.397 . S
C711 C712 1.334 . S
C712 H683 0.950 . S
C712 C711 1.334 . S
C712 C713 1.287 . S
C713 C712 1.287 . S
C713 C714 1.524 . S
C713 H716 0.999 . S
C714 H684 0.950 . S
C714 C713 1.524 . S
C714 C715 1.415 . S
C715 H685 0.950 . S
C715 C710 1.363 . S
C715 C714 1.415 . S
H716 C713 0.999 . S
H717 C698 0.913 . S
H718 C736 0.951 . S
H719 C738 0.951 . S
H720 C740 0.950 . S
H721 C741 0.950 . S
H722 C743 0.950 . S
H723 C746 0.950 . S
H724 C747 0.950 . S
H725 C749 0.950 . S
H726 C750 0.950 . S
H727 C751 0.951 . S
H728 C753 0.951 . S
H729 C755 0.950 . S
H730 C756 0.950 . S
H731 C758 0.950 . S
H732 C761 0.950 . S
H733 C762 0.950 . S
H734 C764 0.950 . S
H735 C765 0.950 . S
C736 H718 0.951 . S
C736 C737 1.366 . S
C736 C738 1.388 . S
C737 C736 1.366 . S
C737 C741 1.385 . S
C738 H719 0.951 . S
C738 C736 1.388 . S
C738 C739 1.366 . S
C739 C738 1.366 . S
C739 C740 1.414 . S
C739 C742 1.499 . S
C740 H720 0.950 . S
C740 C739 1.414 . S
C740 C741 1.374 . S
C741 H721 0.950 . S
C741 C737 1.385 . S
C741 C740 1.374 . S
C742 C739 1.499 . S
C742 C743 1.373 . S
C742 C744 1.389 . S
C743 H722 0.950 . S
C743 C742 1.373 . S
C743 C759 1.377 . S
C744 C742 1.389 . S
C744 C745 1.524 . S
C744 C758 1.377 . S
C745 C744 1.524 . S
C745 C746 1.397 . S
C745 C750 1.363 . S
C746 H723 0.950 . S
C746 C745 1.397 . S
C746 C747 1.334 . S
C747 H724 0.950 . S
C747 C746 1.334 . S
C747 C748 1.287 . S
C748 C747 1.287 . S
C748 C749 1.524 . S
C748 H767 0.913 . S
C749 H725 0.950 . S
C749 C748 1.524 . S
C749 C750 1.415 . S
C750 H726 0.950 . S
C750 C745 1.363 . S
C750 C749 1.415 . S
C751 H727 0.951 . S
C751 C752 1.366 . S
C751 C753 1.388 . S
C752 C751 1.366 . S
C752 C756 1.385 . S
C753 H728 0.951 . S
C753 C751 1.388 . S
C753 C754 1.366 . S
C754 C753 1.366 . S
C754 C755 1.414 . S
C754 C757 1.499 . S
C755 H729 0.950 . S
C755 C754 1.414 . S
C755 C756 1.374 . S
C756 H730 0.950 . S
C756 C752 1.385 . S
C756 C755 1.374 . S
C757 C754 1.499 . S
C757 C758 1.373 . S
C757 C759 1.389 . S
C758 H731 0.950 . S
C758 C744 1.377 . S
C758 C757 1.373 . S
C759 C743 1.377 . S
C759 C757 1.389 . S
C759 C760 1.524 . S
C760 C759 1.524 . S
C760 C761 1.397 . S
C760 C765 1.363 . S
C761 H732 0.950 . S
C761 C760 1.397 . S
C761 C762 1.334 . S
C762 H733 0.950 . S
C762 C761 1.334 . S
C762 C763 1.287 . S
C763 C762 1.287 . S
C763 C764 1.524 . S
C763 H766 0.999 . S
C764 H734 0.950 . S
C764 C763 1.524 . S
C764 C765 1.415 . S
C765 H735 0.950 . S
C765 C760 1.363 . S
C765 C764 1.415 . S
H766 C763 0.999 . S
H767 C748 0.913 . S
H768 C786 0.951 . S
H769 C788 0.951 . S
H770 C790 0.950 . S
H771 C791 0.950 . S
H772 C793 0.950 . S
H773 C796 0.950 . S
H774 C797 0.950 . S
H775 C799 0.950 . S
H776 C800 0.950 . S
H777 C801 0.951 . S
H778 C803 0.951 . S
H779 C805 0.950 . S
H780 C806 0.950 . S
H781 C808 0.950 . S
H782 C811 0.950 . S
H783 C812 0.950 . S
H784 C814 0.950 . S
H785 C815 0.950 . S
C786 H768 0.951 . S
C786 C787 1.366 . S
C786 C788 1.388 . S
C787 C786 1.366 . S
C787 C791 1.385 . S
C788 H769 0.951 . S
C788 C786 1.388 . S
C788 C789 1.366 . S
C789 C788 1.366 . S
C789 C790 1.414 . S
C789 C792 1.499 . S
C790 H770 0.950 . S
C790 C789 1.414 . S
C790 C791 1.374 . S
C791 H771 0.950 . S
C791 C787 1.385 . S
C791 C790 1.374 . S
C792 C789 1.499 . S
C792 C793 1.373 . S
C792 C794 1.389 . S
C793 H772 0.950 . S
C793 C792 1.373 . S
C793 C809 1.377 . S
C794 C792 1.389 . S
C794 C795 1.524 . S
C794 C808 1.377 . S
C795 C794 1.524 . S
C795 C796 1.397 . S
C795 C800 1.363 . S
C796 H773 0.950 . S
C796 C795 1.397 . S
C796 C797 1.334 . S
C797 H774 0.950 . S
C797 C796 1.334 . S
C797 C798 1.287 . S
C798 C797 1.287 . S
C798 C799 1.524 . S
C798 H817 0.913 . S
C799 H775 0.950 . S
C799 C798 1.524 . S
C799 C800 1.415 . S
C800 H776 0.950 . S
C800 C795 1.363 . S
C800 C799 1.415 . S
C801 H777 0.951 . S
C801 C802 1.366 . S
C801 C803 1.388 . S
C802 C801 1.366 . S
C802 C806 1.385 . S
C803 H778 0.951 . S
C803 C801 1.388 . S
C803 C804 1.366 . S
C804 C803 1.366 . S
C804 C805 1.414 . S
C804 C807 1.499 . S
C805 H779 0.950 . S
C805 C804 1.414 . S
C805 C806 1.374 . S
C806 H780 0.950 . S
C806 C802 1.385 . S
C806 C805 1.374 . S
C807 C804 1.499 . S
C807 C808 1.373 . S
C807 C809 1.389 . S
C808 H781 0.950 . S
C808 C794 1.377 . S
C808 C807 1.373 . S
C809 C793 1.377 . S
C809 C807 1.389 . S
C809 C810 1.524 . S
C810 C809 1.524 . S
C810 C811 1.397 . S
C810 C815 1.363 . S
C811 H782 0.950 . S
C811 C810 1.397 . S
C811 C812 1.334 . S
C812 H783 0.950 . S
C812 C811 1.334 . S
C812 C813 1.287 . S
C813 C812 1.287 . S
C813 C814 1.524 . S
C813 H816 0.999 . S
C814 H784 0.950 . S
C814 C813 1.524 . S
C814 C815 1.415 . S
C815 H785 0.950 . S
C815 C810 1.363 . S
C815 C814 1.415 . S
H816 C813 0.999 . S
H817 C798 0.913 . S
H818 C836 0.951 . S
H819 C838 0.951 . S
H820 C840 0.950 . S
H821 C841 0.950 . S
H822 C843 0.950 . S
H823 C846 0.950 . S
H824 C847 0.950 . S
H825 C849 0.950 . S
H826 C850 0.950 . S
H827 C851 0.951 . S
H828 C853 0.951 . S
H829 C855 0.950 . S
H830 C856 0.950 . S
H831 C858 0.950 . S
H832 C861 0.950 . S
H833 C862 0.950 . S
H834 C864 0.950 . S
H835 C865 0.950 . S
C836 H818 0.951 . S
C836 C837 1.366 . S
C836 C838 1.388 . S
C837 C836 1.366 . S
C837 C841 1.385 . S
C838 H819 0.951 . S
C838 C836 1.388 . S
C838 C839 1.366 . S
C839 C838 1.366 . S
C839 C840 1.414 . S
C839 C842 1.499 . S
C840 H820 0.950 . S
C840 C839 1.414 . S
C840 C841 1.374 . S
C841 H821 0.950 . S
C841 C837 1.385 . S
C841 C840 1.374 . S
C842 C839 1.499 . S
C842 C843 1.373 . S
C842 C844 1.389 . S
C843 H822 0.950 . S
C843 C842 1.373 . S
C843 C859 1.377 . S
C844 C842 1.389 . S
C844 C845 1.524 . S
C844 C858 1.377 . S
C845 C844 1.524 . S
C845 C846 1.397 . S
C845 C850 1.363 . S
C846 H823 0.950 . S
C846 C845 1.397 . S
C846 C847 1.334 . S
C847 H824 0.950 . S
C847 C846 1.334 . S
C847 C848 1.287 . S
C848 C847 1.287 . S
C848 C849 1.524 . S
C848 H867 0.913 . S
C849 H825 0.950 . S
C849 C848 1.524 . S
C849 C850 1.415 . S
C850 H826 0.950 . S
C850 C845 1.363 . S
C850 C849 1.415 . S
C851 H827 0.951 . S
C851 C852 1.366 . S
C851 C853 1.388 . S
C852 C851 1.366 . S
C852 C856 1.385 . S
C853 H828 0.951 . S
C853 C851 1.388 . S
C853 C854 1.366 . S
C854 C853 1.366 . S
C854 C855 1.414 . S
C854 C857 1.499 . S
C855 H829 0.950 . S
C855 C854 1.414 . S
C855 C856 1.374 . S
C856 H830 0.950 . S
C856 C852 1.385 . S
C856 C855 1.374 . S
C857 C854 1.499 . S
C857 C858 1.373 . S
C857 C859 1.389 . S
C858 H831 0.950 . S
C858 C844 1.377 . S
C858 C857 1.373 . S
C859 C843 1.377 . S
C859 C857 1.389 . S
C859 C860 1.524 . S
C860 C859 1.524 . S
C860 C861 1.397 . S
C860 C865 1.363 . S
C861 H832 0.950 . S
C861 C860 1.397 . S
C861 C862 1.334 . S
C862 H833 0.950 . S
C862 C861 1.334 . S
C862 C863 1.287 . S
C863 C862 1.287 . S
C863 C864 1.524 . S
C863 H866 0.999 . S
C864 H834 0.950 . S
C864 C863 1.524 . S
C864 C865 1.415 . S
C865 H835 0.950 . S
C865 C860 1.363 . S
C865 C864 1.415 . S
H866 C863 0.999 . S
H867 C848 0.913 . S
H868 C886 0.951 . S
H869 C888 0.951 . S
H870 C890 0.950 . S
H871 C891 0.950 . S
H872 C893 0.950 . S
H873 C896 0.950 . S
H874 C897 0.950 . S
H875 C899 0.950 . S
H876 C900 0.950 . S
H877 C901 0.951 . S
H878 C903 0.951 . S
H879 C905 0.950 . S
H880 C906 0.950 . S
H881 C908 0.950 . S
H882 C911 0.950 . S
H883 C912 0.950 . S
H884 C914 0.950 . S
H885 C915 0.950 . S
C886 H868 0.951 . S
C886 C887 1.366 . S
C886 C888 1.388 . S
C887 C886 1.366 . S
C887 C891 1.385 . S
C888 H869 0.951 . S
C888 C886 1.388 . S
C888 C889 1.366 . S
C889 C888 1.366 . S
C889 C890 1.414 . S
C889 C892 1.499 . S
C890 H870 0.950 . S
C890 C889 1.414 . S
C890 C891 1.374 . S
C891 H871 0.950 . S
C891 C887 1.385 . S
C891 C890 1.374 . S
C892 C889 1.499 . S
C892 C893 1.373 . S
C892 C894 1.389 . S
C893 H872 0.950 . S
C893 C892 1.373 . S
C893 C909 1.377 . S
C894 C892 1.389 . S
C894 C895 1.524 . S
C894 C908 1.377 . S
C895 C894 1.524 . S
C895 C896 1.397 . S
C895 C900 1.363 . S
C896 H873 0.950 . S
C896 C895 1.397 . S
C896 C897 1.334 . S
C897 H874 0.950 . S
C897 C896 1.334 . S
C897 C898 1.287 . S
C898 C897 1.287 . S
C898 C899 1.524 . S
C898 H917 0.913 . S
C899 H875 0.950 . S
C899 C898 1.524 . S
C899 C900 1.415 . S
C900 H876 0.950 . S
C900 C895 1.363 . S
C900 C899 1.415 . S
C901 H877 0.951 . S
C901 C902 1.366 . S
C901 C903 1.388 . S
C902 C901 1.366 . S
C902 C906 1.385 . S
C903 H878 0.951 . S
C903 C901 1.388 . S
C903 C904 1.366 . S
C904 C903 1.366 . S
C904 C905 1.414 . S
C904 C907 1.499 . S
C905 H879 0.950 . S
C905 C904 1.414 . S
C905 C906 1.374 . S
C906 H880 0.950 . S
C906 C902 1.385 . S
C906 C905 1.374 . S
C907 C904 1.499 . S
C907 C908 1.373 . S
C907 C909 1.389 . S
C908 H881 0.950 . S
C908 C894 1.377 . S
C908 C907 1.373 . S
C909 C893 1.377 . S
C909 C907 1.389 . S
C909 C910 1.524 . S
C910 C909 1.524 . S
C910 C911 1.397 . S
C910 C915 1.363 . S
C911 H882 0.950 . S
C911 C910 1.397 . S
C911 C912 1.334 . S
C912 H883 0.950 . S
C912 C911 1.334 . S
C912 C913 1.287 . S
C913 C912 1.287 . S
C913 C914 1.524 . S
C913 H916 0.999 . S
C914 H884 0.950 . S
C914 C913 1.524 . S
C914 C915 1.415 . S
C915 H885 0.950 . S
C915 C910 1.363 . S
C915 C914 1.415 . S
H916 C913 0.999 . S
H917 C898 0.913 . S
H918 C936 0.951 . S
H919 C938 0.951 . S
H920 C940 0.950 . S
H921 C941 0.950 . S
H922 C943 0.950 . S
H923 C946 0.950 . S
H924 C947 0.950 . S
H925 C949 0.950 . S
H926 C950 0.950 . S
H927 C951 0.951 . S
H928 C953 0.951 . S
H929 C955 0.950 . S
H930 C956 0.950 . S
H931 C958 0.950 . S
H932 C961 0.950 . S
H933 C962 0.950 . S
H934 C964 0.950 . S
H935 C965 0.950 . S
C936 H918 0.951 . S
C936 C937 1.366 . S
C936 C938 1.388 . S
C937 C936 1.366 . S
C937 C941 1.385 . S
C938 H919 0.951 . S
C938 C936 1.388 . S
C938 C939 1.366 . S
C939 C938 1.366 . S
C939 C940 1.414 . S
C939 C942 1.499 . S
C940 H920 0.950 . S
C940 C939 1.414 . S
C940 C941 1.374 . S
C941 H921 0.950 . S
C941 C937 1.385 . S
C941 C940 1.374 . S
C942 C939 1.499 . S
C942 C943 1.373 . S
C942 C944 1.389 . S
C943 H922 0.950 . S
C943 C942 1.373 . S
C943 C959 1.377 . S
C944 C942 1.389 . S
C944 C945 1.524 . S
C944 C958 1.377 . S
C945 C944 1.524 . S
C945 C946 1.397 . S
C945 C950 1.363 . S
C946 H923 0.950 . S
C946 C945 1.397 . S
C946 C947 1.334 . S
C947 H924 0.950 . S
C947 C946 1.334 . S
C947 C948 1.287 . S
C948 C947 1.287 . S
C948 C949 1.524 . S
C948 H967 0.913 . S
C949 H925 0.950 . S
C949 C948 1.524 . S
C949 C950 1.415 . S
C950 H926 0.950 . S
C950 C945 1.363 . S
C950 C949 1.415 . S
C951 H927 0.951 . S
C951 C952 1.366 . S
C951 C953 1.388 . S
C952 C951 1.366 . S
C952 C956 1.385 . S
C953 H928 0.951 . S
C953 C951 1.388 . S
C953 C954 1.366 . S
C954 C953 1.366 . S
C954 C955 1.414 . S
C954 C957 1.499 . S
C955 H929 0.950 . S
C955 C954 1.414 . S
C955 C956 1.374 . S
C956 H930 0.950 . S
C956 C952 1.385 . S
C956 C955 1.374 . S
C957 C954 1.499 . S
C957 C958 1.373 . S
C957 C959 1.389 . S
C958 H931 0.950 . S
C958 C944 1.377 . S
C958 C957 1.373 . S
C959 C943 1.377 . S
C959 C957 1.389 . S
C959 C960 1.524 . S
C960 C959 1.524 . S
C960 C961 1.397 . S
C960 C965 1.363 . S
C961 H932 0.950 . S
C961 C960 1.397 . S
C961 C962 1.334 . S
C962 H933 0.950 . S
C962 C961 1.334 . S
C962 C963 1.287 . S
C963 C962 1.287 . S
C963 C964 1.524 . S
C963 H966 0.999 . S
C964 H934 0.950 . S
C964 C963 1.524 . S
C964 C965 1.415 . S
C965 H935 0.950 . S
C965 C960 1.363 . S
C965 C964 1.415 . S
H966 C963 0.999 . S
H967 C948 0.913 . S
H968 C986 0.951 . S
H969 C988 0.951 . S
H970 C990 0.950 . S
H971 C991 0.950 . S
H972 C993 0.950 . S
H973 C996 0.950 . S
H974 C997 0.950 . S
H975 C999 0.950 . S
H976 C1000 0.950 . S
H977 C1001 0.951 . S
H978 C1003 0.951 . S
H979 C1005 0.950 . S
H980 C1006 0.950 . S
H981 C1008 0.950 . S
H982 C1011 0.950 . S
H983 C1012 0.950 . S
H984 C1014 0.950 . S
H985 C1015 0.950 . S
C986 H968 0.951 . S
C986 C987 1.366 . S
C986 C988 1.388 . S
C987 C986 1.366 . S
C987 C991 1.385 . S
C988 H969 0.951 . S
C988 C986 1.388 . S
C988 C989 1.366 . S
C989 C988 1.366 . S
C989 C990 1.414 . S
C989 C992 1.499 . S
C990 H970 0.950 . S
C990 C989 1.414 . S
C990 C991 1.374 . S
C991 H971 0.950 . S
C991 C987 1.385 . S
C991 C990 1.374 . S
C992 C989 1.499 . S
C992 C993 1.373 . S
C992 C994 1.389 . S
C993 H972 0.950 . S
C993 C992 1.373 . S
C993 C1009 1.377 . S
C994 C992 1.389 . S
C994 C995 1.524 . S
C994 C1008 1.377 . S
C995 C994 1.524 . S
C995 C996 1.397 . S
C995 C1000 1.363 . S
C996 H973 0.950 . S
C996 C995 1.397 . S
C996 C997 1.334 . S
C997 H974 0.950 . S
C997 C996 1.334 . S
C997 C998 1.287 . S
C998 C997 1.287 . S
C998 C999 1.524 . S
C998 H1017 0.913 . S
C999 H975 0.950 . S
C999 C998 1.524 . S
C999 C1000 1.415 . S
C1000 H976 0.950 . S
C1000 C995 1.363 . S
C1000 C999 1.415 . S
C1001 H977 0.951 . S
C1001 C1002 1.366 . S
C1001 C1003 1.388 . S
C1002 C1001 1.366 . S
C1002 C1006 1.385 . S
C1003 H978 0.951 . S
C1003 C1001 1.388 . S
C1003 C1004 1.366 . S
C1004 C1003 1.366 . S
C1004 C1005 1.414 . S
C1004 C1007 1.499 . S
C1005 H979 0.950 . S
C1005 C1004 1.414 . S
C1005 C1006 1.374 . S
C1006 H980 0.950 . S
C1006 C1002 1.385 . S
C1006 C1005 1.374 . S
C1007 C1004 1.499 . S
C1007 C1008 1.373 . S
C1007 C1009 1.389 . S
C1008 H981 0.950 . S
C1008 C994 1.377 . S
C1008 C1007 1.373 . S
C1009 C993 1.377 . S
C1009 C1007 1.389 . S
C1009 C1010 1.524 . S
C1010 C1009 1.524 . S
C1010 C1011 1.397 . S
C1010 C1015 1.363 . S
C1011 H982 0.950 . S
C1011 C1010 1.397 . S
C1011 C1012 1.334 . S
C1012 H983 0.950 . S
C1012 C1011 1.334 . S
C1012 C1013 1.287 . S
C1013 C1012 1.287 . S
C1013 C1014 1.524 . S
C1013 H1016 0.999 . S
C1014 H984 0.950 . S
C1014 C1013 1.524 . S
C1014 C1015 1.415 . S
C1015 H985 0.950 . S
C1015 C1010 1.363 . S
C1015 C1014 1.415 . S
H1016 C1013 0.999 . S
H1017 C998 0.913 . S
H1018 C1036 0.951 . S
H1019 C1038 0.951 . S
H1020 C1040 0.950 . S
H1021 C1041 0.950 . S
H1022 C1043 0.950 . S
H1023 C1046 0.950 . S
H1024 C1047 0.950 . S
H1025 C1049 0.950 . S
H1026 C1050 0.950 . S
H1027 C1051 0.951 . S
H1028 C1053 0.951 . S
H1029 C1055 0.950 . S
H1030 C1056 0.950 . S
H1031 C1058 0.950 . S
H1032 C1061 0.950 . S
H1033 C1062 0.950 . S
H1034 C1064 0.950 . S
H1035 C1065 0.950 . S
C1036 H1018 0.951 . S
C1036 C1037 1.366 . S
C1036 C1038 1.388 . S
C1037 C1036 1.366 . S
C1037 C1041 1.385 . S
C1038 H1019 0.951 . S
C1038 C1036 1.388 . S
C1038 C1039 1.366 . S
C1039 C1038 1.366 . S
C1039 C1040 1.414 . S
C1039 C1042 1.499 . S
C1040 H1020 0.950 . S
C1040 C1039 1.414 . S
C1040 C1041 1.374 . S
C1041 H1021 0.950 . S
C1041 C1037 1.385 . S
C1041 C1040 1.374 . S
C1042 C1039 1.499 . S
C1042 C1043 1.373 . S
C1042 C1044 1.389 . S
C1043 H1022 0.950 . S
C1043 C1042 1.373 . S
C1043 C1059 1.377 . S
C1044 C1042 1.389 . S
C1044 C1045 1.524 . S
C1044 C1058 1.377 . S
C1045 C1044 1.524 . S
C1045 C1046 1.397 . S
C1045 C1050 1.363 . S
C1046 H1023 0.950 . S
C1046 C1045 1.397 . S
C1046 C1047 1.334 . S
C1047 H1024 0.950 . S
C1047 C1046 1.334 . S
C1047 C1048 1.287 . S
C1048 C1047 1.287 . S
C1048 C1049 1.524 . S
C1048 H1067 0.913 . S
C1049 H1025 0.950 . S
C1049 C1048 1.524 . S
C1049 C1050 1.415 . S
C1050 H1026 0.950 . S
C1050 C1045 1.363 . S
C1050 C1049 1.415 . S
C1051 H1027 0.951 . S
C1051 C1052 1.366 . S
C1051 C1053 1.388 . S
C1052 C1051 1.366 . S
C1052 C1056 1.385 . S
C1053 H1028 0.951 . S
C1053 C1051 1.388 . S
C1053 C1054 1.366 . S
C1054 C1053 1.366 . S
C1054 C1055 1.414 . S
C1054 C1057 1.499 . S
C1055 H1029 0.950 . S
C1055 C1054 1.414 . S
C1055 C1056 1.374 . S
C1056 H1030 0.950 . S
C1056 C1052 1.385 . S
C1056 C1055 1.374 . S
C1057 C1054 1.499 . S
C1057 C1058 1.373 . S
C1057 C1059 1.389 . S
C1058 H1031 0.950 . S
C1058 C1044 1.377 . S
C1058 C1057 1.373 . S
C1059 C1043 1.377 . S
C1059 C1057 1.389 . S
C1059 C1060 1.524 . S
C1060 C1059 1.524 . S
C1060 C1061 1.397 . S
C1060 C1065 1.363 . S
C1061 H1032 0.950 . S
C1061 C1060 1.397 . S
C1061 C1062 1.334 . S
C1062 H1033 0.950 . S
C1062 C1061 1.334 . S
C1062 C1063 1.287 . S
C1063 C1062 1.287 . S
C1063 C1064 1.524 . S
C1063 H1066 0.999 . S
C1064 H1034 0.950 . S
C1064 C1063 1.524 . S
C1064 C1065 1.415 . S
C1065 H1035 0.950 . S
C1065 C1060 1.363 . S
C1065 C1064 1.415 . S
H1066 C1063 0.999 . S
H1067 C1048 0.913 . S
H1068 C1086 0.951 . S
H1069 C1088 0.951 . S
H1070 C1090 0.950 . S
H1071 C1091 0.950 . S
H1072 C1093 0.950 . S
H1073 C1096 0.950 . S
H1074 C1097 0.950 . S
H1075 C1099 0.950 . S
H1076 C1100 0.950 . S
H1077 C1101 0.951 . S
H1078 C1103 0.951 . S
H1079 C1105 0.950 . S
H1080 C1106 0.950 . S
H1081 C1108 0.950 . S
H1082 C1111 0.950 . S
H1083 C1112 0.950 . S
H1084 C1114 0.950 . S
H1085 C1115 0.937 1_554 S
C1086 H1068 0.951 . S
C1086 C1087 1.366 . S
C1086 C1088 1.388 . S
C1087 C1086 1.366 . S
C1087 C1091 1.385 . S
C1088 H1069 0.951 . S
C1088 C1086 1.388 . S
C1088 C1089 1.366 . S
C1089 C1088 1.366 . S
C1089 C1090 1.414 . S
C1089 C1092 1.499 . S
C1090 H1070 0.950 . S
C1090 C1089 1.414 . S
C1090 C1091 1.374 . S
C1091 H1071 0.950 . S
C1091 C1087 1.385 . S
C1091 C1090 1.374 . S
C1092 C1089 1.499 . S
C1092 C1093 1.373 . S
C1092 C1094 1.389 . S
C1093 H1072 0.950 . S
C1093 C1092 1.373 . S
C1093 C1109 1.377 . S
C1094 C1092 1.389 . S
C1094 C1095 1.524 . S
C1094 C1108 1.377 . S
C1095 C1094 1.524 . S
C1095 C1096 1.397 . S
C1095 C1100 1.363 . S
C1096 H1073 0.950 . S
C1096 C1095 1.397 . S
C1096 C1097 1.334 . S
C1097 H1074 0.950 . S
C1097 C1096 1.334 . S
C1097 C1098 1.287 . S
C1098 C1097 1.287 . S
C1098 C1099 1.524 . S
C1098 H1117 0.913 . S
C1099 H1075 0.950 . S
C1099 C1098 1.524 . S
C1099 C1100 1.415 . S
C1100 H1076 0.950 . S
C1100 C1095 1.363 . S
C1100 C1099 1.415 . S
C1101 H1077 0.951 . S
C1101 C1102 1.366 . S
C1101 C1103 1.388 . S
C1102 C1101 1.366 . S
C1102 C1106 1.385 . S
C1103 H1078 0.951 . S
C1103 C1101 1.388 . S
C1103 C1104 1.366 . S
C1104 C1103 1.366 . S
C1104 C1105 1.414 . S
C1104 C1107 1.499 . S
C1105 H1079 0.950 . S
C1105 C1104 1.414 . S
C1105 C1106 1.374 . S
C1106 H1080 0.950 . S
C1106 C1102 1.385 . S
C1106 C1105 1.374 . S
C1107 C1104 1.499 . S
C1107 C1108 1.373 . S
C1107 C1109 1.389 . S
C1108 H1081 0.950 . S
C1108 C1094 1.377 . S
C1108 C1107 1.373 . S
C1109 C1093 1.377 . S
C1109 C1107 1.389 . S
C1109 C1110 1.524 . S
C1110 C1109 1.524 . S
C1110 C1111 1.397 . S
C1110 C1115 1.311 1_554 S
C1111 H1082 0.950 . S
C1111 C1110 1.397 . S
C1111 C1112 1.334 1_554 S
C1112 H1083 0.950 . S
C1112 C1111 1.334 1_556 S
C1112 C1113 1.287 . S
C1113 C1112 1.287 . S
C1113 C1114 1.524 . S
C1113 H1116 0.999 . S
C1114 H1084 0.950 . S
C1114 C1113 1.524 . S
C1114 C1115 1.485 . S
C1115 H1085 0.937 1_556 S
C1115 C1110 1.311 1_556 S
C1115 C1114 1.485 . S
H1116 C1113 0.999 . S
H1117 C1098 0.913 . S
H1118 C1136 0.951 . S
H1119 C1138 0.951 1_455 S
H1120 C1140 0.950 . S
H1121 C1141 0.950 . S
H1122 C1143 0.950 . S
H1123 C1146 0.971 . S
H1124 C1147 0.950 1_655 S
H1125 C1149 0.950 . S
H1126 C1150 0.950 . S
H1127 C1151 0.951 . S
H1128 C1153 0.951 1_655 S
H1129 C1155 0.950 . S
H1130 C1156 0.950 . S
H1131 C1158 0.950 . S
H1132 C1161 0.971 . S
H1133 C1162 0.950 1_455 S
H1134 C1164 0.950 . S
H1135 C1165 0.950 . S
C1136 H1118 0.951 . S
C1136 C1137 1.366 . S
C1136 C1138 1.388 . S
C1137 C1136 1.366 . S
C1137 C1141 1.385 . S
C1138 H1119 0.951 1_655 S
C1138 C1136 1.388 . S
C1138 C1139 1.366 . S
C1139 C1138 1.366 . S
C1139 C1140 1.414 . S
C1139 C1142 1.499 . S
C1140 H1120 0.950 . S
C1140 C1139 1.414 . S
C1140 C1141 1.374 . S
C1141 H1121 0.950 . S
C1141 C1137 1.385 . S
C1141 C1140 1.374 . S
C1142 C1139 1.499 . S
C1142 C1143 1.373 . S
C1142 C1144 1.389 1_655 S
C1143 H1122 0.950 . S
C1143 C1142 1.373 . S
C1143 C1159 1.377 . S
C1144 C1142 1.389 1_455 S
C1144 C1145 1.524 . S
C1144 C1158 1.377 . S
C1145 C1144 1.524 . S
C1145 C1146 1.372 1_455 S
C1145 C1150 1.363 . S
C1146 H1123 0.971 . S
C1146 C1145 1.372 1_655 S
C1146 C1147 1.338 1_655 S
C1147 H1124 0.950 1_455 S
C1147 C1146 1.338 1_455 S
C1147 C1148 1.287 . S
C1148 C1147 1.287 . S
C1148 C1149 1.524 . S
C1148 H1167 0.913 . S
C1149 H1125 0.950 . S
C1149 C1148 1.524 . S
C1149 C1150 1.415 . S
C1150 H1126 0.950 . S
C1150 C1145 1.363 . S
C1150 C1149 1.415 . S
C1151 H1127 0.951 . S
C1151 C1152 1.366 . S
C1151 C1153 1.388 . S
C1152 C1151 1.366 . S
C1152 C1156 1.385 . S
C1153 H1128 0.951 1_455 S
C1153 C1151 1.388 . S
C1153 C1154 1.366 . S
C1154 C1153 1.366 . S
C1154 C1155 1.414 . S
C1154 C1157 1.499 . S
C1155 H1129 0.950 . S
C1155 C1154 1.414 . S
C1155 C1156 1.374 . S
C1156 H1130 0.950 . S
C1156 C1152 1.385 . S
C1156 C1155 1.374 . S
C1157 C1154 1.499 . S
C1157 C1158 1.373 . S
C1157 C1159 1.389 1_455 S
C1158 H1131 0.950 . S
C1158 C1144 1.377 . S
C1158 C1157 1.373 . S
C1159 C1143 1.377 . S
C1159 C1157 1.389 1_655 S
C1159 C1160 1.524 . S
C1160 C1159 1.524 . S
C1160 C1161 1.372 1_655 S
C1160 C1165 1.363 . S
C1161 H1132 0.971 . S
C1161 C1160 1.372 1_455 S
C1161 C1162 1.338 1_455 S
C1162 H1133 0.950 1_655 S
C1162 C1161 1.338 1_655 S
C1162 C1163 1.287 . S
C1163 C1162 1.287 . S
C1163 C1164 1.524 . S
C1163 H1166 0.999 . S
C1164 H1134 0.950 . S
C1164 C1163 1.524 . S
C1164 C1165 1.415 . S
C1165 H1135 0.950 . S
C1165 C1160 1.363 . S
C1165 C1164 1.415 . S
H1166 C1163 0.999 . S
H1167 C1148 0.913 . S
H1168 C1186 0.951 . S
H1169 C1188 0.951 . S
H1170 C1190 0.950 . S
H1171 C1191 0.950 . S
H1172 C1193 0.950 . S
H1173 C1196 0.950 . S
H1174 C1197 0.950 . S
H1175 C1199 0.950 . S
H1176 C1200 0.950 . S
H1177 C1201 0.951 . S
H1178 C1203 0.951 . S
H1179 C1205 0.950 . S
H1180 C1206 0.950 . S
H1181 C1208 0.950 . S
H1182 C1211 0.950 . S
H1183 C1212 0.950 . S
H1184 C1214 0.950 . S
H1185 C1215 0.950 . S
C1186 H1168 0.951 . S
C1186 C1187 1.366 . S
C1186 C1188 1.388 . S
C1187 C1186 1.366 . S
C1187 C1191 1.385 . S
C1188 H1169 0.951 . S
C1188 C1186 1.388 . S
C1188 C1189 1.366 . S
C1189 C1188 1.366 . S
C1189 C1190 1.414 . S
C1189 C1192 1.499 . S
C1190 H1170 0.950 . S
C1190 C1189 1.414 . S
C1190 C1191 1.374 . S
C1191 H1171 0.950 . S
C1191 C1187 1.385 . S
C1191 C1190 1.374 . S
C1192 C1189 1.499 . S
C1192 C1193 1.373 1_545 S
C1192 C1194 1.389 . S
C1193 H1172 0.950 . S
C1193 C1192 1.373 1_565 S
C1193 C1209 1.377 . S
C1194 C1192 1.389 . S
C1194 C1195 1.524 . S
C1194 C1208 1.377 . S
C1195 C1194 1.524 . S
C1195 C1196 1.397 . S
C1195 C1200 1.363 . S
C1196 H1173 0.950 . S
C1196 C1195 1.397 . S
C1196 C1197 1.334 . S
C1197 H1174 0.950 . S
C1197 C1196 1.334 . S
C1197 C1198 1.287 . S
C1198 C1197 1.287 . S
C1198 C1199 1.524 . S
C1198 H1217 0.913 . S
C1199 H1175 0.950 . S
C1199 C1198 1.524 . S
C1199 C1200 1.415 . S
C1200 H1176 0.950 . S
C1200 C1195 1.363 . S
C1200 C1199 1.415 . S
C1201 H1177 0.951 . S
C1201 C1202 1.366 . S
C1201 C1203 1.388 . S
C1202 C1201 1.366 . S
C1202 C1206 1.385 . S
C1203 H1178 0.951 . S
C1203 C1201 1.388 . S
C1203 C1204 1.366 . S
C1204 C1203 1.366 . S
C1204 C1205 1.414 . S
C1204 C1207 1.499 . S
C1205 H1179 0.950 . S
C1205 C1204 1.414 . S
C1205 C1206 1.374 . S
C1206 H1180 0.950 . S
C1206 C1202 1.385 . S
C1206 C1205 1.374 . S
C1207 C1204 1.499 . S
C1207 C1208 1.373 1_565 S
C1207 C1209 1.389 . S
C1208 H1181 0.950 . S
C1208 C1194 1.377 . S
C1208 C1207 1.373 1_545 S
C1209 C1193 1.377 . S
C1209 C1207 1.389 . S
C1209 C1210 1.524 . S
C1210 C1209 1.524 . S
C1210 C1211 1.397 . S
C1210 C1215 1.363 . S
C1211 H1182 0.950 . S
C1211 C1210 1.397 . S
C1211 C1212 1.334 . S
C1212 H1183 0.950 . S
C1212 C1211 1.334 . S
C1212 C1213 1.287 . S
C1213 C1212 1.287 . S
C1213 C1214 1.524 . S
C1213 H1216 0.999 . S
C1214 H1184 0.950 . S
C1214 C1213 1.524 . S
C1214 C1215 1.415 . S
C1215 H1185 0.950 . S
C1215 C1210 1.363 . S
C1215 C1214 1.415 . S
H1216 C1213 0.999 . S
H1217 C1198 0.913 . S
H1218 C1236 0.951 . S
H1219 C1238 0.951 . S
H1220 C1240 0.950 . S
H1221 C1241 0.950 . S
H1222 C1243 0.950 . S
H1223 C1246 0.950 . S
H1224 C1247 0.950 . S
H1225 C1249 0.950 . S
H1226 C1250 0.950 . S
H1227 C1251 0.951 . S
H1228 C1253 0.951 . S
H1229 C1255 0.950 . S
H1230 C1256 0.950 . S
H1231 C1258 0.950 . S
H1232 C1261 0.950 . S
H1233 C1262 0.950 . S
H1234 C1264 0.950 . S
H1235 C1265 0.950 . S
C1236 H1218 0.951 . S
C1236 C1237 1.366 . S
C1236 C1238 1.388 . S
C1237 C1236 1.366 . S
C1237 C1241 1.385 . S
C1238 H1219 0.951 . S
C1238 C1236 1.388 . S
C1238 C1239 1.366 . S
C1239 C1238 1.366 . S
C1239 C1240 1.414 . S
C1239 C1242 1.499 . S
C1240 H1220 0.950 . S
C1240 C1239 1.414 . S
C1240 C1241 1.374 . S
C1241 H1221 0.950 . S
C1241 C1237 1.385 . S
C1241 C1240 1.374 . S
C1242 C1239 1.499 . S
C1242 C1243 1.373 . S
C1242 C1244 1.389 . S
C1243 H1222 0.950 . S
C1243 C1242 1.373 . S
C1243 C1259 1.377 . S
C1244 C1242 1.389 . S
C1244 C1245 1.524 . S
C1244 C1258 1.377 . S
C1245 C1244 1.524 . S
C1245 C1246 1.397 . S
C1245 C1250 1.363 . S
C1246 H1223 0.950 . S
C1246 C1245 1.397 . S
C1246 C1247 1.334 . S
C1247 H1224 0.950 . S
C1247 C1246 1.334 . S
C1247 C1248 1.287 . S
C1248 C1247 1.287 . S
C1248 C1249 1.524 . S
C1248 H1267 0.913 . S
C1249 H1225 0.950 . S
C1249 C1248 1.524 . S
C1249 C1250 1.415 . S
C1250 H1226 0.950 . S
C1250 C1245 1.363 . S
C1250 C1249 1.415 . S
C1251 H1227 0.951 . S
C1251 C1252 1.366 . S
C1251 C1253 1.388 . S
C1252 C1251 1.366 . S
C1252 C1256 1.385 . S
C1253 H1228 0.951 . S
C1253 C1251 1.388 . S
C1253 C1254 1.366 . S
C1254 C1253 1.366 . S
C1254 C1255 1.414 . S
C1254 C1257 1.499 . S
C1255 H1229 0.950 . S
C1255 C1254 1.414 . S
C1255 C1256 1.374 . S
C1256 H1230 0.950 . S
C1256 C1252 1.385 . S
C1256 C1255 1.374 . S
C1257 C1254 1.499 . S
C1257 C1258 1.373 . S
C1257 C1259 1.389 . S
C1258 H1231 0.950 . S
C1258 C1244 1.377 . S
C1258 C1257 1.373 . S
C1259 C1243 1.377 . S
C1259 C1257 1.389 . S
C1259 C1260 1.524 . S
C1260 C1259 1.524 . S
C1260 C1261 1.397 . S
C1260 C1265 1.363 . S
C1261 H1232 0.950 . S
C1261 C1260 1.397 . S
C1261 C1262 1.334 . S
C1262 H1233 0.950 . S
C1262 C1261 1.334 . S
C1262 C1263 1.287 . S
C1263 C1262 1.287 . S
C1263 C1264 1.524 . S
C1263 H1266 0.999 . S
C1264 H1234 0.950 . S
C1264 C1263 1.524 . S
C1264 C1265 1.415 . S
C1265 H1235 0.950 . S
C1265 C1260 1.363 . S
C1265 C1264 1.415 . S
H1266 C1263 0.999 . S
H1267 C1248 0.913 . S
H1268 C1286 0.951 . S
H1269 C1288 0.951 . S
H1270 C1290 0.923 1_655 S
H1271 C1291 0.950 . S
H1272 C1293 0.950 . S
H1273 C1296 0.950 . S
H1274 C1297 0.950 . S
H1275 C1299 0.950 . S
H1276 C1300 0.950 . S
H1277 C1301 0.951 . S
H1278 C1303 0.951 . S
H1279 C1305 0.923 1_455 S
H1280 C1306 0.950 . S
H1281 C1308 0.950 . S
H1282 C1311 0.950 . S
H1283 C1312 0.950 . S
H1284 C1314 0.950 . S
H1285 C1315 0.950 . S
C1286 H1268 0.951 . S
C1286 C1287 1.366 . S
C1286 C1288 1.388 . S
C1287 C1286 1.366 . S
C1287 C1291 1.385 . S
C1288 H1269 0.951 . S
C1288 C1286 1.388 . S
C1288 C1289 1.366 . S
C1289 C1288 1.366 . S
C1289 C1290 1.414 . S
C1289 C1292 1.499 . S
C1290 H1270 0.923 1_455 S
C1290 C1289 1.414 . S
C1290 C1291 1.374 . S
C1291 H1271 0.950 . S
C1291 C1287 1.385 . S
C1291 C1290 1.374 . S
C1292 C1289 1.499 . S
C1292 C1293 1.373 1_455 S
C1292 C1294 1.389 . S
C1293 H1272 0.950 . S
C1293 C1292 1.373 1_655 S
C1293 C1309 1.377 . S
C1294 C1292 1.389 . S
C1294 C1295 1.524 . S
C1294 C1308 1.377 . S
C1295 C1294 1.524 . S
C1295 C1296 1.397 . S
C1295 C1300 1.363 . S
C1296 H1273 0.950 . S
C1296 C1295 1.397 . S
C1296 C1297 1.334 . S
C1297 H1274 0.950 . S
C1297 C1296 1.334 . S
C1297 C1298 1.287 . S
C1298 C1297 1.287 . S
C1298 C1299 1.524 . S
C1298 H1317 0.913 . S
C1299 H1275 0.950 . S
C1299 C1298 1.524 . S
C1299 C1300 1.415 . S
C1300 H1276 0.950 . S
C1300 C1295 1.363 . S
C1300 C1299 1.415 . S
C1301 H1277 0.951 . S
C1301 C1302 1.366 . S
C1301 C1303 1.388 . S
C1302 C1301 1.366 . S
C1302 C1306 1.385 . S
C1303 H1278 0.951 . S
C1303 C1301 1.388 . S
C1303 C1304 1.366 . S
C1304 C1303 1.366 . S
C1304 C1305 1.414 . S
C1304 C1307 1.499 . S
C1305 H1279 0.923 1_655 S
C1305 C1304 1.414 . S
C1305 C1306 1.374 . S
C1306 H1280 0.950 . S
C1306 C1302 1.385 . S
C1306 C1305 1.374 . S
C1307 C1304 1.499 . S
C1307 C1308 1.373 1_655 S
C1307 C1309 1.389 . S
C1308 H1281 0.950 . S
C1308 C1294 1.377 . S
C1308 C1307 1.373 1_455 S
C1309 C1293 1.377 . S
C1309 C1307 1.389 . S
C1309 C1310 1.524 . S
C1310 C1309 1.524 . S
C1310 C1311 1.397 . S
C1310 C1315 1.363 . S
C1311 H1282 0.950 . S
C1311 C1310 1.397 . S
C1311 C1312 1.334 1_556 S
C1312 H1283 0.950 . S
C1312 C1311 1.334 1_554 S
C1312 C1313 1.287 . S
C1313 C1312 1.287 . S
C1313 C1314 1.524 1_554 S
C1313 H1316 0.999 . S
C1314 H1284 0.950 . S
C1314 C1313 1.524 1_556 S
C1314 C1315 1.415 . S
C1315 H1285 0.950 . S
C1315 C1310 1.363 . S
C1315 C1314 1.415 . S
H1316 C1313 0.999 . S
H1317 C1298 0.913 . S
H1318 C1336 0.951 . S
H1319 C1338 0.951 . S
H1320 C1340 0.950 1_545 S
H1321 C1341 0.950 . S
H1322 C1343 0.950 . S
H1323 C1346 0.950 . S
H1324 C1347 0.950 . S
H1325 C1349 0.950 . S
H1326 C1350 0.950 . S
H1327 C1351 0.951 . S
H1328 C1353 0.951 . S
H1329 C1355 0.950 1_565 S
H1330 C1356 0.950 . S
H1331 C1358 0.950 . S
H1332 C1361 0.950 . S
H1333 C1362 0.950 . S
H1334 C1364 0.950 . S
H1335 C1365 0.950 . S
C1336 H1318 0.951 . S
C1336 C1337 1.366 . S
C1336 C1338 1.388 . S
C1337 C1336 1.366 . S
C1337 C1341 1.385 . S
C1338 H1319 0.951 . S
C1338 C1336 1.388 . S
C1338 C1339 1.366 . S
C1339 C1338 1.366 . S
C1339 C1340 1.414 . S
C1339 C1342 1.499 . S
C1340 H1320 0.950 1_565 S
C1340 C1339 1.414 . S
C1340 C1341 1.374 . S
C1341 H1321 0.950 . S
C1341 C1337 1.385 . S
C1341 C1340 1.374 . S
C1342 C1339 1.499 . S
C1342 C1343 1.373 1_565 S
C1342 C1344 1.389 . S
C1343 H1322 0.950 . S
C1343 C1342 1.373 1_545 S
C1343 C1359 1.377 . S
C1344 C1342 1.389 . S
C1344 C1345 1.524 . S
C1344 C1358 1.377 . S
C1345 C1344 1.524 . S
C1345 C1346 1.397 . S
C1345 C1350 1.363 . S
C1346 H1323 0.950 . S
C1346 C1345 1.397 . S
C1346 C1347 1.334 . S
C1347 H1324 0.950 . S
C1347 C1346 1.334 . S
C1347 C1348 1.287 . S
C1348 C1347 1.287 . S
C1348 C1349 1.524 . S
C1348 H1367 0.913 . S
C1349 H1325 0.950 . S
C1349 C1348 1.524 . S
C1349 C1350 1.415 . S
C1350 H1326 0.950 . S
C1350 C1345 1.363 . S
C1350 C1349 1.415 . S
C1351 H1327 0.951 . S
C1351 C1352 1.366 . S
C1351 C1353 1.388 . S
C1352 C1351 1.366 . S
C1352 C1356 1.385 . S
C1353 H1328 0.951 . S
C1353 C1351 1.388 . S
C1353 C1354 1.366 . S
C1354 C1353 1.366 . S
C1354 C1355 1.414 . S
C1354 C1357 1.499 . S
C1355 H1329 0.950 1_545 S
C1355 C1354 1.414 . S
C1355 C1356 1.374 . S
C1356 H1330 0.950 . S
C1356 C1352 1.385 . S
C1356 C1355 1.374 . S
C1357 C1354 1.499 . S
C1357 C1358 1.373 1_545 S
C1357 C1359 1.389 . S
C1358 H1331 0.950 . S
C1358 C1344 1.377 . S
C1358 C1357 1.373 1_565 S
C1359 C1343 1.377 . S
C1359 C1357 1.389 . S
C1359 C1360 1.524 . S
C1360 C1359 1.524 . S
C1360 C1361 1.397 . S
C1360 C1365 1.363 . S
C1361 H1332 0.950 . S
C1361 C1360 1.397 . S
C1361 C1362 1.334 . S
C1362 H1333 0.950 . S
C1362 C1361 1.334 . S
C1362 C1363 1.287 . S
C1363 C1362 1.287 . S
C1363 C1364 1.524 . S
C1363 H1366 0.999 . S
C1364 H1334 0.950 . S
C1364 C1363 1.524 . S
C1364 C1365 1.415 . S
C1365 H1335 0.950 . S
C1365 C1360 1.363 . S
C1365 C1364 1.415 . S
H1366 C1363 0.999 . S
H1367 C1348 0.913 . S
C187 C105 1.152 . S
C202 C7 1.152 . S
C237 C21 1.152 . S
C252 C119 1.152 . S
C287 C35 1.152 . S
C302 C133 1.153 . S
C337 C49 1.152 . S
C352 C147 1.152 . S
C387 C161 1.152 . S
C402 C63 1.152 . S
C437 C91 1.153 . S
C452 C77 1.153 . S
C487 C148 1.221 . S
C502 C8 1.221 . S
C537 C22 1.221 . S
C552 C162 1.220 . S
C587 C36 1.222 . S
C602 C92 1.221 . S
C637 C106 1.221 . S
C652 C50 1.222 . S
C687 C120 1.221 . S
C702 C64 1.220 . S
C737 C134 1.222 . S
C752 C78 1.221 . S
C787 C11 1.615 . S
C802 C123 1.615 . S
C837 C25 1.615 . S
C852 C137 1.615 . S
C887 C151 1.615 . S
C902 C39 1.615 . S
C937 C53 1.615 . S
C952 C165 1.615 . S
C987 C95 1.615 . S
C1002 C67 1.615 . S
C1037 C109 1.615 . S
C1052 C81 1.615 . S
C1087 C55 1.084 . S
C1102 C13 1.085 . S
C1137 C69 1.085 . S
C1152 C27 1.084 . S
C1187 C41 1.085 . S
C1202 C83 1.085 . S
C1237 C97 1.084 . S
C1252 C139 1.084 . S
C1287 C111 1.084 . S
C1302 C153 1.086 . S
C1337 C167 1.084 . S
C1352 C125 1.085 . S
