# Generated by pormake.
# Topology smu, (6)-cn, num edge types: 1
# Building blocks:
#     Node 0, Type 0, BuildingBlock: MIFKUJ_clean_sbu_0, # of connection points: 6
#     Node 1, Type 0, BuildingBlock: MIFKUJ_clean_sbu_0, # of connection points: 6
#     Node 2, Type 0, BuildingBlock: MIFKUJ_clean_sbu_0, # of connection points: 6
#     Node 3, Type 0, BuildingBlock: MIFKUJ_clean_sbu_0, # of connection points: 6
#     Node 4, Type 0, BuildingBlock: MIFKUJ_clean_sbu_0, # of connection points: 6
#     Node 5, Type 0, BuildingBlock: MIFKUJ_clean_sbu_0, # of connection points: 6
#     Edge 6, Type (0, 0), BuildingBlock: EZIPEK_clean_linker_0, # of connection points: 2
#     Edge 7, Type (0, 0), BuildingBlock: EZIPEK_clean_linker_0, # of connection points: 2
#     Edge 8, Type (0, 0), BuildingBlock: EZIPEK_clean_linker_0, # of connection points: 2
#     Edge 9, Type (0, 0), BuildingBlock: EZIPEK_clean_linker_0, # of connection points: 2
#     Edge 10, Type (0, 0), BuildingBlock: EZIPEK_clean_linker_0, # of connection points: 2
#     Edge 11, Type (0, 0), BuildingBlock: EZIPEK_clean_linker_0, # of connection points: 2
#     Edge 12, Type (0, 0), BuildingBlock: EZIPEK_clean_linker_0, # of connection points: 2
#     Edge 13, Type (0, 0), BuildingBlock: EZIPEK_clean_linker_0, # of connection points: 2
#     Edge 14, Type (0, 0), BuildingBlock: EZIPEK_clean_linker_0, # of connection points: 2
#     Edge 15, Type (0, 0), BuildingBlock: EZIPEK_clean_linker_0, # of connection points: 2
#     Edge 16, Type (0, 0), BuildingBlock: EZIPEK_clean_linker_0, # of connection points: 2
#     Edge 17, Type (0, 0), BuildingBlock: EZIPEK_clean_linker_0, # of connection points: 2
#     Edge 18, Type (0, 0), BuildingBlock: EZIPEK_clean_linker_0, # of connection points: 2
#     Edge 19, Type (0, 0), BuildingBlock: EZIPEK_clean_linker_0, # of connection points: 2
#     Edge 20, Type (0, 0), BuildingBlock: EZIPEK_clean_linker_0, # of connection points: 2
#     Edge 21, Type (0, 0), BuildingBlock: EZIPEK_clean_linker_0, # of connection points: 2
#     Edge 22, Type (0, 0), BuildingBlock: EZIPEK_clean_linker_0, # of connection points: 2
#     Edge 23, Type (0, 0), BuildingBlock: EZIPEK_clean_linker_0, # of connection points: 2
# Relax obj value: 0.243
# Max RMSD: 0.311
# Mean RMSD: 0.311
data_MOF--net-smu--node1-MIFKUJ_clean_sbu_0--edge1-EZIPEK_clean_linker_0
_symmetry_space_group_name_H-M    P1
_symmetry_Int_Tables_number       1
_symmetry_cell_setting            triclinic
loop_
_symmetry_equiv_pos_as_xyz
'x, y, z'
_cell_length_a     26.179871
_cell_length_b     26.272299
_cell_length_c     19.380797
_cell_angle_alpha  89.818469
_cell_angle_beta   90.301533
_cell_angle_gamma 120.2419
loop_
_atom_site_label
_atom_site_type_symbol
_atom_site_fract_x
_atom_site_fract_y
_atom_site_fract_z
_atom_type_partial_charge
Zn0 Zn 0.24067 0.01357 0.20847 0.0
Zn1 Zn 0.38531 0.12419 0.18856 0.0
C2 C 0.20233 0.09574 0.19193 0.0
O3 O 0.16406 0.05283 0.15233 0.0
C4 C 0.51099 0.16756 0.173 0.0
O5 O 0.51059 0.21074 0.13921 0.0
O6 O 0.15873 0.95039 0.23435 0.0
O7 O 0.25575 1.00042 0.11275 0.0
O8 O 0.3454 0.0781 0.10152 0.0
C9 C 0.14724 0.89928 0.25313 0.0
O10 O 0.18923 0.88584 0.25374 0.0
O11 O 0.24343 0.09118 0.2211 0.0
C12 C 0.4056 0.24024 0.22288 0.0
O13 O 0.36938 0.21416 0.27462 0.0
O14 O 0.41092 0.20941 0.17643 0.0
O15 O 0.35636 0.09842 0.28641 0.0
O16 O 0.29241 0.00366 0.27462 0.0
O17 O 0.46258 0.12418 0.19387 0.0
C18 C 0.30051 0.03314 0.07615 0.0
C19 C 0.32854 0.0467 0.31118 0.0
Zn20 Zn 0.79455 0.75142 0.28455 0.0
Zn21 Zn 0.7131 0.58325 0.27019 0.0
C22 C 0.90487 0.76141 0.33193 0.0
O23 O 0.87999 0.74682 0.39298 0.0
C24 C 0.61908 0.46629 0.22529 0.0
O25 O 0.65443 0.47301 0.17385 0.0
O26 O 0.81062 0.83454 0.28631 0.0
O27 O 0.75078 0.71979 0.1972 0.0
O28 O 0.7091 0.62318 0.18277 0.0
C29 C 0.84411 0.86852 0.23922 0.0
O30 O 0.86561 0.84814 0.19286 0.0
O31 O 0.8748 0.76007 0.27971 0.0
C32 C 0.77511 0.51849 0.28618 0.0
O33 O 0.7273 0.48229 0.32048 0.0
O34 O 0.78112 0.56679 0.26382 0.0
O35 O 0.70787 0.61662 0.36189 0.0
O36 O 0.75163 0.7142 0.37046 0.0
O37 O 0.63527 0.50667 0.27011 0.0
C38 C 0.7223 0.67393 0.16066 0.0
C39 C 0.72117 0.66303 0.39569 0.0
Zn40 Zn 0.99138 0.23477 0.25078 0.0
Zn41 Zn 0.87124 0.27009 0.2436 0.0
C42 C 0.93157 0.11687 0.21147 0.0
O43 O 0.97061 0.14073 0.16188 0.0
C44 C 0.87928 0.38231 0.22119 0.0
O45 O 0.86487 0.35988 0.15882 0.0
O46 O 0.06737 0.23253 0.26331 0.0
O47 O 0.99197 0.26588 0.16034 0.0
O48 O 0.91663 0.28243 0.15477 0.0
C49 C 0.10339 0.24142 0.21467 0.0
O50 O 0.09126 0.25416 0.15335 0.0
O51 O 0.92751 0.14981 0.25633 0.0
C52 C 0.74816 0.23153 0.25041 0.0
O53 O 0.76734 0.27062 0.30033 0.0
O54 O 0.78426 0.22006 0.22035 0.0
O55 O 0.88949 0.23877 0.33113 0.0
O56 O 0.98679 0.28511 0.32335 0.0
O57 O 0.88399 0.35081 0.26788 0.0
C58 C 0.96054 0.28197 0.12788 0.0
C59 C 0.94033 0.26423 0.35932 0.0
Zn60 Zn 0.08459 0.41636 0.73517 0.0
Zn61 Zn 0.05322 0.26335 0.76554 0.0
C62 C 0.20998 0.48143 0.76049 0.0
O63 O 0.19642 0.51797 0.79005 0.0
C64 C 0.95411 0.14652 0.76465 0.0
O65 O 0.97792 0.14893 0.70434 0.0
O66 O 0.08755 0.49401 0.73009 0.0
O67 O 0.04205 0.37013 0.65234 0.0
O68 O 0.02579 0.28045 0.677 0.0
C69 C 0.10183 0.52377 0.67464 0.0
O70 O 0.11579 0.50246 0.62138 0.0
O71 O 0.1691 0.43319 0.73542 0.0
C72 C 0.11333 0.1963 0.772 0.0
O73 O 0.07552 0.16826 0.82167 0.0
O74 O 0.11341 0.23958 0.74241 0.0
O75 O 0.09172 0.33224 0.8313 0.0
O76 O 0.04189 0.37782 0.82172 0.0
O77 O 0.97849 0.19173 0.80366 0.0
C78 C 0.02142 0.31634 0.63689 0.0
C79 C 0.05879 0.34893 0.85815 0.0
Zn80 Zn 0.3216 0.88892 0.70158 0.0
Zn81 Zn 0.21814 0.95769 0.7049 0.0
C82 C 0.24186 0.76709 0.7181 0.0
O83 O 0.28354 0.77295 0.7609 0.0
C84 C 0.22013 0.06505 0.69274 0.0
O85 O 0.20294 0.04174 0.63107 0.0
O86 O 0.38684 0.8712 0.69178 0.0
O87 O 0.32608 0.94481 0.62274 0.0
O88 O 0.25637 0.97106 0.61342 0.0
C89 C 0.44144 0.90955 0.6945 0.0
O90 O 0.45839 0.96588 0.69498 0.0
O91 O 0.24641 0.81218 0.68811 0.0
C92 C 0.09628 0.90395 0.73821 0.0
O93 O 0.11778 0.9487 0.78099 0.0
O94 O 0.13114 0.89627 0.69998 0.0
O95 O 0.26641 0.93463 0.75489 0.0
O96 O 0.32876 0.91573 0.80095 0.0
O97 O 0.22904 0.03503 0.73758 0.0
C98 C 0.30114 0.96932 0.59044 0.0
C99 C 0.2956 0.93712 0.8077 0.0
Zn100 Zn 0.57741 0.68706 0.77285 0.0
Zn101 Zn 0.73353 0.78916 0.74952 0.0
C102 C 0.54683 0.77525 0.77189 0.0
O103 O 0.52 0.74704 0.82849 0.0
C104 C 0.85105 0.81598 0.75869 0.0
O105 O 0.84731 0.84503 0.81157 0.0
O106 O 0.4919 0.62246 0.78306 0.0
O107 O 0.61369 0.65967 0.70241 0.0
O108 O 0.67526 0.75134 0.67192 0.0
C109 C 0.46079 0.59418 0.7311 0.0
O110 O 0.48384 0.61272 0.66975 0.0
O111 O 0.57894 0.76003 0.73951 0.0
C112 C 0.76106 0.90972 0.79848 0.0
O113 O 0.72407 0.88466 0.84974 0.0
O114 O 0.76707 0.87818 0.75325 0.0
O115 O 0.71065 0.74983 0.84345 0.0
O116 O 0.61461 0.69649 0.86517 0.0
O117 O 0.80504 0.78389 0.72294 0.0
C118 C 0.65274 0.69646 0.66187 0.0
C119 C 0.66808 0.71847 0.88413 0.0
C120 C 0.35254 0.00477 0.90473 0.0
C121 C 0.2975 0.96939 0.87109 0.0
C122 C 0.24918 0.99298 0.96279 0.0
C123 C 0.30151 0.0162 0.00337 0.0
N124 N 0.40095 0.03178 0.01532 0.0
N125 N 0.19074 0.92111 0.87623 0.0
C126 C 0.35303 0.01931 0.97502 0.0
C127 C 0.24492 0.96142 0.90183 0.0
N128 N 0.40437 0.02528 0.86959 0.0
N129 N 0.20409 0.00197 0.98133 0.0
H130 H 0.18505 0.8944 0.83391 0.0
H131 H 0.15151 0.91006 0.90173 0.0
H132 H 0.20701 0.02796 0.02344 0.0
H133 H 0.16716 0.98964 0.94999 0.0
H134 H 0.44534 0.05497 0.89114 0.0
H135 H 0.40577 0.0186 0.81676 0.0
H136 H 0.43702 0.02941 -0.00321 0.0
H137 H 0.40207 0.03712 0.06859 0.0
C138 C 0.63021 0.67581 0.53652 0.0
C139 C 0.66269 0.67614 0.59542 0.0
C140 C 0.72781 0.65695 0.52375 0.0
C141 C 0.69618 0.65803 0.46479 0.0
N142 N 0.60984 0.65386 0.41456 0.0
N143 N 0.73313 0.65485 0.64885 0.0
C144 C 0.64472 0.66253 0.47116 0.0
C145 C 0.70845 0.66247 0.59021 0.0
N146 N 0.58723 0.69054 0.54286 0.0
N147 N 0.77758 0.65302 0.51575 0.0
H148 H 0.71998 0.65912 0.69821 0.0
H149 H 0.76324 0.64002 0.64905 0.0
H150 H 0.79111 0.64611 0.46786 0.0
H151 H 0.80686 0.6591 0.55566 0.0
H152 H 0.56664 0.69791 0.50109 0.0
H153 H 0.57419 0.69871 0.59035 0.0
H154 H 0.56881 0.65112 0.41665 0.0
H155 H 0.61964 0.64422 0.36588 0.0
C156 C 0.97949 0.2575 0.0131 0.0
C157 C 0.97647 0.29913 0.05581 0.0
C158 C 0.03254 0.37652 0.9712 0.0
C159 C 0.03911 0.33479 0.93091 0.0
N160 N 0.04082 0.24289 0.93444 0.0
N161 N 0.00551 0.39985 0.0815 0.0
C162 C 0.01908 0.27732 0.95742 0.0
C163 C 0.00385 0.35916 0.03628 0.0
N164 N 0.94491 0.19865 0.02648 0.0
N165 N 0.05625 0.43337 0.94883 0.0
H166 H 0.98405 0.38842 0.12897 0.0
H167 H 0.03049 0.44518 0.07394 0.0
H168 H 0.08695 0.45086 0.90891 0.0
H169 H 0.04555 0.46326 0.96975 0.0
H170 H 0.94226 0.16626 -0.00679 0.0
H171 H 0.91439 0.18267 0.06676 0.0
H172 H 0.03183 0.20415 0.95965 0.0
H173 H 0.0746 0.25617 0.89882 0.0
C174 C 0.34375 0.98753 0.4007 0.0
C175 C 0.3356 0.0356 0.38439 0.0
C176 C 0.32914 0.05139 0.50728 0.0
C177 C 0.32292 0.99556 0.52159 0.0
N178 N 0.31741 0.90628 0.47841 0.0
N179 N 0.31272 0.10951 0.4232 0.0
C180 C 0.32935 0.96268 0.46771 0.0
C181 C 0.32715 0.06737 0.4379 0.0
N182 N 0.3652 0.96565 0.35212 0.0
N183 N 0.33676 0.08898 0.56003 0.0
H184 H 0.30764 0.12104 0.37326 0.0
H185 H 0.29998 0.12901 0.46096 0.0
H186 H 0.34 0.07906 0.61151 0.0
H187 H 0.34637 0.13216 0.55194 0.0
H188 H 0.37673 0.93387 0.36325 0.0
H189 H 0.37765 0.98406 0.30295 0.0
H190 H 0.31543 0.87891 0.43841 0.0
H191 H 0.30391 0.88448 0.52552 0.0
C192 C 0.64444 0.64995 0.98666 0.0
C193 C 0.68136 0.70571 0.95486 0.0
C194 C 0.7509 0.73126 0.05049 0.0
C195 C 0.70854 0.68173 0.0884 0.0
N196 N 0.60781 0.60021 0.09556 0.0
N197 N 0.76234 0.80584 0.97012 0.0
C198 C 0.65307 0.64268 0.05755 0.0
C199 C 0.73259 0.74835 -0.00942 0.0
N200 N 0.60349 0.6029 0.94924 0.0
N201 N 0.80904 0.76093 0.06981 0.0
H202 H 0.7468 0.82188 0.93116 0.0
H203 H 0.79759 0.83863 -0.0017 0.0
H204 H 0.82557 0.74667 0.10987 0.0
H205 H 0.84164 0.79493 0.04024 0.0
H206 H 0.57911 0.56074 0.97024 0.0
H207 H 0.59952 0.60376 0.8958 0.0
H208 H 0.56524 0.57439 0.07555 0.0
H209 H 0.61075 0.59513 0.14851 0.0
C210 C 0.92831 0.29507 0.47759 0.0
C211 C 0.94718 0.26405 0.43472 0.0
C212 C 0.0117 0.26403 0.52597 0.0
C213 C 0.99313 0.29507 0.56915 0.0
N214 N 0.92085 0.3238 0.59405 0.0
N215 N 0.99544 0.20599 0.42579 0.0
C216 C 0.94734 0.30557 0.54748 0.0
C217 C 0.98414 0.24368 0.46164 0.0
N218 N 0.8954 0.3176 0.45091 0.0
N219 N 0.05726 0.25534 0.54448 0.0
H220 H 0.97514 0.18676 0.37901 0.0
H221 H 0.97514 0.18676 0.37901 0.0
H222 H 0.08356 0.27394 0.58809 0.0
H223 H 0.07125 0.23238 0.51328 0.0
H224 H 0.88715 0.34708 0.47757 0.0
H225 H 0.8793 0.3099 0.4005 0.0
H226 H 0.88348 0.32669 0.58255 0.0
H227 H 0.93238 0.33014 0.64622 0.0
C228 C 0.58352 0.17094 0.26179 0.0
C229 C 0.56848 0.17278 0.19158 0.0
C230 C 0.67114 0.20867 0.15782 0.0
C231 C 0.68559 0.20432 0.22763 0.0
N232 N 0.65179 0.16482 0.34146 0.0
N233 N 0.59367 0.17672 0.07155 0.0
C234 C 0.64044 0.17997 0.27809 0.0
C235 C 0.61097 0.18615 0.13918 0.0
N236 N 0.54542 0.16466 0.31349 0.0
N237 N 0.71467 0.23776 0.11008 0.0
H238 H 0.54964 0.15909 0.05633 0.0
H239 H 0.62176 0.18038 0.03154 0.0
H240 H 0.75955 0.2567 0.12112 0.0
H241 H 0.70645 0.24785 0.06071 0.0
H242 H 0.55734 0.16998 0.36548 0.0
H243 H 0.50383 0.15961 0.30492 0.0
H244 H 0.61901 0.14179 0.37805 0.0
H245 H 0.69271 0.16958 0.35448 0.0
C246 C 0.51773 0.39802 0.17667 0.0
C247 C 0.56012 0.41214 0.23028 0.0
C248 C 0.49821 0.31499 0.28218 0.0
C249 C 0.45481 0.30151 0.2302 0.0
N250 N 0.41742 0.3327 0.13552 0.0
N251 N 0.58241 0.39022 0.34425 0.0
C252 C 0.46281 0.34396 0.1797 0.0
C253 C 0.5475 0.37285 0.28653 0.0
N254 N 0.53015 0.43616 0.12278 0.0
N255 N 0.49501 0.27161 0.32441 0.0
H256 H 0.61944 0.43178 0.35014 0.0
H257 H 0.57109 0.36529 0.38939 0.0
H258 H 0.46065 0.228 0.32283 0.0
H259 H 0.52952 0.27753 0.35673 0.0
H260 H 0.50455 0.42569 0.07814 0.0
H261 H 0.56781 0.47791 0.12132 0.0
H262 H 0.41798 0.36363 0.10139 0.0
H263 H 0.37677 0.29351 0.13709 0.0
C264 C 0.87415 0.45205 0.30839 0.0
C265 C 0.8761 0.43634 0.23891 0.0
C266 C 0.83137 0.49379 0.20002 0.0
C267 C 0.81885 0.50001 0.26985 0.0
N268 N 0.83476 0.49269 0.39122 0.0
N269 N 0.89078 0.47277 0.12258 0.0
C270 C 0.84296 0.48207 0.32436 0.0
C271 C 0.86558 0.46698 0.18575 0.0
N272 N 0.90573 0.44229 0.35768 0.0
N273 N 0.80686 0.50877 0.14697 0.0
H274 H 0.92063 0.45826 0.11336 0.0
H275 H 0.88875 0.49877 0.08317 0.0
H276 H 0.78066 0.52773 0.15391 0.0
H277 H 0.80875 0.49801 0.09571 0.0
H278 H 0.90877 0.45491 0.40903 0.0
H279 H 0.93552 0.42845 0.34515 0.0
H280 H 0.84422 0.47454 0.43376 0.0
H281 H 0.81673 0.51887 0.40423 0.0
C282 C 0.11136 0.61212 0.73798 0.0
C283 C 0.11729 0.58696 0.67611 0.0
C284 C 0.19017 0.68436 0.63344 0.0
C285 C 0.19306 0.70762 0.7004 0.0
N286 N 0.15301 0.69666 0.81475 0.0
N287 N 0.13377 0.60372 0.55417 0.0
C288 C 0.15192 0.67254 0.75197 0.0
C289 C 0.1478 0.62452 0.62008 0.0
N290 N 0.06471 0.57907 0.78057 0.0
N291 N 0.2304 0.71787 0.58411 0.0
H292 H 0.09814 0.56188 0.54334 0.0
H293 H 0.1514 0.63022 0.51067 0.0
H294 H 0.26255 0.76192 0.5914 0.0
H295 H 0.23468 0.70071 0.53754 0.0
H296 H 0.05531 0.59534 0.82461 0.0
H297 H 0.03099 0.53701 0.76669 0.0
H298 H 0.1293 0.6721 0.85739 0.0
H299 H 0.1797 0.74157 0.82497 0.0
C300 C 0.4826 0.84716 0.65764 0.0
C301 C 0.48396 0.88878 0.70492 0.0
C302 C 0.54604 0.86927 0.78293 0.0
C303 C 0.53372 0.81947 0.7427 0.0
N304 N 0.4872 0.75828 0.64252 0.0
N305 N 0.51494 0.93824 0.81535 0.0
C306 C 0.50224 0.80823 0.67938 0.0
C307 C 0.51628 0.90065 0.76774 0.0
N308 N 0.46193 0.84475 0.59213 0.0
N309 N 0.58614 0.88634 0.83571 0.0
H310 H 0.49366 0.96219 0.80713 0.0
H311 H 0.53156 0.94265 0.86529 0.0
H312 H 0.60849 0.86391 0.8478 0.0
H313 H 0.60145 0.92567 0.86266 0.0
H314 H 0.4646 0.81895 0.55319 0.0
H315 H 0.44768 0.87329 0.57502 0.0
H316 H 0.4582 0.74447 0.60064 0.0
H317 H 0.49988 0.72794 0.65655 0.0
C318 C 0.2982 0.50639 0.68654 0.0
C319 C 0.273 0.49844 0.75323 0.0
C320 C 0.37048 0.53154 0.80563 0.0
C321 C 0.39646 0.54829 0.73917 0.0
N322 N 0.38099 0.51719 0.62022 0.0
N323 N 0.28346 0.49941 0.87699 0.0
C324 C 0.35922 0.52539 0.68041 0.0
C325 C 0.30864 0.50936 0.81309 0.0
N326 N 0.26504 0.49955 0.62886 0.0
N327 N 0.40386 0.53158 0.86011 0.0
H328 H 0.23787 0.47879 0.88433 0.0
H329 H 0.30767 0.51367 0.92269 0.0
H330 H 0.44661 0.53899 0.85379 0.0
H331 H 0.38721 0.51642 0.90923 0.0
H332 H 0.28328 0.51181 0.57974 0.0
H333 H 0.22033 0.48658 0.63037 0.0
H334 H 0.35464 0.49649 0.5772 0.0
H335 H 0.42303 0.5222 0.6171 0.0
C336 C 0.16662 0.14699 0.27026 0.0
C337 C 0.1934 0.14586 0.20716 0.0
C338 C 0.18623 0.23013 0.16517 0.0
C339 C 0.14909 0.22307 0.2218 0.0
N340 N 0.13506 0.20075 0.34329 0.0
N341 N 0.23417 0.18892 0.09665 0.0
C342 C 0.14876 0.18946 0.2794 0.0
C343 C 0.20581 0.18898 0.15565 0.0
N344 N 0.15506 0.10537 0.31973 0.0
N345 N 0.20534 0.27819 0.12329 0.0
H346 H 0.25172 0.16134 0.08995 0.0
H347 H 0.23825 0.21428 0.05341 0.0
H348 H 0.19627 0.31173 0.13415 0.0
H349 H 0.23564 0.28854 0.0836 0.0
H350 H 0.12875 0.09918 0.36265 0.0
H351 H 0.16877 0.07447 0.31586 0.0
H352 H 0.13773 0.18033 0.38819 0.0
H353 H 0.12956 0.23677 0.35269 0.0
C354 C 0.00776 0.84437 0.35711 0.0
C355 C 0.96971 0.7897 0.32404 0.0
C356 C 0.05056 0.80351 0.24849 0.0
C357 C 0.08834 0.85791 0.28175 0.0
N358 N 0.10862 0.92101 0.38042 0.0
N359 N 0.95807 0.71019 0.25175 0.0
C360 C 0.06872 0.8753 0.34031 0.0
C361 C 0.99235 0.76694 0.27414 0.0
N362 N 0.98544 0.86905 0.40083 0.0
N363 N 0.06904 0.78831 0.19032 0.0
H364 H 0.91549 0.68235 0.27046 0.0
H365 H 0.97363 0.68904 0.22008 0.0
H366 H 0.11142 0.81385 0.17014 0.0
H367 H 0.0412 0.75255 0.15931 0.0
H368 H 0.0101 0.91212 0.41902 0.0
H369 H 0.94118 0.84875 0.415 0.0
H370 H 0.09784 0.93187 0.42767 0.0
H371 H 0.15387 0.9442 0.37002 0.0
C372 C 0.85896 0.01307 0.17805 0.0
C373 C 0.90369 0.0529 0.22362 0.0
C374 C 0.90086 0.9706 0.28692 0.0
C375 C 0.86063 0.93115 0.23711 0.0
N376 N 0.8034 0.9135 0.1328 0.0
N377 N 0.97472 0.07123 0.31418 0.0
C378 C 0.84012 0.95201 0.18195 0.0
C379 C 0.92627 0.03217 0.27668 0.0
N380 N 0.83387 0.03371 0.13203 0.0
N381 N 0.91549 0.94932 0.34354 0.0
H382 H 0.9955 0.11674 0.30775 0.0
H383 H 0.99774 0.05868 0.34751 0.0
H384 H 0.90033 0.9047 0.3513 0.0
H385 H 0.93914 0.9754 0.38549 0.0
H386 H 0.79723 0.00666 0.1016 0.0
H387 H 0.84697 0.07826 0.12801 0.0
H388 H 0.79264 0.92658 0.08684 0.0
H389 H 0.78575 0.86803 0.13624 0.0
C390 C 0.18812 0.16642 0.80084 0.0
C391 C 0.1545 0.17623 0.75018 0.0
C392 C 0.19739 0.14393 0.6611 0.0
C393 C 0.21536 0.11771 0.71238 0.0
N394 N 0.24606 0.12071 0.83076 0.0
N395 N 0.12481 0.1706 0.63025 0.0
C396 C 0.21672 0.13437 0.78244 0.0
C397 C 0.15932 0.16517 0.67951 0.0
N398 N 0.19441 0.18975 0.86545 0.0
N399 N 0.21789 0.14976 0.59527 0.0
H400 H 0.09343 0.18267 0.641 0.0
H401 H 0.12326 0.15724 0.57931 0.0
H402 H 0.25013 0.13923 0.58228 0.0
H403 H 0.20919 0.17229 0.55688 0.0
H404 H 0.2215 0.18798 0.90371 0.0
H405 H 0.17632 0.21571 0.87918 0.0
H406 H 0.24073 0.12238 0.88373 0.0
H407 H 0.27767 0.10951 0.81738 0.0
C408 C 1.00154 0.87755 0.67749 0.0
C409 C 0.03146 0.8665 0.73149 0.0
C410 C 0.93842 0.80741 0.79324 0.0
C411 C 0.90911 0.82222 0.74203 0.0
N412 N 0.90813 0.85722 0.62688 0.0
N413 N 0.0283 0.80897 0.82956 0.0
C414 C 0.93905 0.85207 0.68088 0.0
C415 C 0.99963 0.82725 0.78575 0.0
N416 N 0.03341 0.91554 0.62548 0.0
N417 N 0.90778 0.77574 0.84985 0.0
H418 H 0.07292 0.82228 0.82373 0.0
H419 H 0.00738 0.77709 0.86756 0.0
H420 H 0.86203 0.75688 0.85414 0.0
H421 H 0.92743 0.76934 0.89325 0.0
H422 H 0.01563 0.93168 0.58926 0.0
H423 H 0.07891 0.93342 0.62023 0.0
H424 H 0.9263 0.87308 0.57845 0.0
H425 H 0.86281 0.84123 0.62823 0.0
C426 C 0.8984 0.05704 0.84103 0.0
C427 C 0.89864 0.09144 0.78419 0.0
C428 C 0.79981 0.01121 0.7497 0.0
C429 C 0.80425 0.97408 0.79956 0.0
N430 N 0.85825 0.95992 0.8916 0.0
N431 N 0.84827 0.10392 0.68685 0.0
C432 C 0.85312 0.99683 0.84583 0.0
C433 C 0.84859 0.06934 0.73955 0.0
N434 N 0.94171 0.08151 0.89016 0.0
N435 N 0.74838 0.99092 0.71307 0.0
H436 H 0.88051 0.14827 0.6818 0.0
H437 H 0.81721 0.08869 0.64711 0.0
H438 H 0.71207 0.94872 0.72009 0.0
H439 H 0.7396 0.01682 0.67991 0.0
H440 H 0.94023 0.0612 0.93692 0.0
H441 H 0.97688 0.12439 0.8872 0.0
H442 H 0.89633 0.97137 0.92013 0.0
H443 H 0.82568 0.91602 0.89798 0.0
loop_
_geom_bond_atom_site_label_1
_geom_bond_atom_site_label_2
_geom_bond_distance
_geom_bond_site_symmetry_2
_ccdc_geom_bond_type
Zn0 O6 1.969 1_545 S
Zn0 O7 1.965 . S
Zn0 O11 2.024 . S
Zn0 O16 1.969 . S
Zn1 O8 1.969 . S
Zn1 O14 1.969 . S
Zn1 O15 1.965 . S
Zn1 O17 2.024 . S
C2 O3 1.229 . S
C2 O11 1.058 . S
O3 C2 1.229 . S
C4 O5 1.229 . S
C4 O17 1.058 . S
O5 C4 1.229 . S
O6 Zn0 1.969 1_565 S
O6 C9 1.267 . S
O7 Zn0 1.965 . S
O7 C18 1.260 . S
O8 Zn1 1.969 . S
O8 C18 1.258 . S
C9 O6 1.267 . S
C9 O10 1.228 . S
O10 C9 1.228 . S
O11 Zn0 2.024 . S
O11 C2 1.058 . S
C12 O13 1.228 . S
C12 O14 1.267 . S
O13 C12 1.228 . S
O14 Zn1 1.969 . S
O14 C12 1.267 . S
O15 Zn1 1.965 . S
O15 C19 1.260 . S
O16 Zn0 1.969 . S
O16 C19 1.258 . S
O17 Zn1 2.024 . S
O17 C4 1.058 . S
C18 O7 1.260 . S
C18 O8 1.258 . S
C19 O15 1.260 . S
C19 O16 1.258 . S
Zn20 O26 1.969 . S
Zn20 O27 1.965 . S
Zn20 O31 2.024 . S
Zn20 O36 1.969 . S
Zn21 O28 1.969 . S
Zn21 O34 1.969 . S
Zn21 O35 1.965 . S
Zn21 O37 2.024 . S
C22 O23 1.229 . S
C22 O31 1.058 . S
O23 C22 1.229 . S
C24 O25 1.229 . S
C24 O37 1.058 . S
O25 C24 1.229 . S
O26 Zn20 1.969 . S
O26 C29 1.267 . S
O27 Zn20 1.965 . S
O27 C38 1.260 . S
O28 Zn21 1.969 . S
O28 C38 1.258 . S
C29 O26 1.267 . S
C29 O30 1.228 . S
O30 C29 1.228 . S
O31 Zn20 2.024 . S
O31 C22 1.058 . S
C32 O33 1.228 . S
C32 O34 1.267 . S
O33 C32 1.228 . S
O34 Zn21 1.969 . S
O34 C32 1.267 . S
O35 Zn21 1.965 . S
O35 C39 1.260 . S
O36 Zn20 1.969 . S
O36 C39 1.258 . S
O37 Zn21 2.024 . S
O37 C24 1.058 . S
C38 O27 1.260 . S
C38 O28 1.258 . S
C39 O35 1.260 . S
C39 O36 1.258 . S
Zn40 O46 1.969 1_655 S
Zn40 O47 1.965 . S
Zn40 O51 2.024 . S
Zn40 O56 1.969 . S
Zn41 O48 1.969 . S
Zn41 O54 1.969 . S
Zn41 O55 1.965 . S
Zn41 O57 2.024 . S
C42 O43 1.229 . S
C42 O51 1.058 . S
O43 C42 1.229 . S
C44 O45 1.229 . S
C44 O57 1.058 . S
O45 C44 1.229 . S
O46 Zn40 1.969 1_455 S
O46 C49 1.267 . S
O47 Zn40 1.965 . S
O47 C58 1.260 . S
O48 Zn41 1.969 . S
O48 C58 1.258 . S
C49 O46 1.267 . S
C49 O50 1.228 . S
O50 C49 1.228 . S
O51 Zn40 2.024 . S
O51 C42 1.058 . S
C52 O53 1.228 . S
C52 O54 1.267 . S
O53 C52 1.228 . S
O54 Zn41 1.969 . S
O54 C52 1.267 . S
O55 Zn41 1.965 . S
O55 C59 1.260 . S
O56 Zn40 1.969 . S
O56 C59 1.258 . S
O57 Zn41 2.024 . S
O57 C44 1.058 . S
C58 O47 1.260 . S
C58 O48 1.258 . S
C59 O55 1.260 . S
C59 O56 1.258 . S
Zn60 O66 1.969 . S
Zn60 O67 1.965 . S
Zn60 O71 2.024 . S
Zn60 O76 1.969 . S
Zn61 O68 1.969 . S
Zn61 O74 1.969 . S
Zn61 O75 1.965 . S
Zn61 O77 2.024 1_455 S
C62 O63 1.229 . S
C62 O71 1.058 . S
O63 C62 1.229 . S
C64 O65 1.229 . S
C64 O77 1.058 . S
O65 C64 1.229 . S
O66 Zn60 1.969 . S
O66 C69 1.267 . S
O67 Zn60 1.965 . S
O67 C78 1.260 . S
O68 Zn61 1.969 . S
O68 C78 1.258 . S
C69 O66 1.267 . S
C69 O70 1.228 . S
O70 C69 1.228 . S
O71 Zn60 2.024 . S
O71 C62 1.058 . S
C72 O73 1.228 . S
C72 O74 1.267 . S
O73 C72 1.228 . S
O74 Zn61 1.969 . S
O74 C72 1.267 . S
O75 Zn61 1.965 . S
O75 C79 1.260 . S
O76 Zn60 1.969 . S
O76 C79 1.258 . S
O77 Zn61 2.024 1_655 S
O77 C64 1.058 . S
C78 O67 1.260 . S
C78 O68 1.258 . S
C79 O75 1.260 . S
C79 O76 1.258 . S
Zn80 O86 1.969 . S
Zn80 O87 1.965 . S
Zn80 O91 2.024 . S
Zn80 O96 1.969 . S
Zn81 O88 1.969 . S
Zn81 O94 1.969 . S
Zn81 O95 1.965 . S
Zn81 O97 2.024 1_565 S
C82 O83 1.229 . S
C82 O91 1.058 . S
O83 C82 1.229 . S
C84 O85 1.229 . S
C84 O97 1.058 . S
O85 C84 1.229 . S
O86 Zn80 1.969 . S
O86 C89 1.267 . S
O87 Zn80 1.965 . S
O87 C98 1.260 . S
O88 Zn81 1.969 . S
O88 C98 1.258 . S
C89 O86 1.267 . S
C89 O90 1.228 . S
O90 C89 1.228 . S
O91 Zn80 2.024 . S
O91 C82 1.058 . S
C92 O93 1.228 . S
C92 O94 1.267 . S
O93 C92 1.228 . S
O94 Zn81 1.969 . S
O94 C92 1.267 . S
O95 Zn81 1.965 . S
O95 C99 1.260 . S
O96 Zn80 1.969 . S
O96 C99 1.258 . S
O97 Zn81 2.024 1_545 S
O97 C84 1.058 . S
C98 O87 1.260 . S
C98 O88 1.258 . S
C99 O95 1.260 . S
C99 O96 1.258 . S
Zn100 O106 1.969 . S
Zn100 O107 1.965 . S
Zn100 O111 2.024 . S
Zn100 O116 1.969 . S
Zn101 O108 1.969 . S
Zn101 O114 1.969 . S
Zn101 O115 1.965 . S
Zn101 O117 2.024 . S
C102 O103 1.229 . S
C102 O111 1.058 . S
O103 C102 1.229 . S
C104 O105 1.229 . S
C104 O117 1.058 . S
O105 C104 1.229 . S
O106 Zn100 1.969 . S
O106 C109 1.267 . S
O107 Zn100 1.965 . S
O107 C118 1.260 . S
O108 Zn101 1.969 . S
O108 C118 1.258 . S
C109 O106 1.267 . S
C109 O110 1.228 . S
O110 C109 1.228 . S
O111 Zn100 2.024 . S
O111 C102 1.058 . S
C112 O113 1.228 . S
C112 O114 1.267 . S
O113 C112 1.228 . S
O114 Zn101 1.969 . S
O114 C112 1.267 . S
O115 Zn101 1.965 . S
O115 C119 1.260 . S
O116 Zn100 1.969 . S
O116 C119 1.258 . S
O117 Zn101 2.024 . S
O117 C104 1.058 . S
C118 O107 1.260 . S
C118 O108 1.258 . S
C119 O115 1.260 . S
C119 O116 1.258 . S
C120 C121 1.363 . S
C120 C126 1.379 1_565 S
C120 N128 1.356 . S
C121 C120 1.363 . S
C121 C127 1.363 1_556 S
C122 C123 1.363 1_565 S
C122 C127 1.379 . S
C122 N129 1.356 1_565 S
C123 C122 1.363 1_545 S
C123 C126 1.363 1_554 S
N124 C126 1.356 1_554 S
N124 H136 0.984 1_554 S
N124 H137 0.985 . S
N125 C127 1.356 1_556 S
N125 H130 0.984 . S
N125 H131 0.985 1_556 S
C126 C120 1.379 1_545 S
C126 C123 1.363 1_556 S
C126 N124 1.356 1_556 S
C127 C121 1.363 1_554 S
C127 C122 1.379 . S
C127 N125 1.356 1_554 S
N128 C120 1.356 . S
N128 H134 0.984 . S
N128 H135 0.984 . S
N129 C122 1.356 1_545 S
N129 H132 0.984 . S
N129 H133 0.985 1_545 S
H130 N125 0.984 . S
H131 N125 0.985 1_554 S
H132 N129 0.984 . S
H133 N129 0.985 1_565 S
H134 N128 0.984 . S
H135 N128 0.984 . S
H136 N124 0.984 1_556 S
H137 N124 0.985 . S
C138 C139 1.363 . S
C138 C144 1.379 . S
C138 N146 1.356 . S
C139 C138 1.363 . S
C139 C145 1.363 . S
C140 C141 1.363 . S
C140 C145 1.379 . S
C140 N147 1.356 . S
C141 C140 1.363 . S
C141 C144 1.363 . S
N142 C144 1.356 . S
N142 H154 0.984 . S
N142 H155 0.985 . S
N143 C145 1.356 . S
N143 H148 0.984 . S
N143 H149 0.985 . S
C144 C138 1.379 . S
C144 C141 1.363 . S
C144 N142 1.356 . S
C145 C139 1.363 . S
C145 C140 1.379 . S
C145 N143 1.356 . S
N146 C138 1.356 . S
N146 H152 0.984 . S
N146 H153 0.984 . S
N147 C140 1.356 . S
N147 H150 0.984 . S
N147 H151 0.985 . S
H148 N143 0.984 . S
H149 N143 0.985 . S
H150 N147 0.984 . S
H151 N147 0.985 . S
H152 N146 0.984 . S
H153 N146 0.984 . S
H154 N142 0.984 . S
H155 N142 0.985 . S
C156 C157 1.363 . S
C156 C162 1.379 1_654 S
C156 N164 1.356 . S
C157 C156 1.363 . S
C157 C163 1.363 . S
C158 C159 1.363 . S
C158 C163 1.379 1_456 S
C158 N165 1.356 . S
C159 C158 1.363 . S
C159 C162 1.363 . S
N160 C162 1.356 . S
N160 H172 0.984 . S
N160 H173 0.985 . S
N161 C163 1.356 . S
N161 H166 0.984 . S
N161 H167 0.985 . S
C162 C156 1.379 1_456 S
C162 C159 1.363 . S
C162 N160 1.356 . S
C163 C157 1.363 . S
C163 C158 1.379 1_654 S
C163 N161 1.356 . S
N164 C156 1.356 . S
N164 H170 0.984 . S
N164 H171 0.984 . S
N165 C158 1.356 . S
N165 H168 0.984 . S
N165 H169 0.985 . S
H166 N161 0.984 . S
H167 N161 0.985 . S
H168 N165 0.984 . S
H169 N165 0.985 . S
H170 N164 0.984 . S
H171 N164 0.984 . S
H172 N160 0.984 . S
H173 N160 0.985 . S
C174 C175 1.363 1_565 S
C174 C180 1.379 . S
C174 N182 1.356 1_565 S
C175 C174 1.363 1_545 S
C175 C181 1.363 . S
C176 C177 1.363 1_545 S
C176 C181 1.379 . S
C176 N183 1.356 . S
C177 C176 1.363 1_565 S
C177 C180 1.363 . S
N178 C180 1.356 . S
N178 H190 0.984 . S
N178 H191 0.985 . S
N179 C181 1.356 . S
N179 H184 0.984 . S
N179 H185 0.985 . S
C180 C174 1.379 . S
C180 C177 1.363 . S
C180 N178 1.356 . S
C181 C175 1.363 . S
C181 C176 1.379 . S
C181 N179 1.356 . S
N182 C174 1.356 1_545 S
N182 H188 0.984 1_545 S
N182 H189 0.984 . S
N183 C176 1.356 . S
N183 H186 0.984 1_545 S
N183 H187 0.985 . S
H184 N179 0.984 . S
H185 N179 0.985 . S
H186 N183 0.984 1_565 S
H187 N183 0.985 . S
H188 N182 0.984 1_565 S
H189 N182 0.984 . S
H190 N178 0.984 . S
H191 N178 0.985 . S
C192 C193 1.363 . S
C192 C198 1.379 . S
C192 N200 1.356 . S
C193 C192 1.363 . S
C193 C199 1.363 1_556 S
C194 C195 1.363 . S
C194 C199 1.379 . S
C194 N201 1.356 . S
C195 C194 1.363 . S
C195 C198 1.363 1_554 S
N196 C198 1.356 1_554 S
N196 H208 0.984 1_554 S
N196 H209 0.985 . S
N197 C199 1.356 1_556 S
N197 H202 0.984 . S
N197 H203 0.985 1_556 S
C198 C192 1.379 . S
C198 C195 1.363 1_556 S
C198 N196 1.356 1_556 S
C199 C193 1.363 1_554 S
C199 C194 1.379 . S
C199 N197 1.356 1_554 S
N200 C192 1.356 . S
N200 H206 0.984 . S
N200 H207 0.984 . S
N201 C194 1.356 . S
N201 H204 0.984 . S
N201 H205 0.985 . S
H202 N197 0.984 . S
H203 N197 0.985 1_554 S
H204 N201 0.984 . S
H205 N201 0.985 . S
H206 N200 0.984 . S
H207 N200 0.984 . S
H208 N196 0.984 1_556 S
H209 N196 0.985 . S
C210 C211 1.363 . S
C210 C216 1.379 . S
C210 N218 1.356 . S
C211 C210 1.363 . S
C211 C217 1.363 . S
C212 C213 1.363 . S
C212 C217 1.379 1_455 S
C212 N219 1.356 . S
C213 C212 1.363 . S
C213 C216 1.363 1_455 S
N214 C216 1.356 1_455 S
N214 H226 0.984 1_455 S
N214 H227 0.985 . S
N215 C217 1.356 . S
N215 H220 0.984 . S
N215 H221 0.985 1_655 S
C216 C210 1.379 . S
C216 C213 1.363 1_655 S
C216 N214 1.356 1_655 S
C217 C211 1.363 . S
C217 C212 1.379 1_655 S
C217 N215 1.356 . S
N218 C210 1.356 . S
N218 H224 0.984 . S
N218 H225 0.984 . S
N219 C212 1.356 . S
N219 H222 0.984 . S
N219 H223 0.985 . S
H220 N215 0.984 . S
H221 N215 0.985 1_455 S
H222 N219 0.984 . S
H223 N219 0.985 . S
H224 N218 0.984 . S
H225 N218 0.984 . S
H226 N214 0.984 1_655 S
H227 N214 0.985 . S
C228 C229 1.363 . S
C228 C234 1.379 . S
C228 N236 1.356 . S
C229 C228 1.363 . S
C229 C235 1.363 . S
C230 C231 1.363 . S
C230 C235 1.379 . S
C230 N237 1.356 . S
C231 C230 1.363 . S
C231 C234 1.363 . S
N232 C234 1.356 . S
N232 H244 0.984 . S
N232 H245 0.985 . S
N233 C235 1.356 . S
N233 H238 0.984 . S
N233 H239 0.985 . S
C234 C228 1.379 . S
C234 C231 1.363 . S
C234 N232 1.356 . S
C235 C229 1.363 . S
C235 C230 1.379 . S
C235 N233 1.356 . S
N236 C228 1.356 . S
N236 H242 0.984 . S
N236 H243 0.984 . S
N237 C230 1.356 . S
N237 H240 0.984 . S
N237 H241 0.985 . S
H238 N233 0.984 . S
H239 N233 0.985 . S
H240 N237 0.984 . S
H241 N237 0.985 . S
H242 N236 0.984 . S
H243 N236 0.984 . S
H244 N232 0.984 . S
H245 N232 0.985 . S
C246 C247 1.363 . S
C246 C252 1.379 . S
C246 N254 1.356 . S
C247 C246 1.363 . S
C247 C253 1.363 . S
C248 C249 1.363 . S
C248 C253 1.379 . S
C248 N255 1.356 . S
C249 C248 1.363 . S
C249 C252 1.363 . S
N250 C252 1.356 . S
N250 H262 0.984 . S
N250 H263 0.985 . S
N251 C253 1.356 . S
N251 H256 0.984 . S
N251 H257 0.985 . S
C252 C246 1.379 . S
C252 C249 1.363 . S
C252 N250 1.356 . S
C253 C247 1.363 . S
C253 C248 1.379 . S
C253 N251 1.356 . S
N254 C246 1.356 . S
N254 H260 0.984 . S
N254 H261 0.984 . S
N255 C248 1.356 . S
N255 H258 0.984 . S
N255 H259 0.985 . S
H256 N251 0.984 . S
H257 N251 0.985 . S
H258 N255 0.984 . S
H259 N255 0.985 . S
H260 N254 0.984 . S
H261 N254 0.984 . S
H262 N250 0.984 . S
H263 N250 0.985 . S
C264 C265 1.363 . S
C264 C270 1.379 . S
C264 N272 1.356 . S
C265 C264 1.363 . S
C265 C271 1.363 . S
C266 C267 1.363 . S
C266 C271 1.379 . S
C266 N273 1.356 . S
C267 C266 1.363 . S
C267 C270 1.363 . S
N268 C270 1.356 . S
N268 H280 0.984 . S
N268 H281 0.985 . S
N269 C271 1.356 . S
N269 H274 0.984 . S
N269 H275 0.985 . S
C270 C264 1.379 . S
C270 C267 1.363 . S
C270 N268 1.356 . S
C271 C265 1.363 . S
C271 C266 1.379 . S
C271 N269 1.356 . S
N272 C264 1.356 . S
N272 H278 0.984 . S
N272 H279 0.984 . S
N273 C266 1.356 . S
N273 H276 0.984 . S
N273 H277 0.985 . S
H274 N269 0.984 . S
H275 N269 0.985 . S
H276 N273 0.984 . S
H277 N273 0.985 . S
H278 N272 0.984 . S
H279 N272 0.984 . S
H280 N268 0.984 . S
H281 N268 0.985 . S
C282 C283 1.363 . S
C282 C288 1.379 . S
C282 N290 1.356 . S
C283 C282 1.363 . S
C283 C289 1.363 . S
C284 C285 1.363 . S
C284 C289 1.379 . S
C284 N291 1.356 . S
C285 C284 1.363 . S
C285 C288 1.363 . S
N286 C288 1.356 . S
N286 H298 0.984 . S
N286 H299 0.985 . S
N287 C289 1.356 . S
N287 H292 0.984 . S
N287 H293 0.985 . S
C288 C282 1.379 . S
C288 C285 1.363 . S
C288 N286 1.356 . S
C289 C283 1.363 . S
C289 C284 1.379 . S
C289 N287 1.356 . S
N290 C282 1.356 . S
N290 H296 0.984 . S
N290 H297 0.984 . S
N291 C284 1.356 . S
N291 H294 0.984 . S
N291 H295 0.985 . S
H292 N287 0.984 . S
H293 N287 0.985 . S
H294 N291 0.984 . S
H295 N291 0.985 . S
H296 N290 0.984 . S
H297 N290 0.984 . S
H298 N286 0.984 . S
H299 N286 0.985 . S
C300 C301 1.363 . S
C300 C306 1.379 . S
C300 N308 1.356 . S
C301 C300 1.363 . S
C301 C307 1.363 . S
C302 C303 1.363 . S
C302 C307 1.379 . S
C302 N309 1.356 . S
C303 C302 1.363 . S
C303 C306 1.363 . S
N304 C306 1.356 . S
N304 H316 0.984 . S
N304 H317 0.985 . S
N305 C307 1.356 . S
N305 H310 0.984 . S
N305 H311 0.985 . S
C306 C300 1.379 . S
C306 C303 1.363 . S
C306 N304 1.356 . S
C307 C301 1.363 . S
C307 C302 1.379 . S
C307 N305 1.356 . S
N308 C300 1.356 . S
N308 H314 0.984 . S
N308 H315 0.984 . S
N309 C302 1.356 . S
N309 H312 0.984 . S
N309 H313 0.985 . S
H310 N305 0.984 . S
H311 N305 0.985 . S
H312 N309 0.984 . S
H313 N309 0.985 . S
H314 N308 0.984 . S
H315 N308 0.984 . S
H316 N304 0.984 . S
H317 N304 0.985 . S
C318 C319 1.363 . S
C318 C324 1.379 . S
C318 N326 1.356 . S
C319 C318 1.363 . S
C319 C325 1.363 . S
C320 C321 1.363 . S
C320 C325 1.379 . S
C320 N327 1.356 . S
C321 C320 1.363 . S
C321 C324 1.363 . S
N322 C324 1.356 . S
N322 H334 0.984 . S
N322 H335 0.985 . S
N323 C325 1.356 . S
N323 H328 0.984 . S
N323 H329 0.985 . S
C324 C318 1.379 . S
C324 C321 1.363 . S
C324 N322 1.356 . S
C325 C319 1.363 . S
C325 C320 1.379 . S
C325 N323 1.356 . S
N326 C318 1.356 . S
N326 H332 0.984 . S
N326 H333 0.984 . S
N327 C320 1.356 . S
N327 H330 0.984 . S
N327 H331 0.985 . S
H328 N323 0.984 . S
H329 N323 0.985 . S
H330 N327 0.984 . S
H331 N327 0.985 . S
H332 N326 0.984 . S
H333 N326 0.984 . S
H334 N322 0.984 . S
H335 N322 0.985 . S
C336 C337 1.363 . S
C336 C342 1.379 . S
C336 N344 1.356 . S
C337 C336 1.363 . S
C337 C343 1.363 . S
C338 C339 1.363 . S
C338 C343 1.379 . S
C338 N345 1.356 . S
C339 C338 1.363 . S
C339 C342 1.363 . S
N340 C342 1.356 . S
N340 H352 0.984 . S
N340 H353 0.985 . S
N341 C343 1.356 . S
N341 H346 0.984 . S
N341 H347 0.985 . S
C342 C336 1.379 . S
C342 C339 1.363 . S
C342 N340 1.356 . S
C343 C337 1.363 . S
C343 C338 1.379 . S
C343 N341 1.356 . S
N344 C336 1.356 . S
N344 H350 0.984 . S
N344 H351 0.984 . S
N345 C338 1.356 . S
N345 H348 0.984 . S
N345 H349 0.985 . S
H346 N341 0.984 . S
H347 N341 0.985 . S
H348 N345 0.984 . S
H349 N345 0.985 . S
H350 N344 0.984 . S
H351 N344 0.984 . S
H352 N340 0.984 . S
H353 N340 0.985 . S
C354 C355 1.363 1_455 S
C354 C360 1.379 . S
C354 N362 1.356 1_455 S
C355 C354 1.363 1_655 S
C355 C361 1.363 1_655 S
C356 C357 1.363 . S
C356 C361 1.379 . S
C356 N363 1.356 . S
C357 C356 1.363 . S
C357 C360 1.363 . S
N358 C360 1.356 . S
N358 H370 0.984 1_565 S
N358 H371 0.985 . S
N359 C361 1.356 1_655 S
N359 H364 0.984 . S
N359 H365 0.985 . S
C360 C354 1.379 . S
C360 C357 1.363 . S
C360 N358 1.356 . S
C361 C355 1.363 1_455 S
C361 C356 1.379 . S
C361 N359 1.356 1_455 S
N362 C354 1.356 1_655 S
N362 H368 0.984 1_655 S
N362 H369 0.984 . S
N363 C356 1.356 . S
N363 H366 0.984 . S
N363 H367 0.985 . S
H364 N359 0.984 . S
H365 N359 0.985 . S
H366 N363 0.984 . S
H367 N363 0.985 . S
H368 N362 0.984 1_455 S
H369 N362 0.984 . S
H370 N358 0.984 1_545 S
H371 N358 0.985 . S
C372 C373 1.363 1_565 S
C372 C378 1.379 . S
C372 N380 1.356 1_565 S
C373 C372 1.363 1_545 S
C373 C379 1.363 1_545 S
C374 C375 1.363 . S
C374 C379 1.379 . S
C374 N381 1.356 . S
C375 C374 1.363 . S
C375 C378 1.363 . S
N376 C378 1.356 . S
N376 H388 0.984 . S
N376 H389 0.985 . S
N377 C379 1.356 1_545 S
N377 H382 0.984 . S
N377 H383 0.985 1_545 S
C378 C372 1.379 . S
C378 C375 1.363 . S
C378 N376 1.356 . S
C379 C373 1.363 1_565 S
C379 C374 1.379 . S
C379 N377 1.356 1_565 S
N380 C372 1.356 1_545 S
N380 H386 0.984 . S
N380 H387 0.984 . S
N381 C374 1.356 . S
N381 H384 0.984 . S
N381 H385 0.985 . S
H382 N377 0.984 . S
H383 N377 0.985 1_565 S
H384 N381 0.984 . S
H385 N381 0.985 . S
H386 N380 0.984 . S
H387 N380 0.984 . S
H388 N376 0.984 . S
H389 N376 0.985 . S
C390 C391 1.363 . S
C390 C396 1.379 . S
C390 N398 1.356 . S
C391 C390 1.363 . S
C391 C397 1.363 . S
C392 C393 1.363 . S
C392 C397 1.379 . S
C392 N399 1.356 . S
C393 C392 1.363 . S
C393 C396 1.363 . S
N394 C396 1.356 . S
N394 H406 0.984 . S
N394 H407 0.985 . S
N395 C397 1.356 . S
N395 H400 0.984 . S
N395 H401 0.985 . S
C396 C390 1.379 . S
C396 C393 1.363 . S
C396 N394 1.356 . S
C397 C391 1.363 . S
C397 C392 1.379 . S
C397 N395 1.356 . S
N398 C390 1.356 . S
N398 H404 0.984 . S
N398 H405 0.984 . S
N399 C392 1.356 . S
N399 H402 0.984 . S
N399 H403 0.985 . S
H400 N395 0.984 . S
H401 N395 0.985 . S
H402 N399 0.984 . S
H403 N399 0.985 . S
H404 N398 0.984 . S
H405 N398 0.984 . S
H406 N394 0.984 . S
H407 N394 0.985 . S
C408 C409 1.363 . S
C408 C414 1.379 . S
C408 N416 1.356 1_655 S
C409 C408 1.363 . S
C409 C415 1.363 . S
C410 C411 1.363 . S
C410 C415 1.379 . S
C410 N417 1.356 . S
C411 C410 1.363 . S
C411 C414 1.363 . S
N412 C414 1.356 . S
N412 H424 0.984 . S
N412 H425 0.985 . S
N413 C415 1.356 1_455 S
N413 H418 0.984 . S
N413 H419 0.985 1_455 S
C414 C408 1.379 . S
C414 C411 1.363 . S
C414 N412 1.356 . S
C415 C409 1.363 . S
C415 C410 1.379 . S
C415 N413 1.356 1_655 S
N416 C408 1.356 1_455 S
N416 H422 0.984 1_455 S
N416 H423 0.984 . S
N417 C410 1.356 . S
N417 H420 0.984 . S
N417 H421 0.985 . S
H418 N413 0.984 . S
H419 N413 0.985 1_655 S
H420 N417 0.984 . S
H421 N417 0.985 . S
H422 N416 0.984 1_655 S
H423 N416 0.984 . S
H424 N412 0.984 . S
H425 N412 0.985 . S
C426 C427 1.363 . S
C426 C432 1.379 . S
C426 N434 1.356 . S
C427 C426 1.363 . S
C427 C433 1.363 . S
C428 C429 1.363 . S
C428 C433 1.379 . S
C428 N435 1.356 1_545 S
C429 C428 1.363 . S
C429 C432 1.363 . S
N430 C432 1.356 . S
N430 H442 0.984 . S
N430 H443 0.985 1_545 S
N431 C433 1.356 . S
N431 H436 0.984 . S
N431 H437 0.985 . S
C432 C426 1.379 . S
C432 C429 1.363 . S
C432 N430 1.356 . S
C433 C427 1.363 . S
C433 C428 1.379 . S
C433 N431 1.356 . S
N434 C426 1.356 . S
N434 H440 0.984 1_655 S
N434 H441 0.984 . S
N435 C428 1.356 1_565 S
N435 H438 0.984 . S
N435 H439 0.985 . S
H436 N431 0.984 . S
H437 N431 0.985 . S
H438 N435 0.984 . S
H439 N435 0.985 . S
H440 N434 0.984 1_455 S
H441 N434 0.984 . S
H442 N430 0.984 . S
H443 N430 0.985 1_565 S
C121 C99 2.227 . S
C123 C18 2.145 . S
C139 C118 2.105 . S
C141 C39 2.216 . S
C157 C58 2.145 . S
C159 C79 2.227 . S
C175 C19 2.216 . S
C177 C98 2.105 . S
C193 C119 2.227 . S
C195 C38 2.145 . S
C211 C59 2.216 . S
C213 C78 2.105 . S
C229 C4 1.423 . S
C231 C52 1.786 . S
C247 C24 1.423 . S
C249 C12 1.786 . S
C265 C44 1.423 . S
C267 C32 1.786 . S
C283 C69 1.541 . S
C285 C82 1.802 . S
C301 C89 1.541 . S
C303 C102 1.802 . S
C319 C62 1.802 . S
C321 C109 1.541 . S
C337 C2 1.310 . S
C339 C49 1.091 . S
C355 C22 1.310 . S
C357 C9 1.091 . S
C373 C42 1.310 . S
C375 C29 1.091 . S
C391 C72 1.288 . S
C393 C84 1.000 . S
C409 C92 1.288 1_655 S
C411 C104 1.000 . S
C427 C64 1.000 . S
C429 C112 1.288 1_545 S
