# Generated by pormake.
# Topology smm, (6)-cn, num edge types: 1
# Building blocks:
#     Node 0, Type 0, BuildingBlock: CUWYAW_clean_sbu_0, # of connection points: 6
#     Node 1, Type 0, BuildingBlock: CUWYAW_clean_sbu_0, # of connection points: 6
#     Node 2, Type 0, BuildingBlock: CUWYAW_clean_sbu_0, # of connection points: 6
#     Node 3, Type 0, BuildingBlock: CUWYAW_clean_sbu_0, # of connection points: 6
#     Node 4, Type 0, BuildingBlock: CUWYAW_clean_sbu_0, # of connection points: 6
#     Node 5, Type 0, BuildingBlock: CUWYAW_clean_sbu_0, # of connection points: 6
#     Node 6, Type 0, BuildingBlock: CUWYAW_clean_sbu_0, # of connection points: 6
#     Node 7, Type 0, BuildingBlock: CUWYAW_clean_sbu_0, # of connection points: 6
#     Node 8, Type 0, BuildingBlock: CUWYAW_clean_sbu_0, # of connection points: 6
#     Edge 9, Type (0, 0), BuildingBlock: CIFDUS_clean_linker_0, # of connection points: 2
#     Edge 10, Type (0, 0), BuildingBlock: CIFDUS_clean_linker_0, # of connection points: 2
#     Edge 11, Type (0, 0), BuildingBlock: CIFDUS_clean_linker_0, # of connection points: 2
#     Edge 12, Type (0, 0), BuildingBlock: CIFDUS_clean_linker_0, # of connection points: 2
#     Edge 13, Type (0, 0), BuildingBlock: CIFDUS_clean_linker_0, # of connection points: 2
#     Edge 14, Type (0, 0), BuildingBlock: CIFDUS_clean_linker_0, # of connection points: 2
#     Edge 15, Type (0, 0), BuildingBlock: CIFDUS_clean_linker_0, # of connection points: 2
#     Edge 16, Type (0, 0), BuildingBlock: CIFDUS_clean_linker_0, # of connection points: 2
#     Edge 17, Type (0, 0), BuildingBlock: CIFDUS_clean_linker_0, # of connection points: 2
#     Edge 18, Type (0, 0), BuildingBlock: CIFDUS_clean_linker_0, # of connection points: 2
#     Edge 19, Type (0, 0), BuildingBlock: CIFDUS_clean_linker_0, # of connection points: 2
#     Edge 20, Type (0, 0), BuildingBlock: CIFDUS_clean_linker_0, # of connection points: 2
#     Edge 21, Type (0, 0), BuildingBlock: CIFDUS_clean_linker_0, # of connection points: 2
#     Edge 22, Type (0, 0), BuildingBlock: CIFDUS_clean_linker_0, # of connection points: 2
#     Edge 23, Type (0, 0), BuildingBlock: CIFDUS_clean_linker_0, # of connection points: 2
#     Edge 24, Type (0, 0), BuildingBlock: CIFDUS_clean_linker_0, # of connection points: 2
#     Edge 25, Type (0, 0), BuildingBlock: CIFDUS_clean_linker_0, # of connection points: 2
#     Edge 26, Type (0, 0), BuildingBlock: CIFDUS_clean_linker_0, # of connection points: 2
#     Edge 27, Type (0, 0), BuildingBlock: CIFDUS_clean_linker_0, # of connection points: 2
#     Edge 28, Type (0, 0), BuildingBlock: CIFDUS_clean_linker_0, # of connection points: 2
#     Edge 29, Type (0, 0), BuildingBlock: CIFDUS_clean_linker_0, # of connection points: 2
#     Edge 30, Type (0, 0), BuildingBlock: CIFDUS_clean_linker_0, # of connection points: 2
#     Edge 31, Type (0, 0), BuildingBlock: CIFDUS_clean_linker_0, # of connection points: 2
#     Edge 32, Type (0, 0), BuildingBlock: CIFDUS_clean_linker_0, # of connection points: 2
#     Edge 33, Type (0, 0), BuildingBlock: CIFDUS_clean_linker_0, # of connection points: 2
#     Edge 34, Type (0, 0), BuildingBlock: CIFDUS_clean_linker_0, # of connection points: 2
#     Edge 35, Type (0, 0), BuildingBlock: CIFDUS_clean_linker_0, # of connection points: 2
# Relax obj value: 0.024
# Max RMSD: 0.097
# Mean RMSD: 0.097
data_MOF--net-smm--node1-CUWYAW_clean_sbu_0--edge1-CIFDUS_clean_linker_0
_symmetry_space_group_name_H-M    P1
_symmetry_Int_Tables_number       1
_symmetry_cell_setting            triclinic
loop_
_symmetry_equiv_pos_as_xyz
'x, y, z'
_cell_length_a     64.263337
_cell_length_b     64.389416
_cell_length_c     12.569079
_cell_angle_alpha  90.112738
_cell_angle_beta   89.976887
_cell_angle_gamma 120.05636
loop_
_atom_site_label
_atom_site_type_symbol
_atom_site_fract_x
_atom_site_fract_y
_atom_site_fract_z
_atom_type_partial_charge
C0 C 0.10474 0.19589 0.88506 0.0
Eu1 Eu 0.06982 0.20279 0.94647 0.0
C2 C 0.11484 0.17997 0.90625 0.0
C3 C 0.12552 0.1804 0.00459 0.0
C4 C 0.13675 0.16678 0.02007 0.0
C5 C 0.13757 0.15234 0.93782 0.0
C6 C 0.1264 0.15151 0.84033 0.0
C7 C 0.11527 0.16524 0.82468 0.0
C8 C 0.05638 0.20227 0.15107 0.0
C9 C 1.01837 0.152 0.95116 0.0
C10 C 0.98772 0.20937 0.05472 0.0
Eu11 Eu 1.02215 0.20327 0.97835 0.0
C12 C 0.97907 0.22672 0.06918 0.0
C13 C 0.96885 0.23291 0.98469 0.0
C14 C 0.9582 0.24702 0.0028 0.0
C15 C 0.95743 0.25526 0.10581 0.0
C16 C 0.96814 0.24948 0.18967 0.0
C17 C 0.97872 0.23535 0.17161 0.0
C18 C 1.03471 0.2022 0.7739 0.0
C19 C 0.07301 0.25413 0.95121 0.0
O20 O 0.08398 0.18655 0.83598 0.0
O21 O 0.10694 0.21103 0.95994 0.0
O22 O 0.07862 0.21267 0.1207 0.0
O23 O 0.04269 0.19122 0.0748 0.0
O24 O 0.04114 0.16375 0.9202 0.0
O25 O 1.0077 0.16333 -0.00872 0.0
O26 O 1.00637 0.21271 0.11059 0.0
O27 O 0.98742 0.20117 0.95888 0.0
O28 O 1.01249 0.19235 0.80528 0.0
O29 O 0.0487 0.21381 0.8486 0.0
O30 O 0.05096 0.24305 -0.00823 0.0
O31 O 0.08281 0.24184 0.91267 0.0
H32 H 0.12556 0.19154 0.06935 0.0
H33 H 0.14487 0.16761 0.09663 0.0
H34 H 0.12689 0.14081 0.77484 0.0
H35 H 0.1074 0.1647 0.74777 0.0
H36 H 0.96861 0.22644 0.90484 0.0
H37 H 0.95041 0.25134 0.93606 0.0
H38 H 0.96762 0.25519 0.27026 0.0
H39 H 0.98605 0.23058 0.23872 0.0
C40 C 0.88659 0.93262 0.89783 0.0
Eu41 Eu 0.88001 0.8912 0.96168 0.0
C42 C 0.90236 0.95877 0.91636 0.0
C43 C 0.89962 0.96999 0.00721 0.0
C44 C 0.91312 0.99493 0.01923 0.0
C45 C 0.92966 1.00933 0.94069 0.0
C46 C 0.93272 0.99805 0.85083 0.0
C47 C 0.91916 0.97309 0.83867 0.0
C48 C 0.8811 0.87905 0.16716 0.0
C49 C 0.93056 0.89009 0.96178 0.0
C50 C 0.87291 0.80314 0.07658 0.0
Eu51 Eu 0.87894 0.84312 -0.00452 0.0
C52 C 0.85493 0.77787 0.0982 0.0
C53 C 0.86295 0.76248 0.13361 0.0
C54 C 0.84654 0.73859 0.15859 0.0
C55 C 0.82163 0.72945 0.14838 0.0
C56 C 0.8136 0.74502 0.11281 0.0
C57 C 0.83013 0.76904 0.08785 0.0
C58 C 0.87981 0.85612 0.79018 0.0
C59 C 0.82831 0.84335 0.9673 0.0
O60 O 0.89596 0.92115 0.84966 0.0
O61 O 0.87172 0.91997 0.97393 0.0
O62 O 0.87062 0.89072 0.1364 0.0
O63 O 0.89183 0.87607 0.09055 0.0
O64 O 0.91886 0.90119 0.93189 0.0
O65 O 0.91921 0.86825 0.00336 0.0
O66 O 0.87113 0.81947 0.13158 0.0
O67 O 0.87896 0.80936 0.97728 0.0
O68 O 0.88969 0.84386 0.82224 0.0
O69 O 0.86839 0.85879 0.86485 0.0
O70 O 0.83912 0.83234 0.00966 0.0
O71 O 0.84093 0.86525 0.92777 0.0
H72 H 0.88676 0.95957 0.06852 0.0
H73 H 0.91052 1.00297 0.09008 0.0
H74 H 0.94507 1.00857 0.78813 0.0
H75 H 0.92146 0.96504 0.76716 0.0
H76 H 0.88201 0.76901 0.14307 0.0
H77 H 0.85345 0.72739 0.18765 0.0
H78 H 0.79459 0.73858 0.10318 0.0
H79 H 0.82358 0.7807 0.06088 0.0
C80 C 0.15025 0.97788 0.89631 0.0
Eu81 Eu 0.19187 1.0129 0.95938 0.0
C82 C 0.12413 0.96764 0.91609 0.0
C83 C 0.11382 0.95805 0.01572 0.0
C84 C 0.08888 0.94673 0.0302 0.0
C85 C 0.07365 0.94478 0.94565 0.0
C86 C 0.08405 0.95483 0.84673 0.0
C87 C 0.10898 0.96603 0.8321 0.0
C88 C 0.20416 0.0263 0.16473 0.0
C89 C 0.19244 0.06432 0.96072 0.0
C90 C 0.28014 0.09459 0.07216 0.0
Eu91 Eu 0.23978 0.06039 -0.00691 0.0
C92 C 0.30552 0.10166 0.09115 0.0
C93 C 0.31402 0.08555 0.07738 0.0
C94 C 0.33815 0.09278 0.0994 0.0
C95 C 0.35421 0.11627 0.13528 0.0
C96 C 0.34543 0.13223 0.14865 0.0
C97 C 0.3214 0.125 0.12676 0.0
C98 C 0.22664 0.04795 0.78797 0.0
C99 C 0.24012 1.00982 0.96604 0.0
O100 O 0.16166 0.99862 0.8477 0.0
O101 O 0.16307 0.9758 0.972 0.0
O102 O 0.19264 1.00413 0.13379 0.0
O103 O 0.20691 0.03995 0.0884 0.0
O104 O 0.1815 0.0415 0.93073 0.0
O105 O 0.21437 0.0751 0.00199 0.0
O106 O 0.26393 0.0766 0.12805 0.0
O107 O 0.27347 0.09427 0.97347 0.0
O108 O 0.23867 0.07012 0.8201 0.0
O109 O 0.22422 0.03397 0.8625 0.0
O110 O 0.25079 0.03169 0.00814 0.0
O111 O 0.21814 1.00008 0.92598 0.0
H112 H 0.12494 0.95897 0.08231 0.0
H113 H 0.08152 0.93948 0.10779 0.0
H114 H 0.07287 0.95344 0.77957 0.0
H115 H 0.1164 0.97306 0.75428 0.0
H116 H 0.30202 0.06742 0.04993 0.0
H117 H 0.34429 0.08006 0.08729 0.0
H118 H 0.35704 0.15029 0.17789 0.0
H119 H 0.31515 0.13765 0.13866 0.0
C120 C 0.76737 0.52067 0.2274 0.0
Eu121 Eu 0.73694 0.53396 0.2904 0.0
C122 C 0.77493 0.50292 0.25073 0.0
C123 C 0.79911 0.50951 0.2363 0.0
C124 C 0.80684 0.49301 0.25427 0.0
C125 C 0.79054 0.46943 0.2871 0.0
C126 C 0.76629 0.46293 0.30263 0.0
C127 C 0.75856 0.47953 0.28487 0.0
C128 C 0.73165 0.54189 0.49992 0.0
C129 C 0.68395 0.48754 0.32855 0.0
C130 C 0.66571 0.5535 0.41539 0.0
Eu131 Eu 0.69581 0.54183 0.33254 0.0
C132 C 0.65708 0.57084 0.42868 0.0
C133 C 0.64705 0.57704 0.34365 0.0
C134 C 0.63538 0.59019 0.36196 0.0
C135 C 0.63338 0.59736 0.46569 0.0
C136 C 0.64427 0.59191 0.54984 0.0
C137 C 0.65591 0.57878 0.5315 0.0
C138 C 0.69998 0.53275 0.12342 0.0
C139 C 0.74775 0.58778 0.2672 0.0
O140 O 0.74611 0.51276 0.18501 0.0
O141 O 0.77248 0.53731 0.29886 0.0
O142 O 0.7521 0.55021 0.45201 0.0
O143 O 0.71487 0.52898 0.43649 0.0
O144 O 0.70537 0.49589 0.2851 0.0
O145 O 0.67727 0.50222 0.36898 0.0
O146 O 0.68578 0.55797 0.46182 0.0
O147 O 0.66221 0.54235 0.32431 0.0
O148 O 0.67967 0.52541 0.17213 0.0
O149 O 0.71715 0.54577 0.18514 0.0
O150 O 0.72719 0.58055 0.31825 0.0
O151 O 0.75366 0.57203 0.23282 0.0
H152 H 0.81202 0.52744 0.20973 0.0
H153 H 0.82554 0.49859 0.23986 0.0
H154 H 0.75328 0.44503 0.32892 0.0
H155 H 0.73982 0.47405 0.29719 0.0
H156 H 0.64753 0.57111 0.26346 0.0
H157 H 0.62756 0.59439 0.29494 0.0
H158 H 0.64289 0.59685 0.63085 0.0
H159 H 0.66315 0.57395 0.59878 0.0
C160 C 0.5554 0.26912 0.21944 0.0
Eu161 Eu 0.55069 0.2281 0.27746 0.0
C162 C 0.57309 0.29505 0.23327 0.0
C163 C 0.57413 0.30726 0.32795 0.0
C164 C 0.59066 0.3318 0.3391 0.0
C165 C 0.60653 0.34473 0.25594 0.0
C166 C 0.60536 0.33252 0.16115 0.0
C167 C 0.5888 0.30804 0.14985 0.0
C168 C 0.54655 0.2136 0.48182 0.0
C169 C 0.59727 0.22366 0.31926 0.0
C170 C 0.53675 0.1368 0.38493 0.0
Eu171 Eu 0.54174 0.17691 0.31002 0.0
C172 C 0.51793 0.11186 0.41211 0.0
C173 C 0.51485 0.09274 0.34713 0.0
C174 C 0.49861 0.06896 0.37515 0.0
C175 C 0.48511 0.06357 0.46961 0.0
C176 C 0.48786 0.08275 0.53382 0.0
C177 C 0.50412 0.1066 0.50562 0.0
C178 C 0.54586 0.19098 0.10523 0.0
C179 C 0.49651 0.18204 0.2472 0.0
O180 O 0.56198 0.25666 0.16003 0.0
O181 O 0.54319 0.25721 0.30332 0.0
O182 O 0.56141 0.2353 0.45081 0.0
O183 O 0.53391 0.20093 0.4052 0.0
O184 O 0.58919 0.23774 0.28598 0.0
O185 O 0.58261 0.20044 0.33889 0.0
O186 O 0.53881 0.15435 0.44527 0.0
O187 O 0.54005 0.14257 0.28405 0.0
O188 O 0.53158 0.16907 0.13617 0.0
O189 O 0.55828 0.20386 0.18194 0.0
O190 O 0.5031 0.16835 0.29872 0.0
O191 O 0.51238 0.20431 0.21928 0.0
H192 H 0.56219 0.2979 0.39367 0.0
H193 H 0.59119 0.34058 0.41345 0.0
H194 H 0.61703 0.34199 0.09479 0.0
H195 H 0.58824 0.29927 0.07538 0.0
H196 H 0.5253 0.09614 0.27502 0.0
H197 H 0.49672 0.05476 0.32268 0.0
H198 H 0.47797 0.07932 0.60759 0.0
H199 H 0.50618 0.12086 0.55822 0.0
C200 C 0.81633 0.30552 0.25878 0.0
Eu201 Eu 0.85628 0.34403 0.31434 0.0
C202 C 0.78987 0.29414 0.27377 0.0
C203 C 0.77717 0.27138 0.32119 0.0
C204 C 0.75211 0.25971 0.33227 0.0
C205 C 0.73899 0.27041 0.29559 0.0
C206 C 0.7518 0.29335 0.24882 0.0
C207 C 0.77691 0.30507 0.2381 0.0
C208 C 0.87048 0.35598 0.51871 0.0
C209 C 0.85824 0.39398 0.35431 0.0
C210 C 0.94525 0.42671 0.41895 0.0
Eu211 Eu 0.90673 0.3887 0.34753 0.0
C212 C 0.97144 0.43765 0.4359 0.0
C213 C 0.98557 0.46272 0.43775 0.0
C214 C 1.01033 0.47396 0.45586 0.0
C215 C 1.02171 0.46038 0.47237 0.0
C216 C 1.00745 0.43513 0.47078 0.0
C217 C 0.98253 0.42386 0.45255 0.0
C218 C 0.89281 0.37713 0.14279 0.0
C219 C 0.90518 0.33994 0.29122 0.0
O220 O 0.82719 0.32486 0.19994 0.0
O221 O 0.82904 0.30657 0.34205 0.0
O222 O 0.8485 0.34769 0.48713 0.0
O223 O 0.88354 0.3566 0.4428 0.0
O224 O 0.84521 0.37214 0.3144 0.0
O225 O 0.88097 0.40259 0.38354 0.0
O226 O 0.93089 0.40845 0.4787 0.0
O227 O 0.93768 0.42443 0.32073 0.0
O228 O 0.91496 0.38611 0.17412 0.0
O229 O 0.8796 0.37612 0.2189 0.0
O230 O 0.91749 0.36059 0.34217 0.0
O231 O 0.88259 0.33174 0.26007 0.0
H232 H 0.78665 0.26248 0.3492 0.0
H233 H 0.74305 0.24228 0.37014 0.0
H234 H 0.74241 0.3021 0.21817 0.0
H235 H 0.78609 0.32256 0.20077 0.0
H236 H 0.97737 0.47371 0.42586 0.0
H237 H 1.02053 0.49337 0.45832 0.0
H238 H 1.01558 0.42408 0.48215 0.0
H239 H 0.97197 0.40444 0.45142 0.0
C240 C 0.43182 0.85426 0.5349 0.0
Eu241 Eu 0.40218 0.86788 0.60451 0.0
C242 C 0.43831 0.83542 0.55195 0.0
C243 C 0.44994 0.83469 0.64548 0.0
C244 C 0.45786 0.81812 0.656 0.0
C245 C 0.45437 0.80191 0.57337 0.0
C246 C 0.44217 0.80224 0.48108 0.0
C247 C 0.43433 0.81888 0.47039 0.0
C248 C 0.39714 0.87511 0.81523 0.0
C249 C 0.34938 0.8211 0.64445 0.0
C250 C 0.33142 0.88732 0.73499 0.0
Eu251 Eu 0.36113 0.87546 0.64958 0.0
C252 C 0.32384 0.90545 0.74885 0.0
C253 C 0.31367 0.91175 0.66479 0.0
C254 C 0.30287 0.92566 0.68398 0.0
C255 C 0.30189 0.9335 0.78763 0.0
C256 C 0.31308 0.92811 0.8706 0.0
C257 C 0.32384 0.91418 0.85142 0.0
C258 C 0.36535 0.86728 0.43922 0.0
C259 C 0.41332 0.92189 0.58978 0.0
O260 O 0.41099 0.84772 0.49069 0.0
O261 O 0.43716 0.87022 0.61014 0.0
O262 O 0.41756 0.88347 0.76688 0.0
O263 O 0.38027 0.86241 0.75165 0.0
O264 O 0.37083 0.8296 0.60112 0.0
O265 O 0.3425 0.83571 0.6841 0.0
O266 O 0.35126 0.89109 0.78128 0.0
O267 O 0.32774 0.87642 0.64313 0.0
O268 O 0.34502 0.85955 0.48833 0.0
O269 O 0.38248 0.88016 0.50143 0.0
O270 O 0.39246 0.91426 0.63878 0.0
O271 O 0.41948 0.90645 0.55378 0.0
H272 H 0.45333 0.84717 0.70998 0.0
H273 H 0.4669 0.81813 0.72872 0.0
H274 H 0.4394 0.7902 0.41546 0.0
H275 H 0.42562 0.81917 0.39705 0.0
H276 H 0.31329 0.90527 0.58483 0.0
H277 H 0.29477 0.9298 0.61788 0.0
H278 H 0.31249 0.93363 0.95147 0.0
H279 H 0.33127 0.90935 0.91797 0.0
C280 C 0.22356 0.60194 0.55986 0.0
Eu281 Eu 0.21416 0.55966 0.6259 0.0
C282 C 0.24124 0.62768 0.5734 0.0
C283 C 0.26508 0.63571 0.60426 0.0
C284 C 0.28146 0.66035 0.61508 0.0
C285 C 0.27426 0.67741 0.5957 0.0
C286 C 0.25026 0.66914 0.56569 0.0
C287 C 0.23398 0.64457 0.55471 0.0
C288 C 0.2135 0.54657 0.83123 0.0
C289 C 0.26243 0.55429 0.63503 0.0
C290 C 0.19988 0.46849 0.73913 0.0
Eu291 Eu 0.20888 0.5096 0.65972 0.0
C292 C 0.1818 0.44269 0.75164 0.0
C293 C 0.17586 0.42641 0.66677 0.0
C294 C 0.16162 0.40169 0.68397 0.0
C295 C 0.15303 0.39262 0.78641 0.0
C296 C 0.15815 0.40898 0.87028 0.0
C297 C 0.17246 0.4337 0.85313 0.0
C298 C 0.2106 0.523 0.45427 0.0
C299 C 0.16045 0.51391 0.63422 0.0
O300 O 0.23069 0.58868 0.51012 0.0
O301 O 0.2098 0.59103 0.64162 0.0
O302 O 0.20469 0.55978 0.80023 0.0
O303 O 0.22368 0.54265 0.75512 0.0
O304 O 0.25275 0.56722 0.60276 0.0
O305 O 0.24908 0.53252 0.67508 0.0
O306 O 0.19649 0.48415 0.79161 0.0
O307 O 0.20946 0.47619 0.64508 0.0
O308 O 0.21869 0.50916 0.48589 0.0
O309 O 0.20015 0.52689 0.52935 0.0
O310 O 0.17009 0.50164 0.67475 0.0
O311 O 0.17415 0.53577 0.59495 0.0
H312 H 0.27104 0.62296 0.61978 0.0
H313 H 0.29971 0.66603 0.63939 0.0
H314 H 0.24413 0.68167 0.54847 0.0
H315 H 0.21566 0.63874 0.53073 0.0
H316 H 0.18282 0.43267 0.58761 0.0
H317 H 0.15772 0.38961 0.61726 0.0
H318 H 0.15206 0.40264 0.95031 0.0
H319 H 0.17698 0.44577 0.92038 0.0
C320 C 0.48221 0.64776 0.56212 0.0
Eu321 Eu 0.52475 0.68019 0.62935 0.0
C322 C 0.45651 0.64103 0.57322 0.0
C323 C 0.44263 0.62708 0.65953 0.0
C324 C 0.41804 0.61932 0.66565 0.0
C325 C 0.40658 0.62518 0.5854 0.0
C326 C 0.42055 0.63946 0.49993 0.0
C327 C 0.44516 0.6472 0.49373 0.0
C328 C 0.53748 0.69276 0.83518 0.0
C329 C 0.52864 0.73305 0.6397 0.0
C330 C 0.61454 0.75906 0.74718 0.0
Eu331 Eu 0.57416 0.72592 0.66507 0.0
C332 C 0.64066 0.76885 0.75902 0.0
C333 C 0.65553 0.79381 0.76259 0.0
C334 C 0.68019 0.8041 0.77994 0.0
C335 C 0.69069 0.78966 0.79385 0.0
C336 C 0.67573 0.76452 0.79031 0.0
C337 C 0.65089 0.75418 0.7729 0.0
C338 C 0.56125 0.71402 0.45882 0.0
C339 C 0.57141 0.67391 0.63939 0.0
O340 O 0.4964 0.66736 0.50912 0.0
O341 O 0.49281 0.64487 0.64517 0.0
O342 O 0.52487 0.67067 0.80353 0.0
O343 O 0.54103 0.70677 0.75934 0.0
O344 O 0.51645 0.71055 0.60534 0.0
O345 O 0.55027 0.74195 0.6821 0.0
O346 O 0.59997 0.73887 0.79538 0.0
O347 O 0.60655 0.76118 0.65435 0.0
O348 O 0.57467 0.73602 0.49092 0.0
O349 O 0.5576 0.6998 0.53393 0.0
O350 O 0.58315 0.69594 0.67953 0.0
O351 O 0.54935 0.66487 0.60026 0.0
H352 H 0.45066 0.62182 0.72198 0.0
H353 H 0.40797 0.60865 0.73342 0.0
H354 H 0.41233 0.6441 0.436 0.0
H355 H 0.45522 0.65766 0.42545 0.0
H356 H 0.64797 0.80545 0.75346 0.0
H357 H 0.69099 0.82347 0.78418 0.0
H358 H 0.68325 0.75289 0.79993 0.0
H359 H 0.63971 0.73482 0.77086 0.0
H360 H 0.11286 0.28113 0.83159 0.0
H361 H 0.06156 0.28662 0.03414 0.0
H362 H 0.08162 0.32984 0.00115 0.0
H363 H 0.11348 0.36609 0.91197 0.0
H364 H 0.16418 0.35987 0.70824 0.0
H365 H 0.14438 0.31693 0.74346 0.0
C366 C 0.1061 0.29174 0.86934 0.0
C367 C 0.08576 0.28056 0.93579 0.0
C368 C 0.1175 0.31649 0.84886 0.0
C369 C 0.0772 0.29469 0.98283 0.0
C370 C 0.08865 0.31943 0.96383 0.0
C371 C 0.12024 0.35534 0.87567 0.0
C372 C 0.14024 0.36626 0.80692 0.0
C373 C 0.10876 0.33053 0.89655 0.0
C374 C 0.1486 0.35196 0.75987 0.0
C375 C 0.1374 0.32739 0.78067 0.0
H376 H 0.80341 0.85451 0.82799 0.0
H377 H 0.79394 0.80174 0.06304 0.0
H378 H 0.75051 0.77988 0.02836 0.0
H379 H 0.71506 0.77642 0.93281 0.0
H380 H 0.72604 0.82886 0.69277 0.0
H381 H 0.76903 0.85014 0.72823 0.0
C382 C 0.79191 0.83831 0.87244 0.0
C383 C 0.80193 0.82997 0.94908 0.0
C384 C 0.76716 0.82572 0.85097 0.0
C385 C 0.7867 0.80865 0.00407 0.0
C386 C 0.76186 0.79613 0.98411 0.0
C387 C 0.7269 0.79233 0.88743 0.0
C388 C 0.71716 0.80116 0.81117 0.0
C389 C 0.75186 0.80453 0.9077 0.0
C390 C 0.73286 0.8219 0.75351 0.0
C391 C 0.75751 0.83407 0.77338 0.0
H392 H 0.22849 0.97117 0.83985 0.0
H393 H 0.28371 1.021 0.05295 0.0
H394 H 0.30779 1.00203 0.01641 0.0
H395 H 0.31351 0.97166 0.92073 0.0
H396 H 0.25809 0.92232 0.70696 0.0
H397 H 0.23401 0.94098 0.74591 0.0
C398 C 0.2457 0.97782 0.8792 0.0
C399 C 0.25418 0.99747 0.94947 0.0
C400 C 0.2596 0.96706 0.85669 0.0
C401 C 0.27668 1.00592 -0.00144 0.0
C402 C 0.2905 0.99509 0.97754 0.0
C403 C 0.29612 0.96493 0.88302 0.0
C404 C 0.28777 0.94568 0.81028 0.0
C405 C 0.28221 0.97572 0.90619 0.0
C406 C 0.26525 0.93737 0.76158 0.0
C407 C 0.25132 0.9479 0.78454 0.0
H408 H 0.45754 0.13715 0.28464 0.0
H409 H 0.47747 0.20565 0.14216 0.0
H410 H 0.43588 0.19118 0.09303 0.0
H411 H 0.39371 0.1595 0.0907 0.0
H412 H 0.37279 0.09105 0.23472 0.0
H413 H 0.41475 0.10492 0.28072 0.0
C414 C 0.4528 0.14891 0.24287 0.0
C415 C 0.47082 0.17255 0.21779 0.0
C416 C 0.42858 0.14046 0.21433 0.0
C417 C 0.46418 0.18742 0.16314 0.0
C418 C 0.4403 0.17917 0.13469 0.0
C419 C 0.39823 0.14762 0.13294 0.0
C420 C 0.37995 0.12427 0.15957 0.0
C421 C 0.42234 0.15579 0.16017 0.0
C422 C 0.3864 0.10903 0.21217 0.0
C423 C 0.41043 0.11702 0.23926 0.0
H424 H 0.89062 0.30138 0.15673 0.0
H425 H 0.94782 0.34748 0.37142 0.0
H426 H 0.96893 0.32583 0.33222 0.0
H427 H 0.97159 0.29397 0.23696 0.0
H428 H 0.91471 0.24762 0.02208 0.0
H429 H 0.89344 0.26937 0.06003 0.0
C430 C 0.90765 0.30663 0.19527 0.0
C431 C 0.91748 0.32606 0.26725 0.0
C432 C 0.91996 0.29415 0.17173 0.0
C433 C 0.93972 0.33267 0.31558 0.0
C434 C 0.95189 0.32028 0.29326 0.0
C435 C 0.95446 0.28849 0.19886 0.0
C436 C 0.94484 0.26911 0.12672 0.0
C437 C 0.94222 0.301 0.22148 0.0
C438 C 0.92278 0.26262 0.0769 0.0
C439 C 0.91047 0.27496 0.09919 0.0
H440 H 0.82609 0.69043 0.10491 0.0
H441 H 0.77814 0.71059 0.25225 0.0
H442 H 0.7509 0.66875 0.30195 0.0
H443 H 0.74116 0.62625 0.30717 0.0
H444 H 0.79039 0.60732 0.162 0.0
H445 H 0.81668 0.64877 0.11027 0.0
C446 C 0.80981 0.68579 0.14882 0.0
C447 C 0.80436 0.7038 0.17519 0.0
C448 C 0.79442 0.6618 0.17839 0.0
C449 C 0.78279 0.69717 0.22985 0.0
C450 C 0.76725 0.67323 0.25909 0.0
C451 C 0.75766 0.63121 0.26452 0.0
C452 C 0.76368 0.6135 0.23904 0.0
C453 C 0.77295 0.65535 0.23439 0.0
C454 C 0.78516 0.62038 0.1832 0.0
C455 C 0.8003 0.64417 0.15319 0.0
H456 H 0.13508 0.52637 0.50064 0.0
H457 H 0.12603 0.47344 0.73408 0.0
H458 H 0.08257 0.45207 0.70438 0.0
H459 H 0.04694 0.44829 0.61143 0.0
H460 H 0.05664 0.5005 0.37266 0.0
H461 H 0.09981 0.52216 0.40555 0.0
C462 C 0.12361 0.51027 0.54582 0.0
C463 C 0.13389 0.50167 0.6201 0.0
C464 C 0.09864 0.49783 0.52711 0.0
C465 C 0.11868 0.48055 0.67656 0.0
C466 C 0.09378 0.46826 0.65947 0.0
C467 C 0.0585 0.46427 0.5658 0.0
C468 C 0.04832 0.47277 0.49023 0.0
C469 C 0.08353 0.47665 0.58448 0.0
C470 C 0.06374 0.4937 0.43279 0.0
C471 C 0.08853 0.50609 0.45115 0.0
H472 H 0.55999 0.63569 0.50868 0.0
H473 H 0.61326 0.68294 0.73532 0.0
H474 H 0.63707 0.66367 0.70163 0.0
H475 H 0.64352 0.63423 0.60387 0.0
H476 H 0.59039 0.58714 0.37641 0.0
H477 H 0.56615 0.60579 0.41301 0.0
C478 C 0.57667 0.6416 0.55168 0.0
C479 C 0.58471 0.66071 0.62486 0.0
C480 C 0.59054 0.63068 0.53064 0.0
C481 C 0.60656 0.66829 0.67864 0.0
C482 C 0.62026 0.65731 0.65922 0.0
C483 C 0.62656 0.6279 0.56279 0.0
C484 C 0.61895 0.60932 0.48697 0.0
C485 C 0.61255 0.63863 0.58471 0.0
C486 C 0.59701 0.60165 0.43371 0.0
C487 C 0.58297 0.61218 0.45531 0.0
H488 H 0.49336 0.02612 0.45232 0.0
H489 H 0.44017 0.04347 0.56084 0.0
H490 H 0.41357 1.00157 0.61151 0.0
H491 H 0.40492 0.95948 0.62054 0.0
H492 H 0.45844 0.94292 0.50713 0.0
H493 H 0.48505 0.98479 0.46204 0.0
C494 C 0.47585 1.02077 0.48598 0.0
C495 C 0.46882 0.03804 0.50186 0.0
C496 C 0.46057 0.99664 0.51412 0.0
C497 C 0.44623 0.0307 0.54823 0.0
C498 C 0.43091 1.00667 0.57679 0.0
C499 C 0.42244 0.96505 0.58643 0.0
C500 C 0.42951 0.94787 0.56719 0.0
C501 C 0.43783 0.9894 0.55972 0.0
C502 C 0.45233 0.95555 0.52265 0.0
C503 C 0.46766 0.97959 0.49669 0.0
H504 H 0.20621 0.10994 0.02866 0.0
H505 H 0.14871 0.04886 0.8673 0.0
H506 H 0.1268 0.0704 0.84679 0.0
H507 H 0.12372 0.1066 0.87387 0.0
H508 H 0.18105 0.16774 0.03483 0.0
H509 H 0.20295 0.14611 0.05706 0.0
C510 C 0.1889 0.10132 -0.01106 0.0
C511 C 0.17925 0.07776 0.94951 0.0
C512 C 0.17622 0.11381 0.97755 0.0
C513 C 0.15669 0.06694 0.89864 0.0
C514 C 0.14408 0.07926 0.8867 0.0
C515 C 0.14108 0.11526 0.91324 0.0
C516 C 0.15065 0.1388 0.9526 0.0
C517 C 0.15366 0.10272 0.92559 0.0
C518 C 0.17304 0.14955 0.00486 0.0
C519 C 0.18568 0.13723 0.01706 0.0
H520 H 0.9768 0.04039 0.89345 0.0
H521 H 0.91268 0.03837 0.01048 0.0
H522 H 0.93433 0.08205 0.02552 0.0
H523 H 0.97138 0.12101 0.00308 0.0
H524 H 0.03529 0.12286 0.8832 0.0
H525 H 1.01375 0.07926 0.8707 0.0
C526 C 0.9675 0.0495 0.92154 0.0
C527 C 0.94312 0.03601 0.95096 0.0
C528 C 0.98002 0.07469 0.92929 0.0
C529 C 0.93151 0.04819 -0.01128 0.0
C530 C 0.94385 0.07322 -0.00331 0.0
C531 C 0.98062 0.11191 0.97424 0.0
C532 C 1.00496 0.12536 0.94406 0.0
C533 C 0.96811 0.08668 0.96705 0.0
C534 C 1.01657 0.11312 0.90688 0.0
C535 C 1.00426 0.0881 0.89968 0.0
H536 H 0.96236 0.87695 0.03715 0.0
H537 H 0.95889 0.93263 0.86069 0.0
H538 H 1.00243 0.95431 0.84081 0.0
H539 H 0.04173 0.95776 0.87315 0.0
H540 H 0.04555 0.90239 0.04977 0.0
H541 H 1.00188 0.8806 0.07075 0.0
C542 C 0.9711 0.8938 -0.00582 0.0
C543 C 0.9572 0.90303 0.95043 0.0
C544 C 0.99633 0.90638 0.98335 0.0
C545 C 0.96898 0.92501 0.8955 0.0
C546 C 0.99397 0.93748 0.8839 0.0
C547 C 1.03301 0.94085 0.91566 0.0
C548 C 0.04699 0.93178 0.95973 0.0
C549 C 1.00784 0.92835 0.92734 0.0
C550 C 0.03533 0.90999 0.01604 0.0
C551 C 1.0103 0.89741 0.02755 0.0
H552 H 0.83232 0.47665 0.37806 0.0
H553 H 0.76737 0.42205 0.22796 0.0
H554 H 0.78181 0.39354 0.24137 0.0
H555 H 0.81386 0.38468 0.28663 0.0
H556 H 0.87918 0.43972 0.43323 0.0
H557 H 0.86365 0.46736 0.42947 0.0
C558 C 0.82132 0.45854 0.34793 0.0
C559 C 0.7988 0.45164 0.30156 0.0
C560 C 0.82986 0.44226 0.35483 0.0
C561 C 0.78466 0.42789 0.26496 0.0
C562 C 0.79299 0.41158 0.27193 0.0
C563 C 0.82466 0.40265 0.31863 0.0
C564 C 0.84777 0.41003 0.35971 0.0
C565 C 0.81569 0.41863 0.31559 0.0
C566 C 0.8614 0.43345 0.40077 0.0
C567 C 0.85254 0.44935 0.39855 0.0
H568 H 0.69186 0.45234 0.25368 0.0
H569 H 0.63791 0.46338 0.40596 0.0
H570 H 0.60951 0.42027 0.39966 0.0
H571 H 0.59943 0.37951 0.34465 0.0
H572 H 0.65356 0.36872 0.19299 0.0
H573 H 0.68231 0.41164 0.2047 0.0
C574 C 0.67394 0.44537 0.28608 0.0
C575 C 0.66709 0.4612 0.33003 0.0
C576 C 0.65762 0.42056 0.28164 0.0
C577 C 0.64374 0.4517 0.37161 0.0
C578 C 0.62744 0.42701 0.36788 0.0
C579 C 0.6176 0.3865 0.31527 0.0
C580 C 0.62422 0.37085 0.26737 0.0
C581 C 0.63411 0.41128 0.3223 0.0
C582 C 0.6478 0.38034 0.22862 0.0
C583 C 0.66432 0.4049 0.23579 0.0
H584 H 0.62513 0.20241 0.29962 0.0
H585 H 0.62919 0.27024 0.36265 0.0
H586 H 0.67291 0.29039 0.36458 0.0
H587 H 0.71023 0.2894 0.34144 0.0
H588 H 0.70686 0.22223 0.26929 0.0
H589 H 0.66304 0.20137 0.27949 0.0
C590 C 0.63561 0.22152 0.31514 0.0
C591 C 0.62379 0.23474 0.33072 0.0
C592 C 0.66102 0.23326 0.31408 0.0
C593 C 0.63773 0.25959 0.34967 0.0
C594 C 0.66281 0.2712 0.35075 0.0
C595 C 0.69998 0.27022 0.32709 0.0
C596 C 0.71209 0.25756 0.30435 0.0
C597 C 0.67468 0.25832 0.33134 0.0
C598 C 0.69826 0.23256 0.28828 0.0
C599 C 0.67308 0.22056 0.29343 0.0
H600 H 0.48381 0.72144 0.5673 0.0
H601 H 0.54873 0.77976 0.70212 0.0
H602 H 0.53137 0.80571 0.69526 0.0
H603 H 0.49822 0.81237 0.64869 0.0
H604 H 0.43306 0.75451 0.51469 0.0
H605 H 0.45012 0.72804 0.52287 0.0
C606 C 0.49416 0.73981 0.59528 0.0
C607 C 0.51759 0.74853 0.63518 0.0
C608 C 0.48405 0.75482 0.59111 0.0
C609 C 0.53068 0.77244 0.67104 0.0
C610 C 0.52076 0.78738 0.66721 0.0
C611 C 0.4876 0.79388 0.62252 0.0
C612 C 0.46435 0.78547 0.58145 0.0
C613 C 0.49751 0.77879 0.62737 0.0
C614 C 0.45108 0.76155 0.54584 0.0
C615 C 0.46079 0.74637 0.55085 0.0
H616 H 0.26672 0.71243 0.67876 0.0
H617 H 0.32122 0.70176 0.53013 0.0
H618 H 0.34934 0.74491 0.53557 0.0
H619 H 0.35809 0.78587 0.5761 0.0
H620 H 0.30339 0.79667 0.72208 0.0
H621 H 0.27576 0.75339 0.72292 0.0
C622 C 0.28471 0.71952 0.64702 0.0
C623 C 0.29172 0.70373 0.60379 0.0
C624 C 0.30078 0.74446 0.64942 0.0
C625 C 0.31532 0.71333 0.56496 0.0
C626 C 0.3314 0.73808 0.56733 0.0
C627 C 0.34015 0.77881 0.60847 0.0
C628 C 0.33288 0.79466 0.64861 0.0
C629 C 0.32428 0.75384 0.60856 0.0
C630 C 0.30955 0.78502 0.69047 0.0
C631 C 0.29368 0.76022 0.69093 0.0
H632 H 0.37135 0.58055 0.64466 0.0
H633 H 0.38201 0.64856 0.53378 0.0
H634 H 0.33857 0.63282 0.5378 0.0
H635 H 0.29731 0.59957 0.57382 0.0
H636 H 0.28751 0.53194 0.68713 0.0
H637 H 0.33068 0.54784 0.68225 0.0
C638 C 0.36426 0.59208 0.62255 0.0
C639 C 0.38007 0.61577 0.58929 0.0
C640 C 0.33928 0.58296 0.62544 0.0
C641 C 0.37034 0.63019 0.55876 0.0
C642 C 0.34546 0.62123 0.56151 0.0
C643 C 0.30461 0.5883 0.59741 0.0
C644 C 0.28898 0.56453 0.63088 0.0
C645 C 0.32971 0.59759 0.59462 0.0
C646 C 0.29891 0.55028 0.66119 0.0
C647 C 0.3237 0.55935 0.65842 0.0
H648 H 1.00652 0.18258 0.60026 0.0
H649 H 0.0805 0.22521 0.69962 0.0
H650 H 0.09378 0.22926 0.51507 0.0
H651 H 0.08435 0.22115 0.32516 0.0
H652 H 1.01049 0.17795 0.22535 0.0
H653 H 0.99713 0.17382 0.41007 0.0
C654 C 1.02553 0.19268 0.58124 0.0
C655 C 0.0425 0.20366 0.66287 0.0
C656 C 1.03304 0.19497 0.47497 0.0
C657 C 0.0671 0.21666 0.63776 0.0
C658 C 0.07471 0.21901 0.53235 0.0
C659 C 0.06534 0.21087 0.34405 0.0
C660 C 0.04841 0.20003 0.26223 0.0
C661 C 0.05784 0.20836 0.4503 0.0
C662 C 1.02384 0.18663 0.28731 0.0
C663 C 1.01619 0.18419 0.39282 0.0
H664 H 0.90042 0.84861 0.61679 0.0
H665 H 0.85618 0.87811 0.71501 0.0
H666 H 0.85252 0.88769 0.53076 0.0
H667 H 0.86139 0.8872 0.34113 0.0
H668 H 0.9063 0.85854 0.24234 0.0
H669 H 0.91008 0.84896 0.42685 0.0
C670 C 0.89004 0.85717 0.59759 0.0
C671 C 0.8785 0.86254 0.67897 0.0
C672 C 0.88801 0.86266 0.49134 0.0
C673 C 0.86517 0.87372 0.6535 0.0
C674 C 0.86304 0.8792 0.54819 0.0
C675 C 0.87199 0.87885 0.36018 0.0
C676 C 0.88336 0.87337 0.27854 0.0
C677 C 0.87428 0.87364 0.46642 0.0
C678 C 0.89717 0.86269 0.30401 0.0
C679 C 0.89941 0.85729 0.40945 0.0
H680 H 0.23413 0.07601 0.61514 0.0
H681 H 0.20482 1.00233 0.71225 0.0
H682 H 0.1954 0.98909 0.52764 0.0
H683 H 0.19601 0.99847 0.33814 0.0
H684 H 0.22456 0.07199 0.24051 0.0
H685 H 0.23393 0.08532 0.42538 0.0
C686 C 0.22564 0.05707 0.59563 0.0
C687 C 0.22027 0.04018 0.67672 0.0
C688 C 0.22027 0.04958 0.48924 0.0
C689 C 0.20919 1.01568 0.6509 0.0
C690 C 0.20382 1.00809 0.54541 0.0
C691 C 0.20429 1.0174 0.35752 0.0
C692 C 0.20979 0.03425 0.27617 0.0
C693 C 0.20939 0.02488 0.4639 0.0
C694 C 0.22038 0.05871 0.30201 0.0
C695 C 0.22567 0.06633 0.40762 0.0
H696 H 0.69078 0.51898 0.62169 0.0
H697 H 0.76734 0.567 0.64275 0.0
H698 H 0.76461 0.56814 0.83623 0.0
H699 H 0.74057 0.55542 0.00111 0.0
H700 H 0.66399 0.50752 0.98105 0.0
H701 H 0.66664 0.5063 0.78723 0.0
C702 C 0.70683 0.52973 0.66872 0.0
C703 C 0.72924 0.54285 0.61746 0.0
C704 C 0.70516 0.53025 0.78078 0.0
C705 C 0.74986 0.55668 0.67983 0.0
C706 C 0.74833 0.55733 0.79077 0.0
C707 C 0.72448 0.54466 0.9543 0.0
C708 C 0.70211 0.53158 0.00581 0.0
C709 C 0.72611 0.54414 0.84236 0.0
C710 C 0.68144 0.51778 0.94368 0.0
C711 C 0.68293 0.51709 0.83259 0.0
H712 H 0.57263 0.23915 0.65192 0.0
H713 H 0.51297 0.17025 0.56186 0.0
H714 H 0.50754 0.15712 0.74731 0.0
H715 H 0.51966 0.16539 0.93531 0.0
H716 H 0.57917 0.23438 0.02528 0.0
H717 H 0.58461 0.24747 0.83982 0.0
C718 C 0.55844 0.22127 0.67303 0.0
C719 C 0.54331 0.20562 0.59354 0.0
C720 C 0.55533 0.21394 0.77978 0.0
C721 C 0.52497 0.18253 0.62172 0.0
C722 C 0.52181 0.17505 0.72772 0.0
C723 C 0.53381 0.18328 0.91414 0.0
C724 C 0.54895 0.19894 -0.00644 0.0
C725 C 0.53687 0.19062 0.80739 0.0
C726 C 0.56719 0.22208 0.96543 0.0
C727 C 0.57036 0.22954 0.85944 0.0
H728 H 0.84422 0.35472 0.68958 0.0
H729 H 0.91445 0.36774 0.5981 0.0
H730 H 0.92762 0.37546 0.78353 0.0
H731 H 0.91906 0.37829 0.97206 0.0
H732 H 0.84868 0.36479 0.06378 0.0
H733 H 0.83555 0.35719 0.87826 0.0
C734 C 0.8624 0.35928 0.71042 0.0
C735 C 0.87841 0.36088 0.63051 0.0
C736 C 0.86975 0.36344 0.81726 0.0
C737 C 0.90189 0.36669 0.65828 0.0
C738 C 0.9094 0.37099 0.76429 0.0
C739 C 0.90086 0.37366 0.95123 0.0
C740 C 0.88484 0.37204 0.03113 0.0
C741 C 0.89348 0.3694 0.84444 0.0
C742 C 0.86128 0.366 0.00349 0.0
C743 C 0.85379 0.36173 0.89747 0.0
H744 H 0.40608 0.88925 0.3168 0.0
H745 H 0.32932 0.84253 0.29642 0.0
H746 H 0.33199 0.84094 0.10279 0.0
H747 H 0.35618 0.85293 0.93729 0.0
H748 H 0.43295 0.89972 0.95841 0.0
H749 H 0.43022 0.90125 0.15179 0.0
C750 C 0.38996 0.87868 0.26996 0.0
C751 C 0.36752 0.86605 0.32147 0.0
C752 C 0.39161 0.87791 0.15798 0.0
C753 C 0.34682 0.85247 0.25919 0.0
C754 C 0.34832 0.85155 0.14815 0.0
C755 C 0.37229 0.86348 0.98429 0.0
C756 C 0.39475 0.87616 0.93296 0.0
C757 C 0.37061 0.86425 0.09636 0.0
C758 C 0.41542 0.88975 -0.00458 0.0
C759 C 0.41389 0.89063 0.10636 0.0
H760 H 0.19599 0.55737 0.00567 0.0
H761 H 0.23437 0.5217 0.90553 0.0
H762 H 0.23705 0.51129 0.08985 0.0
H763 H 0.22851 0.5124 0.28008 0.0
H764 H 0.19064 0.54862 0.37991 0.0
H765 H 0.18793 0.55894 0.19568 0.0
C766 C 0.20491 0.5473 0.02441 0.0
C767 C 0.21484 0.54018 0.94247 0.0
C768 C 0.20658 0.54158 0.13057 0.0
C769 C 0.22645 0.52724 0.96747 0.0
C770 C 0.22805 0.52134 0.07281 0.0
C771 C 0.21972 0.52258 0.26125 0.0
C772 C 0.20975 0.52969 0.34306 0.0
C773 C 0.2182 0.52843 0.15505 0.0
C774 C 0.19843 0.54292 0.31804 0.0
C775 C 0.19684 0.5488 0.21275 0.0
H776 H 0.57117 0.74234 0.28469 0.0
H777 H 0.53665 0.66834 0.38377 0.0
H778 H 0.52641 0.65514 0.19944 0.0
H779 H 0.52749 0.6646 0.00946 0.0
H780 H 0.56157 0.73854 0.91011 0.0
H781 H 0.5719 0.7518 0.09451 0.0
C782 C 0.56138 0.72335 0.26568 0.0
C783 C 0.55471 0.70635 0.34738 0.0
C784 C 0.55557 0.71587 0.15939 0.0
C785 C 0.542 0.68178 0.32205 0.0
C786 C 0.53615 0.6742 0.21668 0.0
C787 C 0.53719 0.68359 0.02838 0.0
C788 C 0.54385 0.70056 0.94659 0.0
C789 C 0.54291 0.69108 0.13465 0.0
C790 C 0.55635 0.72513 0.97189 0.0
C791 C 0.56222 0.73273 0.07729 0.0
loop_
_geom_bond_atom_site_label_1
_geom_bond_atom_site_label_2
_geom_bond_distance
_geom_bond_site_symmetry_2
_ccdc_geom_bond_type
C0 Eu1 2.835 1_556 S
C0 C2 1.500 . S
C0 O20 1.257 . S
C0 O21 1.260 1_556 S
Eu1 C0 2.835 1_554 S
Eu1 O20 2.473 1_554 S
Eu1 O21 2.480 . S
Eu1 O22 2.430 . S
Eu1 O23 2.670 . S
Eu1 O24 2.394 . S
Eu1 O29 2.355 1_554 S
Eu1 O31 2.374 1_554 S
C2 C0 1.500 . S
C2 C3 1.377 1_556 S
C2 C7 1.377 . S
C3 C2 1.377 1_554 S
C3 C4 1.395 . S
C3 H32 0.931 . S
C4 C3 1.395 . S
C4 C5 1.383 1_554 S
C4 H33 0.931 . S
C5 C4 1.383 1_556 S
C5 C6 1.394 . S
C6 C5 1.394 . S
C6 C7 1.378 . S
C6 H34 0.931 . S
C7 C2 1.377 . S
C7 C6 1.378 . S
C7 H35 0.931 . S
C8 O22 1.259 . S
C8 O23 1.270 . S
C9 O24 1.251 1_655 S
C9 O25 1.251 . S
C10 Eu11 2.835 1_554 S
C10 C12 1.500 . S
C10 O26 1.257 . S
C10 O27 1.260 1_554 S
Eu11 C10 2.835 1_556 S
Eu11 O23 2.355 1_656 S
Eu11 O25 2.374 1_556 S
Eu11 O26 2.473 1_556 S
Eu11 O27 2.480 . S
Eu11 O28 2.430 . S
Eu11 O29 2.670 1_655 S
Eu11 O30 2.394 1_655 S
C12 C10 1.500 . S
C12 C13 1.377 1_554 S
C12 C17 1.377 . S
C13 C12 1.377 1_556 S
C13 C14 1.395 . S
C13 H36 0.931 . S
C14 C13 1.395 . S
C14 C15 1.383 1_556 S
C14 H37 0.931 . S
C15 C14 1.383 1_554 S
C15 C16 1.394 . S
C16 C15 1.394 . S
C16 C17 1.378 . S
C16 H38 0.931 . S
C17 C12 1.377 . S
C17 C16 1.378 . S
C17 H39 0.931 . S
C18 O28 1.259 1_455 S
C18 O29 1.270 . S
C19 O30 1.251 . S
C19 O31 1.251 . S
O20 C0 1.257 . S
O20 Eu1 2.473 1_556 S
O21 C0 1.260 1_554 S
O21 Eu1 2.480 . S
O22 Eu1 2.430 . S
O22 C8 1.259 . S
O23 Eu1 2.670 . S
O23 C8 1.270 . S
O23 Eu11 2.355 1_454 S
O24 Eu1 2.394 . S
O24 C9 1.251 1_455 S
O25 C9 1.251 . S
O25 Eu11 2.374 1_554 S
O26 C10 1.257 . S
O26 Eu11 2.473 1_554 S
O27 C10 1.260 1_556 S
O27 Eu11 2.480 . S
O28 Eu11 2.430 . S
O28 C18 1.259 1_655 S
O29 Eu1 2.355 1_556 S
O29 Eu11 2.670 1_455 S
O29 C18 1.270 . S
O30 Eu11 2.394 1_455 S
O30 C19 1.251 . S
O31 Eu1 2.374 1_556 S
O31 C19 1.251 . S
H32 C3 0.931 . S
H33 C4 0.931 . S
H34 C6 0.931 . S
H35 C7 0.931 . S
H36 C13 0.931 . S
H37 C14 0.931 . S
H38 C16 0.931 . S
H39 C17 0.931 . S
C40 Eu41 2.835 1_556 S
C40 C42 1.500 . S
C40 O60 1.257 . S
C40 O61 1.260 1_556 S
Eu41 C40 2.835 1_554 S
Eu41 O60 2.473 1_554 S
Eu41 O61 2.480 . S
Eu41 O62 2.430 . S
Eu41 O63 2.670 . S
Eu41 O64 2.394 . S
Eu41 O69 2.355 1_554 S
Eu41 O71 2.374 1_554 S
C42 C40 1.500 . S
C42 C43 1.377 1_556 S
C42 C47 1.377 . S
C43 C42 1.377 1_554 S
C43 C44 1.395 . S
C43 H72 0.931 . S
C44 C43 1.395 . S
C44 C45 1.383 1_554 S
C44 H73 0.931 . S
C45 C44 1.383 1_556 S
C45 C46 1.394 . S
C46 C45 1.394 . S
C46 C47 1.378 . S
C46 H74 0.931 . S
C47 C42 1.377 . S
C47 C46 1.378 . S
C47 H75 0.931 . S
C48 O62 1.259 . S
C48 O63 1.270 . S
C49 O64 1.251 . S
C49 O65 1.251 . S
C50 Eu51 2.835 1_554 S
C50 C52 1.500 . S
C50 O66 1.257 . S
C50 O67 1.260 1_554 S
Eu51 C50 2.835 1_556 S
Eu51 O63 2.355 1_556 S
Eu51 O65 2.374 1_556 S
Eu51 O66 2.473 1_556 S
Eu51 O67 2.480 . S
Eu51 O68 2.430 . S
Eu51 O69 2.670 . S
Eu51 O70 2.394 . S
C52 C50 1.500 . S
C52 C53 1.377 1_554 S
C52 C57 1.377 . S
C53 C52 1.377 1_556 S
C53 C54 1.395 . S
C53 H76 0.931 . S
C54 C53 1.395 . S
C54 C55 1.383 1_556 S
C54 H77 0.931 . S
C55 C54 1.383 1_554 S
C55 C56 1.394 . S
C56 C55 1.394 . S
C56 C57 1.378 . S
C56 H78 0.931 . S
C57 C52 1.377 . S
C57 C56 1.378 . S
C57 H79 0.931 . S
C58 O68 1.259 . S
C58 O69 1.270 . S
C59 O70 1.251 . S
C59 O71 1.251 . S
O60 C40 1.257 . S
O60 Eu41 2.473 1_556 S
O61 C40 1.260 1_554 S
O61 Eu41 2.480 . S
O62 Eu41 2.430 . S
O62 C48 1.259 . S
O63 Eu41 2.670 . S
O63 C48 1.270 . S
O63 Eu51 2.355 1_554 S
O64 Eu41 2.394 . S
O64 C49 1.251 . S
O65 C49 1.251 . S
O65 Eu51 2.374 1_554 S
O66 C50 1.257 . S
O66 Eu51 2.473 1_554 S
O67 C50 1.260 1_556 S
O67 Eu51 2.480 . S
O68 Eu51 2.430 . S
O68 C58 1.259 . S
O69 Eu41 2.355 1_556 S
O69 Eu51 2.670 . S
O69 C58 1.270 . S
O70 Eu51 2.394 . S
O70 C59 1.251 . S
O71 Eu41 2.374 1_556 S
O71 C59 1.251 . S
H72 C43 0.931 . S
H73 C44 0.931 . S
H74 C46 0.931 . S
H75 C47 0.931 . S
H76 C53 0.931 . S
H77 C54 0.931 . S
H78 C56 0.931 . S
H79 C57 0.931 . S
C80 Eu81 2.835 1_556 S
C80 C82 1.500 . S
C80 O100 1.257 . S
C80 O101 1.260 1_556 S
Eu81 C80 2.835 1_554 S
Eu81 O100 2.473 1_554 S
Eu81 O101 2.480 . S
Eu81 O102 2.430 . S
Eu81 O103 2.670 1_565 S
Eu81 O104 2.394 1_565 S
Eu81 O109 2.355 1_564 S
Eu81 O111 2.374 1_554 S
C82 C80 1.500 . S
C82 C83 1.377 1_556 S
C82 C87 1.377 . S
C83 C82 1.377 1_554 S
C83 C84 1.395 . S
C83 H112 0.931 . S
C84 C83 1.395 . S
C84 C85 1.383 1_554 S
C84 H113 0.931 . S
C85 C84 1.383 1_556 S
C85 C86 1.394 . S
C86 C85 1.394 . S
C86 C87 1.378 . S
C86 H114 0.931 . S
C87 C82 1.377 . S
C87 C86 1.378 . S
C87 H115 0.931 . S
C88 O102 1.259 1_545 S
C88 O103 1.270 . S
C89 O104 1.251 . S
C89 O105 1.251 . S
C90 Eu91 2.835 1_554 S
C90 C92 1.500 . S
C90 O106 1.257 . S
C90 O107 1.260 1_554 S
Eu91 C90 2.835 1_556 S
Eu91 O103 2.355 1_556 S
Eu91 O105 2.374 1_556 S
Eu91 O106 2.473 1_556 S
Eu91 O107 2.480 . S
Eu91 O108 2.430 . S
Eu91 O109 2.670 . S
Eu91 O110 2.394 . S
C92 C90 1.500 . S
C92 C93 1.377 1_554 S
C92 C97 1.377 . S
C93 C92 1.377 1_556 S
C93 C94 1.395 . S
C93 H116 0.931 . S
C94 C93 1.395 . S
C94 C95 1.383 1_556 S
C94 H117 0.931 . S
C95 C94 1.383 1_554 S
C95 C96 1.394 . S
C96 C95 1.394 . S
C96 C97 1.378 . S
C96 H118 0.931 . S
C97 C92 1.377 . S
C97 C96 1.378 . S
C97 H119 0.931 . S
C98 O108 1.259 . S
C98 O109 1.270 . S
C99 O110 1.251 1_565 S
C99 O111 1.251 . S
O100 C80 1.257 . S
O100 Eu81 2.473 1_556 S
O101 C80 1.260 1_554 S
O101 Eu81 2.480 . S
O102 Eu81 2.430 . S
O102 C88 1.259 1_565 S
O103 Eu81 2.670 1_545 S
O103 C88 1.270 . S
O103 Eu91 2.355 1_554 S
O104 Eu81 2.394 1_545 S
O104 C89 1.251 . S
O105 C89 1.251 . S
O105 Eu91 2.374 1_554 S
O106 C90 1.257 . S
O106 Eu91 2.473 1_554 S
O107 C90 1.260 1_556 S
O107 Eu91 2.480 . S
O108 Eu91 2.430 . S
O108 C98 1.259 . S
O109 Eu81 2.355 1_546 S
O109 Eu91 2.670 . S
O109 C98 1.270 . S
O110 Eu91 2.394 . S
O110 C99 1.251 1_545 S
O111 Eu81 2.374 1_556 S
O111 C99 1.251 . S
H112 C83 0.931 . S
H113 C84 0.931 . S
H114 C86 0.931 . S
H115 C87 0.931 . S
H116 C93 0.931 . S
H117 C94 0.931 . S
H118 C96 0.931 . S
H119 C97 0.931 . S
C120 Eu121 2.835 . S
C120 C122 1.500 . S
C120 O140 1.257 . S
C120 O141 1.260 . S
Eu121 C120 2.835 . S
Eu121 O140 2.473 . S
Eu121 O141 2.480 . S
Eu121 O142 2.430 . S
Eu121 O143 2.670 . S
Eu121 O144 2.394 . S
Eu121 O149 2.355 . S
Eu121 O151 2.374 . S
C122 C120 1.500 . S
C122 C123 1.377 . S
C122 C127 1.377 . S
C123 C122 1.377 . S
C123 C124 1.395 . S
C123 H152 0.931 . S
C124 C123 1.395 . S
C124 C125 1.383 . S
C124 H153 0.931 . S
C125 C124 1.383 . S
C125 C126 1.394 . S
C126 C125 1.394 . S
C126 C127 1.378 . S
C126 H154 0.931 . S
C127 C122 1.377 . S
C127 C126 1.378 . S
C127 H155 0.931 . S
C128 O142 1.259 . S
C128 O143 1.270 . S
C129 O144 1.251 . S
C129 O145 1.251 . S
C130 Eu131 2.835 . S
C130 C132 1.500 . S
C130 O146 1.257 . S
C130 O147 1.260 . S
Eu131 C130 2.835 . S
Eu131 O143 2.355 . S
Eu131 O145 2.374 . S
Eu131 O146 2.473 . S
Eu131 O147 2.480 . S
Eu131 O148 2.430 . S
Eu131 O149 2.670 . S
Eu131 O150 2.394 . S
C132 C130 1.500 . S
C132 C133 1.377 . S
C132 C137 1.377 . S
C133 C132 1.377 . S
C133 C134 1.395 . S
C133 H156 0.931 . S
C134 C133 1.395 . S
C134 C135 1.383 . S
C134 H157 0.931 . S
C135 C134 1.383 . S
C135 C136 1.394 . S
C136 C135 1.394 . S
C136 C137 1.378 . S
C136 H158 0.931 . S
C137 C132 1.377 . S
C137 C136 1.378 . S
C137 H159 0.931 . S
C138 O148 1.259 . S
C138 O149 1.270 . S
C139 O150 1.251 . S
C139 O151 1.251 . S
O140 C120 1.257 . S
O140 Eu121 2.473 . S
O141 C120 1.260 . S
O141 Eu121 2.480 . S
O142 Eu121 2.430 . S
O142 C128 1.259 . S
O143 Eu121 2.670 . S
O143 C128 1.270 . S
O143 Eu131 2.355 . S
O144 Eu121 2.394 . S
O144 C129 1.251 . S
O145 C129 1.251 . S
O145 Eu131 2.374 . S
O146 C130 1.257 . S
O146 Eu131 2.473 . S
O147 C130 1.260 . S
O147 Eu131 2.480 . S
O148 Eu131 2.430 . S
O148 C138 1.259 . S
O149 Eu121 2.355 . S
O149 Eu131 2.670 . S
O149 C138 1.270 . S
O150 Eu131 2.394 . S
O150 C139 1.251 . S
O151 Eu121 2.374 . S
O151 C139 1.251 . S
H152 C123 0.931 . S
H153 C124 0.931 . S
H154 C126 0.931 . S
H155 C127 0.931 . S
H156 C133 0.931 . S
H157 C134 0.931 . S
H158 C136 0.931 . S
H159 C137 0.931 . S
C160 Eu161 2.835 . S
C160 C162 1.500 . S
C160 O180 1.257 . S
C160 O181 1.260 . S
Eu161 C160 2.835 . S
Eu161 O180 2.473 . S
Eu161 O181 2.480 . S
Eu161 O182 2.430 . S
Eu161 O183 2.670 . S
Eu161 O184 2.394 . S
Eu161 O189 2.355 . S
Eu161 O191 2.374 . S
C162 C160 1.500 . S
C162 C163 1.377 . S
C162 C167 1.377 . S
C163 C162 1.377 . S
C163 C164 1.395 . S
C163 H192 0.931 . S
C164 C163 1.395 . S
C164 C165 1.383 . S
C164 H193 0.931 . S
C165 C164 1.383 . S
C165 C166 1.394 . S
C166 C165 1.394 . S
C166 C167 1.378 . S
C166 H194 0.931 . S
C167 C162 1.377 . S
C167 C166 1.378 . S
C167 H195 0.931 . S
C168 O182 1.259 . S
C168 O183 1.270 . S
C169 O184 1.251 . S
C169 O185 1.251 . S
C170 Eu171 2.835 . S
C170 C172 1.500 . S
C170 O186 1.257 . S
C170 O187 1.260 . S
Eu171 C170 2.835 . S
Eu171 O183 2.355 . S
Eu171 O185 2.374 . S
Eu171 O186 2.473 . S
Eu171 O187 2.480 . S
Eu171 O188 2.430 . S
Eu171 O189 2.670 . S
Eu171 O190 2.394 . S
C172 C170 1.500 . S
C172 C173 1.377 . S
C172 C177 1.377 . S
C173 C172 1.377 . S
C173 C174 1.395 . S
C173 H196 0.931 . S
C174 C173 1.395 . S
C174 C175 1.383 . S
C174 H197 0.931 . S
C175 C174 1.383 . S
C175 C176 1.394 . S
C176 C175 1.394 . S
C176 C177 1.378 . S
C176 H198 0.931 . S
C177 C172 1.377 . S
C177 C176 1.378 . S
C177 H199 0.931 . S
C178 O188 1.259 . S
C178 O189 1.270 . S
C179 O190 1.251 . S
C179 O191 1.251 . S
O180 C160 1.257 . S
O180 Eu161 2.473 . S
O181 C160 1.260 . S
O181 Eu161 2.480 . S
O182 Eu161 2.430 . S
O182 C168 1.259 . S
O183 Eu161 2.670 . S
O183 C168 1.270 . S
O183 Eu171 2.355 . S
O184 Eu161 2.394 . S
O184 C169 1.251 . S
O185 C169 1.251 . S
O185 Eu171 2.374 . S
O186 C170 1.257 . S
O186 Eu171 2.473 . S
O187 C170 1.260 . S
O187 Eu171 2.480 . S
O188 Eu171 2.430 . S
O188 C178 1.259 . S
O189 Eu161 2.355 . S
O189 Eu171 2.670 . S
O189 C178 1.270 . S
O190 Eu171 2.394 . S
O190 C179 1.251 . S
O191 Eu161 2.374 . S
O191 C179 1.251 . S
H192 C163 0.931 . S
H193 C164 0.931 . S
H194 C166 0.931 . S
H195 C167 0.931 . S
H196 C173 0.931 . S
H197 C174 0.931 . S
H198 C176 0.931 . S
H199 C177 0.931 . S
C200 Eu201 2.835 . S
C200 C202 1.500 . S
C200 O220 1.257 . S
C200 O221 1.260 . S
Eu201 C200 2.835 . S
Eu201 O220 2.473 . S
Eu201 O221 2.480 . S
Eu201 O222 2.430 . S
Eu201 O223 2.670 . S
Eu201 O224 2.394 . S
Eu201 O229 2.355 . S
Eu201 O231 2.374 . S
C202 C200 1.500 . S
C202 C203 1.377 . S
C202 C207 1.377 . S
C203 C202 1.377 . S
C203 C204 1.395 . S
C203 H232 0.931 . S
C204 C203 1.395 . S
C204 C205 1.383 . S
C204 H233 0.931 . S
C205 C204 1.383 . S
C205 C206 1.394 . S
C206 C205 1.394 . S
C206 C207 1.378 . S
C206 H234 0.931 . S
C207 C202 1.377 . S
C207 C206 1.378 . S
C207 H235 0.931 . S
C208 O222 1.259 . S
C208 O223 1.270 . S
C209 O224 1.251 . S
C209 O225 1.251 . S
C210 Eu211 2.835 . S
C210 C212 1.500 . S
C210 O226 1.257 . S
C210 O227 1.260 . S
Eu211 C210 2.835 . S
Eu211 O223 2.355 . S
Eu211 O225 2.374 . S
Eu211 O226 2.473 . S
Eu211 O227 2.480 . S
Eu211 O228 2.430 . S
Eu211 O229 2.670 . S
Eu211 O230 2.394 . S
C212 C210 1.500 . S
C212 C213 1.377 . S
C212 C217 1.377 . S
C213 C212 1.377 . S
C213 C214 1.395 . S
C213 H236 0.931 . S
C214 C213 1.395 . S
C214 C215 1.383 . S
C214 H237 0.931 . S
C215 C214 1.383 . S
C215 C216 1.394 . S
C216 C215 1.394 . S
C216 C217 1.378 . S
C216 H238 0.931 . S
C217 C212 1.377 . S
C217 C216 1.378 . S
C217 H239 0.931 . S
C218 O228 1.259 . S
C218 O229 1.270 . S
C219 O230 1.251 . S
C219 O231 1.251 . S
O220 C200 1.257 . S
O220 Eu201 2.473 . S
O221 C200 1.260 . S
O221 Eu201 2.480 . S
O222 Eu201 2.430 . S
O222 C208 1.259 . S
O223 Eu201 2.670 . S
O223 C208 1.270 . S
O223 Eu211 2.355 . S
O224 Eu201 2.394 . S
O224 C209 1.251 . S
O225 C209 1.251 . S
O225 Eu211 2.374 . S
O226 C210 1.257 . S
O226 Eu211 2.473 . S
O227 C210 1.260 . S
O227 Eu211 2.480 . S
O228 Eu211 2.430 . S
O228 C218 1.259 . S
O229 Eu201 2.355 . S
O229 Eu211 2.670 . S
O229 C218 1.270 . S
O230 Eu211 2.394 . S
O230 C219 1.251 . S
O231 Eu201 2.374 . S
O231 C219 1.251 . S
H232 C203 0.931 . S
H233 C204 0.931 . S
H234 C206 0.931 . S
H235 C207 0.931 . S
H236 C213 0.931 . S
H237 C214 0.931 . S
H238 C216 0.931 . S
H239 C217 0.931 . S
C240 Eu241 2.835 . S
C240 C242 1.500 . S
C240 O260 1.257 . S
C240 O261 1.260 . S
Eu241 C240 2.835 . S
Eu241 O260 2.473 . S
Eu241 O261 2.480 . S
Eu241 O262 2.430 . S
Eu241 O263 2.670 . S
Eu241 O264 2.394 . S
Eu241 O269 2.355 . S
Eu241 O271 2.374 . S
C242 C240 1.500 . S
C242 C243 1.377 . S
C242 C247 1.377 . S
C243 C242 1.377 . S
C243 C244 1.395 . S
C243 H272 0.931 . S
C244 C243 1.395 . S
C244 C245 1.383 . S
C244 H273 0.931 . S
C245 C244 1.383 . S
C245 C246 1.394 . S
C246 C245 1.394 . S
C246 C247 1.378 . S
C246 H274 0.931 . S
C247 C242 1.377 . S
C247 C246 1.378 . S
C247 H275 0.931 . S
C248 O262 1.259 . S
C248 O263 1.270 . S
C249 O264 1.251 . S
C249 O265 1.251 . S
C250 Eu251 2.835 . S
C250 C252 1.500 . S
C250 O266 1.257 . S
C250 O267 1.260 . S
Eu251 C250 2.835 . S
Eu251 O263 2.355 . S
Eu251 O265 2.374 . S
Eu251 O266 2.473 . S
Eu251 O267 2.480 . S
Eu251 O268 2.430 . S
Eu251 O269 2.670 . S
Eu251 O270 2.394 . S
C252 C250 1.500 . S
C252 C253 1.377 . S
C252 C257 1.377 . S
C253 C252 1.377 . S
C253 C254 1.395 . S
C253 H276 0.931 . S
C254 C253 1.395 . S
C254 C255 1.383 . S
C254 H277 0.931 . S
C255 C254 1.383 . S
C255 C256 1.394 . S
C256 C255 1.394 . S
C256 C257 1.378 . S
C256 H278 0.931 . S
C257 C252 1.377 . S
C257 C256 1.378 . S
C257 H279 0.931 . S
C258 O268 1.259 . S
C258 O269 1.270 . S
C259 O270 1.251 . S
C259 O271 1.251 . S
O260 C240 1.257 . S
O260 Eu241 2.473 . S
O261 C240 1.260 . S
O261 Eu241 2.480 . S
O262 Eu241 2.430 . S
O262 C248 1.259 . S
O263 Eu241 2.670 . S
O263 C248 1.270 . S
O263 Eu251 2.355 . S
O264 Eu241 2.394 . S
O264 C249 1.251 . S
O265 C249 1.251 . S
O265 Eu251 2.374 . S
O266 C250 1.257 . S
O266 Eu251 2.473 . S
O267 C250 1.260 . S
O267 Eu251 2.480 . S
O268 Eu251 2.430 . S
O268 C258 1.259 . S
O269 Eu241 2.355 . S
O269 Eu251 2.670 . S
O269 C258 1.270 . S
O270 Eu251 2.394 . S
O270 C259 1.251 . S
O271 Eu241 2.374 . S
O271 C259 1.251 . S
H272 C243 0.931 . S
H273 C244 0.931 . S
H274 C246 0.931 . S
H275 C247 0.931 . S
H276 C253 0.931 . S
H277 C254 0.931 . S
H278 C256 0.931 . S
H279 C257 0.931 . S
C280 Eu281 2.835 . S
C280 C282 1.500 . S
C280 O300 1.257 . S
C280 O301 1.260 . S
Eu281 C280 2.835 . S
Eu281 O300 2.473 . S
Eu281 O301 2.480 . S
Eu281 O302 2.430 . S
Eu281 O303 2.670 . S
Eu281 O304 2.394 . S
Eu281 O309 2.355 . S
Eu281 O311 2.374 . S
C282 C280 1.500 . S
C282 C283 1.377 . S
C282 C287 1.377 . S
C283 C282 1.377 . S
C283 C284 1.395 . S
C283 H312 0.931 . S
C284 C283 1.395 . S
C284 C285 1.383 . S
C284 H313 0.931 . S
C285 C284 1.383 . S
C285 C286 1.394 . S
C286 C285 1.394 . S
C286 C287 1.378 . S
C286 H314 0.931 . S
C287 C282 1.377 . S
C287 C286 1.378 . S
C287 H315 0.931 . S
C288 O302 1.259 . S
C288 O303 1.270 . S
C289 O304 1.251 . S
C289 O305 1.251 . S
C290 Eu291 2.835 . S
C290 C292 1.500 . S
C290 O306 1.257 . S
C290 O307 1.260 . S
Eu291 C290 2.835 . S
Eu291 O303 2.355 . S
Eu291 O305 2.374 . S
Eu291 O306 2.473 . S
Eu291 O307 2.480 . S
Eu291 O308 2.430 . S
Eu291 O309 2.670 . S
Eu291 O310 2.394 . S
C292 C290 1.500 . S
C292 C293 1.377 . S
C292 C297 1.377 . S
C293 C292 1.377 . S
C293 C294 1.395 . S
C293 H316 0.931 . S
C294 C293 1.395 . S
C294 C295 1.383 . S
C294 H317 0.931 . S
C295 C294 1.383 . S
C295 C296 1.394 . S
C296 C295 1.394 . S
C296 C297 1.378 . S
C296 H318 0.931 . S
C297 C292 1.377 . S
C297 C296 1.378 . S
C297 H319 0.931 . S
C298 O308 1.259 . S
C298 O309 1.270 . S
C299 O310 1.251 . S
C299 O311 1.251 . S
O300 C280 1.257 . S
O300 Eu281 2.473 . S
O301 C280 1.260 . S
O301 Eu281 2.480 . S
O302 Eu281 2.430 . S
O302 C288 1.259 . S
O303 Eu281 2.670 . S
O303 C288 1.270 . S
O303 Eu291 2.355 . S
O304 Eu281 2.394 . S
O304 C289 1.251 . S
O305 C289 1.251 . S
O305 Eu291 2.374 . S
O306 C290 1.257 . S
O306 Eu291 2.473 . S
O307 C290 1.260 . S
O307 Eu291 2.480 . S
O308 Eu291 2.430 . S
O308 C298 1.259 . S
O309 Eu281 2.355 . S
O309 Eu291 2.670 . S
O309 C298 1.270 . S
O310 Eu291 2.394 . S
O310 C299 1.251 . S
O311 Eu281 2.374 . S
O311 C299 1.251 . S
H312 C283 0.931 . S
H313 C284 0.931 . S
H314 C286 0.931 . S
H315 C287 0.931 . S
H316 C293 0.931 . S
H317 C294 0.931 . S
H318 C296 0.931 . S
H319 C297 0.931 . S
C320 Eu321 2.835 . S
C320 C322 1.500 . S
C320 O340 1.257 . S
C320 O341 1.260 . S
Eu321 C320 2.835 . S
Eu321 O340 2.473 . S
Eu321 O341 2.480 . S
Eu321 O342 2.430 . S
Eu321 O343 2.670 . S
Eu321 O344 2.394 . S
Eu321 O349 2.355 . S
Eu321 O351 2.374 . S
C322 C320 1.500 . S
C322 C323 1.377 . S
C322 C327 1.377 . S
C323 C322 1.377 . S
C323 C324 1.395 . S
C323 H352 0.931 . S
C324 C323 1.395 . S
C324 C325 1.383 . S
C324 H353 0.931 . S
C325 C324 1.383 . S
C325 C326 1.394 . S
C326 C325 1.394 . S
C326 C327 1.378 . S
C326 H354 0.931 . S
C327 C322 1.377 . S
C327 C326 1.378 . S
C327 H355 0.931 . S
C328 O342 1.259 . S
C328 O343 1.270 . S
C329 O344 1.251 . S
C329 O345 1.251 . S
C330 Eu331 2.835 . S
C330 C332 1.500 . S
C330 O346 1.257 . S
C330 O347 1.260 . S
Eu331 C330 2.835 . S
Eu331 O343 2.355 . S
Eu331 O345 2.374 . S
Eu331 O346 2.473 . S
Eu331 O347 2.480 . S
Eu331 O348 2.430 . S
Eu331 O349 2.670 . S
Eu331 O350 2.394 . S
C332 C330 1.500 . S
C332 C333 1.377 . S
C332 C337 1.377 . S
C333 C332 1.377 . S
C333 C334 1.395 . S
C333 H356 0.931 . S
C334 C333 1.395 . S
C334 C335 1.383 . S
C334 H357 0.931 . S
C335 C334 1.383 . S
C335 C336 1.394 . S
C336 C335 1.394 . S
C336 C337 1.378 . S
C336 H358 0.931 . S
C337 C332 1.377 . S
C337 C336 1.378 . S
C337 H359 0.931 . S
C338 O348 1.259 . S
C338 O349 1.270 . S
C339 O350 1.251 . S
C339 O351 1.251 . S
O340 C320 1.257 . S
O340 Eu321 2.473 . S
O341 C320 1.260 . S
O341 Eu321 2.480 . S
O342 Eu321 2.430 . S
O342 C328 1.259 . S
O343 Eu321 2.670 . S
O343 C328 1.270 . S
O343 Eu331 2.355 . S
O344 Eu321 2.394 . S
O344 C329 1.251 . S
O345 C329 1.251 . S
O345 Eu331 2.374 . S
O346 C330 1.257 . S
O346 Eu331 2.473 . S
O347 C330 1.260 . S
O347 Eu331 2.480 . S
O348 Eu331 2.430 . S
O348 C338 1.259 . S
O349 Eu321 2.355 . S
O349 Eu331 2.670 . S
O349 C338 1.270 . S
O350 Eu331 2.394 . S
O350 C339 1.251 . S
O351 Eu321 2.374 . S
O351 C339 1.251 . S
H352 C323 0.931 . S
H353 C324 0.931 . S
H354 C326 0.931 . S
H355 C327 0.931 . S
H356 C333 0.931 . S
H357 C334 0.931 . S
H358 C336 0.931 . S
H359 C337 0.931 . S
H360 C366 0.930 . S
H361 C369 0.930 . S
H362 C370 0.930 . S
H363 C371 0.930 . S
H364 C374 0.930 . S
H365 C375 0.930 . S
C366 H360 0.930 . S
C366 C367 1.355 . S
C366 C368 1.415 . S
C367 C366 1.355 . S
C367 C369 1.419 1_556 S
C368 C366 1.415 . S
C368 C373 1.425 . S
C368 C375 1.409 . S
C369 H361 0.930 . S
C369 C367 1.419 1_554 S
C369 C370 1.362 . S
C370 H362 0.930 . S
C370 C369 1.362 . S
C370 C373 1.409 1_554 S
C371 H363 0.930 . S
C371 C372 1.355 . S
C371 C373 1.415 . S
C372 C371 1.355 . S
C372 C374 1.419 . S
C373 C368 1.425 . S
C373 C370 1.409 1_556 S
C373 C371 1.415 . S
C374 H364 0.930 . S
C374 C372 1.419 . S
C374 C375 1.362 . S
C375 H365 0.930 . S
C375 C368 1.409 . S
C375 C374 1.362 . S
H376 C382 0.930 . S
H377 C385 0.930 . S
H378 C386 0.930 . S
H379 C387 0.930 . S
H380 C390 0.930 . S
H381 C391 0.930 . S
C382 H376 0.930 . S
C382 C383 1.355 . S
C382 C384 1.415 . S
C383 C382 1.355 . S
C383 C385 1.419 1_556 S
C384 C382 1.415 . S
C384 C389 1.425 . S
C384 C391 1.409 . S
C385 H377 0.930 . S
C385 C383 1.419 1_554 S
C385 C386 1.362 . S
C386 H378 0.930 . S
C386 C385 1.362 . S
C386 C389 1.409 1_554 S
C387 H379 0.930 . S
C387 C388 1.355 . S
C387 C389 1.415 . S
C388 C387 1.355 . S
C388 C390 1.419 . S
C389 C384 1.425 . S
C389 C386 1.409 1_556 S
C389 C387 1.415 . S
C390 H380 0.930 . S
C390 C388 1.419 . S
C390 C391 1.362 . S
C391 H381 0.930 . S
C391 C384 1.409 . S
C391 C390 1.362 . S
H392 C398 0.930 . S
H393 C401 0.930 . S
H394 C402 0.930 . S
H395 C403 0.930 . S
H396 C406 0.930 . S
H397 C407 0.930 . S
C398 H392 0.930 . S
C398 C399 1.355 . S
C398 C400 1.415 . S
C399 C398 1.355 . S
C399 C401 1.419 1_556 S
C400 C398 1.415 . S
C400 C405 1.425 . S
C400 C407 1.409 . S
C401 H393 0.930 . S
C401 C399 1.419 1_554 S
C401 C402 1.362 . S
C402 H394 0.930 . S
C402 C401 1.362 . S
C402 C405 1.409 1_554 S
C403 H395 0.930 . S
C403 C404 1.355 . S
C403 C405 1.415 . S
C404 C403 1.355 . S
C404 C406 1.419 . S
C405 C400 1.425 . S
C405 C402 1.409 1_556 S
C405 C403 1.415 . S
C406 H396 0.930 . S
C406 C404 1.419 . S
C406 C407 1.362 . S
C407 H397 0.930 . S
C407 C400 1.409 . S
C407 C406 1.362 . S
H408 C414 0.930 . S
H409 C417 0.930 . S
H410 C418 0.930 . S
H411 C419 0.930 . S
H412 C422 0.930 . S
H413 C423 0.930 . S
C414 H408 0.930 . S
C414 C415 1.355 . S
C414 C416 1.415 . S
C415 C414 1.355 . S
C415 C417 1.419 . S
C416 C414 1.415 . S
C416 C421 1.425 . S
C416 C423 1.409 . S
C417 H409 0.930 . S
C417 C415 1.419 . S
C417 C418 1.362 . S
C418 H410 0.930 . S
C418 C417 1.362 . S
C418 C421 1.409 . S
C419 H411 0.930 . S
C419 C420 1.355 . S
C419 C421 1.415 . S
C420 C419 1.355 . S
C420 C422 1.419 . S
C421 C416 1.425 . S
C421 C418 1.409 . S
C421 C419 1.415 . S
C422 H412 0.930 . S
C422 C420 1.419 . S
C422 C423 1.362 . S
C423 H413 0.930 . S
C423 C416 1.409 . S
C423 C422 1.362 . S
H424 C430 0.930 . S
H425 C433 0.930 . S
H426 C434 0.930 . S
H427 C435 0.930 . S
H428 C438 0.930 . S
H429 C439 0.930 . S
C430 H424 0.930 . S
C430 C431 1.355 . S
C430 C432 1.415 . S
C431 C430 1.355 . S
C431 C433 1.419 . S
C432 C430 1.415 . S
C432 C437 1.425 . S
C432 C439 1.409 . S
C433 H425 0.930 . S
C433 C431 1.419 . S
C433 C434 1.362 . S
C434 H426 0.930 . S
C434 C433 1.362 . S
C434 C437 1.409 . S
C435 H427 0.930 . S
C435 C436 1.355 . S
C435 C437 1.415 . S
C436 C435 1.355 . S
C436 C438 1.419 . S
C437 C432 1.425 . S
C437 C434 1.409 . S
C437 C435 1.415 . S
C438 H428 0.930 . S
C438 C436 1.419 . S
C438 C439 1.362 . S
C439 H429 0.930 . S
C439 C432 1.409 . S
C439 C438 1.362 . S
H440 C446 0.930 . S
H441 C449 0.930 . S
H442 C450 0.930 . S
H443 C451 0.930 . S
H444 C454 0.930 . S
H445 C455 0.930 . S
C446 H440 0.930 . S
C446 C447 1.355 . S
C446 C448 1.415 . S
C447 C446 1.355 . S
C447 C449 1.419 . S
C448 C446 1.415 . S
C448 C453 1.425 . S
C448 C455 1.409 . S
C449 H441 0.930 . S
C449 C447 1.419 . S
C449 C450 1.362 . S
C450 H442 0.930 . S
C450 C449 1.362 . S
C450 C453 1.409 . S
C451 H443 0.930 . S
C451 C452 1.355 . S
C451 C453 1.415 . S
C452 C451 1.355 . S
C452 C454 1.419 . S
C453 C448 1.425 . S
C453 C450 1.409 . S
C453 C451 1.415 . S
C454 H444 0.930 . S
C454 C452 1.419 . S
C454 C455 1.362 . S
C455 H445 0.930 . S
C455 C448 1.409 . S
C455 C454 1.362 . S
H456 C462 0.930 . S
H457 C465 0.930 . S
H458 C466 0.930 . S
H459 C467 0.930 . S
H460 C470 0.930 . S
H461 C471 0.930 . S
C462 H456 0.930 . S
C462 C463 1.355 . S
C462 C464 1.415 . S
C463 C462 1.355 . S
C463 C465 1.419 . S
C464 C462 1.415 . S
C464 C469 1.425 . S
C464 C471 1.409 . S
C465 H457 0.930 . S
C465 C463 1.419 . S
C465 C466 1.362 . S
C466 H458 0.930 . S
C466 C465 1.362 . S
C466 C469 1.409 . S
C467 H459 0.930 . S
C467 C468 1.355 . S
C467 C469 1.415 . S
C468 C467 1.355 . S
C468 C470 1.419 . S
C469 C464 1.425 . S
C469 C466 1.409 . S
C469 C467 1.415 . S
C470 H460 0.930 . S
C470 C468 1.419 . S
C470 C471 1.362 . S
C471 H461 0.930 . S
C471 C464 1.409 . S
C471 C470 1.362 . S
H472 C478 0.930 . S
H473 C481 0.930 . S
H474 C482 0.930 . S
H475 C483 0.930 . S
H476 C486 0.930 . S
H477 C487 0.930 . S
C478 H472 0.930 . S
C478 C479 1.355 . S
C478 C480 1.415 . S
C479 C478 1.355 . S
C479 C481 1.419 . S
C480 C478 1.415 . S
C480 C485 1.425 . S
C480 C487 1.409 . S
C481 H473 0.930 . S
C481 C479 1.419 . S
C481 C482 1.362 . S
C482 H474 0.930 . S
C482 C481 1.362 . S
C482 C485 1.409 . S
C483 H475 0.930 . S
C483 C484 1.355 . S
C483 C485 1.415 . S
C484 C483 1.355 . S
C484 C486 1.419 . S
C485 C480 1.425 . S
C485 C482 1.409 . S
C485 C483 1.415 . S
C486 H476 0.930 . S
C486 C484 1.419 . S
C486 C487 1.362 . S
C487 H477 0.930 . S
C487 C480 1.409 . S
C487 C486 1.362 . S
H488 C494 0.930 . S
H489 C497 0.930 . S
H490 C498 0.930 . S
H491 C499 0.930 . S
H492 C502 0.930 . S
H493 C503 0.930 . S
C494 H488 0.930 . S
C494 C495 1.355 1_565 S
C494 C496 1.415 . S
C495 C494 1.355 1_545 S
C495 C497 1.419 1_545 S
C496 C494 1.415 . S
C496 C501 1.425 . S
C496 C503 1.409 . S
C497 H489 0.930 . S
C497 C495 1.419 1_565 S
C497 C498 1.362 . S
C498 H490 0.930 . S
C498 C497 1.362 . S
C498 C501 1.409 . S
C499 H491 0.930 . S
C499 C500 1.355 . S
C499 C501 1.415 . S
C500 C499 1.355 . S
C500 C502 1.419 . S
C501 C496 1.425 . S
C501 C498 1.409 . S
C501 C499 1.415 . S
C502 H492 0.930 . S
C502 C500 1.419 . S
C502 C503 1.362 . S
C503 H493 0.930 . S
C503 C496 1.409 . S
C503 C502 1.362 . S
H504 C510 0.930 . S
H505 C513 0.930 . S
H506 C514 0.930 . S
H507 C515 0.930 . S
H508 C518 0.930 . S
H509 C519 0.930 . S
C510 H504 0.930 . S
C510 C511 1.355 . S
C510 C512 1.415 1_554 S
C511 C510 1.355 . S
C511 C513 1.419 1_554 S
C512 C510 1.415 1_556 S
C512 C517 1.425 . S
C512 C519 1.409 . S
C513 H505 0.930 . S
C513 C511 1.419 1_556 S
C513 C514 1.362 . S
C514 H506 0.930 . S
C514 C513 1.362 . S
C514 C517 1.409 . S
C515 H507 0.930 . S
C515 C516 1.355 . S
C515 C517 1.415 . S
C516 C515 1.355 . S
C516 C518 1.419 . S
C517 C512 1.425 . S
C517 C514 1.409 . S
C517 C515 1.415 . S
C518 H508 0.930 . S
C518 C516 1.419 . S
C518 C519 1.362 . S
C519 H509 0.930 . S
C519 C512 1.409 . S
C519 C518 1.362 . S
H520 C526 0.930 . S
H521 C529 0.930 . S
H522 C530 0.930 . S
H523 C531 0.930 . S
H524 C534 0.930 1_455 S
H525 C535 0.930 . S
C526 H520 0.930 . S
C526 C527 1.355 . S
C526 C528 1.415 . S
C527 C526 1.355 . S
C527 C529 1.419 1_556 S
C528 C526 1.415 . S
C528 C533 1.425 1_556 S
C528 C535 1.409 . S
C529 H521 0.930 . S
C529 C527 1.419 1_554 S
C529 C530 1.362 . S
C530 H522 0.930 . S
C530 C529 1.362 . S
C530 C533 1.409 . S
C531 H523 0.930 . S
C531 C532 1.355 . S
C531 C533 1.415 . S
C532 C531 1.355 . S
C532 C534 1.419 1_554 S
C533 C528 1.425 1_554 S
C533 C530 1.409 . S
C533 C531 1.415 . S
C534 H524 0.930 1_655 S
C534 C532 1.419 1_556 S
C534 C535 1.362 . S
C535 H525 0.930 . S
C535 C528 1.409 . S
C535 C534 1.362 . S
H536 C542 0.930 . S
H537 C545 0.930 . S
H538 C546 0.930 . S
H539 C547 0.930 . S
H540 C550 0.930 1_455 S
H541 C551 0.930 . S
C542 H536 0.930 . S
C542 C543 1.355 1_556 S
C542 C544 1.415 . S
C543 C542 1.355 1_554 S
C543 C545 1.419 . S
C544 C542 1.415 . S
C544 C549 1.425 . S
C544 C551 1.409 . S
C545 H537 0.930 . S
C545 C543 1.419 . S
C545 C546 1.362 . S
C546 H538 0.930 . S
C546 C545 1.362 . S
C546 C549 1.409 1_554 S
C547 H539 0.930 . S
C547 C548 1.355 1_655 S
C547 C549 1.415 . S
C548 C547 1.355 1_455 S
C548 C550 1.419 1_455 S
C549 C544 1.425 . S
C549 C546 1.409 1_556 S
C549 C547 1.415 . S
C550 H540 0.930 1_655 S
C550 C548 1.419 1_655 S
C550 C551 1.362 . S
C551 H541 0.930 . S
C551 C544 1.409 . S
C551 C550 1.362 . S
H552 C558 0.930 . S
H553 C561 0.930 . S
H554 C562 0.930 . S
H555 C563 0.930 . S
H556 C566 0.930 . S
H557 C567 0.930 . S
C558 H552 0.930 . S
C558 C559 1.355 . S
C558 C560 1.415 . S
C559 C558 1.355 . S
C559 C561 1.419 . S
C560 C558 1.415 . S
C560 C565 1.425 . S
C560 C567 1.409 . S
C561 H553 0.930 . S
C561 C559 1.419 . S
C561 C562 1.362 . S
C562 H554 0.930 . S
C562 C561 1.362 . S
C562 C565 1.409 . S
C563 H555 0.930 . S
C563 C564 1.355 . S
C563 C565 1.415 . S
C564 C563 1.355 . S
C564 C566 1.419 . S
C565 C560 1.425 . S
C565 C562 1.409 . S
C565 C563 1.415 . S
C566 H556 0.930 . S
C566 C564 1.419 . S
C566 C567 1.362 . S
C567 H557 0.930 . S
C567 C560 1.409 . S
C567 C566 1.362 . S
H568 C574 0.930 . S
H569 C577 0.930 . S
H570 C578 0.930 . S
H571 C579 0.930 . S
H572 C582 0.930 . S
H573 C583 0.930 . S
C574 H568 0.930 . S
C574 C575 1.355 . S
C574 C576 1.415 . S
C575 C574 1.355 . S
C575 C577 1.419 . S
C576 C574 1.415 . S
C576 C581 1.425 . S
C576 C583 1.409 . S
C577 H569 0.930 . S
C577 C575 1.419 . S
C577 C578 1.362 . S
C578 H570 0.930 . S
C578 C577 1.362 . S
C578 C581 1.409 . S
C579 H571 0.930 . S
C579 C580 1.355 . S
C579 C581 1.415 . S
C580 C579 1.355 . S
C580 C582 1.419 . S
C581 C576 1.425 . S
C581 C578 1.409 . S
C581 C579 1.415 . S
C582 H572 0.930 . S
C582 C580 1.419 . S
C582 C583 1.362 . S
C583 H573 0.930 . S
C583 C576 1.409 . S
C583 C582 1.362 . S
H584 C590 0.930 . S
H585 C593 0.930 . S
H586 C594 0.930 . S
H587 C595 0.930 . S
H588 C598 0.930 . S
H589 C599 0.930 . S
C590 H584 0.930 . S
C590 C591 1.355 . S
C590 C592 1.415 . S
C591 C590 1.355 . S
C591 C593 1.419 . S
C592 C590 1.415 . S
C592 C597 1.425 . S
C592 C599 1.409 . S
C593 H585 0.930 . S
C593 C591 1.419 . S
C593 C594 1.362 . S
C594 H586 0.930 . S
C594 C593 1.362 . S
C594 C597 1.409 . S
C595 H587 0.930 . S
C595 C596 1.355 . S
C595 C597 1.415 . S
C596 C595 1.355 . S
C596 C598 1.419 . S
C597 C592 1.425 . S
C597 C594 1.409 . S
C597 C595 1.415 . S
C598 H588 0.930 . S
C598 C596 1.419 . S
C598 C599 1.362 . S
C599 H589 0.930 . S
C599 C592 1.409 . S
C599 C598 1.362 . S
H600 C606 0.930 . S
H601 C609 0.930 . S
H602 C610 0.930 . S
H603 C611 0.930 . S
H604 C614 0.930 . S
H605 C615 0.930 . S
C606 H600 0.930 . S
C606 C607 1.355 . S
C606 C608 1.415 . S
C607 C606 1.355 . S
C607 C609 1.419 . S
C608 C606 1.415 . S
C608 C613 1.425 . S
C608 C615 1.409 . S
C609 H601 0.930 . S
C609 C607 1.419 . S
C609 C610 1.362 . S
C610 H602 0.930 . S
C610 C609 1.362 . S
C610 C613 1.409 . S
C611 H603 0.930 . S
C611 C612 1.355 . S
C611 C613 1.415 . S
C612 C611 1.355 . S
C612 C614 1.419 . S
C613 C608 1.425 . S
C613 C610 1.409 . S
C613 C611 1.415 . S
C614 H604 0.930 . S
C614 C612 1.419 . S
C614 C615 1.362 . S
C615 H605 0.930 . S
C615 C608 1.409 . S
C615 C614 1.362 . S
H616 C622 0.930 . S
H617 C625 0.930 . S
H618 C626 0.930 . S
H619 C627 0.930 . S
H620 C630 0.930 . S
H621 C631 0.930 . S
C622 H616 0.930 . S
C622 C623 1.355 . S
C622 C624 1.415 . S
C623 C622 1.355 . S
C623 C625 1.419 . S
C624 C622 1.415 . S
C624 C629 1.425 . S
C624 C631 1.409 . S
C625 H617 0.930 . S
C625 C623 1.419 . S
C625 C626 1.362 . S
C626 H618 0.930 . S
C626 C625 1.362 . S
C626 C629 1.409 . S
C627 H619 0.930 . S
C627 C628 1.355 . S
C627 C629 1.415 . S
C628 C627 1.355 . S
C628 C630 1.419 . S
C629 C624 1.425 . S
C629 C626 1.409 . S
C629 C627 1.415 . S
C630 H620 0.930 . S
C630 C628 1.419 . S
C630 C631 1.362 . S
C631 H621 0.930 . S
C631 C624 1.409 . S
C631 C630 1.362 . S
H632 C638 0.930 . S
H633 C641 0.930 . S
H634 C642 0.930 . S
H635 C643 0.930 . S
H636 C646 0.930 . S
H637 C647 0.930 . S
C638 H632 0.930 . S
C638 C639 1.355 . S
C638 C640 1.415 . S
C639 C638 1.355 . S
C639 C641 1.419 . S
C640 C638 1.415 . S
C640 C645 1.425 . S
C640 C647 1.409 . S
C641 H633 0.930 . S
C641 C639 1.419 . S
C641 C642 1.362 . S
C642 H634 0.930 . S
C642 C641 1.362 . S
C642 C645 1.409 . S
C643 H635 0.930 . S
C643 C644 1.355 . S
C643 C645 1.415 . S
C644 C643 1.355 . S
C644 C646 1.419 . S
C645 C640 1.425 . S
C645 C642 1.409 . S
C645 C643 1.415 . S
C646 H636 0.930 . S
C646 C644 1.419 . S
C646 C647 1.362 . S
C647 H637 0.930 . S
C647 C640 1.409 . S
C647 C646 1.362 . S
H648 C654 0.930 1_655 S
H649 C657 0.930 . S
H650 C658 0.930 . S
H651 C659 0.930 . S
H652 C662 0.966 . S
H653 C663 0.930 . S
C654 H648 0.930 1_455 S
C654 C655 1.355 . S
C654 C656 1.415 . S
C655 C654 1.355 . S
C655 C657 1.419 . S
C656 C654 1.415 . S
C656 C661 1.425 . S
C656 C663 1.409 1_455 S
C657 H649 0.930 . S
C657 C655 1.419 . S
C657 C658 1.362 . S
C658 H650 0.930 . S
C658 C657 1.362 . S
C658 C661 1.409 . S
C659 H651 0.930 . S
C659 C660 1.355 . S
C659 C661 1.415 . S
C660 C659 1.355 . S
C660 C662 1.376 1_455 S
C661 C656 1.425 . S
C661 C658 1.409 . S
C661 C659 1.415 . S
C662 H652 0.966 . S
C662 C660 1.376 1_655 S
C662 C663 1.371 . S
C663 H653 0.930 . S
C663 C656 1.409 1_655 S
C663 C662 1.371 . S
H664 C670 0.930 . S
H665 C673 0.930 . S
H666 C674 0.930 . S
H667 C675 0.930 . S
H668 C678 0.930 . S
H669 C679 0.930 . S
C670 H664 0.930 . S
C670 C671 1.355 . S
C670 C672 1.415 . S
C671 C670 1.355 . S
C671 C673 1.419 . S
C672 C670 1.415 . S
C672 C677 1.425 . S
C672 C679 1.409 . S
C673 H665 0.930 . S
C673 C671 1.419 . S
C673 C674 1.362 . S
C674 H666 0.930 . S
C674 C673 1.362 . S
C674 C677 1.409 . S
C675 H667 0.930 . S
C675 C676 1.355 . S
C675 C677 1.415 . S
C676 C675 1.355 . S
C676 C678 1.419 . S
C677 C672 1.425 . S
C677 C674 1.409 . S
C677 C675 1.415 . S
C678 H668 0.930 . S
C678 C676 1.419 . S
C678 C679 1.362 . S
C679 H669 0.930 . S
C679 C672 1.409 . S
C679 C678 1.362 . S
H680 C686 0.930 . S
H681 C689 0.930 . S
H682 C690 0.930 . S
H683 C691 0.930 . S
H684 C694 0.930 . S
H685 C695 0.930 . S
C686 H680 0.930 . S
C686 C687 1.355 . S
C686 C688 1.415 . S
C687 C686 1.355 . S
C687 C689 1.419 1_545 S
C688 C686 1.415 . S
C688 C693 1.425 . S
C688 C695 1.409 . S
C689 H681 0.930 . S
C689 C687 1.419 1_565 S
C689 C690 1.362 . S
C690 H682 0.930 . S
C690 C689 1.362 . S
C690 C693 1.409 1_565 S
C691 H683 0.930 . S
C691 C692 1.355 1_565 S
C691 C693 1.415 1_565 S
C692 C691 1.355 1_545 S
C692 C694 1.419 . S
C693 C688 1.425 . S
C693 C690 1.409 1_545 S
C693 C691 1.415 1_545 S
C694 H684 0.930 . S
C694 C692 1.419 . S
C694 C695 1.362 . S
C695 H685 0.930 . S
C695 C688 1.409 . S
C695 C694 1.362 . S
H696 C702 0.930 . S
H697 C705 0.930 . S
H698 C706 0.930 . S
H699 C707 0.930 . S
H700 C710 0.930 . S
H701 C711 0.930 . S
C702 H696 0.930 . S
C702 C703 1.355 . S
C702 C704 1.415 . S
C703 C702 1.355 . S
C703 C705 1.419 . S
C704 C702 1.415 . S
C704 C709 1.425 . S
C704 C711 1.409 . S
C705 H697 0.930 . S
C705 C703 1.419 . S
C705 C706 1.362 . S
C706 H698 0.930 . S
C706 C705 1.362 . S
C706 C709 1.409 . S
C707 H699 0.930 . S
C707 C708 1.355 1_556 S
C707 C709 1.415 . S
C708 C707 1.355 1_554 S
C708 C710 1.419 . S
C709 C704 1.425 . S
C709 C706 1.409 . S
C709 C707 1.415 . S
C710 H700 0.930 . S
C710 C708 1.419 . S
C710 C711 1.362 1_554 S
C711 H701 0.930 . S
C711 C704 1.409 . S
C711 C710 1.362 1_556 S
H712 C718 0.930 . S
H713 C721 0.930 . S
H714 C722 0.930 . S
H715 C723 0.930 . S
H716 C726 0.930 . S
H717 C727 0.930 . S
C718 H712 0.930 . S
C718 C719 1.355 . S
C718 C720 1.415 . S
C719 C718 1.355 . S
C719 C721 1.419 . S
C720 C718 1.415 . S
C720 C725 1.425 . S
C720 C727 1.409 . S
C721 H713 0.930 . S
C721 C719 1.419 . S
C721 C722 1.362 . S
C722 H714 0.930 . S
C722 C721 1.362 . S
C722 C725 1.409 . S
C723 H715 0.930 . S
C723 C724 1.355 1_556 S
C723 C725 1.415 . S
C724 C723 1.355 1_554 S
C724 C726 1.419 . S
C725 C720 1.425 . S
C725 C722 1.409 . S
C725 C723 1.415 . S
C726 H716 0.930 . S
C726 C724 1.419 . S
C726 C727 1.362 1_554 S
C727 H717 0.930 . S
C727 C720 1.409 . S
C727 C726 1.362 1_556 S
H728 C734 0.930 . S
H729 C737 0.930 . S
H730 C738 0.930 . S
H731 C739 0.926 1_554 S
H732 C742 0.930 . S
H733 C743 0.930 . S
C734 H728 0.930 . S
C734 C735 1.355 . S
C734 C736 1.415 . S
C735 C734 1.355 . S
C735 C737 1.419 . S
C736 C734 1.415 . S
C736 C741 1.425 . S
C736 C743 1.409 . S
C737 H729 0.930 . S
C737 C735 1.419 . S
C737 C738 1.362 . S
C738 H730 0.930 . S
C738 C737 1.362 . S
C738 C741 1.409 . S
C739 H731 0.926 1_556 S
C739 C740 1.355 1_556 S
C739 C741 1.415 . S
C740 C739 1.355 1_554 S
C740 C742 1.419 . S
C741 C736 1.425 . S
C741 C738 1.409 . S
C741 C739 1.415 . S
C742 H732 0.930 . S
C742 C740 1.419 . S
C742 C743 1.362 1_554 S
C743 H733 0.930 . S
C743 C736 1.409 . S
C743 C742 1.362 1_556 S
H744 C750 0.930 . S
H745 C753 0.930 . S
H746 C754 0.930 . S
H747 C755 0.930 . S
H748 C758 0.930 1_556 S
H749 C759 0.930 . S
C750 H744 0.930 . S
C750 C751 1.355 . S
C750 C752 1.415 . S
C751 C750 1.355 . S
C751 C753 1.419 . S
C752 C750 1.415 . S
C752 C757 1.425 . S
C752 C759 1.409 . S
C753 H745 0.930 . S
C753 C751 1.419 . S
C753 C754 1.362 . S
C754 H746 0.930 . S
C754 C753 1.362 . S
C754 C757 1.409 . S
C755 H747 0.930 . S
C755 C756 1.355 1_554 S
C755 C757 1.415 . S
C756 C755 1.355 1_556 S
C756 C758 1.419 1_556 S
C757 C752 1.425 . S
C757 C754 1.409 . S
C757 C755 1.415 . S
C758 H748 0.930 1_554 S
C758 C756 1.419 1_554 S
C758 C759 1.362 . S
C759 H749 0.930 . S
C759 C752 1.409 . S
C759 C758 1.362 . S
H760 C766 0.930 . S
H761 C769 0.930 1_556 S
H762 C770 0.930 . S
H763 C771 0.930 . S
H764 C774 0.930 . S
H765 C775 0.930 . S
C766 H760 0.930 . S
C766 C767 1.355 1_554 S
C766 C768 1.415 . S
C767 C766 1.355 1_556 S
C767 C769 1.419 1_556 S
C768 C766 1.415 . S
C768 C773 1.425 . S
C768 C775 1.409 . S
C769 H761 0.930 1_554 S
C769 C767 1.419 1_554 S
C769 C770 1.362 . S
C770 H762 0.930 . S
C770 C769 1.362 . S
C770 C773 1.409 . S
C771 H763 0.930 . S
C771 C772 1.355 . S
C771 C773 1.415 . S
C772 C771 1.355 . S
C772 C774 1.419 . S
C773 C768 1.425 . S
C773 C770 1.409 . S
C773 C771 1.415 . S
C774 H764 0.930 . S
C774 C772 1.419 . S
C774 C775 1.362 . S
C775 H765 0.930 . S
C775 C768 1.409 . S
C775 C774 1.362 . S
H776 C782 0.930 . S
H777 C785 0.930 . S
H778 C786 0.930 . S
H779 C787 0.930 . S
H780 C790 0.924 1_556 S
H781 C791 0.930 . S
C782 H776 0.930 . S
C782 C783 1.355 . S
C782 C784 1.415 . S
C783 C782 1.355 . S
C783 C785 1.419 . S
C784 C782 1.415 . S
C784 C789 1.425 . S
C784 C791 1.409 . S
C785 H777 0.930 . S
C785 C783 1.419 . S
C785 C786 1.362 . S
C786 H778 0.930 . S
C786 C785 1.362 . S
C786 C789 1.409 . S
C787 H779 0.930 . S
C787 C788 1.355 1_554 S
C787 C789 1.415 . S
C788 C787 1.355 1_556 S
C788 C790 1.416 1_556 S
C789 C784 1.425 . S
C789 C786 1.409 . S
C789 C787 1.415 . S
C790 H780 0.924 1_554 S
C790 C788 1.416 1_554 S
C790 C791 1.371 . S
C791 H781 0.930 . S
C791 C784 1.409 . S
C791 C790 1.371 . S
C367 C19 1.748 . S
C372 C295 1.789 . S
C383 C59 1.738 . S
C388 C335 1.790 . S
C399 C99 1.748 . S
C404 C255 1.790 . S
C415 C179 1.724 . S
C420 C95 1.786 . S
C431 C219 1.745 . S
C436 C15 1.785 . S
C447 C55 1.761 . S
C452 C139 1.684 . S
C463 C299 1.740 . S
C468 C215 1.791 1_455 S
C479 C339 1.738 . S
C484 C135 1.780 . S
C495 C175 1.788 . S
C500 C259 1.730 . S
C511 C89 1.689 . S
C516 C5 1.660 . S
C527 C45 1.641 1_545 S
C532 C9 1.687 . S
C543 C49 1.688 . S
C548 C85 1.667 . S
C559 C125 1.670 . S
C564 C209 1.688 . S
C575 C129 1.679 . S
C580 C165 1.674 . S
C591 C169 1.689 . S
C596 C205 1.656 . S
C607 C329 1.680 . S
C612 C245 1.660 . S
C623 C285 1.657 . S
C628 C249 1.679 . S
C639 C325 1.672 . S
C644 C289 1.679 . S
C655 C18 1.176 . S
C660 C8 1.176 . S
C671 C58 1.173 . S
C676 C48 1.173 . S
C687 C98 1.190 . S
C692 C88 1.190 . S
C703 C128 1.103 . S
C708 C138 1.103 . S
C719 C168 1.118 . S
C724 C178 1.118 . S
C735 C208 1.123 . S
C740 C218 1.123 . S
C751 C258 1.120 . S
C756 C248 1.120 . S
C767 C288 1.170 . S
C772 C298 1.170 . S
C783 C338 1.141 . S
C788 C328 1.141 . S
