# Generated by pormake.
# Topology nfb, (4)-cn, num edge types: 1
# Building blocks:
#     Node 0, Type 0, BuildingBlock: CEKHIL_clean_sbu_0, # of connection points: 4
#     Node 1, Type 0, BuildingBlock: CEKHIL_clean_sbu_0, # of connection points: 4
#     Node 2, Type 0, BuildingBlock: CEKHIL_clean_sbu_0, # of connection points: 4
#     Node 3, Type 0, BuildingBlock: CEKHIL_clean_sbu_0, # of connection points: 4
#     Node 4, Type 0, BuildingBlock: CEKHIL_clean_sbu_0, # of connection points: 4
#     Node 5, Type 0, BuildingBlock: CEKHIL_clean_sbu_0, # of connection points: 4
#     Node 6, Type 0, BuildingBlock: CEKHIL_clean_sbu_0, # of connection points: 4
#     Node 7, Type 0, BuildingBlock: CEKHIL_clean_sbu_0, # of connection points: 4
#     Node 8, Type 0, BuildingBlock: CEKHIL_clean_sbu_0, # of connection points: 4
#     Node 9, Type 0, BuildingBlock: CEKHIL_clean_sbu_0, # of connection points: 4
#     Node 10, Type 0, BuildingBlock: CEKHIL_clean_sbu_0, # of connection points: 4
#     Node 11, Type 0, BuildingBlock: CEKHIL_clean_sbu_0, # of connection points: 4
#     Node 12, Type 0, BuildingBlock: CEKHIL_clean_sbu_0, # of connection points: 4
#     Node 13, Type 0, BuildingBlock: CEKHIL_clean_sbu_0, # of connection points: 4
#     Node 14, Type 0, BuildingBlock: CEKHIL_clean_sbu_0, # of connection points: 4
#     Node 15, Type 0, BuildingBlock: CEKHIL_clean_sbu_0, # of connection points: 4
#     Node 16, Type 0, BuildingBlock: CEKHIL_clean_sbu_0, # of connection points: 4
#     Node 17, Type 0, BuildingBlock: CEKHIL_clean_sbu_0, # of connection points: 4
#     Node 18, Type 0, BuildingBlock: CEKHIL_clean_sbu_0, # of connection points: 4
#     Node 19, Type 0, BuildingBlock: CEKHIL_clean_sbu_0, # of connection points: 4
#     Node 20, Type 0, BuildingBlock: CEKHIL_clean_sbu_0, # of connection points: 4
#     Node 21, Type 0, BuildingBlock: CEKHIL_clean_sbu_0, # of connection points: 4
#     Node 22, Type 0, BuildingBlock: CEKHIL_clean_sbu_0, # of connection points: 4
#     Node 23, Type 0, BuildingBlock: CEKHIL_clean_sbu_0, # of connection points: 4
#     Node 24, Type 0, BuildingBlock: CEKHIL_clean_sbu_0, # of connection points: 4
#     Node 25, Type 0, BuildingBlock: CEKHIL_clean_sbu_0, # of connection points: 4
#     Node 26, Type 0, BuildingBlock: CEKHIL_clean_sbu_0, # of connection points: 4
#     Node 27, Type 0, BuildingBlock: CEKHIL_clean_sbu_0, # of connection points: 4
#     Node 28, Type 0, BuildingBlock: CEKHIL_clean_sbu_0, # of connection points: 4
#     Node 29, Type 0, BuildingBlock: CEKHIL_clean_sbu_0, # of connection points: 4
#     Node 30, Type 0, BuildingBlock: CEKHIL_clean_sbu_0, # of connection points: 4
#     Node 31, Type 0, BuildingBlock: CEKHIL_clean_sbu_0, # of connection points: 4
#     Node 32, Type 0, BuildingBlock: CEKHIL_clean_sbu_0, # of connection points: 4
#     Node 33, Type 0, BuildingBlock: CEKHIL_clean_sbu_0, # of connection points: 4
#     Node 34, Type 0, BuildingBlock: CEKHIL_clean_sbu_0, # of connection points: 4
#     Node 35, Type 0, BuildingBlock: CEKHIL_clean_sbu_0, # of connection points: 4
#     Node 36, Type 0, BuildingBlock: CEKHIL_clean_sbu_0, # of connection points: 4
#     Node 37, Type 0, BuildingBlock: CEKHIL_clean_sbu_0, # of connection points: 4
#     Node 38, Type 0, BuildingBlock: CEKHIL_clean_sbu_0, # of connection points: 4
#     Node 39, Type 0, BuildingBlock: CEKHIL_clean_sbu_0, # of connection points: 4
#     Node 40, Type 0, BuildingBlock: CEKHIL_clean_sbu_0, # of connection points: 4
#     Node 41, Type 0, BuildingBlock: CEKHIL_clean_sbu_0, # of connection points: 4
#     Node 42, Type 0, BuildingBlock: CEKHIL_clean_sbu_0, # of connection points: 4
#     Node 43, Type 0, BuildingBlock: CEKHIL_clean_sbu_0, # of connection points: 4
#     Node 44, Type 0, BuildingBlock: CEKHIL_clean_sbu_0, # of connection points: 4
#     Node 45, Type 0, BuildingBlock: CEKHIL_clean_sbu_0, # of connection points: 4
#     Node 46, Type 0, BuildingBlock: CEKHIL_clean_sbu_0, # of connection points: 4
#     Node 47, Type 0, BuildingBlock: CEKHIL_clean_sbu_0, # of connection points: 4
#     Edge 48, Type (0, 0), BuildingBlock: TEMPAE_clean_linker_10, # of connection points: 2
#     Edge 49, Type (0, 0), BuildingBlock: TEMPAE_clean_linker_10, # of connection points: 2
#     Edge 50, Type (0, 0), BuildingBlock: TEMPAE_clean_linker_10, # of connection points: 2
#     Edge 51, Type (0, 0), BuildingBlock: TEMPAE_clean_linker_10, # of connection points: 2
#     Edge 52, Type (0, 0), BuildingBlock: TEMPAE_clean_linker_10, # of connection points: 2
#     Edge 53, Type (0, 0), BuildingBlock: TEMPAE_clean_linker_10, # of connection points: 2
#     Edge 54, Type (0, 0), BuildingBlock: TEMPAE_clean_linker_10, # of connection points: 2
#     Edge 55, Type (0, 0), BuildingBlock: TEMPAE_clean_linker_10, # of connection points: 2
#     Edge 56, Type (0, 0), BuildingBlock: TEMPAE_clean_linker_10, # of connection points: 2
#     Edge 57, Type (0, 0), BuildingBlock: TEMPAE_clean_linker_10, # of connection points: 2
#     Edge 58, Type (0, 0), BuildingBlock: TEMPAE_clean_linker_10, # of connection points: 2
#     Edge 59, Type (0, 0), BuildingBlock: TEMPAE_clean_linker_10, # of connection points: 2
#     Edge 60, Type (0, 0), BuildingBlock: TEMPAE_clean_linker_10, # of connection points: 2
#     Edge 61, Type (0, 0), BuildingBlock: TEMPAE_clean_linker_10, # of connection points: 2
#     Edge 62, Type (0, 0), BuildingBlock: TEMPAE_clean_linker_10, # of connection points: 2
#     Edge 63, Type (0, 0), BuildingBlock: TEMPAE_clean_linker_10, # of connection points: 2
#     Edge 64, Type (0, 0), BuildingBlock: TEMPAE_clean_linker_10, # of connection points: 2
#     Edge 65, Type (0, 0), BuildingBlock: TEMPAE_clean_linker_10, # of connection points: 2
#     Edge 66, Type (0, 0), BuildingBlock: TEMPAE_clean_linker_10, # of connection points: 2
#     Edge 67, Type (0, 0), BuildingBlock: TEMPAE_clean_linker_10, # of connection points: 2
#     Edge 68, Type (0, 0), BuildingBlock: TEMPAE_clean_linker_10, # of connection points: 2
#     Edge 69, Type (0, 0), BuildingBlock: TEMPAE_clean_linker_10, # of connection points: 2
#     Edge 70, Type (0, 0), BuildingBlock: TEMPAE_clean_linker_10, # of connection points: 2
#     Edge 71, Type (0, 0), BuildingBlock: TEMPAE_clean_linker_10, # of connection points: 2
#     Edge 72, Type (0, 0), BuildingBlock: TEMPAE_clean_linker_10, # of connection points: 2
#     Edge 73, Type (0, 0), BuildingBlock: TEMPAE_clean_linker_10, # of connection points: 2
#     Edge 74, Type (0, 0), BuildingBlock: TEMPAE_clean_linker_10, # of connection points: 2
#     Edge 75, Type (0, 0), BuildingBlock: TEMPAE_clean_linker_10, # of connection points: 2
#     Edge 76, Type (0, 0), BuildingBlock: TEMPAE_clean_linker_10, # of connection points: 2
#     Edge 77, Type (0, 0), BuildingBlock: TEMPAE_clean_linker_10, # of connection points: 2
#     Edge 78, Type (0, 0), BuildingBlock: TEMPAE_clean_linker_10, # of connection points: 2
#     Edge 79, Type (0, 0), BuildingBlock: TEMPAE_clean_linker_10, # of connection points: 2
#     Edge 80, Type (0, 0), BuildingBlock: TEMPAE_clean_linker_10, # of connection points: 2
#     Edge 81, Type (0, 0), BuildingBlock: TEMPAE_clean_linker_10, # of connection points: 2
#     Edge 82, Type (0, 0), BuildingBlock: TEMPAE_clean_linker_10, # of connection points: 2
#     Edge 83, Type (0, 0), BuildingBlock: TEMPAE_clean_linker_10, # of connection points: 2
#     Edge 84, Type (0, 0), BuildingBlock: TEMPAE_clean_linker_10, # of connection points: 2
#     Edge 85, Type (0, 0), BuildingBlock: TEMPAE_clean_linker_10, # of connection points: 2
#     Edge 86, Type (0, 0), BuildingBlock: TEMPAE_clean_linker_10, # of connection points: 2
#     Edge 87, Type (0, 0), BuildingBlock: TEMPAE_clean_linker_10, # of connection points: 2
#     Edge 88, Type (0, 0), BuildingBlock: TEMPAE_clean_linker_10, # of connection points: 2
#     Edge 89, Type (0, 0), BuildingBlock: TEMPAE_clean_linker_10, # of connection points: 2
#     Edge 90, Type (0, 0), BuildingBlock: TEMPAE_clean_linker_10, # of connection points: 2
#     Edge 91, Type (0, 0), BuildingBlock: TEMPAE_clean_linker_10, # of connection points: 2
#     Edge 92, Type (0, 0), BuildingBlock: TEMPAE_clean_linker_10, # of connection points: 2
#     Edge 93, Type (0, 0), BuildingBlock: TEMPAE_clean_linker_10, # of connection points: 2
#     Edge 94, Type (0, 0), BuildingBlock: TEMPAE_clean_linker_10, # of connection points: 2
#     Edge 95, Type (0, 0), BuildingBlock: TEMPAE_clean_linker_10, # of connection points: 2
#     Edge 96, Type (0, 0), BuildingBlock: TEMPAE_clean_linker_10, # of connection points: 2
#     Edge 97, Type (0, 0), BuildingBlock: TEMPAE_clean_linker_10, # of connection points: 2
#     Edge 98, Type (0, 0), BuildingBlock: TEMPAE_clean_linker_10, # of connection points: 2
#     Edge 99, Type (0, 0), BuildingBlock: TEMPAE_clean_linker_10, # of connection points: 2
#     Edge 100, Type (0, 0), BuildingBlock: TEMPAE_clean_linker_10, # of connection points: 2
#     Edge 101, Type (0, 0), BuildingBlock: TEMPAE_clean_linker_10, # of connection points: 2
#     Edge 102, Type (0, 0), BuildingBlock: TEMPAE_clean_linker_10, # of connection points: 2
#     Edge 103, Type (0, 0), BuildingBlock: TEMPAE_clean_linker_10, # of connection points: 2
#     Edge 104, Type (0, 0), BuildingBlock: TEMPAE_clean_linker_10, # of connection points: 2
#     Edge 105, Type (0, 0), BuildingBlock: TEMPAE_clean_linker_10, # of connection points: 2
#     Edge 106, Type (0, 0), BuildingBlock: TEMPAE_clean_linker_10, # of connection points: 2
#     Edge 107, Type (0, 0), BuildingBlock: TEMPAE_clean_linker_10, # of connection points: 2
#     Edge 108, Type (0, 0), BuildingBlock: TEMPAE_clean_linker_10, # of connection points: 2
#     Edge 109, Type (0, 0), BuildingBlock: TEMPAE_clean_linker_10, # of connection points: 2
#     Edge 110, Type (0, 0), BuildingBlock: TEMPAE_clean_linker_10, # of connection points: 2
#     Edge 111, Type (0, 0), BuildingBlock: TEMPAE_clean_linker_10, # of connection points: 2
#     Edge 112, Type (0, 0), BuildingBlock: TEMPAE_clean_linker_10, # of connection points: 2
#     Edge 113, Type (0, 0), BuildingBlock: TEMPAE_clean_linker_10, # of connection points: 2
#     Edge 114, Type (0, 0), BuildingBlock: TEMPAE_clean_linker_10, # of connection points: 2
#     Edge 115, Type (0, 0), BuildingBlock: TEMPAE_clean_linker_10, # of connection points: 2
#     Edge 116, Type (0, 0), BuildingBlock: TEMPAE_clean_linker_10, # of connection points: 2
#     Edge 117, Type (0, 0), BuildingBlock: TEMPAE_clean_linker_10, # of connection points: 2
#     Edge 118, Type (0, 0), BuildingBlock: TEMPAE_clean_linker_10, # of connection points: 2
#     Edge 119, Type (0, 0), BuildingBlock: TEMPAE_clean_linker_10, # of connection points: 2
#     Edge 120, Type (0, 0), BuildingBlock: TEMPAE_clean_linker_10, # of connection points: 2
#     Edge 121, Type (0, 0), BuildingBlock: TEMPAE_clean_linker_10, # of connection points: 2
#     Edge 122, Type (0, 0), BuildingBlock: TEMPAE_clean_linker_10, # of connection points: 2
#     Edge 123, Type (0, 0), BuildingBlock: TEMPAE_clean_linker_10, # of connection points: 2
#     Edge 124, Type (0, 0), BuildingBlock: TEMPAE_clean_linker_10, # of connection points: 2
#     Edge 125, Type (0, 0), BuildingBlock: TEMPAE_clean_linker_10, # of connection points: 2
#     Edge 126, Type (0, 0), BuildingBlock: TEMPAE_clean_linker_10, # of connection points: 2
#     Edge 127, Type (0, 0), BuildingBlock: TEMPAE_clean_linker_10, # of connection points: 2
#     Edge 128, Type (0, 0), BuildingBlock: TEMPAE_clean_linker_10, # of connection points: 2
#     Edge 129, Type (0, 0), BuildingBlock: TEMPAE_clean_linker_10, # of connection points: 2
#     Edge 130, Type (0, 0), BuildingBlock: TEMPAE_clean_linker_10, # of connection points: 2
#     Edge 131, Type (0, 0), BuildingBlock: TEMPAE_clean_linker_10, # of connection points: 2
#     Edge 132, Type (0, 0), BuildingBlock: TEMPAE_clean_linker_10, # of connection points: 2
#     Edge 133, Type (0, 0), BuildingBlock: TEMPAE_clean_linker_10, # of connection points: 2
#     Edge 134, Type (0, 0), BuildingBlock: TEMPAE_clean_linker_10, # of connection points: 2
#     Edge 135, Type (0, 0), BuildingBlock: TEMPAE_clean_linker_10, # of connection points: 2
#     Edge 136, Type (0, 0), BuildingBlock: TEMPAE_clean_linker_10, # of connection points: 2
#     Edge 137, Type (0, 0), BuildingBlock: TEMPAE_clean_linker_10, # of connection points: 2
#     Edge 138, Type (0, 0), BuildingBlock: TEMPAE_clean_linker_10, # of connection points: 2
#     Edge 139, Type (0, 0), BuildingBlock: TEMPAE_clean_linker_10, # of connection points: 2
#     Edge 140, Type (0, 0), BuildingBlock: TEMPAE_clean_linker_10, # of connection points: 2
#     Edge 141, Type (0, 0), BuildingBlock: TEMPAE_clean_linker_10, # of connection points: 2
#     Edge 142, Type (0, 0), BuildingBlock: TEMPAE_clean_linker_10, # of connection points: 2
#     Edge 143, Type (0, 0), BuildingBlock: TEMPAE_clean_linker_10, # of connection points: 2
# Relax obj value: 0.256
# Max RMSD: 0.067
# Mean RMSD: 0.061
data_MOF--net-nfb--node1-CEKHIL_clean_sbu_0--edge1-TEMPAE_clean_linker_10
_symmetry_space_group_name_H-M    P1
_symmetry_Int_Tables_number       1
_symmetry_cell_setting            triclinic
loop_
_symmetry_equiv_pos_as_xyz
'x, y, z'
_cell_length_a     60.230825
_cell_length_b     60.201261
_cell_length_c     60.228973
_cell_angle_alpha  90.063383
_cell_angle_beta   90.337992
_cell_angle_gamma 90.571525
loop_
_atom_site_label
_atom_site_type_symbol
_atom_site_fract_x
_atom_site_fract_y
_atom_site_fract_z
_atom_type_partial_charge
Co0 Co 0.13475 0.14144 0.40165 0.0
O1 O 0.16522 0.14919 0.40834 0.0
O2 O 0.15578 0.1213 0.38665 0.0
C3 C 0.12535 0.17718 0.39515 0.0
O4 O 0.10344 0.13021 0.39125 0.0
Co5 Co 0.09882 0.1622 0.43263 0.0
O6 O 0.07831 0.15139 0.40919 0.0
C7 C 0.12695 0.1254 0.4483 0.0
C8 C 0.17164 0.13319 0.39581 0.0
C9 C 0.08321 0.13682 0.3947 0.0
O10 O 0.13371 0.12145 0.42849 0.0
O11 O 0.11509 0.14213 0.4535 0.0
O12 O 0.13382 0.16529 0.37936 0.0
O13 O 0.12414 0.16749 0.4141 0.0
Co14 Co 0.37979 0.6118 0.89967 0.0
O15 O 0.38072 0.58048 0.9057 0.0
O16 O 0.38006 0.59399 0.87191 0.0
C17 C 0.40668 0.6208 0.92435 0.0
O18 O 0.37897 0.64477 0.88923 0.0
Co19 Co 0.36567 0.64069 0.94077 0.0
O20 O 0.3729 0.66528 0.92027 0.0
C21 C 0.33223 0.61426 0.91649 0.0
C22 C 0.38066 0.57647 0.88469 0.0
C23 C 0.3767 0.66366 0.89953 0.0
O24 O 0.3462 0.61063 0.90078 0.0
O25 O 0.33758 0.62366 0.93486 0.0
O26 O 0.41225 0.61416 0.90466 0.0
O27 O 0.38588 0.61949 0.92868 0.0
Co28 Co 0.85976 0.8708 0.39731 0.0
O29 O 0.82972 0.86303 0.4055 0.0
O30 O 0.83771 0.88982 0.38211 0.0
C31 C 0.86979 0.83508 0.39196 0.0
O32 O 0.89048 0.88179 0.38518 0.0
Co33 Co 0.89778 0.85241 0.42774 0.0
O34 O 0.91599 0.85975 0.40162 0.0
C35 C 0.87277 0.89221 0.44127 0.0
C36 C 0.82246 0.87825 0.3924 0.0
C37 C 0.91062 0.87425 0.38722 0.0
O38 O 0.86179 0.89244 0.42291 0.0
O39 O 0.88658 0.87712 0.44669 0.0
O40 O 0.85995 0.84597 0.37619 0.0
O41 O 0.87161 0.8455 0.41057 0.0
Co42 Co 0.63719 0.39951 0.91123 0.0
O43 O 0.63685 0.43094 0.91657 0.0
O44 O 0.63116 0.4164 0.88358 0.0
C45 C 0.61593 0.39087 0.94085 0.0
O46 O 0.63653 0.36622 0.90167 0.0
Co47 Co 0.66027 0.37256 0.94948 0.0
O48 O 0.64988 0.3471 0.93128 0.0
C49 C 0.68719 0.39918 0.91889 0.0
C50 C 0.63297 0.43429 0.8958 0.0
C51 C 0.64162 0.34778 0.91173 0.0
O52 O 0.67029 0.40138 0.90588 0.0
O53 O 0.68593 0.39052 0.93824 0.0
O54 O 0.60646 0.3966 0.92231 0.0
O55 O 0.6372 0.39273 0.94106 0.0
Co56 Co 0.12268 0.88638 0.60786 0.0
O57 O 0.0912 0.88745 0.60261 0.0
O58 O 0.1059 0.88868 0.63601 0.0
C59 C 0.13133 0.91143 0.58131 0.0
O60 O 0.15593 0.88556 0.61743 0.0
Co61 Co 0.14944 0.86857 0.56684 0.0
O62 O 0.17493 0.87592 0.58645 0.0
C63 C 0.12298 0.83775 0.59383 0.0
C64 C 0.08796 0.88858 0.6237 0.0
C65 C 0.17428 0.88152 0.60687 0.0
O66 O 0.12079 0.85283 0.60885 0.0
O67 O 0.1316 0.84154 0.57481 0.0
O68 O 0.12541 0.9184 0.60079 0.0
O69 O 0.12952 0.89037 0.57836 0.0
Co70 Co 0.6317 0.61521 0.11278 0.0
O71 O 0.63801 0.64471 0.10167 0.0
O72 O 0.61486 0.6383 0.12891 0.0
C73 C 0.66798 0.606 0.11461 0.0
O74 O 0.62225 0.58515 0.12787 0.0
Co75 Co 0.64613 0.5755 0.08336 0.0
O76 O 0.64252 0.55865 0.11107 0.0
C77 C 0.6052 0.60007 0.0723 0.0
C78 C 0.62453 0.65283 0.11598 0.0
C79 C 0.62951 0.56485 0.12639 0.0
O80 O 0.60736 0.61205 0.08987 0.0
O81 O 0.6193 0.58545 0.0664 0.0
O82 O 0.65861 0.61627 0.13097 0.0
O83 O 0.65558 0.60286 0.09733 0.0
Co84 Co 0.89536 0.1268 0.60818 0.0
O85 O 0.92663 0.1269 0.60185 0.0
O86 O 0.91352 0.12885 0.6357 0.0
C87 C 0.88745 0.09801 0.58531 0.0
O88 O 0.86263 0.12691 0.61912 0.0
Co89 Co 0.86459 0.1363 0.56681 0.0
O90 O 0.84095 0.12885 0.5882 0.0
C91 C 0.889 0.1731 0.58866 0.0
C92 C 0.93088 0.12813 0.62281 0.0
C93 C 0.84337 0.12714 0.60916 0.0
O94 O 0.89479 0.1603 0.60484 0.0
O95 O 0.87911 0.166 0.57112 0.0
O96 O 0.89453 0.094 0.60528 0.0
O97 O 0.88751 0.11856 0.5797 0.0
Co98 Co 0.37308 0.37609 0.10284 0.0
O99 O 0.36795 0.3456 0.09414 0.0
O100 O 0.39478 0.3559 0.11688 0.0
C101 C 0.33687 0.38199 0.11022 0.0
O102 O 0.38192 0.40758 0.11485 0.0
Co103 Co 0.34896 0.4119 0.07418 0.0
O104 O 0.35829 0.43181 0.09867 0.0
C105 C 0.38738 0.38746 0.0565 0.0
C106 C 0.38447 0.33979 0.10639 0.0
C107 C 0.37359 0.42736 0.11263 0.0
O108 O 0.39246 0.38027 0.07594 0.0
O109 O 0.36963 0.39823 0.0522 0.0
O110 O 0.34977 0.37369 0.12535 0.0
O111 O 0.34592 0.38509 0.09117 0.0
Co112 Co 0.39546 0.13585 0.13068 0.0
O113 O 0.4068 0.16582 0.13391 0.0
O114 O 0.38177 0.15627 0.10893 0.0
C115 C 0.38996 0.13276 0.16767 0.0
O116 O 0.38053 0.10506 0.12343 0.0
Co117 Co 0.41934 0.09752 0.15534 0.0
O118 O 0.39091 0.0818 0.15075 0.0
C119 C 0.43656 0.1146 0.1122 0.0
C120 C 0.39387 0.17198 0.11803 0.0
C121 C 0.37907 0.08613 0.13379 0.0
O122 O 0.42081 0.12875 0.11021 0.0
O123 O 0.43894 0.10174 0.12895 0.0
O124 O 0.37464 0.14101 0.15499 0.0
O125 O 0.40795 0.12707 0.15781 0.0
Co126 Co 0.3879 0.90977 0.62693 0.0
O127 O 0.4191 0.91689 0.62791 0.0
O128 O 0.40635 0.88293 0.62326 0.0
C129 C 0.37936 0.93783 0.60358 0.0
O130 O 0.35535 0.89783 0.6251 0.0
Co131 Co 0.35604 0.94637 0.64521 0.0
O132 O 0.33317 0.92747 0.63088 0.0
C133 C 0.37986 0.91723 0.67639 0.0
C134 C 0.42358 0.89618 0.62514 0.0
C135 C 0.33595 0.90716 0.62577 0.0
O136 O 0.388 0.90602 0.66021 0.0
O137 O 0.36771 0.93437 0.67392 0.0
O138 O 0.38647 0.91915 0.59565 0.0
O139 O 0.37951 0.93929 0.62491 0.0
Co140 Co 0.61466 0.8589 0.13128 0.0
O141 O 0.60322 0.82897 0.13454 0.0
O142 O 0.631 0.83737 0.11266 0.0
C143 C 0.61581 0.86412 0.16844 0.0
O144 O 0.63008 0.88969 0.12487 0.0
Co145 Co 0.58691 0.89765 0.15051 0.0
O146 O 0.61541 0.91374 0.14934 0.0
C147 C 0.57582 0.87836 0.10618 0.0
C148 C 0.61797 0.82203 0.12091 0.0
C149 C 0.62971 0.90901 0.13469 0.0
O150 O 0.59193 0.8645 0.10719 0.0
O151 O 0.57109 0.89197 0.12176 0.0
O152 O 0.6325 0.85534 0.15828 0.0
O153 O 0.59894 0.86876 0.15612 0.0
Co154 Co 0.63022 0.10633 0.62901 0.0
O155 O 0.59893 0.09963 0.62886 0.0
O156 O 0.61227 0.13327 0.6238 0.0
C157 C 0.63907 0.07742 0.6069 0.0
O158 O 0.66294 0.11784 0.62811 0.0
Co159 Co 0.66094 0.06994 0.64983 0.0
O160 O 0.68462 0.08843 0.63666 0.0
C161 C 0.63621 0.10008 0.67902 0.0
C162 C 0.59482 0.12031 0.62531 0.0
C163 C 0.68221 0.10847 0.6304 0.0
O164 O 0.6291 0.11112 0.66217 0.0
O165 O 0.64805 0.08262 0.67758 0.0
O166 O 0.63245 0.09592 0.59812 0.0
O167 O 0.63828 0.07666 0.62824 0.0
Co168 Co 0.40328 0.87722 0.88298 0.0
O169 O 0.41013 0.90851 0.88323 0.0
O170 O 0.37628 0.89532 0.88698 0.0
C171 C 0.43141 0.86835 0.90625 0.0
O172 O 0.39148 0.84454 0.88353 0.0
Co173 Co 0.44002 0.84604 0.86394 0.0
O174 O 0.42094 0.8225 0.87652 0.0
C175 C 0.41172 0.87163 0.83341 0.0
C176 C 0.38936 0.91271 0.88585 0.0
C177 C 0.40071 0.82514 0.88183 0.0
O178 O 0.39981 0.87846 0.84968 0.0
O179 O 0.42903 0.85968 0.83571 0.0
O180 O 0.41263 0.87499 0.91427 0.0
O181 O 0.43284 0.86899 0.88495 0.0
Co182 Co 0.61626 0.88941 0.36996 0.0
O183 O 0.64616 0.8985 0.36253 0.0
O184 O 0.63842 0.87815 0.39166 0.0
C185 C 0.6092 0.87939 0.33438 0.0
O186 O 0.58578 0.87681 0.38139 0.0
Co187 Co 0.57671 0.91229 0.34598 0.0
O188 O 0.56066 0.88516 0.35485 0.0
C189 C 0.5991 0.93416 0.38447 0.0
C190 C 0.65357 0.8877 0.3794 0.0
C191 C 0.56609 0.87484 0.37244 0.0
O192 O 0.61219 0.91764 0.38746 0.0
O193 O 0.58482 0.93525 0.36869 0.0
O194 O 0.61823 0.86539 0.34803 0.0
O195 O 0.6052 0.8987 0.34252 0.0
Co196 Co 0.60239 0.13539 0.88445 0.0
O197 O 0.595 0.10424 0.88299 0.0
O198 O 0.62881 0.11662 0.88944 0.0
C199 C 0.57329 0.14379 0.90636 0.0
O200 O 0.61469 0.16779 0.88717 0.0
Co201 Co 0.56738 0.16807 0.8646 0.0
O202 O 0.58597 0.19068 0.87966 0.0
C203 C 0.5966 0.1431 0.83471 0.0
C204 C 0.6155 0.09953 0.88681 0.0
C205 C 0.60586 0.18742 0.88602 0.0
O206 O 0.60751 0.13536 0.85138 0.0
O207 O 0.57948 0.15538 0.83647 0.0
O208 O 0.5916 0.13659 0.91516 0.0
O209 O 0.57287 0.14405 0.88498 0.0
Co210 Co 0.37666 0.11753 0.37004 0.0
O211 O 0.34639 0.1094 0.36283 0.0
O212 O 0.35533 0.13029 0.39143 0.0
C213 C 0.38414 0.12612 0.33423 0.0
O214 O 0.40764 0.12931 0.38102 0.0
Co215 Co 0.4142 0.09079 0.34653 0.0
O216 O 0.43311 0.11544 0.35738 0.0
C217 C 0.38773 0.07072 0.3828 0.0
C218 C 0.33968 0.12088 0.37949 0.0
C219 C 0.42777 0.12823 0.37329 0.0
O220 O 0.37967 0.08964 0.38832 0.0
O221 O 0.39982 0.06772 0.36565 0.0
O222 O 0.37555 0.14093 0.34723 0.0
O223 O 0.38711 0.10698 0.3431 0.0
Co224 Co 0.13573 0.40188 0.13775 0.0
O225 O 0.14137 0.41094 0.16803 0.0
O226 O 0.11495 0.38729 0.15877 0.0
C227 C 0.17199 0.39568 0.13076 0.0
O228 O 0.12657 0.38959 0.10644 0.0
Co229 Co 0.15837 0.43164 0.1015 0.0
O230 O 0.14915 0.40693 0.0818 0.0
C231 C 0.11968 0.44763 0.12665 0.0
C232 C 0.12534 0.39829 0.17447 0.0
C233 C 0.13439 0.39237 0.08647 0.0
O234 O 0.11542 0.42802 0.13398 0.0
O235 O 0.13714 0.45271 0.11564 0.0
O236 O 0.15981 0.38016 0.13957 0.0
O237 O 0.16227 0.41438 0.12796 0.0
Co238 Co 0.12109 0.6075 0.89133 0.0
O239 O 0.12019 0.60128 0.92263 0.0
O240 O 0.12071 0.63515 0.90922 0.0
C241 C 0.09441 0.58249 0.8822 0.0
O242 O 0.12182 0.6184 0.85856 0.0
Co243 Co 0.13542 0.56706 0.86163 0.0
O244 O 0.12822 0.58791 0.83737 0.0
C245 C 0.16852 0.5908 0.88897 0.0
C246 C 0.12021 0.62231 0.92668 0.0
C247 C 0.1242 0.60856 0.83946 0.0
O248 O 0.15469 0.60664 0.89244 0.0
O249 O 0.16312 0.57254 0.87935 0.0
O250 O 0.08866 0.60204 0.88907 0.0
O251 O 0.11526 0.57848 0.8833 0.0
Co252 Co 0.90468 0.62643 0.37954 0.0
O253 O 0.91069 0.62698 0.41093 0.0
O254 O 0.87705 0.62364 0.39709 0.0
C255 C 0.93191 0.6019 0.372 0.0
O256 O 0.8939 0.62523 0.34667 0.0
Co257 Co 0.94365 0.64359 0.34956 0.0
O258 O 0.92404 0.63268 0.32541 0.0
C259 C 0.91618 0.67562 0.37388 0.0
C260 C 0.88974 0.62484 0.41472 0.0
C261 C 0.90365 0.62731 0.32754 0.0
O262 O 0.90259 0.65993 0.37946 0.0
O263 O 0.93448 0.6721 0.36382 0.0
O264 O 0.91257 0.59474 0.37839 0.0
O265 O 0.93435 0.62316 0.37224 0.0
Co266 Co 0.89196 0.41546 0.87153 0.0
O267 O 0.8929 0.4219 0.90282 0.0
O268 O 0.89338 0.38797 0.8897 0.0
C269 C 0.91776 0.44143 0.86281 0.0
O270 O 0.89149 0.4046 0.83859 0.0
Co271 Co 0.87592 0.45507 0.84174 0.0
O272 O 0.88737 0.43578 0.81789 0.0
C273 C 0.84372 0.42991 0.86856 0.0
C274 C 0.89367 0.40097 0.9071 0.0
C275 C 0.89101 0.41502 0.81962 0.0
O276 O 0.85843 0.415 0.87253 0.0
O277 O 0.84805 0.44814 0.85847 0.0
O278 O 0.92409 0.42199 0.86952 0.0
O279 O 0.89673 0.44472 0.86362 0.0
Co280 Co 0.11294 0.38035 0.37977 0.0
O281 O 0.10218 0.37603 0.34977 0.0
O282 O 0.1287 0.3998 0.35834 0.0
C283 C 0.11588 0.34343 0.38572 0.0
O284 O 0.12749 0.38811 0.4106 0.0
Co285 Co 0.0849 0.36054 0.41813 0.0
O286 O 0.11284 0.36362 0.4349 0.0
C287 C 0.07239 0.4036 0.39776 0.0
C288 C 0.11626 0.39066 0.34294 0.0
C289 C 0.12692 0.3787 0.43008 0.0
O290 O 0.08917 0.40315 0.38467 0.0
O291 O 0.06764 0.38802 0.41146 0.0
O292 O 0.1321 0.35456 0.37685 0.0
O293 O 0.09823 0.35464 0.3898 0.0
Co294 Co 0.8804 0.60416 0.11445 0.0
O295 O 0.8798 0.59788 0.08313 0.0
O296 O 0.87936 0.63176 0.09659 0.0
C297 C 0.90827 0.58032 0.12167 0.0
O298 O 0.88109 0.61512 0.14724 0.0
Co299 Co 0.86935 0.56326 0.14511 0.0
O300 O 0.87805 0.58435 0.16882 0.0
C301 C 0.83358 0.58556 0.12031 0.0
C302 C 0.87941 0.61889 0.07911 0.0
C303 C 0.88072 0.60524 0.16646 0.0
O304 O 0.84684 0.60173 0.11519 0.0
O305 O 0.84008 0.56785 0.13001 0.0
O306 O 0.91297 0.60022 0.11479 0.0
O307 O 0.88749 0.57539 0.12197 0.0
Co308 Co 0.89237 0.37571 0.61715 0.0
O309 O 0.90285 0.36884 0.64666 0.0
O310 O 0.87681 0.39316 0.64019 0.0
C311 C 0.88975 0.33937 0.60769 0.0
O312 O 0.87773 0.38577 0.58719 0.0
Co313 Co 0.92068 0.36019 0.57706 0.0
O314 O 0.89266 0.36406 0.5607 0.0
C315 C 0.93337 0.40104 0.60199 0.0
C316 C 0.88892 0.38269 0.65481 0.0
C317 C 0.87831 0.37804 0.56698 0.0
O318 O 0.91618 0.39934 0.61446 0.0
O319 O 0.93827 0.3868 0.58702 0.0
O320 O 0.87344 0.34909 0.61767 0.0
O321 O 0.90716 0.35157 0.60465 0.0
Co322 Co 0.09829 0.62922 0.62672 0.0
O323 O 0.0914 0.62874 0.59551 0.0
O324 O 0.12541 0.6263 0.60846 0.0
C325 C 0.0712 0.60464 0.63579 0.0
O326 O 0.10983 0.62905 0.65934 0.0
Co327 Co 0.0601 0.64707 0.657 0.0
O328 O 0.08028 0.6373 0.68098 0.0
C329 C 0.08622 0.67808 0.6297 0.0
C330 C 0.11221 0.62681 0.59117 0.0
C331 C 0.1005 0.63176 0.67859 0.0
O332 O 0.10043 0.66274 0.62568 0.0
O333 O 0.0679 0.67448 0.63981 0.0
O334 O 0.09023 0.59746 0.62895 0.0
O335 O 0.06892 0.62584 0.63497 0.0
Co336 Co 0.8778 0.88124 0.61937 0.0
O337 O 0.84817 0.87495 0.60895 0.0
O338 O 0.85554 0.88455 0.64331 0.0
C339 C 0.88592 0.90275 0.58967 0.0
O340 O 0.9083 0.88894 0.63434 0.0
Co341 Co 0.91637 0.86553 0.5885 0.0
O342 O 0.93355 0.88685 0.60674 0.0
C343 C 0.8934 0.83348 0.61791 0.0
C344 C 0.84057 0.87906 0.62843 0.0
C345 C 0.92822 0.892 0.6265 0.0
O346 O 0.88167 0.84886 0.62668 0.0
O347 O 0.9071 0.8366 0.60202 0.0
O348 O 0.876 0.91133 0.60669 0.0
O349 O 0.88919 0.88171 0.59085 0.0
Co350 Co 0.6278 0.36776 0.1259 0.0
O351 O 0.63125 0.39879 0.11892 0.0
O352 O 0.60879 0.38703 0.14481 0.0
C353 C 0.66456 0.36143 0.12723 0.0
O354 O 0.62236 0.33494 0.13638 0.0
Co355 Co 0.64649 0.33558 0.08983 0.0
O356 O 0.64574 0.31492 0.11503 0.0
C357 C 0.60261 0.35607 0.08325 0.0
C358 C 0.61717 0.40391 0.13396 0.0
C359 C 0.6328 0.31663 0.13156 0.0
O360 O 0.60369 0.3654 0.10246 0.0
O361 O 0.61826 0.34451 0.075 0.0
O362 O 0.65438 0.36886 0.14459 0.0
O363 O 0.65271 0.36023 0.10936 0.0
Co364 Co 0.14259 0.11906 0.61504 0.0
O365 O 0.17243 0.12048 0.60413 0.0
O366 O 0.16466 0.11965 0.63964 0.0
C367 C 0.13149 0.09245 0.59085 0.0
O368 O 0.11167 0.11746 0.63035 0.0
Co369 Co 0.10703 0.13321 0.57959 0.0
O370 O 0.08665 0.12098 0.60225 0.0
C371 C 0.13497 0.16707 0.60147 0.0
C372 C 0.17983 0.12081 0.62422 0.0
C373 C 0.09143 0.11729 0.62257 0.0
O374 O 0.14174 0.1524 0.61536 0.0
O375 O 0.12271 0.16236 0.58464 0.0
O376 O 0.14152 0.08677 0.6091 0.0
O377 O 0.13073 0.11347 0.5873 0.0
Co378 Co 0.36246 0.62386 0.1161 0.0
O379 O 0.35797 0.59239 0.11275 0.0
O380 O 0.38734 0.60658 0.12927 0.0
C381 C 0.32744 0.63004 0.1278 0.0
O382 O 0.37027 0.65735 0.12116 0.0
Co383 Co 0.3317 0.65109 0.08384 0.0
O384 O 0.34482 0.67622 0.10071 0.0
C385 C 0.37081 0.62788 0.06673 0.0
C386 C 0.37662 0.58881 0.1225 0.0
C387 C 0.36126 0.67572 0.11417 0.0
O388 O 0.37798 0.62467 0.08659 0.0
O389 O 0.35161 0.63573 0.06228 0.0
O390 O 0.34259 0.62412 0.14196 0.0
O391 O 0.33364 0.62988 0.10744 0.0
Co392 Co 0.88594 0.14335 0.39573 0.0
O393 O 0.91713 0.1493 0.39924 0.0
O394 O 0.90436 0.12 0.38158 0.0
C395 C 0.87707 0.17799 0.38519 0.0
O396 O 0.8529 0.13449 0.38982 0.0
Co397 Co 0.85708 0.1709 0.42908 0.0
O398 O 0.83343 0.16068 0.40844 0.0
C399 C 0.8824 0.13246 0.44478 0.0
C400 C 0.92162 0.13135 0.38869 0.0
C401 C 0.83447 0.1445 0.39479 0.0
O402 O 0.8861 0.12646 0.42467 0.0
O403 O 0.87325 0.15085 0.44995 0.0
O404 O 0.88415 0.16393 0.37055 0.0
O405 O 0.87835 0.17144 0.40547 0.0
Co406 Co 0.39096 0.36476 0.89092 0.0
O407 O 0.38976 0.33467 0.90147 0.0
O408 O 0.38873 0.34319 0.86607 0.0
C409 C 0.41897 0.37512 0.91387 0.0
O410 O 0.39222 0.3959 0.87586 0.0
Co411 Co 0.37964 0.40021 0.92739 0.0
O412 O 0.391 0.42065 0.90429 0.0
C413 C 0.34392 0.3736 0.9067 0.0
C414 C 0.38842 0.3277 0.88128 0.0
C415 C 0.39331 0.41604 0.88376 0.0
O416 O 0.35765 0.36626 0.89224 0.0
O417 O 0.34986 0.38556 0.92335 0.0
O418 O 0.42356 0.36527 0.89529 0.0
O419 O 0.39822 0.37609 0.91847 0.0
Co420 Co 0.1037 0.86238 0.39416 0.0
O421 O 0.07214 0.86163 0.39817 0.0
O422 O 0.08866 0.88713 0.37816 0.0
C423 C 0.10585 0.82587 0.38606 0.0
O424 O 0.13772 0.86538 0.38797 0.0
Co425 Co 0.12778 0.83235 0.42947 0.0
O426 O 0.15272 0.83797 0.40896 0.0
C427 C 0.1094 0.8755 0.44243 0.0
C428 C 0.07009 0.87898 0.38601 0.0
C429 C 0.15441 0.85314 0.39423 0.0
O430 O 0.10692 0.881 0.42195 0.0
O431 O 0.11499 0.85602 0.44871 0.0
O432 O 0.10118 0.83995 0.37048 0.0
O433 O 0.10665 0.83415 0.40572 0.0
Co434 Co 0.63383 0.64625 0.89747 0.0
O435 O 0.63767 0.67652 0.9069 0.0
O436 O 0.62842 0.6673 0.87278 0.0
C437 C 0.61364 0.63651 0.9275 0.0
O438 O 0.62838 0.61488 0.88381 0.0
Co439 Co 0.65476 0.61133 0.93014 0.0
O440 O 0.63748 0.59054 0.91109 0.0
C441 C 0.68325 0.6384 0.90112 0.0
C442 C 0.63268 0.68307 0.88718 0.0
C443 C 0.62946 0.59488 0.89194 0.0
O444 O 0.66631 0.64469 0.88971 0.0
O445 O 0.68179 0.62742 0.91925 0.0
O446 O 0.60377 0.64556 0.91059 0.0
O447 O 0.63486 0.63562 0.92607 0.0
Co448 Co 0.60737 0.88689 0.88335 0.0
O449 O 0.59798 0.85677 0.87803 0.0
O450 O 0.63282 0.86619 0.88361 0.0
C451 C 0.58017 0.89338 0.90827 0.0
O452 O 0.62124 0.91815 0.88939 0.0
Co453 Co 0.57201 0.92233 0.86978 0.0
O454 O 0.59262 0.9422 0.88632 0.0
C455 C 0.59775 0.89937 0.83548 0.0
C456 C 0.61826 0.85042 0.87955 0.0
C457 C 0.61279 0.93791 0.89108 0.0
O458 O 0.61073 0.89147 0.85047 0.0
O459 O 0.58008 0.91014 0.8399 0.0
O460 O 0.59852 0.88419 0.91471 0.0
O461 O 0.57857 0.8965 0.8872 0.0
Co462 Co 0.62078 0.13632 0.36126 0.0
O463 O 0.58921 0.13851 0.35779 0.0
O464 O 0.60614 0.14424 0.38968 0.0
C465 C 0.62922 0.15555 0.33032 0.0
O466 O 0.65476 0.1345 0.36792 0.0
Co467 Co 0.64037 0.10849 0.32178 0.0
O468 O 0.6681 0.11784 0.33704 0.0
C469 C 0.61752 0.08565 0.3579 0.0
C470 C 0.58743 0.14272 0.37861 0.0
C471 C 0.67113 0.12726 0.35586 0.0
O472 O 0.61723 0.10388 0.36902 0.0
O473 O 0.62371 0.08454 0.33765 0.0
O474 O 0.62537 0.16639 0.34852 0.0
O475 O 0.62513 0.13463 0.33116 0.0
Co476 Co 0.3979 0.12306 0.88131 0.0
O477 O 0.40866 0.15258 0.87511 0.0
O478 O 0.37338 0.14479 0.87992 0.0
C479 C 0.42429 0.11679 0.90739 0.0
O480 O 0.38236 0.09267 0.88803 0.0
Co481 Co 0.43092 0.08445 0.87188 0.0
O482 O 0.41025 0.068 0.89125 0.0
C483 C 0.40587 0.10485 0.83495 0.0
C484 C 0.38862 0.15979 0.87572 0.0
C485 C 0.38988 0.0731 0.89308 0.0
O486 O 0.39522 0.11725 0.84851 0.0
O487 O 0.42125 0.09151 0.84082 0.0
O488 O 0.40611 0.12683 0.91275 0.0
O489 O 0.42627 0.11237 0.88658 0.0
Co490 Co 0.36919 0.88421 0.37555 0.0
O491 O 0.40026 0.89069 0.37176 0.0
O492 O 0.38834 0.86607 0.3956 0.0
C493 C 0.36228 0.88119 0.33884 0.0
O494 O 0.3363 0.87438 0.3816 0.0
Co495 Co 0.33733 0.91944 0.35466 0.0
O496 O 0.31646 0.89424 0.35662 0.0
C497 C 0.35771 0.92764 0.39876 0.0
C498 C 0.40531 0.87624 0.38658 0.0
C499 C 0.31797 0.87864 0.37078 0.0
O500 O 0.36747 0.90874 0.39845 0.0
O501 O 0.34593 0.93505 0.3827 0.0
O502 O 0.36951 0.86425 0.34992 0.0
O503 O 0.36161 0.89959 0.34975 0.0
Co504 Co 0.62941 0.10165 0.15369 0.0
O505 O 0.63038 0.06981 0.1553 0.0
O506 O 0.64146 0.08828 0.126 0.0
C507 C 0.64425 0.10776 0.18747 0.0
O508 O 0.62961 0.13615 0.14941 0.0
Co509 Co 0.59724 0.12052 0.18973 0.0
O510 O 0.61199 0.1484 0.18021 0.0
C511 C 0.5788 0.10119 0.14886 0.0
C512 C 0.63806 0.06902 0.1355 0.0
C513 C 0.62322 0.15206 0.16264 0.0
O514 O 0.59844 0.09973 0.1408 0.0
O515 O 0.57501 0.1069 0.16895 0.0
O516 O 0.65728 0.10475 0.17068 0.0
O517 O 0.62355 0.10397 0.18367 0.0
Co518 Co 0.38498 0.10996 0.62359 0.0
O519 O 0.35554 0.09829 0.62817 0.0
O520 O 0.36276 0.13396 0.62554 0.0
C521 C 0.39295 0.08528 0.59654 0.0
O522 O 0.4152 0.12641 0.61865 0.0
Co523 Co 0.42382 0.07695 0.6332 0.0
O524 O 0.44059 0.0991 0.61576 0.0
C525 C 0.40169 0.09979 0.67028 0.0
C526 C 0.34795 0.11821 0.62839 0.0
C527 C 0.4351 0.11942 0.61425 0.0
O528 O 0.38974 0.11103 0.65667 0.0
O529 O 0.41537 0.0848 0.66432 0.0
O530 O 0.38238 0.10333 0.59162 0.0
O531 O 0.39658 0.08226 0.61739 0.0
Co532 Co 0.38524 0.89098 0.14075 0.0
O533 O 0.38731 0.92261 0.14456 0.0
O534 O 0.37152 0.9073 0.11542 0.0
C535 C 0.37351 0.88477 0.17583 0.0
O536 O 0.38161 0.85713 0.13373 0.0
Co537 Co 0.41801 0.86588 0.17296 0.0
O538 O 0.40212 0.83988 0.16029 0.0
C539 C 0.43485 0.88863 0.13304 0.0
C540 C 0.37744 0.9255 0.12586 0.0
C541 C 0.38914 0.83931 0.14345 0.0
O542 O 0.41502 0.89126 0.12553 0.0
O543 O 0.43916 0.88138 0.15256 0.0
O544 O 0.35917 0.88962 0.16046 0.0
O545 O 0.39384 0.88594 0.16973 0.0
Co546 Co 0.63617 0.90316 0.62694 0.0
O547 O 0.6664 0.91305 0.6307 0.0
O548 O 0.65696 0.87784 0.62832 0.0
C549 C 0.62845 0.92827 0.60016 0.0
O550 O 0.60484 0.88875 0.62266 0.0
Co551 Co 0.60083 0.93946 0.63851 0.0
O552 O 0.58068 0.9174 0.6243 0.0
C553 C 0.62495 0.91646 0.67416 0.0
C554 C 0.6728 0.89271 0.63055 0.0
C555 C 0.58499 0.89699 0.62085 0.0
O556 O 0.63242 0.90229 0.66014 0.0
O557 O 0.61415 0.9338 0.66853 0.0
O558 O 0.63793 0.90975 0.59484 0.0
O559 O 0.62606 0.93139 0.6211 0.0
Co560 Co 0.88698 0.61273 0.86707 0.0
O561 O 0.88535 0.60236 0.83697 0.0
O562 O 0.88805 0.63771 0.84563 0.0
C563 C 0.91217 0.58713 0.87758 0.0
O564 O 0.88917 0.62747 0.89829 0.0
Co565 Co 0.87051 0.57752 0.90164 0.0
O566 O 0.8842 0.59909 0.92259 0.0
C567 C 0.83805 0.60221 0.87501 0.0
C568 C 0.88642 0.62256 0.83011 0.0
C569 C 0.88895 0.61933 0.91832 0.0
O570 O 0.85375 0.61483 0.86785 0.0
O571 O 0.84149 0.58503 0.88703 0.0
O572 O 0.91879 0.60546 0.86826 0.0
O573 O 0.89095 0.58442 0.87818 0.0
Co574 Co 0.86099 0.39136 0.10507 0.0
O575 O 0.85584 0.39072 0.07362 0.0
O576 O 0.88597 0.37733 0.08886 0.0
C577 C 0.82646 0.37927 0.11349 0.0
O578 O 0.86911 0.39019 0.13877 0.0
Co579 Co 0.82997 0.42573 0.12875 0.0
O580 O 0.84297 0.41145 0.15534 0.0
C581 C 0.86944 0.44134 0.10465 0.0
C582 C 0.87451 0.38105 0.07075 0.0
C583 C 0.85967 0.39856 0.15631 0.0
O584 O 0.87614 0.42125 0.10249 0.0
O585 O 0.85034 0.44633 0.11234 0.0
O586 O 0.84175 0.365 0.10877 0.0
O587 O 0.83214 0.39968 0.11063 0.0
Co588 Co 0.12395 0.36451 0.62516 0.0
O589 O 0.11982 0.36221 0.59354 0.0
O590 O 0.13763 0.39009 0.60903 0.0
C591 C 0.135 0.32893 0.62871 0.0
O592 O 0.13025 0.36984 0.65899 0.0
Co593 Co 0.09246 0.33228 0.65183 0.0
O594 O 0.11274 0.34113 0.67616 0.0
C595 C 0.07486 0.37272 0.63077 0.0
C596 C 0.13044 0.38059 0.59079 0.0
C597 C 0.12566 0.35805 0.67662 0.0
O598 O 0.0946 0.38028 0.62733 0.0
O599 O 0.07076 0.35319 0.6382 0.0
O600 O 0.14936 0.34428 0.62363 0.0
O601 O 0.11477 0.33542 0.6295 0.0
Co602 Co 0.11741 0.61547 0.13767 0.0
O603 O 0.11993 0.60346 0.16704 0.0
O604 O 0.11765 0.6392 0.1606 0.0
C605 C 0.09125 0.59077 0.12637 0.0
O606 O 0.11462 0.63176 0.1073 0.0
Co607 Co 0.13198 0.58167 0.10087 0.0
O608 O 0.11878 0.6046 0.08148 0.0
C609 C 0.16566 0.60407 0.1286 0.0
C610 C 0.11983 0.62324 0.17514 0.0
C611 C 0.11441 0.62457 0.08688 0.0
O612 O 0.15072 0.61721 0.136 0.0
O613 O 0.1612 0.58739 0.11608 0.0
O614 O 0.08532 0.60838 0.1372 0.0
O615 O 0.11233 0.58799 0.12504 0.0
Co616 Co 0.89735 0.62355 0.62529 0.0
O617 O 0.9084 0.62807 0.65493 0.0
O618 O 0.873 0.62339 0.64732 0.0
C619 C 0.92356 0.59838 0.61663 0.0
O620 O 0.88172 0.61848 0.59469 0.0
Co621 Co 0.93063 0.63723 0.58783 0.0
O622 O 0.90938 0.62005 0.56938 0.0
C623 C 0.9062 0.67162 0.61218 0.0
C624 C 0.88839 0.62712 0.66229 0.0
C625 C 0.88925 0.61615 0.5746 0.0
O626 O 0.89455 0.65659 0.62192 0.0
O627 O 0.92232 0.66735 0.59913 0.0
O628 O 0.9056 0.59202 0.62673 0.0
O629 O 0.92552 0.61951 0.6139 0.0
Co630 Co 0.14478 0.39314 0.89123 0.0
O631 O 0.14678 0.39791 0.92272 0.0
O632 O 0.11956 0.37891 0.90745 0.0
C633 C 0.18062 0.38294 0.88807 0.0
O634 O 0.14015 0.38618 0.85745 0.0
Co635 Co 0.17602 0.42592 0.86511 0.0
O636 O 0.16829 0.40509 0.84083 0.0
C637 C 0.1343 0.44187 0.88439 0.0
C638 C 0.12875 0.38678 0.92559 0.0
C639 C 0.15209 0.39126 0.84009 0.0
O640 O 0.12788 0.42179 0.88813 0.0
O641 O 0.15378 0.44697 0.87753 0.0
O642 O 0.16561 0.36834 0.89342 0.0
O643 O 0.17369 0.40305 0.88711 0.0
Co644 Co 0.10171 0.61488 0.37965 0.0
O645 O 0.09124 0.61679 0.34954 0.0
O646 O 0.12663 0.61653 0.35838 0.0
C647 C 0.07741 0.58766 0.3891 0.0
O648 O 0.11682 0.61285 0.41077 0.0
Co649 Co 0.06604 0.62724 0.41529 0.0
O650 O 0.08864 0.61465 0.43552 0.0
C651 C 0.08739 0.66221 0.38863 0.0
C652 C 0.11148 0.61772 0.34281 0.0
C653 C 0.10905 0.61174 0.43087 0.0
O654 O 0.10166 0.64813 0.38167 0.0
O655 O 0.07062 0.65676 0.40047 0.0
O656 O 0.09592 0.5825 0.37948 0.0
O657 O 0.07386 0.60861 0.39068 0.0
Co658 Co 0.88005 0.37131 0.3718 0.0
O659 O 0.88149 0.36568 0.40318 0.0
O660 O 0.86619 0.39553 0.38935 0.0
C661 C 0.86857 0.33647 0.3631 0.0
O662 O 0.87691 0.38036 0.33848 0.0
Co663 Co 0.91322 0.34149 0.34472 0.0
O664 O 0.8975 0.35528 0.3195 0.0
C665 C 0.92966 0.37908 0.37174 0.0
C666 C 0.8718 0.38422 0.40699 0.0
C667 C 0.88442 0.37182 0.32009 0.0
O668 O 0.90991 0.38674 0.37372 0.0
O669 O 0.93387 0.36015 0.3631 0.0
O670 O 0.85404 0.35117 0.36887 0.0
O671 O 0.88884 0.34296 0.36485 0.0
C672 C 0.09633 0.3069 0.38815 0.0
C673 C 0.11629 0.31906 0.38781 0.0
C674 C 0.09634 0.2836 0.38829 0.0
C675 C 0.11681 0.27228 0.38869 0.0
C676 C 0.13702 0.28452 0.38876 0.0
C677 C 0.13652 0.3078 0.38804 0.0
C678 C 0.07447 0.27111 0.38777 0.0
C679 C 0.15918 0.27302 0.38974 0.0
C680 C 0.11818 0.214 0.41213 0.0
C681 C 0.12084 0.20113 0.39292 0.0
C682 C 0.11658 0.23715 0.41093 0.0
C683 C 0.11713 0.24765 0.38995 0.0
C684 C 0.11879 0.23468 0.37039 0.0
C685 C 0.12088 0.21151 0.37212 0.0
C686 C 0.11518 0.25041 0.43218 0.0
C687 C 0.11886 0.24531 0.34771 0.0
H688 H 0.08065 0.31558 0.38769 0.0
H689 H 0.15195 0.31722 0.38776 0.0
H690 H 0.07398 0.25959 0.37339 0.0
H691 H 0.07271 0.26089 0.40298 0.0
H692 H 0.06004 0.28241 0.3866 0.0
H693 H 0.17335 0.28497 0.38993 0.0
H694 H 0.16013 0.26256 0.40487 0.0
H695 H 0.16095 0.26183 0.37523 0.0
H696 H 0.11821 0.20608 0.42828 0.0
H697 H 0.12286 0.20158 0.35725 0.0
H698 H 0.10024 0.26104 0.43193 0.0
H699 H 0.12986 0.2616 0.43369 0.0
H700 H 0.11447 0.23964 0.44713 0.0
H701 H 0.10433 0.25636 0.34582 0.0
H702 H 0.11845 0.2328 0.33414 0.0
H703 H 0.13399 0.25578 0.34582 0.0
C704 C 0.29972 0.60643 0.89143 0.0
C705 C 0.30846 0.60874 0.91294 0.0
C706 C 0.27681 0.60338 0.88796 0.0
C707 C 0.26241 0.6023 0.90645 0.0
C708 C 0.27123 0.60394 0.9282 0.0
C709 C 0.29411 0.60725 0.93118 0.0
C710 C 0.26795 0.6018 0.8645 0.0
C711 C 0.25645 0.60246 0.94834 0.0
C712 C 0.20139 0.61529 0.89749 0.0
C713 C 0.19216 0.59394 0.89516 0.0
C714 C 0.22426 0.61828 0.90125 0.0
C715 C 0.2381 0.59946 0.90305 0.0
C716 C 0.22875 0.57788 0.90144 0.0
C717 C 0.20593 0.57538 0.8974 0.0
C718 C 0.23371 0.64156 0.90277 0.0
C719 C 0.2429 0.55741 0.90368 0.0
H720 H 0.31067 0.60771 0.87726 0.0
H721 H 0.30076 0.60883 0.94788 0.0
H722 H 0.25874 0.58592 0.86215 0.0
H723 H 0.25608 0.61544 0.86139 0.0
H724 H 0.28136 0.60281 0.85194 0.0
H725 H 0.26602 0.60333 0.96415 0.0
H726 H 0.24434 0.61622 0.9481 0.0
H727 H 0.24679 0.58668 0.94802 0.0
H728 H 0.19087 0.62968 0.89566 0.0
H729 H 0.19889 0.55881 0.89584 0.0
H730 H 0.24604 0.64422 0.88939 0.0
H731 H 0.24256 0.64389 0.91882 0.0
H732 H 0.22069 0.65441 0.9013 0.0
H733 H 0.25542 0.55709 0.89026 0.0
H734 H 0.23291 0.54182 0.90285 0.0
H735 H 0.25209 0.5578 0.9197 0.0
C736 C 0.88831 0.80139 0.40701 0.0
C737 C 0.87767 0.81209 0.38928 0.0
C738 C 0.89491 0.7792 0.40526 0.0
C739 C 0.89073 0.76743 0.3853 0.0
C740 C 0.88024 0.77821 0.36724 0.0
C741 C 0.87385 0.80047 0.36944 0.0
C742 C 0.90619 0.7683 0.42482 0.0
C743 C 0.8756 0.76618 0.34567 0.0
C744 C 0.9248 0.71638 0.37267 0.0
C745 C 0.91001 0.69905 0.37814 0.0
C746 C 0.9188 0.73868 0.37513 0.0
C747 C 0.8975 0.74385 0.38327 0.0
C748 C 0.88264 0.72653 0.38926 0.0
C749 C 0.88907 0.70432 0.38665 0.0
C750 C 0.93516 0.7567 0.36869 0.0
C751 C 0.85979 0.73146 0.39809 0.0
H752 H 0.89132 0.81031 0.42239 0.0
H753 H 0.8656 0.80867 0.35571 0.0
H754 H 0.89627 0.75373 0.43037 0.0
H755 H 0.92273 0.76211 0.41987 0.0
H756 H 0.9084 0.77984 0.43908 0.0
H757 H 0.86739 0.77697 0.33319 0.0
H758 H 0.89133 0.75999 0.33857 0.0
H759 H 0.86477 0.7515 0.34874 0.0
H760 H 0.94106 0.71257 0.36616 0.0
H761 H 0.87752 0.69111 0.39094 0.0
H762 H 0.9383 0.76798 0.38297 0.0
H763 H 0.92812 0.76689 0.35507 0.0
H764 H 0.95128 0.74989 0.36312 0.0
H765 H 0.86114 0.74214 0.41307 0.0
H766 H 0.85039 0.71612 0.40245 0.0
H767 H 0.85015 0.74078 0.38548 0.0
C768 C 0.81308 0.40433 0.88077 0.0
C769 C 0.82054 0.42586 0.87568 0.0
C770 C 0.79101 0.40037 0.88713 0.0
C771 C 0.7762 0.41841 0.88876 0.0
C772 C 0.78366 0.44018 0.8838 0.0
C773 C 0.80569 0.44362 0.87718 0.0
C774 C 0.78354 0.37689 0.8921 0.0
C775 C 0.76845 0.45988 0.88576 0.0
C776 C 0.71417 0.40629 0.88817 0.0
C777 C 0.70948 0.40576 0.91094 0.0
C778 C 0.73584 0.41048 0.88067 0.0
C779 C 0.75305 0.4146 0.89631 0.0
C780 C 0.74824 0.41481 0.91926 0.0
C781 C 0.72655 0.41023 0.9263 0.0
C782 C 0.74044 0.40991 0.85606 0.0
C783 C 0.76606 0.41956 0.93642 0.0
H784 H 0.82441 0.39051 0.87953 0.0
H785 H 0.81136 0.46034 0.87344 0.0
H786 H 0.77812 0.37564 0.90963 0.0
H787 H 0.76906 0.37236 0.8815 0.0
H788 H 0.7969 0.36462 0.88929 0.0
H789 H 0.77681 0.47573 0.88117 0.0
H790 H 0.75369 0.4575 0.87488 0.0
H791 H 0.76236 0.46129 0.90305 0.0
H792 H 0.70107 0.40271 0.87624 0.0
H793 H 0.72298 0.41003 0.94392 0.0
H794 H 0.75252 0.39662 0.85238 0.0
H795 H 0.74806 0.42586 0.8507 0.0
H796 H 0.72516 0.40685 0.84605 0.0
H797 H 0.77899 0.40659 0.93568 0.0
H798 H 0.75936 0.42006 0.95356 0.0
H799 H 0.77431 0.43572 0.93286 0.0
C800 C 0.0743 0.71683 0.62144 0.0
C801 C 0.0914 0.70124 0.62316 0.0
C802 C 0.07887 0.73911 0.61635 0.0
C803 C 0.10112 0.74606 0.6132 0.0
C804 C 0.11847 0.73042 0.61472 0.0
C805 C 0.11339 0.70812 0.61951 0.0
C806 C 0.05988 0.75523 0.61447 0.0
C807 C 0.14243 0.73731 0.61164 0.0
C808 C 0.11253 0.79937 0.58162 0.0
C809 C 0.11629 0.8146 0.59893 0.0
C810 C 0.10735 0.77707 0.58604 0.0
C811 C 0.1062 0.76974 0.60831 0.0
C812 C 0.10979 0.78504 0.62588 0.0
C813 C 0.11461 0.80736 0.62098 0.0
C814 C 0.1032 0.76133 0.56687 0.0
C815 C 0.10888 0.77775 0.64984 0.0
H816 H 0.05724 0.7116 0.62405 0.0
H817 H 0.12669 0.69621 0.62093 0.0
H818 H 0.06183 0.76855 0.62708 0.0
H819 H 0.06006 0.76331 0.59792 0.0
H820 H 0.04347 0.74701 0.61681 0.0
H821 H 0.15397 0.72313 0.6134 0.0
H822 H 0.14472 0.74478 0.59498 0.0
H823 H 0.14706 0.75019 0.62407 0.0
H824 H 0.11362 0.80488 0.56453 0.0
H825 H 0.11763 0.819 0.63442 0.0
H826 H 0.08654 0.75348 0.56842 0.0
H827 H 0.11556 0.74779 0.56723 0.0
H828 H 0.10419 0.7698 0.55053 0.0
H829 H 0.09232 0.7705 0.65355 0.0
H830 H 0.11218 0.79168 0.66155 0.0
H831 H 0.12131 0.76459 0.65287 0.0
C832 C 0.70224 0.59352 0.0952 0.0
C833 C 0.69199 0.6012 0.11455 0.0
C834 C 0.72533 0.59076 0.09435 0.0
C835 C 0.73841 0.59567 0.11337 0.0
C836 C 0.72809 0.60304 0.13307 0.0
C837 C 0.70499 0.60574 0.13342 0.0
C838 C 0.73577 0.58283 0.07307 0.0
C839 C 0.74146 0.60822 0.15377 0.0
C840 C 0.79501 0.56984 0.1209 0.0
C841 C 0.80937 0.58776 0.11622 0.0
C842 C 0.77193 0.57202 0.1194 0.0
C843 C 0.76286 0.59261 0.11295 0.0
C844 C 0.77718 0.61052 0.10731 0.0
C845 C 0.80029 0.6079 0.10902 0.0
C846 C 0.75723 0.55251 0.12551 0.0
C847 C 0.76806 0.63269 0.1002 0.0
H848 H 0.69226 0.59007 0.08053 0.0
H849 H 0.69715 0.61169 0.14841 0.0
H850 H 0.74795 0.59538 0.06709 0.0
H851 H 0.74499 0.56726 0.0761 0.0
H852 H 0.72327 0.57975 0.05976 0.0
H853 H 0.73089 0.61377 0.16773 0.0
H854 H 0.75072 0.59329 0.15911 0.0
H855 H 0.75389 0.62145 0.15022 0.0
H856 H 0.80176 0.5541 0.12629 0.0
H857 H 0.81119 0.62182 0.1053 0.0
H858 H 0.74519 0.5489 0.11194 0.0
H859 H 0.74749 0.55661 0.14052 0.0
H860 H 0.76689 0.53725 0.12892 0.0
H861 H 0.75604 0.63043 0.08633 0.0
H862 H 0.78134 0.64441 0.09485 0.0
H863 H 0.75895 0.64031 0.1142 0.0
C864 C 0.89895 0.20722 0.61089 0.0
C865 C 0.89212 0.19751 0.59076 0.0
C866 C 0.89944 0.23043 0.61351 0.0
C867 C 0.89291 0.24419 0.5956 0.0
C868 C 0.88674 0.23453 0.57505 0.0
C869 C 0.8865 0.21138 0.57286 0.0
C870 C 0.90634 0.24022 0.63561 0.0
C871 C 0.87973 0.24864 0.55554 0.0
C872 C 0.87138 0.30194 0.60815 0.0
C873 C 0.88991 0.31524 0.60321 0.0
C874 C 0.87214 0.27876 0.60578 0.0
C875 C 0.89195 0.2687 0.5984 0.0
C876 C 0.91061 0.28209 0.59312 0.0
C877 C 0.90933 0.30521 0.59551 0.0
C878 C 0.85182 0.265 0.61132 0.0
C879 C 0.93201 0.27197 0.5852 0.0
H880 H 0.90333 0.19671 0.62481 0.0
H881 H 0.88134 0.20415 0.55715 0.0
H882 H 0.91989 0.25261 0.63328 0.0
H883 H 0.89214 0.24906 0.64308 0.0
H884 H 0.9121 0.22735 0.64747 0.0
H885 H 0.87617 0.23856 0.54045 0.0
H886 H 0.8646 0.25805 0.55984 0.0
H887 H 0.89291 0.26098 0.55157 0.0
H888 H 0.85636 0.30962 0.61417 0.0
H889 H 0.92376 0.3154 0.59174 0.0
H890 H 0.85583 0.25301 0.62469 0.0
H891 H 0.84647 0.25521 0.59658 0.0
H892 H 0.83772 0.27538 0.6168 0.0
H893 H 0.93836 0.26017 0.59781 0.0
H894 H 0.94506 0.2847 0.58196 0.0
H895 H 0.92898 0.26238 0.56972 0.0
C896 C 0.30379 0.38557 0.13476 0.0
C897 C 0.31284 0.38482 0.11342 0.0
C898 C 0.28076 0.38721 0.13773 0.0
C899 C 0.26656 0.38755 0.11889 0.0
C900 C 0.27567 0.38666 0.09733 0.0
C901 C 0.29873 0.38559 0.09486 0.0
C902 C 0.27162 0.38867 0.16097 0.0
C903 C 0.26104 0.3866 0.07686 0.0
C904 C 0.20578 0.37224 0.12682 0.0
C905 C 0.19594 0.39321 0.12667 0.0
C906 C 0.2288 0.37009 0.1241 0.0
C907 C 0.24219 0.38941 0.12165 0.0
C908 C 0.23227 0.4106 0.12148 0.0
C909 C 0.20923 0.41222 0.12375 0.0
C910 C 0.2388 0.34719 0.12385 0.0
C911 C 0.24603 0.43159 0.11921 0.0
H912 H 0.31472 0.385 0.14912 0.0
H913 H 0.30568 0.38478 0.07831 0.0
H914 H 0.26191 0.40412 0.16282 0.0
H915 H 0.26013 0.37451 0.16408 0.0
H916 H 0.28492 0.38855 0.17382 0.0
H917 H 0.27074 0.38509 0.06131 0.0
H918 H 0.24896 0.37259 0.07765 0.0
H919 H 0.25134 0.40214 0.07609 0.0
H920 H 0.1955 0.35754 0.12905 0.0
H921 H 0.20169 0.42849 0.12379 0.0
H922 H 0.2509 0.34556 0.13769 0.0
H923 H 0.24802 0.34465 0.10816 0.0
H924 H 0.22603 0.33385 0.12541 0.0
H925 H 0.25868 0.43244 0.13266 0.0
H926 H 0.23577 0.4468 0.11992 0.0
H927 H 0.25506 0.43148 0.10321 0.0
C928 C 0.40831 0.13386 0.20464 0.0
C929 C 0.38865 0.13306 0.19208 0.0
C930 C 0.40779 0.13497 0.22784 0.0
C931 C 0.38709 0.13463 0.23879 0.0
C932 C 0.36713 0.13391 0.22621 0.0
C933 C 0.36815 0.13345 0.2029 0.0
C934 C 0.42943 0.13615 0.24064 0.0
C935 C 0.34477 0.13293 0.23736 0.0
C936 C 0.38805 0.11012 0.29654 0.0
C937 C 0.38621 0.12903 0.31001 0.0
C938 C 0.38791 0.11176 0.27339 0.0
C939 C 0.38651 0.13293 0.26338 0.0
C940 C 0.38521 0.15221 0.27683 0.0
C941 C 0.3848 0.15 0.30008 0.0
C942 C 0.38899 0.09077 0.25966 0.0
C943 C 0.38431 0.17508 0.26666 0.0
H944 H 0.42421 0.13394 0.19629 0.0
H945 H 0.35296 0.13292 0.19317 0.0
H946 H 0.42914 0.15009 0.25271 0.0
H947 H 0.43171 0.12063 0.25026 0.0
H948 H 0.44397 0.13844 0.22958 0.0
H949 H 0.33083 0.1334 0.22522 0.0
H950 H 0.34335 0.11741 0.24719 0.0
H951 H 0.34307 0.14702 0.24909 0.0
H952 H 0.38895 0.09381 0.30409 0.0
H953 H 0.38335 0.16463 0.31047 0.0
H954 H 0.40422 0.09094 0.2494 0.0
H955 H 0.37457 0.08984 0.24812 0.0
H956 H 0.38904 0.07554 0.27006 0.0
H957 H 0.39903 0.17788 0.25599 0.0
H958 H 0.38381 0.1884 0.27942 0.0
H959 H 0.3694 0.17645 0.25587 0.0
C960 C 0.40589 0.90618 0.7065 0.0
C961 C 0.38416 0.90971 0.69914 0.0
C962 C 0.41013 0.9002 0.72863 0.0
C963 C 0.39209 0.89686 0.7433 0.0
C964 C 0.37006 0.89977 0.73564 0.0
C965 C 0.36638 0.90661 0.71371 0.0
C966 C 0.43388 0.89792 0.73641 0.0
C967 C 0.35038 0.89552 0.75053 0.0
C968 C 0.40396 0.86179 0.79413 0.0
C969 C 0.40537 0.87798 0.81077 0.0
C970 C 0.39897 0.86764 0.77216 0.0
C971 C 0.39628 0.89032 0.76668 0.0
C972 C 0.39777 0.90675 0.78351 0.0
C973 C 0.40189 0.9003 0.80551 0.0
C974 C 0.39663 0.8496 0.75485 0.0
C975 C 0.39566 0.93115 0.77817 0.0
H976 H 0.41957 0.90877 0.69513 0.0
H977 H 0.34957 0.90922 0.7078 0.0
H978 H 0.43708 0.9092 0.75068 0.0
H979 H 0.43684 0.88074 0.74225 0.0
H980 H 0.44598 0.90185 0.72309 0.0
H981 H 0.33431 0.89742 0.74163 0.0
H982 H 0.35117 0.87846 0.75744 0.0
H983 H 0.3508 0.90722 0.76477 0.0
H984 H 0.40657 0.84451 0.79838 0.0
H985 H 0.40325 0.91277 0.81848 0.0
H986 H 0.40983 0.85148 0.74221 0.0
H987 H 0.38044 0.85105 0.7461 0.0
H988 H 0.39776 0.8327 0.76215 0.0
H989 H 0.40841 0.93605 0.76583 0.0
H990 H 0.39769 0.94182 0.79312 0.0
H991 H 0.3792 0.93444 0.7706 0.0
C992 C 0.63415 0.86695 0.20564 0.0
C993 C 0.61474 0.86584 0.19278 0.0
C994 C 0.63304 0.86811 0.2289 0.0
C995 C 0.61205 0.86747 0.2394 0.0
C996 C 0.59244 0.86581 0.22643 0.0
C997 C 0.59403 0.86536 0.20325 0.0
C998 C 0.65426 0.87051 0.24219 0.0
C999 C 0.5698 0.86463 0.23704 0.0
C1000 C 0.61057 0.85435 0.30114 0.0
C1001 C 0.60806 0.87561 0.31021 0.0
C1002 C 0.61149 0.85132 0.27802 0.0
C1003 C 0.61044 0.87006 0.26384 0.0
C1004 C 0.60774 0.8915 0.27297 0.0
C1005 C 0.60627 0.89396 0.296 0.0
C1006 C 0.61375 0.82815 0.26876 0.0
C1007 C 0.60697 0.91194 0.25844 0.0
H1008 H 0.65015 0.8673 0.1975 0.0
H1009 H 0.57899 0.86417 0.19331 0.0
H1010 H 0.65409 0.88632 0.25168 0.0
H1011 H 0.65557 0.85683 0.25442 0.0
H1012 H 0.66924 0.87041 0.23151 0.0
H1013 H 0.55633 0.8617 0.22466 0.0
H1014 H 0.56928 0.85109 0.24952 0.0
H1015 H 0.56641 0.88038 0.24591 0.0
H1016 H 0.61196 0.84016 0.31211 0.0
H1017 H 0.60451 0.91048 0.3029 0.0
H1018 H 0.62965 0.82674 0.25971 0.0
H1019 H 0.60018 0.82468 0.25666 0.0
H1020 H 0.61326 0.81527 0.28195 0.0
H1021 H 0.62233 0.91316 0.24841 0.0
H1022 H 0.60531 0.92747 0.26824 0.0
H1023 H 0.59278 0.91072 0.24667 0.0
C1024 C 0.60604 0.15405 0.79616 0.0
C1025 C 0.6039 0.1374 0.81222 0.0
C1026 C 0.61206 0.14882 0.77434 0.0
C1027 C 0.61507 0.12631 0.76835 0.0
C1028 C 0.61279 0.10941 0.78457 0.0
C1029 C 0.60764 0.11524 0.80649 0.0
C1030 C 0.6152 0.16735 0.75773 0.0
C1031 C 0.61521 0.08518 0.77864 0.0
C1032 C 0.6087 0.11151 0.70733 0.0
C1033 C 0.63079 0.10796 0.70137 0.0
C1034 C 0.60329 0.1173 0.7292 0.0
C1035 C 0.62051 0.12042 0.74508 0.0
C1036 C 0.64292 0.11762 0.73881 0.0
C1037 C 0.64775 0.11096 0.71708 0.0
C1038 C 0.57917 0.11947 0.73546 0.0
C1039 C 0.66176 0.12161 0.75503 0.0
H1040 H 0.60322 0.17121 0.80077 0.0
H1041 H 0.60572 0.10241 0.81898 0.0
H1042 H 0.63185 0.16621 0.75004 0.0
H1043 H 0.60274 0.16573 0.74419 0.0
H1044 H 0.61356 0.18402 0.76543 0.0
H1045 H 0.61232 0.07408 0.79309 0.0
H1046 H 0.60322 0.08065 0.76529 0.0
H1047 H 0.63209 0.08209 0.77215 0.0
H1048 H 0.59565 0.10895 0.69508 0.0
H1049 H 0.66485 0.10829 0.71227 0.0
H1050 H 0.57595 0.13644 0.74177 0.0
H1051 H 0.57514 0.10768 0.74905 0.0
H1052 H 0.56781 0.11609 0.72123 0.0
H1053 H 0.66042 0.13842 0.76247 0.0
H1054 H 0.67828 0.12018 0.74706 0.0
H1055 H 0.66079 0.10943 0.76879 0.0
C1056 C 0.90958 0.7996 0.63383 0.0
C1057 C 0.8909 0.81067 0.62583 0.0
C1058 C 0.90943 0.77646 0.63597 0.0
C1059 C 0.89034 0.76426 0.6292 0.0
C1060 C 0.87077 0.7756 0.62296 0.0
C1061 C 0.87125 0.79886 0.6215 0.0
C1062 C 0.93043 0.76503 0.6433 0.0
C1063 C 0.85015 0.76318 0.61551 0.0
C1064 C 0.90531 0.71101 0.59998 0.0
C1065 C 0.90075 0.69507 0.61626 0.0
C1066 C 0.90104 0.73348 0.60376 0.0
C1067 C 0.89245 0.74021 0.62453 0.0
C1068 C 0.88741 0.72415 0.64092 0.0
C1069 C 0.89144 0.70166 0.6365 0.0
C1070 C 0.90627 0.75007 0.58567 0.0
C1071 C 0.87861 0.73079 0.66336 0.0
H1072 H 0.92474 0.80894 0.63717 0.0
H1073 H 0.8569 0.8076 0.61514 0.0
H1074 H 0.92659 0.7511 0.65473 0.0
H1075 H 0.93886 0.758 0.62858 0.0
H1076 H 0.94214 0.7767 0.65173 0.0
H1077 H 0.83536 0.77406 0.6153 0.0
H1078 H 0.8527 0.75671 0.59846 0.0
H1079 H 0.84676 0.74874 0.62644 0.0
H1080 H 0.91223 0.70589 0.58423 0.0
H1081 H 0.888 0.68931 0.64915 0.0
H1082 H 0.92001 0.76124 0.59117 0.0
H1083 H 0.89161 0.76058 0.58227 0.0
H1084 H 0.91126 0.74191 0.56994 0.0
H1085 H 0.89178 0.73983 0.67276 0.0
H1086 H 0.87322 0.71618 0.67329 0.0
H1087 H 0.8644 0.74223 0.6615 0.0
C1088 C 0.79746 0.35049 0.12183 0.0
C1089 C 0.80375 0.37288 0.1199 0.0
C1090 C 0.77519 0.34449 0.12551 0.0
C1091 C 0.75903 0.36132 0.12694 0.0
C1092 C 0.76554 0.38395 0.12607 0.0
C1093 C 0.78785 0.38944 0.12269 0.0
C1094 C 0.76886 0.32022 0.12689 0.0
C1095 C 0.7488 0.40244 0.12753 0.0
C1096 C 0.69988 0.35474 0.10737 0.0
C1097 C 0.68846 0.35673 0.12743 0.0
C1098 C 0.72311 0.35439 0.10707 0.0
C1099 C 0.73504 0.35572 0.12736 0.0
C1100 C 0.72351 0.35552 0.14775 0.0
C1101 C 0.70026 0.35624 0.14754 0.0
C1102 C 0.73482 0.35466 0.08496 0.0
C1103 C 0.73569 0.35628 0.16971 0.0
H1104 H 0.80979 0.33765 0.11986 0.0
H1105 H 0.79267 0.40678 0.12138 0.0
H1106 H 0.7571 0.31726 0.14071 0.0
H1107 H 0.76036 0.31507 0.1113 0.0
H1108 H 0.7836 0.30951 0.12931 0.0
H1109 H 0.75676 0.41916 0.12747 0.0
H1110 H 0.7371 0.40135 0.11325 0.0
H1111 H 0.73888 0.40074 0.1429 0.0
H1112 H 0.69076 0.35488 0.0918 0.0
H1113 H 0.6914 0.35737 0.16311 0.0
H1114 H 0.74847 0.34244 0.08481 0.0
H1115 H 0.74233 0.37134 0.0822 0.0
H1116 H 0.72333 0.3509 0.07093 0.0
H1117 H 0.75022 0.3451 0.16954 0.0
H1118 H 0.72472 0.35151 0.18372 0.0
H1119 H 0.74198 0.37341 0.17276 0.0
C1120 C 0.13327 0.20727 0.59135 0.0
C1121 C 0.14051 0.19068 0.60594 0.0
C1122 C 0.13623 0.22978 0.59653 0.0
C1123 C 0.14669 0.23584 0.61679 0.0
C1124 C 0.1552 0.21926 0.63099 0.0
C1125 C 0.15201 0.19683 0.6254 0.0
C1126 C 0.12707 0.24704 0.58086 0.0
C1127 C 0.16659 0.22515 0.65263 0.0
C1128 C 0.16013 0.29728 0.62059 0.0
C1129 C 0.1405 0.30521 0.62996 0.0
C1130 C 0.1632 0.2744 0.61749 0.0
C1131 C 0.14626 0.25936 0.62404 0.0
C1132 C 0.12731 0.26726 0.63522 0.0
C1133 C 0.12465 0.29014 0.638 0.0
C1134 C 0.18372 0.26653 0.60572 0.0
C1135 C 0.10899 0.25172 0.64273 0.0
H1136 H 0.12463 0.20272 0.57615 0.0
H1137 H 0.15789 0.18416 0.6367 0.0
H1138 H 0.11294 0.25559 0.58881 0.0
H1139 H 0.13991 0.25983 0.57718 0.0
H1140 H 0.12116 0.23967 0.56494 0.0
H1141 H 0.1752 0.21068 0.66005 0.0
H1142 H 0.17886 0.23879 0.6502 0.0
H1143 H 0.15409 0.23113 0.66464 0.0
H1144 H 0.17244 0.30895 0.61442 0.0
H1145 H 0.10958 0.29625 0.64552 0.0
H1146 H 0.17934 0.2619 0.58839 0.0
H1147 H 0.19051 0.25153 0.61389 0.0
H1148 H 0.19687 0.27959 0.60524 0.0
H1149 H 0.10025 0.24473 0.62799 0.0
H1150 H 0.09662 0.26025 0.65327 0.0
H1151 H 0.11597 0.23761 0.65221 0.0
C1152 C 0.20596 0.59492 0.12649 0.0
C1153 C 0.18924 0.60917 0.13379 0.0
C1154 C 0.22841 0.60047 0.12937 0.0
C1155 C 0.23432 0.62078 0.13981 0.0
C1156 C 0.21762 0.63472 0.14827 0.0
C1157 C 0.19523 0.62875 0.14515 0.0
C1158 C 0.24579 0.58504 0.12026 0.0
C1159 C 0.22333 0.65641 0.15964 0.0
C1160 C 0.29563 0.62362 0.15342 0.0
C1161 C 0.30392 0.63261 0.13366 0.0
C1162 C 0.27266 0.62124 0.15662 0.0
C1163 C 0.25789 0.62814 0.13967 0.0
C1164 C 0.26621 0.63923 0.12071 0.0
C1165 C 0.28918 0.64128 0.11792 0.0
C1166 C 0.26436 0.60962 0.17719 0.0
C1167 C 0.25099 0.64716 0.1024 0.0
H1168 H 0.20155 0.57962 0.11796 0.0
H1169 H 0.18245 0.63982 0.15104 0.0
H1170 H 0.25463 0.59327 0.10635 0.0
H1171 H 0.25831 0.58122 0.13324 0.0
H1172 H 0.2385 0.56917 0.11406 0.0
H1173 H 0.2088 0.66354 0.1683 0.0
H1174 H 0.23697 0.65415 0.17186 0.0
H1175 H 0.22921 0.66859 0.14712 0.0
H1176 H 0.30703 0.61701 0.16569 0.0
H1177 H 0.29558 0.64856 0.10277 0.0
H1178 H 0.25963 0.59226 0.17295 0.0
H1179 H 0.24937 0.61787 0.18376 0.0
H1180 H 0.27725 0.6092 0.19046 0.0
H1181 H 0.24402 0.6326 0.09333 0.0
H1182 H 0.25981 0.65797 0.09031 0.0
H1183 H 0.23687 0.65649 0.10938 0.0
C1184 C 0.86826 0.21677 0.39519 0.0
C1185 C 0.86829 0.19988 0.37924 0.0
C1186 C 0.86288 0.23854 0.38934 0.0
C1187 C 0.8568 0.24332 0.36711 0.0
C1188 C 0.85458 0.22585 0.35149 0.0
C1189 C 0.8608 0.20429 0.35764 0.0
C1190 C 0.86564 0.25668 0.40654 0.0
C1191 C 0.84698 0.23007 0.32797 0.0
C1192 C 0.84218 0.304 0.36275 0.0
C1193 C 0.86319 0.31305 0.35822 0.0
C1194 C 0.83896 0.28084 0.36327 0.0
C1195 C 0.8573 0.26677 0.35967 0.0
C1196 C 0.87786 0.27595 0.35281 0.0
C1197 C 0.88043 0.29898 0.35192 0.0
C1198 C 0.81647 0.27158 0.36942 0.0
C1199 C 0.89792 0.26161 0.34878 0.0
H1200 H 0.87378 0.21326 0.41199 0.0
H1201 H 0.86025 0.19104 0.34544 0.0
H1202 H 0.87963 0.26781 0.40182 0.0
H1203 H 0.85047 0.26691 0.40734 0.0
H1204 H 0.86907 0.24995 0.42337 0.0
H1205 H 0.83979 0.2148 0.32031 0.0
H1206 H 0.83444 0.24345 0.32733 0.0
H1207 H 0.86138 0.23541 0.31782 0.0
H1208 H 0.82868 0.31487 0.36726 0.0
H1209 H 0.89657 0.30592 0.34788 0.0
H1210 H 0.81591 0.26868 0.38759 0.0
H1211 H 0.81313 0.25549 0.36096 0.0
H1212 H 0.80305 0.28338 0.36509 0.0
H1213 H 0.90319 0.25378 0.36461 0.0
H1214 H 0.91219 0.27129 0.3421 0.0
H1215 H 0.8938 0.24809 0.33692 0.0
C1216 C 0.212 0.35655 0.89238 0.0
C1217 C 0.20427 0.37747 0.88592 0.0
C1218 C 0.23484 0.35242 0.89385 0.0
C1219 C 0.25012 0.36961 0.88865 0.0
C1220 C 0.24234 0.3902 0.88055 0.0
C1221 C 0.21946 0.3939 0.87934 0.0
C1222 C 0.24255 0.3302 0.90238 0.0
C1223 C 0.25814 0.40886 0.87457 0.0
C1224 C 0.30462 0.37559 0.91942 0.0
C1225 C 0.3199 0.36953 0.90307 0.0
C1226 C 0.28175 0.37455 0.91526 0.0
C1227 C 0.27397 0.3673 0.89422 0.0
C1228 C 0.28919 0.35994 0.87808 0.0
C1229 C 0.31203 0.36111 0.88271 0.0
C1230 C 0.26598 0.38232 0.93301 0.0
C1231 C 0.28145 0.35198 0.85553 0.0
H1232 H 0.20025 0.34376 0.89735 0.0
H1233 H 0.21352 0.41 0.87407 0.0
H1234 H 0.25646 0.32392 0.89224 0.0
H1235 H 0.24876 0.33213 0.91966 0.0
H1236 H 0.22894 0.3176 0.90232 0.0
H1237 H 0.24954 0.42289 0.86633 0.0
H1238 H 0.26641 0.41523 0.88985 0.0
H1239 H 0.27131 0.40276 0.86337 0.0
H1240 H 0.31051 0.38182 0.93531 0.0
H1241 H 0.32369 0.35627 0.87 0.0
H1242 H 0.25279 0.36966 0.93583 0.0
H1243 H 0.25773 0.39777 0.92746 0.0
H1244 H 0.27458 0.38572 0.94904 0.0
H1245 H 0.26737 0.34009 0.85714 0.0
H1246 H 0.29496 0.34387 0.84612 0.0
H1247 H 0.27543 0.36633 0.84572 0.0
C1248 C 0.11582 0.78823 0.39916 0.0
C1249 C 0.10805 0.80192 0.38209 0.0
C1250 C 0.11471 0.76511 0.39718 0.0
C1251 C 0.10543 0.75555 0.37773 0.0
C1252 C 0.09906 0.76927 0.35977 0.0
C1253 C 0.10052 0.79242 0.36215 0.0
C1254 C 0.12202 0.751 0.41657 0.0
C1255 C 0.08925 0.75961 0.33872 0.0
C1256 C 0.11097 0.69314 0.37359 0.0
C1257 C 0.09114 0.68597 0.38358 0.0
C1258 C 0.1155 0.71581 0.37053 0.0
C1259 C 0.09981 0.73158 0.37759 0.0
C1260 C 0.07931 0.72443 0.38661 0.0
C1261 C 0.07524 0.70171 0.38953 0.0
C1262 C 0.13749 0.72288 0.36076 0.0
C1263 C 0.06206 0.74082 0.39415 0.0
H1264 H 0.12197 0.79557 0.41447 0.0
H1265 H 0.09462 0.80302 0.34887 0.0
H1266 H 0.10724 0.74328 0.42447 0.0
H1267 H 0.13282 0.73735 0.41083 0.0
H1268 H 0.13118 0.76084 0.42934 0.0
H1269 H 0.08855 0.77207 0.32514 0.0
H1270 H 0.099 0.74517 0.33301 0.0
H1271 H 0.07211 0.75358 0.34201 0.0
H1272 H 0.12331 0.6811 0.36877 0.0
H1273 H 0.05975 0.69634 0.39697 0.0
H1274 H 0.14814 0.73027 0.37399 0.0
H1275 H 0.13507 0.73581 0.34788 0.0
H1276 H 0.14645 0.7087 0.35328 0.0
H1277 H 0.0686 0.75048 0.40851 0.0
H1278 H 0.04632 0.73252 0.39918 0.0
H1279 H 0.05835 0.7528 0.38068 0.0
C1280 C 0.81024 0.63087 0.86406 0.0
C1281 C 0.81486 0.60915 0.87112 0.0
C1282 C 0.78848 0.63895 0.86422 0.0
C1283 C 0.77104 0.62493 0.87149 0.0
C1284 C 0.77534 0.60243 0.87668 0.0
C1285 C 0.79722 0.59483 0.8765 0.0
C1286 C 0.78451 0.66295 0.85832 0.0
C1287 C 0.75707 0.5868 0.8841 0.0
C1288 C 0.72359 0.64435 0.90647 0.0
C1289 C 0.70564 0.64125 0.89193 0.0
C1290 C 0.74536 0.64111 0.89933 0.0
C1291 C 0.74912 0.63427 0.87718 0.0
C1292 C 0.73122 0.63321 0.86187 0.0
C1293 C 0.70955 0.63686 0.86944 0.0
C1294 C 0.76406 0.64295 0.91608 0.0
C1295 C 0.73461 0.62619 0.83809 0.0
H1296 H 0.82373 0.64203 0.85963 0.0
H1297 H 0.80059 0.57791 0.88155 0.0
H1298 H 0.76892 0.66476 0.84862 0.0
H1299 H 0.78277 0.67278 0.8738 0.0
H1300 H 0.79848 0.67013 0.84864 0.0
H1301 H 0.76268 0.56929 0.88493 0.0
H1302 H 0.75131 0.59178 0.90084 0.0
H1303 H 0.74263 0.5877 0.87264 0.0
H1304 H 0.7205 0.64799 0.92382 0.0
H1305 H 0.69561 0.6344 0.8582 0.0
H1306 H 0.77823 0.65247 0.90907 0.0
H1307 H 0.77009 0.62609 0.92024 0.0
H1308 H 0.75875 0.65117 0.93167 0.0
H1309 H 0.75006 0.63359 0.83125 0.0
H1310 H 0.72037 0.63098 0.82737 0.0
H1311 H 0.73625 0.60786 0.83738 0.0
C1312 C 0.62656 0.89529 0.8061 0.0
C1313 C 0.60415 0.8972 0.81197 0.0
C1314 C 0.63304 0.89607 0.78377 0.0
C1315 C 0.61665 0.89847 0.76705 0.0
C1316 C 0.59391 0.89899 0.77284 0.0
C1317 C 0.58796 0.89854 0.79526 0.0
C1318 C 0.65743 0.89565 0.7782 0.0
C1319 C 0.5759 0.90108 0.75542 0.0
C1320 C 0.62667 0.92916 0.71344 0.0
C1321 C 0.627 0.91168 0.69808 0.0
C1322 C 0.62494 0.92496 0.73621 0.0
C1323 C 0.62308 0.90275 0.74371 0.0
C1324 C 0.62478 0.88499 0.72842 0.0
C1325 C 0.62691 0.88968 0.70571 0.0
C1326 C 0.62368 0.94435 0.75207 0.0
C1327 C 0.62273 0.86111 0.7358 0.0
H1328 H 0.63915 0.89428 0.81899 0.0
H1329 H 0.57059 0.89969 0.79973 0.0
H1330 H 0.66055 0.88396 0.76434 0.0
H1331 H 0.66285 0.9124 0.77265 0.0
H1332 H 0.6678 0.89078 0.79269 0.0
H1333 H 0.55902 0.89901 0.76251 0.0
H1334 H 0.57701 0.9177 0.74753 0.0
H1335 H 0.57812 0.88849 0.74217 0.0
H1336 H 0.62704 0.94618 0.70758 0.0
H1337 H 0.62712 0.87613 0.69384 0.0
H1338 H 0.63499 0.94184 0.76643 0.0
H1339 H 0.60656 0.94557 0.75864 0.0
H1340 H 0.62806 0.96035 0.74396 0.0
H1341 H 0.63303 0.85809 0.7508 0.0
H1342 H 0.62774 0.84934 0.72256 0.0
H1343 H 0.60522 0.85747 0.74026 0.0
C1344 C 0.66122 0.14015 0.20704 0.0
C1345 C 0.65134 0.119 0.20788 0.0
C1346 C 0.66281 0.15335 0.22627 0.0
C1347 C 0.65473 0.14481 0.2466 0.0
C1348 C 0.64646 0.12266 0.24763 0.0
C1349 C 0.64452 0.1102 0.22813 0.0
C1350 C 0.6716 0.17682 0.22441 0.0
C1351 C 0.63826 0.11251 0.26906 0.0
C1352 C 0.66104 0.16121 0.30573 0.0
C1353 C 0.63871 0.16534 0.31028 0.0
C1354 C 0.66801 0.15786 0.28383 0.0
C1355 C 0.65219 0.15915 0.26645 0.0
C1356 C 0.63091 0.16793 0.27081 0.0
C1357 C 0.62424 0.17058 0.29291 0.0
C1358 C 0.69107 0.14921 0.27992 0.0
C1359 C 0.61387 0.17066 0.25258 0.0
H1360 H 0.66615 0.14698 0.19114 0.0
H1361 H 0.63681 0.09384 0.22854 0.0
H1362 H 0.65746 0.18844 0.22335 0.0
H1363 H 0.68162 0.18153 0.23922 0.0
H1364 H 0.68188 0.17908 0.2093 0.0
H1365 H 0.63411 0.09458 0.26724 0.0
H1366 H 0.65105 0.11434 0.28227 0.0
H1367 H 0.62314 0.12124 0.27466 0.0
H1368 H 0.67237 0.15775 0.3193 0.0
H1369 H 0.60697 0.17393 0.29652 0.0
H1370 H 0.69741 0.15428 0.26341 0.0
H1371 H 0.69063 0.13078 0.28049 0.0
H1372 H 0.70282 0.15514 0.29299 0.0
H1373 H 0.62166 0.1772 0.23725 0.0
H1374 H 0.6004 0.18203 0.25768 0.0
H1375 H 0.6063 0.15423 0.24861 0.0
C1376 C 0.37901 0.10689 0.70396 0.0
C1377 C 0.39984 0.10439 0.69412 0.0
C1378 C 0.37713 0.10892 0.7271 0.0
C1379 C 0.39661 0.10908 0.74038 0.0
C1380 C 0.41773 0.10796 0.73025 0.0
C1381 C 0.41905 0.10524 0.70724 0.0
C1382 C 0.35435 0.10958 0.73736 0.0
C1383 C 0.43892 0.10872 0.74379 0.0
C1384 C 0.39766 0.12663 0.80081 0.0
C1385 C 0.40038 0.10604 0.81122 0.0
C1386 C 0.39538 0.12796 0.77765 0.0
C1387 C 0.39519 0.10816 0.76491 0.0
C1388 C 0.3963 0.08729 0.77563 0.0
C1389 C 0.39927 0.0865 0.79866 0.0
C1390 C 0.39471 0.15051 0.76676 0.0
C1391 C 0.3955 0.06578 0.76268 0.0
H1392 H 0.36417 0.10616 0.69369 0.0
H1393 H 0.43516 0.10361 0.69948 0.0
H1394 H 0.35111 0.09375 0.74626 0.0
H1395 H 0.35337 0.12316 0.74976 0.0
H1396 H 0.34107 0.11188 0.72472 0.0
H1397 H 0.45389 0.11025 0.7332 0.0
H1398 H 0.43871 0.12292 0.75554 0.0
H1399 H 0.44032 0.09331 0.75377 0.0
H1400 H 0.39859 0.14172 0.81064 0.0
H1401 H 0.40107 0.07058 0.80687 0.0
H1402 H 0.38132 0.15113 0.75406 0.0
H1403 H 0.41065 0.15367 0.75812 0.0
H1404 H 0.39212 0.16404 0.779 0.0
H1405 H 0.38153 0.06588 0.75058 0.0
H1406 H 0.39358 0.05109 0.77367 0.0
H1407 H 0.41107 0.06395 0.75313 0.0
C1408 C 0.38462 0.87762 0.21477 0.0
C1409 C 0.36758 0.88014 0.19907 0.0
C1410 C 0.37994 0.87592 0.23738 0.0
C1411 C 0.3576 0.87641 0.24448 0.0
C1412 C 0.34019 0.87763 0.22864 0.0
C1413 C 0.34541 0.87969 0.206 0.0
C1414 C 0.39904 0.87475 0.25373 0.0
C1415 C 0.31617 0.87763 0.23562 0.0
C1416 C 0.35466 0.85916 0.30451 0.0
C1417 C 0.35662 0.87984 0.31507 0.0
C1418 C 0.35262 0.85775 0.28134 0.0
C1419 C 0.35307 0.87748 0.2686 0.0
C1420 C 0.35331 0.89841 0.27936 0.0
C1421 C 0.35489 0.89932 0.30255 0.0
C1422 C 0.35171 0.83516 0.27047 0.0
C1423 C 0.35398 0.91984 0.26637 0.0
H1424 H 0.40179 0.87783 0.20949 0.0
H1425 H 0.3322 0.88149 0.19386 0.0
H1426 H 0.39904 0.88963 0.26462 0.0
H1427 H 0.39716 0.85996 0.26454 0.0
H1428 H 0.41541 0.87388 0.24537 0.0
H1429 H 0.30475 0.87475 0.22133 0.0
H1430 H 0.31305 0.86469 0.24836 0.0
H1431 H 0.31218 0.89391 0.24317 0.0
H1432 H 0.35556 0.84405 0.31424 0.0
H1433 H 0.35618 0.91534 0.31072 0.0
H1434 H 0.36829 0.83116 0.2637 0.0
H1435 H 0.33972 0.83499 0.2564 0.0
H1436 H 0.34694 0.82194 0.28243 0.0
H1437 H 0.37039 0.92162 0.25822 0.0
H1438 H 0.3514 0.93459 0.27712 0.0
H1439 H 0.34114 0.91971 0.2531 0.0
C1440 C 0.14573 0.06703 0.56251 0.0
C1441 C 0.1274 0.07722 0.57229 0.0
C1442 C 0.14662 0.06458 0.53933 0.0
C1443 C 0.12884 0.07264 0.52628 0.0
C1444 C 0.10847 0.07773 0.53665 0.0
C1445 C 0.10808 0.08027 0.55975 0.0
C1446 C 0.16802 0.05742 0.52883 0.0
C1447 C 0.08851 0.08487 0.52333 0.0
C1448 C 0.13994 0.11935 0.4865 0.0
C1449 C 0.13272 0.11019 0.4664 0.0
C1450 C 0.14074 0.10654 0.50577 0.0
C1451 C 0.1338 0.08393 0.50492 0.0
C1452 C 0.12848 0.07404 0.48418 0.0
C1453 C 0.12802 0.08739 0.465 0.0
C1454 C 0.14716 0.11792 0.52731 0.0
C1455 C 0.12167 0.04995 0.48225 0.0
H1456 H 0.1606 0.06431 0.57233 0.0
H1457 H 0.09373 0.0877 0.5675 0.0
H1458 H 0.16492 0.04933 0.51252 0.0
H1459 H 0.17878 0.07223 0.52607 0.0
H1460 H 0.17714 0.04579 0.53982 0.0
H1461 H 0.07306 0.08383 0.53328 0.0
H1462 H 0.09088 0.10236 0.51793 0.0
H1463 H 0.08646 0.07442 0.50827 0.0
H1464 H 0.14384 0.13697 0.48737 0.0
H1465 H 0.12247 0.08033 0.44932 0.0
H1466 H 0.16001 0.1083 0.53623 0.0
H1467 H 0.13242 0.11907 0.53821 0.0
H1468 H 0.15374 0.13501 0.52464 0.0
H1469 H 0.12797 0.03985 0.49629 0.0
H1470 H 0.12776 0.04279 0.46643 0.0
H1471 H 0.10328 0.0487 0.48197 0.0
C1472 C 0.42019 0.64512 0.95391 0.0
C1473 C 0.42234 0.62505 0.94249 0.0
C1474 C 0.42155 0.64558 0.97713 0.0
C1475 C 0.42467 0.62538 0.98868 0.0
C1476 C 0.43201 0.60649 0.97693 0.0
C1477 C 0.43076 0.60654 0.95365 0.0
C1478 C 0.41519 0.66655 0.98912 0.0
C1479 C 0.43695 0.58505 0.98875 0.0
C1480 C 0.40865 0.62726 0.04963 0.0
C1481 C 0.38566 0.62355 0.0479 0.0
C1482 C 0.42217 0.62665 0.03067 0.0
C1483 C 0.41234 0.62213 0.00973 0.0
C1484 C 0.38937 0.61668 0.00835 0.0
C1485 C 0.37637 0.6176 0.02743 0.0
C1486 C 0.44653 0.63222 0.03311 0.0
C1487 C 0.37803 0.61123 0.98651 0.0
H1488 H 0.41406 0.65956 0.94513 0.0
H1489 H 0.43273 0.59105 0.94469 0.0
H1490 H 0.39725 0.66578 0.99321 0.0
H1491 H 0.42467 0.66833 0.00487 0.0
H1492 H 0.41818 0.68148 0.97869 0.0
H1493 H 0.4481 0.57446 0.97874 0.0
H1494 H 0.4447 0.58822 0.00523 0.0
H1495 H 0.42119 0.57573 0.9914 0.0
H1496 H 0.4159 0.63182 0.06554 0.0
H1497 H 0.35866 0.61434 0.02619 0.0
H1498 H 0.44876 0.65053 0.03262 0.0
H1499 H 0.45658 0.62488 0.01963 0.0
H1500 H 0.45302 0.62634 0.04935 0.0
H1501 H 0.37823 0.62611 0.9757 0.0
H1502 H 0.36047 0.60588 0.98869 0.0
H1503 H 0.3869 0.59777 0.9778 0.0
C1504 C 0.85262 0.90403 0.47431 0.0
C1505 C 0.86845 0.90901 0.4582 0.0
C1506 C 0.85468 0.91289 0.49573 0.0
C1507 C 0.87295 0.92711 0.50078 0.0
C1508 C 0.88624 0.93545 0.48334 0.0
C1509 C 0.88427 0.92577 0.46219 0.0
C1510 C 0.83948 0.90417 0.51363 0.0
C1511 C 0.90446 0.95227 0.48766 0.0
C1512 C 0.87604 0.93319 0.56312 0.0
C1513 C 0.88848 0.9143 0.56827 0.0
C1514 C 0.87298 0.93969 0.54088 0.0
C1515 C 0.88208 0.92655 0.52374 0.0
C1516 C 0.89695 0.90923 0.52921 0.0
C1517 C 0.90022 0.90362 0.55146 0.0
C1518 C 0.85853 0.9594 0.53596 0.0
C1519 C 0.90743 0.89478 0.51165 0.0
H1520 H 0.84036 0.8911 0.47101 0.0
H1521 H 0.8964 0.92975 0.44954 0.0
H1522 H 0.84874 0.89258 0.52453 0.0
H1523 H 0.83349 0.918 0.52409 0.0
H1524 H 0.82485 0.89515 0.50661 0.0
H1525 H 0.90777 0.96235 0.47258 0.0
H1526 H 0.9001 0.9635 0.50158 0.0
H1527 H 0.92001 0.94359 0.49214 0.0
H1528 H 0.86731 0.94186 0.57617 0.0
H1529 H 0.91041 0.88942 0.55552 0.0
H1530 H 0.84083 0.95459 0.53799 0.0
H1531 H 0.86098 0.96582 0.51887 0.0
H1532 H 0.86212 0.97299 0.54799 0.0
H1533 H 0.89431 0.88589 0.50202 0.0
H1534 H 0.91876 0.88221 0.51886 0.0
H1535 H 0.91708 0.90511 0.49987 0.0
C1536 C 0.58082 0.3869 0.96307 0.0
C1537 C 0.60378 0.38391 0.96088 0.0
C1538 C 0.57016 0.38243 0.98337 0.0
C1539 C 0.58292 0.3751 1.00176 0.0
C1540 C 0.60598 0.37121 0.99912 0.0
C1541 C 0.61596 0.37556 0.97876 0.0
C1542 C 0.54555 0.3864 0.98511 0.0
C1543 C 0.62053 0.36305 0.01795 0.0
C1544 C 0.58226 0.3841 0.06184 0.0
C1545 C 0.58452 0.36179 0.0679 0.0
C1546 C 0.57668 0.38957 0.03987 0.0
C1547 C 0.57332 0.37223 0.02426 0.0
C1548 C 0.56978 0.35034 0.03199 0.0
C1549 C 0.57594 0.34519 0.05386 0.0
C1550 C 0.57889 0.4134 0.03253 0.0
C1551 C 0.56407 0.3317 0.01619 0.0
H1552 H 0.57131 0.39333 0.9492 0.0
H1553 H 0.63363 0.37294 0.97709 0.0
H1554 H 0.53776 0.37651 0.99856 0.0
H1555 H 0.54276 0.40426 0.98857 0.0
H1556 H 0.53704 0.38237 0.96916 0.0
H1557 H 0.63819 0.36138 0.01302 0.0
H1558 H 0.6199 0.37475 0.03215 0.0
H1559 H 0.6146 0.34656 0.02371 0.0
H1560 H 0.58836 0.39702 0.07294 0.0
H1561 H 0.57702 0.32793 0.05884 0.0
H1562 H 0.56662 0.41718 0.0193 0.0
H1563 H 0.59576 0.41621 0.02567 0.0
H1564 H 0.57656 0.42505 0.04662 0.0
H1565 H 0.55316 0.33759 1.00254 0.0
H1566 H 0.55571 0.31777 0.02499 0.0
H1567 H 0.57957 0.32529 0.00874 0.0
C1568 C 0.11661 0.939 0.55502 0.0
C1569 C 0.13439 0.92585 0.56199 0.0
C1570 C 0.11229 0.94173 0.53222 0.0
C1571 C 0.12588 0.93068 0.51674 0.0
C1572 C 0.14657 0.92219 0.52387 0.0
C1573 C 0.15053 0.91972 0.54664 0.0
C1574 C 0.09119 0.95288 0.52499 0.0
C1575 C 0.16246 0.91169 0.50779 0.0
C1576 C 0.1009 0.88585 0.48106 0.0
C1577 C 0.10769 0.8925 0.45993 0.0
C1578 C 0.10465 0.89938 0.49955 0.0
C1579 C 0.11549 0.92025 0.4968 0.0
C1580 C 0.11985 0.92823 0.47512 0.0
C1581 C 0.11596 0.91414 0.45681 0.0
C1582 C 0.09906 0.89011 0.52221 0.0
C1583 C 0.13017 0.95078 0.47115 0.0
H1584 H 0.10431 0.94419 0.56698 0.0
H1585 H 0.16461 0.91004 0.55221 0.0
H1586 H 0.09294 0.96015 0.50815 0.0
H1587 H 0.07747 0.94045 0.52445 0.0
H1588 H 0.08653 0.96615 0.53688 0.0
H1589 H 0.17911 0.90925 0.51539 0.0
H1590 H 0.15583 0.89522 0.50253 0.0
H1591 H 0.16432 0.92212 0.49275 0.0
H1592 H 0.09397 0.86931 0.48333 0.0
H1593 H 0.12095 0.91946 0.44037 0.0
H1594 H 0.08913 0.90215 0.53179 0.0
H1595 H 0.11457 0.8869 0.53165 0.0
H1596 H 0.08947 0.87427 0.52117 0.0
H1597 H 0.12833 0.96207 0.48558 0.0
H1598 H 0.12253 0.95862 0.45631 0.0
H1599 H 0.14811 0.94884 0.46764 0.0
C1600 C 0.57964 0.63278 0.95148 0.0
C1601 C 0.60228 0.62908 0.94784 0.0
C1602 C 0.57001 0.62781 0.97219 0.0
C1603 C 0.58356 0.61947 0.98955 0.0
C1604 C 0.60624 0.61489 0.98543 0.0
C1605 C 0.61512 0.61952 0.96464 0.0
C1606 C 0.54566 0.63229 0.97542 0.0
C1607 C 0.62163 0.60585 1.00316 0.0
C1608 C 0.58602 0.62831 0.04975 0.0
C1609 C 0.58814 0.60598 0.05582 0.0
C1610 C 0.57972 0.63385 0.02801 0.0
C1611 C 0.57535 0.61657 0.01258 0.0
C1612 C 0.57203 0.59468 0.02042 0.0
C1613 C 0.5791 0.58943 0.04199 0.0
C1614 C 0.58199 0.65767 0.0206 0.0
C1615 C 0.56517 0.57618 0.0049 0.0
H1616 H 0.56959 0.64005 0.93844 0.0
H1617 H 0.63256 0.61634 0.96186 0.0
H1618 H 0.53851 0.62263 0.98939 0.0
H1619 H 0.54342 0.65023 0.97885 0.0
H1620 H 0.53616 0.6283 0.96004 0.0
H1621 H 0.63899 0.60422 0.99729 0.0
H1622 H 0.62183 0.61693 0.01788 0.0
H1623 H 0.61581 0.58919 0.00853 0.0
H1624 H 0.59244 0.64121 0.06069 0.0
H1625 H 0.57997 0.57217 0.047 0.0
H1626 H 0.56875 0.66185 0.00849 0.0
H1627 H 0.59826 0.66005 0.01231 0.0
H1628 H 0.58118 0.66936 0.03486 0.0
H1629 H 0.55366 0.58232 0.99186 0.0
H1630 H 0.55704 0.56237 0.0141 0.0
H1631 H 0.58011 0.56951 0.99661 0.0
C1632 C 0.88461 0.09421 0.46112 0.0
C1633 C 0.88779 0.11725 0.46312 0.0
C1634 C 0.88556 0.08042 0.47996 0.0
C1635 C 0.88982 0.09006 0.50105 0.0
C1636 C 0.89508 0.11307 0.50259 0.0
C1637 C 0.89389 0.1263 0.48363 0.0
C1638 C 0.88057 0.05598 0.47725 0.0
C1639 C 0.90017 0.12431 0.52452 0.0
C1640 C 0.86453 0.08242 0.55568 0.0
C1641 C 0.88417 0.08116 0.56807 0.0
C1642 C 0.86509 0.08059 0.53251 0.0
C1643 C 0.88582 0.07766 0.52201 0.0
C1644 C 0.90425 0.0708 0.53485 0.0
C1645 C 0.90324 0.07269 0.55807 0.0
C1646 C 0.84455 0.08634 0.51939 0.0
C1647 C 0.92618 0.06577 0.52415 0.0
H1648 H 0.88004 0.08714 0.44515 0.0
H1649 H 0.89681 0.14406 0.48505 0.0
H1650 H 0.88733 0.04596 0.49113 0.0
H1651 H 0.86231 0.0534 0.47654 0.0
H1652 H 0.88748 0.04974 0.46138 0.0
H1653 H 0.90562 0.14187 0.52244 0.0
H1654 H 0.88505 0.12417 0.53491 0.0
H1655 H 0.91342 0.11539 0.5336 0.0
H1656 H 0.84962 0.08846 0.56359 0.0
H1657 H 0.91839 0.07127 0.56778 0.0
H1658 H 0.84342 0.07627 0.50399 0.0
H1659 H 0.84535 0.10413 0.51456 0.0
H1660 H 0.82924 0.08362 0.52927 0.0
H1661 H 0.92371 0.05781 0.50768 0.0
H1662 H 0.93631 0.05474 0.53487 0.0
H1663 H 0.93561 0.08151 0.5217 0.0
C1664 C 0.44368 0.36132 0.94303 0.0
C1665 C 0.43523 0.3796 0.9315 0.0
C1666 C 0.44601 0.3622 0.96623 0.0
C1667 C 0.43968 0.38174 0.97753 0.0
C1668 C 0.43666 0.40155 0.96529 0.0
C1669 C 0.43415 0.40018 0.94219 0.0
C1670 C 0.45086 0.34111 0.9787 0.0
C1671 C 0.43151 0.42318 0.97669 0.0
C1672 C 0.39208 0.37657 0.01748 0.0
C1673 C 0.40195 0.38264 0.03764 0.0
C1674 C 0.4046 0.3748 0.99818 0.0
C1675 C 0.42773 0.37958 0.99896 0.0
C1676 C 0.43811 0.38439 0.01962 0.0
C1677 C 0.42502 0.38577 0.03888 0.0
C1678 C 0.39259 0.36909 0.97675 0.0
C1679 C 0.46264 0.38937 0.02141 0.0
H1680 H 0.44487 0.34543 0.93464 0.0
H1681 H 0.42806 0.41444 0.9331 0.0
H1682 H 0.45932 0.34472 0.99474 0.0
H1683 H 0.43499 0.33232 0.98229 0.0
H1684 H 0.46135 0.32984 0.9687 0.0
H1685 H 0.43467 0.43758 0.9656 0.0
H1686 H 0.41371 0.42325 0.9814 0.0
H1687 H 0.44159 0.42517 0.99205 0.0
H1688 H 0.37426 0.37379 0.0167 0.0
H1689 H 0.43264 0.39044 0.05458 0.0
H1690 H 0.40086 0.35514 0.9682 0.0
H1691 H 0.39288 0.38366 0.9655 0.0
H1692 H 0.37497 0.36428 0.97948 0.0
H1693 H 0.47221 0.38153 0.00785 0.0
H1694 H 0.46934 0.38363 0.03762 0.0
H1695 H 0.46532 0.40761 0.02053 0.0
C1696 C 0.5383 0.09593 0.14293 0.0
C1697 C 0.55944 0.09875 0.13382 0.0
C1698 C 0.51923 0.09808 0.12986 0.0
C1699 C 0.52128 0.10298 0.1069 0.0
C1700 C 0.5426 0.10404 0.09718 0.0
C1701 C 0.56151 0.10199 0.11082 0.0
C1702 C 0.49687 0.09627 0.1411 0.0
C1703 C 0.54573 0.10855 0.07276 0.0
C1704 C 0.4634 0.09455 0.08937 0.0
C1705 C 0.45522 0.11498 0.0967 0.0
C1706 C 0.48633 0.09126 0.08776 0.0
C1707 C 0.50087 0.10868 0.09425 0.0
C1708 C 0.4925 0.13049 0.09635 0.0
C1709 C 0.46946 0.13346 0.09745 0.0
C1710 C 0.49478 0.06819 0.08346 0.0
C1711 C 0.50763 0.14986 0.10178 0.0
H1712 H 0.53662 0.09299 0.1606 0.0
H1713 H 0.57784 0.1041 0.1036 0.0
H1714 H 0.48788 0.11219 0.13954 0.0
H1715 H 0.48661 0.08312 0.13306 0.0
H1716 H 0.49834 0.09223 0.15904 0.0
H1717 H 0.56051 0.09971 0.06643 0.0
H1718 H 0.53102 0.10351 0.06272 0.0
H1719 H 0.54871 0.12659 0.07031 0.0
H1720 H 0.45222 0.08034 0.08821 0.0
H1721 H 0.46304 0.1494 0.10266 0.0
H1722 H 0.49649 0.05926 0.09948 0.0
H1723 H 0.51132 0.06877 0.07544 0.0
H1724 H 0.48303 0.05861 0.07276 0.0
H1725 H 0.51216 0.1493 0.11967 0.0
H1726 H 0.49944 0.16597 0.0984 0.0
H1727 H 0.52316 0.149 0.09204 0.0
C1728 C 0.36473 0.97571 0.59954 0.0
C1729 C 0.37544 0.95767 0.58988 0.0
C1730 C 0.36676 0.99699 0.59051 0.0
C1731 C 0.37967 1.00017 0.57111 0.0
C1732 C 0.38754 0.98143 0.55941 0.0
C1733 C 0.38551 0.96025 0.56909 0.0
C1734 C 0.35738 0.01628 0.60342 0.0
C1735 C 0.39984 0.98374 0.5378 0.0
C1736 C 0.37893 0.0616 0.56544 0.0
C1737 C 0.3956 0.06663 0.58104 0.0
C1738 C 0.37575 0.03959 0.55814 0.0
C1739 C 0.3892 0.02268 0.56721 0.0
C1740 C 0.40861 0.02864 0.57933 0.0
C1741 C 0.41157 0.05069 0.5861 0.0
C1742 C 0.35626 0.0341 0.54327 0.0
C1743 C 0.42424 0.01134 0.58834 0.0
H1744 H 0.3563 0.97356 0.61526 0.0
H1745 H 0.39338 0.94617 0.56126 0.0
H1746 H 0.37114 0.02663 0.61031 0.0
H1747 H 0.34729 0.02695 0.5924 0.0
H1748 H 0.34676 0.01073 0.61742 0.0
H1749 H 0.39484 0.97016 0.52626 0.0
H1750 H 0.39676 0.99995 0.52963 0.0
H1751 H 0.41792 0.98211 0.5409 0.0
H1752 H 0.36686 0.0741 0.56099 0.0
H1753 H 0.42492 0.05485 0.59758 0.0
H1754 H 0.34118 0.03162 0.55349 0.0
H1755 H 0.35914 0.01865 0.53366 0.0
H1756 H 0.35298 0.04795 0.53157 0.0
H1757 H 0.41589 1.00179 0.60172 0.0
H1758 H 0.43968 0.0189 0.5953 0.0
H1759 H 0.42885 0.9995 0.5751 0.0
C1760 C 0.45248 0.88744 0.09537 0.0
C1761 C 0.45396 0.89204 0.11819 0.0
C1762 C 0.4718 0.88569 0.08244 0.0
C1763 C 0.49285 0.88838 0.09276 0.0
C1764 C 0.49411 0.89501 0.11539 0.0
C1765 C 0.47466 0.89686 0.12768 0.0
C1766 C 0.46942 0.87967 0.05823 0.0
C1767 C 0.51602 0.89859 0.12734 0.0
C1768 C 0.54504 0.8579 0.08899 0.0
C1769 C 0.55911 0.8765 0.08844 0.0
C1770 C 0.52213 0.86047 0.08571 0.0
C1771 C 0.51377 0.882 0.08153 0.0
C1772 C 0.52861 0.89902 0.07493 0.0
C1773 C 0.55139 0.89621 0.07886 0.0
C1774 C 0.50681 0.84132 0.09117 0.0
C1775 C 0.52029 0.92154 0.06814 0.0
H1776 H 0.43642 0.88387 0.08789 0.0
H1777 H 0.47576 0.90093 0.1452 0.0
H1778 H 0.48448 0.88391 0.04854 0.0
H1779 H 0.46618 0.86156 0.05673 0.0
H1780 H 0.45496 0.8883 0.05078 0.0
H1781 H 0.51386 0.90407 0.14481 0.0
H1782 H 0.52551 0.8829 0.12753 0.0
H1783 H 0.52609 0.9114 0.11871 0.0
H1784 H 0.55115 0.84244 0.09584 0.0
H1785 H 0.56247 0.91048 0.07778 0.0
H1786 H 0.49218 0.84116 0.07991 0.0
H1787 H 0.50076 0.8432 0.10844 0.0
H1788 H 0.5154 0.82513 0.08984 0.0
H1789 H 0.50421 0.92009 0.05913 0.0
H1790 H 0.53257 0.93025 0.05745 0.0
H1791 H 0.51771 0.93184 0.08319 0.0
C1792 C 0.63346 0.05389 0.57295 0.0
C1793 C 0.64314 0.0571 0.59396 0.0
C1794 C 0.63175 0.03245 0.56373 0.0
C1795 C 0.63963 0.01409 0.57604 0.0
C1796 C 0.65198 0.01785 0.59586 0.0
C1797 C 0.65363 0.03935 0.60447 0.0
C1798 C 0.61978 0.02948 0.54185 0.0
C1799 C 0.66126 0.99894 0.60946 0.0
C1800 C 0.60906 0.96242 0.58977 0.0
C1801 C 0.62546 0.94695 0.58482 0.0
C1802 C 0.61154 0.98462 0.58339 0.0
C1803 C 0.63096 0.99125 0.57189 0.0
C1804 C 0.64509 0.97484 0.56307 0.0
C1805 C 0.64231 0.95264 0.56986 0.0
C1806 C 0.5953 1.00138 0.5922 0.0
C1807 C 0.66486 0.98107 0.5491 0.0
H1808 H 0.62567 0.06771 0.56453 0.0
H1809 H 0.66168 0.04197 0.62043 0.0
H1810 H 0.6237 0.0134 0.53382 0.0
H1811 H 0.60161 0.03021 0.54459 0.0
H1812 H 0.62421 0.04321 0.53035 0.0
H1813 H 0.67156 0.00491 0.62367 0.0
H1814 H 0.64744 0.98864 0.61614 0.0
H1815 H 0.67164 0.98809 0.59899 0.0
H1816 H 0.59568 0.95776 0.60086 0.0
H1817 H 0.6548 0.94053 0.56564 0.0
H1818 H 0.59087 0.01351 0.57913 0.0
H1819 H 0.60307 0.0107 0.60619 0.0
H1820 H 0.57982 0.99334 0.5983 0.0
H1821 H 0.66159 0.99624 0.53919 0.0
H1822 H 0.66927 0.96728 0.53774 0.0
H1823 H 0.67938 0.98445 0.56005 0.0
C1824 C 0.46943 0.85425 0.91049 0.0
C1825 C 0.45161 0.8656 0.91978 0.0
C1826 C 0.49111 0.85805 0.91806 0.0
C1827 C 0.49491 0.87354 0.93547 0.0
C1828 C 0.47662 0.88208 0.9473 0.0
C1829 C 0.45499 0.87814 0.93917 0.0
C1830 C 0.51001 0.84785 0.90532 0.0
C1831 C 0.47984 0.89729 0.96698 0.0
C1832 C 0.55683 0.87919 0.93943 0.0
C1833 C 0.56021 0.89448 0.9222 0.0
C1834 C 0.53523 0.87434 0.94688 0.0
C1835 C 0.51697 0.88479 0.9365 0.0
C1836 C 0.52082 0.90278 0.92179 0.0
C1837 C 0.54248 0.90743 0.91487 0.0
C1838 C 0.53196 0.8563 0.96391 0.0
C1839 C 0.50194 0.91506 0.91084 0.0
H1840 H 0.46667 0.84404 0.89586 0.0
H1841 H 0.44113 0.88662 0.94669 0.0
H1842 H 0.51867 0.86091 0.89556 0.0
H1843 H 0.52228 0.84051 0.91688 0.0
H1844 H 0.50418 0.83467 0.89368 0.0
H1845 H 0.46623 0.89486 0.97913 0.0
H1846 H 0.496 0.89449 0.97542 0.0
H1847 H 0.47932 0.91481 0.96134 0.0
H1848 H 0.57063 0.86944 0.94552 0.0
H1849 H 0.54524 0.91973 0.90201 0.0
H1850 H 0.53174 0.83988 0.95553 0.0
H1851 H 0.51608 0.85823 0.97294 0.0
H1852 H 0.54588 0.85634 0.97609 0.0
H1853 H 0.49316 0.90384 0.89899 0.0
H1854 H 0.50781 0.92993 0.90159 0.0
H1855 H 0.48976 0.92046 0.9234 0.0
C1856 C 0.58383 0.9676 0.40221 0.0
C1857 C 0.60238 0.95463 0.39742 0.0
C1858 C 0.58592 0.9907 0.40417 0.0
C1859 C 0.60695 1.0007 0.40084 0.0
C1860 C 0.62615 0.98729 0.40043 0.0
C1861 C 0.62363 0.96415 0.39873 0.0
C1862 C 0.56518 0.0044 0.40592 0.0
C1863 C 0.64899 0.99741 0.398 0.0
C1864 C 0.60813 0.04539 0.35694 0.0
C1865 C 0.61235 0.0646 0.36943 0.0
C1866 C 0.60591 0.02469 0.36717 0.0
C1867 C 0.60795 0.02308 0.39059 0.0
C1868 C 0.61127 0.04251 0.40346 0.0
C1869 C 0.61345 0.06311 0.39269 0.0
C1870 C 0.60195 0.00445 0.35271 0.0
C1871 C 0.61352 0.0416 0.42841 0.0
H1872 H 0.5674 0.96006 0.40174 0.0
H1873 H 0.63803 0.95404 0.39536 0.0
H1874 H 0.56835 0.0198 0.41562 0.0
H1875 H 0.55967 0.00931 0.38902 0.0
H1876 H 0.55147 0.99485 0.41382 0.0
H1877 H 0.66215 0.9855 0.40279 0.0
H1878 H 0.65159 1.0022 0.3804 0.0
H1879 H 0.65075 0.01261 0.40831 0.0
H1880 H 0.607 0.04645 0.339 0.0
H1881 H 0.61683 0.0779 0.40248 0.0
H1882 H 0.58647 0.99576 0.35777 0.0
H1883 H 0.61584 0.99264 0.35473 0.0
H1884 H 0.60049 0.00872 0.33482 0.0
H1885 H 0.60308 0.02821 0.43567 0.0
H1886 H 0.60896 0.05768 0.43613 0.0
H1887 H 0.63107 0.03821 0.43282 0.0
C1888 C 0.44748 0.13265 0.93813 0.0
C1889 C 0.44401 0.11622 0.92193 0.0
C1890 C 0.46911 0.13784 0.94552 0.0
C1891 C 0.48729 0.12658 0.93607 0.0
C1892 C 0.4833 0.10753 0.92271 0.0
C1893 C 0.4616 0.10255 0.91586 0.0
C1894 C 0.47258 0.15707 0.96125 0.0
C1895 C 0.5021 0.09438 0.91289 0.0
C1896 C 0.53443 0.15612 0.90852 0.0
C1897 C 0.55252 0.14604 0.91892 0.0
C1898 C 0.51279 0.1521 0.91585 0.0
C1899 C 0.50928 0.13779 0.93422 0.0
C1900 C 0.52771 0.13047 0.94685 0.0
C1901 C 0.54929 0.13455 0.93891 0.0
C1902 C 0.49371 0.16087 0.9021 0.0
C1903 C 0.52481 0.11651 0.9674 0.0
H1904 H 0.43378 0.14296 0.94329 0.0
H1905 H 0.45876 0.08939 0.90383 0.0
H1906 H 0.48816 0.15528 0.971 0.0
H1907 H 0.47367 0.17275 0.95166 0.0
H1908 H 0.45839 0.15847 0.97284 0.0
H1909 H 0.49614 0.0788 0.90484 0.0
H1910 H 0.51078 0.10459 0.90022 0.0
H1911 H 0.51437 0.09004 0.92591 0.0
H1912 H 0.53701 0.16554 0.8934 0.0
H1913 H 0.56333 0.12707 0.94729 0.0
H1914 H 0.48135 0.16898 0.91288 0.0
H1915 H 0.48523 0.14689 0.89338 0.0
H1916 H 0.49931 0.17309 0.88945 0.0
H1917 H 0.5084 0.11911 0.97523 0.0
H1918 H 0.53809 0.12038 0.97972 0.0
H1919 H 0.52624 0.09869 0.96297 0.0
C1920 C 0.38454 0.95045 0.42007 0.0
C1921 C 0.36253 0.94351 0.41674 0.0
C1922 C 0.38919 0.9727 0.42553 0.0
C1923 C 0.37135 0.98773 0.42735 0.0
C1924 C 0.34955 0.97924 0.42986 0.0
C1925 C 0.34528 0.95703 0.42417 0.0
C1926 C 0.41287 0.98092 0.42466 0.0
C1927 C 0.33023 0.99445 0.43372 0.0
C1928 C 0.38269 0.04965 0.41849 0.0
C1929 C 0.38148 0.05071 0.39528 0.0
C1930 C 0.37907 0.02933 0.42959 0.0
C1931 C 0.37398 0.00999 0.41701 0.0
C1932 C 0.37177 0.01151 0.39356 0.0
C1933 C 0.37566 0.03178 0.38312 0.0
C1934 C 0.38168 0.02862 0.45449 0.0
C1935 C 0.36576 0.9917 0.37916 0.0
H1936 H 0.39797 0.93976 0.41494 0.0
H1937 H 0.32822 0.95134 0.42233 0.0
H1938 H 0.41656 0.98682 0.4076 0.0
H1939 H 0.41553 0.99503 0.43627 0.0
H1940 H 0.42467 0.96747 0.42883 0.0
H1941 H 0.31611 0.98534 0.44141 0.0
H1942 H 0.33512 0.00864 0.44452 0.0
H1943 H 0.3245 1.00119 0.41754 0.0
H1944 H 0.38732 0.06439 0.42786 0.0
H1945 H 0.37442 0.0328 0.36517 0.0
H1946 H 0.39942 0.02588 0.45865 0.0
H1947 H 0.37177 0.01502 0.46209 0.0
H1948 H 0.37679 0.04465 0.46208 0.0
H1949 H 0.37848 0.97863 0.38094 0.0
H1950 H 0.36452 0.99605 0.36128 0.0
H1951 H 0.34953 0.98461 0.38429 0.0
C1952 C 0.11311 0.48556 0.13964 0.0
C1953 C 0.10431 0.46575 0.13121 0.0
C1954 C 0.10078 0.50504 0.13928 0.0
C1955 C 0.07907 0.50469 0.12991 0.0
C1956 C 0.06926 0.48416 0.12346 0.0
C1957 C 0.08211 0.46476 0.12417 0.0
C1958 C 0.11198 0.52631 0.14703 0.0
C1959 C 0.04597 0.4827 0.11426 0.0
C1960 C 0.06373 0.56299 0.13897 0.0
C1961 C 0.07627 0.57203 0.12161 0.0
C1962 C 0.05999 0.53994 0.13997 0.0
C1963 C 0.06926 0.52627 0.12339 0.0
C1964 C 0.07701 0.53607 0.10349 0.0
C1965 C 0.0807 0.55904 0.10294 0.0
C1966 C 0.04986 0.53007 0.16058 0.0
C1967 C 0.08556 0.52213 0.08461 0.0
H1968 H 0.13022 0.48606 0.14536 0.0
H1969 H 0.07532 0.44928 0.11774 0.0
H1970 H 0.11491 0.53742 0.13264 0.0
H1971 H 0.10129 0.53519 0.15896 0.0
H1972 H 0.12822 0.52326 0.15525 0.0
H1973 H 0.03763 0.46722 0.12001 0.0
H1974 H 0.03577 0.49715 0.11911 0.0
H1975 H 0.04665 0.48194 0.09587 0.0
H1976 H 0.05985 0.57319 0.15326 0.0
H1977 H 0.08986 0.56627 0.08923 0.0
H1978 H 0.06315 0.52698 0.17301 0.0
H1979 H 0.04143 0.514 0.15685 0.0
H1980 H 0.03775 0.54164 0.16808 0.0
H1981 H 0.10225 0.51575 0.08902 0.0
H1982 H 0.08703 0.53193 0.06906 0.0
H1983 H 0.07442 0.50767 0.08153 0.0
C1984 C 0.08203 0.55155 0.85901 0.0
C1985 C 0.07896 0.56397 0.87835 0.0
C1986 C 0.08117 0.52831 0.85975 0.0
C1987 C 0.0775 0.51773 0.88041 0.0
C1988 C 0.06911 0.53029 0.89831 0.0
C1989 C 0.06995 0.55358 0.89708 0.0
C1990 C 0.08875 0.51545 0.83972 0.0
C1991 C 0.06347 0.51946 0.92012 0.0
C1992 C 0.09572 0.45734 0.8825 0.0
C1993 C 0.11846 0.4602 0.88703 0.0
C1994 C 0.08155 0.47579 0.88134 0.0
C1995 C 0.0904 0.49734 0.88524 0.0
C1996 C 0.11304 0.49992 0.89154 0.0
C1997 C 0.12671 0.48136 0.89223 0.0
C1998 C 0.05738 0.47222 0.87548 0.0
C1999 C 0.12341 0.52245 0.89621 0.0
H2000 H 0.08858 0.55971 0.84435 0.0
H2001 H 0.06721 0.56328 0.91199 0.0
H2002 H 0.10686 0.51244 0.84116 0.0
H2003 H 0.08015 0.49911 0.83861 0.0
H2004 H 0.08572 0.52484 0.82413 0.0
H2005 H 0.05209 0.52996 0.92998 0.0
H2006 H 0.05566 0.5029 0.91743 0.0
H2007 H 0.07894 0.51711 0.92992 0.0
H2008 H 0.08926 0.44089 0.87873 0.0
H2009 H 0.1442 0.48351 0.89618 0.0
H2010 H 0.05145 0.48494 0.86359 0.0
H2011 H 0.0473 0.47373 0.89076 0.0
H2012 H 0.05426 0.45548 0.86826 0.0
H2013 H 0.12356 0.53244 0.88076 0.0
H2014 H 0.14078 0.52125 0.90237 0.0
H2015 H 0.11366 0.53153 0.9088 0.0
C2016 C 0.04298 0.57733 0.40817 0.0
C2017 C 0.05877 0.57206 0.39214 0.0
C2018 C 0.02062 0.57171 0.40487 0.0
C2019 C 0.01423 0.5606 0.38505 0.0
C2020 C 0.03077 0.55098 0.37161 0.0
C2021 C 0.05312 0.55709 0.37515 0.0
C2022 C 0.00365 0.58114 0.42054 0.0
C2023 C 0.02466 0.53709 0.35164 0.0
C2024 C 0.95211 0.56632 0.37899 0.0
C2025 C 0.95129 0.58742 0.36916 0.0
C2026 C 0.97255 0.55553 0.3819 0.0
C2027 C 0.99236 0.56639 0.37515 0.0
C2028 C 0.99105 0.58633 0.36267 0.0
C2029 C 0.97049 0.59647 0.35974 0.0
C2030 C 0.97286 0.53351 0.39379 0.0
C2031 C 0.01157 0.59846 0.35453 0.0
H2032 H 0.04759 0.58838 0.42171 0.0
H2033 H 0.06546 0.55252 0.36298 0.0
H2034 H 0.99542 0.59556 0.41261 0.0
H2035 H 0.99067 0.56855 0.4243 0.0
H2036 H 0.01132 0.58682 0.43641 0.0
H2037 H 0.038 0.52509 0.34781 0.0
H2038 H 0.00885 0.52787 0.35432 0.0
H2039 H 0.02252 0.54801 0.33697 0.0
H2040 H 0.93717 0.559 0.38592 0.0
H2041 H 0.96973 0.61248 0.35155 0.0
H2042 H 0.97036 0.53626 0.41182 0.0
H2043 H 0.98869 0.52456 0.39139 0.0
H2044 H 0.95892 0.52279 0.38784 0.0
H2045 H 0.02171 0.60423 0.36891 0.0
H2046 H 0.00745 0.61316 0.34422 0.0
H2047 H 0.02194 0.58723 0.34447 0.0
C2048 C 0.91877 0.55032 0.89412 0.0
C2049 C 0.92695 0.56825 0.88182 0.0
C2050 C 0.92789 0.52921 0.8918 0.0
C2051 C 0.94574 0.52614 0.87685 0.0
C2052 C 0.95655 0.54495 0.86768 0.0
C2053 C 0.94684 0.56596 0.87008 0.0
C2054 C 0.91628 0.50982 0.90286 0.0
C2055 C 0.97684 0.54274 0.85335 0.0
C2056 C 0.95034 0.46449 0.87436 0.0
C2057 C 0.93291 0.46033 0.85936 0.0
C2058 C 0.95813 0.48634 0.8778 0.0
C2059 C 0.94779 0.50395 0.86627 0.0
C2060 C 0.9333 0.49904 0.84823 0.0
C2061 C 0.92601 0.47717 0.84504 0.0
C2062 C 0.97526 0.49068 0.89565 0.0
C2063 C 0.92264 0.51714 0.83459 0.0
H2064 H 0.90382 0.55232 0.90385 0.0
H2065 H 0.95364 0.57999 0.86102 0.0
H2066 H 0.90745 0.49963 0.89015 0.0
H2067 H 0.9285 0.49905 0.9113 0.0
H2068 H 0.90396 0.5153 0.91533 0.0
H2069 H 0.9885 0.55684 0.85645 0.0
H2070 H 0.98563 0.52691 0.85643 0.0
H2071 H 0.97189 0.54341 0.8356 0.0
H2072 H 0.95606 0.45131 0.88517 0.0
H2073 H 0.91296 0.4737 0.83301 0.0
H2074 H 0.96714 0.49052 0.91213 0.0
H2075 H 0.9837 0.50699 0.89339 0.0
H2076 H 0.98791 0.47737 0.89569 0.0
H2077 H 0.91069 0.52639 0.845 0.0
H2078 H 0.91354 0.51037 0.81994 0.0
H2079 H 0.93537 0.5291 0.82867 0.0
C2080 C 0.04236 0.42693 0.4126 0.0
C2081 C 0.0552 0.42046 0.3944 0.0
C2082 C 0.01974 0.43142 0.40974 0.0
C2083 C 0.01016 0.42852 0.38846 0.0
C2084 C 0.0242 0.4277 0.36969 0.0
C2085 C 0.04689 0.42367 0.3729 0.0
C2086 C 0.00548 0.43455 0.42995 0.0
C2087 C 0.01475 0.42628 0.3465 0.0
C2088 C 0.96829 0.3817 0.38525 0.0
C2089 C 0.94888 0.39262 0.37902 0.0
C2090 C 0.98797 0.39342 0.38922 0.0
C2091 C 0.98835 0.4169 0.3869 0.0
C2092 C 0.96846 0.42826 0.38185 0.0
C2093 C 0.94878 0.41591 0.37811 0.0
C2094 C 0.00849 0.38029 0.39509 0.0
C2095 C 0.96781 0.45326 0.38031 0.0
H2096 H 0.04909 0.42534 0.42926 0.0
H2097 H 0.05702 0.4194 0.35871 0.0
H2098 H 0.99085 0.44491 0.42598 0.0
H2099 H 0.9994 0.4181 0.43575 0.0
H2100 H 0.0151 0.44244 0.44369 0.0
H2101 H 0.02726 0.43135 0.33396 0.0
H2102 H 0.00967 0.40883 0.34299 0.0
H2103 H 0.99989 0.43688 0.34472 0.0
H2104 H 0.96823 0.36373 0.38649 0.0
H2105 H 0.93364 0.42441 0.37357 0.0
H2106 H 0.0153 0.38588 0.41131 0.0
H2107 H 0.02146 0.38288 0.38233 0.0
H2108 H 0.00508 0.36216 0.39624 0.0
H2109 H 0.96555 0.46021 0.3972 0.0
H2110 H 0.95371 0.45886 0.36981 0.0
H2111 H 0.98346 0.46031 0.37356 0.0
C2112 C 0.87701 0.48113 0.09714 0.0
C2113 C 0.88524 0.45983 0.10083 0.0
C2114 C 0.89079 0.49984 0.09902 0.0
C2115 C 0.91354 0.49716 0.10471 0.0
C2116 C 0.92248 0.47555 0.10605 0.0
C2117 C 0.90815 0.45704 0.10413 0.0
C2118 C 0.88033 0.52249 0.09699 0.0
C2119 C 0.94667 0.47173 0.11117 0.0
C2120 C 0.93313 0.55529 0.10202 0.0
C2121 C 0.92422 0.56216 0.1223 0.0
C2122 C 0.93421 0.53254 0.09697 0.0
C2123 C 0.92617 0.51699 0.11265 0.0
C2124 C 0.92272 0.52392 0.13483 0.0
C2125 C 0.92173 0.54669 0.13942 0.0
C2126 C 0.93983 0.52554 0.07367 0.0
C2127 C 0.91567 0.50771 0.15257 0.0
H2128 H 0.8594 0.4833 0.0941 0.0
H2129 H 0.91469 0.44053 0.1068 0.0
H2130 H 0.8801 0.53062 0.11352 0.0
H2131 H 0.89002 0.53323 0.0856 0.0
H2132 H 0.86297 0.52154 0.09068 0.0
H2133 H 0.95273 0.45697 0.10202 0.0
H2134 H 0.95724 0.48629 0.10689 0.0
H2135 H 0.94865 0.46826 0.12916 0.0
H2136 H 0.93555 0.56735 0.08887 0.0
H2137 H 0.91535 0.55215 0.15531 0.0
H2138 H 0.92445 0.52515 0.06343 0.0
H2139 H 0.9471 0.50868 0.07347 0.0
H2140 H 0.95165 0.53748 0.06595 0.0
H2141 H 0.89786 0.50332 0.15016 0.0
H2142 H 0.91777 0.51491 0.16946 0.0
H2143 H 0.9254 0.49222 0.15151 0.0
C2144 C 0.9577 0.41944 0.62971 0.0
C2145 C 0.95082 0.41746 0.60754 0.0
C2146 C 0.98028 0.42285 0.6347 0.0
C2147 C 0.99564 0.4241 0.61703 0.0
C2148 C 0.98774 0.42821 0.5953 0.0
C2149 C 0.96517 0.42459 0.59068 0.0
C2150 C 0.98804 0.42041 0.65838 0.0
C2151 C 0.00351 0.43159 0.57625 0.0
C2152 C 0.05638 0.40996 0.62804 0.0
C2153 C 0.05557 0.38676 0.62577 0.0
C2154 C 0.03712 0.42272 0.62498 0.0
C2155 C 0.01683 0.41189 0.61944 0.0
C2156 C 0.01633 0.38849 0.61634 0.0
C2157 C 0.03564 0.37635 0.61961 0.0
C2158 C 0.03854 0.44749 0.62857 0.0
C2159 C 0.99535 0.37594 0.60991 0.0
H2160 H 0.94643 0.41474 0.64292 0.0
H2161 H 0.95958 0.42403 0.57353 0.0
H2162 H 0.99226 0.40277 0.66153 0.0
H2163 H 1.00312 0.43069 0.66153 0.0
H2164 H 0.97486 0.42526 0.67023 0.0
H2165 H 0.99535 0.44056 0.56236 0.0
H2166 H 0.01854 0.44101 0.58162 0.0
H2167 H 0.00884 0.41515 0.56998 0.0
H2168 H 0.07183 0.41804 0.63289 0.0
H2169 H 0.03509 0.35846 0.61745 0.0
H2170 H 0.03609 0.45107 0.64646 0.0
H2171 H 0.02571 0.45655 0.619 0.0
H2172 H 0.05518 0.45404 0.62392 0.0
H2173 H 0.98245 0.37826 0.62274 0.0
H2174 H 0.9981 0.35782 0.60804 0.0
H2175 H 0.9888 0.38226 0.59391 0.0
C2176 C 0.03373 0.59881 0.65091 0.0
C2177 C 0.05167 0.59022 0.6392 0.0
C2178 C 0.01232 0.59019 0.64777 0.0
C2179 C 0.00894 0.5724 0.63261 0.0
C2180 C 0.02754 0.5613 0.62378 0.0
C2181 C 0.04888 0.57051 0.62704 0.0
C2182 C 0.99314 0.60221 0.65831 0.0
C2183 C 0.0249 0.54122 0.609 0.0
C2184 C 0.9472 0.56699 0.62934 0.0
C2185 C 0.94314 0.58417 0.61419 0.0
C2186 C 0.96901 0.55973 0.63317 0.0
C2187 C 0.98674 0.5703 0.62189 0.0
C2188 C 0.98204 0.58465 0.60385 0.0
C2189 C 0.96018 0.59137 0.6002 0.0
C2190 C 0.97318 0.54284 0.65113 0.0
C2191 C 1.00031 0.59563 0.59058 0.0
H2192 H 0.03608 0.61368 0.66086 0.0
H2193 H 0.06287 0.56351 0.61831 0.0
H2194 H 0.9836 0.61116 0.64534 0.0
H2195 H 0.98169 0.59022 0.66638 0.0
H2196 H 0.99877 0.61448 0.67098 0.0
H2197 H 0.03862 0.52938 0.61203 0.0
H2198 H 0.0088 0.53252 0.61166 0.0
H2199 H 0.02585 0.54642 0.59137 0.0
H2200 H 0.93391 0.56093 0.63985 0.0
H2201 H 0.95683 0.60415 0.58797 0.0
H2202 H 0.97388 0.55129 0.6675 0.0
H2203 H 0.9891 0.5341 0.64858 0.0
H2204 H 0.95943 0.53042 0.65168 0.0
H2205 H 0.00939 0.6078 0.60119 0.0
H2206 H 0.99375 0.60453 0.57582 0.0
H2207 H 0.01237 0.58311 0.58486 0.0
C2208 C 0.95366 0.11186 0.36891 0.0
C2209 C 0.94556 0.12509 0.38624 0.0
C2210 C 0.97689 0.10897 0.36598 0.0
C2211 C 0.99231 0.11952 0.38069 0.0
C2212 C 0.98398 0.13206 0.39866 0.0
C2213 C 0.96099 0.13461 0.40116 0.0
C2214 C 0.9849 0.09529 0.34671 0.0
C2215 C 0.99941 0.14357 0.41501 0.0
C2216 C 0.05341 0.10786 0.39223 0.0
C2217 C 0.06359 0.12684 0.38317 0.0
C2218 C 0.03041 0.10365 0.38934 0.0
C2219 C 0.01715 0.11888 0.37725 0.0
C2220 C 0.02791 0.13666 0.36604 0.0
C2221 C 0.05087 0.14049 0.36927 0.0
C2222 C 0.01997 0.0843 0.40141 0.0
C2223 C 0.01479 0.15329 0.35277 0.0
H2224 H 0.942 0.10447 0.35723 0.0
H2225 H 0.95507 0.14463 0.41483 0.0
H2226 H 0.99205 0.10647 0.33392 0.0
H2227 H 0.99823 0.08388 0.35212 0.0
H2228 H 0.97124 0.0854 0.33896 0.0
H2229 H 0.9903 0.15209 0.4285 0.0
H2230 H 0.01083 0.13138 0.42264 0.0
H2231 H 0.00973 0.15611 0.40624 0.0
H2232 H 0.0629 0.09753 0.40347 0.0
H2233 H 0.05843 0.15549 0.36263 0.0
H2234 H 0.00664 0.07646 0.39121 0.0
H2235 H 0.01234 0.09033 0.41699 0.0
H2236 H 0.03244 0.07154 0.40578 0.0
H2237 H 1.002 0.14481 0.3424 0.0
H2238 H 0.02565 0.16348 0.34186 0.0
H2239 H 0.00609 0.1646 0.36432 0.0
C2240 C 0.37611 0.44472 0.8596 0.0
C2241 C 0.39535 0.43602 0.8694 0.0
C2242 C 0.37393 0.46779 0.85586 0.0
C2243 C 0.39135 0.4826 0.86222 0.0
C2244 C 0.41176 0.47352 0.86958 0.0
C2245 C 0.41344 0.45044 0.87316 0.0
C2246 C 0.35199 0.47646 0.84761 0.0
C2247 C 0.43095 0.48835 0.87642 0.0
C2248 C 0.38846 0.5464 0.85574 0.0
C2249 C 0.38136 0.55278 0.87697 0.0
C2250 C 0.39118 0.52363 0.85023 0.0
C2251 C 0.3867 0.50688 0.8663 0.0
C2252 C 0.37871 0.51338 0.88738 0.0
C2253 C 0.37616 0.53599 0.89236 0.0
C2254 C 0.39956 0.51756 0.82751 0.0
C2255 C 0.37349 0.49642 0.90516 0.0
H2256 H 0.36182 0.43386 0.85715 0.0
H2257 H 0.42819 0.44398 0.8812 0.0
H2258 H 0.34212 0.48229 0.86194 0.0
H2259 H 0.35447 0.49078 0.83627 0.0
H2260 H 0.34223 0.46336 0.8388 0.0
H2261 H 0.4467 0.47898 0.87778 0.0
H2262 H 0.43325 0.5021 0.86439 0.0
H2263 H 0.42738 0.49585 0.89284 0.0
H2264 H 0.39258 0.55915 0.84372 0.0
H2265 H 0.37041 0.54056 0.90875 0.0
H2266 H 0.3897 0.50356 0.82044 0.0
H2267 H 0.41702 0.51201 0.82886 0.0
H2268 H 0.39892 0.53184 0.81586 0.0
H2269 H 0.36122 0.48406 0.89883 0.0
H2270 H 0.36671 0.50411 0.92043 0.0
H2271 H 0.38877 0.4873 0.90972 0.0
C2272 C 0.03132 0.8834 0.39881 0.0
C2273 C 0.04715 0.8877 0.38227 0.0
C2274 C 0.00847 0.88597 0.395 0.0
C2275 C 1.00077 0.89349 0.37407 0.0
C2276 C 0.01674 0.89963 0.35776 0.0
C2277 C 0.03977 0.8965 0.36197 0.0
C2278 C 0.9925 0.87908 0.41307 0.0
C2279 C 0.00956 0.90838 0.33545 0.0
C2280 C 0.94381 0.86777 0.36417 0.0
C2281 C 0.92989 0.8832 0.37451 0.0
C2282 C 0.9667 0.87197 0.36148 0.0
C2283 C 0.97613 0.89227 0.36916 0.0
C2284 C 0.96162 0.90907 0.37684 0.0
C2285 C 0.93873 0.90427 0.37966 0.0
C2286 C 0.98114 0.85348 0.35306 0.0
C2287 C 0.97061 0.93132 0.38431 0.0
H2288 H 0.03678 0.87682 0.41466 0.0
H2289 H 0.05175 0.89979 0.349 0.0
H2290 H 0.98105 0.89285 0.41692 0.0
H2291 H 0.98224 0.86475 0.4073 0.0
H2292 H 1.00115 0.87423 0.42864 0.0
H2293 H 0.02301 0.91831 0.32757 0.0
H2294 H 0.00546 0.89422 0.32432 0.0
H2295 H 0.99454 0.9188 0.3369 0.0
H2296 H 0.93724 0.85134 0.36042 0.0
H2297 H 0.92831 0.91621 0.38802 0.0
H2298 H 0.99041 0.84614 0.36721 0.0
H2299 H 0.9935 0.85994 0.34107 0.0
H2300 H 0.97124 0.84008 0.3449 0.0
H2301 H 0.97742 0.92985 0.40139 0.0
H2302 H 0.95742 0.94408 0.38446 0.0
H2303 H 0.98428 0.93701 0.37334 0.0
C2304 C 0.62036 0.46386 0.86804 0.0
C2305 C 0.63149 0.45775 0.88763 0.0
C2306 C 0.61756 0.48659 0.86241 0.0
C2307 C 0.62613 0.50354 0.87666 0.0
C2308 C 0.63805 0.49725 0.89595 0.0
C2309 C 0.64053 0.47468 0.90111 0.0
C2310 C 0.60483 0.49243 0.84165 0.0
C2311 C 0.64778 0.51441 0.91168 0.0
C2312 C 0.63897 0.56453 0.8658 0.0
C2313 C 0.62294 0.5748 0.87903 0.0
C2314 C 0.63873 0.54128 0.8624 0.0
C2315 C 0.62214 0.52792 0.87262 0.0
C2316 C 0.60443 0.53862 0.88364 0.0
C2317 C 0.60514 0.56183 0.88682 0.0
C2318 C 0.6578 0.53087 0.85022 0.0
C2319 C 0.58619 0.52534 0.89461 0.0
H2320 H 0.61326 0.45099 0.85752 0.0
H2321 H 0.64943 0.4703 0.91615 0.0
H2322 H 0.58831 0.49893 0.84626 0.0
H2323 H 0.61359 0.5057 0.83227 0.0
H2324 H 0.60232 0.47781 0.83062 0.0
H2325 H 0.6572 0.5068 0.92559 0.0
H2326 H 0.6591 0.52582 0.90262 0.0
H2327 H 0.63429 0.52458 0.91879 0.0
H2328 H 0.65309 0.57427 0.86016 0.0
H2329 H 0.59295 0.56952 0.89749 0.0
H2330 H 0.65202 0.5165 0.84011 0.0
H2331 H 0.6701 0.52469 0.86246 0.0
H2332 H 0.66629 0.54304 0.83922 0.0
H2333 H 0.58058 0.51143 0.88379 0.0
H2334 H 0.57168 0.53583 0.89863 0.0
H2335 H 0.59261 0.51809 0.91029 0.0
C2336 C 0.95766 0.88111 0.6532 0.0
C2337 C 0.94767 0.89798 0.64066 0.0
C2338 C 0.98089 0.88083 0.65673 0.0
C2339 C 0.99451 0.89782 0.64752 0.0
C2340 C 0.98407 0.91636 0.63753 0.0
C2341 C 0.96088 0.91615 0.63414 0.0
C2342 C 0.99101 0.86088 0.66785 0.0
C2343 C 0.99761 0.93511 0.62773 0.0
C2344 C 0.05855 0.89886 0.65234 0.0
C2345 C 0.06457 0.88913 0.63206 0.0
C2346 C 0.03587 0.90132 0.65812 0.0
C2347 C 0.01885 0.89379 0.64336 0.0
C2348 C 0.02505 0.88313 0.62338 0.0
C2349 C 0.0476 0.88102 0.61805 0.0
C2350 C 0.03014 0.9127 0.6796 0.0
C2351 C 0.00782 0.87451 0.60708 0.0
H2352 H 0.94775 0.86674 0.65789 0.0
H2353 H 0.95343 0.92904 0.62407 0.0
H2354 H 0.99691 0.8492 0.65495 0.0
H2355 H 0.00551 0.8658 0.67824 0.0
H2356 H 0.97873 0.85196 0.67837 0.0
H2357 H 0.98732 0.94999 0.6245 0.0
H2358 H 0.01155 0.93984 0.63893 0.0
H2359 H 0.00481 0.92959 0.61175 0.0
H2360 H 0.07147 0.90527 0.66326 0.0
H2361 H 0.05194 0.87322 0.60245 0.0
H2362 H 0.01664 0.90361 0.68827 0.0
H2363 H 0.02406 0.92966 0.676 0.0
H2364 H 0.04474 0.91413 0.6909 0.0
H2365 H 0.99628 0.8628 0.61547 0.0
H2366 H 0.01535 0.86581 0.59274 0.0
H2367 H 0.99782 0.88851 0.60065 0.0
C2368 C 0.61748 0.44307 0.12048 0.0
C2369 C 0.61214 0.42808 0.13759 0.0
C2370 C 0.61659 0.46621 0.12342 0.0
C2371 C 0.60994 0.47517 0.14407 0.0
C2372 C 0.6033 0.46021 0.16117 0.0
C2373 C 0.60454 0.43685 0.15778 0.0
C2374 C 0.6238 0.48109 0.10453 0.0
C2375 C 0.59571 0.46884 0.18332 0.0
C2376 C 0.63687 0.53229 0.15042 0.0
C2377 C 0.6211 0.54612 0.14032 0.0
C2378 C 0.63254 0.50952 0.15415 0.0
C2379 C 0.61183 0.50005 0.14763 0.0
C2380 C 0.59492 0.51451 0.13997 0.0
C2381 C 0.59978 0.5373 0.13627 0.0
C2382 C 0.65118 0.49514 0.16249 0.0
C2383 C 0.57239 0.50552 0.13334 0.0
H2384 H 0.6231 0.43667 0.10467 0.0
H2385 H 0.6004 0.42556 0.17117 0.0
H2386 H 0.61052 0.49305 0.10041 0.0
H2387 H 0.63873 0.49086 0.10957 0.0
H2388 H 0.62783 0.47158 0.08928 0.0
H2389 H 0.58699 0.45579 0.19307 0.0
H2390 H 0.61033 0.47469 0.19306 0.0
H2391 H 0.5845 0.4832 0.18113 0.0
H2392 H 0.65352 0.53877 0.15322 0.0
H2393 H 0.58759 0.54758 0.12801 0.0
H2394 H 0.65818 0.4857 0.14837 0.0
H2395 H 0.645 0.48293 0.17482 0.0
H2396 H 0.66476 0.50516 0.17023 0.0
H2397 H 0.57341 0.49792 0.11659 0.0
H2398 H 0.55979 0.51887 0.13274 0.0
H2399 H 0.56677 0.49244 0.14505 0.0
C2400 C 0.9711 0.13406 0.61503 0.0
C2401 C 0.95462 0.12816 0.63042 0.0
C2402 C 0.99382 0.13167 0.61975 0.0
C2403 C 1.0007 0.12306 0.64054 0.0
C2404 C 0.98424 0.11794 0.65665 0.0
C2405 C 0.96138 0.12056 0.65142 0.0
C2406 C 0.01046 0.13763 0.60197 0.0
C2407 C 0.9907 0.10887 0.67906 0.0
C2408 C 0.05716 0.09671 0.63261 0.0
C2409 C 0.07158 0.11468 0.63691 0.0
C2410 C 0.03411 0.09825 0.63626 0.0
C2411 C 0.02504 0.11839 0.64424 0.0
C2412 C 0.03985 0.13561 0.65108 0.0
C2413 C 0.0629 0.13359 0.64726 0.0
C2414 C 0.01926 0.07926 0.62892 0.0
C2415 C 0.03121 0.15726 0.65999 0.0
H2416 H 0.96619 0.14016 0.59881 0.0
H2417 H 0.94886 0.11583 0.66342 0.0
H2418 H 0.0229 0.14967 0.60856 0.0
H2419 H 0.01952 0.12254 0.59678 0.0
H2420 H 1.0025 0.14498 0.58704 0.0
H2421 H 0.97664 0.10918 0.69091 0.0
H2422 H 0.99617 0.09143 0.67718 0.0
H2423 H 0.00485 0.11848 0.68621 0.0
H2424 H 0.06358 0.08225 0.62412 0.0
H2425 H 0.07375 0.1478 0.65013 0.0
H2426 H 0.01153 0.08341 0.61269 0.0
H2427 H 0.00569 0.07646 0.64099 0.0
H2428 H 0.02865 0.06359 0.62696 0.0
H2429 H 0.02518 0.16756 0.64597 0.0
H2430 H 0.04437 0.16679 0.66897 0.0
H2431 H 0.01704 0.15436 0.67135 0.0
C2432 C 0.39552 0.55666 0.14274 0.0
C2433 C 0.3844 0.56529 0.12413 0.0
C2434 C 0.39863 0.53339 0.14513 0.0
C2435 C 0.39042 0.51845 0.12859 0.0
C2436 C 0.38038 0.52739 0.10929 0.0
C2437 C 0.37756 0.55044 0.10736 0.0
C2438 C 0.40971 0.52477 0.16585 0.0
C2439 C 0.37142 0.51252 0.09101 0.0
C2440 C 0.4025 0.45708 0.11835 0.0
C2441 C 0.38237 0.44715 0.12485 0.0
C2442 C 0.40663 0.48004 0.12176 0.0
C2443 C 0.39018 0.49351 0.13171 0.0
C2444 C 0.37095 0.48297 0.14044 0.0
C2445 C 0.36728 0.46008 0.13682 0.0
C2446 C 0.4276 0.49025 0.11257 0.0
C2447 C 0.35292 0.4963 0.15131 0.0
H2448 H 0.40075 0.56789 0.15588 0.0
H2449 H 0.36914 0.55688 0.09279 0.0
H2450 H 0.3969 0.51797 0.1772 0.0
H2451 H 0.42124 0.5111 0.16183 0.0
H2452 H 0.41905 0.53809 0.17476 0.0
H2453 H 0.36512 0.52209 0.07657 0.0
H2454 H 0.38454 0.50118 0.08512 0.0
H2455 H 0.35763 0.50208 0.0975 0.0
H2456 H 0.41406 0.44744 0.10863 0.0
H2457 H 0.3515 0.45269 0.14154 0.0
H2458 H 0.43417 0.50341 0.1238 0.0
H2459 H 0.4239 0.49806 0.0963 0.0
H2460 H 0.44064 0.47758 0.11004 0.0
H2461 H 0.36014 0.50857 0.16312 0.0
H2462 H 0.34092 0.48552 0.16034 0.0
H2463 H 0.34369 0.50564 0.1384 0.0
C2464 C 0.35647 0.05176 0.13891 0.0
C2465 C 0.36741 0.06626 0.12423 0.0
C2466 C 0.35405 0.02891 0.13423 0.0
C2467 C 0.36273 0.02007 0.11428 0.0
C2468 C 0.37125 0.03511 0.09818 0.0
C2469 C 0.3736 0.05799 0.10337 0.0
C2470 C 0.34465 0.01388 0.15196 0.0
C2471 C 0.38006 0.02676 0.07637 0.0
C2472 C 0.39092 0.96454 0.12402 0.0
C2473 C 0.37458 0.94886 0.11783 0.0
C2474 C 0.38764 0.98749 0.12173 0.0
C2475 C 0.3674 0.99546 0.11285 0.0
C2476 C 0.35134 0.97972 0.10505 0.0
C2477 C 0.35506 0.95657 0.1077 0.0
C2478 C 0.40545 1.00324 0.13026 0.0
C2479 C 0.32972 0.98726 0.09501 0.0
H2480 H 0.35182 0.05789 0.15515 0.0
H2481 H 0.38238 0.06887 0.09201 0.0
H2482 H 0.33315 1.00138 0.14459 0.0
H2483 H 0.3584 0.00478 0.16012 0.0
H2484 H 0.33564 0.02334 0.16488 0.0
H2485 H 0.38099 0.04025 0.06383 0.0
H2486 H 0.39702 0.02018 0.07893 0.0
H2487 H 0.36949 0.01305 0.06975 0.0
H2488 H 0.40615 0.9588 0.13171 0.0
H2489 H 0.34223 0.94469 0.103 0.0
H2490 H 0.39903 0.01276 0.14461 0.0
H2491 H 0.41007 0.01539 0.11721 0.0
H2492 H 0.42068 0.99444 0.13565 0.0
H2493 H 0.31819 0.99195 0.10848 0.0
H2494 H 0.32169 0.97389 0.08499 0.0
H2495 H 0.33229 1.00208 0.08435 0.0
C2496 C 0.46384 0.90448 0.63127 0.0
C2497 C 0.44741 0.88917 0.6244 0.0
C2498 C 0.48659 0.89993 0.62954 0.0
C2499 C 0.49358 0.87938 0.62063 0.0
C2500 C 0.47716 0.86343 0.61423 0.0
C2501 C 0.45425 0.86848 0.6162 0.0
C2502 C 0.50319 0.91753 0.6368 0.0
C2503 C 0.48376 0.84129 0.60474 0.0
C2504 C 0.55176 0.88791 0.59804 0.0
C2505 C 0.56491 0.88301 0.61668 0.0
C2506 C 0.5286 0.88424 0.59803 0.0
C2507 C 0.5181 0.87568 0.61728 0.0
C2508 C 0.53165 0.8683 0.63514 0.0
C2509 C 0.55486 0.8721 0.63465 0.0
C2510 C 0.51514 0.89218 0.57843 0.0
C2511 C 0.52146 0.85883 0.65592 0.0
H2512 H 0.45893 0.92045 0.63787 0.0
H2513 H 0.44179 0.85651 0.61082 0.0
H2514 H 0.51476 0.91064 0.64935 0.0
H2515 H 0.51325 0.92298 0.62238 0.0
H2516 H 0.49509 0.93235 0.64403 0.0
H2517 H 0.46939 0.82966 0.60327 0.0
H2518 H 0.49095 0.84378 0.588 0.0
H2519 H 0.49673 0.83354 0.61525 0.0
H2520 H 0.55927 0.89679 0.58429 0.0
H2521 H 0.56472 0.86876 0.64937 0.0
H2522 H 0.50758 0.9084 0.58255 0.0
H2523 H 0.50145 0.88033 0.57453 0.0
H2524 H 0.52555 0.89439 0.56342 0.0
H2525 H 0.51503 0.87259 0.66625 0.0
H2526 H 0.53381 0.84954 0.66594 0.0
H2527 H 0.50729 0.8476 0.65184 0.0
C2528 C 0.62245 0.03156 0.12806 0.0
C2529 C 0.64011 0.04662 0.12497 0.0
C2530 C 0.62493 0.00857 0.12491 0.0
C2531 C 0.64571 0.99999 0.11829 0.0
C2532 C 0.66321 0.01527 0.11338 0.0
C2533 C 0.66028 0.03842 0.11695 0.0
C2534 C 0.60565 0.99334 0.13044 0.0
C2535 C 0.68546 0.00716 0.10569 0.0
C2536 C 0.65247 0.94248 0.14348 0.0
C2537 C 0.64294 0.92867 0.12711 0.0
C2538 C 0.65566 0.96545 0.14 0.0
C2539 C 0.64932 0.97515 0.11948 0.0
C2540 C 0.64228 0.96083 0.10196 0.0
C2541 C 0.639 0.93782 0.10601 0.0
C2542 C 0.6633 0.97967 0.15928 0.0
C2543 C 0.63608 0.97008 0.07955 0.0
H2544 H 0.60684 0.03772 0.13438 0.0
H2545 H 0.67417 0.04979 0.11487 0.0
H2546 H 0.60221 0.98177 0.11648 0.0
H2547 H 0.60991 0.98316 0.14519 0.0
H2548 H 0.59025 1.00263 0.13407 0.0
H2549 H 0.69502 0.02053 0.09723 0.0
H2550 H 0.69527 1.00155 0.12024 0.0
H2551 H 0.68351 0.99283 0.09421 0.0
H2552 H 0.65527 0.9357 0.15993 0.0
H2553 H 0.63123 0.92753 0.09332 0.0
H2554 H 0.64899 0.98913 0.16579 0.0
H2555 H 0.67604 0.9919 0.15388 0.0
H2556 H 0.6703 0.96958 0.17303 0.0
H2557 H 0.61908 0.97696 0.08026 0.0
H2558 H 0.63628 0.95702 0.0665 0.0
H2559 H 0.64757 0.98375 0.07474 0.0
C2560 C 0.55424 0.11228 0.62871 0.0
C2561 C 0.57114 0.1276 0.62332 0.0
C2562 C 0.53166 0.11725 0.62601 0.0
C2563 C 0.52531 0.13826 0.61766 0.0
C2564 C 0.54219 0.15418 0.61271 0.0
C2565 C 0.56491 0.14867 0.61557 0.0
C2566 C 0.51456 0.09963 0.63171 0.0
C2567 C 0.53628 0.17679 0.60389 0.0
C2568 C 0.46793 0.13091 0.59245 0.0
C2569 C 0.45436 0.13465 0.61093 0.0
C2570 C 0.49104 0.13479 0.5934 0.0
C2571 C 0.501 0.14249 0.61341 0.0
C2572 C 0.48697 0.14912 0.63105 0.0
C2573 C 0.46383 0.14511 0.6296 0.0
C2574 C 0.50501 0.12775 0.57397 0.0
C2575 C 0.49658 0.15778 0.65258 0.0
H2576 H 0.55864 0.096 0.63491 0.0
H2577 H 0.57773 0.16066 0.61134 0.0
H2578 H 0.50273 0.10615 0.64411 0.0
H2579 H 0.50485 0.09504 0.61664 0.0
H2580 H 0.52217 0.08434 0.63854 0.0
H2581 H 0.55078 0.18833 0.60396 0.0
H2582 H 0.53007 0.17515 0.58658 0.0
H2583 H 0.52278 0.18419 0.61384 0.0
H2584 H 0.46086 0.12248 0.57809 0.0
H2585 H 0.45364 0.14765 0.64415 0.0
H2586 H 0.51229 0.11125 0.57751 0.0
H2587 H 0.51891 0.13964 0.57125 0.0
H2588 H 0.49502 0.12641 0.55845 0.0
H2589 H 0.50257 0.14361 0.66267 0.0
H2590 H 0.48398 0.16682 0.66239 0.0
H2591 H 0.51095 0.16902 0.64951 0.0
C2592 C 0.37977 0.04025 0.91572 0.0
C2593 C 0.37516 0.05359 0.89717 0.0
C2594 C 0.376 0.0171 0.9153 0.0
C2595 C 0.3676 0.00682 0.89574 0.0
C2596 C 0.36023 0.02059 0.87808 0.0
C2597 C 0.36408 0.04379 0.87901 0.0
C2598 C 0.38382 1.00342 0.93475 0.0
C2599 C 0.35084 0.01064 0.85701 0.0
C2600 C 0.3972 0.95319 0.88086 0.0
C2601 C 0.38207 0.93644 0.88714 0.0
C2602 C 0.39232 0.97584 0.88306 0.0
C2603 C 0.37162 0.98241 0.89186 0.0
C2604 C 0.35587 0.96566 0.89766 0.0
C2605 C 0.36125 0.94287 0.89522 0.0
C2606 C 0.40973 0.9928 0.87641 0.0
C2607 C 0.3336 0.9718 0.90702 0.0
H2608 H 0.38867 0.04757 0.92967 0.0
H2609 H 0.36088 0.05379 0.8644 0.0
H2610 H 0.37205 0.98957 0.93815 0.0
H2611 H 0.40015 0.99605 0.93076 0.0
H2612 H 0.38579 0.01364 0.95001 0.0
H2613 H 0.34143 0.02307 0.84723 0.0
H2614 H 0.36466 0.00453 0.84661 0.0
H2615 H 0.33977 0.99629 0.86068 0.0
H2616 H 0.41326 0.9486 0.87436 0.0
H2617 H 0.34941 0.93016 0.90014 0.0
H2618 H 0.41496 1.0027 0.89111 0.0
H2619 H 0.40275 0.00448 0.86403 0.0
H2620 H 0.42469 0.98502 0.86917 0.0
H2621 H 0.33586 0.97833 0.92412 0.0
H2622 H 0.32204 0.95731 0.90764 0.0
H2623 H 0.32588 0.98513 0.89698 0.0
C2624 C 0.5387 0.87291 0.4036 0.0
C2625 C 0.5469 0.86393 0.38378 0.0
C2626 C 0.51592 0.87088 0.40915 0.0
C2627 C 0.50089 0.85985 0.39443 0.0
C2628 C 0.50973 0.8485 0.37587 0.0
C2629 C 0.53248 0.85066 0.37084 0.0
C2630 C 0.5076 0.88266 0.42951 0.0
C2631 C 0.49474 0.83641 0.35964 0.0
C2632 C 0.43746 0.85386 0.4034 0.0
C2633 C 0.4295 0.87225 0.3915 0.0
C2634 C 0.46065 0.84993 0.40546 0.0
C2635 C 0.47625 0.86453 0.39519 0.0
C2636 C 0.46816 0.88344 0.38388 0.0
C2637 C 0.4452 0.88706 0.38235 0.0
C2638 C 0.46838 0.8298 0.41805 0.0
C2639 C 0.48375 0.8996 0.37253 0.0
H2640 H 0.54947 0.88352 0.41355 0.0
H2641 H 0.53855 0.84388 0.35535 0.0
H2642 H 0.50057 0.89891 0.42461 0.0
H2643 H 0.49423 0.87286 0.43764 0.0
H2644 H 0.52119 0.88576 0.44171 0.0
H2645 H 0.50423 0.82547 0.34835 0.0
H2646 H 0.48219 0.82621 0.3685 0.0
H2647 H 0.4857 0.84873 0.34939 0.0
H2648 H 0.42565 0.84228 0.41058 0.0
H2649 H 0.43952 0.90152 0.37332 0.0
H2650 H 0.48317 0.83388 0.42841 0.0
H2651 H 0.47324 0.8167 0.40611 0.0
H2652 H 0.45512 0.82292 0.42888 0.0
H2653 H 0.49598 0.9064 0.38464 0.0
H2654 H 0.47487 0.91372 0.36476 0.0
H2655 H 0.49317 0.89088 0.35941 0.0
C2656 C 0.64209 0.06849 0.8978 0.0
C2657 C 0.62224 0.07563 0.88786 0.0
C2658 C 0.64671 0.04551 0.90014 0.0
C2659 C 0.63116 0.02931 0.89233 0.0
C2660 C 0.61154 0.0366 0.88162 0.0
C2661 C 0.60739 0.05943 0.87957 0.0
C2662 C 0.66786 0.03858 0.91157 0.0
C2663 C 0.59444 0.02024 0.87278 0.0
C2664 C 0.63895 0.96789 0.87938 0.0
C2665 C 0.62643 0.95797 0.89634 0.0
C2666 C 0.64298 0.99107 0.87907 0.0
C2667 C 0.63422 0.00473 0.89609 0.0
C2668 C 0.62391 0.99434 0.91455 0.0
C2669 C 0.62003 0.97121 0.91436 0.0
C2670 C 0.65431 1.00115 0.85917 0.0
C2671 C 0.61447 0.00791 0.93326 0.0
H2672 H 0.65369 0.08078 0.90429 0.0
H2673 H 0.5921 0.06459 0.87162 0.0
H2674 H 0.66387 0.03138 0.92803 0.0
H2675 H 0.67629 0.02553 0.90182 0.0
H2676 H 0.67951 0.0528 0.91405 0.0
H2677 H 0.58046 0.02856 0.86415 0.0
H2678 H 0.60227 0.00858 0.86097 0.0
H2679 H 0.58758 0.01023 0.88664 0.0
H2680 H 0.64348 0.95795 0.8651 0.0
H2681 H 0.60994 0.96379 0.92729 0.0
H2682 H 0.66526 0.01523 0.86416 0.0
H2683 H 0.64156 0.00768 0.84758 0.0
H2684 H 0.66431 0.98868 0.85012 0.0
H2685 H 0.62611 0.02146 0.93818 0.0
H2686 H 0.61079 0.99753 0.94805 0.0
H2687 H 0.59878 0.01569 0.92762 0.0
C2688 C 0.46044 0.15319 0.36933 0.0
C2689 C 0.44695 0.14041 0.38344 0.0
C2690 C 0.48314 0.15685 0.37397 0.0
C2691 C 0.49287 0.14749 0.39328 0.0
C2692 C 0.47874 0.13679 0.40887 0.0
C2693 C 0.456 0.13322 0.4037 0.0
C2694 C 0.49719 0.16846 0.35677 0.0
C2695 C 0.48804 0.12713 0.43 0.0
C2696 C 0.55043 0.12492 0.38143 0.0
C2697 C 0.56465 0.14226 0.38827 0.0
C2698 C 0.52733 0.12592 0.38425 0.0
C2699 C 0.51778 0.14479 0.39439 0.0
C2700 C 0.53219 0.16168 0.40295 0.0
C2701 C 0.55549 0.16032 0.39963 0.0
C2702 C 0.51303 0.10741 0.37475 0.0
C2703 C 0.52298 0.18182 0.4144 0.0
H2704 H 0.45371 0.15848 0.35347 0.0
H2705 H 0.44592 0.12292 0.41452 0.0
H2706 H 0.50882 0.18047 0.36475 0.0
H2707 H 0.50729 0.156 0.34786 0.0
H2708 H 0.48692 0.17745 0.34438 0.0
H2709 H 0.47483 0.12425 0.4425 0.0
H2710 H 0.49589 0.11096 0.4263 0.0
H2711 H 0.50098 0.13825 0.43726 0.0
H2712 H 0.55737 0.11094 0.37256 0.0
H2713 H 0.56625 0.17397 0.40468 0.0
H2714 H 0.50289 0.11387 0.36078 0.0
H2715 H 0.50141 0.10101 0.3875 0.0
H2716 H 0.52303 0.09332 0.36854 0.0
H2717 H 0.51696 0.19374 0.40174 0.0
H2718 H 0.53583 0.19036 0.42471 0.0
H2719 H 0.5087 0.17722 0.42507 0.0
C2720 C 0.11122 0.36438 0.95715 0.0
C2721 C 0.12039 0.38422 0.94885 0.0
C2722 C 0.10847 0.36117 0.98038 0.0
C2723 C 0.11524 0.37807 0.99563 0.0
C2724 C 0.12313 0.39856 0.98703 0.0
C2725 C 0.12546 0.40134 0.964 0.0
C2726 C 0.09946 0.33925 0.98858 0.0
C2727 C 0.13059 0.41723 1.00222 0.0
C2728 C 0.10472 0.38518 0.05782 0.0
C2729 C 0.12567 0.38007 0.06669 0.0
C2730 C 0.09997 0.38215 0.03492 0.0
C2731 C 0.11666 0.37416 0.02043 0.0
C2732 C 0.13691 0.36676 0.02987 0.0
C2733 C 0.14112 0.3698 0.05273 0.0
C2734 C 0.07787 0.38962 0.02592 0.0
C2735 C 0.15529 0.35805 0.01544 0.0
H2736 H 0.10739 0.35095 0.94571 0.0
H2737 H 0.1324 0.41682 0.95782 0.0
H2738 H 0.11344 0.32864 0.99396 0.0
H2739 H 0.08846 0.34165 1.00309 0.0
H2740 H 0.09006 0.33028 0.97535 0.0
H2741 H 0.13529 0.43249 0.99293 0.0
H2742 H 0.11721 0.42146 0.01401 0.0
H2743 H 0.14516 0.41187 0.01215 0.0
H2744 H 0.0928 0.39355 0.06825 0.0
H2745 H 0.15748 0.36614 0.05931 0.0
H2746 H 0.07188 0.37833 0.01254 0.0
H2747 H 0.07972 0.40648 0.0187 0.0
H2748 H 0.06515 0.39033 0.03918 0.0
H2749 H 0.14868 0.34582 1.00325 0.0
H2750 H 0.16859 0.35006 0.02539 0.0
H2751 H 0.16278 0.37202 0.00597 0.0
C2752 C 0.12505 0.61475 0.96712 0.0
C2753 C 0.11976 0.63007 0.95035 0.0
C2754 C 0.12318 0.62002 0.98975 0.0
C2755 C 0.11571 0.64129 0.99625 0.0
C2756 C 0.11093 0.65719 0.97948 0.0
C2757 C 0.11305 0.65143 0.95671 0.0
C2758 C 0.12876 0.60243 0.00674 0.0
C2759 C 0.10296 0.68005 0.98555 0.0
C2760 C 0.09197 0.63542 0.05421 0.0
C2761 C 0.11087 0.6393 0.06745 0.0
C2762 C 0.09238 0.63874 0.03102 0.0
C2763 C 0.1123 0.64588 0.02064 0.0
C2764 C 0.13051 0.65247 0.03429 0.0
C2765 C 0.12958 0.64906 0.05749 0.0
C2766 C 0.07237 0.6318 0.01744 0.0
C2767 C 0.15202 0.66044 0.02424 0.0
H2768 H 0.13048 0.59826 0.96256 0.0
H2769 H 0.10884 0.66339 0.94396 0.0
H2770 H 0.14158 0.60881 0.01848 0.0
H2771 H 0.11378 0.59819 0.01656 0.0
H2772 H 0.13502 0.58696 0.99901 0.0
H2773 H 0.10286 0.69142 0.97104 0.0
H2774 H 0.08583 0.67881 0.99214 0.0
H2775 H 0.11357 0.6874 0.99882 0.0
H2776 H 0.07762 0.62739 0.06162 0.0
H2777 H 0.14448 0.65159 0.06742 0.0
H2778 H 0.07526 0.61511 0.0102 0.0
H2779 H 0.06958 0.6435 0.00351 0.0
H2780 H 0.05712 0.63091 0.02769 0.0
H2781 H 0.16142 0.64593 0.01811 0.0
H2782 H 0.16255 0.66941 0.03661 0.0
H2783 H 0.1489 0.67155 0.0099 0.0
C2784 C 0.86128 0.61471 0.4445 0.0
C2785 C 0.88192 0.62375 0.43829 0.0
C2786 C 0.85573 0.61188 0.46723 0.0
C2787 C 0.87116 0.61823 0.48411 0.0
C2788 C 0.8916 0.62812 0.47776 0.0
C2789 C 0.89663 0.63071 0.45518 0.0
C2790 C 0.83371 0.60141 0.47311 0.0
C2791 C 0.90866 0.6354 0.49487 0.0
C2792 C 0.86311 0.6296 0.54568 0.0
C2793 C 0.87464 0.61175 0.5551 0.0
C2794 C 0.85924 0.63077 0.52253 0.0
C2795 C 0.86715 0.61371 0.50842 0.0
C2796 C 0.87611 0.59434 0.51828 0.0
C2797 C 0.87981 0.59366 0.54141 0.0
C2798 C 0.8492 0.65155 0.51302 0.0
C2799 C 0.88455 0.57553 0.5042 0.0
H2800 H 0.84978 0.60921 0.43167 0.0
H2801 H 0.91255 0.63796 0.45073 0.0
H2802 H 0.8364 0.58413 0.47884 0.0
H2803 H 0.8258 0.61056 0.48692 0.0
H2804 H 0.82213 0.60094 0.45869 0.0
H2805 H 0.92341 0.64349 0.48726 0.0
H2806 H 0.90119 0.64724 0.50673 0.0
H2807 H 0.91432 0.62081 0.50454 0.0
H2808 H 0.85948 0.64389 0.55597 0.0
H2809 H 0.8891 0.57999 0.54843 0.0
H2810 H 0.83827 0.6476 0.49863 0.0
H2811 H 0.86268 0.66272 0.50709 0.0
H2812 H 0.83945 0.66065 0.52566 0.0
H2813 H 0.87287 0.57177 0.49036 0.0
H2814 H 0.88704 0.56019 0.51411 0.0
H2815 H 0.90071 0.58044 0.49682 0.0
C2816 C 0.89297 0.40972 0.9477 0.0
C2817 C 0.89438 0.39351 0.93091 0.0
C2818 C 0.89265 0.40414 0.97034 0.0
C2819 C 0.89401 0.38162 0.97691 0.0
C2820 C 0.89625 0.36509 0.96017 0.0
C2821 C 0.89626 0.37118 0.93738 0.0
C2822 C 0.88989 0.42247 0.98725 0.0
C2823 C 0.89815 0.34091 0.96633 0.0
C2824 C 0.90317 0.37691 0.03998 0.0
C2825 C 0.88117 0.37561 0.04746 0.0
C2826 C 0.90796 0.37689 0.01691 0.0
C2827 C 0.89037 0.37577 1.00101 0.0
C2828 C 0.86839 0.37271 0.0087 0.0
C2829 C 0.86416 0.37256 0.03162 0.0
C2830 C 0.93171 0.3796 0.00959 0.0
C2831 C 0.84894 0.37163 0.99276 0.0
H2832 H 0.89161 0.42707 0.94317 0.0
H2833 H 0.89754 0.35849 0.9247 0.0
H2834 H 0.87389 0.42019 0.99606 0.0
H2835 H 0.90333 0.42179 0.99988 0.0
H2836 H 0.89009 0.43924 0.97958 0.0
H2837 H 0.90315 0.33054 0.95197 0.0
H2838 H 0.91044 0.33882 0.97996 0.0
H2839 H 0.88193 0.33468 0.97247 0.0
H2840 H 0.91645 0.37932 0.05198 0.0
H2841 H 0.84709 0.37128 0.03715 0.0
H2842 H 0.93472 0.39706 0.00447 0.0
H2843 H 0.93512 0.36883 0.99505 0.0
H2844 H 0.94357 0.37554 0.02315 0.0
H2845 H 0.84662 0.38817 0.985 0.0
H2846 H 0.83325 0.36679 1.00115 0.0
H2847 H 0.85212 0.3596 0.97923 0.0
C2848 C 0.15291 0.39919 0.55991 0.0
C2849 C 0.1333 0.38903 0.56754 0.0
C2850 C 0.15656 0.40245 0.53681 0.0
C2851 C 0.1403 0.39529 0.52102 0.0
C2852 C 0.12 0.38631 0.52894 0.0
C2853 C 0.11682 0.38337 0.55185 0.0
C2854 C 0.17828 0.41247 0.52933 0.0
C2855 C 0.10197 0.37848 0.51313 0.0
C2856 C 0.13383 0.40778 0.45909 0.0
C2857 C 0.13956 0.38725 0.44973 0.0
C2858 C 0.1364 0.41182 0.48216 0.0
C2859 C 0.14469 0.39488 0.4963 0.0
C2860 C 0.15291 0.37524 0.4864 0.0
C2861 C 0.15023 0.37169 0.46338 0.0
C2862 C 0.12796 0.4333 0.49165 0.0
C2863 C 0.16206 0.35666 0.50043 0.0
H2864 H 0.16586 0.40347 0.57178 0.0
H2865 H 0.10152 0.37565 0.55751 0.0
H2866 H 0.1893 0.39907 0.52344 0.0
H2867 H 0.17566 0.42408 0.51528 0.0
H2868 H 0.18689 0.42148 0.54304 0.0
H2869 H 0.08673 0.37294 0.52192 0.0
H2870 H 0.09746 0.39199 0.50149 0.0
H2871 H 0.10812 0.3644 0.50305 0.0
H2872 H 0.12513 0.41975 0.4489 0.0
H2873 H 0.15438 0.35564 0.45643 0.0
H2874 H 0.13875 0.43919 0.50548 0.0
H2875 H 0.11104 0.43056 0.49837 0.0
H2876 H 0.12705 0.44647 0.47878 0.0
H2877 H 0.17364 0.36327 0.51326 0.0
H2878 H 0.1709 0.34417 0.49027 0.0
H2879 H 0.14818 0.34815 0.50913 0.0
C2880 C 0.87389 0.64412 0.9475 0.0
C2881 C 0.89227 0.63325 0.93847 0.0
C2882 C 0.87221 0.64784 0.97062 0.0
C2883 C 0.88926 0.6404 0.98512 0.0
C2884 C 0.90895 0.63184 0.9757 0.0
C2885 C 0.91014 0.62827 0.95259 0.0
C2886 C 0.85102 0.65734 0.97965 0.0
C2887 C 0.92774 0.62386 0.99022 0.0
C2888 C 0.88788 0.64738 0.04885 0.0
C2889 C 0.87951 0.62657 0.05546 0.0
C2890 C 0.89053 0.65263 0.02602 0.0
C2891 C 0.88464 0.63673 0.00946 0.0
C2892 C 0.87526 0.61615 0.0162 0.0
C2893 C 0.87287 0.61141 0.03889 0.0
C2894 C 0.90045 0.67479 0.0197 0.0
C2895 C 0.86845 0.59862 0.99944 0.0
H2896 H 0.85974 0.64751 0.93686 0.0
H2897 H 0.92417 0.61939 0.94586 0.0
H2898 H 0.84022 0.64358 0.98564 0.0
H2899 H 0.85449 0.66853 0.99392 0.0
H2900 H 0.84175 0.66666 0.96672 0.0
H2901 H 0.94322 0.62148 0.9806 0.0
H2902 H 0.93115 0.63577 0.0039 0.0
H2903 H 0.92299 0.60771 0.99781 0.0
H2904 H 0.89318 0.65919 0.06145 0.0
H2905 H 0.86616 0.59535 0.0437 0.0
H2906 H 0.89095 0.68233 0.00583 0.0
H2907 H 0.9177 0.67241 0.01386 0.0
H2908 H 0.90085 0.68656 0.03392 0.0
H2909 H 0.85661 0.60563 0.9872 0.0
H2910 H 0.86055 0.58389 0.00732 0.0
H2911 H 0.88324 0.59302 0.99015 0.0
C2912 C 0.88521 0.38438 0.44607 0.0
C2913 C 0.86912 0.39136 0.43067 0.0
C2914 C 0.88234 0.38678 0.46907 0.0
C2915 C 0.86272 0.39646 0.47739 0.0
C2916 C 0.84682 0.40471 0.46195 0.0
C2917 C 0.85019 0.40208 0.43874 0.0
C2918 C 0.90001 0.37786 0.48451 0.0
C2919 C 0.82577 0.41536 0.46991 0.0
C2920 C 0.85304 0.3724 0.53482 0.0
C2921 C 0.865 0.38737 0.54834 0.0
C2922 C 0.84973 0.37644 0.51198 0.0
C2923 C 0.8587 0.39595 0.50216 0.0
C2924 C 0.86829 0.41239 0.5163 0.0
C2925 C 0.8714 0.40788 0.53918 0.0
C2926 C 0.83911 0.35845 0.49793 0.0
C2927 C 0.87766 0.43367 0.5069 0.0
H2928 H 0.90002 0.37626 0.44007 0.0
H2929 H 0.83755 0.40739 0.42707 0.0
H2930 H 0.90554 0.39095 0.49634 0.0
H2931 H 0.89308 0.3639 0.49438 0.0
H2932 H 0.91477 0.3718 0.47543 0.0
H2933 H 0.81749 0.42492 0.4565 0.0
H2934 H 0.81409 0.40225 0.47567 0.0
H2935 H 0.82919 0.4266 0.48416 0.0
H2936 H 0.8484 0.35633 0.5416 0.0
H2937 H 0.88108 0.41938 0.54926 0.0
H2938 H 0.85224 0.34934 0.48894 0.0
H2939 H 0.82779 0.36569 0.48535 0.0
H2940 H 0.82961 0.34634 0.50816 0.0
H2941 H 0.8942 0.43042 0.49964 0.0
H2942 H 0.87969 0.44662 0.51994 0.0
H2943 H 0.86682 0.44016 0.49348 0.0
C2944 C 0.104 0.63116 0.55079 0.0
C2945 C 0.11931 0.6252 0.56739 0.0
C2946 C 0.10836 0.62803 0.52813 0.0
C2947 C 0.12873 0.61865 0.52142 0.0
C2948 C 0.14477 0.61335 0.53799 0.0
C2949 C 0.13989 0.61668 0.5608 0.0
C2950 C 0.09067 0.63416 0.51137 0.0
C2951 C 0.16676 0.6035 0.53169 0.0
C2952 C 0.11891 0.59157 0.46528 0.0
C2953 C 0.12353 0.60921 0.45075 0.0
C2954 C 0.12312 0.59335 0.48827 0.0
C2955 C 0.13201 0.6134 0.49715 0.0
C2956 C 0.13919 0.63019 0.4822 0.0
C2957 C 0.1348 0.62793 0.4592 0.0
C2958 C 0.11537 0.57481 0.50326 0.0
C2959 C 0.1491 0.65171 0.49066 0.0
H2960 H 0.08813 0.63801 0.55552 0.0
H2961 H 0.15185 0.61198 0.5734 0.0
H2962 H 0.09757 0.64587 0.49893 0.0
H2963 H 0.08493 0.61907 0.50233 0.0
H2964 H 0.07604 0.64198 0.51922 0.0
H2965 H 0.17873 0.60371 0.54579 0.0
H2966 H 0.16418 0.58603 0.52632 0.0
H2967 H 0.17415 0.61265 0.51751 0.0
H2968 H 0.1098 0.57723 0.45899 0.0
H2969 H 0.13798 0.64188 0.44825 0.0
H2970 H 0.0994 0.5795 0.511 0.0
H2971 H 0.12753 0.57194 0.51683 0.0
H2972 H 0.11275 0.55903 0.49398 0.0
H2973 H 0.1356 0.66257 0.49662 0.0
H2974 H 0.15828 0.66069 0.47741 0.0
H2975 H 0.16053 0.64871 0.50484 0.0
C2976 C 0.30105 0.12275 0.36437 0.0
C2977 C 0.31524 0.12344 0.38301 0.0
C2978 C 0.27781 0.12364 0.36641 0.0
C2979 C 0.26807 0.12464 0.38773 0.0
C2980 C 0.28227 0.12523 0.40672 0.0
C2981 C 0.30567 0.12494 0.40413 0.0
C2982 C 0.26367 0.12377 0.34561 0.0
C2983 C 0.2727 0.12589 0.42978 0.0
C2984 C 0.20985 0.14909 0.39205 0.0
C2985 C 0.19598 0.13016 0.39212 0.0
C2986 C 0.2331 0.14748 0.3906 0.0
C2987 C 0.24315 0.12632 0.38984 0.0
C2988 C 0.22925 0.10705 0.38996 0.0
C2989 C 0.20583 0.10919 0.39079 0.0
C2990 C 0.2469 0.16854 0.38972 0.0
C2991 C 0.23917 0.08416 0.38959 0.0
H2992 H 0.30823 0.12169 0.34794 0.0
H2993 H 0.31642 0.12519 0.41863 0.0
H2994 H 0.25209 0.10934 0.3456 0.0
H2995 H 0.25344 0.139 0.34518 0.0
H2996 H 0.27378 0.12316 0.33026 0.0
H2997 H 0.28576 0.12517 0.44285 0.0
H2998 H 0.26309 0.14133 0.43206 0.0
H2999 H 0.26101 0.11171 0.43208 0.0
H3000 H 0.20242 0.16539 0.39304 0.0
H3001 H 0.19532 0.09449 0.39121 0.0
H3002 H 0.25697 0.16879 0.37435 0.0
H3003 H 0.25862 0.16916 0.40398 0.0
H3004 H 0.23655 0.18371 0.39008 0.0
H3005 H 0.24872 0.08179 0.37409 0.0
H3006 H 0.22632 0.07085 0.39069 0.0
H3007 H 0.25099 0.08233 0.40367 0.0
C3008 C 0.35746 0.69801 0.8883 0.0
C3009 C 0.37691 0.68532 0.88777 0.0
C3010 C 0.35804 0.72126 0.88559 0.0
C3011 C 0.37862 0.73231 0.88229 0.0
C3012 C 0.39813 0.71938 0.88015 0.0
C3013 C 0.39708 0.69609 0.8831 0.0
C3014 C 0.3368 0.73411 0.88807 0.0
C3015 C 0.42041 0.73031 0.87627 0.0
C3016 C 0.38193 0.79309 0.8637 0.0
C3017 C 0.38786 0.80408 0.88348 0.0
C3018 C 0.37799 0.76995 0.86315 0.0
C3019 C 0.38004 0.75732 0.88289 0.0
C3020 C 0.38459 0.7686 0.90318 0.0
C3021 C 0.38869 0.79174 0.90318 0.0
C3022 C 0.37329 0.75884 0.84113 0.0
C3023 C 0.38655 0.756 0.92474 0.0
H3024 H 0.34191 0.68988 0.89257 0.0
H3025 H 0.41225 0.68655 0.88341 0.0
H3026 H 0.33722 0.74335 0.90402 0.0
H3027 H 0.33512 0.74651 0.87457 0.0
H3028 H 0.32191 0.72306 0.88791 0.0
H3029 H 0.4335 0.71801 0.87252 0.0
H3030 H 0.41935 0.74228 0.86231 0.0
H3031 H 0.42549 0.7398 0.89129 0.0
H3032 H 0.3821 0.80237 0.84827 0.0
H3033 H 0.39407 0.79993 0.91836 0.0
H3034 H 0.35896 0.74722 0.84248 0.0
H3035 H 0.38789 0.74893 0.83617 0.0
H3036 H 0.36975 0.77108 0.8278 0.0
H3037 H 0.37184 0.74504 0.92709 0.0
H3038 H 0.38812 0.76728 0.93929 0.0
H3039 H 0.40138 0.74523 0.92425 0.0
C3040 C 0.68845 0.88519 0.40353 0.0
C3041 C 0.67818 0.88568 0.38256 0.0
C3042 C 0.71195 0.88527 0.40564 0.0
C3043 C 0.72554 0.88518 0.38637 0.0
C3044 C 0.71509 0.88516 0.36524 0.0
C3045 C 0.69177 0.88573 0.36364 0.0
C3046 C 0.72226 0.88577 0.42851 0.0
C3047 C 0.72856 0.88424 0.34418 0.0
C3048 C 0.7877 0.90152 0.38732 0.0
C3049 C 0.79791 0.88077 0.38935 0.0
C3050 C 0.76422 0.90333 0.38698 0.0
C3051 C 0.75057 0.88391 0.38804 0.0
C3052 C 0.76097 0.86295 0.38952 0.0
C3053 C 0.7843 0.8617 0.3905 0.0
C3054 C 0.75398 0.92606 0.38585 0.0
C3055 C 0.74745 0.84169 0.38985 0.0
H3056 H 0.67817 0.88543 0.41823 0.0
H3057 H 0.68406 0.886 0.34733 0.0
H3058 H 0.73213 0.87055 0.43124 0.0
H3059 H 0.73385 0.90015 0.42997 0.0
H3060 H 0.70962 0.88693 0.4418 0.0
H3061 H 0.71795 0.88398 0.32903 0.0
H3062 H 0.73992 0.89882 0.34329 0.0
H3063 H 0.739 0.86916 0.34421 0.0
H3064 H 0.79802 0.91636 0.38678 0.0
H3065 H 0.79199 0.84556 0.39204 0.0
H3066 H 0.74254 0.92834 0.40003 0.0
H3067 H 0.74398 0.92763 0.37042 0.0
H3068 H 0.76669 0.93956 0.3862 0.0
H3069 H 0.7362 0.84158 0.40437 0.0
H3070 H 0.75802 0.82669 0.39065 0.0
H3071 H 0.73687 0.8406 0.37473 0.0
C3072 C 0.61665 0.2197 0.90978 0.0
C3073 C 0.61892 0.20811 0.88974 0.0
C3074 C 0.62177 0.2426 0.9113 0.0
C3075 C 0.62887 0.25444 0.89218 0.0
C3076 C 0.63204 0.24256 0.87212 0.0
C3077 C 0.62702 0.21962 0.87116 0.0
C3078 C 0.61848 0.25436 0.93316 0.0
C3079 C 0.63948 0.25431 0.85129 0.0
C3080 C 0.61845 0.31737 0.89369 0.0
C3081 C 0.63911 0.32556 0.90097 0.0
C3082 C 0.6151 0.29436 0.88973 0.0
C3083 C 0.63277 0.2792 0.89326 0.0
C3084 C 0.65395 0.2877 0.89927 0.0
C3085 C 0.65681 0.31062 0.90301 0.0
C3086 C 0.59232 0.28613 0.88299 0.0
C3087 C 0.67332 0.27244 0.9032 0.0
H3088 H 0.60958 0.21114 0.92394 0.0
H3089 H 0.62793 0.21098 0.85539 0.0
H3090 H 0.63376 0.2637 0.93789 0.0
H3091 H 0.60491 0.2666 0.93148 0.0
H3092 H 0.61421 0.24266 0.94677 0.0
H3093 H 0.64286 0.24252 0.83755 0.0
H3094 H 0.62638 0.26594 0.84578 0.0
H3095 H 0.65469 0.26433 0.85459 0.0
H3096 H 0.60459 0.32866 0.89251 0.0
H3097 H 0.6728 0.31679 0.90883 0.0
H3098 H 0.5849 0.27649 0.89683 0.0
H3099 H 0.59346 0.2748 0.86851 0.0
H3100 H 0.58101 0.29997 0.87871 0.0
H3101 H 0.67007 0.26206 0.91807 0.0
H3102 H 0.68914 0.28174 0.90586 0.0
H3103 H 0.67537 0.26101 0.88892 0.0
C3104 C 0.30235 0.89668 0.60383 0.0
C3105 C 0.31494 0.89435 0.62331 0.0
C3106 C 0.27924 0.89252 0.60361 0.0
C3107 C 0.26824 0.88639 0.62352 0.0
C3108 C 0.28111 0.88294 0.64298 0.0
C3109 C 0.30424 0.88694 0.64263 0.0
C3110 C 0.2664 0.896 0.58233 0.0
C3111 C 0.27027 0.87653 0.6646 0.0
C3112 C 0.20657 0.90188 0.62446 0.0
C3113 C 0.19639 0.88185 0.61799 0.0
C3114 C 0.22986 0.90332 0.62762 0.0
C3115 C 0.24329 0.88436 0.62397 0.0
C3116 C 0.2328 0.86381 0.6189 0.0
C3117 C 0.20961 0.86285 0.616 0.0
C3118 C 0.24022 0.92549 0.63342 0.0
C3119 C 0.24619 0.84316 0.61481 0.0
H3120 H 0.31034 0.90321 0.58909 0.0
H3121 H 0.31371 0.88599 0.65796 0.0
H3122 H 0.25573 0.8813 0.57869 0.0
H3123 H 0.25532 0.91049 0.58417 0.0
H3124 H 0.27749 0.899 0.56794 0.0
H3125 H 0.28267 0.87225 0.67761 0.0
H3126 H 0.26019 0.89059 0.67069 0.0
H3127 H 0.25885 0.86216 0.66216 0.0
H3128 H 0.19661 0.91674 0.62545 0.0
H3129 H 0.20189 0.8474 0.61058 0.0
H3130 H 0.24949 0.93198 0.6189 0.0
H3131 H 0.25229 0.92365 0.64727 0.0
H3132 H 0.22759 0.93791 0.63823 0.0
H3133 H 0.25554 0.84505 0.59909 0.0
H3134 H 0.23553 0.82804 0.61352 0.0
H3135 H 0.25851 0.8407 0.62832 0.0
C3136 C 0.6186 0.68928 0.13647 0.0
C3137 C 0.62108 0.67745 0.11656 0.0
C3138 C 0.6186 0.71286 0.13668 0.0
C3139 C 0.6206 0.72498 0.11649 0.0
C3140 C 0.62232 0.71296 0.09634 0.0
C3141 C 0.62283 0.68955 0.09668 0.0
C3142 C 0.61703 0.72484 0.15861 0.0
C3143 C 0.62376 0.72484 0.07432 0.0
C3144 C 0.59971 0.78495 0.11547 0.0
C3145 C 0.61942 0.79762 0.11643 0.0
C3146 C 0.5999 0.76153 0.11502 0.0
C3147 C 0.62034 0.75012 0.11624 0.0
C3148 C 0.6404 0.76283 0.11686 0.0
C3149 C 0.63972 0.78639 0.1167 0.0
C3150 C 0.5781 0.749 0.1136 0.0
C3151 C 0.66258 0.75153 0.11848 0.0
H3152 H 0.61758 0.68016 0.15194 0.0
H3153 H 0.62473 0.68061 0.08117 0.0
H3154 H 0.6318 0.73577 0.16097 0.0
H3155 H 0.60222 0.73563 0.15869 0.0
H3156 H 0.61593 0.71319 0.17287 0.0
H3157 H 0.6241 0.71313 0.06006 0.0
H3158 H 0.60936 0.73602 0.07222 0.0
H3159 H 0.63898 0.73535 0.07386 0.0
H3160 H 0.58392 0.79346 0.11541 0.0
H3161 H 0.65501 0.79597 0.11796 0.0
H3162 H 0.57564 0.73901 0.12887 0.0
H3163 H 0.5783 0.73725 0.09938 0.0
H3164 H 0.56373 0.76025 0.11156 0.0
H3165 H 0.66323 0.74132 0.1338 0.0
H3166 H 0.67666 0.7636 0.1188 0.0
H3167 H 0.66476 0.74011 0.10421 0.0
C3168 C 0.81039 0.14779 0.62154 0.0
C3169 C 0.82216 0.12776 0.62153 0.0
C3170 C 0.78721 0.14819 0.62458 0.0
C3171 C 0.77532 0.12802 0.62773 0.0
C3172 C 0.78737 0.10789 0.62933 0.0
C3173 C 0.81058 0.10797 0.62596 0.0
C3174 C 0.77527 0.17002 0.62259 0.0
C3175 C 0.77556 0.08601 0.63309 0.0
C3176 C 0.71514 0.12636 0.64776 0.0
C3177 C 0.70343 0.12096 0.62823 0.0
C3178 C 0.73834 0.12974 0.64775 0.0
C3179 C 0.75029 0.12767 0.62767 0.0
C3180 C 0.7383 0.12378 0.60762 0.0
C3181 C 0.71509 0.12023 0.60818 0.0
C3182 C 0.75022 0.13375 0.66954 0.0
C3183 C 0.75017 0.12184 0.58573 0.0
H3184 H 0.81912 0.16305 0.61735 0.0
H3185 H 0.81939 0.09238 0.62518 0.0
H3186 H 0.76578 0.17034 0.60675 0.0
H3187 H 0.76318 0.17197 0.63626 0.0
H3188 H 0.78695 0.18442 0.62284 0.0
H3189 H 0.78734 0.0723 0.63636 0.0
H3190 H 0.76403 0.08731 0.64732 0.0
H3191 H 0.76548 0.08168 0.6182 0.0
H3192 H 0.70635 0.12615 0.66343 0.0
H3193 H 0.70631 0.11528 0.59318 0.0
H3194 H 0.76233 0.14766 0.66804 0.0
H3195 H 0.75969 0.1187 0.67415 0.0
H3196 H 0.73851 0.13756 0.68317 0.0
H3197 H 0.76168 0.13615 0.5834 0.0
H3198 H 0.73843 0.12112 0.57144 0.0
H3199 H 0.76029 0.10654 0.58565 0.0
C3200 C 0.41287 0.20852 0.11203 0.0
C3201 C 0.39303 0.19603 0.11211 0.0
C3202 C 0.41286 0.23188 0.11043 0.0
C3203 C 0.39245 0.24338 0.10965 0.0
C3204 C 0.37231 0.23082 0.10936 0.0
C3205 C 0.37284 0.20731 0.11032 0.0
C3206 C 0.43476 0.24427 0.11001 0.0
C3207 C 0.35015 0.24226 0.10895 0.0
C3208 C 0.39215 0.3047 0.12804 0.0
C3209 C 0.39026 0.31579 0.10767 0.0
C3210 C 0.3929 0.2812 0.12897 0.0
C3211 C 0.39226 0.26846 0.10905 0.0
C3212 C 0.39139 0.27978 0.08845 0.0
C3213 C 0.39003 0.30313 0.08806 0.0
C3214 C 0.39344 0.26994 0.15133 0.0
C3215 C 0.39141 0.2672 0.06675 0.0
H3216 H 0.42854 0.19993 0.11361 0.0
H3217 H 0.35745 0.19785 0.11091 0.0
H3218 H 0.43536 0.25557 0.09548 0.0
H3219 H 0.43651 0.2547 0.12512 0.0
H3220 H 0.44914 0.23289 0.10922 0.0
H3221 H 0.33601 0.23027 0.10874 0.0
H3222 H 0.34865 0.2531 0.12377 0.0
H3223 H 0.34888 0.25308 0.09412 0.0
H3224 H 0.39179 0.3143 0.14327 0.0
H3225 H 0.38835 0.31158 0.07225 0.0
H3226 H 0.40807 0.25897 0.15256 0.0
H3227 H 0.37843 0.25929 0.15323 0.0
H3228 H 0.3941 0.28206 0.16525 0.0
H3229 H 0.40573 0.25576 0.06622 0.0
H3230 H 0.39227 0.27846 0.05217 0.0
H3231 H 0.3761 0.2569 0.06531 0.0
C3232 C 0.11736 0.37723 0.21006 0.0
C3233 C 0.12005 0.39738 0.19868 0.0
C3234 C 0.11676 0.37664 0.2336 0.0
C3235 C 0.1184 0.39669 0.24609 0.0
C3236 C 0.12013 0.41709 0.23448 0.0
C3237 C 0.12127 0.41713 0.21112 0.0
C3238 C 0.11522 0.35446 0.24514 0.0
C3239 C 0.1212 0.43895 0.24676 0.0
C3240 C 0.0977 0.3961 0.30617 0.0
C3241 C 0.1175 0.39551 0.31863 0.0
C3242 C 0.09779 0.39696 0.28278 0.0
C3243 C 0.11819 0.39649 0.2712 0.0
C3244 C 0.13832 0.3962 0.28371 0.0
C3245 C 0.13774 0.39598 0.30725 0.0
C3246 C 0.07593 0.39803 0.27045 0.0
C3247 C 0.16046 0.39535 0.2722 0.0
H3248 H 0.11689 0.36187 0.20066 0.0
H3249 H 0.12348 0.43278 0.20247 0.0
H3250 H 0.13013 0.35208 0.25576 0.0
H3251 H 0.10056 0.354 0.2562 0.0
H3252 H 0.11392 0.34041 0.23323 0.0
H3253 H 0.12115 0.45342 0.23532 0.0
H3254 H 0.10686 0.44034 0.25816 0.0
H3255 H 0.1365 0.4398 0.25707 0.0
H3256 H 0.08197 0.39558 0.31483 0.0
H3257 H 0.15308 0.39501 0.31668 0.0
H3258 H 0.07355 0.38284 0.26023 0.0
H3259 H 0.07595 0.41242 0.25895 0.0
H3260 H 0.06159 0.39954 0.28185 0.0
H3261 H 0.16117 0.38029 0.26159 0.0
H3262 H 0.17459 0.39505 0.28414 0.0
H3263 H 0.1625 0.40994 0.26116 0.0
C3264 C 0.11771 0.64944 0.71173 0.0
C3265 C 0.11304 0.6299 0.69976 0.0
C3266 C 0.12168 0.64905 0.73483 0.0
C3267 C 0.12078 0.6286 0.74643 0.0
C3268 C 0.11742 0.60865 0.73416 0.0
C3269 C 0.11343 0.60957 0.71104 0.0
C3270 C 0.12526 0.67072 0.74701 0.0
C3271 C 0.11657 0.58641 0.74567 0.0
C3272 C 0.14323 0.62166 0.8055 0.0
C3273 C 0.12369 0.62084 0.81812 0.0
C3274 C 0.14268 0.6253 0.7824 0.0
C3275 C 0.12203 0.62805 0.77142 0.0
C3276 C 0.10235 0.6287 0.78433 0.0
C3277 C 0.1034 0.62494 0.80747 0.0
C3278 C 0.1641 0.62453 0.76955 0.0
C3279 C 0.07997 0.63184 0.77347 0.0
H3280 H 0.11667 0.66529 0.70325 0.0
H3281 H 0.10904 0.59451 0.70207 0.0
H3282 H 0.11045 0.67435 0.75721 0.0
H3283 H 0.13968 0.66959 0.75849 0.0
H3284 H 0.12808 0.68483 0.73546 0.0
H3285 H 0.11574 0.57237 0.73369 0.0
H3286 H 0.1314 0.58434 0.75646 0.0
H3287 H 0.10174 0.58555 0.75649 0.0
H3288 H 0.1589 0.61783 0.81353 0.0
H3289 H 0.0882 0.62358 0.81695 0.0
H3290 H 0.16521 0.63867 0.75781 0.0
H3291 H 0.16451 0.60902 0.75959 0.0
H3292 H 0.17889 0.62495 0.78065 0.0
H3293 H 0.08036 0.64646 0.76228 0.0
H3294 H 0.06658 0.63413 0.78585 0.0
H3295 H 0.0758 0.61707 0.76315 0.0
C3296 C 0.86169 0.61885 0.20007 0.0
C3297 C 0.88136 0.6177 0.18772 0.0
C3298 C 0.86209 0.62222 0.22324 0.0
C3299 C 0.8827 0.62446 0.23452 0.0
C3300 C 0.90256 0.62485 0.22188 0.0
C3301 C 0.90166 0.62124 0.1987 0.0
C3302 C 0.84049 0.62162 0.23581 0.0
C3303 C 0.92492 0.62755 0.23303 0.0
C3304 C 0.88717 0.6453 0.29445 0.0
C3305 C 0.89128 0.62563 0.30623 0.0
C3306 C 0.88333 0.64513 0.27133 0.0
C3307 C 0.88369 0.62477 0.25953 0.0
C3308 C 0.88643 0.6047 0.27161 0.0
C3309 C 0.8904 0.6054 0.29474 0.0
C3310 C 0.88055 0.66694 0.25936 0.0
C3311 C 0.88662 0.58254 0.25988 0.0
H3312 H 0.84599 0.61535 0.1918 0.0
H3313 H 0.91694 0.61959 0.18943 0.0
H3314 H 0.8394 0.60599 0.24551 0.0
H3315 H 0.83975 0.6356 0.24779 0.0
H3316 H 0.82585 0.62244 0.22455 0.0
H3317 H 0.93852 0.62982 0.22083 0.0
H3318 H 0.92488 0.64204 0.24444 0.0
H3319 H 0.92848 0.6126 0.24316 0.0
H3320 H 0.88859 0.66106 0.30311 0.0
H3321 H 0.89434 0.59024 0.30357 0.0
H3322 H 0.86621 0.66608 0.24774 0.0
H3323 H 0.89557 0.67048 0.24934 0.0
H3324 H 0.87807 0.68098 0.27104 0.0
H3325 H 0.87187 0.58081 0.24886 0.0
H3326 H 0.88676 0.56841 0.27172 0.0
H3327 H 0.90156 0.58151 0.24926 0.0
C3328 C 0.90919 0.41221 0.78289 0.0
C3329 C 0.89362 0.40351 0.79791 0.0
C3330 C 0.90786 0.40765 0.75997 0.0
C3331 C 0.89033 0.39415 0.75152 0.0
C3332 C 0.87515 0.38438 0.76675 0.0
C3333 C 0.87694 0.38922 0.78972 0.0
C3334 C 0.92464 0.41826 0.74465 0.0
C3335 C 0.85631 0.36976 0.75864 0.0
C3336 C 0.87569 0.40259 0.68972 0.0
C3337 C 0.88758 0.38546 0.67956 0.0
C3338 C 0.87588 0.40527 0.71313 0.0
C3339 C 0.88811 0.39042 0.7268 0.0
C3340 C 0.89956 0.37277 0.71658 0.0
C3341 C 0.8992 0.37057 0.69331 0.0
C3342 C 0.86343 0.42435 0.72323 0.0
C3343 C 0.91274 0.35644 0.73022 0.0
H3344 H 0.92178 0.42373 0.78899 0.0
H3345 H 0.86438 0.38306 0.80104 0.0
H3346 H 0.9326 0.4054 0.73425 0.0
H3347 H 0.91616 0.42994 0.73326 0.0
H3348 H 0.93783 0.42751 0.75387 0.0
H3349 H 0.84707 0.36194 0.77255 0.0
H3350 H 0.84456 0.37981 0.74868 0.0
H3351 H 0.86266 0.35649 0.74765 0.0
H3352 H 0.86663 0.41416 0.67939 0.0
H3353 H 0.90835 0.3571 0.68584 0.0
H3354 H 0.87532 0.43596 0.73145 0.0
H3355 H 0.85193 0.41813 0.73619 0.0
H3356 H 0.85373 0.43371 0.71066 0.0
H3357 H 0.92678 0.36519 0.73858 0.0
H3358 H 0.91954 0.34277 0.71997 0.0
H3359 H 0.90219 0.3491 0.7434 0.0
C3360 C 0.70553 0.86697 0.63794 0.0
C3361 C 0.69713 0.88795 0.63247 0.0
C3362 C 0.72873 0.86358 0.64017 0.0
C3363 C 0.74391 0.88145 0.63649 0.0
C3364 C 0.73537 0.9026 0.63107 0.0
C3365 C 0.71233 0.90556 0.62929 0.0
C3366 C 0.73703 0.84083 0.64627 0.0
C3367 C 0.75064 0.9221 0.62643 0.0
C3368 C 0.80593 0.88286 0.65248 0.0
C3369 C 0.81595 0.87789 0.6321 0.0
C3370 C 0.78247 0.88282 0.65463 0.0
C3371 C 0.76867 0.87797 0.63594 0.0
C3372 C 0.77882 0.87227 0.61561 0.0
C3373 C 0.80208 0.87219 0.61402 0.0
C3374 C 0.77243 0.88867 0.67672 0.0
C3375 C 0.7651 0.86735 0.59506 0.0
H3376 H 0.69403 0.8533 0.64065 0.0
H3377 H 0.7062 0.92188 0.62499 0.0
H3378 H 0.74636 0.83373 0.63216 0.0
H3379 H 0.74869 0.84204 0.66057 0.0
H3380 H 0.72327 0.82923 0.65059 0.0
H3381 H 0.74141 0.93767 0.62327 0.0
H3382 H 0.7621 0.92491 0.64067 0.0
H3383 H 0.76097 0.91848 0.6117 0.0
H3384 H 0.81636 0.88714 0.6666 0.0
H3385 H 0.8094 0.86816 0.59814 0.0
H3386 H 0.75921 0.87649 0.68109 0.0
H3387 H 0.76459 0.90523 0.67564 0.0
H3388 H 0.78504 0.8891 0.69025 0.0
H3389 H 0.75242 0.85437 0.59859 0.0
H3390 H 0.7754 0.8617 0.58094 0.0
H3391 H 0.75614 0.88254 0.5899 0.0
C3392 C 0.62984 0.18559 0.1373 0.0
C3393 C 0.62799 0.17627 0.15856 0.0
C3394 C 0.63038 0.20901 0.13436 0.0
C3395 C 0.62872 0.22346 0.15304 0.0
C3396 C 0.62755 0.21402 0.17448 0.0
C3397 C 0.62754 0.19083 0.17693 0.0
C3398 C 0.63232 0.21834 0.11123 0.0
C3399 C 0.62567 0.22842 0.19494 0.0
C3400 C 0.64944 0.28357 0.14902 0.0
C3401 C 0.63002 0.29536 0.1439 0.0
C3402 C 0.64921 0.2604 0.15207 0.0
C3403 C 0.62892 0.24841 0.15049 0.0
C3404 C 0.60895 0.2604 0.147 0.0
C3405 C 0.60975 0.28368 0.14348 0.0
C3406 C 0.67096 0.2486 0.15558 0.0
C3407 C 0.58684 0.24848 0.14593 0.0
H3408 H 0.63007 0.17469 0.12298 0.0
H3409 H 0.62641 0.18403 0.19355 0.0
H3410 H 0.61719 0.22787 0.10706 0.0
H3411 H 0.64664 0.23005 0.11037 0.0
H3412 H 0.63449 0.20513 0.09856 0.0
H3413 H 0.62428 0.21848 0.21042 0.0
H3414 H 0.64039 0.23954 0.19645 0.0
H3415 H 0.61085 0.23915 0.19351 0.0
H3416 H 0.66525 0.29237 0.14885 0.0
H3417 H 0.59477 0.29241 0.13886 0.0
H3418 H 0.67399 0.23724 0.14141 0.0
H3419 H 0.67032 0.23829 0.1708 0.0
H3420 H 0.68524 0.26036 0.15704 0.0
H3421 H 0.58627 0.23747 0.13115 0.0
H3422 H 0.57273 0.26019 0.14493 0.0
H3423 H 0.58466 0.23779 0.16078 0.0
C3424 C 0.21848 0.12275 0.60948 0.0
C3425 C 0.2044 0.12286 0.62806 0.0
C3426 C 0.24166 0.12449 0.61157 0.0
C3427 C 0.25151 0.12653 0.63287 0.0
C3428 C 0.23749 0.12721 0.65179 0.0
C3429 C 0.2141 0.1253 0.6492 0.0
C3430 C 0.25566 0.12335 0.59086 0.0
C3431 C 0.24723 0.12955 0.67479 0.0
C3432 C 0.30983 0.10279 0.63481 0.0
C3433 C 0.32352 0.12159 0.63156 0.0
C3434 C 0.28664 0.10439 0.63644 0.0
C3435 C 0.27643 0.12541 0.63499 0.0
C3436 C 0.29014 0.14466 0.63269 0.0
C3437 C 0.3135 0.14254 0.63092 0.0
C3438 C 0.27299 0.08331 0.63856 0.0
C3439 C 0.28003 0.16743 0.63133 0.0
H3440 H 0.21139 0.12097 0.59298 0.0
H3441 H 0.20349 0.12563 0.66365 0.0
H3442 H 0.26715 0.13783 0.59009 0.0
H3443 H 0.26595 0.10817 0.59129 0.0
H3444 H 0.24545 0.123 0.57544 0.0
H3445 H 0.23426 0.13217 0.68754 0.0
H3446 H 0.25656 0.11435 0.67911 0.0
H3447 H 0.25918 0.14369 0.67537 0.0
H3448 H 0.31719 0.08645 0.63554 0.0
H3449 H 0.32382 0.15719 0.62859 0.0
H3450 H 0.26305 0.08068 0.62319 0.0
H3451 H 0.26118 0.08468 0.65254 0.0
H3452 H 0.28345 0.06846 0.64128 0.0
H3453 H 0.27118 0.16924 0.61523 0.0
H3454 H 0.29278 0.18084 0.63267 0.0
H3455 H 0.26763 0.16964 0.64468 0.0
C3456 C 0.40323 0.80179 0.13447 0.0
C3457 C 0.38508 0.81636 0.1347 0.0
C3458 C 0.40046 0.77877 0.13157 0.0
C3459 C 0.37893 0.76967 0.12848 0.0
C3460 C 0.36052 0.78434 0.12762 0.0
C3461 C 0.36378 0.80752 0.13085 0.0
C3462 C 0.42065 0.76409 0.13256 0.0
C3463 C 0.33731 0.77544 0.12393 0.0
C3464 C 0.37514 0.71233 0.10136 0.0
C3465 C 0.37062 0.69816 0.11936 0.0
C3466 C 0.37778 0.73541 0.10411 0.0
C3467 C 0.37605 0.74491 0.12552 0.0
C3468 C 0.37247 0.73061 0.144 0.0
C3469 C 0.36963 0.70741 0.14069 0.0
C3470 C 0.38161 0.74972 0.08387 0.0
C3471 C 0.37094 0.73991 0.16718 0.0
H3472 H 0.41978 0.80842 0.13748 0.0
H3473 H 0.34964 0.8185 0.13139 0.0
H3474 H 0.41894 0.75205 0.14639 0.0
H3475 H 0.42204 0.75435 0.117 0.0
H3476 H 0.43629 0.77375 0.13503 0.0
H3477 H 0.32489 0.78891 0.12271 0.0
H3478 H 0.3366 0.7654 0.10847 0.0
H3479 H 0.33264 0.76429 0.13783 0.0
H3480 H 0.37548 0.70536 0.08474 0.0
H3481 H 0.36549 0.69675 0.15459 0.0
H3482 H 0.39719 0.75951 0.08583 0.0
H3483 H 0.36786 0.76173 0.08206 0.0
H3484 H 0.38267 0.73977 0.06838 0.0
H3485 H 0.38606 0.74984 0.17117 0.0
H3486 H 0.36898 0.72667 0.17987 0.0
H3487 H 0.35657 0.75125 0.16824 0.0
C3488 C 0.70236 0.13745 0.38342 0.0
C3489 C 0.69518 0.12939 0.36268 0.0
C3490 C 0.72534 0.13865 0.38885 0.0
C3491 C 0.74151 0.13158 0.37325 0.0
C3492 C 0.73429 0.12338 0.35246 0.0
C3493 C 0.71155 0.12251 0.34746 0.0
C3494 C 0.73237 0.14768 0.41119 0.0
C3495 C 0.75066 0.11574 0.33517 0.0
C3496 C 0.80049 0.15543 0.37457 0.0
C3497 C 0.81271 0.13841 0.38467 0.0
C3498 C 0.77746 0.15348 0.37103 0.0
C3499 C 0.76605 0.13394 0.37772 0.0
C3500 C 0.77843 0.11626 0.38714 0.0
C3501 C 0.80159 0.11875 0.39064 0.0
C3502 C 0.76522 0.1727 0.36072 0.0
C3503 C 0.76707 0.095 0.39419 0.0
H3504 H 0.69013 0.14279 0.39536 0.0
H3505 H 0.7067 0.11636 0.33121 0.0
H3506 H 0.7428 0.13538 0.41999 0.0
H3507 H 0.74265 0.1629 0.40892 0.0
H3508 H 0.71795 0.15179 0.42179 0.0
H3509 H 0.74234 0.10876 0.32017 0.0
H3510 H 0.76135 0.1299 0.32998 0.0
H3511 H 0.7617 0.10289 0.34226 0.0
H3512 H 0.8089 0.17091 0.37049 0.0
H3513 H 0.81074 0.10587 0.39918 0.0
H3514 H 0.75228 0.17866 0.37227 0.0
H3515 H 0.75665 0.16722 0.34528 0.0
H3516 H 0.77646 0.18684 0.35664 0.0
H3517 H 0.75464 0.09861 0.4072 0.0
H3518 H 0.77899 0.08264 0.40079 0.0
H3519 H 0.75798 0.08751 0.37991 0.0
C3520 C 0.37861 0.29408 0.85707 0.0
C3521 C 0.38658 0.3032 0.87708 0.0
C3522 C 0.37597 0.27075 0.85447 0.0
C3523 C 0.38171 0.2562 0.87216 0.0
C3524 C 0.38978 0.26546 0.89229 0.0
C3525 C 0.392 0.28861 0.89449 0.0
C3526 C 0.3671 0.26166 0.83281 0.0
C3527 C 0.39658 0.25088 0.91152 0.0
C3528 C 0.36493 0.19467 0.87812 0.0
C3529 C 0.38464 0.18407 0.87202 0.0
C3530 C 0.36308 0.21812 0.87688 0.0
C3531 C 0.38133 0.23128 0.86942 0.0
C3532 C 0.40071 0.22044 0.86213 0.0
C3533 C 0.40207 0.19719 0.86347 0.0
C3534 C 0.34198 0.22888 0.88459 0.0
C3535 C 0.4207 0.23347 0.85421 0.0
H3536 H 0.37413 0.30513 0.84361 0.0
H3537 H 0.39824 0.29532 0.91005 0.0
H3538 H 0.37993 0.2514 0.8247 0.0
H3539 H 0.35255 0.25066 0.83591 0.0
H3540 H 0.36209 0.27504 0.82118 0.0
H3541 H 0.40187 0.26066 0.92632 0.0
H3542 H 0.38259 0.23981 0.91634 0.0
H3543 H 0.41054 0.24012 0.90649 0.0
H3544 H 0.35133 0.18479 0.88465 0.0
H3545 H 0.41732 0.1893 0.85839 0.0
H3546 H 0.33666 0.24181 0.87262 0.0
H3547 H 0.34502 0.23723 0.90077 0.0
H3548 H 0.32827 0.21659 0.88665 0.0
H3549 H 0.41575 0.24584 0.84153 0.0
H3550 H 0.43361 0.2226 0.84702 0.0
H3551 H 0.42818 0.24276 0.86837 0.0
C3552 C 0.19115 0.83714 0.38489 0.0
C3553 C 0.17753 0.85603 0.38557 0.0
C3554 C 0.21433 0.8388 0.38281 0.0
C3555 C 0.22454 0.85992 0.38067 0.0
C3556 C 0.21085 0.87908 0.37986 0.0
C3557 C 0.18751 0.87695 0.3825 0.0
C3558 C 0.22797 0.8179 0.38391 0.0
C3559 C 0.22095 0.90189 0.37694 0.0
C3560 C 0.28632 0.8679 0.39586 0.0
C3561 C 0.29636 0.86717 0.37493 0.0
C3562 C 0.26306 0.86497 0.3981 0.0
C3563 C 0.24946 0.86171 0.37893 0.0
C3564 C 0.25978 0.85976 0.35798 0.0
C3565 C 0.28296 0.86223 0.35632 0.0
C3566 C 0.25291 0.86642 0.42087 0.0
C3567 C 0.24623 0.85648 0.33703 0.0
H3568 H 0.18369 0.82084 0.38716 0.0
H3569 H 0.17732 0.89166 0.38329 0.0
H3570 H 0.23831 0.81633 0.36884 0.0
H3571 H 0.23945 0.81877 0.39838 0.0
H3572 H 0.2175 0.80269 0.38547 0.0
H3573 H 0.20814 0.91492 0.37516 0.0
H3574 H 0.23161 0.906 0.39148 0.0
H3575 H 0.23172 0.9022 0.36205 0.0
H3576 H 0.29635 0.8723 0.41023 0.0
H3577 H 0.29052 0.86204 0.34002 0.0
H3578 H 0.24187 0.85187 0.42384 0.0
H3579 H 0.24254 0.88151 0.42195 0.0
H3580 H 0.26571 0.86716 0.43422 0.0
H3581 H 0.23539 0.84156 0.33849 0.0
H3582 H 0.2568 0.85459 0.3221 0.0
H3583 H 0.23524 0.87096 0.33451 0.0
C3584 C 0.63502 0.71688 0.86174 0.0
C3585 C 0.63154 0.70748 0.88276 0.0
C3586 C 0.63538 0.74028 0.85886 0.0
C3587 C 0.63176 0.75455 0.87732 0.0
C3588 C 0.62807 0.74497 0.89844 0.0
C3589 C 0.62817 0.72179 0.90088 0.0
C3590 C 0.63966 0.74975 0.83611 0.0
C3591 C 0.6235 0.75922 0.91855 0.0
C3592 C 0.64444 0.81725 0.88027 0.0
C3593 C 0.62325 0.8262 0.87689 0.0
C3594 C 0.64786 0.794 0.87911 0.0
C3595 C 0.62969 0.77933 0.87464 0.0
C3596 C 0.60854 0.78846 0.87038 0.0
C3597 C 0.60566 0.81155 0.87145 0.0
C3598 C 0.67076 0.78504 0.88348 0.0
C3599 C 0.58853 0.77375 0.86588 0.0
H3600 H 0.6379 0.70603 0.84771 0.0
H3601 H 0.62536 0.71479 0.91721 0.0
H3602 H 0.62487 0.75893 0.83024 0.0
H3603 H 0.6537 0.76181 0.83687 0.0
H3604 H 0.64357 0.73665 0.82376 0.0
H3605 H 0.62152 0.74925 0.93393 0.0
H3606 H 0.63724 0.77136 0.92116 0.0
H3607 H 0.6081 0.76884 0.91582 0.0
H3608 H 0.65819 0.82831 0.88432 0.0
H3609 H 0.5892 0.81809 0.86856 0.0
H3610 H 0.67512 0.77259 0.87066 0.0
H3611 H 0.67104 0.77649 0.89978 0.0
H3612 H 0.68361 0.79841 0.88367 0.0
H3613 H 0.59211 0.76174 0.85243 0.0
H3614 H 0.57364 0.78342 0.8611 0.0
H3615 H 0.58455 0.76399 0.88099 0.0
C3616 C 0.89056 0.60913 0.79124 0.0
C3617 C 0.88559 0.62679 0.80563 0.0
C3618 C 0.88864 0.61112 0.76809 0.0
C3619 C 0.88135 0.63131 0.75865 0.0
C3620 C 0.8762 0.64931 0.773 0.0
C3621 C 0.87851 0.6469 0.79634 0.0
C3622 C 0.89481 0.59156 0.75371 0.0
C3623 C 0.86822 0.67106 0.76368 0.0
C3624 C 0.9023 0.63883 0.69968 0.0
C3625 C 0.88459 0.63059 0.68661 0.0
C3626 C 0.90089 0.64044 0.72289 0.0
C3627 C 0.88118 0.63373 0.73375 0.0
C3628 C 0.86272 0.62652 0.72065 0.0
C3629 C 0.86462 0.62502 0.69723 0.0
C3630 C 0.92113 0.64806 0.73587 0.0
C3631 C 0.8413 0.61941 0.73147 0.0
H3632 H 0.89613 0.5935 0.79812 0.0
H3633 H 0.87434 0.66054 0.80726 0.0
H3634 H 0.8807 0.58689 0.74269 0.0
H3635 H 0.90899 0.59618 0.74292 0.0
H3636 H 0.89952 0.57678 0.76364 0.0
H3637 H 0.86386 0.68308 0.77692 0.0
H3638 H 0.88129 0.67862 0.75311 0.0
H3639 H 0.85344 0.66816 0.75294 0.0
H3640 H 0.91777 0.64355 0.69178 0.0
H3641 H 0.85078 0.61879 0.68738 0.0
H3642 H 0.92799 0.63385 0.74532 0.0
H3643 H 0.91661 0.66103 0.74808 0.0
H3644 H 0.93437 0.65481 0.72496 0.0
H3645 H 0.84372 0.60333 0.7401 0.0
H3646 H 0.8276 0.61735 0.71918 0.0
H3647 H 0.8363 0.63173 0.74416 0.0
C3648 C 0.85899 0.3814 0.28799 0.0
C3649 C 0.88015 0.38168 0.29782 0.0
C3650 C 0.85636 0.38438 0.26478 0.0
C3651 C 0.87532 0.38731 0.25104 0.0
C3652 C 0.89657 0.38846 0.26114 0.0
C3653 C 0.89866 0.38577 0.28424 0.0
C3654 C 0.83334 0.38354 0.25482 0.0
C3655 C 0.9173 0.39151 0.24744 0.0
C3656 C 0.87089 0.37382 0.18854 0.0
C3657 C 0.86818 0.39502 0.17936 0.0
C3658 C 0.87346 0.371 0.2118 0.0
C3659 C 0.87312 0.38978 0.22621 0.0
C3660 C 0.87125 0.4112 0.2168 0.0
C3661 C 0.86893 0.41351 0.19369 0.0
C3662 C 0.87583 0.34788 0.22106 0.0
C3663 C 0.87087 0.43174 0.23122 0.0
H3664 H 0.84469 0.37763 0.2982 0.0
H3665 H 0.91511 0.3856 0.29166 0.0
H3666 H 0.83042 0.39856 0.24458 0.0
H3667 H 0.83174 0.36893 0.24367 0.0
H3668 H 0.82026 0.38242 0.2677 0.0
H3669 H 0.93257 0.39244 0.25785 0.0
H3670 H 0.91889 0.37745 0.23565 0.0
H3671 H 0.91621 0.40692 0.23743 0.0
H3672 H 0.86986 0.35942 0.17774 0.0
H3673 H 0.86671 0.42997 0.18678 0.0
H3674 H 0.86145 0.34391 0.23183 0.0
H3675 H 0.89099 0.34692 0.23155 0.0
H3676 H 0.87678 0.33512 0.20778 0.0
H3677 H 0.8566 0.43079 0.24276 0.0
H3678 H 0.86952 0.44723 0.22133 0.0
H3679 H 0.88618 0.43278 0.24151 0.0
C3680 C 0.12624 0.38 0.80824 0.0
C3681 C 0.14767 0.38211 0.81731 0.0
C3682 C 0.12304 0.37649 0.78511 0.0
C3683 C 0.14165 0.37534 0.77067 0.0
C3684 C 0.16322 0.3767 0.77998 0.0
C3685 C 0.16591 0.37976 0.80297 0.0
C3686 C 0.09973 0.37454 0.77601 0.0
C3687 C 0.18362 0.37561 0.76555 0.0
C3688 C 0.13704 0.3461 0.71454 0.0
C3689 C 0.13404 0.3637 0.69944 0.0
C3690 C 0.13917 0.34969 0.73751 0.0
C3691 C 0.13889 0.37158 0.74602 0.0
C3692 C 0.13711 0.38962 0.73084 0.0
C3693 C 0.13454 0.38548 0.70774 0.0
C3694 C 0.141 0.32986 0.75275 0.0
C3695 C 0.13733 0.41327 0.73909 0.0
H3696 H 0.11203 0.38213 0.81897 0.0
H3697 H 0.1826 0.38129 0.80971 0.0
H3698 H 0.09653 0.38841 0.76435 0.0
H3699 H 0.09776 0.35885 0.76649 0.0
H3700 H 0.08705 0.37489 0.78933 0.0
H3701 H 0.19926 0.37741 0.77528 0.0
H3702 H 0.18398 0.35954 0.75653 0.0
H3703 H 0.18312 0.38896 0.75287 0.0
H3704 H 0.13671 0.32916 0.70839 0.0
H3705 H 0.13187 0.39918 0.69641 0.0
H3706 H 0.12719 0.32992 0.76487 0.0
H3707 H 0.15673 0.33079 0.76239 0.0
H3708 H 0.14051 0.31385 0.74357 0.0
H3709 H 0.12288 0.41599 0.75006 0.0
H3710 H 0.13672 0.42547 0.72528 0.0
H3711 H 0.15253 0.41649 0.74914 0.0
C3712 C 0.09805 0.61746 0.30351 0.0
C3713 C 0.11583 0.62053 0.31849 0.0
C3714 C 0.10053 0.62059 0.28056 0.0
C3715 C 0.12138 0.62715 0.27191 0.0
C3716 C 0.13946 0.63061 0.28688 0.0
C3717 C 0.13652 0.62715 0.30999 0.0
C3718 C 0.08081 0.61625 0.26547 0.0
C3719 C 0.16193 0.63776 0.27844 0.0
C3720 C 0.12894 0.60757 0.2124 0.0
C3721 C 0.12256 0.62612 0.19974 0.0
C3722 C 0.12988 0.60818 0.23569 0.0
C3723 C 0.12439 0.62791 0.24709 0.0
C3724 C 0.11903 0.64714 0.23448 0.0
C3725 C 0.11816 0.64604 0.21094 0.0
C3726 C 0.13552 0.58716 0.24812 0.0
C3727 C 0.1133 0.66861 0.24589 0.0
H3728 H 0.08194 0.61234 0.30973 0.0
H3729 H 0.15031 0.62983 0.32135 0.0
H3730 H 0.07765 0.63096 0.25488 0.0
H3731 H 0.08439 0.6021 0.25426 0.0
H3732 H 0.06545 0.61229 0.27485 0.0
H3733 H 0.17376 0.64156 0.29217 0.0
H3734 H 0.169 0.6244 0.26802 0.0
H3735 H 0.16029 0.65268 0.26778 0.0
H3736 H 0.13274 0.5921 0.20409 0.0
H3737 H 0.11337 0.66051 0.20143 0.0
H3738 H 0.12062 0.58099 0.25703 0.0
H3739 H 0.14861 0.59051 0.26075 0.0
H3740 H 0.14135 0.5738 0.2369 0.0
H3741 H 0.09685 0.66689 0.25392 0.0
H3742 H 0.11266 0.68276 0.23407 0.0
H3743 H 0.12562 0.6725 0.25914 0.0
loop_
_geom_bond_atom_site_label_1
_geom_bond_atom_site_label_2
_geom_bond_distance
_geom_bond_site_symmetry_2
_ccdc_geom_bond_type
Co0 O1 2.216 . S
Co0 O2 2.091 . S
Co0 O4 2.004 . S
Co0 O10 2.021 . S
Co0 O12 2.137 . S
Co0 O13 2.244 . S
O1 Co0 2.216 . S
O1 C8 1.247 . S
O2 Co0 2.091 . S
O2 C8 1.261 . S
C3 O12 1.247 . S
C3 O13 1.272 . S
O4 Co0 2.004 . S
O4 C9 1.259 . S
Co5 O6 2.061 . S
Co5 O11 2.052 . S
Co5 O13 2.135 . S
O6 Co5 2.061 . S
O6 C9 1.235 . S
C7 O10 1.238 . S
C7 O11 1.241 . S
C8 O1 1.247 . S
C8 O2 1.261 . S
C9 O4 1.259 . S
C9 O6 1.235 . S
O10 Co0 2.021 . S
O10 C7 1.238 . S
O11 Co5 2.052 . S
O11 C7 1.241 . S
O12 Co0 2.137 . S
O12 C3 1.247 . S
O13 Co0 2.244 . S
O13 C3 1.272 . S
O13 Co5 2.135 . S
Co14 O15 2.216 . S
Co14 O16 2.091 . S
Co14 O18 2.004 . S
Co14 O24 2.021 . S
Co14 O26 2.137 . S
Co14 O27 2.244 . S
O15 Co14 2.216 . S
O15 C22 1.247 . S
O16 Co14 2.091 . S
O16 C22 1.261 . S
C17 O26 1.247 . S
C17 O27 1.272 . S
O18 Co14 2.004 . S
O18 C23 1.259 . S
Co19 O20 2.061 . S
Co19 O25 2.052 . S
Co19 O27 2.135 . S
O20 Co19 2.061 . S
O20 C23 1.235 . S
C21 O24 1.238 . S
C21 O25 1.241 . S
C22 O15 1.247 . S
C22 O16 1.261 . S
C23 O18 1.259 . S
C23 O20 1.235 . S
O24 Co14 2.021 . S
O24 C21 1.238 . S
O25 Co19 2.052 . S
O25 C21 1.241 . S
O26 Co14 2.137 . S
O26 C17 1.247 . S
O27 Co14 2.244 . S
O27 C17 1.272 . S
O27 Co19 2.135 . S
Co28 O29 2.216 . S
Co28 O30 2.091 . S
Co28 O32 2.004 . S
Co28 O38 2.021 . S
Co28 O40 2.137 . S
Co28 O41 2.244 . S
O29 Co28 2.216 . S
O29 C36 1.247 . S
O30 Co28 2.091 . S
O30 C36 1.261 . S
C31 O40 1.247 . S
C31 O41 1.272 . S
O32 Co28 2.004 . S
O32 C37 1.259 . S
Co33 O34 2.061 . S
Co33 O39 2.052 . S
Co33 O41 2.135 . S
O34 Co33 2.061 . S
O34 C37 1.235 . S
C35 O38 1.238 . S
C35 O39 1.241 . S
C36 O29 1.247 . S
C36 O30 1.261 . S
C37 O32 1.259 . S
C37 O34 1.235 . S
O38 Co28 2.021 . S
O38 C35 1.238 . S
O39 Co33 2.052 . S
O39 C35 1.241 . S
O40 Co28 2.137 . S
O40 C31 1.247 . S
O41 Co28 2.244 . S
O41 C31 1.272 . S
O41 Co33 2.135 . S
Co42 O43 2.216 . S
Co42 O44 2.091 . S
Co42 O46 2.004 . S
Co42 O52 2.021 . S
Co42 O54 2.137 . S
Co42 O55 2.244 . S
O43 Co42 2.216 . S
O43 C50 1.247 . S
O44 Co42 2.091 . S
O44 C50 1.261 . S
C45 O54 1.247 . S
C45 O55 1.272 . S
O46 Co42 2.004 . S
O46 C51 1.259 . S
Co47 O48 2.061 . S
Co47 O53 2.052 . S
Co47 O55 2.135 . S
O48 Co47 2.061 . S
O48 C51 1.235 . S
C49 O52 1.238 . S
C49 O53 1.241 . S
C50 O43 1.247 . S
C50 O44 1.261 . S
C51 O46 1.259 . S
C51 O48 1.235 . S
O52 Co42 2.021 . S
O52 C49 1.238 . S
O53 Co47 2.052 . S
O53 C49 1.241 . S
O54 Co42 2.137 . S
O54 C45 1.247 . S
O55 Co42 2.244 . S
O55 C45 1.272 . S
O55 Co47 2.135 . S
Co56 O57 2.216 . S
Co56 O58 2.091 . S
Co56 O60 2.004 . S
Co56 O66 2.021 . S
Co56 O68 2.137 . S
Co56 O69 2.244 . S
O57 Co56 2.216 . S
O57 C64 1.247 . S
O58 Co56 2.091 . S
O58 C64 1.261 . S
C59 O68 1.247 . S
C59 O69 1.272 . S
O60 Co56 2.004 . S
O60 C65 1.259 . S
Co61 O62 2.061 . S
Co61 O67 2.052 . S
Co61 O69 2.135 . S
O62 Co61 2.061 . S
O62 C65 1.235 . S
C63 O66 1.238 . S
C63 O67 1.241 . S
C64 O57 1.247 . S
C64 O58 1.261 . S
C65 O60 1.259 . S
C65 O62 1.235 . S
O66 Co56 2.021 . S
O66 C63 1.238 . S
O67 Co61 2.052 . S
O67 C63 1.241 . S
O68 Co56 2.137 . S
O68 C59 1.247 . S
O69 Co56 2.244 . S
O69 C59 1.272 . S
O69 Co61 2.135 . S
Co70 O71 2.216 . S
Co70 O72 2.091 . S
Co70 O74 2.004 . S
Co70 O80 2.021 . S
Co70 O82 2.137 . S
Co70 O83 2.244 . S
O71 Co70 2.216 . S
O71 C78 1.247 . S
O72 Co70 2.091 . S
O72 C78 1.261 . S
C73 O82 1.247 . S
C73 O83 1.272 . S
O74 Co70 2.004 . S
O74 C79 1.259 . S
Co75 O76 2.061 . S
Co75 O81 2.052 . S
Co75 O83 2.135 . S
O76 Co75 2.061 . S
O76 C79 1.235 . S
C77 O80 1.238 . S
C77 O81 1.241 . S
C78 O71 1.247 . S
C78 O72 1.261 . S
C79 O74 1.259 . S
C79 O76 1.235 . S
O80 Co70 2.021 . S
O80 C77 1.238 . S
O81 Co75 2.052 . S
O81 C77 1.241 . S
O82 Co70 2.137 . S
O82 C73 1.247 . S
O83 Co70 2.244 . S
O83 C73 1.272 . S
O83 Co75 2.135 . S
Co84 O85 2.216 . S
Co84 O86 2.091 . S
Co84 O88 2.004 . S
Co84 O94 2.021 . S
Co84 O96 2.137 . S
Co84 O97 2.244 . S
O85 Co84 2.216 . S
O85 C92 1.247 . S
O86 Co84 2.091 . S
O86 C92 1.261 . S
C87 O96 1.247 . S
C87 O97 1.272 . S
O88 Co84 2.004 . S
O88 C93 1.259 . S
Co89 O90 2.061 . S
Co89 O95 2.052 . S
Co89 O97 2.135 . S
O90 Co89 2.061 . S
O90 C93 1.235 . S
C91 O94 1.238 . S
C91 O95 1.241 . S
C92 O85 1.247 . S
C92 O86 1.261 . S
C93 O88 1.259 . S
C93 O90 1.235 . S
O94 Co84 2.021 . S
O94 C91 1.238 . S
O95 Co89 2.052 . S
O95 C91 1.241 . S
O96 Co84 2.137 . S
O96 C87 1.247 . S
O97 Co84 2.244 . S
O97 C87 1.272 . S
O97 Co89 2.135 . S
Co98 O99 2.216 . S
Co98 O100 2.091 . S
Co98 O102 2.004 . S
Co98 O108 2.021 . S
Co98 O110 2.137 . S
Co98 O111 2.244 . S
O99 Co98 2.216 . S
O99 C106 1.247 . S
O100 Co98 2.091 . S
O100 C106 1.261 . S
C101 O110 1.247 . S
C101 O111 1.272 . S
O102 Co98 2.004 . S
O102 C107 1.259 . S
Co103 O104 2.061 . S
Co103 O109 2.052 . S
Co103 O111 2.135 . S
O104 Co103 2.061 . S
O104 C107 1.235 . S
C105 O108 1.238 . S
C105 O109 1.241 . S
C106 O99 1.247 . S
C106 O100 1.261 . S
C107 O102 1.259 . S
C107 O104 1.235 . S
O108 Co98 2.021 . S
O108 C105 1.238 . S
O109 Co103 2.052 . S
O109 C105 1.241 . S
O110 Co98 2.137 . S
O110 C101 1.247 . S
O111 Co98 2.244 . S
O111 C101 1.272 . S
O111 Co103 2.135 . S
Co112 O113 2.216 . S
Co112 O114 2.091 . S
Co112 O116 2.004 . S
Co112 O122 2.021 . S
Co112 O124 2.137 . S
Co112 O125 2.244 . S
O113 Co112 2.216 . S
O113 C120 1.247 . S
O114 Co112 2.091 . S
O114 C120 1.261 . S
C115 O124 1.247 . S
C115 O125 1.272 . S
O116 Co112 2.004 . S
O116 C121 1.259 . S
Co117 O118 2.061 . S
Co117 O123 2.052 . S
Co117 O125 2.135 . S
O118 Co117 2.061 . S
O118 C121 1.235 . S
C119 O122 1.238 . S
C119 O123 1.241 . S
C120 O113 1.247 . S
C120 O114 1.261 . S
C121 O116 1.259 . S
C121 O118 1.235 . S
O122 Co112 2.021 . S
O122 C119 1.238 . S
O123 Co117 2.052 . S
O123 C119 1.241 . S
O124 Co112 2.137 . S
O124 C115 1.247 . S
O125 Co112 2.244 . S
O125 C115 1.272 . S
O125 Co117 2.135 . S
Co126 O127 2.216 . S
Co126 O128 2.091 . S
Co126 O130 2.004 . S
Co126 O136 2.021 . S
Co126 O138 2.137 . S
Co126 O139 2.244 . S
O127 Co126 2.216 . S
O127 C134 1.247 . S
O128 Co126 2.091 . S
O128 C134 1.261 . S
C129 O138 1.247 . S
C129 O139 1.272 . S
O130 Co126 2.004 . S
O130 C135 1.259 . S
Co131 O132 2.061 . S
Co131 O137 2.052 . S
Co131 O139 2.135 . S
O132 Co131 2.061 . S
O132 C135 1.235 . S
C133 O136 1.238 . S
C133 O137 1.241 . S
C134 O127 1.247 . S
C134 O128 1.261 . S
C135 O130 1.259 . S
C135 O132 1.235 . S
O136 Co126 2.021 . S
O136 C133 1.238 . S
O137 Co131 2.052 . S
O137 C133 1.241 . S
O138 Co126 2.137 . S
O138 C129 1.247 . S
O139 Co126 2.244 . S
O139 C129 1.272 . S
O139 Co131 2.135 . S
Co140 O141 2.216 . S
Co140 O142 2.091 . S
Co140 O144 2.004 . S
Co140 O150 2.021 . S
Co140 O152 2.137 . S
Co140 O153 2.244 . S
O141 Co140 2.216 . S
O141 C148 1.247 . S
O142 Co140 2.091 . S
O142 C148 1.261 . S
C143 O152 1.247 . S
C143 O153 1.272 . S
O144 Co140 2.004 . S
O144 C149 1.259 . S
Co145 O146 2.061 . S
Co145 O151 2.052 . S
Co145 O153 2.135 . S
O146 Co145 2.061 . S
O146 C149 1.235 . S
C147 O150 1.238 . S
C147 O151 1.241 . S
C148 O141 1.247 . S
C148 O142 1.261 . S
C149 O144 1.259 . S
C149 O146 1.235 . S
O150 Co140 2.021 . S
O150 C147 1.238 . S
O151 Co145 2.052 . S
O151 C147 1.241 . S
O152 Co140 2.137 . S
O152 C143 1.247 . S
O153 Co140 2.244 . S
O153 C143 1.272 . S
O153 Co145 2.135 . S
Co154 O155 2.216 . S
Co154 O156 2.091 . S
Co154 O158 2.004 . S
Co154 O164 2.021 . S
Co154 O166 2.137 . S
Co154 O167 2.244 . S
O155 Co154 2.216 . S
O155 C162 1.247 . S
O156 Co154 2.091 . S
O156 C162 1.261 . S
C157 O166 1.247 . S
C157 O167 1.272 . S
O158 Co154 2.004 . S
O158 C163 1.259 . S
Co159 O160 2.061 . S
Co159 O165 2.052 . S
Co159 O167 2.135 . S
O160 Co159 2.061 . S
O160 C163 1.235 . S
C161 O164 1.238 . S
C161 O165 1.241 . S
C162 O155 1.247 . S
C162 O156 1.261 . S
C163 O158 1.259 . S
C163 O160 1.235 . S
O164 Co154 2.021 . S
O164 C161 1.238 . S
O165 Co159 2.052 . S
O165 C161 1.241 . S
O166 Co154 2.137 . S
O166 C157 1.247 . S
O167 Co154 2.244 . S
O167 C157 1.272 . S
O167 Co159 2.135 . S
Co168 O169 2.216 . S
Co168 O170 2.091 . S
Co168 O172 2.004 . S
Co168 O178 2.021 . S
Co168 O180 2.137 . S
Co168 O181 2.244 . S
O169 Co168 2.216 . S
O169 C176 1.247 . S
O170 Co168 2.091 . S
O170 C176 1.261 . S
C171 O180 1.247 . S
C171 O181 1.272 . S
O172 Co168 2.004 . S
O172 C177 1.259 . S
Co173 O174 2.061 . S
Co173 O179 2.052 . S
Co173 O181 2.135 . S
O174 Co173 2.061 . S
O174 C177 1.235 . S
C175 O178 1.238 . S
C175 O179 1.241 . S
C176 O169 1.247 . S
C176 O170 1.261 . S
C177 O172 1.259 . S
C177 O174 1.235 . S
O178 Co168 2.021 . S
O178 C175 1.238 . S
O179 Co173 2.052 . S
O179 C175 1.241 . S
O180 Co168 2.137 . S
O180 C171 1.247 . S
O181 Co168 2.244 . S
O181 C171 1.272 . S
O181 Co173 2.135 . S
Co182 O183 2.216 . S
Co182 O184 2.091 . S
Co182 O186 2.004 . S
Co182 O192 2.021 . S
Co182 O194 2.137 . S
Co182 O195 2.244 . S
O183 Co182 2.216 . S
O183 C190 1.247 . S
O184 Co182 2.091 . S
O184 C190 1.261 . S
C185 O194 1.247 . S
C185 O195 1.272 . S
O186 Co182 2.004 . S
O186 C191 1.259 . S
Co187 O188 2.061 . S
Co187 O193 2.052 . S
Co187 O195 2.135 . S
O188 Co187 2.061 . S
O188 C191 1.235 . S
C189 O192 1.238 . S
C189 O193 1.241 . S
C190 O183 1.247 . S
C190 O184 1.261 . S
C191 O186 1.259 . S
C191 O188 1.235 . S
O192 Co182 2.021 . S
O192 C189 1.238 . S
O193 Co187 2.052 . S
O193 C189 1.241 . S
O194 Co182 2.137 . S
O194 C185 1.247 . S
O195 Co182 2.244 . S
O195 C185 1.272 . S
O195 Co187 2.135 . S
Co196 O197 2.216 . S
Co196 O198 2.091 . S
Co196 O200 2.004 . S
Co196 O206 2.021 . S
Co196 O208 2.137 . S
Co196 O209 2.244 . S
O197 Co196 2.216 . S
O197 C204 1.247 . S
O198 Co196 2.091 . S
O198 C204 1.261 . S
C199 O208 1.247 . S
C199 O209 1.272 . S
O200 Co196 2.004 . S
O200 C205 1.259 . S
Co201 O202 2.061 . S
Co201 O207 2.052 . S
Co201 O209 2.135 . S
O202 Co201 2.061 . S
O202 C205 1.235 . S
C203 O206 1.238 . S
C203 O207 1.241 . S
C204 O197 1.247 . S
C204 O198 1.261 . S
C205 O200 1.259 . S
C205 O202 1.235 . S
O206 Co196 2.021 . S
O206 C203 1.238 . S
O207 Co201 2.052 . S
O207 C203 1.241 . S
O208 Co196 2.137 . S
O208 C199 1.247 . S
O209 Co196 2.244 . S
O209 C199 1.272 . S
O209 Co201 2.135 . S
Co210 O211 2.216 . S
Co210 O212 2.091 . S
Co210 O214 2.004 . S
Co210 O220 2.021 . S
Co210 O222 2.137 . S
Co210 O223 2.244 . S
O211 Co210 2.216 . S
O211 C218 1.247 . S
O212 Co210 2.091 . S
O212 C218 1.261 . S
C213 O222 1.247 . S
C213 O223 1.272 . S
O214 Co210 2.004 . S
O214 C219 1.259 . S
Co215 O216 2.061 . S
Co215 O221 2.052 . S
Co215 O223 2.135 . S
O216 Co215 2.061 . S
O216 C219 1.235 . S
C217 O220 1.238 . S
C217 O221 1.241 . S
C218 O211 1.247 . S
C218 O212 1.261 . S
C219 O214 1.259 . S
C219 O216 1.235 . S
O220 Co210 2.021 . S
O220 C217 1.238 . S
O221 Co215 2.052 . S
O221 C217 1.241 . S
O222 Co210 2.137 . S
O222 C213 1.247 . S
O223 Co210 2.244 . S
O223 C213 1.272 . S
O223 Co215 2.135 . S
Co224 O225 2.216 . S
Co224 O226 2.091 . S
Co224 O228 2.004 . S
Co224 O234 2.021 . S
Co224 O236 2.137 . S
Co224 O237 2.244 . S
O225 Co224 2.216 . S
O225 C232 1.247 . S
O226 Co224 2.091 . S
O226 C232 1.261 . S
C227 O236 1.247 . S
C227 O237 1.272 . S
O228 Co224 2.004 . S
O228 C233 1.259 . S
Co229 O230 2.061 . S
Co229 O235 2.052 . S
Co229 O237 2.135 . S
O230 Co229 2.061 . S
O230 C233 1.235 . S
C231 O234 1.238 . S
C231 O235 1.241 . S
C232 O225 1.247 . S
C232 O226 1.261 . S
C233 O228 1.259 . S
C233 O230 1.235 . S
O234 Co224 2.021 . S
O234 C231 1.238 . S
O235 Co229 2.052 . S
O235 C231 1.241 . S
O236 Co224 2.137 . S
O236 C227 1.247 . S
O237 Co224 2.244 . S
O237 C227 1.272 . S
O237 Co229 2.135 . S
Co238 O239 2.216 . S
Co238 O240 2.091 . S
Co238 O242 2.004 . S
Co238 O248 2.021 . S
Co238 O250 2.137 . S
Co238 O251 2.244 . S
O239 Co238 2.216 . S
O239 C246 1.247 . S
O240 Co238 2.091 . S
O240 C246 1.261 . S
C241 O250 1.247 . S
C241 O251 1.272 . S
O242 Co238 2.004 . S
O242 C247 1.259 . S
Co243 O244 2.061 . S
Co243 O249 2.052 . S
Co243 O251 2.135 . S
O244 Co243 2.061 . S
O244 C247 1.235 . S
C245 O248 1.238 . S
C245 O249 1.241 . S
C246 O239 1.247 . S
C246 O240 1.261 . S
C247 O242 1.259 . S
C247 O244 1.235 . S
O248 Co238 2.021 . S
O248 C245 1.238 . S
O249 Co243 2.052 . S
O249 C245 1.241 . S
O250 Co238 2.137 . S
O250 C241 1.247 . S
O251 Co238 2.244 . S
O251 C241 1.272 . S
O251 Co243 2.135 . S
Co252 O253 2.216 . S
Co252 O254 2.091 . S
Co252 O256 2.004 . S
Co252 O262 2.021 . S
Co252 O264 2.137 . S
Co252 O265 2.244 . S
O253 Co252 2.216 . S
O253 C260 1.247 . S
O254 Co252 2.091 . S
O254 C260 1.261 . S
C255 O264 1.247 . S
C255 O265 1.272 . S
O256 Co252 2.004 . S
O256 C261 1.259 . S
Co257 O258 2.061 . S
Co257 O263 2.052 . S
Co257 O265 2.135 . S
O258 Co257 2.061 . S
O258 C261 1.235 . S
C259 O262 1.238 . S
C259 O263 1.241 . S
C260 O253 1.247 . S
C260 O254 1.261 . S
C261 O256 1.259 . S
C261 O258 1.235 . S
O262 Co252 2.021 . S
O262 C259 1.238 . S
O263 Co257 2.052 . S
O263 C259 1.241 . S
O264 Co252 2.137 . S
O264 C255 1.247 . S
O265 Co252 2.244 . S
O265 C255 1.272 . S
O265 Co257 2.135 . S
Co266 O267 2.216 . S
Co266 O268 2.091 . S
Co266 O270 2.004 . S
Co266 O276 2.021 . S
Co266 O278 2.137 . S
Co266 O279 2.244 . S
O267 Co266 2.216 . S
O267 C274 1.247 . S
O268 Co266 2.091 . S
O268 C274 1.261 . S
C269 O278 1.247 . S
C269 O279 1.272 . S
O270 Co266 2.004 . S
O270 C275 1.259 . S
Co271 O272 2.061 . S
Co271 O277 2.052 . S
Co271 O279 2.135 . S
O272 Co271 2.061 . S
O272 C275 1.235 . S
C273 O276 1.238 . S
C273 O277 1.241 . S
C274 O267 1.247 . S
C274 O268 1.261 . S
C275 O270 1.259 . S
C275 O272 1.235 . S
O276 Co266 2.021 . S
O276 C273 1.238 . S
O277 Co271 2.052 . S
O277 C273 1.241 . S
O278 Co266 2.137 . S
O278 C269 1.247 . S
O279 Co266 2.244 . S
O279 C269 1.272 . S
O279 Co271 2.135 . S
Co280 O281 2.216 . S
Co280 O282 2.091 . S
Co280 O284 2.004 . S
Co280 O290 2.021 . S
Co280 O292 2.137 . S
Co280 O293 2.244 . S
O281 Co280 2.216 . S
O281 C288 1.247 . S
O282 Co280 2.091 . S
O282 C288 1.261 . S
C283 O292 1.247 . S
C283 O293 1.272 . S
O284 Co280 2.004 . S
O284 C289 1.259 . S
Co285 O286 2.061 . S
Co285 O291 2.052 . S
Co285 O293 2.135 . S
O286 Co285 2.061 . S
O286 C289 1.235 . S
C287 O290 1.238 . S
C287 O291 1.241 . S
C288 O281 1.247 . S
C288 O282 1.261 . S
C289 O284 1.259 . S
C289 O286 1.235 . S
O290 Co280 2.021 . S
O290 C287 1.238 . S
O291 Co285 2.052 . S
O291 C287 1.241 . S
O292 Co280 2.137 . S
O292 C283 1.247 . S
O293 Co280 2.244 . S
O293 C283 1.272 . S
O293 Co285 2.135 . S
Co294 O295 2.216 . S
Co294 O296 2.091 . S
Co294 O298 2.004 . S
Co294 O304 2.021 . S
Co294 O306 2.137 . S
Co294 O307 2.244 . S
O295 Co294 2.216 . S
O295 C302 1.247 . S
O296 Co294 2.091 . S
O296 C302 1.261 . S
C297 O306 1.247 . S
C297 O307 1.272 . S
O298 Co294 2.004 . S
O298 C303 1.259 . S
Co299 O300 2.061 . S
Co299 O305 2.052 . S
Co299 O307 2.135 . S
O300 Co299 2.061 . S
O300 C303 1.235 . S
C301 O304 1.238 . S
C301 O305 1.241 . S
C302 O295 1.247 . S
C302 O296 1.261 . S
C303 O298 1.259 . S
C303 O300 1.235 . S
O304 Co294 2.021 . S
O304 C301 1.238 . S
O305 Co299 2.052 . S
O305 C301 1.241 . S
O306 Co294 2.137 . S
O306 C297 1.247 . S
O307 Co294 2.244 . S
O307 C297 1.272 . S
O307 Co299 2.135 . S
Co308 O309 2.216 . S
Co308 O310 2.091 . S
Co308 O312 2.004 . S
Co308 O318 2.021 . S
Co308 O320 2.137 . S
Co308 O321 2.244 . S
O309 Co308 2.216 . S
O309 C316 1.247 . S
O310 Co308 2.091 . S
O310 C316 1.261 . S
C311 O320 1.247 . S
C311 O321 1.272 . S
O312 Co308 2.004 . S
O312 C317 1.259 . S
Co313 O314 2.061 . S
Co313 O319 2.052 . S
Co313 O321 2.135 . S
O314 Co313 2.061 . S
O314 C317 1.235 . S
C315 O318 1.238 . S
C315 O319 1.241 . S
C316 O309 1.247 . S
C316 O310 1.261 . S
C317 O312 1.259 . S
C317 O314 1.235 . S
O318 Co308 2.021 . S
O318 C315 1.238 . S
O319 Co313 2.052 . S
O319 C315 1.241 . S
O320 Co308 2.137 . S
O320 C311 1.247 . S
O321 Co308 2.244 . S
O321 C311 1.272 . S
O321 Co313 2.135 . S
Co322 O323 2.216 . S
Co322 O324 2.091 . S
Co322 O326 2.004 . S
Co322 O332 2.021 . S
Co322 O334 2.137 . S
Co322 O335 2.244 . S
O323 Co322 2.216 . S
O323 C330 1.247 . S
O324 Co322 2.091 . S
O324 C330 1.261 . S
C325 O334 1.247 . S
C325 O335 1.272 . S
O326 Co322 2.004 . S
O326 C331 1.259 . S
Co327 O328 2.061 . S
Co327 O333 2.052 . S
Co327 O335 2.135 . S
O328 Co327 2.061 . S
O328 C331 1.235 . S
C329 O332 1.238 . S
C329 O333 1.241 . S
C330 O323 1.247 . S
C330 O324 1.261 . S
C331 O326 1.259 . S
C331 O328 1.235 . S
O332 Co322 2.021 . S
O332 C329 1.238 . S
O333 Co327 2.052 . S
O333 C329 1.241 . S
O334 Co322 2.137 . S
O334 C325 1.247 . S
O335 Co322 2.244 . S
O335 C325 1.272 . S
O335 Co327 2.135 . S
Co336 O337 2.216 . S
Co336 O338 2.091 . S
Co336 O340 2.004 . S
Co336 O346 2.021 . S
Co336 O348 2.137 . S
Co336 O349 2.244 . S
O337 Co336 2.216 . S
O337 C344 1.247 . S
O338 Co336 2.091 . S
O338 C344 1.261 . S
C339 O348 1.247 . S
C339 O349 1.272 . S
O340 Co336 2.004 . S
O340 C345 1.259 . S
Co341 O342 2.061 . S
Co341 O347 2.052 . S
Co341 O349 2.135 . S
O342 Co341 2.061 . S
O342 C345 1.235 . S
C343 O346 1.238 . S
C343 O347 1.241 . S
C344 O337 1.247 . S
C344 O338 1.261 . S
C345 O340 1.259 . S
C345 O342 1.235 . S
O346 Co336 2.021 . S
O346 C343 1.238 . S
O347 Co341 2.052 . S
O347 C343 1.241 . S
O348 Co336 2.137 . S
O348 C339 1.247 . S
O349 Co336 2.244 . S
O349 C339 1.272 . S
O349 Co341 2.135 . S
Co350 O351 2.216 . S
Co350 O352 2.091 . S
Co350 O354 2.004 . S
Co350 O360 2.021 . S
Co350 O362 2.137 . S
Co350 O363 2.244 . S
O351 Co350 2.216 . S
O351 C358 1.247 . S
O352 Co350 2.091 . S
O352 C358 1.261 . S
C353 O362 1.247 . S
C353 O363 1.272 . S
O354 Co350 2.004 . S
O354 C359 1.259 . S
Co355 O356 2.061 . S
Co355 O361 2.052 . S
Co355 O363 2.135 . S
O356 Co355 2.061 . S
O356 C359 1.235 . S
C357 O360 1.238 . S
C357 O361 1.241 . S
C358 O351 1.247 . S
C358 O352 1.261 . S
C359 O354 1.259 . S
C359 O356 1.235 . S
O360 Co350 2.021 . S
O360 C357 1.238 . S
O361 Co355 2.052 . S
O361 C357 1.241 . S
O362 Co350 2.137 . S
O362 C353 1.247 . S
O363 Co350 2.244 . S
O363 C353 1.272 . S
O363 Co355 2.135 . S
Co364 O365 2.216 . S
Co364 O366 2.091 . S
Co364 O368 2.004 . S
Co364 O374 2.021 . S
Co364 O376 2.137 . S
Co364 O377 2.244 . S
O365 Co364 2.216 . S
O365 C372 1.247 . S
O366 Co364 2.091 . S
O366 C372 1.261 . S
C367 O376 1.247 . S
C367 O377 1.272 . S
O368 Co364 2.004 . S
O368 C373 1.259 . S
Co369 O370 2.061 . S
Co369 O375 2.052 . S
Co369 O377 2.135 . S
O370 Co369 2.061 . S
O370 C373 1.235 . S
C371 O374 1.238 . S
C371 O375 1.241 . S
C372 O365 1.247 . S
C372 O366 1.261 . S
C373 O368 1.259 . S
C373 O370 1.235 . S
O374 Co364 2.021 . S
O374 C371 1.238 . S
O375 Co369 2.052 . S
O375 C371 1.241 . S
O376 Co364 2.137 . S
O376 C367 1.247 . S
O377 Co364 2.244 . S
O377 C367 1.272 . S
O377 Co369 2.135 . S
Co378 O379 2.216 . S
Co378 O380 2.091 . S
Co378 O382 2.004 . S
Co378 O388 2.021 . S
Co378 O390 2.137 . S
Co378 O391 2.244 . S
O379 Co378 2.216 . S
O379 C386 1.247 . S
O380 Co378 2.091 . S
O380 C386 1.261 . S
C381 O390 1.247 . S
C381 O391 1.272 . S
O382 Co378 2.004 . S
O382 C387 1.259 . S
Co383 O384 2.061 . S
Co383 O389 2.052 . S
Co383 O391 2.135 . S
O384 Co383 2.061 . S
O384 C387 1.235 . S
C385 O388 1.238 . S
C385 O389 1.241 . S
C386 O379 1.247 . S
C386 O380 1.261 . S
C387 O382 1.259 . S
C387 O384 1.235 . S
O388 Co378 2.021 . S
O388 C385 1.238 . S
O389 Co383 2.052 . S
O389 C385 1.241 . S
O390 Co378 2.137 . S
O390 C381 1.247 . S
O391 Co378 2.244 . S
O391 C381 1.272 . S
O391 Co383 2.135 . S
Co392 O393 2.216 . S
Co392 O394 2.091 . S
Co392 O396 2.004 . S
Co392 O402 2.021 . S
Co392 O404 2.137 . S
Co392 O405 2.244 . S
O393 Co392 2.216 . S
O393 C400 1.247 . S
O394 Co392 2.091 . S
O394 C400 1.261 . S
C395 O404 1.247 . S
C395 O405 1.272 . S
O396 Co392 2.004 . S
O396 C401 1.259 . S
Co397 O398 2.061 . S
Co397 O403 2.052 . S
Co397 O405 2.135 . S
O398 Co397 2.061 . S
O398 C401 1.235 . S
C399 O402 1.238 . S
C399 O403 1.241 . S
C400 O393 1.247 . S
C400 O394 1.261 . S
C401 O396 1.259 . S
C401 O398 1.235 . S
O402 Co392 2.021 . S
O402 C399 1.238 . S
O403 Co397 2.052 . S
O403 C399 1.241 . S
O404 Co392 2.137 . S
O404 C395 1.247 . S
O405 Co392 2.244 . S
O405 C395 1.272 . S
O405 Co397 2.135 . S
Co406 O407 2.216 . S
Co406 O408 2.091 . S
Co406 O410 2.004 . S
Co406 O416 2.021 . S
Co406 O418 2.137 . S
Co406 O419 2.244 . S
O407 Co406 2.216 . S
O407 C414 1.247 . S
O408 Co406 2.091 . S
O408 C414 1.261 . S
C409 O418 1.247 . S
C409 O419 1.272 . S
O410 Co406 2.004 . S
O410 C415 1.259 . S
Co411 O412 2.061 . S
Co411 O417 2.052 . S
Co411 O419 2.135 . S
O412 Co411 2.061 . S
O412 C415 1.235 . S
C413 O416 1.238 . S
C413 O417 1.241 . S
C414 O407 1.247 . S
C414 O408 1.261 . S
C415 O410 1.259 . S
C415 O412 1.235 . S
O416 Co406 2.021 . S
O416 C413 1.238 . S
O417 Co411 2.052 . S
O417 C413 1.241 . S
O418 Co406 2.137 . S
O418 C409 1.247 . S
O419 Co406 2.244 . S
O419 C409 1.272 . S
O419 Co411 2.135 . S
Co420 O421 2.216 . S
Co420 O422 2.091 . S
Co420 O424 2.004 . S
Co420 O430 2.021 . S
Co420 O432 2.137 . S
Co420 O433 2.244 . S
O421 Co420 2.216 . S
O421 C428 1.247 . S
O422 Co420 2.091 . S
O422 C428 1.261 . S
C423 O432 1.247 . S
C423 O433 1.272 . S
O424 Co420 2.004 . S
O424 C429 1.259 . S
Co425 O426 2.061 . S
Co425 O431 2.052 . S
Co425 O433 2.135 . S
O426 Co425 2.061 . S
O426 C429 1.235 . S
C427 O430 1.238 . S
C427 O431 1.241 . S
C428 O421 1.247 . S
C428 O422 1.261 . S
C429 O424 1.259 . S
C429 O426 1.235 . S
O430 Co420 2.021 . S
O430 C427 1.238 . S
O431 Co425 2.052 . S
O431 C427 1.241 . S
O432 Co420 2.137 . S
O432 C423 1.247 . S
O433 Co420 2.244 . S
O433 C423 1.272 . S
O433 Co425 2.135 . S
Co434 O435 2.216 . S
Co434 O436 2.091 . S
Co434 O438 2.004 . S
Co434 O444 2.021 . S
Co434 O446 2.137 . S
Co434 O447 2.244 . S
O435 Co434 2.216 . S
O435 C442 1.247 . S
O436 Co434 2.091 . S
O436 C442 1.261 . S
C437 O446 1.247 . S
C437 O447 1.272 . S
O438 Co434 2.004 . S
O438 C443 1.259 . S
Co439 O440 2.061 . S
Co439 O445 2.052 . S
Co439 O447 2.135 . S
O440 Co439 2.061 . S
O440 C443 1.235 . S
C441 O444 1.238 . S
C441 O445 1.241 . S
C442 O435 1.247 . S
C442 O436 1.261 . S
C443 O438 1.259 . S
C443 O440 1.235 . S
O444 Co434 2.021 . S
O444 C441 1.238 . S
O445 Co439 2.052 . S
O445 C441 1.241 . S
O446 Co434 2.137 . S
O446 C437 1.247 . S
O447 Co434 2.244 . S
O447 C437 1.272 . S
O447 Co439 2.135 . S
Co448 O449 2.216 . S
Co448 O450 2.091 . S
Co448 O452 2.004 . S
Co448 O458 2.021 . S
Co448 O460 2.137 . S
Co448 O461 2.244 . S
O449 Co448 2.216 . S
O449 C456 1.247 . S
O450 Co448 2.091 . S
O450 C456 1.261 . S
C451 O460 1.247 . S
C451 O461 1.272 . S
O452 Co448 2.004 . S
O452 C457 1.259 . S
Co453 O454 2.061 . S
Co453 O459 2.052 . S
Co453 O461 2.135 . S
O454 Co453 2.061 . S
O454 C457 1.235 . S
C455 O458 1.238 . S
C455 O459 1.241 . S
C456 O449 1.247 . S
C456 O450 1.261 . S
C457 O452 1.259 . S
C457 O454 1.235 . S
O458 Co448 2.021 . S
O458 C455 1.238 . S
O459 Co453 2.052 . S
O459 C455 1.241 . S
O460 Co448 2.137 . S
O460 C451 1.247 . S
O461 Co448 2.244 . S
O461 C451 1.272 . S
O461 Co453 2.135 . S
Co462 O463 2.216 . S
Co462 O464 2.091 . S
Co462 O466 2.004 . S
Co462 O472 2.021 . S
Co462 O474 2.137 . S
Co462 O475 2.244 . S
O463 Co462 2.216 . S
O463 C470 1.247 . S
O464 Co462 2.091 . S
O464 C470 1.261 . S
C465 O474 1.247 . S
C465 O475 1.272 . S
O466 Co462 2.004 . S
O466 C471 1.259 . S
Co467 O468 2.061 . S
Co467 O473 2.052 . S
Co467 O475 2.135 . S
O468 Co467 2.061 . S
O468 C471 1.235 . S
C469 O472 1.238 . S
C469 O473 1.241 . S
C470 O463 1.247 . S
C470 O464 1.261 . S
C471 O466 1.259 . S
C471 O468 1.235 . S
O472 Co462 2.021 . S
O472 C469 1.238 . S
O473 Co467 2.052 . S
O473 C469 1.241 . S
O474 Co462 2.137 . S
O474 C465 1.247 . S
O475 Co462 2.244 . S
O475 C465 1.272 . S
O475 Co467 2.135 . S
Co476 O477 2.216 . S
Co476 O478 2.091 . S
Co476 O480 2.004 . S
Co476 O486 2.021 . S
Co476 O488 2.137 . S
Co476 O489 2.244 . S
O477 Co476 2.216 . S
O477 C484 1.247 . S
O478 Co476 2.091 . S
O478 C484 1.261 . S
C479 O488 1.247 . S
C479 O489 1.272 . S
O480 Co476 2.004 . S
O480 C485 1.259 . S
Co481 O482 2.061 . S
Co481 O487 2.052 . S
Co481 O489 2.135 . S
O482 Co481 2.061 . S
O482 C485 1.235 . S
C483 O486 1.238 . S
C483 O487 1.241 . S
C484 O477 1.247 . S
C484 O478 1.261 . S
C485 O480 1.259 . S
C485 O482 1.235 . S
O486 Co476 2.021 . S
O486 C483 1.238 . S
O487 Co481 2.052 . S
O487 C483 1.241 . S
O488 Co476 2.137 . S
O488 C479 1.247 . S
O489 Co476 2.244 . S
O489 C479 1.272 . S
O489 Co481 2.135 . S
Co490 O491 2.216 . S
Co490 O492 2.091 . S
Co490 O494 2.004 . S
Co490 O500 2.021 . S
Co490 O502 2.137 . S
Co490 O503 2.244 . S
O491 Co490 2.216 . S
O491 C498 1.247 . S
O492 Co490 2.091 . S
O492 C498 1.261 . S
C493 O502 1.247 . S
C493 O503 1.272 . S
O494 Co490 2.004 . S
O494 C499 1.259 . S
Co495 O496 2.061 . S
Co495 O501 2.052 . S
Co495 O503 2.135 . S
O496 Co495 2.061 . S
O496 C499 1.235 . S
C497 O500 1.238 . S
C497 O501 1.241 . S
C498 O491 1.247 . S
C498 O492 1.261 . S
C499 O494 1.259 . S
C499 O496 1.235 . S
O500 Co490 2.021 . S
O500 C497 1.238 . S
O501 Co495 2.052 . S
O501 C497 1.241 . S
O502 Co490 2.137 . S
O502 C493 1.247 . S
O503 Co490 2.244 . S
O503 C493 1.272 . S
O503 Co495 2.135 . S
Co504 O505 2.216 . S
Co504 O506 2.091 . S
Co504 O508 2.004 . S
Co504 O514 2.021 . S
Co504 O516 2.137 . S
Co504 O517 2.244 . S
O505 Co504 2.216 . S
O505 C512 1.247 . S
O506 Co504 2.091 . S
O506 C512 1.261 . S
C507 O516 1.247 . S
C507 O517 1.272 . S
O508 Co504 2.004 . S
O508 C513 1.259 . S
Co509 O510 2.061 . S
Co509 O515 2.052 . S
Co509 O517 2.135 . S
O510 Co509 2.061 . S
O510 C513 1.235 . S
C511 O514 1.238 . S
C511 O515 1.241 . S
C512 O505 1.247 . S
C512 O506 1.261 . S
C513 O508 1.259 . S
C513 O510 1.235 . S
O514 Co504 2.021 . S
O514 C511 1.238 . S
O515 Co509 2.052 . S
O515 C511 1.241 . S
O516 Co504 2.137 . S
O516 C507 1.247 . S
O517 Co504 2.244 . S
O517 C507 1.272 . S
O517 Co509 2.135 . S
Co518 O519 2.216 . S
Co518 O520 2.091 . S
Co518 O522 2.004 . S
Co518 O528 2.021 . S
Co518 O530 2.137 . S
Co518 O531 2.244 . S
O519 Co518 2.216 . S
O519 C526 1.247 . S
O520 Co518 2.091 . S
O520 C526 1.261 . S
C521 O530 1.247 . S
C521 O531 1.272 . S
O522 Co518 2.004 . S
O522 C527 1.259 . S
Co523 O524 2.061 . S
Co523 O529 2.052 . S
Co523 O531 2.135 . S
O524 Co523 2.061 . S
O524 C527 1.235 . S
C525 O528 1.238 . S
C525 O529 1.241 . S
C526 O519 1.247 . S
C526 O520 1.261 . S
C527 O522 1.259 . S
C527 O524 1.235 . S
O528 Co518 2.021 . S
O528 C525 1.238 . S
O529 Co523 2.052 . S
O529 C525 1.241 . S
O530 Co518 2.137 . S
O530 C521 1.247 . S
O531 Co518 2.244 . S
O531 C521 1.272 . S
O531 Co523 2.135 . S
Co532 O533 2.216 . S
Co532 O534 2.091 . S
Co532 O536 2.004 . S
Co532 O542 2.021 . S
Co532 O544 2.137 . S
Co532 O545 2.244 . S
O533 Co532 2.216 . S
O533 C540 1.247 . S
O534 Co532 2.091 . S
O534 C540 1.261 . S
C535 O544 1.247 . S
C535 O545 1.272 . S
O536 Co532 2.004 . S
O536 C541 1.259 . S
Co537 O538 2.061 . S
Co537 O543 2.052 . S
Co537 O545 2.135 . S
O538 Co537 2.061 . S
O538 C541 1.235 . S
C539 O542 1.238 . S
C539 O543 1.241 . S
C540 O533 1.247 . S
C540 O534 1.261 . S
C541 O536 1.259 . S
C541 O538 1.235 . S
O542 Co532 2.021 . S
O542 C539 1.238 . S
O543 Co537 2.052 . S
O543 C539 1.241 . S
O544 Co532 2.137 . S
O544 C535 1.247 . S
O545 Co532 2.244 . S
O545 C535 1.272 . S
O545 Co537 2.135 . S
Co546 O547 2.216 . S
Co546 O548 2.091 . S
Co546 O550 2.004 . S
Co546 O556 2.021 . S
Co546 O558 2.137 . S
Co546 O559 2.244 . S
O547 Co546 2.216 . S
O547 C554 1.247 . S
O548 Co546 2.091 . S
O548 C554 1.261 . S
C549 O558 1.247 . S
C549 O559 1.272 . S
O550 Co546 2.004 . S
O550 C555 1.259 . S
Co551 O552 2.061 . S
Co551 O557 2.052 . S
Co551 O559 2.135 . S
O552 Co551 2.061 . S
O552 C555 1.235 . S
C553 O556 1.238 . S
C553 O557 1.241 . S
C554 O547 1.247 . S
C554 O548 1.261 . S
C555 O550 1.259 . S
C555 O552 1.235 . S
O556 Co546 2.021 . S
O556 C553 1.238 . S
O557 Co551 2.052 . S
O557 C553 1.241 . S
O558 Co546 2.137 . S
O558 C549 1.247 . S
O559 Co546 2.244 . S
O559 C549 1.272 . S
O559 Co551 2.135 . S
Co560 O561 2.216 . S
Co560 O562 2.091 . S
Co560 O564 2.004 . S
Co560 O570 2.021 . S
Co560 O572 2.137 . S
Co560 O573 2.244 . S
O561 Co560 2.216 . S
O561 C568 1.247 . S
O562 Co560 2.091 . S
O562 C568 1.261 . S
C563 O572 1.247 . S
C563 O573 1.272 . S
O564 Co560 2.004 . S
O564 C569 1.259 . S
Co565 O566 2.061 . S
Co565 O571 2.052 . S
Co565 O573 2.135 . S
O566 Co565 2.061 . S
O566 C569 1.235 . S
C567 O570 1.238 . S
C567 O571 1.241 . S
C568 O561 1.247 . S
C568 O562 1.261 . S
C569 O564 1.259 . S
C569 O566 1.235 . S
O570 Co560 2.021 . S
O570 C567 1.238 . S
O571 Co565 2.052 . S
O571 C567 1.241 . S
O572 Co560 2.137 . S
O572 C563 1.247 . S
O573 Co560 2.244 . S
O573 C563 1.272 . S
O573 Co565 2.135 . S
Co574 O575 2.216 . S
Co574 O576 2.091 . S
Co574 O578 2.004 . S
Co574 O584 2.021 . S
Co574 O586 2.137 . S
Co574 O587 2.244 . S
O575 Co574 2.216 . S
O575 C582 1.247 . S
O576 Co574 2.091 . S
O576 C582 1.261 . S
C577 O586 1.247 . S
C577 O587 1.272 . S
O578 Co574 2.004 . S
O578 C583 1.259 . S
Co579 O580 2.061 . S
Co579 O585 2.052 . S
Co579 O587 2.135 . S
O580 Co579 2.061 . S
O580 C583 1.235 . S
C581 O584 1.238 . S
C581 O585 1.241 . S
C582 O575 1.247 . S
C582 O576 1.261 . S
C583 O578 1.259 . S
C583 O580 1.235 . S
O584 Co574 2.021 . S
O584 C581 1.238 . S
O585 Co579 2.052 . S
O585 C581 1.241 . S
O586 Co574 2.137 . S
O586 C577 1.247 . S
O587 Co574 2.244 . S
O587 C577 1.272 . S
O587 Co579 2.135 . S
Co588 O589 2.216 . S
Co588 O590 2.091 . S
Co588 O592 2.004 . S
Co588 O598 2.021 . S
Co588 O600 2.137 . S
Co588 O601 2.244 . S
O589 Co588 2.216 . S
O589 C596 1.247 . S
O590 Co588 2.091 . S
O590 C596 1.261 . S
C591 O600 1.247 . S
C591 O601 1.272 . S
O592 Co588 2.004 . S
O592 C597 1.259 . S
Co593 O594 2.061 . S
Co593 O599 2.052 . S
Co593 O601 2.135 . S
O594 Co593 2.061 . S
O594 C597 1.235 . S
C595 O598 1.238 . S
C595 O599 1.241 . S
C596 O589 1.247 . S
C596 O590 1.261 . S
C597 O592 1.259 . S
C597 O594 1.235 . S
O598 Co588 2.021 . S
O598 C595 1.238 . S
O599 Co593 2.052 . S
O599 C595 1.241 . S
O600 Co588 2.137 . S
O600 C591 1.247 . S
O601 Co588 2.244 . S
O601 C591 1.272 . S
O601 Co593 2.135 . S
Co602 O603 2.216 . S
Co602 O604 2.091 . S
Co602 O606 2.004 . S
Co602 O612 2.021 . S
Co602 O614 2.137 . S
Co602 O615 2.244 . S
O603 Co602 2.216 . S
O603 C610 1.247 . S
O604 Co602 2.091 . S
O604 C610 1.261 . S
C605 O614 1.247 . S
C605 O615 1.272 . S
O606 Co602 2.004 . S
O606 C611 1.259 . S
Co607 O608 2.061 . S
Co607 O613 2.052 . S
Co607 O615 2.135 . S
O608 Co607 2.061 . S
O608 C611 1.235 . S
C609 O612 1.238 . S
C609 O613 1.241 . S
C610 O603 1.247 . S
C610 O604 1.261 . S
C611 O606 1.259 . S
C611 O608 1.235 . S
O612 Co602 2.021 . S
O612 C609 1.238 . S
O613 Co607 2.052 . S
O613 C609 1.241 . S
O614 Co602 2.137 . S
O614 C605 1.247 . S
O615 Co602 2.244 . S
O615 C605 1.272 . S
O615 Co607 2.135 . S
Co616 O617 2.216 . S
Co616 O618 2.091 . S
Co616 O620 2.004 . S
Co616 O626 2.021 . S
Co616 O628 2.137 . S
Co616 O629 2.244 . S
O617 Co616 2.216 . S
O617 C624 1.247 . S
O618 Co616 2.091 . S
O618 C624 1.261 . S
C619 O628 1.247 . S
C619 O629 1.272 . S
O620 Co616 2.004 . S
O620 C625 1.259 . S
Co621 O622 2.061 . S
Co621 O627 2.052 . S
Co621 O629 2.135 . S
O622 Co621 2.061 . S
O622 C625 1.235 . S
C623 O626 1.238 . S
C623 O627 1.241 . S
C624 O617 1.247 . S
C624 O618 1.261 . S
C625 O620 1.259 . S
C625 O622 1.235 . S
O626 Co616 2.021 . S
O626 C623 1.238 . S
O627 Co621 2.052 . S
O627 C623 1.241 . S
O628 Co616 2.137 . S
O628 C619 1.247 . S
O629 Co616 2.244 . S
O629 C619 1.272 . S
O629 Co621 2.135 . S
Co630 O631 2.216 . S
Co630 O632 2.091 . S
Co630 O634 2.004 . S
Co630 O640 2.021 . S
Co630 O642 2.137 . S
Co630 O643 2.244 . S
O631 Co630 2.216 . S
O631 C638 1.247 . S
O632 Co630 2.091 . S
O632 C638 1.261 . S
C633 O642 1.247 . S
C633 O643 1.272 . S
O634 Co630 2.004 . S
O634 C639 1.259 . S
Co635 O636 2.061 . S
Co635 O641 2.052 . S
Co635 O643 2.135 . S
O636 Co635 2.061 . S
O636 C639 1.235 . S
C637 O640 1.238 . S
C637 O641 1.241 . S
C638 O631 1.247 . S
C638 O632 1.261 . S
C639 O634 1.259 . S
C639 O636 1.235 . S
O640 Co630 2.021 . S
O640 C637 1.238 . S
O641 Co635 2.052 . S
O641 C637 1.241 . S
O642 Co630 2.137 . S
O642 C633 1.247 . S
O643 Co630 2.244 . S
O643 C633 1.272 . S
O643 Co635 2.135 . S
Co644 O645 2.216 . S
Co644 O646 2.091 . S
Co644 O648 2.004 . S
Co644 O654 2.021 . S
Co644 O656 2.137 . S
Co644 O657 2.244 . S
O645 Co644 2.216 . S
O645 C652 1.247 . S
O646 Co644 2.091 . S
O646 C652 1.261 . S
C647 O656 1.247 . S
C647 O657 1.272 . S
O648 Co644 2.004 . S
O648 C653 1.259 . S
Co649 O650 2.061 . S
Co649 O655 2.052 . S
Co649 O657 2.135 . S
O650 Co649 2.061 . S
O650 C653 1.235 . S
C651 O654 1.238 . S
C651 O655 1.241 . S
C652 O645 1.247 . S
C652 O646 1.261 . S
C653 O648 1.259 . S
C653 O650 1.235 . S
O654 Co644 2.021 . S
O654 C651 1.238 . S
O655 Co649 2.052 . S
O655 C651 1.241 . S
O656 Co644 2.137 . S
O656 C647 1.247 . S
O657 Co644 2.244 . S
O657 C647 1.272 . S
O657 Co649 2.135 . S
Co658 O659 2.216 . S
Co658 O660 2.091 . S
Co658 O662 2.004 . S
Co658 O668 2.021 . S
Co658 O670 2.137 . S
Co658 O671 2.244 . S
O659 Co658 2.216 . S
O659 C666 1.247 . S
O660 Co658 2.091 . S
O660 C666 1.261 . S
C661 O670 1.247 . S
C661 O671 1.272 . S
O662 Co658 2.004 . S
O662 C667 1.259 . S
Co663 O664 2.061 . S
Co663 O669 2.052 . S
Co663 O671 2.135 . S
O664 Co663 2.061 . S
O664 C667 1.235 . S
C665 O668 1.238 . S
C665 O669 1.241 . S
C666 O659 1.247 . S
C666 O660 1.261 . S
C667 O662 1.259 . S
C667 O664 1.235 . S
O668 Co658 2.021 . S
O668 C665 1.238 . S
O669 Co663 2.052 . S
O669 C665 1.241 . S
O670 Co658 2.137 . S
O670 C661 1.247 . S
O671 Co658 2.244 . S
O671 C661 1.272 . S
O671 Co663 2.135 . S
C672 C673 1.391 . S
C672 C674 1.394 . S
C672 H688 0.931 . S
C673 C672 1.391 . S
C673 C677 1.376 . S
C674 C672 1.394 . S
C674 C675 1.369 . S
C674 C678 1.531 . S
C675 C674 1.369 . S
C675 C676 1.410 . S
C675 C683 1.503 . S
C676 C675 1.410 . S
C676 C677 1.392 . S
C676 C679 1.511 . S
C677 C673 1.376 . S
C677 C676 1.392 . S
C677 H689 0.929 . S
C678 C674 1.531 . S
C678 H690 0.960 . S
C678 H691 0.962 . S
C678 H692 0.960 . S
C679 C676 1.511 . S
C679 H693 0.961 . S
C679 H694 0.961 . S
C679 H695 0.961 . S
C680 C681 1.370 . S
C680 C682 1.363 . S
C680 H696 0.931 . S
C681 C680 1.370 . S
C681 C685 1.408 . S
C682 C680 1.363 . S
C682 C683 1.370 . S
C682 C686 1.524 . S
C683 C675 1.503 . S
C683 C682 1.370 . S
C683 C684 1.403 . S
C684 C683 1.403 . S
C684 C685 1.404 . S
C684 C687 1.539 . S
C685 C681 1.408 . S
C685 C684 1.404 . S
C685 H697 0.930 . S
C686 C682 1.524 . S
C686 H698 0.956 . S
C686 H699 0.961 . S
C686 H700 0.961 . S
C687 C684 1.539 . S
C687 H701 0.958 . S
C687 H702 0.961 . S
C687 H703 0.960 . S
H688 C672 0.931 . S
H689 C677 0.929 . S
H690 C678 0.960 . S
H691 C678 0.962 . S
H692 C678 0.960 . S
H693 C679 0.961 . S
H694 C679 0.961 . S
H695 C679 0.961 . S
H696 C680 0.931 . S
H697 C685 0.930 . S
H698 C686 0.956 . S
H699 C686 0.961 . S
H700 C686 0.961 . S
H701 C687 0.958 . S
H702 C687 0.961 . S
H703 C687 0.960 . S
C704 C705 1.391 . S
C704 C706 1.394 . S
C704 H720 0.931 . S
C705 C704 1.391 . S
C705 C709 1.376 . S
C706 C704 1.394 . S
C706 C707 1.369 . S
C706 C710 1.531 . S
C707 C706 1.369 . S
C707 C708 1.410 . S
C707 C715 1.503 . S
C708 C707 1.410 . S
C708 C709 1.392 . S
C708 C711 1.511 . S
C709 C705 1.376 . S
C709 C708 1.392 . S
C709 H721 0.929 . S
C710 C706 1.531 . S
C710 H722 0.960 . S
C710 H723 0.962 . S
C710 H724 0.960 . S
C711 C708 1.511 . S
C711 H725 0.961 . S
C711 H726 0.961 . S
C711 H727 0.961 . S
C712 C713 1.370 . S
C712 C714 1.363 . S
C712 H728 0.931 . S
C713 C712 1.370 . S
C713 C717 1.408 . S
C714 C712 1.363 . S
C714 C715 1.370 . S
C714 C718 1.524 . S
C715 C707 1.503 . S
C715 C714 1.370 . S
C715 C716 1.403 . S
C716 C715 1.403 . S
C716 C717 1.404 . S
C716 C719 1.539 . S
C717 C713 1.408 . S
C717 C716 1.404 . S
C717 H729 0.930 . S
C718 C714 1.524 . S
C718 H730 0.956 . S
C718 H731 0.961 . S
C718 H732 0.961 . S
C719 C716 1.539 . S
C719 H733 0.958 . S
C719 H734 0.961 . S
C719 H735 0.960 . S
H720 C704 0.931 . S
H721 C709 0.929 . S
H722 C710 0.960 . S
H723 C710 0.962 . S
H724 C710 0.960 . S
H725 C711 0.961 . S
H726 C711 0.961 . S
H727 C711 0.961 . S
H728 C712 0.931 . S
H729 C717 0.930 . S
H730 C718 0.956 . S
H731 C718 0.961 . S
H732 C718 0.961 . S
H733 C719 0.958 . S
H734 C719 0.961 . S
H735 C719 0.960 . S
C736 C737 1.391 . S
C736 C738 1.394 . S
C736 H752 0.931 . S
C737 C736 1.391 . S
C737 C741 1.376 . S
C738 C736 1.394 . S
C738 C739 1.369 . S
C738 C742 1.531 . S
C739 C738 1.369 . S
C739 C740 1.410 . S
C739 C747 1.503 . S
C740 C739 1.410 . S
C740 C741 1.392 . S
C740 C743 1.511 . S
C741 C737 1.376 . S
C741 C740 1.392 . S
C741 H753 0.929 . S
C742 C738 1.531 . S
C742 H754 0.960 . S
C742 H755 0.962 . S
C742 H756 0.960 . S
C743 C740 1.511 . S
C743 H757 0.961 . S
C743 H758 0.961 . S
C743 H759 0.961 . S
C744 C745 1.370 . S
C744 C746 1.363 . S
C744 H760 0.931 . S
C745 C744 1.370 . S
C745 C749 1.408 . S
C746 C744 1.363 . S
C746 C747 1.370 . S
C746 C750 1.524 . S
C747 C739 1.503 . S
C747 C746 1.370 . S
C747 C748 1.403 . S
C748 C747 1.403 . S
C748 C749 1.404 . S
C748 C751 1.539 . S
C749 C745 1.408 . S
C749 C748 1.404 . S
C749 H761 0.930 . S
C750 C746 1.524 . S
C750 H762 0.956 . S
C750 H763 0.961 . S
C750 H764 0.961 . S
C751 C748 1.539 . S
C751 H765 0.958 . S
C751 H766 0.961 . S
C751 H767 0.960 . S
H752 C736 0.931 . S
H753 C741 0.929 . S
H754 C742 0.960 . S
H755 C742 0.962 . S
H756 C742 0.960 . S
H757 C743 0.961 . S
H758 C743 0.961 . S
H759 C743 0.961 . S
H760 C744 0.931 . S
H761 C749 0.930 . S
H762 C750 0.956 . S
H763 C750 0.961 . S
H764 C750 0.961 . S
H765 C751 0.958 . S
H766 C751 0.961 . S
H767 C751 0.960 . S
C768 C769 1.391 . S
C768 C770 1.394 . S
C768 H784 0.931 . S
C769 C768 1.391 . S
C769 C773 1.376 . S
C770 C768 1.394 . S
C770 C771 1.369 . S
C770 C774 1.531 . S
C771 C770 1.369 . S
C771 C772 1.410 . S
C771 C779 1.503 . S
C772 C771 1.410 . S
C772 C773 1.392 . S
C772 C775 1.511 . S
C773 C769 1.376 . S
C773 C772 1.392 . S
C773 H785 0.929 . S
C774 C770 1.531 . S
C774 H786 0.960 . S
C774 H787 0.962 . S
C774 H788 0.960 . S
C775 C772 1.511 . S
C775 H789 0.961 . S
C775 H790 0.961 . S
C775 H791 0.961 . S
C776 C777 1.370 . S
C776 C778 1.363 . S
C776 H792 0.931 . S
C777 C776 1.370 . S
C777 C781 1.408 . S
C778 C776 1.363 . S
C778 C779 1.370 . S
C778 C782 1.524 . S
C779 C771 1.503 . S
C779 C778 1.370 . S
C779 C780 1.403 . S
C780 C779 1.403 . S
C780 C781 1.404 . S
C780 C783 1.539 . S
C781 C777 1.408 . S
C781 C780 1.404 . S
C781 H793 0.930 . S
C782 C778 1.524 . S
C782 H794 0.956 . S
C782 H795 0.961 . S
C782 H796 0.961 . S
C783 C780 1.539 . S
C783 H797 0.958 . S
C783 H798 0.961 . S
C783 H799 0.960 . S
H784 C768 0.931 . S
H785 C773 0.929 . S
H786 C774 0.960 . S
H787 C774 0.962 . S
H788 C774 0.960 . S
H789 C775 0.961 . S
H790 C775 0.961 . S
H791 C775 0.961 . S
H792 C776 0.931 . S
H793 C781 0.930 . S
H794 C782 0.956 . S
H795 C782 0.961 . S
H796 C782 0.961 . S
H797 C783 0.958 . S
H798 C783 0.961 . S
H799 C783 0.960 . S
C800 C801 1.391 . S
C800 C802 1.394 . S
C800 H816 0.931 . S
C801 C800 1.391 . S
C801 C805 1.376 . S
C802 C800 1.394 . S
C802 C803 1.369 . S
C802 C806 1.531 . S
C803 C802 1.369 . S
C803 C804 1.410 . S
C803 C811 1.503 . S
C804 C803 1.410 . S
C804 C805 1.392 . S
C804 C807 1.511 . S
C805 C801 1.376 . S
C805 C804 1.392 . S
C805 H817 0.929 . S
C806 C802 1.531 . S
C806 H818 0.960 . S
C806 H819 0.962 . S
C806 H820 0.960 . S
C807 C804 1.511 . S
C807 H821 0.961 . S
C807 H822 0.961 . S
C807 H823 0.961 . S
C808 C809 1.370 . S
C808 C810 1.363 . S
C808 H824 0.931 . S
C809 C808 1.370 . S
C809 C813 1.408 . S
C810 C808 1.363 . S
C810 C811 1.370 . S
C810 C814 1.524 . S
C811 C803 1.503 . S
C811 C810 1.370 . S
C811 C812 1.403 . S
C812 C811 1.403 . S
C812 C813 1.404 . S
C812 C815 1.539 . S
C813 C809 1.408 . S
C813 C812 1.404 . S
C813 H825 0.930 . S
C814 C810 1.524 . S
C814 H826 0.956 . S
C814 H827 0.961 . S
C814 H828 0.961 . S
C815 C812 1.539 . S
C815 H829 0.958 . S
C815 H830 0.961 . S
C815 H831 0.960 . S
H816 C800 0.931 . S
H817 C805 0.929 . S
H818 C806 0.960 . S
H819 C806 0.962 . S
H820 C806 0.960 . S
H821 C807 0.961 . S
H822 C807 0.961 . S
H823 C807 0.961 . S
H824 C808 0.931 . S
H825 C813 0.930 . S
H826 C814 0.956 . S
H827 C814 0.961 . S
H828 C814 0.961 . S
H829 C815 0.958 . S
H830 C815 0.961 . S
H831 C815 0.960 . S
C832 C833 1.391 . S
C832 C834 1.394 . S
C832 H848 0.931 . S
C833 C832 1.391 . S
C833 C837 1.376 . S
C834 C832 1.394 . S
C834 C835 1.369 . S
C834 C838 1.531 . S
C835 C834 1.369 . S
C835 C836 1.410 . S
C835 C843 1.503 . S
C836 C835 1.410 . S
C836 C837 1.392 . S
C836 C839 1.511 . S
C837 C833 1.376 . S
C837 C836 1.392 . S
C837 H849 0.929 . S
C838 C834 1.531 . S
C838 H850 0.960 . S
C838 H851 0.962 . S
C838 H852 0.960 . S
C839 C836 1.511 . S
C839 H853 0.961 . S
C839 H854 0.961 . S
C839 H855 0.961 . S
C840 C841 1.370 . S
C840 C842 1.363 . S
C840 H856 0.931 . S
C841 C840 1.370 . S
C841 C845 1.408 . S
C842 C840 1.363 . S
C842 C843 1.370 . S
C842 C846 1.524 . S
C843 C835 1.503 . S
C843 C842 1.370 . S
C843 C844 1.403 . S
C844 C843 1.403 . S
C844 C845 1.404 . S
C844 C847 1.539 . S
C845 C841 1.408 . S
C845 C844 1.404 . S
C845 H857 0.930 . S
C846 C842 1.524 . S
C846 H858 0.956 . S
C846 H859 0.961 . S
C846 H860 0.961 . S
C847 C844 1.539 . S
C847 H861 0.958 . S
C847 H862 0.961 . S
C847 H863 0.960 . S
H848 C832 0.931 . S
H849 C837 0.929 . S
H850 C838 0.960 . S
H851 C838 0.962 . S
H852 C838 0.960 . S
H853 C839 0.961 . S
H854 C839 0.961 . S
H855 C839 0.961 . S
H856 C840 0.931 . S
H857 C845 0.930 . S
H858 C846 0.956 . S
H859 C846 0.961 . S
H860 C846 0.961 . S
H861 C847 0.958 . S
H862 C847 0.961 . S
H863 C847 0.960 . S
C864 C865 1.391 . S
C864 C866 1.394 . S
C864 H880 0.931 . S
C865 C864 1.391 . S
C865 C869 1.376 . S
C866 C864 1.394 . S
C866 C867 1.369 . S
C866 C870 1.531 . S
C867 C866 1.369 . S
C867 C868 1.410 . S
C867 C875 1.503 . S
C868 C867 1.410 . S
C868 C869 1.392 . S
C868 C871 1.511 . S
C869 C865 1.376 . S
C869 C868 1.392 . S
C869 H881 0.929 . S
C870 C866 1.531 . S
C870 H882 0.960 . S
C870 H883 0.962 . S
C870 H884 0.960 . S
C871 C868 1.511 . S
C871 H885 0.961 . S
C871 H886 0.961 . S
C871 H887 0.961 . S
C872 C873 1.370 . S
C872 C874 1.363 . S
C872 H888 0.931 . S
C873 C872 1.370 . S
C873 C877 1.408 . S
C874 C872 1.363 . S
C874 C875 1.370 . S
C874 C878 1.524 . S
C875 C867 1.503 . S
C875 C874 1.370 . S
C875 C876 1.403 . S
C876 C875 1.403 . S
C876 C877 1.404 . S
C876 C879 1.539 . S
C877 C873 1.408 . S
C877 C876 1.404 . S
C877 H889 0.930 . S
C878 C874 1.524 . S
C878 H890 0.956 . S
C878 H891 0.961 . S
C878 H892 0.961 . S
C879 C876 1.539 . S
C879 H893 0.958 . S
C879 H894 0.961 . S
C879 H895 0.960 . S
H880 C864 0.931 . S
H881 C869 0.929 . S
H882 C870 0.960 . S
H883 C870 0.962 . S
H884 C870 0.960 . S
H885 C871 0.961 . S
H886 C871 0.961 . S
H887 C871 0.961 . S
H888 C872 0.931 . S
H889 C877 0.930 . S
H890 C878 0.956 . S
H891 C878 0.961 . S
H892 C878 0.961 . S
H893 C879 0.958 . S
H894 C879 0.961 . S
H895 C879 0.960 . S
C896 C897 1.391 . S
C896 C898 1.394 . S
C896 H912 0.931 . S
C897 C896 1.391 . S
C897 C901 1.376 . S
C898 C896 1.394 . S
C898 C899 1.369 . S
C898 C902 1.531 . S
C899 C898 1.369 . S
C899 C900 1.410 . S
C899 C907 1.503 . S
C900 C899 1.410 . S
C900 C901 1.392 . S
C900 C903 1.511 . S
C901 C897 1.376 . S
C901 C900 1.392 . S
C901 H913 0.929 . S
C902 C898 1.531 . S
C902 H914 0.960 . S
C902 H915 0.962 . S
C902 H916 0.960 . S
C903 C900 1.511 . S
C903 H917 0.961 . S
C903 H918 0.961 . S
C903 H919 0.961 . S
C904 C905 1.370 . S
C904 C906 1.363 . S
C904 H920 0.931 . S
C905 C904 1.370 . S
C905 C909 1.408 . S
C906 C904 1.363 . S
C906 C907 1.370 . S
C906 C910 1.524 . S
C907 C899 1.503 . S
C907 C906 1.370 . S
C907 C908 1.403 . S
C908 C907 1.403 . S
C908 C909 1.404 . S
C908 C911 1.539 . S
C909 C905 1.408 . S
C909 C908 1.404 . S
C909 H921 0.930 . S
C910 C906 1.524 . S
C910 H922 0.956 . S
C910 H923 0.961 . S
C910 H924 0.961 . S
C911 C908 1.539 . S
C911 H925 0.958 . S
C911 H926 0.961 . S
C911 H927 0.960 . S
H912 C896 0.931 . S
H913 C901 0.929 . S
H914 C902 0.960 . S
H915 C902 0.962 . S
H916 C902 0.960 . S
H917 C903 0.961 . S
H918 C903 0.961 . S
H919 C903 0.961 . S
H920 C904 0.931 . S
H921 C909 0.930 . S
H922 C910 0.956 . S
H923 C910 0.961 . S
H924 C910 0.961 . S
H925 C911 0.958 . S
H926 C911 0.961 . S
H927 C911 0.960 . S
C928 C929 1.391 . S
C928 C930 1.394 . S
C928 H944 0.931 . S
C929 C928 1.391 . S
C929 C933 1.376 . S
C930 C928 1.394 . S
C930 C931 1.369 . S
C930 C934 1.531 . S
C931 C930 1.369 . S
C931 C932 1.410 . S
C931 C939 1.503 . S
C932 C931 1.410 . S
C932 C933 1.392 . S
C932 C935 1.511 . S
C933 C929 1.376 . S
C933 C932 1.392 . S
C933 H945 0.929 . S
C934 C930 1.531 . S
C934 H946 0.960 . S
C934 H947 0.962 . S
C934 H948 0.960 . S
C935 C932 1.511 . S
C935 H949 0.961 . S
C935 H950 0.961 . S
C935 H951 0.961 . S
C936 C937 1.370 . S
C936 C938 1.363 . S
C936 H952 0.931 . S
C937 C936 1.370 . S
C937 C941 1.408 . S
C938 C936 1.363 . S
C938 C939 1.370 . S
C938 C942 1.524 . S
C939 C931 1.503 . S
C939 C938 1.370 . S
C939 C940 1.403 . S
C940 C939 1.403 . S
C940 C941 1.404 . S
C940 C943 1.539 . S
C941 C937 1.408 . S
C941 C940 1.404 . S
C941 H953 0.930 . S
C942 C938 1.524 . S
C942 H954 0.956 . S
C942 H955 0.961 . S
C942 H956 0.961 . S
C943 C940 1.539 . S
C943 H957 0.958 . S
C943 H958 0.961 . S
C943 H959 0.960 . S
H944 C928 0.931 . S
H945 C933 0.929 . S
H946 C934 0.960 . S
H947 C934 0.962 . S
H948 C934 0.960 . S
H949 C935 0.961 . S
H950 C935 0.961 . S
H951 C935 0.961 . S
H952 C936 0.931 . S
H953 C941 0.930 . S
H954 C942 0.956 . S
H955 C942 0.961 . S
H956 C942 0.961 . S
H957 C943 0.958 . S
H958 C943 0.961 . S
H959 C943 0.960 . S
C960 C961 1.391 . S
C960 C962 1.394 . S
C960 H976 0.931 . S
C961 C960 1.391 . S
C961 C965 1.376 . S
C962 C960 1.394 . S
C962 C963 1.369 . S
C962 C966 1.531 . S
C963 C962 1.369 . S
C963 C964 1.410 . S
C963 C971 1.503 . S
C964 C963 1.410 . S
C964 C965 1.392 . S
C964 C967 1.511 . S
C965 C961 1.376 . S
C965 C964 1.392 . S
C965 H977 0.929 . S
C966 C962 1.531 . S
C966 H978 0.960 . S
C966 H979 0.962 . S
C966 H980 0.960 . S
C967 C964 1.511 . S
C967 H981 0.961 . S
C967 H982 0.961 . S
C967 H983 0.961 . S
C968 C969 1.370 . S
C968 C970 1.363 . S
C968 H984 0.931 . S
C969 C968 1.370 . S
C969 C973 1.408 . S
C970 C968 1.363 . S
C970 C971 1.370 . S
C970 C974 1.524 . S
C971 C963 1.503 . S
C971 C970 1.370 . S
C971 C972 1.403 . S
C972 C971 1.403 . S
C972 C973 1.404 . S
C972 C975 1.539 . S
C973 C969 1.408 . S
C973 C972 1.404 . S
C973 H985 0.930 . S
C974 C970 1.524 . S
C974 H986 0.956 . S
C974 H987 0.961 . S
C974 H988 0.961 . S
C975 C972 1.539 . S
C975 H989 0.958 . S
C975 H990 0.961 . S
C975 H991 0.960 . S
H976 C960 0.931 . S
H977 C965 0.929 . S
H978 C966 0.960 . S
H979 C966 0.962 . S
H980 C966 0.960 . S
H981 C967 0.961 . S
H982 C967 0.961 . S
H983 C967 0.961 . S
H984 C968 0.931 . S
H985 C973 0.930 . S
H986 C974 0.956 . S
H987 C974 0.961 . S
H988 C974 0.961 . S
H989 C975 0.958 . S
H990 C975 0.961 . S
H991 C975 0.960 . S
C992 C993 1.391 . S
C992 C994 1.394 . S
C992 H1008 0.931 . S
C993 C992 1.391 . S
C993 C997 1.376 . S
C994 C992 1.394 . S
C994 C995 1.369 . S
C994 C998 1.531 . S
C995 C994 1.369 . S
C995 C996 1.410 . S
C995 C1003 1.503 . S
C996 C995 1.410 . S
C996 C997 1.392 . S
C996 C999 1.511 . S
C997 C993 1.376 . S
C997 C996 1.392 . S
C997 H1009 0.929 . S
C998 C994 1.531 . S
C998 H1010 0.960 . S
C998 H1011 0.962 . S
C998 H1012 0.960 . S
C999 C996 1.511 . S
C999 H1013 0.961 . S
C999 H1014 0.961 . S
C999 H1015 0.961 . S
C1000 C1001 1.370 . S
C1000 C1002 1.363 . S
C1000 H1016 0.931 . S
C1001 C1000 1.370 . S
C1001 C1005 1.408 . S
C1002 C1000 1.363 . S
C1002 C1003 1.370 . S
C1002 C1006 1.524 . S
C1003 C995 1.503 . S
C1003 C1002 1.370 . S
C1003 C1004 1.403 . S
C1004 C1003 1.403 . S
C1004 C1005 1.404 . S
C1004 C1007 1.539 . S
C1005 C1001 1.408 . S
C1005 C1004 1.404 . S
C1005 H1017 0.930 . S
C1006 C1002 1.524 . S
C1006 H1018 0.956 . S
C1006 H1019 0.961 . S
C1006 H1020 0.961 . S
C1007 C1004 1.539 . S
C1007 H1021 0.958 . S
C1007 H1022 0.961 . S
C1007 H1023 0.960 . S
H1008 C992 0.931 . S
H1009 C997 0.929 . S
H1010 C998 0.960 . S
H1011 C998 0.962 . S
H1012 C998 0.960 . S
H1013 C999 0.961 . S
H1014 C999 0.961 . S
H1015 C999 0.961 . S
H1016 C1000 0.931 . S
H1017 C1005 0.930 . S
H1018 C1006 0.956 . S
H1019 C1006 0.961 . S
H1020 C1006 0.961 . S
H1021 C1007 0.958 . S
H1022 C1007 0.961 . S
H1023 C1007 0.960 . S
C1024 C1025 1.391 . S
C1024 C1026 1.394 . S
C1024 H1040 0.931 . S
C1025 C1024 1.391 . S
C1025 C1029 1.376 . S
C1026 C1024 1.394 . S
C1026 C1027 1.369 . S
C1026 C1030 1.531 . S
C1027 C1026 1.369 . S
C1027 C1028 1.410 . S
C1027 C1035 1.503 . S
C1028 C1027 1.410 . S
C1028 C1029 1.392 . S
C1028 C1031 1.511 . S
C1029 C1025 1.376 . S
C1029 C1028 1.392 . S
C1029 H1041 0.929 . S
C1030 C1026 1.531 . S
C1030 H1042 0.960 . S
C1030 H1043 0.962 . S
C1030 H1044 0.960 . S
C1031 C1028 1.511 . S
C1031 H1045 0.961 . S
C1031 H1046 0.961 . S
C1031 H1047 0.961 . S
C1032 C1033 1.370 . S
C1032 C1034 1.363 . S
C1032 H1048 0.931 . S
C1033 C1032 1.370 . S
C1033 C1037 1.408 . S
C1034 C1032 1.363 . S
C1034 C1035 1.370 . S
C1034 C1038 1.524 . S
C1035 C1027 1.503 . S
C1035 C1034 1.370 . S
C1035 C1036 1.403 . S
C1036 C1035 1.403 . S
C1036 C1037 1.404 . S
C1036 C1039 1.539 . S
C1037 C1033 1.408 . S
C1037 C1036 1.404 . S
C1037 H1049 0.930 . S
C1038 C1034 1.524 . S
C1038 H1050 0.956 . S
C1038 H1051 0.961 . S
C1038 H1052 0.961 . S
C1039 C1036 1.539 . S
C1039 H1053 0.958 . S
C1039 H1054 0.961 . S
C1039 H1055 0.960 . S
H1040 C1024 0.931 . S
H1041 C1029 0.929 . S
H1042 C1030 0.960 . S
H1043 C1030 0.962 . S
H1044 C1030 0.960 . S
H1045 C1031 0.961 . S
H1046 C1031 0.961 . S
H1047 C1031 0.961 . S
H1048 C1032 0.931 . S
H1049 C1037 0.930 . S
H1050 C1038 0.956 . S
H1051 C1038 0.961 . S
H1052 C1038 0.961 . S
H1053 C1039 0.958 . S
H1054 C1039 0.961 . S
H1055 C1039 0.960 . S
C1056 C1057 1.391 . S
C1056 C1058 1.394 . S
C1056 H1072 0.931 . S
C1057 C1056 1.391 . S
C1057 C1061 1.376 . S
C1058 C1056 1.394 . S
C1058 C1059 1.369 . S
C1058 C1062 1.531 . S
C1059 C1058 1.369 . S
C1059 C1060 1.410 . S
C1059 C1067 1.503 . S
C1060 C1059 1.410 . S
C1060 C1061 1.392 . S
C1060 C1063 1.511 . S
C1061 C1057 1.376 . S
C1061 C1060 1.392 . S
C1061 H1073 0.929 . S
C1062 C1058 1.531 . S
C1062 H1074 0.960 . S
C1062 H1075 0.962 . S
C1062 H1076 0.960 . S
C1063 C1060 1.511 . S
C1063 H1077 0.961 . S
C1063 H1078 0.961 . S
C1063 H1079 0.961 . S
C1064 C1065 1.370 . S
C1064 C1066 1.363 . S
C1064 H1080 0.931 . S
C1065 C1064 1.370 . S
C1065 C1069 1.408 . S
C1066 C1064 1.363 . S
C1066 C1067 1.370 . S
C1066 C1070 1.524 . S
C1067 C1059 1.503 . S
C1067 C1066 1.370 . S
C1067 C1068 1.403 . S
C1068 C1067 1.403 . S
C1068 C1069 1.404 . S
C1068 C1071 1.539 . S
C1069 C1065 1.408 . S
C1069 C1068 1.404 . S
C1069 H1081 0.930 . S
C1070 C1066 1.524 . S
C1070 H1082 0.956 . S
C1070 H1083 0.961 . S
C1070 H1084 0.961 . S
C1071 C1068 1.539 . S
C1071 H1085 0.958 . S
C1071 H1086 0.961 . S
C1071 H1087 0.960 . S
H1072 C1056 0.931 . S
H1073 C1061 0.929 . S
H1074 C1062 0.960 . S
H1075 C1062 0.962 . S
H1076 C1062 0.960 . S
H1077 C1063 0.961 . S
H1078 C1063 0.961 . S
H1079 C1063 0.961 . S
H1080 C1064 0.931 . S
H1081 C1069 0.930 . S
H1082 C1070 0.956 . S
H1083 C1070 0.961 . S
H1084 C1070 0.961 . S
H1085 C1071 0.958 . S
H1086 C1071 0.961 . S
H1087 C1071 0.960 . S
C1088 C1089 1.391 . S
C1088 C1090 1.394 . S
C1088 H1104 0.931 . S
C1089 C1088 1.391 . S
C1089 C1093 1.376 . S
C1090 C1088 1.394 . S
C1090 C1091 1.369 . S
C1090 C1094 1.531 . S
C1091 C1090 1.369 . S
C1091 C1092 1.410 . S
C1091 C1099 1.503 . S
C1092 C1091 1.410 . S
C1092 C1093 1.392 . S
C1092 C1095 1.511 . S
C1093 C1089 1.376 . S
C1093 C1092 1.392 . S
C1093 H1105 0.929 . S
C1094 C1090 1.531 . S
C1094 H1106 0.960 . S
C1094 H1107 0.962 . S
C1094 H1108 0.960 . S
C1095 C1092 1.511 . S
C1095 H1109 0.961 . S
C1095 H1110 0.961 . S
C1095 H1111 0.961 . S
C1096 C1097 1.370 . S
C1096 C1098 1.363 . S
C1096 H1112 0.931 . S
C1097 C1096 1.370 . S
C1097 C1101 1.408 . S
C1098 C1096 1.363 . S
C1098 C1099 1.370 . S
C1098 C1102 1.524 . S
C1099 C1091 1.503 . S
C1099 C1098 1.370 . S
C1099 C1100 1.403 . S
C1100 C1099 1.403 . S
C1100 C1101 1.404 . S
C1100 C1103 1.539 . S
C1101 C1097 1.408 . S
C1101 C1100 1.404 . S
C1101 H1113 0.930 . S
C1102 C1098 1.524 . S
C1102 H1114 0.956 . S
C1102 H1115 0.961 . S
C1102 H1116 0.961 . S
C1103 C1100 1.539 . S
C1103 H1117 0.958 . S
C1103 H1118 0.961 . S
C1103 H1119 0.960 . S
H1104 C1088 0.931 . S
H1105 C1093 0.929 . S
H1106 C1094 0.960 . S
H1107 C1094 0.962 . S
H1108 C1094 0.960 . S
H1109 C1095 0.961 . S
H1110 C1095 0.961 . S
H1111 C1095 0.961 . S
H1112 C1096 0.931 . S
H1113 C1101 0.930 . S
H1114 C1102 0.956 . S
H1115 C1102 0.961 . S
H1116 C1102 0.961 . S
H1117 C1103 0.958 . S
H1118 C1103 0.961 . S
H1119 C1103 0.960 . S
C1120 C1121 1.391 . S
C1120 C1122 1.394 . S
C1120 H1136 0.931 . S
C1121 C1120 1.391 . S
C1121 C1125 1.376 . S
C1122 C1120 1.394 . S
C1122 C1123 1.369 . S
C1122 C1126 1.531 . S
C1123 C1122 1.369 . S
C1123 C1124 1.410 . S
C1123 C1131 1.503 . S
C1124 C1123 1.410 . S
C1124 C1125 1.392 . S
C1124 C1127 1.511 . S
C1125 C1121 1.376 . S
C1125 C1124 1.392 . S
C1125 H1137 0.929 . S
C1126 C1122 1.531 . S
C1126 H1138 0.960 . S
C1126 H1139 0.962 . S
C1126 H1140 0.960 . S
C1127 C1124 1.511 . S
C1127 H1141 0.961 . S
C1127 H1142 0.961 . S
C1127 H1143 0.961 . S
C1128 C1129 1.370 . S
C1128 C1130 1.363 . S
C1128 H1144 0.931 . S
C1129 C1128 1.370 . S
C1129 C1133 1.408 . S
C1130 C1128 1.363 . S
C1130 C1131 1.370 . S
C1130 C1134 1.524 . S
C1131 C1123 1.503 . S
C1131 C1130 1.370 . S
C1131 C1132 1.403 . S
C1132 C1131 1.403 . S
C1132 C1133 1.404 . S
C1132 C1135 1.539 . S
C1133 C1129 1.408 . S
C1133 C1132 1.404 . S
C1133 H1145 0.930 . S
C1134 C1130 1.524 . S
C1134 H1146 0.956 . S
C1134 H1147 0.961 . S
C1134 H1148 0.961 . S
C1135 C1132 1.539 . S
C1135 H1149 0.958 . S
C1135 H1150 0.961 . S
C1135 H1151 0.960 . S
H1136 C1120 0.931 . S
H1137 C1125 0.929 . S
H1138 C1126 0.960 . S
H1139 C1126 0.962 . S
H1140 C1126 0.960 . S
H1141 C1127 0.961 . S
H1142 C1127 0.961 . S
H1143 C1127 0.961 . S
H1144 C1128 0.931 . S
H1145 C1133 0.930 . S
H1146 C1134 0.956 . S
H1147 C1134 0.961 . S
H1148 C1134 0.961 . S
H1149 C1135 0.958 . S
H1150 C1135 0.961 . S
H1151 C1135 0.960 . S
C1152 C1153 1.391 . S
C1152 C1154 1.394 . S
C1152 H1168 0.931 . S
C1153 C1152 1.391 . S
C1153 C1157 1.376 . S
C1154 C1152 1.394 . S
C1154 C1155 1.369 . S
C1154 C1158 1.531 . S
C1155 C1154 1.369 . S
C1155 C1156 1.410 . S
C1155 C1163 1.503 . S
C1156 C1155 1.410 . S
C1156 C1157 1.392 . S
C1156 C1159 1.511 . S
C1157 C1153 1.376 . S
C1157 C1156 1.392 . S
C1157 H1169 0.929 . S
C1158 C1154 1.531 . S
C1158 H1170 0.960 . S
C1158 H1171 0.962 . S
C1158 H1172 0.960 . S
C1159 C1156 1.511 . S
C1159 H1173 0.961 . S
C1159 H1174 0.961 . S
C1159 H1175 0.961 . S
C1160 C1161 1.370 . S
C1160 C1162 1.363 . S
C1160 H1176 0.931 . S
C1161 C1160 1.370 . S
C1161 C1165 1.408 . S
C1162 C1160 1.363 . S
C1162 C1163 1.370 . S
C1162 C1166 1.524 . S
C1163 C1155 1.503 . S
C1163 C1162 1.370 . S
C1163 C1164 1.403 . S
C1164 C1163 1.403 . S
C1164 C1165 1.404 . S
C1164 C1167 1.539 . S
C1165 C1161 1.408 . S
C1165 C1164 1.404 . S
C1165 H1177 0.930 . S
C1166 C1162 1.524 . S
C1166 H1178 0.956 . S
C1166 H1179 0.961 . S
C1166 H1180 0.961 . S
C1167 C1164 1.539 . S
C1167 H1181 0.958 . S
C1167 H1182 0.961 . S
C1167 H1183 0.960 . S
H1168 C1152 0.931 . S
H1169 C1157 0.929 . S
H1170 C1158 0.960 . S
H1171 C1158 0.962 . S
H1172 C1158 0.960 . S
H1173 C1159 0.961 . S
H1174 C1159 0.961 . S
H1175 C1159 0.961 . S
H1176 C1160 0.931 . S
H1177 C1165 0.930 . S
H1178 C1166 0.956 . S
H1179 C1166 0.961 . S
H1180 C1166 0.961 . S
H1181 C1167 0.958 . S
H1182 C1167 0.961 . S
H1183 C1167 0.960 . S
C1184 C1185 1.391 . S
C1184 C1186 1.394 . S
C1184 H1200 0.931 . S
C1185 C1184 1.391 . S
C1185 C1189 1.376 . S
C1186 C1184 1.394 . S
C1186 C1187 1.369 . S
C1186 C1190 1.531 . S
C1187 C1186 1.369 . S
C1187 C1188 1.410 . S
C1187 C1195 1.503 . S
C1188 C1187 1.410 . S
C1188 C1189 1.392 . S
C1188 C1191 1.511 . S
C1189 C1185 1.376 . S
C1189 C1188 1.392 . S
C1189 H1201 0.929 . S
C1190 C1186 1.531 . S
C1190 H1202 0.960 . S
C1190 H1203 0.962 . S
C1190 H1204 0.960 . S
C1191 C1188 1.511 . S
C1191 H1205 0.961 . S
C1191 H1206 0.961 . S
C1191 H1207 0.961 . S
C1192 C1193 1.370 . S
C1192 C1194 1.363 . S
C1192 H1208 0.931 . S
C1193 C1192 1.370 . S
C1193 C1197 1.408 . S
C1194 C1192 1.363 . S
C1194 C1195 1.370 . S
C1194 C1198 1.524 . S
C1195 C1187 1.503 . S
C1195 C1194 1.370 . S
C1195 C1196 1.403 . S
C1196 C1195 1.403 . S
C1196 C1197 1.404 . S
C1196 C1199 1.539 . S
C1197 C1193 1.408 . S
C1197 C1196 1.404 . S
C1197 H1209 0.930 . S
C1198 C1194 1.524 . S
C1198 H1210 0.956 . S
C1198 H1211 0.961 . S
C1198 H1212 0.961 . S
C1199 C1196 1.539 . S
C1199 H1213 0.958 . S
C1199 H1214 0.961 . S
C1199 H1215 0.960 . S
H1200 C1184 0.931 . S
H1201 C1189 0.929 . S
H1202 C1190 0.960 . S
H1203 C1190 0.962 . S
H1204 C1190 0.960 . S
H1205 C1191 0.961 . S
H1206 C1191 0.961 . S
H1207 C1191 0.961 . S
H1208 C1192 0.931 . S
H1209 C1197 0.930 . S
H1210 C1198 0.956 . S
H1211 C1198 0.961 . S
H1212 C1198 0.961 . S
H1213 C1199 0.958 . S
H1214 C1199 0.961 . S
H1215 C1199 0.960 . S
C1216 C1217 1.391 . S
C1216 C1218 1.394 . S
C1216 H1232 0.931 . S
C1217 C1216 1.391 . S
C1217 C1221 1.376 . S
C1218 C1216 1.394 . S
C1218 C1219 1.369 . S
C1218 C1222 1.531 . S
C1219 C1218 1.369 . S
C1219 C1220 1.410 . S
C1219 C1227 1.503 . S
C1220 C1219 1.410 . S
C1220 C1221 1.392 . S
C1220 C1223 1.511 . S
C1221 C1217 1.376 . S
C1221 C1220 1.392 . S
C1221 H1233 0.929 . S
C1222 C1218 1.531 . S
C1222 H1234 0.960 . S
C1222 H1235 0.962 . S
C1222 H1236 0.960 . S
C1223 C1220 1.511 . S
C1223 H1237 0.961 . S
C1223 H1238 0.961 . S
C1223 H1239 0.961 . S
C1224 C1225 1.370 . S
C1224 C1226 1.363 . S
C1224 H1240 0.931 . S
C1225 C1224 1.370 . S
C1225 C1229 1.408 . S
C1226 C1224 1.363 . S
C1226 C1227 1.370 . S
C1226 C1230 1.524 . S
C1227 C1219 1.503 . S
C1227 C1226 1.370 . S
C1227 C1228 1.403 . S
C1228 C1227 1.403 . S
C1228 C1229 1.404 . S
C1228 C1231 1.539 . S
C1229 C1225 1.408 . S
C1229 C1228 1.404 . S
C1229 H1241 0.930 . S
C1230 C1226 1.524 . S
C1230 H1242 0.956 . S
C1230 H1243 0.961 . S
C1230 H1244 0.961 . S
C1231 C1228 1.539 . S
C1231 H1245 0.958 . S
C1231 H1246 0.961 . S
C1231 H1247 0.960 . S
H1232 C1216 0.931 . S
H1233 C1221 0.929 . S
H1234 C1222 0.960 . S
H1235 C1222 0.962 . S
H1236 C1222 0.960 . S
H1237 C1223 0.961 . S
H1238 C1223 0.961 . S
H1239 C1223 0.961 . S
H1240 C1224 0.931 . S
H1241 C1229 0.930 . S
H1242 C1230 0.956 . S
H1243 C1230 0.961 . S
H1244 C1230 0.961 . S
H1245 C1231 0.958 . S
H1246 C1231 0.961 . S
H1247 C1231 0.960 . S
C1248 C1249 1.391 . S
C1248 C1250 1.394 . S
C1248 H1264 0.931 . S
C1249 C1248 1.391 . S
C1249 C1253 1.376 . S
C1250 C1248 1.394 . S
C1250 C1251 1.369 . S
C1250 C1254 1.531 . S
C1251 C1250 1.369 . S
C1251 C1252 1.410 . S
C1251 C1259 1.503 . S
C1252 C1251 1.410 . S
C1252 C1253 1.392 . S
C1252 C1255 1.511 . S
C1253 C1249 1.376 . S
C1253 C1252 1.392 . S
C1253 H1265 0.929 . S
C1254 C1250 1.531 . S
C1254 H1266 0.960 . S
C1254 H1267 0.962 . S
C1254 H1268 0.960 . S
C1255 C1252 1.511 . S
C1255 H1269 0.961 . S
C1255 H1270 0.961 . S
C1255 H1271 0.961 . S
C1256 C1257 1.370 . S
C1256 C1258 1.363 . S
C1256 H1272 0.931 . S
C1257 C1256 1.370 . S
C1257 C1261 1.408 . S
C1258 C1256 1.363 . S
C1258 C1259 1.370 . S
C1258 C1262 1.524 . S
C1259 C1251 1.503 . S
C1259 C1258 1.370 . S
C1259 C1260 1.403 . S
C1260 C1259 1.403 . S
C1260 C1261 1.404 . S
C1260 C1263 1.539 . S
C1261 C1257 1.408 . S
C1261 C1260 1.404 . S
C1261 H1273 0.930 . S
C1262 C1258 1.524 . S
C1262 H1274 0.956 . S
C1262 H1275 0.961 . S
C1262 H1276 0.961 . S
C1263 C1260 1.539 . S
C1263 H1277 0.958 . S
C1263 H1278 0.961 . S
C1263 H1279 0.960 . S
H1264 C1248 0.931 . S
H1265 C1253 0.929 . S
H1266 C1254 0.960 . S
H1267 C1254 0.962 . S
H1268 C1254 0.960 . S
H1269 C1255 0.961 . S
H1270 C1255 0.961 . S
H1271 C1255 0.961 . S
H1272 C1256 0.931 . S
H1273 C1261 0.930 . S
H1274 C1262 0.956 . S
H1275 C1262 0.961 . S
H1276 C1262 0.961 . S
H1277 C1263 0.958 . S
H1278 C1263 0.961 . S
H1279 C1263 0.960 . S
C1280 C1281 1.391 . S
C1280 C1282 1.394 . S
C1280 H1296 0.931 . S
C1281 C1280 1.391 . S
C1281 C1285 1.376 . S
C1282 C1280 1.394 . S
C1282 C1283 1.369 . S
C1282 C1286 1.531 . S
C1283 C1282 1.369 . S
C1283 C1284 1.410 . S
C1283 C1291 1.503 . S
C1284 C1283 1.410 . S
C1284 C1285 1.392 . S
C1284 C1287 1.511 . S
C1285 C1281 1.376 . S
C1285 C1284 1.392 . S
C1285 H1297 0.929 . S
C1286 C1282 1.531 . S
C1286 H1298 0.960 . S
C1286 H1299 0.962 . S
C1286 H1300 0.960 . S
C1287 C1284 1.511 . S
C1287 H1301 0.961 . S
C1287 H1302 0.961 . S
C1287 H1303 0.961 . S
C1288 C1289 1.370 . S
C1288 C1290 1.363 . S
C1288 H1304 0.931 . S
C1289 C1288 1.370 . S
C1289 C1293 1.408 . S
C1290 C1288 1.363 . S
C1290 C1291 1.370 . S
C1290 C1294 1.524 . S
C1291 C1283 1.503 . S
C1291 C1290 1.370 . S
C1291 C1292 1.403 . S
C1292 C1291 1.403 . S
C1292 C1293 1.404 . S
C1292 C1295 1.539 . S
C1293 C1289 1.408 . S
C1293 C1292 1.404 . S
C1293 H1305 0.930 . S
C1294 C1290 1.524 . S
C1294 H1306 0.956 . S
C1294 H1307 0.961 . S
C1294 H1308 0.961 . S
C1295 C1292 1.539 . S
C1295 H1309 0.958 . S
C1295 H1310 0.961 . S
C1295 H1311 0.960 . S
H1296 C1280 0.931 . S
H1297 C1285 0.929 . S
H1298 C1286 0.960 . S
H1299 C1286 0.962 . S
H1300 C1286 0.960 . S
H1301 C1287 0.961 . S
H1302 C1287 0.961 . S
H1303 C1287 0.961 . S
H1304 C1288 0.931 . S
H1305 C1293 0.930 . S
H1306 C1294 0.956 . S
H1307 C1294 0.961 . S
H1308 C1294 0.961 . S
H1309 C1295 0.958 . S
H1310 C1295 0.961 . S
H1311 C1295 0.960 . S
C1312 C1313 1.391 . S
C1312 C1314 1.394 . S
C1312 H1328 0.931 . S
C1313 C1312 1.391 . S
C1313 C1317 1.376 . S
C1314 C1312 1.394 . S
C1314 C1315 1.369 . S
C1314 C1318 1.531 . S
C1315 C1314 1.369 . S
C1315 C1316 1.410 . S
C1315 C1323 1.503 . S
C1316 C1315 1.410 . S
C1316 C1317 1.392 . S
C1316 C1319 1.511 . S
C1317 C1313 1.376 . S
C1317 C1316 1.392 . S
C1317 H1329 0.929 . S
C1318 C1314 1.531 . S
C1318 H1330 0.960 . S
C1318 H1331 0.962 . S
C1318 H1332 0.960 . S
C1319 C1316 1.511 . S
C1319 H1333 0.961 . S
C1319 H1334 0.961 . S
C1319 H1335 0.961 . S
C1320 C1321 1.370 . S
C1320 C1322 1.363 . S
C1320 H1336 0.931 . S
C1321 C1320 1.370 . S
C1321 C1325 1.408 . S
C1322 C1320 1.363 . S
C1322 C1323 1.370 . S
C1322 C1326 1.524 . S
C1323 C1315 1.503 . S
C1323 C1322 1.370 . S
C1323 C1324 1.403 . S
C1324 C1323 1.403 . S
C1324 C1325 1.404 . S
C1324 C1327 1.539 . S
C1325 C1321 1.408 . S
C1325 C1324 1.404 . S
C1325 H1337 0.930 . S
C1326 C1322 1.524 . S
C1326 H1338 0.956 . S
C1326 H1339 0.961 . S
C1326 H1340 0.961 . S
C1327 C1324 1.539 . S
C1327 H1341 0.958 . S
C1327 H1342 0.961 . S
C1327 H1343 0.960 . S
H1328 C1312 0.931 . S
H1329 C1317 0.929 . S
H1330 C1318 0.960 . S
H1331 C1318 0.962 . S
H1332 C1318 0.960 . S
H1333 C1319 0.961 . S
H1334 C1319 0.961 . S
H1335 C1319 0.961 . S
H1336 C1320 0.931 . S
H1337 C1325 0.930 . S
H1338 C1326 0.956 . S
H1339 C1326 0.961 . S
H1340 C1326 0.961 . S
H1341 C1327 0.958 . S
H1342 C1327 0.961 . S
H1343 C1327 0.960 . S
C1344 C1345 1.391 . S
C1344 C1346 1.394 . S
C1344 H1360 0.931 . S
C1345 C1344 1.391 . S
C1345 C1349 1.376 . S
C1346 C1344 1.394 . S
C1346 C1347 1.369 . S
C1346 C1350 1.531 . S
C1347 C1346 1.369 . S
C1347 C1348 1.410 . S
C1347 C1355 1.503 . S
C1348 C1347 1.410 . S
C1348 C1349 1.392 . S
C1348 C1351 1.511 . S
C1349 C1345 1.376 . S
C1349 C1348 1.392 . S
C1349 H1361 0.929 . S
C1350 C1346 1.531 . S
C1350 H1362 0.960 . S
C1350 H1363 0.962 . S
C1350 H1364 0.960 . S
C1351 C1348 1.511 . S
C1351 H1365 0.961 . S
C1351 H1366 0.961 . S
C1351 H1367 0.961 . S
C1352 C1353 1.370 . S
C1352 C1354 1.363 . S
C1352 H1368 0.931 . S
C1353 C1352 1.370 . S
C1353 C1357 1.408 . S
C1354 C1352 1.363 . S
C1354 C1355 1.370 . S
C1354 C1358 1.524 . S
C1355 C1347 1.503 . S
C1355 C1354 1.370 . S
C1355 C1356 1.403 . S
C1356 C1355 1.403 . S
C1356 C1357 1.404 . S
C1356 C1359 1.539 . S
C1357 C1353 1.408 . S
C1357 C1356 1.404 . S
C1357 H1369 0.930 . S
C1358 C1354 1.524 . S
C1358 H1370 0.956 . S
C1358 H1371 0.961 . S
C1358 H1372 0.961 . S
C1359 C1356 1.539 . S
C1359 H1373 0.958 . S
C1359 H1374 0.961 . S
C1359 H1375 0.960 . S
H1360 C1344 0.931 . S
H1361 C1349 0.929 . S
H1362 C1350 0.960 . S
H1363 C1350 0.962 . S
H1364 C1350 0.960 . S
H1365 C1351 0.961 . S
H1366 C1351 0.961 . S
H1367 C1351 0.961 . S
H1368 C1352 0.931 . S
H1369 C1357 0.930 . S
H1370 C1358 0.956 . S
H1371 C1358 0.961 . S
H1372 C1358 0.961 . S
H1373 C1359 0.958 . S
H1374 C1359 0.961 . S
H1375 C1359 0.960 . S
C1376 C1377 1.391 . S
C1376 C1378 1.394 . S
C1376 H1392 0.931 . S
C1377 C1376 1.391 . S
C1377 C1381 1.376 . S
C1378 C1376 1.394 . S
C1378 C1379 1.369 . S
C1378 C1382 1.531 . S
C1379 C1378 1.369 . S
C1379 C1380 1.410 . S
C1379 C1387 1.503 . S
C1380 C1379 1.410 . S
C1380 C1381 1.392 . S
C1380 C1383 1.511 . S
C1381 C1377 1.376 . S
C1381 C1380 1.392 . S
C1381 H1393 0.929 . S
C1382 C1378 1.531 . S
C1382 H1394 0.960 . S
C1382 H1395 0.962 . S
C1382 H1396 0.960 . S
C1383 C1380 1.511 . S
C1383 H1397 0.961 . S
C1383 H1398 0.961 . S
C1383 H1399 0.961 . S
C1384 C1385 1.370 . S
C1384 C1386 1.363 . S
C1384 H1400 0.931 . S
C1385 C1384 1.370 . S
C1385 C1389 1.408 . S
C1386 C1384 1.363 . S
C1386 C1387 1.370 . S
C1386 C1390 1.524 . S
C1387 C1379 1.503 . S
C1387 C1386 1.370 . S
C1387 C1388 1.403 . S
C1388 C1387 1.403 . S
C1388 C1389 1.404 . S
C1388 C1391 1.539 . S
C1389 C1385 1.408 . S
C1389 C1388 1.404 . S
C1389 H1401 0.930 . S
C1390 C1386 1.524 . S
C1390 H1402 0.956 . S
C1390 H1403 0.961 . S
C1390 H1404 0.961 . S
C1391 C1388 1.539 . S
C1391 H1405 0.958 . S
C1391 H1406 0.961 . S
C1391 H1407 0.960 . S
H1392 C1376 0.931 . S
H1393 C1381 0.929 . S
H1394 C1382 0.960 . S
H1395 C1382 0.962 . S
H1396 C1382 0.960 . S
H1397 C1383 0.961 . S
H1398 C1383 0.961 . S
H1399 C1383 0.961 . S
H1400 C1384 0.931 . S
H1401 C1389 0.930 . S
H1402 C1390 0.956 . S
H1403 C1390 0.961 . S
H1404 C1390 0.961 . S
H1405 C1391 0.958 . S
H1406 C1391 0.961 . S
H1407 C1391 0.960 . S
C1408 C1409 1.391 . S
C1408 C1410 1.394 . S
C1408 H1424 0.931 . S
C1409 C1408 1.391 . S
C1409 C1413 1.376 . S
C1410 C1408 1.394 . S
C1410 C1411 1.369 . S
C1410 C1414 1.531 . S
C1411 C1410 1.369 . S
C1411 C1412 1.410 . S
C1411 C1419 1.503 . S
C1412 C1411 1.410 . S
C1412 C1413 1.392 . S
C1412 C1415 1.511 . S
C1413 C1409 1.376 . S
C1413 C1412 1.392 . S
C1413 H1425 0.929 . S
C1414 C1410 1.531 . S
C1414 H1426 0.960 . S
C1414 H1427 0.962 . S
C1414 H1428 0.960 . S
C1415 C1412 1.511 . S
C1415 H1429 0.961 . S
C1415 H1430 0.961 . S
C1415 H1431 0.961 . S
C1416 C1417 1.370 . S
C1416 C1418 1.363 . S
C1416 H1432 0.931 . S
C1417 C1416 1.370 . S
C1417 C1421 1.408 . S
C1418 C1416 1.363 . S
C1418 C1419 1.370 . S
C1418 C1422 1.524 . S
C1419 C1411 1.503 . S
C1419 C1418 1.370 . S
C1419 C1420 1.403 . S
C1420 C1419 1.403 . S
C1420 C1421 1.404 . S
C1420 C1423 1.539 . S
C1421 C1417 1.408 . S
C1421 C1420 1.404 . S
C1421 H1433 0.930 . S
C1422 C1418 1.524 . S
C1422 H1434 0.956 . S
C1422 H1435 0.961 . S
C1422 H1436 0.961 . S
C1423 C1420 1.539 . S
C1423 H1437 0.958 . S
C1423 H1438 0.961 . S
C1423 H1439 0.960 . S
H1424 C1408 0.931 . S
H1425 C1413 0.929 . S
H1426 C1414 0.960 . S
H1427 C1414 0.962 . S
H1428 C1414 0.960 . S
H1429 C1415 0.961 . S
H1430 C1415 0.961 . S
H1431 C1415 0.961 . S
H1432 C1416 0.931 . S
H1433 C1421 0.930 . S
H1434 C1422 0.956 . S
H1435 C1422 0.961 . S
H1436 C1422 0.961 . S
H1437 C1423 0.958 . S
H1438 C1423 0.961 . S
H1439 C1423 0.960 . S
C1440 C1441 1.391 . S
C1440 C1442 1.394 . S
C1440 H1456 0.931 . S
C1441 C1440 1.391 . S
C1441 C1445 1.376 . S
C1442 C1440 1.394 . S
C1442 C1443 1.369 . S
C1442 C1446 1.531 . S
C1443 C1442 1.369 . S
C1443 C1444 1.410 . S
C1443 C1451 1.503 . S
C1444 C1443 1.410 . S
C1444 C1445 1.392 . S
C1444 C1447 1.511 . S
C1445 C1441 1.376 . S
C1445 C1444 1.392 . S
C1445 H1457 0.929 . S
C1446 C1442 1.531 . S
C1446 H1458 0.960 . S
C1446 H1459 0.962 . S
C1446 H1460 0.960 . S
C1447 C1444 1.511 . S
C1447 H1461 0.961 . S
C1447 H1462 0.961 . S
C1447 H1463 0.961 . S
C1448 C1449 1.370 . S
C1448 C1450 1.363 . S
C1448 H1464 0.931 . S
C1449 C1448 1.370 . S
C1449 C1453 1.408 . S
C1450 C1448 1.363 . S
C1450 C1451 1.370 . S
C1450 C1454 1.524 . S
C1451 C1443 1.503 . S
C1451 C1450 1.370 . S
C1451 C1452 1.403 . S
C1452 C1451 1.403 . S
C1452 C1453 1.404 . S
C1452 C1455 1.539 . S
C1453 C1449 1.408 . S
C1453 C1452 1.404 . S
C1453 H1465 0.930 . S
C1454 C1450 1.524 . S
C1454 H1466 0.956 . S
C1454 H1467 0.961 . S
C1454 H1468 0.961 . S
C1455 C1452 1.539 . S
C1455 H1469 0.958 . S
C1455 H1470 0.961 . S
C1455 H1471 0.960 . S
H1456 C1440 0.931 . S
H1457 C1445 0.929 . S
H1458 C1446 0.960 . S
H1459 C1446 0.962 . S
H1460 C1446 0.960 . S
H1461 C1447 0.961 . S
H1462 C1447 0.961 . S
H1463 C1447 0.961 . S
H1464 C1448 0.931 . S
H1465 C1453 0.930 . S
H1466 C1454 0.956 . S
H1467 C1454 0.961 . S
H1468 C1454 0.961 . S
H1469 C1455 0.958 . S
H1470 C1455 0.961 . S
H1471 C1455 0.960 . S
C1472 C1473 1.391 . S
C1472 C1474 1.394 . S
C1472 H1488 0.931 . S
C1473 C1472 1.391 . S
C1473 C1477 1.376 . S
C1474 C1472 1.394 . S
C1474 C1475 1.369 . S
C1474 C1478 1.531 . S
C1475 C1474 1.369 . S
C1475 C1476 1.410 . S
C1475 C1483 1.503 1_556 S
C1476 C1475 1.410 . S
C1476 C1477 1.392 . S
C1476 C1479 1.511 . S
C1477 C1473 1.376 . S
C1477 C1476 1.392 . S
C1477 H1489 0.929 . S
C1478 C1474 1.531 . S
C1478 H1490 0.960 1_556 S
C1478 H1491 0.962 . S
C1478 H1492 0.960 . S
C1479 C1476 1.511 . S
C1479 H1493 0.961 . S
C1479 H1494 0.961 1_556 S
C1479 H1495 0.961 . S
C1480 C1481 1.370 . S
C1480 C1482 1.363 . S
C1480 H1496 0.931 . S
C1481 C1480 1.370 . S
C1481 C1485 1.408 . S
C1482 C1480 1.363 . S
C1482 C1483 1.370 . S
C1482 C1486 1.524 . S
C1483 C1475 1.503 1_554 S
C1483 C1482 1.370 . S
C1483 C1484 1.403 . S
C1484 C1483 1.403 . S
C1484 C1485 1.404 . S
C1484 C1487 1.539 . S
C1485 C1481 1.408 . S
C1485 C1484 1.404 . S
C1485 H1497 0.930 . S
C1486 C1482 1.524 . S
C1486 H1498 0.956 . S
C1486 H1499 0.938 1_554 S
C1486 H1500 0.961 . S
C1487 C1484 1.539 . S
C1487 H1501 0.958 . S
C1487 H1502 0.961 . S
C1487 H1503 0.948 1_554 S
H1488 C1472 0.931 . S
H1489 C1477 0.929 . S
H1490 C1478 0.960 1_554 S
H1491 C1478 0.962 . S
H1492 C1478 0.960 . S
H1493 C1479 0.961 . S
H1494 C1479 0.961 1_554 S
H1495 C1479 0.961 . S
H1496 C1480 0.931 . S
H1497 C1485 0.930 . S
H1498 C1486 0.956 . S
H1499 C1486 0.938 1_556 S
H1500 C1486 0.961 . S
H1501 C1487 0.958 . S
H1502 C1487 0.961 . S
H1503 C1487 0.948 1_556 S
C1504 C1505 1.391 . S
C1504 C1506 1.394 . S
C1504 H1520 0.931 . S
C1505 C1504 1.391 . S
C1505 C1509 1.376 . S
C1506 C1504 1.394 . S
C1506 C1507 1.369 . S
C1506 C1510 1.531 . S
C1507 C1506 1.369 . S
C1507 C1508 1.410 . S
C1507 C1515 1.503 . S
C1508 C1507 1.410 . S
C1508 C1509 1.392 . S
C1508 C1511 1.511 . S
C1509 C1505 1.376 . S
C1509 C1508 1.392 . S
C1509 H1521 0.929 . S
C1510 C1506 1.531 . S
C1510 H1522 0.960 . S
C1510 H1523 0.962 . S
C1510 H1524 0.960 . S
C1511 C1508 1.511 . S
C1511 H1525 0.961 . S
C1511 H1526 0.961 . S
C1511 H1527 0.961 . S
C1512 C1513 1.370 . S
C1512 C1514 1.363 . S
C1512 H1528 0.931 . S
C1513 C1512 1.370 . S
C1513 C1517 1.408 . S
C1514 C1512 1.363 . S
C1514 C1515 1.370 . S
C1514 C1518 1.524 . S
C1515 C1507 1.503 . S
C1515 C1514 1.370 . S
C1515 C1516 1.403 . S
C1516 C1515 1.403 . S
C1516 C1517 1.404 . S
C1516 C1519 1.539 . S
C1517 C1513 1.408 . S
C1517 C1516 1.404 . S
C1517 H1529 0.930 . S
C1518 C1514 1.524 . S
C1518 H1530 0.956 . S
C1518 H1531 0.961 . S
C1518 H1532 0.961 . S
C1519 C1516 1.539 . S
C1519 H1533 0.958 . S
C1519 H1534 0.961 . S
C1519 H1535 0.960 . S
H1520 C1504 0.931 . S
H1521 C1509 0.929 . S
H1522 C1510 0.960 . S
H1523 C1510 0.962 . S
H1524 C1510 0.960 . S
H1525 C1511 0.961 . S
H1526 C1511 0.961 . S
H1527 C1511 0.961 . S
H1528 C1512 0.931 . S
H1529 C1517 0.930 . S
H1530 C1518 0.956 . S
H1531 C1518 0.961 . S
H1532 C1518 0.961 . S
H1533 C1519 0.958 . S
H1534 C1519 0.961 . S
H1535 C1519 0.960 . S
C1536 C1537 1.391 . S
C1536 C1538 1.394 . S
C1536 H1552 0.931 . S
C1537 C1536 1.391 . S
C1537 C1541 1.376 . S
C1538 C1536 1.394 . S
C1538 C1539 1.369 . S
C1538 C1542 1.531 . S
C1539 C1538 1.369 . S
C1539 C1540 1.410 . S
C1539 C1547 1.503 1_556 S
C1540 C1539 1.410 . S
C1540 C1541 1.392 . S
C1540 C1543 1.511 . S
C1541 C1537 1.376 . S
C1541 C1540 1.392 . S
C1541 H1553 0.929 . S
C1542 C1538 1.531 . S
C1542 H1554 0.960 1_556 S
C1542 H1555 0.962 . S
C1542 H1556 0.960 . S
C1543 C1540 1.511 . S
C1543 H1557 0.961 . S
C1543 H1558 0.961 1_556 S
C1543 H1559 0.961 . S
C1544 C1545 1.370 . S
C1544 C1546 1.363 . S
C1544 H1560 0.931 . S
C1545 C1544 1.370 . S
C1545 C1549 1.408 . S
C1546 C1544 1.363 . S
C1546 C1547 1.370 . S
C1546 C1550 1.524 . S
C1547 C1539 1.503 1_554 S
C1547 C1546 1.370 . S
C1547 C1548 1.403 . S
C1548 C1547 1.403 . S
C1548 C1549 1.404 . S
C1548 C1551 1.539 . S
C1549 C1545 1.408 . S
C1549 C1548 1.404 . S
C1549 H1561 0.930 . S
C1550 C1546 1.524 . S
C1550 H1562 0.956 . S
C1550 H1563 0.961 . S
C1550 H1564 0.961 . S
C1551 C1548 1.539 . S
C1551 H1565 0.958 . S
C1551 H1566 0.961 . S
C1551 H1567 0.960 . S
H1552 C1536 0.931 . S
H1553 C1541 0.929 . S
H1554 C1542 0.960 1_554 S
H1555 C1542 0.962 . S
H1556 C1542 0.960 . S
H1557 C1543 0.961 . S
H1558 C1543 0.961 1_554 S
H1559 C1543 0.961 . S
H1560 C1544 0.931 . S
H1561 C1549 0.930 . S
H1562 C1550 0.956 . S
H1563 C1550 0.961 . S
H1564 C1550 0.961 . S
H1565 C1551 0.958 . S
H1566 C1551 0.961 . S
H1567 C1551 0.960 . S
C1568 C1569 1.391 . S
C1568 C1570 1.394 . S
C1568 H1584 0.931 . S
C1569 C1568 1.391 . S
C1569 C1573 1.376 . S
C1570 C1568 1.394 . S
C1570 C1571 1.369 . S
C1570 C1574 1.531 . S
C1571 C1570 1.369 . S
C1571 C1572 1.410 . S
C1571 C1579 1.503 . S
C1572 C1571 1.410 . S
C1572 C1573 1.392 . S
C1572 C1575 1.511 . S
C1573 C1569 1.376 . S
C1573 C1572 1.392 . S
C1573 H1585 0.929 . S
C1574 C1570 1.531 . S
C1574 H1586 0.960 . S
C1574 H1587 0.962 . S
C1574 H1588 0.960 . S
C1575 C1572 1.511 . S
C1575 H1589 0.961 . S
C1575 H1590 0.961 . S
C1575 H1591 0.961 . S
C1576 C1577 1.370 . S
C1576 C1578 1.363 . S
C1576 H1592 0.931 . S
C1577 C1576 1.370 . S
C1577 C1581 1.408 . S
C1578 C1576 1.363 . S
C1578 C1579 1.370 . S
C1578 C1582 1.524 . S
C1579 C1571 1.503 . S
C1579 C1578 1.370 . S
C1579 C1580 1.403 . S
C1580 C1579 1.403 . S
C1580 C1581 1.404 . S
C1580 C1583 1.539 . S
C1581 C1577 1.408 . S
C1581 C1580 1.404 . S
C1581 H1593 0.930 . S
C1582 C1578 1.524 . S
C1582 H1594 0.956 . S
C1582 H1595 0.961 . S
C1582 H1596 0.961 . S
C1583 C1580 1.539 . S
C1583 H1597 0.958 . S
C1583 H1598 0.961 . S
C1583 H1599 0.960 . S
H1584 C1568 0.931 . S
H1585 C1573 0.929 . S
H1586 C1574 0.960 . S
H1587 C1574 0.962 . S
H1588 C1574 0.960 . S
H1589 C1575 0.961 . S
H1590 C1575 0.961 . S
H1591 C1575 0.961 . S
H1592 C1576 0.931 . S
H1593 C1581 0.930 . S
H1594 C1582 0.956 . S
H1595 C1582 0.961 . S
H1596 C1582 0.961 . S
H1597 C1583 0.958 . S
H1598 C1583 0.961 . S
H1599 C1583 0.960 . S
C1600 C1601 1.391 . S
C1600 C1602 1.394 . S
C1600 H1616 0.931 . S
C1601 C1600 1.391 . S
C1601 C1605 1.376 . S
C1602 C1600 1.394 . S
C1602 C1603 1.369 . S
C1602 C1606 1.531 . S
C1603 C1602 1.369 . S
C1603 C1604 1.410 . S
C1603 C1611 1.503 1_556 S
C1604 C1603 1.410 . S
C1604 C1605 1.392 . S
C1604 C1607 1.511 . S
C1605 C1601 1.376 . S
C1605 C1604 1.392 . S
C1605 H1617 0.929 . S
C1606 C1602 1.531 . S
C1606 H1618 0.948 1_556 S
C1606 H1619 0.962 . S
C1606 H1620 0.960 . S
C1607 C1604 1.511 . S
C1607 H1621 0.961 . S
C1607 H1622 0.961 1_556 S
C1607 H1623 0.961 . S
C1608 C1609 1.370 . S
C1608 C1610 1.363 . S
C1608 H1624 0.931 . S
C1609 C1608 1.370 . S
C1609 C1613 1.408 . S
C1610 C1608 1.363 . S
C1610 C1611 1.370 . S
C1610 C1614 1.524 . S
C1611 C1603 1.503 1_554 S
C1611 C1610 1.370 . S
C1611 C1612 1.403 . S
C1612 C1611 1.403 . S
C1612 C1613 1.404 . S
C1612 C1615 1.539 . S
C1613 C1609 1.408 . S
C1613 C1612 1.404 . S
C1613 H1625 0.930 . S
C1614 C1610 1.524 . S
C1614 H1626 0.950 1_554 S
C1614 H1627 0.961 1_554 S
C1614 H1628 0.961 . S
C1615 C1612 1.539 . S
C1615 H1629 0.958 . S
C1615 H1630 0.961 . S
C1615 H1631 0.946 1_554 S
H1616 C1600 0.931 . S
H1617 C1605 0.929 . S
H1618 C1606 0.948 1_554 S
H1619 C1606 0.962 . S
H1620 C1606 0.960 . S
H1621 C1607 0.961 . S
H1622 C1607 0.961 1_554 S
H1623 C1607 0.961 . S
H1624 C1608 0.931 . S
H1625 C1613 0.930 . S
H1626 C1614 0.950 1_556 S
H1627 C1614 0.961 1_556 S
H1628 C1614 0.961 . S
H1629 C1615 0.958 . S
H1630 C1615 0.961 . S
H1631 C1615 0.946 1_556 S
C1632 C1633 1.391 . S
C1632 C1634 1.394 . S
C1632 H1648 0.931 . S
C1633 C1632 1.391 . S
C1633 C1637 1.376 . S
C1634 C1632 1.394 . S
C1634 C1635 1.369 . S
C1634 C1638 1.531 . S
C1635 C1634 1.369 . S
C1635 C1636 1.410 . S
C1635 C1643 1.503 . S
C1636 C1635 1.410 . S
C1636 C1637 1.392 . S
C1636 C1639 1.511 . S
C1637 C1633 1.376 . S
C1637 C1636 1.392 . S
C1637 H1649 0.929 . S
C1638 C1634 1.531 . S
C1638 H1650 0.960 . S
C1638 H1651 0.962 . S
C1638 H1652 0.960 . S
C1639 C1636 1.511 . S
C1639 H1653 0.961 . S
C1639 H1654 0.961 . S
C1639 H1655 0.961 . S
C1640 C1641 1.370 . S
C1640 C1642 1.363 . S
C1640 H1656 0.931 . S
C1641 C1640 1.370 . S
C1641 C1645 1.408 . S
C1642 C1640 1.363 . S
C1642 C1643 1.370 . S
C1642 C1646 1.524 . S
C1643 C1635 1.503 . S
C1643 C1642 1.370 . S
C1643 C1644 1.403 . S
C1644 C1643 1.403 . S
C1644 C1645 1.404 . S
C1644 C1647 1.539 . S
C1645 C1641 1.408 . S
C1645 C1644 1.404 . S
C1645 H1657 0.930 . S
C1646 C1642 1.524 . S
C1646 H1658 0.956 . S
C1646 H1659 0.961 . S
C1646 H1660 0.961 . S
C1647 C1644 1.539 . S
C1647 H1661 0.958 . S
C1647 H1662 0.961 . S
C1647 H1663 0.960 . S
H1648 C1632 0.931 . S
H1649 C1637 0.929 . S
H1650 C1638 0.960 . S
H1651 C1638 0.962 . S
H1652 C1638 0.960 . S
H1653 C1639 0.961 . S
H1654 C1639 0.961 . S
H1655 C1639 0.961 . S
H1656 C1640 0.931 . S
H1657 C1645 0.930 . S
H1658 C1646 0.956 . S
H1659 C1646 0.961 . S
H1660 C1646 0.961 . S
H1661 C1647 0.958 . S
H1662 C1647 0.961 . S
H1663 C1647 0.960 . S
C1664 C1665 1.391 . S
C1664 C1666 1.394 . S
C1664 H1680 0.931 . S
C1665 C1664 1.391 . S
C1665 C1669 1.376 . S
C1666 C1664 1.394 . S
C1666 C1667 1.369 . S
C1666 C1670 1.531 . S
C1667 C1666 1.369 . S
C1667 C1668 1.410 . S
C1667 C1675 1.503 1_556 S
C1668 C1667 1.410 . S
C1668 C1669 1.392 . S
C1668 C1671 1.511 . S
C1669 C1665 1.376 . S
C1669 C1668 1.392 . S
C1669 H1681 0.929 . S
C1670 C1666 1.531 . S
C1670 H1682 0.960 . S
C1670 H1683 0.962 . S
C1670 H1684 0.960 . S
C1671 C1668 1.511 . S
C1671 H1685 0.961 . S
C1671 H1686 0.961 . S
C1671 H1687 0.961 . S
C1672 C1673 1.370 . S
C1672 C1674 1.363 . S
C1672 H1688 0.931 . S
C1673 C1672 1.370 . S
C1673 C1677 1.408 . S
C1674 C1672 1.363 . S
C1674 C1675 1.370 . S
C1674 C1678 1.524 . S
C1675 C1667 1.503 1_554 S
C1675 C1674 1.370 . S
C1675 C1676 1.403 . S
C1676 C1675 1.403 . S
C1676 C1677 1.404 . S
C1676 C1679 1.539 . S
C1677 C1673 1.408 . S
C1677 C1676 1.404 . S
C1677 H1689 0.930 . S
C1678 C1674 1.524 . S
C1678 H1690 0.956 1_554 S
C1678 H1691 0.961 1_554 S
C1678 H1692 0.961 . S
C1679 C1676 1.539 . S
C1679 H1693 0.958 . S
C1679 H1694 0.961 . S
C1679 H1695 0.960 1_554 S
H1680 C1664 0.931 . S
H1681 C1669 0.929 . S
H1682 C1670 0.960 . S
H1683 C1670 0.962 . S
H1684 C1670 0.960 . S
H1685 C1671 0.961 . S
H1686 C1671 0.961 . S
H1687 C1671 0.961 . S
H1688 C1672 0.931 . S
H1689 C1677 0.930 . S
H1690 C1678 0.956 1_556 S
H1691 C1678 0.961 1_556 S
H1692 C1678 0.961 . S
H1693 C1679 0.958 . S
H1694 C1679 0.961 . S
H1695 C1679 0.960 1_556 S
C1696 C1697 1.391 . S
C1696 C1698 1.394 . S
C1696 H1712 0.931 . S
C1697 C1696 1.391 . S
C1697 C1701 1.376 . S
C1698 C1696 1.394 . S
C1698 C1699 1.369 . S
C1698 C1702 1.531 . S
C1699 C1698 1.369 . S
C1699 C1700 1.410 . S
C1699 C1707 1.503 . S
C1700 C1699 1.410 . S
C1700 C1701 1.392 . S
C1700 C1703 1.511 . S
C1701 C1697 1.376 . S
C1701 C1700 1.392 . S
C1701 H1713 0.929 . S
C1702 C1698 1.531 . S
C1702 H1714 0.960 . S
C1702 H1715 0.962 . S
C1702 H1716 0.960 . S
C1703 C1700 1.511 . S
C1703 H1717 0.961 . S
C1703 H1718 0.961 . S
C1703 H1719 0.961 . S
C1704 C1705 1.370 . S
C1704 C1706 1.363 . S
C1704 H1720 0.931 . S
C1705 C1704 1.370 . S
C1705 C1709 1.408 . S
C1706 C1704 1.363 . S
C1706 C1707 1.370 . S
C1706 C1710 1.524 . S
C1707 C1699 1.503 . S
C1707 C1706 1.370 . S
C1707 C1708 1.403 . S
C1708 C1707 1.403 . S
C1708 C1709 1.404 . S
C1708 C1711 1.539 . S
C1709 C1705 1.408 . S
C1709 C1708 1.404 . S
C1709 H1721 0.930 . S
C1710 C1706 1.524 . S
C1710 H1722 0.956 . S
C1710 H1723 0.961 . S
C1710 H1724 0.961 . S
C1711 C1708 1.539 . S
C1711 H1725 0.958 . S
C1711 H1726 0.961 . S
C1711 H1727 0.960 . S
H1712 C1696 0.931 . S
H1713 C1701 0.929 . S
H1714 C1702 0.960 . S
H1715 C1702 0.962 . S
H1716 C1702 0.960 . S
H1717 C1703 0.961 . S
H1718 C1703 0.961 . S
H1719 C1703 0.961 . S
H1720 C1704 0.931 . S
H1721 C1709 0.930 . S
H1722 C1710 0.956 . S
H1723 C1710 0.961 . S
H1724 C1710 0.961 . S
H1725 C1711 0.958 . S
H1726 C1711 0.961 . S
H1727 C1711 0.960 . S
C1728 C1729 1.391 . S
C1728 C1730 1.394 . S
C1728 H1744 0.931 . S
C1729 C1728 1.391 . S
C1729 C1733 1.376 . S
C1730 C1728 1.394 . S
C1730 C1731 1.369 . S
C1730 C1734 1.531 . S
C1731 C1730 1.369 . S
C1731 C1732 1.410 . S
C1731 C1739 1.503 1_565 S
C1732 C1731 1.410 . S
C1732 C1733 1.392 . S
C1732 C1735 1.511 . S
C1733 C1729 1.376 . S
C1733 C1732 1.392 . S
C1733 H1745 0.929 . S
C1734 C1730 1.531 . S
C1734 H1746 0.960 1_565 S
C1734 H1747 0.962 . S
C1734 H1748 0.960 . S
C1735 C1732 1.511 . S
C1735 H1749 0.961 . S
C1735 H1750 0.961 1_565 S
C1735 H1751 0.961 . S
C1736 C1737 1.370 . S
C1736 C1738 1.363 . S
C1736 H1752 0.931 . S
C1737 C1736 1.370 . S
C1737 C1741 1.408 . S
C1738 C1736 1.363 . S
C1738 C1739 1.370 . S
C1738 C1742 1.524 . S
C1739 C1731 1.503 1_545 S
C1739 C1738 1.370 . S
C1739 C1740 1.403 . S
C1740 C1739 1.403 . S
C1740 C1741 1.404 . S
C1740 C1743 1.539 . S
C1741 C1737 1.408 . S
C1741 C1740 1.404 . S
C1741 H1753 0.930 . S
C1742 C1738 1.524 . S
C1742 H1754 0.956 . S
C1742 H1755 0.963 1_545 S
C1742 H1756 0.961 . S
C1743 C1740 1.539 . S
C1743 H1757 0.958 . S
C1743 H1758 0.961 . S
C1743 H1759 0.960 . S
H1744 C1728 0.931 . S
H1745 C1733 0.929 . S
H1746 C1734 0.960 1_545 S
H1747 C1734 0.962 . S
H1748 C1734 0.960 . S
H1749 C1735 0.961 . S
H1750 C1735 0.961 1_545 S
H1751 C1735 0.961 . S
H1752 C1736 0.931 . S
H1753 C1741 0.930 . S
H1754 C1742 0.956 . S
H1755 C1742 0.963 1_565 S
H1756 C1742 0.961 . S
H1757 C1743 0.958 . S
H1758 C1743 0.961 . S
H1759 C1743 0.960 . S
C1760 C1761 1.391 . S
C1760 C1762 1.394 . S
C1760 H1776 0.931 . S
C1761 C1760 1.391 . S
C1761 C1765 1.376 . S
C1762 C1760 1.394 . S
C1762 C1763 1.369 . S
C1762 C1766 1.531 . S
C1763 C1762 1.369 . S
C1763 C1764 1.410 . S
C1763 C1771 1.503 . S
C1764 C1763 1.410 . S
C1764 C1765 1.392 . S
C1764 C1767 1.511 . S
C1765 C1761 1.376 . S
C1765 C1764 1.392 . S
C1765 H1777 0.929 . S
C1766 C1762 1.531 . S
C1766 H1778 0.960 . S
C1766 H1779 0.962 . S
C1766 H1780 0.960 . S
C1767 C1764 1.511 . S
C1767 H1781 0.961 . S
C1767 H1782 0.961 . S
C1767 H1783 0.961 . S
C1768 C1769 1.370 . S
C1768 C1770 1.363 . S
C1768 H1784 0.931 . S
C1769 C1768 1.370 . S
C1769 C1773 1.408 . S
C1770 C1768 1.363 . S
C1770 C1771 1.370 . S
C1770 C1774 1.524 . S
C1771 C1763 1.503 . S
C1771 C1770 1.370 . S
C1771 C1772 1.403 . S
C1772 C1771 1.403 . S
C1772 C1773 1.404 . S
C1772 C1775 1.539 . S
C1773 C1769 1.408 . S
C1773 C1772 1.404 . S
C1773 H1785 0.930 . S
C1774 C1770 1.524 . S
C1774 H1786 0.956 . S
C1774 H1787 0.961 . S
C1774 H1788 0.961 . S
C1775 C1772 1.539 . S
C1775 H1789 0.958 . S
C1775 H1790 0.961 . S
C1775 H1791 0.960 . S
H1776 C1760 0.931 . S
H1777 C1765 0.929 . S
H1778 C1766 0.960 . S
H1779 C1766 0.962 . S
H1780 C1766 0.960 . S
H1781 C1767 0.961 . S
H1782 C1767 0.961 . S
H1783 C1767 0.961 . S
H1784 C1768 0.931 . S
H1785 C1773 0.930 . S
H1786 C1774 0.956 . S
H1787 C1774 0.961 . S
H1788 C1774 0.961 . S
H1789 C1775 0.958 . S
H1790 C1775 0.961 . S
H1791 C1775 0.960 . S
C1792 C1793 1.391 . S
C1792 C1794 1.394 . S
C1792 H1808 0.931 . S
C1793 C1792 1.391 . S
C1793 C1797 1.376 . S
C1794 C1792 1.394 . S
C1794 C1795 1.369 . S
C1794 C1798 1.531 . S
C1795 C1794 1.369 . S
C1795 C1796 1.410 . S
C1795 C1803 1.503 1_545 S
C1796 C1795 1.410 . S
C1796 C1797 1.392 . S
C1796 C1799 1.511 . S
C1797 C1793 1.376 . S
C1797 C1796 1.392 . S
C1797 H1809 0.929 . S
C1798 C1794 1.531 . S
C1798 H1810 0.960 1_545 S
C1798 H1811 0.962 . S
C1798 H1812 0.960 . S
C1799 C1796 1.511 . S
C1799 H1813 0.961 . S
C1799 H1814 0.961 1_545 S
C1799 H1815 0.961 . S
C1800 C1801 1.370 . S
C1800 C1802 1.363 . S
C1800 H1816 0.931 . S
C1801 C1800 1.370 . S
C1801 C1805 1.408 . S
C1802 C1800 1.363 . S
C1802 C1803 1.370 . S
C1802 C1806 1.524 . S
C1803 C1795 1.503 1_565 S
C1803 C1802 1.370 . S
C1803 C1804 1.403 . S
C1804 C1803 1.403 . S
C1804 C1805 1.404 . S
C1804 C1807 1.539 . S
C1805 C1801 1.408 . S
C1805 C1804 1.404 . S
C1805 H1817 0.930 . S
C1806 C1802 1.524 . S
C1806 H1818 0.956 . S
C1806 H1819 0.961 . S
C1806 H1820 0.961 . S
C1807 C1804 1.539 . S
C1807 H1821 0.958 . S
C1807 H1822 0.961 . S
C1807 H1823 0.960 . S
H1808 C1792 0.931 . S
H1809 C1797 0.929 . S
H1810 C1798 0.960 1_565 S
H1811 C1798 0.962 . S
H1812 C1798 0.960 . S
H1813 C1799 0.961 . S
H1814 C1799 0.961 1_565 S
H1815 C1799 0.961 . S
H1816 C1800 0.931 . S
H1817 C1805 0.930 . S
H1818 C1806 0.956 . S
H1819 C1806 0.961 . S
H1820 C1806 0.961 . S
H1821 C1807 0.958 . S
H1822 C1807 0.961 . S
H1823 C1807 0.960 . S
C1824 C1825 1.391 . S
C1824 C1826 1.394 . S
C1824 H1840 0.931 . S
C1825 C1824 1.391 . S
C1825 C1829 1.376 . S
C1826 C1824 1.394 . S
C1826 C1827 1.369 . S
C1826 C1830 1.531 . S
C1827 C1826 1.369 . S
C1827 C1828 1.410 . S
C1827 C1835 1.503 . S
C1828 C1827 1.410 . S
C1828 C1829 1.392 . S
C1828 C1831 1.511 . S
C1829 C1825 1.376 . S
C1829 C1828 1.392 . S
C1829 H1841 0.929 . S
C1830 C1826 1.531 . S
C1830 H1842 0.960 . S
C1830 H1843 0.962 . S
C1830 H1844 0.960 . S
C1831 C1828 1.511 . S
C1831 H1845 0.961 . S
C1831 H1846 0.961 . S
C1831 H1847 0.961 . S
C1832 C1833 1.370 . S
C1832 C1834 1.363 . S
C1832 H1848 0.931 . S
C1833 C1832 1.370 . S
C1833 C1837 1.408 . S
C1834 C1832 1.363 . S
C1834 C1835 1.370 . S
C1834 C1838 1.524 . S
C1835 C1827 1.503 . S
C1835 C1834 1.370 . S
C1835 C1836 1.403 . S
C1836 C1835 1.403 . S
C1836 C1837 1.404 . S
C1836 C1839 1.539 . S
C1837 C1833 1.408 . S
C1837 C1836 1.404 . S
C1837 H1849 0.930 . S
C1838 C1834 1.524 . S
C1838 H1850 0.956 . S
C1838 H1851 0.961 . S
C1838 H1852 0.961 . S
C1839 C1836 1.539 . S
C1839 H1853 0.958 . S
C1839 H1854 0.961 . S
C1839 H1855 0.960 . S
H1840 C1824 0.931 . S
H1841 C1829 0.929 . S
H1842 C1830 0.960 . S
H1843 C1830 0.962 . S
H1844 C1830 0.960 . S
H1845 C1831 0.961 . S
H1846 C1831 0.961 . S
H1847 C1831 0.961 . S
H1848 C1832 0.931 . S
H1849 C1837 0.930 . S
H1850 C1838 0.956 . S
H1851 C1838 0.961 . S
H1852 C1838 0.961 . S
H1853 C1839 0.958 . S
H1854 C1839 0.961 . S
H1855 C1839 0.960 . S
C1856 C1857 1.391 . S
C1856 C1858 1.394 . S
C1856 H1872 0.931 . S
C1857 C1856 1.391 . S
C1857 C1861 1.376 . S
C1858 C1856 1.394 . S
C1858 C1859 1.369 . S
C1858 C1862 1.531 . S
C1859 C1858 1.369 . S
C1859 C1860 1.410 . S
C1859 C1867 1.503 1_565 S
C1860 C1859 1.410 . S
C1860 C1861 1.392 . S
C1860 C1863 1.511 . S
C1861 C1857 1.376 . S
C1861 C1860 1.392 . S
C1861 H1873 0.929 . S
C1862 C1858 1.531 . S
C1862 H1874 0.960 1_565 S
C1862 H1875 0.962 . S
C1862 H1876 0.960 . S
C1863 C1860 1.511 . S
C1863 H1877 0.961 . S
C1863 H1878 0.961 1_565 S
C1863 H1879 0.961 . S
C1864 C1865 1.370 . S
C1864 C1866 1.363 . S
C1864 H1880 0.931 . S
C1865 C1864 1.370 . S
C1865 C1869 1.408 . S
C1866 C1864 1.363 . S
C1866 C1867 1.370 . S
C1866 C1870 1.524 . S
C1867 C1859 1.503 1_545 S
C1867 C1866 1.370 . S
C1867 C1868 1.403 . S
C1868 C1867 1.403 . S
C1868 C1869 1.404 . S
C1868 C1871 1.539 . S
C1869 C1865 1.408 . S
C1869 C1868 1.404 . S
C1869 H1881 0.930 . S
C1870 C1866 1.524 . S
C1870 H1882 0.956 . S
C1870 H1883 0.961 . S
C1870 H1884 0.961 . S
C1871 C1868 1.539 . S
C1871 H1885 0.958 . S
C1871 H1886 0.961 . S
C1871 H1887 0.960 . S
H1872 C1856 0.931 . S
H1873 C1861 0.929 . S
H1874 C1862 0.960 1_545 S
H1875 C1862 0.962 . S
H1876 C1862 0.960 . S
H1877 C1863 0.961 . S
H1878 C1863 0.961 1_545 S
H1879 C1863 0.961 . S
H1880 C1864 0.931 . S
H1881 C1869 0.930 . S
H1882 C1870 0.956 . S
H1883 C1870 0.961 . S
H1884 C1870 0.961 . S
H1885 C1871 0.958 . S
H1886 C1871 0.961 . S
H1887 C1871 0.960 . S
C1888 C1889 1.391 . S
C1888 C1890 1.394 . S
C1888 H1904 0.931 . S
C1889 C1888 1.391 . S
C1889 C1893 1.376 . S
C1890 C1888 1.394 . S
C1890 C1891 1.369 . S
C1890 C1894 1.531 . S
C1891 C1890 1.369 . S
C1891 C1892 1.410 . S
C1891 C1899 1.503 . S
C1892 C1891 1.410 . S
C1892 C1893 1.392 . S
C1892 C1895 1.511 . S
C1893 C1889 1.376 . S
C1893 C1892 1.392 . S
C1893 H1905 0.929 . S
C1894 C1890 1.531 . S
C1894 H1906 0.960 . S
C1894 H1907 0.962 . S
C1894 H1908 0.960 . S
C1895 C1892 1.511 . S
C1895 H1909 0.961 . S
C1895 H1910 0.961 . S
C1895 H1911 0.961 . S
C1896 C1897 1.370 . S
C1896 C1898 1.363 . S
C1896 H1912 0.931 . S
C1897 C1896 1.370 . S
C1897 C1901 1.408 . S
C1898 C1896 1.363 . S
C1898 C1899 1.370 . S
C1898 C1902 1.524 . S
C1899 C1891 1.503 . S
C1899 C1898 1.370 . S
C1899 C1900 1.403 . S
C1900 C1899 1.403 . S
C1900 C1901 1.404 . S
C1900 C1903 1.539 . S
C1901 C1897 1.408 . S
C1901 C1900 1.404 . S
C1901 H1913 0.930 . S
C1902 C1898 1.524 . S
C1902 H1914 0.956 . S
C1902 H1915 0.961 . S
C1902 H1916 0.961 . S
C1903 C1900 1.539 . S
C1903 H1917 0.958 . S
C1903 H1918 0.961 . S
C1903 H1919 0.960 . S
H1904 C1888 0.931 . S
H1905 C1893 0.929 . S
H1906 C1894 0.960 . S
H1907 C1894 0.962 . S
H1908 C1894 0.960 . S
H1909 C1895 0.961 . S
H1910 C1895 0.961 . S
H1911 C1895 0.961 . S
H1912 C1896 0.931 . S
H1913 C1901 0.930 . S
H1914 C1902 0.956 . S
H1915 C1902 0.961 . S
H1916 C1902 0.961 . S
H1917 C1903 0.958 . S
H1918 C1903 0.961 . S
H1919 C1903 0.960 . S
C1920 C1921 1.391 . S
C1920 C1922 1.394 . S
C1920 H1936 0.931 . S
C1921 C1920 1.391 . S
C1921 C1925 1.376 . S
C1922 C1920 1.394 . S
C1922 C1923 1.369 . S
C1922 C1926 1.531 . S
C1923 C1922 1.369 . S
C1923 C1924 1.410 . S
C1923 C1931 1.503 1_565 S
C1924 C1923 1.410 . S
C1924 C1925 1.392 . S
C1924 C1927 1.511 . S
C1925 C1921 1.376 . S
C1925 C1924 1.392 . S
C1925 H1937 0.929 . S
C1926 C1922 1.531 . S
C1926 H1938 0.999 . S
C1926 H1939 0.962 . S
C1926 H1940 0.960 . S
C1927 C1924 1.511 . S
C1927 H1941 0.961 . S
C1927 H1942 0.961 . S
C1927 H1943 0.961 . S
C1928 C1929 1.370 . S
C1928 C1930 1.363 . S
C1928 H1944 0.931 . S
C1929 C1928 1.370 . S
C1929 C1933 1.408 . S
C1930 C1928 1.363 . S
C1930 C1931 1.370 . S
C1930 C1934 1.524 . S
C1931 C1923 1.503 1_545 S
C1931 C1930 1.370 . S
C1931 C1932 1.403 . S
C1932 C1931 1.403 . S
C1932 C1933 1.404 . S
C1932 C1935 1.539 . S
C1933 C1929 1.408 . S
C1933 C1932 1.404 . S
C1933 H1945 0.930 . S
C1934 C1930 1.524 . S
C1934 H1946 0.956 1_545 S
C1934 H1947 0.961 1_545 S
C1934 H1948 0.961 . S
C1935 C1932 1.539 . S
C1935 H1949 0.958 . S
C1935 H1950 0.961 . S
C1935 H1951 0.960 1_545 S
H1936 C1920 0.931 . S
H1937 C1925 0.929 . S
H1938 C1926 0.999 . S
H1939 C1926 0.962 . S
H1940 C1926 0.960 . S
H1941 C1927 0.961 . S
H1942 C1927 0.961 . S
H1943 C1927 0.961 . S
H1944 C1928 0.931 . S
H1945 C1933 0.930 . S
H1946 C1934 0.956 1_565 S
H1947 C1934 0.961 1_565 S
H1948 C1934 0.961 . S
H1949 C1935 0.958 . S
H1950 C1935 0.961 . S
H1951 C1935 0.960 1_565 S
C1952 C1953 1.391 . S
C1952 C1954 1.394 . S
C1952 H1968 0.931 . S
C1953 C1952 1.391 . S
C1953 C1957 1.376 . S
C1954 C1952 1.394 . S
C1954 C1955 1.369 . S
C1954 C1958 1.531 . S
C1955 C1954 1.369 . S
C1955 C1956 1.410 . S
C1955 C1963 1.503 . S
C1956 C1955 1.410 . S
C1956 C1957 1.392 . S
C1956 C1959 1.511 . S
C1957 C1953 1.376 . S
C1957 C1956 1.392 . S
C1957 H1969 0.929 . S
C1958 C1954 1.531 . S
C1958 H1970 0.960 . S
C1958 H1971 0.962 . S
C1958 H1972 0.960 . S
C1959 C1956 1.511 . S
C1959 H1973 0.961 . S
C1959 H1974 0.961 . S
C1959 H1975 0.961 . S
C1960 C1961 1.370 . S
C1960 C1962 1.363 . S
C1960 H1976 0.931 . S
C1961 C1960 1.370 . S
C1961 C1965 1.408 . S
C1962 C1960 1.363 . S
C1962 C1963 1.370 . S
C1962 C1966 1.524 . S
C1963 C1955 1.503 . S
C1963 C1962 1.370 . S
C1963 C1964 1.403 . S
C1964 C1963 1.403 . S
C1964 C1965 1.404 . S
C1964 C1967 1.539 . S
C1965 C1961 1.408 . S
C1965 C1964 1.404 . S
C1965 H1977 0.930 . S
C1966 C1962 1.524 . S
C1966 H1978 0.956 . S
C1966 H1979 0.961 . S
C1966 H1980 0.961 . S
C1967 C1964 1.539 . S
C1967 H1981 0.958 . S
C1967 H1982 0.961 . S
C1967 H1983 0.960 . S
H1968 C1952 0.931 . S
H1969 C1957 0.929 . S
H1970 C1958 0.960 . S
H1971 C1958 0.962 . S
H1972 C1958 0.960 . S
H1973 C1959 0.961 . S
H1974 C1959 0.961 . S
H1975 C1959 0.961 . S
H1976 C1960 0.931 . S
H1977 C1965 0.930 . S
H1978 C1966 0.956 . S
H1979 C1966 0.961 . S
H1980 C1966 0.961 . S
H1981 C1967 0.958 . S
H1982 C1967 0.961 . S
H1983 C1967 0.960 . S
C1984 C1985 1.391 . S
C1984 C1986 1.394 . S
C1984 H2000 0.931 . S
C1985 C1984 1.391 . S
C1985 C1989 1.376 . S
C1986 C1984 1.394 . S
C1986 C1987 1.369 . S
C1986 C1990 1.531 . S
C1987 C1986 1.369 . S
C1987 C1988 1.410 . S
C1987 C1995 1.503 . S
C1988 C1987 1.410 . S
C1988 C1989 1.392 . S
C1988 C1991 1.511 . S
C1989 C1985 1.376 . S
C1989 C1988 1.392 . S
C1989 H2001 0.929 . S
C1990 C1986 1.531 . S
C1990 H2002 0.960 . S
C1990 H2003 0.962 . S
C1990 H2004 0.960 . S
C1991 C1988 1.511 . S
C1991 H2005 0.961 . S
C1991 H2006 0.961 . S
C1991 H2007 0.961 . S
C1992 C1993 1.370 . S
C1992 C1994 1.363 . S
C1992 H2008 0.931 . S
C1993 C1992 1.370 . S
C1993 C1997 1.408 . S
C1994 C1992 1.363 . S
C1994 C1995 1.370 . S
C1994 C1998 1.524 . S
C1995 C1987 1.503 . S
C1995 C1994 1.370 . S
C1995 C1996 1.403 . S
C1996 C1995 1.403 . S
C1996 C1997 1.404 . S
C1996 C1999 1.539 . S
C1997 C1993 1.408 . S
C1997 C1996 1.404 . S
C1997 H2009 0.930 . S
C1998 C1994 1.524 . S
C1998 H2010 0.956 . S
C1998 H2011 0.961 . S
C1998 H2012 0.961 . S
C1999 C1996 1.539 . S
C1999 H2013 0.958 . S
C1999 H2014 0.961 . S
C1999 H2015 0.960 . S
H2000 C1984 0.931 . S
H2001 C1989 0.929 . S
H2002 C1990 0.960 . S
H2003 C1990 0.962 . S
H2004 C1990 0.960 . S
H2005 C1991 0.961 . S
H2006 C1991 0.961 . S
H2007 C1991 0.961 . S
H2008 C1992 0.931 . S
H2009 C1997 0.930 . S
H2010 C1998 0.956 . S
H2011 C1998 0.961 . S
H2012 C1998 0.961 . S
H2013 C1999 0.958 . S
H2014 C1999 0.961 . S
H2015 C1999 0.960 . S
C2016 C2017 1.391 . S
C2016 C2018 1.394 . S
C2016 H2032 0.931 . S
C2017 C2016 1.391 . S
C2017 C2021 1.376 . S
C2018 C2016 1.394 . S
C2018 C2019 1.369 . S
C2018 C2022 1.531 . S
C2019 C2018 1.369 . S
C2019 C2020 1.410 . S
C2019 C2027 1.503 1_455 S
C2020 C2019 1.410 . S
C2020 C2021 1.392 . S
C2020 C2023 1.511 . S
C2021 C2017 1.376 . S
C2021 C2020 1.392 . S
C2021 H2033 0.929 . S
C2022 C2018 1.531 . S
C2022 H2034 0.960 . S
C2022 H2035 0.962 . S
C2022 H2036 0.960 . S
C2023 C2020 1.511 . S
C2023 H2037 0.961 . S
C2023 H2038 1.007 . S
C2023 H2039 0.961 . S
C2024 C2025 1.370 . S
C2024 C2026 1.363 . S
C2024 H2040 0.931 . S
C2025 C2024 1.370 . S
C2025 C2029 1.408 . S
C2026 C2024 1.363 . S
C2026 C2027 1.370 . S
C2026 C2030 1.524 . S
C2027 C2019 1.503 1_655 S
C2027 C2026 1.370 . S
C2027 C2028 1.403 . S
C2028 C2027 1.403 . S
C2028 C2029 1.404 . S
C2028 C2031 1.539 . S
C2029 C2025 1.408 . S
C2029 C2028 1.404 . S
C2029 H2041 0.930 . S
C2030 C2026 1.524 . S
C2030 H2042 0.956 1_655 S
C2030 H2043 0.961 1_655 S
C2030 H2044 0.961 . S
C2031 C2028 1.539 . S
C2031 H2045 0.958 . S
C2031 H2046 0.961 . S
C2031 H2047 0.960 1_655 S
H2032 C2016 0.931 . S
H2033 C2021 0.929 . S
H2034 C2022 0.960 . S
H2035 C2022 0.962 . S
H2036 C2022 0.960 . S
H2037 C2023 0.961 . S
H2038 C2023 1.007 . S
H2039 C2023 0.961 . S
H2040 C2024 0.931 . S
H2041 C2029 0.930 . S
H2042 C2030 0.956 1_455 S
H2043 C2030 0.961 1_455 S
H2044 C2030 0.961 . S
H2045 C2031 0.958 . S
H2046 C2031 0.961 . S
H2047 C2031 0.960 1_455 S
C2048 C2049 1.391 . S
C2048 C2050 1.394 . S
C2048 H2064 0.931 . S
C2049 C2048 1.391 . S
C2049 C2053 1.376 . S
C2050 C2048 1.394 . S
C2050 C2051 1.369 . S
C2050 C2054 1.531 . S
C2051 C2050 1.369 . S
C2051 C2052 1.410 . S
C2051 C2059 1.503 . S
C2052 C2051 1.410 . S
C2052 C2053 1.392 . S
C2052 C2055 1.511 . S
C2053 C2049 1.376 . S
C2053 C2052 1.392 . S
C2053 H2065 0.929 . S
C2054 C2050 1.531 . S
C2054 H2066 0.960 . S
C2054 H2067 0.962 . S
C2054 H2068 0.960 . S
C2055 C2052 1.511 . S
C2055 H2069 0.961 . S
C2055 H2070 0.961 . S
C2055 H2071 0.961 . S
C2056 C2057 1.370 . S
C2056 C2058 1.363 . S
C2056 H2072 0.931 . S
C2057 C2056 1.370 . S
C2057 C2061 1.408 . S
C2058 C2056 1.363 . S
C2058 C2059 1.370 . S
C2058 C2062 1.524 . S
C2059 C2051 1.503 . S
C2059 C2058 1.370 . S
C2059 C2060 1.403 . S
C2060 C2059 1.403 . S
C2060 C2061 1.404 . S
C2060 C2063 1.539 . S
C2061 C2057 1.408 . S
C2061 C2060 1.404 . S
C2061 H2073 0.930 . S
C2062 C2058 1.524 . S
C2062 H2074 0.956 . S
C2062 H2075 0.961 . S
C2062 H2076 0.961 . S
C2063 C2060 1.539 . S
C2063 H2077 0.958 . S
C2063 H2078 0.961 . S
C2063 H2079 0.960 . S
H2064 C2048 0.931 . S
H2065 C2053 0.929 . S
H2066 C2054 0.960 . S
H2067 C2054 0.962 . S
H2068 C2054 0.960 . S
H2069 C2055 0.961 . S
H2070 C2055 0.961 . S
H2071 C2055 0.961 . S
H2072 C2056 0.931 . S
H2073 C2061 0.930 . S
H2074 C2062 0.956 . S
H2075 C2062 0.961 . S
H2076 C2062 0.961 . S
H2077 C2063 0.958 . S
H2078 C2063 0.961 . S
H2079 C2063 0.960 . S
C2080 C2081 1.391 . S
C2080 C2082 1.394 . S
C2080 H2096 0.931 . S
C2081 C2080 1.391 . S
C2081 C2085 1.376 . S
C2082 C2080 1.394 . S
C2082 C2083 1.369 . S
C2082 C2086 1.531 . S
C2083 C2082 1.369 . S
C2083 C2084 1.410 . S
C2083 C2091 1.503 1_455 S
C2084 C2083 1.410 . S
C2084 C2085 1.392 . S
C2084 C2087 1.511 . S
C2085 C2081 1.376 . S
C2085 C2084 1.392 . S
C2085 H2097 0.929 . S
C2086 C2082 1.531 . S
C2086 H2098 0.960 1_455 S
C2086 H2099 0.962 . S
C2086 H2100 0.960 . S
C2087 C2084 1.511 . S
C2087 H2101 0.961 . S
C2087 H2102 0.961 1_455 S
C2087 H2103 0.961 . S
C2088 C2089 1.370 . S
C2088 C2090 1.363 . S
C2088 H2104 0.931 . S
C2089 C2088 1.370 . S
C2089 C2093 1.408 . S
C2090 C2088 1.363 . S
C2090 C2091 1.370 . S
C2090 C2094 1.524 . S
C2091 C2083 1.503 1_655 S
C2091 C2090 1.370 . S
C2091 C2092 1.403 . S
C2092 C2091 1.403 . S
C2092 C2093 1.404 . S
C2092 C2095 1.539 . S
C2093 C2089 1.408 . S
C2093 C2092 1.404 . S
C2093 H2105 0.930 . S
C2094 C2090 1.524 . S
C2094 H2106 0.956 . S
C2094 H2107 0.961 . S
C2094 H2108 0.961 . S
C2095 C2092 1.539 . S
C2095 H2109 0.958 . S
C2095 H2110 0.961 . S
C2095 H2111 0.960 . S
H2096 C2080 0.931 . S
H2097 C2085 0.929 . S
H2098 C2086 0.960 1_655 S
H2099 C2086 0.962 . S
H2100 C2086 0.960 . S
H2101 C2087 0.961 . S
H2102 C2087 0.961 1_655 S
H2103 C2087 0.961 . S
H2104 C2088 0.931 . S
H2105 C2093 0.930 . S
H2106 C2094 0.956 . S
H2107 C2094 0.961 . S
H2108 C2094 0.961 . S
H2109 C2095 0.958 . S
H2110 C2095 0.961 . S
H2111 C2095 0.960 . S
C2112 C2113 1.391 . S
C2112 C2114 1.394 . S
C2112 H2128 0.931 . S
C2113 C2112 1.391 . S
C2113 C2117 1.376 . S
C2114 C2112 1.394 . S
C2114 C2115 1.369 . S
C2114 C2118 1.531 . S
C2115 C2114 1.369 . S
C2115 C2116 1.410 . S
C2115 C2123 1.503 . S
C2116 C2115 1.410 . S
C2116 C2117 1.392 . S
C2116 C2119 1.511 . S
C2117 C2113 1.376 . S
C2117 C2116 1.392 . S
C2117 H2129 0.929 . S
C2118 C2114 1.531 . S
C2118 H2130 0.960 . S
C2118 H2131 0.962 . S
C2118 H2132 0.960 . S
C2119 C2116 1.511 . S
C2119 H2133 0.961 . S
C2119 H2134 0.961 . S
C2119 H2135 0.961 . S
C2120 C2121 1.370 . S
C2120 C2122 1.363 . S
C2120 H2136 0.931 . S
C2121 C2120 1.370 . S
C2121 C2125 1.408 . S
C2122 C2120 1.363 . S
C2122 C2123 1.370 . S
C2122 C2126 1.524 . S
C2123 C2115 1.503 . S
C2123 C2122 1.370 . S
C2123 C2124 1.403 . S
C2124 C2123 1.403 . S
C2124 C2125 1.404 . S
C2124 C2127 1.539 . S
C2125 C2121 1.408 . S
C2125 C2124 1.404 . S
C2125 H2137 0.930 . S
C2126 C2122 1.524 . S
C2126 H2138 0.956 . S
C2126 H2139 0.961 . S
C2126 H2140 0.961 . S
C2127 C2124 1.539 . S
C2127 H2141 0.958 . S
C2127 H2142 0.961 . S
C2127 H2143 0.960 . S
H2128 C2112 0.931 . S
H2129 C2117 0.929 . S
H2130 C2118 0.960 . S
H2131 C2118 0.962 . S
H2132 C2118 0.960 . S
H2133 C2119 0.961 . S
H2134 C2119 0.961 . S
H2135 C2119 0.961 . S
H2136 C2120 0.931 . S
H2137 C2125 0.930 . S
H2138 C2126 0.956 . S
H2139 C2126 0.961 . S
H2140 C2126 0.961 . S
H2141 C2127 0.958 . S
H2142 C2127 0.961 . S
H2143 C2127 0.960 . S
C2144 C2145 1.391 . S
C2144 C2146 1.394 . S
C2144 H2160 0.931 . S
C2145 C2144 1.391 . S
C2145 C2149 1.376 . S
C2146 C2144 1.394 . S
C2146 C2147 1.369 . S
C2146 C2150 1.531 . S
C2147 C2146 1.369 . S
C2147 C2148 1.410 . S
C2147 C2155 1.503 1_655 S
C2148 C2147 1.410 . S
C2148 C2149 1.392 . S
C2148 C2151 1.511 . S
C2149 C2145 1.376 . S
C2149 C2148 1.392 . S
C2149 H2161 0.929 . S
C2150 C2146 1.531 . S
C2150 H2162 0.960 1_655 S
C2150 H2163 0.962 . S
C2150 H2164 0.960 . S
C2151 C2148 1.511 . S
C2151 H2165 0.961 . S
C2151 H2166 0.961 1_655 S
C2151 H2167 0.961 . S
C2152 C2153 1.370 . S
C2152 C2154 1.363 . S
C2152 H2168 0.931 . S
C2153 C2152 1.370 . S
C2153 C2157 1.408 . S
C2154 C2152 1.363 . S
C2154 C2155 1.370 . S
C2154 C2158 1.524 . S
C2155 C2147 1.503 1_455 S
C2155 C2154 1.370 . S
C2155 C2156 1.403 . S
C2156 C2155 1.403 . S
C2156 C2157 1.404 . S
C2156 C2159 1.539 . S
C2157 C2153 1.408 . S
C2157 C2156 1.404 . S
C2157 H2169 0.930 . S
C2158 C2154 1.524 . S
C2158 H2170 0.956 . S
C2158 H2171 0.961 1_455 S
C2158 H2172 0.961 . S
C2159 C2156 1.539 . S
C2159 H2173 0.958 . S
C2159 H2174 0.961 . S
C2159 H2175 0.984 . S
H2160 C2144 0.931 . S
H2161 C2149 0.929 . S
H2162 C2150 0.960 1_455 S
H2163 C2150 0.962 . S
H2164 C2150 0.960 . S
H2165 C2151 0.961 . S
H2166 C2151 0.961 1_455 S
H2167 C2151 0.961 . S
H2168 C2152 0.931 . S
H2169 C2157 0.930 . S
H2170 C2158 0.956 . S
H2171 C2158 0.961 1_655 S
H2172 C2158 0.961 . S
H2173 C2159 0.958 . S
H2174 C2159 0.961 . S
H2175 C2159 0.984 . S
C2176 C2177 1.391 . S
C2176 C2178 1.394 . S
C2176 H2192 0.931 . S
C2177 C2176 1.391 . S
C2177 C2181 1.376 . S
C2178 C2176 1.394 . S
C2178 C2179 1.369 . S
C2178 C2182 1.531 . S
C2179 C2178 1.369 . S
C2179 C2180 1.410 . S
C2179 C2187 1.503 1_455 S
C2180 C2179 1.410 . S
C2180 C2181 1.392 . S
C2180 C2183 1.511 . S
C2181 C2177 1.376 . S
C2181 C2180 1.392 . S
C2181 H2193 0.929 . S
C2182 C2178 1.531 . S
C2182 H2194 0.918 1_455 S
C2182 H2195 0.962 . S
C2182 H2196 0.960 . S
C2183 C2180 1.511 . S
C2183 H2197 0.961 . S
C2183 H2198 0.961 1_455 S
C2183 H2199 0.961 . S
C2184 C2185 1.370 . S
C2184 C2186 1.363 . S
C2184 H2200 0.931 . S
C2185 C2184 1.370 . S
C2185 C2189 1.408 . S
C2186 C2184 1.363 . S
C2186 C2187 1.370 . S
C2186 C2190 1.524 . S
C2187 C2179 1.503 1_655 S
C2187 C2186 1.370 . S
C2187 C2188 1.403 . S
C2188 C2187 1.403 . S
C2188 C2189 1.404 . S
C2188 C2191 1.539 . S
C2189 C2185 1.408 . S
C2189 C2188 1.404 . S
C2189 H2201 0.930 . S
C2190 C2186 1.524 . S
C2190 H2202 0.943 1_655 S
C2190 H2203 0.961 1_655 S
C2190 H2204 0.961 . S
C2191 C2188 1.539 . S
C2191 H2205 0.958 . S
C2191 H2206 0.961 . S
C2191 H2207 0.972 . S
H2192 C2176 0.931 . S
H2193 C2181 0.929 . S
H2194 C2182 0.918 1_655 S
H2195 C2182 0.962 . S
H2196 C2182 0.960 . S
H2197 C2183 0.961 . S
H2198 C2183 0.961 1_655 S
H2199 C2183 0.961 . S
H2200 C2184 0.931 . S
H2201 C2189 0.930 . S
H2202 C2190 0.943 1_455 S
H2203 C2190 0.961 1_455 S
H2204 C2190 0.961 . S
H2205 C2191 0.958 . S
H2206 C2191 0.961 . S
H2207 C2191 0.972 . S
C2208 C2209 1.391 . S
C2208 C2210 1.394 . S
C2208 H2224 0.931 . S
C2209 C2208 1.391 . S
C2209 C2213 1.376 . S
C2210 C2208 1.394 . S
C2210 C2211 1.369 . S
C2210 C2214 1.531 . S
C2211 C2210 1.369 . S
C2211 C2212 1.410 . S
C2211 C2219 1.503 1_655 S
C2212 C2211 1.410 . S
C2212 C2213 1.392 . S
C2212 C2215 1.511 . S
C2213 C2209 1.376 . S
C2213 C2212 1.392 . S
C2213 H2225 0.929 . S
C2214 C2210 1.531 . S
C2214 H2226 0.960 . S
C2214 H2227 0.962 . S
C2214 H2228 0.960 . S
C2215 C2212 1.511 . S
C2215 H2229 0.961 . S
C2215 H2230 0.985 . S
C2215 H2231 0.961 . S
C2216 C2217 1.370 . S
C2216 C2218 1.363 . S
C2216 H2232 0.931 . S
C2217 C2216 1.370 . S
C2217 C2221 1.408 . S
C2218 C2216 1.363 . S
C2218 C2219 1.370 . S
C2218 C2222 1.524 . S
C2219 C2211 1.503 1_455 S
C2219 C2218 1.370 . S
C2219 C2220 1.403 . S
C2220 C2219 1.403 . S
C2220 C2221 1.404 . S
C2220 C2223 1.539 . S
C2221 C2217 1.408 . S
C2221 C2220 1.404 . S
C2221 H2233 0.930 . S
C2222 C2218 1.524 . S
C2222 H2234 0.956 1_455 S
C2222 H2235 0.961 1_455 S
C2222 H2236 0.961 . S
C2223 C2220 1.539 . S
C2223 H2237 0.958 . S
C2223 H2238 0.961 . S
C2223 H2239 0.960 1_455 S
H2224 C2208 0.931 . S
H2225 C2213 0.929 . S
H2226 C2214 0.960 . S
H2227 C2214 0.962 . S
H2228 C2214 0.960 . S
H2229 C2215 0.961 . S
H2230 C2215 0.985 . S
H2231 C2215 0.961 . S
H2232 C2216 0.931 . S
H2233 C2221 0.930 . S
H2234 C2222 0.956 1_655 S
H2235 C2222 0.961 1_655 S
H2236 C2222 0.961 . S
H2237 C2223 0.958 . S
H2238 C2223 0.961 . S
H2239 C2223 0.960 1_655 S
C2240 C2241 1.391 . S
C2240 C2242 1.394 . S
C2240 H2256 0.931 . S
C2241 C2240 1.391 . S
C2241 C2245 1.376 . S
C2242 C2240 1.394 . S
C2242 C2243 1.369 . S
C2242 C2246 1.531 . S
C2243 C2242 1.369 . S
C2243 C2244 1.410 . S
C2243 C2251 1.503 . S
C2244 C2243 1.410 . S
C2244 C2245 1.392 . S
C2244 C2247 1.511 . S
C2245 C2241 1.376 . S
C2245 C2244 1.392 . S
C2245 H2257 0.929 . S
C2246 C2242 1.531 . S
C2246 H2258 0.960 . S
C2246 H2259 0.962 . S
C2246 H2260 0.960 . S
C2247 C2244 1.511 . S
C2247 H2261 0.961 . S
C2247 H2262 0.961 . S
C2247 H2263 0.961 . S
C2248 C2249 1.370 . S
C2248 C2250 1.363 . S
C2248 H2264 0.931 . S
C2249 C2248 1.370 . S
C2249 C2253 1.408 . S
C2250 C2248 1.363 . S
C2250 C2251 1.370 . S
C2250 C2254 1.524 . S
C2251 C2243 1.503 . S
C2251 C2250 1.370 . S
C2251 C2252 1.403 . S
C2252 C2251 1.403 . S
C2252 C2253 1.404 . S
C2252 C2255 1.539 . S
C2253 C2249 1.408 . S
C2253 C2252 1.404 . S
C2253 H2265 0.930 . S
C2254 C2250 1.524 . S
C2254 H2266 0.956 . S
C2254 H2267 0.961 . S
C2254 H2268 0.961 . S
C2255 C2252 1.539 . S
C2255 H2269 0.958 . S
C2255 H2270 0.961 . S
C2255 H2271 0.960 . S
H2256 C2240 0.931 . S
H2257 C2245 0.929 . S
H2258 C2246 0.960 . S
H2259 C2246 0.962 . S
H2260 C2246 0.960 . S
H2261 C2247 0.961 . S
H2262 C2247 0.961 . S
H2263 C2247 0.961 . S
H2264 C2248 0.931 . S
H2265 C2253 0.930 . S
H2266 C2254 0.956 . S
H2267 C2254 0.961 . S
H2268 C2254 0.961 . S
H2269 C2255 0.958 . S
H2270 C2255 0.961 . S
H2271 C2255 0.960 . S
C2272 C2273 1.391 . S
C2272 C2274 1.394 . S
C2272 H2288 0.931 . S
C2273 C2272 1.391 . S
C2273 C2277 1.376 . S
C2274 C2272 1.394 . S
C2274 C2275 1.369 . S
C2274 C2278 1.531 . S
C2275 C2274 1.369 . S
C2275 C2276 1.410 . S
C2275 C2283 1.503 1_455 S
C2276 C2275 1.410 . S
C2276 C2277 1.392 . S
C2276 C2279 1.511 . S
C2277 C2273 1.376 . S
C2277 C2276 1.392 . S
C2277 H2289 0.929 . S
C2278 C2274 1.531 . S
C2278 H2290 0.960 1_455 S
C2278 H2291 0.962 . S
C2278 H2292 0.960 . S
C2279 C2276 1.511 . S
C2279 H2293 0.961 . S
C2279 H2294 0.929 1_455 S
C2279 H2295 0.961 . S
C2280 C2281 1.370 . S
C2280 C2282 1.363 . S
C2280 H2296 0.931 . S
C2281 C2280 1.370 . S
C2281 C2285 1.408 . S
C2282 C2280 1.363 . S
C2282 C2283 1.370 . S
C2282 C2286 1.524 . S
C2283 C2275 1.503 1_655 S
C2283 C2282 1.370 . S
C2283 C2284 1.403 . S
C2284 C2283 1.403 . S
C2284 C2285 1.404 . S
C2284 C2287 1.539 . S
C2285 C2281 1.408 . S
C2285 C2284 1.404 . S
C2285 H2297 0.930 . S
C2286 C2282 1.524 . S
C2286 H2298 0.956 . S
C2286 H2299 0.961 1_655 S
C2286 H2300 0.961 . S
C2287 C2284 1.539 . S
C2287 H2301 0.958 . S
C2287 H2302 0.961 . S
C2287 H2303 0.960 1_655 S
H2288 C2272 0.931 . S
H2289 C2277 0.929 . S
H2290 C2278 0.960 1_655 S
H2291 C2278 0.962 . S
H2292 C2278 0.960 . S
H2293 C2279 0.961 . S
H2294 C2279 0.929 1_655 S
H2295 C2279 0.961 . S
H2296 C2280 0.931 . S
H2297 C2285 0.930 . S
H2298 C2286 0.956 . S
H2299 C2286 0.961 1_455 S
H2300 C2286 0.961 . S
H2301 C2287 0.958 . S
H2302 C2287 0.961 . S
H2303 C2287 0.960 1_455 S
C2304 C2305 1.391 . S
C2304 C2306 1.394 . S
C2304 H2320 0.931 . S
C2305 C2304 1.391 . S
C2305 C2309 1.376 . S
C2306 C2304 1.394 . S
C2306 C2307 1.369 . S
C2306 C2310 1.531 . S
C2307 C2306 1.369 . S
C2307 C2308 1.410 . S
C2307 C2315 1.503 . S
C2308 C2307 1.410 . S
C2308 C2309 1.392 . S
C2308 C2311 1.511 . S
C2309 C2305 1.376 . S
C2309 C2308 1.392 . S
C2309 H2321 0.929 . S
C2310 C2306 1.531 . S
C2310 H2322 0.960 . S
C2310 H2323 0.962 . S
C2310 H2324 0.960 . S
C2311 C2308 1.511 . S
C2311 H2325 0.961 . S
C2311 H2326 0.961 . S
C2311 H2327 0.961 . S
C2312 C2313 1.370 . S
C2312 C2314 1.363 . S
C2312 H2328 0.931 . S
C2313 C2312 1.370 . S
C2313 C2317 1.408 . S
C2314 C2312 1.363 . S
C2314 C2315 1.370 . S
C2314 C2318 1.524 . S
C2315 C2307 1.503 . S
C2315 C2314 1.370 . S
C2315 C2316 1.403 . S
C2316 C2315 1.403 . S
C2316 C2317 1.404 . S
C2316 C2319 1.539 . S
C2317 C2313 1.408 . S
C2317 C2316 1.404 . S
C2317 H2329 0.930 . S
C2318 C2314 1.524 . S
C2318 H2330 0.956 . S
C2318 H2331 0.961 . S
C2318 H2332 0.961 . S
C2319 C2316 1.539 . S
C2319 H2333 0.958 . S
C2319 H2334 0.961 . S
C2319 H2335 0.960 . S
H2320 C2304 0.931 . S
H2321 C2309 0.929 . S
H2322 C2310 0.960 . S
H2323 C2310 0.962 . S
H2324 C2310 0.960 . S
H2325 C2311 0.961 . S
H2326 C2311 0.961 . S
H2327 C2311 0.961 . S
H2328 C2312 0.931 . S
H2329 C2317 0.930 . S
H2330 C2318 0.956 . S
H2331 C2318 0.961 . S
H2332 C2318 0.961 . S
H2333 C2319 0.958 . S
H2334 C2319 0.961 . S
H2335 C2319 0.960 . S
C2336 C2337 1.391 . S
C2336 C2338 1.394 . S
C2336 H2352 0.931 . S
C2337 C2336 1.391 . S
C2337 C2341 1.376 . S
C2338 C2336 1.394 . S
C2338 C2339 1.369 . S
C2338 C2342 1.531 . S
C2339 C2338 1.369 . S
C2339 C2340 1.410 . S
C2339 C2347 1.503 1_655 S
C2340 C2339 1.410 . S
C2340 C2341 1.392 . S
C2340 C2343 1.511 . S
C2341 C2337 1.376 . S
C2341 C2340 1.392 . S
C2341 H2353 0.929 . S
C2342 C2338 1.531 . S
C2342 H2354 0.960 1_655 S
C2342 H2355 0.962 . S
C2342 H2356 0.960 . S
C2343 C2340 1.511 . S
C2343 H2357 0.961 . S
C2343 H2358 0.961 1_655 S
C2343 H2359 0.961 . S
C2344 C2345 1.370 . S
C2344 C2346 1.363 . S
C2344 H2360 0.931 . S
C2345 C2344 1.370 . S
C2345 C2349 1.408 . S
C2346 C2344 1.363 . S
C2346 C2347 1.370 . S
C2346 C2350 1.524 . S
C2347 C2339 1.503 1_455 S
C2347 C2346 1.370 . S
C2347 C2348 1.403 . S
C2348 C2347 1.403 . S
C2348 C2349 1.404 . S
C2348 C2351 1.539 . S
C2349 C2345 1.408 . S
C2349 C2348 1.404 . S
C2349 H2361 0.930 . S
C2350 C2346 1.524 . S
C2350 H2362 0.956 . S
C2350 H2363 0.961 . S
C2350 H2364 0.961 . S
C2351 C2348 1.539 . S
C2351 H2365 0.958 . S
C2351 H2366 0.961 . S
C2351 H2367 0.960 . S
H2352 C2336 0.931 . S
H2353 C2341 0.929 . S
H2354 C2342 0.960 1_455 S
H2355 C2342 0.962 . S
H2356 C2342 0.960 . S
H2357 C2343 0.961 . S
H2358 C2343 0.961 1_455 S
H2359 C2343 0.961 . S
H2360 C2344 0.931 . S
H2361 C2349 0.930 . S
H2362 C2350 0.956 . S
H2363 C2350 0.961 . S
H2364 C2350 0.961 . S
H2365 C2351 0.958 . S
H2366 C2351 0.961 . S
H2367 C2351 0.960 . S
C2368 C2369 1.391 . S
C2368 C2370 1.394 . S
C2368 H2384 0.931 . S
C2369 C2368 1.391 . S
C2369 C2373 1.376 . S
C2370 C2368 1.394 . S
C2370 C2371 1.369 . S
C2370 C2374 1.531 . S
C2371 C2370 1.369 . S
C2371 C2372 1.410 . S
C2371 C2379 1.503 . S
C2372 C2371 1.410 . S
C2372 C2373 1.392 . S
C2372 C2375 1.511 . S
C2373 C2369 1.376 . S
C2373 C2372 1.392 . S
C2373 H2385 0.929 . S
C2374 C2370 1.531 . S
C2374 H2386 0.960 . S
C2374 H2387 0.962 . S
C2374 H2388 0.960 . S
C2375 C2372 1.511 . S
C2375 H2389 0.961 . S
C2375 H2390 0.961 . S
C2375 H2391 0.961 . S
C2376 C2377 1.370 . S
C2376 C2378 1.363 . S
C2376 H2392 0.931 . S
C2377 C2376 1.370 . S
C2377 C2381 1.408 . S
C2378 C2376 1.363 . S
C2378 C2379 1.370 . S
C2378 C2382 1.524 . S
C2379 C2371 1.503 . S
C2379 C2378 1.370 . S
C2379 C2380 1.403 . S
C2380 C2379 1.403 . S
C2380 C2381 1.404 . S
C2380 C2383 1.539 . S
C2381 C2377 1.408 . S
C2381 C2380 1.404 . S
C2381 H2393 0.930 . S
C2382 C2378 1.524 . S
C2382 H2394 0.956 . S
C2382 H2395 0.961 . S
C2382 H2396 0.961 . S
C2383 C2380 1.539 . S
C2383 H2397 0.958 . S
C2383 H2398 0.961 . S
C2383 H2399 0.960 . S
H2384 C2368 0.931 . S
H2385 C2373 0.929 . S
H2386 C2374 0.960 . S
H2387 C2374 0.962 . S
H2388 C2374 0.960 . S
H2389 C2375 0.961 . S
H2390 C2375 0.961 . S
H2391 C2375 0.961 . S
H2392 C2376 0.931 . S
H2393 C2381 0.930 . S
H2394 C2382 0.956 . S
H2395 C2382 0.961 . S
H2396 C2382 0.961 . S
H2397 C2383 0.958 . S
H2398 C2383 0.961 . S
H2399 C2383 0.960 . S
C2400 C2401 1.391 . S
C2400 C2402 1.394 . S
C2400 H2416 0.931 . S
C2401 C2400 1.391 . S
C2401 C2405 1.376 . S
C2402 C2400 1.394 . S
C2402 C2403 1.369 . S
C2402 C2406 1.531 . S
C2403 C2402 1.369 . S
C2403 C2404 1.410 . S
C2403 C2411 1.503 1_655 S
C2404 C2403 1.410 . S
C2404 C2405 1.392 . S
C2404 C2407 1.511 . S
C2405 C2401 1.376 . S
C2405 C2404 1.392 . S
C2405 H2417 0.929 . S
C2406 C2402 1.531 . S
C2406 H2418 0.960 1_655 S
C2406 H2419 0.962 . S
C2406 H2420 0.960 . S
C2407 C2404 1.511 . S
C2407 H2421 0.961 . S
C2407 H2422 0.961 1_655 S
C2407 H2423 0.961 . S
C2408 C2409 1.370 . S
C2408 C2410 1.363 . S
C2408 H2424 0.931 . S
C2409 C2408 1.370 . S
C2409 C2413 1.408 . S
C2410 C2408 1.363 . S
C2410 C2411 1.370 . S
C2410 C2414 1.524 . S
C2411 C2403 1.503 1_455 S
C2411 C2410 1.370 . S
C2411 C2412 1.403 . S
C2412 C2411 1.403 . S
C2412 C2413 1.404 . S
C2412 C2415 1.539 . S
C2413 C2409 1.408 . S
C2413 C2412 1.404 . S
C2413 H2425 0.930 . S
C2414 C2410 1.524 . S
C2414 H2426 0.956 . S
C2414 H2427 0.961 1_455 S
C2414 H2428 0.961 . S
C2415 C2412 1.539 . S
C2415 H2429 0.958 . S
C2415 H2430 0.961 . S
C2415 H2431 0.943 1_455 S
H2416 C2400 0.931 . S
H2417 C2405 0.929 . S
H2418 C2406 0.960 1_455 S
H2419 C2406 0.962 . S
H2420 C2406 0.960 . S
H2421 C2407 0.961 . S
H2422 C2407 0.961 1_455 S
H2423 C2407 0.961 . S
H2424 C2408 0.931 . S
H2425 C2413 0.930 . S
H2426 C2414 0.956 . S
H2427 C2414 0.961 1_655 S
H2428 C2414 0.961 . S
H2429 C2415 0.958 . S
H2430 C2415 0.961 . S
H2431 C2415 0.943 1_655 S
C2432 C2433 1.391 . S
C2432 C2434 1.394 . S
C2432 H2448 0.931 . S
C2433 C2432 1.391 . S
C2433 C2437 1.376 . S
C2434 C2432 1.394 . S
C2434 C2435 1.369 . S
C2434 C2438 1.531 . S
C2435 C2434 1.369 . S
C2435 C2436 1.410 . S
C2435 C2443 1.503 . S
C2436 C2435 1.410 . S
C2436 C2437 1.392 . S
C2436 C2439 1.511 . S
C2437 C2433 1.376 . S
C2437 C2436 1.392 . S
C2437 H2449 0.929 . S
C2438 C2434 1.531 . S
C2438 H2450 0.960 . S
C2438 H2451 0.962 . S
C2438 H2452 0.960 . S
C2439 C2436 1.511 . S
C2439 H2453 0.961 . S
C2439 H2454 0.961 . S
C2439 H2455 0.961 . S
C2440 C2441 1.370 . S
C2440 C2442 1.363 . S
C2440 H2456 0.931 . S
C2441 C2440 1.370 . S
C2441 C2445 1.408 . S
C2442 C2440 1.363 . S
C2442 C2443 1.370 . S
C2442 C2446 1.524 . S
C2443 C2435 1.503 . S
C2443 C2442 1.370 . S
C2443 C2444 1.403 . S
C2444 C2443 1.403 . S
C2444 C2445 1.404 . S
C2444 C2447 1.539 . S
C2445 C2441 1.408 . S
C2445 C2444 1.404 . S
C2445 H2457 0.930 . S
C2446 C2442 1.524 . S
C2446 H2458 0.956 . S
C2446 H2459 0.961 . S
C2446 H2460 0.961 . S
C2447 C2444 1.539 . S
C2447 H2461 0.958 . S
C2447 H2462 0.961 . S
C2447 H2463 0.960 . S
H2448 C2432 0.931 . S
H2449 C2437 0.929 . S
H2450 C2438 0.960 . S
H2451 C2438 0.962 . S
H2452 C2438 0.960 . S
H2453 C2439 0.961 . S
H2454 C2439 0.961 . S
H2455 C2439 0.961 . S
H2456 C2440 0.931 . S
H2457 C2445 0.930 . S
H2458 C2446 0.956 . S
H2459 C2446 0.961 . S
H2460 C2446 0.961 . S
H2461 C2447 0.958 . S
H2462 C2447 0.961 . S
H2463 C2447 0.960 . S
C2464 C2465 1.391 . S
C2464 C2466 1.394 . S
C2464 H2480 0.931 . S
C2465 C2464 1.391 . S
C2465 C2469 1.376 . S
C2466 C2464 1.394 . S
C2466 C2467 1.369 . S
C2466 C2470 1.531 . S
C2467 C2466 1.369 . S
C2467 C2468 1.410 . S
C2467 C2475 1.503 1_545 S
C2468 C2467 1.410 . S
C2468 C2469 1.392 . S
C2468 C2471 1.511 . S
C2469 C2465 1.376 . S
C2469 C2468 1.392 . S
C2469 H2481 0.929 . S
C2470 C2466 1.531 . S
C2470 H2482 0.960 1_545 S
C2470 H2483 0.962 . S
C2470 H2484 0.960 . S
C2471 C2468 1.511 . S
C2471 H2485 0.961 . S
C2471 H2486 0.961 1_545 S
C2471 H2487 0.961 . S
C2472 C2473 1.370 . S
C2472 C2474 1.363 . S
C2472 H2488 0.931 . S
C2473 C2472 1.370 . S
C2473 C2477 1.408 . S
C2474 C2472 1.363 . S
C2474 C2475 1.370 . S
C2474 C2478 1.524 . S
C2475 C2467 1.503 1_565 S
C2475 C2474 1.370 . S
C2475 C2476 1.403 . S
C2476 C2475 1.403 . S
C2476 C2477 1.404 . S
C2476 C2479 1.539 . S
C2477 C2473 1.408 . S
C2477 C2476 1.404 . S
C2477 H2489 0.930 . S
C2478 C2474 1.524 . S
C2478 H2490 0.956 . S
C2478 H2491 0.961 1_565 S
C2478 H2492 0.961 . S
C2479 C2476 1.539 . S
C2479 H2493 0.958 . S
C2479 H2494 0.961 . S
C2479 H2495 0.960 1_565 S
H2480 C2464 0.931 . S
H2481 C2469 0.929 . S
H2482 C2470 0.960 1_565 S
H2483 C2470 0.962 . S
H2484 C2470 0.960 . S
H2485 C2471 0.961 . S
H2486 C2471 0.961 1_565 S
H2487 C2471 0.961 . S
H2488 C2472 0.931 . S
H2489 C2477 0.930 . S
H2490 C2478 0.956 . S
H2491 C2478 0.961 1_545 S
H2492 C2478 0.961 . S
H2493 C2479 0.958 . S
H2494 C2479 0.961 . S
H2495 C2479 0.960 1_545 S
C2496 C2497 1.391 . S
C2496 C2498 1.394 . S
C2496 H2512 0.931 . S
C2497 C2496 1.391 . S
C2497 C2501 1.376 . S
C2498 C2496 1.394 . S
C2498 C2499 1.369 . S
C2498 C2502 1.531 . S
C2499 C2498 1.369 . S
C2499 C2500 1.410 . S
C2499 C2507 1.503 . S
C2500 C2499 1.410 . S
C2500 C2501 1.392 . S
C2500 C2503 1.511 . S
C2501 C2497 1.376 . S
C2501 C2500 1.392 . S
C2501 H2513 0.929 . S
C2502 C2498 1.531 . S
C2502 H2514 0.960 . S
C2502 H2515 0.962 . S
C2502 H2516 0.960 . S
C2503 C2500 1.511 . S
C2503 H2517 0.961 . S
C2503 H2518 0.961 . S
C2503 H2519 0.961 . S
C2504 C2505 1.370 . S
C2504 C2506 1.363 . S
C2504 H2520 0.931 . S
C2505 C2504 1.370 . S
C2505 C2509 1.408 . S
C2506 C2504 1.363 . S
C2506 C2507 1.370 . S
C2506 C2510 1.524 . S
C2507 C2499 1.503 . S
C2507 C2506 1.370 . S
C2507 C2508 1.403 . S
C2508 C2507 1.403 . S
C2508 C2509 1.404 . S
C2508 C2511 1.539 . S
C2509 C2505 1.408 . S
C2509 C2508 1.404 . S
C2509 H2521 0.930 . S
C2510 C2506 1.524 . S
C2510 H2522 0.956 . S
C2510 H2523 0.961 . S
C2510 H2524 0.961 . S
C2511 C2508 1.539 . S
C2511 H2525 0.958 . S
C2511 H2526 0.961 . S
C2511 H2527 0.960 . S
H2512 C2496 0.931 . S
H2513 C2501 0.929 . S
H2514 C2502 0.960 . S
H2515 C2502 0.962 . S
H2516 C2502 0.960 . S
H2517 C2503 0.961 . S
H2518 C2503 0.961 . S
H2519 C2503 0.961 . S
H2520 C2504 0.931 . S
H2521 C2509 0.930 . S
H2522 C2510 0.956 . S
H2523 C2510 0.961 . S
H2524 C2510 0.961 . S
H2525 C2511 0.958 . S
H2526 C2511 0.961 . S
H2527 C2511 0.960 . S
C2528 C2529 1.391 . S
C2528 C2530 1.394 . S
C2528 H2544 0.931 . S
C2529 C2528 1.391 . S
C2529 C2533 1.376 . S
C2530 C2528 1.394 . S
C2530 C2531 1.369 . S
C2530 C2534 1.531 . S
C2531 C2530 1.369 . S
C2531 C2532 1.410 . S
C2531 C2539 1.503 1_545 S
C2532 C2531 1.410 . S
C2532 C2533 1.392 . S
C2532 C2535 1.511 . S
C2533 C2529 1.376 . S
C2533 C2532 1.392 . S
C2533 H2545 0.929 . S
C2534 C2530 1.531 . S
C2534 H2546 0.960 1_545 S
C2534 H2547 0.962 . S
C2534 H2548 0.960 . S
C2535 C2532 1.511 . S
C2535 H2549 0.961 . S
C2535 H2550 0.961 1_545 S
C2535 H2551 0.961 . S
C2536 C2537 1.370 . S
C2536 C2538 1.363 . S
C2536 H2552 0.931 . S
C2537 C2536 1.370 . S
C2537 C2541 1.408 . S
C2538 C2536 1.363 . S
C2538 C2539 1.370 . S
C2538 C2542 1.524 . S
C2539 C2531 1.503 1_565 S
C2539 C2538 1.370 . S
C2539 C2540 1.403 . S
C2540 C2539 1.403 . S
C2540 C2541 1.404 . S
C2540 C2543 1.539 . S
C2541 C2537 1.408 . S
C2541 C2540 1.404 . S
C2541 H2553 0.930 . S
C2542 C2538 1.524 . S
C2542 H2554 0.985 . S
C2542 H2555 0.943 1_565 S
C2542 H2556 0.961 . S
C2543 C2540 1.539 . S
C2543 H2557 0.958 . S
C2543 H2558 0.961 . S
C2543 H2559 0.960 . S
H2544 C2528 0.931 . S
H2545 C2533 0.929 . S
H2546 C2534 0.960 1_565 S
H2547 C2534 0.962 . S
H2548 C2534 0.960 . S
H2549 C2535 0.961 . S
H2550 C2535 0.961 1_565 S
H2551 C2535 0.961 . S
H2552 C2536 0.931 . S
H2553 C2541 0.930 . S
H2554 C2542 0.985 . S
H2555 C2542 0.943 1_545 S
H2556 C2542 0.961 . S
H2557 C2543 0.958 . S
H2558 C2543 0.961 . S
H2559 C2543 0.960 . S
C2560 C2561 1.391 . S
C2560 C2562 1.394 . S
C2560 H2576 0.931 . S
C2561 C2560 1.391 . S
C2561 C2565 1.376 . S
C2562 C2560 1.394 . S
C2562 C2563 1.369 . S
C2562 C2566 1.531 . S
C2563 C2562 1.369 . S
C2563 C2564 1.410 . S
C2563 C2571 1.503 . S
C2564 C2563 1.410 . S
C2564 C2565 1.392 . S
C2564 C2567 1.511 . S
C2565 C2561 1.376 . S
C2565 C2564 1.392 . S
C2565 H2577 0.929 . S
C2566 C2562 1.531 . S
C2566 H2578 0.960 . S
C2566 H2579 0.962 . S
C2566 H2580 0.960 . S
C2567 C2564 1.511 . S
C2567 H2581 0.961 . S
C2567 H2582 0.961 . S
C2567 H2583 0.961 . S
C2568 C2569 1.370 . S
C2568 C2570 1.363 . S
C2568 H2584 0.931 . S
C2569 C2568 1.370 . S
C2569 C2573 1.408 . S
C2570 C2568 1.363 . S
C2570 C2571 1.370 . S
C2570 C2574 1.524 . S
C2571 C2563 1.503 . S
C2571 C2570 1.370 . S
C2571 C2572 1.403 . S
C2572 C2571 1.403 . S
C2572 C2573 1.404 . S
C2572 C2575 1.539 . S
C2573 C2569 1.408 . S
C2573 C2572 1.404 . S
C2573 H2585 0.930 . S
C2574 C2570 1.524 . S
C2574 H2586 0.956 . S
C2574 H2587 0.961 . S
C2574 H2588 0.961 . S
C2575 C2572 1.539 . S
C2575 H2589 0.958 . S
C2575 H2590 0.961 . S
C2575 H2591 0.960 . S
H2576 C2560 0.931 . S
H2577 C2565 0.929 . S
H2578 C2566 0.960 . S
H2579 C2566 0.962 . S
H2580 C2566 0.960 . S
H2581 C2567 0.961 . S
H2582 C2567 0.961 . S
H2583 C2567 0.961 . S
H2584 C2568 0.931 . S
H2585 C2573 0.930 . S
H2586 C2574 0.956 . S
H2587 C2574 0.961 . S
H2588 C2574 0.961 . S
H2589 C2575 0.958 . S
H2590 C2575 0.961 . S
H2591 C2575 0.960 . S
C2592 C2593 1.391 . S
C2592 C2594 1.394 . S
C2592 H2608 0.931 . S
C2593 C2592 1.391 . S
C2593 C2597 1.376 . S
C2594 C2592 1.394 . S
C2594 C2595 1.369 . S
C2594 C2598 1.531 . S
C2595 C2594 1.369 . S
C2595 C2596 1.410 . S
C2595 C2603 1.503 1_545 S
C2596 C2595 1.410 . S
C2596 C2597 1.392 . S
C2596 C2599 1.511 . S
C2597 C2593 1.376 . S
C2597 C2596 1.392 . S
C2597 H2609 0.929 . S
C2598 C2594 1.531 . S
C2598 H2610 0.982 . S
C2598 H2611 0.962 . S
C2598 H2612 0.960 . S
C2599 C2596 1.511 . S
C2599 H2613 0.961 . S
C2599 H2614 0.961 1_545 S
C2599 H2615 0.961 . S
C2600 C2601 1.370 . S
C2600 C2602 1.363 . S
C2600 H2616 0.931 . S
C2601 C2600 1.370 . S
C2601 C2605 1.408 . S
C2602 C2600 1.363 . S
C2602 C2603 1.370 . S
C2602 C2606 1.524 . S
C2603 C2595 1.503 1_565 S
C2603 C2602 1.370 . S
C2603 C2604 1.403 . S
C2604 C2603 1.403 . S
C2604 C2605 1.404 . S
C2604 C2607 1.539 . S
C2605 C2601 1.408 . S
C2605 C2604 1.404 . S
C2605 H2617 0.930 . S
C2606 C2602 1.524 . S
C2606 H2618 0.956 1_565 S
C2606 H2619 0.961 1_565 S
C2606 H2620 0.961 . S
C2607 C2604 1.539 . S
C2607 H2621 0.958 . S
C2607 H2622 0.961 . S
C2607 H2623 0.930 1_565 S
H2608 C2592 0.931 . S
H2609 C2597 0.929 . S
H2610 C2598 0.982 . S
H2611 C2598 0.962 . S
H2612 C2598 0.960 . S
H2613 C2599 0.961 . S
H2614 C2599 0.961 1_565 S
H2615 C2599 0.961 . S
H2616 C2600 0.931 . S
H2617 C2605 0.930 . S
H2618 C2606 0.956 1_545 S
H2619 C2606 0.961 1_545 S
H2620 C2606 0.961 . S
H2621 C2607 0.958 . S
H2622 C2607 0.961 . S
H2623 C2607 0.930 1_545 S
C2624 C2625 1.391 . S
C2624 C2626 1.394 . S
C2624 H2640 0.931 . S
C2625 C2624 1.391 . S
C2625 C2629 1.376 . S
C2626 C2624 1.394 . S
C2626 C2627 1.369 . S
C2626 C2630 1.531 . S
C2627 C2626 1.369 . S
C2627 C2628 1.410 . S
C2627 C2635 1.503 . S
C2628 C2627 1.410 . S
C2628 C2629 1.392 . S
C2628 C2631 1.511 . S
C2629 C2625 1.376 . S
C2629 C2628 1.392 . S
C2629 H2641 0.929 . S
C2630 C2626 1.531 . S
C2630 H2642 0.960 . S
C2630 H2643 0.962 . S
C2630 H2644 0.960 . S
C2631 C2628 1.511 . S
C2631 H2645 0.961 . S
C2631 H2646 0.961 . S
C2631 H2647 0.961 . S
C2632 C2633 1.370 . S
C2632 C2634 1.363 . S
C2632 H2648 0.931 . S
C2633 C2632 1.370 . S
C2633 C2637 1.408 . S
C2634 C2632 1.363 . S
C2634 C2635 1.370 . S
C2634 C2638 1.524 . S
C2635 C2627 1.503 . S
C2635 C2634 1.370 . S
C2635 C2636 1.403 . S
C2636 C2635 1.403 . S
C2636 C2637 1.404 . S
C2636 C2639 1.539 . S
C2637 C2633 1.408 . S
C2637 C2636 1.404 . S
C2637 H2649 0.930 . S
C2638 C2634 1.524 . S
C2638 H2650 0.956 . S
C2638 H2651 0.961 . S
C2638 H2652 0.961 . S
C2639 C2636 1.539 . S
C2639 H2653 0.958 . S
C2639 H2654 0.961 . S
C2639 H2655 0.960 . S
H2640 C2624 0.931 . S
H2641 C2629 0.929 . S
H2642 C2630 0.960 . S
H2643 C2630 0.962 . S
H2644 C2630 0.960 . S
H2645 C2631 0.961 . S
H2646 C2631 0.961 . S
H2647 C2631 0.961 . S
H2648 C2632 0.931 . S
H2649 C2637 0.930 . S
H2650 C2638 0.956 . S
H2651 C2638 0.961 . S
H2652 C2638 0.961 . S
H2653 C2639 0.958 . S
H2654 C2639 0.961 . S
H2655 C2639 0.960 . S
C2656 C2657 1.391 . S
C2656 C2658 1.394 . S
C2656 H2672 0.931 . S
C2657 C2656 1.391 . S
C2657 C2661 1.376 . S
C2658 C2656 1.394 . S
C2658 C2659 1.369 . S
C2658 C2662 1.531 . S
C2659 C2658 1.369 . S
C2659 C2660 1.410 . S
C2659 C2667 1.503 1_545 S
C2660 C2659 1.410 . S
C2660 C2661 1.392 . S
C2660 C2663 1.511 . S
C2661 C2657 1.376 . S
C2661 C2660 1.392 . S
C2661 H2673 0.929 . S
C2662 C2658 1.531 . S
C2662 H2674 0.960 1_545 S
C2662 H2675 0.962 . S
C2662 H2676 0.960 . S
C2663 C2660 1.511 . S
C2663 H2677 0.961 . S
C2663 H2678 0.961 1_545 S
C2663 H2679 0.961 . S
C2664 C2665 1.370 . S
C2664 C2666 1.363 . S
C2664 H2680 0.931 . S
C2665 C2664 1.370 . S
C2665 C2669 1.408 . S
C2666 C2664 1.363 . S
C2666 C2667 1.370 . S
C2666 C2670 1.524 . S
C2667 C2659 1.503 1_565 S
C2667 C2666 1.370 . S
C2667 C2668 1.403 . S
C2668 C2667 1.403 . S
C2668 C2669 1.404 . S
C2668 C2671 1.539 . S
C2669 C2665 1.408 . S
C2669 C2668 1.404 . S
C2669 H2681 0.930 . S
C2670 C2666 1.524 . S
C2670 H2682 0.956 . S
C2670 H2683 0.961 . S
C2670 H2684 0.961 . S
C2671 C2668 1.539 . S
C2671 H2685 0.958 . S
C2671 H2686 0.961 . S
C2671 H2687 0.960 . S
H2672 C2656 0.931 . S
H2673 C2661 0.929 . S
H2674 C2662 0.960 1_565 S
H2675 C2662 0.962 . S
H2676 C2662 0.960 . S
H2677 C2663 0.961 . S
H2678 C2663 0.961 1_565 S
H2679 C2663 0.961 . S
H2680 C2664 0.931 . S
H2681 C2669 0.930 . S
H2682 C2670 0.956 . S
H2683 C2670 0.961 . S
H2684 C2670 0.961 . S
H2685 C2671 0.958 . S
H2686 C2671 0.961 . S
H2687 C2671 0.960 . S
C2688 C2689 1.391 . S
C2688 C2690 1.394 . S
C2688 H2704 0.931 . S
C2689 C2688 1.391 . S
C2689 C2693 1.376 . S
C2690 C2688 1.394 . S
C2690 C2691 1.369 . S
C2690 C2694 1.531 . S
C2691 C2690 1.369 . S
C2691 C2692 1.410 . S
C2691 C2699 1.503 . S
C2692 C2691 1.410 . S
C2692 C2693 1.392 . S
C2692 C2695 1.511 . S
C2693 C2689 1.376 . S
C2693 C2692 1.392 . S
C2693 H2705 0.929 . S
C2694 C2690 1.531 . S
C2694 H2706 0.960 . S
C2694 H2707 0.962 . S
C2694 H2708 0.960 . S
C2695 C2692 1.511 . S
C2695 H2709 0.961 . S
C2695 H2710 0.961 . S
C2695 H2711 0.961 . S
C2696 C2697 1.370 . S
C2696 C2698 1.363 . S
C2696 H2712 0.931 . S
C2697 C2696 1.370 . S
C2697 C2701 1.408 . S
C2698 C2696 1.363 . S
C2698 C2699 1.370 . S
C2698 C2702 1.524 . S
C2699 C2691 1.503 . S
C2699 C2698 1.370 . S
C2699 C2700 1.403 . S
C2700 C2699 1.403 . S
C2700 C2701 1.404 . S
C2700 C2703 1.539 . S
C2701 C2697 1.408 . S
C2701 C2700 1.404 . S
C2701 H2713 0.930 . S
C2702 C2698 1.524 . S
C2702 H2714 0.956 . S
C2702 H2715 0.961 . S
C2702 H2716 0.961 . S
C2703 C2700 1.539 . S
C2703 H2717 0.958 . S
C2703 H2718 0.961 . S
C2703 H2719 0.960 . S
H2704 C2688 0.931 . S
H2705 C2693 0.929 . S
H2706 C2694 0.960 . S
H2707 C2694 0.962 . S
H2708 C2694 0.960 . S
H2709 C2695 0.961 . S
H2710 C2695 0.961 . S
H2711 C2695 0.961 . S
H2712 C2696 0.931 . S
H2713 C2701 0.930 . S
H2714 C2702 0.956 . S
H2715 C2702 0.961 . S
H2716 C2702 0.961 . S
H2717 C2703 0.958 . S
H2718 C2703 0.961 . S
H2719 C2703 0.960 . S
C2720 C2721 1.391 . S
C2720 C2722 1.394 . S
C2720 H2736 0.931 . S
C2721 C2720 1.391 . S
C2721 C2725 1.376 . S
C2722 C2720 1.394 . S
C2722 C2723 1.369 . S
C2722 C2726 1.531 . S
C2723 C2722 1.369 . S
C2723 C2724 1.410 . S
C2723 C2731 1.503 1_556 S
C2724 C2723 1.410 . S
C2724 C2725 1.392 . S
C2724 C2727 1.511 . S
C2725 C2721 1.376 . S
C2725 C2724 1.392 . S
C2725 H2737 0.929 . S
C2726 C2722 1.531 . S
C2726 H2738 0.937 1_556 S
C2726 H2739 0.962 . S
C2726 H2740 0.960 . S
C2727 C2724 1.511 . S
C2727 H2741 0.961 . S
C2727 H2742 0.961 . S
C2727 H2743 0.961 . S
C2728 C2729 1.370 . S
C2728 C2730 1.363 . S
C2728 H2744 0.931 . S
C2729 C2728 1.370 . S
C2729 C2733 1.408 . S
C2730 C2728 1.363 . S
C2730 C2731 1.370 . S
C2730 C2734 1.524 . S
C2731 C2723 1.503 1_554 S
C2731 C2730 1.370 . S
C2731 C2732 1.403 . S
C2732 C2731 1.403 . S
C2732 C2733 1.404 . S
C2732 C2735 1.539 . S
C2733 C2729 1.408 . S
C2733 C2732 1.404 . S
C2733 H2745 0.930 . S
C2734 C2730 1.524 . S
C2734 H2746 0.956 1_554 S
C2734 H2747 0.961 1_554 S
C2734 H2748 0.961 . S
C2735 C2732 1.539 . S
C2735 H2749 0.958 . S
C2735 H2750 0.961 . S
C2735 H2751 0.960 1_554 S
H2736 C2720 0.931 . S
H2737 C2725 0.929 . S
H2738 C2726 0.937 1_554 S
H2739 C2726 0.962 . S
H2740 C2726 0.960 . S
H2741 C2727 0.961 . S
H2742 C2727 0.961 . S
H2743 C2727 0.961 . S
H2744 C2728 0.931 . S
H2745 C2733 0.930 . S
H2746 C2734 0.956 1_556 S
H2747 C2734 0.961 1_556 S
H2748 C2734 0.961 . S
H2749 C2735 0.958 . S
H2750 C2735 0.961 . S
H2751 C2735 0.960 1_556 S
C2752 C2753 1.391 . S
C2752 C2754 1.394 . S
C2752 H2768 0.931 . S
C2753 C2752 1.391 . S
C2753 C2757 1.376 . S
C2754 C2752 1.394 . S
C2754 C2755 1.369 . S
C2754 C2758 1.531 . S
C2755 C2754 1.369 . S
C2755 C2756 1.410 . S
C2755 C2763 1.503 1_556 S
C2756 C2755 1.410 . S
C2756 C2757 1.392 . S
C2756 C2759 1.511 . S
C2757 C2753 1.376 . S
C2757 C2756 1.392 . S
C2757 H2769 0.929 . S
C2758 C2754 1.531 . S
C2758 H2770 0.978 . S
C2758 H2771 0.962 . S
C2758 H2772 0.960 . S
C2759 C2756 1.511 . S
C2759 H2773 0.961 . S
C2759 H2774 0.945 1_556 S
C2759 H2775 0.961 . S
C2760 C2761 1.370 . S
C2760 C2762 1.363 . S
C2760 H2776 0.931 . S
C2761 C2760 1.370 . S
C2761 C2765 1.408 . S
C2762 C2760 1.363 . S
C2762 C2763 1.370 . S
C2762 C2766 1.524 . S
C2763 C2755 1.503 1_554 S
C2763 C2762 1.370 . S
C2763 C2764 1.403 . S
C2764 C2763 1.403 . S
C2764 C2765 1.404 . S
C2764 C2767 1.539 . S
C2765 C2761 1.408 . S
C2765 C2764 1.404 . S
C2765 H2777 0.930 . S
C2766 C2762 1.524 . S
C2766 H2778 0.956 1_554 S
C2766 H2779 0.961 1_554 S
C2766 H2780 0.961 . S
C2767 C2764 1.539 . S
C2767 H2781 0.958 . S
C2767 H2782 0.961 . S
C2767 H2783 0.960 1_554 S
H2768 C2752 0.931 . S
H2769 C2757 0.929 . S
H2770 C2758 0.978 . S
H2771 C2758 0.962 . S
H2772 C2758 0.960 . S
H2773 C2759 0.961 . S
H2774 C2759 0.945 1_554 S
H2775 C2759 0.961 . S
H2776 C2760 0.931 . S
H2777 C2765 0.930 . S
H2778 C2766 0.956 1_556 S
H2779 C2766 0.961 1_556 S
H2780 C2766 0.961 . S
H2781 C2767 0.958 . S
H2782 C2767 0.961 . S
H2783 C2767 0.960 1_556 S
C2784 C2785 1.391 . S
C2784 C2786 1.394 . S
C2784 H2800 0.931 . S
C2785 C2784 1.391 . S
C2785 C2789 1.376 . S
C2786 C2784 1.394 . S
C2786 C2787 1.369 . S
C2786 C2790 1.531 . S
C2787 C2786 1.369 . S
C2787 C2788 1.410 . S
C2787 C2795 1.503 . S
C2788 C2787 1.410 . S
C2788 C2789 1.392 . S
C2788 C2791 1.511 . S
C2789 C2785 1.376 . S
C2789 C2788 1.392 . S
C2789 H2801 0.929 . S
C2790 C2786 1.531 . S
C2790 H2802 0.960 . S
C2790 H2803 0.962 . S
C2790 H2804 0.960 . S
C2791 C2788 1.511 . S
C2791 H2805 0.961 . S
C2791 H2806 0.961 . S
C2791 H2807 0.961 . S
C2792 C2793 1.370 . S
C2792 C2794 1.363 . S
C2792 H2808 0.931 . S
C2793 C2792 1.370 . S
C2793 C2797 1.408 . S
C2794 C2792 1.363 . S
C2794 C2795 1.370 . S
C2794 C2798 1.524 . S
C2795 C2787 1.503 . S
C2795 C2794 1.370 . S
C2795 C2796 1.403 . S
C2796 C2795 1.403 . S
C2796 C2797 1.404 . S
C2796 C2799 1.539 . S
C2797 C2793 1.408 . S
C2797 C2796 1.404 . S
C2797 H2809 0.930 . S
C2798 C2794 1.524 . S
C2798 H2810 0.956 . S
C2798 H2811 0.961 . S
C2798 H2812 0.961 . S
C2799 C2796 1.539 . S
C2799 H2813 0.958 . S
C2799 H2814 0.961 . S
C2799 H2815 0.960 . S
H2800 C2784 0.931 . S
H2801 C2789 0.929 . S
H2802 C2790 0.960 . S
H2803 C2790 0.962 . S
H2804 C2790 0.960 . S
H2805 C2791 0.961 . S
H2806 C2791 0.961 . S
H2807 C2791 0.961 . S
H2808 C2792 0.931 . S
H2809 C2797 0.930 . S
H2810 C2798 0.956 . S
H2811 C2798 0.961 . S
H2812 C2798 0.961 . S
H2813 C2799 0.958 . S
H2814 C2799 0.961 . S
H2815 C2799 0.960 . S
C2816 C2817 1.391 . S
C2816 C2818 1.394 . S
C2816 H2832 0.931 . S
C2817 C2816 1.391 . S
C2817 C2821 1.376 . S
C2818 C2816 1.394 . S
C2818 C2819 1.369 . S
C2818 C2822 1.531 . S
C2819 C2818 1.369 . S
C2819 C2820 1.410 . S
C2819 C2827 1.503 1_556 S
C2820 C2819 1.410 . S
C2820 C2821 1.392 . S
C2820 C2823 1.511 . S
C2821 C2817 1.376 . S
C2821 C2820 1.392 . S
C2821 H2833 0.929 . S
C2822 C2818 1.531 . S
C2822 H2834 0.960 1_556 S
C2822 H2835 0.962 . S
C2822 H2836 0.960 . S
C2823 C2820 1.511 . S
C2823 H2837 0.961 . S
C2823 H2838 0.961 1_556 S
C2823 H2839 0.961 . S
C2824 C2825 1.370 . S
C2824 C2826 1.363 . S
C2824 H2840 0.931 . S
C2825 C2824 1.370 . S
C2825 C2829 1.408 . S
C2826 C2824 1.363 . S
C2826 C2827 1.370 . S
C2826 C2830 1.524 . S
C2827 C2819 1.503 1_554 S
C2827 C2826 1.370 . S
C2827 C2828 1.403 . S
C2828 C2827 1.403 . S
C2828 C2829 1.404 . S
C2828 C2831 1.539 . S
C2829 C2825 1.408 . S
C2829 C2828 1.404 . S
C2829 H2841 0.930 . S
C2830 C2826 1.524 . S
C2830 H2842 0.956 . S
C2830 H2843 0.961 . S
C2830 H2844 0.961 . S
C2831 C2828 1.539 . S
C2831 H2845 0.958 . S
C2831 H2846 0.961 . S
C2831 H2847 0.960 . S
H2832 C2816 0.931 . S
H2833 C2821 0.929 . S
H2834 C2822 0.960 1_554 S
H2835 C2822 0.962 . S
H2836 C2822 0.960 . S
H2837 C2823 0.961 . S
H2838 C2823 0.961 1_554 S
H2839 C2823 0.961 . S
H2840 C2824 0.931 . S
H2841 C2829 0.930 . S
H2842 C2830 0.956 . S
H2843 C2830 0.961 . S
H2844 C2830 0.961 . S
H2845 C2831 0.958 . S
H2846 C2831 0.961 . S
H2847 C2831 0.960 . S
C2848 C2849 1.391 . S
C2848 C2850 1.394 . S
C2848 H2864 0.931 . S
C2849 C2848 1.391 . S
C2849 C2853 1.376 . S
C2850 C2848 1.394 . S
C2850 C2851 1.369 . S
C2850 C2854 1.531 . S
C2851 C2850 1.369 . S
C2851 C2852 1.410 . S
C2851 C2859 1.503 . S
C2852 C2851 1.410 . S
C2852 C2853 1.392 . S
C2852 C2855 1.511 . S
C2853 C2849 1.376 . S
C2853 C2852 1.392 . S
C2853 H2865 0.929 . S
C2854 C2850 1.531 . S
C2854 H2866 0.960 . S
C2854 H2867 0.962 . S
C2854 H2868 0.960 . S
C2855 C2852 1.511 . S
C2855 H2869 0.961 . S
C2855 H2870 0.961 . S
C2855 H2871 0.961 . S
C2856 C2857 1.370 . S
C2856 C2858 1.363 . S
C2856 H2872 0.931 . S
C2857 C2856 1.370 . S
C2857 C2861 1.408 . S
C2858 C2856 1.363 . S
C2858 C2859 1.370 . S
C2858 C2862 1.524 . S
C2859 C2851 1.503 . S
C2859 C2858 1.370 . S
C2859 C2860 1.403 . S
C2860 C2859 1.403 . S
C2860 C2861 1.404 . S
C2860 C2863 1.539 . S
C2861 C2857 1.408 . S
C2861 C2860 1.404 . S
C2861 H2873 0.930 . S
C2862 C2858 1.524 . S
C2862 H2874 0.956 . S
C2862 H2875 0.961 . S
C2862 H2876 0.961 . S
C2863 C2860 1.539 . S
C2863 H2877 0.958 . S
C2863 H2878 0.961 . S
C2863 H2879 0.960 . S
H2864 C2848 0.931 . S
H2865 C2853 0.929 . S
H2866 C2854 0.960 . S
H2867 C2854 0.962 . S
H2868 C2854 0.960 . S
H2869 C2855 0.961 . S
H2870 C2855 0.961 . S
H2871 C2855 0.961 . S
H2872 C2856 0.931 . S
H2873 C2861 0.930 . S
H2874 C2862 0.956 . S
H2875 C2862 0.961 . S
H2876 C2862 0.961 . S
H2877 C2863 0.958 . S
H2878 C2863 0.961 . S
H2879 C2863 0.960 . S
C2880 C2881 1.391 . S
C2880 C2882 1.394 . S
C2880 H2896 0.931 . S
C2881 C2880 1.391 . S
C2881 C2885 1.376 . S
C2882 C2880 1.394 . S
C2882 C2883 1.369 . S
C2882 C2886 1.531 . S
C2883 C2882 1.369 . S
C2883 C2884 1.410 . S
C2883 C2891 1.503 1_556 S
C2884 C2883 1.410 . S
C2884 C2885 1.392 . S
C2884 C2887 1.511 . S
C2885 C2881 1.376 . S
C2885 C2884 1.392 . S
C2885 H2897 0.929 . S
C2886 C2882 1.531 . S
C2886 H2898 0.960 1_556 S
C2886 H2899 0.962 . S
C2886 H2900 0.960 . S
C2887 C2884 1.511 . S
C2887 H2901 0.961 . S
C2887 H2902 0.961 1_556 S
C2887 H2903 0.961 . S
C2888 C2889 1.370 . S
C2888 C2890 1.363 . S
C2888 H2904 0.931 . S
C2889 C2888 1.370 . S
C2889 C2893 1.408 . S
C2890 C2888 1.363 . S
C2890 C2891 1.370 . S
C2890 C2894 1.524 . S
C2891 C2883 1.503 1_554 S
C2891 C2890 1.370 . S
C2891 C2892 1.403 . S
C2892 C2891 1.403 . S
C2892 C2893 1.404 . S
C2892 C2895 1.539 . S
C2893 C2889 1.408 . S
C2893 C2892 1.404 . S
C2893 H2905 0.930 . S
C2894 C2890 1.524 . S
C2894 H2906 0.956 . S
C2894 H2907 0.961 . S
C2894 H2908 0.961 . S
C2895 C2892 1.539 . S
C2895 H2909 0.958 . S
C2895 H2910 0.961 . S
C2895 H2911 0.960 . S
H2896 C2880 0.931 . S
H2897 C2885 0.929 . S
H2898 C2886 0.960 1_554 S
H2899 C2886 0.962 . S
H2900 C2886 0.960 . S
H2901 C2887 0.961 . S
H2902 C2887 0.961 1_554 S
H2903 C2887 0.961 . S
H2904 C2888 0.931 . S
H2905 C2893 0.930 . S
H2906 C2894 0.956 . S
H2907 C2894 0.961 . S
H2908 C2894 0.961 . S
H2909 C2895 0.958 . S
H2910 C2895 0.961 . S
H2911 C2895 0.960 . S
C2912 C2913 1.391 . S
C2912 C2914 1.394 . S
C2912 H2928 0.931 . S
C2913 C2912 1.391 . S
C2913 C2917 1.376 . S
C2914 C2912 1.394 . S
C2914 C2915 1.369 . S
C2914 C2918 1.531 . S
C2915 C2914 1.369 . S
C2915 C2916 1.410 . S
C2915 C2923 1.503 . S
C2916 C2915 1.410 . S
C2916 C2917 1.392 . S
C2916 C2919 1.511 . S
C2917 C2913 1.376 . S
C2917 C2916 1.392 . S
C2917 H2929 0.929 . S
C2918 C2914 1.531 . S
C2918 H2930 0.960 . S
C2918 H2931 0.962 . S
C2918 H2932 0.960 . S
C2919 C2916 1.511 . S
C2919 H2933 0.961 . S
C2919 H2934 0.961 . S
C2919 H2935 0.961 . S
C2920 C2921 1.370 . S
C2920 C2922 1.363 . S
C2920 H2936 0.931 . S
C2921 C2920 1.370 . S
C2921 C2925 1.408 . S
C2922 C2920 1.363 . S
C2922 C2923 1.370 . S
C2922 C2926 1.524 . S
C2923 C2915 1.503 . S
C2923 C2922 1.370 . S
C2923 C2924 1.403 . S
C2924 C2923 1.403 . S
C2924 C2925 1.404 . S
C2924 C2927 1.539 . S
C2925 C2921 1.408 . S
C2925 C2924 1.404 . S
C2925 H2937 0.930 . S
C2926 C2922 1.524 . S
C2926 H2938 0.956 . S
C2926 H2939 0.961 . S
C2926 H2940 0.961 . S
C2927 C2924 1.539 . S
C2927 H2941 0.958 . S
C2927 H2942 0.961 . S
C2927 H2943 0.960 . S
H2928 C2912 0.931 . S
H2929 C2917 0.929 . S
H2930 C2918 0.960 . S
H2931 C2918 0.962 . S
H2932 C2918 0.960 . S
H2933 C2919 0.961 . S
H2934 C2919 0.961 . S
H2935 C2919 0.961 . S
H2936 C2920 0.931 . S
H2937 C2925 0.930 . S
H2938 C2926 0.956 . S
H2939 C2926 0.961 . S
H2940 C2926 0.961 . S
H2941 C2927 0.958 . S
H2942 C2927 0.961 . S
H2943 C2927 0.960 . S
C2944 C2945 1.391 . S
C2944 C2946 1.394 . S
C2944 H2960 0.931 . S
C2945 C2944 1.391 . S
C2945 C2949 1.376 . S
C2946 C2944 1.394 . S
C2946 C2947 1.369 . S
C2946 C2950 1.531 . S
C2947 C2946 1.369 . S
C2947 C2948 1.410 . S
C2947 C2955 1.503 . S
C2948 C2947 1.410 . S
C2948 C2949 1.392 . S
C2948 C2951 1.511 . S
C2949 C2945 1.376 . S
C2949 C2948 1.392 . S
C2949 H2961 0.929 . S
C2950 C2946 1.531 . S
C2950 H2962 0.960 . S
C2950 H2963 0.962 . S
C2950 H2964 0.960 . S
C2951 C2948 1.511 . S
C2951 H2965 0.961 . S
C2951 H2966 0.961 . S
C2951 H2967 0.961 . S
C2952 C2953 1.370 . S
C2952 C2954 1.363 . S
C2952 H2968 0.931 . S
C2953 C2952 1.370 . S
C2953 C2957 1.408 . S
C2954 C2952 1.363 . S
C2954 C2955 1.370 . S
C2954 C2958 1.524 . S
C2955 C2947 1.503 . S
C2955 C2954 1.370 . S
C2955 C2956 1.403 . S
C2956 C2955 1.403 . S
C2956 C2957 1.404 . S
C2956 C2959 1.539 . S
C2957 C2953 1.408 . S
C2957 C2956 1.404 . S
C2957 H2969 0.930 . S
C2958 C2954 1.524 . S
C2958 H2970 0.956 . S
C2958 H2971 0.961 . S
C2958 H2972 0.961 . S
C2959 C2956 1.539 . S
C2959 H2973 0.958 . S
C2959 H2974 0.961 . S
C2959 H2975 0.960 . S
H2960 C2944 0.931 . S
H2961 C2949 0.929 . S
H2962 C2950 0.960 . S
H2963 C2950 0.962 . S
H2964 C2950 0.960 . S
H2965 C2951 0.961 . S
H2966 C2951 0.961 . S
H2967 C2951 0.961 . S
H2968 C2952 0.931 . S
H2969 C2957 0.930 . S
H2970 C2958 0.956 . S
H2971 C2958 0.961 . S
H2972 C2958 0.961 . S
H2973 C2959 0.958 . S
H2974 C2959 0.961 . S
H2975 C2959 0.960 . S
C2976 C2977 1.391 . S
C2976 C2978 1.394 . S
C2976 H2992 0.931 . S
C2977 C2976 1.391 . S
C2977 C2981 1.376 . S
C2978 C2976 1.394 . S
C2978 C2979 1.369 . S
C2978 C2982 1.531 . S
C2979 C2978 1.369 . S
C2979 C2980 1.410 . S
C2979 C2987 1.503 . S
C2980 C2979 1.410 . S
C2980 C2981 1.392 . S
C2980 C2983 1.511 . S
C2981 C2977 1.376 . S
C2981 C2980 1.392 . S
C2981 H2993 0.929 . S
C2982 C2978 1.531 . S
C2982 H2994 0.960 . S
C2982 H2995 0.962 . S
C2982 H2996 0.960 . S
C2983 C2980 1.511 . S
C2983 H2997 0.961 . S
C2983 H2998 0.961 . S
C2983 H2999 0.961 . S
C2984 C2985 1.370 . S
C2984 C2986 1.363 . S
C2984 H3000 0.931 . S
C2985 C2984 1.370 . S
C2985 C2989 1.408 . S
C2986 C2984 1.363 . S
C2986 C2987 1.370 . S
C2986 C2990 1.524 . S
C2987 C2979 1.503 . S
C2987 C2986 1.370 . S
C2987 C2988 1.403 . S
C2988 C2987 1.403 . S
C2988 C2989 1.404 . S
C2988 C2991 1.539 . S
C2989 C2985 1.408 . S
C2989 C2988 1.404 . S
C2989 H3001 0.930 . S
C2990 C2986 1.524 . S
C2990 H3002 0.956 . S
C2990 H3003 0.961 . S
C2990 H3004 0.961 . S
C2991 C2988 1.539 . S
C2991 H3005 0.958 . S
C2991 H3006 0.961 . S
C2991 H3007 0.960 . S
H2992 C2976 0.931 . S
H2993 C2981 0.929 . S
H2994 C2982 0.960 . S
H2995 C2982 0.962 . S
H2996 C2982 0.960 . S
H2997 C2983 0.961 . S
H2998 C2983 0.961 . S
H2999 C2983 0.961 . S
H3000 C2984 0.931 . S
H3001 C2989 0.930 . S
H3002 C2990 0.956 . S
H3003 C2990 0.961 . S
H3004 C2990 0.961 . S
H3005 C2991 0.958 . S
H3006 C2991 0.961 . S
H3007 C2991 0.960 . S
C3008 C3009 1.391 . S
C3008 C3010 1.394 . S
C3008 H3024 0.931 . S
C3009 C3008 1.391 . S
C3009 C3013 1.376 . S
C3010 C3008 1.394 . S
C3010 C3011 1.369 . S
C3010 C3014 1.531 . S
C3011 C3010 1.369 . S
C3011 C3012 1.410 . S
C3011 C3019 1.503 . S
C3012 C3011 1.410 . S
C3012 C3013 1.392 . S
C3012 C3015 1.511 . S
C3013 C3009 1.376 . S
C3013 C3012 1.392 . S
C3013 H3025 0.929 . S
C3014 C3010 1.531 . S
C3014 H3026 0.960 . S
C3014 H3027 0.962 . S
C3014 H3028 0.960 . S
C3015 C3012 1.511 . S
C3015 H3029 0.961 . S
C3015 H3030 0.961 . S
C3015 H3031 0.961 . S
C3016 C3017 1.370 . S
C3016 C3018 1.363 . S
C3016 H3032 0.931 . S
C3017 C3016 1.370 . S
C3017 C3021 1.408 . S
C3018 C3016 1.363 . S
C3018 C3019 1.370 . S
C3018 C3022 1.524 . S
C3019 C3011 1.503 . S
C3019 C3018 1.370 . S
C3019 C3020 1.403 . S
C3020 C3019 1.403 . S
C3020 C3021 1.404 . S
C3020 C3023 1.539 . S
C3021 C3017 1.408 . S
C3021 C3020 1.404 . S
C3021 H3033 0.930 . S
C3022 C3018 1.524 . S
C3022 H3034 0.956 . S
C3022 H3035 0.961 . S
C3022 H3036 0.961 . S
C3023 C3020 1.539 . S
C3023 H3037 0.958 . S
C3023 H3038 0.961 . S
C3023 H3039 0.960 . S
H3024 C3008 0.931 . S
H3025 C3013 0.929 . S
H3026 C3014 0.960 . S
H3027 C3014 0.962 . S
H3028 C3014 0.960 . S
H3029 C3015 0.961 . S
H3030 C3015 0.961 . S
H3031 C3015 0.961 . S
H3032 C3016 0.931 . S
H3033 C3021 0.930 . S
H3034 C3022 0.956 . S
H3035 C3022 0.961 . S
H3036 C3022 0.961 . S
H3037 C3023 0.958 . S
H3038 C3023 0.961 . S
H3039 C3023 0.960 . S
C3040 C3041 1.391 . S
C3040 C3042 1.394 . S
C3040 H3056 0.931 . S
C3041 C3040 1.391 . S
C3041 C3045 1.376 . S
C3042 C3040 1.394 . S
C3042 C3043 1.369 . S
C3042 C3046 1.531 . S
C3043 C3042 1.369 . S
C3043 C3044 1.410 . S
C3043 C3051 1.503 . S
C3044 C3043 1.410 . S
C3044 C3045 1.392 . S
C3044 C3047 1.511 . S
C3045 C3041 1.376 . S
C3045 C3044 1.392 . S
C3045 H3057 0.929 . S
C3046 C3042 1.531 . S
C3046 H3058 0.960 . S
C3046 H3059 0.962 . S
C3046 H3060 0.960 . S
C3047 C3044 1.511 . S
C3047 H3061 0.961 . S
C3047 H3062 0.961 . S
C3047 H3063 0.961 . S
C3048 C3049 1.370 . S
C3048 C3050 1.363 . S
C3048 H3064 0.931 . S
C3049 C3048 1.370 . S
C3049 C3053 1.408 . S
C3050 C3048 1.363 . S
C3050 C3051 1.370 . S
C3050 C3054 1.524 . S
C3051 C3043 1.503 . S
C3051 C3050 1.370 . S
C3051 C3052 1.403 . S
C3052 C3051 1.403 . S
C3052 C3053 1.404 . S
C3052 C3055 1.539 . S
C3053 C3049 1.408 . S
C3053 C3052 1.404 . S
C3053 H3065 0.930 . S
C3054 C3050 1.524 . S
C3054 H3066 0.956 . S
C3054 H3067 0.961 . S
C3054 H3068 0.961 . S
C3055 C3052 1.539 . S
C3055 H3069 0.958 . S
C3055 H3070 0.961 . S
C3055 H3071 0.960 . S
H3056 C3040 0.931 . S
H3057 C3045 0.929 . S
H3058 C3046 0.960 . S
H3059 C3046 0.962 . S
H3060 C3046 0.960 . S
H3061 C3047 0.961 . S
H3062 C3047 0.961 . S
H3063 C3047 0.961 . S
H3064 C3048 0.931 . S
H3065 C3053 0.930 . S
H3066 C3054 0.956 . S
H3067 C3054 0.961 . S
H3068 C3054 0.961 . S
H3069 C3055 0.958 . S
H3070 C3055 0.961 . S
H3071 C3055 0.960 . S
C3072 C3073 1.391 . S
C3072 C3074 1.394 . S
C3072 H3088 0.931 . S
C3073 C3072 1.391 . S
C3073 C3077 1.376 . S
C3074 C3072 1.394 . S
C3074 C3075 1.369 . S
C3074 C3078 1.531 . S
C3075 C3074 1.369 . S
C3075 C3076 1.410 . S
C3075 C3083 1.503 . S
C3076 C3075 1.410 . S
C3076 C3077 1.392 . S
C3076 C3079 1.511 . S
C3077 C3073 1.376 . S
C3077 C3076 1.392 . S
C3077 H3089 0.929 . S
C3078 C3074 1.531 . S
C3078 H3090 0.960 . S
C3078 H3091 0.962 . S
C3078 H3092 0.960 . S
C3079 C3076 1.511 . S
C3079 H3093 0.961 . S
C3079 H3094 0.961 . S
C3079 H3095 0.961 . S
C3080 C3081 1.370 . S
C3080 C3082 1.363 . S
C3080 H3096 0.931 . S
C3081 C3080 1.370 . S
C3081 C3085 1.408 . S
C3082 C3080 1.363 . S
C3082 C3083 1.370 . S
C3082 C3086 1.524 . S
C3083 C3075 1.503 . S
C3083 C3082 1.370 . S
C3083 C3084 1.403 . S
C3084 C3083 1.403 . S
C3084 C3085 1.404 . S
C3084 C3087 1.539 . S
C3085 C3081 1.408 . S
C3085 C3084 1.404 . S
C3085 H3097 0.930 . S
C3086 C3082 1.524 . S
C3086 H3098 0.956 . S
C3086 H3099 0.961 . S
C3086 H3100 0.961 . S
C3087 C3084 1.539 . S
C3087 H3101 0.958 . S
C3087 H3102 0.961 . S
C3087 H3103 0.960 . S
H3088 C3072 0.931 . S
H3089 C3077 0.929 . S
H3090 C3078 0.960 . S
H3091 C3078 0.962 . S
H3092 C3078 0.960 . S
H3093 C3079 0.961 . S
H3094 C3079 0.961 . S
H3095 C3079 0.961 . S
H3096 C3080 0.931 . S
H3097 C3085 0.930 . S
H3098 C3086 0.956 . S
H3099 C3086 0.961 . S
H3100 C3086 0.961 . S
H3101 C3087 0.958 . S
H3102 C3087 0.961 . S
H3103 C3087 0.960 . S
C3104 C3105 1.391 . S
C3104 C3106 1.394 . S
C3104 H3120 0.931 . S
C3105 C3104 1.391 . S
C3105 C3109 1.376 . S
C3106 C3104 1.394 . S
C3106 C3107 1.369 . S
C3106 C3110 1.531 . S
C3107 C3106 1.369 . S
C3107 C3108 1.410 . S
C3107 C3115 1.503 . S
C3108 C3107 1.410 . S
C3108 C3109 1.392 . S
C3108 C3111 1.511 . S
C3109 C3105 1.376 . S
C3109 C3108 1.392 . S
C3109 H3121 0.929 . S
C3110 C3106 1.531 . S
C3110 H3122 0.960 . S
C3110 H3123 0.962 . S
C3110 H3124 0.960 . S
C3111 C3108 1.511 . S
C3111 H3125 0.961 . S
C3111 H3126 0.961 . S
C3111 H3127 0.961 . S
C3112 C3113 1.370 . S
C3112 C3114 1.363 . S
C3112 H3128 0.931 . S
C3113 C3112 1.370 . S
C3113 C3117 1.408 . S
C3114 C3112 1.363 . S
C3114 C3115 1.370 . S
C3114 C3118 1.524 . S
C3115 C3107 1.503 . S
C3115 C3114 1.370 . S
C3115 C3116 1.403 . S
C3116 C3115 1.403 . S
C3116 C3117 1.404 . S
C3116 C3119 1.539 . S
C3117 C3113 1.408 . S
C3117 C3116 1.404 . S
C3117 H3129 0.930 . S
C3118 C3114 1.524 . S
C3118 H3130 0.956 . S
C3118 H3131 0.961 . S
C3118 H3132 0.961 . S
C3119 C3116 1.539 . S
C3119 H3133 0.958 . S
C3119 H3134 0.961 . S
C3119 H3135 0.960 . S
H3120 C3104 0.931 . S
H3121 C3109 0.929 . S
H3122 C3110 0.960 . S
H3123 C3110 0.962 . S
H3124 C3110 0.960 . S
H3125 C3111 0.961 . S
H3126 C3111 0.961 . S
H3127 C3111 0.961 . S
H3128 C3112 0.931 . S
H3129 C3117 0.930 . S
H3130 C3118 0.956 . S
H3131 C3118 0.961 . S
H3132 C3118 0.961 . S
H3133 C3119 0.958 . S
H3134 C3119 0.961 . S
H3135 C3119 0.960 . S
C3136 C3137 1.391 . S
C3136 C3138 1.394 . S
C3136 H3152 0.931 . S
C3137 C3136 1.391 . S
C3137 C3141 1.376 . S
C3138 C3136 1.394 . S
C3138 C3139 1.369 . S
C3138 C3142 1.531 . S
C3139 C3138 1.369 . S
C3139 C3140 1.410 . S
C3139 C3147 1.503 . S
C3140 C3139 1.410 . S
C3140 C3141 1.392 . S
C3140 C3143 1.511 . S
C3141 C3137 1.376 . S
C3141 C3140 1.392 . S
C3141 H3153 0.929 . S
C3142 C3138 1.531 . S
C3142 H3154 0.960 . S
C3142 H3155 0.962 . S
C3142 H3156 0.960 . S
C3143 C3140 1.511 . S
C3143 H3157 0.961 . S
C3143 H3158 0.961 . S
C3143 H3159 0.961 . S
C3144 C3145 1.370 . S
C3144 C3146 1.363 . S
C3144 H3160 0.931 . S
C3145 C3144 1.370 . S
C3145 C3149 1.408 . S
C3146 C3144 1.363 . S
C3146 C3147 1.370 . S
C3146 C3150 1.524 . S
C3147 C3139 1.503 . S
C3147 C3146 1.370 . S
C3147 C3148 1.403 . S
C3148 C3147 1.403 . S
C3148 C3149 1.404 . S
C3148 C3151 1.539 . S
C3149 C3145 1.408 . S
C3149 C3148 1.404 . S
C3149 H3161 0.930 . S
C3150 C3146 1.524 . S
C3150 H3162 0.956 . S
C3150 H3163 0.961 . S
C3150 H3164 0.961 . S
C3151 C3148 1.539 . S
C3151 H3165 0.958 . S
C3151 H3166 0.961 . S
C3151 H3167 0.960 . S
H3152 C3136 0.931 . S
H3153 C3141 0.929 . S
H3154 C3142 0.960 . S
H3155 C3142 0.962 . S
H3156 C3142 0.960 . S
H3157 C3143 0.961 . S
H3158 C3143 0.961 . S
H3159 C3143 0.961 . S
H3160 C3144 0.931 . S
H3161 C3149 0.930 . S
H3162 C3150 0.956 . S
H3163 C3150 0.961 . S
H3164 C3150 0.961 . S
H3165 C3151 0.958 . S
H3166 C3151 0.961 . S
H3167 C3151 0.960 . S
C3168 C3169 1.391 . S
C3168 C3170 1.394 . S
C3168 H3184 0.931 . S
C3169 C3168 1.391 . S
C3169 C3173 1.376 . S
C3170 C3168 1.394 . S
C3170 C3171 1.369 . S
C3170 C3174 1.531 . S
C3171 C3170 1.369 . S
C3171 C3172 1.410 . S
C3171 C3179 1.503 . S
C3172 C3171 1.410 . S
C3172 C3173 1.392 . S
C3172 C3175 1.511 . S
C3173 C3169 1.376 . S
C3173 C3172 1.392 . S
C3173 H3185 0.929 . S
C3174 C3170 1.531 . S
C3174 H3186 0.960 . S
C3174 H3187 0.962 . S
C3174 H3188 0.960 . S
C3175 C3172 1.511 . S
C3175 H3189 0.961 . S
C3175 H3190 0.961 . S
C3175 H3191 0.961 . S
C3176 C3177 1.370 . S
C3176 C3178 1.363 . S
C3176 H3192 0.931 . S
C3177 C3176 1.370 . S
C3177 C3181 1.408 . S
C3178 C3176 1.363 . S
C3178 C3179 1.370 . S
C3178 C3182 1.524 . S
C3179 C3171 1.503 . S
C3179 C3178 1.370 . S
C3179 C3180 1.403 . S
C3180 C3179 1.403 . S
C3180 C3181 1.404 . S
C3180 C3183 1.539 . S
C3181 C3177 1.408 . S
C3181 C3180 1.404 . S
C3181 H3193 0.930 . S
C3182 C3178 1.524 . S
C3182 H3194 0.956 . S
C3182 H3195 0.961 . S
C3182 H3196 0.961 . S
C3183 C3180 1.539 . S
C3183 H3197 0.958 . S
C3183 H3198 0.961 . S
C3183 H3199 0.960 . S
H3184 C3168 0.931 . S
H3185 C3173 0.929 . S
H3186 C3174 0.960 . S
H3187 C3174 0.962 . S
H3188 C3174 0.960 . S
H3189 C3175 0.961 . S
H3190 C3175 0.961 . S
H3191 C3175 0.961 . S
H3192 C3176 0.931 . S
H3193 C3181 0.930 . S
H3194 C3182 0.956 . S
H3195 C3182 0.961 . S
H3196 C3182 0.961 . S
H3197 C3183 0.958 . S
H3198 C3183 0.961 . S
H3199 C3183 0.960 . S
C3200 C3201 1.391 . S
C3200 C3202 1.394 . S
C3200 H3216 0.931 . S
C3201 C3200 1.391 . S
C3201 C3205 1.376 . S
C3202 C3200 1.394 . S
C3202 C3203 1.369 . S
C3202 C3206 1.531 . S
C3203 C3202 1.369 . S
C3203 C3204 1.410 . S
C3203 C3211 1.503 . S
C3204 C3203 1.410 . S
C3204 C3205 1.392 . S
C3204 C3207 1.511 . S
C3205 C3201 1.376 . S
C3205 C3204 1.392 . S
C3205 H3217 0.929 . S
C3206 C3202 1.531 . S
C3206 H3218 0.960 . S
C3206 H3219 0.962 . S
C3206 H3220 0.960 . S
C3207 C3204 1.511 . S
C3207 H3221 0.961 . S
C3207 H3222 0.961 . S
C3207 H3223 0.961 . S
C3208 C3209 1.370 . S
C3208 C3210 1.363 . S
C3208 H3224 0.931 . S
C3209 C3208 1.370 . S
C3209 C3213 1.408 . S
C3210 C3208 1.363 . S
C3210 C3211 1.370 . S
C3210 C3214 1.524 . S
C3211 C3203 1.503 . S
C3211 C3210 1.370 . S
C3211 C3212 1.403 . S
C3212 C3211 1.403 . S
C3212 C3213 1.404 . S
C3212 C3215 1.539 . S
C3213 C3209 1.408 . S
C3213 C3212 1.404 . S
C3213 H3225 0.930 . S
C3214 C3210 1.524 . S
C3214 H3226 0.956 . S
C3214 H3227 0.961 . S
C3214 H3228 0.961 . S
C3215 C3212 1.539 . S
C3215 H3229 0.958 . S
C3215 H3230 0.961 . S
C3215 H3231 0.960 . S
H3216 C3200 0.931 . S
H3217 C3205 0.929 . S
H3218 C3206 0.960 . S
H3219 C3206 0.962 . S
H3220 C3206 0.960 . S
H3221 C3207 0.961 . S
H3222 C3207 0.961 . S
H3223 C3207 0.961 . S
H3224 C3208 0.931 . S
H3225 C3213 0.930 . S
H3226 C3214 0.956 . S
H3227 C3214 0.961 . S
H3228 C3214 0.961 . S
H3229 C3215 0.958 . S
H3230 C3215 0.961 . S
H3231 C3215 0.960 . S
C3232 C3233 1.391 . S
C3232 C3234 1.394 . S
C3232 H3248 0.931 . S
C3233 C3232 1.391 . S
C3233 C3237 1.376 . S
C3234 C3232 1.394 . S
C3234 C3235 1.369 . S
C3234 C3238 1.531 . S
C3235 C3234 1.369 . S
C3235 C3236 1.410 . S
C3235 C3243 1.503 . S
C3236 C3235 1.410 . S
C3236 C3237 1.392 . S
C3236 C3239 1.511 . S
C3237 C3233 1.376 . S
C3237 C3236 1.392 . S
C3237 H3249 0.929 . S
C3238 C3234 1.531 . S
C3238 H3250 0.960 . S
C3238 H3251 0.962 . S
C3238 H3252 0.960 . S
C3239 C3236 1.511 . S
C3239 H3253 0.961 . S
C3239 H3254 0.961 . S
C3239 H3255 0.961 . S
C3240 C3241 1.370 . S
C3240 C3242 1.363 . S
C3240 H3256 0.931 . S
C3241 C3240 1.370 . S
C3241 C3245 1.408 . S
C3242 C3240 1.363 . S
C3242 C3243 1.370 . S
C3242 C3246 1.524 . S
C3243 C3235 1.503 . S
C3243 C3242 1.370 . S
C3243 C3244 1.403 . S
C3244 C3243 1.403 . S
C3244 C3245 1.404 . S
C3244 C3247 1.539 . S
C3245 C3241 1.408 . S
C3245 C3244 1.404 . S
C3245 H3257 0.930 . S
C3246 C3242 1.524 . S
C3246 H3258 0.956 . S
C3246 H3259 0.961 . S
C3246 H3260 0.961 . S
C3247 C3244 1.539 . S
C3247 H3261 0.958 . S
C3247 H3262 0.961 . S
C3247 H3263 0.960 . S
H3248 C3232 0.931 . S
H3249 C3237 0.929 . S
H3250 C3238 0.960 . S
H3251 C3238 0.962 . S
H3252 C3238 0.960 . S
H3253 C3239 0.961 . S
H3254 C3239 0.961 . S
H3255 C3239 0.961 . S
H3256 C3240 0.931 . S
H3257 C3245 0.930 . S
H3258 C3246 0.956 . S
H3259 C3246 0.961 . S
H3260 C3246 0.961 . S
H3261 C3247 0.958 . S
H3262 C3247 0.961 . S
H3263 C3247 0.960 . S
C3264 C3265 1.391 . S
C3264 C3266 1.394 . S
C3264 H3280 0.931 . S
C3265 C3264 1.391 . S
C3265 C3269 1.376 . S
C3266 C3264 1.394 . S
C3266 C3267 1.369 . S
C3266 C3270 1.531 . S
C3267 C3266 1.369 . S
C3267 C3268 1.410 . S
C3267 C3275 1.503 . S
C3268 C3267 1.410 . S
C3268 C3269 1.392 . S
C3268 C3271 1.511 . S
C3269 C3265 1.376 . S
C3269 C3268 1.392 . S
C3269 H3281 0.929 . S
C3270 C3266 1.531 . S
C3270 H3282 0.960 . S
C3270 H3283 0.962 . S
C3270 H3284 0.960 . S
C3271 C3268 1.511 . S
C3271 H3285 0.961 . S
C3271 H3286 0.961 . S
C3271 H3287 0.961 . S
C3272 C3273 1.370 . S
C3272 C3274 1.363 . S
C3272 H3288 0.931 . S
C3273 C3272 1.370 . S
C3273 C3277 1.408 . S
C3274 C3272 1.363 . S
C3274 C3275 1.370 . S
C3274 C3278 1.524 . S
C3275 C3267 1.503 . S
C3275 C3274 1.370 . S
C3275 C3276 1.403 . S
C3276 C3275 1.403 . S
C3276 C3277 1.404 . S
C3276 C3279 1.539 . S
C3277 C3273 1.408 . S
C3277 C3276 1.404 . S
C3277 H3289 0.930 . S
C3278 C3274 1.524 . S
C3278 H3290 0.956 . S
C3278 H3291 0.961 . S
C3278 H3292 0.961 . S
C3279 C3276 1.539 . S
C3279 H3293 0.958 . S
C3279 H3294 0.961 . S
C3279 H3295 0.960 . S
H3280 C3264 0.931 . S
H3281 C3269 0.929 . S
H3282 C3270 0.960 . S
H3283 C3270 0.962 . S
H3284 C3270 0.960 . S
H3285 C3271 0.961 . S
H3286 C3271 0.961 . S
H3287 C3271 0.961 . S
H3288 C3272 0.931 . S
H3289 C3277 0.930 . S
H3290 C3278 0.956 . S
H3291 C3278 0.961 . S
H3292 C3278 0.961 . S
H3293 C3279 0.958 . S
H3294 C3279 0.961 . S
H3295 C3279 0.960 . S
C3296 C3297 1.391 . S
C3296 C3298 1.394 . S
C3296 H3312 0.931 . S
C3297 C3296 1.391 . S
C3297 C3301 1.376 . S
C3298 C3296 1.394 . S
C3298 C3299 1.369 . S
C3298 C3302 1.531 . S
C3299 C3298 1.369 . S
C3299 C3300 1.410 . S
C3299 C3307 1.503 . S
C3300 C3299 1.410 . S
C3300 C3301 1.392 . S
C3300 C3303 1.511 . S
C3301 C3297 1.376 . S
C3301 C3300 1.392 . S
C3301 H3313 0.929 . S
C3302 C3298 1.531 . S
C3302 H3314 0.960 . S
C3302 H3315 0.962 . S
C3302 H3316 0.960 . S
C3303 C3300 1.511 . S
C3303 H3317 0.961 . S
C3303 H3318 0.961 . S
C3303 H3319 0.961 . S
C3304 C3305 1.370 . S
C3304 C3306 1.363 . S
C3304 H3320 0.931 . S
C3305 C3304 1.370 . S
C3305 C3309 1.408 . S
C3306 C3304 1.363 . S
C3306 C3307 1.370 . S
C3306 C3310 1.524 . S
C3307 C3299 1.503 . S
C3307 C3306 1.370 . S
C3307 C3308 1.403 . S
C3308 C3307 1.403 . S
C3308 C3309 1.404 . S
C3308 C3311 1.539 . S
C3309 C3305 1.408 . S
C3309 C3308 1.404 . S
C3309 H3321 0.930 . S
C3310 C3306 1.524 . S
C3310 H3322 0.956 . S
C3310 H3323 0.961 . S
C3310 H3324 0.961 . S
C3311 C3308 1.539 . S
C3311 H3325 0.958 . S
C3311 H3326 0.961 . S
C3311 H3327 0.960 . S
H3312 C3296 0.931 . S
H3313 C3301 0.929 . S
H3314 C3302 0.960 . S
H3315 C3302 0.962 . S
H3316 C3302 0.960 . S
H3317 C3303 0.961 . S
H3318 C3303 0.961 . S
H3319 C3303 0.961 . S
H3320 C3304 0.931 . S
H3321 C3309 0.930 . S
H3322 C3310 0.956 . S
H3323 C3310 0.961 . S
H3324 C3310 0.961 . S
H3325 C3311 0.958 . S
H3326 C3311 0.961 . S
H3327 C3311 0.960 . S
C3328 C3329 1.391 . S
C3328 C3330 1.394 . S
C3328 H3344 0.931 . S
C3329 C3328 1.391 . S
C3329 C3333 1.376 . S
C3330 C3328 1.394 . S
C3330 C3331 1.369 . S
C3330 C3334 1.531 . S
C3331 C3330 1.369 . S
C3331 C3332 1.410 . S
C3331 C3339 1.503 . S
C3332 C3331 1.410 . S
C3332 C3333 1.392 . S
C3332 C3335 1.511 . S
C3333 C3329 1.376 . S
C3333 C3332 1.392 . S
C3333 H3345 0.929 . S
C3334 C3330 1.531 . S
C3334 H3346 0.960 . S
C3334 H3347 0.962 . S
C3334 H3348 0.960 . S
C3335 C3332 1.511 . S
C3335 H3349 0.961 . S
C3335 H3350 0.961 . S
C3335 H3351 0.961 . S
C3336 C3337 1.370 . S
C3336 C3338 1.363 . S
C3336 H3352 0.931 . S
C3337 C3336 1.370 . S
C3337 C3341 1.408 . S
C3338 C3336 1.363 . S
C3338 C3339 1.370 . S
C3338 C3342 1.524 . S
C3339 C3331 1.503 . S
C3339 C3338 1.370 . S
C3339 C3340 1.403 . S
C3340 C3339 1.403 . S
C3340 C3341 1.404 . S
C3340 C3343 1.539 . S
C3341 C3337 1.408 . S
C3341 C3340 1.404 . S
C3341 H3353 0.930 . S
C3342 C3338 1.524 . S
C3342 H3354 0.956 . S
C3342 H3355 0.961 . S
C3342 H3356 0.961 . S
C3343 C3340 1.539 . S
C3343 H3357 0.958 . S
C3343 H3358 0.961 . S
C3343 H3359 0.960 . S
H3344 C3328 0.931 . S
H3345 C3333 0.929 . S
H3346 C3334 0.960 . S
H3347 C3334 0.962 . S
H3348 C3334 0.960 . S
H3349 C3335 0.961 . S
H3350 C3335 0.961 . S
H3351 C3335 0.961 . S
H3352 C3336 0.931 . S
H3353 C3341 0.930 . S
H3354 C3342 0.956 . S
H3355 C3342 0.961 . S
H3356 C3342 0.961 . S
H3357 C3343 0.958 . S
H3358 C3343 0.961 . S
H3359 C3343 0.960 . S
C3360 C3361 1.391 . S
C3360 C3362 1.394 . S
C3360 H3376 0.931 . S
C3361 C3360 1.391 . S
C3361 C3365 1.376 . S
C3362 C3360 1.394 . S
C3362 C3363 1.369 . S
C3362 C3366 1.531 . S
C3363 C3362 1.369 . S
C3363 C3364 1.410 . S
C3363 C3371 1.503 . S
C3364 C3363 1.410 . S
C3364 C3365 1.392 . S
C3364 C3367 1.511 . S
C3365 C3361 1.376 . S
C3365 C3364 1.392 . S
C3365 H3377 0.929 . S
C3366 C3362 1.531 . S
C3366 H3378 0.960 . S
C3366 H3379 0.962 . S
C3366 H3380 0.960 . S
C3367 C3364 1.511 . S
C3367 H3381 0.961 . S
C3367 H3382 0.961 . S
C3367 H3383 0.961 . S
C3368 C3369 1.370 . S
C3368 C3370 1.363 . S
C3368 H3384 0.931 . S
C3369 C3368 1.370 . S
C3369 C3373 1.408 . S
C3370 C3368 1.363 . S
C3370 C3371 1.370 . S
C3370 C3374 1.524 . S
C3371 C3363 1.503 . S
C3371 C3370 1.370 . S
C3371 C3372 1.403 . S
C3372 C3371 1.403 . S
C3372 C3373 1.404 . S
C3372 C3375 1.539 . S
C3373 C3369 1.408 . S
C3373 C3372 1.404 . S
C3373 H3385 0.930 . S
C3374 C3370 1.524 . S
C3374 H3386 0.956 . S
C3374 H3387 0.961 . S
C3374 H3388 0.961 . S
C3375 C3372 1.539 . S
C3375 H3389 0.958 . S
C3375 H3390 0.961 . S
C3375 H3391 0.960 . S
H3376 C3360 0.931 . S
H3377 C3365 0.929 . S
H3378 C3366 0.960 . S
H3379 C3366 0.962 . S
H3380 C3366 0.960 . S
H3381 C3367 0.961 . S
H3382 C3367 0.961 . S
H3383 C3367 0.961 . S
H3384 C3368 0.931 . S
H3385 C3373 0.930 . S
H3386 C3374 0.956 . S
H3387 C3374 0.961 . S
H3388 C3374 0.961 . S
H3389 C3375 0.958 . S
H3390 C3375 0.961 . S
H3391 C3375 0.960 . S
C3392 C3393 1.391 . S
C3392 C3394 1.394 . S
C3392 H3408 0.931 . S
C3393 C3392 1.391 . S
C3393 C3397 1.376 . S
C3394 C3392 1.394 . S
C3394 C3395 1.369 . S
C3394 C3398 1.531 . S
C3395 C3394 1.369 . S
C3395 C3396 1.410 . S
C3395 C3403 1.503 . S
C3396 C3395 1.410 . S
C3396 C3397 1.392 . S
C3396 C3399 1.511 . S
C3397 C3393 1.376 . S
C3397 C3396 1.392 . S
C3397 H3409 0.929 . S
C3398 C3394 1.531 . S
C3398 H3410 0.960 . S
C3398 H3411 0.962 . S
C3398 H3412 0.960 . S
C3399 C3396 1.511 . S
C3399 H3413 0.961 . S
C3399 H3414 0.961 . S
C3399 H3415 0.961 . S
C3400 C3401 1.370 . S
C3400 C3402 1.363 . S
C3400 H3416 0.931 . S
C3401 C3400 1.370 . S
C3401 C3405 1.408 . S
C3402 C3400 1.363 . S
C3402 C3403 1.370 . S
C3402 C3406 1.524 . S
C3403 C3395 1.503 . S
C3403 C3402 1.370 . S
C3403 C3404 1.403 . S
C3404 C3403 1.403 . S
C3404 C3405 1.404 . S
C3404 C3407 1.539 . S
C3405 C3401 1.408 . S
C3405 C3404 1.404 . S
C3405 H3417 0.930 . S
C3406 C3402 1.524 . S
C3406 H3418 0.956 . S
C3406 H3419 0.961 . S
C3406 H3420 0.961 . S
C3407 C3404 1.539 . S
C3407 H3421 0.958 . S
C3407 H3422 0.961 . S
C3407 H3423 0.960 . S
H3408 C3392 0.931 . S
H3409 C3397 0.929 . S
H3410 C3398 0.960 . S
H3411 C3398 0.962 . S
H3412 C3398 0.960 . S
H3413 C3399 0.961 . S
H3414 C3399 0.961 . S
H3415 C3399 0.961 . S
H3416 C3400 0.931 . S
H3417 C3405 0.930 . S
H3418 C3406 0.956 . S
H3419 C3406 0.961 . S
H3420 C3406 0.961 . S
H3421 C3407 0.958 . S
H3422 C3407 0.961 . S
H3423 C3407 0.960 . S
C3424 C3425 1.391 . S
C3424 C3426 1.394 . S
C3424 H3440 0.931 . S
C3425 C3424 1.391 . S
C3425 C3429 1.376 . S
C3426 C3424 1.394 . S
C3426 C3427 1.369 . S
C3426 C3430 1.531 . S
C3427 C3426 1.369 . S
C3427 C3428 1.410 . S
C3427 C3435 1.503 . S
C3428 C3427 1.410 . S
C3428 C3429 1.392 . S
C3428 C3431 1.511 . S
C3429 C3425 1.376 . S
C3429 C3428 1.392 . S
C3429 H3441 0.929 . S
C3430 C3426 1.531 . S
C3430 H3442 0.960 . S
C3430 H3443 0.962 . S
C3430 H3444 0.960 . S
C3431 C3428 1.511 . S
C3431 H3445 0.961 . S
C3431 H3446 0.961 . S
C3431 H3447 0.961 . S
C3432 C3433 1.370 . S
C3432 C3434 1.363 . S
C3432 H3448 0.931 . S
C3433 C3432 1.370 . S
C3433 C3437 1.408 . S
C3434 C3432 1.363 . S
C3434 C3435 1.370 . S
C3434 C3438 1.524 . S
C3435 C3427 1.503 . S
C3435 C3434 1.370 . S
C3435 C3436 1.403 . S
C3436 C3435 1.403 . S
C3436 C3437 1.404 . S
C3436 C3439 1.539 . S
C3437 C3433 1.408 . S
C3437 C3436 1.404 . S
C3437 H3449 0.930 . S
C3438 C3434 1.524 . S
C3438 H3450 0.956 . S
C3438 H3451 0.961 . S
C3438 H3452 0.961 . S
C3439 C3436 1.539 . S
C3439 H3453 0.958 . S
C3439 H3454 0.961 . S
C3439 H3455 0.960 . S
H3440 C3424 0.931 . S
H3441 C3429 0.929 . S
H3442 C3430 0.960 . S
H3443 C3430 0.962 . S
H3444 C3430 0.960 . S
H3445 C3431 0.961 . S
H3446 C3431 0.961 . S
H3447 C3431 0.961 . S
H3448 C3432 0.931 . S
H3449 C3437 0.930 . S
H3450 C3438 0.956 . S
H3451 C3438 0.961 . S
H3452 C3438 0.961 . S
H3453 C3439 0.958 . S
H3454 C3439 0.961 . S
H3455 C3439 0.960 . S
C3456 C3457 1.391 . S
C3456 C3458 1.394 . S
C3456 H3472 0.931 . S
C3457 C3456 1.391 . S
C3457 C3461 1.376 . S
C3458 C3456 1.394 . S
C3458 C3459 1.369 . S
C3458 C3462 1.531 . S
C3459 C3458 1.369 . S
C3459 C3460 1.410 . S
C3459 C3467 1.503 . S
C3460 C3459 1.410 . S
C3460 C3461 1.392 . S
C3460 C3463 1.511 . S
C3461 C3457 1.376 . S
C3461 C3460 1.392 . S
C3461 H3473 0.929 . S
C3462 C3458 1.531 . S
C3462 H3474 0.960 . S
C3462 H3475 0.962 . S
C3462 H3476 0.960 . S
C3463 C3460 1.511 . S
C3463 H3477 0.961 . S
C3463 H3478 0.961 . S
C3463 H3479 0.961 . S
C3464 C3465 1.370 . S
C3464 C3466 1.363 . S
C3464 H3480 0.931 . S
C3465 C3464 1.370 . S
C3465 C3469 1.408 . S
C3466 C3464 1.363 . S
C3466 C3467 1.370 . S
C3466 C3470 1.524 . S
C3467 C3459 1.503 . S
C3467 C3466 1.370 . S
C3467 C3468 1.403 . S
C3468 C3467 1.403 . S
C3468 C3469 1.404 . S
C3468 C3471 1.539 . S
C3469 C3465 1.408 . S
C3469 C3468 1.404 . S
C3469 H3481 0.930 . S
C3470 C3466 1.524 . S
C3470 H3482 0.956 . S
C3470 H3483 0.961 . S
C3470 H3484 0.961 . S
C3471 C3468 1.539 . S
C3471 H3485 0.958 . S
C3471 H3486 0.961 . S
C3471 H3487 0.960 . S
H3472 C3456 0.931 . S
H3473 C3461 0.929 . S
H3474 C3462 0.960 . S
H3475 C3462 0.962 . S
H3476 C3462 0.960 . S
H3477 C3463 0.961 . S
H3478 C3463 0.961 . S
H3479 C3463 0.961 . S
H3480 C3464 0.931 . S
H3481 C3469 0.930 . S
H3482 C3470 0.956 . S
H3483 C3470 0.961 . S
H3484 C3470 0.961 . S
H3485 C3471 0.958 . S
H3486 C3471 0.961 . S
H3487 C3471 0.960 . S
C3488 C3489 1.391 . S
C3488 C3490 1.394 . S
C3488 H3504 0.931 . S
C3489 C3488 1.391 . S
C3489 C3493 1.376 . S
C3490 C3488 1.394 . S
C3490 C3491 1.369 . S
C3490 C3494 1.531 . S
C3491 C3490 1.369 . S
C3491 C3492 1.410 . S
C3491 C3499 1.503 . S
C3492 C3491 1.410 . S
C3492 C3493 1.392 . S
C3492 C3495 1.511 . S
C3493 C3489 1.376 . S
C3493 C3492 1.392 . S
C3493 H3505 0.929 . S
C3494 C3490 1.531 . S
C3494 H3506 0.960 . S
C3494 H3507 0.962 . S
C3494 H3508 0.960 . S
C3495 C3492 1.511 . S
C3495 H3509 0.961 . S
C3495 H3510 0.961 . S
C3495 H3511 0.961 . S
C3496 C3497 1.370 . S
C3496 C3498 1.363 . S
C3496 H3512 0.931 . S
C3497 C3496 1.370 . S
C3497 C3501 1.408 . S
C3498 C3496 1.363 . S
C3498 C3499 1.370 . S
C3498 C3502 1.524 . S
C3499 C3491 1.503 . S
C3499 C3498 1.370 . S
C3499 C3500 1.403 . S
C3500 C3499 1.403 . S
C3500 C3501 1.404 . S
C3500 C3503 1.539 . S
C3501 C3497 1.408 . S
C3501 C3500 1.404 . S
C3501 H3513 0.930 . S
C3502 C3498 1.524 . S
C3502 H3514 0.956 . S
C3502 H3515 0.961 . S
C3502 H3516 0.961 . S
C3503 C3500 1.539 . S
C3503 H3517 0.958 . S
C3503 H3518 0.961 . S
C3503 H3519 0.960 . S
H3504 C3488 0.931 . S
H3505 C3493 0.929 . S
H3506 C3494 0.960 . S
H3507 C3494 0.962 . S
H3508 C3494 0.960 . S
H3509 C3495 0.961 . S
H3510 C3495 0.961 . S
H3511 C3495 0.961 . S
H3512 C3496 0.931 . S
H3513 C3501 0.930 . S
H3514 C3502 0.956 . S
H3515 C3502 0.961 . S
H3516 C3502 0.961 . S
H3517 C3503 0.958 . S
H3518 C3503 0.961 . S
H3519 C3503 0.960 . S
C3520 C3521 1.391 . S
C3520 C3522 1.394 . S
C3520 H3536 0.931 . S
C3521 C3520 1.391 . S
C3521 C3525 1.376 . S
C3522 C3520 1.394 . S
C3522 C3523 1.369 . S
C3522 C3526 1.531 . S
C3523 C3522 1.369 . S
C3523 C3524 1.410 . S
C3523 C3531 1.503 . S
C3524 C3523 1.410 . S
C3524 C3525 1.392 . S
C3524 C3527 1.511 . S
C3525 C3521 1.376 . S
C3525 C3524 1.392 . S
C3525 H3537 0.929 . S
C3526 C3522 1.531 . S
C3526 H3538 0.960 . S
C3526 H3539 0.962 . S
C3526 H3540 0.960 . S
C3527 C3524 1.511 . S
C3527 H3541 0.961 . S
C3527 H3542 0.961 . S
C3527 H3543 0.961 . S
C3528 C3529 1.370 . S
C3528 C3530 1.363 . S
C3528 H3544 0.931 . S
C3529 C3528 1.370 . S
C3529 C3533 1.408 . S
C3530 C3528 1.363 . S
C3530 C3531 1.370 . S
C3530 C3534 1.524 . S
C3531 C3523 1.503 . S
C3531 C3530 1.370 . S
C3531 C3532 1.403 . S
C3532 C3531 1.403 . S
C3532 C3533 1.404 . S
C3532 C3535 1.539 . S
C3533 C3529 1.408 . S
C3533 C3532 1.404 . S
C3533 H3545 0.930 . S
C3534 C3530 1.524 . S
C3534 H3546 0.956 . S
C3534 H3547 0.961 . S
C3534 H3548 0.961 . S
C3535 C3532 1.539 . S
C3535 H3549 0.958 . S
C3535 H3550 0.961 . S
C3535 H3551 0.960 . S
H3536 C3520 0.931 . S
H3537 C3525 0.929 . S
H3538 C3526 0.960 . S
H3539 C3526 0.962 . S
H3540 C3526 0.960 . S
H3541 C3527 0.961 . S
H3542 C3527 0.961 . S
H3543 C3527 0.961 . S
H3544 C3528 0.931 . S
H3545 C3533 0.930 . S
H3546 C3534 0.956 . S
H3547 C3534 0.961 . S
H3548 C3534 0.961 . S
H3549 C3535 0.958 . S
H3550 C3535 0.961 . S
H3551 C3535 0.960 . S
C3552 C3553 1.391 . S
C3552 C3554 1.394 . S
C3552 H3568 0.931 . S
C3553 C3552 1.391 . S
C3553 C3557 1.376 . S
C3554 C3552 1.394 . S
C3554 C3555 1.369 . S
C3554 C3558 1.531 . S
C3555 C3554 1.369 . S
C3555 C3556 1.410 . S
C3555 C3563 1.503 . S
C3556 C3555 1.410 . S
C3556 C3557 1.392 . S
C3556 C3559 1.511 . S
C3557 C3553 1.376 . S
C3557 C3556 1.392 . S
C3557 H3569 0.929 . S
C3558 C3554 1.531 . S
C3558 H3570 0.960 . S
C3558 H3571 0.962 . S
C3558 H3572 0.960 . S
C3559 C3556 1.511 . S
C3559 H3573 0.961 . S
C3559 H3574 0.961 . S
C3559 H3575 0.961 . S
C3560 C3561 1.370 . S
C3560 C3562 1.363 . S
C3560 H3576 0.931 . S
C3561 C3560 1.370 . S
C3561 C3565 1.408 . S
C3562 C3560 1.363 . S
C3562 C3563 1.370 . S
C3562 C3566 1.524 . S
C3563 C3555 1.503 . S
C3563 C3562 1.370 . S
C3563 C3564 1.403 . S
C3564 C3563 1.403 . S
C3564 C3565 1.404 . S
C3564 C3567 1.539 . S
C3565 C3561 1.408 . S
C3565 C3564 1.404 . S
C3565 H3577 0.930 . S
C3566 C3562 1.524 . S
C3566 H3578 0.956 . S
C3566 H3579 0.961 . S
C3566 H3580 0.961 . S
C3567 C3564 1.539 . S
C3567 H3581 0.958 . S
C3567 H3582 0.961 . S
C3567 H3583 0.960 . S
H3568 C3552 0.931 . S
H3569 C3557 0.929 . S
H3570 C3558 0.960 . S
H3571 C3558 0.962 . S
H3572 C3558 0.960 . S
H3573 C3559 0.961 . S
H3574 C3559 0.961 . S
H3575 C3559 0.961 . S
H3576 C3560 0.931 . S
H3577 C3565 0.930 . S
H3578 C3566 0.956 . S
H3579 C3566 0.961 . S
H3580 C3566 0.961 . S
H3581 C3567 0.958 . S
H3582 C3567 0.961 . S
H3583 C3567 0.960 . S
C3584 C3585 1.391 . S
C3584 C3586 1.394 . S
C3584 H3600 0.931 . S
C3585 C3584 1.391 . S
C3585 C3589 1.376 . S
C3586 C3584 1.394 . S
C3586 C3587 1.369 . S
C3586 C3590 1.531 . S
C3587 C3586 1.369 . S
C3587 C3588 1.410 . S
C3587 C3595 1.503 . S
C3588 C3587 1.410 . S
C3588 C3589 1.392 . S
C3588 C3591 1.511 . S
C3589 C3585 1.376 . S
C3589 C3588 1.392 . S
C3589 H3601 0.929 . S
C3590 C3586 1.531 . S
C3590 H3602 0.960 . S
C3590 H3603 0.962 . S
C3590 H3604 0.960 . S
C3591 C3588 1.511 . S
C3591 H3605 0.961 . S
C3591 H3606 0.961 . S
C3591 H3607 0.961 . S
C3592 C3593 1.370 . S
C3592 C3594 1.363 . S
C3592 H3608 0.931 . S
C3593 C3592 1.370 . S
C3593 C3597 1.408 . S
C3594 C3592 1.363 . S
C3594 C3595 1.370 . S
C3594 C3598 1.524 . S
C3595 C3587 1.503 . S
C3595 C3594 1.370 . S
C3595 C3596 1.403 . S
C3596 C3595 1.403 . S
C3596 C3597 1.404 . S
C3596 C3599 1.539 . S
C3597 C3593 1.408 . S
C3597 C3596 1.404 . S
C3597 H3609 0.930 . S
C3598 C3594 1.524 . S
C3598 H3610 0.956 . S
C3598 H3611 0.961 . S
C3598 H3612 0.961 . S
C3599 C3596 1.539 . S
C3599 H3613 0.958 . S
C3599 H3614 0.961 . S
C3599 H3615 0.960 . S
H3600 C3584 0.931 . S
H3601 C3589 0.929 . S
H3602 C3590 0.960 . S
H3603 C3590 0.962 . S
H3604 C3590 0.960 . S
H3605 C3591 0.961 . S
H3606 C3591 0.961 . S
H3607 C3591 0.961 . S
H3608 C3592 0.931 . S
H3609 C3597 0.930 . S
H3610 C3598 0.956 . S
H3611 C3598 0.961 . S
H3612 C3598 0.961 . S
H3613 C3599 0.958 . S
H3614 C3599 0.961 . S
H3615 C3599 0.960 . S
C3616 C3617 1.391 . S
C3616 C3618 1.394 . S
C3616 H3632 0.931 . S
C3617 C3616 1.391 . S
C3617 C3621 1.376 . S
C3618 C3616 1.394 . S
C3618 C3619 1.369 . S
C3618 C3622 1.531 . S
C3619 C3618 1.369 . S
C3619 C3620 1.410 . S
C3619 C3627 1.503 . S
C3620 C3619 1.410 . S
C3620 C3621 1.392 . S
C3620 C3623 1.511 . S
C3621 C3617 1.376 . S
C3621 C3620 1.392 . S
C3621 H3633 0.929 . S
C3622 C3618 1.531 . S
C3622 H3634 0.960 . S
C3622 H3635 0.962 . S
C3622 H3636 0.960 . S
C3623 C3620 1.511 . S
C3623 H3637 0.961 . S
C3623 H3638 0.961 . S
C3623 H3639 0.961 . S
C3624 C3625 1.370 . S
C3624 C3626 1.363 . S
C3624 H3640 0.931 . S
C3625 C3624 1.370 . S
C3625 C3629 1.408 . S
C3626 C3624 1.363 . S
C3626 C3627 1.370 . S
C3626 C3630 1.524 . S
C3627 C3619 1.503 . S
C3627 C3626 1.370 . S
C3627 C3628 1.403 . S
C3628 C3627 1.403 . S
C3628 C3629 1.404 . S
C3628 C3631 1.539 . S
C3629 C3625 1.408 . S
C3629 C3628 1.404 . S
C3629 H3641 0.930 . S
C3630 C3626 1.524 . S
C3630 H3642 0.956 . S
C3630 H3643 0.961 . S
C3630 H3644 0.961 . S
C3631 C3628 1.539 . S
C3631 H3645 0.958 . S
C3631 H3646 0.961 . S
C3631 H3647 0.960 . S
H3632 C3616 0.931 . S
H3633 C3621 0.929 . S
H3634 C3622 0.960 . S
H3635 C3622 0.962 . S
H3636 C3622 0.960 . S
H3637 C3623 0.961 . S
H3638 C3623 0.961 . S
H3639 C3623 0.961 . S
H3640 C3624 0.931 . S
H3641 C3629 0.930 . S
H3642 C3630 0.956 . S
H3643 C3630 0.961 . S
H3644 C3630 0.961 . S
H3645 C3631 0.958 . S
H3646 C3631 0.961 . S
H3647 C3631 0.960 . S
C3648 C3649 1.391 . S
C3648 C3650 1.394 . S
C3648 H3664 0.931 . S
C3649 C3648 1.391 . S
C3649 C3653 1.376 . S
C3650 C3648 1.394 . S
C3650 C3651 1.369 . S
C3650 C3654 1.531 . S
C3651 C3650 1.369 . S
C3651 C3652 1.410 . S
C3651 C3659 1.503 . S
C3652 C3651 1.410 . S
C3652 C3653 1.392 . S
C3652 C3655 1.511 . S
C3653 C3649 1.376 . S
C3653 C3652 1.392 . S
C3653 H3665 0.929 . S
C3654 C3650 1.531 . S
C3654 H3666 0.960 . S
C3654 H3667 0.962 . S
C3654 H3668 0.960 . S
C3655 C3652 1.511 . S
C3655 H3669 0.961 . S
C3655 H3670 0.961 . S
C3655 H3671 0.961 . S
C3656 C3657 1.370 . S
C3656 C3658 1.363 . S
C3656 H3672 0.931 . S
C3657 C3656 1.370 . S
C3657 C3661 1.408 . S
C3658 C3656 1.363 . S
C3658 C3659 1.370 . S
C3658 C3662 1.524 . S
C3659 C3651 1.503 . S
C3659 C3658 1.370 . S
C3659 C3660 1.403 . S
C3660 C3659 1.403 . S
C3660 C3661 1.404 . S
C3660 C3663 1.539 . S
C3661 C3657 1.408 . S
C3661 C3660 1.404 . S
C3661 H3673 0.930 . S
C3662 C3658 1.524 . S
C3662 H3674 0.956 . S
C3662 H3675 0.961 . S
C3662 H3676 0.961 . S
C3663 C3660 1.539 . S
C3663 H3677 0.958 . S
C3663 H3678 0.961 . S
C3663 H3679 0.960 . S
H3664 C3648 0.931 . S
H3665 C3653 0.929 . S
H3666 C3654 0.960 . S
H3667 C3654 0.962 . S
H3668 C3654 0.960 . S
H3669 C3655 0.961 . S
H3670 C3655 0.961 . S
H3671 C3655 0.961 . S
H3672 C3656 0.931 . S
H3673 C3661 0.930 . S
H3674 C3662 0.956 . S
H3675 C3662 0.961 . S
H3676 C3662 0.961 . S
H3677 C3663 0.958 . S
H3678 C3663 0.961 . S
H3679 C3663 0.960 . S
C3680 C3681 1.391 . S
C3680 C3682 1.394 . S
C3680 H3696 0.931 . S
C3681 C3680 1.391 . S
C3681 C3685 1.376 . S
C3682 C3680 1.394 . S
C3682 C3683 1.369 . S
C3682 C3686 1.531 . S
C3683 C3682 1.369 . S
C3683 C3684 1.410 . S
C3683 C3691 1.503 . S
C3684 C3683 1.410 . S
C3684 C3685 1.392 . S
C3684 C3687 1.511 . S
C3685 C3681 1.376 . S
C3685 C3684 1.392 . S
C3685 H3697 0.929 . S
C3686 C3682 1.531 . S
C3686 H3698 0.960 . S
C3686 H3699 0.962 . S
C3686 H3700 0.960 . S
C3687 C3684 1.511 . S
C3687 H3701 0.961 . S
C3687 H3702 0.961 . S
C3687 H3703 0.961 . S
C3688 C3689 1.370 . S
C3688 C3690 1.363 . S
C3688 H3704 0.931 . S
C3689 C3688 1.370 . S
C3689 C3693 1.408 . S
C3690 C3688 1.363 . S
C3690 C3691 1.370 . S
C3690 C3694 1.524 . S
C3691 C3683 1.503 . S
C3691 C3690 1.370 . S
C3691 C3692 1.403 . S
C3692 C3691 1.403 . S
C3692 C3693 1.404 . S
C3692 C3695 1.539 . S
C3693 C3689 1.408 . S
C3693 C3692 1.404 . S
C3693 H3705 0.930 . S
C3694 C3690 1.524 . S
C3694 H3706 0.956 . S
C3694 H3707 0.961 . S
C3694 H3708 0.961 . S
C3695 C3692 1.539 . S
C3695 H3709 0.958 . S
C3695 H3710 0.961 . S
C3695 H3711 0.960 . S
H3696 C3680 0.931 . S
H3697 C3685 0.929 . S
H3698 C3686 0.960 . S
H3699 C3686 0.962 . S
H3700 C3686 0.960 . S
H3701 C3687 0.961 . S
H3702 C3687 0.961 . S
H3703 C3687 0.961 . S
H3704 C3688 0.931 . S
H3705 C3693 0.930 . S
H3706 C3694 0.956 . S
H3707 C3694 0.961 . S
H3708 C3694 0.961 . S
H3709 C3695 0.958 . S
H3710 C3695 0.961 . S
H3711 C3695 0.960 . S
C3712 C3713 1.391 . S
C3712 C3714 1.394 . S
C3712 H3728 0.931 . S
C3713 C3712 1.391 . S
C3713 C3717 1.376 . S
C3714 C3712 1.394 . S
C3714 C3715 1.369 . S
C3714 C3718 1.531 . S
C3715 C3714 1.369 . S
C3715 C3716 1.410 . S
C3715 C3723 1.503 . S
C3716 C3715 1.410 . S
C3716 C3717 1.392 . S
C3716 C3719 1.511 . S
C3717 C3713 1.376 . S
C3717 C3716 1.392 . S
C3717 H3729 0.929 . S
C3718 C3714 1.531 . S
C3718 H3730 0.960 . S
C3718 H3731 0.962 . S
C3718 H3732 0.960 . S
C3719 C3716 1.511 . S
C3719 H3733 0.961 . S
C3719 H3734 0.961 . S
C3719 H3735 0.961 . S
C3720 C3721 1.370 . S
C3720 C3722 1.363 . S
C3720 H3736 0.931 . S
C3721 C3720 1.370 . S
C3721 C3725 1.408 . S
C3722 C3720 1.363 . S
C3722 C3723 1.370 . S
C3722 C3726 1.524 . S
C3723 C3715 1.503 . S
C3723 C3722 1.370 . S
C3723 C3724 1.403 . S
C3724 C3723 1.403 . S
C3724 C3725 1.404 . S
C3724 C3727 1.539 . S
C3725 C3721 1.408 . S
C3725 C3724 1.404 . S
C3725 H3737 0.930 . S
C3726 C3722 1.524 . S
C3726 H3738 0.956 . S
C3726 H3739 0.961 . S
C3726 H3740 0.961 . S
C3727 C3724 1.539 . S
C3727 H3741 0.958 . S
C3727 H3742 0.961 . S
C3727 H3743 0.960 . S
H3728 C3712 0.931 . S
H3729 C3717 0.929 . S
H3730 C3718 0.960 . S
H3731 C3718 0.962 . S
H3732 C3718 0.960 . S
H3733 C3719 0.961 . S
H3734 C3719 0.961 . S
H3735 C3719 0.961 . S
H3736 C3720 0.931 . S
H3737 C3725 0.930 . S
H3738 C3726 0.956 . S
H3739 C3726 0.961 . S
H3740 C3726 0.961 . S
H3741 C3727 0.958 . S
H3742 C3727 0.961 . S
H3743 C3727 0.960 . S
C673 C283 1.518 . S
C681 C3 1.522 . S
C705 C21 1.407 . S
C713 C245 1.418 . S
C737 C31 1.498 . S
C745 C259 1.455 . S
C769 C273 1.435 . S
C777 C49 1.420 . S
C801 C329 1.417 . S
C809 C63 1.428 . S
C833 C73 1.525 . S
C841 C301 1.439 . S
C865 C91 1.462 . S
C873 C311 1.499 . S
C897 C101 1.504 . S
C905 C227 1.524 . S
C929 C115 1.514 . S
C937 C213 1.517 . S
C961 C133 1.381 . S
C969 C175 1.442 . S
C993 C143 1.496 . S
C1001 C185 1.496 . S
C1025 C203 1.467 . S
C1033 C161 1.420 . S
C1057 C343 1.443 . S
C1065 C623 1.420 . S
C1089 C577 1.453 . S
C1097 C353 1.461 . S
C1121 C371 1.375 . S
C1129 C591 1.473 . S
C1153 C609 1.391 . S
C1161 C381 1.451 . S
C1185 C395 1.434 . S
C1193 C661 1.449 . S
C1217 C633 1.474 . S
C1225 C413 1.418 . S
C1249 C423 1.434 . S
C1257 C651 1.363 . S
C1281 C567 1.366 . S
C1289 C441 1.397 . S
C1313 C455 1.393 . S
C1321 C553 1.405 . S
C1345 C507 1.445 . S
C1353 C465 1.466 . S
C1377 C525 1.340 . S
C1385 C483 1.370 . S
C1409 C535 1.476 . S
C1417 C493 1.469 . S
C1441 C367 1.155 . S
C1449 C7 1.109 . S
C1473 C17 1.121 . S
C1481 C385 1.082 . S
C1505 C35 1.040 . S
C1513 C339 1.137 . S
C1537 C45 1.158 . S
C1545 C357 1.101 . S
C1569 C59 1.153 . S
C1577 C427 1.111 . S
C1601 C437 1.145 . S
C1609 C77 1.083 . S
C1633 C399 1.140 . S
C1641 C87 1.141 . S
C1665 C409 1.154 . S
C1673 C105 1.113 . S
C1697 C511 1.072 . S
C1705 C119 1.108 . S
C1729 C129 1.123 . S
C1737 C521 1.139 . S
C1761 C539 1.141 . S
C1769 C147 1.093 . S
C1793 C157 1.132 . S
C1801 C549 1.136 . S
C1825 C171 1.124 . S
C1833 C451 1.140 . S
C1857 C189 1.139 . S
C1865 C469 1.112 . S
C1889 C479 1.155 . S
C1897 C199 1.148 . S
C1921 C497 1.053 . S
C1929 C217 1.088 . S
C1953 C231 1.063 . S
C1961 C605 1.142 . S
C1985 C241 1.126 . S
C1993 C637 1.080 . S
C2017 C647 1.122 . S
C2025 C255 1.134 . S
C2049 C563 1.148 . S
C2057 C269 1.145 . S
C2081 C287 1.128 . S
C2089 C665 1.119 . S
C2113 C581 1.096 . S
C2121 C297 1.156 . S
C2145 C315 1.053 . S
C2153 C595 1.097 . S
C2177 C325 1.126 . S
C2185 C619 1.139 . S
C2209 C400 1.719 . S
C2217 C9 1.661 . S
C2241 C415 1.613 . S
C2249 C22 1.710 . S
C2273 C428 1.688 . S
C2281 C37 1.643 . S
C2305 C50 1.722 . S
C2313 C443 1.654 . S
C2337 C345 1.608 . S
C2345 C64 1.707 . S
C2369 C358 1.713 . S
C2377 C79 1.661 . S
C2401 C92 1.702 . S
C2409 C373 1.640 . S
C2433 C386 1.699 . S
C2441 C107 1.648 . S
C2465 C121 1.659 . S
C2473 C540 1.713 . S
C2497 C134 1.704 . S
C2505 C555 1.641 . S
C2529 C512 1.721 . S
C2537 C149 1.664 . S
C2561 C162 1.706 . S
C2569 C527 1.640 . S
C2593 C485 1.673 . S
C2601 C176 1.722 . S
C2625 C191 1.631 . S
C2633 C498 1.706 . S
C2657 C204 1.718 . S
C2665 C457 1.649 . S
C2689 C219 1.669 . S
C2697 C470 1.712 . S
C2721 C638 1.694 . S
C2729 C233 1.642 . S
C2753 C246 1.731 . S
C2761 C611 1.660 . S
C2785 C260 1.701 . S
C2793 C625 1.633 . S
C2817 C274 1.682 . S
C2825 C582 1.689 . S
C2849 C596 1.683 . S
C2857 C289 1.637 . S
C2881 C569 1.646 . S
C2889 C302 1.726 . S
C2913 C666 1.741 . S
C2921 C317 1.684 . S
C2945 C330 1.704 . S
C2953 C653 1.641 . S
C2977 C218 1.462 . S
C2985 C8 1.506 . S
C3009 C23 1.387 . S
C3017 C177 1.388 . S
C3041 C190 1.492 . S
C3049 C36 1.490 . S
C3073 C205 1.423 . S
C3081 C51 1.374 . S
C3105 C135 1.419 . S
C3113 C65 1.375 . S
C3137 C78 1.491 . S
C3145 C148 1.492 . S
C3169 C93 1.394 . S
C3177 C163 1.383 . S
C3201 C120 1.519 . S
C3209 C106 1.479 . S
C3233 C232 1.496 . S
C3241 C288 1.498 . S
C3265 C331 1.345 . S
C3273 C247 1.421 . S
C3297 C303 1.365 . S
C3305 C261 1.395 . S
C3329 C275 1.420 . S
C3337 C316 1.504 . S
C3361 C554 1.471 . S
C3369 C344 1.443 . S
C3393 C513 1.318 . S
C3401 C359 1.369 . S
C3425 C372 1.455 . S
C3433 C526 1.456 . S
C3457 C541 1.334 . S
C3465 C387 1.356 . S
C3489 C471 1.336 . S
C3497 C401 1.363 . S
C3521 C414 1.485 . S
C3529 C484 1.440 . S
C3553 C429 1.382 . S
C3561 C499 1.337 . S
C3585 C442 1.482 . S
C3593 C456 1.442 . S
C3617 C568 1.408 . S
C3625 C624 1.464 . S
C3649 C667 1.369 . S
C3657 C583 1.359 . S
C3681 C639 1.299 . S
C3689 C597 1.370 . S
C3713 C652 1.426 . S
C3721 C610 1.466 . S
