# Generated by pormake.
# Topology smd, (6)-cn, num edge types: 1
# Building blocks:
#     Node 0, Type 0, BuildingBlock: BETGAK_clean_sbu_0, # of connection points: 6
#     Node 1, Type 0, BuildingBlock: BETGAK_clean_sbu_0, # of connection points: 6
#     Node 2, Type 0, BuildingBlock: BETGAK_clean_sbu_0, # of connection points: 6
#     Node 3, Type 0, BuildingBlock: BETGAK_clean_sbu_0, # of connection points: 6
#     Node 4, Type 0, BuildingBlock: BETGAK_clean_sbu_0, # of connection points: 6
#     Node 5, Type 0, BuildingBlock: BETGAK_clean_sbu_0, # of connection points: 6
#     Node 6, Type 0, BuildingBlock: BETGAK_clean_sbu_0, # of connection points: 6
#     Node 7, Type 0, BuildingBlock: BETGAK_clean_sbu_0, # of connection points: 6
#     Node 8, Type 0, BuildingBlock: BETGAK_clean_sbu_0, # of connection points: 6
#     Node 9, Type 0, BuildingBlock: BETGAK_clean_sbu_0, # of connection points: 6
#     Node 10, Type 0, BuildingBlock: BETGAK_clean_sbu_0, # of connection points: 6
#     Node 11, Type 0, BuildingBlock: BETGAK_clean_sbu_0, # of connection points: 6
#     Node 12, Type 0, BuildingBlock: BETGAK_clean_sbu_0, # of connection points: 6
#     Node 13, Type 0, BuildingBlock: BETGAK_clean_sbu_0, # of connection points: 6
#     Node 14, Type 0, BuildingBlock: BETGAK_clean_sbu_0, # of connection points: 6
#     Node 15, Type 0, BuildingBlock: BETGAK_clean_sbu_0, # of connection points: 6
#     Node 16, Type 0, BuildingBlock: BETGAK_clean_sbu_0, # of connection points: 6
#     Node 17, Type 0, BuildingBlock: BETGAK_clean_sbu_0, # of connection points: 6
#     Edge 18, Type (0, 0), BuildingBlock: EZIPEK_clean_linker_0, # of connection points: 2
#     Edge 19, Type (0, 0), BuildingBlock: EZIPEK_clean_linker_0, # of connection points: 2
#     Edge 20, Type (0, 0), BuildingBlock: EZIPEK_clean_linker_0, # of connection points: 2
#     Edge 21, Type (0, 0), BuildingBlock: EZIPEK_clean_linker_0, # of connection points: 2
#     Edge 22, Type (0, 0), BuildingBlock: EZIPEK_clean_linker_0, # of connection points: 2
#     Edge 23, Type (0, 0), BuildingBlock: EZIPEK_clean_linker_0, # of connection points: 2
#     Edge 24, Type (0, 0), BuildingBlock: EZIPEK_clean_linker_0, # of connection points: 2
#     Edge 25, Type (0, 0), BuildingBlock: EZIPEK_clean_linker_0, # of connection points: 2
#     Edge 26, Type (0, 0), BuildingBlock: EZIPEK_clean_linker_0, # of connection points: 2
#     Edge 27, Type (0, 0), BuildingBlock: EZIPEK_clean_linker_0, # of connection points: 2
#     Edge 28, Type (0, 0), BuildingBlock: EZIPEK_clean_linker_0, # of connection points: 2
#     Edge 29, Type (0, 0), BuildingBlock: EZIPEK_clean_linker_0, # of connection points: 2
#     Edge 30, Type (0, 0), BuildingBlock: EZIPEK_clean_linker_0, # of connection points: 2
#     Edge 31, Type (0, 0), BuildingBlock: EZIPEK_clean_linker_0, # of connection points: 2
#     Edge 32, Type (0, 0), BuildingBlock: EZIPEK_clean_linker_0, # of connection points: 2
#     Edge 33, Type (0, 0), BuildingBlock: EZIPEK_clean_linker_0, # of connection points: 2
#     Edge 34, Type (0, 0), BuildingBlock: EZIPEK_clean_linker_0, # of connection points: 2
#     Edge 35, Type (0, 0), BuildingBlock: EZIPEK_clean_linker_0, # of connection points: 2
#     Edge 36, Type (0, 0), BuildingBlock: EZIPEK_clean_linker_0, # of connection points: 2
#     Edge 37, Type (0, 0), BuildingBlock: EZIPEK_clean_linker_0, # of connection points: 2
#     Edge 38, Type (0, 0), BuildingBlock: EZIPEK_clean_linker_0, # of connection points: 2
#     Edge 39, Type (0, 0), BuildingBlock: EZIPEK_clean_linker_0, # of connection points: 2
#     Edge 40, Type (0, 0), BuildingBlock: EZIPEK_clean_linker_0, # of connection points: 2
#     Edge 41, Type (0, 0), BuildingBlock: EZIPEK_clean_linker_0, # of connection points: 2
#     Edge 42, Type (0, 0), BuildingBlock: EZIPEK_clean_linker_0, # of connection points: 2
#     Edge 43, Type (0, 0), BuildingBlock: EZIPEK_clean_linker_0, # of connection points: 2
#     Edge 44, Type (0, 0), BuildingBlock: EZIPEK_clean_linker_0, # of connection points: 2
#     Edge 45, Type (0, 0), BuildingBlock: EZIPEK_clean_linker_0, # of connection points: 2
#     Edge 46, Type (0, 0), BuildingBlock: EZIPEK_clean_linker_0, # of connection points: 2
#     Edge 47, Type (0, 0), BuildingBlock: EZIPEK_clean_linker_0, # of connection points: 2
#     Edge 48, Type (0, 0), BuildingBlock: EZIPEK_clean_linker_0, # of connection points: 2
#     Edge 49, Type (0, 0), BuildingBlock: EZIPEK_clean_linker_0, # of connection points: 2
#     Edge 50, Type (0, 0), BuildingBlock: EZIPEK_clean_linker_0, # of connection points: 2
#     Edge 51, Type (0, 0), BuildingBlock: EZIPEK_clean_linker_0, # of connection points: 2
#     Edge 52, Type (0, 0), BuildingBlock: EZIPEK_clean_linker_0, # of connection points: 2
#     Edge 53, Type (0, 0), BuildingBlock: EZIPEK_clean_linker_0, # of connection points: 2
#     Edge 54, Type (0, 0), BuildingBlock: EZIPEK_clean_linker_0, # of connection points: 2
#     Edge 55, Type (0, 0), BuildingBlock: EZIPEK_clean_linker_0, # of connection points: 2
#     Edge 56, Type (0, 0), BuildingBlock: EZIPEK_clean_linker_0, # of connection points: 2
#     Edge 57, Type (0, 0), BuildingBlock: EZIPEK_clean_linker_0, # of connection points: 2
#     Edge 58, Type (0, 0), BuildingBlock: EZIPEK_clean_linker_0, # of connection points: 2
#     Edge 59, Type (0, 0), BuildingBlock: EZIPEK_clean_linker_0, # of connection points: 2
#     Edge 60, Type (0, 0), BuildingBlock: EZIPEK_clean_linker_0, # of connection points: 2
#     Edge 61, Type (0, 0), BuildingBlock: EZIPEK_clean_linker_0, # of connection points: 2
#     Edge 62, Type (0, 0), BuildingBlock: EZIPEK_clean_linker_0, # of connection points: 2
#     Edge 63, Type (0, 0), BuildingBlock: EZIPEK_clean_linker_0, # of connection points: 2
#     Edge 64, Type (0, 0), BuildingBlock: EZIPEK_clean_linker_0, # of connection points: 2
#     Edge 65, Type (0, 0), BuildingBlock: EZIPEK_clean_linker_0, # of connection points: 2
#     Edge 66, Type (0, 0), BuildingBlock: EZIPEK_clean_linker_0, # of connection points: 2
#     Edge 67, Type (0, 0), BuildingBlock: EZIPEK_clean_linker_0, # of connection points: 2
#     Edge 68, Type (0, 0), BuildingBlock: EZIPEK_clean_linker_0, # of connection points: 2
#     Edge 69, Type (0, 0), BuildingBlock: EZIPEK_clean_linker_0, # of connection points: 2
#     Edge 70, Type (0, 0), BuildingBlock: EZIPEK_clean_linker_0, # of connection points: 2
#     Edge 71, Type (0, 0), BuildingBlock: EZIPEK_clean_linker_0, # of connection points: 2
# Relax obj value: 0.306
# Max RMSD: 0.382
# Mean RMSD: 0.352
data_MOF--net-smd--node1-BETGAK_clean_sbu_0--edge1-EZIPEK_clean_linker_0
_symmetry_space_group_name_H-M    P1
_symmetry_Int_Tables_number       1
_symmetry_cell_setting            triclinic
loop_
_symmetry_equiv_pos_as_xyz
'x, y, z'
_cell_length_a     47.678823
_cell_length_b     48.06832
_cell_length_c     20.845646
_cell_angle_alpha  93.056817
_cell_angle_beta   92.910454
_cell_angle_gamma 119.81821
loop_
_atom_site_label
_atom_site_type_symbol
_atom_site_fract_x
_atom_site_fract_y
_atom_site_fract_z
_atom_type_partial_charge
La0 La 0.04478 0.26593 0.60061 0.0
La1 La 1.00686 0.24155 0.48299 0.0
C2 C 0.06911 0.29539 0.71273 0.0
C3 C 0.06288 0.28814 0.78081 0.0
C4 C 0.08367 0.31063 0.83158 0.0
C5 C 0.07651 0.30564 0.89602 0.0
C6 C 0.04824 0.2781 0.91111 0.0
C7 C 0.02748 0.25554 0.86025 0.0
C8 C 0.03469 0.26051 0.79583 0.0
C9 C 0.06856 0.23408 0.53336 0.0
C10 C 0.98233 0.19223 0.58255 0.0
C11 C 0.98258 0.22642 0.36664 0.0
C12 C 0.99396 0.2363 0.30195 0.0
C13 C 0.97157 0.23292 0.25127 0.0
C14 C 0.98145 0.24137 0.18945 0.0
C15 C 1.01401 0.25348 0.17682 0.0
C16 C 0.03662 0.25756 0.22787 0.0
C17 C 0.02671 0.24903 0.28978 0.0
C18 C 0.98177 0.26435 0.57675 0.0
C19 C 0.06643 0.30933 0.47488 0.0
O20 O 0.08093 0.28059 0.67912 0.0
O21 O 0.04583 0.29586 0.67876 0.0
O22 O 0.0622 0.23163 0.59313 0.0
O23 O 0.05742 0.25158 0.51084 0.0
O24 O 1.00043 0.21887 0.62322 0.0
O25 O 0.98713 0.19483 0.5211 0.0
O26 O 0.98117 0.24794 0.40528 0.0
O27 O 0.99435 0.21087 0.39755 0.0
O28 O 0.96587 0.23788 0.53915 0.0
O29 O 1.01013 0.27597 0.55958 0.0
O30 O 0.04199 0.28428 0.44279 0.0
O31 O 0.07217 0.30854 0.53879 0.0
H32 H 0.10523 0.33239 0.82132 0.0
H33 H 0.09289 0.32342 0.93417 0.0
H34 H 1.00554 0.23414 0.87047 0.0
H35 H 1.01795 0.24305 0.75764 0.0
H36 H 0.94626 0.2234 0.25937 0.0
H37 H 0.96356 0.23808 0.15112 0.0
H38 H 0.06188 0.26694 0.21954 0.0
H39 H 0.04457 0.25212 0.32793 0.0
La40 La 0.7997 0.77613 0.49733 0.0
La41 La 0.7874 0.7996 0.60789 0.0
C42 C 0.79515 0.74739 0.38729 0.0
C43 C 0.79264 0.75449 0.31942 0.0
C44 C 0.80799 0.74627 0.27279 0.0
C45 C 0.80767 0.75473 0.20946 0.0
C46 C 0.79359 0.77344 0.19109 0.0
C47 C 0.77412 0.77706 0.23645 0.0
C48 C 0.77471 0.76897 0.30002 0.0
C49 C 0.8562 0.80626 0.57101 0.0
C50 C 0.81281 0.84987 0.51062 0.0
C51 C 0.78205 0.81718 0.72118 0.0
C52 C 0.78412 0.80874 0.7884 0.0
C53 C 0.76122 0.77891 0.80919 0.0
C54 C 0.76271 0.7726 0.87402 0.0
C55 C 0.78708 0.79594 0.91915 0.0
C56 C 0.81008 0.82546 0.89829 0.0
C57 C 0.80857 0.83181 0.83381 0.0
C58 C 0.73926 0.77966 0.50675 0.0
C59 C 0.77639 0.73141 0.62211 0.0
O60 O 0.82241 0.76646 0.42135 0.0
O61 O 0.77083 0.74153 0.42062 0.0
O62 O 0.85145 0.81074 0.51177 0.0
O63 O 0.82762 0.78876 0.59037 0.0
O64 O 0.80249 0.8232 0.4702 0.0
O65 O 0.81564 0.84658 0.57221 0.0
O66 O 0.75753 0.79622 0.68144 0.0
O67 O 0.80905 0.83085 0.6928 0.0
O68 O 0.75039 0.80533 0.54635 0.0
O69 O 0.7549 0.76673 0.52716 0.0
O70 O 0.77299 0.75466 0.64819 0.0
O71 O 0.78699 0.73434 0.5624 0.0
H72 H 0.82041 0.73333 0.28535 0.0
H73 H 0.81856 0.74618 0.17524 0.0
H74 H 0.75766 0.78556 0.22416 0.0
H75 H 0.76099 0.77402 0.33394 0.0
H76 H 0.74197 0.76057 0.77566 0.0
H77 H 0.74471 0.74967 0.88908 0.0
H78 H 0.82906 0.84381 0.93228 0.0
H79 H 0.82636 0.85504 0.81957 0.0
La80 La 0.24877 1.00262 0.58028 0.0
La81 La 0.2599 0.0371 0.48355 0.0
C82 C 0.2467 0.98353 0.69219 0.0
C83 C 0.25104 0.99578 0.76055 0.0
C84 C 0.22905 0.97595 0.80263 0.0
C85 C 0.23303 0.98593 0.86824 0.0
C86 C 0.25931 1.01584 0.89318 0.0
C87 C 0.28117 0.03603 0.85106 0.0
C88 C 0.27686 0.02619 0.785 0.0
C89 C 0.19635 0.96602 0.50059 0.0
C90 C 0.2346 0.06419 0.57906 0.0
C91 C 0.27519 0.06282 0.37777 0.0
C92 C 0.27225 0.05414 0.3071 0.0
C93 C 0.30036 0.06137 0.27611 0.0
C94 C 0.29867 0.05498 0.20919 0.0
C95 C 0.26885 0.04133 0.17165 0.0
C96 C 0.24066 0.03395 0.20229 0.0
C97 C 0.24232 0.04032 0.26934 0.0
C98 C 0.31038 0.06418 0.58154 0.0
C99 C 0.26568 0.97764 0.44986 0.0
O100 O 0.22171 0.98073 0.65797 0.0
O101 O 0.27225 0.99493 0.65989 0.0
O102 O 0.21376 0.95668 0.5316 0.0
O103 O 0.21089 0.99742 0.50914 0.0
O104 O 0.24283 0.04621 0.61463 0.0
O105 O 0.23412 0.0599 0.51696 0.0
O106 O 0.29359 0.05589 0.41396 0.0
O107 O 0.24913 0.05739 0.40532 0.0
O108 O 0.29654 0.07817 0.55369 0.0
O109 O 0.29481 0.03578 0.55512 0.0
O110 O 0.25388 0.99501 0.42908 0.0
O111 O 0.26996 0.97918 0.51434 0.0
H112 H 0.20893 0.95247 0.78479 0.0
H113 H 0.21598 0.97 0.89996 0.0
H114 H 0.30166 0.05916 0.86942 0.0
H115 H 0.29379 0.04214 0.75333 0.0
H116 H 0.3238 0.07227 0.30368 0.0
H117 H 0.32072 0.06096 0.18658 0.0
H118 H 0.21742 0.02349 0.17416 0.0
H119 H 0.22022 0.03462 0.29142 0.0
La120 La 0.04259 0.7949 0.60549 0.0
La121 La 1.00335 0.7752 0.49191 0.0
C122 C 0.0629 0.80861 0.72434 0.0
C123 C 0.05015 0.79729 0.7881 0.0
C124 C 0.06132 0.78005 0.82382 0.0
C125 C 0.05155 0.77157 0.88587 0.0
C126 C 0.03052 0.78029 0.91421 0.0
C127 C 1.01882 0.79692 0.87819 0.0
C128 C 0.02849 0.80533 0.81612 0.0
C129 C 0.06888 0.77899 0.50342 0.0
C130 C 0.98685 0.72602 0.60967 0.0
C131 C 0.9728 0.74827 0.38106 0.0
C132 C 0.97962 0.75178 0.31157 0.0
C133 C 0.99116 0.78151 0.28484 0.0
C134 C 0.99848 0.78455 0.22014 0.0
C135 C 0.99449 0.75804 0.1802 0.0
C136 C 0.98243 0.7282 0.20648 0.0
C137 C 0.97495 0.72511 0.27118 0.0
C138 C 0.98082 0.8045 0.56911 0.0
C139 C 0.06819 0.848 0.51315 0.0
O140 O 0.06773 0.78929 0.68574 0.0
O141 O 0.05064 0.82338 0.6922 0.0
O142 O 0.08493 0.80166 0.54996 0.0
O143 O 0.04009 0.76512 0.51898 0.0
O144 O 1.01576 0.74715 0.63506 0.0
O145 O 0.97572 0.73228 0.55432 0.0
O146 O 0.97171 0.7716 0.41307 0.0
O147 O 0.98808 0.73768 0.4166 0.0
O148 O 0.98815 0.81047 0.51076 0.0
O149 O 0.99132 0.78542 0.58547 0.0
O150 O 0.04795 0.82295 0.47063 0.0
O151 O 0.0653 0.8434 0.57445 0.0
H152 H 0.07816 0.77363 0.80422 0.0
H153 H 0.06094 0.75872 0.91238 0.0
H154 H 1.00258 0.80393 0.89869 0.0
H155 H 1.01939 0.81868 0.79063 0.0
H156 H 0.99509 0.80262 0.31419 0.0
H157 H 1.0077 0.80782 0.20134 0.0
H158 H 0.97912 0.70734 0.17708 0.0
H159 H 0.96587 0.70187 0.28999 0.0
La160 La 0.2609 0.23603 0.48999 0.0
La161 La 0.25357 0.26341 0.59634 0.0
C162 C 0.27247 0.22233 0.37873 0.0
C163 C 0.27242 0.23216 0.3122 0.0
C164 C 0.30165 0.24655 0.28236 0.0
C165 C 0.30225 0.25469 0.21867 0.0
C166 C 0.27361 0.24852 0.18331 0.0
C167 C 0.24445 0.23472 0.21322 0.0
C168 C 0.24384 0.22666 0.27711 0.0
C169 C 0.31246 0.25925 0.58502 0.0
C170 C 0.27232 0.30294 0.46921 0.0
C171 C 0.25626 0.28528 0.71199 0.0
C172 C 0.261 0.27989 0.78013 0.0
C173 C 0.24239 0.28429 0.82538 0.0
C174 C 0.24634 0.28006 0.89047 0.0
C175 C 0.26917 0.2715 0.91193 0.0
C176 C 0.28812 0.26734 0.86687 0.0
C177 C 0.28397 0.27135 0.8014 0.0
C178 C 0.20149 0.25016 0.51921 0.0
C179 C 0.23605 0.18648 0.58392 0.0
O180 O 0.29438 0.24422 0.42129 0.0
O181 O 0.24467 0.20568 0.40314 0.0
O182 O 0.29744 0.23093 0.55406 0.0
O183 O 0.29741 0.27253 0.56297 0.0
O184 O 0.25939 0.27385 0.44178 0.0
O185 O 0.27609 0.30607 0.53412 0.0
O186 O 0.22964 0.2636 0.67871 0.0
O187 O 0.28099 0.29558 0.67745 0.0
O188 O 0.22014 0.27632 0.55545 0.0
O189 O 0.21419 0.23157 0.5231 0.0
O190 O 0.24501 0.21355 0.62261 0.0
O191 O 0.23553 0.18881 0.52195 0.0
H192 H 0.32405 0.25108 0.30813 0.0
H193 H 0.32497 0.26522 0.19649 0.0
H194 H 0.22206 0.22973 0.1867 0.0
H195 H 0.22094 0.21576 0.29859 0.0
H196 H 0.22466 0.29103 0.81026 0.0
H197 H 0.23144 0.28333 0.92421 0.0
H198 H 0.30585 0.26068 0.88231 0.0
H199 H 0.29857 0.2677 0.76755 0.0
La200 La 0.78921 1.0041 0.59869 0.0
La201 La 0.80598 0.03912 0.50144 0.0
C202 C 0.77092 0.9788 0.70347 0.0
C203 C 0.77566 0.9889 0.77337 0.0
C204 C 0.78105 0.97043 0.81699 0.0
C205 C 0.78515 0.97895 0.88344 0.0
C206 C 0.78393 1.00612 0.90747 0.0
C207 C 0.77849 0.02467 0.86409 0.0
C208 C 0.7744 0.01613 0.79753 0.0
C209 C 0.74404 0.97806 0.49107 0.0
C210 C 0.78111 0.06196 0.62392 0.0
C211 C 0.81419 0.06101 0.3909 0.0
C212 C 0.80927 0.0511 0.32063 0.0
C213 C 0.78823 0.05685 0.28106 0.0
C214 C 0.78415 0.04908 0.21426 0.0
C215 C 0.80118 0.03558 0.18562 0.0
C216 C 0.82219 0.02973 0.22484 0.0
C217 C 0.82629 0.03748 0.29176 0.0
C218 C 0.85449 0.0748 0.59043 0.0
C219 C 0.81707 0.97542 0.51295 0.0
O220 O 0.75456 0.98793 0.66668 0.0
O221 O 0.79613 0.98132 0.67664 0.0
O222 O 0.75335 0.96263 0.52719 0.0
O223 O 0.75851 1.00626 0.51772 0.0
O224 O 0.79266 0.04577 0.65166 0.0
O225 O 0.78019 0.06046 0.5593 0.0
O226 O 0.78841 0.05294 0.42135 0.0
O227 O 0.83585 0.05802 0.42571 0.0
O228 O 0.83883 0.08449 0.55493 0.0
O229 O 0.8399 0.0435 0.58055 0.0
O230 O 0.81184 0.99439 0.47412 0.0
O231 O 0.81501 0.97995 0.57399 0.0
H232 H 0.78198 0.94928 0.79959 0.0
H233 H 0.78924 0.96432 0.91622 0.0
H234 H 0.77733 0.04565 0.88178 0.0
H235 H 0.77017 0.03077 0.76525 0.0
H236 H 0.77505 0.06757 0.30182 0.0
H237 H 0.76786 0.05381 0.1848 0.0
H238 H 0.83554 0.01933 0.20354 0.0
H239 H 0.8428 0.03289 0.32071 0.0
La240 La 0.67172 0.56552 0.79347 0.0
La241 La 0.71115 0.58555 0.90389 0.0
C242 C 0.64757 0.55686 0.67671 0.0
C243 C 0.65567 0.56255 0.60854 0.0
C244 C 0.64151 0.57658 0.57086 0.0
C245 C 0.64754 0.58118 0.50585 0.0
C246 C 0.66876 0.57283 0.47729 0.0
C247 C 0.68271 0.55852 0.51477 0.0
C248 C 0.67585 0.55296 0.57924 0.0
C249 C 0.63983 0.52038 0.87335 0.0
C250 C 0.73688 0.55646 0.81147 0.0
C251 C 0.73628 0.60395 1.01946 0.0
C252 C 0.72462 0.59831 0.0851 0.0
C253 C 0.74194 0.59212 0.13341 0.0
C254 C 0.73185 0.58735 0.196 0.0
C255 C 0.70408 0.5885 0.21146 0.0
C256 C 0.68656 0.59446 0.16324 0.0
C257 C 0.69678 0.59944 0.10083 0.0
C258 C 0.7338 0.62848 0.80888 0.0
C259 C 0.65082 0.59033 0.91812 0.0
O260 O 0.65482 0.58186 0.71639 0.0
O261 O 0.65295 0.53625 0.70527 0.0
O262 O 0.62754 0.53131 0.83223 0.0
O263 O 0.67105 0.53524 0.86933 0.0
O264 O 0.71591 0.55982 0.7713 0.0
O265 O 0.73538 0.56049 0.87316 0.0
O266 O 0.72732 0.62019 0.98368 0.0
O267 O 0.73481 0.57946 0.98579 0.0
O268 O 0.75099 0.62151 0.84775 0.0
O269 O 0.70565 0.6132 0.82726 0.0
O270 O 0.66889 0.58069 0.94635 0.0
O271 O 0.65082 0.59081 0.85389 0.0
H272 H 0.62537 0.58367 0.5916 0.0
H273 H 0.63586 0.59158 0.47791 0.0
H274 H 0.69872 0.55133 0.49382 0.0
H275 H 0.68684 0.5417 0.60643 0.0
H276 H 0.76351 0.59123 0.12284 0.0
H277 H 0.74581 0.58296 0.23252 0.0
H278 H 0.66522 0.5957 0.17419 0.0
H279 H 0.68301 0.60446 0.0653 0.0
La280 La 0.46296 0.10991 0.81251 0.0
La281 La 0.45196 0.13486 0.92423 0.0
C282 C 0.45583 0.08012 0.70231 0.0
C283 C 0.45189 0.0862 0.63393 0.0
C284 C 0.46998 0.08134 0.58797 0.0
C285 C 0.46715 0.08743 0.52349 0.0
C286 C 0.4459 0.09824 0.50334 0.0
C287 C 0.42742 0.1027 0.54899 0.0
C288 C 0.43055 0.09698 0.61367 0.0
C289 C 0.52037 0.14155 0.88277 0.0
C290 C 0.47638 0.1835 0.82395 0.0
C291 C 0.44565 0.15274 1.03703 0.0
C292 C 0.44491 0.14365 0.10467 0.0
C293 C 0.41748 0.13615 0.1383 0.0
C294 C 0.41644 0.12853 0.20262 0.0
C295 C 0.44261 0.12761 0.23465 0.0
C296 C 0.47008 0.13516 0.20117 0.0
C297 C 0.47141 0.1435 0.1373 0.0
C298 C 0.40274 0.11337 0.82526 0.0
C299 C 0.44412 0.0677 0.94024 0.0
O300 O 0.48377 0.09922 0.73418 0.0
O301 O 0.43231 0.07472 0.73792 0.0
O302 O 0.51469 0.1446 0.82297 0.0
O303 O 0.49225 0.12445 0.90436 0.0
O304 O 0.46548 0.15647 0.78458 0.0
O305 O 0.47984 0.18108 0.88586 0.0
O306 O 0.42142 0.1326 0.99591 0.0
O307 O 0.47326 0.16506 1.01066 0.0
O308 O 0.41489 0.14009 0.86193 0.0
O309 O 0.41873 0.10079 0.84586 0.0
O310 O 0.43961 0.09047 0.96528 0.0
O311 O 0.45368 0.06996 0.87984 0.0
H312 H 0.48657 0.07305 0.60211 0.0
H313 H 0.48167 0.08385 0.48927 0.0
H314 H 0.41095 0.11112 0.53472 0.0
H315 H 0.41647 0.10128 0.64786 0.0
H316 H 0.39686 0.13652 0.11493 0.0
H317 H 0.39514 0.12322 0.22741 0.0
H318 H 0.49074 0.13501 0.22489 0.0
H319 H 0.49317 0.14971 0.11348 0.0
La320 La 0.93349 0.36592 0.82253 0.0
La321 La 0.92053 0.33504 0.91566 0.0
C322 C 0.94248 0.38256 0.7078 0.0
C323 C 0.93587 0.36967 0.63911 0.0
C324 C 0.93094 0.38726 0.59266 0.0
C325 C 0.92774 0.37774 0.5268 0.0
C326 C 0.92961 0.35049 0.50594 0.0
C327 C 0.93366 0.33227 0.55235 0.0
C328 C 0.93653 0.34167 0.61845 0.0
C329 C 0.92102 0.40381 0.8965 0.0
C330 C 0.85979 0.30282 0.83701 0.0
C331 C 0.92065 0.30954 1.01989 0.0
C332 C 0.92236 0.31583 0.09109 0.0
C333 C 0.943 0.30974 0.13109 0.0
C334 C 0.94483 0.31491 0.19848 0.0
C335 C 0.926 0.32626 0.22739 0.0
C336 C 0.90524 0.33227 0.18754 0.0
C337 C 0.90339 0.32709 0.12007 0.0
C338 C 0.94298 0.31054 0.81675 0.0
C339 C 0.97973 0.39701 0.95557 0.0
O340 O 0.91798 0.37905 0.7384 0.0
O341 O 0.96248 0.37792 0.74429 0.0
O342 O 0.94481 0.41289 0.86103 0.0
O343 O 0.90527 0.37231 0.89485 0.0
O344 O 0.88275 0.31877 0.79638 0.0
O345 O 0.8693 0.31236 0.89719 0.0
O346 O 0.94664 0.32762 0.99148 0.0
O347 O 0.89454 0.30432 0.98572 0.0
O348 O 0.91606 0.29611 0.84247 0.0
O349 O 0.95515 0.33862 0.84372 0.0
O350 O 0.9514 0.37852 0.97356 0.0
O351 O 0.98084 0.39397 0.89134 0.0
H352 H 0.93037 0.40893 0.60733 0.0
H353 H 0.9247 0.39217 0.49193 0.0
H354 H 0.93523 0.31118 0.5374 0.0
H355 H 0.93986 0.32748 0.65324 0.0
H356 H 0.95769 0.30087 0.11009 0.0
H357 H 0.96094 0.31 0.22811 0.0
H358 H 0.89046 0.34099 0.20875 0.0
H359 H 0.88726 0.33203 0.09067 0.0
La360 La 0.70682 0.13311 0.93395 0.0
La361 La 0.66932 0.10807 0.81738 0.0
C362 C 0.73172 0.14916 0.04985 0.0
C363 C 0.72072 0.13977 0.11523 0.0
C364 C 0.73385 0.12457 0.15217 0.0
C365 C 0.72496 0.11674 0.21477 0.0
C366 C 0.70272 0.12396 0.24212 0.0
C367 C 0.68917 0.1387 0.20506 0.0
C368 C 0.69805 0.14653 0.14241 0.0
C369 C 0.73305 0.11131 0.83974 0.0
C370 C 0.64846 0.06558 0.94503 0.0
C371 C 0.64538 0.07956 0.70472 0.0
C372 C 0.65427 0.08669 0.63751 0.0
C373 C 0.62997 0.07901 0.5875 0.0
C374 C 0.63779 0.08473 0.52358 0.0
C375 C 0.67012 0.0981 0.50812 0.0
C376 C 0.69445 0.10566 0.55807 0.0
C377 C 0.68667 0.10014 0.62203 0.0
C378 C 0.64492 0.13948 0.88397 0.0
C379 C 0.73031 0.18164 0.83787 0.0
O380 O 0.73305 0.12747 1.01165 0.0
O381 O 0.72033 0.16484 1.01831 0.0
O382 O 0.74871 0.13696 0.87937 0.0
O383 O 0.70468 0.09916 0.8569 0.0
O384 O 0.67198 0.09156 0.97624 0.0
O385 O 0.64252 0.06549 0.88066 0.0
O386 O 0.63585 0.09716 0.73577 0.0
O387 O 0.66496 0.07483 0.74215 0.0
O388 O 0.6518 0.14219 0.82458 0.0
O389 O 0.65578 0.1218 0.90666 0.0
O390 O 0.71549 0.15462 0.79727 0.0
O391 O 0.71996 0.17867 0.89531 0.0
H392 H 0.75138 0.11906 0.13284 0.0
H393 H 0.73577 0.1054 0.24227 0.0
H394 H 0.67198 0.14452 0.22504 0.0
H395 H 0.68736 0.15817 0.1156 0.0
H396 H 0.60483 0.06846 0.59786 0.0
H397 H 0.61859 0.0787 0.48606 0.0
H398 H 0.71954 0.11596 0.54754 0.0
H399 H 0.70602 0.1063 0.65929 0.0
La400 La 0.91788 0.59069 0.91385 0.0
La401 La 0.9359 0.57096 0.80879 0.0
C402 C 0.91289 0.61255 1.02407 0.0
C403 C 0.91881 0.61025 0.09381 0.0
C404 C 0.90283 0.61887 0.13874 0.0
C405 C 0.90769 0.61691 0.20492 0.0
C406 C 0.92862 0.6062 0.22758 0.0
C407 C 0.94508 0.59806 0.18291 0.0
C408 C 0.94027 0.60011 0.11665 0.0
C409 C 0.93655 0.63326 0.81687 0.0
C410 C 0.98284 0.59389 0.94004 0.0
C411 C 0.95003 0.56449 0.69468 0.0
C412 C 0.94675 0.57287 0.62837 0.0
C413 C 0.95981 0.56313 0.57898 0.0
C414 C 0.95733 0.57052 0.51558 0.0
C415 C 0.94178 0.58788 0.5002 0.0
C416 C 0.92903 0.5981 0.54973 0.0
C417 C 0.93152 0.59067 0.61346 0.0
C418 C 0.92222 0.52457 0.88716 0.0
C419 C 0.86099 0.55898 0.81637 0.0
O420 O 0.9383 0.62672 0.99153 0.0
O421 O 0.88937 0.58699 0.99083 0.0
O422 O 0.91193 0.62459 0.85054 0.0
O423 O 0.94964 0.61833 0.84023 0.0
O424 O 0.95546 0.58554 0.96413 0.0
O425 O 0.98281 0.59395 0.87576 0.0
O426 O 0.96878 0.58824 0.73747 0.0
O427 O 0.92376 0.54348 0.71876 0.0
O428 O 0.94525 0.53578 0.84945 0.0
O429 O 0.90644 0.54012 0.88097 0.0
O430 O 0.88519 0.56408 0.77915 0.0
O431 O 0.86786 0.56333 0.87864 0.0
H432 H 0.88636 0.62698 0.12254 0.0
H433 H 0.89472 0.62327 0.23844 0.0
H434 H 0.96135 0.58975 0.19928 0.0
H435 H 0.9532 0.59357 0.08359 0.0
H436 H 0.97185 0.5496 0.58942 0.0
H437 H 0.96727 0.56236 0.47825 0.0
H438 H 0.9169 0.6115 0.53892 0.0
H439 H 0.92145 0.59862 0.65087 0.0
La440 La 0.45469 0.33465 0.92588 0.0
La441 La 0.46423 0.36808 0.82378 0.0
C442 C 0.44113 0.30904 1.03192 0.0
C443 C 0.44206 0.31731 0.1016 0.0
C444 C 0.438 0.29442 0.14475 0.0
C445 C 0.4369 0.30066 0.21066 0.0
C446 C 0.43976 0.32989 0.23446 0.0
C447 C 0.44384 0.35289 0.19147 0.0
C448 C 0.44497 0.34664 0.12548 0.0
C449 C 0.40331 0.30689 0.82991 0.0
C450 C 0.44799 0.39366 0.95428 0.0
C451 C 0.46288 0.38708 0.71264 0.0
C452 C 0.45391 0.37536 0.6439 0.0
C453 C 0.45506 0.39682 0.5997 0.0
C454 C 0.44946 0.38761 0.53349 0.0
C455 C 0.44265 0.35675 0.51048 0.0
C456 C 0.4401 0.33469 0.55477 0.0
C457 C 0.44566 0.34393 0.62128 0.0
C458 C 0.51803 0.404 0.90156 0.0
C459 C 0.4779 0.30629 0.82708 0.0
O460 O 0.42107 0.31303 0.99406 0.0
O461 O 0.46872 0.31838 1.00709 0.0
O462 O 0.41697 0.29287 0.85836 0.0
O463 O 0.41955 0.33552 0.8547 0.0
O464 O 0.46046 0.37744 0.97855 0.0
O465 O 0.44328 0.39126 0.88989 0.0
O466 O 0.48763 0.38639 0.74025 0.0
O467 O 0.43935 0.37778 0.74994 0.0
O468 O 0.50109 0.4139 0.87068 0.0
O469 O 0.50241 0.37269 0.89316 0.0
O470 O 0.46903 0.32366 0.79082 0.0
O471 O 0.4796 0.31152 0.88937 0.0
H472 H 0.43546 0.27156 0.12736 0.0
H473 H 0.43399 0.28275 0.24321 0.0
H474 H 0.44629 0.37568 0.20906 0.0
H475 H 0.44799 0.36463 0.09341 0.0
H476 H 0.46121 0.4211 0.61635 0.0
H477 H 0.45152 0.4049 0.50006 0.0
H478 H 0.4349 0.31077 0.53774 0.0
H479 H 0.44442 0.32697 0.65481 0.0
La480 La 0.3758 0.92538 0.2533 0.0
La481 La 0.33704 0.90328 0.13903 0.0
C482 C 0.39949 0.95215 0.36724 0.0
C483 C 0.38869 0.94572 0.43396 0.0
C484 C 0.39808 0.92826 0.47328 0.0
C485 C 0.38867 0.92293 0.53638 0.0
C486 C 0.36972 0.93501 0.56212 0.0
C487 C 0.36042 0.9526 0.52319 0.0
C488 C 0.36983 0.95795 0.46008 0.0
C489 C 0.39952 0.89532 0.18209 0.0
C490 C 0.31559 0.8516 0.22889 0.0
C491 C 0.31044 0.88853 1.02393 0.0
C492 C 0.31974 0.89722 0.95719 0.0
C493 C 0.30113 0.90566 0.91668 0.0
C494 C 0.30836 0.91241 0.85274 0.0
C495 C 0.33461 0.91116 0.82776 0.0
C496 C 0.35345 0.90303 0.86829 0.0
C497 C 0.34604 0.896 0.93207 0.0
C498 C 0.31197 0.92141 0.24063 0.0
C499 C 0.39723 0.97016 0.12938 0.0
O500 O 0.4064 0.93219 0.33709 0.0
O501 O 0.38343 0.96048 0.32797 0.0
O502 O 0.39292 0.89135 0.24146 0.0
O503 O 0.38822 0.91308 0.16148 0.0
O504 O 0.33143 0.87752 0.27192 0.0
O505 O 0.32308 0.8561 0.16954 0.0
O506 O 0.31071 0.91066 0.06364 0.0
O507 O 0.32192 0.87238 0.05324 0.0
O508 O 0.29579 0.89666 0.19919 0.0
O509 O 0.33979 0.93516 0.22107 0.0
O510 O 0.36995 0.9473 0.10035 0.0
O511 O 0.40523 0.96728 0.19087 0.0
H512 H 0.41287 0.91877 0.45537 0.0
H513 H 0.39626 0.90938 0.56533 0.0
H514 H 0.34593 0.9623 0.5418 0.0
H515 H 0.36236 0.97181 0.43183 0.0
H516 H 0.28064 0.90667 0.93432 0.0
H517 H 0.29339 0.91852 0.8226 0.0
H518 H 0.37376 0.90181 0.85029 0.0
H519 H 0.36084 0.88945 0.96156 0.0
La520 La 0.14185 0.44831 0.15501 0.0
La521 La 0.13674 0.47758 0.26958 0.0
C522 C 0.12836 0.41667 0.04505 0.0
C523 C 0.13244 0.42238 0.97588 0.0
C524 C 0.16053 0.44802 0.95502 0.0
C525 C 0.16184 0.45442 0.88976 0.0
C526 C 0.13493 0.43561 0.84442 0.0
C527 C 0.1071 0.40975 0.86539 0.0
C528 C 0.10594 0.40316 0.93021 0.0
C529 C 0.20099 0.47923 0.21917 0.0
C530 C 0.16423 0.52531 0.16933 0.0
C531 C 0.13038 0.49421 0.38288 0.0
C532 C 0.13157 0.48404 0.44891 0.0
C533 C 0.10522 0.47591 0.48622 0.0
C534 C 0.1059 0.4671 0.54916 0.0
C535 C 0.133 0.46625 0.57643 0.0
C536 C 0.15917 0.4738 0.53892 0.0
C537 C 0.15846 0.48254 0.47577 0.0
C538 C 0.08661 0.45707 0.17391 0.0
C539 C 0.12133 0.40796 0.28438 0.0
O540 O 0.15348 0.42299 0.08451 0.0
O541 O 0.11016 0.42633 0.07136 0.0
O542 O 0.19413 0.47943 0.15839 0.0
O543 O 0.17362 0.46377 0.2441 0.0
O544 O 0.15019 0.49787 0.12966 0.0
O545 O 0.16765 0.52248 0.23101 0.0
O546 O 0.10619 0.47348 0.34234 0.0
O547 O 0.15752 0.50866 0.35496 0.0
O548 O 0.10064 0.48476 0.20752 0.0
O549 O 0.10083 0.4431 0.19558 0.0
O550 O 0.13137 0.43618 0.31455 0.0
O551 O 0.12209 0.40596 0.21959 0.0
H552 H 0.18113 0.46349 0.98927 0.0
H553 H 0.18355 0.47455 0.87486 0.0
H554 H 0.08602 0.39495 0.83169 0.0
H555 H 0.08386 0.38344 0.94512 0.0
H556 H 0.08412 0.47666 0.4668 0.0
H557 H 0.0854 0.46132 0.57698 0.0
H558 H 0.18031 0.47327 0.55883 0.0
H559 H 0.17906 0.48837 0.44826 0.0
La560 La 0.58844 0.67428 0.25337 0.0
La561 La 0.60414 0.70806 0.15018 0.0
C562 C 0.59056 0.65046 0.35921 0.0
C563 C 0.5927 0.65876 0.42953 0.0
C564 C 0.5773 0.63404 0.4702 0.0
C565 C 0.58053 0.64105 0.53725 0.0
C566 C 0.59938 0.67295 0.5649 0.0
C567 C 0.61475 0.69775 0.52428 0.0
C568 C 0.61141 0.69075 0.45719 0.0
C569 C 0.53286 0.64759 0.17794 0.0
C570 C 0.57475 0.73407 0.23969 0.0
C571 C 0.62053 0.73381 0.04542 0.0
C572 C 0.6174 0.72276 0.97623 0.0
C573 C 0.64359 0.73939 0.93893 0.0
C574 C 0.64098 0.73009 0.87299 0.0
C575 C 0.61207 0.70398 0.84309 0.0
C576 C 0.58608 0.68685 0.88056 0.0
C577 C 0.58873 0.69608 0.94661 0.0
C578 C 0.65075 0.73429 0.25696 0.0
C579 C 0.60881 0.64806 0.12294 0.0
O580 O 0.56389 0.64316 0.32508 0.0
O581 O 0.61559 0.66902 0.32945 0.0
O582 O 0.53717 0.65842 0.23776 0.0
O583 O 0.56162 0.65783 0.15911 0.0
O584 O 0.58611 0.72032 0.28051 0.0
O585 O 0.57194 0.72493 0.17867 0.0
O586 O 0.63936 0.72825 0.0838 0.0
O587 O 0.59393 0.72817 0.07137 0.0
O588 O 0.64083 0.74938 0.22174 0.0
O589 O 0.63477 0.70623 0.23015 0.0
O590 O 0.60541 0.66994 0.09582 0.0
O591 O 0.60442 0.64541 0.18634 0.0
H592 H 0.56298 0.6092 0.45009 0.0
H593 H 0.5684 0.62159 0.56764 0.0
H594 H 0.62935 0.72252 0.54457 0.0
H595 H 0.62367 0.7103 0.42706 0.0
H596 H 0.66602 0.75986 0.96073 0.0
H597 H 0.66132 0.74359 0.84501 0.0
H598 H 0.5636 0.6666 0.85843 0.0
H599 H 0.56828 0.68258 0.97432 0.0
La600 La 0.38614 0.47078 0.2736 0.0
La601 La 0.3492 0.44648 0.15438 0.0
C602 C 0.41151 0.4862 0.38933 0.0
C603 C 0.40096 0.47777 0.45485 0.0
C604 C 0.42437 0.48873 0.50785 0.0
C605 C 0.41514 0.48097 0.57023 0.0
C606 C 0.38226 0.46167 0.58091 0.0
C607 C 0.35881 0.45061 0.52775 0.0
C608 C 0.36803 0.45872 0.46545 0.0
C609 C 0.41082 0.44755 0.17978 0.0
C610 C 0.3278 0.40257 0.27904 0.0
C611 C 0.32616 0.41772 0.04173 0.0
C612 C 0.33157 0.4258 0.9742 0.0
C613 C 0.31475 0.40154 0.92347 0.0
C614 C 0.32244 0.40747 0.85969 0.0
C615 C 0.3472 0.43778 0.84549 0.0
C616 C 0.36371 0.46224 0.89609 0.0
C617 C 0.35604 0.45629 0.95995 0.0
C618 C 0.32508 0.47786 0.22133 0.0
C619 C 0.41046 0.52038 0.17871 0.0
O620 O 0.41096 0.46342 0.35128 0.0
O621 O 0.40044 0.50228 0.35841 0.0
O622 O 0.42729 0.47358 0.21792 0.0
O623 O 0.38275 0.4363 0.19732 0.0
O624 O 0.34878 0.42938 0.31231 0.0
O625 O 0.3236 0.40267 0.21435 0.0
O626 O 0.31266 0.43042 0.07644 0.0
O627 O 0.35079 0.41912 0.07444 0.0
O628 O 0.33178 0.48062 0.16176 0.0
O629 O 0.33567 0.46 0.24387 0.0
O630 O 0.39516 0.49384 0.13664 0.0
O631 O 0.40115 0.51704 0.23706 0.0
H632 H 0.44989 0.50346 0.50102 0.0
H633 H 0.4337 0.49009 0.61033 0.0
H634 H 0.33329 0.43582 0.53456 0.0
H635 H 0.34936 0.45023 0.42588 0.0
H636 H 0.29618 0.37771 0.93339 0.0
H637 H 0.30945 0.38825 0.82149 0.0
H638 H 0.38291 0.48577 0.88624 0.0
H639 H 0.36973 0.4752 0.99839 0.0
La640 La 0.59545 0.90529 0.15946 0.0
La641 La 0.57824 0.92688 0.26801 0.0
C642 C 0.60559 0.89201 0.04658 0.0
C643 C 0.60462 0.90273 0.98054 0.0
C644 C 0.62976 0.9321 0.96226 0.0
C645 C 0.62938 0.94079 0.89888 0.0
C646 C 0.6038 0.92047 0.85217 0.0
C647 C 0.57855 0.89142 0.87057 0.0
C648 C 0.57902 0.88263 0.93368 0.0
C649 C 0.63967 0.92532 0.26812 0.0
C650 C 0.60342 0.97187 0.14386 0.0
C651 C 0.57914 0.95441 0.37763 0.0
C652 C 0.58424 0.95089 0.44783 0.0
C653 C 0.55791 0.93085 0.48245 0.0
C654 C 0.5626 0.92782 0.54831 0.0
C655 C 0.59369 0.94484 0.58156 0.0
C656 C 0.61998 0.96527 0.54763 0.0
C657 C 0.61532 0.96832 0.48173 0.0
C658 C 0.52443 0.89582 0.1876 0.0
C659 C 0.56764 0.85367 0.25125 0.0
O660 O 0.62844 0.91254 0.08991 0.0
O661 O 0.57788 0.87564 0.07172 0.0
O662 O 0.63284 0.90171 0.22527 0.0
O663 O 0.62422 0.93782 0.24495 0.0
O664 O 0.60761 0.94912 0.1186 0.0
O665 O 0.59175 0.96885 0.20259 0.0
O666 O 0.55306 0.93172 0.34476 0.0
O667 O 0.60387 0.96401 0.34339 0.0
O668 O 0.52732 0.89103 0.24732 0.0
O669 O 0.55361 0.91436 0.17217 0.0
O670 O 0.57602 0.87961 0.29203 0.0
O671 O 0.56662 0.8573 0.18968 0.0
H672 H 0.65 0.94825 0.99664 0.0
H673 H 0.64924 0.96326 0.88607 0.0
H674 H 0.55862 0.87523 0.8356 0.0
H675 H 0.55943 0.85977 0.94561 0.0
H676 H 0.53358 0.91738 0.4586 0.0
H677 H 0.54192 0.91193 0.57332 0.0
H678 H 0.64421 0.97863 0.57204 0.0
H679 H 0.63621 0.98402 0.45711 0.0
La680 La 0.12711 0.66476 0.27388 0.0
La681 La 0.13738 0.69889 0.16743 0.0
C682 C 0.12009 0.64101 0.38119 0.0
C683 C 0.12534 0.65239 0.45075 0.0
C684 C 0.1092 0.66745 0.47788 0.0
C685 C 0.11356 0.67636 0.5445 0.0
C686 C 0.13427 0.67057 0.58489 0.0
C687 C 0.15076 0.65611 0.55761 0.0
C688 C 0.14623 0.64701 0.49139 0.0
C689 C 0.07861 0.63596 0.17269 0.0
C690 C 0.11634 0.7223 0.3001 0.0
C691 C 0.13056 0.71971 0.06146 0.0
C692 C 0.1344 0.71299 0.99299 0.0
C693 C 0.15364 0.73816 0.95624 0.0
C694 C 0.15712 0.7319 0.89142 0.0
C695 C 0.14295 0.69997 0.86181 0.0
C696 C 0.12048 0.67548 0.89763 0.0
C697 C 0.11708 0.68164 0.96222 0.0
C698 C 0.19463 0.72535 0.23721 0.0
C699 C 0.15622 0.64245 0.17218 0.0
O700 O 0.09679 0.6416 0.34643 0.0
O701 O 0.14611 0.65037 0.35025 0.0
O702 O 0.0907 0.62179 0.20589 0.0
O703 O 0.09383 0.66432 0.19835 0.0
O704 O 0.11985 0.70005 0.3261 0.0
O705 O 0.12088 0.72591 0.23693 0.0
O706 O 0.15664 0.73478 0.10144 0.0
O707 O 0.10741 0.69595 0.08741 0.0
O708 O 0.18893 0.71549 0.1765 0.0
O709 O 0.16657 0.71503 0.25928 0.0
O710 O 0.14362 0.65601 0.13412 0.0
O711 O 0.15867 0.64973 0.23427 0.0
H712 H 0.09296 0.67203 0.44793 0.0
H713 H 0.10062 0.68749 0.56461 0.0
H714 H 0.1668 0.6514 0.58793 0.0
H715 H 0.15885 0.63538 0.47195 0.0
H716 H 0.16562 0.76286 0.97738 0.0
H717 H 0.17025 0.75267 0.86518 0.0
H718 H 0.10457 0.65123 0.87628 0.0
H719 H 0.10034 0.66166 0.98763 0.0
C720 C 0.08437 0.38001 0.37303 0.0
C721 C 0.10606 0.37974 0.32809 0.0
C722 C 0.10472 0.33448 0.38469 0.0
C723 C 0.08602 0.33749 0.43369 0.0
N724 N 0.06301 0.36784 0.4781 0.0
N725 N 0.13954 0.35788 0.29748 0.0
C726 C 0.07766 0.36189 0.42889 0.0
C727 C 0.1169 0.35719 0.33576 0.0
N728 N 0.06844 0.3964 0.36026 0.0
N729 N 0.11027 0.30922 0.38384 0.0
H730 H 0.14755 0.37287 0.26022 0.0
H731 H 0.15154 0.34504 0.30492 0.0
H732 H 0.10324 0.29331 0.41972 0.0
H733 H 0.12011 0.303 0.34597 0.0
H734 H 0.05023 0.3954 0.38714 0.0
H735 H 0.07064 0.40785 0.31816 0.0
H736 H 0.05905 0.3873 0.48144 0.0
H737 H 0.05823 0.35535 0.51923 0.0
C738 C 0.70276 0.73669 0.41216 0.0
C739 C 0.71406 0.76768 0.44586 0.0
C740 C 0.67745 0.77345 0.36315 0.0
C741 C 0.67262 0.74614 0.32237 0.0
N742 N 0.68921 0.70631 0.30782 0.0
N743 N 0.71088 0.81664 0.44601 0.0
C744 C 0.68784 0.72922 0.34686 0.0
C745 C 0.7012 0.78641 0.41892 0.0
N746 N 0.70385 0.71297 0.44336 0.0
N747 N 0.65767 0.78594 0.3523 0.0
H748 H 0.72599 0.82709 0.4882 0.0
H749 H 0.70564 0.83255 0.42336 0.0
H750 H 0.63817 0.77557 0.31749 0.0
H751 H 0.65754 0.80351 0.38363 0.0
H752 H 0.69322 0.68937 0.42241 0.0
H753 H 0.71087 0.71554 0.49243 0.0
H754 H 0.70228 0.69531 0.32237 0.0
H755 H 0.68086 0.70121 0.25913 0.0
C756 C 0.28207 0.93442 0.40793 0.0
C757 C 0.2753 0.95983 0.39751 0.0
C758 C 0.29654 0.96193 0.28935 0.0
C759 C 0.29934 0.93421 0.29555 0.0
N760 N 0.28465 0.88878 0.35785 0.0
N761 N 0.25962 0.981 0.30746 0.0
C762 C 0.28929 0.91896 0.35421 0.0
C763 C 0.27813 0.9692 0.33256 0.0
N764 N 0.2804 0.92377 0.46766 0.0
N765 N 0.30956 0.98064 0.24008 0.0
H766 H 0.23814 0.97691 0.32589 0.0
H767 H 0.26112 0.98799 0.26096 0.0
H768 H 0.32157 0.9755 0.20502 0.0
H769 H 0.3106 1.00278 0.23815 0.0
H770 H 0.28854 0.90803 0.47948 0.0
H771 H 0.27244 0.93178 0.50616 0.0
H772 H 0.27522 0.87534 0.39686 0.0
H773 H 0.28582 0.87562 0.31798 0.0
C774 C 0.34617 0.05813 0.67351 0.0
C775 C 0.33627 0.07779 0.64124 0.0
C776 C 0.36787 0.12076 0.73216 0.0
C777 C 0.37738 0.10079 0.76476 0.0
N778 N 0.36176 0.04531 0.77511 0.0
N779 N 0.35083 0.13304 0.63089 0.0
C780 C 0.36282 0.06814 0.73754 0.0
C781 C 0.35067 0.1105 0.66833 0.0
N782 N 0.34237 0.03078 0.6415 0.0
N783 N 0.37292 0.14878 0.76334 0.0
H784 H 0.34244 0.12797 0.58228 0.0
H785 H 0.36355 0.15764 0.64505 0.0
H786 H 0.38303 0.15665 0.81059 0.0
H787 H 0.36323 0.1623 0.74519 0.0
H788 H 0.35195 0.01731 0.66047 0.0
H789 H 0.3341 0.02415 0.59294 0.0
H790 H 0.34747 0.02076 0.76098 0.0
H791 H 0.37061 0.05032 0.82354 0.0
C792 C 0.93308 0.26665 0.72347 0.0
C793 C 0.95374 0.29797 0.757 0.0
C794 C 0.99057 0.30854 0.66808 0.0
C795 C 0.97036 0.27703 0.63545 0.0
N796 N 0.91505 0.23283 0.62214 0.0
N797 N 1.00828 0.3435 0.76793 0.0
C798 C 0.93957 0.25805 0.66038 0.0
C799 C 0.98413 0.31741 0.73095 0.0
N800 N 0.9083 0.24357 0.75358 0.0
N801 N 1.01452 0.33157 0.63639 0.0
H802 H 1.00623 0.34946 0.81549 0.0
H803 H 0.03192 0.3565 0.75474 0.0
H804 H 1.01779 0.32753 0.58856 0.0
H805 H 0.02791 0.35574 0.65402 0.0
H806 H 0.89415 0.21974 0.73427 0.0
H807 H 0.90488 0.24642 0.80176 0.0
H808 H 0.89121 0.22039 0.63442 0.0
H809 H 0.91703 0.22716 0.57443 0.0
C810 C 0.74998 0.67067 0.64586 0.0
C811 C 0.76974 0.70398 0.6665 0.0
C812 C 0.76528 0.68811 0.78062 0.0
C813 C 0.74627 0.65467 0.75971 0.0
N814 N 0.72827 0.61512 0.66876 0.0
N815 N 0.80406 0.74231 0.7552 0.0
C816 C 0.74098 0.64642 0.69135 0.0
C817 C 0.77955 0.71196 0.73451 0.0
N818 N 0.73805 0.66167 0.5829 0.0
N819 N 0.76924 0.69746 0.845 0.0
H820 H 0.81668 0.75952 0.72343 0.0
H821 H 0.81451 0.74923 0.80256 0.0
H822 H 0.75959 0.68107 0.87965 0.0
H823 H 0.77967 0.72139 0.86348 0.0
H824 H 0.72074 0.63808 0.56673 0.0
H825 H 0.74373 0.67802 0.54815 0.0
H826 H 0.73052 0.60831 0.62189 0.0
H827 H 0.71846 0.59654 0.69844 0.0
C828 C 0.98401 0.68009 0.6715 0.0
C829 C 0.96822 0.69699 0.65044 0.0
C830 C 0.9289 0.66987 0.73329 0.0
C831 C 0.94753 0.65624 0.76029 0.0
N832 N 1.00037 0.66024 0.76179 0.0
N833 N 0.92791 0.71141 0.6717 0.0
C834 C 0.97702 0.66447 0.73083 0.0
C835 C 0.94114 0.69255 0.68402 0.0
N836 N 1.00648 0.67919 0.63474 0.0
N837 N 0.89924 0.66159 0.75384 0.0
H838 H 0.93541 0.72727 0.63582 0.0
H839 H 0.91136 0.7131 0.70006 0.0
H840 H 0.88926 0.6473 0.79112 0.0
H841 H 0.8831 0.66712 0.73014 0.0
H842 H 1.0165 0.66463 0.64325 0.0
H843 H 1.01217 0.69019 0.5917 0.0
H844 H 1.02315 0.66821 0.74508 0.0
H845 H 0.99937 0.65351 0.80852 0.0
C846 C 0.3517 0.30401 0.67416 0.0
C847 C 0.33773 0.2717 0.64548 0.0
C848 C 0.36395 0.26112 0.74128 0.0
C849 C 0.37787 0.29354 0.76971 0.0
N850 N 0.37051 0.33977 0.77236 0.0
N851 N 0.34305 0.2242 0.64418 0.0
C852 C 0.36777 0.3133 0.73859 0.0
C853 C 0.34729 0.25155 0.67704 0.0
N854 N 0.35236 0.32708 0.6379 0.0
N855 N 0.36381 0.23824 0.77759 0.0
H856 H 0.33441 0.21769 0.59583 0.0
H857 H 0.35237 0.21032 0.66202 0.0
H858 H 0.37199 0.24283 0.82628 0.0
H859 H 0.35135 0.21377 0.76223 0.0
H860 H 0.3647 0.35148 0.65398 0.0
H861 H 0.34519 0.32258 0.58872 0.0
H862 H 0.36027 0.35286 0.75443 0.0
H863 H 0.37834 0.3457 0.82123 0.0
C864 C 0.72833 0.0666 0.75468 0.0
C865 C 0.74488 0.0998 0.7801 0.0
C866 C 0.78428 0.10958 0.6958 0.0
C867 C 0.76604 0.07714 0.66791 0.0
N868 N 0.71588 0.02705 0.66348 0.0
N869 N 0.78609 0.1539 0.76123 0.0
C870 C 0.7365 0.05662 0.695 0.0
C871 C 0.77215 0.12149 0.74672 0.0
N872 N 0.70618 0.04371 0.78965 0.0
N873 N 0.81392 0.12918 0.67466 0.0
H874 H 0.77841 0.16407 0.79617 0.0
H875 H 0.80325 0.17087 0.73418 0.0
H876 H 0.82244 0.12203 0.6356 0.0
H877 H 0.83069 0.15158 0.69811 0.0
H878 H 0.69583 0.01908 0.77716 0.0
H879 H 0.70103 0.04886 0.83518 0.0
H880 H 0.69249 1.01202 0.67629 0.0
H881 H 0.72097 0.01917 0.62029 0.0
C882 C 0.65856 0.93329 0.39222 0.0
C883 C 0.66611 0.93955 0.32662 0.0
C884 C 0.72445 0.9698 0.36885 0.0
C885 C 0.71706 0.96418 0.43428 0.0
N886 N 0.676 0.94112 0.50781 0.0
N887 N 0.70695 0.97188 0.25846 0.0
C888 C 0.68373 0.9457 0.44545 0.0
C889 C 0.69926 0.95994 0.31693 0.0
N890 N 0.62691 0.91643 0.40434 0.0
N891 N 0.75583 0.983 0.35475 0.0
H892 H 0.68985 0.96501 0.21892 0.0
H893 H 0.72958 0.99134 0.25196 0.0
H894 H 0.77495 0.99147 0.39019 0.0
H895 H 0.76235 0.98282 0.30783 0.0
H896 H 0.61852 0.90536 0.44628 0.0
H897 H 0.60905 0.91543 0.37269 0.0
H898 H 0.65256 0.92947 0.52186 0.0
H899 H 0.69345 0.95001 0.54716 0.0
C900 C 0.07058 0.76163 0.38226 0.0
C901 C 0.0827 0.76676 0.449 0.0
C902 C 0.12327 0.75238 0.41117 0.0
C903 C 0.10762 0.74244 0.34681 0.0
N904 N 0.06224 0.73398 0.27581 0.0
N905 N 0.11902 0.76153 0.52552 0.0
C906 C 0.08031 0.74629 0.33376 0.0
C907 C 0.10879 0.76078 0.46275 0.0
N908 N 0.05105 0.7732 0.36317 0.0
N909 N 0.15288 0.75479 0.42297 0.0
H910 H 0.10885 0.76664 0.56429 0.0
H911 H 0.13524 0.75388 0.53908 0.0
H912 H 0.16489 0.75054 0.38658 0.0
H913 H 0.16708 0.76456 0.46669 0.0
H914 H 0.04657 0.77555 0.3149 0.0
H915 H 0.04237 0.78347 0.39549 0.0
H916 H 0.0398 0.73237 0.26656 0.0
H917 H 0.06839 0.72313 0.23882 0.0
C918 C 0.33196 0.37196 0.37222 0.0
C919 C 0.31202 0.37352 0.32033 0.0
C920 C 0.26517 0.32806 0.36549 0.0
C921 C 0.28468 0.33035 0.42317 0.0
N922 N 0.33717 0.36129 0.48329 0.0
N923 N 0.2577 0.35436 0.27425 0.0
C924 C 0.3181 0.35456 0.42716 0.0
C925 C 0.27807 0.35184 0.31883 0.0
N926 N 0.36463 0.38601 0.36765 0.0
N927 N 0.23418 0.30281 0.35381 0.0
H928 H 0.26617 0.37035 0.23876 0.0
H929 H 0.23257 0.34221 0.27538 0.0
H930 H 0.22268 0.2857 0.38615 0.0
H931 H 0.22054 0.29761 0.30964 0.0
H932 H 0.38027 0.38371 0.40087 0.0
H933 H 0.37535 0.3964 0.32632 0.0
H934 H 0.36088 0.38061 0.49067 0.0
H935 H 0.32821 0.35018 0.52484 0.0
C936 C 0.03845 0.44347 1.00404 0.0
C937 C 1.00781 0.41563 1.01061 0.0
C938 C 0.03063 0.4139 0.11997 0.0
C939 C 0.05955 0.44367 0.11739 0.0
N940 N 0.08416 0.49144 0.06069 0.0
N941 N 0.97351 0.39102 0.09779 0.0
C942 C 0.06159 0.45981 0.06034 0.0
C943 C 1.00336 0.40512 0.07475 0.0
N944 N 0.04539 0.45549 0.94556 0.0
N945 N 0.02755 0.39474 0.16816 0.0
H946 H 0.95416 0.39282 0.07756 0.0
H947 H 0.9701 0.38429 0.14463 0.0
H948 H 0.04553 0.40079 0.20544 0.0
H949 H 1.00755 0.3716 0.16755 0.0
H950 H 0.06847 0.47372 0.93704 0.0
H951 H 0.02866 0.44613 0.90515 0.0
H952 H 0.08427 0.50527 1.02376 0.0
H953 H 0.09946 0.50443 0.10171 0.0
C954 C 0.65682 0.63742 0.99102 0.0
C955 C 0.63643 0.60515 0.96358 0.0
C956 C 0.59843 0.59845 0.04796 0.0
C957 C 0.62024 0.6299 0.07836 0.0
N958 N 0.67322 0.67697 0.08381 0.0
N959 N 0.58922 0.5536 0.97189 0.0
C960 C 0.6503 0.64854 0.05103 0.0
C961 C 0.60767 0.58532 0.99408 0.0
N962 N 0.68258 0.65779 0.95906 0.0
N963 N 0.56828 0.58146 0.06904 0.0
H964 H 0.59404 0.54399 0.93065 0.0
H965 H 0.57025 0.53669 0.99579 0.0
H966 H 0.56143 0.58989 0.109 0.0
H967 H 0.5497 0.56007 0.04519 0.0
H968 H 0.69671 0.68242 0.97213 0.0
H969 H 0.68788 0.65054 0.91545 0.0
H970 H 0.69683 0.69052 0.0709 0.0
H971 H 0.66957 0.68538 0.12803 0.0
C972 C 0.42652 1.00869 0.96958 0.0
C973 C 0.44061 0.04226 0.98728 0.0
C974 C 0.43454 0.02977 0.10298 0.0
C975 C 0.4186 0.99617 0.08517 0.0
N976 N 0.41364 0.95616 1.0036 0.0
N977 N 0.47286 0.08305 0.07389 0.0
C978 C 0.41899 0.98648 1.01893 0.0
C979 C 0.44904 0.05224 0.05504 0.0
N980 N 0.41978 0.99759 0.90604 0.0
N981 N 0.4353 0.0407 0.16507 0.0
H982 H 0.48563 0.09942 0.04079 0.0
H983 H 0.48292 0.0906 0.12148 0.0
H984 H 0.42548 0.02535 0.20129 0.0
H985 H 0.44403 0.06492 0.1793 0.0
H986 H 0.40685 0.9732 0.89014 0.0
H987 H 0.42592 1.0128 0.86914 0.0
H988 H 0.41687 0.94839 0.95842 0.0
H989 H 0.41004 0.94018 1.0385 0.0
C990 C 0.60129 0.02548 1.00997 0.0
C991 C 0.63284 0.03722 0.98785 0.0
C992 C 0.64621 1.01472 0.08254 0.0
C993 C 0.61388 1.00011 0.10118 0.0
N994 N 0.55922 0.98831 0.07478 0.0
N995 N 0.68267 0.03599 0.99791 0.0
C996 C 0.59104 1.00467 0.06256 0.0
C997 C 0.65431 0.02957 1.02285 0.0
N998 N 0.5813 0.0349 0.98197 0.0
N999 N 0.66971 1.01482 0.12308 0.0
H1000 H 0.68903 0.046 0.95406 0.0
H1001 H 0.698 0.02825 1.01681 0.0
H1002 H 0.66482 1.00487 0.1673 0.0
H1003 H 0.69434 0.02765 0.11632 0.0
H1004 H 0.55949 0.03038 0.99956 0.0
H1005 H 0.58768 0.04882 0.94286 0.0
H1006 H 0.54059 0.98743 0.04477 0.0
H1007 H 0.55143 0.97422 0.11357 0.0
C1008 C 0.03873 0.64136 0.09201 0.0
C1009 C 0.05405 0.62352 0.11101 0.0
C1010 C 1.0238 0.58572 1.01169 0.0
C1011 C 1.01257 0.60634 0.98956 0.0
N1012 N 1.01587 0.65774 1.00483 0.0
N1013 N 0.06067 0.5776 0.08295 0.0
C1014 C 1.02244 0.63545 1.02847 0.0
C1015 C 0.04643 0.59539 0.06903 0.0
N1016 N 0.03716 0.66241 0.13638 0.0
N1017 N 1.0119 0.55615 0.97893 0.0
H1018 H 0.07593 0.58215 0.12421 0.0
H1019 H 0.05889 0.55915 0.05143 0.0
H1020 H 0.99723 0.54939 0.93562 0.0
H1021 H 1.01482 0.53775 0.99626 0.0
H1022 H 1.02392 0.67389 0.12704 0.0
H1023 H 0.04483 0.6648 0.18505 0.0
H1024 H 1.02497 0.68075 1.02788 0.0
H1025 H 1.0043 0.65434 0.95883 0.0
C1026 C 0.44522 0.45587 0.07971 0.0
C1027 C 0.42079 0.43498 0.11943 0.0
C1028 C 0.40905 0.38949 1.03785 0.0
C1029 C 0.43563 0.40961 1.00265 0.0
N1030 N 0.48189 0.46192 0.99674 0.0
N1031 N 0.38537 0.37969 0.14054 0.0
C1032 C 0.4544 0.4428 1.02553 0.0
C1033 C 0.40427 0.4012 0.09924 0.0
N1034 N 0.45924 0.48844 0.09174 0.0
N1035 N 0.38812 0.35865 1.01244 0.0
H1036 H 0.3829 0.38653 0.18723 0.0
H1037 H 0.37536 0.35489 0.13177 0.0
H1038 H 0.39054 0.3496 0.9677 0.0
H1039 H 0.36678 0.3432 1.03233 0.0
H1040 H 0.47399 0.50469 0.06046 0.0
H1041 H 0.45424 0.49939 0.13015 0.0
H1042 H 0.49925 0.4851 1.01567 0.0
H1043 H 0.48828 0.45367 0.95579 0.0
C1044 C 0.13034 0.26688 0.5196 0.0
C1045 C 0.10133 0.2365 0.51765 0.0
C1046 C 0.13699 0.21156 0.50864 0.0
C1047 C 0.16553 0.24237 0.50606 0.0
N1048 N 0.184 0.29765 0.48448 0.0
N1049 N 0.07746 0.17906 0.50162 0.0
C1050 C 0.16021 0.26917 0.50289 0.0
C1051 C 0.10491 0.20861 0.50933 0.0
N1052 N 0.13073 0.29397 0.5439 0.0
N1053 N 0.14025 0.18506 0.51193 0.0
H1054 H 0.05433 0.17625 0.5026 0.0
H1055 H 0.07739 0.15776 0.48926 0.0
H1056 H 0.16203 0.18565 0.50575 0.0
H1057 H 0.12165 0.16277 0.52255 0.0
H1058 H 0.15185 0.3164 0.55153 0.0
H1059 H 0.11126 0.29308 0.56567 0.0
H1060 H 0.18014 0.31667 0.47534 0.0
H1061 H 0.20621 0.30107 0.47163 0.0
C1062 C 0.84641 0.94291 0.5259 0.0
C1063 C 0.82126 0.94603 0.49243 0.0
C1064 C 0.7966 0.8877 0.45064 0.0
C1065 C 0.81877 0.88349 0.49234 0.0
N1066 N 0.87101 0.91024 0.55244 0.0
N1067 N 0.77157 0.9197 0.42294 0.0
C1068 C 0.84544 0.91219 0.52499 0.0
C1069 C 0.79657 0.91807 0.45374 0.0
N1070 N 0.87114 0.96965 0.56047 0.0
N1071 N 0.77614 0.86311 0.40599 0.0
H1072 H 0.77141 0.9412 0.42113 0.0
H1073 H 0.75033 0.89963 0.40211 0.0
H1074 H 0.7756 0.8412 0.40137 0.0
H1075 H 0.76202 0.86545 0.36927 0.0
H1076 H 0.88817 0.96941 0.59326 0.0
H1077 H 0.87427 0.99261 0.55714 0.0
H1078 H 0.89252 0.92979 0.57352 0.0
H1079 H 0.87199 0.88901 0.54884 0.0
C1080 C 0.12069 0.88223 0.45321 0.0
C1081 C 0.0973 0.88059 0.49578 0.0
C1082 C 0.13648 0.93901 0.53204 0.0
C1083 C 0.15958 0.9406 0.48907 0.0
N1084 N 0.16901 0.91493 0.39764 0.0
N1085 N 0.0807 0.91145 0.56195 0.0
C1086 C 0.14989 0.91255 0.44608 0.0
C1087 C 0.10466 0.91031 0.53073 0.0
N1088 N 0.11646 0.85449 0.42238 0.0
N1089 N 0.14537 0.96431 0.57699 0.0
H1090 H 0.05726 0.8917 0.56041 0.0
H1091 H 0.08296 0.93266 0.58315 0.0
H1092 H 0.16736 0.9858 0.57819 0.0
H1093 H 0.13179 0.96328 0.6153 0.0
H1094 H 0.13432 0.8531 0.39803 0.0
H1095 H 0.09596 0.83224 0.42499 0.0
H1096 H 0.16234 0.89694 0.3603 0.0
H1097 H 0.1901 0.93638 0.39122 0.0
C1098 C 0.2037 0.12453 0.57416 0.0
C1099 C 0.23034 0.15368 0.60527 0.0
C1100 C 0.25529 0.12098 0.63997 0.0
C1101 C 0.23002 0.09255 0.60378 0.0
N1102 N 0.17561 0.06587 0.55373 0.0
N1103 N 0.27605 0.17651 0.68509 0.0
C1104 C 0.20282 0.09409 0.57655 0.0
C1105 C 0.2543 0.15082 0.64393 0.0
N1106 N 0.17916 0.1261 0.5409 0.0
N1107 N 0.28119 0.12003 0.66824 0.0
H1108 H 0.27593 0.19812 0.68944 0.0
H1109 H 0.29206 0.1755 0.71942 0.0
H1110 H 0.28179 0.09871 0.66974 0.0
H1111 H 0.30239 0.14032 0.68838 0.0
H1112 H 0.16127 0.10744 0.50942 0.0
H1113 H 0.17722 0.1468 0.54388 0.0
H1114 H 0.15365 0.06404 0.53801 0.0
H1115 H 0.17416 0.04356 0.55639 0.0
C1116 C 0.90064 0.12716 0.64924 0.0
C1117 C 0.89118 0.09965 0.60486 0.0
C1118 C 0.94661 0.13005 0.56611 0.0
C1119 C 0.95353 0.15967 0.60082 0.0
N1120 N 0.93498 0.18482 0.67827 0.0
N1121 N 0.90637 0.0765 0.51759 0.0
C1122 C 0.93017 0.15759 0.64406 0.0
C1123 C 0.91474 0.10148 0.56301 0.0
N1124 N 0.88106 0.12402 0.69722 0.0
N1125 N 0.97112 0.12878 0.53745 0.0
H1126 H 0.88447 0.05486 0.51551 0.0
H1127 H 0.92044 0.07793 0.47989 0.0
H1128 H 0.99482 0.14822 0.54169 0.0
H1129 H 0.96895 0.10756 0.51649 0.0
H1130 H 0.88724 0.1414 0.73553 0.0
H1131 H 0.85985 0.10237 0.70207 0.0
H1132 H 0.91732 0.1859 0.7038 0.0
H1133 H 0.95599 0.20702 0.67887 0.0
C1134 C 0.9462 0.82761 0.61694 0.0
C1135 C 0.94774 0.80141 0.58453 0.0
C1136 C 0.8877 0.77547 0.55505 0.0
C1137 C 0.88613 0.80189 0.5863 0.0
N1138 N 0.91378 0.85096 0.65542 0.0
N1139 N 0.91788 0.74871 0.52712 0.0
C1140 C 0.91546 0.82719 0.62 0.0
C1141 C 0.91775 0.77484 0.55571 0.0
N1142 N 0.97463 0.8537 0.64291 0.0
N1143 N 0.86051 0.75143 0.52055 0.0
H1144 H 0.93905 0.74885 0.5177 0.0
H1145 H 0.89719 0.72634 0.51528 0.0
H1146 H 0.83797 0.74949 0.52258 0.0
H1147 H 0.86019 0.73424 0.48756 0.0
H1148 H 0.97677 0.87527 0.66126 0.0
H1149 H 0.99675 0.85411 0.64382 0.0
H1150 H 0.93293 0.86908 0.68562 0.0
H1151 H 0.89204 0.85109 0.65814 0.0
C1152 C 0.79913 0.52715 0.82089 0.0
C1153 C 0.82644 0.55163 0.79292 0.0
C1154 C 0.7917 0.57482 0.76033 0.0
C1155 C 0.76492 0.55133 0.79133 0.0
N1156 N 0.74111 0.50014 0.83522 0.0
N1157 N 0.84396 0.59178 0.71717 0.0
C1158 C 0.76815 0.52594 0.81641 0.0
C1159 C 0.82108 0.57307 0.75633 0.0
N1160 N 0.80305 0.50514 0.85315 0.0
N1161 N 0.79012 0.60024 0.73826 0.0
H1162 H 0.86526 0.59105 0.71295 0.0
H1163 H 0.84035 0.60547 0.68417 0.0
H1164 H 0.76931 0.60204 0.73899 0.0
H1165 H 0.80996 0.62039 0.72309 0.0
H1166 H 0.78624 0.48941 0.88244 0.0
H1167 H 0.82393 0.50329 0.85192 0.0
H1168 H 0.74036 0.47928 0.84878 0.0
H1169 H 0.71836 0.4984 0.83132 0.0
C1170 C 0.50935 0.27612 0.83203 0.0
C1171 C 0.4824 0.27772 0.8035 0.0
C1172 C 0.45857 0.2196 0.76314 0.0
C1173 C 0.48179 0.21648 0.8039 0.0
N1174 N 0.53279 0.24417 0.86917 0.0
N1175 N 0.43166 0.25017 0.73759 0.0
C1176 C 0.5083 0.24564 0.83541 0.0
C1177 C 0.45743 0.24933 0.76683 0.0
N1178 N 0.53659 0.30434 0.85475 0.0
N1179 N 0.43799 0.19455 0.71945 0.0
H1180 H 0.43088 0.27139 0.73588 0.0
H1181 H 0.41063 0.22975 0.71723 0.0
H1182 H 0.43837 0.17313 0.71408 0.0
H1183 H 0.42297 0.19621 0.68371 0.0
H1184 H 0.55841 0.30611 0.87134 0.0
H1185 H 0.53827 0.32669 0.85107 0.0
H1186 H 0.55036 0.26279 0.90121 0.0
H1187 H 0.53521 0.22373 0.8658 0.0
C1188 C 0.7702 0.23208 0.77832 0.0
C1189 C 0.7641 0.21143 0.82957 0.0
C1190 C 0.82281 0.24537 0.86623 0.0
C1191 C 0.82808 0.26941 0.82344 0.0
N1192 N 0.80439 0.28508 0.73865 0.0
N1193 N 0.7872 0.20602 0.93245 0.0
C1194 C 0.80107 0.26239 0.77886 0.0
C1195 C 0.79099 0.22047 0.87631 0.0
N1196 N 0.74634 0.22317 0.72966 0.0
N1197 N 0.84858 0.24499 0.89666 0.0
H1198 H 0.7664 0.18604 0.94378 0.0
H1199 H 0.80501 0.21572 0.97126 0.0
H1200 H 0.87231 0.26157 0.89068 0.0
H1201 H 0.84632 0.2258 0.92154 0.0
H1202 H 0.74971 0.23513 0.68805 0.0
H1203 H 0.72372 0.20237 0.7293 0.0
H1204 H 0.78518 0.2835 0.70948 0.0
H1205 H 0.82636 0.30647 0.73747 0.0
C1206 C 0.92485 0.48361 0.95755 0.0
C1207 C 0.90975 0.48939 0.90312 0.0
C1208 C 0.88968 0.43212 0.86045 0.0
C1209 C 0.90927 0.42828 0.90938 0.0
N1210 N 0.94556 0.45135 1.00568 0.0
N1211 N 0.87688 0.468 0.80239 0.0
C1212 C 0.92638 0.45423 0.95875 0.0
C1213 C 0.89137 0.46298 0.85518 0.0
N1214 N 0.93794 0.50659 1.00859 0.0
N1215 N 0.86969 0.40613 0.81804 0.0
H1216 H 0.87633 0.4893 0.79882 0.0
H1217 H 0.86648 0.45183 0.76143 0.0
H1218 H 0.86817 0.38383 0.82095 0.0
H1219 H 0.85273 0.40571 0.78397 0.0
H1220 H 0.94724 0.50367 0.05234 0.0
H1221 H 0.9367 0.52768 1.00886 0.0
H1222 H 0.96225 0.4703 1.03829 0.0
H1223 H 0.94544 0.4298 1.01029 0.0
C1224 C 0.56921 0.45442 0.95544 0.0
C1225 C 0.55519 0.42763 0.90734 0.0
C1226 C 0.6037 0.4589 0.8459 0.0
C1227 C 0.61691 0.4861 0.8928 0.0
N1228 N 0.61608 0.50565 1.00022 0.0
N1229 N 0.56373 0.40237 0.81358 0.0
C1230 C 0.60084 0.48231 0.9502 0.0
C1231 C 0.57417 0.42923 0.85514 0.0
N1232 N 0.55143 0.45382 1.00523 0.0
N1233 N 0.6187 0.46203 0.79046 0.0
H1234 H 0.54261 0.3808 0.81862 0.0
H1235 H 0.57725 0.40043 0.77781 0.0
H1236 H 0.64094 0.48227 0.7842 0.0
H1237 H 0.60877 0.44543 0.75006 0.0
H1238 H 0.5576 0.47371 1.03744 0.0
H1239 H 0.52947 0.43345 1.01251 0.0
H1240 H 0.60757 0.50394 0.04567 0.0
H1241 H 0.6391 0.52551 0.9976 0.0
C1242 C 0.58213 0.11002 0.87164 0.0
C1243 C 0.61213 0.13718 0.89814 0.0
C1244 C 0.57999 0.16352 0.93046 0.0
C1245 C 0.55061 0.1377 0.89803 0.0
N1246 N 0.52534 0.08674 0.83365 0.0
N1247 N 0.63928 0.19066 0.95131 0.0
C1248 C 0.55224 0.11094 0.86855 0.0
C1249 C 0.61076 0.16401 0.92771 0.0
N1250 N 0.58202 0.08286 0.84843 0.0
N1251 N 0.57839 0.18772 0.96434 0.0
H1252 H 0.66145 0.19119 0.95239 0.0
H1253 H 0.64136 0.21254 0.96719 0.0
H1254 H 0.55665 0.18789 0.96672 0.0
H1255 H 0.59766 0.20615 0.99381 0.0
H1256 H 0.56107 0.06062 0.83722 0.0
H1257 H 0.60307 0.08173 0.84493 0.0
H1258 H 0.52545 0.06934 0.80193 0.0
H1259 H 0.50288 0.08512 0.83334 0.0
C1260 C 0.49228 0.92567 0.20156 0.0
C1261 C 0.49489 0.90009 0.16944 0.0
C1262 C 0.43532 0.87377 0.13445 0.0
C1263 C 0.43283 0.89914 0.16779 0.0
N1264 N 0.4613 0.95173 0.22604 0.0
N1265 N 0.46935 0.85223 0.0966 0.0
C1266 C 0.46214 0.92587 0.19821 0.0
C1267 C 0.46646 0.87501 0.13291 0.0
N1268 N 0.51821 0.94897 0.24033 0.0
N1269 N 0.40749 0.84775 0.10616 0.0
H1270 H 0.49148 0.8528 0.09496 0.0
H1271 H 0.45088 0.83439 0.06474 0.0
H1272 H 0.38515 0.84688 0.10439 0.0
H1273 H 0.4061 0.82669 0.08663 0.0
H1274 H 0.51703 0.96511 0.27387 0.0
H1275 H 0.54085 0.95101 0.24221 0.0
H1276 H 0.48179 0.9743 0.23774 0.0
H1277 H 0.43988 0.95104 0.23528 0.0
C1278 C 0.14986 0.59174 0.10085 0.0
C1279 C 0.16613 0.61715 0.15167 0.0
C1280 C 0.19225 0.58714 0.19437 0.0
C1281 C 0.17133 0.55923 0.15137 0.0
N1282 N 0.14804 0.54542 0.0417 0.0
N1283 N 0.21473 0.64456 0.22387 0.0
C1284 C 0.15529 0.56449 0.09774 0.0
C1285 C 0.19097 0.61641 0.19152 0.0
N1286 N 0.12922 0.59321 0.05541 0.0
N1287 N 0.21433 0.58606 0.23694 0.0
H1288 H 0.21594 0.66658 0.21822 0.0
H1289 H 0.23512 0.647 0.25005 0.0
H1290 H 0.22056 0.56814 0.23189 0.0
H1291 H 0.22654 0.60283 0.27654 0.0
H1292 H 0.11422 0.57403 1.02146 0.0
H1293 H 0.12652 0.61332 0.05277 0.0
H1294 H 0.13958 0.54985 0.99857 0.0
H1295 H 0.15407 0.52736 1.03701 0.0
C1296 C 0.50233 0.58784 0.19875 0.0
C1297 C 0.50373 0.6127 0.16247 0.0
C1298 C 0.44538 0.57362 0.12317 0.0
C1299 C 0.44299 0.55134 0.16865 0.0
N1300 N 0.47097 0.54418 0.26206 0.0
N1301 N 0.47445 0.62886 0.09121 0.0
C1302 C 0.47193 0.56042 0.20961 0.0
C1303 C 0.47459 0.60528 0.12456 0.0
N1304 N 0.53042 0.59005 0.22345 0.0
N1305 N 0.41954 0.56491 0.07935 0.0
H1306 H 0.49536 0.6512 0.0896 0.0
H1307 H 0.45357 0.62688 0.06816 0.0
H1308 H 0.39804 0.5429 0.07861 0.0
H1309 H 0.42027 0.57835 0.04128 0.0
H1310 H 0.53137 0.57109 0.24354 0.0
H1311 H 0.55292 0.60938 0.21705 0.0
H1312 H 0.49043 0.55258 0.29719 0.0
H1313 H 0.45037 0.52461 0.27565 0.0
C1314 C 0.59923 0.7959 0.25349 0.0
C1315 C 0.57217 0.76447 0.25679 0.0
C1316 C 0.53927 0.79197 0.26404 0.0
C1317 C 0.56785 0.82314 0.27039 0.0
N1318 N 0.62534 0.85075 0.30008 0.0
N1319 N 0.5152 0.73379 0.27108 0.0
C1320 C 0.59781 0.82364 0.27565 0.0
C1321 C 0.54178 0.76293 0.26465 0.0
N1322 N 0.62465 0.80022 0.22014 0.0
N1323 N 0.50978 0.79001 0.25599 0.0
H1324 H 0.51638 0.71266 0.27034 0.0
H1325 H 0.49293 0.73107 0.28188 0.0
H1326 H 0.50748 0.81054 0.25807 0.0
H1327 H 0.48812 0.7684 0.24452 0.0
H1328 H 0.64436 0.82301 0.21545 0.0
H1329 H 0.62243 0.78223 0.18683 0.0
H1330 H 0.6477 0.85172 0.30576 0.0
H1331 H 0.62425 0.86993 0.32279 0.0
C1332 C 0.25359 0.81233 0.20714 0.0
C1333 C 0.28403 0.82038 0.24077 0.0
C1334 C 0.25461 0.76578 0.28227 0.0
C1335 C 0.22407 0.75972 0.25308 0.0
N1336 N 0.19546 0.78481 0.20924 0.0
N1337 N 0.31136 0.80485 0.31893 0.0
C1338 C 0.22402 0.78555 0.22308 0.0
C1339 C 0.28372 0.79722 0.2817 0.0
N1340 N 0.25214 0.82862 0.15652 0.0
N1341 N 0.25604 0.7412 0.30903 0.0
H1342 H 0.33282 0.82673 0.31782 0.0
H1343 H 0.31229 0.79055 0.35383 0.0
H1344 H 0.23528 0.71892 0.31215 0.0
H1345 H 0.2777 0.7424 0.32499 0.0
H1346 H 0.23075 0.82125 0.12743 0.0
H1347 H 0.27218 0.84644 0.13725 0.0
H1348 H 0.19414 0.8043 0.19286 0.0
H1349 H 0.17373 0.76647 0.22224 0.0
C1350 C 0.26219 0.44797 0.21395 0.0
C1351 C 0.29262 0.47583 0.23632 0.0
C1352 C 0.26195 0.50466 0.25883 0.0
C1353 C 0.23161 0.47675 0.23655 0.0
N1354 N 0.20312 0.41989 0.20428 0.0
N1355 N 0.32023 0.52913 0.29018 0.0
C1356 C 0.23197 0.44786 0.21822 0.0
C1357 C 0.29195 0.50362 0.26207 0.0
N1358 N 0.26211 0.42186 0.18451 0.0
N1359 N 0.2622 0.53269 0.27505 0.0
H1360 H 0.34206 0.52896 0.29292 0.0
H1361 H 0.32174 0.54923 0.31509 0.0
H1362 H 0.24088 0.53369 0.27664 0.0
H1363 H 0.28323 0.555 0.28442 0.0
H1364 H 0.24189 0.40269 0.15847 0.0
H1365 H 0.28293 0.42018 0.18241 0.0
H1366 H 0.201 0.39726 0.19867 0.0
H1367 H 0.18085 0.41893 0.20368 0.0
C1368 C 1.02526 0.28772 0.0822 0.0
C1369 C 1.02401 0.26067 0.10953 0.0
C1370 C 0.04261 0.24773 1.00988 0.0
C1371 C 0.04048 0.27262 0.98009 0.0
N1372 N 1.02521 0.31354 0.98511 0.0
N1373 N 0.02654 0.21187 0.09538 0.0
C1374 C 0.03063 0.29194 1.01561 0.0
C1375 C 0.0314 0.23988 0.07225 0.0
N1376 N 1.02223 0.30992 0.12042 0.0
N1377 N 0.05635 0.23219 0.97941 0.0
H1378 H 1.01835 0.20514 0.14054 0.0
H1379 H 0.0279 0.19397 0.06767 0.0
H1380 H 0.06502 0.23734 0.93408 0.0
H1381 H 0.0619 0.21636 1.00142 0.0
H1382 H 0.02634 0.33187 0.10546 0.0
H1383 H 1.01826 0.30762 0.1691 0.0
H1384 H 1.01464 0.3258 1.00619 0.0
H1385 H 0.02873 0.31725 0.93663 0.0
C1386 C 0.77901 0.80028 0.09991 0.0
C1387 C 0.79694 0.78597 0.12372 0.0
C1388 C 0.81243 0.78294 1.01351 0.0
C1389 C 0.78888 0.79037 0.98883 0.0
N1390 N 0.74818 0.80481 1.00948 0.0
N1391 N 0.84829 0.78979 0.10629 0.0
C1392 C 0.77148 0.79835 1.0323 0.0
C1393 C 0.81875 0.78428 0.08148 0.0
N1394 N 0.77548 0.82162 0.13951 0.0
N1395 N 0.82874 0.7744 0.97216 0.0
H1396 H 0.85625 0.79723 0.15499 0.0
H1397 H 0.86645 0.79183 0.0778 0.0
H1398 H 0.82522 0.7737 0.92216 0.0
H1399 H 0.84366 0.76551 0.9876 0.0
H1400 H 0.76484 0.83471 0.12351 0.0
H1401 H 0.78849 0.83043 0.18474 0.0
H1402 H 0.73289 0.80782 1.0396 0.0
H1403 H 0.74247 0.80456 0.96039 0.0
C1404 C 0.2637 0.05666 0.05935 0.0
C1405 C 0.26735 0.03563 0.09995 0.0
C1406 C 0.27259 1.0066 1.00501 0.0
C1407 C 0.26455 0.02472 0.96415 0.0
N1408 N 0.24854 0.06463 0.95189 0.0
N1409 N 0.2691 0.98674 0.1098 0.0
C1410 C 0.25919 0.04926 0.99112 0.0
C1411 C 0.27025 1.00961 0.07232 0.0
N1412 N 0.26527 0.08408 0.08589 0.0
N1413 N 0.28306 0.9869 0.97958 0.0
H1414 H 0.26581 0.98737 0.15851 0.0
H1415 H 0.2678 0.96551 0.09142 0.0
H1416 H 0.28555 0.98443 0.93048 0.0
H1417 H 0.29236 0.97558 1.00777 0.0
H1418 H 0.26628 0.10206 0.0587 0.0
H1419 H 0.26835 0.09018 0.13554 0.0
H1420 H 0.24078 0.08017 0.96918 0.0
H1421 H 0.24504 0.05996 0.90182 0.0
C1422 C 0.04509 0.78995 1.03563 0.0
C1423 C 1.02157 0.77307 0.98229 0.0
C1424 C 0.97983 0.74672 0.05837 0.0
C1425 C 1.00382 0.76199 0.11161 0.0
N1426 N 0.06062 0.79218 0.14932 0.0
N1427 N 0.968 0.73027 0.9433 0.0
C1428 C 0.03686 0.78185 0.09967 0.0
C1429 C 0.98934 0.74991 0.99387 0.0
N1430 N 0.07506 0.8147 1.02551 0.0
N1431 N 0.94774 0.73025 0.06915 0.0
H1432 H 0.97412 0.7318 0.89575 0.0
H1433 H 0.94534 0.7106 0.94905 0.0
H1434 H 0.93973 0.72763 0.11524 0.0
H1435 H 0.92898 0.72155 1.03246 0.0
H1436 H 0.09194 0.83023 0.06275 0.0
H1437 H 0.08206 0.82159 0.97974 0.0
H1438 H 0.08528 0.80379 0.14268 0.0
H1439 H 0.05569 0.7863 0.19645 0.0
C1440 C 0.26336 0.22898 0.06528 0.0
C1441 C 0.27382 0.25488 0.11377 0.0
C1442 C 0.2858 0.29241 1.02969 0.0
C1443 C 0.27222 0.26597 0.98141 0.0
N1444 N 0.24351 0.20853 0.95373 0.0
N1445 N 0.29221 0.31083 0.14334 0.0
C1446 C 0.2599 0.2341 0.99934 0.0
C1447 C 0.28436 0.28655 0.09628 0.0
N1448 N 0.25745 0.19956 0.08217 0.0
N1449 N 0.30075 0.32314 1.01168 0.0
H1450 H 0.29192 0.30748 0.1924 0.0
H1451 H 0.29682 0.33372 0.13406 0.0
H1452 H 0.30265 0.32823 0.96355 0.0
H1453 H 0.31367 0.34359 0.04393 0.0
H1454 H 0.25342 0.18076 0.04879 0.0
H1455 H 0.2593 0.1947 0.12989 0.0
H1456 H 0.2307 0.18471 0.96479 0.0
H1457 H 0.24031 0.2111 0.90499 0.0
C1458 C 0.76875 1.0004 0.085 0.0
C1459 C 0.79722 0.028 0.11424 0.0
C1460 C 0.81796 0.04063 1.00782 0.0
C1461 C 0.7881 1.01478 0.97839 0.0
N1462 N 0.73257 0.97418 0.98792 0.0
N1463 N 0.84695 0.07729 0.10315 0.0
C1464 C 0.7627 0.99592 1.01672 0.0
C1465 C 0.8213 0.04899 0.0755 0.0
N1466 N 0.74829 0.97762 0.12238 0.0
N1467 N 0.84348 0.05649 0.97147 0.0
H1468 H 0.85044 0.08402 0.15259 0.0
H1469 H 0.86339 0.0952 0.07665 0.0
H1470 H 0.84188 0.05128 0.92175 0.0
H1471 H 0.86691 0.07306 0.99118 0.0
H1472 H 0.72851 0.95567 0.10359 0.0
H1473 H 0.75334 0.97914 0.17205 0.0
H1474 H 0.71225 0.96224 1.01354 0.0
H1475 H 0.72722 0.97033 0.93797 0.0
C1476 C 0.70384 0.61239 0.32214 0.0
C1477 C 0.69398 0.58464 0.27887 0.0
C1478 C 0.66358 0.54985 0.36231 0.0
C1479 C 0.6753 0.57737 0.40736 0.0
N1480 N 0.7048 0.6351 0.42968 0.0
N1481 N 0.66681 0.52698 0.25791 0.0
C1482 C 0.69478 0.60875 0.38689 0.0
C1483 C 0.67443 0.55338 0.29903 0.0
N1484 N 0.72167 0.64226 0.30072 0.0
N1485 N 0.64078 0.52042 0.3793 0.0
H1486 H 0.67311 0.52857 0.2105 0.0
H1487 H 0.65608 0.50361 0.27159 0.0
H1488 H 0.6317 0.51708 0.42447 0.0
H1489 H 0.62861 0.4998 0.3473 0.0
H1490 H 0.72844 0.66385 0.32743 0.0
H1491 H 0.72942 0.64579 0.25444 0.0
H1492 H 0.72272 0.65832 0.42259 0.0
H1493 H 0.69493 0.6338 0.47341 0.0
C1494 C 0.46174 0.13822 0.41899 0.0
C1495 C 0.44386 0.10583 0.4348 0.0
C1496 C 0.42212 0.08811 0.32081 0.0
C1497 C 0.44198 0.12016 0.30409 0.0
N1498 N 0.48109 0.17585 0.33644 0.0
N1499 N 0.40875 0.04947 0.40123 0.0
C1500 C 0.46185 0.14523 0.35312 0.0
C1501 C 0.42444 0.08067 0.38577 0.0
N1502 N 0.47824 0.16239 0.46741 0.0
N1503 N 0.40061 0.06484 0.27472 0.0
H1504 H 0.40859 0.04324 0.44844 0.0
H1505 H 0.3974 0.02955 0.36735 0.0
H1506 H 0.39911 0.06882 0.22635 0.0
H1507 H 0.38275 0.04203 0.28459 0.0
H1508 H 0.4887 0.18677 0.46107 0.0
H1509 H 0.48007 0.15818 0.51558 0.0
H1510 H 0.49929 0.19449 0.36743 0.0
H1511 H 0.47983 0.1826 0.29015 0.0
C1512 C 0.95463 0.35901 0.33365 0.0
C1513 C 0.92768 0.33151 0.29947 0.0
C1514 C 0.90174 0.31607 0.40094 0.0
C1515 C 0.92944 0.34261 0.43538 0.0
N1516 N 0.98464 0.38596 0.43694 0.0
N1517 N 0.87845 0.28065 0.30196 0.0
C1518 C 0.95663 0.36305 0.40232 0.0
C1519 C 0.90206 0.30908 0.33362 0.0
N1520 N 0.97787 0.38182 0.30027 0.0
N1521 N 0.8746 0.2983 0.43202 0.0
H1522 H 0.87781 0.27477 0.2528 0.0
H1523 H 0.86109 0.26177 0.32521 0.0
H1524 H 0.87355 0.30249 0.48121 0.0
H1525 H 0.85238 0.28102 0.40836 0.0
H1526 H 0.99624 0.40411 0.32116 0.0
H1527 H 0.97737 0.37949 0.25034 0.0
H1528 H 1.00616 0.40033 0.41664 0.0
H1529 H 0.98726 0.38907 0.48723 0.0
C1530 C 0.67474 0.08494 0.32601 0.0
C1531 C 0.69447 0.11712 0.31035 0.0
C1532 C 0.69593 0.13681 0.42285 0.0
C1533 C 0.67855 0.10459 0.43979 0.0
N1534 N 0.65629 0.04797 0.40958 0.0
N1535 N 0.72899 0.17332 0.34665 0.0
C1536 C 0.66928 0.07863 0.39185 0.0
C1537 C 0.7065 0.14295 0.35963 0.0
N1538 N 0.66036 0.06045 0.27774 0.0
N1539 N 0.70138 0.16161 0.46652 0.0
H1540 H 0.73748 0.17882 0.30126 0.0
H1541 H 0.74141 0.19247 0.38209 0.0
H1542 H 0.69387 0.15818 0.513 0.0
H1543 H 0.71071 0.18524 0.45492 0.0
H1544 H 0.64295 0.03698 0.28508 0.0
H1545 H 0.66379 0.06409 0.2292 0.0
H1546 H 0.65247 0.02851 0.37842 0.0
H1547 H 0.65202 0.04242 0.45708 0.0
C1548 C 0.90802 0.57386 0.32372 0.0
C1549 C 0.93192 0.60194 0.29774 0.0
C1550 C 0.96152 0.62193 0.40556 0.0
C1551 C 0.93768 0.59375 0.43138 0.0
N1552 N 0.88752 0.54282 0.41448 0.0
N1553 N 0.98179 0.65315 0.31475 0.0
C1554 C 0.91078 0.56988 0.39028 0.0
C1555 C 0.95867 0.62601 0.33894 0.0
N1556 N 0.88224 0.54992 0.28584 0.0
N1557 N 0.98758 0.64549 0.4434 0.0
H1558 H 0.98091 0.65736 0.26629 0.0
H1559 H 1.00175 0.67142 0.34347 0.0
H1560 H 0.99176 0.64474 0.49275 0.0
H1561 H 0.99176 0.64474 0.49275 0.0
H1562 H 0.87818 0.55018 0.23626 0.0
H1563 H 0.87818 0.55018 0.23626 0.0
H1564 H 0.86746 0.52466 0.3858 0.0
H1565 H 0.88811 0.53869 0.46303 0.0
C1566 C 0.41121 0.33082 0.33256 0.0
C1567 C 0.44025 0.33696 0.30515 0.0
C1568 C 0.47044 0.35526 0.41236 0.0
C1569 C 0.44139 0.34895 0.43988 0.0
N1570 N 0.38362 0.32766 0.42946 0.0
N1571 N 0.49813 0.35872 0.31577 0.0
C1572 C 0.41161 0.33599 0.40078 0.0
C1573 C 0.47003 0.35006 0.34431 0.0
N1574 N 0.38358 0.32101 0.29288 0.0
N1575 N 0.49824 0.36542 0.45185 0.0
H1576 H 0.49873 0.35482 0.26629 0.0
H1577 H 0.52124 0.3716 0.33982 0.0
H1578 H 0.49981 0.37054 0.50158 0.0
H1579 H 0.51942 0.36713 0.43661 0.0
H1580 H 0.36237 0.31928 0.3081 0.0
H1581 H 0.3823 0.31625 0.24308 0.0
H1582 H 0.3605 0.31532 0.40534 0.0
H1583 H 0.38326 0.33162 0.47904 0.0
C1584 C 0.37298 0.95499 0.67929 0.0
C1585 C 0.35961 0.92914 0.62976 0.0
C1586 C 0.33005 0.89137 0.71008 0.0
C1587 C 0.34194 0.91748 0.75873 0.0
N1588 N 0.36894 0.97472 0.78617 0.0
N1589 N 0.32028 0.87378 0.59558 0.0
C1590 C 0.36163 0.94948 0.74216 0.0
C1591 C 0.3367 0.89759 0.64457 0.0
N1592 N 0.39739 0.98461 0.6669 0.0
N1593 N 0.31265 0.8605 0.72661 0.0
H1594 H 0.32412 0.87748 0.54719 0.0
H1595 H 0.30084 0.8512 0.60211 0.0
H1596 H 0.30596 0.85501 0.77315 0.0
H1597 H 0.30662 0.84034 0.6953 0.0
H1598 H 0.41067 1.00352 0.70242 0.0
H1599 H 0.4064 0.98959 0.62183 0.0
H1600 H 0.38154 0.99868 0.77615 0.0
H1601 H 0.36026 0.97162 0.83169 0.0
C1602 C 0.13366 0.42198 0.72442 0.0
C1603 C 0.1352 0.44367 0.77558 0.0
C1604 C 0.13884 0.48141 0.69647 0.0
C1605 C 0.13429 0.45851 0.64507 0.0
N1606 N 0.1223 0.40487 0.60967 0.0
N1607 N 0.13256 0.49113 0.80874 0.0
C1608 C 0.13028 0.42817 0.65896 0.0
C1609 C 0.13602 0.47264 0.76115 0.0
N1610 N 0.13654 0.396 0.73836 0.0
N1611 N 0.14677 0.51195 0.68372 0.0
H1612 H 0.12972 0.48531 0.85636 0.0
H1613 H 0.12938 0.51056 0.79992 0.0
H1614 H 0.14909 0.51935 0.63718 0.0
H1615 H 0.15391 0.53071 0.71958 0.0
H1616 H 0.13877 0.38101 0.70358 0.0
H1617 H 0.13959 0.39099 0.78543 0.0
H1618 H 0.11521 0.38106 0.61679 0.0
H1619 H 0.12022 0.40871 0.56131 0.0
C1620 C 0.62301 0.67825 0.74575 0.0
C1621 C 0.60856 0.69552 0.77188 0.0
C1622 C 0.58562 0.69514 0.66321 0.0
C1623 C 0.60245 0.68048 0.63642 0.0
N1624 N 0.64075 0.66191 0.65089 0.0
N1625 N 0.58037 0.72488 0.75502 0.0
C1626 C 0.62211 0.67302 0.6774 0.0
C1627 C 0.59102 0.70519 0.73043 0.0
N1628 N 0.63686 0.66613 0.78637 0.0
N1629 N 0.56358 0.69847 0.6247 0.0
H1630 H 0.58355 0.73255 0.80395 0.0
H1631 H 0.57078 0.73581 0.72643 0.0
H1632 H 0.55889 0.69141 0.57534 0.0
H1633 H 0.54788 0.70561 0.64245 0.0
H1634 H 0.64471 0.65042 0.77077 0.0
H1635 H 0.63821 0.66976 0.83649 0.0
H1636 H 0.65817 0.65921 0.67759 0.0
H1637 H 0.64066 0.65771 0.60124 0.0
C1638 C 0.34364 0.4594 0.73917 0.0
C1639 C 0.3561 0.44374 0.77763 0.0
C1640 C 0.38294 0.43669 0.68521 0.0
C1641 C 0.37235 0.45419 0.64807 0.0
N1642 N 0.34706 0.48578 0.64013 0.0
N1643 N 0.38927 0.41849 0.78632 0.0
C1644 C 0.35359 0.46632 0.67552 0.0
C1645 C 0.37615 0.43284 0.75067 0.0
N1646 N 0.32155 0.46661 0.76279 0.0
N1647 N 0.39943 0.42326 0.6581 0.0
H1648 H 0.38606 0.41478 0.83492 0.0
H1649 H 0.38606 0.41478 0.83492 0.0
H1650 H 0.40348 0.42379 0.60936 0.0
H1651 H 0.40789 0.41052 0.68411 0.0
H1652 H 0.30843 0.47439 0.73512 0.0
H1653 H 0.31433 0.46245 0.80939 0.0
H1654 H 0.3357 0.49821 0.65651 0.0
H1655 H 0.3357 0.49821 0.65651 0.0
C1656 C 0.6081 0.91001 0.73355 0.0
C1657 C 0.60382 0.92867 0.78325 0.0
C1658 C 0.59847 0.96146 0.70126 0.0
C1659 C 0.59868 0.94024 0.6513 0.0
N1660 N 0.6011 0.8926 0.61941 0.0
N1661 N 0.59203 0.97059 0.81414 0.0
C1662 C 0.60283 0.91407 0.66742 0.0
C1663 C 0.5985 0.95419 0.76704 0.0
N1664 N 0.61842 0.88915 0.74969 0.0
N1665 N 0.59852 0.98876 0.68583 0.0
H1666 H 0.5918 0.96602 0.8625 0.0
H1667 H 0.58454 0.98708 0.80493 0.0
H1668 H 0.59759 0.99436 0.63838 0.0
H1669 H 0.60196 1.00706 0.71992 0.0
H1670 H 0.62536 0.87734 0.71633 0.0
H1671 H 0.62303 0.8859 0.79735 0.0
H1672 H 0.59995 0.87092 0.62783 0.0
H1673 H 0.59854 0.89535 0.57054 0.0
C1674 C 0.1596 0.7104 0.68373 0.0
C1675 C 0.1383 0.67842 0.65626 0.0
C1676 C 0.1336 0.65992 0.76453 0.0
C1677 C 0.14815 0.6922 0.79243 0.0
N1678 N 0.19604 0.74214 0.77669 0.0
N1679 N 0.1035 0.62228 0.67191 0.0
C1680 C 0.16715 0.71643 0.75189 0.0
C1681 C 0.12493 0.65303 0.69708 0.0
N1682 N 0.17307 0.73505 0.64505 0.0
N1683 N 0.13318 0.63676 0.80021 0.0
H1684 H 0.09617 0.61614 0.62273 0.0
H1685 H 0.09096 0.60362 0.70087 0.0
H1686 H 0.14493 0.64244 0.84667 0.0
H1687 H 0.12558 0.61342 0.7807 0.0
H1688 H 0.186 0.75915 0.6634 0.0
H1689 H 0.16947 0.73151 0.59484 0.0
H1690 H 0.21237 0.75926 0.7486 0.0
H1691 H 0.20589 0.7431 0.82319 0.0
loop_
_geom_bond_atom_site_label_1
_geom_bond_atom_site_label_2
_geom_bond_distance
_geom_bond_site_symmetry_2
_ccdc_geom_bond_type
La0 C2 2.928 . S
La0 O20 2.521 . S
La0 O21 2.613 1_455 S
La0 O22 2.554 . S
La0 O23 2.757 . S
La0 O24 2.470 1_455 S
La0 O29 2.482 1_455 S
La0 O31 2.503 . S
La1 C11 2.928 . S
La1 O23 2.482 1_655 S
La1 O25 2.503 . S
La1 O26 2.521 . S
La1 O27 2.628 1_655 S
La1 O28 2.554 . S
La1 O29 2.757 . S
La1 O30 2.470 1_655 S
C2 La0 2.928 . S
C2 C3 1.503 . S
C2 O20 1.261 . S
C2 O21 1.219 1_455 S
C3 C2 1.503 . S
C3 C4 1.394 . S
C3 C8 1.373 1_455 S
C4 C3 1.394 . S
C4 C5 1.380 . S
C4 H32 0.930 . S
C5 C4 1.380 . S
C5 C6 1.376 . S
C5 H33 0.930 . S
C6 C5 1.376 . S
C6 C7 1.370 1_455 S
C7 C6 1.370 1_655 S
C7 C8 1.396 . S
C7 H34 0.929 . S
C8 C3 1.373 1_655 S
C8 C7 1.396 . S
C8 H35 0.929 . S
C9 O22 1.240 . S
C9 O23 1.289 . S
C10 O24 1.258 . S
C10 O25 1.256 . S
C11 La1 2.928 . S
C11 C12 1.503 . S
C11 O26 1.261 . S
C11 O27 1.243 1_655 S
C12 C11 1.503 . S
C12 C13 1.394 . S
C12 C17 1.373 1_655 S
C13 C12 1.394 . S
C13 C14 1.380 . S
C13 H36 0.930 . S
C14 C13 1.380 . S
C14 C15 1.366 1_655 S
C14 H37 0.930 . S
C15 C14 1.366 1_455 S
C15 C16 1.380 . S
C16 C15 1.380 . S
C16 C17 1.396 . S
C16 H38 0.929 . S
C17 C12 1.373 1_455 S
C17 C16 1.396 . S
C17 H39 0.929 . S
C18 O28 1.240 . S
C18 O29 1.289 . S
C19 O30 1.258 . S
C19 O31 1.256 . S
O20 La0 2.521 . S
O20 C2 1.261 . S
O21 La0 2.613 1_655 S
O21 C2 1.219 1_655 S
O22 La0 2.554 . S
O22 C9 1.240 . S
O23 La0 2.757 . S
O23 La1 2.482 1_455 S
O23 C9 1.289 . S
O24 La0 2.470 1_655 S
O24 C10 1.258 . S
O25 La1 2.503 . S
O25 C10 1.256 . S
O26 La1 2.521 . S
O26 C11 1.261 . S
O27 La1 2.628 1_455 S
O27 C11 1.243 1_455 S
O28 La1 2.554 . S
O28 C18 1.240 . S
O29 La0 2.482 1_655 S
O29 La1 2.757 . S
O29 C18 1.289 . S
O30 La1 2.470 1_455 S
O30 C19 1.258 . S
O31 La0 2.503 . S
O31 C19 1.256 . S
H32 C4 0.930 . S
H33 C5 0.930 . S
H34 C7 0.929 . S
H35 C8 0.929 . S
H36 C13 0.930 . S
H37 C14 0.930 . S
H38 C16 0.929 . S
H39 C17 0.929 . S
La40 C42 2.928 . S
La40 O60 2.521 . S
La40 O61 2.628 . S
La40 O62 2.554 . S
La40 O63 2.757 . S
La40 O64 2.470 . S
La40 O69 2.482 . S
La40 O71 2.503 . S
La41 C51 2.928 . S
La41 O63 2.482 . S
La41 O65 2.503 . S
La41 O66 2.521 . S
La41 O67 2.628 . S
La41 O68 2.554 . S
La41 O69 2.757 . S
La41 O70 2.470 . S
C42 La40 2.928 . S
C42 C43 1.503 . S
C42 O60 1.261 . S
C42 O61 1.243 . S
C43 C42 1.503 . S
C43 C44 1.394 . S
C43 C48 1.373 . S
C44 C43 1.394 . S
C44 C45 1.380 . S
C44 H72 0.930 . S
C45 C44 1.380 . S
C45 C46 1.376 . S
C45 H73 0.930 . S
C46 C45 1.376 . S
C46 C47 1.370 . S
C47 C46 1.370 . S
C47 C48 1.396 . S
C47 H74 0.929 . S
C48 C43 1.373 . S
C48 C47 1.396 . S
C48 H75 0.929 . S
C49 O62 1.240 . S
C49 O63 1.289 . S
C50 O64 1.258 . S
C50 O65 1.256 . S
C51 La41 2.928 . S
C51 C52 1.503 . S
C51 O66 1.261 . S
C51 O67 1.243 . S
C52 C51 1.503 . S
C52 C53 1.394 . S
C52 C57 1.373 . S
C53 C52 1.394 . S
C53 C54 1.380 . S
C53 H76 0.930 . S
C54 C53 1.380 . S
C54 C55 1.376 . S
C54 H77 0.930 . S
C55 C54 1.376 . S
C55 C56 1.370 . S
C56 C55 1.370 . S
C56 C57 1.396 . S
C56 H78 0.929 . S
C57 C52 1.373 . S
C57 C56 1.396 . S
C57 H79 0.929 . S
C58 O68 1.240 . S
C58 O69 1.289 . S
C59 O70 1.258 . S
C59 O71 1.256 . S
O60 La40 2.521 . S
O60 C42 1.261 . S
O61 La40 2.628 . S
O61 C42 1.243 . S
O62 La40 2.554 . S
O62 C49 1.240 . S
O63 La40 2.757 . S
O63 La41 2.482 . S
O63 C49 1.289 . S
O64 La40 2.470 . S
O64 C50 1.258 . S
O65 La41 2.503 . S
O65 C50 1.256 . S
O66 La41 2.521 . S
O66 C51 1.261 . S
O67 La41 2.628 . S
O67 C51 1.243 . S
O68 La41 2.554 . S
O68 C58 1.240 . S
O69 La40 2.482 . S
O69 La41 2.757 . S
O69 C58 1.289 . S
O70 La41 2.470 . S
O70 C59 1.258 . S
O71 La40 2.503 . S
O71 C59 1.256 . S
H72 C44 0.930 . S
H73 C45 0.930 . S
H74 C47 0.929 . S
H75 C48 0.929 . S
H76 C53 0.930 . S
H77 C54 0.930 . S
H78 C56 0.929 . S
H79 C57 0.929 . S
La80 C82 2.928 . S
La80 O100 2.521 . S
La80 O101 2.628 1_565 S
La80 O102 2.554 . S
La80 O103 2.757 . S
La80 O104 2.470 1_565 S
La80 O109 2.482 1_565 S
La80 O111 2.503 . S
La81 C91 2.928 . S
La81 O103 2.482 1_545 S
La81 O105 2.503 . S
La81 O106 2.521 . S
La81 O107 2.628 1_545 S
La81 O108 2.554 . S
La81 O109 2.757 . S
La81 O110 2.470 1_545 S
C82 La80 2.928 . S
C82 C83 1.496 1_565 S
C82 O100 1.261 . S
C82 O101 1.243 1_565 S
C83 C82 1.496 1_545 S
C83 C84 1.377 1_545 S
C83 C88 1.398 . S
C84 C83 1.377 1_565 S
C84 C85 1.380 . S
C84 H112 0.930 . S
C85 C84 1.380 . S
C85 C86 1.376 1_565 S
C85 H113 0.930 . S
C86 C85 1.376 1_545 S
C86 C87 1.370 . S
C87 C86 1.370 . S
C87 C88 1.396 . S
C87 H114 0.929 . S
C88 C83 1.398 . S
C88 C87 1.396 . S
C88 H115 0.929 . S
C89 O102 1.240 . S
C89 O103 1.289 . S
C90 O104 1.258 . S
C90 O105 1.256 . S
C91 La81 2.928 . S
C91 C92 1.503 . S
C91 O106 1.261 . S
C91 O107 1.243 1_545 S
C92 C91 1.503 . S
C92 C93 1.394 . S
C92 C97 1.373 1_545 S
C93 C92 1.394 . S
C93 C94 1.380 . S
C93 H116 0.930 . S
C94 C93 1.380 . S
C94 C95 1.376 1_545 S
C94 H117 0.930 . S
C95 C94 1.376 1_565 S
C95 C96 1.370 . S
C96 C95 1.370 . S
C96 C97 1.396 . S
C96 H118 0.929 . S
C97 C92 1.373 1_565 S
C97 C96 1.396 . S
C97 H119 0.929 . S
C98 O108 1.240 . S
C98 O109 1.289 . S
C99 O110 1.258 . S
C99 O111 1.256 . S
O100 La80 2.521 . S
O100 C82 1.261 . S
O101 La80 2.628 1_545 S
O101 C82 1.243 1_545 S
O102 La80 2.554 . S
O102 C89 1.240 . S
O103 La80 2.757 . S
O103 La81 2.482 1_565 S
O103 C89 1.289 . S
O104 La80 2.470 1_545 S
O104 C90 1.258 . S
O105 La81 2.503 . S
O105 C90 1.256 . S
O106 La81 2.521 . S
O106 C91 1.261 . S
O107 La81 2.628 1_565 S
O107 C91 1.243 1_565 S
O108 La81 2.554 . S
O108 C98 1.240 . S
O109 La80 2.482 1_545 S
O109 La81 2.757 . S
O109 C98 1.289 . S
O110 La81 2.470 1_565 S
O110 C99 1.258 . S
O111 La80 2.503 . S
O111 C99 1.256 . S
H112 C84 0.930 . S
H113 C85 0.930 . S
H114 C87 0.929 . S
H115 C88 0.929 . S
H116 C93 0.930 . S
H117 C94 0.930 . S
H118 C96 0.929 . S
H119 C97 0.929 . S
La120 C122 2.928 . S
La120 O140 2.521 . S
La120 O141 2.628 1_455 S
La120 O142 2.554 . S
La120 O143 2.757 . S
La120 O144 2.470 1_455 S
La120 O149 2.482 1_455 S
La120 O151 2.503 . S
La121 C131 2.928 . S
La121 O143 2.482 1_655 S
La121 O145 2.503 . S
La121 O146 2.521 . S
La121 O147 2.628 1_655 S
La121 O148 2.554 . S
La121 O149 2.757 . S
La121 O150 2.470 1_655 S
C122 La120 2.928 . S
C122 C123 1.503 . S
C122 O140 1.261 . S
C122 O141 1.243 1_455 S
C123 C122 1.503 . S
C123 C124 1.394 . S
C123 C128 1.373 1_455 S
C124 C123 1.394 . S
C124 C125 1.380 . S
C124 H152 0.930 . S
C125 C124 1.380 . S
C125 C126 1.376 . S
C125 H153 0.930 . S
C126 C125 1.376 . S
C126 C127 1.370 1_455 S
C127 C126 1.370 1_655 S
C127 C128 1.396 . S
C127 H154 0.929 . S
C128 C123 1.373 1_655 S
C128 C127 1.396 . S
C128 H155 0.929 . S
C129 O142 1.240 . S
C129 O143 1.289 . S
C130 O144 1.258 . S
C130 O145 1.256 . S
C131 La121 2.928 . S
C131 C132 1.503 . S
C131 O146 1.261 . S
C131 O147 1.243 1_655 S
C132 C131 1.503 . S
C132 C133 1.394 . S
C132 C137 1.373 1_655 S
C133 C132 1.394 . S
C133 C134 1.380 . S
C133 H156 0.930 . S
C134 C133 1.380 . S
C134 C135 1.376 . S
C134 H157 0.930 . S
C135 C134 1.376 . S
C135 C136 1.370 1_655 S
C136 C135 1.370 1_455 S
C136 C137 1.396 . S
C136 H158 0.929 . S
C137 C132 1.373 1_455 S
C137 C136 1.396 . S
C137 H159 0.929 . S
C138 O148 1.240 . S
C138 O149 1.289 . S
C139 O150 1.258 . S
C139 O151 1.256 . S
O140 La120 2.521 . S
O140 C122 1.261 . S
O141 La120 2.628 1_655 S
O141 C122 1.243 1_655 S
O142 La120 2.554 . S
O142 C129 1.240 . S
O143 La120 2.757 . S
O143 La121 2.482 1_455 S
O143 C129 1.289 . S
O144 La120 2.470 1_655 S
O144 C130 1.258 . S
O145 La121 2.503 . S
O145 C130 1.256 . S
O146 La121 2.521 . S
O146 C131 1.261 . S
O147 La121 2.628 1_455 S
O147 C131 1.243 1_455 S
O148 La121 2.554 . S
O148 C138 1.240 . S
O149 La120 2.482 1_655 S
O149 La121 2.757 . S
O149 C138 1.289 . S
O150 La121 2.470 1_455 S
O150 C139 1.258 . S
O151 La120 2.503 . S
O151 C139 1.256 . S
H152 C124 0.930 . S
H153 C125 0.930 . S
H154 C127 0.929 . S
H155 C128 0.929 . S
H156 C133 0.930 . S
H157 C134 0.930 . S
H158 C136 0.929 . S
H159 C137 0.929 . S
La160 C162 2.928 . S
La160 O180 2.521 . S
La160 O181 2.628 . S
La160 O182 2.554 . S
La160 O183 2.757 . S
La160 O184 2.470 . S
La160 O189 2.482 . S
La160 O191 2.503 . S
La161 C171 2.928 . S
La161 O183 2.482 . S
La161 O185 2.503 . S
La161 O186 2.521 . S
La161 O187 2.628 . S
La161 O188 2.554 . S
La161 O189 2.757 . S
La161 O190 2.470 . S
C162 La160 2.928 . S
C162 C163 1.503 . S
C162 O180 1.261 . S
C162 O181 1.243 . S
C163 C162 1.503 . S
C163 C164 1.394 . S
C163 C168 1.373 . S
C164 C163 1.394 . S
C164 C165 1.380 . S
C164 H192 0.930 . S
C165 C164 1.380 . S
C165 C166 1.376 . S
C165 H193 0.930 . S
C166 C165 1.376 . S
C166 C167 1.370 . S
C167 C166 1.370 . S
C167 C168 1.396 . S
C167 H194 0.929 . S
C168 C163 1.373 . S
C168 C167 1.396 . S
C168 H195 0.929 . S
C169 O182 1.240 . S
C169 O183 1.289 . S
C170 O184 1.258 . S
C170 O185 1.256 . S
C171 La161 2.928 . S
C171 C172 1.503 . S
C171 O186 1.261 . S
C171 O187 1.243 . S
C172 C171 1.503 . S
C172 C173 1.394 . S
C172 C177 1.373 . S
C173 C172 1.394 . S
C173 C174 1.380 . S
C173 H196 0.930 . S
C174 C173 1.380 . S
C174 C175 1.376 . S
C174 H197 0.930 . S
C175 C174 1.376 . S
C175 C176 1.370 . S
C176 C175 1.370 . S
C176 C177 1.396 . S
C176 H198 0.929 . S
C177 C172 1.373 . S
C177 C176 1.396 . S
C177 H199 0.929 . S
C178 O188 1.240 . S
C178 O189 1.289 . S
C179 O190 1.258 . S
C179 O191 1.256 . S
O180 La160 2.521 . S
O180 C162 1.261 . S
O181 La160 2.628 . S
O181 C162 1.243 . S
O182 La160 2.554 . S
O182 C169 1.240 . S
O183 La160 2.757 . S
O183 La161 2.482 . S
O183 C169 1.289 . S
O184 La160 2.470 . S
O184 C170 1.258 . S
O185 La161 2.503 . S
O185 C170 1.256 . S
O186 La161 2.521 . S
O186 C171 1.261 . S
O187 La161 2.628 . S
O187 C171 1.243 . S
O188 La161 2.554 . S
O188 C178 1.240 . S
O189 La160 2.482 . S
O189 La161 2.757 . S
O189 C178 1.289 . S
O190 La161 2.470 . S
O190 C179 1.258 . S
O191 La160 2.503 . S
O191 C179 1.256 . S
H192 C164 0.930 . S
H193 C165 0.930 . S
H194 C167 0.929 . S
H195 C168 0.929 . S
H196 C173 0.930 . S
H197 C174 0.930 . S
H198 C176 0.929 . S
H199 C177 0.929 . S
La200 C202 2.928 . S
La200 O220 2.521 . S
La200 O221 2.628 1_565 S
La200 O222 2.554 . S
La200 O223 2.757 . S
La200 O224 2.470 1_565 S
La200 O229 2.482 1_565 S
La200 O231 2.503 . S
La201 C211 2.928 . S
La201 O223 2.482 1_545 S
La201 O225 2.503 . S
La201 O226 2.521 . S
La201 O227 2.628 1_545 S
La201 O228 2.554 . S
La201 O229 2.757 . S
La201 O230 2.470 1_545 S
C202 La200 2.928 . S
C202 C203 1.503 1_565 S
C202 O220 1.261 . S
C202 O221 1.243 1_565 S
C203 C202 1.503 1_545 S
C203 C204 1.394 1_545 S
C203 C208 1.373 . S
C204 C203 1.394 1_565 S
C204 C205 1.380 . S
C204 H232 0.930 . S
C205 C204 1.380 . S
C205 C206 1.376 1_565 S
C205 H233 0.930 . S
C206 C205 1.376 1_545 S
C206 C207 1.370 . S
C207 C206 1.370 . S
C207 C208 1.396 . S
C207 H234 0.929 . S
C208 C203 1.373 . S
C208 C207 1.396 . S
C208 H235 0.929 . S
C209 O222 1.240 . S
C209 O223 1.289 . S
C210 O224 1.258 . S
C210 O225 1.256 . S
C211 La201 2.928 . S
C211 C212 1.503 . S
C211 O226 1.261 . S
C211 O227 1.243 1_545 S
C212 C211 1.503 . S
C212 C213 1.394 . S
C212 C217 1.373 1_545 S
C213 C212 1.394 . S
C213 C214 1.380 . S
C213 H236 0.930 . S
C214 C213 1.380 . S
C214 C215 1.376 1_545 S
C214 H237 0.930 . S
C215 C214 1.376 1_565 S
C215 C216 1.370 . S
C216 C215 1.370 . S
C216 C217 1.396 . S
C216 H238 0.929 . S
C217 C212 1.373 1_565 S
C217 C216 1.396 . S
C217 H239 0.929 . S
C218 O228 1.240 . S
C218 O229 1.289 . S
C219 O230 1.258 . S
C219 O231 1.256 . S
O220 La200 2.521 . S
O220 C202 1.261 . S
O221 La200 2.628 1_545 S
O221 C202 1.243 1_545 S
O222 La200 2.554 . S
O222 C209 1.240 . S
O223 La200 2.757 . S
O223 La201 2.482 1_565 S
O223 C209 1.289 . S
O224 La200 2.470 1_545 S
O224 C210 1.258 . S
O225 La201 2.503 . S
O225 C210 1.256 . S
O226 La201 2.521 . S
O226 C211 1.261 . S
O227 La201 2.628 1_565 S
O227 C211 1.243 1_565 S
O228 La201 2.554 . S
O228 C218 1.240 . S
O229 La200 2.482 1_545 S
O229 La201 2.757 . S
O229 C218 1.289 . S
O230 La201 2.470 1_565 S
O230 C219 1.258 . S
O231 La200 2.503 . S
O231 C219 1.256 . S
H232 C204 0.930 . S
H233 C205 0.930 . S
H234 C207 0.929 . S
H235 C208 0.929 . S
H236 C213 0.930 . S
H237 C214 0.930 . S
H238 C216 0.929 . S
H239 C217 0.929 . S
La240 C242 2.928 . S
La240 O260 2.521 . S
La240 O261 2.628 . S
La240 O262 2.554 . S
La240 O263 2.757 . S
La240 O264 2.470 . S
La240 O269 2.482 . S
La240 O271 2.503 . S
La241 C251 2.928 . S
La241 O263 2.482 . S
La241 O265 2.503 . S
La241 O266 2.521 . S
La241 O267 2.628 . S
La241 O268 2.554 . S
La241 O269 2.757 . S
La241 O270 2.470 . S
C242 La240 2.928 . S
C242 C243 1.503 . S
C242 O260 1.261 . S
C242 O261 1.243 . S
C243 C242 1.503 . S
C243 C244 1.394 . S
C243 C248 1.373 . S
C244 C243 1.394 . S
C244 C245 1.380 . S
C244 H272 0.930 . S
C245 C244 1.380 . S
C245 C246 1.376 . S
C245 H273 0.930 . S
C246 C245 1.376 . S
C246 C247 1.370 . S
C247 C246 1.370 . S
C247 C248 1.396 . S
C247 H274 0.929 . S
C248 C243 1.373 . S
C248 C247 1.396 . S
C248 H275 0.929 . S
C249 O262 1.240 . S
C249 O263 1.289 . S
C250 O264 1.258 . S
C250 O265 1.256 . S
C251 La241 2.928 . S
C251 C252 1.503 1_556 S
C251 O266 1.261 . S
C251 O267 1.243 . S
C252 C251 1.503 1_554 S
C252 C253 1.394 . S
C252 C257 1.373 . S
C253 C252 1.394 . S
C253 C254 1.380 . S
C253 H276 0.930 . S
C254 C253 1.380 . S
C254 C255 1.376 . S
C254 H277 0.930 . S
C255 C254 1.376 . S
C255 C256 1.370 . S
C256 C255 1.370 . S
C256 C257 1.396 . S
C256 H278 0.929 . S
C257 C252 1.373 . S
C257 C256 1.396 . S
C257 H279 0.929 . S
C258 O268 1.240 . S
C258 O269 1.289 . S
C259 O270 1.258 . S
C259 O271 1.256 . S
O260 La240 2.521 . S
O260 C242 1.261 . S
O261 La240 2.628 . S
O261 C242 1.243 . S
O262 La240 2.554 . S
O262 C249 1.240 . S
O263 La240 2.757 . S
O263 La241 2.482 . S
O263 C249 1.289 . S
O264 La240 2.470 . S
O264 C250 1.258 . S
O265 La241 2.503 . S
O265 C250 1.256 . S
O266 La241 2.521 . S
O266 C251 1.261 . S
O267 La241 2.628 . S
O267 C251 1.243 . S
O268 La241 2.554 . S
O268 C258 1.240 . S
O269 La240 2.482 . S
O269 La241 2.757 . S
O269 C258 1.289 . S
O270 La241 2.470 . S
O270 C259 1.258 . S
O271 La240 2.503 . S
O271 C259 1.256 . S
H272 C244 0.930 . S
H273 C245 0.930 . S
H274 C247 0.929 . S
H275 C248 0.929 . S
H276 C253 0.930 . S
H277 C254 0.930 . S
H278 C256 0.929 . S
H279 C257 0.929 . S
La280 C282 2.928 . S
La280 O300 2.521 . S
La280 O301 2.628 . S
La280 O302 2.554 . S
La280 O303 2.757 . S
La280 O304 2.470 . S
La280 O309 2.482 . S
La280 O311 2.503 . S
La281 C291 2.928 . S
La281 O303 2.482 . S
La281 O305 2.503 . S
La281 O306 2.521 . S
La281 O307 2.628 . S
La281 O308 2.554 . S
La281 O309 2.757 . S
La281 O310 2.470 . S
C282 La280 2.928 . S
C282 C283 1.503 . S
C282 O300 1.261 . S
C282 O301 1.243 . S
C283 C282 1.503 . S
C283 C284 1.394 . S
C283 C288 1.373 . S
C284 C283 1.394 . S
C284 C285 1.380 . S
C284 H312 0.930 . S
C285 C284 1.380 . S
C285 C286 1.376 . S
C285 H313 0.930 . S
C286 C285 1.376 . S
C286 C287 1.370 . S
C287 C286 1.370 . S
C287 C288 1.396 . S
C287 H314 0.929 . S
C288 C283 1.373 . S
C288 C287 1.396 . S
C288 H315 0.929 . S
C289 O302 1.240 . S
C289 O303 1.289 . S
C290 O304 1.258 . S
C290 O305 1.256 . S
C291 La281 2.928 . S
C291 C292 1.503 1_556 S
C291 O306 1.261 . S
C291 O307 1.243 . S
C292 C291 1.503 1_554 S
C292 C293 1.394 . S
C292 C297 1.373 . S
C293 C292 1.394 . S
C293 C294 1.380 . S
C293 H316 0.930 . S
C294 C293 1.380 . S
C294 C295 1.376 . S
C294 H317 0.930 . S
C295 C294 1.376 . S
C295 C296 1.370 . S
C296 C295 1.370 . S
C296 C297 1.396 . S
C296 H318 0.929 . S
C297 C292 1.373 . S
C297 C296 1.396 . S
C297 H319 0.929 . S
C298 O308 1.240 . S
C298 O309 1.289 . S
C299 O310 1.258 . S
C299 O311 1.256 . S
O300 La280 2.521 . S
O300 C282 1.261 . S
O301 La280 2.628 . S
O301 C282 1.243 . S
O302 La280 2.554 . S
O302 C289 1.240 . S
O303 La280 2.757 . S
O303 La281 2.482 . S
O303 C289 1.289 . S
O304 La280 2.470 . S
O304 C290 1.258 . S
O305 La281 2.503 . S
O305 C290 1.256 . S
O306 La281 2.521 . S
O306 C291 1.261 . S
O307 La281 2.628 . S
O307 C291 1.243 . S
O308 La281 2.554 . S
O308 C298 1.240 . S
O309 La280 2.482 . S
O309 La281 2.757 . S
O309 C298 1.289 . S
O310 La281 2.470 . S
O310 C299 1.258 . S
O311 La280 2.503 . S
O311 C299 1.256 . S
H312 C284 0.930 . S
H313 C285 0.930 . S
H314 C287 0.929 . S
H315 C288 0.929 . S
H316 C293 0.930 . S
H317 C294 0.930 . S
H318 C296 0.929 . S
H319 C297 0.929 . S
La320 C322 2.928 . S
La320 O340 2.521 . S
La320 O341 2.628 . S
La320 O342 2.554 . S
La320 O343 2.757 . S
La320 O344 2.470 . S
La320 O349 2.482 . S
La320 O351 2.503 . S
La321 C331 2.928 . S
La321 O343 2.482 . S
La321 O345 2.503 . S
La321 O346 2.521 . S
La321 O347 2.628 . S
La321 O348 2.554 . S
La321 O349 2.757 . S
La321 O350 2.470 . S
C322 La320 2.928 . S
C322 C323 1.503 . S
C322 O340 1.261 . S
C322 O341 1.243 . S
C323 C322 1.503 . S
C323 C324 1.394 . S
C323 C328 1.373 . S
C324 C323 1.394 . S
C324 C325 1.380 . S
C324 H352 0.930 . S
C325 C324 1.380 . S
C325 C326 1.376 . S
C325 H353 0.930 . S
C326 C325 1.376 . S
C326 C327 1.370 . S
C327 C326 1.370 . S
C327 C328 1.396 . S
C327 H354 0.929 . S
C328 C323 1.373 . S
C328 C327 1.396 . S
C328 H355 0.929 . S
C329 O342 1.240 . S
C329 O343 1.289 . S
C330 O344 1.258 . S
C330 O345 1.256 . S
C331 La321 2.928 . S
C331 C332 1.503 1_556 S
C331 O346 1.261 . S
C331 O347 1.243 . S
C332 C331 1.503 1_554 S
C332 C333 1.394 . S
C332 C337 1.373 . S
C333 C332 1.394 . S
C333 C334 1.380 . S
C333 H356 0.930 . S
C334 C333 1.380 . S
C334 C335 1.376 . S
C334 H357 0.930 . S
C335 C334 1.376 . S
C335 C336 1.370 . S
C336 C335 1.370 . S
C336 C337 1.396 . S
C336 H358 0.929 . S
C337 C332 1.373 . S
C337 C336 1.396 . S
C337 H359 0.929 . S
C338 O348 1.240 . S
C338 O349 1.289 . S
C339 O350 1.258 . S
C339 O351 1.256 . S
O340 La320 2.521 . S
O340 C322 1.261 . S
O341 La320 2.628 . S
O341 C322 1.243 . S
O342 La320 2.554 . S
O342 C329 1.240 . S
O343 La320 2.757 . S
O343 La321 2.482 . S
O343 C329 1.289 . S
O344 La320 2.470 . S
O344 C330 1.258 . S
O345 La321 2.503 . S
O345 C330 1.256 . S
O346 La321 2.521 . S
O346 C331 1.261 . S
O347 La321 2.628 . S
O347 C331 1.243 . S
O348 La321 2.554 . S
O348 C338 1.240 . S
O349 La320 2.482 . S
O349 La321 2.757 . S
O349 C338 1.289 . S
O350 La321 2.470 . S
O350 C339 1.258 . S
O351 La320 2.503 . S
O351 C339 1.256 . S
H352 C324 0.930 . S
H353 C325 0.930 . S
H354 C327 0.929 . S
H355 C328 0.929 . S
H356 C333 0.930 . S
H357 C334 0.930 . S
H358 C336 0.929 . S
H359 C337 0.929 . S
La360 C362 2.928 1_556 S
La360 O380 2.521 . S
La360 O381 2.628 . S
La360 O382 2.554 . S
La360 O383 2.757 . S
La360 O384 2.470 . S
La360 O389 2.482 . S
La360 O391 2.503 . S
La361 C371 2.928 . S
La361 O383 2.482 . S
La361 O385 2.503 . S
La361 O386 2.521 . S
La361 O387 2.628 . S
La361 O388 2.554 . S
La361 O389 2.757 . S
La361 O390 2.470 . S
C362 La360 2.928 1_554 S
C362 C363 1.503 . S
C362 O380 1.261 1_554 S
C362 O381 1.243 1_554 S
C363 C362 1.503 . S
C363 C364 1.394 . S
C363 C368 1.373 . S
C364 C363 1.394 . S
C364 C365 1.380 . S
C364 H392 0.930 . S
C365 C364 1.380 . S
C365 C366 1.376 . S
C365 H393 0.930 . S
C366 C365 1.376 . S
C366 C367 1.370 . S
C367 C366 1.370 . S
C367 C368 1.396 . S
C367 H394 0.929 . S
C368 C363 1.373 . S
C368 C367 1.396 . S
C368 H395 0.929 . S
C369 O382 1.240 . S
C369 O383 1.289 . S
C370 O384 1.258 . S
C370 O385 1.256 . S
C371 La361 2.928 . S
C371 C372 1.503 . S
C371 O386 1.261 . S
C371 O387 1.243 . S
C372 C371 1.503 . S
C372 C373 1.394 . S
C372 C377 1.373 . S
C373 C372 1.394 . S
C373 C374 1.380 . S
C373 H396 0.930 . S
C374 C373 1.380 . S
C374 C375 1.376 . S
C374 H397 0.930 . S
C375 C374 1.376 . S
C375 C376 1.370 . S
C376 C375 1.370 . S
C376 C377 1.396 . S
C376 H398 0.929 . S
C377 C372 1.373 . S
C377 C376 1.396 . S
C377 H399 0.929 . S
C378 O388 1.240 . S
C378 O389 1.289 . S
C379 O390 1.258 . S
C379 O391 1.256 . S
O380 La360 2.521 . S
O380 C362 1.261 1_556 S
O381 La360 2.628 . S
O381 C362 1.243 1_556 S
O382 La360 2.554 . S
O382 C369 1.240 . S
O383 La360 2.757 . S
O383 La361 2.482 . S
O383 C369 1.289 . S
O384 La360 2.470 . S
O384 C370 1.258 . S
O385 La361 2.503 . S
O385 C370 1.256 . S
O386 La361 2.521 . S
O386 C371 1.261 . S
O387 La361 2.628 . S
O387 C371 1.243 . S
O388 La361 2.554 . S
O388 C378 1.240 . S
O389 La360 2.482 . S
O389 La361 2.757 . S
O389 C378 1.289 . S
O390 La361 2.470 . S
O390 C379 1.258 . S
O391 La360 2.503 . S
O391 C379 1.256 . S
H392 C364 0.930 . S
H393 C365 0.930 . S
H394 C367 0.929 . S
H395 C368 0.929 . S
H396 C373 0.930 . S
H397 C374 0.930 . S
H398 C376 0.929 . S
H399 C377 0.929 . S
La400 C402 2.928 1_556 S
La400 O420 2.521 1_556 S
La400 O421 2.619 1_556 S
La400 O422 2.554 . S
La400 O423 2.757 . S
La400 O424 2.470 . S
La400 O429 2.482 . S
La400 O431 2.503 . S
La401 C411 2.928 . S
La401 O423 2.482 . S
La401 O425 2.503 . S
La401 O426 2.521 . S
La401 O427 2.628 . S
La401 O428 2.554 . S
La401 O429 2.757 . S
La401 O430 2.470 . S
C402 La400 2.928 1_554 S
C402 C403 1.503 . S
C402 O420 1.261 . S
C402 O421 1.248 . S
C403 C402 1.503 . S
C403 C404 1.394 . S
C403 C408 1.373 . S
C404 C403 1.394 . S
C404 C405 1.380 . S
C404 H432 0.930 . S
C405 C404 1.380 . S
C405 C406 1.376 . S
C405 H433 0.930 . S
C406 C405 1.376 . S
C406 C407 1.370 . S
C407 C406 1.370 . S
C407 C408 1.396 . S
C407 H434 0.929 . S
C408 C403 1.373 . S
C408 C407 1.396 . S
C408 H435 0.929 . S
C409 O422 1.240 . S
C409 O423 1.289 . S
C410 O424 1.258 . S
C410 O425 1.256 . S
C411 La401 2.928 . S
C411 C412 1.503 . S
C411 O426 1.261 . S
C411 O427 1.243 . S
C412 C411 1.503 . S
C412 C413 1.394 . S
C412 C417 1.373 . S
C413 C412 1.394 . S
C413 C414 1.380 . S
C413 H436 0.930 . S
C414 C413 1.380 . S
C414 C415 1.376 . S
C414 H437 0.930 . S
C415 C414 1.376 . S
C415 C416 1.370 . S
C416 C415 1.370 . S
C416 C417 1.396 . S
C416 H438 0.929 . S
C417 C412 1.373 . S
C417 C416 1.396 . S
C417 H439 0.929 . S
C418 O428 1.240 . S
C418 O429 1.289 . S
C419 O430 1.258 . S
C419 O431 1.256 . S
O420 La400 2.521 1_554 S
O420 C402 1.261 . S
O421 La400 2.619 1_554 S
O421 C402 1.248 . S
O422 La400 2.554 . S
O422 C409 1.240 . S
O423 La400 2.757 . S
O423 La401 2.482 . S
O423 C409 1.289 . S
O424 La400 2.470 . S
O424 C410 1.258 . S
O425 La401 2.503 . S
O425 C410 1.256 . S
O426 La401 2.521 . S
O426 C411 1.261 . S
O427 La401 2.628 . S
O427 C411 1.243 . S
O428 La401 2.554 . S
O428 C418 1.240 . S
O429 La400 2.482 . S
O429 La401 2.757 . S
O429 C418 1.289 . S
O430 La401 2.470 . S
O430 C419 1.258 . S
O431 La400 2.503 . S
O431 C419 1.256 . S
H432 C404 0.930 . S
H433 C405 0.930 . S
H434 C407 0.929 . S
H435 C408 0.929 . S
H436 C413 0.930 . S
H437 C414 0.930 . S
H438 C416 0.929 . S
H439 C417 0.929 . S
La440 C442 2.928 1_556 S
La440 O460 2.521 . S
La440 O461 2.628 . S
La440 O462 2.554 . S
La440 O463 2.757 . S
La440 O464 2.470 . S
La440 O469 2.482 . S
La440 O471 2.503 . S
La441 C451 2.928 . S
La441 O463 2.482 . S
La441 O465 2.503 . S
La441 O466 2.521 . S
La441 O467 2.628 . S
La441 O468 2.554 . S
La441 O469 2.757 . S
La441 O470 2.470 . S
C442 La440 2.928 1_554 S
C442 C443 1.503 . S
C442 O460 1.261 1_554 S
C442 O461 1.243 1_554 S
C443 C442 1.503 . S
C443 C444 1.394 . S
C443 C448 1.373 . S
C444 C443 1.394 . S
C444 C445 1.380 . S
C444 H472 0.930 . S
C445 C444 1.380 . S
C445 C446 1.376 . S
C445 H473 0.930 . S
C446 C445 1.376 . S
C446 C447 1.370 . S
C447 C446 1.370 . S
C447 C448 1.396 . S
C447 H474 0.929 . S
C448 C443 1.373 . S
C448 C447 1.396 . S
C448 H475 0.929 . S
C449 O462 1.240 . S
C449 O463 1.289 . S
C450 O464 1.258 . S
C450 O465 1.256 . S
C451 La441 2.928 . S
C451 C452 1.503 . S
C451 O466 1.261 . S
C451 O467 1.243 . S
C452 C451 1.503 . S
C452 C453 1.394 . S
C452 C457 1.373 . S
C453 C452 1.394 . S
C453 C454 1.380 . S
C453 H476 0.930 . S
C454 C453 1.380 . S
C454 C455 1.376 . S
C454 H477 0.930 . S
C455 C454 1.376 . S
C455 C456 1.370 . S
C456 C455 1.370 . S
C456 C457 1.396 . S
C456 H478 0.929 . S
C457 C452 1.373 . S
C457 C456 1.396 . S
C457 H479 0.929 . S
C458 O468 1.240 . S
C458 O469 1.289 . S
C459 O470 1.258 . S
C459 O471 1.256 . S
O460 La440 2.521 . S
O460 C442 1.261 1_556 S
O461 La440 2.628 . S
O461 C442 1.243 1_556 S
O462 La440 2.554 . S
O462 C449 1.240 . S
O463 La440 2.757 . S
O463 La441 2.482 . S
O463 C449 1.289 . S
O464 La440 2.470 . S
O464 C450 1.258 . S
O465 La441 2.503 . S
O465 C450 1.256 . S
O466 La441 2.521 . S
O466 C451 1.261 . S
O467 La441 2.628 . S
O467 C451 1.243 . S
O468 La441 2.554 . S
O468 C458 1.240 . S
O469 La440 2.482 . S
O469 La441 2.757 . S
O469 C458 1.289 . S
O470 La441 2.470 . S
O470 C459 1.258 . S
O471 La440 2.503 . S
O471 C459 1.256 . S
H472 C444 0.930 . S
H473 C445 0.930 . S
H474 C447 0.929 . S
H475 C448 0.929 . S
H476 C453 0.930 . S
H477 C454 0.930 . S
H478 C456 0.929 . S
H479 C457 0.929 . S
La480 C482 2.928 . S
La480 O500 2.521 . S
La480 O501 2.628 . S
La480 O502 2.554 . S
La480 O503 2.757 . S
La480 O504 2.470 . S
La480 O509 2.482 . S
La480 O511 2.503 . S
La481 C491 2.928 1_554 S
La481 O503 2.482 . S
La481 O505 2.503 . S
La481 O506 2.521 1_554 S
La481 O507 2.628 1_554 S
La481 O508 2.554 . S
La481 O509 2.757 . S
La481 O510 2.470 . S
C482 La480 2.928 . S
C482 C483 1.503 . S
C482 O500 1.261 . S
C482 O501 1.243 . S
C483 C482 1.503 . S
C483 C484 1.394 . S
C483 C488 1.373 . S
C484 C483 1.394 . S
C484 C485 1.380 . S
C484 H512 0.930 . S
C485 C484 1.380 . S
C485 C486 1.376 . S
C485 H513 0.930 . S
C486 C485 1.376 . S
C486 C487 1.370 . S
C487 C486 1.370 . S
C487 C488 1.396 . S
C487 H514 0.929 . S
C488 C483 1.373 . S
C488 C487 1.396 . S
C488 H515 0.929 . S
C489 O502 1.240 . S
C489 O503 1.289 . S
C490 O504 1.258 . S
C490 O505 1.256 . S
C491 La481 2.928 1_556 S
C491 C492 1.503 . S
C491 O506 1.261 . S
C491 O507 1.243 . S
C492 C491 1.503 . S
C492 C493 1.394 . S
C492 C497 1.373 . S
C493 C492 1.394 . S
C493 C494 1.380 . S
C493 H516 0.930 . S
C494 C493 1.380 . S
C494 C495 1.376 . S
C494 H517 0.930 . S
C495 C494 1.376 . S
C495 C496 1.370 . S
C496 C495 1.370 . S
C496 C497 1.396 . S
C496 H518 0.929 . S
C497 C492 1.373 . S
C497 C496 1.396 . S
C497 H519 0.929 . S
C498 O508 1.240 . S
C498 O509 1.289 . S
C499 O510 1.258 . S
C499 O511 1.256 . S
O500 La480 2.521 . S
O500 C482 1.261 . S
O501 La480 2.628 . S
O501 C482 1.243 . S
O502 La480 2.554 . S
O502 C489 1.240 . S
O503 La480 2.757 . S
O503 La481 2.482 . S
O503 C489 1.289 . S
O504 La480 2.470 . S
O504 C490 1.258 . S
O505 La481 2.503 . S
O505 C490 1.256 . S
O506 La481 2.521 1_556 S
O506 C491 1.261 . S
O507 La481 2.628 1_556 S
O507 C491 1.243 . S
O508 La481 2.554 . S
O508 C498 1.240 . S
O509 La480 2.482 . S
O509 La481 2.757 . S
O509 C498 1.289 . S
O510 La481 2.470 . S
O510 C499 1.258 . S
O511 La480 2.503 . S
O511 C499 1.256 . S
H512 C484 0.930 . S
H513 C485 0.930 . S
H514 C487 0.929 . S
H515 C488 0.929 . S
H516 C493 0.930 . S
H517 C494 0.930 . S
H518 C496 0.929 . S
H519 C497 0.929 . S
La520 C522 2.928 1_554 S
La520 O540 2.521 1_554 S
La520 O541 2.628 1_554 S
La520 O542 2.554 . S
La520 O543 2.757 . S
La520 O544 2.470 . S
La520 O549 2.482 . S
La520 O551 2.503 . S
La521 C531 2.928 . S
La521 O543 2.482 . S
La521 O545 2.503 . S
La521 O546 2.521 . S
La521 O547 2.628 . S
La521 O548 2.554 . S
La521 O549 2.757 . S
La521 O550 2.470 . S
C522 La520 2.928 1_556 S
C522 C523 1.503 . S
C522 O540 1.261 . S
C522 O541 1.243 . S
C523 C522 1.503 . S
C523 C524 1.394 . S
C523 C528 1.373 . S
C524 C523 1.394 . S
C524 C525 1.380 . S
C524 H552 0.930 . S
C525 C524 1.380 . S
C525 C526 1.376 . S
C525 H553 0.930 . S
C526 C525 1.376 . S
C526 C527 1.370 . S
C527 C526 1.370 . S
C527 C528 1.396 . S
C527 H554 0.929 . S
C528 C523 1.373 . S
C528 C527 1.396 . S
C528 H555 0.929 . S
C529 O542 1.240 . S
C529 O543 1.289 . S
C530 O544 1.258 . S
C530 O545 1.256 . S
C531 La521 2.928 . S
C531 C532 1.503 . S
C531 O546 1.261 . S
C531 O547 1.243 . S
C532 C531 1.503 . S
C532 C533 1.394 . S
C532 C537 1.373 . S
C533 C532 1.394 . S
C533 C534 1.380 . S
C533 H556 0.930 . S
C534 C533 1.380 . S
C534 C535 1.376 . S
C534 H557 0.930 . S
C535 C534 1.376 . S
C535 C536 1.370 . S
C536 C535 1.370 . S
C536 C537 1.396 . S
C536 H558 0.929 . S
C537 C532 1.373 . S
C537 C536 1.396 . S
C537 H559 0.929 . S
C538 O548 1.240 . S
C538 O549 1.289 . S
C539 O550 1.258 . S
C539 O551 1.256 . S
O540 La520 2.521 1_556 S
O540 C522 1.261 . S
O541 La520 2.628 1_556 S
O541 C522 1.243 . S
O542 La520 2.554 . S
O542 C529 1.240 . S
O543 La520 2.757 . S
O543 La521 2.482 . S
O543 C529 1.289 . S
O544 La520 2.470 . S
O544 C530 1.258 . S
O545 La521 2.503 . S
O545 C530 1.256 . S
O546 La521 2.521 . S
O546 C531 1.261 . S
O547 La521 2.628 . S
O547 C531 1.243 . S
O548 La521 2.554 . S
O548 C538 1.240 . S
O549 La520 2.482 . S
O549 La521 2.757 . S
O549 C538 1.289 . S
O550 La521 2.470 . S
O550 C539 1.258 . S
O551 La520 2.503 . S
O551 C539 1.256 . S
H552 C524 0.930 . S
H553 C525 0.930 . S
H554 C527 0.929 . S
H555 C528 0.929 . S
H556 C533 0.930 . S
H557 C534 0.930 . S
H558 C536 0.929 . S
H559 C537 0.929 . S
La560 C562 2.928 . S
La560 O580 2.521 . S
La560 O581 2.628 . S
La560 O582 2.554 . S
La560 O583 2.757 . S
La560 O584 2.470 . S
La560 O589 2.482 . S
La560 O591 2.503 . S
La561 C571 2.928 1_554 S
La561 O583 2.482 . S
La561 O585 2.503 . S
La561 O586 2.521 . S
La561 O587 2.628 . S
La561 O588 2.554 . S
La561 O589 2.757 . S
La561 O590 2.470 . S
C562 La560 2.928 . S
C562 C563 1.503 . S
C562 O580 1.261 . S
C562 O581 1.243 . S
C563 C562 1.503 . S
C563 C564 1.394 . S
C563 C568 1.373 . S
C564 C563 1.394 . S
C564 C565 1.380 . S
C564 H592 0.930 . S
C565 C564 1.380 . S
C565 C566 1.376 . S
C565 H593 0.930 . S
C566 C565 1.376 . S
C566 C567 1.370 . S
C567 C566 1.370 . S
C567 C568 1.396 . S
C567 H594 0.929 . S
C568 C563 1.373 . S
C568 C567 1.396 . S
C568 H595 0.929 . S
C569 O582 1.240 . S
C569 O583 1.289 . S
C570 O584 1.258 . S
C570 O585 1.256 . S
C571 La561 2.928 1_556 S
C571 C572 1.503 . S
C571 O586 1.261 1_556 S
C571 O587 1.243 1_556 S
C572 C571 1.503 . S
C572 C573 1.394 . S
C572 C577 1.373 . S
C573 C572 1.394 . S
C573 C574 1.380 . S
C573 H596 0.930 . S
C574 C573 1.380 . S
C574 C575 1.376 . S
C574 H597 0.930 . S
C575 C574 1.376 . S
C575 C576 1.370 . S
C576 C575 1.370 . S
C576 C577 1.396 . S
C576 H598 0.929 . S
C577 C572 1.373 . S
C577 C576 1.396 . S
C577 H599 0.929 . S
C578 O588 1.240 . S
C578 O589 1.289 . S
C579 O590 1.258 . S
C579 O591 1.256 . S
O580 La560 2.521 . S
O580 C562 1.261 . S
O581 La560 2.628 . S
O581 C562 1.243 . S
O582 La560 2.554 . S
O582 C569 1.240 . S
O583 La560 2.757 . S
O583 La561 2.482 . S
O583 C569 1.289 . S
O584 La560 2.470 . S
O584 C570 1.258 . S
O585 La561 2.503 . S
O585 C570 1.256 . S
O586 La561 2.521 . S
O586 C571 1.261 1_554 S
O587 La561 2.628 . S
O587 C571 1.243 1_554 S
O588 La561 2.554 . S
O588 C578 1.240 . S
O589 La560 2.482 . S
O589 La561 2.757 . S
O589 C578 1.289 . S
O590 La561 2.470 . S
O590 C579 1.258 . S
O591 La560 2.503 . S
O591 C579 1.256 . S
H592 C564 0.930 . S
H593 C565 0.930 . S
H594 C567 0.929 . S
H595 C568 0.929 . S
H596 C573 0.930 . S
H597 C574 0.930 . S
H598 C576 0.929 . S
H599 C577 0.929 . S
La600 C602 2.928 . S
La600 O620 2.521 . S
La600 O621 2.628 . S
La600 O622 2.554 . S
La600 O623 2.757 . S
La600 O624 2.470 . S
La600 O629 2.482 . S
La600 O631 2.503 . S
La601 C611 2.928 1_554 S
La601 O623 2.482 . S
La601 O625 2.503 . S
La601 O626 2.521 1_554 S
La601 O627 2.628 1_554 S
La601 O628 2.554 . S
La601 O629 2.757 . S
La601 O630 2.470 . S
C602 La600 2.928 . S
C602 C603 1.503 . S
C602 O620 1.261 . S
C602 O621 1.243 . S
C603 C602 1.503 . S
C603 C604 1.394 . S
C603 C608 1.373 . S
C604 C603 1.394 . S
C604 C605 1.380 . S
C604 H632 0.930 . S
C605 C604 1.380 . S
C605 C606 1.376 . S
C605 H633 0.930 . S
C606 C605 1.376 . S
C606 C607 1.370 . S
C607 C606 1.370 . S
C607 C608 1.396 . S
C607 H634 0.929 . S
C608 C603 1.373 . S
C608 C607 1.396 . S
C608 H635 0.929 . S
C609 O622 1.240 . S
C609 O623 1.289 . S
C610 O624 1.258 . S
C610 O625 1.256 . S
C611 La601 2.928 1_556 S
C611 C612 1.503 . S
C611 O626 1.261 . S
C611 O627 1.243 . S
C612 C611 1.503 . S
C612 C613 1.394 . S
C612 C617 1.373 . S
C613 C612 1.394 . S
C613 C614 1.380 . S
C613 H636 0.930 . S
C614 C613 1.380 . S
C614 C615 1.376 . S
C614 H637 0.930 . S
C615 C614 1.376 . S
C615 C616 1.370 . S
C616 C615 1.370 . S
C616 C617 1.396 . S
C616 H638 0.929 . S
C617 C612 1.373 . S
C617 C616 1.396 . S
C617 H639 0.929 . S
C618 O628 1.240 . S
C618 O629 1.289 . S
C619 O630 1.258 . S
C619 O631 1.256 . S
O620 La600 2.521 . S
O620 C602 1.261 . S
O621 La600 2.628 . S
O621 C602 1.243 . S
O622 La600 2.554 . S
O622 C609 1.240 . S
O623 La600 2.757 . S
O623 La601 2.482 . S
O623 C609 1.289 . S
O624 La600 2.470 . S
O624 C610 1.258 . S
O625 La601 2.503 . S
O625 C610 1.256 . S
O626 La601 2.521 1_556 S
O626 C611 1.261 . S
O627 La601 2.628 1_556 S
O627 C611 1.243 . S
O628 La601 2.554 . S
O628 C618 1.240 . S
O629 La600 2.482 . S
O629 La601 2.757 . S
O629 C618 1.289 . S
O630 La601 2.470 . S
O630 C619 1.258 . S
O631 La600 2.503 . S
O631 C619 1.256 . S
H632 C604 0.930 . S
H633 C605 0.930 . S
H634 C607 0.929 . S
H635 C608 0.929 . S
H636 C613 0.930 . S
H637 C614 0.930 . S
H638 C616 0.929 . S
H639 C617 0.929 . S
La640 C642 2.928 . S
La640 O660 2.521 . S
La640 O661 2.628 . S
La640 O662 2.554 . S
La640 O663 2.757 . S
La640 O664 2.470 . S
La640 O669 2.482 . S
La640 O671 2.503 . S
La641 C651 2.928 . S
La641 O663 2.482 . S
La641 O665 2.503 . S
La641 O666 2.521 . S
La641 O667 2.628 . S
La641 O668 2.554 . S
La641 O669 2.757 . S
La641 O670 2.470 . S
C642 La640 2.928 . S
C642 C643 1.503 1_554 S
C642 O660 1.261 . S
C642 O661 1.243 . S
C643 C642 1.503 1_556 S
C643 C644 1.394 . S
C643 C648 1.373 . S
C644 C643 1.394 . S
C644 C645 1.380 . S
C644 H672 0.930 . S
C645 C644 1.380 . S
C645 C646 1.376 . S
C645 H673 0.930 . S
C646 C645 1.376 . S
C646 C647 1.370 . S
C647 C646 1.370 . S
C647 C648 1.396 . S
C647 H674 0.929 . S
C648 C643 1.373 . S
C648 C647 1.396 . S
C648 H675 0.929 . S
C649 O662 1.240 . S
C649 O663 1.289 . S
C650 O664 1.258 . S
C650 O665 1.256 . S
C651 La641 2.928 . S
C651 C652 1.503 . S
C651 O666 1.261 . S
C651 O667 1.243 . S
C652 C651 1.503 . S
C652 C653 1.394 . S
C652 C657 1.373 . S
C653 C652 1.394 . S
C653 C654 1.380 . S
C653 H676 0.930 . S
C654 C653 1.380 . S
C654 C655 1.376 . S
C654 H677 0.930 . S
C655 C654 1.376 . S
C655 C656 1.370 . S
C656 C655 1.370 . S
C656 C657 1.396 . S
C656 H678 0.929 . S
C657 C652 1.373 . S
C657 C656 1.396 . S
C657 H679 0.929 . S
C658 O668 1.240 . S
C658 O669 1.289 . S
C659 O670 1.258 . S
C659 O671 1.256 . S
O660 La640 2.521 . S
O660 C642 1.261 . S
O661 La640 2.628 . S
O661 C642 1.243 . S
O662 La640 2.554 . S
O662 C649 1.240 . S
O663 La640 2.757 . S
O663 La641 2.482 . S
O663 C649 1.289 . S
O664 La640 2.470 . S
O664 C650 1.258 . S
O665 La641 2.503 . S
O665 C650 1.256 . S
O666 La641 2.521 . S
O666 C651 1.261 . S
O667 La641 2.628 . S
O667 C651 1.243 . S
O668 La641 2.554 . S
O668 C658 1.240 . S
O669 La640 2.482 . S
O669 La641 2.757 . S
O669 C658 1.289 . S
O670 La641 2.470 . S
O670 C659 1.258 . S
O671 La640 2.503 . S
O671 C659 1.256 . S
H672 C644 0.930 . S
H673 C645 0.930 . S
H674 C647 0.929 . S
H675 C648 0.929 . S
H676 C653 0.930 . S
H677 C654 0.930 . S
H678 C656 0.929 . S
H679 C657 0.929 . S
La680 C682 2.928 . S
La680 O700 2.521 . S
La680 O701 2.628 . S
La680 O702 2.554 . S
La680 O703 2.757 . S
La680 O704 2.470 . S
La680 O709 2.482 . S
La680 O711 2.503 . S
La681 C691 2.928 . S
La681 O703 2.482 . S
La681 O705 2.503 . S
La681 O706 2.521 . S
La681 O707 2.628 . S
La681 O708 2.554 . S
La681 O709 2.757 . S
La681 O710 2.470 . S
C682 La680 2.928 . S
C682 C683 1.503 . S
C682 O700 1.261 . S
C682 O701 1.243 . S
C683 C682 1.503 . S
C683 C684 1.394 . S
C683 C688 1.373 . S
C684 C683 1.394 . S
C684 C685 1.380 . S
C684 H712 0.930 . S
C685 C684 1.380 . S
C685 C686 1.376 . S
C685 H713 0.930 . S
C686 C685 1.376 . S
C686 C687 1.370 . S
C687 C686 1.370 . S
C687 C688 1.396 . S
C687 H714 0.929 . S
C688 C683 1.373 . S
C688 C687 1.396 . S
C688 H715 0.929 . S
C689 O702 1.240 . S
C689 O703 1.289 . S
C690 O704 1.258 . S
C690 O705 1.256 . S
C691 La681 2.928 . S
C691 C692 1.503 1_554 S
C691 O706 1.261 . S
C691 O707 1.243 . S
C692 C691 1.503 1_556 S
C692 C693 1.394 . S
C692 C697 1.373 . S
C693 C692 1.394 . S
C693 C694 1.380 . S
C693 H716 0.930 . S
C694 C693 1.380 . S
C694 C695 1.376 . S
C694 H717 0.930 . S
C695 C694 1.376 . S
C695 C696 1.370 . S
C696 C695 1.370 . S
C696 C697 1.396 . S
C696 H718 0.929 . S
C697 C692 1.373 . S
C697 C696 1.396 . S
C697 H719 0.929 . S
C698 O708 1.240 . S
C698 O709 1.289 . S
C699 O710 1.258 . S
C699 O711 1.256 . S
O700 La680 2.521 . S
O700 C682 1.261 . S
O701 La680 2.628 . S
O701 C682 1.243 . S
O702 La680 2.554 . S
O702 C689 1.240 . S
O703 La680 2.757 . S
O703 La681 2.482 . S
O703 C689 1.289 . S
O704 La680 2.470 . S
O704 C690 1.258 . S
O705 La681 2.503 . S
O705 C690 1.256 . S
O706 La681 2.521 . S
O706 C691 1.261 . S
O707 La681 2.628 . S
O707 C691 1.243 . S
O708 La681 2.554 . S
O708 C698 1.240 . S
O709 La680 2.482 . S
O709 La681 2.757 . S
O709 C698 1.289 . S
O710 La681 2.470 . S
O710 C699 1.258 . S
O711 La680 2.503 . S
O711 C699 1.256 . S
H712 C684 0.930 . S
H713 C685 0.930 . S
H714 C687 0.929 . S
H715 C688 0.929 . S
H716 C693 0.930 . S
H717 C694 0.930 . S
H718 C696 0.929 . S
H719 C697 0.929 . S
C720 C721 1.363 . S
C720 C726 1.379 . S
C720 N728 1.356 . S
C721 C720 1.363 . S
C721 C727 1.363 . S
C722 C723 1.363 . S
C722 C727 1.379 . S
C722 N729 1.356 . S
C723 C722 1.363 . S
C723 C726 1.363 . S
N724 C726 1.356 . S
N724 H736 0.984 . S
N724 H737 0.985 . S
N725 C727 1.356 . S
N725 H730 0.984 . S
N725 H731 0.985 . S
C726 C720 1.379 . S
C726 C723 1.363 . S
C726 N724 1.356 . S
C727 C721 1.363 . S
C727 C722 1.379 . S
C727 N725 1.356 . S
N728 C720 1.356 . S
N728 H734 0.984 . S
N728 H735 0.984 . S
N729 C722 1.356 . S
N729 H732 0.984 . S
N729 H733 0.985 . S
H730 N725 0.984 . S
H731 N725 0.985 . S
H732 N729 0.984 . S
H733 N729 0.985 . S
H734 N728 0.984 . S
H735 N728 0.984 . S
H736 N724 0.984 . S
H737 N724 0.985 . S
C738 C739 1.363 . S
C738 C744 1.379 . S
C738 N746 1.356 . S
C739 C738 1.363 . S
C739 C745 1.363 . S
C740 C741 1.363 . S
C740 C745 1.379 . S
C740 N747 1.356 . S
C741 C740 1.363 . S
C741 C744 1.363 . S
N742 C744 1.356 . S
N742 H754 0.984 . S
N742 H755 0.985 . S
N743 C745 1.356 . S
N743 H748 0.984 . S
N743 H749 0.985 . S
C744 C738 1.379 . S
C744 C741 1.363 . S
C744 N742 1.356 . S
C745 C739 1.363 . S
C745 C740 1.379 . S
C745 N743 1.356 . S
N746 C738 1.356 . S
N746 H752 0.984 . S
N746 H753 0.984 . S
N747 C740 1.356 . S
N747 H750 0.984 . S
N747 H751 0.985 . S
H748 N743 0.984 . S
H749 N743 0.985 . S
H750 N747 0.984 . S
H751 N747 0.985 . S
H752 N746 0.984 . S
H753 N746 0.984 . S
H754 N742 0.984 . S
H755 N742 0.985 . S
C756 C757 1.363 . S
C756 C762 1.379 . S
C756 N764 1.356 . S
C757 C756 1.363 . S
C757 C763 1.363 . S
C758 C759 1.363 . S
C758 C763 1.379 . S
C758 N765 1.356 . S
C759 C758 1.363 . S
C759 C762 1.363 . S
N760 C762 1.356 . S
N760 H772 0.984 . S
N760 H773 0.985 . S
N761 C763 1.356 . S
N761 H766 0.984 . S
N761 H767 0.985 . S
C762 C756 1.379 . S
C762 C759 1.363 . S
C762 N760 1.356 . S
C763 C757 1.363 . S
C763 C758 1.379 . S
C763 N761 1.356 . S
N764 C756 1.356 . S
N764 H770 0.984 . S
N764 H771 0.984 . S
N765 C758 1.356 . S
N765 H768 0.984 . S
N765 H769 0.985 . S
H766 N761 0.984 . S
H767 N761 0.985 . S
H768 N765 0.984 . S
H769 N765 0.985 . S
H770 N764 0.984 . S
H771 N764 0.984 . S
H772 N760 0.984 . S
H773 N760 0.985 . S
C774 C775 1.363 . S
C774 C780 1.379 . S
C774 N782 1.356 . S
C775 C774 1.363 . S
C775 C781 1.363 . S
C776 C777 1.363 . S
C776 C781 1.379 . S
C776 N783 1.356 . S
C777 C776 1.363 . S
C777 C780 1.363 . S
N778 C780 1.356 . S
N778 H790 0.984 . S
N778 H791 0.985 . S
N779 C781 1.356 . S
N779 H784 0.984 . S
N779 H785 0.985 . S
C780 C774 1.379 . S
C780 C777 1.363 . S
C780 N778 1.356 . S
C781 C775 1.363 . S
C781 C776 1.379 . S
C781 N779 1.356 . S
N782 C774 1.356 . S
N782 H788 0.984 . S
N782 H789 0.984 . S
N783 C776 1.356 . S
N783 H786 0.984 . S
N783 H787 0.985 . S
H784 N779 0.984 . S
H785 N779 0.985 . S
H786 N783 0.984 . S
H787 N783 0.985 . S
H788 N782 0.984 . S
H789 N782 0.984 . S
H790 N778 0.984 . S
H791 N778 0.985 . S
C792 C793 1.363 . S
C792 C798 1.379 . S
C792 N800 1.356 . S
C793 C792 1.363 . S
C793 C799 1.363 . S
C794 C795 1.363 . S
C794 C799 1.379 . S
C794 N801 1.356 . S
C795 C794 1.363 . S
C795 C798 1.363 . S
N796 C798 1.356 . S
N796 H808 0.984 . S
N796 H809 0.985 . S
N797 C799 1.356 . S
N797 H802 0.984 . S
N797 H803 0.985 . S
C798 C792 1.379 . S
C798 C795 1.363 . S
C798 N796 1.356 . S
C799 C793 1.363 . S
C799 C794 1.379 . S
C799 N797 1.356 . S
N800 C792 1.356 . S
N800 H806 0.984 . S
N800 H807 0.984 . S
N801 C794 1.356 . S
N801 H804 0.984 . S
N801 H805 0.985 . S
H802 N797 0.984 . S
H803 N797 0.985 . S
H804 N801 0.984 . S
H805 N801 0.985 . S
H806 N800 0.984 . S
H807 N800 0.984 . S
H808 N796 0.984 . S
H809 N796 0.985 . S
C810 C811 1.363 . S
C810 C816 1.379 . S
C810 N818 1.356 . S
C811 C810 1.363 . S
C811 C817 1.363 . S
C812 C813 1.363 . S
C812 C817 1.379 . S
C812 N819 1.356 . S
C813 C812 1.363 . S
C813 C816 1.363 . S
N814 C816 1.356 . S
N814 H826 0.984 . S
N814 H827 0.985 . S
N815 C817 1.356 . S
N815 H820 0.984 . S
N815 H821 0.985 . S
C816 C810 1.379 . S
C816 C813 1.363 . S
C816 N814 1.356 . S
C817 C811 1.363 . S
C817 C812 1.379 . S
C817 N815 1.356 . S
N818 C810 1.356 . S
N818 H824 0.984 . S
N818 H825 0.984 . S
N819 C812 1.356 . S
N819 H822 0.984 . S
N819 H823 0.985 . S
H820 N815 0.984 . S
H821 N815 0.985 . S
H822 N819 0.984 . S
H823 N819 0.985 . S
H824 N818 0.984 . S
H825 N818 0.984 . S
H826 N814 0.984 . S
H827 N814 0.985 . S
C828 C829 1.363 . S
C828 C834 1.379 . S
C828 N836 1.356 . S
C829 C828 1.363 . S
C829 C835 1.363 . S
C830 C831 1.363 . S
C830 C835 1.379 . S
C830 N837 1.356 . S
C831 C830 1.363 . S
C831 C834 1.363 . S
N832 C834 1.356 . S
N832 H844 0.984 . S
N832 H845 0.985 . S
N833 C835 1.356 . S
N833 H838 0.984 . S
N833 H839 0.985 . S
C834 C828 1.379 . S
C834 C831 1.363 . S
C834 N832 1.356 . S
C835 C829 1.363 . S
C835 C830 1.379 . S
C835 N833 1.356 . S
N836 C828 1.356 . S
N836 H842 0.984 . S
N836 H843 0.984 . S
N837 C830 1.356 . S
N837 H840 0.984 . S
N837 H841 0.985 . S
H838 N833 0.984 . S
H839 N833 0.985 . S
H840 N837 0.984 . S
H841 N837 0.985 . S
H842 N836 0.984 . S
H843 N836 0.984 . S
H844 N832 0.984 . S
H845 N832 0.985 . S
C846 C847 1.363 . S
C846 C852 1.379 . S
C846 N854 1.356 . S
C847 C846 1.363 . S
C847 C853 1.363 . S
C848 C849 1.363 . S
C848 C853 1.379 . S
C848 N855 1.356 . S
C849 C848 1.363 . S
C849 C852 1.363 . S
N850 C852 1.356 . S
N850 H862 0.984 . S
N850 H863 0.985 . S
N851 C853 1.356 . S
N851 H856 0.984 . S
N851 H857 0.985 . S
C852 C846 1.379 . S
C852 C849 1.363 . S
C852 N850 1.356 . S
C853 C847 1.363 . S
C853 C848 1.379 . S
C853 N851 1.356 . S
N854 C846 1.356 . S
N854 H860 0.984 . S
N854 H861 0.984 . S
N855 C848 1.356 . S
N855 H858 0.984 . S
N855 H859 0.985 . S
H856 N851 0.984 . S
H857 N851 0.985 . S
H858 N855 0.984 . S
H859 N855 0.985 . S
H860 N854 0.984 . S
H861 N854 0.984 . S
H862 N850 0.984 . S
H863 N850 0.985 . S
C864 C865 1.363 . S
C864 C870 1.379 . S
C864 N872 1.356 . S
C865 C864 1.363 . S
C865 C871 1.363 . S
C866 C867 1.363 . S
C866 C871 1.379 . S
C866 N873 1.356 . S
C867 C866 1.363 . S
C867 C870 1.363 . S
N868 C870 1.356 . S
N868 H880 0.984 . S
N868 H881 0.985 . S
N869 C871 1.356 . S
N869 H874 0.984 . S
N869 H875 0.985 . S
C870 C864 1.379 . S
C870 C867 1.363 . S
C870 N868 1.356 . S
C871 C865 1.363 . S
C871 C866 1.379 . S
C871 N869 1.356 . S
N872 C864 1.356 . S
N872 H878 0.984 . S
N872 H879 0.984 . S
N873 C866 1.356 . S
N873 H876 0.984 . S
N873 H877 0.985 . S
H874 N869 0.984 . S
H875 N869 0.985 . S
H876 N873 0.984 . S
H877 N873 0.985 . S
H878 N872 0.984 . S
H879 N872 0.984 . S
H880 N868 0.984 . S
H881 N868 0.985 . S
C882 C883 1.363 . S
C882 C888 1.379 . S
C882 N890 1.356 . S
C883 C882 1.363 . S
C883 C889 1.363 . S
C884 C885 1.363 . S
C884 C889 1.379 . S
C884 N891 1.356 . S
C885 C884 1.363 . S
C885 C888 1.363 . S
N886 C888 1.356 . S
N886 H898 0.984 . S
N886 H899 0.985 . S
N887 C889 1.356 . S
N887 H892 0.984 . S
N887 H893 0.985 . S
C888 C882 1.379 . S
C888 C885 1.363 . S
C888 N886 1.356 . S
C889 C883 1.363 . S
C889 C884 1.379 . S
C889 N887 1.356 . S
N890 C882 1.356 . S
N890 H896 0.984 . S
N890 H897 0.984 . S
N891 C884 1.356 . S
N891 H894 0.984 . S
N891 H895 0.985 . S
H892 N887 0.984 . S
H893 N887 0.985 . S
H894 N891 0.984 . S
H895 N891 0.985 . S
H896 N890 0.984 . S
H897 N890 0.984 . S
H898 N886 0.984 . S
H899 N886 0.985 . S
C900 C901 1.363 . S
C900 C906 1.379 . S
C900 N908 1.356 . S
C901 C900 1.363 . S
C901 C907 1.363 . S
C902 C903 1.363 . S
C902 C907 1.379 . S
C902 N909 1.356 . S
C903 C902 1.363 . S
C903 C906 1.363 . S
N904 C906 1.356 . S
N904 H916 0.984 . S
N904 H917 0.985 . S
N905 C907 1.356 . S
N905 H910 0.984 . S
N905 H911 0.985 . S
C906 C900 1.379 . S
C906 C903 1.363 . S
C906 N904 1.356 . S
C907 C901 1.363 . S
C907 C902 1.379 . S
C907 N905 1.356 . S
N908 C900 1.356 . S
N908 H914 0.984 . S
N908 H915 0.984 . S
N909 C902 1.356 . S
N909 H912 0.984 . S
N909 H913 0.985 . S
H910 N905 0.984 . S
H911 N905 0.985 . S
H912 N909 0.984 . S
H913 N909 0.985 . S
H914 N908 0.984 . S
H915 N908 0.984 . S
H916 N904 0.984 . S
H917 N904 0.985 . S
C918 C919 1.363 . S
C918 C924 1.379 . S
C918 N926 1.356 . S
C919 C918 1.363 . S
C919 C925 1.363 . S
C920 C921 1.363 . S
C920 C925 1.379 . S
C920 N927 1.356 . S
C921 C920 1.363 . S
C921 C924 1.363 . S
N922 C924 1.356 . S
N922 H934 0.984 . S
N922 H935 0.985 . S
N923 C925 1.356 . S
N923 H928 0.984 . S
N923 H929 0.985 . S
C924 C918 1.379 . S
C924 C921 1.363 . S
C924 N922 1.356 . S
C925 C919 1.363 . S
C925 C920 1.379 . S
C925 N923 1.356 . S
N926 C918 1.356 . S
N926 H932 0.984 . S
N926 H933 0.984 . S
N927 C920 1.356 . S
N927 H930 0.984 . S
N927 H931 0.985 . S
H928 N923 0.984 . S
H929 N923 0.985 . S
H930 N927 0.984 . S
H931 N927 0.985 . S
H932 N926 0.984 . S
H933 N926 0.984 . S
H934 N922 0.984 . S
H935 N922 0.985 . S
C936 C937 1.363 1_455 S
C936 C942 1.379 1_556 S
C936 N944 1.356 . S
C937 C936 1.363 1_655 S
C937 C943 1.363 . S
C938 C939 1.363 1_655 S
C938 C943 1.379 1_554 S
C938 N945 1.356 . S
C939 C938 1.363 1_455 S
C939 C942 1.363 . S
N940 C942 1.356 . S
N940 H952 0.984 . S
N940 H953 0.985 . S
N941 C943 1.356 . S
N941 H946 0.984 . S
N941 H947 0.985 . S
C942 C936 1.379 1_554 S
C942 C939 1.363 . S
C942 N940 1.356 . S
C943 C937 1.363 . S
C943 C938 1.379 1_556 S
C943 N941 1.356 . S
N944 C936 1.356 . S
N944 H950 0.984 . S
N944 H951 0.984 1_455 S
N945 C938 1.356 . S
N945 H948 0.984 1_655 S
N945 H949 0.985 . S
H946 N941 0.984 . S
H947 N941 0.985 . S
H948 N945 0.984 1_455 S
H949 N945 0.985 . S
H950 N944 0.984 . S
H951 N944 0.984 1_655 S
H952 N940 0.984 . S
H953 N940 0.985 . S
C954 C955 1.363 . S
C954 C960 1.379 1_556 S
C954 N962 1.356 . S
C955 C954 1.363 . S
C955 C961 1.363 . S
C956 C957 1.363 . S
C956 C961 1.379 1_554 S
C956 N963 1.356 . S
C957 C956 1.363 . S
C957 C960 1.363 . S
N958 C960 1.356 . S
N958 H970 0.984 . S
N958 H971 0.985 . S
N959 C961 1.356 . S
N959 H964 0.984 . S
N959 H965 0.985 . S
C960 C954 1.379 1_554 S
C960 C957 1.363 . S
C960 N958 1.356 . S
C961 C955 1.363 . S
C961 C956 1.379 1_556 S
C961 N959 1.356 . S
N962 C954 1.356 . S
N962 H968 0.984 . S
N962 H969 0.984 . S
N963 C956 1.356 . S
N963 H966 0.984 . S
N963 H967 0.985 . S
H964 N959 0.984 . S
H965 N959 0.985 . S
H966 N963 0.984 . S
H967 N963 0.985 . S
H968 N962 0.984 . S
H969 N962 0.984 . S
H970 N958 0.984 . S
H971 N958 0.985 . S
C972 C973 1.363 1_565 S
C972 C978 1.379 . S
C972 N980 1.356 . S
C973 C972 1.363 1_545 S
C973 C979 1.363 . S
C974 C975 1.363 1_545 S
C974 C979 1.379 1_554 S
C974 N981 1.356 . S
C975 C974 1.363 1_565 S
C975 C978 1.363 1_554 S
N976 C978 1.356 . S
N976 H988 0.984 . S
N976 H989 0.985 1_556 S
N977 C979 1.356 . S
N977 H982 0.984 . S
N977 H983 0.985 . S
C978 C972 1.379 . S
C978 C975 1.363 1_556 S
C978 N976 1.356 . S
C979 C973 1.363 . S
C979 C974 1.379 1_556 S
C979 N977 1.356 . S
N980 C972 1.356 . S
N980 H986 0.984 . S
N980 H987 0.984 . S
N981 C974 1.356 . S
N981 H984 0.984 . S
N981 H985 0.985 . S
H982 N977 0.984 . S
H983 N977 0.985 . S
H984 N981 0.984 . S
H985 N981 0.985 . S
H986 N980 0.984 . S
H987 N980 0.984 . S
H988 N976 0.984 . S
H989 N976 0.985 1_554 S
C990 C991 1.363 1_565 S
C990 C996 1.379 1_556 S
C990 N998 1.356 . S
C991 C990 1.363 1_545 S
C991 C997 1.363 1_556 S
C992 C993 1.363 1_545 S
C992 C997 1.379 . S
C992 N999 1.356 . S
C993 C992 1.363 1_565 S
C993 C996 1.363 . S
N994 C996 1.356 . S
N994 H1006 0.984 . S
N994 H1007 0.985 . S
N995 C997 1.356 1_556 S
N995 H1000 0.984 . S
N995 H1001 0.985 1_556 S
C996 C990 1.379 1_554 S
C996 C993 1.363 . S
C996 N994 1.356 . S
C997 C991 1.363 1_554 S
C997 C992 1.379 . S
C997 N995 1.356 1_554 S
N998 C990 1.356 . S
N998 H1004 0.984 . S
N998 H1005 0.984 . S
N999 C992 1.356 . S
N999 H1002 0.984 . S
N999 H1003 0.985 . S
H1000 N995 0.984 . S
H1001 N995 0.985 1_554 S
H1002 N999 0.984 . S
H1003 N999 0.985 . S
H1004 N998 0.984 . S
H1005 N998 0.984 . S
H1006 N994 0.984 . S
H1007 N994 0.985 . S
C1008 C1009 1.363 . S
C1008 C1014 1.379 1_455 S
C1008 N1016 1.356 . S
C1009 C1008 1.363 . S
C1009 C1015 1.363 . S
C1010 C1011 1.359 1_455 S
C1010 C1015 1.381 1_556 S
C1010 N1017 1.357 1_455 S
C1011 C1010 1.359 1_655 S
C1011 C1014 1.363 1_556 S
N1012 C1014 1.356 1_556 S
N1012 H1024 0.984 1_556 S
N1012 H1025 0.985 . S
N1013 C1015 1.356 . S
N1013 H1018 0.984 . S
N1013 H1019 0.985 . S
C1014 C1008 1.379 1_655 S
C1014 C1011 1.363 1_554 S
C1014 N1012 1.356 1_554 S
C1015 C1009 1.363 . S
C1015 C1010 1.381 1_554 S
C1015 N1013 1.356 . S
N1016 C1008 1.356 . S
N1016 H1022 0.984 . S
N1016 H1023 0.984 . S
N1017 C1010 1.357 1_655 S
N1017 H1020 0.984 . S
N1017 H1021 0.981 . S
H1018 N1013 0.984 . S
H1019 N1013 0.985 . S
H1020 N1017 0.984 . S
H1021 N1017 0.981 . S
H1022 N1016 0.984 . S
H1023 N1016 0.984 . S
H1024 N1012 0.984 1_554 S
H1025 N1012 0.985 . S
C1026 C1027 1.363 . S
C1026 C1032 1.379 . S
C1026 N1034 1.356 . S
C1027 C1026 1.363 . S
C1027 C1033 1.363 . S
C1028 C1029 1.363 . S
C1028 C1033 1.379 1_556 S
C1028 N1035 1.356 . S
C1029 C1028 1.363 . S
C1029 C1032 1.363 1_556 S
N1030 C1032 1.356 1_556 S
N1030 H1042 0.983 1_556 S
N1030 H1043 0.985 . S
N1031 C1033 1.356 . S
N1031 H1036 0.984 . S
N1031 H1037 0.985 . S
C1032 C1026 1.379 . S
C1032 C1029 1.363 1_554 S
C1032 N1030 1.356 1_554 S
C1033 C1027 1.363 . S
C1033 C1028 1.379 1_554 S
C1033 N1031 1.356 . S
N1034 C1026 1.356 . S
N1034 H1040 0.984 . S
N1034 H1041 0.984 . S
N1035 C1028 1.356 . S
N1035 H1038 0.984 . S
N1035 H1039 0.985 . S
H1036 N1031 0.984 . S
H1037 N1031 0.985 . S
H1038 N1035 0.984 . S
H1039 N1035 0.985 . S
H1040 N1034 0.984 . S
H1041 N1034 0.984 . S
H1042 N1030 0.983 1_554 S
H1043 N1030 0.985 . S
C1044 C1045 1.363 . S
C1044 C1050 1.379 . S
C1044 N1052 1.356 . S
C1045 C1044 1.363 . S
C1045 C1051 1.363 . S
C1046 C1047 1.363 . S
C1046 C1051 1.379 . S
C1046 N1053 1.356 . S
C1047 C1046 1.363 . S
C1047 C1050 1.363 . S
N1048 C1050 1.356 . S
N1048 H1060 0.984 . S
N1048 H1061 0.985 . S
N1049 C1051 1.356 . S
N1049 H1054 0.984 . S
N1049 H1055 0.985 . S
C1050 C1044 1.379 . S
C1050 C1047 1.363 . S
C1050 N1048 1.356 . S
C1051 C1045 1.363 . S
C1051 C1046 1.379 . S
C1051 N1049 1.356 . S
N1052 C1044 1.356 . S
N1052 H1058 0.984 . S
N1052 H1059 0.984 . S
N1053 C1046 1.356 . S
N1053 H1056 0.984 . S
N1053 H1057 0.985 . S
H1054 N1049 0.984 . S
H1055 N1049 0.985 . S
H1056 N1053 0.984 . S
H1057 N1053 0.985 . S
H1058 N1052 0.984 . S
H1059 N1052 0.984 . S
H1060 N1048 0.984 . S
H1061 N1048 0.985 . S
C1062 C1063 1.363 . S
C1062 C1068 1.379 . S
C1062 N1070 1.356 . S
C1063 C1062 1.363 . S
C1063 C1069 1.363 . S
C1064 C1065 1.363 . S
C1064 C1069 1.379 . S
C1064 N1071 1.356 . S
C1065 C1064 1.363 . S
C1065 C1068 1.363 . S
N1066 C1068 1.356 . S
N1066 H1078 0.984 . S
N1066 H1079 0.985 . S
N1067 C1069 1.356 . S
N1067 H1072 0.984 . S
N1067 H1073 0.985 . S
C1068 C1062 1.379 . S
C1068 C1065 1.363 . S
C1068 N1066 1.356 . S
C1069 C1063 1.363 . S
C1069 C1064 1.379 . S
C1069 N1067 1.356 . S
N1070 C1062 1.356 . S
N1070 H1076 0.984 . S
N1070 H1077 0.984 . S
N1071 C1064 1.356 . S
N1071 H1074 0.984 . S
N1071 H1075 0.985 . S
H1072 N1067 0.984 . S
H1073 N1067 0.985 . S
H1074 N1071 0.984 . S
H1075 N1071 0.985 . S
H1076 N1070 0.984 . S
H1077 N1070 0.984 . S
H1078 N1066 0.984 . S
H1079 N1066 0.985 . S
C1080 C1081 1.363 . S
C1080 C1086 1.379 . S
C1080 N1088 1.356 . S
C1081 C1080 1.363 . S
C1081 C1087 1.363 . S
C1082 C1083 1.363 . S
C1082 C1087 1.379 . S
C1082 N1089 1.356 . S
C1083 C1082 1.363 . S
C1083 C1086 1.363 . S
N1084 C1086 1.356 . S
N1084 H1096 0.984 . S
N1084 H1097 0.985 . S
N1085 C1087 1.356 . S
N1085 H1090 0.984 . S
N1085 H1091 0.985 . S
C1086 C1080 1.379 . S
C1086 C1083 1.363 . S
C1086 N1084 1.356 . S
C1087 C1081 1.363 . S
C1087 C1082 1.379 . S
C1087 N1085 1.356 . S
N1088 C1080 1.356 . S
N1088 H1094 0.984 . S
N1088 H1095 0.984 . S
N1089 C1082 1.356 . S
N1089 H1092 0.984 . S
N1089 H1093 0.985 . S
H1090 N1085 0.984 . S
H1091 N1085 0.985 . S
H1092 N1089 0.984 . S
H1093 N1089 0.985 . S
H1094 N1088 0.984 . S
H1095 N1088 0.984 . S
H1096 N1084 0.984 . S
H1097 N1084 0.985 . S
C1098 C1099 1.363 . S
C1098 C1104 1.379 . S
C1098 N1106 1.356 . S
C1099 C1098 1.363 . S
C1099 C1105 1.363 . S
C1100 C1101 1.363 . S
C1100 C1105 1.379 . S
C1100 N1107 1.356 . S
C1101 C1100 1.363 . S
C1101 C1104 1.363 . S
N1102 C1104 1.356 . S
N1102 H1114 0.984 . S
N1102 H1115 0.985 . S
N1103 C1105 1.356 . S
N1103 H1108 0.984 . S
N1103 H1109 0.985 . S
C1104 C1098 1.379 . S
C1104 C1101 1.363 . S
C1104 N1102 1.356 . S
C1105 C1099 1.363 . S
C1105 C1100 1.379 . S
C1105 N1103 1.356 . S
N1106 C1098 1.356 . S
N1106 H1112 0.984 . S
N1106 H1113 0.984 . S
N1107 C1100 1.356 . S
N1107 H1110 0.984 . S
N1107 H1111 0.985 . S
H1108 N1103 0.984 . S
H1109 N1103 0.985 . S
H1110 N1107 0.984 . S
H1111 N1107 0.985 . S
H1112 N1106 0.984 . S
H1113 N1106 0.984 . S
H1114 N1102 0.984 . S
H1115 N1102 0.985 . S
C1116 C1117 1.363 . S
C1116 C1122 1.379 . S
C1116 N1124 1.356 . S
C1117 C1116 1.363 . S
C1117 C1123 1.363 . S
C1118 C1119 1.363 . S
C1118 C1123 1.379 . S
C1118 N1125 1.356 . S
C1119 C1118 1.363 . S
C1119 C1122 1.363 . S
N1120 C1122 1.356 . S
N1120 H1132 0.984 . S
N1120 H1133 0.985 . S
N1121 C1123 1.356 . S
N1121 H1126 0.984 . S
N1121 H1127 0.985 . S
C1122 C1116 1.379 . S
C1122 C1119 1.363 . S
C1122 N1120 1.356 . S
C1123 C1117 1.363 . S
C1123 C1118 1.379 . S
C1123 N1121 1.356 . S
N1124 C1116 1.356 . S
N1124 H1130 0.984 . S
N1124 H1131 0.984 . S
N1125 C1118 1.356 . S
N1125 H1128 0.984 . S
N1125 H1129 0.985 . S
H1126 N1121 0.984 . S
H1127 N1121 0.985 . S
H1128 N1125 0.984 . S
H1129 N1125 0.985 . S
H1130 N1124 0.984 . S
H1131 N1124 0.984 . S
H1132 N1120 0.984 . S
H1133 N1120 0.985 . S
C1134 C1135 1.363 . S
C1134 C1140 1.379 . S
C1134 N1142 1.356 . S
C1135 C1134 1.363 . S
C1135 C1141 1.363 . S
C1136 C1137 1.363 . S
C1136 C1141 1.379 . S
C1136 N1143 1.356 . S
C1137 C1136 1.363 . S
C1137 C1140 1.363 . S
N1138 C1140 1.356 . S
N1138 H1150 0.984 . S
N1138 H1151 0.985 . S
N1139 C1141 1.356 . S
N1139 H1144 0.984 . S
N1139 H1145 0.985 . S
C1140 C1134 1.379 . S
C1140 C1137 1.363 . S
C1140 N1138 1.356 . S
C1141 C1135 1.363 . S
C1141 C1136 1.379 . S
C1141 N1139 1.356 . S
N1142 C1134 1.356 . S
N1142 H1148 0.984 . S
N1142 H1149 0.984 . S
N1143 C1136 1.356 . S
N1143 H1146 0.984 . S
N1143 H1147 0.985 . S
H1144 N1139 0.984 . S
H1145 N1139 0.985 . S
H1146 N1143 0.984 . S
H1147 N1143 0.985 . S
H1148 N1142 0.984 . S
H1149 N1142 0.984 . S
H1150 N1138 0.984 . S
H1151 N1138 0.985 . S
C1152 C1153 1.363 . S
C1152 C1158 1.379 . S
C1152 N1160 1.356 . S
C1153 C1152 1.363 . S
C1153 C1159 1.363 . S
C1154 C1155 1.363 . S
C1154 C1159 1.379 . S
C1154 N1161 1.356 . S
C1155 C1154 1.363 . S
C1155 C1158 1.363 . S
N1156 C1158 1.356 . S
N1156 H1168 0.984 . S
N1156 H1169 0.985 . S
N1157 C1159 1.356 . S
N1157 H1162 0.984 . S
N1157 H1163 0.985 . S
C1158 C1152 1.379 . S
C1158 C1155 1.363 . S
C1158 N1156 1.356 . S
C1159 C1153 1.363 . S
C1159 C1154 1.379 . S
C1159 N1157 1.356 . S
N1160 C1152 1.356 . S
N1160 H1166 0.984 . S
N1160 H1167 0.984 . S
N1161 C1154 1.356 . S
N1161 H1164 0.984 . S
N1161 H1165 0.985 . S
H1162 N1157 0.984 . S
H1163 N1157 0.985 . S
H1164 N1161 0.984 . S
H1165 N1161 0.985 . S
H1166 N1160 0.984 . S
H1167 N1160 0.984 . S
H1168 N1156 0.984 . S
H1169 N1156 0.985 . S
C1170 C1171 1.363 . S
C1170 C1176 1.379 . S
C1170 N1178 1.356 . S
C1171 C1170 1.363 . S
C1171 C1177 1.363 . S
C1172 C1173 1.363 . S
C1172 C1177 1.379 . S
C1172 N1179 1.356 . S
C1173 C1172 1.363 . S
C1173 C1176 1.363 . S
N1174 C1176 1.356 . S
N1174 H1186 0.984 . S
N1174 H1187 0.985 . S
N1175 C1177 1.356 . S
N1175 H1180 0.984 . S
N1175 H1181 0.985 . S
C1176 C1170 1.379 . S
C1176 C1173 1.363 . S
C1176 N1174 1.356 . S
C1177 C1171 1.363 . S
C1177 C1172 1.379 . S
C1177 N1175 1.356 . S
N1178 C1170 1.356 . S
N1178 H1184 0.984 . S
N1178 H1185 0.984 . S
N1179 C1172 1.356 . S
N1179 H1182 0.984 . S
N1179 H1183 0.985 . S
H1180 N1175 0.984 . S
H1181 N1175 0.985 . S
H1182 N1179 0.984 . S
H1183 N1179 0.985 . S
H1184 N1178 0.984 . S
H1185 N1178 0.984 . S
H1186 N1174 0.984 . S
H1187 N1174 0.985 . S
C1188 C1189 1.363 . S
C1188 C1194 1.379 . S
C1188 N1196 1.356 . S
C1189 C1188 1.363 . S
C1189 C1195 1.363 . S
C1190 C1191 1.363 . S
C1190 C1195 1.379 . S
C1190 N1197 1.356 . S
C1191 C1190 1.363 . S
C1191 C1194 1.363 . S
N1192 C1194 1.356 . S
N1192 H1204 0.984 . S
N1192 H1205 0.985 . S
N1193 C1195 1.356 . S
N1193 H1198 0.984 . S
N1193 H1199 0.985 . S
C1194 C1188 1.379 . S
C1194 C1191 1.363 . S
C1194 N1192 1.356 . S
C1195 C1189 1.363 . S
C1195 C1190 1.379 . S
C1195 N1193 1.356 . S
N1196 C1188 1.356 . S
N1196 H1202 0.984 . S
N1196 H1203 0.984 . S
N1197 C1190 1.356 . S
N1197 H1200 0.984 . S
N1197 H1201 0.985 . S
H1198 N1193 0.984 . S
H1199 N1193 0.985 . S
H1200 N1197 0.984 . S
H1201 N1197 0.985 . S
H1202 N1196 0.984 . S
H1203 N1196 0.984 . S
H1204 N1192 0.984 . S
H1205 N1192 0.985 . S
C1206 C1207 1.363 . S
C1206 C1212 1.379 . S
C1206 N1214 1.356 . S
C1207 C1206 1.363 . S
C1207 C1213 1.363 . S
C1208 C1209 1.363 . S
C1208 C1213 1.379 . S
C1208 N1215 1.356 . S
C1209 C1208 1.363 . S
C1209 C1212 1.363 . S
N1210 C1212 1.356 . S
N1210 H1222 0.984 . S
N1210 H1223 0.985 . S
N1211 C1213 1.356 . S
N1211 H1216 0.984 . S
N1211 H1217 0.985 . S
C1212 C1206 1.379 . S
C1212 C1209 1.363 . S
C1212 N1210 1.356 . S
C1213 C1207 1.363 . S
C1213 C1208 1.379 . S
C1213 N1211 1.356 . S
N1214 C1206 1.356 . S
N1214 H1220 0.984 . S
N1214 H1221 0.984 . S
N1215 C1208 1.356 . S
N1215 H1218 0.984 . S
N1215 H1219 0.985 . S
H1216 N1211 0.984 . S
H1217 N1211 0.985 . S
H1218 N1215 0.984 . S
H1219 N1215 0.985 . S
H1220 N1214 0.984 . S
H1221 N1214 0.984 . S
H1222 N1210 0.984 . S
H1223 N1210 0.985 . S
C1224 C1225 1.363 . S
C1224 C1230 1.379 . S
C1224 N1232 1.356 . S
C1225 C1224 1.363 . S
C1225 C1231 1.363 . S
C1226 C1227 1.363 . S
C1226 C1231 1.379 . S
C1226 N1233 1.356 . S
C1227 C1226 1.363 . S
C1227 C1230 1.363 . S
N1228 C1230 1.356 . S
N1228 H1240 0.984 . S
N1228 H1241 0.985 . S
N1229 C1231 1.356 . S
N1229 H1234 0.984 . S
N1229 H1235 0.985 . S
C1230 C1224 1.379 . S
C1230 C1227 1.363 . S
C1230 N1228 1.356 . S
C1231 C1225 1.363 . S
C1231 C1226 1.379 . S
C1231 N1229 1.356 . S
N1232 C1224 1.356 . S
N1232 H1238 0.984 . S
N1232 H1239 0.984 . S
N1233 C1226 1.356 . S
N1233 H1236 0.984 . S
N1233 H1237 0.985 . S
H1234 N1229 0.984 . S
H1235 N1229 0.985 . S
H1236 N1233 0.984 . S
H1237 N1233 0.985 . S
H1238 N1232 0.984 . S
H1239 N1232 0.984 . S
H1240 N1228 0.984 . S
H1241 N1228 0.985 . S
C1242 C1243 1.363 . S
C1242 C1248 1.379 . S
C1242 N1250 1.356 . S
C1243 C1242 1.363 . S
C1243 C1249 1.363 . S
C1244 C1245 1.363 . S
C1244 C1249 1.379 . S
C1244 N1251 1.356 . S
C1245 C1244 1.363 . S
C1245 C1248 1.363 . S
N1246 C1248 1.356 . S
N1246 H1258 0.984 . S
N1246 H1259 0.985 . S
N1247 C1249 1.356 . S
N1247 H1252 0.984 . S
N1247 H1253 0.985 . S
C1248 C1242 1.379 . S
C1248 C1245 1.363 . S
C1248 N1246 1.356 . S
C1249 C1243 1.363 . S
C1249 C1244 1.379 . S
C1249 N1247 1.356 . S
N1250 C1242 1.356 . S
N1250 H1256 0.984 . S
N1250 H1257 0.984 . S
N1251 C1244 1.356 . S
N1251 H1254 0.984 . S
N1251 H1255 0.985 . S
H1252 N1247 0.984 . S
H1253 N1247 0.985 . S
H1254 N1251 0.984 . S
H1255 N1251 0.985 . S
H1256 N1250 0.984 . S
H1257 N1250 0.984 . S
H1258 N1246 0.984 . S
H1259 N1246 0.985 . S
C1260 C1261 1.363 . S
C1260 C1266 1.379 . S
C1260 N1268 1.356 . S
C1261 C1260 1.363 . S
C1261 C1267 1.363 . S
C1262 C1263 1.363 . S
C1262 C1267 1.379 . S
C1262 N1269 1.356 . S
C1263 C1262 1.363 . S
C1263 C1266 1.363 . S
N1264 C1266 1.356 . S
N1264 H1276 0.984 . S
N1264 H1277 0.985 . S
N1265 C1267 1.356 . S
N1265 H1270 0.984 . S
N1265 H1271 0.985 . S
C1266 C1260 1.379 . S
C1266 C1263 1.363 . S
C1266 N1264 1.356 . S
C1267 C1261 1.363 . S
C1267 C1262 1.379 . S
C1267 N1265 1.356 . S
N1268 C1260 1.356 . S
N1268 H1274 0.984 . S
N1268 H1275 0.984 . S
N1269 C1262 1.356 . S
N1269 H1272 0.984 . S
N1269 H1273 0.985 . S
H1270 N1265 0.984 . S
H1271 N1265 0.985 . S
H1272 N1269 0.984 . S
H1273 N1269 0.985 . S
H1274 N1268 0.984 . S
H1275 N1268 0.984 . S
H1276 N1264 0.984 . S
H1277 N1264 0.985 . S
C1278 C1279 1.363 . S
C1278 C1284 1.379 . S
C1278 N1286 1.356 . S
C1279 C1278 1.363 . S
C1279 C1285 1.363 . S
C1280 C1281 1.363 . S
C1280 C1285 1.379 . S
C1280 N1287 1.356 . S
C1281 C1280 1.363 . S
C1281 C1284 1.363 . S
N1282 C1284 1.356 . S
N1282 H1294 0.984 1_554 S
N1282 H1295 0.985 . S
N1283 C1285 1.356 . S
N1283 H1288 0.984 . S
N1283 H1289 0.985 . S
C1284 C1278 1.379 . S
C1284 C1281 1.363 . S
C1284 N1282 1.356 . S
C1285 C1279 1.363 . S
C1285 C1280 1.379 . S
C1285 N1283 1.356 . S
N1286 C1278 1.356 . S
N1286 H1292 0.975 1_554 S
N1286 H1293 0.984 . S
N1287 C1280 1.356 . S
N1287 H1290 0.984 . S
N1287 H1291 0.985 . S
H1288 N1283 0.984 . S
H1289 N1283 0.985 . S
H1290 N1287 0.984 . S
H1291 N1287 0.985 . S
H1292 N1286 0.975 1_556 S
H1293 N1286 0.984 . S
H1294 N1282 0.984 1_556 S
H1295 N1282 0.985 . S
C1296 C1297 1.363 . S
C1296 C1302 1.379 . S
C1296 N1304 1.356 . S
C1297 C1296 1.363 . S
C1297 C1303 1.363 . S
C1298 C1299 1.363 . S
C1298 C1303 1.379 . S
C1298 N1305 1.356 . S
C1299 C1298 1.363 . S
C1299 C1302 1.363 . S
N1300 C1302 1.356 . S
N1300 H1312 0.984 . S
N1300 H1313 0.985 . S
N1301 C1303 1.356 . S
N1301 H1306 0.984 . S
N1301 H1307 0.985 . S
C1302 C1296 1.379 . S
C1302 C1299 1.363 . S
C1302 N1300 1.356 . S
C1303 C1297 1.363 . S
C1303 C1298 1.379 . S
C1303 N1301 1.356 . S
N1304 C1296 1.356 . S
N1304 H1310 0.984 . S
N1304 H1311 0.984 . S
N1305 C1298 1.356 . S
N1305 H1308 0.984 . S
N1305 H1309 0.985 . S
H1306 N1301 0.984 . S
H1307 N1301 0.985 . S
H1308 N1305 0.984 . S
H1309 N1305 0.985 . S
H1310 N1304 0.984 . S
H1311 N1304 0.984 . S
H1312 N1300 0.984 . S
H1313 N1300 0.985 . S
C1314 C1315 1.363 . S
C1314 C1320 1.379 . S
C1314 N1322 1.356 . S
C1315 C1314 1.363 . S
C1315 C1321 1.363 . S
C1316 C1317 1.363 . S
C1316 C1321 1.379 . S
C1316 N1323 1.356 . S
C1317 C1316 1.363 . S
C1317 C1320 1.363 . S
N1318 C1320 1.356 . S
N1318 H1330 0.984 . S
N1318 H1331 0.985 . S
N1319 C1321 1.356 . S
N1319 H1324 0.984 . S
N1319 H1325 0.985 . S
C1320 C1314 1.379 . S
C1320 C1317 1.363 . S
C1320 N1318 1.356 . S
C1321 C1315 1.363 . S
C1321 C1316 1.379 . S
C1321 N1319 1.356 . S
N1322 C1314 1.356 . S
N1322 H1328 0.984 . S
N1322 H1329 0.984 . S
N1323 C1316 1.356 . S
N1323 H1326 0.984 . S
N1323 H1327 0.985 . S
H1324 N1319 0.984 . S
H1325 N1319 0.985 . S
H1326 N1323 0.984 . S
H1327 N1323 0.985 . S
H1328 N1322 0.984 . S
H1329 N1322 0.984 . S
H1330 N1318 0.984 . S
H1331 N1318 0.985 . S
C1332 C1333 1.363 . S
C1332 C1338 1.379 . S
C1332 N1340 1.356 . S
C1333 C1332 1.363 . S
C1333 C1339 1.363 . S
C1334 C1335 1.363 . S
C1334 C1339 1.379 . S
C1334 N1341 1.356 . S
C1335 C1334 1.363 . S
C1335 C1338 1.363 . S
N1336 C1338 1.356 . S
N1336 H1348 0.984 . S
N1336 H1349 0.985 . S
N1337 C1339 1.356 . S
N1337 H1342 0.984 . S
N1337 H1343 0.985 . S
C1338 C1332 1.379 . S
C1338 C1335 1.363 . S
C1338 N1336 1.356 . S
C1339 C1333 1.363 . S
C1339 C1334 1.379 . S
C1339 N1337 1.356 . S
N1340 C1332 1.356 . S
N1340 H1346 0.984 . S
N1340 H1347 0.984 . S
N1341 C1334 1.356 . S
N1341 H1344 0.984 . S
N1341 H1345 0.985 . S
H1342 N1337 0.984 . S
H1343 N1337 0.985 . S
H1344 N1341 0.984 . S
H1345 N1341 0.985 . S
H1346 N1340 0.984 . S
H1347 N1340 0.984 . S
H1348 N1336 0.984 . S
H1349 N1336 0.985 . S
C1350 C1351 1.363 . S
C1350 C1356 1.379 . S
C1350 N1358 1.356 . S
C1351 C1350 1.363 . S
C1351 C1357 1.363 . S
C1352 C1353 1.363 . S
C1352 C1357 1.379 . S
C1352 N1359 1.356 . S
C1353 C1352 1.363 . S
C1353 C1356 1.363 . S
N1354 C1356 1.356 . S
N1354 H1366 0.984 . S
N1354 H1367 0.985 . S
N1355 C1357 1.356 . S
N1355 H1360 0.984 . S
N1355 H1361 0.985 . S
C1356 C1350 1.379 . S
C1356 C1353 1.363 . S
C1356 N1354 1.356 . S
C1357 C1351 1.363 . S
C1357 C1352 1.379 . S
C1357 N1355 1.356 . S
N1358 C1350 1.356 . S
N1358 H1364 0.984 . S
N1358 H1365 0.984 . S
N1359 C1352 1.356 . S
N1359 H1362 0.984 . S
N1359 H1363 0.985 . S
H1360 N1355 0.984 . S
H1361 N1355 0.985 . S
H1362 N1359 0.984 . S
H1363 N1359 0.985 . S
H1364 N1358 0.984 . S
H1365 N1358 0.984 . S
H1366 N1354 0.984 . S
H1367 N1354 0.985 . S
C1368 C1369 1.354 1_655 S
C1368 C1374 1.364 1_654 S
C1368 N1376 1.382 . S
C1369 C1368 1.354 1_455 S
C1369 C1375 1.363 . S
C1370 C1371 1.363 1_554 S
C1370 C1375 1.379 . S
C1370 N1377 1.356 . S
C1371 C1370 1.363 1_556 S
C1371 C1374 1.363 . S
N1372 C1374 1.359 . S
N1372 H1384 0.966 1_455 S
N1372 H1385 1.002 . S
N1373 C1375 1.356 . S
N1373 H1378 0.984 . S
N1373 H1379 0.985 . S
C1374 C1368 1.364 1_456 S
C1374 C1371 1.363 . S
C1374 N1372 1.359 . S
C1375 C1369 1.363 . S
C1375 C1370 1.379 . S
C1375 N1373 1.356 . S
N1376 C1368 1.382 . S
N1376 H1382 0.984 . S
N1376 H1383 0.984 . S
N1377 C1370 1.356 . S
N1377 H1380 0.984 1_554 S
N1377 H1381 0.985 . S
H1378 N1373 0.984 . S
H1379 N1373 0.985 . S
H1380 N1377 0.984 1_556 S
H1381 N1377 0.985 . S
H1382 N1376 0.984 . S
H1383 N1376 0.984 . S
H1384 N1372 0.966 1_655 S
H1385 N1372 1.002 . S
C1386 C1387 1.363 . S
C1386 C1392 1.379 1_554 S
C1386 N1394 1.356 . S
C1387 C1386 1.363 . S
C1387 C1393 1.363 . S
C1388 C1389 1.363 . S
C1388 C1393 1.379 1_556 S
C1388 N1395 1.356 . S
C1389 C1388 1.363 . S
C1389 C1392 1.363 . S
N1390 C1392 1.356 . S
N1390 H1402 0.984 . S
N1390 H1403 0.985 . S
N1391 C1393 1.356 . S
N1391 H1396 0.984 . S
N1391 H1397 0.985 . S
C1392 C1386 1.379 1_556 S
C1392 C1389 1.363 . S
C1392 N1390 1.356 . S
C1393 C1387 1.363 . S
C1393 C1388 1.379 1_554 S
C1393 N1391 1.356 . S
N1394 C1386 1.356 . S
N1394 H1400 0.984 . S
N1394 H1401 0.984 . S
N1395 C1388 1.356 . S
N1395 H1398 0.984 . S
N1395 H1399 0.985 . S
H1396 N1391 0.984 . S
H1397 N1391 0.985 . S
H1398 N1395 0.984 . S
H1399 N1395 0.985 . S
H1400 N1394 0.984 . S
H1401 N1394 0.984 . S
H1402 N1390 0.984 . S
H1403 N1390 0.985 . S
C1404 C1405 1.363 1_545 S
C1404 C1410 1.379 1_554 S
C1404 N1412 1.356 . S
C1405 C1404 1.363 1_565 S
C1405 C1411 1.363 1_554 S
C1406 C1407 1.363 1_565 S
C1406 C1411 1.379 . S
C1406 N1413 1.356 . S
C1407 C1406 1.363 1_545 S
C1407 C1410 1.363 . S
N1408 C1410 1.356 . S
N1408 H1420 0.984 1_556 S
N1408 H1421 0.985 . S
N1409 C1411 1.356 1_554 S
N1409 H1414 0.984 . S
N1409 H1415 0.985 1_554 S
C1410 C1404 1.379 1_556 S
C1410 C1407 1.363 . S
C1410 N1408 1.356 . S
C1411 C1405 1.363 1_556 S
C1411 C1406 1.379 . S
C1411 N1409 1.356 1_556 S
N1412 C1404 1.356 . S
N1412 H1418 0.984 . S
N1412 H1419 0.984 . S
N1413 C1406 1.356 . S
N1413 H1416 0.984 . S
N1413 H1417 0.985 . S
H1414 N1409 0.984 . S
H1415 N1409 0.985 1_556 S
H1416 N1413 0.984 . S
H1417 N1413 0.985 . S
H1418 N1412 0.984 . S
H1419 N1412 0.984 . S
H1420 N1408 0.984 1_554 S
H1421 N1408 0.985 . S
C1422 C1423 1.363 1_554 S
C1422 C1428 1.379 . S
C1422 N1430 1.356 1_554 S
C1423 C1422 1.363 1_556 S
C1423 C1429 1.363 1_456 S
C1424 C1425 1.358 1_655 S
C1424 C1429 1.379 . S
C1424 N1431 1.356 . S
C1425 C1424 1.358 1_455 S
C1425 C1428 1.375 . S
N1426 C1428 1.356 . S
N1426 H1438 0.984 . S
N1426 H1439 0.985 . S
N1427 C1429 1.356 1_556 S
N1427 H1432 0.984 . S
N1427 H1433 0.985 . S
C1428 C1422 1.379 . S
C1428 C1425 1.375 . S
C1428 N1426 1.356 . S
C1429 C1423 1.363 1_654 S
C1429 C1424 1.379 . S
C1429 N1427 1.356 1_554 S
N1430 C1422 1.356 1_556 S
N1430 H1436 0.984 . S
N1430 H1437 0.984 . S
N1431 C1424 1.356 . S
N1431 H1434 0.984 . S
N1431 H1435 0.985 . S
H1432 N1427 0.984 . S
H1433 N1427 0.985 . S
H1434 N1431 0.984 . S
H1435 N1431 0.985 . S
H1436 N1430 0.984 . S
H1437 N1430 0.984 . S
H1438 N1426 0.984 . S
H1439 N1426 0.985 . S
C1440 C1441 1.363 . S
C1440 C1446 1.379 . S
C1440 N1448 1.356 . S
C1441 C1440 1.363 . S
C1441 C1447 1.363 . S
C1442 C1443 1.363 1_554 S
C1442 C1447 1.379 . S
C1442 N1449 1.356 1_554 S
C1443 C1442 1.363 1_556 S
C1443 C1446 1.363 1_556 S
N1444 C1446 1.363 . S
N1444 H1456 0.992 . S
N1444 H1457 0.970 1_554 S
N1445 C1447 1.356 . S
N1445 H1450 0.984 . S
N1445 H1451 0.985 . S
C1446 C1440 1.379 . S
C1446 C1443 1.363 1_554 S
C1446 N1444 1.363 . S
C1447 C1441 1.363 . S
C1447 C1442 1.379 . S
C1447 N1445 1.356 . S
N1448 C1440 1.356 . S
N1448 H1454 0.984 . S
N1448 H1455 0.984 . S
N1449 C1442 1.356 1_556 S
N1449 H1452 0.984 . S
N1449 H1453 0.985 . S
H1450 N1445 0.984 . S
H1451 N1445 0.985 . S
H1452 N1449 0.984 . S
H1453 N1449 0.985 . S
H1454 N1448 0.984 . S
H1455 N1448 0.984 . S
H1456 N1444 0.992 . S
H1457 N1444 0.970 1_556 S
C1458 C1459 1.339 1_545 S
C1458 C1464 1.379 . S
C1458 N1466 1.356 . S
C1459 C1458 1.339 1_565 S
C1459 C1465 1.371 . S
C1460 C1461 1.364 1_565 S
C1460 C1465 1.378 1_556 S
C1460 N1467 1.356 . S
C1461 C1460 1.364 1_545 S
C1461 C1464 1.363 1_556 S
N1462 C1464 1.356 . S
N1462 H1474 0.984 . S
N1462 H1475 0.985 1_554 S
N1463 C1465 1.356 . S
N1463 H1468 0.984 . S
N1463 H1469 0.985 1_554 S
C1464 C1458 1.379 . S
C1464 C1461 1.363 1_554 S
C1464 N1462 1.356 . S
C1465 C1459 1.371 . S
C1465 C1460 1.378 1_554 S
C1465 N1463 1.356 . S
N1466 C1458 1.356 . S
N1466 H1472 0.984 . S
N1466 H1473 0.984 . S
N1467 C1460 1.356 . S
N1467 H1470 0.984 1_565 S
N1467 H1471 0.985 . S
H1468 N1463 0.984 . S
H1469 N1463 0.985 1_556 S
H1470 N1467 0.984 1_545 S
H1471 N1467 0.985 . S
H1472 N1466 0.984 . S
H1473 N1466 0.984 . S
H1474 N1462 0.984 . S
H1475 N1462 0.985 1_556 S
C1476 C1477 1.363 . S
C1476 C1482 1.379 . S
C1476 N1484 1.356 . S
C1477 C1476 1.363 . S
C1477 C1483 1.363 . S
C1478 C1479 1.363 . S
C1478 C1483 1.379 . S
C1478 N1485 1.356 . S
C1479 C1478 1.363 . S
C1479 C1482 1.363 . S
N1480 C1482 1.356 . S
N1480 H1492 0.984 . S
N1480 H1493 0.985 . S
N1481 C1483 1.356 . S
N1481 H1486 0.984 . S
N1481 H1487 0.985 . S
C1482 C1476 1.379 . S
C1482 C1479 1.363 . S
C1482 N1480 1.356 . S
C1483 C1477 1.363 . S
C1483 C1478 1.379 . S
C1483 N1481 1.356 . S
N1484 C1476 1.356 . S
N1484 H1490 0.984 . S
N1484 H1491 0.984 . S
N1485 C1478 1.356 . S
N1485 H1488 0.984 . S
N1485 H1489 0.985 . S
H1486 N1481 0.984 . S
H1487 N1481 0.985 . S
H1488 N1485 0.984 . S
H1489 N1485 0.985 . S
H1490 N1484 0.984 . S
H1491 N1484 0.984 . S
H1492 N1480 0.984 . S
H1493 N1480 0.985 . S
C1494 C1495 1.363 . S
C1494 C1500 1.379 . S
C1494 N1502 1.356 . S
C1495 C1494 1.363 . S
C1495 C1501 1.363 . S
C1496 C1497 1.363 . S
C1496 C1501 1.379 . S
C1496 N1503 1.356 . S
C1497 C1496 1.363 . S
C1497 C1500 1.363 . S
N1498 C1500 1.356 . S
N1498 H1510 0.984 . S
N1498 H1511 0.985 . S
N1499 C1501 1.356 . S
N1499 H1504 0.984 . S
N1499 H1505 0.985 . S
C1500 C1494 1.379 . S
C1500 C1497 1.363 . S
C1500 N1498 1.356 . S
C1501 C1495 1.363 . S
C1501 C1496 1.379 . S
C1501 N1499 1.356 . S
N1502 C1494 1.356 . S
N1502 H1508 0.984 . S
N1502 H1509 0.984 . S
N1503 C1496 1.356 . S
N1503 H1506 0.984 . S
N1503 H1507 0.985 . S
H1504 N1499 0.984 . S
H1505 N1499 0.985 . S
H1506 N1503 0.984 . S
H1507 N1503 0.985 . S
H1508 N1502 0.984 . S
H1509 N1502 0.984 . S
H1510 N1498 0.984 . S
H1511 N1498 0.985 . S
C1512 C1513 1.363 . S
C1512 C1518 1.379 . S
C1512 N1520 1.356 . S
C1513 C1512 1.363 . S
C1513 C1519 1.363 . S
C1514 C1515 1.363 . S
C1514 C1519 1.379 . S
C1514 N1521 1.356 . S
C1515 C1514 1.363 . S
C1515 C1518 1.363 . S
N1516 C1518 1.356 . S
N1516 H1528 0.984 . S
N1516 H1529 0.985 . S
N1517 C1519 1.356 . S
N1517 H1522 0.984 . S
N1517 H1523 0.985 . S
C1518 C1512 1.379 . S
C1518 C1515 1.363 . S
C1518 N1516 1.356 . S
C1519 C1513 1.363 . S
C1519 C1514 1.379 . S
C1519 N1517 1.356 . S
N1520 C1512 1.356 . S
N1520 H1526 0.984 . S
N1520 H1527 0.984 . S
N1521 C1514 1.356 . S
N1521 H1524 0.984 . S
N1521 H1525 0.985 . S
H1522 N1517 0.984 . S
H1523 N1517 0.985 . S
H1524 N1521 0.984 . S
H1525 N1521 0.985 . S
H1526 N1520 0.984 . S
H1527 N1520 0.984 . S
H1528 N1516 0.984 . S
H1529 N1516 0.985 . S
C1530 C1531 1.363 . S
C1530 C1536 1.379 . S
C1530 N1538 1.356 . S
C1531 C1530 1.363 . S
C1531 C1537 1.363 . S
C1532 C1533 1.363 . S
C1532 C1537 1.379 . S
C1532 N1539 1.356 . S
C1533 C1532 1.363 . S
C1533 C1536 1.363 . S
N1534 C1536 1.356 . S
N1534 H1546 0.984 . S
N1534 H1547 0.985 . S
N1535 C1537 1.356 . S
N1535 H1540 0.984 . S
N1535 H1541 0.985 . S
C1536 C1530 1.379 . S
C1536 C1533 1.363 . S
C1536 N1534 1.356 . S
C1537 C1531 1.363 . S
C1537 C1532 1.379 . S
C1537 N1535 1.356 . S
N1538 C1530 1.356 . S
N1538 H1544 0.984 . S
N1538 H1545 0.984 . S
N1539 C1532 1.356 . S
N1539 H1542 0.984 . S
N1539 H1543 0.985 . S
H1540 N1535 0.984 . S
H1541 N1535 0.985 . S
H1542 N1539 0.984 . S
H1543 N1539 0.985 . S
H1544 N1538 0.984 . S
H1545 N1538 0.984 . S
H1546 N1534 0.984 . S
H1547 N1534 0.985 . S
C1548 C1549 1.363 . S
C1548 C1554 1.379 . S
C1548 N1556 1.356 . S
C1549 C1548 1.363 . S
C1549 C1555 1.363 . S
C1550 C1551 1.363 . S
C1550 C1555 1.379 . S
C1550 N1557 1.356 . S
C1551 C1550 1.363 . S
C1551 C1554 1.363 . S
N1552 C1554 1.356 . S
N1552 H1564 0.984 . S
N1552 H1565 0.985 . S
N1553 C1555 1.356 . S
N1553 H1558 0.984 . S
N1553 H1559 0.985 . S
C1554 C1548 1.379 . S
C1554 C1551 1.363 . S
C1554 N1552 1.356 . S
C1555 C1549 1.363 . S
C1555 C1550 1.379 . S
C1555 N1553 1.356 . S
N1556 C1548 1.356 . S
N1556 H1562 0.984 . S
N1556 H1563 0.984 . S
N1557 C1550 1.356 . S
N1557 H1560 0.984 . S
N1557 H1561 0.985 . S
H1558 N1553 0.984 . S
H1559 N1553 0.985 . S
H1560 N1557 0.984 . S
H1561 N1557 0.985 . S
H1562 N1556 0.984 . S
H1563 N1556 0.984 . S
H1564 N1552 0.984 . S
H1565 N1552 0.985 . S
C1566 C1567 1.363 . S
C1566 C1572 1.379 . S
C1566 N1574 1.356 . S
C1567 C1566 1.363 . S
C1567 C1573 1.363 . S
C1568 C1569 1.363 . S
C1568 C1573 1.379 . S
C1568 N1575 1.356 . S
C1569 C1568 1.363 . S
C1569 C1572 1.363 . S
N1570 C1572 1.356 . S
N1570 H1582 0.984 . S
N1570 H1583 0.985 . S
N1571 C1573 1.356 . S
N1571 H1576 0.984 . S
N1571 H1577 0.985 . S
C1572 C1566 1.379 . S
C1572 C1569 1.363 . S
C1572 N1570 1.356 . S
C1573 C1567 1.363 . S
C1573 C1568 1.379 . S
C1573 N1571 1.356 . S
N1574 C1566 1.356 . S
N1574 H1580 0.984 . S
N1574 H1581 0.984 . S
N1575 C1568 1.356 . S
N1575 H1578 0.984 . S
N1575 H1579 0.985 . S
H1576 N1571 0.984 . S
H1577 N1571 0.985 . S
H1578 N1575 0.984 . S
H1579 N1575 0.985 . S
H1580 N1574 0.984 . S
H1581 N1574 0.984 . S
H1582 N1570 0.984 . S
H1583 N1570 0.985 . S
C1584 C1585 1.363 . S
C1584 C1590 1.379 . S
C1584 N1592 1.356 . S
C1585 C1584 1.363 . S
C1585 C1591 1.363 . S
C1586 C1587 1.363 . S
C1586 C1591 1.379 . S
C1586 N1593 1.356 . S
C1587 C1586 1.363 . S
C1587 C1590 1.363 . S
N1588 C1590 1.356 . S
N1588 H1600 0.984 . S
N1588 H1601 0.985 . S
N1589 C1591 1.356 . S
N1589 H1594 0.984 . S
N1589 H1595 0.985 . S
C1590 C1584 1.379 . S
C1590 C1587 1.363 . S
C1590 N1588 1.356 . S
C1591 C1585 1.363 . S
C1591 C1586 1.379 . S
C1591 N1589 1.356 . S
N1592 C1584 1.356 . S
N1592 H1598 0.984 . S
N1592 H1599 0.984 . S
N1593 C1586 1.356 . S
N1593 H1596 0.984 . S
N1593 H1597 0.985 . S
H1594 N1589 0.984 . S
H1595 N1589 0.985 . S
H1596 N1593 0.984 . S
H1597 N1593 0.985 . S
H1598 N1592 0.984 . S
H1599 N1592 0.984 . S
H1600 N1588 0.984 . S
H1601 N1588 0.985 . S
C1602 C1603 1.363 . S
C1602 C1608 1.379 . S
C1602 N1610 1.356 . S
C1603 C1602 1.363 . S
C1603 C1609 1.363 . S
C1604 C1605 1.363 . S
C1604 C1609 1.379 . S
C1604 N1611 1.356 . S
C1605 C1604 1.363 . S
C1605 C1608 1.363 . S
N1606 C1608 1.356 . S
N1606 H1618 0.984 . S
N1606 H1619 0.985 . S
N1607 C1609 1.356 . S
N1607 H1612 0.984 . S
N1607 H1613 0.985 . S
C1608 C1602 1.379 . S
C1608 C1605 1.363 . S
C1608 N1606 1.356 . S
C1609 C1603 1.363 . S
C1609 C1604 1.379 . S
C1609 N1607 1.356 . S
N1610 C1602 1.356 . S
N1610 H1616 0.984 . S
N1610 H1617 0.984 . S
N1611 C1604 1.356 . S
N1611 H1614 0.984 . S
N1611 H1615 0.985 . S
H1612 N1607 0.984 . S
H1613 N1607 0.985 . S
H1614 N1611 0.984 . S
H1615 N1611 0.985 . S
H1616 N1610 0.984 . S
H1617 N1610 0.984 . S
H1618 N1606 0.984 . S
H1619 N1606 0.985 . S
C1620 C1621 1.363 . S
C1620 C1626 1.379 . S
C1620 N1628 1.356 . S
C1621 C1620 1.363 . S
C1621 C1627 1.363 . S
C1622 C1623 1.363 . S
C1622 C1627 1.379 . S
C1622 N1629 1.356 . S
C1623 C1622 1.363 . S
C1623 C1626 1.363 . S
N1624 C1626 1.356 . S
N1624 H1636 0.984 . S
N1624 H1637 0.985 . S
N1625 C1627 1.356 . S
N1625 H1630 0.984 . S
N1625 H1631 0.985 . S
C1626 C1620 1.379 . S
C1626 C1623 1.363 . S
C1626 N1624 1.356 . S
C1627 C1621 1.363 . S
C1627 C1622 1.379 . S
C1627 N1625 1.356 . S
N1628 C1620 1.356 . S
N1628 H1634 0.984 . S
N1628 H1635 0.984 . S
N1629 C1622 1.356 . S
N1629 H1632 0.984 . S
N1629 H1633 0.985 . S
H1630 N1625 0.984 . S
H1631 N1625 0.985 . S
H1632 N1629 0.984 . S
H1633 N1629 0.985 . S
H1634 N1628 0.984 . S
H1635 N1628 0.984 . S
H1636 N1624 0.984 . S
H1637 N1624 0.985 . S
C1638 C1639 1.363 . S
C1638 C1644 1.379 . S
C1638 N1646 1.356 . S
C1639 C1638 1.363 . S
C1639 C1645 1.363 . S
C1640 C1641 1.363 . S
C1640 C1645 1.379 . S
C1640 N1647 1.356 . S
C1641 C1640 1.363 . S
C1641 C1644 1.363 . S
N1642 C1644 1.356 . S
N1642 H1654 0.984 . S
N1642 H1655 0.985 . S
N1643 C1645 1.356 . S
N1643 H1648 0.984 . S
N1643 H1649 0.985 . S
C1644 C1638 1.379 . S
C1644 C1641 1.363 . S
C1644 N1642 1.356 . S
C1645 C1639 1.363 . S
C1645 C1640 1.379 . S
C1645 N1643 1.356 . S
N1646 C1638 1.356 . S
N1646 H1652 0.984 . S
N1646 H1653 0.984 . S
N1647 C1640 1.356 . S
N1647 H1650 0.984 . S
N1647 H1651 0.985 . S
H1648 N1643 0.984 . S
H1649 N1643 0.985 . S
H1650 N1647 0.984 . S
H1651 N1647 0.985 . S
H1652 N1646 0.984 . S
H1653 N1646 0.984 . S
H1654 N1642 0.984 . S
H1655 N1642 0.985 . S
C1656 C1657 1.363 . S
C1656 C1662 1.379 . S
C1656 N1664 1.356 . S
C1657 C1656 1.363 . S
C1657 C1663 1.363 . S
C1658 C1659 1.363 . S
C1658 C1663 1.379 . S
C1658 N1665 1.356 . S
C1659 C1658 1.363 . S
C1659 C1662 1.363 . S
N1660 C1662 1.356 . S
N1660 H1672 0.984 . S
N1660 H1673 0.985 . S
N1661 C1663 1.356 . S
N1661 H1666 0.984 . S
N1661 H1667 0.985 . S
C1662 C1656 1.379 . S
C1662 C1659 1.363 . S
C1662 N1660 1.356 . S
C1663 C1657 1.363 . S
C1663 C1658 1.379 . S
C1663 N1661 1.356 . S
N1664 C1656 1.356 . S
N1664 H1670 0.984 . S
N1664 H1671 0.984 . S
N1665 C1658 1.356 . S
N1665 H1668 0.984 . S
N1665 H1669 0.985 . S
H1666 N1661 0.984 . S
H1667 N1661 0.985 . S
H1668 N1665 0.984 . S
H1669 N1665 0.985 . S
H1670 N1664 0.984 . S
H1671 N1664 0.984 . S
H1672 N1660 0.984 . S
H1673 N1660 0.985 . S
C1674 C1675 1.363 . S
C1674 C1680 1.379 . S
C1674 N1682 1.356 . S
C1675 C1674 1.363 . S
C1675 C1681 1.363 . S
C1676 C1677 1.363 . S
C1676 C1681 1.379 . S
C1676 N1683 1.356 . S
C1677 C1676 1.363 . S
C1677 C1680 1.363 . S
N1678 C1680 1.356 . S
N1678 H1690 0.984 . S
N1678 H1691 0.985 . S
N1679 C1681 1.356 . S
N1679 H1684 0.984 . S
N1679 H1685 0.985 . S
C1680 C1674 1.379 . S
C1680 C1677 1.363 . S
C1680 N1678 1.356 . S
C1681 C1675 1.363 . S
C1681 C1676 1.379 . S
C1681 N1679 1.356 . S
N1682 C1674 1.356 . S
N1682 H1688 0.984 . S
N1682 H1689 0.984 . S
N1683 C1676 1.356 . S
N1683 H1686 0.984 . S
N1683 H1687 0.985 . S
H1684 N1679 0.984 . S
H1685 N1679 0.985 . S
H1686 N1683 0.984 . S
H1687 N1683 0.985 . S
H1688 N1682 0.984 . S
H1689 N1682 0.984 . S
H1690 N1678 0.984 . S
H1691 N1678 0.985 . S
C721 C539 2.521 . S
C723 C19 2.532 . S
C739 C58 2.066 . S
C741 C578 2.061 . S
C757 C99 2.295 . S
C759 C498 2.342 . S
C775 C98 1.910 . S
C777 C298 1.910 . S
C793 C338 2.216 . S
C795 C18 2.207 . S
C811 C59 2.373 . S
C813 C258 2.422 . S
C829 C130 2.292 . S
C831 C409 2.314 . S
C847 C169 1.774 . S
C849 C449 1.772 . S
C865 C369 2.033 . S
C867 C210 1.981 . S
C883 C649 2.075 . S
C885 C209 2.081 . S
C901 C129 2.336 . S
C903 C690 2.302 . S
C919 C610 2.552 . S
C921 C170 2.515 . S
C937 C339 2.181 . S
C939 C538 2.234 . S
C955 C259 2.424 . S
C957 C579 2.407 . S
C973 C299 2.673 . S
C975 C499 2.702 . S
C991 C370 2.812 . S
C993 C650 2.799 . S
C1009 C689 2.366 . S
C1011 C410 2.343 . S
C1027 C609 2.649 . S
C1029 C450 2.601 . S
C1045 C9 1.450 . S
C1047 C178 1.448 . S
C1063 C219 1.879 . S
C1065 C50 1.881 . S
C1081 C139 1.678 . S
C1083 C89 1.525 . S
C1099 C179 1.906 . S
C1101 C90 1.960 . S
C1117 C218 1.685 . S
C1119 C10 1.725 . S
C1135 C138 1.527 . S
C1137 C49 1.586 . S
C1153 C419 1.984 . S
C1155 C250 1.970 . S
C1171 C459 2.047 . S
C1173 C290 2.033 . S
C1189 C379 2.074 . S
C1191 C330 1.962 . S
C1207 C418 1.510 . S
C1209 C329 1.513 . S
C1225 C458 1.439 . S
C1227 C249 1.581 . S
C1243 C378 1.469 . S
C1245 C289 1.481 . S
C1261 C658 1.591 . S
C1263 C489 1.533 . S
C1279 C699 1.964 . S
C1281 C530 1.912 . S
C1297 C569 1.692 . S
C1299 C619 1.729 . S
C1315 C570 2.075 . S
C1317 C659 2.078 . S
C1333 C490 1.840 . S
C1335 C698 1.686 . S
C1351 C618 1.571 . S
C1353 C529 1.568 . S
C1369 C15 1.381 . S
C1371 C6 1.378 . S
C1387 C46 1.513 . S
C1389 C55 1.513 . S
C1405 C95 1.376 . S
C1407 C86 1.376 . S
C1423 C126 1.488 . S
C1425 C135 1.484 1_455 S
C1441 C166 1.353 . S
C1443 C175 1.353 . S
C1459 C215 1.585 . S
C1461 C206 1.576 . S
C1477 C255 1.768 . S
C1479 C246 1.768 . S
C1495 C286 1.327 . S
C1497 C295 1.327 . S
C1513 C335 1.763 . S
C1515 C326 1.763 . S
C1531 C366 1.333 . S
C1533 C375 1.333 . S
C1549 C406 1.705 . S
C1551 C415 1.705 . S
C1567 C446 1.342 . S
C1569 C455 1.342 . S
C1585 C486 1.362 . S
C1587 C495 1.362 . S
C1603 C526 1.486 . S
C1605 C535 1.486 . S
C1621 C575 1.382 . S
C1623 C566 1.382 . S
C1639 C615 1.548 . S
C1641 C606 1.548 . S
C1657 C646 1.350 . S
C1659 C655 1.350 . S
C1675 C686 1.476 . S
C1677 C695 1.476 . S
