# Generated by pormake.
# Topology ume, (4)-cn, num edge types: 1
# Building blocks:
#     Node 0, Type 0, BuildingBlock: QUQFOY_clean_sbu_3, # of connection points: 4
#     Node 1, Type 0, BuildingBlock: QUQFOY_clean_sbu_3, # of connection points: 4
#     Node 2, Type 0, BuildingBlock: QUQFOY_clean_sbu_3, # of connection points: 4
#     Node 3, Type 0, BuildingBlock: QUQFOY_clean_sbu_3, # of connection points: 4
#     Node 4, Type 0, BuildingBlock: QUQFOY_clean_sbu_3, # of connection points: 4
#     Node 5, Type 0, BuildingBlock: QUQFOY_clean_sbu_3, # of connection points: 4
#     Node 6, Type 0, BuildingBlock: QUQFOY_clean_sbu_3, # of connection points: 4
#     Node 7, Type 0, BuildingBlock: QUQFOY_clean_sbu_3, # of connection points: 4
#     Node 8, Type 0, BuildingBlock: QUQFOY_clean_sbu_3, # of connection points: 4
#     Node 9, Type 0, BuildingBlock: QUQFOY_clean_sbu_3, # of connection points: 4
#     Node 10, Type 0, BuildingBlock: QUQFOY_clean_sbu_3, # of connection points: 4
#     Node 11, Type 0, BuildingBlock: QUQFOY_clean_sbu_3, # of connection points: 4
#     Node 12, Type 0, BuildingBlock: QUQFOY_clean_sbu_3, # of connection points: 4
#     Node 13, Type 0, BuildingBlock: QUQFOY_clean_sbu_3, # of connection points: 4
#     Node 14, Type 0, BuildingBlock: QUQFOY_clean_sbu_3, # of connection points: 4
#     Node 15, Type 0, BuildingBlock: QUQFOY_clean_sbu_3, # of connection points: 4
#     Edge 16, Type (0, 0), BuildingBlock: KIFKEQ_clean_linker_1, # of connection points: 2
#     Edge 17, Type (0, 0), BuildingBlock: KIFKEQ_clean_linker_1, # of connection points: 2
#     Edge 18, Type (0, 0), BuildingBlock: KIFKEQ_clean_linker_1, # of connection points: 2
#     Edge 19, Type (0, 0), BuildingBlock: KIFKEQ_clean_linker_1, # of connection points: 2
#     Edge 20, Type (0, 0), BuildingBlock: KIFKEQ_clean_linker_1, # of connection points: 2
#     Edge 21, Type (0, 0), BuildingBlock: KIFKEQ_clean_linker_1, # of connection points: 2
#     Edge 22, Type (0, 0), BuildingBlock: KIFKEQ_clean_linker_1, # of connection points: 2
#     Edge 23, Type (0, 0), BuildingBlock: KIFKEQ_clean_linker_1, # of connection points: 2
#     Edge 24, Type (0, 0), BuildingBlock: KIFKEQ_clean_linker_1, # of connection points: 2
#     Edge 25, Type (0, 0), BuildingBlock: KIFKEQ_clean_linker_1, # of connection points: 2
#     Edge 26, Type (0, 0), BuildingBlock: KIFKEQ_clean_linker_1, # of connection points: 2
#     Edge 27, Type (0, 0), BuildingBlock: KIFKEQ_clean_linker_1, # of connection points: 2
#     Edge 28, Type (0, 0), BuildingBlock: KIFKEQ_clean_linker_1, # of connection points: 2
#     Edge 29, Type (0, 0), BuildingBlock: KIFKEQ_clean_linker_1, # of connection points: 2
#     Edge 30, Type (0, 0), BuildingBlock: KIFKEQ_clean_linker_1, # of connection points: 2
#     Edge 31, Type (0, 0), BuildingBlock: KIFKEQ_clean_linker_1, # of connection points: 2
#     Edge 32, Type (0, 0), BuildingBlock: KIFKEQ_clean_linker_1, # of connection points: 2
#     Edge 33, Type (0, 0), BuildingBlock: KIFKEQ_clean_linker_1, # of connection points: 2
#     Edge 34, Type (0, 0), BuildingBlock: KIFKEQ_clean_linker_1, # of connection points: 2
#     Edge 35, Type (0, 0), BuildingBlock: KIFKEQ_clean_linker_1, # of connection points: 2
#     Edge 36, Type (0, 0), BuildingBlock: KIFKEQ_clean_linker_1, # of connection points: 2
#     Edge 37, Type (0, 0), BuildingBlock: KIFKEQ_clean_linker_1, # of connection points: 2
#     Edge 38, Type (0, 0), BuildingBlock: KIFKEQ_clean_linker_1, # of connection points: 2
#     Edge 39, Type (0, 0), BuildingBlock: KIFKEQ_clean_linker_1, # of connection points: 2
#     Edge 40, Type (0, 0), BuildingBlock: KIFKEQ_clean_linker_1, # of connection points: 2
#     Edge 41, Type (0, 0), BuildingBlock: KIFKEQ_clean_linker_1, # of connection points: 2
#     Edge 42, Type (0, 0), BuildingBlock: KIFKEQ_clean_linker_1, # of connection points: 2
#     Edge 43, Type (0, 0), BuildingBlock: KIFKEQ_clean_linker_1, # of connection points: 2
#     Edge 44, Type (0, 0), BuildingBlock: KIFKEQ_clean_linker_1, # of connection points: 2
#     Edge 45, Type (0, 0), BuildingBlock: KIFKEQ_clean_linker_1, # of connection points: 2
#     Edge 46, Type (0, 0), BuildingBlock: KIFKEQ_clean_linker_1, # of connection points: 2
#     Edge 47, Type (0, 0), BuildingBlock: KIFKEQ_clean_linker_1, # of connection points: 2
# Relax obj value: 0.095
# Max RMSD: 0.141
# Mean RMSD: 0.141
data_MOF--net-ume--node1-QUQFOY_clean_sbu_3--edge1-KIFKEQ_clean_linker_1
_symmetry_space_group_name_H-M    P1
_symmetry_Int_Tables_number       1
_symmetry_cell_setting            triclinic
loop_
_symmetry_equiv_pos_as_xyz
'x, y, z'
_cell_length_a     28.482844
_cell_length_b     28.464969
_cell_length_c     116.91135
_cell_angle_alpha  89.811003
_cell_angle_beta   90.202043
_cell_angle_gamma 89.917984
loop_
_atom_site_label
_atom_site_type_symbol
_atom_site_fract_x
_atom_site_fract_y
_atom_site_fract_z
_atom_type_partial_charge
C0 C 0.26561 0.2262 0.27454 0.0
O1 O 0.29195 0.24919 0.28126 0.0
Cd2 Cd 0.32063 0.20818 0.29806 0.0
O3 O 0.2539 0.18444 0.27705 0.0
Cd4 Cd 0.25955 0.12476 0.29182 0.0
C5 C 0.37455 0.10975 0.28724 0.0
O6 O 0.25659 0.17477 0.30898 0.0
O7 O 0.27724 0.10199 0.31111 0.0
O8 O 0.17653 0.11948 0.28781 0.0
C9 C 0.26571 0.14062 0.31567 0.0
O10 O 0.3788 0.14916 0.29228 0.0
C11 C 0.17491 0.07509 0.28715 0.0
O12 O 0.33401 0.09313 0.28508 0.0
O13 O 0.21323 0.05292 0.28866 0.0
C14 C 0.75861 0.77358 0.52326 0.0
O15 O 0.73991 0.80454 0.52957 0.0
Cd16 Cd 0.78272 0.83087 0.54628 0.0
O17 O 0.79941 0.75814 0.52552 0.0
Cd18 Cd 0.86282 0.76542 0.53933 0.0
C19 C 0.88109 0.88154 0.53507 0.0
O20 O 0.8141 0.7644 0.55686 0.0
O21 O 0.88919 0.77508 0.55854 0.0
O22 O 0.8675 0.6824 0.53503 0.0
C23 C 0.84996 0.76798 0.56329 0.0
O24 O 0.84258 0.88703 0.54039 0.0
C25 C 0.91178 0.68072 0.5341 0.0
O26 O 0.89581 0.84044 0.53268 0.0
O27 O 0.93397 0.71903 0.53544 0.0
C28 C 0.25887 0.27527 0.77276 0.0
O29 O 0.23174 0.25192 0.77921 0.0
Cd30 Cd 0.20171 0.2888 0.79634 0.0
O31 O 0.27244 0.31592 0.77571 0.0
Cd32 Cd 0.26936 0.37193 0.79129 0.0
C33 C 0.15479 0.39249 0.78607 0.0
O34 O 0.265 0.31853 0.80798 0.0
O35 O 0.25321 0.39298 0.81059 0.0
O36 O 0.35334 0.37434 0.78843 0.0
C37 C 0.25788 0.35229 0.81486 0.0
O38 O 0.14828 0.35204 0.79049 0.0
C39 C 0.3563 0.41871 0.78778 0.0
O40 O 0.19622 0.40816 0.78459 0.0
O41 O 0.31835 0.44194 0.78872 0.0
C42 C 0.72359 0.76144 0.02238 0.0
O43 O 0.74883 0.73549 0.02875 0.0
Cd44 Cd 0.71331 0.70446 0.04594 0.0
O45 O 0.68281 0.77335 0.0256 0.0
Cd46 Cd 0.62981 0.76835 0.04175 0.0
C47 C 0.61093 0.65497 0.03589 0.0
O48 O 0.68316 0.76471 0.05845 0.0
O49 O 0.61093 0.74263 0.0606 0.0
O50 O 0.62619 0.8529 0.03987 0.0
C51 C 0.6502 0.75237 0.06513 0.0
O52 O 0.65155 0.64907 0.04028 0.0
C53 C 0.58178 0.85582 0.0395 0.0
O54 O 0.59434 0.6962 0.03449 0.0
O55 O 0.55894 0.81756 0.04019 0.0
C56 C 0.24316 0.26375 0.94081 0.0
O57 O 0.27204 0.24541 0.93388 0.0
Cd58 Cd 0.28992 0.28329 0.91587 0.0
O59 O 0.22318 0.30249 0.93843 0.0
Cd60 Cd 0.21786 0.36225 0.92355 0.0
C61 C 0.33407 0.38814 0.92566 0.0
O62 O 0.21861 0.30993 0.90677 0.0
O63 O 0.22081 0.38515 0.90391 0.0
O64 O 0.13508 0.36304 0.9285 0.0
C65 C 0.21867 0.34416 0.89977 0.0
O66 O 0.34095 0.34893 0.92072 0.0
C67 C 0.13189 0.40732 0.92943 0.0
O68 O 0.29269 0.40109 0.92836 0.0
O69 O 0.16917 0.43092 0.92784 0.0
C70 C 0.71595 0.75106 0.19339 0.0
O71 O 0.74059 0.7777 0.18711 0.0
Cd72 Cd 0.70483 0.81073 0.17017 0.0
O73 O 0.67503 0.73913 0.19021 0.0
Cd74 Cd 0.62189 0.74544 0.1739 0.0
C75 C 0.60125 0.85811 0.18016 0.0
O76 O 0.6764 0.75031 0.15756 0.0
O77 O 0.60419 0.77167 0.15489 0.0
O78 O 0.61884 0.66074 0.17546 0.0
C79 C 0.64404 0.7625 0.15065 0.0
O80 O 0.64198 0.86464 0.17597 0.0
C81 C 0.57445 0.65755 0.17547 0.0
O82 O 0.58504 0.81667 0.1813 0.0
O83 O 0.55136 0.69574 0.17479 0.0
C84 C 0.23002 0.21828 0.44188 0.0
O85 O 0.20246 0.24115 0.43538 0.0
Cd86 Cd 0.16973 0.20172 0.41894 0.0
O87 O 0.24188 0.17661 0.43934 0.0
Cd88 Cd 0.23409 0.11797 0.42438 0.0
C89 C 0.11972 0.10175 0.43022 0.0
O90 O 0.23163 0.16894 0.40742 0.0
O91 O 0.21147 0.09614 0.40527 0.0
O92 O 0.31861 0.11264 0.42506 0.0
C93 C 0.22112 0.13547 0.40073 0.0
O94 O 0.11406 0.14165 0.42543 0.0
C95 C 0.32086 0.06918 0.42739 0.0
O96 O 0.16081 0.08503 0.43174 0.0
O97 O 0.28209 0.04744 0.42837 0.0
C98 C 0.78869 0.73095 0.69067 0.0
O99 O 0.76473 0.70395 0.68432 0.0
Cd100 Cd 0.80221 0.67469 0.66715 0.0
O101 O 0.82962 0.74321 0.68767 0.0
Cd102 Cd 0.88608 0.73776 0.67233 0.0
C103 C 0.90333 0.62232 0.67695 0.0
O104 O 0.83181 0.7393 0.65574 0.0
O105 O 0.90571 0.72546 0.65276 0.0
O106 O 0.89138 0.82062 0.67646 0.0
C107 C 0.86526 0.73378 0.64869 0.0
O108 O 0.86284 0.61727 0.67246 0.0
C109 C 0.93583 0.82243 0.67673 0.0
O110 O 0.91992 0.66322 0.67867 0.0
O111 O 0.95791 0.7843 0.67498 0.0
C112 C 0.76544 0.71966 0.77253 0.0
O113 O 0.7924 0.74342 0.77893 0.0
Cd114 Cd 0.82203 0.70465 0.79601 0.0
O115 O 0.75327 0.6786 0.7755 0.0
Cd116 Cd 0.75913 0.62209 0.79091 0.0
C117 C 0.87371 0.60427 0.78588 0.0
O118 O 0.75935 0.6742 0.80789 0.0
O119 O 0.77533 0.60012 0.81014 0.0
O120 O 0.67553 0.61774 0.78756 0.0
C121 C 0.7663 0.63959 0.8146 0.0
O122 O 0.87907 0.64439 0.79049 0.0
C123 C 0.67338 0.57331 0.78711 0.0
O124 O 0.83269 0.58792 0.78416 0.0
O125 O 0.71168 0.55084 0.78835 0.0
C126 C 0.27976 0.26971 0.02292 0.0
O127 O 0.25883 0.29999 0.029 0.0
Cd128 Cd 0.29583 0.32777 0.04626 0.0
O129 O 0.3197 0.25406 0.02593 0.0
Cd130 Cd 0.37687 0.26076 0.04143 0.0
C131 C 0.39847 0.37491 0.03618 0.0
O132 O 0.3231 0.26296 0.05793 0.0
O133 O 0.39604 0.28054 0.06083 0.0
O134 O 0.38113 0.17644 0.03889 0.0
C135 C 0.35604 0.27146 0.06498 0.0
O136 O 0.35869 0.38163 0.04084 0.0
C137 C 0.42554 0.17378 0.03876 0.0
O138 O 0.41331 0.33333 0.0344 0.0
O139 O 0.44807 0.21206 0.03978 0.0
C140 C 0.75324 0.77626 0.27519 0.0
O141 O 0.72604 0.75552 0.28214 0.0
Cd142 Cd 0.7025 0.79557 0.29942 0.0
O143 O 0.76956 0.81655 0.27757 0.0
Cd144 Cd 0.77209 0.87617 0.29237 0.0
C145 C 0.65653 0.89909 0.28879 0.0
O146 O 0.77109 0.82429 0.30929 0.0
O147 O 0.7645 0.89939 0.31189 0.0
O148 O 0.85512 0.87731 0.2879 0.0
C149 C 0.76844 0.85863 0.31617 0.0
O150 O 0.64989 0.85956 0.29367 0.0
C151 C 0.85824 0.92163 0.28703 0.0
O152 O 0.69797 0.9133 0.28662 0.0
O153 O 0.82079 0.94519 0.28848 0.0
C154 C 0.21315 0.26241 0.52288 0.0
O155 O 0.23488 0.23471 0.52959 0.0
Cd156 Cd 0.19684 0.20779 0.54687 0.0
O157 O 0.17268 0.27767 0.5255 0.0
Cd158 Cd 0.11374 0.2778 0.54045 0.0
C159 C 0.09317 0.16196 0.53628 0.0
O160 O 0.16715 0.27492 0.55701 0.0
O161 O 0.0926 0.26751 0.56011 0.0
O162 O 0.11142 0.36117 0.53621 0.0
C163 C 0.13384 0.27057 0.56413 0.0
O164 O 0.13309 0.15528 0.54097 0.0
C165 C 0.06706 0.36411 0.53552 0.0
O166 O 0.07808 0.20349 0.53442 0.0
O167 O 0.04391 0.32647 0.53705 0.0
C168 C 0.73846 0.76535 0.44237 0.0
O169 O 0.76972 0.74651 0.43618 0.0
Cd170 Cd 0.79755 0.78663 0.41923 0.0
O171 O 0.72155 0.80521 0.43973 0.0
Cd172 Cd 0.72575 0.86636 0.42525 0.0
C173 C 0.84065 0.88926 0.43052 0.0
O174 O 0.73341 0.81761 0.40798 0.0
O175 O 0.74238 0.89302 0.40634 0.0
O176 O 0.64088 0.86817 0.42567 0.0
C177 C 0.73945 0.85324 0.40156 0.0
O178 O 0.84841 0.85003 0.42567 0.0
C179 C 0.63716 0.91088 0.42859 0.0
O180 O 0.7987 0.9033 0.43222 0.0
O181 O 0.67515 0.93349 0.43009 0.0
C182 C 0.23514 0.23991 0.69077 0.0
O183 O 0.25715 0.26683 0.68399 0.0
Cd184 Cd 0.21761 0.293 0.66669 0.0
O185 O 0.19457 0.22512 0.68812 0.0
Cd186 Cd 0.13669 0.22553 0.67289 0.0
C187 C 0.11507 0.34066 0.67695 0.0
O188 O 0.18753 0.22773 0.65574 0.0
O189 O 0.11239 0.23774 0.65367 0.0
O190 O 0.13499 0.14177 0.67648 0.0
C191 C 0.15232 0.23262 0.64911 0.0
O192 O 0.15483 0.34697 0.67224 0.0
C193 C 0.09075 0.13886 0.67744 0.0
O194 O 0.1002 0.29927 0.67898 0.0
O195 O 0.06741 0.17677 0.67642 0.0
C196 C 0.72423 0.7157 0.94086 0.0
O197 O 0.69755 0.7382 0.93406 0.0
Cd198 Cd 0.6706 0.69871 0.91694 0.0
O199 O 0.73717 0.67424 0.93844 0.0
Cd200 Cd 0.73323 0.61433 0.92378 0.0
C201 C 0.61639 0.59912 0.92697 0.0
O202 O 0.73773 0.66702 0.90695 0.0
O203 O 0.72609 0.59267 0.90413 0.0
O204 O 0.81514 0.6079 0.92914 0.0
C205 C 0.73412 0.63303 0.89999 0.0
O206 O 0.61237 0.63904 0.92211 0.0
C207 C 0.81634 0.56342 0.92956 0.0
O208 O 0.65683 0.58244 0.92933 0.0
O209 O 0.77826 0.54188 0.92742 0.0
C210 C 0.27758 0.24951 0.19284 0.0
O211 O 0.25202 0.22301 0.18676 0.0
Cd212 Cd 0.28751 0.18928 0.16992 0.0
O213 O 0.31856 0.26017 0.18952 0.0
Cd214 Cd 0.37128 0.25175 0.17337 0.0
C215 C 0.38963 0.13907 0.18006 0.0
O216 O 0.31689 0.24835 0.15689 0.0
O217 O 0.38841 0.22437 0.15452 0.0
O218 O 0.37542 0.33624 0.17483 0.0
C219 C 0.34915 0.23529 0.15011 0.0
O220 O 0.34878 0.13331 0.17581 0.0
C221 C 0.41983 0.339 0.17493 0.0
O222 O 0.40663 0.1802 0.18113 0.0
O223 O 0.44258 0.30062 0.17428 0.0
H224 H 0.93943 0.88069 0.27982 0.0
H225 H 0.88033 0.014 0.28993 0.0
H226 H 0.01646 0.91701 0.27801 0.0
H227 H 0.95754 0.04997 0.28863 0.0
H228 H 0.15359 0.98313 0.2914 0.0
H229 H 0.07672 0.94597 0.29 0.0
H230 H 0.01833 0.07521 0.27652 0.0
H231 H 0.09463 0.11271 0.27844 0.0
C232 C 0.94294 0.91782 0.28163 0.0
C233 C 0.90395 0.94451 0.28506 0.0
C234 C 0.98715 0.93858 0.28067 0.0
C235 C 0.99344 0.98637 0.28326 0.0
C236 C 0.95402 0.01326 0.2864 0.0
C237 C 0.90971 0.99261 0.28721 0.0
C238 C 0.12435 0.00335 0.28805 0.0
C239 C 0.1299 0.05088 0.28515 0.0
C240 C 0.08029 0.98204 0.28718 0.0
C241 C 0.04108 0.0077 0.28324 0.0
C242 C 0.04739 0.05469 0.27985 0.0
C243 C 0.09121 0.07612 0.28088 0.0
H244 H 0.87382 0.59941 0.52618 0.0
H245 H 0.00416 0.66007 0.53792 0.0
H246 H 0.91154 0.52288 0.52473 0.0
H247 H 0.04154 0.58316 0.537 0.0
H248 H 0.9749 0.38631 0.53884 0.0
H249 H 0.93828 0.46334 0.53715 0.0
H250 H 0.06989 0.52167 0.52548 0.0
H251 H 0.10685 0.44497 0.52769 0.0
C252 C 0.91063 0.59633 0.52842 0.0
C253 C 0.93603 0.63559 0.53222 0.0
C254 C 0.93219 0.55239 0.52768 0.0
C255 C 0.97948 0.54656 0.53088 0.0
C256 C 0.00524 0.58631 0.53433 0.0
C257 C 0.98381 0.63043 0.53491 0.0
C258 C 0.99584 0.41555 0.53583 0.0
C259 C 0.04376 0.40973 0.53348 0.0
C260 C 0.97482 0.45973 0.53478 0.0
C261 C 0.00114 0.49895 0.53121 0.0
C262 C 0.04875 0.49257 0.52847 0.0
C263 C 0.06989 0.44853 0.52967 0.0
H264 H 0.6525 0.4816 0.79171 0.0
H265 H 0.59156 0.61126 0.77936 0.0
H266 H 0.57552 0.44446 0.79104 0.0
H267 H 0.51501 0.57375 0.77815 0.0
H268 H 0.378 0.5108 0.79147 0.0
H269 H 0.45512 0.54737 0.79041 0.0
H270 H 0.5149 0.41555 0.77925 0.0
H271 H 0.43815 0.37868 0.78083 0.0
C272 C 0.62275 0.50187 0.78866 0.0
C273 C 0.6279 0.54935 0.78567 0.0
C274 C 0.57862 0.48057 0.78821 0.0
C275 C 0.53885 0.50617 0.7846 0.0
C276 C 0.54456 0.55325 0.78122 0.0
C277 C 0.58851 0.57468 0.78183 0.0
C278 C 0.40762 0.4898 0.78873 0.0
C279 C 0.40217 0.44188 0.78631 0.0
C280 C 0.45184 0.51077 0.78805 0.0
C281 C 0.49142 0.4844 0.78478 0.0
C282 C 0.48548 0.43672 0.78203 0.0
C283 C 0.44142 0.41564 0.78286 0.0
H284 H 0.38761 0.09105 0.03173 0.0
H285 H 0.51699 0.15283 0.04376 0.0
H286 H 0.42529 0.01438 0.03097 0.0
H287 H 0.55432 0.07574 0.04353 0.0
H288 H 0.62093 0.93877 0.03301 0.0
H289 H 0.58352 0.01549 0.03183 0.0
H290 H 0.45269 0.95412 0.0431 0.0
H291 H 0.48985 0.87695 0.04374 0.0
C292 C 0.42415 0.08816 0.03425 0.0
C293 C 0.44938 0.12789 0.03782 0.0
C294 C 0.44568 0.04411 0.0339 0.0
C295 C 0.49281 0.03861 0.03727 0.0
C296 C 0.51819 0.07863 0.04071 0.0
C297 C 0.49678 0.12285 0.0409 0.0
C298 C 0.58409 0.94168 0.03517 0.0
C299 C 0.55829 0.90191 0.03849 0.0
C300 C 0.56269 0.98576 0.03458 0.0
C301 C 0.51509 0.99126 0.03744 0.0
C302 C 0.48921 0.95123 0.04066 0.0
C303 C 0.51051 0.90697 0.0411 0.0
H304 H 0.11008 0.50022 0.9272 0.0
H305 H 0.05051 0.36596 0.93644 0.0
H306 H 0.03305 0.53652 0.92877 0.0
H307 H 0.97361 0.40255 0.9385 0.0
H308 H 0.83719 0.4716 0.92509 0.0
H309 H 0.91366 0.43354 0.92659 0.0
H310 H 0.97205 0.56054 0.94099 0.0
H311 H 0.89609 0.59902 0.93899 0.0
C312 C 0.08064 0.47865 0.92979 0.0
C313 C 0.08625 0.43022 0.93162 0.0
C314 C 0.03643 0.49949 0.93076 0.0
C315 C 0.99689 0.47246 0.93372 0.0
C316 C 0.00301 0.42428 0.93598 0.0
C317 C 0.04716 0.40335 0.93488 0.0
C318 C 0.86629 0.49112 0.9287 0.0
C319 C 0.86085 0.53838 0.93181 0.0
C320 C 0.91014 0.46927 0.92962 0.0
C321 C 0.94929 0.49409 0.93382 0.0
C322 C 0.94303 0.54069 0.93747 0.0
C323 C 0.89941 0.56267 0.93639 0.0
H324 H 0.38119 0.42197 0.18147 0.0
H325 H 0.51126 0.36007 0.17004 0.0
H326 H 0.41848 0.49863 0.18231 0.0
H327 H 0.54828 0.43729 0.17033 0.0
H328 H 0.61366 0.57415 0.18177 0.0
H329 H 0.57664 0.49723 0.18232 0.0
H330 H 0.44645 0.55914 0.17045 0.0
H331 H 0.48314 0.63644 0.17044 0.0
C332 C 0.41777 0.42486 0.17907 0.0
C333 C 0.44334 0.38507 0.17567 0.0
C334 C 0.4391 0.46892 0.17946 0.0
C335 C 0.48636 0.47441 0.17631 0.0
C336 C 0.51202 0.43439 0.17299 0.0
C337 C 0.4908 0.39012 0.17275 0.0
C338 C 0.57704 0.5713 0.17934 0.0
C339 C 0.55125 0.61127 0.17606 0.0
C340 C 0.55588 0.52711 0.17957 0.0
C341 C 0.50856 0.52173 0.17637 0.0
C342 C 0.48273 0.56193 0.17315 0.0
C343 C 0.50378 0.60627 0.17308 0.0
H344 H 0.33845 0.9787 0.43431 0.0
H345 H 0.40716 0.10637 0.42342 0.0
H346 H 0.41483 0.94009 0.43607 0.0
H347 H 0.48293 0.06763 0.42478 0.0
H348 H 0.61688 0.99889 0.43656 0.0
H349 H 0.5399 0.03634 0.43767 0.0
H350 H 0.47562 0.91089 0.424 0.0
H351 H 0.5521 0.87311 0.42329 0.0
C352 C 0.36982 0.99844 0.43228 0.0
C353 C 0.36678 0.04549 0.4287 0.0
C354 C 0.41357 0.97632 0.43323 0.0
C355 C 0.45511 0.00073 0.43056 0.0
C356 C 0.45186 0.04795 0.42711 0.0
C357 C 0.40829 0.07008 0.42623 0.0
C358 C 0.58621 0.97927 0.43389 0.0
C359 C 0.59057 0.93318 0.42979 0.0
C360 C 0.54211 0.00077 0.43446 0.0
C361 C 0.50151 0.97674 0.43086 0.0
C362 C 0.50594 0.93025 0.427 0.0
C363 C 0.54991 0.90868 0.42651 0.0
H364 H 0.13159 0.05649 0.68402 0.0
H365 H 0.99814 0.11768 0.67451 0.0
H366 H 0.09491 0.97948 0.6855 0.0
H367 H 0.96174 0.04048 0.67548 0.0
H368 H 0.02714 0.84393 0.67198 0.0
H369 H 0.06461 0.92065 0.67332 0.0
H370 H 0.93706 0.9787 0.68748 0.0
H371 H 0.89918 0.90254 0.68562 0.0
C372 C 0.09435 0.05343 0.68225 0.0
C373 C 0.06771 0.09301 0.67911 0.0
C374 C 0.07339 0.00924 0.68302 0.0
C375 C 0.02541 0.00357 0.68052 0.0
C376 C -0.0014 0.04352 0.67763 0.0
C377 C 0.01948 0.08781 0.67701 0.0
C378 C 0.00734 0.87306 0.67546 0.0
C379 C 0.96018 0.86744 0.6786 0.0
C380 C 0.02884 0.91702 0.6763 0.0
C381 C 0.00376 0.95608 0.68044 0.0
C382 C 0.95711 0.94975 0.68401 0.0
C383 C 0.93548 0.90601 0.68302 0.0
H384 H 0.65642 0.98888 0.28012 0.0
H385 H 0.56369 0.87846 0.29164 0.0
H386 H 0.58893 0.04084 0.27744 0.0
H387 H 0.49675 0.93048 0.28918 0.0
H388 H 0.37918 0.02275 0.27733 0.0
H389 H 0.44803 0.97239 0.27549 0.0
H390 H 0.53463 0.08151 0.29006 0.0
H391 H 0.46618 0.1322 0.29168 0.0
C392 C 0.62168 0.97553 0.28199 0.0
C393 C 0.61556 0.92957 0.28618 0.0
C394 C 0.58304 0.0054 0.28051 0.0
C395 C 0.53744 0.9899 0.28313 0.0
C396 C 0.53126 0.94342 0.28693 0.0
C397 C 0.56979 0.91365 0.28843 0.0
C398 C 0.41301 0.0363 0.27998 0.0
C399 C 0.41701 0.08138 0.28477 0.0
C400 C 0.45244 0.0073 0.27898 0.0
C401 C 0.49677 0.02271 0.28274 0.0
C402 C 0.50113 0.06864 0.28699 0.0
C403 C 0.46174 0.09764 0.28799 0.0
H404 H 0.85977 0.97377 0.53886 0.0
H405 H 0.96916 0.88398 0.52559 0.0
H406 H 0.91124 0.0413 0.53708 0.0
H407 H 0.02049 0.9521 0.52356 0.0
H408 H 0.11399 0.06898 0.53934 0.0
H409 H 0.06226 0.00199 0.53687 0.0
H410 H 0.95264 0.09417 0.52444 0.0
H411 H 0.0042 0.16165 0.52716 0.0
C412 C 0.89455 0.96849 0.53537 0.0
C413 C 0.91046 0.92326 0.53249 0.0
C414 C 0.92402 0.0074 0.53427 0.0
C415 C 0.97016 0.00214 0.53025 0.0
C416 C 0.98538 0.95725 0.52686 0.0
C417 C 0.95584 0.91824 0.52796 0.0
C418 C 0.07903 0.07506 0.53597 0.0
C419 C 0.06314 0.12087 0.53357 0.0
C420 C 0.04943 0.03647 0.53446 0.0
C421 C 0.00316 0.04265 0.5305 0.0
C422 C 0.98786 0.08825 0.52766 0.0
C423 C 0.01751 0.12692 0.52917 0.0
H424 H 0.15408 0.48233 0.77745 0.0
H425 H 0.06203 0.37105 0.7888 0.0
H426 H 0.08641 0.53417 0.77503 0.0
H427 H 0.99492 0.42303 0.78667 0.0
H428 H 0.87639 0.51685 0.7761 0.0
H429 H 0.94462 0.46596 0.77377 0.0
H430 H 0.03365 0.5744 0.78779 0.0
H431 H 0.96589 0.62559 0.78984 0.0
C432 C 0.11944 0.46876 0.77933 0.0
C433 C 0.1136 0.42261 0.78341 0.0
C434 C 0.08067 0.49857 0.77801 0.0
C435 C 0.03522 0.48292 0.78073 0.0
C436 C 0.02927 0.43617 0.78435 0.0
C437 C 0.06793 0.40639 0.78566 0.0
C438 C 0.91062 0.53008 0.77854 0.0
C439 C 0.91554 0.57517 0.78327 0.0
C440 C 0.94971 0.5008 0.77725 0.0
C441 C 0.99461 0.51589 0.78069 0.0
C442 C -0.00025 0.56175 0.78494 0.0
C443 C 0.96073 0.59104 0.78619 0.0
H444 H 0.52256 0.65312 0.0265 0.0
H445 H 0.63268 0.56243 0.03937 0.0
H446 H 0.47143 0.58514 0.02417 0.0
H447 H 0.58127 0.49492 0.03734 0.0
H448 H 0.37797 0.4677 0.0393 0.0
H449 H 0.42996 0.53453 0.03712 0.0
H450 H 0.5394 0.44272 0.02475 0.0
H451 H 0.48751 0.37526 0.02722 0.0
C452 C 0.53604 0.61869 0.02874 0.0
C453 C 0.5816 0.61337 0.03323 0.0
C454 C 0.50662 0.57973 0.02746 0.0
C455 C 0.52203 0.53457 0.03068 0.0
C456 C 0.56833 0.52903 0.03467 0.0
C457 C 0.59777 0.56791 0.03591 0.0
C458 C 0.41293 0.46166 0.03599 0.0
C459 C 0.42866 0.41594 0.03354 0.0
C460 C 0.44271 0.50018 0.03465 0.0
C461 C 0.48899 0.49408 0.0308 0.0
C462 C 0.50417 0.44859 0.02789 0.0
C463 C 0.47433 0.40993 0.02925 0.0
H464 H 0.33398 0.47859 0.93387 0.0
H465 H 0.42673 0.36821 0.92238 0.0
H466 H 0.40145 0.53077 0.93622 0.0
H467 H 0.49349 0.4203 0.92451 0.0
H468 H 0.61114 0.5114 0.93662 0.0
H469 H 0.54208 0.46138 0.93827 0.0
H470 H 0.45629 0.57153 0.92359 0.0
H471 H 0.52501 0.62191 0.92216 0.0
C472 C 0.36869 0.46533 0.93192 0.0
C473 C 0.37484 0.41926 0.92787 0.0
C474 C 0.40731 0.4953 0.93321 0.0
C475 C 0.45289 0.47974 0.93055 0.0
C476 C 0.45904 0.43328 0.92681 0.0
C477 C 0.42057 0.40347 0.92549 0.0
C478 C 0.57746 0.52522 0.93388 0.0
C479 C 0.57378 0.57055 0.92915 0.0
C480 C 0.5379 0.49643 0.93478 0.0
C481 C 0.49372 0.51226 0.93095 0.0
C482 C 0.48967 0.55834 0.9267 0.0
C483 C 0.52921 0.58715 0.92581 0.0
H484 H 0.51218 0.85879 0.18907 0.0
H485 H 0.62259 0.95095 0.17734 0.0
H486 H 0.4606 0.92647 0.19156 0.0
H487 H 0.57083 0.01809 0.1795 0.0
H488 H 0.36781 0.04658 0.17682 0.0
H489 H 0.41914 0.97894 0.17902 0.0
H490 H 0.52882 0.06888 0.19213 0.0
H491 H 0.47777 0.13701 0.1896 0.0
C492 C 0.52561 0.89346 0.18711 0.0
C493 C 0.57143 0.89932 0.1829 0.0
C494 C 0.49594 0.93226 0.18848 0.0
C495 C 0.51136 0.97778 0.18565 0.0
C496 C 0.55785 0.98373 0.18191 0.0
C497 C 0.58751 0.94504 0.18058 0.0
C498 C 0.40266 0.05197 0.18031 0.0
C499 C 0.41882 0.09739 0.18289 0.0
C500 C 0.43207 0.01301 0.18165 0.0
C501 C 0.47833 0.0184 0.18567 0.0
C502 C 0.49369 0.06354 0.18881 0.0
C503 C 0.46431 0.1026 0.18742 0.0
H504 H 0.83947 0.97944 0.43891 0.0
H505 H 0.93379 0.86851 0.42853 0.0
H506 H 0.90646 0.03197 0.44147 0.0
H507 H 6e-05 0.921 0.43078 0.0
H508 H 0.11734 0.01547 0.44073 0.0
H509 H 0.04927 0.96487 0.44349 0.0
H510 H 0.95975 0.07208 0.42881 0.0
H511 H 0.02734 0.12304 0.42636 0.0
C512 C 0.87444 0.96608 0.43729 0.0
C513 C 0.88113 0.91986 0.4334 0.0
C514 C 0.91282 0.99627 0.43869 0.0
C515 C 0.9587 0.98087 0.43625 0.0
C516 C 0.96541 0.93401 0.43287 0.0
C517 C 0.92719 0.90392 0.43149 0.0
C518 C 0.08303 0.02853 0.43825 0.0
C519 C 0.07796 0.07315 0.4332 0.0
C520 C 0.04401 -0.00059 0.43978 0.0
C521 C -0.00098 0.01414 0.43625 0.0
C522 C 0.99369 0.05968 0.43173 0.0
C523 C 0.03264 0.08884 0.43025 0.0
H524 H 0.13594 0.43332 0.67365 0.0
H525 H 0.02566 0.34157 0.68566 0.0
H526 H 0.08401 0.50049 0.6756 0.0
H527 H 0.97384 0.40932 0.68786 0.0
H528 H 0.88159 0.53019 0.67301 0.0
H529 H 0.93278 0.46219 0.67497 0.0
H530 H 0.04228 0.5508 0.68867 0.0
H531 H 0.99141 0.61919 0.68645 0.0
C532 C 0.10082 0.4275 0.67688 0.0
C533 C 0.08488 0.3819 0.67939 0.0
C534 C 0.07109 0.46619 0.67808 0.0
C535 C 0.02465 0.46034 0.68185 0.0
C536 C 0.00921 0.41496 0.68479 0.0
C537 C 0.03901 0.37616 0.68358 0.0
C538 C 0.91638 0.53519 0.67656 0.0
C539 C 0.93253 0.58031 0.67944 0.0
C540 C 0.94568 0.49605 0.67776 0.0
C541 C 0.9918 0.50104 0.6819 0.0
C542 C 0.00722 0.54585 0.68527 0.0
C543 C 0.97794 0.58504 0.68405 0.0
H544 H 0.23237 0.21496 0.32815 0.0
H545 H 0.28748 0.07394 0.33143 0.0
H546 H 0.21876 0.21706 0.34883 0.0
H547 H 0.27462 0.07638 0.35192 0.0
H548 H 0.19524 0.0712 0.3848 0.0
H549 H 0.20491 0.07617 0.3642 0.0
H550 H 0.26206 0.21595 0.36761 0.0
H551 H 0.25159 0.21136 0.38836 0.0
C552 C 0.24194 0.18468 0.33329 0.0
C553 C 0.26057 0.14415 0.32817 0.0
C554 C 0.23426 0.18593 0.3451 0.0
C555 C 0.245 0.14661 0.35193 0.0
C556 C 0.26499 0.10679 0.34683 0.0
C557 C 0.27264 0.10554 0.33509 0.0
C558 C 0.20951 0.10318 0.38118 0.0
C559 C 0.22314 0.1407 0.3882 0.0
C560 C 0.21526 0.10592 0.36938 0.0
C561 C 0.23493 0.14615 0.36433 0.0
C562 C 0.24673 0.18456 0.37128 0.0
C563 C 0.24089 0.18185 0.38314 0.0
H564 H 0.77662 0.78599 0.57776 0.0
H565 H 0.9182 0.7319 0.5767 0.0
H566 H 0.77707 0.77866 0.59868 0.0
H567 H 0.91793 0.72193 0.59727 0.0
H568 H 0.93101 0.76195 0.63365 0.0
H569 H 0.92343 0.77083 0.61313 0.0
H570 H 0.77817 0.72735 0.61504 0.0
H571 H 0.78541 0.72107 0.6359 0.0
C572 C 0.80747 0.77193 0.58201 0.0
C573 C 0.84766 0.76027 0.57571 0.0
C574 C 0.80771 0.7675 0.59395 0.0
C575 C 0.84791 0.75059 0.59969 0.0
C576 C 0.88699 0.73668 0.59321 0.0
C577 C 0.88709 0.74206 0.5814 0.0
C578 C 0.89741 0.75437 0.6297 0.0
C579 C 0.85894 0.74029 0.6363 0.0
C580 C 0.89308 0.75912 0.61791 0.0
C581 C 0.85047 0.74873 0.61237 0.0
C582 C 0.81146 0.73575 0.61903 0.0
C583 C 0.81559 0.73192 0.63094 0.0
H584 H 0.2389 0.27092 0.8267 0.0
H585 H 0.26864 0.41856 0.83109 0.0
H586 H 0.2254 0.26339 0.84737 0.0
H587 H 0.25689 0.41089 0.8515 0.0
H588 H 0.25362 0.27041 0.88738 0.0
H589 H 0.26313 0.26761 0.86652 0.0
H590 H 0.18983 0.40019 0.8635 0.0
H591 H 0.1823 0.40375 0.88414 0.0
C592 C 0.24313 0.30149 0.8321 0.0
C593 C 0.25413 0.34545 0.82731 0.0
C594 C 0.23548 0.29719 0.8439 0.0
C595 C 0.23904 0.33678 0.85102 0.0
C596 C 0.25232 0.38004 0.84621 0.0
C597 C 0.2594 0.38439 0.83451 0.0
C598 C 0.23906 0.29846 0.88217 0.0
C599 C 0.21798 0.33768 0.88731 0.0
C600 C 0.24442 0.29686 0.87027 0.0
C601 C 0.22826 0.33426 0.8634 0.0
C602 C 0.20406 0.37159 0.86857 0.0
C603 C 0.19945 0.37352 0.88039 0.0
H604 H 0.58772 0.71843 0.08043 0.0
H605 H 0.72498 0.78242 0.07815 0.0
H606 H 0.59179 0.72188 0.10112 0.0
H607 H 0.72876 0.78617 0.09914 0.0
H608 H 0.58242 0.79478 0.13478 0.0
H609 H 0.58959 0.7921 0.11413 0.0
H610 H 0.7284 0.73228 0.11742 0.0
H611 H 0.7215 0.7353 0.13834 0.0
C612 C 0.61893 0.73308 0.08435 0.0
C613 C 0.65577 0.75079 0.07767 0.0
C614 C 0.62115 0.73516 0.09621 0.0
C615 C 0.66019 0.75507 0.10168 0.0
C616 C 0.69823 0.77076 0.09508 0.0
C617 C 0.696 0.76872 0.08311 0.0
C618 C 0.61468 0.78132 0.13115 0.0
C619 C 0.65115 0.76461 0.13817 0.0
C620 C 0.6187 0.77969 0.11932 0.0
C621 C 0.65921 0.76124 0.11422 0.0
C622 C 0.6968 0.7466 0.12118 0.0
C623 C 0.69276 0.74819 0.13311 0.0
H624 H 0.77937 0.71651 0.82835 0.0
H625 H 0.73869 0.57046 0.8288 0.0
H626 H 0.77414 0.71863 0.8493 0.0
H627 H 0.73088 0.57299 0.84938 0.0
H628 H 0.7708 0.5687 0.88573 0.0
H629 H 0.78074 0.57457 0.8652 0.0
H630 H 0.7235 0.71542 0.86573 0.0
H631 H 0.71627 0.7102 0.8866 0.0
C632 C 0.76878 0.68516 0.83294 0.0
C633 C 0.7602 0.64314 0.82704 0.0
C634 C 0.76559 0.68635 0.84489 0.0
C635 C 0.75304 0.64569 0.85106 0.0
C636 C 0.74234 0.6045 0.84499 0.0
C637 C 0.74646 0.60309 0.83317 0.0
C638 C 0.76059 0.60102 0.88146 0.0
C639 C 0.74219 0.63877 0.88767 0.0
C640 C 0.76595 0.60434 0.86968 0.0
C641 C 0.75177 0.64504 0.86375 0.0
C642 C 0.73483 0.6836 0.87003 0.0
C643 C 0.73046 0.6806 0.88194 0.0
H644 H 0.27653 0.27251 0.13746 0.0
H645 H 0.40866 0.19872 0.13448 0.0
H646 H 0.27341 0.28128 0.11657 0.0
H647 H 0.4052 0.20703 0.11383 0.0
H648 H 0.42078 0.29032 0.08135 0.0
H649 H 0.41361 0.27955 0.10186 0.0
H650 H 0.2699 0.23457 0.09757 0.0
H651 H 0.27687 0.24576 0.07681 0.0
C652 C 0.30442 0.25757 0.13235 0.0
C653 C 0.3432 0.23561 0.13759 0.0
C654 C 0.30256 0.26249 0.12043 0.0
C655 C 0.33951 0.24558 0.11365 0.0
C656 C 0.37678 0.22132 0.11888 0.0
C657 C 0.37865 0.21645 0.13071 0.0
C658 C 0.38749 0.27838 0.08474 0.0
C659 C 0.34953 0.26839 0.07746 0.0
C660 C 0.38349 0.272 0.09649 0.0
C661 C 0.34147 0.25547 0.10125 0.0
C662 C 0.30271 0.24727 0.09407 0.0
C663 C 0.30675 0.25356 0.08223 0.0
H664 H 0.79867 0.92138 0.33176 0.0
H665 H 0.74052 0.782 0.32863 0.0
H666 H 0.79401 0.91577 0.35243 0.0
H667 H 0.73351 0.77703 0.3495 0.0
H668 H 0.76238 0.776 0.38874 0.0
H669 H 0.77303 0.77329 0.36794 0.0
H670 H 0.73165 0.91927 0.3656 0.0
H671 H 0.7232 0.92231 0.38618 0.0
C672 C 0.78479 0.88949 0.33554 0.0
C673 C 0.7694 0.85235 0.32865 0.0
C674 C 0.78179 0.88636 0.34738 0.0
C675 C 0.76226 0.84642 0.35261 0.0
C676 C 0.74875 0.80825 0.34573 0.0
C677 C 0.75261 0.8111 0.33381 0.0
C678 C 0.75552 0.80731 0.38371 0.0
C679 C 0.74259 0.84951 0.38904 0.0
C680 C 0.76147 0.80577 0.37183 0.0
C681 C 0.75407 0.84631 0.36514 0.0
C682 C 0.73919 0.8878 0.37051 0.0
C683 C 0.73398 0.88949 0.38232 0.0
H684 H 0.22626 0.26217 0.63595 0.0
H685 H 0.08716 0.20254 0.63414 0.0
H686 H 0.22612 0.27215 0.61506 0.0
H687 H 0.08765 0.21039 0.61348 0.0
H688 H 0.07068 0.28762 0.58077 0.0
H689 H 0.08039 0.27702 0.60121 0.0
H690 H 0.2245 0.23425 0.59612 0.0
H691 H 0.21506 0.24678 0.57546 0.0
C692 C 0.1962 0.25031 0.63105 0.0
C693 C 0.1564 0.23236 0.63659 0.0
C694 C 0.1961 0.25593 0.61913 0.0
C695 C 0.15638 0.24313 0.61266 0.0
C696 C 0.11813 0.22212 0.61824 0.0
C697 C 0.11795 0.21729 0.63007 0.0
C698 C 0.10454 0.27621 0.584 0.0
C699 C 0.14196 0.26749 0.57655 0.0
C700 C 0.11006 0.26979 0.59571 0.0
C701 C 0.1529 0.25365 0.60026 0.0
C702 C 0.19106 0.24664 0.59286 0.0
C703 C 0.18566 0.25371 0.58106 0.0
H704 H 0.20914 0.1845 0.25884 0.0
H705 H 0.28851 0.31141 0.26486 0.0
H706 H 0.19903 0.20606 0.23908 0.0
H707 H 0.27602 0.33476 0.24496 0.0
H708 H 0.3291 0.29753 0.20852 0.0
H709 H 0.31235 0.30716 0.22854 0.0
H710 H 0.17374 0.24881 0.22332 0.0
H711 H 0.19193 0.2365 0.20316 0.0
C712 C 0.22342 0.21781 0.256 0.0
C713 C 0.25108 0.24547 0.26333 0.0
C714 C 0.21696 0.23063 0.24462 0.0
C715 C 0.23753 0.27179 0.24028 0.0
C716 C 0.26084 0.30209 0.24793 0.0
C717 C 0.26787 0.28887 0.25935 0.0
C718 C 0.29467 0.28739 0.21156 0.0
C719 C 0.26242 0.26472 0.20432 0.0
C720 C 0.28474 0.29357 0.2231 0.0
C721 C 0.242 0.27781 0.22768 0.0
C722 C 0.20762 0.26001 0.22016 0.0
C723 C 0.21792 0.25308 0.20859 0.0
H724 H 0.79218 0.70915 0.45606 0.0
H725 H 0.65695 0.77742 0.45404 0.0
H726 H 0.78171 0.69756 0.47645 0.0
H727 H 0.64522 0.76401 0.47442 0.0
H728 H 0.69918 0.82331 0.50947 0.0
H729 H 0.68019 0.80527 0.48968 0.0
H730 H 0.747 0.66942 0.49335 0.0
H731 H 0.76789 0.68876 0.513 0.0
C732 C 0.7593 0.71981 0.4599 0.0
C733 C 0.72592 0.74517 0.45356 0.0
C734 C 0.75307 0.71304 0.47162 0.0
C735 C 0.713 0.73096 0.47717 0.0
C736 C 0.67707 0.75106 0.47049 0.0
C737 C 0.68366 0.75848 0.45881 0.0
C738 C 0.70851 0.78909 0.50613 0.0
C739 C 0.73589 0.75791 0.51262 0.0
C740 C 0.69744 0.77848 0.49478 0.0
C741 C 0.713 0.73616 0.48981 0.0
C742 C 0.73567 0.70282 0.49679 0.0
C743 C 0.74744 0.7138 0.50806 0.0
H744 H 0.19267 0.18816 0.70732 0.0
H745 H 0.31915 0.26691 0.70041 0.0
H746 H 0.21252 0.18497 0.72732 0.0
H747 H 0.34086 0.26124 0.72059 0.0
H748 H 0.30427 0.32342 0.75604 0.0
H749 H 0.31241 0.30194 0.73624 0.0
H750 H 0.2542 0.16485 0.74363 0.0
H751 H 0.24338 0.18784 0.76355 0.0
C752 C 0.22557 0.20371 0.71003 0.0
C753 C 0.2536 0.22916 0.70232 0.0
C754 C 0.23736 0.2013 0.72157 0.0
C755 C 0.27791 0.22371 0.7257 0.0
C756 C 0.3086 0.24481 0.71777 0.0
C757 C 0.29635 0.24787 0.70619 0.0
C758 C 0.29378 0.28836 0.75352 0.0
C759 C 0.27188 0.2578 0.76131 0.0
C760 C 0.29907 0.27571 0.74211 0.0
C761 C 0.28325 0.23184 0.73821 0.0
C762 C 0.26556 0.19947 0.74626 0.0
C763 C 0.25948 0.21251 0.75769 0.0
H764 H 0.70642 0.80396 0.94939 0.0
H765 H 0.7758 0.67272 0.95743 0.0
H766 H 0.72214 0.83148 0.9688 0.0
H767 H 0.78914 0.69871 0.97672 0.0
H768 H 0.80654 0.73986 0.01162 0.0
H769 H 0.82158 0.74458 -0.00888 0.0
H770 H 0.68709 0.81267 -0.01385 0.0
H771 H 0.67366 0.81051 0.00647 0.0
C772 C 0.72536 0.78121 0.95525 0.0
C773 C 0.7388 0.73576 0.95196 0.0
C774 C 0.73433 0.79688 0.96638 0.0
C775 C 0.75626 0.7671 0.97444 0.0
C776 C 0.77269 0.72306 0.97081 0.0
C777 C 0.76433 0.70775 0.95971 0.0
C778 C 0.78094 0.75707 0.00615 0.0
C779 C 0.73828 0.77343 0.01062 0.0
C780 C 0.78938 0.75958 -0.00561 0.0
C781 C 0.75491 0.77765 -0.01311 0.0
C782 C 0.7146 0.7985 -0.00843 0.0
C783 C 0.70657 0.7967 0.0033 0.0
H784 H 0.29909 0.18948 0.01124 0.0
H785 H 0.21693 0.31694 0.0095 0.0
H786 H 0.27837 0.17174 -0.00851 0.0
H787 H 0.19799 0.30066 -0.01036 0.0
H788 H 0.166 0.27076 0.95429 0.0
H789 H 0.16277 0.25753 0.97487 0.0
H790 H 0.30475 0.2034 0.97411 0.0
H791 H 0.30673 0.21443 0.95351 0.0
C792 C 0.27608 0.21341 0.00665 0.0
C793 C 0.26021 0.25501 0.01181 0.0
C794 C 0.26437 0.20334 -0.00467 0.0
C795 C 0.23723 0.2351 -0.01113 0.0
C796 C 0.21856 0.275 -0.00566 0.0
C797 C 0.22966 0.28464 0.00573 0.0
C798 C 0.19587 0.25459 0.95851 0.0
C799 C 0.23691 0.24429 0.95238 0.0
C800 C 0.1942 0.24735 0.97031 0.0
C801 C 0.23392 0.23064 0.97622 0.0
C802 C 0.27333 0.21615 0.96988 0.0
C803 C 0.27463 0.22258 0.95804 0.0
H804 H 0.72128 0.69337 0.26598 0.0
H805 H 0.80708 0.8147 0.25847 0.0
H806 H 0.72521 0.67017 0.24592 0.0
H807 H 0.80882 0.79337 0.23858 0.0
H808 H 0.80422 0.76033 0.20262 0.0
H809 H 0.82657 0.74876 0.2226 0.0
H810 H 0.68586 0.70074 0.23006 0.0
H811 H 0.66476 0.70963 0.21019 0.0
C812 C 0.74152 0.71467 0.2601 0.0
C813 C 0.76274 0.75654 0.26375 0.0
C814 C 0.74361 0.70156 0.24859 0.0
C815 C 0.76636 0.73045 0.24052 0.0
C816 C 0.79116 0.76991 0.24445 0.0
C817 C 0.78962 0.78259 0.25593 0.0
C818 C 0.77853 0.74627 0.20851 0.0
C819 C 0.73244 0.73702 0.20489 0.0
C820 C 0.79123 0.73975 0.21997 0.0
C821 C 0.75777 0.72482 0.22805 0.0
C822 C 0.71286 0.71192 0.22416 0.0
C823 C 0.70048 0.71762 0.21271 0.0
H824 H 0.21745 0.3077 0.45015 0.0
H825 H 0.27824 0.17279 0.45868 0.0
H826 H 0.2314 0.33411 0.4697 0.0
H827 H 0.28952 0.19771 0.47814 0.0
H828 H 0.29752 0.23576 0.51352 0.0
H829 H 0.31912 0.24047 0.49337 0.0
H830 H 0.19058 0.31655 0.48625 0.0
H831 H 0.17084 0.31431 0.50623 0.0
C832 C 0.23426 0.28391 0.45615 0.0
C833 C 0.2455 0.23776 0.45296 0.0
C834 C 0.24216 0.29894 0.46737 0.0
C835 C 0.26053 0.26774 0.47564 0.0
C836 C 0.2756 0.22307 0.4721 0.0
C837 C 0.26847 0.20842 0.46089 0.0
C838 C 0.27467 0.25461 0.50766 0.0
C839 C 0.23178 0.27333 0.5114 0.0
C840 C 0.28688 0.25715 0.4961 0.0
C841 C 0.25598 0.27765 0.48807 0.0
C842 C 0.21553 0.30053 0.49208 0.0
C843 C 0.20378 0.29868 0.50361 0.0
H844 H 0.7024 0.71474 0.70046 0.0
H845 H 0.83623 0.78182 0.70651 0.0
H846 H 0.68063 0.72921 0.72033 0.0
H847 H 0.81612 0.79356 0.72624 0.0
H848 H 0.78712 0.80374 0.7621 0.0
H849 H 0.77665 0.82295 0.74189 0.0
H850 H 0.70359 0.69133 0.73692 0.0
H851 H 0.71136 0.67399 0.75697 0.0
C852 C 0.72692 0.73296 0.70598 0.0
C853 C 0.7715 0.74591 0.702 0.0
C854 C 0.71458 0.74116 0.71738 0.0
C855 C 0.74698 0.76159 0.72503 0.0
C856 C 0.78988 0.77808 0.7207 0.0
C857 C 0.80181 0.77063 0.70933 0.0
C858 C 0.7677 0.77968 0.75671 0.0
C859 C 0.75142 0.7367 0.76106 0.0
C860 C 0.76187 0.7905 0.74511 0.0
C861 C 0.7405 0.75808 0.73763 0.0
C862 C 0.72014 0.71741 0.7423 0.0
C863 C 0.72524 0.70706 0.75387 0.0
loop_
_geom_bond_atom_site_label_1
_geom_bond_atom_site_label_2
_geom_bond_distance
_geom_bond_site_symmetry_2
_ccdc_geom_bond_type
C0 O1 1.306 . S
C0 O3 1.160 . S
O1 C0 1.306 . S
O1 Cd2 2.228 . S
Cd2 O1 2.228 . S
Cd2 O6 2.273 . S
Cd2 O10 2.277 . S
O3 C0 1.160 . S
O3 Cd4 2.203 . S
Cd4 O3 2.203 . S
Cd4 O6 2.411 . S
Cd4 O7 2.333 . S
Cd4 O8 2.352 . S
Cd4 O12 2.277 . S
Cd4 O13 2.356 . S
C5 O10 1.209 . S
C5 O12 1.226 . S
O6 Cd2 2.273 . S
O6 Cd4 2.411 . S
O6 C9 1.320 . S
O7 Cd4 2.333 . S
O7 C9 1.214 . S
O8 Cd4 2.352 . S
O8 C11 1.258 . S
C9 O6 1.320 . S
C9 O7 1.214 . S
O10 Cd2 2.277 . S
O10 C5 1.209 . S
C11 O8 1.258 . S
C11 O13 1.282 . S
O12 Cd4 2.277 . S
O12 C5 1.226 . S
O13 Cd4 2.356 . S
O13 C11 1.282 . S
C14 O15 1.306 . S
C14 O17 1.160 . S
O15 C14 1.306 . S
O15 Cd16 2.228 . S
Cd16 O15 2.228 . S
Cd16 O20 2.273 . S
Cd16 O24 2.277 . S
O17 C14 1.160 . S
O17 Cd18 2.203 . S
Cd18 O17 2.203 . S
Cd18 O20 2.411 . S
Cd18 O21 2.333 . S
Cd18 O22 2.352 . S
Cd18 O26 2.277 . S
Cd18 O27 2.356 . S
C19 O24 1.209 . S
C19 O26 1.226 . S
O20 Cd16 2.273 . S
O20 Cd18 2.411 . S
O20 C23 1.320 . S
O21 Cd18 2.333 . S
O21 C23 1.214 . S
O22 Cd18 2.352 . S
O22 C25 1.258 . S
C23 O20 1.320 . S
C23 O21 1.214 . S
O24 Cd16 2.277 . S
O24 C19 1.209 . S
C25 O22 1.258 . S
C25 O27 1.282 . S
O26 Cd18 2.277 . S
O26 C19 1.226 . S
O27 Cd18 2.356 . S
O27 C25 1.282 . S
C28 O29 1.306 . S
C28 O31 1.160 . S
O29 C28 1.306 . S
O29 Cd30 2.228 . S
Cd30 O29 2.228 . S
Cd30 O34 2.273 . S
Cd30 O38 2.277 . S
O31 C28 1.160 . S
O31 Cd32 2.203 . S
Cd32 O31 2.203 . S
Cd32 O34 2.411 . S
Cd32 O35 2.333 . S
Cd32 O36 2.352 . S
Cd32 O40 2.277 . S
Cd32 O41 2.356 . S
C33 O38 1.209 . S
C33 O40 1.226 . S
O34 Cd30 2.273 . S
O34 Cd32 2.411 . S
O34 C37 1.320 . S
O35 Cd32 2.333 . S
O35 C37 1.214 . S
O36 Cd32 2.352 . S
O36 C39 1.258 . S
C37 O34 1.320 . S
C37 O35 1.214 . S
O38 Cd30 2.277 . S
O38 C33 1.209 . S
C39 O36 1.258 . S
C39 O41 1.282 . S
O40 Cd32 2.277 . S
O40 C33 1.226 . S
O41 Cd32 2.356 . S
O41 C39 1.282 . S
C42 O43 1.306 . S
C42 O45 1.160 . S
O43 C42 1.306 . S
O43 Cd44 2.228 . S
Cd44 O43 2.228 . S
Cd44 O48 2.273 . S
Cd44 O52 2.277 . S
O45 C42 1.160 . S
O45 Cd46 2.203 . S
Cd46 O45 2.203 . S
Cd46 O48 2.411 . S
Cd46 O49 2.333 . S
Cd46 O50 2.352 . S
Cd46 O54 2.277 . S
Cd46 O55 2.356 . S
C47 O52 1.209 . S
C47 O54 1.226 . S
O48 Cd44 2.273 . S
O48 Cd46 2.411 . S
O48 C51 1.320 . S
O49 Cd46 2.333 . S
O49 C51 1.214 . S
O50 Cd46 2.352 . S
O50 C53 1.258 . S
C51 O48 1.320 . S
C51 O49 1.214 . S
O52 Cd44 2.277 . S
O52 C47 1.209 . S
C53 O50 1.258 . S
C53 O55 1.282 . S
O54 Cd46 2.277 . S
O54 C47 1.226 . S
O55 Cd46 2.356 . S
O55 C53 1.282 . S
C56 O57 1.306 . S
C56 O59 1.160 . S
O57 C56 1.306 . S
O57 Cd58 2.228 . S
Cd58 O57 2.228 . S
Cd58 O62 2.273 . S
Cd58 O66 2.277 . S
O59 C56 1.160 . S
O59 Cd60 2.203 . S
Cd60 O59 2.203 . S
Cd60 O62 2.411 . S
Cd60 O63 2.333 . S
Cd60 O64 2.352 . S
Cd60 O68 2.277 . S
Cd60 O69 2.356 . S
C61 O66 1.209 . S
C61 O68 1.226 . S
O62 Cd58 2.273 . S
O62 Cd60 2.411 . S
O62 C65 1.320 . S
O63 Cd60 2.333 . S
O63 C65 1.214 . S
O64 Cd60 2.352 . S
O64 C67 1.258 . S
C65 O62 1.320 . S
C65 O63 1.214 . S
O66 Cd58 2.277 . S
O66 C61 1.209 . S
C67 O64 1.258 . S
C67 O69 1.282 . S
O68 Cd60 2.277 . S
O68 C61 1.226 . S
O69 Cd60 2.356 . S
O69 C67 1.282 . S
C70 O71 1.306 . S
C70 O73 1.160 . S
O71 C70 1.306 . S
O71 Cd72 2.228 . S
Cd72 O71 2.228 . S
Cd72 O76 2.273 . S
Cd72 O80 2.277 . S
O73 C70 1.160 . S
O73 Cd74 2.203 . S
Cd74 O73 2.203 . S
Cd74 O76 2.411 . S
Cd74 O77 2.333 . S
Cd74 O78 2.352 . S
Cd74 O82 2.277 . S
Cd74 O83 2.356 . S
C75 O80 1.209 . S
C75 O82 1.226 . S
O76 Cd72 2.273 . S
O76 Cd74 2.411 . S
O76 C79 1.320 . S
O77 Cd74 2.333 . S
O77 C79 1.214 . S
O78 Cd74 2.352 . S
O78 C81 1.258 . S
C79 O76 1.320 . S
C79 O77 1.214 . S
O80 Cd72 2.277 . S
O80 C75 1.209 . S
C81 O78 1.258 . S
C81 O83 1.282 . S
O82 Cd74 2.277 . S
O82 C75 1.226 . S
O83 Cd74 2.356 . S
O83 C81 1.282 . S
C84 O85 1.306 . S
C84 O87 1.160 . S
O85 C84 1.306 . S
O85 Cd86 2.228 . S
Cd86 O85 2.228 . S
Cd86 O90 2.273 . S
Cd86 O94 2.277 . S
O87 C84 1.160 . S
O87 Cd88 2.203 . S
Cd88 O87 2.203 . S
Cd88 O90 2.411 . S
Cd88 O91 2.333 . S
Cd88 O92 2.352 . S
Cd88 O96 2.277 . S
Cd88 O97 2.356 . S
C89 O94 1.209 . S
C89 O96 1.226 . S
O90 Cd86 2.273 . S
O90 Cd88 2.411 . S
O90 C93 1.320 . S
O91 Cd88 2.333 . S
O91 C93 1.214 . S
O92 Cd88 2.352 . S
O92 C95 1.258 . S
C93 O90 1.320 . S
C93 O91 1.214 . S
O94 Cd86 2.277 . S
O94 C89 1.209 . S
C95 O92 1.258 . S
C95 O97 1.282 . S
O96 Cd88 2.277 . S
O96 C89 1.226 . S
O97 Cd88 2.356 . S
O97 C95 1.282 . S
C98 O99 1.306 . S
C98 O101 1.160 . S
O99 C98 1.306 . S
O99 Cd100 2.228 . S
Cd100 O99 2.228 . S
Cd100 O104 2.273 . S
Cd100 O108 2.277 . S
O101 C98 1.160 . S
O101 Cd102 2.203 . S
Cd102 O101 2.203 . S
Cd102 O104 2.411 . S
Cd102 O105 2.333 . S
Cd102 O106 2.352 . S
Cd102 O110 2.277 . S
Cd102 O111 2.356 . S
C103 O108 1.209 . S
C103 O110 1.226 . S
O104 Cd100 2.273 . S
O104 Cd102 2.411 . S
O104 C107 1.320 . S
O105 Cd102 2.333 . S
O105 C107 1.214 . S
O106 Cd102 2.352 . S
O106 C109 1.258 . S
C107 O104 1.320 . S
C107 O105 1.214 . S
O108 Cd100 2.277 . S
O108 C103 1.209 . S
C109 O106 1.258 . S
C109 O111 1.282 . S
O110 Cd102 2.277 . S
O110 C103 1.226 . S
O111 Cd102 2.356 . S
O111 C109 1.282 . S
C112 O113 1.306 . S
C112 O115 1.160 . S
O113 C112 1.306 . S
O113 Cd114 2.228 . S
Cd114 O113 2.228 . S
Cd114 O118 2.273 . S
Cd114 O122 2.277 . S
O115 C112 1.160 . S
O115 Cd116 2.203 . S
Cd116 O115 2.203 . S
Cd116 O118 2.411 . S
Cd116 O119 2.333 . S
Cd116 O120 2.352 . S
Cd116 O124 2.277 . S
Cd116 O125 2.356 . S
C117 O122 1.209 . S
C117 O124 1.226 . S
O118 Cd114 2.273 . S
O118 Cd116 2.411 . S
O118 C121 1.320 . S
O119 Cd116 2.333 . S
O119 C121 1.214 . S
O120 Cd116 2.352 . S
O120 C123 1.258 . S
C121 O118 1.320 . S
C121 O119 1.214 . S
O122 Cd114 2.277 . S
O122 C117 1.209 . S
C123 O120 1.258 . S
C123 O125 1.282 . S
O124 Cd116 2.277 . S
O124 C117 1.226 . S
O125 Cd116 2.356 . S
O125 C123 1.282 . S
C126 O127 1.306 . S
C126 O129 1.160 . S
O127 C126 1.306 . S
O127 Cd128 2.228 . S
Cd128 O127 2.228 . S
Cd128 O132 2.273 . S
Cd128 O136 2.277 . S
O129 C126 1.160 . S
O129 Cd130 2.203 . S
Cd130 O129 2.203 . S
Cd130 O132 2.411 . S
Cd130 O133 2.333 . S
Cd130 O134 2.352 . S
Cd130 O138 2.277 . S
Cd130 O139 2.356 . S
C131 O136 1.209 . S
C131 O138 1.226 . S
O132 Cd128 2.273 . S
O132 Cd130 2.411 . S
O132 C135 1.320 . S
O133 Cd130 2.333 . S
O133 C135 1.214 . S
O134 Cd130 2.352 . S
O134 C137 1.258 . S
C135 O132 1.320 . S
C135 O133 1.214 . S
O136 Cd128 2.277 . S
O136 C131 1.209 . S
C137 O134 1.258 . S
C137 O139 1.282 . S
O138 Cd130 2.277 . S
O138 C131 1.226 . S
O139 Cd130 2.356 . S
O139 C137 1.282 . S
C140 O141 1.306 . S
C140 O143 1.160 . S
O141 C140 1.306 . S
O141 Cd142 2.228 . S
Cd142 O141 2.228 . S
Cd142 O146 2.273 . S
Cd142 O150 2.277 . S
O143 C140 1.160 . S
O143 Cd144 2.203 . S
Cd144 O143 2.203 . S
Cd144 O146 2.411 . S
Cd144 O147 2.333 . S
Cd144 O148 2.352 . S
Cd144 O152 2.277 . S
Cd144 O153 2.356 . S
C145 O150 1.209 . S
C145 O152 1.226 . S
O146 Cd142 2.273 . S
O146 Cd144 2.411 . S
O146 C149 1.320 . S
O147 Cd144 2.333 . S
O147 C149 1.214 . S
O148 Cd144 2.352 . S
O148 C151 1.258 . S
C149 O146 1.320 . S
C149 O147 1.214 . S
O150 Cd142 2.277 . S
O150 C145 1.209 . S
C151 O148 1.258 . S
C151 O153 1.282 . S
O152 Cd144 2.277 . S
O152 C145 1.226 . S
O153 Cd144 2.356 . S
O153 C151 1.282 . S
C154 O155 1.306 . S
C154 O157 1.160 . S
O155 C154 1.306 . S
O155 Cd156 2.228 . S
Cd156 O155 2.228 . S
Cd156 O160 2.273 . S
Cd156 O164 2.277 . S
O157 C154 1.160 . S
O157 Cd158 2.203 . S
Cd158 O157 2.203 . S
Cd158 O160 2.411 . S
Cd158 O161 2.333 . S
Cd158 O162 2.352 . S
Cd158 O166 2.277 . S
Cd158 O167 2.356 . S
C159 O164 1.209 . S
C159 O166 1.226 . S
O160 Cd156 2.273 . S
O160 Cd158 2.411 . S
O160 C163 1.320 . S
O161 Cd158 2.333 . S
O161 C163 1.214 . S
O162 Cd158 2.352 . S
O162 C165 1.258 . S
C163 O160 1.320 . S
C163 O161 1.214 . S
O164 Cd156 2.277 . S
O164 C159 1.209 . S
C165 O162 1.258 . S
C165 O167 1.282 . S
O166 Cd158 2.277 . S
O166 C159 1.226 . S
O167 Cd158 2.356 . S
O167 C165 1.282 . S
C168 O169 1.306 . S
C168 O171 1.160 . S
O169 C168 1.306 . S
O169 Cd170 2.228 . S
Cd170 O169 2.228 . S
Cd170 O174 2.273 . S
Cd170 O178 2.277 . S
O171 C168 1.160 . S
O171 Cd172 2.203 . S
Cd172 O171 2.203 . S
Cd172 O174 2.411 . S
Cd172 O175 2.333 . S
Cd172 O176 2.352 . S
Cd172 O180 2.277 . S
Cd172 O181 2.356 . S
C173 O178 1.209 . S
C173 O180 1.226 . S
O174 Cd170 2.273 . S
O174 Cd172 2.411 . S
O174 C177 1.320 . S
O175 Cd172 2.333 . S
O175 C177 1.214 . S
O176 Cd172 2.352 . S
O176 C179 1.258 . S
C177 O174 1.320 . S
C177 O175 1.214 . S
O178 Cd170 2.277 . S
O178 C173 1.209 . S
C179 O176 1.258 . S
C179 O181 1.282 . S
O180 Cd172 2.277 . S
O180 C173 1.226 . S
O181 Cd172 2.356 . S
O181 C179 1.282 . S
C182 O183 1.306 . S
C182 O185 1.160 . S
O183 C182 1.306 . S
O183 Cd184 2.228 . S
Cd184 O183 2.228 . S
Cd184 O188 2.273 . S
Cd184 O192 2.277 . S
O185 C182 1.160 . S
O185 Cd186 2.203 . S
Cd186 O185 2.203 . S
Cd186 O188 2.411 . S
Cd186 O189 2.333 . S
Cd186 O190 2.352 . S
Cd186 O194 2.277 . S
Cd186 O195 2.356 . S
C187 O192 1.209 . S
C187 O194 1.226 . S
O188 Cd184 2.273 . S
O188 Cd186 2.411 . S
O188 C191 1.320 . S
O189 Cd186 2.333 . S
O189 C191 1.214 . S
O190 Cd186 2.352 . S
O190 C193 1.258 . S
C191 O188 1.320 . S
C191 O189 1.214 . S
O192 Cd184 2.277 . S
O192 C187 1.209 . S
C193 O190 1.258 . S
C193 O195 1.282 . S
O194 Cd186 2.277 . S
O194 C187 1.226 . S
O195 Cd186 2.356 . S
O195 C193 1.282 . S
C196 O197 1.306 . S
C196 O199 1.160 . S
O197 C196 1.306 . S
O197 Cd198 2.228 . S
Cd198 O197 2.228 . S
Cd198 O202 2.273 . S
Cd198 O206 2.277 . S
O199 C196 1.160 . S
O199 Cd200 2.203 . S
Cd200 O199 2.203 . S
Cd200 O202 2.411 . S
Cd200 O203 2.333 . S
Cd200 O204 2.352 . S
Cd200 O208 2.277 . S
Cd200 O209 2.356 . S
C201 O206 1.209 . S
C201 O208 1.226 . S
O202 Cd198 2.273 . S
O202 Cd200 2.411 . S
O202 C205 1.320 . S
O203 Cd200 2.333 . S
O203 C205 1.214 . S
O204 Cd200 2.352 . S
O204 C207 1.258 . S
C205 O202 1.320 . S
C205 O203 1.214 . S
O206 Cd198 2.277 . S
O206 C201 1.209 . S
C207 O204 1.258 . S
C207 O209 1.282 . S
O208 Cd200 2.277 . S
O208 C201 1.226 . S
O209 Cd200 2.356 . S
O209 C207 1.282 . S
C210 O211 1.306 . S
C210 O213 1.160 . S
O211 C210 1.306 . S
O211 Cd212 2.228 . S
Cd212 O211 2.228 . S
Cd212 O216 2.273 . S
Cd212 O220 2.277 . S
O213 C210 1.160 . S
O213 Cd214 2.203 . S
Cd214 O213 2.203 . S
Cd214 O216 2.411 . S
Cd214 O217 2.333 . S
Cd214 O218 2.352 . S
Cd214 O222 2.277 . S
Cd214 O223 2.356 . S
C215 O220 1.209 . S
C215 O222 1.226 . S
O216 Cd212 2.273 . S
O216 Cd214 2.411 . S
O216 C219 1.320 . S
O217 Cd214 2.333 . S
O217 C219 1.214 . S
O218 Cd214 2.352 . S
O218 C221 1.258 . S
C219 O216 1.320 . S
C219 O217 1.214 . S
O220 Cd212 2.277 . S
O220 C215 1.209 . S
C221 O218 1.258 . S
C221 O223 1.282 . S
O222 Cd214 2.277 . S
O222 C215 1.226 . S
O223 Cd214 2.356 . S
O223 C221 1.282 . S
H224 C232 0.950 . S
H225 C237 0.950 . S
H226 C234 0.950 1_545 S
H227 C236 0.950 . S
H228 C238 0.950 . S
H229 C240 0.950 1_565 S
H230 C242 0.950 . S
H231 C243 0.950 . S
C232 H224 0.950 . S
C232 C233 1.386 . S
C232 C234 1.391 . S
C233 C232 1.386 . S
C233 C237 1.393 . S
C234 H226 0.950 1_565 S
C234 C232 1.391 . S
C234 C235 1.400 . S
C235 C234 1.400 . S
C235 C236 1.398 . S
C235 C241 1.491 1_665 S
C236 H227 0.950 . S
C236 C235 1.398 . S
C236 C237 1.391 . S
C237 H225 0.950 . S
C237 C233 1.393 . S
C237 C236 1.391 . S
C238 H228 0.950 . S
C238 C239 1.386 . S
C238 C240 1.391 . S
C239 C238 1.386 . S
C239 C243 1.393 . S
C240 H229 0.950 1_545 S
C240 C238 1.391 . S
C240 C241 1.400 . S
C241 C235 1.491 1_445 S
C241 C240 1.400 . S
C241 C242 1.398 . S
C242 H230 0.950 . S
C242 C241 1.398 . S
C242 C243 1.391 . S
C243 H231 0.950 . S
C243 C239 1.393 . S
C243 C242 1.391 . S
H244 C252 0.950 . S
H245 C257 0.950 . S
H246 C254 0.950 . S
H247 C256 0.950 1_455 S
H248 C258 0.950 . S
H249 C260 0.950 . S
H250 C262 0.950 1_655 S
H251 C263 0.950 . S
C252 H244 0.950 . S
C252 C253 1.386 . S
C252 C254 1.391 . S
C253 C252 1.386 . S
C253 C257 1.393 . S
C254 H246 0.950 . S
C254 C252 1.391 . S
C254 C255 1.400 . S
C255 C254 1.400 . S
C255 C256 1.398 . S
C255 C261 1.491 1_655 S
C256 H247 0.950 1_655 S
C256 C255 1.398 . S
C256 C257 1.391 . S
C257 H245 0.950 . S
C257 C253 1.393 . S
C257 C256 1.391 . S
C258 H248 0.950 . S
C258 C259 1.386 . S
C258 C260 1.391 . S
C259 C258 1.386 . S
C259 C263 1.393 . S
C260 H249 0.950 . S
C260 C258 1.391 . S
C260 C261 1.400 . S
C261 C255 1.491 1_455 S
C261 C260 1.400 . S
C261 C262 1.398 . S
C262 H250 0.950 1_455 S
C262 C261 1.398 . S
C262 C263 1.391 . S
C263 H251 0.950 . S
C263 C259 1.393 . S
C263 C262 1.391 . S
H264 C272 0.950 . S
H265 C277 0.950 . S
H266 C274 0.950 . S
H267 C276 0.950 . S
H268 C278 0.950 . S
H269 C280 0.950 . S
H270 C282 0.950 . S
H271 C283 0.950 . S
C272 H264 0.950 . S
C272 C273 1.386 . S
C272 C274 1.391 . S
C273 C272 1.386 . S
C273 C277 1.393 . S
C274 H266 0.950 . S
C274 C272 1.391 . S
C274 C275 1.400 . S
C275 C274 1.400 . S
C275 C276 1.398 . S
C275 C281 1.491 . S
C276 H267 0.950 . S
C276 C275 1.398 . S
C276 C277 1.391 . S
C277 H265 0.950 . S
C277 C273 1.393 . S
C277 C276 1.391 . S
C278 H268 0.950 . S
C278 C279 1.386 . S
C278 C280 1.391 . S
C279 C278 1.386 . S
C279 C283 1.393 . S
C280 H269 0.950 . S
C280 C278 1.391 . S
C280 C281 1.400 . S
C281 C275 1.491 . S
C281 C280 1.400 . S
C281 C282 1.398 . S
C282 H270 0.950 . S
C282 C281 1.398 . S
C282 C283 1.391 . S
C283 H271 0.950 . S
C283 C279 1.393 . S
C283 C282 1.391 . S
H284 C292 0.950 . S
H285 C297 0.950 . S
H286 C294 0.951 . S
H287 C296 0.950 . S
H288 C298 0.950 . S
H289 C300 0.950 . S
H290 C302 0.950 . S
H291 C303 0.950 . S
C292 H284 0.950 . S
C292 C293 1.386 . S
C292 C294 1.391 . S
C293 C292 1.386 . S
C293 C297 1.393 . S
C294 H286 0.951 . S
C294 C292 1.391 . S
C294 C295 1.400 . S
C295 C294 1.400 . S
C295 C296 1.398 . S
C295 C301 1.491 1_545 S
C296 H287 0.950 . S
C296 C295 1.398 . S
C296 C297 1.391 . S
C297 H285 0.950 . S
C297 C293 1.393 . S
C297 C296 1.391 . S
C298 H288 0.950 . S
C298 C299 1.386 . S
C298 C300 1.391 . S
C299 C298 1.386 . S
C299 C303 1.393 . S
C300 H289 0.950 . S
C300 C298 1.391 . S
C300 C301 1.400 . S
C301 C295 1.491 1_565 S
C301 C300 1.400 . S
C301 C302 1.398 . S
C302 H290 0.950 . S
C302 C301 1.398 . S
C302 C303 1.391 . S
C303 H291 0.950 . S
C303 C299 1.393 . S
C303 C302 1.391 . S
H304 C312 0.950 . S
H305 C317 0.950 . S
H306 C314 0.950 . S
H307 C316 0.950 . S
H308 C318 0.950 . S
H309 C320 0.950 . S
H310 C322 0.950 . S
H311 C323 0.950 . S
C312 H304 0.950 . S
C312 C313 1.386 . S
C312 C314 1.391 . S
C313 C312 1.386 . S
C313 C317 1.393 . S
C314 H306 0.950 . S
C314 C312 1.391 . S
C314 C315 1.400 . S
C315 C314 1.400 . S
C315 C316 1.398 . S
C315 C321 1.491 1_455 S
C316 H307 0.950 . S
C316 C315 1.398 . S
C316 C317 1.391 . S
C317 H305 0.950 . S
C317 C313 1.393 . S
C317 C316 1.391 . S
C318 H308 0.950 . S
C318 C319 1.386 . S
C318 C320 1.391 . S
C319 C318 1.386 . S
C319 C323 1.393 . S
C320 H309 0.950 . S
C320 C318 1.391 . S
C320 C321 1.400 . S
C321 C315 1.491 1_655 S
C321 C320 1.400 . S
C321 C322 1.398 . S
C322 H310 0.950 . S
C322 C321 1.398 . S
C322 C323 1.391 . S
C323 H311 0.950 . S
C323 C319 1.393 . S
C323 C322 1.391 . S
H324 C332 0.950 . S
H325 C337 0.950 . S
H326 C334 0.950 . S
H327 C336 0.950 . S
H328 C338 0.950 . S
H329 C340 0.950 . S
H330 C342 0.950 . S
H331 C343 0.950 . S
C332 H324 0.950 . S
C332 C333 1.386 . S
C332 C334 1.391 . S
C333 C332 1.386 . S
C333 C337 1.393 . S
C334 H326 0.950 . S
C334 C332 1.391 . S
C334 C335 1.400 . S
C335 C334 1.400 . S
C335 C336 1.398 . S
C335 C341 1.491 . S
C336 H327 0.950 . S
C336 C335 1.398 . S
C336 C337 1.391 . S
C337 H325 0.950 . S
C337 C333 1.393 . S
C337 C336 1.391 . S
C338 H328 0.950 . S
C338 C339 1.386 . S
C338 C340 1.391 . S
C339 C338 1.386 . S
C339 C343 1.393 . S
C340 H329 0.950 . S
C340 C338 1.391 . S
C340 C341 1.400 . S
C341 C335 1.491 . S
C341 C340 1.400 . S
C341 C342 1.398 . S
C342 H330 0.950 . S
C342 C341 1.398 . S
C342 C343 1.391 . S
C343 H331 0.950 . S
C343 C339 1.393 . S
C343 C342 1.391 . S
H344 C352 0.950 . S
H345 C357 0.950 . S
H346 C354 0.950 . S
H347 C356 0.950 . S
H348 C358 0.950 . S
H349 C360 0.950 . S
H350 C362 0.950 . S
H351 C363 0.950 . S
C352 H344 0.950 . S
C352 C353 1.386 . S
C352 C354 1.391 1_545 S
C353 C352 1.386 . S
C353 C357 1.393 . S
C354 H346 0.950 . S
C354 C352 1.391 1_565 S
C354 C355 1.400 1_565 S
C355 C354 1.400 1_545 S
C355 C356 1.398 . S
C355 C361 1.491 1_545 S
C356 H347 0.950 . S
C356 C355 1.398 . S
C356 C357 1.391 . S
C357 H345 0.950 . S
C357 C353 1.393 . S
C357 C356 1.391 . S
C358 H348 0.950 . S
C358 C359 1.386 . S
C358 C360 1.391 1_565 S
C359 C358 1.386 . S
C359 C363 1.393 . S
C360 H349 0.950 . S
C360 C358 1.391 1_545 S
C360 C361 1.400 1_545 S
C361 C355 1.491 1_565 S
C361 C360 1.400 1_565 S
C361 C362 1.398 . S
C362 H350 0.950 . S
C362 C361 1.398 . S
C362 C363 1.391 . S
C363 H351 0.950 . S
C363 C359 1.393 . S
C363 C362 1.391 . S
H364 C372 0.950 . S
H365 C377 0.950 . S
H366 C374 0.950 . S
H367 C376 0.950 1_655 S
H368 C378 0.950 . S
H369 C380 0.950 . S
H370 C382 0.950 1_455 S
H371 C383 0.950 . S
C372 H364 0.950 . S
C372 C373 1.386 . S
C372 C374 1.391 . S
C373 C372 1.386 . S
C373 C377 1.393 . S
C374 H366 0.950 . S
C374 C372 1.391 . S
C374 C375 1.400 . S
C375 C374 1.400 . S
C375 C376 1.398 . S
C375 C381 1.491 1_445 S
C376 H367 0.950 1_455 S
C376 C375 1.398 . S
C376 C377 1.391 . S
C377 H365 0.950 . S
C377 C373 1.393 . S
C377 C376 1.391 . S
C378 H368 0.950 . S
C378 C379 1.386 . S
C378 C380 1.391 . S
C379 C378 1.386 . S
C379 C383 1.393 . S
C380 H369 0.950 . S
C380 C378 1.391 . S
C380 C381 1.400 . S
C381 C375 1.491 1_665 S
C381 C380 1.400 . S
C381 C382 1.398 . S
C382 H370 0.950 1_655 S
C382 C381 1.398 . S
C382 C383 1.391 . S
C383 H371 0.950 . S
C383 C379 1.393 . S
C383 C382 1.391 . S
H384 C392 0.950 1_545 S
H385 C397 0.950 . S
H386 C394 0.950 . S
H387 C396 0.950 . S
H388 C398 0.950 1_565 S
H389 C400 0.950 . S
H390 C402 0.950 . S
H391 C403 0.950 . S
C392 H384 0.950 1_565 S
C392 C393 1.386 . S
C392 C394 1.391 1_565 S
C393 C392 1.386 . S
C393 C397 1.393 . S
C394 H386 0.950 . S
C394 C392 1.391 1_545 S
C394 C395 1.400 1_545 S
C395 C394 1.400 1_565 S
C395 C396 1.398 . S
C395 C401 1.491 1_565 S
C396 H387 0.950 . S
C396 C395 1.398 . S
C396 C397 1.391 . S
C397 H385 0.950 . S
C397 C393 1.393 . S
C397 C396 1.391 . S
C398 H388 0.950 1_545 S
C398 C399 1.386 . S
C398 C400 1.391 1_545 S
C399 C398 1.386 . S
C399 C403 1.393 . S
C400 H389 0.950 . S
C400 C398 1.391 1_565 S
C400 C401 1.400 1_565 S
C401 C395 1.491 1_545 S
C401 C400 1.400 1_545 S
C401 C402 1.398 . S
C402 H390 0.950 . S
C402 C401 1.398 . S
C402 C403 1.391 . S
C403 H391 0.950 . S
C403 C399 1.393 . S
C403 C402 1.391 . S
H404 C412 0.950 . S
H405 C417 0.950 1_455 S
H406 C414 0.950 1_545 S
H407 C416 0.950 . S
H408 C418 0.950 . S
H409 C420 0.950 1_565 S
H410 C422 0.950 . S
H411 C423 0.950 1_655 S
C412 H404 0.950 . S
C412 C413 1.386 . S
C412 C414 1.391 . S
C413 C412 1.386 . S
C413 C417 1.393 . S
C414 H406 0.950 1_565 S
C414 C412 1.391 . S
C414 C415 1.400 . S
C415 C414 1.400 . S
C415 C416 1.398 1_655 S
C415 C421 1.491 1_665 S
C416 H407 0.950 . S
C416 C415 1.398 1_455 S
C416 C417 1.391 1_455 S
C417 H405 0.950 1_655 S
C417 C413 1.393 . S
C417 C416 1.391 1_655 S
C418 H408 0.950 . S
C418 C419 1.386 . S
C418 C420 1.391 . S
C419 C418 1.386 . S
C419 C423 1.393 . S
C420 H409 0.950 1_545 S
C420 C418 1.391 . S
C420 C421 1.400 . S
C421 C415 1.491 1_445 S
C421 C420 1.400 . S
C421 C422 1.398 1_455 S
C422 H410 0.950 . S
C422 C421 1.398 1_655 S
C422 C423 1.391 1_655 S
C423 H411 0.950 1_455 S
C423 C419 1.393 . S
C423 C422 1.391 1_455 S
H424 C432 0.950 . S
H425 C437 0.950 . S
H426 C434 0.950 . S
H427 C436 0.950 1_655 S
H428 C438 0.950 . S
H429 C440 0.950 . S
H430 C442 0.950 1_455 S
H431 C443 0.950 . S
C432 H424 0.950 . S
C432 C433 1.386 . S
C432 C434 1.391 . S
C433 C432 1.386 . S
C433 C437 1.393 . S
C434 H426 0.950 . S
C434 C432 1.391 . S
C434 C435 1.400 . S
C435 C434 1.400 . S
C435 C436 1.398 . S
C435 C441 1.491 1_455 S
C436 H427 0.950 1_455 S
C436 C435 1.398 . S
C436 C437 1.391 . S
C437 H425 0.950 . S
C437 C433 1.393 . S
C437 C436 1.391 . S
C438 H428 0.950 . S
C438 C439 1.386 . S
C438 C440 1.391 . S
C439 C438 1.386 . S
C439 C443 1.393 . S
C440 H429 0.950 . S
C440 C438 1.391 . S
C440 C441 1.400 . S
C441 C435 1.491 1_655 S
C441 C440 1.400 . S
C441 C442 1.398 . S
C442 H430 0.950 1_655 S
C442 C441 1.398 . S
C442 C443 1.391 . S
C443 H431 0.950 . S
C443 C439 1.393 . S
C443 C442 1.391 . S
H444 C452 0.950 . S
H445 C457 0.950 . S
H446 C454 0.950 . S
H447 C456 0.950 . S
H448 C458 0.950 . S
H449 C460 0.950 . S
H450 C462 0.950 . S
H451 C463 0.950 . S
C452 H444 0.950 . S
C452 C453 1.386 . S
C452 C454 1.391 . S
C453 C452 1.386 . S
C453 C457 1.393 . S
C454 H446 0.950 . S
C454 C452 1.391 . S
C454 C455 1.400 . S
C455 C454 1.400 . S
C455 C456 1.398 . S
C455 C461 1.491 . S
C456 H447 0.950 . S
C456 C455 1.398 . S
C456 C457 1.391 . S
C457 H445 0.950 . S
C457 C453 1.393 . S
C457 C456 1.391 . S
C458 H448 0.950 . S
C458 C459 1.386 . S
C458 C460 1.391 . S
C459 C458 1.386 . S
C459 C463 1.393 . S
C460 H449 0.950 . S
C460 C458 1.391 . S
C460 C461 1.400 . S
C461 C455 1.491 . S
C461 C460 1.400 . S
C461 C462 1.398 . S
C462 H450 0.950 . S
C462 C461 1.398 . S
C462 C463 1.391 . S
C463 H451 0.950 . S
C463 C459 1.393 . S
C463 C462 1.391 . S
H464 C472 0.950 . S
H465 C477 0.950 . S
H466 C474 0.950 . S
H467 C476 0.950 . S
H468 C478 0.950 . S
H469 C480 0.950 . S
H470 C482 0.950 . S
H471 C483 0.950 . S
C472 H464 0.950 . S
C472 C473 1.386 . S
C472 C474 1.391 . S
C473 C472 1.386 . S
C473 C477 1.393 . S
C474 H466 0.950 . S
C474 C472 1.391 . S
C474 C475 1.400 . S
C475 C474 1.400 . S
C475 C476 1.398 . S
C475 C481 1.491 . S
C476 H467 0.950 . S
C476 C475 1.398 . S
C476 C477 1.391 . S
C477 H465 0.950 . S
C477 C473 1.393 . S
C477 C476 1.391 . S
C478 H468 0.950 . S
C478 C479 1.386 . S
C478 C480 1.391 . S
C479 C478 1.386 . S
C479 C483 1.393 . S
C480 H469 0.950 . S
C480 C478 1.391 . S
C480 C481 1.400 . S
C481 C475 1.491 . S
C481 C480 1.400 . S
C481 C482 1.398 . S
C482 H470 0.950 . S
C482 C481 1.398 . S
C482 C483 1.391 . S
C483 H471 0.950 . S
C483 C479 1.393 . S
C483 C482 1.391 . S
H484 C492 0.950 . S
H485 C497 0.950 . S
H486 C494 0.950 . S
H487 C496 0.950 . S
H488 C498 0.950 . S
H489 C500 0.950 . S
H490 C502 0.950 . S
H491 C503 0.950 . S
C492 H484 0.950 . S
C492 C493 1.386 . S
C492 C494 1.391 . S
C493 C492 1.386 . S
C493 C497 1.393 . S
C494 H486 0.950 . S
C494 C492 1.391 . S
C494 C495 1.400 . S
C495 C494 1.400 . S
C495 C496 1.398 . S
C495 C501 1.491 1_565 S
C496 H487 0.950 . S
C496 C495 1.398 . S
C496 C497 1.391 . S
C497 H485 0.950 . S
C497 C493 1.393 . S
C497 C496 1.391 . S
C498 H488 0.950 . S
C498 C499 1.386 . S
C498 C500 1.391 . S
C499 C498 1.386 . S
C499 C503 1.393 . S
C500 H489 0.950 . S
C500 C498 1.391 . S
C500 C501 1.400 . S
C501 C495 1.491 1_545 S
C501 C500 1.400 . S
C501 C502 1.398 . S
C502 H490 0.950 . S
C502 C501 1.398 . S
C502 C503 1.391 . S
C503 H491 0.950 . S
C503 C499 1.393 . S
C503 C502 1.391 . S
H504 C512 0.950 . S
H505 C517 0.950 . S
H506 C514 0.950 . S
H507 C516 0.950 . S
H508 C518 0.950 . S
H509 C520 0.950 . S
H510 C522 0.950 . S
H511 C523 0.950 . S
C512 H504 0.950 . S
C512 C513 1.386 . S
C512 C514 1.391 1_565 S
C513 C512 1.386 . S
C513 C517 1.393 . S
C514 H506 0.950 . S
C514 C512 1.391 1_545 S
C514 C515 1.400 1_545 S
C515 C514 1.400 1_565 S
C515 C516 1.398 . S
C515 C521 1.491 1_665 S
C516 H507 0.950 . S
C516 C515 1.398 . S
C516 C517 1.391 . S
C517 H505 0.950 . S
C517 C513 1.393 . S
C517 C516 1.391 . S
C518 H508 0.950 . S
C518 C519 1.386 . S
C518 C520 1.391 1_545 S
C519 C518 1.386 . S
C519 C523 1.393 . S
C520 H509 0.950 . S
C520 C518 1.391 1_565 S
C520 C521 1.400 1_565 S
C521 C515 1.491 1_445 S
C521 C520 1.400 1_545 S
C521 C522 1.398 . S
C522 H510 0.950 . S
C522 C521 1.398 . S
C522 C523 1.391 . S
C523 H511 0.950 . S
C523 C519 1.393 . S
C523 C522 1.391 . S
H524 C532 0.950 . S
H525 C537 0.950 1_655 S
H526 C534 0.950 . S
H527 C536 0.950 . S
H528 C538 0.950 . S
H529 C540 0.950 . S
H530 C542 0.950 . S
H531 C543 0.950 1_455 S
C532 H524 0.950 . S
C532 C533 1.386 . S
C532 C534 1.391 . S
C533 C532 1.386 . S
C533 C537 1.393 . S
C534 H526 0.950 . S
C534 C532 1.391 . S
C534 C535 1.400 . S
C535 C534 1.400 . S
C535 C536 1.398 1_455 S
C535 C541 1.491 1_455 S
C536 H527 0.950 . S
C536 C535 1.398 1_655 S
C536 C537 1.391 1_655 S
C537 H525 0.950 1_455 S
C537 C533 1.393 . S
C537 C536 1.391 1_455 S
C538 H528 0.950 . S
C538 C539 1.386 . S
C538 C540 1.391 . S
C539 C538 1.386 . S
C539 C543 1.393 . S
C540 H529 0.950 . S
C540 C538 1.391 . S
C540 C541 1.400 . S
C541 C535 1.491 1_655 S
C541 C540 1.400 . S
C541 C542 1.398 1_655 S
C542 H530 0.950 . S
C542 C541 1.398 1_455 S
C542 C543 1.391 1_455 S
C543 H531 0.950 1_655 S
C543 C539 1.393 . S
C543 C542 1.391 1_655 S
H544 C552 0.950 . S
H545 C557 0.950 . S
H546 C554 0.950 . S
H547 C556 0.950 . S
H548 C558 0.950 . S
H549 C560 0.950 . S
H550 C562 0.950 . S
H551 C563 0.950 . S
C552 H544 0.950 . S
C552 C553 1.386 . S
C552 C554 1.391 . S
C553 C552 1.386 . S
C553 C557 1.393 . S
C554 H546 0.950 . S
C554 C552 1.391 . S
C554 C555 1.400 . S
C555 C554 1.400 . S
C555 C556 1.398 . S
C555 C561 1.491 . S
C556 H547 0.950 . S
C556 C555 1.398 . S
C556 C557 1.391 . S
C557 H545 0.950 . S
C557 C553 1.393 . S
C557 C556 1.391 . S
C558 H548 0.950 . S
C558 C559 1.386 . S
C558 C560 1.391 . S
C559 C558 1.386 . S
C559 C563 1.393 . S
C560 H549 0.950 . S
C560 C558 1.391 . S
C560 C561 1.400 . S
C561 C555 1.491 . S
C561 C560 1.400 . S
C561 C562 1.398 . S
C562 H550 0.950 . S
C562 C561 1.398 . S
C562 C563 1.391 . S
C563 H551 0.950 . S
C563 C559 1.393 . S
C563 C562 1.391 . S
H564 C572 0.950 . S
H565 C577 0.950 . S
H566 C574 0.950 . S
H567 C576 0.950 . S
H568 C578 0.950 . S
H569 C580 0.950 . S
H570 C582 0.950 . S
H571 C583 0.950 . S
C572 H564 0.950 . S
C572 C573 1.386 . S
C572 C574 1.391 . S
C573 C572 1.386 . S
C573 C577 1.393 . S
C574 H566 0.950 . S
C574 C572 1.391 . S
C574 C575 1.400 . S
C575 C574 1.400 . S
C575 C576 1.398 . S
C575 C581 1.491 . S
C576 H567 0.950 . S
C576 C575 1.398 . S
C576 C577 1.391 . S
C577 H565 0.950 . S
C577 C573 1.393 . S
C577 C576 1.391 . S
C578 H568 0.950 . S
C578 C579 1.386 . S
C578 C580 1.391 . S
C579 C578 1.386 . S
C579 C583 1.393 . S
C580 H569 0.950 . S
C580 C578 1.391 . S
C580 C581 1.400 . S
C581 C575 1.491 . S
C581 C580 1.400 . S
C581 C582 1.398 . S
C582 H570 0.950 . S
C582 C581 1.398 . S
C582 C583 1.391 . S
C583 H571 0.950 . S
C583 C579 1.393 . S
C583 C582 1.391 . S
H584 C592 0.950 . S
H585 C597 0.950 . S
H586 C594 0.950 . S
H587 C596 0.950 . S
H588 C598 0.950 . S
H589 C600 0.950 . S
H590 C602 0.950 . S
H591 C603 0.950 . S
C592 H584 0.950 . S
C592 C593 1.386 . S
C592 C594 1.391 . S
C593 C592 1.386 . S
C593 C597 1.393 . S
C594 H586 0.950 . S
C594 C592 1.391 . S
C594 C595 1.400 . S
C595 C594 1.400 . S
C595 C596 1.398 . S
C595 C601 1.491 . S
C596 H587 0.950 . S
C596 C595 1.398 . S
C596 C597 1.391 . S
C597 H585 0.950 . S
C597 C593 1.393 . S
C597 C596 1.391 . S
C598 H588 0.950 . S
C598 C599 1.386 . S
C598 C600 1.391 . S
C599 C598 1.386 . S
C599 C603 1.393 . S
C600 H589 0.950 . S
C600 C598 1.391 . S
C600 C601 1.400 . S
C601 C595 1.491 . S
C601 C600 1.400 . S
C601 C602 1.398 . S
C602 H590 0.950 . S
C602 C601 1.398 . S
C602 C603 1.391 . S
C603 H591 0.950 . S
C603 C599 1.393 . S
C603 C602 1.391 . S
H604 C612 0.950 . S
H605 C617 0.950 . S
H606 C614 0.950 . S
H607 C616 0.950 . S
H608 C618 0.950 . S
H609 C620 0.950 . S
H610 C622 0.950 . S
H611 C623 0.950 . S
C612 H604 0.950 . S
C612 C613 1.386 . S
C612 C614 1.391 . S
C613 C612 1.386 . S
C613 C617 1.393 . S
C614 H606 0.950 . S
C614 C612 1.391 . S
C614 C615 1.400 . S
C615 C614 1.400 . S
C615 C616 1.398 . S
C615 C621 1.491 . S
C616 H607 0.950 . S
C616 C615 1.398 . S
C616 C617 1.391 . S
C617 H605 0.950 . S
C617 C613 1.393 . S
C617 C616 1.391 . S
C618 H608 0.950 . S
C618 C619 1.386 . S
C618 C620 1.391 . S
C619 C618 1.386 . S
C619 C623 1.393 . S
C620 H609 0.950 . S
C620 C618 1.391 . S
C620 C621 1.400 . S
C621 C615 1.491 . S
C621 C620 1.400 . S
C621 C622 1.398 . S
C622 H610 0.950 . S
C622 C621 1.398 . S
C622 C623 1.391 . S
C623 H611 0.950 . S
C623 C619 1.393 . S
C623 C622 1.391 . S
H624 C632 0.950 . S
H625 C637 0.950 . S
H626 C634 0.950 . S
H627 C636 0.950 . S
H628 C638 0.950 . S
H629 C640 0.950 . S
H630 C642 0.950 . S
H631 C643 0.950 . S
C632 H624 0.950 . S
C632 C633 1.386 . S
C632 C634 1.391 . S
C633 C632 1.386 . S
C633 C637 1.393 . S
C634 H626 0.950 . S
C634 C632 1.391 . S
C634 C635 1.400 . S
C635 C634 1.400 . S
C635 C636 1.398 . S
C635 C641 1.491 . S
C636 H627 0.950 . S
C636 C635 1.398 . S
C636 C637 1.391 . S
C637 H625 0.950 . S
C637 C633 1.393 . S
C637 C636 1.391 . S
C638 H628 0.950 . S
C638 C639 1.386 . S
C638 C640 1.391 . S
C639 C638 1.386 . S
C639 C643 1.393 . S
C640 H629 0.950 . S
C640 C638 1.391 . S
C640 C641 1.400 . S
C641 C635 1.491 . S
C641 C640 1.400 . S
C641 C642 1.398 . S
C642 H630 0.950 . S
C642 C641 1.398 . S
C642 C643 1.391 . S
C643 H631 0.950 . S
C643 C639 1.393 . S
C643 C642 1.391 . S
H644 C652 0.950 . S
H645 C657 0.950 . S
H646 C654 0.950 . S
H647 C656 0.950 . S
H648 C658 0.950 . S
H649 C660 0.950 . S
H650 C662 0.950 . S
H651 C663 0.950 . S
C652 H644 0.950 . S
C652 C653 1.386 . S
C652 C654 1.391 . S
C653 C652 1.386 . S
C653 C657 1.393 . S
C654 H646 0.950 . S
C654 C652 1.391 . S
C654 C655 1.400 . S
C655 C654 1.400 . S
C655 C656 1.398 . S
C655 C661 1.491 . S
C656 H647 0.950 . S
C656 C655 1.398 . S
C656 C657 1.391 . S
C657 H645 0.950 . S
C657 C653 1.393 . S
C657 C656 1.391 . S
C658 H648 0.950 . S
C658 C659 1.386 . S
C658 C660 1.391 . S
C659 C658 1.386 . S
C659 C663 1.393 . S
C660 H649 0.950 . S
C660 C658 1.391 . S
C660 C661 1.400 . S
C661 C655 1.491 . S
C661 C660 1.400 . S
C661 C662 1.398 . S
C662 H650 0.950 . S
C662 C661 1.398 . S
C662 C663 1.391 . S
C663 H651 0.950 . S
C663 C659 1.393 . S
C663 C662 1.391 . S
H664 C672 0.950 . S
H665 C677 0.950 . S
H666 C674 0.950 . S
H667 C676 0.950 . S
H668 C678 0.950 . S
H669 C680 0.950 . S
H670 C682 0.950 . S
H671 C683 0.950 . S
C672 H664 0.950 . S
C672 C673 1.386 . S
C672 C674 1.391 . S
C673 C672 1.386 . S
C673 C677 1.393 . S
C674 H666 0.950 . S
C674 C672 1.391 . S
C674 C675 1.400 . S
C675 C674 1.400 . S
C675 C676 1.398 . S
C675 C681 1.491 . S
C676 H667 0.950 . S
C676 C675 1.398 . S
C676 C677 1.391 . S
C677 H665 0.950 . S
C677 C673 1.393 . S
C677 C676 1.391 . S
C678 H668 0.950 . S
C678 C679 1.386 . S
C678 C680 1.391 . S
C679 C678 1.386 . S
C679 C683 1.393 . S
C680 H669 0.950 . S
C680 C678 1.391 . S
C680 C681 1.400 . S
C681 C675 1.491 . S
C681 C680 1.400 . S
C681 C682 1.398 . S
C682 H670 0.950 . S
C682 C681 1.398 . S
C682 C683 1.391 . S
C683 H671 0.950 . S
C683 C679 1.393 . S
C683 C682 1.391 . S
H684 C692 0.950 . S
H685 C697 0.950 . S
H686 C694 0.950 . S
H687 C696 0.950 . S
H688 C698 0.950 . S
H689 C700 0.950 . S
H690 C702 0.950 . S
H691 C703 0.950 . S
C692 H684 0.950 . S
C692 C693 1.386 . S
C692 C694 1.391 . S
C693 C692 1.386 . S
C693 C697 1.393 . S
C694 H686 0.950 . S
C694 C692 1.391 . S
C694 C695 1.400 . S
C695 C694 1.400 . S
C695 C696 1.398 . S
C695 C701 1.491 . S
C696 H687 0.950 . S
C696 C695 1.398 . S
C696 C697 1.391 . S
C697 H685 0.950 . S
C697 C693 1.393 . S
C697 C696 1.391 . S
C698 H688 0.950 . S
C698 C699 1.386 . S
C698 C700 1.391 . S
C699 C698 1.386 . S
C699 C703 1.393 . S
C700 H689 0.950 . S
C700 C698 1.391 . S
C700 C701 1.400 . S
C701 C695 1.491 . S
C701 C700 1.400 . S
C701 C702 1.398 . S
C702 H690 0.950 . S
C702 C701 1.398 . S
C702 C703 1.391 . S
C703 H691 0.950 . S
C703 C699 1.393 . S
C703 C702 1.391 . S
H704 C712 0.950 . S
H705 C717 0.950 . S
H706 C714 0.950 . S
H707 C716 0.950 . S
H708 C718 0.950 . S
H709 C720 0.950 . S
H710 C722 0.950 . S
H711 C723 0.950 . S
C712 H704 0.950 . S
C712 C713 1.386 . S
C712 C714 1.391 . S
C713 C712 1.386 . S
C713 C717 1.393 . S
C714 H706 0.950 . S
C714 C712 1.391 . S
C714 C715 1.400 . S
C715 C714 1.400 . S
C715 C716 1.398 . S
C715 C721 1.491 . S
C716 H707 0.950 . S
C716 C715 1.398 . S
C716 C717 1.391 . S
C717 H705 0.950 . S
C717 C713 1.393 . S
C717 C716 1.391 . S
C718 H708 0.950 . S
C718 C719 1.386 . S
C718 C720 1.391 . S
C719 C718 1.386 . S
C719 C723 1.393 . S
C720 H709 0.950 . S
C720 C718 1.391 . S
C720 C721 1.400 . S
C721 C715 1.491 . S
C721 C720 1.400 . S
C721 C722 1.398 . S
C722 H710 0.950 . S
C722 C721 1.398 . S
C722 C723 1.391 . S
C723 H711 0.950 . S
C723 C719 1.393 . S
C723 C722 1.391 . S
H724 C732 0.950 . S
H725 C737 0.950 . S
H726 C734 0.950 . S
H727 C736 0.950 . S
H728 C738 0.950 . S
H729 C740 0.950 . S
H730 C742 0.950 . S
H731 C743 0.950 . S
C732 H724 0.950 . S
C732 C733 1.386 . S
C732 C734 1.391 . S
C733 C732 1.386 . S
C733 C737 1.393 . S
C734 H726 0.950 . S
C734 C732 1.391 . S
C734 C735 1.400 . S
C735 C734 1.400 . S
C735 C736 1.398 . S
C735 C741 1.491 . S
C736 H727 0.950 . S
C736 C735 1.398 . S
C736 C737 1.391 . S
C737 H725 0.950 . S
C737 C733 1.393 . S
C737 C736 1.391 . S
C738 H728 0.950 . S
C738 C739 1.386 . S
C738 C740 1.391 . S
C739 C738 1.386 . S
C739 C743 1.393 . S
C740 H729 0.950 . S
C740 C738 1.391 . S
C740 C741 1.400 . S
C741 C735 1.491 . S
C741 C740 1.400 . S
C741 C742 1.398 . S
C742 H730 0.950 . S
C742 C741 1.398 . S
C742 C743 1.391 . S
C743 H731 0.950 . S
C743 C739 1.393 . S
C743 C742 1.391 . S
H744 C752 0.950 . S
H745 C757 0.950 . S
H746 C754 0.950 . S
H747 C756 0.950 . S
H748 C758 0.950 . S
H749 C760 0.950 . S
H750 C762 0.950 . S
H751 C763 0.950 . S
C752 H744 0.950 . S
C752 C753 1.386 . S
C752 C754 1.391 . S
C753 C752 1.386 . S
C753 C757 1.393 . S
C754 H746 0.950 . S
C754 C752 1.391 . S
C754 C755 1.400 . S
C755 C754 1.400 . S
C755 C756 1.398 . S
C755 C761 1.491 . S
C756 H747 0.950 . S
C756 C755 1.398 . S
C756 C757 1.391 . S
C757 H745 0.950 . S
C757 C753 1.393 . S
C757 C756 1.391 . S
C758 H748 0.950 . S
C758 C759 1.386 . S
C758 C760 1.391 . S
C759 C758 1.386 . S
C759 C763 1.393 . S
C760 H749 0.950 . S
C760 C758 1.391 . S
C760 C761 1.400 . S
C761 C755 1.491 . S
C761 C760 1.400 . S
C761 C762 1.398 . S
C762 H750 0.950 . S
C762 C761 1.398 . S
C762 C763 1.391 . S
C763 H751 0.950 . S
C763 C759 1.393 . S
C763 C762 1.391 . S
H764 C772 0.950 . S
H765 C777 0.950 . S
H766 C774 0.950 . S
H767 C776 0.950 . S
H768 C778 0.950 . S
H769 C780 0.950 . S
H770 C782 0.950 . S
H771 C783 0.950 . S
C772 H764 0.950 . S
C772 C773 1.386 . S
C772 C774 1.391 . S
C773 C772 1.386 . S
C773 C777 1.393 . S
C774 H766 0.950 . S
C774 C772 1.391 . S
C774 C775 1.400 . S
C775 C774 1.400 . S
C775 C776 1.398 . S
C775 C781 1.491 1_556 S
C776 H767 0.950 . S
C776 C775 1.398 . S
C776 C777 1.391 . S
C777 H765 0.950 . S
C777 C773 1.393 . S
C777 C776 1.391 . S
C778 H768 0.950 . S
C778 C779 1.386 . S
C778 C780 1.391 . S
C779 C778 1.386 . S
C779 C783 1.393 . S
C780 H769 0.950 . S
C780 C778 1.391 . S
C780 C781 1.400 . S
C781 C775 1.491 1_554 S
C781 C780 1.400 . S
C781 C782 1.398 . S
C782 H770 0.950 . S
C782 C781 1.398 . S
C782 C783 1.391 . S
C783 H771 0.950 . S
C783 C779 1.393 . S
C783 C782 1.391 . S
H784 C792 0.950 . S
H785 C797 0.950 . S
H786 C794 0.950 . S
H787 C796 0.950 . S
H788 C798 0.950 . S
H789 C800 0.950 . S
H790 C802 0.950 . S
H791 C803 0.950 . S
C792 H784 0.950 . S
C792 C793 1.386 . S
C792 C794 1.391 . S
C793 C792 1.386 . S
C793 C797 1.393 . S
C794 H786 0.950 . S
C794 C792 1.391 . S
C794 C795 1.400 . S
C795 C794 1.400 . S
C795 C796 1.398 . S
C795 C801 1.491 1_554 S
C796 H787 0.950 . S
C796 C795 1.398 . S
C796 C797 1.391 . S
C797 H785 0.950 . S
C797 C793 1.393 . S
C797 C796 1.391 . S
C798 H788 0.950 . S
C798 C799 1.386 . S
C798 C800 1.391 . S
C799 C798 1.386 . S
C799 C803 1.393 . S
C800 H789 0.950 . S
C800 C798 1.391 . S
C800 C801 1.400 . S
C801 C795 1.491 1_556 S
C801 C800 1.400 . S
C801 C802 1.398 . S
C802 H790 0.950 . S
C802 C801 1.398 . S
C802 C803 1.391 . S
C803 H791 0.950 . S
C803 C799 1.393 . S
C803 C802 1.391 . S
H804 C812 0.950 . S
H805 C817 0.950 . S
H806 C814 0.950 . S
H807 C816 0.950 . S
H808 C818 0.950 . S
H809 C820 0.950 . S
H810 C822 0.950 . S
H811 C823 0.950 . S
C812 H804 0.950 . S
C812 C813 1.386 . S
C812 C814 1.391 . S
C813 C812 1.386 . S
C813 C817 1.393 . S
C814 H806 0.950 . S
C814 C812 1.391 . S
C814 C815 1.400 . S
C815 C814 1.400 . S
C815 C816 1.398 . S
C815 C821 1.491 . S
C816 H807 0.950 . S
C816 C815 1.398 . S
C816 C817 1.391 . S
C817 H805 0.950 . S
C817 C813 1.393 . S
C817 C816 1.391 . S
C818 H808 0.950 . S
C818 C819 1.386 . S
C818 C820 1.391 . S
C819 C818 1.386 . S
C819 C823 1.393 . S
C820 H809 0.950 . S
C820 C818 1.391 . S
C820 C821 1.400 . S
C821 C815 1.491 . S
C821 C820 1.400 . S
C821 C822 1.398 . S
C822 H810 0.950 . S
C822 C821 1.398 . S
C822 C823 1.391 . S
C823 H811 0.950 . S
C823 C819 1.393 . S
C823 C822 1.391 . S
H824 C832 0.950 . S
H825 C837 0.950 . S
H826 C834 0.950 . S
H827 C836 0.950 . S
H828 C838 0.950 . S
H829 C840 0.950 . S
H830 C842 0.950 . S
H831 C843 0.950 . S
C832 H824 0.950 . S
C832 C833 1.386 . S
C832 C834 1.391 . S
C833 C832 1.386 . S
C833 C837 1.393 . S
C834 H826 0.950 . S
C834 C832 1.391 . S
C834 C835 1.400 . S
C835 C834 1.400 . S
C835 C836 1.398 . S
C835 C841 1.491 . S
C836 H827 0.950 . S
C836 C835 1.398 . S
C836 C837 1.391 . S
C837 H825 0.950 . S
C837 C833 1.393 . S
C837 C836 1.391 . S
C838 H828 0.950 . S
C838 C839 1.386 . S
C838 C840 1.391 . S
C839 C838 1.386 . S
C839 C843 1.393 . S
C840 H829 0.950 . S
C840 C838 1.391 . S
C840 C841 1.400 . S
C841 C835 1.491 . S
C841 C840 1.400 . S
C841 C842 1.398 . S
C842 H830 0.950 . S
C842 C841 1.398 . S
C842 C843 1.391 . S
C843 H831 0.950 . S
C843 C839 1.393 . S
C843 C842 1.391 . S
H844 C852 0.950 . S
H845 C857 0.950 . S
H846 C854 0.950 . S
H847 C856 0.950 . S
H848 C858 0.950 . S
H849 C860 0.950 . S
H850 C862 0.950 . S
H851 C863 0.950 . S
C852 H844 0.950 . S
C852 C853 1.386 . S
C852 C854 1.391 . S
C853 C852 1.386 . S
C853 C857 1.393 . S
C854 H846 0.950 . S
C854 C852 1.391 . S
C854 C855 1.400 . S
C855 C854 1.400 . S
C855 C856 1.398 . S
C855 C861 1.491 . S
C856 H847 0.950 . S
C856 C855 1.398 . S
C856 C857 1.391 . S
C857 H845 0.950 . S
C857 C853 1.393 . S
C857 C856 1.391 . S
C858 H848 0.950 . S
C858 C859 1.386 . S
C858 C860 1.391 . S
C859 C858 1.386 . S
C859 C863 1.393 . S
C860 H849 0.950 . S
C860 C858 1.391 . S
C860 C861 1.400 . S
C861 C855 1.491 . S
C861 C860 1.400 . S
C861 C862 1.398 . S
C862 H850 0.950 . S
C862 C861 1.398 . S
C862 C863 1.391 . S
C863 H851 0.950 . S
C863 C859 1.393 . S
C863 C862 1.391 . S
C233 C151 1.510 . S
C239 C11 1.513 . S
C253 C25 1.512 . S
C259 C165 1.511 . S
C273 C123 1.520 . S
C279 C39 1.523 . S
C293 C137 1.516 . S
C299 C53 1.511 . S
C313 C67 1.522 . S
C319 C207 1.523 . S
C333 C221 1.522 . S
C339 C81 1.517 . S
C353 C95 1.517 . S
C359 C179 1.522 . S
C373 C193 1.512 . S
C379 C109 1.510 . S
C393 C145 1.558 . S
C399 C5 1.558 . S
C413 C19 1.558 . S
C419 C159 1.558 . S
C433 C33 1.558 . S
C439 C117 1.558 . S
C453 C47 1.558 . S
C459 C131 1.558 . S
C473 C61 1.558 . S
C479 C201 1.558 . S
C493 C75 1.558 . S
C499 C215 1.558 . S
C513 C173 1.558 . S
C519 C89 1.558 . S
C533 C187 1.558 . S
C539 C103 1.558 . S
C553 C9 1.233 . S
C559 C93 1.239 . S
C573 C23 1.243 . S
C579 C107 1.229 . S
C593 C37 1.251 . S
C599 C65 1.228 . S
C613 C51 1.250 . S
C619 C79 1.225 . S
C633 C121 1.227 . S
C639 C205 1.246 . S
C653 C219 1.231 . S
C659 C135 1.242 . S
C673 C149 1.227 . S
C679 C177 1.252 . S
C693 C191 1.248 . S
C699 C163 1.226 . S
C713 C0 1.249 . S
C719 C210 1.233 . S
C733 C168 1.232 . S
C739 C14 1.242 . S
C753 C182 1.246 . S
C759 C28 1.236 . S
C773 C196 1.237 . S
C779 C42 1.246 . S
C793 C126 1.244 . S
C799 C56 1.230 . S
C813 C140 1.230 . S
C819 C70 1.250 . S
C833 C84 1.233 . S
C839 C154 1.249 . S
C853 C98 1.230 . S
C859 C112 1.250 . S
