# Generated by pormake.
# Topology unn, (4)-cn, num edge types: 1
# Building blocks:
#     Node 0, Type 0, BuildingBlock: MUDLON_clean_sbu_0, # of connection points: 4
#     Node 1, Type 0, BuildingBlock: MUDLON_clean_sbu_0, # of connection points: 4
#     Node 2, Type 0, BuildingBlock: MUDLON_clean_sbu_0, # of connection points: 4
#     Node 3, Type 0, BuildingBlock: MUDLON_clean_sbu_0, # of connection points: 4
#     Node 4, Type 0, BuildingBlock: MUDLON_clean_sbu_0, # of connection points: 4
#     Node 5, Type 0, BuildingBlock: MUDLON_clean_sbu_0, # of connection points: 4
#     Node 6, Type 0, BuildingBlock: MUDLON_clean_sbu_0, # of connection points: 4
#     Node 7, Type 0, BuildingBlock: MUDLON_clean_sbu_0, # of connection points: 4
#     Node 8, Type 0, BuildingBlock: MUDLON_clean_sbu_0, # of connection points: 4
#     Node 9, Type 0, BuildingBlock: MUDLON_clean_sbu_0, # of connection points: 4
#     Node 10, Type 0, BuildingBlock: MUDLON_clean_sbu_0, # of connection points: 4
#     Node 11, Type 0, BuildingBlock: MUDLON_clean_sbu_0, # of connection points: 4
#     Node 12, Type 0, BuildingBlock: MUDLON_clean_sbu_0, # of connection points: 4
#     Node 13, Type 0, BuildingBlock: MUDLON_clean_sbu_0, # of connection points: 4
#     Node 14, Type 0, BuildingBlock: MUDLON_clean_sbu_0, # of connection points: 4
#     Node 15, Type 0, BuildingBlock: MUDLON_clean_sbu_0, # of connection points: 4
#     Node 16, Type 0, BuildingBlock: MUDLON_clean_sbu_0, # of connection points: 4
#     Node 17, Type 0, BuildingBlock: MUDLON_clean_sbu_0, # of connection points: 4
#     Edge 18, Type (0, 0), BuildingBlock: AJUNOK_clean_linker_0, # of connection points: 2
#     Edge 19, Type (0, 0), BuildingBlock: AJUNOK_clean_linker_0, # of connection points: 2
#     Edge 20, Type (0, 0), BuildingBlock: AJUNOK_clean_linker_0, # of connection points: 2
#     Edge 21, Type (0, 0), BuildingBlock: AJUNOK_clean_linker_0, # of connection points: 2
#     Edge 22, Type (0, 0), BuildingBlock: AJUNOK_clean_linker_0, # of connection points: 2
#     Edge 23, Type (0, 0), BuildingBlock: AJUNOK_clean_linker_0, # of connection points: 2
#     Edge 24, Type (0, 0), BuildingBlock: AJUNOK_clean_linker_0, # of connection points: 2
#     Edge 25, Type (0, 0), BuildingBlock: AJUNOK_clean_linker_0, # of connection points: 2
#     Edge 26, Type (0, 0), BuildingBlock: AJUNOK_clean_linker_0, # of connection points: 2
#     Edge 27, Type (0, 0), BuildingBlock: AJUNOK_clean_linker_0, # of connection points: 2
#     Edge 28, Type (0, 0), BuildingBlock: AJUNOK_clean_linker_0, # of connection points: 2
#     Edge 29, Type (0, 0), BuildingBlock: AJUNOK_clean_linker_0, # of connection points: 2
#     Edge 30, Type (0, 0), BuildingBlock: AJUNOK_clean_linker_0, # of connection points: 2
#     Edge 31, Type (0, 0), BuildingBlock: AJUNOK_clean_linker_0, # of connection points: 2
#     Edge 32, Type (0, 0), BuildingBlock: AJUNOK_clean_linker_0, # of connection points: 2
#     Edge 33, Type (0, 0), BuildingBlock: AJUNOK_clean_linker_0, # of connection points: 2
#     Edge 34, Type (0, 0), BuildingBlock: AJUNOK_clean_linker_0, # of connection points: 2
#     Edge 35, Type (0, 0), BuildingBlock: AJUNOK_clean_linker_0, # of connection points: 2
#     Edge 36, Type (0, 0), BuildingBlock: AJUNOK_clean_linker_0, # of connection points: 2
#     Edge 37, Type (0, 0), BuildingBlock: AJUNOK_clean_linker_0, # of connection points: 2
#     Edge 38, Type (0, 0), BuildingBlock: AJUNOK_clean_linker_0, # of connection points: 2
#     Edge 39, Type (0, 0), BuildingBlock: AJUNOK_clean_linker_0, # of connection points: 2
#     Edge 40, Type (0, 0), BuildingBlock: AJUNOK_clean_linker_0, # of connection points: 2
#     Edge 41, Type (0, 0), BuildingBlock: AJUNOK_clean_linker_0, # of connection points: 2
#     Edge 42, Type (0, 0), BuildingBlock: AJUNOK_clean_linker_0, # of connection points: 2
#     Edge 43, Type (0, 0), BuildingBlock: AJUNOK_clean_linker_0, # of connection points: 2
#     Edge 44, Type (0, 0), BuildingBlock: AJUNOK_clean_linker_0, # of connection points: 2
#     Edge 45, Type (0, 0), BuildingBlock: AJUNOK_clean_linker_0, # of connection points: 2
#     Edge 46, Type (0, 0), BuildingBlock: AJUNOK_clean_linker_0, # of connection points: 2
#     Edge 47, Type (0, 0), BuildingBlock: AJUNOK_clean_linker_0, # of connection points: 2
#     Edge 48, Type (0, 0), BuildingBlock: AJUNOK_clean_linker_0, # of connection points: 2
#     Edge 49, Type (0, 0), BuildingBlock: AJUNOK_clean_linker_0, # of connection points: 2
#     Edge 50, Type (0, 0), BuildingBlock: AJUNOK_clean_linker_0, # of connection points: 2
#     Edge 51, Type (0, 0), BuildingBlock: AJUNOK_clean_linker_0, # of connection points: 2
#     Edge 52, Type (0, 0), BuildingBlock: AJUNOK_clean_linker_0, # of connection points: 2
#     Edge 53, Type (0, 0), BuildingBlock: AJUNOK_clean_linker_0, # of connection points: 2
# Relax obj value: 0.098
# Max RMSD: 0.215
# Mean RMSD: 0.212
data_MOF--net-unn--node1-MUDLON_clean_sbu_0--edge1-AJUNOK_clean_linker_0
_symmetry_space_group_name_H-M    P1
_symmetry_Int_Tables_number       1
_symmetry_cell_setting            triclinic
loop_
_symmetry_equiv_pos_as_xyz
'x, y, z'
_cell_length_a     34.970366
_cell_length_b     34.800511
_cell_length_c     31.877082
_cell_angle_alpha  90.554317
_cell_angle_beta   89.590707
_cell_angle_gamma 120.34953
loop_
_atom_site_label
_atom_site_type_symbol
_atom_site_fract_x
_atom_site_fract_y
_atom_site_fract_z
_atom_type_partial_charge
Mg0 Mg 0.07723 0.7862 0.22854 0.0
C1 C 0.06596 0.72536 0.15604 0.0
O2 O 1.02408 0.71258 0.16218 0.0
C3 C 0.05783 0.77706 0.31704 0.0
O4 O 0.07268 0.81931 0.30933 0.0
C5 C 0.98468 0.75829 0.20593 0.0
O6 O 0.98026 0.72802 0.23296 0.0
O7 O 1.02334 0.79175 0.19996 0.0
O8 O 0.09472 0.75263 0.18165 0.0
O9 O 0.14065 0.84277 0.24856 0.0
C10 C 0.16559 0.82908 0.2631 0.0
O11 O 0.15134 0.78621 0.26102 0.0
O12 O 0.05351 0.75119 0.28671 0.0
Mg13 Mg 0.36637 0.35351 0.2415 0.0
C14 C 0.40658 0.40313 0.32172 0.0
O15 O 0.3967 0.43149 0.30536 0.0
C16 C 0.36468 0.37031 0.15503 0.0
O17 O 0.33081 0.33054 0.16279 0.0
C18 C 0.3064 0.38862 0.26202 0.0
O19 O 0.33748 0.42108 0.23971 0.0
O20 O 0.30644 0.35205 0.26416 0.0
O21 O 0.40529 0.37261 0.29845 0.0
O22 O 0.36503 0.29399 0.21674 0.0
C23 C 0.40312 0.30194 0.20435 0.0
O24 O 0.43771 0.34107 0.21304 0.0
O25 O 0.38852 0.3939 0.18561 0.0
Mg26 Mg 0.77412 1.01937 0.24281 0.0
C27 C 0.78888 0.06961 0.32002 0.0
O28 O 0.82885 0.0812 0.30662 0.0
C29 C 0.76031 1.00585 0.15502 0.0
O30 O 0.79769 1.00714 0.16325 0.0
C31 C 0.72978 0.93149 0.2813 0.0
O32 O 0.69988 0.9437 0.27955 0.0
O33 O 0.76805 0.9575 0.26574 0.0
O34 O 0.75567 0.0436 0.29755 0.0
O35 O 0.83535 0.07708 0.21972 0.0
C36 C 0.82586 0.10542 0.20542 0.0
O37 O 0.78539 0.09784 0.21115 0.0
O38 O 0.73623 1.00529 0.18545 0.0
Mg39 Mg 0.07508 0.33387 0.73549 0.0
C40 C 0.98622 0.28564 0.7008 0.0
O41 O 0.99271 0.32464 0.71306 0.0
C42 C 0.16193 0.37171 0.77304 0.0
O43 O 0.15185 0.40333 0.77289 0.0
C44 C 0.09571 0.36011 0.65055 0.0
O45 O 0.08812 0.3192 0.65326 0.0
O46 O 0.09495 0.38001 0.68401 0.0
O47 O 1.01651 0.27641 0.70822 0.0
O48 O 0.05382 0.34821 0.79423 0.0
C49 C 1.03535 0.31342 0.81673 0.0
O50 O 1.02745 0.27539 0.80013 0.0
O51 O 0.13467 0.33429 0.75621 0.0
Mg52 Mg 0.78377 0.7786 0.72532 0.0
C53 C 0.73877 0.82476 0.75816 0.0
O54 O 0.70609 0.78603 0.74547 0.0
C55 C 0.85039 0.75238 0.70431 0.0
O56 O 0.82173 0.71952 0.72791 0.0
C57 C 0.7907 0.76222 0.81224 0.0
O58 O 0.81987 0.80457 0.80677 0.0
O59 O 0.76834 0.73912 0.78091 0.0
O60 O 0.77845 0.8345 0.74998 0.0
O61 O 0.73591 0.74853 0.67549 0.0
C62 C 0.73996 0.72401 0.64817 0.0
O63 O 0.77037 0.713 0.65333 0.0
O64 O 0.84561 0.78613 0.69984 0.0
Mg65 Mg 0.32421 1.01804 0.73902 0.0
C66 C 0.32322 0.97736 0.65971 0.0
O67 O 0.28116 0.96107 0.66896 0.0
C68 C 0.34421 0.04665 0.82522 0.0
O69 O 0.30122 1.02965 0.8217 0.0
C70 C 0.35537 0.09953 0.69417 0.0
O71 O 0.38935 0.09457 0.70253 0.0
O72 O 0.31756 0.07071 0.70888 0.0
O73 O 0.35221 1.00069 0.68704 0.0
O74 O 0.2705 0.95589 0.76513 0.0
C75 C 0.2812 0.92614 0.76983 0.0
O76 O 0.31952 0.9338 0.7549 0.0
O77 O 0.36629 0.04805 0.7928 0.0
Mg78 Mg 0.73952 0.10687 0.57597 0.0
C79 C 0.7723 0.11276 0.49234 0.0
O80 O 0.77713 0.15199 0.50084 0.0
C81 C 0.75201 0.06748 0.65477 0.0
O82 O 0.79123 0.08157 0.63801 0.0
C83 C 0.65375 0.06594 0.53492 0.0
O84 O 0.66484 0.03516 0.53723 0.0
O85 O 0.6795 0.1038 0.55186 0.0
O86 O 0.75851 0.08363 0.52107 0.0
O87 O 0.79734 0.1692 0.59712 0.0
C88 C 0.83474 0.17129 0.59382 0.0
O89 O 0.83693 0.14046 0.57161 0.0
O90 O 0.722 0.06807 0.63296 0.0
Mg91 Mg 1.02208 0.68278 0.56954 0.0
C92 C 0.97057 0.72043 0.6012 0.0
O93 O 1.01034 0.75391 0.59284 0.0
C94 C 0.06263 0.63634 0.52971 0.0
O95 O 0.09441 0.67805 0.53383 0.0
C96 C 1.03957 0.67408 0.65369 0.0
O97 O 1.00367 0.63712 0.64226 0.0
O98 O 0.06057 0.7035 0.62599 0.0
O99 O 0.96223 0.68112 0.59213 0.0
O100 O 1.04431 0.72691 0.51697 0.0
C101 C 1.01942 0.70683 0.48584 0.0
O102 O 0.98568 0.66637 0.49127 0.0
O103 O 1.02437 0.6253 0.54435 0.0
Mg104 Mg 0.42594 0.34385 0.56375 0.0
C105 C 0.38503 0.3741 0.50208 0.0
O106 O 0.39978 0.40783 0.52837 0.0
C107 C 0.43685 0.35409 0.65396 0.0
O108 O 0.45994 0.33545 0.6426 0.0
C109 C 0.49536 0.43674 0.54199 0.0
O110 O 0.47812 0.44403 0.57576 0.0
O111 O 0.48563 0.39687 0.53373 0.0
O112 O 0.38027 0.33756 0.51532 0.0
O113 O 0.41728 0.27814 0.57623 0.0
C114 C 0.38129 0.25196 0.59547 0.0
O115 O 0.35193 0.2646 0.60063 0.0
O116 O 0.41844 0.36494 0.62581 0.0
Mg117 Mg 0.74396 0.66721 0.06407 0.0
C118 C 0.76723 0.69072 0.97982 0.0
O119 O 0.76461 0.65215 0.98579 0.0
C120 C 0.7124 0.6539 0.14731 0.0
O121 O 0.72355 0.62384 0.13879 0.0
C122 C 0.65863 0.6166 0.02488 0.0
O123 O 0.66514 0.65653 0.03322 0.0
O124 O 0.68791 0.6075 0.03694 0.0
O125 O 0.76266 0.71091 0.0112 0.0
O126 O 0.80465 0.67266 0.08878 0.0
C127 C 0.83419 0.71305 0.09631 0.0
O128 O 0.82624 0.7446 0.0852 0.0
O129 O 0.71662 0.68099 0.11868 0.0
Mg130 Mg 0.46501 0.12503 0.06952 0.0
C131 C 0.43238 0.18708 0.08945 0.0
O132 O 0.39903 0.15431 0.06933 0.0
C133 C 0.50947 0.08373 0.02766 0.0
O134 O 0.46856 0.05173 0.03471 0.0
C135 C 0.42718 0.09094 0.15528 0.0
O136 O 0.40983 0.11604 0.14861 0.0
O137 O 0.44845 0.08516 0.12576 0.0
O138 O 0.46881 0.187 0.09095 0.0
O139 O 0.41736 0.09719 0.01932 0.0
C140 C 0.43388 0.11582 0.98443 0.0
O141 O 0.47473 0.14965 0.98382 0.0
O142 O 0.52107 0.12281 0.04111 0.0
Mg143 Mg 1.00297 0.35119 0.07564 0.0
C144 C 1.00116 0.31375 -0.00541 0.0
O145 O 0.95929 0.29727 0.00468 0.0
C146 C 1.01625 0.36856 0.16455 0.0
O147 O 0.97401 0.35406 0.15826 0.0
C148 C 1.03935 0.43703 0.0362 0.0
O149 O 0.07255 0.43028 0.04282 0.0
O150 O 1.00108 0.40807 0.04978 0.0
O151 O 1.03065 0.3357 0.02202 0.0
O152 O 0.94408 0.28925 0.09485 0.0
C153 C 0.95391 0.2624 0.11209 0.0
O154 O 0.99584 0.27359 0.11348 0.0
O155 O 1.04077 0.37298 0.1331 0.0
Mg156 Mg 0.41202 0.44962 0.8953 0.0
C157 C 0.42038 0.38723 0.83 0.0
O158 O 0.40084 0.35502 0.85744 0.0
C159 C 0.39551 0.43344 0.98335 0.0
O160 O 0.40499 0.47462 0.97723 0.0
C161 C 0.32282 0.40879 0.86281 0.0
O162 O 0.33053 0.37653 0.87155 0.0
O163 O 0.35249 0.44853 0.87258 0.0
O164 O 0.43007 0.42648 0.83996 0.0
O165 O 0.47335 0.50827 0.9161 0.0
C166 C 0.50127 0.49684 0.92696 0.0
O167 O 0.49056 0.45517 0.92099 0.0
O168 O 0.39373 0.41007 0.95163 0.0
Mg169 Mg 0.66581 0.9876 0.90292 0.0
C170 C 0.72607 1.02621 0.98143 0.0
O171 O 0.7477 0.06384 0.96088 0.0
C172 C 0.73312 0.03642 0.83488 0.0
O173 O 0.75186 1.01523 0.85054 0.0
C174 C 0.6247 0.03684 0.93353 0.0
O175 O 0.66738 0.06541 0.93065 0.0
O176 O 0.61058 0.99702 0.92072 0.0
O177 O 0.69475 0.99222 0.96366 0.0
O178 O 0.65922 0.92829 0.87117 0.0
C179 C 0.69149 0.922 0.87843 0.0
O180 O 0.71828 0.94432 0.90947 0.0
O181 O 0.70229 0.03719 0.85552 0.0
Mg182 Mg 0.12144 0.6827 0.90343 0.0
C183 C 0.12338 0.7043 -0.00913 0.0
O184 O 0.15701 0.69785 0.98548 0.0
C185 C 0.07976 0.69989 0.83135 0.0
O186 O 0.0994 0.73931 0.84929 0.0
C187 C 0.07695 0.59433 0.93904 0.0
O188 O 1.04724 0.60665 0.93583 0.0
O189 O 0.11577 0.62045 0.92464 0.0
O190 O 0.10089 0.70261 0.95904 0.0
O191 O 0.1825 0.73935 0.87888 0.0
C192 C 0.1879 0.77793 0.88602 0.0
O193 O 0.16311 0.78186 0.91494 0.0
O194 O 0.078 0.66724 0.85059 0.0
Mg195 Mg 0.408 0.99375 0.4041 0.0
C196 C 0.32357 0.94634 0.36155 0.0
O197 O 0.33026 0.98611 0.37105 0.0
C198 C 0.49348 1.03152 0.44558 0.0
O199 O 0.48119 0.06139 0.44931 0.0
C200 C 0.43454 1.02853 0.32189 0.0
O201 O 0.43892 0.99323 0.32375 0.0
O202 O 0.42504 0.04205 0.3554 0.0
O203 O 0.35217 0.93635 0.37373 0.0
O204 O 0.38358 1.00546 0.46196 0.0
C205 C 0.36209 0.97064 0.48396 0.0
O206 O 0.35222 0.93189 0.46768 0.0
O207 O 0.46849 0.99594 0.42489 0.0
Mg208 Mg 0.14738 0.47137 0.40086 0.0
C209 C 0.10405 0.51596 0.43647 0.0
O210 O 0.07379 0.47393 0.43076 0.0
C211 C 0.19766 0.43134 0.37132 0.0
O212 O 0.15908 0.3987 0.38395 0.0
C213 C 0.14076 0.4473 0.48854 0.0
O214 O 0.17119 0.48973 0.48752 0.0
O215 O 0.12322 0.42748 0.45419 0.0
O216 O 0.14348 0.5287 0.42402 0.0
O217 O 0.10794 0.44863 0.34498 0.0
C218 C 0.0784 0.409 0.33618 0.0
O219 O 0.06458 0.37794 0.3649 0.0
O220 O 0.20621 0.47126 0.37731 0.0
Mg221 Mg 0.63444 0.67484 0.39892 0.0
C222 C 0.64169 0.66099 0.3104 0.0
O223 O 0.61143 0.67273 0.31256 0.0
C224 C 0.65803 0.6972 0.48468 0.0
O225 O 0.61982 0.69528 0.47978 0.0
C226 C 0.68058 0.76457 0.36736 0.0
O227 O 0.70967 0.75166 0.3722 0.0
O228 O 0.64069 0.73794 0.37895 0.0
O229 O 0.65798 0.65652 0.34424 0.0
O230 O 0.57538 0.61606 0.42334 0.0
C231 C 0.5758 0.57976 0.41909 0.0
O232 O 0.6058 0.57931 0.39442 0.0
O233 O 0.67638 0.69119 0.45273 0.0
C234 C 0.05171 0.70352 0.08068 0.0
C235 C 0.08033 0.71621 0.11537 0.0
C236 C 0.06612 0.70027 0.04048 0.0
C237 C 0.10953 0.70903 0.03352 0.0
H238 H 1.01823 0.69734 0.08421 0.0
H239 H 1.04295 0.69072 0.01471 0.0
S240 S 0.1968 0.74116 0.11423 0.0
N241 N 0.15362 0.73602 0.14049 0.0
N242 N 0.18068 0.72951 0.06489 0.0
C243 C 0.13817 0.72057 0.0681 0.0
C244 C 0.12358 0.72423 0.10904 0.0
C245 C 0.40073 0.44623 0.06081 0.0
C246 C 0.38878 0.41622 0.0267 0.0
C247 C 0.39407 0.43139 0.10236 0.0
C248 C 0.37457 0.38594 0.11131 0.0
H249 H 0.41532 0.48162 0.05552 0.0
H250 H 0.40318 0.45556 0.12756 0.0
S251 S 0.34019 0.2939 0.03385 0.0
N252 N 0.35872 0.33906 0.00499 0.0
N253 N 0.34573 0.31109 0.08306 0.0
C254 C 0.36337 0.35561 0.07765 0.0
C255 C 0.37062 0.37076 0.03534 0.0
C256 C 0.70911 0.98662 0.09417 0.0
C257 C 0.75131 1.01292 0.11162 0.0
C258 C 0.70141 0.99128 0.05193 0.0
C259 C 0.73535 1.0232 0.02608 0.0
H260 H 0.6823 0.9615 0.11291 0.0
H261 H 0.66849 0.96972 0.03947 0.0
S262 S 0.85078 0.10287 0.05849 0.0
N263 N 0.82701 0.07325 0.1009 0.0
N264 N 0.81205 0.08312 0.02197 0.0
C265 C 0.77725 0.05088 0.04379 0.0
C266 C 0.78535 0.0454 0.08647 0.0
C267 C 0.74743 0.05992 0.4316 0.0
C268 C 0.77772 0.10176 0.44882 0.0
C269 C 0.74989 0.05032 0.38914 0.0
C270 C 0.7833 0.08195 0.36296 0.0
H271 H 0.72117 0.03478 0.45082 0.0
H272 H 0.72628 1.01757 0.37705 0.0
S273 S 0.87039 0.19625 0.39302 0.0
N274 N 0.84146 0.17518 0.43644 0.0
N275 N 0.84701 0.1566 0.35707 0.0
C276 C 0.81377 0.12377 0.37989 0.0
C277 C 0.81071 0.13384 0.42275 0.0
C278 C 1.00963 0.6983 0.40848 0.0
C279 C 1.02935 0.72633 0.4435 0.0
C280 C 1.01907 0.71502 0.3677 0.0
C281 C 1.04806 0.76049 0.36041 0.0
H282 H 0.98714 0.66292 0.41243 0.0
H283 H 1.00331 0.69212 0.34173 0.0
S284 S 0.10834 0.84804 0.44121 0.0
N285 N 0.07929 0.8018 0.46823 0.0
N286 N 0.09677 0.83347 0.39142 0.0
C287 C 0.06779 0.78906 0.39509 0.0
C288 C 0.05854 0.77191 0.43668 0.0
C289 C 0.38181 0.34785 0.42811 0.0
C290 C 0.38896 0.38239 0.45611 0.0
C291 C 0.3898 0.35547 0.38504 0.0
C292 C 0.40488 0.39789 0.3679 0.0
H293 H 0.37026 0.31451 0.43948 0.0
H294 H 0.38287 0.32742 0.36494 0.0
S295 S 0.4309 0.50042 0.42725 0.0
N296 N 0.41368 0.46139 0.46334 0.0
N297 N 0.42812 0.47531 0.38223 0.0
C298 C 0.41262 0.43291 0.39537 0.0
C299 C 0.40472 0.42526 0.43941 0.0
C300 C 0.99282 0.27734 0.88152 0.0
C301 C 1.02698 0.31536 0.86189 0.0
C302 C 0.9855 0.27677 0.92477 0.0
C303 C 1.01289 0.31373 0.95014 0.0
H304 H 0.97124 0.24785 0.86325 0.0
H305 H 0.95813 0.24717 0.93848 0.0
S306 S 0.10718 0.42141 0.91427 0.0
N307 N 0.08848 0.39105 0.87104 0.0
N308 N 0.0753 0.38961 0.95269 0.0
C309 C 1.04754 0.35184 0.93108 0.0
C310 C 0.05439 0.35279 0.88682 0.0
C311 C 0.79226 0.75417 0.93046 0.0
C312 C 0.77235 0.70818 0.93701 0.0
C313 C 0.79816 0.77125 0.88987 0.0
C314 C 0.78367 0.74287 0.85449 0.0
H315 H 0.80396 0.77716 0.95681 0.0
H316 H 0.81395 0.80701 0.88628 0.0
S317 S 0.72721 0.61953 0.85517 0.0
N318 N 0.73664 0.63428 0.90509 0.0
N319 N 0.74741 0.66645 0.8288 0.0
C320 C 0.76289 0.69672 0.86071 0.0
C321 C 0.75736 0.67936 0.90199 0.0
C322 C 0.43326 0.11069 0.90636 0.0
C323 C 0.40969 0.09804 0.94454 0.0
C324 C 0.41193 0.09363 0.86797 0.0
C325 C 0.36607 0.0637 0.86622 0.0
H326 H 0.46871 0.1336 0.90599 0.0
H327 H 0.43151 0.10432 0.83947 0.0
S328 S 0.28906 1.01983 0.95717 0.0
N329 N 0.33795 0.05356 0.97822 0.0
N330 N 0.29763 1.02168 0.90606 0.0
C331 C 0.34198 0.05084 0.90414 0.0
C332 C 0.36383 0.06793 0.9433 0.0
C333 C 0.30722 0.93875 0.59055 0.0
C334 C 0.33588 0.97519 0.61595 0.0
C335 C 0.3159 0.93769 0.54776 0.0
C336 C 0.35287 0.97359 0.52866 0.0
H337 H 0.27774 0.91087 0.60383 0.0
H338 H 0.29315 0.90879 0.52939 0.0
S339 S 0.43831 0.07682 0.58133 0.0
N340 N 0.40314 0.04784 0.61908 0.0
N341 N 0.41892 0.04623 0.53835 0.0
C342 C 0.38186 1.01026 0.55365 0.0
C343 C 0.37354 1.01092 0.59743 0.0
C344 C 0.13003 0.42826 0.60608 0.0
C345 C 0.10483 0.38173 0.60915 0.0
C346 C 0.14126 0.44901 0.56687 0.0
C347 C 0.12722 0.42405 0.52929 0.0
H348 H 0.14206 0.44877 0.6341 0.0
H349 H 0.16127 0.485 0.56615 0.0
S350 S 0.0574 0.30112 0.52057 0.0
N351 N 0.06402 0.31119 0.5715 0.0
N352 N 0.0849 0.35025 0.49787 0.0
C353 C 0.10084 0.37749 0.53201 0.0
C354 C 0.08974 0.35633 0.57192 0.0
C355 C 0.71267 0.69545 0.53335 0.0
C356 C 0.67758 0.70346 0.52691 0.0
C357 C 0.73143 0.70057 0.57308 0.0
C358 C 0.71616 0.7143 0.60783 0.0
H359 H 0.72582 0.68514 0.50757 0.0
H360 H 0.75892 0.69471 0.57619 0.0
S361 S 0.624 0.73814 0.60805 0.0
N362 N 0.62738 0.72468 0.55894 0.0
N363 N 0.6629 0.73445 0.63356 0.0
C364 C 0.68059 0.72173 0.60203 0.0
C365 C 0.66129 0.71629 0.56158 0.0
C366 C 0.42573 0.40644 0.75427 0.0
C367 C 0.42509 0.37773 0.78555 0.0
C368 C 0.4287 0.39814 0.7117 0.0
C369 C 0.43207 0.36133 0.69885 0.0
H370 H 0.42327 0.43537 0.7626 0.0
H371 H 0.4291 0.42112 0.68876 0.0
S372 S 0.43079 0.2753 0.76779 0.0
N373 N 0.42691 0.31031 0.80048 0.0
N374 N 0.4335 0.29514 0.72032 0.0
C375 C 0.4314 0.33223 0.72963 0.0
C376 C 0.42759 0.34028 0.77302 0.0
C377 C 0.77556 0.0509 0.72286 0.0
C378 C 0.74578 0.05893 0.70051 0.0
C379 C 0.7723 0.04548 0.7665 0.0
C380 C 0.73944 0.04839 0.78973 0.0
H381 H 0.80153 0.04848 0.70651 0.0
H382 H 0.79543 0.0383 0.78202 0.0
S383 S 0.65477 0.0716 0.74638 0.0
N384 N 0.68325 0.07121 0.70506 0.0
N385 N 0.67737 0.06157 0.78696 0.0
C386 C 0.71006 0.05752 0.76784 0.0
C387 C 0.71306 0.06249 0.7233 0.0
C388 C 1.03692 0.65354 0.77028 0.0
C389 C 0.06864 0.69523 0.78641 0.0
C390 C 1.02836 0.64716 0.72727 0.0
C391 C 0.05157 0.68207 0.6986 0.0
H392 H 1.0186 0.62554 0.79106 0.0
H393 H 1.00329 0.61438 0.71652 0.0
S394 S 0.14 0.79731 0.7249 0.0
N395 N 0.12463 0.77182 0.77053 0.0
N396 N 0.10863 0.75975 0.68947 0.0
C397 C 0.08383 0.72394 0.71428 0.0
C398 C 0.09226 0.73056 0.75826 0.0
C399 C 0.65238 0.67745 0.23396 0.0
C400 C 0.65931 0.65766 0.26919 0.0
C401 C 0.67011 0.67658 0.19473 0.0
C402 C 0.69492 0.65536 0.18918 0.0
H403 H 0.63362 0.69438 0.23671 0.0
H404 H 0.66394 0.69229 0.16852 0.0
S405 S 0.72255 0.59843 0.27144 0.0
N406 N 0.69273 0.61629 0.29607 0.0
N407 N 0.72587 0.61429 0.22227 0.0
C408 C 0.70196 0.63524 0.22411 0.0
C409 C 0.68423 0.6365 0.26415 0.0
C410 C 0.44719 0.04879 0.20488 0.0
C411 C 0.4274 0.07473 0.19807 0.0
C412 C 0.45033 0.03516 0.2452 0.0
C413 C 0.43404 0.04704 0.28047 0.0
H414 H 0.46055 0.03893 0.17891 0.0
H415 H 0.46556 1.0149 0.24863 0.0
S416 S 0.37874 0.11423 0.27993 0.0
N417 N 0.3909 0.11163 0.23025 0.0
N418 N 0.39694 0.08594 0.30603 0.0
C419 C 0.41427 0.07309 0.27428 0.0
C420 C 0.41081 0.08682 0.23309 0.0
C421 C 1.01908 0.36693 0.28331 0.0
C422 C 0.06352 0.39769 0.29238 0.0
C423 C 1.00427 0.35766 0.24171 0.0
C424 C 1.03362 0.37805 0.20781 0.0
H425 H 0.99541 0.35078 0.30848 0.0
H426 H 0.96949 0.33424 0.23614 0.0
S427 S 0.15426 0.45823 0.21525 0.0
N428 N 0.13739 0.44686 0.26444 0.0
N429 N 0.10965 0.42869 0.18624 0.0
C430 C 0.0785 0.40769 0.21653 0.0
C431 C 0.09341 0.41774 0.25886 0.0
C432 C 0.25477 0.92968 0.32254 0.0
C433 C 0.2842 0.91563 0.33579 0.0
C434 C 0.2173 0.90213 0.29817 0.0
C435 C 0.20744 0.85918 0.28598 0.0
H436 H 0.26044 0.96232 0.33121 0.0
H437 H 0.19549 0.91438 0.28953 0.0
S438 S 0.27471 0.80685 0.31062 0.0
N439 N 0.30145 0.85622 0.33359 0.0
N440 N 0.23128 0.80439 0.28784 0.0
C441 C 0.23697 0.8449 0.29838 0.0
C442 C 0.2752 0.87306 0.32323 0.0
C443 C 0.28184 0.44063 0.28958 0.0
C444 C 0.27731 0.39794 0.28962 0.0
C445 C 0.25729 0.4518 0.31705 0.0
C446 C 0.22689 0.42069 0.34563 0.0
H447 H 0.30475 0.46597 0.26822 0.0
H448 H 0.2615 0.48479 0.31517 0.0
S449 S 0.20353 0.30487 0.35995 0.0
N450 N 0.24069 0.32481 0.32191 0.0
N451 N 0.19453 0.34559 0.37324 0.0
C452 C 0.22227 0.378 0.34636 0.0
C453 C 0.24738 0.36667 0.31847 0.0
C454 C 0.67491 0.86079 0.31741 0.0
C455 C 0.7185 0.88904 0.30266 0.0
C456 C 0.66298 0.82102 0.33856 0.0
C457 C 0.69412 0.80769 0.34608 0.0
H458 H 0.64947 0.86933 0.3126 0.0
H459 H 0.62899 0.80054 0.34893 0.0
S460 S 0.813 0.86985 0.31439 0.0
N461 N 0.79297 0.90079 0.29741 0.0
N462 N 0.77102 0.8265 0.33709 0.0
C463 C 0.73797 0.83574 0.33162 0.0
C464 C 0.75002 0.87619 0.30995 0.0
C465 C 0.90354 0.16025 0.18237 0.0
C466 C 0.8579 0.14465 0.18047 0.0
C467 C 0.93405 0.19787 0.15964 0.0
C468 C 0.92022 0.22135 0.13386 0.0
H469 H 0.91591 0.14376 0.20207 0.0
H470 H 0.96893 0.20893 0.1629 0.0
S471 S 0.80385 0.19115 0.11433 0.0
N472 N 0.8 0.15372 0.14812 0.0
N473 N 0.85735 0.22417 0.10566 0.0
C474 C 0.87456 0.20529 0.1307 0.0
C475 C 0.84346 0.16706 0.15391 0.0
C476 C 0.8738 0.6935 0.14972 0.0
C477 C 0.87403 0.72473 0.12198 0.0
C478 C 0.90928 0.70515 0.17717 0.0
C479 C 0.94687 0.74841 0.17778 0.0
H480 H 0.84552 0.66 0.15101 0.0
H481 H 0.90718 0.67967 0.19789 0.0
S482 S 0.96458 0.84222 0.11014 0.0
N483 N 0.91547 0.80073 0.09613 0.0
N484 N 0.98229 0.82231 0.1473 0.0
C485 C 0.94782 0.7798 0.14973 0.0
C486 C 0.91143 0.76805 0.122 0.0
C487 C 0.45114 0.27566 0.17119 0.0
C488 C 0.40887 0.27093 0.17607 0.0
C489 C 0.45872 0.24928 0.14255 0.0
C490 C 0.42448 0.21731 0.11708 0.0
H491 H 0.47877 0.29999 0.18978 0.0
H492 H 0.49171 0.25386 0.14063 0.0
S493 S 0.30793 0.19321 0.11625 0.0
N494 N 0.3325 0.23251 0.15226 0.0
N495 N 0.34653 0.18343 0.09806 0.0
C496 C 0.38207 0.21269 0.12126 0.0
C497 C 0.3743 0.23923 0.15085 0.0
C498 C 0.91148 0.19818 0.62088 0.0
C499 C 0.87336 0.20237 0.62026 0.0
C500 C 0.94723 0.22425 0.64772 0.0
C501 C 0.94667 0.25597 0.67492 0.0
H502 H 0.91374 0.17417 0.60073 0.0
H503 H 0.97581 0.21995 0.64661 0.0
S504 S 0.85491 0.28005 0.68623 0.0
N505 N 0.83738 0.24073 0.64985 0.0
N506 N 0.90449 0.28987 0.69998 0.0
C507 C 0.90888 0.26067 0.67465 0.0
C508 C 0.87233 0.23392 0.64744 0.0
C509 C 0.90533 0.69487 0.64952 0.0
C510 C 0.93886 0.7288 0.62527 0.0
C511 C 0.87772 0.70325 0.67547 0.0
C512 C 0.88205 0.74582 0.67798 0.0
H513 H 0.90094 0.66174 0.64924 0.0
H514 H 0.85249 0.67581 0.69351 0.0
S515 S 0.96381 0.8459 0.61951 0.0
N516 N 0.97436 0.8066 0.60467 0.0
N517 N 0.92219 0.82209 0.65306 0.0
C518 C 0.91508 0.77992 0.65341 0.0
C519 C 0.94348 0.77148 0.6272 0.0
C520 C 0.32759 0.14671 0.66185 0.0
C521 C 0.36187 0.13727 0.66725 0.0
C522 C 0.33386 0.18297 0.63755 0.0
C523 C 0.37456 0.21125 0.61729 0.0
H524 H 0.29584 0.1264 0.67705 0.0
H525 H 0.30658 0.18921 0.63521 0.0
S526 S 0.47445 0.19984 0.61951 0.0
N527 N 0.43786 0.15861 0.6488 0.0
N528 N 0.4492 0.22615 0.60324 0.0
C529 C 0.40874 0.20149 0.62149 0.0
C530 C 0.40251 0.16477 0.64643 0.0
C531 C 0.23196 0.88987 0.83194 0.0
C532 C 0.25523 0.8869 0.79716 0.0
C533 C 0.21165 0.85505 0.86099 0.0
C534 C 0.21327 0.81548 0.85631 0.0
H535 H 0.23042 0.91983 0.83747 0.0
H536 H 0.19426 0.85926 0.88725 0.0
S537 S 0.2681 0.79031 0.76884 0.0
N538 N 0.2777 0.84088 0.75872 0.0
N539 N 0.239 0.7752 0.81277 0.0
C540 C 0.23589 0.81188 0.82114 0.0
C541 C 0.25692 0.84757 0.79176 0.0
C542 C 0.23263 0.4228 0.81107 0.0
C543 C 0.20315 0.38001 0.79466 0.0
C544 C 0.27102 0.43187 0.83303 0.0
C545 C 0.28161 0.39849 0.83982 0.0
H546 H 0.22606 0.44982 0.8071 0.0
H547 H 0.29242 0.4653 0.8449 0.0
S548 S 0.2159 0.28081 0.80286 0.0
N549 N 0.18767 0.30402 0.78643 0.0
N550 N 0.25943 0.32063 0.82759 0.0
C551 C 0.25251 0.35549 0.8234 0.0
C552 C 0.21348 0.34637 0.80086 0.0
C553 C 0.68633 0.84773 0.7871 0.0
C554 C 0.72883 0.85245 0.78702 0.0
C555 C 0.67433 0.87 0.81673 0.0
C556 C 0.70405 0.89726 0.84809 0.0
H557 H 0.66193 0.82639 0.76413 0.0
H558 H 0.64136 0.86547 0.81522 0.0
S559 S 0.81953 0.92051 0.86179 0.0
N560 N 0.80077 0.8867 0.82085 0.0
N561 N 0.77844 0.92793 0.8768 0.0
C562 C 0.74679 0.90231 0.84827 0.0
C563 C 0.75915 0.88018 0.81767 0.0
C564 C 0.52746 0.51642 0.52033 0.0
C565 C 0.51648 0.47253 0.50984 0.0
C566 C 0.54432 0.55046 0.49031 0.0
C567 C 0.55114 0.54214 0.44848 0.0
H568 H 0.52317 0.52478 0.55216 0.0
H569 H 0.55349 0.58387 0.50033 0.0
S570 S 0.52379 0.43258 0.40321 0.0
N571 N 0.51076 0.4223 0.45335 0.0
N572 N 0.54305 0.48639 0.39732 0.0
C573 C 0.53935 0.49833 0.43719 0.0
C574 C 0.52196 0.46356 0.4677 0.0
C575 C 0.59813 0.08724 0.5124 0.0
C576 C 0.61295 0.05647 0.51166 0.0
C577 C 0.55982 0.07884 0.4907 0.0
C578 C 0.53461 0.03939 0.46709 0.0
H579 H 0.61608 0.11801 0.53008 0.0
H580 H 0.54986 0.10366 0.49273 0.0
S581 S 0.5597 0.94836 0.45372 0.0
N582 N 0.59959 0.985 0.48437 0.0
N583 N 0.52788 0.96957 0.44381 0.0
C584 C 0.54922 1.00848 0.46573 0.0
C585 C 0.58823 1.01694 0.48792 0.0
C586 C 0.12517 0.59033 0.46874 0.0
C587 C 0.09241 0.54619 0.45956 0.0
C588 C 0.11511 0.61878 0.49166 0.0
C589 C 0.07185 0.60445 0.50652 0.0
H590 H 0.159 0.60307 0.45835 0.0
H591 H 0.14175 0.65246 0.4977 0.0
S592 S 0.97363 0.492 0.49087 0.0
N593 N 1.01442 0.4895 0.46715 0.0
N594 N 0.99591 0.54301 0.51011 0.0
C595 C 1.03871 0.56042 0.49757 0.0
C596 C 1.04888 0.53137 0.47415 0.0
C597 C 0.5491 0.56813 0.96636 0.0
C598 C 0.54273 0.52768 0.95001 0.0
C599 C 0.58639 0.59611 -0.00926 0.0
C600 C 0.61906 0.585 -0.00011 0.0
H601 H 0.52476 0.57803 0.96091 0.0
H602 H 0.58937 0.62675 0.00267 0.0
S603 S 0.61943 0.48384 0.9628 0.0
N604 N 0.57332 0.47858 0.94353 0.0
N605 N 0.64316 0.53125 -0.01069 0.0
C606 C 0.61347 0.54494 0.98329 0.0
C607 C 0.57546 0.51636 0.95838 0.0
C608 C 0.55159 1.01804 0.96597 0.0
C609 C 0.59529 0.05023 0.95537 0.0
C610 C 0.52448 1.02941 -0.01072 0.0
C611 C 0.53973 0.07349 0.00308 0.0
H612 H 0.53831 0.98356 0.95683 0.0
H613 H 0.49119 1.00306 -0.00327 0.0
S614 S 0.651 0.17098 0.98209 0.0
N615 N 0.6522 0.12877 0.95939 0.0
N616 N 0.60118 0.14978 0.00314 0.0
C617 C 0.58312 0.10621 -0.00788 0.0
C618 C 0.61082 0.09467 0.96832 0.0
C619 C 0.09892 0.54235 0.97053 0.0
C620 C 0.0659 0.55297 0.96233 0.0
C621 C 0.08981 0.505 -0.00554 0.0
C622 C 1.04727 0.47647 0.01132 0.0
H623 H 0.13229 0.5633 0.95879 0.0
H624 H 0.11666 0.49861 -0.00026 0.0
S625 S 0.94852 0.48848 -0.00184 0.0
N626 N 0.98828 0.53099 0.97242 0.0
N627 N 0.97154 0.46108 0.0173 0.0
C628 C 1.01375 0.48631 0.00298 0.0
C629 C 1.02297 0.5244 0.97856 0.0
loop_
_geom_bond_atom_site_label_1
_geom_bond_atom_site_label_2
_geom_bond_distance
_geom_bond_site_symmetry_2
_ccdc_geom_bond_type
Mg0 O7 2.141 1_455 S
Mg0 O8 2.048 . S
Mg0 O9 2.048 . S
Mg0 O12 2.141 1_455 S
C1 O2 1.313 . S
C1 O8 1.195 . S
O2 C1 1.313 . S
C3 O4 1.245 . S
C3 O12 1.289 . S
O4 C3 1.245 . S
C5 O6 1.245 . S
C5 O7 1.289 . S
O6 C5 1.245 . S
O7 Mg0 2.141 1_655 S
O7 C5 1.289 . S
O8 Mg0 2.048 . S
O8 C1 1.195 . S
O9 Mg0 2.048 . S
O9 C10 1.195 . S
C10 O9 1.195 . S
C10 O11 1.313 . S
O11 C10 1.313 . S
O12 Mg0 2.141 1_655 S
O12 C3 1.289 . S
Mg13 O20 2.141 . S
Mg13 O21 2.048 . S
Mg13 O22 2.048 . S
Mg13 O25 2.141 . S
C14 O15 1.313 . S
C14 O21 1.195 . S
O15 C14 1.313 . S
C16 O17 1.245 . S
C16 O25 1.289 . S
O17 C16 1.245 . S
C18 O19 1.245 . S
C18 O20 1.289 . S
O19 C18 1.245 . S
O20 Mg13 2.141 . S
O20 C18 1.289 . S
O21 Mg13 2.048 . S
O21 C14 1.195 . S
O22 Mg13 2.048 . S
O22 C23 1.195 . S
C23 O22 1.195 . S
C23 O24 1.313 . S
O24 C23 1.313 . S
O25 Mg13 2.141 . S
O25 C16 1.289 . S
Mg26 O33 2.141 1_545 S
Mg26 O34 2.048 . S
Mg26 O35 2.048 . S
Mg26 O38 2.141 1_545 S
C27 O28 1.313 . S
C27 O34 1.195 . S
O28 C27 1.313 . S
C29 O30 1.245 . S
C29 O38 1.289 . S
O30 C29 1.245 . S
C31 O32 1.245 . S
C31 O33 1.289 . S
O32 C31 1.245 . S
O33 Mg26 2.141 1_565 S
O33 C31 1.289 . S
O34 Mg26 2.048 . S
O34 C27 1.195 . S
O35 Mg26 2.048 . S
O35 C36 1.195 . S
C36 O35 1.195 . S
C36 O37 1.313 . S
O37 C36 1.313 . S
O38 Mg26 2.141 1_565 S
O38 C29 1.289 . S
Mg39 O46 2.141 . S
Mg39 O47 2.048 1_455 S
Mg39 O48 2.048 1_455 S
Mg39 O51 2.141 . S
C40 O41 1.313 . S
C40 O47 1.195 . S
O41 C40 1.313 . S
C42 O43 1.245 . S
C42 O51 1.289 . S
O43 C42 1.245 . S
C44 O45 1.245 . S
C44 O46 1.289 . S
O45 C44 1.245 . S
O46 Mg39 2.141 . S
O46 C44 1.289 . S
O47 Mg39 2.048 1_655 S
O47 C40 1.195 . S
O48 Mg39 2.048 1_655 S
O48 C49 1.195 . S
C49 O48 1.195 . S
C49 O50 1.313 . S
O50 C49 1.313 . S
O51 Mg39 2.141 . S
O51 C42 1.289 . S
Mg52 O59 2.141 . S
Mg52 O60 2.048 . S
Mg52 O61 2.048 . S
Mg52 O64 2.141 . S
C53 O54 1.313 . S
C53 O60 1.195 . S
O54 C53 1.313 . S
C55 O56 1.245 . S
C55 O64 1.289 . S
O56 C55 1.245 . S
C57 O58 1.245 . S
C57 O59 1.289 . S
O58 C57 1.245 . S
O59 Mg52 2.141 . S
O59 C57 1.289 . S
O60 Mg52 2.048 . S
O60 C53 1.195 . S
O61 Mg52 2.048 . S
O61 C62 1.195 . S
C62 O61 1.195 . S
C62 O63 1.313 . S
O63 C62 1.313 . S
O64 Mg52 2.141 . S
O64 C55 1.289 . S
Mg65 O72 2.141 . S
Mg65 O73 2.048 1_545 S
Mg65 O74 2.048 1_545 S
Mg65 O77 2.141 . S
C66 O67 1.313 . S
C66 O73 1.195 . S
O67 C66 1.313 . S
C68 O69 1.245 . S
C68 O77 1.289 . S
O69 C68 1.245 . S
C70 O71 1.245 . S
C70 O72 1.289 . S
O71 C70 1.245 . S
O72 Mg65 2.141 . S
O72 C70 1.289 . S
O73 Mg65 2.048 1_565 S
O73 C66 1.195 . S
O74 Mg65 2.048 1_565 S
O74 C75 1.195 . S
C75 O74 1.195 . S
C75 O76 1.313 . S
O76 C75 1.313 . S
O77 Mg65 2.141 . S
O77 C68 1.289 . S
Mg78 O85 2.141 . S
Mg78 O86 2.048 . S
Mg78 O87 2.048 . S
Mg78 O90 2.141 . S
C79 O80 1.313 . S
C79 O86 1.195 . S
O80 C79 1.313 . S
C81 O82 1.245 . S
C81 O90 1.289 . S
O82 C81 1.245 . S
C83 O84 1.245 . S
C83 O85 1.289 . S
O84 C83 1.245 . S
O85 Mg78 2.141 . S
O85 C83 1.289 . S
O86 Mg78 2.048 . S
O86 C79 1.195 . S
O87 Mg78 2.048 . S
O87 C88 1.195 . S
C88 O87 1.195 . S
C88 O89 1.313 . S
O89 C88 1.313 . S
O90 Mg78 2.141 . S
O90 C81 1.289 . S
Mg91 O98 2.141 . S
Mg91 O99 2.048 . S
Mg91 O100 2.048 . S
Mg91 O103 2.141 . S
C92 O93 1.313 . S
C92 O99 1.195 . S
O93 C92 1.313 . S
C94 O95 1.245 . S
C94 O103 1.289 . S
O95 C94 1.245 . S
C96 O97 1.245 . S
C96 O98 1.289 . S
O97 C96 1.245 . S
O98 Mg91 2.141 . S
O98 C96 1.289 . S
O99 Mg91 2.048 . S
O99 C92 1.195 . S
O100 Mg91 2.048 . S
O100 C101 1.195 . S
C101 O100 1.195 . S
C101 O102 1.313 . S
O102 C101 1.313 . S
O103 Mg91 2.141 . S
O103 C94 1.289 . S
Mg104 O111 2.141 . S
Mg104 O112 2.048 . S
Mg104 O113 2.048 . S
Mg104 O116 2.141 . S
C105 O106 1.313 . S
C105 O112 1.195 . S
O106 C105 1.313 . S
C107 O108 1.245 . S
C107 O116 1.289 . S
O108 C107 1.245 . S
C109 O110 1.245 . S
C109 O111 1.289 . S
O110 C109 1.245 . S
O111 Mg104 2.141 . S
O111 C109 1.289 . S
O112 Mg104 2.048 . S
O112 C105 1.195 . S
O113 Mg104 2.048 . S
O113 C114 1.195 . S
C114 O113 1.195 . S
C114 O115 1.313 . S
O115 C114 1.313 . S
O116 Mg104 2.141 . S
O116 C107 1.289 . S
Mg117 O124 2.141 . S
Mg117 O125 2.048 . S
Mg117 O126 2.048 . S
Mg117 O129 2.141 . S
C118 O119 1.313 1_556 S
C118 O125 1.195 1_556 S
O119 C118 1.313 1_554 S
C120 O121 1.245 . S
C120 O129 1.289 . S
O121 C120 1.245 . S
C122 O123 1.245 . S
C122 O124 1.289 . S
O123 C122 1.245 . S
O124 Mg117 2.141 . S
O124 C122 1.289 . S
O125 Mg117 2.048 . S
O125 C118 1.195 1_554 S
O126 Mg117 2.048 . S
O126 C127 1.195 . S
C127 O126 1.195 . S
C127 O128 1.313 . S
O128 C127 1.313 . S
O129 Mg117 2.141 . S
O129 C120 1.289 . S
Mg130 O137 2.141 . S
Mg130 O138 2.048 . S
Mg130 O139 2.048 . S
Mg130 O142 2.141 . S
C131 O132 1.313 . S
C131 O138 1.195 . S
O132 C131 1.313 . S
C133 O134 1.245 . S
C133 O142 1.289 . S
O134 C133 1.245 . S
C135 O136 1.245 . S
C135 O137 1.289 . S
O136 C135 1.245 . S
O137 Mg130 2.141 . S
O137 C135 1.289 . S
O138 Mg130 2.048 . S
O138 C131 1.195 . S
O139 Mg130 2.048 . S
O139 C140 1.179 1_554 S
C140 O139 1.179 1_556 S
C140 O141 1.307 1_556 S
O141 C140 1.307 1_554 S
O142 Mg130 2.141 . S
O142 C133 1.289 . S
Mg143 O150 2.141 . S
Mg143 O151 2.048 . S
Mg143 O152 2.048 . S
Mg143 O155 2.141 . S
C144 O145 1.313 1_556 S
C144 O151 1.195 1_556 S
O145 C144 1.313 1_554 S
C146 O147 1.245 . S
C146 O155 1.289 . S
O147 C146 1.245 . S
C148 O149 1.245 . S
C148 O150 1.289 . S
O149 C148 1.245 . S
O150 Mg143 2.141 . S
O150 C148 1.289 . S
O151 Mg143 2.048 . S
O151 C144 1.195 1_554 S
O152 Mg143 2.048 . S
O152 C153 1.195 . S
C153 O152 1.195 . S
C153 O154 1.313 . S
O154 C153 1.313 . S
O155 Mg143 2.141 . S
O155 C146 1.289 . S
Mg156 O163 2.141 . S
Mg156 O164 2.048 . S
Mg156 O165 2.048 . S
Mg156 O168 2.141 . S
C157 O158 1.313 . S
C157 O164 1.195 . S
O158 C157 1.313 . S
C159 O160 1.245 1_554 S
C159 O168 1.289 1_554 S
O160 C159 1.245 1_556 S
C161 O162 1.245 . S
C161 O163 1.289 . S
O162 C161 1.245 . S
O163 Mg156 2.141 . S
O163 C161 1.289 . S
O164 Mg156 2.048 . S
O164 C157 1.195 . S
O165 Mg156 2.048 . S
O165 C166 1.195 . S
C166 O165 1.195 . S
C166 O167 1.313 . S
O167 C166 1.313 . S
O168 Mg156 2.141 . S
O168 C159 1.289 1_556 S
Mg169 O176 2.141 . S
Mg169 O177 2.048 . S
Mg169 O178 2.048 . S
Mg169 O181 2.141 . S
C170 O171 1.314 . S
C170 O177 1.197 . S
O171 C170 1.314 . S
C172 O173 1.245 . S
C172 O181 1.289 . S
O173 C172 1.245 . S
C174 O175 1.245 . S
C174 O176 1.289 . S
O175 C174 1.245 . S
O176 Mg169 2.141 . S
O176 C174 1.289 . S
O177 Mg169 2.048 . S
O177 C170 1.197 . S
O178 Mg169 2.048 . S
O178 C179 1.195 . S
C179 O178 1.195 . S
C179 O180 1.313 . S
O180 C179 1.313 . S
O181 Mg169 2.141 . S
O181 C172 1.289 . S
Mg182 O189 2.141 . S
Mg182 O190 2.048 . S
Mg182 O191 2.048 . S
Mg182 O194 2.141 . S
C183 O184 1.313 1_554 S
C183 O190 1.195 1_554 S
O184 C183 1.313 1_556 S
C185 O186 1.245 . S
C185 O194 1.289 . S
O186 C185 1.245 . S
C187 O188 1.245 . S
C187 O189 1.289 . S
O188 C187 1.245 . S
O189 Mg182 2.141 . S
O189 C187 1.289 . S
O190 Mg182 2.048 . S
O190 C183 1.195 1_556 S
O191 Mg182 2.048 . S
O191 C192 1.195 . S
C192 O191 1.195 . S
C192 O193 1.313 . S
O193 C192 1.313 . S
O194 Mg182 2.141 . S
O194 C185 1.289 . S
Mg195 O202 2.141 . S
Mg195 O203 2.048 . S
Mg195 O204 2.048 . S
Mg195 O207 2.141 . S
C196 O197 1.313 . S
C196 O203 1.195 . S
O197 C196 1.313 . S
C198 O199 1.245 . S
C198 O207 1.289 . S
O199 C198 1.245 . S
C200 O201 1.245 . S
C200 O202 1.289 . S
O201 C200 1.245 . S
O202 Mg195 2.141 . S
O202 C200 1.289 . S
O203 Mg195 2.048 . S
O203 C196 1.195 . S
O204 Mg195 2.048 . S
O204 C205 1.195 . S
C205 O204 1.195 . S
C205 O206 1.313 . S
O206 C205 1.313 . S
O207 Mg195 2.141 . S
O207 C198 1.289 . S
Mg208 O215 2.141 . S
Mg208 O216 2.048 . S
Mg208 O217 2.048 . S
Mg208 O220 2.141 . S
C209 O210 1.313 . S
C209 O216 1.195 . S
O210 C209 1.313 . S
C211 O212 1.245 . S
C211 O220 1.289 . S
O212 C211 1.245 . S
C213 O214 1.245 . S
C213 O215 1.289 . S
O214 C213 1.245 . S
O215 Mg208 2.141 . S
O215 C213 1.289 . S
O216 Mg208 2.048 . S
O216 C209 1.195 . S
O217 Mg208 2.048 . S
O217 C218 1.195 . S
C218 O217 1.195 . S
C218 O219 1.313 . S
O219 C218 1.313 . S
O220 Mg208 2.141 . S
O220 C211 1.289 . S
Mg221 O228 2.141 . S
Mg221 O229 2.048 . S
Mg221 O230 2.048 . S
Mg221 O233 2.141 . S
C222 O223 1.313 . S
C222 O229 1.195 . S
O223 C222 1.313 . S
C224 O225 1.245 . S
C224 O233 1.289 . S
O225 C224 1.245 . S
C226 O227 1.245 . S
C226 O228 1.289 . S
O227 C226 1.245 . S
O228 Mg221 2.141 . S
O228 C226 1.289 . S
O229 Mg221 2.048 . S
O229 C222 1.195 . S
O230 Mg221 2.048 . S
O230 C231 1.195 . S
C231 O230 1.195 . S
C231 O232 1.313 . S
O232 C231 1.313 . S
O233 Mg221 2.141 . S
O233 C224 1.289 . S
C234 C235 1.369 . S
C234 C236 1.419 . S
C234 H238 0.930 . S
C235 C234 1.369 . S
C235 C244 1.429 . S
C236 C234 1.419 . S
C236 C237 1.363 . S
C236 H239 0.929 . S
C237 C236 1.363 . S
C237 C243 1.428 . S
H238 C234 0.930 . S
H239 C236 0.929 . S
S240 N241 1.613 . S
S240 N242 1.610 . S
N241 S240 1.613 . S
N241 C244 1.350 . S
N242 S240 1.610 . S
N242 C243 1.351 . S
C243 C237 1.428 . S
C243 N242 1.351 . S
C243 C244 1.434 . S
C244 C235 1.429 . S
C244 N241 1.350 . S
C244 C243 1.434 . S
C245 C246 1.369 . S
C245 C247 1.419 . S
C245 H249 0.930 . S
C246 C245 1.369 . S
C246 C255 1.429 . S
C247 C245 1.419 . S
C247 C248 1.363 . S
C247 H250 0.929 . S
C248 C247 1.363 . S
C248 C254 1.428 . S
H249 C245 0.930 . S
H250 C247 0.929 . S
S251 N252 1.613 . S
S251 N253 1.610 1_556 S
N252 S251 1.613 . S
N252 C255 1.350 1_556 S
N253 S251 1.610 1_554 S
N253 C254 1.351 . S
C254 C248 1.428 . S
C254 N253 1.351 . S
C254 C255 1.434 . S
C255 C246 1.429 . S
C255 N252 1.350 1_554 S
C255 C254 1.434 . S
C256 C257 1.369 . S
C256 C258 1.419 . S
C256 H260 0.930 . S
C257 C256 1.369 . S
C257 C266 1.429 . S
C258 C256 1.419 . S
C258 C259 1.363 . S
C258 H261 0.929 . S
C259 C258 1.363 . S
C259 C265 1.428 . S
H260 C256 0.930 . S
H261 C258 0.929 . S
S262 N263 1.613 1_556 S
S262 N264 1.610 . S
N263 S262 1.613 1_554 S
N263 C266 1.350 . S
N264 S262 1.610 . S
N264 C265 1.351 1_556 S
C265 C259 1.428 . S
C265 N264 1.351 1_554 S
C265 C266 1.434 . S
C266 C257 1.429 . S
C266 N263 1.350 . S
C266 C265 1.434 . S
C267 C268 1.369 . S
C267 C269 1.419 . S
C267 H271 0.930 . S
C268 C267 1.369 . S
C268 C277 1.429 . S
C269 C267 1.419 . S
C269 C270 1.363 . S
C269 H272 0.929 . S
C270 C269 1.363 . S
C270 C276 1.428 . S
H271 C267 0.930 . S
H272 C269 0.929 . S
S273 N274 1.613 . S
S273 N275 1.610 . S
N274 S273 1.613 . S
N274 C277 1.350 . S
N275 S273 1.610 . S
N275 C276 1.351 . S
C276 C270 1.428 . S
C276 N275 1.351 . S
C276 C277 1.434 . S
C277 C268 1.429 . S
C277 N274 1.350 . S
C277 C276 1.434 . S
C278 C279 1.369 . S
C278 C280 1.419 . S
C278 H282 0.930 . S
C279 C278 1.369 . S
C279 C288 1.429 . S
C280 C278 1.419 . S
C280 C281 1.363 . S
C280 H283 0.929 . S
C281 C280 1.363 . S
C281 C287 1.428 . S
H282 C278 0.930 . S
H283 C280 0.929 . S
S284 N285 1.613 1_455 S
S284 N286 1.610 . S
N285 S284 1.613 1_655 S
N285 C288 1.350 . S
N286 S284 1.610 . S
N286 C287 1.351 1_455 S
C287 C281 1.428 . S
C287 N286 1.351 1_655 S
C287 C288 1.434 . S
C288 C279 1.429 . S
C288 N285 1.350 . S
C288 C287 1.434 . S
C289 C290 1.369 . S
C289 C291 1.419 . S
C289 H293 0.930 . S
C290 C289 1.369 . S
C290 C299 1.429 . S
C291 C289 1.419 . S
C291 C292 1.363 . S
C291 H294 0.929 . S
C292 C291 1.363 . S
C292 C298 1.428 . S
H293 C289 0.930 . S
H294 C291 0.929 . S
S295 N296 1.613 . S
S295 N297 1.610 . S
N296 S295 1.613 . S
N296 C299 1.350 . S
N297 S295 1.610 . S
N297 C298 1.351 . S
C298 C292 1.428 . S
C298 N297 1.351 . S
C298 C299 1.434 . S
C299 C290 1.429 . S
C299 N296 1.350 . S
C299 C298 1.434 . S
C300 C301 1.369 . S
C300 C302 1.419 . S
C300 H304 0.930 . S
C301 C300 1.369 . S
C301 C310 1.429 . S
C302 C300 1.419 . S
C302 C303 1.363 . S
C302 H305 0.929 . S
C303 C302 1.363 . S
C303 C309 1.428 . S
H304 C300 0.930 . S
H305 C302 0.929 . S
S306 N307 1.613 . S
S306 N308 1.610 1_455 S
N307 S306 1.613 . S
N307 C310 1.350 1_455 S
N308 S306 1.610 1_655 S
N308 C309 1.351 . S
C309 C303 1.428 . S
C309 N308 1.351 . S
C309 C310 1.434 . S
C310 C301 1.429 . S
C310 N307 1.350 1_655 S
C310 C309 1.434 . S
C311 C312 1.369 . S
C311 C313 1.419 . S
C311 H315 0.930 . S
C312 C311 1.369 . S
C312 C321 1.429 . S
C313 C311 1.419 . S
C313 C314 1.363 . S
C313 H316 0.929 . S
C314 C313 1.363 . S
C314 C320 1.428 . S
H315 C311 0.930 . S
H316 C313 0.929 . S
S317 N318 1.613 . S
S317 N319 1.610 . S
N318 S317 1.613 . S
N318 C321 1.350 . S
N319 S317 1.610 . S
N319 C320 1.351 . S
C320 C314 1.428 . S
C320 N319 1.351 . S
C320 C321 1.434 . S
C321 C312 1.429 . S
C321 N318 1.350 . S
C321 C320 1.434 . S
C322 C323 1.369 . S
C322 C324 1.419 . S
C322 H326 0.930 . S
C323 C322 1.369 . S
C323 C332 1.429 . S
C324 C322 1.419 . S
C324 C325 1.363 . S
C324 H327 0.929 . S
C325 C324 1.363 . S
C325 C331 1.428 . S
H326 C322 0.930 . S
H327 C324 0.929 . S
S328 N329 1.613 1_565 S
S328 N330 1.610 1_565 S
N329 S328 1.613 1_545 S
N329 C332 1.350 . S
N330 S328 1.610 1_545 S
N330 C331 1.351 . S
C331 C325 1.428 . S
C331 N330 1.351 . S
C331 C332 1.434 . S
C332 C323 1.429 . S
C332 N329 1.350 . S
C332 C331 1.434 . S
C333 C334 1.369 . S
C333 C335 1.419 . S
C333 H337 0.930 . S
C334 C333 1.369 . S
C334 C343 1.429 . S
C335 C333 1.419 . S
C335 C336 1.363 . S
C335 H338 0.929 . S
C336 C335 1.363 . S
C336 C342 1.428 . S
H337 C333 0.930 . S
H338 C335 0.929 . S
S339 N340 1.613 . S
S339 N341 1.610 1_545 S
N340 S339 1.613 . S
N340 C343 1.350 1_545 S
N341 S339 1.610 1_565 S
N341 C342 1.351 . S
C342 C336 1.428 . S
C342 N341 1.351 . S
C342 C343 1.434 . S
C343 C334 1.429 . S
C343 N340 1.350 1_565 S
C343 C342 1.434 . S
C344 C345 1.369 . S
C344 C346 1.419 . S
C344 H348 0.930 . S
C345 C344 1.369 . S
C345 C354 1.429 . S
C346 C344 1.419 . S
C346 C347 1.363 . S
C346 H349 0.929 . S
C347 C346 1.363 . S
C347 C353 1.428 . S
H348 C344 0.930 . S
H349 C346 0.929 . S
S350 N351 1.613 . S
S350 N352 1.610 . S
N351 S350 1.613 . S
N351 C354 1.350 . S
N352 S350 1.610 . S
N352 C353 1.351 . S
C353 C347 1.428 . S
C353 N352 1.351 . S
C353 C354 1.434 . S
C354 C345 1.429 . S
C354 N351 1.350 . S
C354 C353 1.434 . S
C355 C356 1.369 . S
C355 C357 1.419 . S
C355 H359 0.930 . S
C356 C355 1.369 . S
C356 C365 1.429 . S
C357 C355 1.419 . S
C357 C358 1.363 . S
C357 H360 0.929 . S
C358 C357 1.363 . S
C358 C364 1.428 . S
H359 C355 0.930 . S
H360 C357 0.929 . S
S361 N362 1.613 . S
S361 N363 1.610 . S
N362 S361 1.613 . S
N362 C365 1.350 . S
N363 S361 1.610 . S
N363 C364 1.351 . S
C364 C358 1.428 . S
C364 N363 1.351 . S
C364 C365 1.434 . S
C365 C356 1.429 . S
C365 N362 1.350 . S
C365 C364 1.434 . S
C366 C367 1.369 . S
C366 C368 1.419 . S
C366 H370 0.930 . S
C367 C366 1.369 . S
C367 C376 1.429 . S
C368 C366 1.419 . S
C368 C369 1.363 . S
C368 H371 0.929 . S
C369 C368 1.363 . S
C369 C375 1.428 . S
H370 C366 0.930 . S
H371 C368 0.929 . S
S372 N373 1.613 . S
S372 N374 1.610 . S
N373 S372 1.613 . S
N373 C376 1.350 . S
N374 S372 1.610 . S
N374 C375 1.351 . S
C375 C369 1.428 . S
C375 N374 1.351 . S
C375 C376 1.434 . S
C376 C367 1.429 . S
C376 N373 1.350 . S
C376 C375 1.434 . S
C377 C378 1.369 . S
C377 C379 1.414 1_545 S
C377 H381 0.930 . S
C378 C377 1.369 . S
C378 C387 1.429 . S
C379 C377 1.414 1_565 S
C379 C380 1.364 . S
C379 H382 0.933 . S
C380 C379 1.364 . S
C380 C386 1.428 . S
H381 C377 0.930 . S
H382 C379 0.933 . S
S383 N384 1.613 1_565 S
S383 N385 1.610 . S
N384 S383 1.613 1_545 S
N384 C387 1.350 . S
N385 S383 1.610 . S
N385 C386 1.351 . S
C386 C380 1.428 . S
C386 N385 1.351 . S
C386 C387 1.434 1_565 S
C387 C378 1.429 . S
C387 N384 1.350 . S
C387 C386 1.434 1_545 S
C388 C389 1.369 . S
C388 C390 1.419 . S
C388 H392 0.930 . S
C389 C388 1.369 . S
C389 C398 1.429 . S
C390 C388 1.419 . S
C390 C391 1.363 1_455 S
C390 H393 0.929 1_455 S
C391 C390 1.363 1_655 S
C391 C397 1.428 . S
H392 C388 0.930 . S
H393 C390 0.929 1_655 S
S394 N395 1.613 . S
S394 N396 1.610 1_455 S
N395 S394 1.613 . S
N395 C398 1.350 . S
N396 S394 1.610 1_655 S
N396 C397 1.351 . S
C397 C391 1.428 . S
C397 N396 1.351 . S
C397 C398 1.434 1_655 S
C398 C389 1.429 . S
C398 N395 1.350 . S
C398 C397 1.434 1_455 S
C399 C400 1.369 . S
C399 C401 1.419 . S
C399 H403 0.930 . S
C400 C399 1.369 . S
C400 C409 1.429 . S
C401 C399 1.419 . S
C401 C402 1.363 . S
C401 H404 0.929 . S
C402 C401 1.363 . S
C402 C408 1.428 . S
H403 C399 0.930 . S
H404 C401 0.929 . S
S405 N406 1.613 . S
S405 N407 1.610 . S
N406 S405 1.613 . S
N406 C409 1.350 . S
N407 S405 1.610 . S
N407 C408 1.351 . S
C408 C402 1.428 . S
C408 N407 1.351 . S
C408 C409 1.434 . S
C409 C400 1.429 . S
C409 N406 1.350 . S
C409 C408 1.434 . S
C410 C411 1.369 . S
C410 C412 1.419 1_545 S
C410 H414 0.930 . S
C411 C410 1.369 . S
C411 C420 1.429 . S
C412 C410 1.419 1_565 S
C412 C413 1.363 . S
C412 H415 0.929 . S
C413 C412 1.363 . S
C413 C419 1.428 1_565 S
H414 C410 0.930 . S
H415 C412 0.929 . S
S416 N417 1.613 . S
S416 N418 1.610 . S
N417 S416 1.613 . S
N417 C420 1.350 . S
N418 S416 1.610 . S
N418 C419 1.351 . S
C419 C413 1.428 1_545 S
C419 N418 1.351 . S
C419 C420 1.434 . S
C420 C411 1.429 . S
C420 N417 1.350 . S
C420 C419 1.434 . S
C421 C422 1.369 . S
C421 C423 1.419 1_455 S
C421 H425 0.930 . S
C422 C421 1.369 . S
C422 C431 1.429 . S
C423 C421 1.419 1_655 S
C423 C424 1.363 . S
C423 H426 0.929 . S
C424 C423 1.363 . S
C424 C430 1.428 1_655 S
H425 C421 0.930 . S
H426 C423 0.929 . S
S427 N428 1.613 . S
S427 N429 1.610 . S
N428 S427 1.613 . S
N428 C431 1.350 . S
N429 S427 1.610 . S
N429 C430 1.351 . S
C430 C424 1.428 1_455 S
C430 N429 1.351 . S
C430 C431 1.434 . S
C431 C422 1.429 . S
C431 N428 1.350 . S
C431 C430 1.434 . S
C432 C433 1.369 . S
C432 C434 1.419 . S
C432 H436 0.930 . S
C433 C432 1.369 . S
C433 C442 1.429 . S
C434 C432 1.419 . S
C434 C435 1.363 . S
C434 H437 0.929 . S
C435 C434 1.363 . S
C435 C441 1.428 . S
H436 C432 0.930 . S
H437 C434 0.929 . S
S438 N439 1.613 . S
S438 N440 1.610 . S
N439 S438 1.613 . S
N439 C442 1.350 . S
N440 S438 1.610 . S
N440 C441 1.351 . S
C441 C435 1.428 . S
C441 N440 1.351 . S
C441 C442 1.434 . S
C442 C433 1.429 . S
C442 N439 1.350 . S
C442 C441 1.434 . S
C443 C444 1.369 . S
C443 C445 1.419 . S
C443 H447 0.930 . S
C444 C443 1.369 . S
C444 C453 1.429 . S
C445 C443 1.419 . S
C445 C446 1.363 . S
C445 H448 0.929 . S
C446 C445 1.363 . S
C446 C452 1.428 . S
H447 C443 0.930 . S
H448 C445 0.929 . S
S449 N450 1.613 . S
S449 N451 1.610 . S
N450 S449 1.613 . S
N450 C453 1.350 . S
N451 S449 1.610 . S
N451 C452 1.351 . S
C452 C446 1.428 . S
C452 N451 1.351 . S
C452 C453 1.434 . S
C453 C444 1.429 . S
C453 N450 1.350 . S
C453 C452 1.434 . S
C454 C455 1.369 . S
C454 C456 1.419 . S
C454 H458 0.930 . S
C455 C454 1.369 . S
C455 C464 1.429 . S
C456 C454 1.419 . S
C456 C457 1.363 . S
C456 H459 0.929 . S
C457 C456 1.363 . S
C457 C463 1.428 . S
H458 C454 0.930 . S
H459 C456 0.929 . S
S460 N461 1.613 . S
S460 N462 1.610 . S
N461 S460 1.613 . S
N461 C464 1.350 . S
N462 S460 1.610 . S
N462 C463 1.351 . S
C463 C457 1.428 . S
C463 N462 1.351 . S
C463 C464 1.434 . S
C464 C455 1.429 . S
C464 N461 1.350 . S
C464 C463 1.434 . S
C465 C466 1.369 . S
C465 C467 1.419 . S
C465 H469 0.930 . S
C466 C465 1.369 . S
C466 C475 1.429 . S
C467 C465 1.419 . S
C467 C468 1.363 . S
C467 H470 0.929 . S
C468 C467 1.363 . S
C468 C474 1.428 . S
H469 C465 0.930 . S
H470 C467 0.929 . S
S471 N472 1.613 . S
S471 N473 1.610 . S
N472 S471 1.613 . S
N472 C475 1.350 . S
N473 S471 1.610 . S
N473 C474 1.351 . S
C474 C468 1.428 . S
C474 N473 1.351 . S
C474 C475 1.434 . S
C475 C466 1.429 . S
C475 N472 1.350 . S
C475 C474 1.434 . S
C476 C477 1.369 . S
C476 C478 1.419 . S
C476 H480 0.930 . S
C477 C476 1.369 . S
C477 C486 1.429 . S
C478 C476 1.419 . S
C478 C479 1.363 . S
C478 H481 0.929 . S
C479 C478 1.363 . S
C479 C485 1.428 . S
H480 C476 0.930 . S
H481 C478 0.929 . S
S482 N483 1.613 . S
S482 N484 1.610 . S
N483 S482 1.613 . S
N483 C486 1.350 . S
N484 S482 1.610 . S
N484 C485 1.351 . S
C485 C479 1.428 . S
C485 N484 1.351 . S
C485 C486 1.434 . S
C486 C477 1.429 . S
C486 N483 1.350 . S
C486 C485 1.434 . S
C487 C488 1.369 . S
C487 C489 1.419 . S
C487 H491 0.930 . S
C488 C487 1.369 . S
C488 C497 1.429 . S
C489 C487 1.419 . S
C489 C490 1.363 . S
C489 H492 0.929 . S
C490 C489 1.363 . S
C490 C496 1.428 . S
H491 C487 0.930 . S
H492 C489 0.929 . S
S493 N494 1.613 . S
S493 N495 1.610 . S
N494 S493 1.613 . S
N494 C497 1.350 . S
N495 S493 1.610 . S
N495 C496 1.351 . S
C496 C490 1.428 . S
C496 N495 1.351 . S
C496 C497 1.434 . S
C497 C488 1.429 . S
C497 N494 1.350 . S
C497 C496 1.434 . S
C498 C499 1.369 . S
C498 C500 1.419 . S
C498 H502 0.930 . S
C499 C498 1.369 . S
C499 C508 1.429 . S
C500 C498 1.419 . S
C500 C501 1.363 . S
C500 H503 0.929 . S
C501 C500 1.363 . S
C501 C507 1.428 . S
H502 C498 0.930 . S
H503 C500 0.929 . S
S504 N505 1.613 . S
S504 N506 1.610 . S
N505 S504 1.613 . S
N505 C508 1.350 . S
N506 S504 1.610 . S
N506 C507 1.351 . S
C507 C501 1.428 . S
C507 N506 1.351 . S
C507 C508 1.434 . S
C508 C499 1.429 . S
C508 N505 1.350 . S
C508 C507 1.434 . S
C509 C510 1.369 . S
C509 C511 1.419 . S
C509 H513 0.930 . S
C510 C509 1.369 . S
C510 C519 1.429 . S
C511 C509 1.419 . S
C511 C512 1.363 . S
C511 H514 0.929 . S
C512 C511 1.363 . S
C512 C518 1.428 . S
H513 C509 0.930 . S
H514 C511 0.929 . S
S515 N516 1.613 . S
S515 N517 1.610 . S
N516 S515 1.613 . S
N516 C519 1.350 . S
N517 S515 1.610 . S
N517 C518 1.351 . S
C518 C512 1.428 . S
C518 N517 1.351 . S
C518 C519 1.434 . S
C519 C510 1.429 . S
C519 N516 1.350 . S
C519 C518 1.434 . S
C520 C521 1.369 . S
C520 C522 1.419 . S
C520 H524 0.930 . S
C521 C520 1.369 . S
C521 C530 1.429 . S
C522 C520 1.419 . S
C522 C523 1.363 . S
C522 H525 0.929 . S
C523 C522 1.363 . S
C523 C529 1.428 . S
H524 C520 0.930 . S
H525 C522 0.929 . S
S526 N527 1.613 . S
S526 N528 1.610 . S
N527 S526 1.613 . S
N527 C530 1.350 . S
N528 S526 1.610 . S
N528 C529 1.351 . S
C529 C523 1.428 . S
C529 N528 1.351 . S
C529 C530 1.434 . S
C530 C521 1.429 . S
C530 N527 1.350 . S
C530 C529 1.434 . S
C531 C532 1.369 . S
C531 C533 1.419 . S
C531 H535 0.930 . S
C532 C531 1.369 . S
C532 C541 1.429 . S
C533 C531 1.419 . S
C533 C534 1.363 . S
C533 H536 0.929 . S
C534 C533 1.363 . S
C534 C540 1.428 . S
H535 C531 0.930 . S
H536 C533 0.929 . S
S537 N538 1.613 . S
S537 N539 1.610 . S
N538 S537 1.613 . S
N538 C541 1.350 . S
N539 S537 1.610 . S
N539 C540 1.351 . S
C540 C534 1.428 . S
C540 N539 1.351 . S
C540 C541 1.434 . S
C541 C532 1.429 . S
C541 N538 1.350 . S
C541 C540 1.434 . S
C542 C543 1.369 . S
C542 C544 1.419 . S
C542 H546 0.930 . S
C543 C542 1.369 . S
C543 C552 1.429 . S
C544 C542 1.419 . S
C544 C545 1.363 . S
C544 H547 0.929 . S
C545 C544 1.363 . S
C545 C551 1.428 . S
H546 C542 0.930 . S
H547 C544 0.929 . S
S548 N549 1.613 . S
S548 N550 1.610 . S
N549 S548 1.613 . S
N549 C552 1.350 . S
N550 S548 1.610 . S
N550 C551 1.351 . S
C551 C545 1.428 . S
C551 N550 1.351 . S
C551 C552 1.434 . S
C552 C543 1.429 . S
C552 N549 1.350 . S
C552 C551 1.434 . S
C553 C554 1.369 . S
C553 C555 1.419 . S
C553 H557 0.930 . S
C554 C553 1.369 . S
C554 C563 1.429 . S
C555 C553 1.419 . S
C555 C556 1.363 . S
C555 H558 0.929 . S
C556 C555 1.363 . S
C556 C562 1.428 . S
H557 C553 0.930 . S
H558 C555 0.929 . S
S559 N560 1.613 . S
S559 N561 1.610 . S
N560 S559 1.613 . S
N560 C563 1.350 . S
N561 S559 1.610 . S
N561 C562 1.351 . S
C562 C556 1.428 . S
C562 N561 1.351 . S
C562 C563 1.434 . S
C563 C554 1.429 . S
C563 N560 1.350 . S
C563 C562 1.434 . S
C564 C565 1.369 . S
C564 C566 1.419 . S
C564 H568 0.930 . S
C565 C564 1.369 . S
C565 C574 1.429 . S
C566 C564 1.419 . S
C566 C567 1.363 . S
C566 H569 0.929 . S
C567 C566 1.363 . S
C567 C573 1.428 . S
H568 C564 0.930 . S
H569 C566 0.929 . S
S570 N571 1.613 . S
S570 N572 1.610 . S
N571 S570 1.613 . S
N571 C574 1.350 . S
N572 S570 1.610 . S
N572 C573 1.351 . S
C573 C567 1.428 . S
C573 N572 1.351 . S
C573 C574 1.434 . S
C574 C565 1.429 . S
C574 N571 1.350 . S
C574 C573 1.434 . S
C575 C576 1.369 . S
C575 C577 1.419 . S
C575 H579 0.930 . S
C576 C575 1.369 . S
C576 C585 1.429 . S
C577 C575 1.419 . S
C577 C578 1.363 1_545 S
C577 H580 0.929 . S
C578 C577 1.363 1_565 S
C578 C584 1.428 . S
H579 C575 0.930 . S
H580 C577 0.929 . S
S581 N582 1.613 . S
S581 N583 1.610 . S
N582 S581 1.613 . S
N582 C585 1.350 1_565 S
N583 S581 1.610 . S
N583 C584 1.351 . S
C584 C578 1.428 . S
C584 N583 1.351 . S
C584 C585 1.434 1_565 S
C585 C576 1.429 . S
C585 N582 1.350 1_545 S
C585 C584 1.434 1_545 S
C586 C587 1.369 . S
C586 C588 1.419 . S
C586 H590 0.930 . S
C587 C586 1.369 . S
C587 C596 1.429 1_455 S
C588 C586 1.419 . S
C588 C589 1.363 1_455 S
C588 H591 0.929 . S
C589 C588 1.363 1_655 S
C589 C595 1.428 . S
H590 C586 0.930 . S
H591 C588 0.929 . S
S592 N593 1.613 . S
S592 N594 1.610 . S
N593 S592 1.613 . S
N593 C596 1.350 . S
N594 S592 1.610 . S
N594 C595 1.351 . S
C595 C589 1.428 . S
C595 N594 1.351 . S
C595 C596 1.434 . S
C596 C587 1.429 1_655 S
C596 N593 1.350 . S
C596 C595 1.434 . S
C597 C598 1.369 . S
C597 C599 1.419 . S
C597 H601 0.930 . S
C598 C597 1.369 . S
C598 C607 1.429 1_556 S
C599 C597 1.419 . S
C599 C600 1.363 1_556 S
C599 H602 0.929 . S
C600 C599 1.363 1_554 S
C600 C606 1.428 . S
H601 C597 0.930 . S
H602 C599 0.929 . S
S603 N604 1.613 . S
S603 N605 1.610 . S
N604 S603 1.613 . S
N604 C607 1.350 . S
N605 S603 1.610 . S
N605 C606 1.351 . S
C606 C600 1.428 . S
C606 N605 1.351 . S
C606 C607 1.434 . S
C607 C598 1.429 1_554 S
C607 N604 1.350 . S
C607 C606 1.434 . S
C608 C609 1.369 . S
C608 C610 1.419 1_565 S
C608 H612 0.930 . S
C609 C608 1.369 . S
C609 C618 1.429 1_566 S
C610 C608 1.419 1_545 S
C610 C611 1.363 1_556 S
C610 H613 0.929 . S
C611 C610 1.363 1_554 S
C611 C617 1.428 . S
H612 C608 0.930 . S
H613 C610 0.929 . S
S614 N615 1.613 . S
S614 N616 1.610 . S
N615 S614 1.613 . S
N615 C618 1.350 . S
N616 S614 1.610 . S
N616 C617 1.351 . S
C617 C611 1.428 . S
C617 N616 1.351 . S
C617 C618 1.434 . S
C618 C609 1.429 1_544 S
C618 N615 1.350 . S
C618 C617 1.434 . S
C619 C620 1.369 . S
C619 C621 1.419 1_455 S
C619 H623 0.930 . S
C620 C619 1.369 . S
C620 C629 1.429 1_556 S
C621 C619 1.419 1_655 S
C621 C622 1.363 1_556 S
C621 H624 0.929 . S
C622 C621 1.363 1_554 S
C622 C628 1.428 1_655 S
H623 C619 0.930 . S
H624 C621 0.929 . S
S625 N626 1.613 . S
S625 N627 1.610 . S
N626 S625 1.613 . S
N626 C629 1.350 . S
N627 S625 1.610 . S
N627 C628 1.351 . S
C628 C622 1.428 1_455 S
C628 N627 1.351 . S
C628 C629 1.434 . S
C629 C620 1.429 1_554 S
C629 N626 1.350 . S
C629 C628 1.434 . S
C235 C1 1.968 . S
C237 C183 1.962 . S
C246 C159 1.860 . S
C248 C16 1.866 . S
C257 C29 1.907 . S
C259 C170 1.918 1_554 S
C268 C79 1.967 . S
C270 C27 1.961 . S
C279 C101 2.062 . S
C281 C3 1.916 . S
C290 C105 1.970 . S
C292 C14 1.964 . S
C301 C49 1.963 . S
C303 C144 2.092 . S
C312 C118 2.075 . S
C314 C57 1.916 . S
C323 C140 1.952 . S
C325 C68 2.083 . S
C334 C66 2.094 . S
C336 C205 1.961 . S
C345 C44 1.867 . S
C347 C213 1.859 . S
C356 C224 2.075 . S
C358 C62 1.924 . S
C367 C157 1.911 . S
C369 C107 1.894 . S
C378 C81 1.869 . S
C380 C172 1.868 . S
C389 C185 1.855 . S
C391 C96 2.033 . S
C400 C222 2.035 . S
C402 C120 2.061 . S
C411 C135 1.866 . S
C413 C200 1.856 . S
C422 C218 1.920 . S
C424 C146 2.063 . S
C433 C196 1.645 . S
C435 C10 1.641 . S
C444 C18 1.563 . S
C446 C211 1.562 . S
C455 C31 1.559 . S
C457 C226 1.580 . S
C466 C36 1.626 . S
C468 C153 1.645 . S
C477 C127 1.629 . S
C479 C5 1.603 . S
C488 C23 1.628 . S
C490 C131 1.625 . S
C499 C88 1.632 . S
C501 C40 1.629 . S
C510 C92 1.630 . S
C512 C55 1.604 . S
C521 C70 1.627 . S
C523 C114 1.615 . S
C532 C75 1.660 . S
C534 C192 1.645 . S
C543 C42 1.565 . S
C545 C161 1.561 . S
C554 C53 1.639 . S
C556 C179 1.643 . S
C565 C109 1.591 . S
C567 C231 1.614 . S
C576 C83 1.574 . S
C578 C198 1.576 . S
C587 C209 1.598 . S
C589 C94 1.609 . S
C598 C166 1.601 . S
C600 C122 1.612 . S
C609 C174 1.574 . S
C611 C133 1.577 . S
C620 C187 1.576 . S
C622 C148 1.600 . S
