# Generated by pormake.
# Topology tzs, (4)-cn, num edge types: 1
# Building blocks:
#     Node 0, Type 0, BuildingBlock: QUQFOY_clean_sbu_1, # of connection points: 4
#     Node 1, Type 0, BuildingBlock: QUQFOY_clean_sbu_1, # of connection points: 4
#     Node 2, Type 0, BuildingBlock: QUQFOY_clean_sbu_1, # of connection points: 4
#     Node 3, Type 0, BuildingBlock: QUQFOY_clean_sbu_1, # of connection points: 4
#     Node 4, Type 0, BuildingBlock: QUQFOY_clean_sbu_1, # of connection points: 4
#     Node 5, Type 0, BuildingBlock: QUQFOY_clean_sbu_1, # of connection points: 4
#     Node 6, Type 0, BuildingBlock: QUQFOY_clean_sbu_1, # of connection points: 4
#     Node 7, Type 0, BuildingBlock: QUQFOY_clean_sbu_1, # of connection points: 4
#     Node 8, Type 0, BuildingBlock: QUQFOY_clean_sbu_1, # of connection points: 4
#     Node 9, Type 0, BuildingBlock: QUQFOY_clean_sbu_1, # of connection points: 4
#     Node 10, Type 0, BuildingBlock: QUQFOY_clean_sbu_1, # of connection points: 4
#     Node 11, Type 0, BuildingBlock: QUQFOY_clean_sbu_1, # of connection points: 4
#     Node 12, Type 0, BuildingBlock: QUQFOY_clean_sbu_1, # of connection points: 4
#     Node 13, Type 0, BuildingBlock: QUQFOY_clean_sbu_1, # of connection points: 4
#     Node 14, Type 0, BuildingBlock: QUQFOY_clean_sbu_1, # of connection points: 4
#     Node 15, Type 0, BuildingBlock: QUQFOY_clean_sbu_1, # of connection points: 4
#     Edge 16, Type (0, 0), BuildingBlock: EZIPEK_clean_linker_0, # of connection points: 2
#     Edge 17, Type (0, 0), BuildingBlock: EZIPEK_clean_linker_0, # of connection points: 2
#     Edge 18, Type (0, 0), BuildingBlock: EZIPEK_clean_linker_0, # of connection points: 2
#     Edge 19, Type (0, 0), BuildingBlock: EZIPEK_clean_linker_0, # of connection points: 2
#     Edge 20, Type (0, 0), BuildingBlock: EZIPEK_clean_linker_0, # of connection points: 2
#     Edge 21, Type (0, 0), BuildingBlock: EZIPEK_clean_linker_0, # of connection points: 2
#     Edge 22, Type (0, 0), BuildingBlock: EZIPEK_clean_linker_0, # of connection points: 2
#     Edge 23, Type (0, 0), BuildingBlock: EZIPEK_clean_linker_0, # of connection points: 2
#     Edge 24, Type (0, 0), BuildingBlock: EZIPEK_clean_linker_0, # of connection points: 2
#     Edge 25, Type (0, 0), BuildingBlock: EZIPEK_clean_linker_0, # of connection points: 2
#     Edge 26, Type (0, 0), BuildingBlock: EZIPEK_clean_linker_0, # of connection points: 2
#     Edge 27, Type (0, 0), BuildingBlock: EZIPEK_clean_linker_0, # of connection points: 2
#     Edge 28, Type (0, 0), BuildingBlock: EZIPEK_clean_linker_0, # of connection points: 2
#     Edge 29, Type (0, 0), BuildingBlock: EZIPEK_clean_linker_0, # of connection points: 2
#     Edge 30, Type (0, 0), BuildingBlock: EZIPEK_clean_linker_0, # of connection points: 2
#     Edge 31, Type (0, 0), BuildingBlock: EZIPEK_clean_linker_0, # of connection points: 2
#     Edge 32, Type (0, 0), BuildingBlock: EZIPEK_clean_linker_0, # of connection points: 2
#     Edge 33, Type (0, 0), BuildingBlock: EZIPEK_clean_linker_0, # of connection points: 2
#     Edge 34, Type (0, 0), BuildingBlock: EZIPEK_clean_linker_0, # of connection points: 2
#     Edge 35, Type (0, 0), BuildingBlock: EZIPEK_clean_linker_0, # of connection points: 2
#     Edge 36, Type (0, 0), BuildingBlock: EZIPEK_clean_linker_0, # of connection points: 2
#     Edge 37, Type (0, 0), BuildingBlock: EZIPEK_clean_linker_0, # of connection points: 2
#     Edge 38, Type (0, 0), BuildingBlock: EZIPEK_clean_linker_0, # of connection points: 2
#     Edge 39, Type (0, 0), BuildingBlock: EZIPEK_clean_linker_0, # of connection points: 2
#     Edge 40, Type (0, 0), BuildingBlock: EZIPEK_clean_linker_0, # of connection points: 2
#     Edge 41, Type (0, 0), BuildingBlock: EZIPEK_clean_linker_0, # of connection points: 2
#     Edge 42, Type (0, 0), BuildingBlock: EZIPEK_clean_linker_0, # of connection points: 2
#     Edge 43, Type (0, 0), BuildingBlock: EZIPEK_clean_linker_0, # of connection points: 2
#     Edge 44, Type (0, 0), BuildingBlock: EZIPEK_clean_linker_0, # of connection points: 2
#     Edge 45, Type (0, 0), BuildingBlock: EZIPEK_clean_linker_0, # of connection points: 2
#     Edge 46, Type (0, 0), BuildingBlock: EZIPEK_clean_linker_0, # of connection points: 2
#     Edge 47, Type (0, 0), BuildingBlock: EZIPEK_clean_linker_0, # of connection points: 2
# Relax obj value: 0.142
# Max RMSD: 0.156
# Mean RMSD: 0.156
data_MOF--net-tzs--node1-QUQFOY_clean_sbu_1--edge1-EZIPEK_clean_linker_0
_symmetry_space_group_name_H-M    P1
_symmetry_Int_Tables_number       1
_symmetry_cell_setting            triclinic
loop_
_symmetry_equiv_pos_as_xyz
'x, y, z'
_cell_length_a     36.445851
_cell_length_b     36.481173
_cell_length_c     33.158695
_cell_angle_alpha  89.793407
_cell_angle_beta   89.861408
_cell_angle_gamma 89.808247
loop_
_atom_site_label
_atom_site_type_symbol
_atom_site_fract_x
_atom_site_fract_y
_atom_site_fract_z
_atom_type_partial_charge
O0 O 0.15457 0.39828 0.26012 0.0
Cd1 Cd 0.14543 0.34395 0.24768 0.0
Cd2 Cd 0.12164 0.37302 0.17541 0.0
O3 O 0.14619 0.41924 0.19822 0.0
O4 O 0.17007 0.31705 0.29215 0.0
O5 O 0.18389 0.30944 0.2274 0.0
C6 C 0.18894 0.30062 0.26475 0.0
C7 C 0.12933 0.36225 0.10602 0.0
C8 C 0.15414 0.42461 0.23503 0.0
C9 C 0.06576 0.34117 0.23355 0.0
O10 O 0.07152 0.36058 0.20219 0.0
O11 O 0.09229 0.32782 0.25343 0.0
O12 O 0.10872 0.38833 0.11913 0.0
O13 O 0.14565 0.34166 0.13222 0.0
O14 O 0.58174 0.16555 0.25578 0.0
Cd15 Cd 0.6317 0.14088 0.24684 0.0
Cd16 Cd 0.60088 0.11681 0.17798 0.0
O17 O 0.56347 0.15681 0.19377 0.0
O18 O 0.66586 0.16683 0.28283 0.0
O19 O 0.66986 0.16805 0.2158 0.0
C20 C 0.68178 0.17858 0.25056 0.0
C21 C 0.61255 0.11131 0.10824 0.0
C22 C 0.55874 0.17173 0.22793 0.0
C23 C 0.61915 0.06117 0.24256 0.0
O24 O 0.60079 0.06813 0.21081 0.0
O25 O 0.63686 0.08632 0.26015 0.0
O26 O 0.58113 0.10377 0.12389 0.0
O27 O 0.63795 0.12208 0.13248 0.0
O28 O 0.80734 0.57888 0.25786 0.0
Cd29 Cd 0.8235 0.63151 0.24535 0.0
Cd30 Cd 0.85218 0.60169 0.17728 0.0
O31 O 0.83252 0.55417 0.20369 0.0
O32 O 0.795 0.66237 0.28331 0.0
O33 O 0.79055 0.66704 0.21667 0.0
C34 C 0.78059 0.67782 0.25214 0.0
C35 C 0.84169 0.61049 0.10833 0.0
C36 C 0.8152 0.55096 0.23681 0.0
C37 C 0.90493 0.63585 0.23567 0.0
O38 O 0.90085 0.62072 0.20147 0.0
O39 O 0.87746 0.64302 0.25788 0.0
O40 O 0.86489 0.58649 0.12117 0.0
O41 O 0.82403 0.62981 0.13459 0.0
O42 O 0.38212 0.82299 0.24221 0.0
Cd43 Cd 0.33026 0.83948 0.22548 0.0
Cd44 Cd 0.36968 0.86467 0.16062 0.0
O45 O 0.41162 0.83419 0.18529 0.0
O46 O 0.29954 0.81698 0.26848 0.0
O47 O 0.29327 0.80389 0.20367 0.0
C48 C 0.28319 0.79891 0.24063 0.0
C49 C 0.35876 0.86158 0.09135 0.0
C50 C 0.41126 0.822 0.22119 0.0
C51 C 0.33806 0.92001 0.21842 0.0
O52 O 0.36049 0.91394 0.18976 0.0
O53 O 0.3193 0.89413 0.23354 0.0
O54 O 0.3872 0.87799 0.10539 0.0
O55 O 0.33626 0.84649 0.11653 0.0
O56 O 0.14936 0.59814 0.2844 0.0
Cd57 Cd 0.12958 0.6491 0.29846 0.0
Cd58 Cd 0.10426 0.61362 0.36681 0.0
O59 O 0.12798 0.56914 0.33812 0.0
O60 O 0.15343 0.68038 0.25697 0.0
O61 O 0.16315 0.68654 0.32262 0.0
C62 C 0.17033 0.69636 0.28599 0.0
C63 C 0.1134 0.62027 0.43643 0.0
C64 C 0.14457 0.56884 0.30436 0.0
C65 C 0.04803 0.64504 0.30975 0.0
O66 O 0.054 0.6287 0.34307 0.0
O67 O 0.07437 0.65646 0.28801 0.0
O68 O 0.09269 0.59494 0.42218 0.0
O69 O 0.12937 0.64211 0.41122 0.0
O70 O 0.38819 0.16682 0.27535 0.0
Cd71 Cd 0.34019 0.14426 0.29612 0.0
Cd72 Cd 0.38536 0.11322 0.35045 0.0
O73 O 0.42432 0.14541 0.32307 0.0
O74 O 0.30399 0.17187 0.2637 0.0
O75 O 0.30705 0.17529 0.33046 0.0
C76 C 0.29255 0.18598 0.29691 0.0
C77 C 0.37943 0.11318 0.42102 0.0
C78 C 0.41977 0.16374 0.29088 0.0
C79 C 0.34817 0.06264 0.29322 0.0
O80 O 0.37299 0.06578 0.31988 0.0
O81 O 0.32957 0.09034 0.28195 0.0
O82 O 0.40816 0.1003 0.40323 0.0
O83 O 0.35393 0.12673 0.39839 0.0
O84 O 0.83209 0.3801 0.2709 0.0
Cd85 Cd 0.84179 0.32613 0.28563 0.0
Cd86 Cd 0.85817 0.35761 0.35494 0.0
O87 O 0.8189 0.39379 0.33363 0.0
O88 O 0.81598 0.29567 0.24567 0.0
O89 O 0.80318 0.29561 0.31145 0.0
C90 C 0.79671 0.28355 0.27553 0.0
C91 C 0.86154 0.3506 0.42586 0.0
C92 C 0.81984 0.40268 0.29661 0.0
C93 C 0.91841 0.333 0.29864 0.0
O94 O 0.90831 0.35703 0.32419 0.0
O95 O 0.89533 0.31051 0.28473 0.0
O96 O 0.86864 0.38112 0.40801 0.0
O97 O 0.8522 0.32351 0.40323 0.0
O98 O 0.5781 0.82652 0.27482 0.0
Cd99 Cd 0.63081 0.83654 0.29353 0.0
Cd100 Cd 0.59485 0.85192 0.3605 0.0
O101 O 0.55724 0.81621 0.33601 0.0
O102 O 0.66347 0.81262 0.25358 0.0
O103 O 0.6613 0.79701 0.31847 0.0
C104 C 0.67469 0.79203 0.28275 0.0
C105 C 0.60428 0.85034 0.43078 0.0
C106 C 0.55253 0.8161 0.2981 0.0
C107 C 0.62201 0.91374 0.30839 0.0
O108 O 0.59731 0.90336 0.33307 0.0
O109 O 0.64472 0.8907 0.29417 0.0
O110 O 0.57341 0.86008 0.41522 0.0
O111 O 0.63009 0.84078 0.40619 0.0
O112 O 0.89633 0.64684 0.7902 0.0
Cd113 Cd 0.84161 0.63508 0.79666 0.0
Cd114 Cd 0.86313 0.60616 0.86775 0.0
O115 O 0.9126 0.62928 0.85143 0.0
O116 O 0.81488 0.66617 0.75743 0.0
O117 O 0.80609 0.66878 0.8238 0.0
C118 C 0.79785 0.68 0.78792 0.0
C119 C 0.8464 0.61198 0.93569 0.0
C120 C 0.9208 0.64207 0.81689 0.0
C121 C 0.8359 0.55481 0.8027 0.0
O122 O 0.85045 0.55812 0.83734 0.0
O123 O 0.8279 0.58274 0.78168 0.0
O124 O 0.87215 0.59004 0.92448 0.0
O125 O 0.82913 0.63032 0.90824 0.0
O126 O 0.3169 0.89388 0.76633 0.0
Cd127 Cd 0.33681 0.84567 0.78967 0.0
Cd128 Cd 0.35677 0.8887 0.85011 0.0
O129 O 0.31955 0.92391 0.82327 0.0
O130 O 0.31797 0.80733 0.75305 0.0
O131 O 0.29841 0.81414 0.81552 0.0
C132 C 0.29585 0.79751 0.78134 0.0
C133 C 0.35149 0.87548 0.91863 0.0
C134 C 0.30793 0.92154 0.78725 0.0
C135 C 0.41642 0.85729 0.79913 0.0
O136 O 0.40793 0.88303 0.82319 0.0
O137 O 0.39203 0.83565 0.78623 0.0
O138 O 0.36459 0.90635 0.9063 0.0
O139 O 0.34089 0.85195 0.89206 0.0
O140 O 0.09311 0.31974 0.7819 0.0
Cd141 Cd 0.14718 0.3315 0.79415 0.0
Cd142 Cd 0.11692 0.36037 0.86284 0.0
O143 O 0.07072 0.33454 0.84167 0.0
O144 O 0.17517 0.30389 0.75287 0.0
O145 O 0.18173 0.29499 0.81875 0.0
C146 C 0.19112 0.28707 0.78219 0.0
C147 C 0.1284 0.3565 0.93237 0.0
C148 C 0.06625 0.32234 0.80617 0.0
C149 C 0.14937 0.4121 0.80061 0.0
O150 O 0.12988 0.40846 0.83227 0.0
O151 O 0.1628 0.38428 0.78314 0.0
O152 O 0.10247 0.37679 0.9182 0.0
O153 O 0.14853 0.33849 0.90713 0.0
O154 O 0.66914 0.08265 0.78104 0.0
Cd155 Cd 0.64608 0.13168 0.79694 0.0
Cd156 Cd 0.62126 0.09276 0.86223 0.0
O157 O 0.64998 0.05137 0.83408 0.0
O158 O 0.66865 0.16533 0.75696 0.0
O159 O 0.67703 0.17034 0.82295 0.0
C160 C 0.68423 0.18143 0.78677 0.0
C161 C 0.6235 0.09846 0.93306 0.0
C162 C 0.66606 0.05267 0.80011 0.0
C163 C 0.56476 0.12045 0.80416 0.0
O164 O 0.57082 0.10218 0.8362 0.0
O165 O 0.59076 0.13603 0.78519 0.0
O166 O 0.61111 0.06955 0.91575 0.0
O167 O 0.63589 0.12413 0.90991 0.0
O168 O 0.89274 0.31348 0.75853 0.0
Cd169 Cd 0.84141 0.33109 0.74271 0.0
Cd170 Cd 0.87511 0.35525 0.67311 0.0
O171 O 0.91966 0.33182 0.70227 0.0
O172 O 0.80836 0.30703 0.78221 0.0
O173 O 0.80566 0.29747 0.71613 0.0
C174 C 0.79365 0.29057 0.75205 0.0
C175 C 0.87063 0.34959 0.6021 0.0
C176 C 0.92136 0.3174 0.73717 0.0
C177 C 0.84329 0.41209 0.72887 0.0
O178 O 0.86004 0.40587 0.69586 0.0
O179 O 0.83232 0.38597 0.75114 0.0
O180 O 0.8978 0.36559 0.61923 0.0
O181 O 0.84604 0.33562 0.62558 0.0
O182 O 0.65637 0.88525 0.76003 0.0
Cd183 Cd 0.64184 0.83244 0.74732 0.0
Cd184 Cd 0.62408 0.86394 0.67649 0.0
O185 O 0.66288 0.90081 0.6963 0.0
O186 O 0.66758 0.80122 0.78714 0.0
O187 O 0.67754 0.79862 0.72093 0.0
C188 C 0.68518 0.78741 0.75699 0.0
C189 C 0.61995 0.85626 0.6059 0.0
C190 C 0.66631 0.90821 0.73347 0.0
C191 C 0.56406 0.84341 0.73585 0.0
O192 O 0.57402 0.86433 0.70704 0.0
O193 O 0.58703 0.82222 0.75281 0.0
O194 O 0.6126 0.88691 0.62319 0.0
O195 O 0.63017 0.82947 0.62883 0.0
O196 O 0.09551 0.64447 0.76581 0.0
Cd197 Cd 0.14638 0.63639 0.74006 0.0
Cd198 Cd 0.10551 0.61142 0.67972 0.0
O199 O 0.06336 0.63687 0.71003 0.0
O200 O 0.18197 0.65915 0.77749 0.0
O201 O 0.17112 0.6806 0.71653 0.0
C202 C 0.18851 0.68343 0.75024 0.0
C203 C 0.11359 0.61955 0.61032 0.0
C204 C 0.06507 0.64496 0.74722 0.0
C205 C 0.14702 0.55673 0.72921 0.0
O206 O 0.12017 0.56191 0.70549 0.0
O207 O 0.16605 0.58361 0.74102 0.0
O208 O 0.08727 0.59978 0.62449 0.0
O209 O 0.13547 0.63522 0.63553 0.0
O210 O 0.3152 0.08161 0.74594 0.0
Cd211 Cd 0.34076 0.13053 0.73601 0.0
Cd212 Cd 0.36592 0.09506 0.6672 0.0
O213 O 0.32704 0.0578 0.68685 0.0
O214 O 0.31662 0.16307 0.77571 0.0
O215 O 0.31162 0.17028 0.70935 0.0
C216 C 0.30262 0.18021 0.74542 0.0
C217 C 0.3694 0.10399 0.59682 0.0
C218 C 0.31016 0.05645 0.72035 0.0
C219 C 0.42122 0.11749 0.73041 0.0
O220 O 0.41503 0.09906 0.69861 0.0
O221 O 0.3955 0.13416 0.74861 0.0
O222 O 0.37832 0.07342 0.61367 0.0
O223 O 0.35831 0.12998 0.62024 0.0
C224 C 0.27833 0.25221 0.28959 0.0
C225 C 0.26551 0.21593 0.29543 0.0
C226 C 0.20205 0.23636 0.28656 0.0
C227 C 0.21525 0.27174 0.27615 0.0
N228 N 0.26522 0.31387 0.26581 0.0
N229 N 0.21637 0.17211 0.29826 0.0
C230 C 0.25322 0.27989 0.2773 0.0
C231 C 0.22763 0.20765 0.29397 0.0
N232 N 0.31448 0.26008 0.29627 0.0
N233 N 0.1651 0.23033 0.28943 0.0
H234 H 0.23434 0.15078 0.30558 0.0
H235 H 0.18972 0.16332 0.29278 0.0
H236 H 0.1455 0.25025 0.28243 0.0
H237 H 0.15369 0.20641 0.30106 0.0
H238 H 0.32512 0.28651 0.29634 0.0
H239 H 0.33361 0.24027 0.30504 0.0
H240 H 0.29271 0.32046 0.26154 0.0
H241 H 0.24745 0.33527 0.2582 0.0
C242 C 0.77246 0.21981 0.28164 0.0
C243 C 0.76758 0.25651 0.26837 0.0
C244 C 0.70653 0.24187 0.24238 0.0
C245 C 0.71219 0.2048 0.25387 0.0
N246 N 0.75187 0.15669 0.27817 0.0
N247 N 0.73265 0.3022 0.232 0.0
C248 C 0.74554 0.19326 0.27185 0.0
C249 C 0.73549 0.2674 0.24725 0.0
N250 N 0.80275 0.21043 0.30374 0.0
N251 N 0.67282 0.25306 0.22892 0.0
H252 H 0.752 0.32259 0.23739 0.0
H253 H 0.71219 0.31043 0.21205 0.0
H254 H 0.6509 0.23519 0.2247 0.0
H255 H 0.66554 0.28041 0.22464 0.0
H256 H 0.80586 0.18534 0.31839 0.0
H257 H 0.82413 0.22857 0.30955 0.0
H258 H 0.77697 0.14593 0.28737 0.0
H259 H 0.73278 0.13651 0.27094 0.0
C260 C 0.71757 0.69749 0.27261 0.0
C261 C 0.7528 0.70686 0.25752 0.0
C262 C 0.73764 0.77218 0.26192 0.0
C263 C 0.70175 0.76275 0.27486 0.0
N264 N 0.65505 0.71706 0.28583 0.0
N265 N 0.79534 0.75213 0.23259 0.0
C266 C 0.69102 0.72555 0.27854 0.0
C267 C 0.76245 0.74394 0.25036 0.0
N268 N 0.7096 0.66174 0.2815 0.0
N269 N 0.74851 0.80804 0.26255 0.0
H270 H 0.81493 0.7323 0.22536 0.0
H271 H 0.8023 0.77822 0.22239 0.0
H272 H 0.73119 0.82943 0.27127 0.0
H273 H 0.77542 0.81647 0.25769 0.0
H274 H 0.68627 0.65366 0.29733 0.0
H275 H 0.72735 0.64005 0.27499 0.0
H276 H 0.64463 0.69057 0.28436 0.0
H277 H 0.63471 0.73684 0.29017 0.0
C278 C 0.21709 0.78048 0.24259 0.0
C279 C 0.2543 0.77239 0.25153 0.0
C280 C 0.23637 0.71436 0.28334 0.0
C281 C 0.19901 0.72357 0.27671 0.0
N282 N 0.15292 0.76696 0.2556 0.0
N283 N 0.29978 0.7341 0.28388 0.0
C284 C 0.1891 0.75704 0.25772 0.0
C285 C 0.26403 0.74013 0.27313 0.0
N286 N 0.20856 0.81051 0.21959 0.0
N287 N 0.24552 0.6802 0.29733 0.0
H288 H 0.32138 0.7507 0.2743 0.0
H289 H 0.30793 0.71379 0.30412 0.0
H290 H 0.22614 0.66049 0.30533 0.0
H291 H 0.27228 0.67017 0.29821 0.0
H292 H 0.1825 0.81571 0.20812 0.0
H293 H 0.22812 0.82932 0.20969 0.0
H294 H 0.14383 0.79257 0.24588 0.0
H295 H 0.13181 0.75053 0.26679 0.0
C296 C 0.70866 0.72306 0.75287 0.0
C297 C 0.71433 0.76006 0.76415 0.0
C298 C 0.77539 0.74473 0.79038 0.0
C299 C 0.76872 0.70742 0.78134 0.0
N300 N 0.72792 0.65959 0.75958 0.0
N301 N 0.7511 0.80647 0.79629 0.0
C302 C 0.73509 0.69616 0.76394 0.0
C303 C 0.74709 0.77098 0.78385 0.0
N304 N 0.67804 0.71368 0.73151 0.0
N305 N 0.80933 0.75521 0.80352 0.0
H306 H 0.73236 0.8272 0.78935 0.0
H307 H 0.77206 0.81521 0.81518 0.0
H308 H 0.83054 0.73663 0.80916 0.0
H309 H 0.81749 0.78238 0.80631 0.0
H310 H 0.67431 0.68817 0.71822 0.0
H311 H 0.65703 0.73218 0.7248 0.0
H312 H 0.70252 0.64922 0.75116 0.0
H313 H 0.74663 0.6391 0.7675 0.0
C314 C 0.23425 0.7309 0.72586 0.0
C315 C 0.21507 0.71356 0.75799 0.0
C316 C 0.25338 0.74707 0.80567 0.0
C317 C 0.26759 0.76895 0.7738 0.0
N318 N 0.25832 0.78901 0.70448 0.0
N319 N 0.1985 0.71735 0.82899 0.0
C320 C 0.25413 0.76321 0.73406 0.0
C321 C 0.22215 0.72521 0.79817 0.0
N322 N 0.23532 0.71623 0.68806 0.0
N323 N 0.27002 0.74554 0.84248 0.0
H324 H 0.17281 0.70565 0.82444 0.0
H325 H 0.20223 0.72751 0.85806 0.0
H326 H 0.29523 0.75772 0.8484 0.0
H327 H 0.26114 0.72785 0.86526 0.0
H328 H 0.25113 0.72767 0.66497 0.0
H329 H 0.22512 0.69038 0.68123 0.0
H330 H 0.24675 0.786 0.67593 0.0
H331 H 0.26822 0.81528 0.70999 0.0
C332 C 0.25693 0.26741 0.782 0.0
C333 C 0.21963 0.25943 0.77354 0.0
C334 C 0.23699 0.19955 0.74611 0.0
C335 C 0.2744 0.20843 0.75244 0.0
N336 N 0.32103 0.25165 0.77114 0.0
N337 N 0.17376 0.22024 0.74408 0.0
C338 C 0.28469 0.24258 0.76908 0.0
C339 C 0.20957 0.22623 0.75439 0.0
N340 N 0.26574 0.29868 0.80241 0.0
N341 N 0.22761 0.16496 0.73412 0.0
H342 H 0.15235 0.23772 0.75239 0.0
H343 H 0.16534 0.19897 0.72546 0.0
H344 H 0.24687 0.14471 0.72722 0.0
H345 H 0.20078 0.15529 0.73366 0.0
H346 H 0.2918 0.30416 0.81359 0.0
H347 H 0.24645 0.31855 0.8104 0.0
H348 H 0.33056 0.27747 0.77913 0.0
H349 H 0.34196 0.23401 0.76177 0.0
C350 C 0.74657 0.19848 0.76226 0.0
C351 C 0.71234 0.20951 0.7789 0.0
C352 C 0.73005 0.27404 0.77349 0.0
C353 C 0.76505 0.26286 0.75923 0.0
N354 N 0.80916 0.21503 0.74556 0.0
N355 N 0.67223 0.25661 0.8046 0.0
C356 C 0.77397 0.22523 0.75485 0.0
C357 C 0.70432 0.24699 0.78591 0.0
N358 N 0.75284 0.16237 0.75344 0.0
N359 N 0.72107 0.31048 0.77373 0.0
H360 H 0.6522 0.23757 0.81266 0.0
H361 H 0.66632 0.28301 0.81451 0.0
H362 H 0.73929 0.33093 0.76463 0.0
H363 H 0.69488 0.32044 0.77987 0.0
H364 H 0.7751 0.15322 0.73647 0.0
H365 H 0.73472 0.14142 0.76121 0.0
H366 H 0.8186 0.18809 0.7467 0.0
H367 H 0.83001 0.23379 0.73951 0.0
C368 C 0.1485 0.38645 0.99655 0.0
C369 C 0.13485 0.35498 0.97658 0.0
C370 C 0.12127 0.32596 0.04196 0.0
C371 C 0.13484 0.35752 0.06188 0.0
N372 N 0.16933 0.41366 0.05914 0.0
N373 N 0.11509 0.29206 0.97937 0.0
C374 C 0.15088 0.38654 0.0394 0.0
C375 C 0.12372 0.32372 0.99907 0.0
N376 N 0.15855 0.41656 0.97449 0.0
N377 N 0.10402 0.29919 0.06378 0.0
H378 H 0.11528 0.28988 0.94803 0.0
H379 H 0.11047 0.26718 0.99395 0.0
H380 H 0.10189 0.29974 0.09514 0.0
H381 H 0.08965 0.27762 0.05086 0.0
H382 H 0.16419 0.44199 0.98714 0.0
H383 H 0.15957 0.41666 0.94303 0.0
H384 H 0.18472 0.43375 0.0446 0.0
H385 H 0.17209 0.41418 0.09045 0.0
C386 C 0.59431 0.08356 1.00034 0.0
C387 C 0.62208 0.10206 0.97807 0.0
C388 C 0.64228 0.13041 0.04131 0.0
C389 C 0.61851 0.10703 0.06379 0.0
N390 N 0.58245 0.0513 0.06231 0.0
N391 N 0.67987 0.13477 0.98142 0.0
C392 C 0.59784 0.0804 0.04264 0.0
C393 C 0.64838 0.12305 0.99964 0.0
N394 N 0.56338 0.07076 0.98207 0.0
N395 N 0.65768 0.16063 0.05845 0.0
H396 H 0.68732 0.12736 0.95222 0.0
H397 H 0.70077 0.14777 0.99728 0.0
H398 H 0.65184 0.16924 0.08766 0.0
H399 H 0.6727 0.17968 0.04176 0.0
H400 H 0.54182 0.05912 0.99838 0.0
H401 H 0.55678 0.07654 0.95215 0.0
H402 H 0.56905 0.0303 0.04701 0.0
H403 H 0.58748 0.04555 0.09263 0.0
C404 C 0.84727 0.64726 1.00066 0.0
C405 C 0.83726 0.61521 0.9792 0.0
C406 C 0.82009 0.58502 0.04277 0.0
C407 C 0.83545 0.61471 0.06436 0.0
N408 N 0.86443 0.67396 0.06493 0.0
N409 N 0.81322 0.55378 0.97872 0.0
C410 C 0.84859 0.64617 0.04364 0.0
C411 C 0.82307 0.58424 0.99998 0.0
N412 N 0.85611 0.67849 0.97995 0.0
N413 N 0.80203 0.55797 0.06337 0.0
H414 H 0.81248 0.55323 0.94727 0.0
H415 H 0.80715 0.52862 0.99199 0.0
H416 H 0.79908 0.55813 0.09469 0.0
H417 H 0.78726 0.53717 0.04955 0.0
H418 H 0.85998 0.70382 0.99361 0.0
H419 H 0.85687 0.67987 0.94856 0.0
H420 H 0.87862 0.6956 0.05168 0.0
H421 H 0.8653 0.6744 0.09635 0.0
C422 C 0.32719 0.88567 0.02945 0.0
C423 C 0.35239 0.86071 0.04724 0.0
C424 C 0.37476 0.84271 0.98027 0.0
C425 C 0.34937 0.86746 0.96244 0.0
N426 N 0.29642 0.90669 0.96865 0.0
N427 N 0.39455 0.81018 0.04053 0.0
C428 C 0.32398 0.88713 0.98667 0.0
C429 C 0.37439 0.8375 0.02285 0.0
N430 N 0.30756 0.90908 0.0534 0.0
N431 N 0.40043 0.8256 0.95672 0.0
H432 H 0.39488 0.80582 0.07165 0.0
H433 H 0.40838 0.78996 0.0244 0.0
H434 H 0.40119 0.82823 0.92539 0.0
H435 H 0.42246 0.81069 0.96824 0.0
H436 H 0.29207 0.93089 0.0423 0.0
H437 H 0.30847 0.90812 0.08483 0.0
H438 H 0.27483 0.91876 0.98441 0.0
H439 H 0.29338 0.90824 0.9374 0.0
C440 C 0.1087 0.65474 0.54515 0.0
C441 C 0.1192 0.62236 0.56604 0.0
C442 C 0.13443 0.5928 0.5017 0.0
C443 C 0.11901 0.6231 0.48072 0.0
N444 N 0.08913 0.68217 0.48189 0.0
N445 N 0.14138 0.56003 0.56505 0.0
C446 C 0.10604 0.65419 0.50223 0.0
C447 C 0.13205 0.59128 0.54452 0.0
N448 N 0.10096 0.68588 0.56639 0.0
N449 N 0.15237 0.56601 0.48058 0.0
H450 H 0.14233 0.5586 0.59646 0.0
H451 H 0.14639 0.53497 0.55113 0.0
H452 H 0.15521 0.56669 0.44926 0.0
H453 H 0.16736 0.54498 0.49408 0.0
H454 H 0.09689 0.71141 0.55299 0.0
H455 H 0.1014 0.68685 0.59781 0.0
H456 H 0.07521 0.70354 0.49603 0.0
H457 H 0.08672 0.68286 0.45058 0.0
C458 C 0.34856 0.13216 0.52982 0.0
C459 C 0.37236 0.10849 0.55196 0.0
C460 C 0.39445 0.08353 0.48803 0.0
C461 C 0.37602 0.11158 0.46607 0.0
N462 N 0.34389 0.16992 0.47017 0.0
N463 N 0.42788 0.0716 0.54905 0.0
C464 C 0.35548 0.13818 0.48804 0.0
C465 C 0.39841 0.0872 0.53022 0.0
N466 N 0.31835 0.14757 0.54742 0.0
N467 N 0.40665 0.05239 0.46955 0.0
H468 H 0.4346 0.077 0.57898 0.0
H469 H 0.44837 0.0577 0.53318 0.0
H470 H 0.40039 0.04595 0.43977 0.0
H471 H 0.41827 0.03066 0.48566 0.0
H472 H 0.29915 0.1627 0.531 0.0
H473 H 0.30978 0.14142 0.57662 0.0
H474 H 0.33117 0.19088 0.48638 0.0
H475 H 0.35123 0.17751 0.44095 0.0
C476 C 0.88934 0.371 0.4915 0.0
C477 C 0.86473 0.34753 0.47088 0.0
C478 C 0.84918 0.31987 0.53642 0.0
C479 C 0.86774 0.34861 0.55693 0.0
N480 N 0.89461 0.40924 0.54988 0.0
N481 N 0.81356 0.30531 0.47739 0.0
C482 C 0.88469 0.37651 0.53337 0.0
C483 C 0.84237 0.32345 0.49425 0.0
N484 N 0.91808 0.38715 0.47191 0.0
N485 N 0.83936 0.28848 0.55613 0.0
H486 H 0.80511 0.30927 0.44775 0.0
H487 H 0.7952 0.28986 0.49455 0.0
H488 H 0.84673 0.28285 0.58583 0.0
H489 H 0.82822 0.26603 0.54116 0.0
H490 H 0.9376 0.40276 0.48705 0.0
H491 H 0.92534 0.3807 0.44233 0.0
H492 H 0.90513 0.43067 0.53247 0.0
H493 H 0.88737 0.41699 0.57905 0.0
C494 C 0.63968 0.83016 0.53771 0.0
C495 C 0.61576 0.85253 0.56119 0.0
C496 C 0.59055 0.87793 0.49878 0.0
C497 C 0.60959 0.85128 0.47554 0.0
N498 N 0.64516 0.79494 0.47643 0.0
N499 N 0.5593 0.88792 0.56174 0.0
C500 C 0.63216 0.82524 0.49592 0.0
C501 C 0.58837 0.87345 0.54109 0.0
N502 N 0.67048 0.81497 0.55422 0.0
N503 N 0.57597 0.90858 0.48118 0.0
H504 H 0.55423 0.88218 0.59207 0.0
H505 H 0.53766 0.9013 0.54725 0.0
H506 H 0.58034 0.91542 0.451 0.0
H507 H 0.56402 0.92961 0.498 0.0
H508 H 0.69001 0.80108 0.53698 0.0
H509 H 0.67892 0.81995 0.58365 0.0
H510 H 0.6592 0.77399 0.49138 0.0
H511 H 0.6381 0.7884 0.44692 0.0
C512 C 0.17999 0.51016 0.29415 0.0
C513 C 0.15023 0.53346 0.28383 0.0
C514 C 0.12289 0.48497 0.24345 0.0
C515 C 0.15419 0.46258 0.2505 0.0
N516 N 0.21505 0.45537 0.27771 0.0
N517 N 0.09802 0.54619 0.24094 0.0
C518 C 0.18356 0.4756 0.27453 0.0
C519 C 0.12339 0.52197 0.25575 0.0
N520 N 0.20444 0.5209 0.3229 0.0
N521 N 0.09138 0.47033 0.22799 0.0
H522 H 0.09645 0.57355 0.24966 0.0
H523 H 0.08057 0.53991 0.21709 0.0
H524 H 0.08833 0.44267 0.22106 0.0
H525 H 0.06667 0.48474 0.22656 0.0
H526 H 0.22448 0.50367 0.33491 0.0
H527 H 0.20325 0.54665 0.33649 0.0
H528 H 0.23871 0.46479 0.29176 0.0
H529 H 0.21851 0.43021 0.26332 0.0
C530 C 0.51513 0.20207 0.27706 0.0
C531 C 0.52254 0.18904 0.23767 0.0
C532 C 0.4589 0.17189 0.22849 0.0
C533 C 0.45229 0.17916 0.27008 0.0
N534 N 0.46927 0.2133 0.32921 0.0
N535 N 0.49718 0.18636 0.17091 0.0
C536 C 0.47892 0.19846 0.29291 0.0
C537 C 0.49282 0.18255 0.21156 0.0
N538 N 0.54271 0.2176 0.29882 0.0
N539 N 0.43486 0.15201 0.20585 0.0
H540 H 0.52141 0.19668 0.15849 0.0
H541 H 0.47547 0.18409 0.15066 0.0
H542 H 0.41045 0.14111 0.21679 0.0
H543 H 0.44105 0.14325 0.17671 0.0
H544 H 0.54078 0.22417 0.32925 0.0
H545 H 0.56776 0.22446 0.28548 0.0
H546 H 0.48666 0.2291 0.34682 0.0
H547 H 0.44247 0.21211 0.34032 0.0
C548 C 0.83933 0.50431 0.28479 0.0
C549 C 0.81263 0.51428 0.25559 0.0
C550 C 0.78839 0.4516 0.25552 0.0
C551 C 0.81515 0.44158 0.2847 0.0
N552 N 0.8647 0.45839 0.32954 0.0
N553 N 0.75895 0.50034 0.21675 0.0
C554 C 0.8399 0.46805 0.30037 0.0
C555 C 0.78628 0.48871 0.24197 0.0
N556 N 0.86581 0.52897 0.29561 0.0
N557 N 0.76542 0.42541 0.24054 0.0
H558 H 0.75698 0.52736 0.20653 0.0
H559 H 0.73695 0.48422 0.20784 0.0
H560 H 0.76479 0.39862 0.25163 0.0
H561 H 0.74779 0.42954 0.21633 0.0
H562 H 0.88924 0.52224 0.31193 0.0
H563 H 0.86579 0.55631 0.28645 0.0
H564 H 0.87888 0.47723 0.34703 0.0
H565 H 0.87069 0.43145 0.33764 0.0
C566 C 0.49148 0.84539 0.28824 0.0
C567 C 0.51488 0.81469 0.28185 0.0
C568 C 0.46832 0.78628 0.23871 0.0
C569 C 0.44652 0.8183 0.24254 0.0
N570 N 0.43939 0.88084 0.26519 0.0
N571 N 0.52773 0.75719 0.24923 0.0
C572 C 0.45849 0.8484 0.26604 0.0
C573 C 0.50389 0.7854 0.25658 0.0
N574 N 0.5009 0.87209 0.3152 0.0
N575 N 0.45468 0.75668 0.21861 0.0
H576 H 0.55322 0.75505 0.26336 0.0
H577 H 0.52319 0.73689 0.22788 0.0
H578 H 0.42895 0.75699 0.20486 0.0
H579 H 0.46755 0.7312 0.21772 0.0
H580 H 0.48262 0.89202 0.32542 0.0
H581 H 0.52616 0.87336 0.32968 0.0
H582 H 0.44917 0.9052 0.2773 0.0
H583 H 0.415 0.88463 0.24933 0.0
C584 C 0.80452 0.49762 0.77884 0.0
C585 C 0.83676 0.51886 0.78259 0.0
C586 C 0.87314 0.47048 0.75074 0.0
C587 C 0.84057 0.44997 0.7445 0.0
N588 N 0.77451 0.44649 0.74597 0.0
N589 N 0.89973 0.52991 0.76337 0.0
C590 C 0.80596 0.46425 0.7567 0.0
C591 C 0.87044 0.50663 0.76584 0.0
N592 N 0.77285 0.50903 0.79709 0.0
N593 N 0.90688 0.45491 0.74457 0.0
H594 H 0.89894 0.55681 0.77386 0.0
H595 H 0.92362 0.52375 0.74741 0.0
H596 H 0.91073 0.42835 0.73398 0.0
H597 H 0.93129 0.46717 0.75357 0.0
H598 H 0.74933 0.49301 0.79914 0.0
H599 H 0.77092 0.53373 0.81274 0.0
H600 H 0.74833 0.45714 0.75065 0.0
H601 H 0.77465 0.42244 0.72902 0.0
C602 C 0.49578 0.84398 0.72592 0.0
C603 C 0.52627 0.84629 0.7522 0.0
C604 C 0.48456 0.85212 0.81003 0.0
C605 C 0.45434 0.85395 0.78326 0.0
N606 N 0.43248 0.86095 0.71479 0.0
N607 N 0.54959 0.86209 0.81821 0.0
C608 C 0.46026 0.85246 0.74089 0.0
C609 C 0.52071 0.85297 0.79403 0.0
N610 N 0.50045 0.83261 0.68701 0.0
N611 N 0.4789 0.84834 0.85059 0.0
H612 H 0.57635 0.86503 0.80754 0.0
H613 H 0.54631 0.87074 0.84792 0.0
H614 H 0.45283 0.84669 0.8635 0.0
H615 H 0.50008 0.84314 0.87091 0.0
H616 H 0.47858 0.82697 0.66785 0.0
H617 H 0.52593 0.82517 0.67515 0.0
H618 H 0.43645 0.86375 0.6838 0.0
H619 H 0.40647 0.86926 0.72429 0.0
C620 C 0.16142 0.47962 0.80573 0.0
C621 C 0.15331 0.44878 0.78158 0.0
C622 C 0.15168 0.4886 0.72189 0.0
C623 C 0.15297 0.51983 0.74704 0.0
N624 N 0.15039 0.54415 0.81515 0.0
N625 N 0.13192 0.42584 0.71711 0.0
C626 C 0.15582 0.51526 0.78963 0.0
C627 C 0.14633 0.4536 0.73963 0.0
N628 N 0.17481 0.47504 0.84387 0.0
N629 N 0.1557 0.49223 0.6811 0.0
H630 H 0.12432 0.40055 0.72907 0.0
H631 H 0.12332 0.42951 0.6874 0.0
H632 H 0.16073 0.51743 0.66718 0.0
H633 H 0.15811 0.46982 0.66185 0.0
H634 H 0.18415 0.49683 0.86128 0.0
H635 H 0.1804 0.44929 0.85625 0.0
H636 H 0.14873 0.54099 0.84635 0.0
H637 H 0.14322 0.5704 0.80553 0.0
C638 C 0.47611 0.15232 0.75464 0.0
C639 C 0.45848 0.11822 0.74801 0.0
C640 C 0.51197 0.08576 0.77498 0.0
C641 C 0.52778 0.11987 0.78584 0.0
N642 N 0.52257 0.18554 0.79169 0.0
N643 N 0.45637 0.0528 0.7595 0.0
C644 C 0.50923 0.15319 0.7772 0.0
C645 C 0.4755 0.08498 0.76022 0.0
N646 N 0.46191 0.18369 0.73817 0.0
N647 N 0.53224 0.05418 0.777 0.0
H648 H 0.42928 0.05094 0.74971 0.0
H649 H 0.46618 0.02856 0.7723 0.0
H650 H 0.55935 0.05331 0.78689 0.0
H651 H 0.52336 0.02936 0.76508 0.0
H652 H 0.47551 0.20875 0.73848 0.0
H653 H 0.43808 0.18402 0.72079 0.0
H654 H 0.50823 0.21023 0.78997 0.0
H655 H 0.54652 0.18714 0.80876 0.0
C656 C 0.69875 -0.00737 0.78956 0.0
C657 C 0.67118 0.01805 0.77798 0.0
C658 C 0.64201 0.97191 0.73564 0.0
C659 C 0.67046 0.9468 0.74563 0.0
N660 N 0.72864 0.93401 0.77686 0.0
N661 N 0.62086 0.03449 0.73358 0.0
C662 C 0.6998 0.95745 0.77099 0.0
C663 C 0.64458 0.00866 0.74856 0.0
N664 N 0.7233 0.00195 0.81883 0.0
N665 N 0.61076 0.96005 0.71693 0.0
H666 H 0.61889 0.06123 0.74418 0.0
H667 H 0.60463 0.03007 0.70823 0.0
H668 H 0.60647 0.93313 0.70782 0.0
H669 H 0.58719 0.97606 0.71401 0.0
H670 H 0.74165 0.98352 0.8319 0.0
H671 H 0.72414 0.02811 0.83144 0.0
H672 H 0.75245 0.94107 0.79221 0.0
H673 H 0.72987 0.90814 0.76357 0.0
C674 C 0.98245 0.61324 0.80599 0.0
C675 C 0.95982 0.64509 0.80491 0.0
C676 C 0.00771 0.67842 0.76791 0.0
C677 C 0.0306 0.64703 0.7705 0.0
N678 N 0.04318 0.58723 0.79912 0.0
N679 N 0.953 0.70975 0.79204 0.0
C680 C 0.01919 0.6155 0.79225 0.0
C681 C 0.97314 0.6783 0.78803 0.0
N682 N 0.96816 0.57995 0.81686 0.0
N683 N 0.01878 0.70796 0.74559 0.0
H684 H 0.92785 0.71047 0.80715 0.0
H685 H 0.96247 0.73556 0.78361 0.0
H686 H 0.04465 0.70944 0.73212 0.0
H687 H 0.00179 0.73008 0.73864 0.0
H688 H 0.98203 0.55522 0.81283 0.0
H689 H 0.94122 0.57605 0.82635 0.0
H690 H 0.03775 0.5659 0.81922 0.0
H691 H 0.06971 0.58623 0.78738 0.0
C692 C 0.28869 -0.00866 0.70722 0.0
C693 C 0.28961 0.02265 0.73249 0.0
C694 C 0.27796 0.98422 0.79148 0.0
C695 C 0.28871 0.95349 0.76808 0.0
N696 N 0.27874 0.92556 0.70329 0.0
N697 N 0.2609 0.04877 0.79117 0.0
C698 C 0.28605 0.95611 0.72549 0.0
C699 C 0.27637 0.01918 0.77254 0.0
N700 N 0.28973 -0.00461 0.66632 0.0
N701 N 0.26903 0.97976 0.83117 0.0
H702 H 0.25602 0.07326 0.77567 0.0
H703 H 0.24917 0.04792 0.8198 0.0
H704 H 0.26444 0.95389 0.8437 0.0
H705 H 0.26553 0.00139 0.85122 0.0
H706 H 0.29428 0.97385 0.6464 0.0
H707 H 0.28497 0.02066 0.65241 0.0
H708 H 0.27501 0.92574 0.67219 0.0
H709 H 0.27162 0.90073 0.71686 0.0
C710 C 0.00568 0.35079 0.79079 0.0
C711 C 0.02853 0.3192 0.79023 0.0
C712 C 0.98107 0.28549 0.75335 0.0
C713 C 0.95735 0.31612 0.75739 0.0
N714 N 0.94413 0.37503 0.7875 0.0
N715 N 0.037 0.25508 0.7756 0.0
C716 C 0.96868 0.34773 0.77871 0.0
C717 C 0.01598 0.28606 0.77274 0.0
N718 N 0.01989 0.38442 0.80007 0.0
N719 N 0.9704 0.25629 0.73059 0.0
H720 H 0.06255 0.25473 0.78975 0.0
H721 H 0.02807 0.22925 0.76679 0.0
H722 H 0.94451 0.25478 0.71732 0.0
H723 H -0.01223 0.23469 0.72292 0.0
H724 H 0.00533 0.40883 0.79641 0.0
H725 H 0.04741 0.38873 0.80703 0.0
H726 H 0.95008 0.39657 0.80694 0.0
H727 H 0.91677 0.37466 0.77844 0.0
C728 C 0.34156 0.02333 0.23116 0.0
C729 C 0.34206 0.02654 0.27393 0.0
C730 C 0.34194 0.95977 0.28012 0.0
C731 C 0.33719 0.95664 0.23768 0.0
N732 N 0.32379 0.98616 0.17415 0.0
N733 N 0.33262 -0.00224 0.33881 0.0
C734 C 0.33422 -0.01133 0.21359 0.0
C735 C 0.33903 -0.00526 0.29833 0.0
N736 N 0.35036 0.05257 0.20717 0.0
N737 N 0.35168 0.93001 0.30293 0.0
H738 H 0.32894 0.02293 0.35312 0.0
H739 H 0.32688 0.97523 0.35717 0.0
H740 H 0.35674 0.90412 0.29094 0.0
H741 H 0.35895 0.93202 0.33322 0.0
H742 H 0.35387 0.0504 0.17607 0.0
H743 H 0.35815 0.07799 0.21843 0.0
H744 H 0.3179 0.00904 0.15636 0.0
H745 H 0.31726 0.9613 0.16052 0.0
C746 C 0.96211 0.33174 0.23961 0.0
C747 C 0.95623 0.3335 0.28205 0.0
C748 C 0.02154 0.34503 0.29166 0.0
C749 C 0.02811 0.33771 0.25011 0.0
N750 N 0.0048 0.31596 0.18646 0.0
N751 N 0.98232 0.33303 0.34898 0.0
C752 C -0.00155 0.32853 0.22462 0.0
C753 C 0.98655 0.33742 0.30829 0.0
N754 N 0.93347 0.33548 0.21335 0.0
N755 N 0.04774 0.36138 0.31485 0.0
H756 H 0.95739 0.32592 0.36233 0.0
H757 H 0.00445 0.33244 0.36884 0.0
H758 H 0.07281 0.37043 0.30346 0.0
H759 H 0.0427 0.3701 0.34426 0.0
H760 H 0.93715 0.33767 0.18225 0.0
H761 H 0.90664 0.34092 0.22251 0.0
H762 H 0.98402 0.30574 0.16815 0.0
H763 H 0.03112 0.31207 0.17479 0.0
C764 C 0.61882 0.98217 0.31813 0.0
C765 C 0.62142 0.95162 0.29196 0.0
C766 C 0.62691 -0.00684 0.23406 0.0
C767 C 0.61976 0.02348 0.25955 0.0
N768 N 0.59988 0.04542 0.32488 0.0
N769 N 0.61689 0.92861 0.22366 0.0
C770 C 0.61319 0.01766 0.3014 0.0
C771 C 0.62236 0.9572 0.24949 0.0
N772 N 0.62285 0.97763 0.35881 0.0
N773 N 0.6394 -0.00159 0.19558 0.0
H774 H 0.61075 0.90211 0.23335 0.0
H775 H 0.61401 0.93219 0.19263 0.0
H776 H 0.64484 0.02425 0.18348 0.0
H777 H 0.64825 0.97691 0.17731 0.0
H778 H 0.62472 -0.00044 0.37874 0.0
H779 H 0.6281 0.95224 0.37217 0.0
H780 H 0.59139 0.04151 0.35462 0.0
H781 H 0.5934 0.07133 0.31353 0.0
C782 C -0.00934 0.67588 0.28416 0.0
C783 C 0.01094 0.64334 0.29179 0.0
C784 C 0.9614 0.60629 0.26332 0.0
C785 C 0.94213 0.63891 0.25314 0.0
N786 N 0.93944 0.70476 0.24926 0.0
N787 N 0.01888 0.57807 0.2823 0.0
C788 C 0.95702 0.67378 0.26237 0.0
C789 C -0.00282 0.60869 0.2797 0.0
N790 N 0.00313 0.70852 0.29877 0.0
N791 N 0.94494 0.57287 0.25897 0.0
H792 H 0.04496 0.57797 0.29508 0.0
H793 H 0.01231 0.5532 0.26885 0.0
H794 H 0.91915 0.56938 0.2461 0.0
H795 H 0.95555 0.54868 0.27104 0.0
H796 H -0.01189 0.73281 0.29783 0.0
H797 H 0.0277 0.71079 0.31465 0.0
H798 H 0.9504 0.73097 0.25144 0.0
H799 H 0.91481 0.70398 0.2333 0.0
loop_
_geom_bond_atom_site_label_1
_geom_bond_atom_site_label_2
_geom_bond_distance
_geom_bond_site_symmetry_2
_ccdc_geom_bond_type
O0 Cd1 2.223 . S
O0 C8 1.315 . S
Cd1 O0 2.223 . S
Cd1 O4 2.297 . S
Cd1 O5 2.439 . S
Cd1 O11 2.240 . S
Cd2 O3 2.240 . S
Cd2 O10 2.223 . S
Cd2 O12 2.297 . S
Cd2 O13 2.439 . S
O3 Cd2 2.240 . S
O3 C8 1.279 . S
O4 Cd1 2.297 . S
O4 C6 1.247 . S
O5 Cd1 2.439 . S
O5 C6 1.208 . S
C6 O4 1.247 . S
C6 O5 1.208 . S
C7 O12 1.247 . S
C7 O13 1.208 . S
C8 O0 1.315 . S
C8 O3 1.279 . S
C9 O10 1.315 . S
C9 O11 1.279 . S
O10 Cd2 2.223 . S
O10 C9 1.315 . S
O11 Cd1 2.240 . S
O11 C9 1.279 . S
O12 Cd2 2.297 . S
O12 C7 1.247 . S
O13 Cd2 2.439 . S
O13 C7 1.208 . S
O14 Cd15 2.223 . S
O14 C22 1.315 . S
Cd15 O14 2.223 . S
Cd15 O18 2.297 . S
Cd15 O19 2.439 . S
Cd15 O25 2.240 . S
Cd16 O17 2.240 . S
Cd16 O24 2.223 . S
Cd16 O26 2.297 . S
Cd16 O27 2.439 . S
O17 Cd16 2.240 . S
O17 C22 1.279 . S
O18 Cd15 2.297 . S
O18 C20 1.247 . S
O19 Cd15 2.439 . S
O19 C20 1.208 . S
C20 O18 1.247 . S
C20 O19 1.208 . S
C21 O26 1.247 . S
C21 O27 1.208 . S
C22 O14 1.315 . S
C22 O17 1.279 . S
C23 O24 1.315 . S
C23 O25 1.279 . S
O24 Cd16 2.223 . S
O24 C23 1.315 . S
O25 Cd15 2.240 . S
O25 C23 1.279 . S
O26 Cd16 2.297 . S
O26 C21 1.247 . S
O27 Cd16 2.439 . S
O27 C21 1.208 . S
O28 Cd29 2.223 . S
O28 C36 1.315 . S
Cd29 O28 2.223 . S
Cd29 O32 2.297 . S
Cd29 O33 2.439 . S
Cd29 O39 2.240 . S
Cd30 O31 2.240 . S
Cd30 O38 2.223 . S
Cd30 O40 2.297 . S
Cd30 O41 2.439 . S
O31 Cd30 2.240 . S
O31 C36 1.279 . S
O32 Cd29 2.297 . S
O32 C34 1.247 . S
O33 Cd29 2.439 . S
O33 C34 1.208 . S
C34 O32 1.247 . S
C34 O33 1.208 . S
C35 O40 1.247 . S
C35 O41 1.208 . S
C36 O28 1.315 . S
C36 O31 1.279 . S
C37 O38 1.315 . S
C37 O39 1.279 . S
O38 Cd30 2.223 . S
O38 C37 1.315 . S
O39 Cd29 2.240 . S
O39 C37 1.279 . S
O40 Cd30 2.297 . S
O40 C35 1.247 . S
O41 Cd30 2.439 . S
O41 C35 1.208 . S
O42 Cd43 2.223 . S
O42 C50 1.315 . S
Cd43 O42 2.223 . S
Cd43 O46 2.297 . S
Cd43 O47 2.439 . S
Cd43 O53 2.240 . S
Cd44 O45 2.240 . S
Cd44 O52 2.223 . S
Cd44 O54 2.297 . S
Cd44 O55 2.439 . S
O45 Cd44 2.240 . S
O45 C50 1.279 . S
O46 Cd43 2.297 . S
O46 C48 1.247 . S
O47 Cd43 2.439 . S
O47 C48 1.208 . S
C48 O46 1.247 . S
C48 O47 1.208 . S
C49 O54 1.247 . S
C49 O55 1.208 . S
C50 O42 1.315 . S
C50 O45 1.279 . S
C51 O52 1.315 . S
C51 O53 1.279 . S
O52 Cd44 2.223 . S
O52 C51 1.315 . S
O53 Cd43 2.240 . S
O53 C51 1.279 . S
O54 Cd44 2.297 . S
O54 C49 1.247 . S
O55 Cd44 2.439 . S
O55 C49 1.208 . S
O56 Cd57 2.223 . S
O56 C64 1.315 . S
Cd57 O56 2.223 . S
Cd57 O60 2.297 . S
Cd57 O61 2.439 . S
Cd57 O67 2.240 . S
Cd58 O59 2.240 . S
Cd58 O66 2.223 . S
Cd58 O68 2.297 . S
Cd58 O69 2.439 . S
O59 Cd58 2.240 . S
O59 C64 1.279 . S
O60 Cd57 2.297 . S
O60 C62 1.247 . S
O61 Cd57 2.439 . S
O61 C62 1.208 . S
C62 O60 1.247 . S
C62 O61 1.208 . S
C63 O68 1.247 . S
C63 O69 1.208 . S
C64 O56 1.315 . S
C64 O59 1.279 . S
C65 O66 1.315 . S
C65 O67 1.279 . S
O66 Cd58 2.223 . S
O66 C65 1.315 . S
O67 Cd57 2.240 . S
O67 C65 1.279 . S
O68 Cd58 2.297 . S
O68 C63 1.247 . S
O69 Cd58 2.439 . S
O69 C63 1.208 . S
O70 Cd71 2.223 . S
O70 C78 1.315 . S
Cd71 O70 2.223 . S
Cd71 O74 2.297 . S
Cd71 O75 2.439 . S
Cd71 O81 2.240 . S
Cd72 O73 2.240 . S
Cd72 O80 2.223 . S
Cd72 O82 2.297 . S
Cd72 O83 2.439 . S
O73 Cd72 2.240 . S
O73 C78 1.279 . S
O74 Cd71 2.297 . S
O74 C76 1.247 . S
O75 Cd71 2.439 . S
O75 C76 1.208 . S
C76 O74 1.247 . S
C76 O75 1.208 . S
C77 O82 1.247 . S
C77 O83 1.208 . S
C78 O70 1.315 . S
C78 O73 1.279 . S
C79 O80 1.315 . S
C79 O81 1.279 . S
O80 Cd72 2.223 . S
O80 C79 1.315 . S
O81 Cd71 2.240 . S
O81 C79 1.279 . S
O82 Cd72 2.297 . S
O82 C77 1.247 . S
O83 Cd72 2.439 . S
O83 C77 1.208 . S
O84 Cd85 2.223 . S
O84 C92 1.315 . S
Cd85 O84 2.223 . S
Cd85 O88 2.297 . S
Cd85 O89 2.439 . S
Cd85 O95 2.240 . S
Cd86 O87 2.240 . S
Cd86 O94 2.223 . S
Cd86 O96 2.297 . S
Cd86 O97 2.439 . S
O87 Cd86 2.240 . S
O87 C92 1.279 . S
O88 Cd85 2.297 . S
O88 C90 1.247 . S
O89 Cd85 2.439 . S
O89 C90 1.208 . S
C90 O88 1.247 . S
C90 O89 1.208 . S
C91 O96 1.247 . S
C91 O97 1.208 . S
C92 O84 1.315 . S
C92 O87 1.279 . S
C93 O94 1.315 . S
C93 O95 1.279 . S
O94 Cd86 2.223 . S
O94 C93 1.315 . S
O95 Cd85 2.240 . S
O95 C93 1.279 . S
O96 Cd86 2.297 . S
O96 C91 1.247 . S
O97 Cd86 2.439 . S
O97 C91 1.208 . S
O98 Cd99 2.223 . S
O98 C106 1.315 . S
Cd99 O98 2.223 . S
Cd99 O102 2.297 . S
Cd99 O103 2.439 . S
Cd99 O109 2.240 . S
Cd100 O101 2.240 . S
Cd100 O108 2.223 . S
Cd100 O110 2.297 . S
Cd100 O111 2.439 . S
O101 Cd100 2.240 . S
O101 C106 1.279 . S
O102 Cd99 2.297 . S
O102 C104 1.247 . S
O103 Cd99 2.439 . S
O103 C104 1.208 . S
C104 O102 1.247 . S
C104 O103 1.208 . S
C105 O110 1.247 . S
C105 O111 1.208 . S
C106 O98 1.315 . S
C106 O101 1.279 . S
C107 O108 1.315 . S
C107 O109 1.279 . S
O108 Cd100 2.223 . S
O108 C107 1.315 . S
O109 Cd99 2.240 . S
O109 C107 1.279 . S
O110 Cd100 2.297 . S
O110 C105 1.247 . S
O111 Cd100 2.439 . S
O111 C105 1.208 . S
O112 Cd113 2.223 . S
O112 C120 1.315 . S
Cd113 O112 2.223 . S
Cd113 O116 2.297 . S
Cd113 O117 2.439 . S
Cd113 O123 2.240 . S
Cd114 O115 2.240 . S
Cd114 O122 2.223 . S
Cd114 O124 2.297 . S
Cd114 O125 2.439 . S
O115 Cd114 2.240 . S
O115 C120 1.279 . S
O116 Cd113 2.297 . S
O116 C118 1.247 . S
O117 Cd113 2.439 . S
O117 C118 1.208 . S
C118 O116 1.247 . S
C118 O117 1.208 . S
C119 O124 1.247 . S
C119 O125 1.208 . S
C120 O112 1.315 . S
C120 O115 1.279 . S
C121 O122 1.315 . S
C121 O123 1.279 . S
O122 Cd114 2.223 . S
O122 C121 1.315 . S
O123 Cd113 2.240 . S
O123 C121 1.279 . S
O124 Cd114 2.297 . S
O124 C119 1.247 . S
O125 Cd114 2.439 . S
O125 C119 1.208 . S
O126 Cd127 2.223 . S
O126 C134 1.315 . S
Cd127 O126 2.223 . S
Cd127 O130 2.297 . S
Cd127 O131 2.439 . S
Cd127 O137 2.240 . S
Cd128 O129 2.240 . S
Cd128 O136 2.223 . S
Cd128 O138 2.297 . S
Cd128 O139 2.439 . S
O129 Cd128 2.240 . S
O129 C134 1.279 . S
O130 Cd127 2.297 . S
O130 C132 1.247 . S
O131 Cd127 2.439 . S
O131 C132 1.208 . S
C132 O130 1.247 . S
C132 O131 1.208 . S
C133 O138 1.247 . S
C133 O139 1.208 . S
C134 O126 1.315 . S
C134 O129 1.279 . S
C135 O136 1.315 . S
C135 O137 1.279 . S
O136 Cd128 2.223 . S
O136 C135 1.315 . S
O137 Cd127 2.240 . S
O137 C135 1.279 . S
O138 Cd128 2.297 . S
O138 C133 1.247 . S
O139 Cd128 2.439 . S
O139 C133 1.208 . S
O140 Cd141 2.223 . S
O140 C148 1.315 . S
Cd141 O140 2.223 . S
Cd141 O144 2.297 . S
Cd141 O145 2.439 . S
Cd141 O151 2.240 . S
Cd142 O143 2.240 . S
Cd142 O150 2.223 . S
Cd142 O152 2.297 . S
Cd142 O153 2.439 . S
O143 Cd142 2.240 . S
O143 C148 1.279 . S
O144 Cd141 2.297 . S
O144 C146 1.247 . S
O145 Cd141 2.439 . S
O145 C146 1.208 . S
C146 O144 1.247 . S
C146 O145 1.208 . S
C147 O152 1.247 . S
C147 O153 1.208 . S
C148 O140 1.315 . S
C148 O143 1.279 . S
C149 O150 1.315 . S
C149 O151 1.279 . S
O150 Cd142 2.223 . S
O150 C149 1.315 . S
O151 Cd141 2.240 . S
O151 C149 1.279 . S
O152 Cd142 2.297 . S
O152 C147 1.247 . S
O153 Cd142 2.439 . S
O153 C147 1.208 . S
O154 Cd155 2.223 . S
O154 C162 1.315 . S
Cd155 O154 2.223 . S
Cd155 O158 2.297 . S
Cd155 O159 2.439 . S
Cd155 O165 2.240 . S
Cd156 O157 2.240 . S
Cd156 O164 2.223 . S
Cd156 O166 2.297 . S
Cd156 O167 2.439 . S
O157 Cd156 2.240 . S
O157 C162 1.279 . S
O158 Cd155 2.297 . S
O158 C160 1.247 . S
O159 Cd155 2.439 . S
O159 C160 1.208 . S
C160 O158 1.247 . S
C160 O159 1.208 . S
C161 O166 1.247 . S
C161 O167 1.208 . S
C162 O154 1.315 . S
C162 O157 1.279 . S
C163 O164 1.315 . S
C163 O165 1.279 . S
O164 Cd156 2.223 . S
O164 C163 1.315 . S
O165 Cd155 2.240 . S
O165 C163 1.279 . S
O166 Cd156 2.297 . S
O166 C161 1.247 . S
O167 Cd156 2.439 . S
O167 C161 1.208 . S
O168 Cd169 2.223 . S
O168 C176 1.315 . S
Cd169 O168 2.223 . S
Cd169 O172 2.297 . S
Cd169 O173 2.439 . S
Cd169 O179 2.240 . S
Cd170 O171 2.240 . S
Cd170 O178 2.223 . S
Cd170 O180 2.297 . S
Cd170 O181 2.439 . S
O171 Cd170 2.240 . S
O171 C176 1.279 . S
O172 Cd169 2.297 . S
O172 C174 1.247 . S
O173 Cd169 2.439 . S
O173 C174 1.208 . S
C174 O172 1.247 . S
C174 O173 1.208 . S
C175 O180 1.247 . S
C175 O181 1.208 . S
C176 O168 1.315 . S
C176 O171 1.279 . S
C177 O178 1.315 . S
C177 O179 1.279 . S
O178 Cd170 2.223 . S
O178 C177 1.315 . S
O179 Cd169 2.240 . S
O179 C177 1.279 . S
O180 Cd170 2.297 . S
O180 C175 1.247 . S
O181 Cd170 2.439 . S
O181 C175 1.208 . S
O182 Cd183 2.223 . S
O182 C190 1.315 . S
Cd183 O182 2.223 . S
Cd183 O186 2.297 . S
Cd183 O187 2.439 . S
Cd183 O193 2.240 . S
Cd184 O185 2.240 . S
Cd184 O192 2.223 . S
Cd184 O194 2.297 . S
Cd184 O195 2.439 . S
O185 Cd184 2.240 . S
O185 C190 1.279 . S
O186 Cd183 2.297 . S
O186 C188 1.247 . S
O187 Cd183 2.439 . S
O187 C188 1.208 . S
C188 O186 1.247 . S
C188 O187 1.208 . S
C189 O194 1.247 . S
C189 O195 1.208 . S
C190 O182 1.315 . S
C190 O185 1.279 . S
C191 O192 1.315 . S
C191 O193 1.279 . S
O192 Cd184 2.223 . S
O192 C191 1.315 . S
O193 Cd183 2.240 . S
O193 C191 1.279 . S
O194 Cd184 2.297 . S
O194 C189 1.247 . S
O195 Cd184 2.439 . S
O195 C189 1.208 . S
O196 Cd197 2.223 . S
O196 C204 1.315 . S
Cd197 O196 2.223 . S
Cd197 O200 2.297 . S
Cd197 O201 2.439 . S
Cd197 O207 2.240 . S
Cd198 O199 2.240 . S
Cd198 O206 2.223 . S
Cd198 O208 2.297 . S
Cd198 O209 2.439 . S
O199 Cd198 2.240 . S
O199 C204 1.279 . S
O200 Cd197 2.297 . S
O200 C202 1.247 . S
O201 Cd197 2.439 . S
O201 C202 1.208 . S
C202 O200 1.247 . S
C202 O201 1.208 . S
C203 O208 1.247 . S
C203 O209 1.208 . S
C204 O196 1.315 . S
C204 O199 1.279 . S
C205 O206 1.315 . S
C205 O207 1.279 . S
O206 Cd198 2.223 . S
O206 C205 1.315 . S
O207 Cd197 2.240 . S
O207 C205 1.279 . S
O208 Cd198 2.297 . S
O208 C203 1.247 . S
O209 Cd198 2.439 . S
O209 C203 1.208 . S
O210 Cd211 2.223 . S
O210 C218 1.315 . S
Cd211 O210 2.223 . S
Cd211 O214 2.297 . S
Cd211 O215 2.439 . S
Cd211 O221 2.240 . S
Cd212 O213 2.240 . S
Cd212 O220 2.223 . S
Cd212 O222 2.297 . S
Cd212 O223 2.439 . S
O213 Cd212 2.240 . S
O213 C218 1.279 . S
O214 Cd211 2.297 . S
O214 C216 1.247 . S
O215 Cd211 2.439 . S
O215 C216 1.208 . S
C216 O214 1.247 . S
C216 O215 1.208 . S
C217 O222 1.247 . S
C217 O223 1.208 . S
C218 O210 1.315 . S
C218 O213 1.279 . S
C219 O220 1.315 . S
C219 O221 1.279 . S
O220 Cd212 2.223 . S
O220 C219 1.315 . S
O221 Cd211 2.240 . S
O221 C219 1.279 . S
O222 Cd212 2.297 . S
O222 C217 1.247 . S
O223 Cd212 2.439 . S
O223 C217 1.208 . S
C224 C225 1.363 . S
C224 C230 1.379 . S
C224 N232 1.356 . S
C225 C224 1.363 . S
C225 C231 1.363 . S
C226 C227 1.363 . S
C226 C231 1.379 . S
C226 N233 1.356 . S
C227 C226 1.363 . S
C227 C230 1.363 . S
N228 C230 1.356 . S
N228 H240 0.984 . S
N228 H241 0.985 . S
N229 C231 1.356 . S
N229 H234 0.984 . S
N229 H235 0.985 . S
C230 C224 1.379 . S
C230 C227 1.363 . S
C230 N228 1.356 . S
C231 C225 1.363 . S
C231 C226 1.379 . S
C231 N229 1.356 . S
N232 C224 1.356 . S
N232 H238 0.984 . S
N232 H239 0.984 . S
N233 C226 1.356 . S
N233 H236 0.984 . S
N233 H237 0.985 . S
H234 N229 0.984 . S
H235 N229 0.985 . S
H236 N233 0.984 . S
H237 N233 0.985 . S
H238 N232 0.984 . S
H239 N232 0.984 . S
H240 N228 0.984 . S
H241 N228 0.985 . S
C242 C243 1.363 . S
C242 C248 1.379 . S
C242 N250 1.356 . S
C243 C242 1.363 . S
C243 C249 1.363 . S
C244 C245 1.363 . S
C244 C249 1.379 . S
C244 N251 1.356 . S
C245 C244 1.363 . S
C245 C248 1.363 . S
N246 C248 1.356 . S
N246 H258 0.984 . S
N246 H259 0.985 . S
N247 C249 1.356 . S
N247 H252 0.984 . S
N247 H253 0.985 . S
C248 C242 1.379 . S
C248 C245 1.363 . S
C248 N246 1.356 . S
C249 C243 1.363 . S
C249 C244 1.379 . S
C249 N247 1.356 . S
N250 C242 1.356 . S
N250 H256 0.984 . S
N250 H257 0.984 . S
N251 C244 1.356 . S
N251 H254 0.984 . S
N251 H255 0.985 . S
H252 N247 0.984 . S
H253 N247 0.985 . S
H254 N251 0.984 . S
H255 N251 0.985 . S
H256 N250 0.984 . S
H257 N250 0.984 . S
H258 N246 0.984 . S
H259 N246 0.985 . S
C260 C261 1.363 . S
C260 C266 1.379 . S
C260 N268 1.356 . S
C261 C260 1.363 . S
C261 C267 1.363 . S
C262 C263 1.363 . S
C262 C267 1.379 . S
C262 N269 1.356 . S
C263 C262 1.363 . S
C263 C266 1.363 . S
N264 C266 1.356 . S
N264 H276 0.984 . S
N264 H277 0.985 . S
N265 C267 1.356 . S
N265 H270 0.984 . S
N265 H271 0.985 . S
C266 C260 1.379 . S
C266 C263 1.363 . S
C266 N264 1.356 . S
C267 C261 1.363 . S
C267 C262 1.379 . S
C267 N265 1.356 . S
N268 C260 1.356 . S
N268 H274 0.984 . S
N268 H275 0.984 . S
N269 C262 1.356 . S
N269 H272 0.984 . S
N269 H273 0.985 . S
H270 N265 0.984 . S
H271 N265 0.985 . S
H272 N269 0.984 . S
H273 N269 0.985 . S
H274 N268 0.984 . S
H275 N268 0.984 . S
H276 N264 0.984 . S
H277 N264 0.985 . S
C278 C279 1.363 . S
C278 C284 1.379 . S
C278 N286 1.356 . S
C279 C278 1.363 . S
C279 C285 1.363 . S
C280 C281 1.363 . S
C280 C285 1.379 . S
C280 N287 1.356 . S
C281 C280 1.363 . S
C281 C284 1.363 . S
N282 C284 1.356 . S
N282 H294 0.984 . S
N282 H295 0.985 . S
N283 C285 1.356 . S
N283 H288 0.984 . S
N283 H289 0.985 . S
C284 C278 1.379 . S
C284 C281 1.363 . S
C284 N282 1.356 . S
C285 C279 1.363 . S
C285 C280 1.379 . S
C285 N283 1.356 . S
N286 C278 1.356 . S
N286 H292 0.984 . S
N286 H293 0.984 . S
N287 C280 1.356 . S
N287 H290 0.984 . S
N287 H291 0.985 . S
H288 N283 0.984 . S
H289 N283 0.985 . S
H290 N287 0.984 . S
H291 N287 0.985 . S
H292 N286 0.984 . S
H293 N286 0.984 . S
H294 N282 0.984 . S
H295 N282 0.985 . S
C296 C297 1.363 . S
C296 C302 1.379 . S
C296 N304 1.356 . S
C297 C296 1.363 . S
C297 C303 1.363 . S
C298 C299 1.363 . S
C298 C303 1.379 . S
C298 N305 1.356 . S
C299 C298 1.363 . S
C299 C302 1.363 . S
N300 C302 1.356 . S
N300 H312 0.984 . S
N300 H313 0.985 . S
N301 C303 1.356 . S
N301 H306 0.984 . S
N301 H307 0.985 . S
C302 C296 1.379 . S
C302 C299 1.363 . S
C302 N300 1.356 . S
C303 C297 1.363 . S
C303 C298 1.379 . S
C303 N301 1.356 . S
N304 C296 1.356 . S
N304 H310 0.984 . S
N304 H311 0.984 . S
N305 C298 1.356 . S
N305 H308 0.984 . S
N305 H309 0.985 . S
H306 N301 0.984 . S
H307 N301 0.985 . S
H308 N305 0.984 . S
H309 N305 0.985 . S
H310 N304 0.984 . S
H311 N304 0.984 . S
H312 N300 0.984 . S
H313 N300 0.985 . S
C314 C315 1.363 . S
C314 C320 1.379 . S
C314 N322 1.356 . S
C315 C314 1.363 . S
C315 C321 1.363 . S
C316 C317 1.363 . S
C316 C321 1.379 . S
C316 N323 1.356 . S
C317 C316 1.363 . S
C317 C320 1.363 . S
N318 C320 1.356 . S
N318 H330 0.984 . S
N318 H331 0.985 . S
N319 C321 1.356 . S
N319 H324 0.984 . S
N319 H325 0.985 . S
C320 C314 1.379 . S
C320 C317 1.363 . S
C320 N318 1.356 . S
C321 C315 1.363 . S
C321 C316 1.379 . S
C321 N319 1.356 . S
N322 C314 1.356 . S
N322 H328 0.984 . S
N322 H329 0.984 . S
N323 C316 1.356 . S
N323 H326 0.984 . S
N323 H327 0.985 . S
H324 N319 0.984 . S
H325 N319 0.985 . S
H326 N323 0.984 . S
H327 N323 0.985 . S
H328 N322 0.984 . S
H329 N322 0.984 . S
H330 N318 0.984 . S
H331 N318 0.985 . S
C332 C333 1.363 . S
C332 C338 1.379 . S
C332 N340 1.356 . S
C333 C332 1.363 . S
C333 C339 1.363 . S
C334 C335 1.363 . S
C334 C339 1.379 . S
C334 N341 1.356 . S
C335 C334 1.363 . S
C335 C338 1.363 . S
N336 C338 1.356 . S
N336 H348 0.984 . S
N336 H349 0.985 . S
N337 C339 1.356 . S
N337 H342 0.984 . S
N337 H343 0.985 . S
C338 C332 1.379 . S
C338 C335 1.363 . S
C338 N336 1.356 . S
C339 C333 1.363 . S
C339 C334 1.379 . S
C339 N337 1.356 . S
N340 C332 1.356 . S
N340 H346 0.984 . S
N340 H347 0.984 . S
N341 C334 1.356 . S
N341 H344 0.984 . S
N341 H345 0.985 . S
H342 N337 0.984 . S
H343 N337 0.985 . S
H344 N341 0.984 . S
H345 N341 0.985 . S
H346 N340 0.984 . S
H347 N340 0.984 . S
H348 N336 0.984 . S
H349 N336 0.985 . S
C350 C351 1.363 . S
C350 C356 1.379 . S
C350 N358 1.356 . S
C351 C350 1.363 . S
C351 C357 1.363 . S
C352 C353 1.363 . S
C352 C357 1.379 . S
C352 N359 1.356 . S
C353 C352 1.363 . S
C353 C356 1.363 . S
N354 C356 1.356 . S
N354 H366 0.984 . S
N354 H367 0.985 . S
N355 C357 1.356 . S
N355 H360 0.984 . S
N355 H361 0.985 . S
C356 C350 1.379 . S
C356 C353 1.363 . S
C356 N354 1.356 . S
C357 C351 1.363 . S
C357 C352 1.379 . S
C357 N355 1.356 . S
N358 C350 1.356 . S
N358 H364 0.984 . S
N358 H365 0.984 . S
N359 C352 1.356 . S
N359 H362 0.984 . S
N359 H363 0.985 . S
H360 N355 0.984 . S
H361 N355 0.985 . S
H362 N359 0.984 . S
H363 N359 0.985 . S
H364 N358 0.984 . S
H365 N358 0.984 . S
H366 N354 0.984 . S
H367 N354 0.985 . S
C368 C369 1.363 . S
C368 C374 1.379 1_556 S
C368 N376 1.356 . S
C369 C368 1.363 . S
C369 C375 1.363 . S
C370 C371 1.363 . S
C370 C375 1.379 1_554 S
C370 N377 1.356 . S
C371 C370 1.363 . S
C371 C374 1.363 . S
N372 C374 1.356 . S
N372 H384 0.984 . S
N372 H385 0.985 . S
N373 C375 1.356 . S
N373 H378 0.984 . S
N373 H379 0.985 . S
C374 C368 1.379 1_554 S
C374 C371 1.363 . S
C374 N372 1.356 . S
C375 C369 1.363 . S
C375 C370 1.379 1_556 S
C375 N373 1.356 . S
N376 C368 1.356 . S
N376 H382 0.984 . S
N376 H383 0.984 . S
N377 C370 1.356 . S
N377 H380 0.984 . S
N377 H381 0.985 . S
H378 N373 0.984 . S
H379 N373 0.985 . S
H380 N377 0.984 . S
H381 N377 0.985 . S
H382 N376 0.984 . S
H383 N376 0.984 . S
H384 N372 0.984 . S
H385 N372 0.985 . S
C386 C387 1.363 . S
C386 C392 1.379 1_556 S
C386 N394 1.356 . S
C387 C386 1.363 . S
C387 C393 1.363 . S
C388 C389 1.363 . S
C388 C393 1.379 1_554 S
C388 N395 1.356 . S
C389 C388 1.363 . S
C389 C392 1.363 . S
N390 C392 1.356 . S
N390 H402 0.984 . S
N390 H403 0.985 . S
N391 C393 1.356 . S
N391 H396 0.984 . S
N391 H397 0.985 . S
C392 C386 1.379 1_554 S
C392 C389 1.363 . S
C392 N390 1.356 . S
C393 C387 1.363 . S
C393 C388 1.379 1_556 S
C393 N391 1.356 . S
N394 C386 1.356 . S
N394 H400 0.984 . S
N394 H401 0.984 . S
N395 C388 1.356 . S
N395 H398 0.984 . S
N395 H399 0.985 . S
H396 N391 0.984 . S
H397 N391 0.985 . S
H398 N395 0.984 . S
H399 N395 0.985 . S
H400 N394 0.984 . S
H401 N394 0.984 . S
H402 N390 0.984 . S
H403 N390 0.985 . S
C404 C405 1.363 . S
C404 C410 1.379 1_556 S
C404 N412 1.356 . S
C405 C404 1.363 . S
C405 C411 1.363 . S
C406 C407 1.363 . S
C406 C411 1.379 1_554 S
C406 N413 1.356 . S
C407 C406 1.363 . S
C407 C410 1.363 . S
N408 C410 1.356 . S
N408 H420 0.984 . S
N408 H421 0.985 . S
N409 C411 1.356 . S
N409 H414 0.984 . S
N409 H415 0.985 . S
C410 C404 1.379 1_554 S
C410 C407 1.363 . S
C410 N408 1.356 . S
C411 C405 1.363 . S
C411 C406 1.379 1_556 S
C411 N409 1.356 . S
N412 C404 1.356 . S
N412 H418 0.984 . S
N412 H419 0.984 . S
N413 C406 1.356 . S
N413 H416 0.984 . S
N413 H417 0.985 . S
H414 N409 0.984 . S
H415 N409 0.985 . S
H416 N413 0.984 . S
H417 N413 0.985 . S
H418 N412 0.984 . S
H419 N412 0.984 . S
H420 N408 0.984 . S
H421 N408 0.985 . S
C422 C423 1.363 . S
C422 C428 1.379 1_554 S
C422 N430 1.356 . S
C423 C422 1.363 . S
C423 C429 1.363 . S
C424 C425 1.363 . S
C424 C429 1.379 1_556 S
C424 N431 1.356 . S
C425 C424 1.363 . S
C425 C428 1.363 . S
N426 C428 1.356 . S
N426 H438 0.984 . S
N426 H439 0.985 . S
N427 C429 1.356 . S
N427 H432 0.984 . S
N427 H433 0.985 . S
C428 C422 1.379 1_556 S
C428 C425 1.363 . S
C428 N426 1.356 . S
C429 C423 1.363 . S
C429 C424 1.379 1_554 S
C429 N427 1.356 . S
N430 C422 1.356 . S
N430 H436 0.984 . S
N430 H437 0.984 . S
N431 C424 1.356 . S
N431 H434 0.984 . S
N431 H435 0.985 . S
H432 N427 0.984 . S
H433 N427 0.985 . S
H434 N431 0.984 . S
H435 N431 0.985 . S
H436 N430 0.984 . S
H437 N430 0.984 . S
H438 N426 0.984 . S
H439 N426 0.985 . S
C440 C441 1.363 . S
C440 C446 1.379 . S
C440 N448 1.356 . S
C441 C440 1.363 . S
C441 C447 1.363 . S
C442 C443 1.363 . S
C442 C447 1.379 . S
C442 N449 1.356 . S
C443 C442 1.363 . S
C443 C446 1.363 . S
N444 C446 1.356 . S
N444 H456 0.984 . S
N444 H457 0.985 . S
N445 C447 1.356 . S
N445 H450 0.984 . S
N445 H451 0.985 . S
C446 C440 1.379 . S
C446 C443 1.363 . S
C446 N444 1.356 . S
C447 C441 1.363 . S
C447 C442 1.379 . S
C447 N445 1.356 . S
N448 C440 1.356 . S
N448 H454 0.984 . S
N448 H455 0.984 . S
N449 C442 1.356 . S
N449 H452 0.984 . S
N449 H453 0.985 . S
H450 N445 0.984 . S
H451 N445 0.985 . S
H452 N449 0.984 . S
H453 N449 0.985 . S
H454 N448 0.984 . S
H455 N448 0.984 . S
H456 N444 0.984 . S
H457 N444 0.985 . S
C458 C459 1.363 . S
C458 C464 1.379 . S
C458 N466 1.356 . S
C459 C458 1.363 . S
C459 C465 1.363 . S
C460 C461 1.363 . S
C460 C465 1.379 . S
C460 N467 1.356 . S
C461 C460 1.363 . S
C461 C464 1.363 . S
N462 C464 1.356 . S
N462 H474 0.984 . S
N462 H475 0.985 . S
N463 C465 1.356 . S
N463 H468 0.984 . S
N463 H469 0.985 . S
C464 C458 1.379 . S
C464 C461 1.363 . S
C464 N462 1.356 . S
C465 C459 1.363 . S
C465 C460 1.379 . S
C465 N463 1.356 . S
N466 C458 1.356 . S
N466 H472 0.984 . S
N466 H473 0.984 . S
N467 C460 1.356 . S
N467 H470 0.984 . S
N467 H471 0.985 . S
H468 N463 0.984 . S
H469 N463 0.985 . S
H470 N467 0.984 . S
H471 N467 0.985 . S
H472 N466 0.984 . S
H473 N466 0.984 . S
H474 N462 0.984 . S
H475 N462 0.985 . S
C476 C477 1.363 . S
C476 C482 1.379 . S
C476 N484 1.356 . S
C477 C476 1.363 . S
C477 C483 1.363 . S
C478 C479 1.363 . S
C478 C483 1.379 . S
C478 N485 1.356 . S
C479 C478 1.363 . S
C479 C482 1.363 . S
N480 C482 1.356 . S
N480 H492 0.984 . S
N480 H493 0.985 . S
N481 C483 1.356 . S
N481 H486 0.984 . S
N481 H487 0.985 . S
C482 C476 1.379 . S
C482 C479 1.363 . S
C482 N480 1.356 . S
C483 C477 1.363 . S
C483 C478 1.379 . S
C483 N481 1.356 . S
N484 C476 1.356 . S
N484 H490 0.984 . S
N484 H491 0.984 . S
N485 C478 1.356 . S
N485 H488 0.984 . S
N485 H489 0.985 . S
H486 N481 0.984 . S
H487 N481 0.985 . S
H488 N485 0.984 . S
H489 N485 0.985 . S
H490 N484 0.984 . S
H491 N484 0.984 . S
H492 N480 0.984 . S
H493 N480 0.985 . S
C494 C495 1.363 . S
C494 C500 1.379 . S
C494 N502 1.356 . S
C495 C494 1.363 . S
C495 C501 1.363 . S
C496 C497 1.363 . S
C496 C501 1.379 . S
C496 N503 1.356 . S
C497 C496 1.363 . S
C497 C500 1.363 . S
N498 C500 1.356 . S
N498 H510 0.984 . S
N498 H511 0.985 . S
N499 C501 1.356 . S
N499 H504 0.984 . S
N499 H505 0.985 . S
C500 C494 1.379 . S
C500 C497 1.363 . S
C500 N498 1.356 . S
C501 C495 1.363 . S
C501 C496 1.379 . S
C501 N499 1.356 . S
N502 C494 1.356 . S
N502 H508 0.984 . S
N502 H509 0.984 . S
N503 C496 1.356 . S
N503 H506 0.984 . S
N503 H507 0.985 . S
H504 N499 0.984 . S
H505 N499 0.985 . S
H506 N503 0.984 . S
H507 N503 0.985 . S
H508 N502 0.984 . S
H509 N502 0.984 . S
H510 N498 0.984 . S
H511 N498 0.985 . S
C512 C513 1.363 . S
C512 C518 1.379 . S
C512 N520 1.356 . S
C513 C512 1.363 . S
C513 C519 1.363 . S
C514 C515 1.363 . S
C514 C519 1.379 . S
C514 N521 1.356 . S
C515 C514 1.363 . S
C515 C518 1.363 . S
N516 C518 1.356 . S
N516 H528 0.984 . S
N516 H529 0.985 . S
N517 C519 1.356 . S
N517 H522 0.984 . S
N517 H523 0.985 . S
C518 C512 1.379 . S
C518 C515 1.363 . S
C518 N516 1.356 . S
C519 C513 1.363 . S
C519 C514 1.379 . S
C519 N517 1.356 . S
N520 C512 1.356 . S
N520 H526 0.984 . S
N520 H527 0.984 . S
N521 C514 1.356 . S
N521 H524 0.984 . S
N521 H525 0.985 . S
H522 N517 0.984 . S
H523 N517 0.985 . S
H524 N521 0.984 . S
H525 N521 0.985 . S
H526 N520 0.984 . S
H527 N520 0.984 . S
H528 N516 0.984 . S
H529 N516 0.985 . S
C530 C531 1.363 . S
C530 C536 1.379 . S
C530 N538 1.356 . S
C531 C530 1.363 . S
C531 C537 1.363 . S
C532 C533 1.363 . S
C532 C537 1.379 . S
C532 N539 1.356 . S
C533 C532 1.363 . S
C533 C536 1.363 . S
N534 C536 1.356 . S
N534 H546 0.984 . S
N534 H547 0.985 . S
N535 C537 1.356 . S
N535 H540 0.984 . S
N535 H541 0.985 . S
C536 C530 1.379 . S
C536 C533 1.363 . S
C536 N534 1.356 . S
C537 C531 1.363 . S
C537 C532 1.379 . S
C537 N535 1.356 . S
N538 C530 1.356 . S
N538 H544 0.984 . S
N538 H545 0.984 . S
N539 C532 1.356 . S
N539 H542 0.984 . S
N539 H543 0.985 . S
H540 N535 0.984 . S
H541 N535 0.985 . S
H542 N539 0.984 . S
H543 N539 0.985 . S
H544 N538 0.984 . S
H545 N538 0.984 . S
H546 N534 0.984 . S
H547 N534 0.985 . S
C548 C549 1.363 . S
C548 C554 1.379 . S
C548 N556 1.356 . S
C549 C548 1.363 . S
C549 C555 1.363 . S
C550 C551 1.363 . S
C550 C555 1.379 . S
C550 N557 1.356 . S
C551 C550 1.363 . S
C551 C554 1.363 . S
N552 C554 1.356 . S
N552 H564 0.984 . S
N552 H565 0.985 . S
N553 C555 1.356 . S
N553 H558 0.984 . S
N553 H559 0.985 . S
C554 C548 1.379 . S
C554 C551 1.363 . S
C554 N552 1.356 . S
C555 C549 1.363 . S
C555 C550 1.379 . S
C555 N553 1.356 . S
N556 C548 1.356 . S
N556 H562 0.984 . S
N556 H563 0.984 . S
N557 C550 1.356 . S
N557 H560 0.984 . S
N557 H561 0.985 . S
H558 N553 0.984 . S
H559 N553 0.985 . S
H560 N557 0.984 . S
H561 N557 0.985 . S
H562 N556 0.984 . S
H563 N556 0.984 . S
H564 N552 0.984 . S
H565 N552 0.985 . S
C566 C567 1.363 . S
C566 C572 1.379 . S
C566 N574 1.356 . S
C567 C566 1.363 . S
C567 C573 1.363 . S
C568 C569 1.363 . S
C568 C573 1.379 . S
C568 N575 1.356 . S
C569 C568 1.363 . S
C569 C572 1.363 . S
N570 C572 1.356 . S
N570 H582 0.984 . S
N570 H583 0.985 . S
N571 C573 1.356 . S
N571 H576 0.984 . S
N571 H577 0.985 . S
C572 C566 1.379 . S
C572 C569 1.363 . S
C572 N570 1.356 . S
C573 C567 1.363 . S
C573 C568 1.379 . S
C573 N571 1.356 . S
N574 C566 1.356 . S
N574 H580 0.984 . S
N574 H581 0.984 . S
N575 C568 1.356 . S
N575 H578 0.984 . S
N575 H579 0.985 . S
H576 N571 0.984 . S
H577 N571 0.985 . S
H578 N575 0.984 . S
H579 N575 0.985 . S
H580 N574 0.984 . S
H581 N574 0.984 . S
H582 N570 0.984 . S
H583 N570 0.985 . S
C584 C585 1.363 . S
C584 C590 1.379 . S
C584 N592 1.356 . S
C585 C584 1.363 . S
C585 C591 1.363 . S
C586 C587 1.363 . S
C586 C591 1.379 . S
C586 N593 1.356 . S
C587 C586 1.363 . S
C587 C590 1.363 . S
N588 C590 1.356 . S
N588 H600 0.984 . S
N588 H601 0.985 . S
N589 C591 1.356 . S
N589 H594 0.984 . S
N589 H595 0.985 . S
C590 C584 1.379 . S
C590 C587 1.363 . S
C590 N588 1.356 . S
C591 C585 1.363 . S
C591 C586 1.379 . S
C591 N589 1.356 . S
N592 C584 1.356 . S
N592 H598 0.984 . S
N592 H599 0.984 . S
N593 C586 1.356 . S
N593 H596 0.984 . S
N593 H597 0.985 . S
H594 N589 0.984 . S
H595 N589 0.985 . S
H596 N593 0.984 . S
H597 N593 0.985 . S
H598 N592 0.984 . S
H599 N592 0.984 . S
H600 N588 0.984 . S
H601 N588 0.985 . S
C602 C603 1.363 . S
C602 C608 1.379 . S
C602 N610 1.356 . S
C603 C602 1.363 . S
C603 C609 1.363 . S
C604 C605 1.363 . S
C604 C609 1.379 . S
C604 N611 1.356 . S
C605 C604 1.363 . S
C605 C608 1.363 . S
N606 C608 1.356 . S
N606 H618 0.984 . S
N606 H619 0.985 . S
N607 C609 1.356 . S
N607 H612 0.984 . S
N607 H613 0.985 . S
C608 C602 1.379 . S
C608 C605 1.363 . S
C608 N606 1.356 . S
C609 C603 1.363 . S
C609 C604 1.379 . S
C609 N607 1.356 . S
N610 C602 1.356 . S
N610 H616 0.984 . S
N610 H617 0.984 . S
N611 C604 1.356 . S
N611 H614 0.984 . S
N611 H615 0.985 . S
H612 N607 0.984 . S
H613 N607 0.985 . S
H614 N611 0.984 . S
H615 N611 0.985 . S
H616 N610 0.984 . S
H617 N610 0.984 . S
H618 N606 0.984 . S
H619 N606 0.985 . S
C620 C621 1.363 . S
C620 C626 1.379 . S
C620 N628 1.356 . S
C621 C620 1.363 . S
C621 C627 1.363 . S
C622 C623 1.363 . S
C622 C627 1.379 . S
C622 N629 1.356 . S
C623 C622 1.363 . S
C623 C626 1.363 . S
N624 C626 1.356 . S
N624 H636 0.984 . S
N624 H637 0.985 . S
N625 C627 1.356 . S
N625 H630 0.984 . S
N625 H631 0.985 . S
C626 C620 1.379 . S
C626 C623 1.363 . S
C626 N624 1.356 . S
C627 C621 1.363 . S
C627 C622 1.379 . S
C627 N625 1.356 . S
N628 C620 1.356 . S
N628 H634 0.984 . S
N628 H635 0.984 . S
N629 C622 1.356 . S
N629 H632 0.984 . S
N629 H633 0.985 . S
H630 N625 0.984 . S
H631 N625 0.985 . S
H632 N629 0.984 . S
H633 N629 0.985 . S
H634 N628 0.984 . S
H635 N628 0.984 . S
H636 N624 0.984 . S
H637 N624 0.985 . S
C638 C639 1.363 . S
C638 C644 1.379 . S
C638 N646 1.356 . S
C639 C638 1.363 . S
C639 C645 1.363 . S
C640 C641 1.363 . S
C640 C645 1.379 . S
C640 N647 1.356 . S
C641 C640 1.363 . S
C641 C644 1.363 . S
N642 C644 1.356 . S
N642 H654 0.984 . S
N642 H655 0.985 . S
N643 C645 1.356 . S
N643 H648 0.984 . S
N643 H649 0.985 . S
C644 C638 1.379 . S
C644 C641 1.363 . S
C644 N642 1.356 . S
C645 C639 1.363 . S
C645 C640 1.379 . S
C645 N643 1.356 . S
N646 C638 1.356 . S
N646 H652 0.984 . S
N646 H653 0.984 . S
N647 C640 1.356 . S
N647 H650 0.984 . S
N647 H651 0.985 . S
H648 N643 0.984 . S
H649 N643 0.985 . S
H650 N647 0.984 . S
H651 N647 0.985 . S
H652 N646 0.984 . S
H653 N646 0.984 . S
H654 N642 0.984 . S
H655 N642 0.985 . S
C656 C657 1.363 . S
C656 C662 1.379 1_545 S
C656 N664 1.356 . S
C657 C656 1.363 . S
C657 C663 1.363 . S
C658 C659 1.363 . S
C658 C663 1.379 1_565 S
C658 N665 1.356 . S
C659 C658 1.363 . S
C659 C662 1.363 . S
N660 C662 1.356 . S
N660 H672 0.984 . S
N660 H673 0.985 . S
N661 C663 1.356 . S
N661 H666 0.984 . S
N661 H667 0.985 . S
C662 C656 1.379 1_565 S
C662 C659 1.363 . S
C662 N660 1.356 . S
C663 C657 1.363 . S
C663 C658 1.379 1_545 S
C663 N661 1.356 . S
N664 C656 1.356 . S
N664 H670 0.984 . S
N664 H671 0.984 . S
N665 C658 1.356 . S
N665 H668 0.984 . S
N665 H669 0.985 . S
H666 N661 0.984 . S
H667 N661 0.985 . S
H668 N665 0.984 . S
H669 N665 0.985 . S
H670 N664 0.984 . S
H671 N664 0.984 . S
H672 N660 0.984 . S
H673 N660 0.985 . S
C674 C675 1.363 . S
C674 C680 1.379 1_655 S
C674 N682 1.356 . S
C675 C674 1.363 . S
C675 C681 1.363 . S
C676 C677 1.363 . S
C676 C681 1.379 1_455 S
C676 N683 1.356 . S
C677 C676 1.363 . S
C677 C680 1.363 . S
N678 C680 1.356 . S
N678 H690 0.984 . S
N678 H691 0.985 . S
N679 C681 1.356 . S
N679 H684 0.984 . S
N679 H685 0.985 . S
C680 C674 1.379 1_455 S
C680 C677 1.363 . S
C680 N678 1.356 . S
C681 C675 1.363 . S
C681 C676 1.379 1_655 S
C681 N679 1.356 . S
N682 C674 1.356 . S
N682 H688 0.984 . S
N682 H689 0.984 . S
N683 C676 1.356 . S
N683 H686 0.984 . S
N683 H687 0.985 . S
H684 N679 0.984 . S
H685 N679 0.985 . S
H686 N683 0.984 . S
H687 N683 0.985 . S
H688 N682 0.984 . S
H689 N682 0.984 . S
H690 N678 0.984 . S
H691 N678 0.985 . S
C692 C693 1.363 . S
C692 C698 1.379 1_545 S
C692 N700 1.356 . S
C693 C692 1.363 . S
C693 C699 1.363 . S
C694 C695 1.363 . S
C694 C699 1.379 1_565 S
C694 N701 1.356 . S
C695 C694 1.363 . S
C695 C698 1.363 . S
N696 C698 1.356 . S
N696 H708 0.984 . S
N696 H709 0.985 . S
N697 C699 1.356 . S
N697 H702 0.984 . S
N697 H703 0.985 . S
C698 C692 1.379 1_565 S
C698 C695 1.363 . S
C698 N696 1.356 . S
C699 C693 1.363 . S
C699 C694 1.379 1_545 S
C699 N697 1.356 . S
N700 C692 1.356 . S
N700 H706 0.984 . S
N700 H707 0.984 . S
N701 C694 1.356 . S
N701 H704 0.984 . S
N701 H705 0.985 . S
H702 N697 0.984 . S
H703 N697 0.985 . S
H704 N701 0.984 . S
H705 N701 0.985 . S
H706 N700 0.984 . S
H707 N700 0.984 . S
H708 N696 0.984 . S
H709 N696 0.985 . S
C710 C711 1.363 . S
C710 C716 1.379 1_455 S
C710 N718 1.356 . S
C711 C710 1.363 . S
C711 C717 1.363 . S
C712 C713 1.363 . S
C712 C717 1.379 1_655 S
C712 N719 1.356 . S
C713 C712 1.363 . S
C713 C716 1.363 . S
N714 C716 1.356 . S
N714 H726 0.984 . S
N714 H727 0.985 . S
N715 C717 1.356 . S
N715 H720 0.984 . S
N715 H721 0.985 . S
C716 C710 1.379 1_655 S
C716 C713 1.363 . S
C716 N714 1.356 . S
C717 C711 1.363 . S
C717 C712 1.379 1_455 S
C717 N715 1.356 . S
N718 C710 1.356 . S
N718 H724 0.984 . S
N718 H725 0.984 . S
N719 C712 1.356 . S
N719 H722 0.984 . S
N719 H723 0.985 . S
H720 N715 0.984 . S
H721 N715 0.985 . S
H722 N719 0.984 . S
H723 N719 0.985 . S
H724 N718 0.984 . S
H725 N718 0.984 . S
H726 N714 0.984 . S
H727 N714 0.985 . S
C728 C729 1.363 . S
C728 C734 1.397 . S
C728 N736 1.356 . S
C729 C728 1.363 . S
C729 C735 1.344 1_545 S
C730 C731 1.363 . S
C730 C735 1.397 . S
C730 N737 1.356 . S
C731 C730 1.363 . S
C731 C734 1.344 1_565 S
N732 C734 1.351 1_565 S
N732 H744 0.984 1_565 S
N732 H745 0.985 . S
N733 C735 1.351 1_545 S
N733 H738 0.984 . S
N733 H739 0.985 1_545 S
C734 C728 1.397 . S
C734 C731 1.344 1_545 S
C734 N732 1.351 1_545 S
C735 C729 1.344 1_565 S
C735 C730 1.397 . S
C735 N733 1.351 1_565 S
N736 C728 1.356 . S
N736 H742 0.984 . S
N736 H743 0.984 . S
N737 C730 1.356 . S
N737 H740 0.984 . S
N737 H741 0.985 . S
H738 N733 0.984 . S
H739 N733 0.985 1_565 S
H740 N737 0.984 . S
H741 N737 0.985 . S
H742 N736 0.984 . S
H743 N736 0.984 . S
H744 N732 0.984 1_545 S
H745 N732 0.985 . S
C746 C747 1.363 . S
C746 C752 1.379 1_655 S
C746 N754 1.356 . S
C747 C746 1.363 . S
C747 C753 1.363 . S
C748 C749 1.363 . S
C748 C753 1.379 1_455 S
C748 N755 1.356 . S
C749 C748 1.363 . S
C749 C752 1.363 . S
N750 C752 1.356 . S
N750 H762 0.984 . S
N750 H763 0.985 . S
N751 C753 1.356 . S
N751 H756 0.984 . S
N751 H757 0.985 . S
C752 C746 1.379 1_455 S
C752 C749 1.363 . S
C752 N750 1.356 . S
C753 C747 1.363 . S
C753 C748 1.379 1_655 S
C753 N751 1.356 . S
N754 C746 1.356 . S
N754 H760 0.984 . S
N754 H761 0.984 . S
N755 C748 1.356 . S
N755 H758 0.984 . S
N755 H759 0.985 . S
H756 N751 0.984 . S
H757 N751 0.985 . S
H758 N755 0.984 . S
H759 N755 0.985 . S
H760 N754 0.984 . S
H761 N754 0.984 . S
H762 N750 0.984 . S
H763 N750 0.985 . S
C764 C765 1.363 . S
C764 C770 1.379 1_565 S
C764 N772 1.356 . S
C765 C764 1.363 . S
C765 C771 1.363 . S
C766 C767 1.363 . S
C766 C771 1.379 1_545 S
C766 N773 1.356 . S
C767 C766 1.363 . S
C767 C770 1.363 . S
N768 C770 1.356 . S
N768 H780 0.984 . S
N768 H781 0.985 . S
N769 C771 1.356 . S
N769 H774 0.984 . S
N769 H775 0.985 . S
C770 C764 1.379 1_545 S
C770 C767 1.363 . S
C770 N768 1.356 . S
C771 C765 1.363 . S
C771 C766 1.379 1_565 S
C771 N769 1.356 . S
N772 C764 1.356 . S
N772 H778 0.984 . S
N772 H779 0.984 . S
N773 C766 1.356 . S
N773 H776 0.984 . S
N773 H777 0.985 . S
H774 N769 0.984 . S
H775 N769 0.985 . S
H776 N773 0.984 . S
H777 N773 0.985 . S
H778 N772 0.984 . S
H779 N772 0.984 . S
H780 N768 0.984 . S
H781 N768 0.985 . S
C782 C783 1.363 . S
C782 C788 1.379 1_455 S
C782 N790 1.356 . S
C783 C782 1.363 . S
C783 C789 1.363 . S
C784 C785 1.363 . S
C784 C789 1.379 1_655 S
C784 N791 1.356 . S
C785 C784 1.363 . S
C785 C788 1.363 . S
N786 C788 1.356 . S
N786 H798 0.984 . S
N786 H799 0.985 . S
N787 C789 1.356 . S
N787 H792 0.984 . S
N787 H793 0.985 . S
C788 C782 1.379 1_655 S
C788 C785 1.363 . S
C788 N786 1.356 . S
C789 C783 1.363 . S
C789 C784 1.379 1_455 S
C789 N787 1.356 . S
N790 C782 1.356 . S
N790 H796 0.984 . S
N790 H797 0.984 . S
N791 C784 1.356 . S
N791 H794 0.984 . S
N791 H795 0.985 . S
H792 N787 0.984 . S
H793 N787 0.985 . S
H794 N791 0.984 . S
H795 N791 0.985 . S
H796 N790 0.984 . S
H797 N790 0.984 . S
H798 N786 0.984 . S
H799 N786 0.985 . S
C225 C76 1.558 . S
C227 C6 1.558 . S
C243 C90 1.558 . S
C245 C20 1.558 . S
C261 C34 1.558 . S
C263 C104 1.558 . S
C279 C48 1.558 . S
C281 C62 1.558 . S
C297 C188 1.558 . S
C299 C118 1.558 . S
C315 C202 1.558 . S
C317 C132 1.558 . S
C333 C146 1.558 . S
C335 C216 1.558 . S
C351 C160 1.558 . S
C353 C174 1.558 . S
C369 C147 1.493 . S
C371 C7 1.493 . S
C387 C161 1.493 . S
C389 C21 1.493 . S
C405 C119 1.493 . S
C407 C35 1.493 . S
C423 C49 1.493 . S
C425 C133 1.493 . S
C441 C203 1.493 . S
C443 C63 1.493 . S
C459 C217 1.493 . S
C461 C77 1.493 . S
C477 C91 1.493 . S
C479 C175 1.493 . S
C495 C189 1.493 . S
C497 C105 1.493 . S
C513 C64 0.763 . S
C515 C8 0.763 . S
C531 C22 0.763 . S
C533 C78 0.763 . S
C549 C36 0.763 . S
C551 C92 0.763 . S
C567 C106 0.763 . S
C569 C50 0.763 . S
C585 C121 2.166 . S
C587 C177 2.166 . S
C603 C191 2.166 . S
C605 C135 2.166 . S
C621 C149 2.166 . S
C623 C205 2.166 . S
C639 C219 2.166 . S
C641 C163 2.166 . S
C657 C162 0.763 . S
C659 C190 0.763 . S
C675 C120 0.763 . S
C677 C204 0.763 . S
C693 C218 0.763 . S
C695 C134 0.763 . S
C711 C148 0.763 . S
C713 C176 0.763 . S
C729 C79 2.166 . S
C731 C51 2.166 . S
C747 C93 2.166 . S
C749 C9 2.166 . S
C765 C107 2.166 . S
C767 C23 2.166 . S
C783 C65 2.166 . S
C785 C37 2.166 . S
