# Generated by pormake.
# Topology umb, (4)-cn, num edge types: 1
# Building blocks:
#     Node 0, Type 0, BuildingBlock: QUQFOY_clean_sbu_1, # of connection points: 4
#     Node 1, Type 0, BuildingBlock: QUQFOY_clean_sbu_1, # of connection points: 4
#     Node 2, Type 0, BuildingBlock: QUQFOY_clean_sbu_1, # of connection points: 4
#     Node 3, Type 0, BuildingBlock: QUQFOY_clean_sbu_1, # of connection points: 4
#     Node 4, Type 0, BuildingBlock: QUQFOY_clean_sbu_1, # of connection points: 4
#     Node 5, Type 0, BuildingBlock: QUQFOY_clean_sbu_1, # of connection points: 4
#     Node 6, Type 0, BuildingBlock: QUQFOY_clean_sbu_1, # of connection points: 4
#     Node 7, Type 0, BuildingBlock: QUQFOY_clean_sbu_1, # of connection points: 4
#     Node 8, Type 0, BuildingBlock: QUQFOY_clean_sbu_1, # of connection points: 4
#     Node 9, Type 0, BuildingBlock: QUQFOY_clean_sbu_1, # of connection points: 4
#     Node 10, Type 0, BuildingBlock: QUQFOY_clean_sbu_1, # of connection points: 4
#     Node 11, Type 0, BuildingBlock: QUQFOY_clean_sbu_1, # of connection points: 4
#     Edge 12, Type (0, 0), BuildingBlock: UVAHIK_clean_linker_0, # of connection points: 2
#     Edge 13, Type (0, 0), BuildingBlock: UVAHIK_clean_linker_0, # of connection points: 2
#     Edge 14, Type (0, 0), BuildingBlock: UVAHIK_clean_linker_0, # of connection points: 2
#     Edge 15, Type (0, 0), BuildingBlock: UVAHIK_clean_linker_0, # of connection points: 2
#     Edge 16, Type (0, 0), BuildingBlock: UVAHIK_clean_linker_0, # of connection points: 2
#     Edge 17, Type (0, 0), BuildingBlock: UVAHIK_clean_linker_0, # of connection points: 2
#     Edge 18, Type (0, 0), BuildingBlock: UVAHIK_clean_linker_0, # of connection points: 2
#     Edge 19, Type (0, 0), BuildingBlock: UVAHIK_clean_linker_0, # of connection points: 2
#     Edge 20, Type (0, 0), BuildingBlock: UVAHIK_clean_linker_0, # of connection points: 2
#     Edge 21, Type (0, 0), BuildingBlock: UVAHIK_clean_linker_0, # of connection points: 2
#     Edge 22, Type (0, 0), BuildingBlock: UVAHIK_clean_linker_0, # of connection points: 2
#     Edge 23, Type (0, 0), BuildingBlock: UVAHIK_clean_linker_0, # of connection points: 2
#     Edge 24, Type (0, 0), BuildingBlock: UVAHIK_clean_linker_0, # of connection points: 2
#     Edge 25, Type (0, 0), BuildingBlock: UVAHIK_clean_linker_0, # of connection points: 2
#     Edge 26, Type (0, 0), BuildingBlock: UVAHIK_clean_linker_0, # of connection points: 2
#     Edge 27, Type (0, 0), BuildingBlock: UVAHIK_clean_linker_0, # of connection points: 2
#     Edge 28, Type (0, 0), BuildingBlock: UVAHIK_clean_linker_0, # of connection points: 2
#     Edge 29, Type (0, 0), BuildingBlock: UVAHIK_clean_linker_0, # of connection points: 2
#     Edge 30, Type (0, 0), BuildingBlock: UVAHIK_clean_linker_0, # of connection points: 2
#     Edge 31, Type (0, 0), BuildingBlock: UVAHIK_clean_linker_0, # of connection points: 2
#     Edge 32, Type (0, 0), BuildingBlock: UVAHIK_clean_linker_0, # of connection points: 2
#     Edge 33, Type (0, 0), BuildingBlock: UVAHIK_clean_linker_0, # of connection points: 2
#     Edge 34, Type (0, 0), BuildingBlock: UVAHIK_clean_linker_0, # of connection points: 2
#     Edge 35, Type (0, 0), BuildingBlock: UVAHIK_clean_linker_0, # of connection points: 2
# Relax obj value: 0.096
# Max RMSD: 0.158
# Mean RMSD: 0.158
data_MOF--net-umb--node1-QUQFOY_clean_sbu_1--edge1-UVAHIK_clean_linker_0
_symmetry_space_group_name_H-M    P1
_symmetry_Int_Tables_number       1
_symmetry_cell_setting            triclinic
loop_
_symmetry_equiv_pos_as_xyz
'x, y, z'
_cell_length_a     66.137335
_cell_length_b     66.162907
_cell_length_c     50.123331
_cell_angle_alpha  90.041391
_cell_angle_beta   89.935588
_cell_angle_gamma 120.06933
loop_
_atom_site_label
_atom_site_type_symbol
_atom_site_fract_x
_atom_site_fract_y
_atom_site_fract_z
_atom_type_partial_charge
O0 O 0.55482 0.14772 0.37173 0.0
Cd1 Cd 0.56303 0.14754 0.33209 0.0
Cd2 Cd 0.56543 0.19026 0.3328 0.0
O3 O 0.55672 0.18202 0.37291 0.0
O4 O 0.5616 0.117 0.3285 0.0
O5 O 0.53896 0.12602 0.3051 0.0
C6 C 0.54578 0.11133 0.31061 0.0
C7 C 0.54682 0.20271 0.30272 0.0
C8 C 0.55392 0.16374 0.38476 0.0
C9 C 0.6097 0.19029 0.32142 0.0
O10 O 0.60011 0.20263 0.32452 0.0
O11 O 0.59776 0.16823 0.32303 0.0
O12 O 0.55918 0.21579 0.32224 0.0
O13 O 0.54374 0.18184 0.30125 0.0
O14 O 0.3883 0.55401 0.70734 0.0
Cd15 Cd 0.39641 0.56192 0.6676 0.0
Cd16 Cd 0.35665 0.56477 0.6683 0.0
O17 O 0.35607 0.55621 0.70836 0.0
O18 O 0.4253 0.56019 0.66353 0.0
O19 O 0.39326 0.53773 0.64046 0.0
C20 C 0.41484 0.54446 0.64558 0.0
C21 C 0.32546 0.54555 0.63859 0.0
C22 C 0.37142 0.5533 0.72031 0.0
C23 C 0.40091 0.60871 0.65639 0.0
O24 O 0.37899 0.59938 0.6596 0.0
O25 O 0.41077 0.59656 0.6582 0.0
O26 O 0.3248 0.55822 0.65778 0.0
O27 O 0.34337 0.54264 0.63717 0.0
O28 O 0.82534 0.39336 0.03762 0.0
Cd29 Cd 0.82742 0.40139 0.99758 0.0
Cd30 Cd 0.78422 0.36156 0.9973 0.0
O31 O 0.79068 0.3613 0.03794 0.0
O32 O 0.85803 0.43067 0.99546 0.0
O33 O 0.8504 0.39913 0.97255 0.0
C34 C 0.86464 0.42071 0.97836 0.0
C35 C 0.77375 0.33047 0.96776 0.0
C36 C 0.80864 0.37674 0.05033 0.0
C37 C 0.78558 0.40593 0.9832 0.0
O38 O 0.77265 0.38409 0.9868 0.0
O39 O 0.80754 0.41558 0.98583 0.0
O40 O 0.75939 0.32979 0.98568 0.0
O41 O 0.79469 0.34833 0.96765 0.0
O42 O 0.42164 0.83324 0.37151 0.0
Cd43 Cd 0.41475 0.835 0.33177 0.0
Cd44 Cd 0.41061 0.79177 0.33088 0.0
O45 O 0.41827 0.79831 0.37133 0.0
O46 O 0.41893 0.86676 0.32891 0.0
O47 O 0.4399 0.85567 0.30536 0.0
C48 C 0.43479 0.87158 0.31123 0.0
C49 C 0.42915 0.77855 0.30168 0.0
C50 C 0.42146 0.81641 0.38394 0.0
C51 C 0.36759 0.79411 0.31885 0.0
O52 O 0.37645 0.78105 0.32143 0.0
O53 O 0.38012 0.81604 0.32162 0.0
O54 O 0.41556 0.76541 0.32043 0.0
O55 O 0.43329 0.79981 0.30035 0.0
O56 O 0.57818 0.431 0.70511 0.0
Cd57 Cd 0.56916 0.42394 0.66554 0.0
Cd58 Cd 0.61166 0.4263 0.66244 0.0
O59 O 0.61218 0.43226 0.70347 0.0
O60 O 0.54022 0.42572 0.66276 0.0
O61 O 0.57202 0.44849 0.63942 0.0
C62 C 0.55057 0.44191 0.64522 0.0
C63 C 0.64282 0.44681 0.63281 0.0
C64 C 0.59608 0.43287 0.71684 0.0
C65 C 0.56881 0.38047 0.64949 0.0
O66 O 0.59092 0.39208 0.65123 0.0
O67 O 0.55664 0.3899 0.65452 0.0
O68 O 0.64371 0.43373 0.65129 0.0
O69 O 0.62492 0.44977 0.63248 0.0
O70 O 0.1432 0.58323 0.04055 0.0
Cd71 Cd 0.14148 0.57323 1.00131 0.0
Cd72 Cd 0.18435 0.61237 0.99928 0.0
O73 O 0.17815 0.61482 0.03955 0.0
O74 O 0.10989 0.54523 0.99929 0.0
O75 O 0.1205 0.57636 0.97417 0.0
C76 C 0.10482 0.55544 0.98085 0.0
C77 C 0.19533 0.6423 0.96799 0.0
C78 C 0.16005 0.60029 0.05249 0.0
C79 C 0.1826 0.56707 0.98945 0.0
O80 O 0.19554 0.5891 0.99103 0.0
O81 O 0.16068 0.55757 0.99243 0.0
O82 O 0.20953 0.64348 0.98637 0.0
O83 O 0.17429 0.62461 0.96828 0.0
O84 O 0.82541 0.43005 0.34093 0.0
Cd85 Cd 0.82791 0.4238 0.38073 0.0
Cd86 Cd 0.7841 0.41848 0.38218 0.0
O87 O 0.78997 0.42546 0.34148 0.0
O88 O 0.8597 0.42793 0.38267 0.0
O89 O 0.84921 0.44919 0.40657 0.0
C90 C 0.86491 0.44387 0.40032 0.0
C91 C 0.7717 0.43764 0.41155 0.0
C92 C 0.80813 0.42906 0.32866 0.0
C93 C 0.78772 0.3764 0.39503 0.0
O94 O 0.77412 0.38464 0.39246 0.0
O95 O 0.80954 0.38936 0.39171 0.0
O96 O 0.75799 0.4236 0.39344 0.0
O97 O 0.793 0.44182 0.41212 0.0
O98 O 0.3873 0.8317 0.67518 0.0
Cd99 Cd 0.39613 0.83321 0.71481 0.0
Cd100 Cd 0.35746 0.78995 0.71574 0.0
O101 O 0.35599 0.79654 0.67537 0.0
O102 O 0.42353 0.86505 0.71809 0.0
O103 O 0.39139 0.8533 0.7418 0.0
C104 C 0.41241 0.86941 0.73611 0.0
C105 C 0.32615 0.77691 0.74557 0.0
C106 C 0.37068 0.81478 0.66277 0.0
C107 C 0.40303 0.79271 0.72722 0.0
O108 O 0.38109 0.77945 0.72487 0.0
O109 O 0.41225 0.8146 0.7244 0.0
O110 O 0.32626 0.76365 0.72675 0.0
O111 O 0.34332 0.7982 0.74656 0.0
O112 O 0.55181 0.39521 1.00801 0.0
Cd113 Cd 0.55977 0.40487 0.04737 0.0
Cd114 Cd 0.56444 0.36617 0.04865 0.0
O115 O 0.55578 0.36399 1.00831 0.0
O116 O 0.55537 0.43234 0.04987 0.0
O117 O 0.53526 0.40079 0.07452 0.0
C118 C 0.54002 0.42162 0.06815 0.0
C119 C 0.54648 0.33594 0.07993 0.0
C120 C 0.55197 0.37849 0.9957 0.0
C121 C 0.60748 0.41208 0.05874 0.0
O122 O 0.59876 0.39012 0.0568 0.0
O123 O 0.59471 0.42121 0.05617 0.0
O124 O 0.55955 0.33532 0.06117 0.0
O125 O 0.54241 0.35313 0.07995 0.0
O126 O 0.14269 0.55684 0.34519 0.0
Cd127 Cd 0.14153 0.56489 0.3847 0.0
Cd128 Cd 0.18389 0.56684 0.38554 0.0
O129 O 0.17676 0.55823 0.34538 0.0
O130 O 0.11124 0.56416 0.38682 0.0
O131 O 0.11889 0.54099 0.41114 0.0
C132 C 0.10475 0.5483 0.40481 0.0
C133 C 0.19419 0.54713 0.41649 0.0
C134 C 0.15889 0.55571 0.33283 0.0
C135 C 0.18436 0.61131 0.39637 0.0
O136 O 0.19663 0.60159 0.39377 0.0
O137 O 0.16232 0.59947 0.3942 0.0
O138 O 0.20837 0.55969 0.39779 0.0
O139 O 0.17349 0.54461 0.41665 0.0
O140 O 0.58092 0.1418 0.67616 0.0
Cd141 Cd 0.57298 0.14243 0.71582 0.0
Cd142 Cd 0.61708 0.181 0.71607 0.0
O143 O 0.6167 0.17229 0.67599 0.0
O144 O 0.54191 0.11395 0.71975 0.0
O145 O 0.57277 0.11951 0.74274 0.0
C146 C 0.5508 0.10671 0.7375 0.0
C147 C 0.64773 0.19137 0.74628 0.0
C148 C 0.59942 0.15589 0.66362 0.0
C149 C 0.5769 0.18866 0.72692 0.0
O150 O 0.5988 0.19782 0.72381 0.0
O151 O 0.56361 0.16675 0.72524 0.0
O152 O 0.64995 0.20437 0.72606 0.0
O153 O 0.62866 0.17144 0.74824 0.0
O154 O 0.41965 0.58009 1.01235 0.0
Cd155 Cd 0.41228 0.57098 0.05198 0.0
Cd156 Cd 0.40979 0.61126 0.05325 0.0
O157 O 0.41784 0.61254 1.0129 0.0
O158 O 0.41375 0.5418 0.05403 0.0
O159 O 0.43683 0.57307 0.07788 0.0
C160 C 0.42987 0.55165 0.07167 0.0
C161 C 0.42913 0.64204 0.08351 0.0
C162 C 0.42039 0.59729 1.00015 0.0
C163 C 0.36581 0.56673 0.0649 0.0
O164 O 0.37529 0.58871 0.06224 0.0
O165 O 0.37778 0.55674 0.06227 0.0
O166 O 0.4161 0.6428 0.06486 0.0
O167 O 0.43236 0.62431 0.084 0.0
C168 C 0.56513 0.18312 0.4296 0.0
C169 C 0.55366 0.16256 0.41436 0.0
C170 C 0.56967 0.1822 0.45675 0.0
C171 C 0.57447 0.14217 0.50575 0.0
H172 H 0.58059 0.18884 0.55693 0.0
C173 C 0.58252 0.13512 0.62042 0.0
C174 C 0.59889 0.1554 0.63399 0.0
C175 C 0.57844 0.1358 0.59313 0.0
C176 C 0.57917 0.17582 0.54277 0.0
H177 H 0.53639 0.12482 0.41615 0.0
H178 H 0.54304 0.12305 0.46363 0.0
H179 H 0.56802 0.19 0.51152 0.0
H180 H 0.62442 0.19212 0.62918 0.0
H181 H 0.61705 0.19334 0.58153 0.0
H182 H 0.58491 0.12761 0.53748 0.0
C183 C 0.54954 0.14003 0.45451 0.0
C184 C 0.57197 0.17647 0.51665 0.0
C185 C 0.54539 0.14099 0.42729 0.0
C186 C 0.61186 0.17613 0.61932 0.0
C187 C 0.60745 0.17691 0.5921 0.0
C188 C 0.5813 0.14132 0.53196 0.0
C189 C 0.56251 0.16064 0.46947 0.0
C190 C 0.56953 0.15966 0.49768 0.0
C191 C 0.59031 0.15688 0.57886 0.0
C192 C 0.58381 0.15817 0.55074 0.0
H193 H 0.572 0.20005 0.42019 0.0
H194 H 0.57984 0.1985 0.46734 0.0
H195 H 0.57343 0.12923 0.49173 0.0
H196 H 0.57217 0.11889 0.63115 0.0
H197 H 0.5651 0.12009 0.58349 0.0
C198 C 0.38654 0.54619 0.76305 0.0
C199 C 0.3721 0.55297 0.74992 0.0
C200 C 0.39092 0.55014 0.79042 0.0
C201 C 0.39499 0.59066 0.84245 0.0
H202 H 0.39588 0.54576 0.8913 0.0
C203 C 0.40994 0.60789 0.95628 0.0
C204 C 0.42027 0.5971 0.97053 0.0
C205 C 0.40509 0.60345 0.92901 0.0
C206 C 0.39618 0.55872 0.87789 0.0
H207 H 0.35013 0.56835 0.75559 0.0
H208 H 0.35795 0.57538 0.80338 0.0
H209 H 0.38358 0.53446 0.84529 0.0
H210 H 0.43522 0.57462 0.96684 0.0
H211 H 0.42786 0.56781 0.91919 0.0
H212 H 0.40817 0.61516 0.87467 0.0
C213 C 0.3659 0.56704 0.7924 0.0
C214 C 0.38891 0.55212 0.85152 0.0
C215 C 0.36122 0.56276 0.76508 0.0
C216 C 0.42709 0.58308 0.9565 0.0
C217 C 0.42256 0.57892 0.92919 0.0
C218 C 0.40256 0.59739 0.86874 0.0
C219 C 0.38123 0.56127 0.80522 0.0
C220 C 0.38817 0.56798 0.83352 0.0
C221 C 0.41074 0.58836 0.91522 0.0
C222 C 0.40328 0.58152 0.88688 0.0
H223 H 0.39523 0.53865 0.75197 0.0
H224 H 0.40285 0.54553 0.79971 0.0
H225 H 0.39497 0.60341 0.82891 0.0
H226 H 0.40424 0.61859 0.96651 0.0
H227 H 0.39584 0.61095 0.91914 0.0
C228 C 0.82891 0.43557 0.2849 0.0
C229 C 0.80798 0.42829 0.29902 0.0
C230 C 0.82856 0.43073 0.25766 0.0
C231 C 0.79112 0.38778 0.20774 0.0
H232 H 0.83555 0.43171 0.1569 0.0
C233 C 0.7877 0.36742 0.09439 0.0
C234 C 0.80877 0.37788 0.07995 0.0
C235 C 0.78739 0.37263 0.12146 0.0
C236 C 0.82325 0.41904 0.17088 0.0
H237 H 0.77029 0.41108 0.29519 0.0
H238 H 0.76972 0.4026 0.24759 0.0
H239 H 0.83512 0.44427 0.20247 0.0
H240 H 0.84625 0.40065 0.08318 0.0
H241 H 0.84588 0.40892 0.13043 0.0
H242 H 0.77956 0.36237 0.17642 0.0
C243 C 0.78638 0.41196 0.25772 0.0
C244 C 0.82292 0.42635 0.197 0.0
C245 C 0.78675 0.41707 0.28492 0.0
C246 C 0.82968 0.39242 0.09364 0.0
C247 C 0.82942 0.3974 0.12072 0.0
C248 C 0.79159 0.38038 0.18165 0.0
C249 C 0.80726 0.41826 0.24393 0.0
C250 C 0.80688 0.41081 0.21577 0.0
C251 C 0.8082 0.38825 0.13483 0.0
C252 C 0.80773 0.39589 0.16284 0.0
H253 H 0.84557 0.4442 0.29513 0.0
H254 H 0.84495 0.43577 0.24768 0.0
H255 H 0.77877 0.37527 0.22184 0.0
H256 H 0.77124 0.35631 0.08443 0.0
H257 H 0.77068 0.3653 0.13148 0.0
C258 C 0.41017 0.79542 0.42789 0.0
C259 C 0.42094 0.81652 0.41356 0.0
C260 C 0.40495 0.79512 0.45505 0.0
C261 C 0.39545 0.83123 0.50504 0.0
H262 H 0.39401 0.78605 0.55532 0.0
C263 C 0.38501 0.83604 0.61933 0.0
C264 C 0.37106 0.81502 0.63314 0.0
C265 C 0.38936 0.83592 0.59202 0.0
C266 C 0.39405 0.79859 0.54141 0.0
H267 H 0.4363 0.85405 0.41704 0.0
H268 H 0.42818 0.85368 0.46447 0.0
H269 H 0.40756 0.78696 0.50981 0.0
H270 H 0.34987 0.77743 0.6287 0.0
H271 H 0.35754 0.77726 0.58099 0.0
H272 H 0.38244 0.84317 0.53694 0.0
C273 C 0.42288 0.8372 0.4546 0.0
C274 C 0.40185 0.79915 0.51528 0.0
C275 C 0.42783 0.83746 0.42743 0.0
C276 C 0.36058 0.79396 0.61868 0.0
C277 C 0.36519 0.79382 0.59141 0.0
C278 C 0.38789 0.83083 0.53123 0.0
C279 C 0.41061 0.81596 0.4686 0.0
C280 C 0.40272 0.81552 0.4967 0.0
C281 C 0.38009 0.81475 0.57792 0.0
C282 C 0.3871 0.81451 0.54973 0.0
H283 H 0.40442 0.77894 0.41779 0.0
H284 H 0.39539 0.7784 0.46499 0.0
H285 H 0.39527 0.84372 0.49125 0.0
H286 H 0.39339 0.85257 0.62985 0.0
H287 H 0.40096 0.85234 0.58225 0.0
C288 C 0.56307 0.36916 0.95133 0.0
C289 C 0.55165 0.37862 0.96606 0.0
C290 C 0.56737 0.37386 0.92399 0.0
C291 C 0.55037 0.39475 0.8643 0.0
H292 H 0.61441 0.41819 0.84167 0.0
C293 C 0.58092 0.43705 0.76108 0.0
C294 C 0.59586 0.4318 0.74645 0.0
C295 C 0.57669 0.43142 0.78817 0.0
C296 C 0.59638 0.41142 0.84747 0.0
H297 H 0.5345 0.39917 0.96321 0.0
H298 H 0.54146 0.40682 0.91554 0.0
H299 H 0.60279 0.40394 0.88719 0.0
H300 H 0.61892 0.41746 0.74923 0.0
H301 H 0.61125 0.40723 0.79634 0.0
H302 H 0.54371 0.4018 0.82468 0.0
C303 C 0.5473 0.39597 0.92511 0.0
C304 C 0.58971 0.40322 0.87361 0.0
C305 C 0.5433 0.39157 0.95247 0.0
C306 C 0.6075 0.42197 0.75996 0.0
C307 C 0.60302 0.41604 0.78704 0.0
C308 C 0.55695 0.40272 0.83812 0.0
C309 C 0.56002 0.38779 0.91071 0.0
C310 C 0.56667 0.39497 0.8824 0.0
C311 C 0.587 0.42005 0.80134 0.0
C312 C 0.58012 0.41143 0.82936 0.0
H313 H 0.5699 0.35928 0.9612 0.0
H314 H 0.57696 0.36706 0.91335 0.0
H315 H 0.53243 0.38828 0.87035 0.0
H316 H 0.57178 0.44475 0.75133 0.0
H317 H 0.56483 0.43549 0.7986 0.0
C318 C 0.13758 0.54891 0.28951 0.0
C319 C 0.1585 0.55546 0.30322 0.0
C320 C 0.13776 0.55323 0.26218 0.0
C321 C 0.17539 0.57179 0.20101 0.0
H322 H 0.13251 0.59235 0.17842 0.0
C323 C 0.18105 0.61123 0.09643 0.0
C324 C 0.15993 0.60066 0.0821 0.0
C325 C 0.18123 0.60721 0.12385 0.0
C326 C 0.14454 0.58658 0.18441 0.0
H327 H 0.19594 0.5707 0.29858 0.0
H328 H 0.19637 0.57869 0.25112 0.0
H329 H 0.13192 0.58047 0.22453 0.0
H330 H 0.12232 0.57887 0.08573 0.0
H331 H 0.12262 0.5724 0.1336 0.0
H332 H 0.18825 0.57841 0.16082 0.0
C333 C 0.1797 0.56985 0.2613 0.0
C334 C 0.1441 0.57955 0.21083 0.0
C335 C 0.17947 0.56523 0.28861 0.0
C336 C 0.13889 0.58729 0.09616 0.0
C337 C 0.13905 0.58357 0.12361 0.0
C338 C 0.176 0.57908 0.17465 0.0
C339 C 0.15891 0.56455 0.24785 0.0
C340 C 0.15939 0.57186 0.2195 0.0
C341 C 0.16026 0.59287 0.1376 0.0
C342 C 0.16049 0.58643 0.16601 0.0
H343 H 0.12109 0.5412 0.30013 0.0
H344 H 0.1213 0.54821 0.25244 0.0
H345 H 0.18723 0.56573 0.20673 0.0
H346 H 0.19758 0.62148 0.08621 0.0
H347 H 0.19782 0.61486 0.13419 0.0
C348 C 0.75441 0.33652 0.40465 0.0
C349 C 0.77781 0.35094 0.39712 0.0
C350 C 0.74326 0.31255 0.39982 0.0
C351 C 0.72408 0.2608 0.38819 0.0
H352 H 0.72421 0.26021 0.31075 0.0
C353 C 0.64657 0.19041 0.33182 0.0
C354 C 0.63537 0.20176 0.32071 0.0
C355 C 0.67028 0.2031 0.33821 0.0
C356 C 0.72445 0.25979 0.33235 0.0
H357 H 0.80861 0.35135 0.38129 0.0
H358 H 0.78875 0.30954 0.37198 0.0
H359 H 0.75569 0.29303 0.33468 0.0
H360 H 0.64058 0.23439 0.30455 0.0
H361 H 0.68214 0.25641 0.31504 0.0
H362 H 0.69184 0.22845 0.38578 0.0
C363 C 0.7792 0.31677 0.38187 0.0
C364 C 0.74246 0.27848 0.34608 0.0
C365 C 0.7905 0.34068 0.3872 0.0
C366 C 0.64877 0.22529 0.31327 0.0
C367 C 0.67257 0.23783 0.31911 0.0
C368 C 0.7063 0.2419 0.37448 0.0
C369 C 0.75525 0.30275 0.38701 0.0
C370 C 0.74159 0.27979 0.37401 0.0
C371 C 0.68318 0.22711 0.33292 0.0
C372 C 0.70562 0.24202 0.34646 0.0
H373 H 0.74429 0.34394 0.41253 0.0
H374 H 0.72469 0.30211 0.40379 0.0
H375 H 0.72309 0.2615 0.40973 0.0
H376 H 0.63665 0.17225 0.33778 0.0
H377 H 0.67815 0.19455 0.34891 0.0
C378 C 0.44054 0.79409 0.71691 0.0
C379 C 0.41816 0.78231 0.72853 0.0
C380 C 0.4523 0.78204 0.71103 0.0
C381 C 0.45038 0.74311 0.67602 0.0
H382 H 0.45059 0.69353 0.71692 0.0
C383 C 0.40547 0.64794 0.64801 0.0
C384 C 0.41547 0.63433 0.65494 0.0
C385 C 0.41758 0.67193 0.65277 0.0
C386 C 0.45135 0.70766 0.70521 0.0
H387 H 0.39189 0.74977 0.74622 0.0
H388 H 0.41268 0.72888 0.73656 0.0
H389 H 0.45151 0.72645 0.74013 0.0
H390 H 0.44677 0.63536 0.66997 0.0
H391 H 0.46751 0.67723 0.67922 0.0
H392 H 0.44742 0.72293 0.64126 0.0
C393 C 0.42101 0.74729 0.73171 0.0
C394 C 0.45181 0.72641 0.71852 0.0
C395 C 0.40902 0.75917 0.73707 0.0
C396 C 0.43859 0.64542 0.66448 0.0
C397 C 0.4505 0.66935 0.66977 0.0
C398 C 0.44949 0.72415 0.66275 0.0
C399 C 0.44209 0.75827 0.71731 0.0
C400 C 0.45004 0.74359 0.70405 0.0
C401 C 0.43969 0.68257 0.66494 0.0
C402 C 0.44869 0.7057 0.67735 0.0
H403 H 0.44803 0.81198 0.71014 0.0
H404 H 0.46851 0.79079 0.69988 0.0
H405 H 0.4488 0.75607 0.66443 0.0
H406 H 0.38776 0.63986 0.64047 0.0
H407 H 0.40879 0.68176 0.64911 0.0
C408 C 0.64732 0.41834 0.06723 0.0
C409 C 0.63306 0.42724 0.05896 0.0
C410 C 0.67098 0.43002 0.06061 0.0
C411 C 0.70226 0.457 1.00278 0.0
H412 H 0.75369 0.4587 0.04167 0.0
C413 C 0.78742 0.44422 0.98905 0.0
C414 C 0.77489 0.42076 0.98071 0.0
C415 C 0.77577 0.45654 0.99403 0.0
C416 C 0.73986 0.45904 0.03047 0.0
H417 H 0.63271 0.45647 0.03973 0.0
H418 H 0.67397 0.47636 0.02729 0.0
H419 H 0.72274 0.46065 0.06606 0.0
H420 H 0.7411 0.39282 0.96773 0.0
H421 H 0.72087 0.41452 0.97585 0.0
H422 H 0.71797 0.4526 0.96748 0.0
C423 C 0.66688 0.46059 0.03919 0.0
C424 C 0.72216 0.46008 0.04446 0.0
C425 C 0.64331 0.44918 0.04634 0.0
C426 C 0.75113 0.41079 0.97439 0.0
C427 C 0.7396 0.42328 0.97885 0.0
C428 C 0.71974 0.45552 0.98884 0.0
C429 C 0.68059 0.45051 0.04521 0.0
C430 C 0.70263 0.4578 0.03082 0.0
C431 C 0.75159 0.44576 0.99009 0.0
C432 C 0.73799 0.45527 1.00275 0.0
H433 H 0.63987 0.40155 0.07712 0.0
H434 H 0.68118 0.42179 0.0653 0.0
H435 H 0.68725 0.45501 0.99183 0.0
H436 H 0.8058 0.45243 0.99401 0.0
H437 H 0.78532 0.47385 1.00269 0.0
C438 C 0.32808 0.76005 0.30986 0.0
C439 C 0.342 0.78344 0.31766 0.0
C440 C 0.30426 0.748 0.3157 0.0
C441 C 0.25259 0.72688 0.3298 0.0
H442 H 0.25436 0.7257 0.40718 0.0
C443 C 0.18425 0.64821 0.38694 0.0
C444 C 0.1959 0.63699 0.39713 0.0
C445 C 0.19673 0.67194 0.38064 0.0
C446 C 0.25329 0.72626 0.38565 0.0
H447 H 0.3416 0.81329 0.33512 0.0
H448 H 0.30006 0.79184 0.3462 0.0
H449 H 0.28601 0.75807 0.38282 0.0
H450 H 0.22899 0.64222 0.41179 0.0
H451 H 0.25068 0.68381 0.40141 0.0
H452 H 0.22075 0.69417 0.33259 0.0
C453 C 0.30755 0.78301 0.33529 0.0
C454 C 0.27129 0.74479 0.37169 0.0
C455 C 0.33129 0.79522 0.32893 0.0
C456 C 0.21964 0.6504 0.40376 0.0
C457 C 0.232 0.67422 0.39799 0.0
C458 C 0.23436 0.70858 0.34377 0.0
C459 C 0.29414 0.75906 0.32984 0.0
C460 C 0.27174 0.74449 0.34366 0.0
C461 C 0.22087 0.68486 0.3851 0.0
C462 C 0.23533 0.70748 0.37171 0.0
H463 H 0.33587 0.75062 0.30098 0.0
H464 H 0.29429 0.72946 0.31146 0.0
H465 H 0.25265 0.72631 0.3082 0.0
H466 H 0.16592 0.63833 0.38165 0.0
H467 H 0.18786 0.67984 0.37068 0.0
C468 C 0.5388 0.3408 0.66386 0.0
C469 C 0.55741 0.35503 0.6468 0.0
C470 C 0.53346 0.31791 0.66893 0.0
C471 C 0.56899 0.29045 0.67212 0.0
H472 H 0.51354 0.23827 0.70275 0.0
C473 C 0.54509 0.19659 0.7148 0.0
C474 C 0.56668 0.20391 0.72734 0.0
C475 C 0.53877 0.21298 0.70726 0.0
C476 C 0.52912 0.25274 0.6942 0.0
H477 H 0.5823 0.35578 0.61819 0.0
H478 H 0.57197 0.31531 0.62565 0.0
H479 H 0.51014 0.26812 0.67737 0.0
H480 H 0.59682 0.2332 0.7455 0.0
H481 H 0.58529 0.26167 0.73347 0.0
H482 H 0.58799 0.27525 0.68829 0.0
C483 C 0.56234 0.32208 0.63626 0.0
C484 C 0.52719 0.26977 0.67968 0.0
C485 C 0.56815 0.34515 0.63179 0.0
C486 C 0.5803 0.22723 0.73541 0.0
C487 C 0.57376 0.2435 0.72835 0.0
C488 C 0.57088 0.27354 0.68642 0.0
C489 C 0.54642 0.30896 0.65656 0.0
C490 C 0.54719 0.28893 0.66867 0.0
C491 C 0.55382 0.23678 0.71254 0.0
C492 C 0.5511 0.25473 0.69804 0.0
H493 H 0.53023 0.34809 0.6756 0.0
H494 H 0.521 0.30827 0.68456 0.0
H495 H 0.58491 0.30518 0.66457 0.0
H496 H 0.5342 0.17864 0.70844 0.0
H497 H 0.52324 0.20726 0.69524 0.0
C498 C 0.21678 0.56169 0.98102 0.0
C499 C 0.1934 0.55227 0.98889 0.0
C500 C 0.22881 0.54997 0.98698 0.0
C501 C 0.23222 0.52012 0.04282 0.0
H502 H 0.28225 0.5198 1.00285 0.0
C503 C 0.32886 0.52951 0.05596 0.0
C504 C 0.34015 0.55237 0.06631 0.0
C505 C 0.30502 0.51815 0.05017 0.0
C506 C 0.26799 0.51908 1.01428 0.0
H507 H 0.16359 0.52217 1.00677 0.0
H508 H 0.18502 0.50216 0.01801 0.0
H509 H 0.25008 0.51984 0.97902 0.0
H510 H 0.33499 0.58003 0.08183 0.0
H511 H 0.29325 0.55994 0.07231 0.0
H512 H 0.2515 0.52204 0.078 0.0
C513 C 0.19384 0.51841 1.00697 0.0
C514 C 0.24968 0.5192 1.00062 0.0
C515 C 0.18165 0.5299 1.00051 0.0
C516 C 0.32675 0.56252 0.07366 0.0
C517 C 0.30284 0.55094 0.06838 0.0
C518 C 0.25075 0.52044 0.05646 0.0
C519 C 0.21775 0.52887 1.00128 0.0
C520 C 0.23231 0.52091 1.0148 0.0
C521 C 0.29209 0.52924 0.05528 0.0
C522 C 0.26934 0.52112 0.04222 0.0
H523 H 0.22618 0.57881 0.97188 0.0
H524 H 0.24733 0.55848 0.98257 0.0
H525 H 0.2191 0.52165 0.05419 0.0
H526 H 0.33874 0.52121 0.05014 0.0
H527 H 0.29704 0.50143 0.04006 0.0
C528 C 0.55067 0.07935 0.29207 0.0
C529 C 0.53603 0.08853 0.29734 0.0
C530 C 0.54138 0.0564 0.28328 0.0
C531 C 0.48599 0.00297 0.26225 0.0
H532 H 0.51372 0.97179 0.30024 0.0
C533 C 0.43585 0.90848 0.29902 0.0
C534 C 0.44669 0.89487 0.2987 0.0
C535 C 0.4477 0.93148 0.28999 0.0
C536 C 0.50606 0.98023 0.28895 0.0
H537 H 0.50043 0.08162 0.2963 0.0
H538 H 0.48379 0.04095 0.28232 0.0
H539 H 0.53288 0.01398 0.30095 0.0
H540 H 0.47796 0.89415 0.28743 0.0
H541 H 0.49909 0.93489 0.27217 0.0
H542 H 0.45822 0.96871 0.25204 0.0
C543 C 0.50258 0.05159 0.28412 0.0
C544 C 0.51707 0.00454 0.28929 0.0
C545 C 0.51203 0.07485 0.29228 0.0
C546 C 0.46925 0.90432 0.28795 0.0
C547 C 0.4813 0.92756 0.27927 0.0
C548 C 0.47481 0.97857 0.26222 0.0
C549 C 0.5171 0.04186 0.28037 0.0
C550 C 0.50691 0.01625 0.27652 0.0
C551 C 0.47077 0.94147 0.28075 0.0
C552 C 0.48447 0.96699 0.27616 0.0
H553 H 0.56934 0.08977 0.29543 0.0
H554 H 0.55319 0.04982 0.27976 0.0
H555 H 0.47789 0.01137 0.25176 0.0
H556 H 0.41836 0.90155 0.30697 0.0
H557 H 0.43923 0.94183 0.29166 0.0
C558 C 0.45112 0.55008 0.62454 0.0
C559 C 0.42775 0.53495 0.63158 0.0
C560 C 0.46501 0.54124 0.61525 0.0
C561 C 0.46463 0.48621 0.59652 0.0
H562 H 0.52507 0.51762 0.63147 0.0
C563 C 0.51345 0.44082 0.63392 0.0
C564 C 0.53796 0.45254 0.63272 0.0
C565 C 0.50123 0.4515 0.62469 0.0
C566 C 0.50852 0.50891 0.621 0.0
H567 H 0.39999 0.49892 0.63316 0.0
H568 H 0.42455 0.48314 0.61831 0.0
H569 H 0.50075 0.53534 0.63201 0.0
H570 H 0.56889 0.48412 0.61964 0.0
H571 H 0.54742 0.50316 0.60397 0.0
H572 H 0.47207 0.45892 0.58733 0.0
C573 C 0.4321 0.50191 0.61909 0.0
C574 C 0.49449 0.51909 0.62124 0.0
C575 C 0.418 0.51087 0.62774 0.0
C576 C 0.55 0.47475 0.6209 0.0
C577 C 0.53774 0.48561 0.61197 0.0
C578 C 0.47862 0.47588 0.59657 0.0
C579 C 0.45602 0.517 0.61365 0.0
C580 C 0.47209 0.50761 0.60962 0.0
C581 C 0.51327 0.47424 0.61432 0.0
C582 C 0.50043 0.48687 0.60945 0.0
H583 H 0.45887 0.5688 0.62698 0.0
H584 H 0.48309 0.55343 0.61042 0.0
H585 H 0.4477 0.47708 0.58694 0.0
H586 H 0.50368 0.42357 0.64269 0.0
H587 H 0.48241 0.44242 0.62706 0.0
C588 C 0.89663 0.45791 0.96041 0.0
C589 C 0.88782 0.43418 0.96596 0.0
C590 C 0.91966 0.47194 0.95204 0.0
C591 C 0.97397 0.47124 0.93233 0.0
H592 H 0.00377 0.53089 0.96906 0.0
C593 C 0.06846 0.51871 0.96936 0.0
C594 C 0.08155 0.54321 0.96833 0.0
C595 C 0.04546 0.5068 0.96032 0.0
C596 C -0.0043 0.51457 0.95812 0.0
H597 H 0.89553 0.40605 0.96594 0.0
H598 H 0.93636 0.43078 0.95272 0.0
H599 H 0.96162 0.50685 0.96977 0.0
H600 H 0.08136 0.57445 0.95584 0.0
H601 H 0.0406 0.55349 0.94059 0.0
H602 H 0.00857 0.47857 0.92249 0.0
C603 C 0.92536 0.43854 0.95398 0.0
C604 C 0.97143 0.50069 0.95846 0.0
C605 C 0.90201 0.42434 0.96172 0.0
C606 C 0.07159 0.55556 0.9569 0.0
C607 C 0.04834 0.5436 0.94822 0.0
C608 C -0.00166 0.48505 0.93231 0.0
C609 C 0.93465 0.4627 0.94984 0.0
C610 C 0.96023 0.47858 0.94613 0.0
C611 C 0.03495 0.51913 0.95039 0.0
C612 C 0.00942 0.50657 0.94578 0.0
H613 H 0.88581 0.46578 0.96312 0.0
H614 H 0.92591 0.49024 0.94821 0.0
H615 H 0.96597 0.45456 0.92218 0.0
H616 H 0.07579 0.50873 0.97785 0.0
H617 H 0.0355 0.48798 0.96252 0.0
C618 C 0.06733 0.51528 0.42239 0.0
C619 C 0.08173 0.53919 0.4174 0.0
C620 C 0.04402 0.50653 0.42999 0.0
C621 C -0.00153 0.52305 0.42338 0.0
H622 H 0.96058 0.46451 0.46051 0.0
C623 C 0.89821 0.47796 0.42342 0.0
C624 C 0.88826 0.45537 0.41268 0.0
C625 C 0.92142 0.48945 0.43227 0.0
C626 C 0.97103 0.48103 0.45036 0.0
H627 H 0.08416 0.57304 0.41883 0.0
H628 H 0.0441 0.55811 0.43354 0.0
H629 H 0.00315 0.48292 0.4616 0.0
H630 H 0.89402 0.42644 0.40449 0.0
H631 H 0.93421 0.44631 0.42011 0.0
H632 H 0.96637 0.52087 0.41169 0.0
C633 C 0.05017 0.54583 0.43039 0.0
C634 C -0.00462 0.49149 0.45079 0.0
C635 C 0.07318 0.55444 0.42215 0.0
C636 C 0.90135 0.44396 0.41243 0.0
C637 C 0.92428 0.45524 0.42165 0.0
C638 C 0.97422 0.51277 0.42327 0.0
C639 C 0.03496 0.52167 0.43324 0.0
C640 C 0.00939 0.51226 0.43657 0.0
C641 C 0.93477 0.4783 0.43099 0.0
C642 C 0.96024 0.4913 0.43602 0.0
H643 H 0.07361 0.50322 0.41878 0.0
H644 H 0.03284 0.4878 0.43177 0.0
H645 H 0.0085 0.53878 0.41175 0.0
H646 H 0.88845 0.48709 0.42389 0.0
H647 H 0.92915 0.50725 0.43942 0.0
C648 C 0.51217 0.07659 0.75485 0.0
C649 C 0.53591 0.0842 0.75082 0.0
C650 C 0.497 0.05404 0.76401 0.0
C651 C 0.49422 -0.00086 0.78842 0.0
H652 H 0.43676 0.97014 0.74745 0.0
C653 C 0.44833 0.90531 0.75047 0.0
C654 C 0.42383 0.89235 0.7494 0.0
C655 C 0.45973 0.92811 0.76012 0.0
C656 C 0.45241 0.97801 0.75959 0.0
H657 H 0.56283 0.0749 0.75445 0.0
H658 H 0.53617 0.03496 0.76908 0.0
H659 H 0.46165 0.01218 0.74657 0.0
H660 H 0.39194 0.89249 0.75881 0.0
H661 H 0.41204 0.93299 0.77505 0.0
H662 H 0.48552 0.96442 0.79959 0.0
C663 C 0.52924 0.04653 0.76601 0.0
C664 C 0.46678 0.00221 0.75915 0.0
C665 C 0.54455 0.06937 0.75746 0.0
C666 C 0.41085 0.90218 0.7594 0.0
C667 C 0.42232 0.92527 0.76865 0.0
C668 C 0.47994 0.97484 0.78856 0.0
C669 C 0.50511 0.03836 0.76859 0.0
C670 C 0.48824 0.01308 0.77288 0.0
C671 C 0.44688 0.93857 0.76855 0.0
C672 C 0.45927 0.96404 0.77347 0.0
H673 H 0.50518 0.08791 0.7503 0.0
H674 H 0.47872 0.04866 0.76653 0.0
H675 H 0.51033 0.00691 0.79971 0.0
H676 H 0.45876 0.89804 0.74312 0.0
H677 H 0.47865 0.938 0.75949 0.0
C678 C 0.42504 0.51436 0.08875 0.0
C679 C 0.43969 0.5383 0.08403 0.0
C680 C 0.43432 0.50058 0.09698 0.0
C681 C 0.48964 0.50234 0.11764 0.0
H682 H 0.4617 0.44353 0.07926 0.0
C683 C 0.53925 0.45762 0.08027 0.0
C684 C 0.52833 0.43315 0.08079 0.0
C685 C 0.52755 0.46889 0.08936 0.0
C686 C 0.46942 0.45961 0.09065 0.0
H687 H 0.4753 0.56701 0.08538 0.0
H688 H 0.49191 0.54275 0.09834 0.0
H689 H 0.44273 0.46672 0.07877 0.0
H690 H 0.49707 0.40126 0.0924 0.0
H691 H 0.47617 0.42108 0.10771 0.0
H692 H 0.5173 0.49569 0.12771 0.0
C693 C 0.47313 0.53462 0.09655 0.0
C694 C 0.45852 0.47299 0.09044 0.0
C695 C 0.46369 0.54855 0.08897 0.0
C696 C 0.50584 0.42015 0.09175 0.0
C697 C 0.49392 0.43145 0.10046 0.0
C698 C 0.50072 0.48905 0.11752 0.0
C699 C 0.45859 0.51029 0.09986 0.0
C700 C 0.46875 0.49482 0.10339 0.0
C701 C 0.50454 0.45591 0.09881 0.0
C702 C 0.49097 0.46784 0.10346 0.0
H703 H 0.40637 0.50616 0.08548 0.0
H704 H 0.42248 0.48212 0.10016 0.0
H705 H 0.4978 0.5188 0.12828 0.0
H706 H 0.55668 0.46809 0.07214 0.0
H707 H 0.53607 0.48772 0.08757 0.0
C708 C 0.53436 0.20296 0.25548 0.0
C709 C 0.53861 0.21241 0.28135 0.0
C710 C 0.53041 0.21439 0.2343 0.0
C711 C 0.54087 0.27362 0.21601 0.0
H712 H 0.50603 0.24148 0.15261 0.0
C713 C 0.53168 0.32362 0.12668 0.0
C714 C 0.53847 0.31869 0.10205 0.0
C715 C 0.52765 0.30912 0.1488 0.0
C716 C 0.5158 0.25068 0.17022 0.0
H717 H 0.54047 0.24038 0.30562 0.0
H718 H 0.53239 0.25961 0.2692 0.0
H719 H 0.5057 0.21886 0.19128 0.0
H720 H 0.54508 0.29393 0.08099 0.0
H721 H 0.53756 0.2684 0.11941 0.0
H722 H 0.55077 0.30539 0.19493 0.0
C723 C 0.53308 0.24394 0.26483 0.0
C724 C 0.51575 0.23773 0.19239 0.0
C725 C 0.53746 0.23276 0.28587 0.0
C726 C 0.53989 0.29825 0.09968 0.0
C727 C 0.5355 0.28356 0.12167 0.0
C728 C 0.5406 0.28651 0.19404 0.0
C729 C 0.53023 0.23538 0.23853 0.0
C730 C 0.52859 0.249 0.21553 0.0
C731 C 0.52995 0.28916 0.14666 0.0
C732 C 0.52835 0.27522 0.17074 0.0
H733 H 0.53532 0.1874 0.25129 0.0
H734 H 0.52858 0.20726 0.21444 0.0
H735 H 0.55144 0.2831 0.23303 0.0
H736 H 0.5305 0.33926 0.12923 0.0
H737 H 0.52321 0.31378 0.16775 0.0
C738 C 0.19039 0.53139 0.46292 0.0
C739 C 0.20242 0.53803 0.43846 0.0
C740 C 0.20019 0.52655 0.48505 0.0
C741 C 0.24556 0.51296 0.50688 0.0
H742 H 0.24949 0.54916 0.56947 0.0
C743 C 0.31236 0.53224 0.59167 0.0
C744 C 0.30732 0.53677 0.61748 0.0
C745 C 0.29675 0.52788 0.57063 0.0
C746 C 0.24818 0.53843 0.55252 0.0
H747 H 0.23348 0.54336 0.41764 0.0
H748 H 0.25034 0.53453 0.4561 0.0
H749 H 0.22676 0.54878 0.5313 0.0
H750 H 0.28123 0.53856 0.64191 0.0
H751 H 0.25353 0.52981 0.60572 0.0
H752 H 0.26696 0.50255 0.52806 0.0
C753 C 0.23341 0.53319 0.45822 0.0
C754 C 0.23515 0.53831 0.53052 0.0
C755 C 0.22378 0.53834 0.43621 0.0
C756 C 0.28572 0.53537 0.62217 0.0
C757 C 0.26993 0.53059 0.60128 0.0
C758 C 0.25836 0.5128 0.52908 0.0
C759 C 0.22206 0.52791 0.48309 0.0
C760 C 0.23398 0.5259 0.50729 0.0
C761 C 0.27553 0.52758 0.575 0.0
C762 C 0.26019 0.52586 0.55211 0.0
H763 H 0.17393 0.53102 0.46535 0.0
H764 H 0.19093 0.52231 0.5039 0.0
H765 H 0.24483 0.50307 0.48932 0.0
H766 H 0.32895 0.53336 0.58738 0.0
H767 H 0.30192 0.52591 0.55075 0.0
C768 C 0.77835 0.31656 0.92271 0.0
C769 C 0.7656 0.3124 0.94652 0.0
C770 C 0.7689 0.30116 0.90109 0.0
C771 C 0.72287 0.24175 0.88086 0.0
H772 H 0.72313 0.27183 0.81447 0.0
C773 C 0.65889 0.19219 0.79426 0.0
C774 C 0.66526 0.20057 0.76807 0.0
C775 C 0.67387 0.20388 0.81568 0.0
C776 C 0.72326 0.26298 0.83257 0.0
H777 H 0.73349 0.28808 0.96678 0.0
H778 H 0.71722 0.2611 0.92926 0.0
H779 H 0.74469 0.2955 0.85254 0.0
H780 H 0.69308 0.22671 0.74358 0.0
H781 H 0.71963 0.24638 0.78057 0.0
H782 H 0.70143 0.20919 0.86093 0.0
C783 C 0.73446 0.2763 0.92724 0.0
C784 C 0.73563 0.27666 0.85451 0.0
C785 C 0.74377 0.29183 0.94872 0.0
C786 C 0.68757 0.21992 0.76356 0.0
C787 C 0.7027 0.23138 0.78488 0.0
C788 C 0.71072 0.228 0.85877 0.0
C789 C 0.74663 0.2811 0.90292 0.0
C790 C 0.7353 0.26625 0.87904 0.0
C791 C 0.69576 0.22408 0.81138 0.0
C792 C 0.71041 0.23843 0.83437 0.0
H793 H 0.79519 0.33224 0.92031 0.0
H794 H 0.7788 0.30522 0.8827 0.0
H795 H 0.72246 0.2332 0.89944 0.0
H796 H 0.64175 0.17743 0.79844 0.0
H797 H 0.66768 0.19774 0.83568 0.0
C798 C 0.44454 0.65492 0.12989 0.0
C799 C 0.43795 0.65977 0.10512 0.0
C800 C 0.44904 0.66988 0.15167 0.0
C801 C 0.46217 0.72896 0.17208 0.0
H802 H 0.4249 0.69746 0.23437 0.0
C803 C 0.44286 0.77803 0.25513 0.0
C804 C 0.43775 0.76864 0.28101 0.0
C805 C 0.44717 0.76637 0.23448 0.0
C806 C 0.43594 0.70668 0.21752 0.0
H807 H 0.43237 0.68487 0.08335 0.0
H808 H 0.4407 0.71117 0.1212 0.0
H809 H 0.42573 0.67462 0.19692 0.0
H810 H 0.43482 0.74061 0.306 0.0
H811 H 0.44356 0.72098 0.27056 0.0
H812 H 0.47254 0.76106 0.19266 0.0
C813 C 0.44222 0.69573 0.12384 0.0
C814 C 0.4363 0.69348 0.19593 0.0
C815 C 0.43736 0.68061 0.10218 0.0
C816 C 0.43847 0.74816 0.28618 0.0
C817 C 0.44324 0.73676 0.26571 0.0
C818 C 0.46213 0.74222 0.1939 0.0
C819 C 0.44743 0.69019 0.14902 0.0
C820 C 0.44911 0.70444 0.1728 0.0
C821 C 0.44687 0.74523 0.23933 0.0
C822 C 0.44869 0.73128 0.21682 0.0
H823 H 0.44509 0.63899 0.13285 0.0
H824 H 0.45321 0.66526 0.17079 0.0
H825 H 0.47235 0.73789 0.15457 0.0
H826 H 0.44226 0.79371 0.25047 0.0
H827 H 0.44961 0.77344 0.21451 0.0
C828 C 0.68109 0.45477 0.6134 0.0
C829 C 0.66025 0.45544 0.61086 0.0
C830 C 0.69556 0.45873 0.59128 0.0
C831 C 0.69074 0.44976 0.51961 0.0
H832 H 0.75844 0.48514 0.51957 0.0
C833 C 0.7418 0.44743 0.4278 0.0
C834 C 0.76244 0.44683 0.43233 0.0
C835 C 0.7312 0.45304 0.44845 0.0
C836 C 0.73955 0.47494 0.51927 0.0
H837 H 0.63888 0.46191 0.58331 0.0
H838 H 0.66401 0.46849 0.5446 0.0
H839 H 0.73686 0.48701 0.5582 0.0
H840 H 0.78856 0.45233 0.46191 0.0
H841 H 0.76968 0.46116 0.49821 0.0
H842 H 0.69309 0.43655 0.48163 0.0
C843 C 0.66913 0.46495 0.56376 0.0
C844 C 0.7272 0.47617 0.54139 0.0
C845 C 0.65484 0.46135 0.58599 0.0
C846 C 0.77274 0.45282 0.45774 0.0
C847 C 0.76189 0.45798 0.47858 0.0
C848 C 0.70304 0.44822 0.49773 0.0
C849 C 0.68934 0.46309 0.56603 0.0
C850 C 0.70265 0.46348 0.54186 0.0
C851 C 0.74065 0.45767 0.47441 0.0
C852 C 0.72766 0.46064 0.49723 0.0
H853 H 0.68576 0.45025 0.63227 0.0
H854 H 0.71095 0.45707 0.59364 0.0
H855 H 0.67184 0.43944 0.51955 0.0
H856 H 0.73354 0.4431 0.40836 0.0
H857 H 0.71531 0.4533 0.44407 0.0
C858 C 0.22523 0.68055 0.94815 0.0
C859 C 0.20375 0.65959 0.94594 0.0
C860 C 0.23491 0.69538 0.92614 0.0
C861 C 0.23681 0.69234 0.85395 0.0
H862 H 0.26756 0.75991 0.85634 0.0
C863 C 0.28683 0.74641 0.76217 0.0
C864 C 0.30807 0.76708 0.76674 0.0
C865 C 0.27116 0.73509 0.78311 0.0
C866 C 0.25929 0.74108 0.85534 0.0
H867 H 0.17518 0.63824 0.91913 0.0
H868 H 0.19232 0.66398 0.88056 0.0
H869 H 0.24568 0.737 0.89513 0.0
H870 H 0.32919 0.79256 0.7967 0.0
H871 H 0.30244 0.77244 0.83344 0.0
H872 H 0.25128 0.69609 0.81501 0.0
C873 C 0.20158 0.66893 0.89939 0.0
C874 C 0.24662 0.72796 0.87756 0.0
C875 C 0.19171 0.65427 0.92152 0.0
C876 C 0.31287 0.77674 0.7925 0.0
C877 C 0.29741 0.76516 0.8136 0.0
C878 C 0.24975 0.7054 0.83194 0.0
C879 C 0.22351 0.68941 0.90132 0.0
C880 C 0.23538 0.70345 0.87716 0.0
C881 C 0.27655 0.74384 0.80935 0.0
C882 C 0.26138 0.73 0.83231 0.0
H883 H 0.23493 0.68517 0.96669 0.0
H884 H 0.25188 0.71095 0.92822 0.0
H885 H 0.22868 0.67349 0.85319 0.0
H886 H 0.28253 0.73865 0.74246 0.0
H887 H 0.25502 0.71915 0.77873 0.0
loop_
_geom_bond_atom_site_label_1
_geom_bond_atom_site_label_2
_geom_bond_distance
_geom_bond_site_symmetry_2
_ccdc_geom_bond_type
O0 Cd1 2.223 . S
O0 C8 1.315 . S
Cd1 O0 2.223 . S
Cd1 O4 2.297 . S
Cd1 O5 2.439 . S
Cd1 O11 2.240 . S
Cd2 O3 2.240 . S
Cd2 O10 2.223 . S
Cd2 O12 2.297 . S
Cd2 O13 2.439 . S
O3 Cd2 2.240 . S
O3 C8 1.279 . S
O4 Cd1 2.297 . S
O4 C6 1.247 . S
O5 Cd1 2.439 . S
O5 C6 1.208 . S
C6 O4 1.247 . S
C6 O5 1.208 . S
C7 O12 1.247 . S
C7 O13 1.208 . S
C8 O0 1.315 . S
C8 O3 1.279 . S
C9 O10 1.315 . S
C9 O11 1.279 . S
O10 Cd2 2.223 . S
O10 C9 1.315 . S
O11 Cd1 2.240 . S
O11 C9 1.279 . S
O12 Cd2 2.297 . S
O12 C7 1.247 . S
O13 Cd2 2.439 . S
O13 C7 1.208 . S
O14 Cd15 2.223 . S
O14 C22 1.315 . S
Cd15 O14 2.223 . S
Cd15 O18 2.297 . S
Cd15 O19 2.439 . S
Cd15 O25 2.240 . S
Cd16 O17 2.240 . S
Cd16 O24 2.223 . S
Cd16 O26 2.297 . S
Cd16 O27 2.439 . S
O17 Cd16 2.240 . S
O17 C22 1.279 . S
O18 Cd15 2.297 . S
O18 C20 1.247 . S
O19 Cd15 2.439 . S
O19 C20 1.208 . S
C20 O18 1.247 . S
C20 O19 1.208 . S
C21 O26 1.247 . S
C21 O27 1.208 . S
C22 O14 1.315 . S
C22 O17 1.279 . S
C23 O24 1.315 . S
C23 O25 1.279 . S
O24 Cd16 2.223 . S
O24 C23 1.315 . S
O25 Cd15 2.240 . S
O25 C23 1.279 . S
O26 Cd16 2.297 . S
O26 C21 1.247 . S
O27 Cd16 2.439 . S
O27 C21 1.208 . S
O28 Cd29 2.223 1_554 S
O28 C36 1.315 . S
Cd29 O28 2.223 1_556 S
Cd29 O32 2.297 1_556 S
Cd29 O33 2.439 . S
Cd29 O39 2.240 . S
Cd30 O31 2.228 1_556 S
Cd30 O38 2.219 1_556 S
Cd30 O40 2.313 . S
Cd30 O41 2.457 . S
O31 Cd30 2.228 1_554 S
O31 C36 1.279 . S
O32 Cd29 2.297 1_554 S
O32 C34 1.247 1_554 S
O33 Cd29 2.439 . S
O33 C34 1.208 . S
C34 O32 1.247 1_556 S
C34 O33 1.208 . S
C35 O40 1.247 . S
C35 O41 1.208 . S
C36 O28 1.315 . S
C36 O31 1.279 . S
C37 O38 1.315 1_556 S
C37 O39 1.279 . S
O38 Cd30 2.219 1_554 S
O38 C37 1.315 1_554 S
O39 Cd29 2.240 . S
O39 C37 1.279 . S
O40 Cd30 2.313 . S
O40 C35 1.247 . S
O41 Cd30 2.457 . S
O41 C35 1.208 . S
O42 Cd43 2.223 . S
O42 C50 1.315 . S
Cd43 O42 2.223 . S
Cd43 O46 2.297 . S
Cd43 O47 2.439 . S
Cd43 O53 2.240 . S
Cd44 O45 2.240 . S
Cd44 O52 2.223 . S
Cd44 O54 2.297 . S
Cd44 O55 2.439 . S
O45 Cd44 2.240 . S
O45 C50 1.279 . S
O46 Cd43 2.297 . S
O46 C48 1.247 . S
O47 Cd43 2.439 . S
O47 C48 1.208 . S
C48 O46 1.247 . S
C48 O47 1.208 . S
C49 O54 1.247 . S
C49 O55 1.208 . S
C50 O42 1.315 . S
C50 O45 1.279 . S
C51 O52 1.315 . S
C51 O53 1.279 . S
O52 Cd44 2.223 . S
O52 C51 1.315 . S
O53 Cd43 2.240 . S
O53 C51 1.279 . S
O54 Cd44 2.297 . S
O54 C49 1.247 . S
O55 Cd44 2.439 . S
O55 C49 1.208 . S
O56 Cd57 2.223 . S
O56 C64 1.315 . S
Cd57 O56 2.223 . S
Cd57 O60 2.297 . S
Cd57 O61 2.439 . S
Cd57 O67 2.240 . S
Cd58 O59 2.240 . S
Cd58 O66 2.223 . S
Cd58 O68 2.297 . S
Cd58 O69 2.439 . S
O59 Cd58 2.240 . S
O59 C64 1.279 . S
O60 Cd57 2.297 . S
O60 C62 1.247 . S
O61 Cd57 2.439 . S
O61 C62 1.208 . S
C62 O60 1.247 . S
C62 O61 1.208 . S
C63 O68 1.247 . S
C63 O69 1.208 . S
C64 O56 1.315 . S
C64 O59 1.279 . S
C65 O66 1.315 . S
C65 O67 1.279 . S
O66 Cd58 2.223 . S
O66 C65 1.315 . S
O67 Cd57 2.240 . S
O67 C65 1.279 . S
O68 Cd58 2.297 . S
O68 C63 1.247 . S
O69 Cd58 2.439 . S
O69 C63 1.208 . S
O70 Cd71 2.223 1_554 S
O70 C78 1.315 . S
Cd71 O70 2.223 1_556 S
Cd71 O74 2.297 1_556 S
Cd71 O75 2.439 . S
Cd71 O81 2.240 . S
Cd72 O73 2.228 1_556 S
Cd72 O80 2.219 1_556 S
Cd72 O82 2.313 . S
Cd72 O83 2.457 . S
O73 Cd72 2.228 1_554 S
O73 C78 1.279 . S
O74 Cd71 2.297 1_554 S
O74 C76 1.247 1_554 S
O75 Cd71 2.439 . S
O75 C76 1.208 . S
C76 O74 1.247 1_556 S
C76 O75 1.208 . S
C77 O82 1.247 . S
C77 O83 1.208 . S
C78 O70 1.315 . S
C78 O73 1.279 . S
C79 O80 1.315 1_556 S
C79 O81 1.279 . S
O80 Cd72 2.219 1_554 S
O80 C79 1.315 1_554 S
O81 Cd71 2.240 . S
O81 C79 1.279 . S
O82 Cd72 2.313 . S
O82 C77 1.247 . S
O83 Cd72 2.457 . S
O83 C77 1.208 . S
O84 Cd85 2.223 . S
O84 C92 1.315 . S
Cd85 O84 2.223 . S
Cd85 O88 2.297 . S
Cd85 O89 2.439 . S
Cd85 O95 2.240 . S
Cd86 O87 2.240 . S
Cd86 O94 2.223 . S
Cd86 O96 2.297 . S
Cd86 O97 2.439 . S
O87 Cd86 2.240 . S
O87 C92 1.279 . S
O88 Cd85 2.297 . S
O88 C90 1.247 . S
O89 Cd85 2.439 . S
O89 C90 1.208 . S
C90 O88 1.247 . S
C90 O89 1.208 . S
C91 O96 1.247 . S
C91 O97 1.208 . S
C92 O84 1.315 . S
C92 O87 1.279 . S
C93 O94 1.315 . S
C93 O95 1.279 . S
O94 Cd86 2.223 . S
O94 C93 1.315 . S
O95 Cd85 2.240 . S
O95 C93 1.279 . S
O96 Cd86 2.297 . S
O96 C91 1.247 . S
O97 Cd86 2.439 . S
O97 C91 1.208 . S
O98 Cd99 2.223 . S
O98 C106 1.315 . S
Cd99 O98 2.223 . S
Cd99 O102 2.297 . S
Cd99 O103 2.439 . S
Cd99 O109 2.240 . S
Cd100 O101 2.240 . S
Cd100 O108 2.223 . S
Cd100 O110 2.297 . S
Cd100 O111 2.439 . S
O101 Cd100 2.240 . S
O101 C106 1.279 . S
O102 Cd99 2.297 . S
O102 C104 1.247 . S
O103 Cd99 2.439 . S
O103 C104 1.208 . S
C104 O102 1.247 . S
C104 O103 1.208 . S
C105 O110 1.247 . S
C105 O111 1.208 . S
C106 O98 1.315 . S
C106 O101 1.279 . S
C107 O108 1.315 . S
C107 O109 1.279 . S
O108 Cd100 2.223 . S
O108 C107 1.315 . S
O109 Cd99 2.240 . S
O109 C107 1.279 . S
O110 Cd100 2.297 . S
O110 C105 1.247 . S
O111 Cd100 2.439 . S
O111 C105 1.208 . S
O112 Cd113 2.223 1_556 S
O112 C120 1.315 . S
Cd113 O112 2.223 1_554 S
Cd113 O116 2.297 . S
Cd113 O117 2.439 . S
Cd113 O123 2.240 . S
Cd114 O115 2.240 1_554 S
Cd114 O122 2.223 . S
Cd114 O124 2.297 . S
Cd114 O125 2.439 . S
O115 Cd114 2.240 1_556 S
O115 C120 1.279 . S
O116 Cd113 2.297 . S
O116 C118 1.247 . S
O117 Cd113 2.439 . S
O117 C118 1.208 . S
C118 O116 1.247 . S
C118 O117 1.208 . S
C119 O124 1.247 . S
C119 O125 1.208 . S
C120 O112 1.315 . S
C120 O115 1.279 . S
C121 O122 1.315 . S
C121 O123 1.279 . S
O122 Cd114 2.223 . S
O122 C121 1.315 . S
O123 Cd113 2.240 . S
O123 C121 1.279 . S
O124 Cd114 2.297 . S
O124 C119 1.247 . S
O125 Cd114 2.439 . S
O125 C119 1.208 . S
O126 Cd127 2.223 . S
O126 C134 1.315 . S
Cd127 O126 2.223 . S
Cd127 O130 2.297 . S
Cd127 O131 2.439 . S
Cd127 O137 2.240 . S
Cd128 O129 2.240 . S
Cd128 O136 2.223 . S
Cd128 O138 2.297 . S
Cd128 O139 2.439 . S
O129 Cd128 2.240 . S
O129 C134 1.279 . S
O130 Cd127 2.297 . S
O130 C132 1.247 . S
O131 Cd127 2.439 . S
O131 C132 1.208 . S
C132 O130 1.247 . S
C132 O131 1.208 . S
C133 O138 1.247 . S
C133 O139 1.208 . S
C134 O126 1.315 . S
C134 O129 1.279 . S
C135 O136 1.315 . S
C135 O137 1.279 . S
O136 Cd128 2.223 . S
O136 C135 1.315 . S
O137 Cd127 2.240 . S
O137 C135 1.279 . S
O138 Cd128 2.297 . S
O138 C133 1.247 . S
O139 Cd128 2.439 . S
O139 C133 1.208 . S
O140 Cd141 2.223 . S
O140 C148 1.315 . S
Cd141 O140 2.223 . S
Cd141 O144 2.297 . S
Cd141 O145 2.439 . S
Cd141 O151 2.240 . S
Cd142 O143 2.240 . S
Cd142 O150 2.223 . S
Cd142 O152 2.297 . S
Cd142 O153 2.439 . S
O143 Cd142 2.240 . S
O143 C148 1.279 . S
O144 Cd141 2.297 . S
O144 C146 1.247 . S
O145 Cd141 2.439 . S
O145 C146 1.208 . S
C146 O144 1.247 . S
C146 O145 1.208 . S
C147 O152 1.247 . S
C147 O153 1.208 . S
C148 O140 1.315 . S
C148 O143 1.279 . S
C149 O150 1.315 . S
C149 O151 1.279 . S
O150 Cd142 2.223 . S
O150 C149 1.315 . S
O151 Cd141 2.240 . S
O151 C149 1.279 . S
O152 Cd142 2.297 . S
O152 C147 1.247 . S
O153 Cd142 2.439 . S
O153 C147 1.208 . S
O154 Cd155 2.223 1_556 S
O154 C162 1.315 . S
Cd155 O154 2.223 1_554 S
Cd155 O158 2.297 . S
Cd155 O159 2.439 . S
Cd155 O165 2.240 . S
Cd156 O157 2.240 1_554 S
Cd156 O164 2.223 . S
Cd156 O166 2.297 . S
Cd156 O167 2.439 . S
O157 Cd156 2.240 1_556 S
O157 C162 1.279 . S
O158 Cd155 2.297 . S
O158 C160 1.247 . S
O159 Cd155 2.439 . S
O159 C160 1.208 . S
C160 O158 1.247 . S
C160 O159 1.208 . S
C161 O166 1.247 . S
C161 O167 1.208 . S
C162 O154 1.315 . S
C162 O157 1.279 . S
C163 O164 1.315 . S
C163 O165 1.279 . S
O164 Cd156 2.223 . S
O164 C163 1.315 . S
O165 Cd155 2.240 . S
O165 C163 1.279 . S
O166 Cd156 2.297 . S
O166 C161 1.247 . S
O167 Cd156 2.439 . S
O167 C161 1.208 . S
C168 C169 1.349 . S
C168 C170 1.327 . S
C168 H193 0.950 . S
C169 C168 1.349 . S
C169 C185 1.349 . S
C170 C168 1.327 . S
C170 C189 1.429 . S
C170 H194 0.950 . S
C171 C188 1.574 . S
C171 C190 1.368 . S
C171 H195 0.949 . S
H172 C176 0.949 . S
C173 C174 1.349 . S
C173 C175 1.327 . S
C173 H196 0.950 . S
C174 C173 1.349 . S
C174 C186 1.349 . S
C175 C173 1.327 . S
C175 C191 1.429 . S
C175 H197 0.950 . S
C176 H172 0.949 . S
C176 C184 1.574 . S
C176 C192 1.368 . S
H177 C185 0.950 . S
H178 C183 0.950 . S
H179 C184 0.949 . S
H180 C186 0.950 . S
H181 C187 0.950 . S
H182 C188 0.949 . S
C183 H178 0.950 . S
C183 C185 1.327 . S
C183 C189 1.429 . S
C184 C176 1.574 . S
C184 H179 0.949 . S
C184 C190 1.368 . S
C185 C169 1.349 . S
C185 H177 0.950 . S
C185 C183 1.327 . S
C186 C174 1.349 . S
C186 H180 0.950 . S
C186 C187 1.327 . S
C187 H181 0.950 . S
C187 C186 1.327 . S
C187 C191 1.429 . S
C188 C171 1.574 . S
C188 H182 0.949 . S
C188 C192 1.368 . S
C189 C170 1.429 . S
C189 C183 1.429 . S
C189 C190 1.523 . S
C190 C171 1.368 . S
C190 C184 1.368 . S
C190 C189 1.523 . S
C191 C175 1.429 . S
C191 C187 1.429 . S
C191 C192 1.523 . S
C192 C176 1.368 . S
C192 C188 1.368 . S
C192 C191 1.523 . S
H193 C168 0.950 . S
H194 C170 0.950 . S
H195 C171 0.949 . S
H196 C173 0.950 . S
H197 C175 0.950 . S
C198 C199 1.349 . S
C198 C200 1.327 . S
C198 H223 0.950 . S
C199 C198 1.349 . S
C199 C215 1.349 . S
C200 C198 1.327 . S
C200 C219 1.429 . S
C200 H224 0.950 . S
C201 C218 1.574 . S
C201 C220 1.368 . S
C201 H225 0.949 . S
H202 C206 0.949 . S
C203 C204 1.349 . S
C203 C205 1.327 . S
C203 H226 0.950 . S
C204 C203 1.349 . S
C204 C216 1.349 . S
C205 C203 1.327 . S
C205 C221 1.429 . S
C205 H227 0.950 . S
C206 H202 0.949 . S
C206 C214 1.574 . S
C206 C222 1.368 . S
H207 C215 0.950 . S
H208 C213 0.950 . S
H209 C214 0.949 . S
H210 C216 0.950 . S
H211 C217 0.950 . S
H212 C218 0.949 . S
C213 H208 0.950 . S
C213 C215 1.327 . S
C213 C219 1.429 . S
C214 C206 1.574 . S
C214 H209 0.949 . S
C214 C220 1.368 . S
C215 C199 1.349 . S
C215 H207 0.950 . S
C215 C213 1.327 . S
C216 C204 1.349 . S
C216 H210 0.950 . S
C216 C217 1.327 . S
C217 H211 0.950 . S
C217 C216 1.327 . S
C217 C221 1.429 . S
C218 C201 1.574 . S
C218 H212 0.949 . S
C218 C222 1.368 . S
C219 C200 1.429 . S
C219 C213 1.429 . S
C219 C220 1.523 . S
C220 C201 1.368 . S
C220 C214 1.368 . S
C220 C219 1.523 . S
C221 C205 1.429 . S
C221 C217 1.429 . S
C221 C222 1.523 . S
C222 C206 1.368 . S
C222 C218 1.368 . S
C222 C221 1.523 . S
H223 C198 0.950 . S
H224 C200 0.950 . S
H225 C201 0.949 . S
H226 C203 0.950 . S
H227 C205 0.950 . S
C228 C229 1.349 . S
C228 C230 1.327 . S
C228 H253 0.950 . S
C229 C228 1.349 . S
C229 C245 1.349 . S
C230 C228 1.327 . S
C230 C249 1.429 . S
C230 H254 0.950 . S
C231 C248 1.574 . S
C231 C250 1.368 . S
C231 H255 0.949 . S
H232 C236 0.949 . S
C233 C234 1.349 . S
C233 C235 1.327 . S
C233 H256 0.950 . S
C234 C233 1.349 . S
C234 C246 1.349 . S
C235 C233 1.327 . S
C235 C251 1.429 . S
C235 H257 0.950 . S
C236 H232 0.949 . S
C236 C244 1.574 . S
C236 C252 1.368 . S
H237 C245 0.950 . S
H238 C243 0.950 . S
H239 C244 0.949 . S
H240 C246 0.950 . S
H241 C247 0.950 . S
H242 C248 0.949 . S
C243 H238 0.950 . S
C243 C245 1.327 . S
C243 C249 1.429 . S
C244 C236 1.574 . S
C244 H239 0.949 . S
C244 C250 1.368 . S
C245 C229 1.349 . S
C245 H237 0.950 . S
C245 C243 1.327 . S
C246 C234 1.349 . S
C246 H240 0.950 . S
C246 C247 1.327 . S
C247 H241 0.950 . S
C247 C246 1.327 . S
C247 C251 1.429 . S
C248 C231 1.574 . S
C248 H242 0.949 . S
C248 C252 1.368 . S
C249 C230 1.429 . S
C249 C243 1.429 . S
C249 C250 1.523 . S
C250 C231 1.368 . S
C250 C244 1.368 . S
C250 C249 1.523 . S
C251 C235 1.429 . S
C251 C247 1.429 . S
C251 C252 1.523 . S
C252 C236 1.368 . S
C252 C248 1.368 . S
C252 C251 1.523 . S
H253 C228 0.950 . S
H254 C230 0.950 . S
H255 C231 0.949 . S
H256 C233 0.950 . S
H257 C235 0.950 . S
C258 C259 1.349 . S
C258 C260 1.327 . S
C258 H283 0.950 . S
C259 C258 1.349 . S
C259 C275 1.349 . S
C260 C258 1.327 . S
C260 C279 1.429 . S
C260 H284 0.950 . S
C261 C278 1.574 . S
C261 C280 1.368 . S
C261 H285 0.949 . S
H262 C266 0.949 . S
C263 C264 1.349 . S
C263 C265 1.327 . S
C263 H286 0.950 . S
C264 C263 1.349 . S
C264 C276 1.349 . S
C265 C263 1.327 . S
C265 C281 1.429 . S
C265 H287 0.950 . S
C266 H262 0.949 . S
C266 C274 1.574 . S
C266 C282 1.368 . S
H267 C275 0.950 . S
H268 C273 0.950 . S
H269 C274 0.949 . S
H270 C276 0.950 . S
H271 C277 0.950 . S
H272 C278 0.949 . S
C273 H268 0.950 . S
C273 C275 1.327 . S
C273 C279 1.429 . S
C274 C266 1.574 . S
C274 H269 0.949 . S
C274 C280 1.368 . S
C275 C259 1.349 . S
C275 H267 0.950 . S
C275 C273 1.327 . S
C276 C264 1.349 . S
C276 H270 0.950 . S
C276 C277 1.327 . S
C277 H271 0.950 . S
C277 C276 1.327 . S
C277 C281 1.429 . S
C278 C261 1.574 . S
C278 H272 0.949 . S
C278 C282 1.368 . S
C279 C260 1.429 . S
C279 C273 1.429 . S
C279 C280 1.523 . S
C280 C261 1.368 . S
C280 C274 1.368 . S
C280 C279 1.523 . S
C281 C265 1.429 . S
C281 C277 1.429 . S
C281 C282 1.523 . S
C282 C266 1.368 . S
C282 C278 1.368 . S
C282 C281 1.523 . S
H283 C258 0.950 . S
H284 C260 0.950 . S
H285 C261 0.949 . S
H286 C263 0.950 . S
H287 C265 0.950 . S
C288 C289 1.349 . S
C288 C290 1.327 . S
C288 H313 0.950 . S
C289 C288 1.349 . S
C289 C305 1.349 . S
C290 C288 1.327 . S
C290 C309 1.429 . S
C290 H314 0.950 . S
C291 C308 1.574 . S
C291 C310 1.368 . S
C291 H315 0.949 . S
H292 C296 0.949 . S
C293 C294 1.349 . S
C293 C295 1.327 . S
C293 H316 0.950 . S
C294 C293 1.349 . S
C294 C306 1.349 . S
C295 C293 1.327 . S
C295 C311 1.429 . S
C295 H317 0.950 . S
C296 H292 0.949 . S
C296 C304 1.574 . S
C296 C312 1.368 . S
H297 C305 0.950 . S
H298 C303 0.950 . S
H299 C304 0.949 . S
H300 C306 0.950 . S
H301 C307 0.950 . S
H302 C308 0.949 . S
C303 H298 0.950 . S
C303 C305 1.327 . S
C303 C309 1.429 . S
C304 C296 1.574 . S
C304 H299 0.949 . S
C304 C310 1.368 . S
C305 C289 1.349 . S
C305 H297 0.950 . S
C305 C303 1.327 . S
C306 C294 1.349 . S
C306 H300 0.950 . S
C306 C307 1.327 . S
C307 H301 0.950 . S
C307 C306 1.327 . S
C307 C311 1.429 . S
C308 C291 1.574 . S
C308 H302 0.949 . S
C308 C312 1.368 . S
C309 C290 1.429 . S
C309 C303 1.429 . S
C309 C310 1.523 . S
C310 C291 1.368 . S
C310 C304 1.368 . S
C310 C309 1.523 . S
C311 C295 1.429 . S
C311 C307 1.429 . S
C311 C312 1.523 . S
C312 C296 1.368 . S
C312 C308 1.368 . S
C312 C311 1.523 . S
H313 C288 0.950 . S
H314 C290 0.950 . S
H315 C291 0.949 . S
H316 C293 0.950 . S
H317 C295 0.950 . S
C318 C319 1.349 . S
C318 C320 1.327 . S
C318 H343 0.950 . S
C319 C318 1.349 . S
C319 C335 1.349 . S
C320 C318 1.327 . S
C320 C339 1.429 . S
C320 H344 0.950 . S
C321 C338 1.574 . S
C321 C340 1.368 . S
C321 H345 0.949 . S
H322 C326 0.949 . S
C323 C324 1.349 . S
C323 C325 1.327 . S
C323 H346 0.950 . S
C324 C323 1.349 . S
C324 C336 1.349 . S
C325 C323 1.327 . S
C325 C341 1.429 . S
C325 H347 0.950 . S
C326 H322 0.949 . S
C326 C334 1.574 . S
C326 C342 1.368 . S
H327 C335 0.950 . S
H328 C333 0.950 . S
H329 C334 0.949 . S
H330 C336 0.950 . S
H331 C337 0.950 . S
H332 C338 0.949 . S
C333 H328 0.950 . S
C333 C335 1.327 . S
C333 C339 1.429 . S
C334 C326 1.574 . S
C334 H329 0.949 . S
C334 C340 1.368 . S
C335 C319 1.349 . S
C335 H327 0.950 . S
C335 C333 1.327 . S
C336 C324 1.349 . S
C336 H330 0.950 . S
C336 C337 1.327 . S
C337 H331 0.950 . S
C337 C336 1.327 . S
C337 C341 1.429 . S
C338 C321 1.574 . S
C338 H332 0.949 . S
C338 C342 1.368 . S
C339 C320 1.429 . S
C339 C333 1.429 . S
C339 C340 1.523 . S
C340 C321 1.368 . S
C340 C334 1.368 . S
C340 C339 1.523 . S
C341 C325 1.429 . S
C341 C337 1.429 . S
C341 C342 1.523 . S
C342 C326 1.368 . S
C342 C338 1.368 . S
C342 C341 1.523 . S
H343 C318 0.950 . S
H344 C320 0.950 . S
H345 C321 0.949 . S
H346 C323 0.950 . S
H347 C325 0.950 . S
C348 C349 1.349 . S
C348 C350 1.327 . S
C348 H373 0.950 . S
C349 C348 1.349 . S
C349 C365 1.349 . S
C350 C348 1.327 . S
C350 C369 1.429 . S
C350 H374 0.950 . S
C351 C368 1.574 . S
C351 C370 1.368 . S
C351 H375 0.949 . S
H352 C356 0.949 . S
C353 C354 1.349 . S
C353 C355 1.327 . S
C353 H376 0.950 . S
C354 C353 1.349 . S
C354 C366 1.349 . S
C355 C353 1.327 . S
C355 C371 1.429 . S
C355 H377 0.950 . S
C356 H352 0.949 . S
C356 C364 1.574 . S
C356 C372 1.368 . S
H357 C365 0.950 . S
H358 C363 0.950 . S
H359 C364 0.949 . S
H360 C366 0.950 . S
H361 C367 0.950 . S
H362 C368 0.949 . S
C363 H358 0.950 . S
C363 C365 1.327 . S
C363 C369 1.429 . S
C364 C356 1.574 . S
C364 H359 0.949 . S
C364 C370 1.368 . S
C365 C349 1.349 . S
C365 H357 0.950 . S
C365 C363 1.327 . S
C366 C354 1.349 . S
C366 H360 0.950 . S
C366 C367 1.327 . S
C367 H361 0.950 . S
C367 C366 1.327 . S
C367 C371 1.429 . S
C368 C351 1.574 . S
C368 H362 0.949 . S
C368 C372 1.368 . S
C369 C350 1.429 . S
C369 C363 1.429 . S
C369 C370 1.523 . S
C370 C351 1.368 . S
C370 C364 1.368 . S
C370 C369 1.523 . S
C371 C355 1.429 . S
C371 C367 1.429 . S
C371 C372 1.523 . S
C372 C356 1.368 . S
C372 C368 1.368 . S
C372 C371 1.523 . S
H373 C348 0.950 . S
H374 C350 0.950 . S
H375 C351 0.949 . S
H376 C353 0.950 . S
H377 C355 0.950 . S
C378 C379 1.349 . S
C378 C380 1.327 . S
C378 H403 0.950 . S
C379 C378 1.349 . S
C379 C395 1.349 . S
C380 C378 1.327 . S
C380 C399 1.429 . S
C380 H404 0.950 . S
C381 C398 1.574 . S
C381 C400 1.368 . S
C381 H405 0.949 . S
H382 C386 0.949 . S
C383 C384 1.349 . S
C383 C385 1.327 . S
C383 H406 0.950 . S
C384 C383 1.349 . S
C384 C396 1.349 . S
C385 C383 1.327 . S
C385 C401 1.429 . S
C385 H407 0.950 . S
C386 H382 0.949 . S
C386 C394 1.574 . S
C386 C402 1.368 . S
H387 C395 0.950 . S
H388 C393 0.950 . S
H389 C394 0.949 . S
H390 C396 0.950 . S
H391 C397 0.950 . S
H392 C398 0.949 . S
C393 H388 0.950 . S
C393 C395 1.327 . S
C393 C399 1.429 . S
C394 C386 1.574 . S
C394 H389 0.949 . S
C394 C400 1.368 . S
C395 C379 1.349 . S
C395 H387 0.950 . S
C395 C393 1.327 . S
C396 C384 1.349 . S
C396 H390 0.950 . S
C396 C397 1.327 . S
C397 H391 0.950 . S
C397 C396 1.327 . S
C397 C401 1.429 . S
C398 C381 1.574 . S
C398 H392 0.949 . S
C398 C402 1.368 . S
C399 C380 1.429 . S
C399 C393 1.429 . S
C399 C400 1.523 . S
C400 C381 1.368 . S
C400 C394 1.368 . S
C400 C399 1.523 . S
C401 C385 1.429 . S
C401 C397 1.429 . S
C401 C402 1.523 . S
C402 C386 1.368 . S
C402 C398 1.368 . S
C402 C401 1.523 . S
H403 C378 0.950 . S
H404 C380 0.950 . S
H405 C381 0.949 . S
H406 C383 0.950 . S
H407 C385 0.950 . S
C408 C409 1.350 1_556 S
C408 C410 1.327 . S
C408 H433 0.949 . S
C409 C408 1.350 1_554 S
C409 C425 1.349 . S
C410 C408 1.327 . S
C410 C429 1.429 1_556 S
C410 H434 0.950 . S
C411 C428 1.574 . S
C411 C430 1.368 . S
C411 H435 0.949 . S
H412 C416 0.949 . S
C413 C414 1.351 1_554 S
C413 C415 1.327 . S
C413 H436 0.950 . S
C414 C413 1.351 1_556 S
C414 C426 1.347 . S
C415 C413 1.327 . S
C415 C431 1.429 . S
C415 H437 0.950 . S
C416 H412 0.949 . S
C416 C424 1.574 . S
C416 C432 1.368 1_556 S
H417 C425 0.950 . S
H418 C423 0.950 . S
H419 C424 0.949 . S
H420 C426 0.950 . S
H421 C427 0.950 . S
H422 C428 0.949 . S
C423 H418 0.950 . S
C423 C425 1.327 . S
C423 C429 1.429 . S
C424 C416 1.574 . S
C424 H419 0.949 . S
C424 C430 1.368 1_556 S
C425 C409 1.349 . S
C425 H417 0.950 . S
C425 C423 1.327 . S
C426 C414 1.347 . S
C426 H420 0.950 . S
C426 C427 1.327 . S
C427 H421 0.950 . S
C427 C426 1.327 . S
C427 C431 1.429 1_556 S
C428 C411 1.574 . S
C428 H422 0.949 . S
C428 C432 1.368 . S
C429 C410 1.429 1_554 S
C429 C423 1.429 . S
C429 C430 1.523 . S
C430 C411 1.368 . S
C430 C424 1.368 1_554 S
C430 C429 1.523 . S
C431 C415 1.429 . S
C431 C427 1.429 1_554 S
C431 C432 1.523 . S
C432 C416 1.368 1_554 S
C432 C428 1.368 . S
C432 C431 1.523 . S
H433 C408 0.949 . S
H434 C410 0.950 . S
H435 C411 0.949 . S
H436 C413 0.950 . S
H437 C415 0.950 . S
C438 C439 1.349 . S
C438 C440 1.327 . S
C438 H463 0.950 . S
C439 C438 1.349 . S
C439 C455 1.349 . S
C440 C438 1.327 . S
C440 C459 1.429 . S
C440 H464 0.950 . S
C441 C458 1.574 . S
C441 C460 1.368 . S
C441 H465 0.949 . S
H442 C446 0.949 . S
C443 C444 1.349 . S
C443 C445 1.327 . S
C443 H466 0.950 . S
C444 C443 1.349 . S
C444 C456 1.349 . S
C445 C443 1.327 . S
C445 C461 1.429 . S
C445 H467 0.950 . S
C446 H442 0.949 . S
C446 C454 1.574 . S
C446 C462 1.368 . S
H447 C455 0.950 . S
H448 C453 0.950 . S
H449 C454 0.949 . S
H450 C456 0.950 . S
H451 C457 0.950 . S
H452 C458 0.949 . S
C453 H448 0.950 . S
C453 C455 1.327 . S
C453 C459 1.429 . S
C454 C446 1.574 . S
C454 H449 0.949 . S
C454 C460 1.368 . S
C455 C439 1.349 . S
C455 H447 0.950 . S
C455 C453 1.327 . S
C456 C444 1.349 . S
C456 H450 0.950 . S
C456 C457 1.327 . S
C457 H451 0.950 . S
C457 C456 1.327 . S
C457 C461 1.429 . S
C458 C441 1.574 . S
C458 H452 0.949 . S
C458 C462 1.368 . S
C459 C440 1.429 . S
C459 C453 1.429 . S
C459 C460 1.523 . S
C460 C441 1.368 . S
C460 C454 1.368 . S
C460 C459 1.523 . S
C461 C445 1.429 . S
C461 C457 1.429 . S
C461 C462 1.523 . S
C462 C446 1.368 . S
C462 C458 1.368 . S
C462 C461 1.523 . S
H463 C438 0.950 . S
H464 C440 0.950 . S
H465 C441 0.949 . S
H466 C443 0.950 . S
H467 C445 0.950 . S
C468 C469 1.349 . S
C468 C470 1.327 . S
C468 H493 0.950 . S
C469 C468 1.349 . S
C469 C485 1.349 . S
C470 C468 1.327 . S
C470 C489 1.429 . S
C470 H494 0.950 . S
C471 C488 1.574 . S
C471 C490 1.368 . S
C471 H495 0.949 . S
H472 C476 0.949 . S
C473 C474 1.349 . S
C473 C475 1.327 . S
C473 H496 0.950 . S
C474 C473 1.349 . S
C474 C486 1.349 . S
C475 C473 1.327 . S
C475 C491 1.429 . S
C475 H497 0.950 . S
C476 H472 0.949 . S
C476 C484 1.574 . S
C476 C492 1.368 . S
H477 C485 0.950 . S
H478 C483 0.950 . S
H479 C484 0.949 . S
H480 C486 0.950 . S
H481 C487 0.950 . S
H482 C488 0.949 . S
C483 H478 0.950 . S
C483 C485 1.327 . S
C483 C489 1.429 . S
C484 C476 1.574 . S
C484 H479 0.949 . S
C484 C490 1.368 . S
C485 C469 1.349 . S
C485 H477 0.950 . S
C485 C483 1.327 . S
C486 C474 1.349 . S
C486 H480 0.950 . S
C486 C487 1.327 . S
C487 H481 0.950 . S
C487 C486 1.327 . S
C487 C491 1.429 . S
C488 C471 1.574 . S
C488 H482 0.949 . S
C488 C492 1.368 . S
C489 C470 1.429 . S
C489 C483 1.429 . S
C489 C490 1.523 . S
C490 C471 1.368 . S
C490 C484 1.368 . S
C490 C489 1.523 . S
C491 C475 1.429 . S
C491 C487 1.429 . S
C491 C492 1.523 . S
C492 C476 1.368 . S
C492 C488 1.368 . S
C492 C491 1.523 . S
H493 C468 0.950 . S
H494 C470 0.950 . S
H495 C471 0.949 . S
H496 C473 0.950 . S
H497 C475 0.950 . S
C498 C499 1.351 1_554 S
C498 C500 1.327 . S
C498 H523 0.950 . S
C499 C498 1.351 1_556 S
C499 C515 1.347 . S
C500 C498 1.327 . S
C500 C519 1.429 . S
C500 H524 0.950 . S
C501 C518 1.574 . S
C501 C520 1.368 1_556 S
C501 H525 0.949 . S
H502 C506 0.949 . S
C503 C504 1.347 . S
C503 C505 1.327 1_554 S
C503 H526 0.951 1_554 S
C504 C503 1.347 . S
C504 C516 1.349 . S
C505 C503 1.327 1_556 S
C505 C521 1.429 1_556 S
C505 H527 0.950 . S
C506 H502 0.949 . S
C506 C514 1.574 . S
C506 C522 1.368 . S
H507 C515 0.950 . S
H508 C513 0.950 . S
H509 C514 0.949 . S
H510 C516 0.950 . S
H511 C517 0.950 . S
H512 C518 0.949 . S
C513 H508 0.950 . S
C513 C515 1.327 . S
C513 C519 1.429 1_556 S
C514 C506 1.574 . S
C514 H509 0.949 . S
C514 C520 1.368 . S
C515 C499 1.347 . S
C515 H507 0.950 . S
C515 C513 1.327 . S
C516 C504 1.349 . S
C516 H510 0.950 . S
C516 C517 1.327 . S
C517 H511 0.950 . S
C517 C516 1.327 . S
C517 C521 1.429 . S
C518 C501 1.574 . S
C518 H512 0.949 . S
C518 C522 1.368 1_556 S
C519 C500 1.429 . S
C519 C513 1.429 1_554 S
C519 C520 1.523 . S
C520 C501 1.368 1_554 S
C520 C514 1.368 . S
C520 C519 1.523 . S
C521 C505 1.429 1_554 S
C521 C517 1.429 . S
C521 C522 1.523 . S
C522 C506 1.368 . S
C522 C518 1.368 1_554 S
C522 C521 1.523 . S
H523 C498 0.950 . S
H524 C500 0.950 . S
H525 C501 0.949 . S
H526 C503 0.951 1_556 S
H527 C505 0.950 . S
C528 C529 1.349 . S
C528 C530 1.327 . S
C528 H553 0.950 . S
C529 C528 1.349 . S
C529 C545 1.349 . S
C530 C528 1.327 . S
C530 C549 1.429 . S
C530 H554 0.950 . S
C531 C548 1.574 1_545 S
C531 C550 1.368 . S
C531 H555 0.949 . S
H532 C536 0.949 . S
C533 C534 1.349 . S
C533 C535 1.327 . S
C533 H556 0.950 . S
C534 C533 1.349 . S
C534 C546 1.349 . S
C535 C533 1.327 . S
C535 C551 1.429 . S
C535 H557 0.950 . S
C536 H532 0.949 . S
C536 C544 1.574 1_565 S
C536 C552 1.368 . S
H537 C545 0.950 . S
H538 C543 0.950 . S
H539 C544 0.949 . S
H540 C546 0.950 . S
H541 C547 0.950 . S
H542 C548 0.949 . S
C543 H538 0.950 . S
C543 C545 1.327 . S
C543 C549 1.429 . S
C544 C536 1.574 1_545 S
C544 H539 0.949 . S
C544 C550 1.368 . S
C545 C529 1.349 . S
C545 H537 0.950 . S
C545 C543 1.327 . S
C546 C534 1.349 . S
C546 H540 0.950 . S
C546 C547 1.327 . S
C547 H541 0.950 . S
C547 C546 1.327 . S
C547 C551 1.429 . S
C548 C531 1.574 1_565 S
C548 H542 0.949 . S
C548 C552 1.368 . S
C549 C530 1.429 . S
C549 C543 1.429 . S
C549 C550 1.523 . S
C550 C531 1.368 . S
C550 C544 1.368 . S
C550 C549 1.523 . S
C551 C535 1.429 . S
C551 C547 1.429 . S
C551 C552 1.523 . S
C552 C536 1.368 . S
C552 C548 1.368 . S
C552 C551 1.523 . S
H553 C528 0.950 . S
H554 C530 0.950 . S
H555 C531 0.949 . S
H556 C533 0.950 . S
H557 C535 0.950 . S
C558 C559 1.349 . S
C558 C560 1.327 . S
C558 H583 0.950 . S
C559 C558 1.349 . S
C559 C575 1.349 . S
C560 C558 1.327 . S
C560 C579 1.429 . S
C560 H584 0.950 . S
C561 C578 1.574 . S
C561 C580 1.368 . S
C561 H585 0.949 . S
H562 C566 0.949 . S
C563 C564 1.349 . S
C563 C565 1.327 . S
C563 H586 0.950 . S
C564 C563 1.349 . S
C564 C576 1.349 . S
C565 C563 1.327 . S
C565 C581 1.429 . S
C565 H587 0.950 . S
C566 H562 0.949 . S
C566 C574 1.574 . S
C566 C582 1.368 . S
H567 C575 0.950 . S
H568 C573 0.950 . S
H569 C574 0.949 . S
H570 C576 0.950 . S
H571 C577 0.950 . S
H572 C578 0.949 . S
C573 H568 0.950 . S
C573 C575 1.327 . S
C573 C579 1.429 . S
C574 C566 1.574 . S
C574 H569 0.949 . S
C574 C580 1.368 . S
C575 C559 1.349 . S
C575 H567 0.950 . S
C575 C573 1.327 . S
C576 C564 1.349 . S
C576 H570 0.950 . S
C576 C577 1.327 . S
C577 H571 0.950 . S
C577 C576 1.327 . S
C577 C581 1.429 . S
C578 C561 1.574 . S
C578 H572 0.949 . S
C578 C582 1.368 . S
C579 C560 1.429 . S
C579 C573 1.429 . S
C579 C580 1.523 . S
C580 C561 1.368 . S
C580 C574 1.368 . S
C580 C579 1.523 . S
C581 C565 1.429 . S
C581 C577 1.429 . S
C581 C582 1.523 . S
C582 C566 1.368 . S
C582 C578 1.368 . S
C582 C581 1.523 . S
H583 C558 0.950 . S
H584 C560 0.950 . S
H585 C561 0.949 . S
H586 C563 0.950 . S
H587 C565 0.950 . S
C588 C589 1.349 . S
C588 C590 1.327 . S
C588 H613 0.950 . S
C589 C588 1.349 . S
C589 C605 1.349 1_556 S
C590 C588 1.327 . S
C590 C609 1.429 . S
C590 H614 0.950 . S
C591 C608 1.574 1_655 S
C591 C610 1.368 1_554 S
C591 H615 0.949 . S
H592 C596 0.949 . S
C593 C594 1.349 1_554 S
C593 C595 1.327 . S
C593 H616 0.950 . S
C594 C593 1.349 1_556 S
C594 C606 1.349 . S
C595 C593 1.327 . S
C595 C611 1.429 1_554 S
C595 H617 0.950 . S
C596 H592 0.949 . S
C596 C604 1.574 1_455 S
C596 C612 1.368 . S
H597 C605 0.950 . S
H598 C603 0.950 . S
H599 C604 0.949 . S
H600 C606 0.950 . S
H601 C607 0.950 . S
H602 C608 0.949 . S
C603 H598 0.950 . S
C603 C605 1.327 . S
C603 C609 1.429 1_554 S
C604 C596 1.574 1_655 S
C604 H599 0.949 . S
C604 C610 1.368 . S
C605 C589 1.349 1_554 S
C605 H597 0.950 . S
C605 C603 1.327 . S
C606 C594 1.349 . S
C606 H600 0.950 . S
C606 C607 1.327 . S
C607 H601 0.950 . S
C607 C606 1.327 . S
C607 C611 1.429 . S
C608 C591 1.574 1_455 S
C608 H602 0.949 . S
C608 C612 1.368 1_554 S
C609 C590 1.429 . S
C609 C603 1.429 1_556 S
C609 C610 1.523 . S
C610 C591 1.368 1_556 S
C610 C604 1.368 . S
C610 C609 1.523 . S
C611 C595 1.429 1_556 S
C611 C607 1.429 . S
C611 C612 1.523 . S
C612 C596 1.368 . S
C612 C608 1.368 1_556 S
C612 C611 1.523 . S
H613 C588 0.950 . S
H614 C590 0.950 . S
H615 C591 0.949 . S
H616 C593 0.950 . S
H617 C595 0.950 . S
C618 C619 1.349 . S
C618 C620 1.327 . S
C618 H643 0.950 . S
C619 C618 1.349 . S
C619 C635 1.349 . S
C620 C618 1.327 . S
C620 C639 1.429 . S
C620 H644 0.950 . S
C621 C638 1.574 1_455 S
C621 C640 1.368 . S
C621 H645 0.949 . S
H622 C626 0.949 . S
C623 C624 1.349 . S
C623 C625 1.327 . S
C623 H646 0.950 . S
C624 C623 1.349 . S
C624 C636 1.349 . S
C625 C623 1.327 . S
C625 C641 1.429 . S
C625 H647 0.950 . S
C626 H622 0.949 . S
C626 C634 1.574 1_655 S
C626 C642 1.368 . S
H627 C635 0.950 . S
H628 C633 0.950 . S
H629 C634 0.949 . S
H630 C636 0.950 . S
H631 C637 0.950 . S
H632 C638 0.949 . S
C633 H628 0.950 . S
C633 C635 1.327 . S
C633 C639 1.429 . S
C634 C626 1.574 1_455 S
C634 H629 0.949 . S
C634 C640 1.368 . S
C635 C619 1.349 . S
C635 H627 0.950 . S
C635 C633 1.327 . S
C636 C624 1.349 . S
C636 H630 0.950 . S
C636 C637 1.327 . S
C637 H631 0.950 . S
C637 C636 1.327 . S
C637 C641 1.429 . S
C638 C621 1.574 1_655 S
C638 H632 0.949 . S
C638 C642 1.368 . S
C639 C620 1.429 . S
C639 C633 1.429 . S
C639 C640 1.523 . S
C640 C621 1.368 . S
C640 C634 1.368 . S
C640 C639 1.523 . S
C641 C625 1.429 . S
C641 C637 1.429 . S
C641 C642 1.523 . S
C642 C626 1.368 . S
C642 C638 1.368 . S
C642 C641 1.523 . S
H643 C618 0.950 . S
H644 C620 0.950 . S
H645 C621 0.949 . S
H646 C623 0.950 . S
H647 C625 0.950 . S
C648 C649 1.349 . S
C648 C650 1.327 . S
C648 H673 0.950 . S
C649 C648 1.349 . S
C649 C665 1.349 . S
C650 C648 1.327 . S
C650 C669 1.429 . S
C650 H674 0.950 . S
C651 C668 1.574 1_545 S
C651 C670 1.368 . S
C651 H675 0.949 . S
H652 C656 0.949 . S
C653 C654 1.349 . S
C653 C655 1.327 . S
C653 H676 0.950 . S
C654 C653 1.349 . S
C654 C666 1.349 . S
C655 C653 1.327 . S
C655 C671 1.429 . S
C655 H677 0.950 . S
C656 H652 0.949 . S
C656 C664 1.574 1_565 S
C656 C672 1.368 . S
H657 C665 0.950 . S
H658 C663 0.950 . S
H659 C664 0.949 . S
H660 C666 0.950 . S
H661 C667 0.950 . S
H662 C668 0.949 . S
C663 H658 0.950 . S
C663 C665 1.327 . S
C663 C669 1.429 . S
C664 C656 1.574 1_545 S
C664 H659 0.949 . S
C664 C670 1.368 . S
C665 C649 1.349 . S
C665 H657 0.950 . S
C665 C663 1.327 . S
C666 C654 1.349 . S
C666 H660 0.950 . S
C666 C667 1.327 . S
C667 H661 0.950 . S
C667 C666 1.327 . S
C667 C671 1.429 . S
C668 C651 1.574 1_565 S
C668 H662 0.949 . S
C668 C672 1.368 . S
C669 C650 1.429 . S
C669 C663 1.429 . S
C669 C670 1.523 . S
C670 C651 1.368 . S
C670 C664 1.368 . S
C670 C669 1.523 . S
C671 C655 1.429 . S
C671 C667 1.429 . S
C671 C672 1.523 . S
C672 C656 1.368 . S
C672 C668 1.368 . S
C672 C671 1.523 . S
H673 C648 0.950 . S
H674 C650 0.950 . S
H675 C651 0.949 . S
H676 C653 0.950 . S
H677 C655 0.950 . S
C678 C679 1.349 . S
C678 C680 1.327 . S
C678 H703 0.950 . S
C679 C678 1.349 . S
C679 C695 1.349 . S
C680 C678 1.327 . S
C680 C699 1.429 . S
C680 H704 0.950 . S
C681 C698 1.574 . S
C681 C700 1.368 . S
C681 H705 0.949 1_554 S
H682 C686 0.949 . S
C683 C684 1.349 . S
C683 C685 1.327 . S
C683 H706 0.950 1_554 S
C684 C683 1.349 . S
C684 C696 1.349 . S
C685 C683 1.327 . S
C685 C701 1.429 . S
C685 H707 0.950 1_554 S
C686 H682 0.949 . S
C686 C694 1.574 . S
C686 C702 1.368 . S
H687 C695 0.950 1_556 S
H688 C693 0.950 1_556 S
H689 C694 0.949 . S
H690 C696 0.950 . S
H691 C697 0.950 . S
H692 C698 0.949 1_556 S
C693 H688 0.950 1_554 S
C693 C695 1.327 . S
C693 C699 1.429 . S
C694 C686 1.574 . S
C694 H689 0.949 . S
C694 C700 1.368 . S
C695 C679 1.349 . S
C695 H687 0.950 1_554 S
C695 C693 1.327 . S
C696 C684 1.349 . S
C696 H690 0.950 . S
C696 C697 1.327 . S
C697 H691 0.950 . S
C697 C696 1.327 . S
C697 C701 1.429 . S
C698 C681 1.574 . S
C698 H692 0.949 1_554 S
C698 C702 1.368 . S
C699 C680 1.429 . S
C699 C693 1.429 . S
C699 C700 1.523 . S
C700 C681 1.368 . S
C700 C694 1.368 . S
C700 C699 1.523 . S
C701 C685 1.429 . S
C701 C697 1.429 . S
C701 C702 1.523 . S
C702 C686 1.368 . S
C702 C698 1.368 . S
C702 C701 1.523 . S
H703 C678 0.950 . S
H704 C680 0.950 . S
H705 C681 0.949 1_556 S
H706 C683 0.950 1_556 S
H707 C685 0.950 1_556 S
C708 C709 1.349 . S
C708 C710 1.327 . S
C708 H733 0.950 . S
C709 C708 1.349 . S
C709 C725 1.349 . S
C710 C708 1.327 . S
C710 C729 1.429 . S
C710 H734 0.950 . S
C711 C728 1.574 . S
C711 C730 1.368 . S
C711 H735 0.949 . S
H712 C716 0.949 . S
C713 C714 1.349 . S
C713 C715 1.327 . S
C713 H736 0.950 . S
C714 C713 1.349 . S
C714 C726 1.349 . S
C715 C713 1.327 . S
C715 C731 1.429 . S
C715 H737 0.950 . S
C716 H712 0.949 . S
C716 C724 1.574 . S
C716 C732 1.368 . S
H717 C725 0.950 . S
H718 C723 0.950 . S
H719 C724 0.949 . S
H720 C726 0.950 . S
H721 C727 0.950 . S
H722 C728 0.949 . S
C723 H718 0.950 . S
C723 C725 1.327 . S
C723 C729 1.429 . S
C724 C716 1.574 . S
C724 H719 0.949 . S
C724 C730 1.368 . S
C725 C709 1.349 . S
C725 H717 0.950 . S
C725 C723 1.327 . S
C726 C714 1.349 . S
C726 H720 0.950 . S
C726 C727 1.327 . S
C727 H721 0.950 . S
C727 C726 1.327 . S
C727 C731 1.429 . S
C728 C711 1.574 . S
C728 H722 0.949 . S
C728 C732 1.368 . S
C729 C710 1.429 . S
C729 C723 1.429 . S
C729 C730 1.523 . S
C730 C711 1.368 . S
C730 C724 1.368 . S
C730 C729 1.523 . S
C731 C715 1.429 . S
C731 C727 1.429 . S
C731 C732 1.523 . S
C732 C716 1.368 . S
C732 C728 1.368 . S
C732 C731 1.523 . S
H733 C708 0.950 . S
H734 C710 0.950 . S
H735 C711 0.949 . S
H736 C713 0.950 . S
H737 C715 0.950 . S
C738 C739 1.349 . S
C738 C740 1.327 . S
C738 H763 0.950 . S
C739 C738 1.349 . S
C739 C755 1.349 . S
C740 C738 1.327 . S
C740 C759 1.429 . S
C740 H764 0.950 . S
C741 C758 1.574 . S
C741 C760 1.368 . S
C741 H765 0.949 . S
H742 C746 0.949 . S
C743 C744 1.349 . S
C743 C745 1.327 . S
C743 H766 0.950 . S
C744 C743 1.349 . S
C744 C756 1.349 . S
C745 C743 1.327 . S
C745 C761 1.429 . S
C745 H767 0.950 . S
C746 H742 0.949 . S
C746 C754 1.574 . S
C746 C762 1.368 . S
H747 C755 0.950 . S
H748 C753 0.950 . S
H749 C754 0.949 . S
H750 C756 0.950 . S
H751 C757 0.950 . S
H752 C758 0.949 . S
C753 H748 0.950 . S
C753 C755 1.327 . S
C753 C759 1.429 . S
C754 C746 1.574 . S
C754 H749 0.949 . S
C754 C760 1.368 . S
C755 C739 1.349 . S
C755 H747 0.950 . S
C755 C753 1.327 . S
C756 C744 1.349 . S
C756 H750 0.950 . S
C756 C757 1.327 . S
C757 H751 0.950 . S
C757 C756 1.327 . S
C757 C761 1.429 . S
C758 C741 1.574 . S
C758 H752 0.949 . S
C758 C762 1.368 . S
C759 C740 1.429 . S
C759 C753 1.429 . S
C759 C760 1.523 . S
C760 C741 1.368 . S
C760 C754 1.368 . S
C760 C759 1.523 . S
C761 C745 1.429 . S
C761 C757 1.429 . S
C761 C762 1.523 . S
C762 C746 1.368 . S
C762 C758 1.368 . S
C762 C761 1.523 . S
H763 C738 0.950 . S
H764 C740 0.950 . S
H765 C741 0.949 . S
H766 C743 0.950 . S
H767 C745 0.950 . S
C768 C769 1.349 . S
C768 C770 1.327 . S
C768 H793 0.950 . S
C769 C768 1.349 . S
C769 C785 1.349 . S
C770 C768 1.327 . S
C770 C789 1.429 . S
C770 H794 0.950 . S
C771 C788 1.574 . S
C771 C790 1.368 . S
C771 H795 0.949 . S
H772 C776 0.949 . S
C773 C774 1.349 . S
C773 C775 1.327 . S
C773 H796 0.950 . S
C774 C773 1.349 . S
C774 C786 1.349 . S
C775 C773 1.327 . S
C775 C791 1.429 . S
C775 H797 0.950 . S
C776 H772 0.949 . S
C776 C784 1.574 . S
C776 C792 1.368 . S
H777 C785 0.950 . S
H778 C783 0.950 . S
H779 C784 0.949 . S
H780 C786 0.950 . S
H781 C787 0.950 . S
H782 C788 0.949 . S
C783 H778 0.950 . S
C783 C785 1.327 . S
C783 C789 1.429 . S
C784 C776 1.574 . S
C784 H779 0.949 . S
C784 C790 1.368 . S
C785 C769 1.349 . S
C785 H777 0.950 . S
C785 C783 1.327 . S
C786 C774 1.349 . S
C786 H780 0.950 . S
C786 C787 1.327 . S
C787 H781 0.950 . S
C787 C786 1.327 . S
C787 C791 1.429 . S
C788 C771 1.574 . S
C788 H782 0.949 . S
C788 C792 1.368 . S
C789 C770 1.429 . S
C789 C783 1.429 . S
C789 C790 1.523 . S
C790 C771 1.368 . S
C790 C784 1.368 . S
C790 C789 1.523 . S
C791 C775 1.429 . S
C791 C787 1.429 . S
C791 C792 1.523 . S
C792 C776 1.368 . S
C792 C788 1.368 . S
C792 C791 1.523 . S
H793 C768 0.950 . S
H794 C770 0.950 . S
H795 C771 0.949 . S
H796 C773 0.950 . S
H797 C775 0.950 . S
C798 C799 1.349 . S
C798 C800 1.327 . S
C798 H823 0.950 . S
C799 C798 1.349 . S
C799 C815 1.349 . S
C800 C798 1.327 . S
C800 C819 1.429 . S
C800 H824 0.950 . S
C801 C818 1.574 . S
C801 C820 1.368 . S
C801 H825 0.949 . S
H802 C806 0.949 . S
C803 C804 1.349 . S
C803 C805 1.327 . S
C803 H826 0.950 . S
C804 C803 1.349 . S
C804 C816 1.349 . S
C805 C803 1.327 . S
C805 C821 1.429 . S
C805 H827 0.950 . S
C806 H802 0.949 . S
C806 C814 1.574 . S
C806 C822 1.368 . S
H807 C815 0.950 . S
H808 C813 0.950 . S
H809 C814 0.949 . S
H810 C816 0.950 . S
H811 C817 0.950 . S
H812 C818 0.949 . S
C813 H808 0.950 . S
C813 C815 1.327 . S
C813 C819 1.429 . S
C814 C806 1.574 . S
C814 H809 0.949 . S
C814 C820 1.368 . S
C815 C799 1.349 . S
C815 H807 0.950 . S
C815 C813 1.327 . S
C816 C804 1.349 . S
C816 H810 0.950 . S
C816 C817 1.327 . S
C817 H811 0.950 . S
C817 C816 1.327 . S
C817 C821 1.429 . S
C818 C801 1.574 . S
C818 H812 0.949 . S
C818 C822 1.368 . S
C819 C800 1.429 . S
C819 C813 1.429 . S
C819 C820 1.523 . S
C820 C801 1.368 . S
C820 C814 1.368 . S
C820 C819 1.523 . S
C821 C805 1.429 . S
C821 C817 1.429 . S
C821 C822 1.523 . S
C822 C806 1.368 . S
C822 C818 1.368 . S
C822 C821 1.523 . S
H823 C798 0.950 . S
H824 C800 0.950 . S
H825 C801 0.949 . S
H826 C803 0.950 . S
H827 C805 0.950 . S
C828 C829 1.349 . S
C828 C830 1.327 . S
C828 H853 0.950 . S
C829 C828 1.349 . S
C829 C845 1.349 . S
C830 C828 1.327 . S
C830 C849 1.429 . S
C830 H854 0.950 . S
C831 C848 1.574 . S
C831 C850 1.368 . S
C831 H855 0.949 . S
H832 C836 0.949 . S
C833 C834 1.349 . S
C833 C835 1.327 . S
C833 H856 0.950 . S
C834 C833 1.349 . S
C834 C846 1.349 . S
C835 C833 1.327 . S
C835 C851 1.429 . S
C835 H857 0.950 . S
C836 H832 0.949 . S
C836 C844 1.574 . S
C836 C852 1.368 . S
H837 C845 0.950 . S
H838 C843 0.950 . S
H839 C844 0.949 . S
H840 C846 0.950 . S
H841 C847 0.950 . S
H842 C848 0.949 . S
C843 H838 0.950 . S
C843 C845 1.327 . S
C843 C849 1.429 . S
C844 C836 1.574 . S
C844 H839 0.949 . S
C844 C850 1.368 . S
C845 C829 1.349 . S
C845 H837 0.950 . S
C845 C843 1.327 . S
C846 C834 1.349 . S
C846 H840 0.950 . S
C846 C847 1.327 . S
C847 H841 0.950 . S
C847 C846 1.327 . S
C847 C851 1.429 . S
C848 C831 1.574 . S
C848 H842 0.949 . S
C848 C852 1.368 . S
C849 C830 1.429 . S
C849 C843 1.429 . S
C849 C850 1.523 . S
C850 C831 1.368 . S
C850 C844 1.368 . S
C850 C849 1.523 . S
C851 C835 1.429 . S
C851 C847 1.429 . S
C851 C852 1.523 . S
C852 C836 1.368 . S
C852 C848 1.368 . S
C852 C851 1.523 . S
H853 C828 0.950 . S
H854 C830 0.950 . S
H855 C831 0.949 . S
H856 C833 0.950 . S
H857 C835 0.950 . S
C858 C859 1.349 . S
C858 C860 1.327 . S
C858 H883 0.950 . S
C859 C858 1.349 . S
C859 C875 1.349 . S
C860 C858 1.327 . S
C860 C879 1.429 . S
C860 H884 0.950 . S
C861 C878 1.574 . S
C861 C880 1.368 . S
C861 H885 0.949 . S
H862 C866 0.949 . S
C863 C864 1.349 . S
C863 C865 1.327 . S
C863 H886 0.950 . S
C864 C863 1.349 . S
C864 C876 1.349 . S
C865 C863 1.327 . S
C865 C881 1.429 . S
C865 H887 0.950 . S
C866 H862 0.949 . S
C866 C874 1.574 . S
C866 C882 1.368 . S
H867 C875 0.950 . S
H868 C873 0.950 . S
H869 C874 0.949 . S
H870 C876 0.950 . S
H871 C877 0.950 . S
H872 C878 0.949 . S
C873 H868 0.950 . S
C873 C875 1.327 . S
C873 C879 1.429 . S
C874 C866 1.574 . S
C874 H869 0.949 . S
C874 C880 1.368 . S
C875 C859 1.349 . S
C875 H867 0.950 . S
C875 C873 1.327 . S
C876 C864 1.349 . S
C876 H870 0.950 . S
C876 C877 1.327 . S
C877 H871 0.950 . S
C877 C876 1.327 . S
C877 C881 1.429 . S
C878 C861 1.574 . S
C878 H872 0.949 . S
C878 C882 1.368 . S
C879 C860 1.429 . S
C879 C873 1.429 . S
C879 C880 1.523 . S
C880 C861 1.368 . S
C880 C874 1.368 . S
C880 C879 1.523 . S
C881 C865 1.429 . S
C881 C877 1.429 . S
C881 C882 1.523 . S
C882 C866 1.368 . S
C882 C878 1.368 . S
C882 C881 1.523 . S
H883 C858 0.950 . S
H884 C860 0.950 . S
H885 C861 0.949 . S
H886 C863 0.950 . S
H887 C865 0.950 . S
C169 C8 1.588 . S
C174 C148 1.588 . S
C199 C22 1.588 . S
C204 C162 1.588 . S
C229 C92 1.588 . S
C234 C36 1.588 . S
C259 C50 1.588 . S
C264 C106 1.588 . S
C289 C120 1.588 . S
C294 C64 1.588 . S
C319 C134 1.588 . S
C324 C78 1.588 . S
C349 C93 0.650 . S
C354 C9 0.650 . S
C379 C107 0.650 . S
C384 C23 0.650 . S
C409 C121 0.650 . S
C414 C37 0.649 . S
C439 C51 0.650 . S
C444 C135 0.650 . S
C469 C65 0.650 . S
C474 C149 0.650 . S
C499 C79 0.649 . S
C504 C163 0.650 . S
C529 C6 1.383 . S
C534 C48 1.383 . S
C559 C20 1.384 . S
C564 C62 1.384 . S
C589 C34 1.383 . S
C594 C76 1.383 . S
C619 C132 1.383 . S
C624 C90 1.383 . S
C649 C146 1.383 . S
C654 C104 1.383 . S
C679 C160 1.382 . S
C684 C118 1.382 . S
C709 C7 1.283 . S
C714 C119 1.283 . S
C739 C133 1.284 . S
C744 C21 1.284 . S
C769 C35 1.284 . S
C774 C147 1.284 . S
C799 C161 1.283 . S
C804 C49 1.283 . S
C829 C63 1.284 . S
C834 C91 1.284 . S
C859 C77 1.284 . S
C864 C105 1.284 . S
