# Generated by pormake.
# Topology whw, (6)-cn, num edge types: 1
# Building blocks:
#     Node 0, Type 0, BuildingBlock: BETFAJ_clean_sbu_0, # of connection points: 6
#     Node 1, Type 0, BuildingBlock: BETFAJ_clean_sbu_0, # of connection points: 6
#     Node 2, Type 0, BuildingBlock: BETFAJ_clean_sbu_0, # of connection points: 6
#     Node 3, Type 0, BuildingBlock: BETFAJ_clean_sbu_0, # of connection points: 6
#     Node 4, Type 0, BuildingBlock: BETFAJ_clean_sbu_0, # of connection points: 6
#     Node 5, Type 0, BuildingBlock: BETFAJ_clean_sbu_0, # of connection points: 6
#     Node 6, Type 0, BuildingBlock: BETFAJ_clean_sbu_0, # of connection points: 6
#     Node 7, Type 0, BuildingBlock: BETFAJ_clean_sbu_0, # of connection points: 6
#     Node 8, Type 0, BuildingBlock: BETFAJ_clean_sbu_0, # of connection points: 6
#     Node 9, Type 0, BuildingBlock: BETFAJ_clean_sbu_0, # of connection points: 6
#     Node 10, Type 0, BuildingBlock: BETFAJ_clean_sbu_0, # of connection points: 6
#     Node 11, Type 0, BuildingBlock: BETFAJ_clean_sbu_0, # of connection points: 6
#     Node 12, Type 0, BuildingBlock: BETFAJ_clean_sbu_0, # of connection points: 6
#     Node 13, Type 0, BuildingBlock: BETFAJ_clean_sbu_0, # of connection points: 6
#     Node 14, Type 0, BuildingBlock: BETFAJ_clean_sbu_0, # of connection points: 6
#     Node 15, Type 0, BuildingBlock: BETFAJ_clean_sbu_0, # of connection points: 6
#     Edge 16, Type (0, 0), BuildingBlock: KIFKEQ_clean_linker_1, # of connection points: 2
#     Edge 17, Type (0, 0), BuildingBlock: KIFKEQ_clean_linker_1, # of connection points: 2
#     Edge 18, Type (0, 0), BuildingBlock: KIFKEQ_clean_linker_1, # of connection points: 2
#     Edge 19, Type (0, 0), BuildingBlock: KIFKEQ_clean_linker_1, # of connection points: 2
#     Edge 20, Type (0, 0), BuildingBlock: KIFKEQ_clean_linker_1, # of connection points: 2
#     Edge 21, Type (0, 0), BuildingBlock: KIFKEQ_clean_linker_1, # of connection points: 2
#     Edge 22, Type (0, 0), BuildingBlock: KIFKEQ_clean_linker_1, # of connection points: 2
#     Edge 23, Type (0, 0), BuildingBlock: KIFKEQ_clean_linker_1, # of connection points: 2
#     Edge 24, Type (0, 0), BuildingBlock: KIFKEQ_clean_linker_1, # of connection points: 2
#     Edge 25, Type (0, 0), BuildingBlock: KIFKEQ_clean_linker_1, # of connection points: 2
#     Edge 26, Type (0, 0), BuildingBlock: KIFKEQ_clean_linker_1, # of connection points: 2
#     Edge 27, Type (0, 0), BuildingBlock: KIFKEQ_clean_linker_1, # of connection points: 2
#     Edge 28, Type (0, 0), BuildingBlock: KIFKEQ_clean_linker_1, # of connection points: 2
#     Edge 29, Type (0, 0), BuildingBlock: KIFKEQ_clean_linker_1, # of connection points: 2
#     Edge 30, Type (0, 0), BuildingBlock: KIFKEQ_clean_linker_1, # of connection points: 2
#     Edge 31, Type (0, 0), BuildingBlock: KIFKEQ_clean_linker_1, # of connection points: 2
#     Edge 32, Type (0, 0), BuildingBlock: KIFKEQ_clean_linker_1, # of connection points: 2
#     Edge 33, Type (0, 0), BuildingBlock: KIFKEQ_clean_linker_1, # of connection points: 2
#     Edge 34, Type (0, 0), BuildingBlock: KIFKEQ_clean_linker_1, # of connection points: 2
#     Edge 35, Type (0, 0), BuildingBlock: KIFKEQ_clean_linker_1, # of connection points: 2
#     Edge 36, Type (0, 0), BuildingBlock: KIFKEQ_clean_linker_1, # of connection points: 2
#     Edge 37, Type (0, 0), BuildingBlock: KIFKEQ_clean_linker_1, # of connection points: 2
#     Edge 38, Type (0, 0), BuildingBlock: KIFKEQ_clean_linker_1, # of connection points: 2
#     Edge 39, Type (0, 0), BuildingBlock: KIFKEQ_clean_linker_1, # of connection points: 2
#     Edge 40, Type (0, 0), BuildingBlock: KIFKEQ_clean_linker_1, # of connection points: 2
#     Edge 41, Type (0, 0), BuildingBlock: KIFKEQ_clean_linker_1, # of connection points: 2
#     Edge 42, Type (0, 0), BuildingBlock: KIFKEQ_clean_linker_1, # of connection points: 2
#     Edge 43, Type (0, 0), BuildingBlock: KIFKEQ_clean_linker_1, # of connection points: 2
#     Edge 44, Type (0, 0), BuildingBlock: KIFKEQ_clean_linker_1, # of connection points: 2
#     Edge 45, Type (0, 0), BuildingBlock: KIFKEQ_clean_linker_1, # of connection points: 2
#     Edge 46, Type (0, 0), BuildingBlock: KIFKEQ_clean_linker_1, # of connection points: 2
#     Edge 47, Type (0, 0), BuildingBlock: KIFKEQ_clean_linker_1, # of connection points: 2
#     Edge 48, Type (0, 0), BuildingBlock: KIFKEQ_clean_linker_1, # of connection points: 2
#     Edge 49, Type (0, 0), BuildingBlock: KIFKEQ_clean_linker_1, # of connection points: 2
#     Edge 50, Type (0, 0), BuildingBlock: KIFKEQ_clean_linker_1, # of connection points: 2
#     Edge 51, Type (0, 0), BuildingBlock: KIFKEQ_clean_linker_1, # of connection points: 2
#     Edge 52, Type (0, 0), BuildingBlock: KIFKEQ_clean_linker_1, # of connection points: 2
#     Edge 53, Type (0, 0), BuildingBlock: KIFKEQ_clean_linker_1, # of connection points: 2
#     Edge 54, Type (0, 0), BuildingBlock: KIFKEQ_clean_linker_1, # of connection points: 2
#     Edge 55, Type (0, 0), BuildingBlock: KIFKEQ_clean_linker_1, # of connection points: 2
#     Edge 56, Type (0, 0), BuildingBlock: KIFKEQ_clean_linker_1, # of connection points: 2
#     Edge 57, Type (0, 0), BuildingBlock: KIFKEQ_clean_linker_1, # of connection points: 2
#     Edge 58, Type (0, 0), BuildingBlock: KIFKEQ_clean_linker_1, # of connection points: 2
#     Edge 59, Type (0, 0), BuildingBlock: KIFKEQ_clean_linker_1, # of connection points: 2
#     Edge 60, Type (0, 0), BuildingBlock: KIFKEQ_clean_linker_1, # of connection points: 2
#     Edge 61, Type (0, 0), BuildingBlock: KIFKEQ_clean_linker_1, # of connection points: 2
#     Edge 62, Type (0, 0), BuildingBlock: KIFKEQ_clean_linker_1, # of connection points: 2
#     Edge 63, Type (0, 0), BuildingBlock: KIFKEQ_clean_linker_1, # of connection points: 2
# Relax obj value: 0.347
# Max RMSD: 0.236
# Mean RMSD: 0.208
data_MOF--net-whw--node1-BETFAJ_clean_sbu_0--edge1-KIFKEQ_clean_linker_1
_symmetry_space_group_name_H-M    P1
_symmetry_Int_Tables_number       1
_symmetry_cell_setting            triclinic
loop_
_symmetry_equiv_pos_as_xyz
'x, y, z'
_cell_length_a     47.259703
_cell_length_b     47.049141
_cell_length_c     35.010521
_cell_angle_alpha  90.053426
_cell_angle_beta   96.093758
_cell_angle_gamma 93.683201
loop_
_atom_site_label
_atom_site_type_symbol
_atom_site_fract_x
_atom_site_fract_y
_atom_site_fract_z
_atom_type_partial_charge
Sm0 Sm 0.07113 0.16532 0.14113 0.0
Sm1 Sm 0.01156 0.14843 0.15767 0.0
C2 C 0.12474 0.16407 0.12618 0.0
C3 C 0.13833 0.15052 0.09564 0.0
C4 C 0.12875 0.12305 0.08225 0.0
C5 C 0.13932 0.11163 0.05028 0.0
C6 C 0.15928 0.12764 1.03064 0.0
C7 C 0.16977 0.15462 0.04522 0.0
C8 C 0.15939 0.16593 0.07752 0.0
C9 C 0.04174 0.20928 0.16609 0.0
C10 C 0.01909 0.18032 0.07656 0.0
C11 C 0.9627 0.13496 0.18534 0.0
C12 C 0.95366 0.13569 0.22406 0.0
C13 C 0.96928 0.15304 0.25238 0.0
C14 C 0.96314 0.15142 0.29035 0.0
C15 C 0.9414 0.13214 0.30083 0.0
C16 C 0.92515 0.11532 0.27217 0.0
C17 C 0.93133 0.11704 0.23399 0.0
C18 C 0.03202 0.11262 0.10587 0.0
C19 C 0.06314 0.15176 0.23211 0.0
O20 O 0.11321 0.14684 0.15027 0.0
O21 O 0.10874 0.18488 0.11535 0.0
O22 O 0.04211 0.18442 0.17831 0.0
O23 O 0.05904 0.21263 0.13969 0.0
O24 O 0.04518 0.17091 0.08126 0.0
O25 O 0.00271 0.17824 0.10515 0.0
O26 O 0.96856 0.15976 0.16983 0.0
O27 O 0.98156 0.11639 0.18063 0.0
O28 O 0.04617 0.12215 0.13648 0.0
O29 O 0.00651 0.12115 0.10306 0.0
O30 O 0.03599 0.1449 0.21958 0.0
O31 O 0.08119 0.16075 0.20753 0.0
H32 H 0.11237 0.11074 0.09563 0.0
H33 H 0.13108 0.09065 0.04013 0.0
H34 H 0.18483 0.1677 1.03051 0.0
H35 H 0.16692 0.1872 0.08736 0.0
H36 H 0.98681 0.16724 0.24534 0.0
H37 H 0.97569 0.16504 0.31161 0.0
H38 H 0.90835 0.10019 0.27946 0.0
H39 H 0.91928 0.10324 0.21247 0.0
Sm40 Sm 0.16425 0.79216 0.45237 0.0
Sm41 Sm 0.16557 0.73471 0.41247 0.0
C42 C 0.15754 0.83524 0.49893 0.0
C43 C 0.14628 0.8415 0.53582 0.0
C44 C 0.11704 0.83748 0.54006 0.0
C45 C 0.10661 0.84517 0.57431 0.0
C46 C 0.12512 0.85699 0.6053 0.0
C47 C 0.15442 0.86068 0.60109 0.0
C48 C 0.16482 0.85311 0.56673 0.0
C49 C 0.21449 0.78321 0.4223 0.0
C50 C 0.17085 0.73373 0.50369 0.0
C51 C 0.17413 0.69362 0.36385 0.0
C52 C 0.16174 0.6844 0.32466 0.0
C53 C 0.17794 0.68805 0.29339 0.0
C54 C 0.16635 0.6798 0.25623 0.0
C55 C 0.13831 0.6675 0.24949 0.0
C56 C 0.12219 0.66373 0.28087 0.0
C57 C 0.13372 0.67206 0.31795 0.0
C58 C 0.11411 0.74348 0.43829 0.0
C59 C 0.14786 0.79219 0.36095 0.0
O60 O 0.13914 0.82737 0.4696 0.0
O61 O 0.18093 0.82162 0.50057 0.0
O62 O 0.20035 0.76488 0.44015 0.0
O63 O 0.20321 0.80761 0.4221 0.0
O64 O 0.16011 0.75893 0.49999 0.0
O65 O 0.18032 0.72111 0.47418 0.0
O66 O 0.18941 0.71788 0.36665 0.0
O67 O 0.15786 0.69002 0.39165 0.0
O68 O 0.12939 0.76219 0.42276 0.0
O69 O 0.12474 0.71878 0.43756 0.0
O70 O 0.1547 0.76532 0.36172 0.0
O71 O 0.14772 0.80727 0.39269 0.0
H72 H 0.10208 0.82876 0.51676 0.0
H73 H 0.08388 0.8424 0.57612 0.0
H74 H 0.16939 0.86934 0.6244 0.0
H75 H 0.18743 0.85658 0.56421 0.0
H76 H 0.19963 0.69734 0.29768 0.0
H77 H 0.17949 0.68273 0.23284 0.0
H78 H 0.10041 0.65468 0.27672 0.0
H79 H 0.12054 0.66895 0.34127 0.0
Sm80 Sm 0.47001 0.87269 0.69243 0.0
Sm81 Sm 0.49408 0.8496 0.61271 0.0
C82 C 0.45911 0.86852 0.76583 0.0
C83 C 0.45471 0.86455 0.80779 0.0
C84 C 0.47263 0.84744 0.83145 0.0
C85 C 0.46755 0.84124 0.86963 0.0
C86 C 0.44404 0.85153 0.88597 0.0
C87 C 0.42636 0.86913 0.8624 0.0
C88 C 0.43162 0.87554 0.8241 0.0
C89 C 0.48305 0.91326 0.63944 0.0
C90 C 0.54053 0.86759 0.68528 0.0
C91 C 0.50582 0.83471 0.54245 0.0
C92 C 0.51254 0.82491 0.50334 0.0
C93 C 0.5155 0.84408 0.47284 0.0
C94 C 0.52194 0.83461 0.43649 0.0
C95 C 0.52625 0.80566 0.4294 0.0
C96 C 0.52347 0.78666 0.46018 0.0
C97 C 0.51644 0.79598 0.49617 0.0
C98 C 0.4825 0.81183 0.66996 0.0
C99 C 0.42628 0.86336 0.61717 0.0
O100 O 0.47795 0.85431 0.7505 0.0
O101 O 0.44653 0.88678 0.74228 0.0
O102 O 0.49548 0.89066 0.64645 0.0
O103 O 0.46516 0.91741 0.6648 0.0
O104 O 0.51906 0.87241 0.70562 0.0
O105 O 0.53729 0.86011 0.64841 0.0
O106 O 0.51161 0.86066 0.5563 0.0
O107 O 0.4935 0.8173 0.56577 0.0
O108 O 0.46809 0.83223 0.65876 0.0
O109 O 0.50329 0.80963 0.64882 0.0
O110 O 0.44841 0.86408 0.59663 0.0
O111 O 0.4286 0.86013 0.65486 0.0
H112 H 0.49066 0.83845 0.82031 0.0
H113 H 0.48233 0.82827 0.88631 0.0
H114 H 0.40784 0.87742 0.87305 0.0
H115 H 0.41709 0.88851 0.80691 0.0
H116 H 0.51272 0.8665 0.47703 0.0
H117 H 0.52417 0.85022 0.41413 0.0
H118 H 0.52652 0.76431 0.45644 0.0
H119 H 0.51444 0.78043 0.51868 0.0
Sm120 Sm 0.35582 0.20497 0.90599 0.0
Sm121 Sm 0.3524 0.26138 0.86327 0.0
C122 C 0.36244 0.16147 0.95386 0.0
C123 C 0.37207 0.15308 0.99348 0.0
C124 C 0.37939 0.17318 1.02313 0.0
C125 C 0.38881 0.16423 0.06036 0.0
C126 C 0.39122 0.13506 0.06844 0.0
C127 C 0.38354 0.11514 0.03853 0.0
C128 C 0.37409 0.12407 1.00155 0.0
C129 C 0.30647 0.21025 0.85754 0.0
C130 C 0.34649 0.26387 0.95323 0.0
C131 C 0.34274 0.30017 0.80926 0.0
C132 C 0.35625 0.30818 0.77413 0.0
C133 C 0.3394 0.31519 0.74047 0.0
C134 C 0.352 0.32264 0.70704 0.0
C135 C 0.38185 0.32337 0.70653 0.0
C136 C 0.39861 0.31613 0.74042 0.0
C137 C 0.38598 0.30849 0.77367 0.0
C138 C 0.40395 0.25619 0.90543 0.0
C139 C 0.37465 0.2044 0.82047 0.0
O140 O 0.382 0.17108 0.9325 0.0
O141 O 0.33895 0.17491 0.94838 0.0
O142 O 0.31851 0.2296 0.87987 0.0
O143 O 0.31955 0.18694 0.86207 0.0
O144 O 0.35752 0.23877 0.95387 0.0
O145 O 0.33732 0.27587 0.92038 0.0
O146 O 0.32858 0.27533 0.8087 0.0
O147 O 0.35803 0.30563 0.8421 0.0
O148 O 0.3897 0.23618 0.88664 0.0
O149 O 0.39237 0.28022 0.89911 0.0
O150 O 0.36614 0.23065 0.81775 0.0
O151 O 0.37516 0.19011 0.85291 0.0
H152 H 0.37805 0.1957 1.01743 0.0
H153 H 0.39478 0.18017 0.08258 0.0
H154 H 0.38468 0.09254 0.04373 0.0
H155 H 0.36842 0.10823 0.97909 0.0
H156 H 0.31641 0.31481 0.73998 0.0
H157 H 0.33826 0.32752 0.68148 0.0
H158 H 0.42162 0.31677 0.74156 0.0
H159 H 0.39954 0.30293 0.79913 0.0
Sm160 Sm 0.03328 0.90267 0.93319 0.0
Sm161 Sm 0.9754 0.89816 0.88511 0.0
C162 C 0.07489 0.91483 0.98864 0.0
C163 C 0.0825 0.90279 1.02701 0.0
C164 C 0.09178 0.92088 0.05829 0.0
C165 C 0.09823 0.90967 0.09501 0.0
C166 C 0.0956 0.88006 0.10114 0.0
C167 C 0.08629 0.86204 0.06955 0.0
C168 C 0.07964 0.87327 1.033 0.0
C169 C 0.02083 0.85045 0.89918 0.0
C170 C 0.97413 0.88211 0.97431 0.0
C171 C 0.93198 0.88864 0.8306 0.0
C172 C 0.92477 0.87625 0.79121 0.0
C173 C 0.9233 0.84664 0.78472 0.0
C174 C 0.9144 0.83515 0.74809 0.0
C175 C 0.9067 0.85288 0.71673 0.0
C176 C 0.90848 0.88253 0.72322 0.0
C177 C 0.91731 0.89402 0.75994 0.0
C178 C 0.99021 0.94959 0.9229 0.0
C179 C 0.0344 0.90732 0.84301 0.0
O180 O 0.05146 0.9284 0.98448 0.0
O181 O 0.07767 0.8985 0.95916 0.0
O182 O 0.00293 0.86488 0.91375 0.0
O183 O 0.04641 0.86244 0.9053 0.0
O184 O 0.00171 0.89017 0.97818 0.0
O185 O 0.95885 0.88143 0.94045 0.0
O186 O 0.93802 0.87116 0.85896 0.0
O187 O 0.94761 0.91269 0.83419 0.0
O188 O 0.00633 0.93546 0.90493 0.0
O189 O 0.96461 0.93741 0.91959 0.0
O190 O 0.00846 0.8949 0.84184 0.0
O191 O 0.04779 0.91787 0.87553 0.0
H192 H 0.09381 0.94374 0.05438 0.0
H193 H 0.10486 0.92427 0.11867 0.0
H194 H 0.0844 0.83914 0.07288 0.0
H195 H 0.07222 0.85882 1.00942 0.0
H196 H 0.92856 0.83218 0.80809 0.0
H197 H 0.91292 0.81222 0.74464 0.0
H198 H 0.90314 0.89698 0.6999 0.0
H199 H 0.91797 0.91689 0.76396 0.0
Sm200 Sm 0.415 0.80267 0.2573 0.0
Sm201 Sm 0.42559 0.74252 0.23102 0.0
C202 C 0.39225 0.84534 0.28945 0.0
C203 C 0.3748 0.84664 0.32148 0.0
C204 C 0.36313 0.8214 0.33613 0.0
C205 C 0.34695 0.82203 0.36706 0.0
C206 C 0.34342 0.84791 0.38562 0.0
C207 C 0.35478 0.87337 0.37007 0.0
C208 C 0.37007 0.87271 0.33803 0.0
C209 C 0.46688 0.79906 0.23028 0.0
C210 C 0.44455 0.7563 0.32045 0.0
C211 C 0.43509 0.69296 0.20011 0.0
C212 C 0.43301 0.68134 0.16107 0.0
C213 C 0.42461 0.69849 0.12987 0.0
C214 C 0.42191 0.68759 0.09259 0.0
C215 C 0.42716 0.65902 0.08586 0.0
C216 C 0.43526 0.6417 0.11744 0.0
C217 C 0.43821 0.65285 0.15482 0.0
C218 C 0.37578 0.74761 0.26396 0.0
C219 C 0.41181 0.79199 0.16364 0.0
O220 O 0.37989 0.83133 0.25922 0.0
O221 O 0.41872 0.83902 0.29853 0.0
O222 O 0.45462 0.78073 0.25029 0.0
O223 O 0.45316 0.82222 0.22845 0.0
O224 O 0.42795 0.77821 0.31525 0.0
O225 O 0.45073 0.74149 0.29067 0.0
O226 O 0.45515 0.71306 0.20887 0.0
O227 O 0.4108 0.69868 0.21193 0.0
O228 O 0.38531 0.76458 0.23972 0.0
O229 O 0.3926 0.72724 0.27138 0.0
O230 O 0.41924 0.76588 0.17226 0.0
O231 O 0.4069 0.81007 0.19102 0.0
H232 H 0.36729 0.8011 0.32425 0.0
H233 H 0.33833 0.80197 0.3773 0.0
H234 H 0.35336 0.8938 0.38367 0.0
H235 H 0.37908 0.89244 0.32709 0.0
H236 H 0.42046 0.72042 0.13441 0.0
H237 H 0.41634 0.7018 0.06907 0.0
H238 H 0.43908 0.61952 0.11336 0.0
H239 H 0.44435 0.6392 0.17879 0.0
Sm240 Sm 0.48357 0.09067 0.42417 0.0
Sm241 Sm 0.54072 0.09752 0.38969 0.0
C242 C 0.44348 0.07736 0.46975 0.0
C243 C 0.43595 0.08983 0.50572 0.0
C244 C 0.42891 0.07204 0.53587 0.0
C245 C 0.42316 0.08369 0.57084 0.0
C246 C 0.42431 0.11343 0.57632 0.0
C247 C 0.43126 0.13115 0.54584 0.0
C248 C 0.43718 0.1195 0.51105 0.0
C249 C 0.49337 0.14326 0.39348 0.0
C250 C 0.54311 0.11321 0.47964 0.0
C251 C 0.58363 0.10789 0.34724 0.0
C252 C 0.59074 0.11969 0.30975 0.0
C253 C 0.59323 0.14924 0.30361 0.0
C254 C 0.60232 0.16014 0.26942 0.0
C255 C 0.60918 0.14183 0.24037 0.0
C256 C 0.60634 0.11225 0.24639 0.0
C257 C 0.59733 0.10135 0.28067 0.0
C258 C 0.5297 0.04625 0.42541 0.0
C259 C 0.48077 0.08622 0.33303 0.0
O260 O 0.46781 0.06543 0.47224 0.0
O261 O 0.43912 0.09256 0.43867 0.0
O262 O 0.51231 0.12929 0.41176 0.0
O263 O 0.46817 0.13093 0.39481 0.0
O264 O 0.51609 0.10328 0.47693 0.0
O265 O 0.55734 0.11566 0.44919 0.0
O266 O 0.57691 0.12564 0.37316 0.0
O267 O 0.56872 0.08343 0.34691 0.0
O268 O 0.51197 0.05917 0.40347 0.0
O269 O 0.55473 0.05949 0.42691 0.0
O270 O 0.50656 0.0991 0.33792 0.0
O271 O 0.46825 0.07554 0.36241 0.0
H272 H 0.42824 0.04909 0.53253 0.0
H273 H 0.41834 0.06936 0.59379 0.0
H274 H 0.43194 0.15411 0.54868 0.0
H275 H 0.4429 0.13374 0.4884 0.0
H276 H 0.5887 0.16407 0.3255 0.0
H277 H 0.60465 0.18303 0.26624 0.0
H278 H 0.61105 0.09744 0.22459 0.0
H279 H 0.59591 0.07849 0.28463 0.0
Sm280 Sm 0.11082 0.19157 0.60674 0.0
Sm281 Sm 0.11076 0.25363 0.58333 0.0
C282 C 0.12308 0.14363 0.6422 0.0
C283 C 0.13658 0.13684 0.68036 0.0
C284 C 0.14602 0.10961 0.68799 0.0
C285 C 0.1586 0.10311 0.72464 0.0
C286 C 0.16195 0.12385 0.75403 0.0
C287 C 0.15307 0.15136 0.74574 0.0
C288 C 0.14049 0.15777 0.70925 0.0
C289 C 0.06271 0.20435 0.56144 0.0
C290 C 0.0865 0.24053 0.6647 0.0
C291 C 0.11043 0.30119 0.54372 0.0
C292 C 0.11021 0.30499 0.50189 0.0
C293 C 0.09207 0.32381 0.48232 0.0
C294 C 0.08966 0.325 0.44217 0.0
C295 C 0.1052 0.30719 0.42098 0.0
C296 C 0.12393 0.28896 0.44076 0.0
C297 C 0.12647 0.28792 0.48076 0.0
C298 C 0.15637 0.2415 0.63461 0.0
C299 C 0.11575 0.20351 0.51627 0.0
O300 O 0.13989 0.15689 0.61972 0.0
O301 O 0.0981 0.15433 0.64124 0.0
O302 O 0.07606 0.2198 0.58768 0.0
O303 O 0.07205 0.17895 0.56252 0.0
O304 O 0.09804 0.21548 0.66167 0.0
O305 O 0.08548 0.25864 0.63561 0.0
O306 O 0.08718 0.28894 0.55532 0.0
O307 O 0.13373 0.29152 0.56112 0.0
O308 O 0.14656 0.22569 0.60614 0.0
O309 O 0.14313 0.26474 0.63498 0.0
O310 O 0.11045 0.22983 0.52497 0.0
O311 O 0.12083 0.18462 0.54376 0.0
H312 H 0.14339 0.09333 0.66576 0.0
H313 H 0.16539 0.0818 0.7301 0.0
H314 H 0.15484 0.16771 0.76782 0.0
H315 H 0.1335 0.179 0.70369 0.0
H316 H 0.07919 0.33695 0.49801 0.0
H317 H 0.07475 0.33901 0.42765 0.0
H318 H 0.13631 0.27516 0.42526 0.0
H319 H 0.14067 0.27316 0.49503 0.0
Sm320 Sm 0.91418 0.30255 0.7467 0.0
Sm321 Sm 0.92122 0.24069 0.72335 0.0
C322 C 0.89526 0.34933 0.77406 0.0
C323 C 0.87881 0.35806 0.80481 0.0
C324 C 0.85832 0.33921 0.81899 0.0
C325 C 0.84294 0.34771 0.84844 0.0
C326 C 0.84834 0.37504 0.86505 0.0
C327 C 0.86857 0.39404 0.84996 0.0
C328 C 0.8835 0.38565 0.81999 0.0
C329 C 0.96427 0.29506 0.71639 0.0
C330 C 0.94262 0.25683 0.81195 0.0
C331 C 0.92825 0.19002 0.69379 0.0
C332 C 0.92797 0.17879 0.65474 0.0
C333 C 0.9261 0.19744 0.62365 0.0
C334 C 0.92342 0.187 0.58617 0.0
C335 C 0.92319 0.1576 0.57908 0.0
C336 C 0.92558 0.13885 0.61038 0.0
C337 C 0.92773 0.14941 0.64805 0.0
C338 C 0.87367 0.24941 0.75963 0.0
C339 C 0.90764 0.28839 0.65344 0.0
O340 O 0.88108 0.33354 0.74676 0.0
O341 O 0.9209 0.34106 0.78442 0.0
O342 O 0.95211 0.27822 0.7384 0.0
O343 O 0.95171 0.31886 0.71404 0.0
O344 O 0.92758 0.27987 0.80604 0.0
O345 O 0.94695 0.24032 0.78277 0.0
O346 O 0.94951 0.20819 0.70561 0.0
O347 O 0.90371 0.19807 0.70227 0.0
O348 O 0.88267 0.26509 0.73363 0.0
O349 O 0.88951 0.2282 0.76664 0.0
O350 O 0.9145 0.26234 0.66334 0.0
O351 O 0.90405 0.30756 0.68011 0.0
H352 H 0.85464 0.31777 0.80778 0.0
H353 H 0.8275 0.3325 0.85895 0.0
H354 H 0.87403 0.41499 0.86243 0.0
H355 H 0.89926 0.40049 0.80931 0.0
H356 H 0.92703 0.22011 0.62842 0.0
H357 H 0.92244 0.20207 0.56275 0.0
H358 H 0.92535 0.11607 0.60571 0.0
H359 H 0.92895 0.13469 0.67185 0.0
Sm360 Sm 0.60743 0.6888 0.11163 0.0
Sm361 Sm 0.61289 0.75068 0.08688 0.0
C362 C 0.61719 0.64022 0.14669 0.0
C363 C 0.63169 0.63326 0.18423 0.0
C364 C 0.6447 0.60742 0.18962 0.0
C365 C 0.65955 0.60138 0.2251 0.0
C366 C 0.66168 0.62125 0.25549 0.0
C367 C 0.6489 0.6473 0.24952 0.0
C368 C 0.63413 0.65326 0.21424 0.0
C369 C 0.56022 0.70612 0.06771 0.0
C370 C 0.58872 0.73976 0.17001 0.0
C371 C 0.61545 0.80073 0.05237 0.0
C372 C 0.61448 0.811 1.01272 0.0
C373 C 0.60884 0.79189 0.98167 0.0
C374 C 0.6102 0.80144 0.94411 0.0
C375 C 0.61686 0.83036 0.937 0.0
C376 C 0.6221 0.84953 0.96817 0.0
C377 C 0.6211 0.83985 1.00579 0.0
C378 C 0.65706 0.73541 0.13857 0.0
C379 C 0.61255 0.69852 1.0206 0.0
O380 O 0.63387 0.65188 0.12273 0.0
O381 O 0.59317 0.65266 0.14704 0.0
O382 O 0.57571 0.72044 0.09318 0.0
O383 O 0.56675 0.67969 0.06902 0.0
O384 O 0.59751 0.71357 0.1668 0.0
O385 O 0.5893 0.7578 0.14085 0.0
O386 O 0.59179 0.78874 0.06306 0.0
O387 O 0.6379 0.78697 0.06407 0.0
O388 O 0.64593 0.71984 0.11049 0.0
O389 O 0.64603 0.75987 0.13812 0.0
O390 O 0.61156 0.726 1.02839 0.0
O391 O 0.61424 0.67959 0.04849 0.0
H392 H 0.64337 0.59196 0.16644 0.0
H393 H 0.66925 0.58119 0.22881 0.0
H394 H 0.64956 0.66287 0.27246 0.0
H395 H 0.62462 0.67353 0.21042 0.0
H396 H 0.60348 0.7696 0.98645 0.0
H397 H 0.60554 0.78631 0.92059 0.0
H398 H 0.62724 0.87193 0.96344 0.0
H399 H 0.62573 0.85485 1.02948 0.0
Sm400 Sm 0.66265 0.29284 0.94893 0.0
Sm401 Sm 0.66577 0.23581 0.90807 0.0
C402 C 0.65567 0.33692 0.99373 0.0
C403 C 0.64601 0.34532 1.0305 0.0
C404 C 0.63855 0.32516 0.05782 0.0
C405 C 0.6293 0.33404 0.09245 0.0
C406 C 0.62719 0.36322 0.10013 0.0
C407 C 0.63494 0.38321 0.07262 0.0
C408 C 0.64425 0.37433 0.03823 0.0
C409 C 0.71324 0.28531 0.91904 0.0
C410 C 0.67059 0.23432 0.9996 0.0
C411 C 0.67531 0.19528 0.85895 0.0
C412 C 0.66331 0.18793 0.81926 0.0
C413 C 0.64219 0.20403 0.80031 0.0
C414 C 0.63015 0.19666 0.76309 0.0
C415 C 0.63872 0.17277 0.74407 0.0
C416 C 0.66008 0.15679 0.76322 0.0
C417 C 0.67227 0.16434 0.80042 0.0
C418 C 0.61375 0.24281 0.9331 0.0
C419 C 0.6477 0.29347 0.8574 0.0
O420 O 0.63615 0.3268 0.96702 0.0
O421 O 0.6793 0.32375 0.99522 0.0
O422 O 0.69953 0.26657 0.93677 0.0
O423 O 0.70113 0.30925 0.91844 0.0
O424 O 0.65959 0.25943 0.99641 0.0
O425 O 0.68007 0.22193 0.96988 0.0
O426 O 0.69094 0.21925 0.86354 0.0
O427 O 0.65765 0.19166 0.88507 0.0
O428 O 0.62876 0.26226 0.9185 0.0
O429 O 0.6249 0.21845 0.93145 0.0
O430 O 0.65626 0.26722 0.85793 0.0
O431 O 0.64554 0.30765 0.88935 0.0
H432 H 0.6397 0.30264 0.05226 0.0
H433 H 0.62323 0.31807 0.11283 0.0
H434 H 0.63397 0.40581 0.07775 0.0
H435 H 0.65005 0.3902 1.01754 0.0
H436 H 0.63479 0.22219 0.81444 0.0
H437 H 0.61415 0.20979 0.74921 0.0
H438 H 0.66699 0.13805 0.74983 0.0
H439 H 0.68842 0.15153 0.81467 0.0
Sm440 Sm 0.8568 0.69892 0.40928 0.0
Sm441 Sm 0.85248 0.75584 0.36807 0.0
C442 C 0.8649 0.65519 0.45641 0.0
C443 C 0.87487 0.64703 0.49603 0.0
C444 C 0.88186 0.6673 0.52554 0.0
C445 C 0.8916 0.65864 0.56278 0.0
C446 C 0.89469 0.62958 0.57103 0.0
C447 C 0.88737 0.60948 0.54125 0.0
C448 C 0.87758 0.61813 0.50424 0.0
C449 C 0.80701 0.70386 0.36161 0.0
C450 C 0.84709 0.75719 0.4581 0.0
C451 C 0.84296 0.79567 0.31542 0.0
C452 C 0.85605 0.8039 0.28003 0.0
C453 C 0.83892 0.81183 0.24706 0.0
C454 C 0.85114 0.8196 0.21346 0.0
C455 C 0.88088 0.81973 0.21206 0.0
C456 C 0.89791 0.81157 0.24524 0.0
C457 C 0.88565 0.80361 0.27866 0.0
C458 C 0.90447 0.74985 0.40907 0.0
C459 C 0.87414 0.69956 0.32304 0.0
O460 O 0.88416 0.6657 0.43516 0.0
O461 O 0.84089 0.66775 0.45103 0.0
O462 O 0.81893 0.72329 0.38404 0.0
O463 O 0.82033 0.68068 0.36594 0.0
O464 O 0.85837 0.73222 0.45792 0.0
O465 O 0.83747 0.76943 0.42562 0.0
O466 O 0.82822 0.77115 0.31459 0.0
O467 O 0.85888 0.80029 0.34796 0.0
O468 O 0.89005 0.73046 0.38939 0.0
O469 O 0.89263 0.7739 0.40487 0.0
O470 O 0.86474 0.72548 0.32104 0.0
O471 O 0.87605 0.68522 0.35548 0.0
H472 H 0.88003 0.68974 0.51972 0.0
H473 H 0.8973 0.67472 0.58489 0.0
H474 H 0.88905 0.58695 0.54657 0.0
H475 H 0.87218 0.60215 0.48189 0.0
H476 H 0.81602 0.81195 0.24727 0.0
H477 H 0.83719 0.82521 0.18844 0.0
H478 H 0.92086 0.81173 0.24571 0.0
H479 H 0.89942 0.79735 0.30355 0.0
Sm480 Sm 0.56851 0.65679 0.64963 0.0
Sm481 Sm 0.507 0.6421 0.6625 0.0
C482 C 0.61957 0.65718 0.62527 0.0
C483 C 0.6311 0.64836 0.59031 0.0
C484 C 0.65972 0.6419 0.59181 0.0
C485 C 0.6704 0.63149 0.55917 0.0
C486 C 0.65249 0.62735 0.52464 0.0
C487 C 0.6238 0.63407 0.52339 0.0
C488 C 0.61316 0.64433 0.556 0.0
C489 C 0.54529 0.69677 0.6914 0.0
C490 C 0.51635 0.6756 0.58354 0.0
C491 C 0.45759 0.62944 0.68941 0.0
C492 C 0.44933 0.63087 0.72853 0.0
C493 C 0.46597 0.64814 0.75601 0.0
C494 C 0.46066 0.6473 0.79429 0.0
C495 C 0.4389 0.62866 0.80613 0.0
C496 C 0.42169 0.61181 0.77838 0.0
C497 C 0.42693 0.61289 0.73976 0.0
C498 C 0.52892 0.6052 0.61427 0.0
C499 C 0.55777 0.64249 0.73779 0.0
O500 O 0.60881 0.63626 0.64491 0.0
O501 O 0.60388 0.67922 0.62245 0.0
O502 O 0.53314 0.6831 0.66281 0.0
O503 O 0.57226 0.69227 0.69628 0.0
O504 O 0.54339 0.66893 0.59078 0.0
O505 O 0.49801 0.67051 0.60929 0.0
O506 O 0.46377 0.65389 0.6734 0.0
O507 O 0.476 0.6105 0.68455 0.0
O508 O 0.54206 0.61472 0.64559 0.0
O509 O 0.50343 0.61388 0.60906 0.0
O510 O 0.53029 0.64261 0.7253 0.0
O511 O 0.57718 0.6437 0.71319 0.0
H512 H 0.67369 0.64454 0.61836 0.0
H513 H 0.69251 0.62634 0.56111 0.0
H514 H 0.60955 0.63171 0.49707 0.0
H515 H 0.59091 0.64895 0.5545 0.0
H516 H 0.48369 0.66169 0.74816 0.0
H517 H 0.47396 0.661 0.81472 0.0
H518 H 0.40486 0.59712 0.78667 0.0
H519 H 0.41414 0.59909 0.71894 0.0
Sm520 Sm 0.95187 0.36637 0.17877 0.0
Sm521 Sm 0.97022 0.3484 0.09427 0.0
C522 C 0.93865 0.36959 0.25143 0.0
C523 C 0.93651 0.35722 0.29121 0.0
C524 C 0.95852 0.36277 0.32134 0.0
C525 C 0.95517 0.35474 0.35964 0.0
C526 C 0.92958 0.34088 0.3697 0.0
C527 C 0.90777 0.33485 0.33931 0.0
C528 C 0.91112 0.34294 0.301 0.0
C529 C 0.98276 0.407 0.13964 0.0
C530 C 0.0048 0.32626 0.17334 0.0
C531 C 0.99537 0.33426 1.03233 0.0
C532 C -0.00044 0.32301 0.99286 0.0
C533 C 0.99481 0.33922 0.95916 0.0
C534 C 0.00218 0.32946 0.92339 0.0
C535 C 0.01504 0.30332 0.91996 0.0
C536 C 0.01945 0.28715 0.95382 0.0
C537 C 0.01175 0.29667 0.9893 0.0
C538 C 0.92311 0.31913 0.12019 0.0
C539 C 0.9166 0.38781 0.10074 0.0
O540 O 0.96375 0.37771 0.24083 0.0
O541 O 0.92027 0.36084 0.22227 0.0
O542 O 0.98613 0.38066 0.14052 0.0
O543 O 0.96423 0.41307 0.16283 0.0
O544 O 0.9829 0.33164 0.19191 0.0
O545 O 0.0072 0.33496 0.13787 0.0
O546 O 0.98686 0.35991 0.0378 0.0
O547 O 0.98989 0.31647 0.05983 0.0
O548 O 0.9458 0.32788 0.13996 0.0
O549 O 0.92622 0.32307 0.08409 0.0
O550 O 0.939 0.38364 0.08176 0.0
O551 O 0.91411 0.37834 0.13609 0.0
H552 H 0.97831 0.37402 0.31552 0.0
H553 H 0.97284 0.35955 0.38146 0.0
H554 H 0.88752 0.32464 0.34518 0.0
H555 H 0.89336 0.33865 0.27913 0.0
H556 H 0.98593 0.3598 0.96052 0.0
H557 H -0.00139 0.34304 0.89865 0.0
H558 H 0.02889 0.26685 0.95314 0.0
H559 H 0.01611 0.28356 1.01439 0.0
Sm560 Sm 0.53693 0.40578 0.43046 0.0
Sm561 Sm 0.47929 0.40001 0.38066 0.0
C562 C 0.57781 0.41934 0.48636 0.0
C563 C 0.5865 0.40747 0.52466 0.0
C564 C 0.58657 0.42438 0.55774 0.0
C565 C 0.59368 0.41309 0.59424 0.0
C566 C 0.60108 0.38468 0.59835 0.0
C567 C 0.6012 0.36785 0.56516 0.0
C568 C 0.59391 0.37907 0.52876 0.0
C569 C 0.52609 0.35337 0.3967 0.0
C570 C 0.47753 0.38406 0.47005 0.0
C571 C 0.43592 0.39011 0.32623 0.0
C572 C 0.42811 0.37833 0.28663 0.0
C573 C 0.42223 0.34889 0.28034 0.0
C574 C 0.41201 0.33818 0.24371 0.0
C575 C 0.40727 0.35657 0.21227 0.0
C576 C 0.41378 0.38596 0.21839 0.0
C577 C 0.42392 0.39669 0.25509 0.0
C578 C 0.49277 0.45138 0.41897 0.0
C579 C 0.53879 0.41043 0.34011 0.0
O580 O 0.5535 0.43143 0.48248 0.0
O581 O 0.58164 0.40392 0.45643 0.0
O582 O 0.50746 0.36758 0.40999 0.0
O583 O 0.55149 0.36539 0.40485 0.0
O584 O 0.50494 0.39276 0.47461 0.0
O585 O 0.46268 0.38288 0.43585 0.0
O586 O 0.44264 0.37228 0.35394 0.0
O587 O 0.45108 0.41443 0.3302 0.0
O588 O 0.50936 0.43764 0.40131 0.0
O589 O 0.46737 0.43876 0.41505 0.0
O590 O 0.51292 0.39776 0.338 0.0
O591 O 0.5517 0.42092 0.37295 0.0
H592 H 0.58091 0.44632 0.55536 0.0
H593 H 0.59363 0.42666 0.61923 0.0
H594 H 0.6064 0.34579 0.56735 0.0
H595 H 0.59381 0.36533 0.5039 0.0
H596 H 0.42499 0.33405 0.30387 0.0
H597 H 0.40771 0.3154 0.24009 0.0
H598 H 0.41019 0.40083 0.19506 0.0
H599 H 0.42783 0.4195 0.25894 0.0
Sm600 Sm 0.98719 0.58764 0.92681 0.0
Sm601 Sm 0.04454 0.59335 0.89381 0.0
C602 C 0.94543 0.57643 0.97077 0.0
C603 C 0.93911 0.58781 1.00787 0.0
C604 C 0.95729 0.6093 1.0268 0.0
C605 C 0.95115 0.62056 0.06172 0.0
C606 C 0.92648 0.61077 0.07826 0.0
C607 C 0.90837 0.58906 0.05917 0.0
C608 C 0.91469 0.57766 1.0243 0.0
C609 C -0.00149 0.63989 0.89544 0.0
C610 C 0.04646 0.6089 0.98349 0.0
C611 C 0.08768 0.60372 0.85175 0.0
C612 C 0.09455 0.61572 0.81427 0.0
C613 C 0.09398 0.64506 0.80685 0.0
C614 C 0.10258 0.6563 0.77256 0.0
C615 C 0.11197 0.63854 0.74467 0.0
C616 C 0.11218 0.60912 0.75199 0.0
C617 C 0.10367 0.5979 0.78637 0.0
C618 C 0.03305 0.54227 0.92973 0.0
C619 C 0.98496 0.58209 0.83607 0.0
O620 O 0.96803 0.56174 0.97177 0.0
O621 O 0.94364 0.59423 0.94215 0.0
O622 O 0.01667 0.62592 0.91524 0.0
O623 O 0.97324 0.62725 0.89411 0.0
O624 O 0.01944 0.59902 0.98025 0.0
O625 O 0.06095 0.61146 0.95331 0.0
O626 O 0.08095 0.62136 0.87779 0.0
O627 O 0.07279 0.57925 0.85127 0.0
O628 O 0.01537 0.55517 0.90753 0.0
O629 O 0.05816 0.55535 0.93131 0.0
O630 O 0.01087 0.5947 0.84129 0.0
O631 O 0.97205 0.57189 0.86537 0.0
H632 H 0.97618 0.61753 1.01445 0.0
H633 H 0.96584 0.63688 0.07579 0.0
H634 H 0.88901 0.58125 0.07074 0.0
H635 H 0.90034 0.56115 1.00998 0.0
H636 H 0.08734 0.65952 0.82779 0.0
H637 H 0.10251 0.67909 0.7684 0.0
H638 H 0.11887 0.59468 0.7311 0.0
H639 H 0.10455 0.57524 0.79136 0.0
H640 H 0.12315 0.1013 0.97385 0.0
H641 H 0.21099 0.13271 1.00089 0.0
H642 H 0.13177 0.09277 0.90822 0.0
H643 H 0.21965 0.12426 0.93429 0.0
H644 H 0.14814 0.07531 0.79255 0.0
H645 H 0.15523 0.06796 0.86158 0.0
H646 H 0.20364 0.14908 0.87567 0.0
H647 H 0.19785 0.15572 0.80644 0.0
C648 C 0.14461 0.1055 0.96615 0.0
C649 C 0.16633 0.11791 0.99264 0.0
C650 C 0.14959 0.10054 0.92832 0.0
C651 C 0.1764 0.10793 0.91592 0.0
C652 C 0.19868 0.11866 0.94292 0.0
C653 C 0.19369 0.12358 0.98097 0.0
C654 C 0.16125 0.09106 0.81018 0.0
C655 C 0.17187 0.11643 0.79416 0.0
C656 C 0.16508 0.08696 0.84981 0.0
C657 C 0.17938 0.10823 0.87417 0.0
C658 C 0.19248 0.13225 0.85777 0.0
C659 C 0.18882 0.13626 0.81811 0.0
H660 H 0.13516 0.76565 0.2911 0.0
H661 H 0.14209 0.84871 0.34541 0.0
H662 H 0.12207 0.78741 0.22904 0.0
H663 H 0.12902 0.87041 0.28315 0.0
H664 H 0.13843 0.89811 0.15692 0.0
H665 H 0.15025 0.87751 0.22009 0.0
H666 H 0.08105 0.81341 0.19677 0.0
H667 H 0.06854 0.83439 0.13414 0.0
C668 C 0.13389 0.78854 0.28986 0.0
C669 C 0.13965 0.80543 0.32329 0.0
C670 C 0.12623 0.80097 0.2543 0.0
C671 C 0.12449 0.83061 0.25124 0.0
C672 C 0.13039 0.84753 0.28459 0.0
C673 C 0.13771 0.83507 0.32027 0.0
C674 C 0.1254 0.8799 0.1654 0.0
C675 C 0.10256 0.86791 0.14016 0.0
C676 C 0.13227 0.86805 0.20159 0.0
C677 C 0.11667 0.84376 0.2133 0.0
C678 C 0.09373 0.83187 0.18831 0.0
C679 C 0.08666 0.84388 0.15231 0.0
H680 H 0.31661 0.89023 0.42057 0.0
H681 H 0.3456 0.80542 0.44 0.0
H682 H 0.31942 0.89749 0.48984 0.0
H683 H 0.34642 0.81219 0.50759 0.0
H684 H 0.37743 0.82987 0.62154 0.0
H685 H 0.33587 0.82735 0.57297 0.0
H686 H 0.37112 0.90187 0.51815 0.0
H687 H 0.41235 0.90381 0.56581 0.0
C688 C 0.32262 0.87278 0.43919 0.0
C689 C 0.3328 0.84799 0.42434 0.0
C690 C 0.32362 0.8768 0.4789 0.0
C691 C 0.33427 0.85584 0.50409 0.0
C692 C 0.33849 0.82899 0.48904 0.0
C693 C 0.33814 0.82518 0.44959 0.0
C694 C 0.37551 0.84628 0.59992 0.0
C695 C 0.39815 0.86654 0.59637 0.0
C696 C 0.35172 0.84498 0.57235 0.0
C697 C 0.35041 0.86413 0.54142 0.0
C698 C 0.3713 0.88683 0.54157 0.0
C699 C 0.39519 0.88775 0.56851 0.0
H700 H 0.38614 0.22989 0.75318 0.0
H701 H 0.38342 0.14813 0.80933 0.0
H702 H 0.39916 0.20735 0.69536 0.0
H703 H 0.39651 0.12563 0.75132 0.0
H704 H 0.38435 0.0946 0.62371 0.0
H705 H 0.37397 0.11599 0.68376 0.0
H706 H 0.43986 0.18251 0.67311 0.0
H707 H 0.45084 0.16084 0.61362 0.0
C708 C 0.38843 0.20713 0.75329 0.0
C709 C 0.38373 0.19081 0.78593 0.0
C710 C 0.39604 0.19425 0.72018 0.0
C711 C 0.39884 0.16471 0.71878 0.0
C712 C 0.39428 0.1484 0.75145 0.0
C713 C 0.38697 0.16133 0.78474 0.0
C714 C 0.39696 0.11353 0.63439 0.0
C715 C 0.41836 0.12602 0.61356 0.0
C716 C 0.39095 0.12582 0.66881 0.0
C717 C 0.40602 0.151 0.68307 0.0
C718 C 0.42759 0.16334 0.66254 0.0
C719 C 0.43379 0.15094 0.62834 0.0
H720 H 0.9271 0.79821 0.18284 0.0
H721 H 0.86492 0.86122 0.16001 0.0
H722 H 0.94949 0.81345 0.12606 0.0
H723 H 0.88694 0.87579 0.10262 0.0
H724 H 0.91701 0.87238 0.98107 0.0
H725 H 0.89438 0.85717 0.03787 0.0
H726 H 0.97713 0.85581 0.10297 0.0
H727 H -0.00017 0.87101 0.04626 0.0
C728 C 0.91824 0.81543 0.16598 0.0
C729 C 0.89413 0.82849 0.17643 0.0
C730 C 0.93109 0.82411 0.13327 0.0
C731 C 0.92007 0.84589 0.10976 0.0
C732 C 0.8958 0.85872 0.11981 0.0
C733 C 0.88309 0.85025 0.15275 0.0
C734 C 0.93042 0.86884 1.00746 0.0
C735 C 0.96028 0.87293 1.00896 0.0
C736 C 0.9174 0.86026 0.04012 0.0
C737 C 0.93391 0.85523 0.07502 0.0
C738 C 0.96378 0.85921 0.07648 0.0
C739 C 0.97678 0.8681 0.04396 0.0
H740 H 0.98037 0.2161 0.83117 0.0
H741 H 0.93231 0.27743 0.88377 0.0
H742 H -0.00203 0.19904 0.89387 0.0
H743 H 0.95067 0.26065 0.94752 0.0
H744 H 0.96741 0.20396 0.05604 0.0
H745 H 0.94955 0.22378 0.99417 0.0
H746 H 0.02855 0.20701 0.94938 0.0
H747 H 0.0459 0.18662 1.01061 0.0
C748 C 0.97356 0.22618 0.85616 0.0
C749 C 0.95456 0.24817 0.85179 0.0
C750 C 0.98399 0.21642 0.89261 0.0
C751 C 0.97595 0.22816 0.92664 0.0
C752 C 0.95714 0.25049 0.92239 0.0
C753 C 0.94675 0.26041 0.88563 0.0
C754 C 0.98096 0.20437 1.03294 0.0
C755 C 0.0081 0.19319 0.03866 0.0
C756 C 0.97074 0.21604 0.99726 0.0
C757 C 0.98723 0.21693 0.96582 0.0
C758 C 0.01461 0.20623 0.97201 0.0
C759 C 0.02479 0.19461 1.00759 0.0
H760 H 0.58255 0.17516 0.71531 0.0
H761 H 0.66365 0.15104 0.68363 0.0
H762 H 0.56019 0.16192 0.65152 0.0
H763 H 0.6409 0.13629 0.62035 0.0
H764 H 0.59674 0.13907 0.49737 0.0
H765 H 0.61984 0.15385 0.56053 0.0
H766 H 0.5454 0.12138 0.61235 0.0
H767 H 0.52207 0.1074 0.54931 0.0
C768 C 0.5957 0.1671 0.69476 0.0
C769 C 0.62502 0.16431 0.70484 0.0
C770 C 0.58273 0.15908 0.6582 0.0
C771 C 0.59862 0.14786 0.6306 0.0
C772 C 0.62797 0.14511 0.64061 0.0
C773 C 0.64098 0.15324 0.67718 0.0
C774 C 0.58528 0.13512 0.52223 0.0
C775 C 0.55747 0.1221 0.51809 0.0
C776 C 0.59862 0.14345 0.55857 0.0
C777 C 0.58455 0.1389 0.59176 0.0
C778 C 0.55679 0.12573 0.58752 0.0
C779 C 0.54343 0.11752 0.55124 0.0
H780 H 0.50803 0.82378 0.35561 0.0
H781 H 0.56232 0.76373 0.41416 0.0
H782 H 0.52125 0.80768 0.29397 0.0
H783 H 0.57589 0.74798 0.35292 0.0
H784 H 0.58162 0.70818 0.23536 0.0
H785 H 0.56516 0.72295 0.29555 0.0
H786 H 0.55581 0.80768 0.25076 0.0
H787 H 0.57142 0.7925 0.1901 0.0
C788 C 0.52303 0.80733 0.3556 0.0
C789 C 0.53406 0.79538 0.39067 0.0
C790 C 0.53073 0.798 0.31987 0.0
C791 C 0.54998 0.77639 0.31751 0.0
C792 C 0.56073 0.76427 0.35263 0.0
C793 C 0.5529 0.77347 0.38826 0.0
C794 C 0.57604 0.72999 0.23817 0.0
C795 C 0.57818 0.74903 0.20733 0.0
C796 C 0.56668 0.73865 0.27317 0.0
C797 C 0.55915 0.76682 0.27911 0.0
C798 C 0.56101 0.78577 0.24797 0.0
C799 C 0.57027 0.77705 0.21288 0.0
H800 H 0.65684 0.57041 0.29294 0.0
H801 H 0.69545 0.65607 0.3065 0.0
H802 H 0.66599 0.56319 0.36176 0.0
H803 H 0.70251 0.64977 0.3754 0.0
H804 H 0.70413 0.64183 0.4984 0.0
H805 H 0.71841 0.63142 0.43528 0.0
H806 H 0.6392 0.58067 0.40772 0.0
H807 H 0.6261 0.58941 0.47135 0.0
C808 C 0.66799 0.58746 0.31044 0.0
C809 C 0.67448 0.61418 0.29453 0.0
C810 C 0.67292 0.58344 0.35004 0.0
C811 C 0.6839 0.60623 0.37442 0.0
C812 C 0.69377 0.63172 0.3578 0.0
C813 C 0.68932 0.63554 0.3182 0.0
C814 C 0.69027 0.62764 0.47928 0.0
C815 C 0.66361 0.61708 0.48943 0.0
C816 C 0.69834 0.62187 0.44294 0.0
C817 C 0.67974 0.60573 0.41593 0.0
C818 C 0.65427 0.59309 0.42756 0.0
C819 C 0.64641 0.59856 0.46394 0.0
H820 H 0.63041 0.34742 0.8437 0.0
H821 H 0.64862 0.27061 0.78567 0.0
H822 H 0.61968 0.37013 0.78173 0.0
H823 H 0.63713 0.293 0.72393 0.0
H824 H 0.64458 0.35079 0.62102 0.0
H825 H 0.65576 0.32935 0.68369 0.0
H826 H 0.58502 0.36901 0.72578 0.0
H827 H 0.57407 0.39073 0.66309 0.0
C828 C 0.63194 0.33529 0.81778 0.0
C829 C 0.64039 0.30716 0.81977 0.0
C830 C 0.62563 0.34828 0.7822 0.0
C831 C 0.62759 0.33346 0.74776 0.0
C832 C 0.63583 0.30525 0.74982 0.0
C833 C 0.6422 0.2923 0.78533 0.0
C834 C 0.63135 0.35484 0.64362 0.0
C835 C 0.60839 0.3724 0.63702 0.0
C836 C 0.63771 0.3425 0.67955 0.0
C837 C 0.6212 0.34729 0.7098 0.0
C838 C 0.59842 0.36514 0.70332 0.0
C839 C 0.59212 0.37759 0.66738 0.0
H840 H 0.91755 0.43012 0.04851 0.0
H841 H 0.86049 0.37136 0.10244 0.0
H842 H 0.8811 0.43569 0.99548 0.0
H843 H 0.82369 0.37667 0.04884 0.0
H844 H 0.8365 0.33908 0.92369 0.0
H845 H 0.8353 0.35265 0.9895 0.0
H846 H 0.8339 0.44113 0.95717 0.0
H847 H 0.83376 0.42739 0.88994 0.0
C848 C 0.89665 0.41947 0.04982 0.0
C849 C 0.89199 0.39966 0.07869 0.0
C850 C 0.87554 0.42286 1.01958 0.0
C851 C 0.84977 0.40589 1.01741 0.0
C852 C 0.84352 0.38967 0.04955 0.0
C853 C 0.86459 0.3866 0.08019 0.0
C854 C 0.83431 0.36133 0.92982 0.0
C855 C 0.83673 0.38227 0.90151 0.0
C856 C 0.83347 0.36918 0.96802 0.0
C857 C 0.83558 0.3981 0.97871 0.0
C858 C 0.83297 0.4187 0.94977 0.0
C859 C 0.83335 0.41081 0.91133 0.0
H860 H 0.86969 0.7212 0.25037 0.0
H861 H 0.89783 0.64835 0.31557 0.0
H862 H 0.88234 0.6995 0.19203 0.0
H863 H 0.91126 0.62695 0.25717 0.0
H864 H 0.90343 0.58388 0.13855 0.0
H865 H 0.89092 0.60521 0.19746 0.0
H866 H 0.92243 0.68782 0.16055 0.0
H867 H 0.9335 0.6668 0.10089 0.0
C868 C 0.87879 0.70063 0.25237 0.0
C869 C 0.88272 0.68654 0.28776 0.0
C870 C 0.88622 0.68824 0.21885 0.0
C871 C 0.8979 0.66145 0.21979 0.0
C872 C 0.90196 0.64741 0.25524 0.0
C873 C 0.89443 0.65978 0.28881 0.0
C874 C 0.90741 0.60664 0.1428 0.0
C875 C 0.91945 0.62357 0.11481 0.0
C876 C 0.90058 0.61884 0.17687 0.0
C877 C 0.90565 0.64828 0.18387 0.0
C878 C 0.91787 0.66515 0.15599 0.0
C879 C 0.9246 0.65299 0.12192 0.0
H880 H 0.50243 0.37449 0.5429 0.0
H881 H 0.42035 0.37286 0.47529 0.0
H882 H 0.47915 0.3596 0.59924 0.0
H883 H 0.39713 0.35795 0.53176 0.0
H884 H 0.36566 0.36353 0.65264 0.0
H885 H 0.38825 0.37752 0.59547 0.0
H886 H 0.45209 0.31705 0.62294 0.0
H887 H 0.42915 0.30236 0.67952 0.0
C888 C 0.47943 0.37096 0.53997 0.0
C889 C 0.46331 0.37488 0.50441 0.0
C890 C 0.46609 0.36225 0.5723 0.0
C891 C 0.43625 0.35754 0.57007 0.0
C892 C 0.42012 0.36162 0.53458 0.0
C893 C 0.43347 0.37002 0.50213 0.0
C894 C 0.38425 0.35283 0.64632 0.0
C895 C 0.39548 0.33177 0.67106 0.0
C896 C 0.39727 0.36097 0.6135 0.0
C897 C 0.42206 0.3485 0.60464 0.0
C898 C 0.43328 0.32741 0.62921 0.0
C899 C 0.42011 0.31906 0.66181 0.0
H900 H 0.54643 0.68677 0.52119 0.0
H901 H 0.4636 0.69535 0.55955 0.0
H902 H 0.53029 0.70811 0.45993 0.0
H903 H 0.44722 0.71627 0.49795 0.0
H904 H 0.48468 0.71772 0.33916 0.0
H905 H 0.50172 0.69969 0.4017 0.0
H906 H 0.449 0.75609 0.45554 0.0
H907 H 0.43125 0.77377 0.3921 0.0
C908 C 0.52471 0.69313 0.51665 0.0
C909 C 0.50641 0.68906 0.54572 0.0
C910 C 0.51529 0.7053 0.48113 0.0
C911 C 0.48719 0.714 0.47324 0.0
C912 C 0.46904 0.71028 0.50261 0.0
C913 C 0.47844 0.69799 0.53809 0.0
C914 C 0.47659 0.72642 0.3642 0.0
C915 C 0.45622 0.74716 0.36006 0.0
C916 C 0.48664 0.71612 0.40048 0.0
C917 C 0.47679 0.72606 0.43436 0.0
C918 C 0.45682 0.74731 0.43037 0.0
C919 C 0.44677 0.75775 0.39385 0.0
H920 H 0.10505 0.61913 0.22785 0.0
H921 H 0.14329 0.69567 0.18161 0.0
H922 H 0.08359 0.60506 0.16373 0.0
H923 H 0.12174 0.68161 0.11734 0.0
H924 H 0.10066 0.63303 1.00247 0.0
H925 H 0.12349 0.64682 0.06623 0.0
H926 H 0.04662 0.6188 0.11567 0.0
H927 H 0.02406 0.60448 0.05235 0.0
C928 C 0.10872 0.63308 0.20404 0.0
C929 C 0.12583 0.65861 0.21 0.0
C930 C 0.09639 0.62501 0.16721 0.0
C931 C 0.10079 0.64224 0.13528 0.0
C932 C 0.11818 0.66762 0.14114 0.0
C933 C 0.13054 0.6757 0.17803 0.0
C934 C 0.08863 0.62977 1.02694 0.0
C935 C 0.06049 0.61761 1.02214 0.0
C936 C 0.10169 0.63785 0.06351 0.0
C937 C 0.08695 0.63389 0.0962 0.0
C938 C 0.05879 0.62179 0.0913 0.0
C939 C 0.04575 0.61376 0.05481 0.0
H940 H 0.08602 0.21075 0.7331 0.0
H941 H 0.06014 0.28929 0.68106 0.0
H942 H 0.06782 0.22461 0.79277 0.0
H943 H 0.0425 0.30344 0.7408 0.0
H944 H 0.9916 0.31277 0.84469 0.0
H945 H 0.00745 0.29728 0.7844 0.0
H946 H 0.07571 0.25483 0.84742 0.0
H947 H 0.06022 0.27049 0.90749 0.0
C948 C 0.07653 0.23104 0.73423 0.0
C949 C 0.07485 0.24879 0.70171 0.0
C950 C 0.06615 0.23918 0.76885 0.0
C951 C 0.05357 0.26542 0.77249 0.0
C952 C 0.05167 0.283 0.73972 0.0
C953 C 0.06208 0.27488 0.70517 0.0
C954 C 0.01021 0.3004 0.84599 0.0
C955 C 0.02442 0.29321 0.88194 0.0
C956 C 0.01935 0.29134 0.81097 0.0
C957 C 0.0431 0.27461 0.81019 0.0
C958 C 0.0571 0.26719 0.84611 0.0
C959 C 0.04804 0.27629 0.88105 0.0
H960 H 0.90981 0.30837 0.19351 0.0
H961 H 0.89502 0.27374 0.07911 0.0
H962 H 0.93297 0.26621 0.2155 0.0
H963 H 0.91691 0.23063 0.10107 0.0
H964 H 0.01693 0.24391 0.11179 0.0
H965 H 0.96769 0.25673 0.10723 0.0
H966 H 0.95861 0.22051 0.2191 0.0
H967 H 0.00866 0.20869 0.22405 0.0
C968 C 0.90924 0.29067 0.17362 0.0
C969 C 0.90515 0.29538 0.13386 0.0
C970 C 0.92272 0.26636 0.18631 0.0
C971 C 0.9293 0.24678 0.1588 0.0
C972 C 0.91375 0.24665 0.12221 0.0
C973 C 0.90095 0.27139 0.10965 0.0
C974 C 0.00463 0.23932 0.13572 0.0
C975 C 0.01614 0.22483 0.16791 0.0
C976 C 0.97615 0.24571 0.13267 0.0
C977 C 0.9588 0.23786 0.16188 0.0
C978 C 0.97113 0.22562 0.19555 0.0
C979 C -0.00031 0.21926 0.19855 0.0
H980 H 0.93702 0.70437 0.40594 0.0
H981 H 0.93954 0.79146 0.44594 0.0
H982 H 0.98843 0.70399 0.42224 0.0
H983 H 0.99095 0.79098 0.46298 0.0
H984 H 0.07908 0.70472 0.47025 0.0
H985 H 0.02789 0.70643 0.47306 0.0
H986 H 0.03091 0.79073 0.42405 0.0
H987 H 0.08227 0.7892 0.42208 0.0
C988 C 0.94853 0.72322 0.41894 0.0
C989 C 0.93451 0.74807 0.42414 0.0
C990 C 0.97793 0.72299 0.42852 0.0
C991 C 0.99376 0.74758 0.4436 0.0
C992 C 0.97937 0.77189 0.45083 0.0
C993 C 0.94998 0.77212 0.44122 0.0
C994 C 0.06882 0.72379 0.46067 0.0
C995 C 0.08439 0.74664 0.4453 0.0
C996 C 0.03955 0.72472 0.46217 0.0
C997 C 0.02532 0.74851 0.44825 0.0
C998 C 0.04129 0.77215 0.43522 0.0
C999 C 0.07065 0.77125 0.43385 0.0
H1000 H 0.48887 0.70274 0.68607 0.0
H1001 H 0.56546 0.71527 0.76441 0.0
H1002 H 0.46259 0.72678 0.7295 0.0
H1003 H 0.53946 0.74249 0.80728 0.0
H1004 H 0.52927 0.81406 0.72163 0.0
H1005 H 0.53495 0.78916 0.78192 0.0
H1006 H 0.44571 0.76348 0.76989 0.0
H1007 H 0.43905 0.79144 0.71075 0.0
C1008 C 0.50003 0.71049 0.713 0.0
C1009 C 0.52948 0.70873 0.72082 0.0
C1010 C 0.48488 0.72418 0.73855 0.0
C1011 C 0.49963 0.73955 0.76999 0.0
C1012 C 0.52781 0.73255 0.7819 0.0
C1013 C 0.54295 0.71781 0.75681 0.0
C1014 C 0.51072 0.80354 0.73211 0.0
C1015 C 0.4843 0.80197 0.70971 0.0
C1016 C 0.51362 0.78972 0.7673 0.0
C1017 C 0.49179 0.76951 0.77515 0.0
C1018 C 0.46386 0.77591 0.76081 0.0
C1019 C 0.46012 0.7909 0.72616 0.0
H1020 H 0.5876 0.28951 0.95405 0.0
H1021 H 0.57221 0.2005 0.92399 0.0
H1022 H 0.53674 0.29296 0.95866 0.0
H1023 H 0.52157 0.20415 0.92514 0.0
H1024 H 0.43078 0.21118 0.93758 0.0
H1025 H 0.48189 0.20854 0.95544 0.0
H1026 H 0.49588 0.29576 0.91863 0.0
H1027 H 0.44501 0.29877 0.9043 0.0
C1028 C 0.57323 0.27077 0.94833 0.0
C1029 C 0.5836 0.24488 0.93835 0.0
C1030 C 0.54408 0.27268 0.95067 0.0
C1031 C 0.52471 0.24892 0.94179 0.0
C1032 C 0.53556 0.22283 0.93298 0.0
C1033 C 0.56469 0.22076 0.93183 0.0
C1034 C 0.44496 0.2298 0.9341 0.0
C1035 C 0.4342 0.25502 0.91931 0.0
C1036 C 0.47425 0.22833 0.94399 0.0
C1037 C 0.49335 0.25179 0.93793 0.0
C1038 C 0.48213 0.27734 0.92444 0.0
C1039 C 0.45286 0.27903 0.91576 0.0
H1040 H 0.05771 0.81724 0.86913 0.0
H1041 H 0.97258 0.81593 0.90371 0.0
H1042 H 0.05251 0.76582 0.85903 0.0
H1043 H 0.96751 0.76434 0.89434 0.0
H1044 H 0.04673 0.6747 0.91178 0.0
H1045 H 0.05128 0.72629 0.90407 0.0
H1046 H 0.96491 0.72452 0.84886 0.0
H1047 H 0.96025 0.67304 0.85723 0.0
C1048 C 0.03776 0.80593 0.87416 0.0
C1049 C 0.01569 0.82035 0.88779 0.0
C1050 C 0.03484 0.77652 0.86852 0.0
C1051 C 0.00979 0.76101 0.8764 0.0
C1052 C 0.98703 0.77574 0.88778 0.0
C1053 C 0.98994 0.80523 0.89335 0.0
C1054 C 0.02893 0.68533 0.89747 0.0
C1055 C 0.00302 0.67008 0.88567 0.0
C1056 C 0.03154 0.71483 0.89284 0.0
C1057 C 0.0083 0.72947 0.8762 0.0
C1058 C 0.98297 0.71387 0.86238 0.0
C1059 C 0.98037 0.68443 0.86704 0.0
H1060 H 0.54667 0.75507 1.03151 0.0
H1061 H 0.50931 0.67872 0.07816 0.0
H1062 H 0.51838 0.78386 0.06844 0.0
H1063 H 0.48071 0.70706 0.11478 0.0
H1064 H 0.49814 0.75319 0.22803 0.0
H1065 H 0.50943 0.73003 0.16994 0.0
H1066 H 0.48098 0.80181 0.10264 0.0
H1067 H 0.47099 0.82555 0.16143 0.0
C1068 C 0.53067 0.74437 0.04736 0.0
C1069 C 0.53181 0.7152 0.05529 0.0
C1070 C 0.51472 0.76091 0.06901 0.0
C1071 C 0.49882 0.74763 0.0964 0.0
C1072 C 0.49366 0.71783 0.0949 0.0
C1073 C 0.50974 0.70149 0.07329 0.0
C1074 C 0.49484 0.76418 0.20088 0.0
C1075 C 0.48259 0.79044 0.19876 0.0
C1076 C 0.50062 0.75073 0.16751 0.0
C1077 C 0.49412 0.76331 0.13146 0.0
C1078 C 0.48517 0.79119 0.1299 0.0
C1079 C 0.47981 0.80487 0.16356 0.0
H1080 H 0.45473 0.18303 0.39424 0.0
H1081 H 0.54119 0.17123 0.37156 0.0
H1082 H 0.46256 0.23389 0.38673 0.0
H1083 H 0.54869 0.22226 0.36061 0.0
H1084 H 0.56488 0.31358 0.406 0.0
H1085 H 0.55671 0.26271 0.39699 0.0
H1086 H 0.46926 0.27414 0.35173 0.0
H1087 H 0.47722 0.32527 0.36407 0.0
C1088 C 0.47527 0.19139 0.38663 0.0
C1089 C 0.49757 0.17346 0.38412 0.0
C1090 C 0.47972 0.22063 0.38183 0.0
C1091 C 0.50639 0.23252 0.37333 0.0
C1092 C 0.52813 0.2141 0.36827 0.0
C1093 C 0.52388 0.18486 0.37427 0.0
C1094 C 0.54396 0.3052 0.39385 0.0
C1095 C 0.52149 0.32313 0.38632 0.0
C1096 C 0.5393 0.27593 0.38821 0.0
C1097 C 0.5122 0.26398 0.37388 0.0
C1098 C 0.4902 0.28237 0.36389 0.0
C1099 C 0.4947 0.31166 0.37066 0.0
H1100 H 0.04621 0.25114 0.52223 0.0
H1101 H 0.01367 0.17274 0.56902 0.0
H1102 H 0.01387 0.27747 0.55562 0.0
H1103 H 0.98119 0.19847 0.60244 0.0
H1104 H 0.96715 0.31893 0.64578 0.0
H1105 H 0.97669 0.29382 0.58799 0.0
H1106 H 0.00404 0.22284 0.65801 0.0
H1107 H 0.99286 0.24735 0.715 0.0
C1108 C 0.03045 0.23929 0.53728 0.0
C1109 C 0.03389 0.21066 0.54652 0.0
C1110 C 0.01207 0.25445 0.55694 0.0
C1111 C -0.0037 0.24019 0.58377 0.0
C1112 C 0.99379 0.2102 0.58302 0.0
C1113 C 0.01221 0.19526 0.56327 0.0
C1114 C 0.97545 0.29803 0.64865 0.0
C1115 C 0.97831 0.28444 0.68443 0.0
C1116 C 0.98059 0.28355 0.61554 0.0
C1117 C 0.98959 0.25569 0.61807 0.0
C1118 C 0.99529 0.24351 0.6546 0.0
C1119 C 0.98959 0.25774 0.68742 0.0
H1120 H 0.02201 0.05781 0.12641 0.0
H1121 H 0.05127 0.11013 0.03577 0.0
H1122 H 0.01541 0.01662 0.08284 0.0
H1123 H 0.04486 0.06896 0.99196 0.0
H1124 H 0.04144 0.98103 0.92937 0.0
H1125 H 0.05816 0.01876 0.9765 0.0
H1126 H 0.97847 0.00796 1.02633 0.0
H1127 H 0.96182 0.97064 0.97931 0.0
C1128 C 0.02824 0.06013 0.09761 0.0
C1129 C 0.03771 0.08692 0.08461 0.0
C1130 C 0.02403 0.0367 0.07246 0.0
C1131 C 0.02922 0.03959 0.03374 0.0
C1132 C 0.04079 0.06596 1.0216 0.0
C1133 C 0.04469 0.08949 0.04672 0.0
C1134 C 0.02753 0.98684 0.95038 0.0
C1135 C 0.00026 0.97297 0.95054 0.0
C1136 C 0.0371 0.0084 0.97735 0.0
C1137 C 0.01979 0.01619 1.00545 0.0
C1138 C 0.99257 0.00218 1.00554 0.0
C1139 C 0.98288 0.98098 0.97832 0.0
H1140 H 0.24397 0.82065 0.3798 0.0
H1141 H 0.2386 0.73245 0.41363 0.0
H1142 H 0.28161 0.81114 0.34007 0.0
H1143 H 0.27545 0.72248 0.37245 0.0
H1144 H 0.36399 0.72257 0.33044 0.0
H1145 H 0.32486 0.73046 0.3681 0.0
H1146 H 0.29111 0.78876 0.2821 0.0
H1147 H 0.33122 0.78148 0.24495 0.0
C1148 C 0.25077 0.79914 0.37858 0.0
C1149 C 0.23822 0.77724 0.39968 0.0
C1150 C 0.27215 0.7936 0.3554 0.0
C1151 C 0.28147 0.76596 0.35256 0.0
C1152 C 0.26904 0.74409 0.37408 0.0
C1153 C 0.2478 0.74972 0.39756 0.0
C1154 C 0.34806 0.73689 0.31937 0.0
C1155 C 0.35069 0.75151 0.28483 0.0
C1156 C 0.32547 0.74129 0.3409 0.0
C1157 C 0.30465 0.76021 0.32825 0.0
C1158 C 0.30691 0.77431 0.29304 0.0
C1159 C 0.32975 0.77005 0.27158 0.0
H1160 H 0.47778 0.01754 0.43106 0.0
H1161 H 0.56469 0.02577 0.48401 0.0
H1162 H 0.4651 0.98499 0.4823 0.0
H1163 H 0.55224 0.9932 0.53447 0.0
H1164 H 0.52693 0.91189 0.59577 0.0
H1165 H 0.5369 0.94209 0.54172 0.0
H1166 H 0.46205 0.98762 0.55514 0.0
H1167 H 0.45188 0.95693 0.6095 0.0
C1168 C 0.49417 0.01225 0.45346 0.0
C1169 C 0.52216 0.0244 0.45371 0.0
C1170 C 0.4869 0.99377 0.48285 0.0
C1171 C 0.50765 0.98662 0.51252 0.0
C1172 C 0.53579 -0.00189 0.51193 0.0
C1173 C 0.54293 0.01679 0.48296 0.0
C1174 C 0.51249 0.92825 0.58713 0.0
C1175 C 0.48867 0.93213 0.60692 0.0
C1176 C 0.5183 0.94564 0.55625 0.0
C1177 C 0.50033 0.96731 0.5442 0.0
C1178 C 0.47617 0.97096 0.5636 0.0
C1179 C 0.47049 0.95361 0.59487 0.0
H1180 H 0.29367 0.17703 0.79387 0.0
H1181 H 0.26933 0.25281 0.84789 0.0
H1182 H 0.25894 0.18399 0.73899 0.0
H1183 H 0.23301 0.25901 0.79413 0.0
H1184 H 0.18873 0.28049 0.67931 0.0
H1185 H 0.22496 0.27287 0.73187 0.0
H1186 H 0.21242 0.18187 0.71233 0.0
H1187 H 0.17776 0.19015 0.65727 0.0
C1188 C 0.28051 0.19503 0.79421 0.0
C1189 C 0.28427 0.21444 0.82517 0.0
C1190 C 0.26033 0.19894 0.76273 0.0
C1191 C 0.24287 0.22214 0.76154 0.0
C1192 C 0.24636 0.24125 0.79315 0.0
C1193 C 0.26703 0.23763 0.82432 0.0
C1194 C 0.19398 0.25883 0.68593 0.0
C1195 C 0.1802 0.23585 0.6642 0.0
C1196 C 0.21458 0.25438 0.71663 0.0
C1197 C 0.22158 0.22667 0.72738 0.0
C1198 C 0.20808 0.20361 0.70502 0.0
C1199 C 0.18795 0.20823 0.67346 0.0
H1200 H 0.74082 0.2362 0.91401 0.0
H1201 H 0.73955 0.32266 0.87303 0.0
H1202 H 0.7788 0.22742 0.8741 0.0
H1203 H 0.77785 0.31425 0.83391 0.0
H1204 H 0.8278 0.28122 0.73947 0.0
H1205 H 0.78851 0.28945 0.77777 0.0
H1206 H 0.82812 0.2395 0.86971 0.0
H1207 H 0.86651 0.23065 0.83104 0.0
C1208 C 0.74882 0.25336 0.89668 0.0
C1209 C 0.73721 0.28006 0.8966 0.0
C1210 C 0.77068 0.24843 0.87392 0.0
C1211 C 0.7815 0.27015 0.85073 0.0
C1212 C 0.76989 0.29691 0.85097 0.0
C1213 C 0.74806 0.30181 0.87368 0.0
C1214 C 0.82792 0.27202 0.76783 0.0
C1215 C 0.85008 0.2553 0.78232 0.0
C1216 C 0.80554 0.27679 0.78988 0.0
C1217 C 0.80505 0.26505 0.82688 0.0
C1218 C 0.82744 0.24844 0.84116 0.0
C1219 C 0.84955 0.24349 0.81907 0.0
H1220 H 0.77199 0.74817 0.34943 0.0
H1221 H 0.79056 0.66781 0.30159 0.0
H1222 H 0.73543 0.754 0.29576 0.0
H1223 H 0.75534 0.67411 0.24698 0.0
H1224 H 0.67362 0.68302 0.16562 0.0
H1225 H 0.70805 0.67447 0.22117 0.0
H1226 H 0.72928 0.76516 0.23177 0.0
H1227 H 0.69373 0.77336 0.17866 0.0
C1228 C 0.76832 0.73183 0.32733 0.0
C1229 C 0.78418 0.70761 0.32977 0.0
C1230 C 0.74752 0.73521 0.29621 0.0
C1231 C 0.74239 0.71467 0.26632 0.0
C1232 C 0.75816 0.69026 0.26932 0.0
C1233 C 0.7786 0.68673 0.30067 0.0
C1234 C 0.68575 0.70096 0.17989 0.0
C1235 C 0.6807 0.7288 0.16798 0.0
C1236 C 0.70565 0.69617 0.21175 0.0
C1237 C 0.7214 0.71917 0.23181 0.0
C1238 C 0.71708 0.74687 0.21836 0.0
C1239 C 0.69687 0.75159 0.18733 0.0
H1240 H 0.52348 0.54919 0.63161 0.0
H1241 H 0.5479 0.60738 0.5442 0.0
H1242 H 0.51885 0.50988 0.58493 0.0
H1243 H 0.54355 0.5682 0.49742 0.0
H1244 H 0.46457 0.46778 0.47828 0.0
H1245 H 0.48085 0.50272 0.52868 0.0
H1246 H 0.55929 0.51975 0.47743 0.0
H1247 H 0.54299 0.48435 0.4269 0.0
C1248 C 0.52921 0.55325 0.60287 0.0
C1249 C 0.53663 0.58109 0.5916 0.0
C1250 C 0.52613 0.53089 0.57598 0.0
C1251 C 0.53045 0.53601 0.53734 0.0
C1252 C 0.54022 0.56351 0.52696 0.0
C1253 C 0.54295 0.58591 0.55377 0.0
C1254 C 0.48527 0.479 0.47769 0.0
C1255 C 0.50243 0.47346 0.44853 0.0
C1256 C 0.49476 0.49878 0.50685 0.0
C1257 C 0.52151 0.5138 0.50732 0.0
C1258 C 0.53861 0.50848 0.47788 0.0
C1259 C 0.52926 0.48832 0.44895 0.0
H1260 H 0.06893 0.51772 0.984 0.0
H1261 H 0.98069 0.51477 0.93647 0.0
H1262 H 0.05681 0.48352 1.03305 0.0
H1263 H 0.96837 0.48116 0.98665 0.0
H1264 H 0.95866 0.45582 0.11527 0.0
H1265 H 0.97015 0.48596 0.06141 0.0
H1266 H 0.03645 0.43122 0.03897 0.0
H1267 H 0.02455 0.40066 0.09254 0.0
C1268 C 0.04694 0.50962 0.98386 0.0
C1269 C 0.02567 0.51932 0.95672 0.0
C1270 C 0.04003 0.49 1.01197 0.0
C1271 C 0.01162 0.47987 1.01394 0.0
C1272 C 0.99041 0.48889 0.98611 0.0
C1273 C -0.00255 0.50812 0.95744 0.0
C1274 C 0.97579 0.4503 0.09898 0.0
C1275 C 0.9909 0.42602 0.10831 0.0
C1276 C 0.98215 0.46739 0.0679 0.0
C1277 C 0.00413 0.46091 0.0459 0.0
C1278 C 0.01946 0.43678 0.05549 0.0
C1279 C 0.01271 0.41935 0.08615 0.0
H1280 H 0.11752 0.15564 0.27089 0.0
H1281 H 0.029 0.15595 0.29056 0.0
H1282 H 0.13156 0.16602 0.33942 0.0
H1283 H 0.04305 0.16728 0.35835 0.0
H1284 H 0.08401 0.22927 0.45806 0.0
H1285 H 0.07188 0.2139 0.39151 0.0
H1286 H 0.12389 0.14237 0.41137 0.0
H1287 H 0.1352 0.15706 0.47929 0.0
C1288 C 0.101 0.15758 0.28975 0.0
C1289 C 0.07201 0.15476 0.27475 0.0
C1290 C 0.10909 0.16354 0.32915 0.0
C1291 C 0.08849 0.16764 0.35459 0.0
C1292 C 0.05955 0.16439 0.33972 0.0
C1293 C 0.05147 0.15771 0.30068 0.0
C1294 C 0.09315 0.21031 0.44851 0.0
C1295 C 0.11082 0.19456 0.47452 0.0
C1296 C 0.08599 0.20142 0.41015 0.0
C1297 C 0.09685 0.17688 0.39582 0.0
C1298 C 0.11518 0.16143 0.42133 0.0
C1299 C 0.12169 0.16987 0.46031 0.0
H1300 H 0.08243 0.82985 0.64143 0.0
H1301 H 0.14207 0.90373 0.65174 0.0
H1302 H 0.062 0.84508 0.69836 0.0
H1303 H 0.12182 0.91863 0.70947 0.0
H1304 H 0.09206 0.91457 0.83541 0.0
H1305 H 0.1156 0.90374 0.7783 0.0
H1306 H 0.03333 0.88488 0.71424 0.0
H1307 H 0.01001 0.89552 0.77055 0.0
C1308 C 0.09113 0.84943 0.65565 0.0
C1309 C 0.11374 0.86566 0.64153 0.0
C1310 C 0.07943 0.85813 0.68842 0.0
C1311 C 0.09007 0.88325 0.70823 0.0
C1312 C 0.11323 0.89912 0.69496 0.0
C1313 C 0.12486 0.89049 0.66189 0.0
C1314 C 0.07905 0.90864 0.8089 0.0
C1315 C 0.04916 0.90563 0.80773 0.0
C1316 C 0.09252 0.90237 0.77624 0.0
C1317 C 0.07632 0.89288 0.74197 0.0
C1318 C 0.04646 0.89143 0.74042 0.0
C1319 C 0.03309 0.89773 0.77276 0.0
H1320 H 0.41647 0.84692 0.13464 0.0
H1321 H 0.40911 0.75912 0.098 0.0
H1322 H 0.42384 0.86163 0.06916 0.0
H1323 H 0.41571 0.77347 1.0329 0.0
H1324 H 0.456 0.80212 0.92653 0.0
H1325 H 0.44773 0.78947 0.9916 0.0
H1326 H 0.40793 0.86848 1.0043 0.0
H1327 H 0.41796 0.88208 0.93965 0.0
C1328 C 0.41585 0.83068 0.11258 0.0
C1329 C 0.41228 0.80166 0.12232 0.0
C1330 C 0.42016 0.83914 0.07466 0.0
C1331 C 0.42087 0.81893 0.04482 0.0
C1332 C 0.41624 0.78998 0.05454 0.0
C1333 C 0.41215 0.7816 0.09233 0.0
C1334 C 0.44588 0.81723 0.94306 0.0
C1335 C 0.43797 0.84344 0.9268 0.0
C1336 C 0.44058 0.80961 0.98076 0.0
C1337 C 0.42679 0.82763 1.00417 0.0
C1338 C 0.41881 0.85385 0.98799 0.0
C1339 C 0.42428 0.86158 0.95022 0.0
H1340 H 0.50387 0.08857 0.26541 0.0
H1341 H 0.42293 0.08729 0.3123 0.0
H1342 H 0.4805 0.09826 0.20199 0.0
H1343 H 0.39924 0.09697 0.24812 0.0
H1344 H 0.37927 0.15411 0.13906 0.0
H1345 H 0.39864 0.13845 0.20268 0.0
H1346 H 0.44719 0.07767 0.14959 0.0
H1347 H 0.42851 0.09372 0.08633 0.0
C1348 C 0.48092 0.08983 0.26201 0.0
C1349 C 0.46525 0.08707 0.29392 0.0
C1350 C 0.46749 0.09534 0.22553 0.0
C1351 C 0.43798 0.09853 0.21988 0.0
C1352 C 0.42205 0.09489 0.25157 0.0
C1353 C 0.43554 0.08899 0.28821 0.0
C1354 C 0.39415 0.13747 0.141 0.0
C1355 C 0.40236 0.12526 0.10747 0.0
C1356 C 0.40496 0.12823 0.17747 0.0
C1357 C 0.42447 0.10676 0.1813 0.0
C1358 C 0.43238 0.09437 0.14776 0.0
C1359 C 0.42147 0.10345 0.11142 0.0
H1360 H 0.85277 0.73399 0.52932 0.0
H1361 H 0.84782 0.81515 0.47245 0.0
H1362 H 0.86569 0.75804 0.59065 0.0
H1363 H 0.86102 0.83951 0.5345 0.0
H1364 H 0.86483 0.87094 0.66253 0.0
H1365 H 0.84759 0.84934 0.60011 0.0
H1366 H 0.90816 0.78472 0.62005 0.0
H1367 H 0.92566 0.80637 0.68183 0.0
C1368 C 0.85412 0.75705 0.52992 0.0
C1369 C 0.84943 0.77257 0.49572 0.0
C1370 C 0.86179 0.77089 0.56521 0.0
C1371 C 0.86505 0.80077 0.56762 0.0
C1372 C 0.85874 0.81646 0.53379 0.0
C1373 C 0.85104 0.80251 0.49819 0.0
C1374 C 0.87476 0.85232 0.65346 0.0
C1375 C 0.89659 0.84036 0.67773 0.0
C1376 C 0.86476 0.83988 0.6176 0.0
C1377 C 0.87617 0.81503 0.60507 0.0
C1378 C 0.89833 0.80344 0.629 0.0
C1379 C 0.90839 0.8159 0.66464 0.0
H1380 H 0.95454 0.11733 0.55036 0.0
H1381 H 0.88824 0.17433 0.51739 0.0
H1382 H 0.95593 0.10463 0.48297 0.0
H1383 H 0.89043 0.16262 0.45013 0.0
H1384 H 0.89026 0.12762 0.33134 0.0
H1385 H 0.88263 0.12702 0.39932 0.0
H1386 H 0.97382 0.13084 0.43023 0.0
H1387 H 0.98133 0.13024 0.36267 0.0
C1388 C 0.93993 0.12675 0.52877 0.0
C1389 C 0.9215 0.14703 0.53903 0.0
C1390 C 0.94091 0.1197 0.49019 0.0
C1391 C 0.9235 0.13284 0.46119 0.0
C1392 C 0.90397 0.15193 0.47172 0.0
C1393 C 0.90296 0.15892 0.51023 0.0
C1394 C 0.9086 0.12774 0.35273 0.0
C1395 C 0.93639 0.12938 0.34174 0.0
C1396 C 0.90426 0.12761 0.39161 0.0
C1397 C 0.92762 0.12904 0.42015 0.0
C1398 C 0.95534 0.12941 0.40903 0.0
C1399 C 0.95966 0.12951 0.37028 0.0
H1400 H 0.66817 0.17642 1.01315 0.0
H1401 H 0.66704 0.25796 0.06945 0.0
H1402 H 0.65472 0.15255 0.07158 0.0
H1403 H 0.65386 0.23438 0.12722 0.0
H1404 H 0.5913 0.18827 0.19948 0.0
H1405 H 0.60962 0.20905 0.14275 0.0
H1406 H 0.66877 0.14294 0.14165 0.0
H1407 H 0.65072 0.12223 0.19911 0.0
C1408 C 0.66576 0.18919 0.0382 0.0
C1409 C 0.6684 0.2191 0.03647 0.0
C1410 C 0.65794 0.17555 0.07163 0.0
C1411 C 0.65257 0.1916 0.10382 0.0
C1412 C 0.65704 0.22138 0.10268 0.0
C1413 C 0.66482 0.2349 0.06955 0.0
C1414 C 0.60841 0.17824 0.18752 0.0
C1415 C 0.61964 0.15367 0.20434 0.0
C1416 C 0.61893 0.19017 0.15486 0.0
C1417 C 0.64095 0.17787 0.13784 0.0
C1418 C 0.65174 0.15288 0.15391 0.0
C1419 C 0.64129 0.14098 0.18684 0.0
H1420 H 0.57494 0.82397 0.69798 0.0
H1421 H 0.56809 0.91251 0.72445 0.0
H1422 H 0.60359 0.81818 0.75891 0.0
H1423 H 0.5994 0.90786 0.78365 0.0
H1424 H 0.58993 0.87527 0.90556 0.0
H1425 H 0.58396 0.88876 0.83874 0.0
H1426 H 0.63824 0.82266 0.81096 0.0
H1427 H 0.64295 0.80837 0.87835 0.0
C1428 C 0.58119 0.84264 0.71579 0.0
C1429 C 0.56872 0.86843 0.70735 0.0
C1430 C 0.59767 0.83938 0.75095 0.0
C1431 C 0.60271 0.86229 0.77732 0.0
C1432 C 0.59472 0.8894 0.76502 0.0
C1433 C 0.57732 0.8923 0.73067 0.0
C1434 C 0.60105 0.86401 0.88529 0.0
C1435 C 0.61667 0.84066 0.89703 0.0
C1436 C 0.59789 0.87189 0.84679 0.0
C1437 C 0.61068 0.85689 0.81898 0.0
C1438 C 0.62771 0.83446 0.83127 0.0
C1439 C 0.63046 0.82627 0.86985 0.0
H1440 H 0.52638 0.63409 0.79982 0.0
H1441 H 0.61032 0.66255 0.7721 0.0
H1442 H 0.54075 0.64637 0.86759 0.0
H1443 H 0.62434 0.67543 0.83944 0.0
H1444 H 0.62303 0.7279 0.95462 0.0
H1445 H 0.61061 0.71277 0.88753 0.0
H1446 H 0.57634 0.63175 0.92534 0.0
H1447 H 0.58933 0.64659 0.99238 0.0
C1448 C 0.548 0.6426 0.8081 0.0
C1449 C 0.56721 0.64685 0.7801 0.0
C1450 C 0.55626 0.64973 0.8471 0.0
C1451 C 0.58378 0.66204 0.85929 0.0
C1452 C 0.60296 0.66617 0.83133 0.0
C1453 C 0.59494 0.65845 0.79258 0.0
C1454 C 0.61317 0.70673 0.94873 0.0
C1455 C 0.60752 0.68847 0.97932 0.0
C1456 C 0.60603 0.698 0.91011 0.0
C1457 C 0.59232 0.67098 0.90069 0.0
C1458 C 0.5867 0.65273 0.93127 0.0
C1459 C 0.59445 0.66119 0.96985 0.0
H1460 H 0.51508 0.40743 0.26614 0.0
H1461 H 0.59653 0.41034 0.33523 0.0
H1462 H 0.53827 0.39834 0.20902 0.0
H1463 H 0.62 0.40123 0.27748 0.0
H1464 H 0.63973 0.34409 0.17383 0.0
H1465 H 0.62055 0.35945 0.23221 0.0
H1466 H 0.57129 0.42008 0.16608 0.0
H1467 H 0.58985 0.40437 0.10783 0.0
C1468 C 0.53807 0.40662 0.26901 0.0
C1469 C 0.55398 0.40964 0.30523 0.0
C1470 C 0.55139 0.40148 0.23619 0.0
C1471 C 0.58098 0.39893 0.23866 0.0
C1472 C 0.59711 0.40283 0.27471 0.0
C1473 C 0.58375 0.40837 0.30767 0.0
C1474 C 0.62475 0.36065 0.17178 0.0
C1475 C 0.61627 0.37291 0.13608 0.0
C1476 C 0.61405 0.3697 0.20531 0.0
C1477 C 0.59441 0.39102 0.20382 0.0
C1478 C 0.58625 0.4035 0.16821 0.0
C1479 C 0.59706 0.39461 0.13483 0.0
H1480 H 0.95147 0.36943 0.43734 0.0
H1481 H 0.89814 0.29501 0.39827 0.0
H1482 H 0.94517 0.35728 0.50372 0.0
H1483 H 0.89089 0.28353 0.46449 0.0
H1484 H 0.90483 0.25341 0.58954 0.0
H1485 H 0.91046 0.26582 0.5233 0.0
H1486 H 0.9151 0.35502 0.55382 0.0
H1487 H 0.91052 0.3423 0.62084 0.0
C1488 C 0.93842 0.35038 0.4426 0.0
C1489 C 0.92549 0.33332 0.41142 0.0
C1490 C 0.93443 0.34356 0.48114 0.0
C1491 C 0.91738 0.31928 0.49048 0.0
C1492 C 0.90447 0.30222 0.4593 0.0
C1493 C 0.90838 0.30909 0.42077 0.0
C1494 C 0.90703 0.27571 0.58241 0.0
C1495 C 0.90728 0.29667 0.61137 0.0
C1496 C 0.91004 0.28296 0.54383 0.0
C1497 C 0.91338 0.31162 0.53217 0.0
C1498 C 0.91304 0.33267 0.56105 0.0
C1499 C 0.90997 0.32536 0.59976 0.0
H1500 H 0.92712 0.58236 0.81485 0.0
H1501 H 0.00837 0.58544 0.76861 0.0
H1502 H 0.90348 0.59183 0.75062 0.0
H1503 H 0.98502 0.59493 0.70509 0.0
H1504 H 0.9331 0.58928 0.58909 0.0
H1505 H 0.95224 0.57377 0.65245 0.0
H1506 H 0.90211 0.63326 0.70524 0.0
H1507 H 0.88234 0.64839 0.64155 0.0
C1508 C 0.93983 0.58444 0.7909 0.0
C1509 C 0.96961 0.58305 0.79683 0.0
C1510 C 0.92636 0.59021 0.75422 0.0
C1511 C 0.94236 0.59427 0.72268 0.0
C1512 C 0.97196 0.59168 0.72853 0.0
C1513 C 0.98538 0.58628 0.76506 0.0
C1514 C 0.92583 0.59885 0.61414 0.0
C1515 C 0.90614 0.62013 0.6101 0.0
C1516 C 0.937 0.59008 0.65054 0.0
C1517 C 0.92876 0.60226 0.68402 0.0
C1518 C 0.90871 0.62322 0.68008 0.0
C1519 C 0.89765 0.63215 0.64357 0.0
H1520 H 0.36461 0.31464 0.19595 0.0
H1521 H 0.42161 0.37273 0.1407 0.0
H1522 H 0.3455 0.29471 0.13363 0.0
H1523 H 0.40257 0.3526 0.07813 0.0
H1524 H 0.35003 0.32195 0.96669 0.0
H1525 H 0.36183 0.34635 1.02894 0.0
H1526 H 0.36091 0.26494 0.08592 0.0
H1527 H 0.34867 0.24099 1.02451 0.0
C1528 C 0.37324 0.32307 0.17053 0.0
C1529 C 0.39496 0.34512 0.17362 0.0
C1530 C 0.36219 0.31165 0.13464 0.0
C1531 C 0.37254 0.32183 0.1006 0.0
C1532 C 0.39375 0.34441 0.10355 0.0
C1533 C 0.40479 0.35591 0.13954 0.0
C1534 C 0.35163 0.30941 0.99266 0.0
C1535 C 0.34834 0.27951 0.99053 0.0
C1536 C 0.35879 0.32334 1.02834 0.0
C1537 C 0.36255 0.30768 0.06268 0.0
C1538 C 0.35794 0.27787 0.06041 0.0
C1539 C 0.35099 0.26405 1.02498 0.0
H1540 H 0.38839 0.6711 1.02516 0.0
H1541 H 0.46137 0.62173 0.05587 0.0
H1542 H 0.38948 0.65871 0.95809 0.0
H1543 H 0.46098 0.60741 0.98911 0.0
H1544 H 0.38879 0.62394 0.83946 0.0
H1545 H 0.3831 0.6244 0.90796 0.0
H1546 H 0.47483 0.63069 0.93422 0.0
H1547 H 0.48036 0.62831 0.86639 0.0
C1548 C 0.40444 0.65727 1.01769 0.0
C1549 C 0.42516 0.6479 0.04588 0.0
C1550 C 0.40474 0.64973 0.97921 0.0
C1551 C 0.42551 0.63227 0.96805 0.0
C1552 C 0.44505 0.62138 0.99658 0.0
C1553 C 0.44502 0.62928 0.03502 0.0
C1554 C 0.40767 0.62476 0.85998 0.0
C1555 C 0.43501 0.62655 0.84751 0.0
C1556 C 0.40444 0.62533 0.89921 0.0
C1557 C 0.42849 0.62784 0.92669 0.0
C1558 C 0.45578 0.62841 0.91407 0.0
C1559 C 0.45898 0.62757 0.87503 0.0
H1560 H 0.1725 0.67613 0.51887 0.0
H1561 H 0.16216 0.75717 0.57205 0.0
H1562 H 0.15945 0.65173 0.57711 0.0
H1563 H 0.14939 0.73302 0.62957 0.0
H1564 H 0.08988 0.68205 0.70127 0.0
H1565 H 0.10712 0.70372 0.64438 0.0
H1566 H 0.17329 0.64438 0.64792 0.0
H1567 H 0.15634 0.62284 0.70556 0.0
C1568 C 0.16807 0.68875 0.54316 0.0
C1569 C 0.16815 0.7186 0.54057 0.0
C1570 C 0.1605 0.67478 0.57649 0.0
C1571 C 0.15279 0.6904 0.60774 0.0
C1572 C 0.15447 0.72027 0.60575 0.0
C1573 C 0.16203 0.73414 0.57273 0.0
C1574 C 0.10829 0.67371 0.69031 0.0
C1575 C 0.12181 0.6508 0.7085 0.0
C1576 C 0.11817 0.68614 0.65753 0.0
C1577 C 0.14183 0.67601 0.64176 0.0
C1578 C 0.15494 0.65262 0.65919 0.0
C1579 C 0.14514 0.64023 0.69223 0.0
H1580 H 0.00109 0.28122 0.2202 0.0
H1581 H 0.06098 0.34431 0.17994 0.0
H1582 H 0.03518 0.27146 0.27482 0.0
H1583 H 0.09522 0.33514 0.23552 0.0
H1584 H 0.09795 0.26008 0.37455 0.0
H1585 H 0.08293 0.25807 0.30562 0.0
H1586 H 0.08604 0.34999 0.30266 0.0
H1587 H 0.10127 0.35197 0.37144 0.0
C1588 C 0.02218 0.29195 0.22214 0.0
C1589 C 0.02851 0.31347 0.19611 0.0
C1590 C 0.04172 0.28645 0.25347 0.0
C1591 C 0.06767 0.30293 0.25977 0.0
C1592 C 0.07524 0.32234 0.23144 0.0
C1593 C 0.05581 0.3274 0.19951 0.0
C1594 C 0.09615 0.27985 0.35897 0.0
C1595 C 0.10034 0.3062 0.37845 0.0
C1596 C 0.08756 0.27867 0.31953 0.0
C1597 C 0.08332 0.30385 0.29877 0.0
C1598 C 0.08949 0.33022 0.31777 0.0
C1599 C 0.09779 0.33138 0.35725 0.0
loop_
_geom_bond_atom_site_label_1
_geom_bond_atom_site_label_2
_geom_bond_distance
_geom_bond_site_symmetry_2
_ccdc_geom_bond_type
Sm0 C2 2.846 . S
Sm0 O20 2.543 . S
Sm0 O21 2.450 . S
Sm0 O22 2.695 . S
Sm0 O23 2.464 . S
Sm0 O24 2.396 1_455 S
Sm0 O28 2.386 . S
Sm0 O31 2.408 . S
Sm1 C11 2.846 . S
Sm1 O22 2.375 1_655 S
Sm1 O25 2.408 . S
Sm1 O26 2.543 . S
Sm1 O27 2.450 . S
Sm1 O28 2.681 1_655 S
Sm1 O29 2.464 . S
Sm1 O30 2.396 1_655 S
C2 Sm0 2.846 . S
C2 C3 1.506 1_554 S
C2 O20 1.261 . S
C2 O21 1.242 . S
C3 C2 1.506 1_556 S
C3 C4 1.358 . S
C3 C8 1.382 . S
C4 C3 1.358 . S
C4 C5 1.385 . S
C4 H32 0.930 . S
C5 C4 1.385 . S
C5 C6 1.395 . S
C5 H33 0.929 . S
C6 C5 1.395 . S
C6 C7 1.335 . S
C7 C6 1.335 . S
C7 C8 1.398 . S
C7 H34 0.930 . S
C8 C3 1.382 . S
C8 C7 1.398 . S
C8 H35 0.929 . S
C9 O22 1.277 . S
C9 O23 1.251 . S
C10 O24 1.252 . S
C10 O25 1.272 . S
C11 Sm1 2.846 . S
C11 C12 1.506 . S
C11 O26 1.261 . S
C11 O27 1.242 . S
C12 C11 1.506 . S
C12 C13 1.358 . S
C12 C17 1.382 . S
C13 C12 1.358 . S
C13 C14 1.385 . S
C13 H36 0.930 . S
C14 C13 1.385 . S
C14 C15 1.395 . S
C14 H37 0.929 . S
C15 C14 1.395 . S
C15 C16 1.335 . S
C16 C15 1.335 . S
C16 C17 1.398 . S
C16 H38 0.930 . S
C17 C12 1.382 . S
C17 C16 1.398 . S
C17 H39 0.929 . S
C18 O28 1.271 1_655 S
C18 O29 1.251 . S
C19 O30 1.252 . S
C19 O31 1.272 . S
O20 Sm0 2.543 . S
O20 C2 1.261 . S
O21 Sm0 2.450 . S
O21 C2 1.242 . S
O22 Sm0 2.695 . S
O22 Sm1 2.375 1_455 S
O22 C9 1.277 . S
O23 Sm0 2.464 . S
O23 C9 1.251 . S
O24 Sm0 2.396 1_655 S
O24 C10 1.252 . S
O25 Sm1 2.408 . S
O25 C10 1.272 . S
O26 Sm1 2.543 . S
O26 C11 1.261 . S
O27 Sm1 2.450 . S
O27 C11 1.242 . S
O28 Sm0 2.386 . S
O28 Sm1 2.681 1_455 S
O28 C18 1.271 1_455 S
O29 Sm1 2.464 . S
O29 C18 1.251 . S
O30 Sm1 2.396 1_455 S
O30 C19 1.252 . S
O31 Sm0 2.408 . S
O31 C19 1.272 . S
H32 C4 0.930 . S
H33 C5 0.929 . S
H34 C7 0.930 . S
H35 C8 0.929 . S
H36 C13 0.930 . S
H37 C14 0.929 . S
H38 C16 0.930 . S
H39 C17 0.929 . S
Sm40 C42 2.846 . S
Sm40 O60 2.543 . S
Sm40 O61 2.450 . S
Sm40 O62 2.681 . S
Sm40 O63 2.464 . S
Sm40 O64 2.396 . S
Sm40 O68 2.386 . S
Sm40 O71 2.408 . S
Sm41 C51 2.846 . S
Sm41 O62 2.386 . S
Sm41 O65 2.408 . S
Sm41 O66 2.543 . S
Sm41 O67 2.450 . S
Sm41 O68 2.681 . S
Sm41 O69 2.464 . S
Sm41 O70 2.396 . S
C42 Sm40 2.846 . S
C42 C43 1.506 . S
C42 O60 1.261 . S
C42 O61 1.242 . S
C43 C42 1.506 . S
C43 C44 1.358 . S
C43 C48 1.382 . S
C44 C43 1.358 . S
C44 C45 1.385 . S
C44 H72 0.930 . S
C45 C44 1.385 . S
C45 C46 1.395 . S
C45 H73 0.929 . S
C46 C45 1.395 . S
C46 C47 1.335 . S
C47 C46 1.335 . S
C47 C48 1.398 . S
C47 H74 0.930 . S
C48 C43 1.382 . S
C48 C47 1.398 . S
C48 H75 0.929 . S
C49 O62 1.271 . S
C49 O63 1.251 . S
C50 O64 1.252 . S
C50 O65 1.272 . S
C51 Sm41 2.846 . S
C51 C52 1.506 . S
C51 O66 1.261 . S
C51 O67 1.242 . S
C52 C51 1.506 . S
C52 C53 1.358 . S
C52 C57 1.382 . S
C53 C52 1.358 . S
C53 C54 1.385 . S
C53 H76 0.930 . S
C54 C53 1.385 . S
C54 C55 1.395 . S
C54 H77 0.929 . S
C55 C54 1.395 . S
C55 C56 1.335 . S
C56 C55 1.335 . S
C56 C57 1.398 . S
C56 H78 0.930 . S
C57 C52 1.382 . S
C57 C56 1.398 . S
C57 H79 0.929 . S
C58 O68 1.271 . S
C58 O69 1.251 . S
C59 O70 1.252 . S
C59 O71 1.272 . S
O60 Sm40 2.543 . S
O60 C42 1.261 . S
O61 Sm40 2.450 . S
O61 C42 1.242 . S
O62 Sm40 2.681 . S
O62 Sm41 2.386 . S
O62 C49 1.271 . S
O63 Sm40 2.464 . S
O63 C49 1.251 . S
O64 Sm40 2.396 . S
O64 C50 1.252 . S
O65 Sm41 2.408 . S
O65 C50 1.272 . S
O66 Sm41 2.543 . S
O66 C51 1.261 . S
O67 Sm41 2.450 . S
O67 C51 1.242 . S
O68 Sm40 2.386 . S
O68 Sm41 2.681 . S
O68 C58 1.271 . S
O69 Sm41 2.464 . S
O69 C58 1.251 . S
O70 Sm41 2.396 . S
O70 C59 1.252 . S
O71 Sm40 2.408 . S
O71 C59 1.272 . S
H72 C44 0.930 . S
H73 C45 0.929 . S
H74 C47 0.930 . S
H75 C48 0.929 . S
H76 C53 0.930 . S
H77 C54 0.929 . S
H78 C56 0.930 . S
H79 C57 0.929 . S
Sm80 C82 2.846 . S
Sm80 O100 2.543 . S
Sm80 O101 2.450 . S
Sm80 O102 2.681 . S
Sm80 O103 2.464 . S
Sm80 O104 2.396 . S
Sm80 O108 2.386 . S
Sm80 O111 2.408 . S
Sm81 C91 2.846 . S
Sm81 O102 2.386 . S
Sm81 O105 2.408 . S
Sm81 O106 2.543 . S
Sm81 O107 2.450 . S
Sm81 O108 2.681 . S
Sm81 O109 2.464 . S
Sm81 O110 2.396 . S
C82 Sm80 2.846 . S
C82 C83 1.506 . S
C82 O100 1.261 . S
C82 O101 1.242 . S
C83 C82 1.506 . S
C83 C84 1.358 . S
C83 C88 1.382 . S
C84 C83 1.358 . S
C84 C85 1.385 . S
C84 H112 0.930 . S
C85 C84 1.385 . S
C85 C86 1.395 . S
C85 H113 0.929 . S
C86 C85 1.395 . S
C86 C87 1.335 . S
C87 C86 1.335 . S
C87 C88 1.398 . S
C87 H114 0.930 . S
C88 C83 1.382 . S
C88 C87 1.398 . S
C88 H115 0.929 . S
C89 O102 1.271 . S
C89 O103 1.251 . S
C90 O104 1.252 . S
C90 O105 1.272 . S
C91 Sm81 2.846 . S
C91 C92 1.506 . S
C91 O106 1.261 . S
C91 O107 1.242 . S
C92 C91 1.506 . S
C92 C93 1.358 . S
C92 C97 1.382 . S
C93 C92 1.358 . S
C93 C94 1.385 . S
C93 H116 0.930 . S
C94 C93 1.385 . S
C94 C95 1.395 . S
C94 H117 0.929 . S
C95 C94 1.395 . S
C95 C96 1.335 . S
C96 C95 1.335 . S
C96 C97 1.398 . S
C96 H118 0.930 . S
C97 C92 1.382 . S
C97 C96 1.398 . S
C97 H119 0.929 . S
C98 O108 1.271 . S
C98 O109 1.251 . S
C99 O110 1.252 . S
C99 O111 1.272 . S
O100 Sm80 2.543 . S
O100 C82 1.261 . S
O101 Sm80 2.450 . S
O101 C82 1.242 . S
O102 Sm80 2.681 . S
O102 Sm81 2.386 . S
O102 C89 1.271 . S
O103 Sm80 2.464 . S
O103 C89 1.251 . S
O104 Sm80 2.396 . S
O104 C90 1.252 . S
O105 Sm81 2.408 . S
O105 C90 1.272 . S
O106 Sm81 2.543 . S
O106 C91 1.261 . S
O107 Sm81 2.450 . S
O107 C91 1.242 . S
O108 Sm80 2.386 . S
O108 Sm81 2.681 . S
O108 C98 1.271 . S
O109 Sm81 2.464 . S
O109 C98 1.251 . S
O110 Sm81 2.396 . S
O110 C99 1.252 . S
O111 Sm80 2.408 . S
O111 C99 1.272 . S
H112 C84 0.930 . S
H113 C85 0.929 . S
H114 C87 0.930 . S
H115 C88 0.929 . S
H116 C93 0.930 . S
H117 C94 0.929 . S
H118 C96 0.930 . S
H119 C97 0.929 . S
Sm120 C122 2.846 . S
Sm120 O140 2.543 . S
Sm120 O141 2.450 . S
Sm120 O142 2.681 . S
Sm120 O143 2.464 . S
Sm120 O144 2.396 . S
Sm120 O148 2.386 . S
Sm120 O151 2.408 . S
Sm121 C131 2.846 . S
Sm121 O142 2.386 . S
Sm121 O145 2.408 . S
Sm121 O146 2.543 . S
Sm121 O147 2.450 . S
Sm121 O148 2.681 . S
Sm121 O149 2.464 . S
Sm121 O150 2.396 . S
C122 Sm120 2.846 . S
C122 C123 1.506 . S
C122 O140 1.261 . S
C122 O141 1.242 . S
C123 C122 1.506 . S
C123 C124 1.358 1_556 S
C123 C128 1.382 . S
C124 C123 1.358 1_554 S
C124 C125 1.385 . S
C124 H152 0.930 . S
C125 C124 1.385 . S
C125 C126 1.395 . S
C125 H153 0.929 . S
C126 C125 1.395 . S
C126 C127 1.335 . S
C127 C126 1.335 . S
C127 C128 1.398 1_554 S
C127 H154 0.930 . S
C128 C123 1.382 . S
C128 C127 1.398 1_556 S
C128 H155 0.929 . S
C129 O142 1.271 . S
C129 O143 1.251 . S
C130 O144 1.252 . S
C130 O145 1.272 . S
C131 Sm121 2.846 . S
C131 C132 1.506 . S
C131 O146 1.261 . S
C131 O147 1.242 . S
C132 C131 1.506 . S
C132 C133 1.358 . S
C132 C137 1.382 . S
C133 C132 1.358 . S
C133 C134 1.385 . S
C133 H156 0.930 . S
C134 C133 1.385 . S
C134 C135 1.395 . S
C134 H157 0.929 . S
C135 C134 1.395 . S
C135 C136 1.335 . S
C136 C135 1.335 . S
C136 C137 1.398 . S
C136 H158 0.930 . S
C137 C132 1.382 . S
C137 C136 1.398 . S
C137 H159 0.929 . S
C138 O148 1.271 . S
C138 O149 1.251 . S
C139 O150 1.252 . S
C139 O151 1.272 . S
O140 Sm120 2.543 . S
O140 C122 1.261 . S
O141 Sm120 2.450 . S
O141 C122 1.242 . S
O142 Sm120 2.681 . S
O142 Sm121 2.386 . S
O142 C129 1.271 . S
O143 Sm120 2.464 . S
O143 C129 1.251 . S
O144 Sm120 2.396 . S
O144 C130 1.252 . S
O145 Sm121 2.408 . S
O145 C130 1.272 . S
O146 Sm121 2.543 . S
O146 C131 1.261 . S
O147 Sm121 2.450 . S
O147 C131 1.242 . S
O148 Sm120 2.386 . S
O148 Sm121 2.681 . S
O148 C138 1.271 . S
O149 Sm121 2.464 . S
O149 C138 1.251 . S
O150 Sm121 2.396 . S
O150 C139 1.252 . S
O151 Sm120 2.408 . S
O151 C139 1.272 . S
H152 C124 0.930 . S
H153 C125 0.929 . S
H154 C127 0.930 . S
H155 C128 0.929 . S
H156 C133 0.930 . S
H157 C134 0.929 . S
H158 C136 0.930 . S
H159 C137 0.929 . S
Sm160 C162 2.846 . S
Sm160 O180 2.543 . S
Sm160 O181 2.450 . S
Sm160 O182 2.681 . S
Sm160 O183 2.464 . S
Sm160 O184 2.396 . S
Sm160 O188 2.386 . S
Sm160 O191 2.408 . S
Sm161 C171 2.846 . S
Sm161 O182 2.386 1_655 S
Sm161 O185 2.408 . S
Sm161 O186 2.543 . S
Sm161 O187 2.450 . S
Sm161 O188 2.681 1_655 S
Sm161 O189 2.464 . S
Sm161 O190 2.396 1_655 S
C162 Sm160 2.846 . S
C162 C163 1.506 1_556 S
C162 O180 1.261 . S
C162 O181 1.242 . S
C163 C162 1.506 1_554 S
C163 C164 1.358 . S
C163 C168 1.382 . S
C164 C163 1.358 . S
C164 C165 1.385 . S
C164 H192 0.930 . S
C165 C164 1.385 . S
C165 C166 1.395 . S
C165 H193 0.929 . S
C166 C165 1.395 . S
C166 C167 1.335 . S
C167 C166 1.335 . S
C167 C168 1.398 . S
C167 H194 0.930 . S
C168 C163 1.382 . S
C168 C167 1.398 . S
C168 H195 0.929 . S
C169 O182 1.271 . S
C169 O183 1.251 . S
C170 O184 1.252 1_655 S
C170 O185 1.272 . S
C171 Sm161 2.846 . S
C171 C172 1.506 . S
C171 O186 1.261 . S
C171 O187 1.242 . S
C172 C171 1.506 . S
C172 C173 1.358 . S
C172 C177 1.382 . S
C173 C172 1.358 . S
C173 C174 1.385 . S
C173 H196 0.930 . S
C174 C173 1.385 . S
C174 C175 1.395 . S
C174 H197 0.929 . S
C175 C174 1.395 . S
C175 C176 1.335 . S
C176 C175 1.335 . S
C176 C177 1.398 . S
C176 H198 0.930 . S
C177 C172 1.382 . S
C177 C176 1.398 . S
C177 H199 0.929 . S
C178 O188 1.271 . S
C178 O189 1.251 1_455 S
C179 O190 1.252 . S
C179 O191 1.272 . S
O180 Sm160 2.543 . S
O180 C162 1.261 . S
O181 Sm160 2.450 . S
O181 C162 1.242 . S
O182 Sm160 2.681 . S
O182 Sm161 2.386 1_455 S
O182 C169 1.271 . S
O183 Sm160 2.464 . S
O183 C169 1.251 . S
O184 Sm160 2.396 . S
O184 C170 1.252 1_455 S
O185 Sm161 2.408 . S
O185 C170 1.272 . S
O186 Sm161 2.543 . S
O186 C171 1.261 . S
O187 Sm161 2.450 . S
O187 C171 1.242 . S
O188 Sm160 2.386 . S
O188 Sm161 2.681 1_455 S
O188 C178 1.271 . S
O189 Sm161 2.464 . S
O189 C178 1.251 1_655 S
O190 Sm161 2.396 1_455 S
O190 C179 1.252 . S
O191 Sm160 2.408 . S
O191 C179 1.272 . S
H192 C164 0.930 . S
H193 C165 0.929 . S
H194 C167 0.930 . S
H195 C168 0.929 . S
H196 C173 0.930 . S
H197 C174 0.929 . S
H198 C176 0.930 . S
H199 C177 0.929 . S
Sm200 C202 2.846 . S
Sm200 O220 2.543 . S
Sm200 O221 2.450 . S
Sm200 O222 2.681 . S
Sm200 O223 2.464 . S
Sm200 O224 2.396 . S
Sm200 O228 2.386 . S
Sm200 O231 2.408 . S
Sm201 C211 2.846 . S
Sm201 O222 2.386 . S
Sm201 O225 2.408 . S
Sm201 O226 2.543 . S
Sm201 O227 2.450 . S
Sm201 O228 2.681 . S
Sm201 O229 2.464 . S
Sm201 O230 2.396 . S
C202 Sm200 2.846 . S
C202 C203 1.506 . S
C202 O220 1.261 . S
C202 O221 1.242 . S
C203 C202 1.506 . S
C203 C204 1.358 . S
C203 C208 1.382 . S
C204 C203 1.358 . S
C204 C205 1.385 . S
C204 H232 0.930 . S
C205 C204 1.385 . S
C205 C206 1.395 . S
C205 H233 0.929 . S
C206 C205 1.395 . S
C206 C207 1.335 . S
C207 C206 1.335 . S
C207 C208 1.398 . S
C207 H234 0.930 . S
C208 C203 1.382 . S
C208 C207 1.398 . S
C208 H235 0.929 . S
C209 O222 1.271 . S
C209 O223 1.251 . S
C210 O224 1.252 . S
C210 O225 1.272 . S
C211 Sm201 2.846 . S
C211 C212 1.506 . S
C211 O226 1.261 . S
C211 O227 1.242 . S
C212 C211 1.506 . S
C212 C213 1.358 . S
C212 C217 1.382 . S
C213 C212 1.358 . S
C213 C214 1.385 1_554 S
C213 H236 0.930 . S
C214 C213 1.385 1_556 S
C214 C215 1.395 . S
C214 H237 0.929 . S
C215 C214 1.395 . S
C215 C216 1.335 . S
C216 C215 1.335 . S
C216 C217 1.398 1_556 S
C216 H238 0.930 . S
C217 C212 1.382 . S
C217 C216 1.398 1_554 S
C217 H239 0.929 . S
C218 O228 1.271 . S
C218 O229 1.251 . S
C219 O230 1.252 . S
C219 O231 1.272 . S
O220 Sm200 2.543 . S
O220 C202 1.261 . S
O221 Sm200 2.450 . S
O221 C202 1.242 . S
O222 Sm200 2.681 . S
O222 Sm201 2.386 . S
O222 C209 1.271 . S
O223 Sm200 2.464 . S
O223 C209 1.251 . S
O224 Sm200 2.396 . S
O224 C210 1.252 . S
O225 Sm201 2.408 . S
O225 C210 1.272 . S
O226 Sm201 2.543 . S
O226 C211 1.261 . S
O227 Sm201 2.450 . S
O227 C211 1.242 . S
O228 Sm200 2.386 . S
O228 Sm201 2.681 . S
O228 C218 1.271 . S
O229 Sm201 2.464 . S
O229 C218 1.251 . S
O230 Sm201 2.396 . S
O230 C219 1.252 . S
O231 Sm200 2.408 . S
O231 C219 1.272 . S
H232 C204 0.930 . S
H233 C205 0.929 . S
H234 C207 0.930 . S
H235 C208 0.929 . S
H236 C213 0.930 . S
H237 C214 0.929 . S
H238 C216 0.930 . S
H239 C217 0.929 . S
Sm240 C242 2.846 . S
Sm240 O260 2.543 . S
Sm240 O261 2.450 . S
Sm240 O262 2.681 . S
Sm240 O263 2.464 . S
Sm240 O264 2.396 . S
Sm240 O268 2.386 . S
Sm240 O271 2.408 . S
Sm241 C251 2.846 . S
Sm241 O262 2.386 . S
Sm241 O265 2.408 . S
Sm241 O266 2.543 . S
Sm241 O267 2.450 . S
Sm241 O268 2.681 . S
Sm241 O269 2.464 . S
Sm241 O270 2.396 . S
C242 Sm240 2.846 . S
C242 C243 1.506 . S
C242 O260 1.261 . S
C242 O261 1.242 . S
C243 C242 1.506 . S
C243 C244 1.358 . S
C243 C248 1.382 . S
C244 C243 1.358 . S
C244 C245 1.385 . S
C244 H272 0.930 . S
C245 C244 1.385 . S
C245 C246 1.395 . S
C245 H273 0.929 . S
C246 C245 1.395 . S
C246 C247 1.335 . S
C247 C246 1.335 . S
C247 C248 1.398 . S
C247 H274 0.930 . S
C248 C243 1.382 . S
C248 C247 1.398 . S
C248 H275 0.929 . S
C249 O262 1.271 . S
C249 O263 1.251 . S
C250 O264 1.252 . S
C250 O265 1.272 . S
C251 Sm241 2.846 . S
C251 C252 1.506 . S
C251 O266 1.261 . S
C251 O267 1.242 . S
C252 C251 1.506 . S
C252 C253 1.358 . S
C252 C257 1.382 . S
C253 C252 1.358 . S
C253 C254 1.385 . S
C253 H276 0.930 . S
C254 C253 1.385 . S
C254 C255 1.395 . S
C254 H277 0.929 . S
C255 C254 1.395 . S
C255 C256 1.335 . S
C256 C255 1.335 . S
C256 C257 1.398 . S
C256 H278 0.930 . S
C257 C252 1.382 . S
C257 C256 1.398 . S
C257 H279 0.929 . S
C258 O268 1.271 . S
C258 O269 1.251 . S
C259 O270 1.252 . S
C259 O271 1.272 . S
O260 Sm240 2.543 . S
O260 C242 1.261 . S
O261 Sm240 2.450 . S
O261 C242 1.242 . S
O262 Sm240 2.681 . S
O262 Sm241 2.386 . S
O262 C249 1.271 . S
O263 Sm240 2.464 . S
O263 C249 1.251 . S
O264 Sm240 2.396 . S
O264 C250 1.252 . S
O265 Sm241 2.408 . S
O265 C250 1.272 . S
O266 Sm241 2.543 . S
O266 C251 1.261 . S
O267 Sm241 2.450 . S
O267 C251 1.242 . S
O268 Sm240 2.386 . S
O268 Sm241 2.681 . S
O268 C258 1.271 . S
O269 Sm241 2.464 . S
O269 C258 1.251 . S
O270 Sm241 2.396 . S
O270 C259 1.252 . S
O271 Sm240 2.408 . S
O271 C259 1.272 . S
H272 C244 0.930 . S
H273 C245 0.929 . S
H274 C247 0.930 . S
H275 C248 0.929 . S
H276 C253 0.930 . S
H277 C254 0.929 . S
H278 C256 0.930 . S
H279 C257 0.929 . S
Sm280 C282 2.846 . S
Sm280 O300 2.543 . S
Sm280 O301 2.450 . S
Sm280 O302 2.681 . S
Sm280 O303 2.464 . S
Sm280 O304 2.396 . S
Sm280 O308 2.386 . S
Sm280 O311 2.408 . S
Sm281 C291 2.846 . S
Sm281 O302 2.386 . S
Sm281 O305 2.408 . S
Sm281 O306 2.543 . S
Sm281 O307 2.450 . S
Sm281 O308 2.681 . S
Sm281 O309 2.464 . S
Sm281 O310 2.396 . S
C282 Sm280 2.846 . S
C282 C283 1.506 . S
C282 O300 1.261 . S
C282 O301 1.242 . S
C283 C282 1.506 . S
C283 C284 1.358 . S
C283 C288 1.382 . S
C284 C283 1.358 . S
C284 C285 1.385 . S
C284 H312 0.930 . S
C285 C284 1.385 . S
C285 C286 1.395 . S
C285 H313 0.929 . S
C286 C285 1.395 . S
C286 C287 1.335 . S
C287 C286 1.335 . S
C287 C288 1.398 . S
C287 H314 0.930 . S
C288 C283 1.382 . S
C288 C287 1.398 . S
C288 H315 0.929 . S
C289 O302 1.271 . S
C289 O303 1.251 . S
C290 O304 1.252 . S
C290 O305 1.272 . S
C291 Sm281 2.846 . S
C291 C292 1.506 . S
C291 O306 1.261 . S
C291 O307 1.242 . S
C292 C291 1.506 . S
C292 C293 1.358 . S
C292 C297 1.382 . S
C293 C292 1.358 . S
C293 C294 1.385 . S
C293 H316 0.930 . S
C294 C293 1.385 . S
C294 C295 1.395 . S
C294 H317 0.929 . S
C295 C294 1.395 . S
C295 C296 1.335 . S
C296 C295 1.335 . S
C296 C297 1.398 . S
C296 H318 0.930 . S
C297 C292 1.382 . S
C297 C296 1.398 . S
C297 H319 0.929 . S
C298 O308 1.271 . S
C298 O309 1.251 . S
C299 O310 1.252 . S
C299 O311 1.272 . S
O300 Sm280 2.543 . S
O300 C282 1.261 . S
O301 Sm280 2.450 . S
O301 C282 1.242 . S
O302 Sm280 2.681 . S
O302 Sm281 2.386 . S
O302 C289 1.271 . S
O303 Sm280 2.464 . S
O303 C289 1.251 . S
O304 Sm280 2.396 . S
O304 C290 1.252 . S
O305 Sm281 2.408 . S
O305 C290 1.272 . S
O306 Sm281 2.543 . S
O306 C291 1.261 . S
O307 Sm281 2.450 . S
O307 C291 1.242 . S
O308 Sm280 2.386 . S
O308 Sm281 2.681 . S
O308 C298 1.271 . S
O309 Sm281 2.464 . S
O309 C298 1.251 . S
O310 Sm281 2.396 . S
O310 C299 1.252 . S
O311 Sm280 2.408 . S
O311 C299 1.272 . S
H312 C284 0.930 . S
H313 C285 0.929 . S
H314 C287 0.930 . S
H315 C288 0.929 . S
H316 C293 0.930 . S
H317 C294 0.929 . S
H318 C296 0.930 . S
H319 C297 0.929 . S
Sm320 C322 2.846 . S
Sm320 O340 2.543 . S
Sm320 O341 2.450 . S
Sm320 O342 2.681 . S
Sm320 O343 2.464 . S
Sm320 O344 2.396 . S
Sm320 O348 2.386 . S
Sm320 O351 2.408 . S
Sm321 C331 2.846 . S
Sm321 O342 2.386 . S
Sm321 O345 2.408 . S
Sm321 O346 2.543 . S
Sm321 O347 2.450 . S
Sm321 O348 2.681 . S
Sm321 O349 2.464 . S
Sm321 O350 2.396 . S
C322 Sm320 2.846 . S
C322 C323 1.506 . S
C322 O340 1.261 . S
C322 O341 1.242 . S
C323 C322 1.506 . S
C323 C324 1.358 . S
C323 C328 1.382 . S
C324 C323 1.358 . S
C324 C325 1.385 . S
C324 H352 0.930 . S
C325 C324 1.385 . S
C325 C326 1.395 . S
C325 H353 0.929 . S
C326 C325 1.395 . S
C326 C327 1.335 . S
C327 C326 1.335 . S
C327 C328 1.398 . S
C327 H354 0.930 . S
C328 C323 1.382 . S
C328 C327 1.398 . S
C328 H355 0.929 . S
C329 O342 1.271 . S
C329 O343 1.251 . S
C330 O344 1.252 . S
C330 O345 1.272 . S
C331 Sm321 2.846 . S
C331 C332 1.506 . S
C331 O346 1.261 . S
C331 O347 1.242 . S
C332 C331 1.506 . S
C332 C333 1.358 . S
C332 C337 1.382 . S
C333 C332 1.358 . S
C333 C334 1.385 . S
C333 H356 0.930 . S
C334 C333 1.385 . S
C334 C335 1.395 . S
C334 H357 0.929 . S
C335 C334 1.395 . S
C335 C336 1.335 . S
C336 C335 1.335 . S
C336 C337 1.398 . S
C336 H358 0.930 . S
C337 C332 1.382 . S
C337 C336 1.398 . S
C337 H359 0.929 . S
C338 O348 1.271 . S
C338 O349 1.251 . S
C339 O350 1.252 . S
C339 O351 1.272 . S
O340 Sm320 2.543 . S
O340 C322 1.261 . S
O341 Sm320 2.450 . S
O341 C322 1.242 . S
O342 Sm320 2.681 . S
O342 Sm321 2.386 . S
O342 C329 1.271 . S
O343 Sm320 2.464 . S
O343 C329 1.251 . S
O344 Sm320 2.396 . S
O344 C330 1.252 . S
O345 Sm321 2.408 . S
O345 C330 1.272 . S
O346 Sm321 2.543 . S
O346 C331 1.261 . S
O347 Sm321 2.450 . S
O347 C331 1.242 . S
O348 Sm320 2.386 . S
O348 Sm321 2.681 . S
O348 C338 1.271 . S
O349 Sm321 2.464 . S
O349 C338 1.251 . S
O350 Sm321 2.396 . S
O350 C339 1.252 . S
O351 Sm320 2.408 . S
O351 C339 1.272 . S
H352 C324 0.930 . S
H353 C325 0.929 . S
H354 C327 0.930 . S
H355 C328 0.929 . S
H356 C333 0.930 . S
H357 C334 0.929 . S
H358 C336 0.930 . S
H359 C337 0.929 . S
Sm360 C362 2.846 . S
Sm360 O380 2.543 . S
Sm360 O381 2.450 . S
Sm360 O382 2.681 . S
Sm360 O383 2.464 . S
Sm360 O384 2.396 . S
Sm360 O388 2.386 . S
Sm360 O391 2.408 . S
Sm361 C371 2.846 1_554 S
Sm361 O382 2.386 . S
Sm361 O385 2.408 . S
Sm361 O386 2.543 . S
Sm361 O387 2.450 . S
Sm361 O388 2.681 . S
Sm361 O389 2.464 . S
Sm361 O390 2.396 . S
C362 Sm360 2.846 . S
C362 C363 1.506 . S
C362 O380 1.261 . S
C362 O381 1.242 . S
C363 C362 1.506 . S
C363 C364 1.358 . S
C363 C368 1.382 . S
C364 C363 1.358 . S
C364 C365 1.385 . S
C364 H392 0.930 . S
C365 C364 1.385 . S
C365 C366 1.395 . S
C365 H393 0.929 . S
C366 C365 1.395 . S
C366 C367 1.335 . S
C367 C366 1.335 . S
C367 C368 1.398 . S
C367 H394 0.930 . S
C368 C363 1.382 . S
C368 C367 1.398 . S
C368 H395 0.929 . S
C369 O382 1.271 . S
C369 O383 1.251 . S
C370 O384 1.252 . S
C370 O385 1.272 . S
C371 Sm361 2.846 1_556 S
C371 C372 1.506 . S
C371 O386 1.261 1_556 S
C371 O387 1.242 1_556 S
C372 C371 1.506 . S
C372 C373 1.358 . S
C372 C377 1.382 . S
C373 C372 1.358 . S
C373 C374 1.385 . S
C373 H396 0.930 . S
C374 C373 1.385 . S
C374 C375 1.395 . S
C374 H397 0.929 . S
C375 C374 1.395 . S
C375 C376 1.335 . S
C376 C375 1.335 . S
C376 C377 1.398 . S
C376 H398 0.930 . S
C377 C372 1.382 . S
C377 C376 1.398 . S
C377 H399 0.929 . S
C378 O388 1.271 . S
C378 O389 1.251 . S
C379 O390 1.252 . S
C379 O391 1.272 . S
O380 Sm360 2.543 . S
O380 C362 1.261 . S
O381 Sm360 2.450 . S
O381 C362 1.242 . S
O382 Sm360 2.681 . S
O382 Sm361 2.386 . S
O382 C369 1.271 . S
O383 Sm360 2.464 . S
O383 C369 1.251 . S
O384 Sm360 2.396 . S
O384 C370 1.252 . S
O385 Sm361 2.408 . S
O385 C370 1.272 . S
O386 Sm361 2.543 . S
O386 C371 1.261 1_554 S
O387 Sm361 2.450 . S
O387 C371 1.242 1_554 S
O388 Sm360 2.386 . S
O388 Sm361 2.681 . S
O388 C378 1.271 . S
O389 Sm361 2.464 . S
O389 C378 1.251 . S
O390 Sm361 2.396 . S
O390 C379 1.252 . S
O391 Sm360 2.408 . S
O391 C379 1.272 . S
H392 C364 0.930 . S
H393 C365 0.929 . S
H394 C367 0.930 . S
H395 C368 0.929 . S
H396 C373 0.930 . S
H397 C374 0.929 . S
H398 C376 0.930 . S
H399 C377 0.929 . S
Sm400 C402 2.846 . S
Sm400 O420 2.543 . S
Sm400 O421 2.450 . S
Sm400 O422 2.681 . S
Sm400 O423 2.464 . S
Sm400 O424 2.396 . S
Sm400 O428 2.386 . S
Sm400 O431 2.408 . S
Sm401 C411 2.846 . S
Sm401 O422 2.386 . S
Sm401 O425 2.408 . S
Sm401 O426 2.543 . S
Sm401 O427 2.450 . S
Sm401 O428 2.681 . S
Sm401 O429 2.464 . S
Sm401 O430 2.396 . S
C402 Sm400 2.846 . S
C402 C403 1.506 1_556 S
C402 O420 1.261 . S
C402 O421 1.242 . S
C403 C402 1.506 1_554 S
C403 C404 1.358 . S
C403 C408 1.382 . S
C404 C403 1.358 . S
C404 C405 1.385 . S
C404 H432 0.930 . S
C405 C404 1.385 . S
C405 C406 1.395 . S
C405 H433 0.929 . S
C406 C405 1.395 . S
C406 C407 1.335 . S
C407 C406 1.335 . S
C407 C408 1.398 . S
C407 H434 0.930 . S
C408 C403 1.382 . S
C408 C407 1.398 . S
C408 H435 0.929 . S
C409 O422 1.271 . S
C409 O423 1.251 . S
C410 O424 1.252 . S
C410 O425 1.272 . S
C411 Sm401 2.846 . S
C411 C412 1.506 . S
C411 O426 1.261 . S
C411 O427 1.242 . S
C412 C411 1.506 . S
C412 C413 1.358 . S
C412 C417 1.382 . S
C413 C412 1.358 . S
C413 C414 1.385 . S
C413 H436 0.930 . S
C414 C413 1.385 . S
C414 C415 1.395 . S
C414 H437 0.929 . S
C415 C414 1.395 . S
C415 C416 1.335 . S
C416 C415 1.335 . S
C416 C417 1.398 . S
C416 H438 0.930 . S
C417 C412 1.382 . S
C417 C416 1.398 . S
C417 H439 0.929 . S
C418 O428 1.271 . S
C418 O429 1.251 . S
C419 O430 1.252 . S
C419 O431 1.272 . S
O420 Sm400 2.543 . S
O420 C402 1.261 . S
O421 Sm400 2.450 . S
O421 C402 1.242 . S
O422 Sm400 2.681 . S
O422 Sm401 2.386 . S
O422 C409 1.271 . S
O423 Sm400 2.464 . S
O423 C409 1.251 . S
O424 Sm400 2.396 . S
O424 C410 1.252 . S
O425 Sm401 2.408 . S
O425 C410 1.272 . S
O426 Sm401 2.543 . S
O426 C411 1.261 . S
O427 Sm401 2.450 . S
O427 C411 1.242 . S
O428 Sm400 2.386 . S
O428 Sm401 2.681 . S
O428 C418 1.271 . S
O429 Sm401 2.464 . S
O429 C418 1.251 . S
O430 Sm401 2.396 . S
O430 C419 1.252 . S
O431 Sm400 2.408 . S
O431 C419 1.272 . S
H432 C404 0.930 . S
H433 C405 0.929 . S
H434 C407 0.930 . S
H435 C408 0.929 . S
H436 C413 0.930 . S
H437 C414 0.929 . S
H438 C416 0.930 . S
H439 C417 0.929 . S
Sm440 C442 2.846 . S
Sm440 O460 2.543 . S
Sm440 O461 2.450 . S
Sm440 O462 2.681 . S
Sm440 O463 2.464 . S
Sm440 O464 2.396 . S
Sm440 O468 2.386 . S
Sm440 O471 2.408 . S
Sm441 C451 2.846 . S
Sm441 O462 2.386 . S
Sm441 O465 2.408 . S
Sm441 O466 2.543 . S
Sm441 O467 2.450 . S
Sm441 O468 2.681 . S
Sm441 O469 2.464 . S
Sm441 O470 2.396 . S
C442 Sm440 2.846 . S
C442 C443 1.506 . S
C442 O460 1.261 . S
C442 O461 1.242 . S
C443 C442 1.506 . S
C443 C444 1.358 . S
C443 C448 1.382 . S
C444 C443 1.358 . S
C444 C445 1.385 . S
C444 H472 0.930 . S
C445 C444 1.385 . S
C445 C446 1.395 . S
C445 H473 0.929 . S
C446 C445 1.395 . S
C446 C447 1.335 . S
C447 C446 1.335 . S
C447 C448 1.398 . S
C447 H474 0.930 . S
C448 C443 1.382 . S
C448 C447 1.398 . S
C448 H475 0.929 . S
C449 O462 1.271 . S
C449 O463 1.251 . S
C450 O464 1.252 . S
C450 O465 1.272 . S
C451 Sm441 2.846 . S
C451 C452 1.506 . S
C451 O466 1.261 . S
C451 O467 1.242 . S
C452 C451 1.506 . S
C452 C453 1.358 . S
C452 C457 1.382 . S
C453 C452 1.358 . S
C453 C454 1.385 . S
C453 H476 0.930 . S
C454 C453 1.385 . S
C454 C455 1.395 . S
C454 H477 0.929 . S
C455 C454 1.395 . S
C455 C456 1.335 . S
C456 C455 1.335 . S
C456 C457 1.398 . S
C456 H478 0.930 . S
C457 C452 1.382 . S
C457 C456 1.398 . S
C457 H479 0.929 . S
C458 O468 1.271 . S
C458 O469 1.251 . S
C459 O470 1.252 . S
C459 O471 1.272 . S
O460 Sm440 2.543 . S
O460 C442 1.261 . S
O461 Sm440 2.450 . S
O461 C442 1.242 . S
O462 Sm440 2.681 . S
O462 Sm441 2.386 . S
O462 C449 1.271 . S
O463 Sm440 2.464 . S
O463 C449 1.251 . S
O464 Sm440 2.396 . S
O464 C450 1.252 . S
O465 Sm441 2.408 . S
O465 C450 1.272 . S
O466 Sm441 2.543 . S
O466 C451 1.261 . S
O467 Sm441 2.450 . S
O467 C451 1.242 . S
O468 Sm440 2.386 . S
O468 Sm441 2.681 . S
O468 C458 1.271 . S
O469 Sm441 2.464 . S
O469 C458 1.251 . S
O470 Sm441 2.396 . S
O470 C459 1.252 . S
O471 Sm440 2.408 . S
O471 C459 1.272 . S
H472 C444 0.930 . S
H473 C445 0.929 . S
H474 C447 0.930 . S
H475 C448 0.929 . S
H476 C453 0.930 . S
H477 C454 0.929 . S
H478 C456 0.930 . S
H479 C457 0.929 . S
Sm480 C482 2.846 . S
Sm480 O500 2.543 . S
Sm480 O501 2.450 . S
Sm480 O502 2.681 . S
Sm480 O503 2.464 . S
Sm480 O504 2.396 . S
Sm480 O508 2.386 . S
Sm480 O511 2.408 . S
Sm481 C491 2.846 . S
Sm481 O502 2.386 . S
Sm481 O505 2.408 . S
Sm481 O506 2.543 . S
Sm481 O507 2.450 . S
Sm481 O508 2.681 . S
Sm481 O509 2.464 . S
Sm481 O510 2.396 . S
C482 Sm480 2.846 . S
C482 C483 1.506 . S
C482 O500 1.261 . S
C482 O501 1.242 . S
C483 C482 1.506 . S
C483 C484 1.358 . S
C483 C488 1.382 . S
C484 C483 1.358 . S
C484 C485 1.385 . S
C484 H512 0.930 . S
C485 C484 1.385 . S
C485 C486 1.395 . S
C485 H513 0.929 . S
C486 C485 1.395 . S
C486 C487 1.335 . S
C487 C486 1.335 . S
C487 C488 1.398 . S
C487 H514 0.930 . S
C488 C483 1.382 . S
C488 C487 1.398 . S
C488 H515 0.929 . S
C489 O502 1.271 . S
C489 O503 1.251 . S
C490 O504 1.252 . S
C490 O505 1.272 . S
C491 Sm481 2.846 . S
C491 C492 1.506 . S
C491 O506 1.261 . S
C491 O507 1.242 . S
C492 C491 1.506 . S
C492 C493 1.358 . S
C492 C497 1.382 . S
C493 C492 1.358 . S
C493 C494 1.385 . S
C493 H516 0.930 . S
C494 C493 1.385 . S
C494 C495 1.395 . S
C494 H517 0.929 . S
C495 C494 1.395 . S
C495 C496 1.335 . S
C496 C495 1.335 . S
C496 C497 1.398 . S
C496 H518 0.930 . S
C497 C492 1.382 . S
C497 C496 1.398 . S
C497 H519 0.929 . S
C498 O508 1.271 . S
C498 O509 1.251 . S
C499 O510 1.252 . S
C499 O511 1.272 . S
O500 Sm480 2.543 . S
O500 C482 1.261 . S
O501 Sm480 2.450 . S
O501 C482 1.242 . S
O502 Sm480 2.681 . S
O502 Sm481 2.386 . S
O502 C489 1.271 . S
O503 Sm480 2.464 . S
O503 C489 1.251 . S
O504 Sm480 2.396 . S
O504 C490 1.252 . S
O505 Sm481 2.408 . S
O505 C490 1.272 . S
O506 Sm481 2.543 . S
O506 C491 1.261 . S
O507 Sm481 2.450 . S
O507 C491 1.242 . S
O508 Sm480 2.386 . S
O508 Sm481 2.681 . S
O508 C498 1.271 . S
O509 Sm481 2.464 . S
O509 C498 1.251 . S
O510 Sm481 2.396 . S
O510 C499 1.252 . S
O511 Sm480 2.408 . S
O511 C499 1.272 . S
H512 C484 0.930 . S
H513 C485 0.929 . S
H514 C487 0.930 . S
H515 C488 0.929 . S
H516 C493 0.930 . S
H517 C494 0.929 . S
H518 C496 0.930 . S
H519 C497 0.929 . S
Sm520 C522 2.846 . S
Sm520 O540 2.543 . S
Sm520 O541 2.450 . S
Sm520 O542 2.681 1_655 S
Sm520 O543 2.464 . S
Sm520 O544 2.396 1_655 S
Sm520 O548 2.386 1_655 S
Sm520 O551 2.408 . S
Sm521 C531 2.846 . S
Sm521 O542 2.386 . S
Sm521 O545 2.408 . S
Sm521 O546 2.543 . S
Sm521 O547 2.450 . S
Sm521 O548 2.681 . S
Sm521 O549 2.464 . S
Sm521 O550 2.396 . S
C522 Sm520 2.846 . S
C522 C523 1.506 . S
C522 O540 1.261 . S
C522 O541 1.242 . S
C523 C522 1.506 . S
C523 C524 1.358 . S
C523 C528 1.382 . S
C524 C523 1.358 . S
C524 C525 1.385 . S
C524 H552 0.930 . S
C525 C524 1.385 . S
C525 C526 1.395 . S
C525 H553 0.929 . S
C526 C525 1.395 . S
C526 C527 1.335 . S
C527 C526 1.335 . S
C527 C528 1.398 . S
C527 H554 0.930 . S
C528 C523 1.382 . S
C528 C527 1.398 . S
C528 H555 0.929 . S
C529 O542 1.271 . S
C529 O543 1.251 1_455 S
C530 O544 1.252 . S
C530 O545 1.272 . S
C531 Sm521 2.846 . S
C531 C532 1.506 1_554 S
C531 O546 1.261 . S
C531 O547 1.242 . S
C532 C531 1.506 1_556 S
C532 C533 1.358 . S
C532 C537 1.382 . S
C533 C532 1.358 . S
C533 C534 1.385 . S
C533 H556 0.930 . S
C534 C533 1.385 . S
C534 C535 1.395 . S
C534 H557 0.929 . S
C535 C534 1.395 . S
C535 C536 1.335 . S
C536 C535 1.335 . S
C536 C537 1.398 . S
C536 H558 0.930 . S
C537 C532 1.382 . S
C537 C536 1.398 . S
C537 H559 0.929 . S
C538 O548 1.271 . S
C538 O549 1.251 . S
C539 O550 1.252 1_655 S
C539 O551 1.272 . S
O540 Sm520 2.543 . S
O540 C522 1.261 . S
O541 Sm520 2.450 . S
O541 C522 1.242 . S
O542 Sm520 2.681 1_455 S
O542 Sm521 2.386 . S
O542 C529 1.271 . S
O543 Sm520 2.464 . S
O543 C529 1.251 1_655 S
O544 Sm520 2.396 1_455 S
O544 C530 1.252 . S
O545 Sm521 2.408 . S
O545 C530 1.272 . S
O546 Sm521 2.543 . S
O546 C531 1.261 . S
O547 Sm521 2.450 . S
O547 C531 1.242 . S
O548 Sm520 2.386 1_455 S
O548 Sm521 2.681 . S
O548 C538 1.271 . S
O549 Sm521 2.464 . S
O549 C538 1.251 . S
O550 Sm521 2.396 . S
O550 C539 1.252 1_455 S
O551 Sm520 2.408 . S
O551 C539 1.272 . S
H552 C524 0.930 . S
H553 C525 0.929 . S
H554 C527 0.930 . S
H555 C528 0.929 . S
H556 C533 0.930 . S
H557 C534 0.929 . S
H558 C536 0.930 . S
H559 C537 0.929 . S
Sm560 C562 2.846 . S
Sm560 O580 2.543 . S
Sm560 O581 2.450 . S
Sm560 O582 2.681 . S
Sm560 O583 2.464 . S
Sm560 O584 2.396 . S
Sm560 O588 2.386 . S
Sm560 O591 2.408 . S
Sm561 C571 2.846 . S
Sm561 O582 2.386 . S
Sm561 O585 2.408 . S
Sm561 O586 2.543 . S
Sm561 O587 2.450 . S
Sm561 O588 2.681 . S
Sm561 O589 2.464 . S
Sm561 O590 2.396 . S
C562 Sm560 2.846 . S
C562 C563 1.506 . S
C562 O580 1.261 . S
C562 O581 1.242 . S
C563 C562 1.506 . S
C563 C564 1.358 . S
C563 C568 1.382 . S
C564 C563 1.358 . S
C564 C565 1.385 . S
C564 H592 0.930 . S
C565 C564 1.385 . S
C565 C566 1.395 . S
C565 H593 0.929 . S
C566 C565 1.395 . S
C566 C567 1.335 . S
C567 C566 1.335 . S
C567 C568 1.398 . S
C567 H594 0.930 . S
C568 C563 1.382 . S
C568 C567 1.398 . S
C568 H595 0.929 . S
C569 O582 1.271 . S
C569 O583 1.251 . S
C570 O584 1.252 . S
C570 O585 1.272 . S
C571 Sm561 2.846 . S
C571 C572 1.506 . S
C571 O586 1.261 . S
C571 O587 1.242 . S
C572 C571 1.506 . S
C572 C573 1.358 . S
C572 C577 1.382 . S
C573 C572 1.358 . S
C573 C574 1.385 . S
C573 H596 0.930 . S
C574 C573 1.385 . S
C574 C575 1.395 . S
C574 H597 0.929 . S
C575 C574 1.395 . S
C575 C576 1.335 . S
C576 C575 1.335 . S
C576 C577 1.398 . S
C576 H598 0.930 . S
C577 C572 1.382 . S
C577 C576 1.398 . S
C577 H599 0.929 . S
C578 O588 1.271 . S
C578 O589 1.251 . S
C579 O590 1.252 . S
C579 O591 1.272 . S
O580 Sm560 2.543 . S
O580 C562 1.261 . S
O581 Sm560 2.450 . S
O581 C562 1.242 . S
O582 Sm560 2.681 . S
O582 Sm561 2.386 . S
O582 C569 1.271 . S
O583 Sm560 2.464 . S
O583 C569 1.251 . S
O584 Sm560 2.396 . S
O584 C570 1.252 . S
O585 Sm561 2.408 . S
O585 C570 1.272 . S
O586 Sm561 2.543 . S
O586 C571 1.261 . S
O587 Sm561 2.450 . S
O587 C571 1.242 . S
O588 Sm560 2.386 . S
O588 Sm561 2.681 . S
O588 C578 1.271 . S
O589 Sm561 2.464 . S
O589 C578 1.251 . S
O590 Sm561 2.396 . S
O590 C579 1.252 . S
O591 Sm560 2.408 . S
O591 C579 1.272 . S
H592 C564 0.930 . S
H593 C565 0.929 . S
H594 C567 0.930 . S
H595 C568 0.929 . S
H596 C573 0.930 . S
H597 C574 0.929 . S
H598 C576 0.930 . S
H599 C577 0.929 . S
Sm600 C602 2.846 . S
Sm600 O620 2.543 . S
Sm600 O621 2.450 . S
Sm600 O622 2.681 1_655 S
Sm600 O623 2.464 . S
Sm600 O624 2.396 1_655 S
Sm600 O628 2.386 1_655 S
Sm600 O631 2.408 . S
Sm601 C611 2.846 . S
Sm601 O622 2.386 . S
Sm601 O625 2.408 . S
Sm601 O626 2.543 . S
Sm601 O627 2.450 . S
Sm601 O628 2.681 . S
Sm601 O629 2.464 . S
Sm601 O630 2.396 . S
C602 Sm600 2.846 . S
C602 C603 1.506 1_556 S
C602 O620 1.261 . S
C602 O621 1.242 . S
C603 C602 1.506 1_554 S
C603 C604 1.358 . S
C603 C608 1.382 . S
C604 C603 1.358 . S
C604 C605 1.385 . S
C604 H632 0.930 . S
C605 C604 1.385 . S
C605 C606 1.395 . S
C605 H633 0.929 . S
C606 C605 1.395 . S
C606 C607 1.335 . S
C607 C606 1.335 . S
C607 C608 1.398 . S
C607 H634 0.930 . S
C608 C603 1.382 . S
C608 C607 1.398 . S
C608 H635 0.929 . S
C609 O622 1.271 . S
C609 O623 1.251 1_455 S
C610 O624 1.252 . S
C610 O625 1.272 . S
C611 Sm601 2.846 . S
C611 C612 1.506 . S
C611 O626 1.261 . S
C611 O627 1.242 . S
C612 C611 1.506 . S
C612 C613 1.358 . S
C612 C617 1.382 . S
C613 C612 1.358 . S
C613 C614 1.385 . S
C613 H636 0.930 . S
C614 C613 1.385 . S
C614 C615 1.395 . S
C614 H637 0.929 . S
C615 C614 1.395 . S
C615 C616 1.335 . S
C616 C615 1.335 . S
C616 C617 1.398 . S
C616 H638 0.930 . S
C617 C612 1.382 . S
C617 C616 1.398 . S
C617 H639 0.929 . S
C618 O628 1.271 . S
C618 O629 1.251 . S
C619 O630 1.252 1_655 S
C619 O631 1.272 . S
O620 Sm600 2.543 . S
O620 C602 1.261 . S
O621 Sm600 2.450 . S
O621 C602 1.242 . S
O622 Sm600 2.681 1_455 S
O622 Sm601 2.386 . S
O622 C609 1.271 . S
O623 Sm600 2.464 . S
O623 C609 1.251 1_655 S
O624 Sm600 2.396 1_455 S
O624 C610 1.252 . S
O625 Sm601 2.408 . S
O625 C610 1.272 . S
O626 Sm601 2.543 . S
O626 C611 1.261 . S
O627 Sm601 2.450 . S
O627 C611 1.242 . S
O628 Sm600 2.386 1_455 S
O628 Sm601 2.681 . S
O628 C618 1.271 . S
O629 Sm601 2.464 . S
O629 C618 1.251 . S
O630 Sm601 2.396 . S
O630 C619 1.252 1_455 S
O631 Sm600 2.408 . S
O631 C619 1.272 . S
H632 C604 0.930 . S
H633 C605 0.929 . S
H634 C607 0.930 . S
H635 C608 0.929 . S
H636 C613 0.930 . S
H637 C614 0.929 . S
H638 C616 0.930 . S
H639 C617 0.929 . S
H640 C648 0.950 . S
H641 C653 0.950 . S
H642 C650 0.950 . S
H643 C652 0.950 . S
H644 C654 0.950 . S
H645 C656 0.950 . S
H646 C658 0.950 . S
H647 C659 0.950 . S
C648 H640 0.950 . S
C648 C649 1.386 . S
C648 C650 1.391 . S
C649 C648 1.386 . S
C649 C653 1.393 . S
C650 H642 0.950 . S
C650 C648 1.391 . S
C650 C651 1.400 . S
C651 C650 1.400 . S
C651 C652 1.398 . S
C651 C657 1.491 . S
C652 H643 0.950 . S
C652 C651 1.398 . S
C652 C653 1.391 . S
C653 H641 0.950 . S
C653 C649 1.393 . S
C653 C652 1.391 . S
C654 H644 0.950 . S
C654 C655 1.386 . S
C654 C656 1.391 . S
C655 C654 1.386 . S
C655 C659 1.393 . S
C656 H645 0.950 . S
C656 C654 1.391 . S
C656 C657 1.400 . S
C657 C651 1.491 . S
C657 C656 1.400 . S
C657 C658 1.398 . S
C658 H646 0.950 . S
C658 C657 1.398 . S
C658 C659 1.391 . S
C659 H647 0.950 . S
C659 C655 1.393 . S
C659 C658 1.391 . S
H660 C668 0.950 . S
H661 C673 0.950 . S
H662 C670 0.950 . S
H663 C672 0.950 . S
H664 C674 0.950 . S
H665 C676 0.950 . S
H666 C678 0.950 . S
H667 C679 0.950 . S
C668 H660 0.950 . S
C668 C669 1.386 . S
C668 C670 1.391 . S
C669 C668 1.386 . S
C669 C673 1.393 . S
C670 H662 0.950 . S
C670 C668 1.391 . S
C670 C671 1.400 . S
C671 C670 1.400 . S
C671 C672 1.398 . S
C671 C677 1.491 . S
C672 H663 0.950 . S
C672 C671 1.398 . S
C672 C673 1.391 . S
C673 H661 0.950 . S
C673 C669 1.393 . S
C673 C672 1.391 . S
C674 H664 0.950 . S
C674 C675 1.386 . S
C674 C676 1.391 . S
C675 C674 1.386 . S
C675 C679 1.393 . S
C676 H665 0.950 . S
C676 C674 1.391 . S
C676 C677 1.400 . S
C677 C671 1.491 . S
C677 C676 1.400 . S
C677 C678 1.398 . S
C678 H666 0.950 . S
C678 C677 1.398 . S
C678 C679 1.391 . S
C679 H667 0.950 . S
C679 C675 1.393 . S
C679 C678 1.391 . S
H680 C688 0.950 . S
H681 C693 0.950 . S
H682 C690 0.950 . S
H683 C692 0.950 . S
H684 C694 0.950 . S
H685 C696 0.950 . S
H686 C698 0.950 . S
H687 C699 0.950 . S
C688 H680 0.950 . S
C688 C689 1.386 . S
C688 C690 1.391 . S
C689 C688 1.386 . S
C689 C693 1.393 . S
C690 H682 0.950 . S
C690 C688 1.391 . S
C690 C691 1.400 . S
C691 C690 1.400 . S
C691 C692 1.398 . S
C691 C697 1.491 . S
C692 H683 0.950 . S
C692 C691 1.398 . S
C692 C693 1.391 . S
C693 H681 0.950 . S
C693 C689 1.393 . S
C693 C692 1.391 . S
C694 H684 0.950 . S
C694 C695 1.386 . S
C694 C696 1.391 . S
C695 C694 1.386 . S
C695 C699 1.393 . S
C696 H685 0.950 . S
C696 C694 1.391 . S
C696 C697 1.400 . S
C697 C691 1.491 . S
C697 C696 1.400 . S
C697 C698 1.398 . S
C698 H686 0.950 . S
C698 C697 1.398 . S
C698 C699 1.391 . S
C699 H687 0.950 . S
C699 C695 1.393 . S
C699 C698 1.391 . S
H700 C708 0.950 . S
H701 C713 0.950 . S
H702 C710 0.950 . S
H703 C712 0.950 . S
H704 C714 0.950 . S
H705 C716 0.950 . S
H706 C718 0.950 . S
H707 C719 0.950 . S
C708 H700 0.950 . S
C708 C709 1.386 . S
C708 C710 1.391 . S
C709 C708 1.386 . S
C709 C713 1.393 . S
C710 H702 0.950 . S
C710 C708 1.391 . S
C710 C711 1.400 . S
C711 C710 1.400 . S
C711 C712 1.398 . S
C711 C717 1.491 . S
C712 H703 0.950 . S
C712 C711 1.398 . S
C712 C713 1.391 . S
C713 H701 0.950 . S
C713 C709 1.393 . S
C713 C712 1.391 . S
C714 H704 0.950 . S
C714 C715 1.386 . S
C714 C716 1.391 . S
C715 C714 1.386 . S
C715 C719 1.393 . S
C716 H705 0.950 . S
C716 C714 1.391 . S
C716 C717 1.400 . S
C717 C711 1.491 . S
C717 C716 1.400 . S
C717 C718 1.398 . S
C718 H706 0.950 . S
C718 C717 1.398 . S
C718 C719 1.391 . S
C719 H707 0.950 . S
C719 C715 1.393 . S
C719 C718 1.391 . S
H720 C728 0.950 . S
H721 C733 0.950 . S
H722 C730 0.950 . S
H723 C732 0.950 . S
H724 C734 0.950 . S
H725 C736 0.950 . S
H726 C738 0.950 . S
H727 C739 0.950 . S
C728 H720 0.950 . S
C728 C729 1.386 . S
C728 C730 1.391 . S
C729 C728 1.386 . S
C729 C733 1.393 . S
C730 H722 0.950 . S
C730 C728 1.391 . S
C730 C731 1.400 . S
C731 C730 1.400 . S
C731 C732 1.398 . S
C731 C737 1.491 . S
C732 H723 0.950 . S
C732 C731 1.398 . S
C732 C733 1.391 . S
C733 H721 0.950 . S
C733 C729 1.393 . S
C733 C732 1.391 . S
C734 H724 0.950 . S
C734 C735 1.386 . S
C734 C736 1.391 1_556 S
C735 C734 1.386 . S
C735 C739 1.393 . S
C736 H725 0.950 . S
C736 C734 1.391 1_554 S
C736 C737 1.400 . S
C737 C731 1.491 . S
C737 C736 1.400 . S
C737 C738 1.398 . S
C738 H726 0.950 . S
C738 C737 1.398 . S
C738 C739 1.391 1_554 S
C739 H727 0.950 . S
C739 C735 1.393 . S
C739 C738 1.391 1_556 S
H740 C748 0.950 . S
H741 C753 0.950 . S
H742 C750 0.950 . S
H743 C752 0.950 . S
H744 C754 0.949 . S
H745 C756 0.950 . S
H746 C758 0.950 . S
H747 C759 0.950 . S
C748 H740 0.950 . S
C748 C749 1.386 . S
C748 C750 1.391 . S
C749 C748 1.386 . S
C749 C753 1.393 . S
C750 H742 0.950 . S
C750 C748 1.391 . S
C750 C751 1.400 . S
C751 C750 1.400 . S
C751 C752 1.398 . S
C751 C757 1.491 . S
C752 H743 0.950 . S
C752 C751 1.398 . S
C752 C753 1.391 . S
C753 H741 0.950 . S
C753 C749 1.393 . S
C753 C752 1.391 . S
C754 H744 0.949 . S
C754 C755 1.386 . S
C754 C756 1.391 . S
C755 C754 1.386 . S
C755 C759 1.393 . S
C756 H745 0.950 . S
C756 C754 1.391 . S
C756 C757 1.400 . S
C757 C751 1.491 . S
C757 C756 1.400 . S
C757 C758 1.398 . S
C758 H746 0.950 . S
C758 C757 1.398 . S
C758 C759 1.391 . S
C759 H747 0.950 . S
C759 C755 1.393 . S
C759 C758 1.391 . S
H760 C768 0.950 . S
H761 C773 0.950 . S
H762 C770 0.950 . S
H763 C772 0.950 . S
H764 C774 0.950 . S
H765 C776 0.950 . S
H766 C778 0.950 . S
H767 C779 0.950 . S
C768 H760 0.950 . S
C768 C769 1.386 . S
C768 C770 1.391 . S
C769 C768 1.386 . S
C769 C773 1.393 . S
C770 H762 0.950 . S
C770 C768 1.391 . S
C770 C771 1.400 . S
C771 C770 1.400 . S
C771 C772 1.398 . S
C771 C777 1.491 . S
C772 H763 0.950 . S
C772 C771 1.398 . S
C772 C773 1.391 . S
C773 H761 0.950 . S
C773 C769 1.393 . S
C773 C772 1.391 . S
C774 H764 0.950 . S
C774 C775 1.386 . S
C774 C776 1.391 . S
C775 C774 1.386 . S
C775 C779 1.393 . S
C776 H765 0.950 . S
C776 C774 1.391 . S
C776 C777 1.400 . S
C777 C771 1.491 . S
C777 C776 1.400 . S
C777 C778 1.398 . S
C778 H766 0.950 . S
C778 C777 1.398 . S
C778 C779 1.391 . S
C779 H767 0.950 . S
C779 C775 1.393 . S
C779 C778 1.391 . S
H780 C788 0.950 . S
H781 C793 0.950 . S
H782 C790 0.950 . S
H783 C792 0.950 . S
H784 C794 0.950 . S
H785 C796 0.950 . S
H786 C798 0.950 . S
H787 C799 0.950 . S
C788 H780 0.950 . S
C788 C789 1.386 . S
C788 C790 1.391 . S
C789 C788 1.386 . S
C789 C793 1.393 . S
C790 H782 0.950 . S
C790 C788 1.391 . S
C790 C791 1.400 . S
C791 C790 1.400 . S
C791 C792 1.398 . S
C791 C797 1.491 . S
C792 H783 0.950 . S
C792 C791 1.398 . S
C792 C793 1.391 . S
C793 H781 0.950 . S
C793 C789 1.393 . S
C793 C792 1.391 . S
C794 H784 0.950 . S
C794 C795 1.386 . S
C794 C796 1.391 . S
C795 C794 1.386 . S
C795 C799 1.393 . S
C796 H785 0.950 . S
C796 C794 1.391 . S
C796 C797 1.400 . S
C797 C791 1.491 . S
C797 C796 1.400 . S
C797 C798 1.398 . S
C798 H786 0.950 . S
C798 C797 1.398 . S
C798 C799 1.391 . S
C799 H787 0.950 . S
C799 C795 1.393 . S
C799 C798 1.391 . S
H800 C808 0.950 . S
H801 C813 0.950 . S
H802 C810 0.950 . S
H803 C812 0.950 . S
H804 C814 0.950 . S
H805 C816 0.950 . S
H806 C818 0.950 . S
H807 C819 0.950 . S
C808 H800 0.950 . S
C808 C809 1.386 . S
C808 C810 1.391 . S
C809 C808 1.386 . S
C809 C813 1.393 . S
C810 H802 0.950 . S
C810 C808 1.391 . S
C810 C811 1.400 . S
C811 C810 1.400 . S
C811 C812 1.398 . S
C811 C817 1.491 . S
C812 H803 0.950 . S
C812 C811 1.398 . S
C812 C813 1.391 . S
C813 H801 0.950 . S
C813 C809 1.393 . S
C813 C812 1.391 . S
C814 H804 0.950 . S
C814 C815 1.386 . S
C814 C816 1.391 . S
C815 C814 1.386 . S
C815 C819 1.393 . S
C816 H805 0.950 . S
C816 C814 1.391 . S
C816 C817 1.400 . S
C817 C811 1.491 . S
C817 C816 1.400 . S
C817 C818 1.398 . S
C818 H806 0.950 . S
C818 C817 1.398 . S
C818 C819 1.391 . S
C819 H807 0.950 . S
C819 C815 1.393 . S
C819 C818 1.391 . S
H820 C828 0.950 . S
H821 C833 0.950 . S
H822 C830 0.950 . S
H823 C832 0.950 . S
H824 C834 0.950 . S
H825 C836 0.950 . S
H826 C838 0.950 . S
H827 C839 0.950 . S
C828 H820 0.950 . S
C828 C829 1.386 . S
C828 C830 1.391 . S
C829 C828 1.386 . S
C829 C833 1.393 . S
C830 H822 0.950 . S
C830 C828 1.391 . S
C830 C831 1.400 . S
C831 C830 1.400 . S
C831 C832 1.398 . S
C831 C837 1.491 . S
C832 H823 0.950 . S
C832 C831 1.398 . S
C832 C833 1.391 . S
C833 H821 0.950 . S
C833 C829 1.393 . S
C833 C832 1.391 . S
C834 H824 0.950 . S
C834 C835 1.386 . S
C834 C836 1.391 . S
C835 C834 1.386 . S
C835 C839 1.393 . S
C836 H825 0.950 . S
C836 C834 1.391 . S
C836 C837 1.400 . S
C837 C831 1.491 . S
C837 C836 1.400 . S
C837 C838 1.398 . S
C838 H826 0.950 . S
C838 C837 1.398 . S
C838 C839 1.391 . S
C839 H827 0.950 . S
C839 C835 1.393 . S
C839 C838 1.391 . S
H840 C848 0.950 . S
H841 C853 0.950 . S
H842 C850 0.950 . S
H843 C852 0.950 . S
H844 C854 0.950 . S
H845 C856 0.950 . S
H846 C858 0.950 . S
H847 C859 0.950 . S
C848 H840 0.950 . S
C848 C849 1.386 . S
C848 C850 1.391 1_554 S
C849 C848 1.386 . S
C849 C853 1.393 . S
C850 H842 0.950 . S
C850 C848 1.391 1_556 S
C850 C851 1.400 . S
C851 C850 1.400 . S
C851 C852 1.398 1_556 S
C851 C857 1.491 . S
C852 H843 0.950 . S
C852 C851 1.398 1_554 S
C852 C853 1.391 . S
C853 H841 0.950 . S
C853 C849 1.393 . S
C853 C852 1.391 . S
C854 H844 0.950 . S
C854 C855 1.386 . S
C854 C856 1.391 . S
C855 C854 1.386 . S
C855 C859 1.393 . S
C856 H845 0.950 . S
C856 C854 1.391 . S
C856 C857 1.400 . S
C857 C851 1.491 . S
C857 C856 1.400 . S
C857 C858 1.398 . S
C858 H846 0.950 . S
C858 C857 1.398 . S
C858 C859 1.391 . S
C859 H847 0.950 . S
C859 C855 1.393 . S
C859 C858 1.391 . S
H860 C868 0.950 . S
H861 C873 0.950 . S
H862 C870 0.950 . S
H863 C872 0.950 . S
H864 C874 0.950 . S
H865 C876 0.950 . S
H866 C878 0.950 . S
H867 C879 0.950 . S
C868 H860 0.950 . S
C868 C869 1.386 . S
C868 C870 1.391 . S
C869 C868 1.386 . S
C869 C873 1.393 . S
C870 H862 0.950 . S
C870 C868 1.391 . S
C870 C871 1.400 . S
C871 C870 1.400 . S
C871 C872 1.398 . S
C871 C877 1.491 . S
C872 H863 0.950 . S
C872 C871 1.398 . S
C872 C873 1.391 . S
C873 H861 0.950 . S
C873 C869 1.393 . S
C873 C872 1.391 . S
C874 H864 0.950 . S
C874 C875 1.386 . S
C874 C876 1.391 . S
C875 C874 1.386 . S
C875 C879 1.393 . S
C876 H865 0.950 . S
C876 C874 1.391 . S
C876 C877 1.400 . S
C877 C871 1.491 . S
C877 C876 1.400 . S
C877 C878 1.398 . S
C878 H866 0.950 . S
C878 C877 1.398 . S
C878 C879 1.391 . S
C879 H867 0.950 . S
C879 C875 1.393 . S
C879 C878 1.391 . S
H880 C888 0.950 . S
H881 C893 0.950 . S
H882 C890 0.950 . S
H883 C892 0.950 . S
H884 C894 0.950 . S
H885 C896 0.950 . S
H886 C898 0.950 . S
H887 C899 0.950 . S
C888 H880 0.950 . S
C888 C889 1.386 . S
C888 C890 1.391 . S
C889 C888 1.386 . S
C889 C893 1.393 . S
C890 H882 0.950 . S
C890 C888 1.391 . S
C890 C891 1.400 . S
C891 C890 1.400 . S
C891 C892 1.398 . S
C891 C897 1.491 . S
C892 H883 0.950 . S
C892 C891 1.398 . S
C892 C893 1.391 . S
C893 H881 0.950 . S
C893 C889 1.393 . S
C893 C892 1.391 . S
C894 H884 0.950 . S
C894 C895 1.386 . S
C894 C896 1.391 . S
C895 C894 1.386 . S
C895 C899 1.393 . S
C896 H885 0.950 . S
C896 C894 1.391 . S
C896 C897 1.400 . S
C897 C891 1.491 . S
C897 C896 1.400 . S
C897 C898 1.398 . S
C898 H886 0.950 . S
C898 C897 1.398 . S
C898 C899 1.391 . S
C899 H887 0.950 . S
C899 C895 1.393 . S
C899 C898 1.391 . S
H900 C908 0.950 . S
H901 C913 0.950 . S
H902 C910 0.950 . S
H903 C912 0.950 . S
H904 C914 0.950 . S
H905 C916 0.950 . S
H906 C918 0.950 . S
H907 C919 0.950 . S
C908 H900 0.950 . S
C908 C909 1.386 . S
C908 C910 1.391 . S
C909 C908 1.386 . S
C909 C913 1.393 . S
C910 H902 0.950 . S
C910 C908 1.391 . S
C910 C911 1.400 . S
C911 C910 1.400 . S
C911 C912 1.398 . S
C911 C917 1.491 . S
C912 H903 0.950 . S
C912 C911 1.398 . S
C912 C913 1.391 . S
C913 H901 0.950 . S
C913 C909 1.393 . S
C913 C912 1.391 . S
C914 H904 0.950 . S
C914 C915 1.386 . S
C914 C916 1.391 . S
C915 C914 1.386 . S
C915 C919 1.393 . S
C916 H905 0.950 . S
C916 C914 1.391 . S
C916 C917 1.400 . S
C917 C911 1.491 . S
C917 C916 1.400 . S
C917 C918 1.398 . S
C918 H906 0.950 . S
C918 C917 1.398 . S
C918 C919 1.391 . S
C919 H907 0.950 . S
C919 C915 1.393 . S
C919 C918 1.391 . S
H920 C928 0.950 . S
H921 C933 0.950 . S
H922 C930 0.950 . S
H923 C932 0.950 . S
H924 C934 0.950 . S
H925 C936 0.950 . S
H926 C938 0.950 . S
H927 C939 0.950 . S
C928 H920 0.950 . S
C928 C929 1.386 . S
C928 C930 1.391 . S
C929 C928 1.386 . S
C929 C933 1.393 . S
C930 H922 0.950 . S
C930 C928 1.391 . S
C930 C931 1.400 . S
C931 C930 1.400 . S
C931 C932 1.398 . S
C931 C937 1.491 . S
C932 H923 0.950 . S
C932 C931 1.398 . S
C932 C933 1.391 . S
C933 H921 0.950 . S
C933 C929 1.393 . S
C933 C932 1.391 . S
C934 H924 0.950 . S
C934 C935 1.386 . S
C934 C936 1.391 1_556 S
C935 C934 1.386 . S
C935 C939 1.393 1_556 S
C936 H925 0.950 . S
C936 C934 1.391 1_554 S
C936 C937 1.400 . S
C937 C931 1.491 . S
C937 C936 1.400 . S
C937 C938 1.398 . S
C938 H926 0.950 . S
C938 C937 1.398 . S
C938 C939 1.391 . S
C939 H927 0.950 . S
C939 C935 1.393 1_554 S
C939 C938 1.391 . S
H940 C948 0.950 . S
H941 C953 0.950 . S
H942 C950 0.950 . S
H943 C952 0.950 . S
H944 C954 0.950 . S
H945 C956 0.950 . S
H946 C958 0.950 . S
H947 C959 0.950 . S
C948 H940 0.950 . S
C948 C949 1.386 . S
C948 C950 1.391 . S
C949 C948 1.386 . S
C949 C953 1.393 . S
C950 H942 0.950 . S
C950 C948 1.391 . S
C950 C951 1.400 . S
C951 C950 1.400 . S
C951 C952 1.398 . S
C951 C957 1.491 . S
C952 H943 0.950 . S
C952 C951 1.398 . S
C952 C953 1.391 . S
C953 H941 0.950 . S
C953 C949 1.393 . S
C953 C952 1.391 . S
C954 H944 0.950 . S
C954 C955 1.386 . S
C954 C956 1.391 . S
C955 C954 1.386 . S
C955 C959 1.393 . S
C956 H945 0.950 . S
C956 C954 1.391 . S
C956 C957 1.400 . S
C957 C951 1.491 . S
C957 C956 1.400 . S
C957 C958 1.398 . S
C958 H946 0.950 . S
C958 C957 1.398 . S
C958 C959 1.391 . S
C959 H947 0.950 . S
C959 C955 1.393 . S
C959 C958 1.391 . S
H960 C968 0.950 . S
H961 C973 0.950 . S
H962 C970 0.950 . S
H963 C972 0.950 . S
H964 C974 0.950 . S
H965 C976 0.950 . S
H966 C978 0.950 . S
H967 C979 0.950 . S
C968 H960 0.950 . S
C968 C969 1.386 . S
C968 C970 1.391 . S
C969 C968 1.386 . S
C969 C973 1.393 1_455 S
C970 H962 0.950 . S
C970 C968 1.391 . S
C970 C971 1.400 . S
C971 C970 1.400 . S
C971 C972 1.398 1_455 S
C971 C977 1.491 . S
C972 H963 0.950 . S
C972 C971 1.398 1_655 S
C972 C973 1.391 . S
C973 H961 0.950 . S
C973 C969 1.393 1_655 S
C973 C972 1.391 . S
C974 H964 0.950 . S
C974 C975 1.386 1_655 S
C974 C976 1.391 . S
C975 C974 1.386 1_455 S
C975 C979 1.393 . S
C976 H965 0.950 . S
C976 C974 1.391 . S
C976 C977 1.400 1_655 S
C977 C971 1.491 . S
C977 C976 1.400 1_455 S
C977 C978 1.398 . S
C978 H966 0.950 . S
C978 C977 1.398 . S
C978 C979 1.391 . S
C979 H967 0.950 . S
C979 C975 1.393 . S
C979 C978 1.391 . S
H980 C988 0.950 . S
H981 C993 0.950 . S
H982 C990 0.950 . S
H983 C992 0.938 1_455 S
H984 C994 0.950 . S
H985 C996 0.950 . S
H986 C998 0.950 . S
H987 C999 0.950 . S
C988 H980 0.950 . S
C988 C989 1.386 . S
C988 C990 1.391 . S
C989 C988 1.386 . S
C989 C993 1.393 . S
C990 H982 0.950 . S
C990 C988 1.391 . S
C990 C991 1.400 1_655 S
C991 C990 1.400 1_455 S
C991 C992 1.398 1_455 S
C991 C997 1.491 . S
C992 H983 0.938 1_655 S
C992 C991 1.398 1_655 S
C992 C993 1.391 . S
C993 H981 0.950 . S
C993 C989 1.393 . S
C993 C992 1.391 . S
C994 H984 0.950 . S
C994 C995 1.386 . S
C994 C996 1.391 . S
C995 C994 1.386 . S
C995 C999 1.393 . S
C996 H985 0.950 . S
C996 C994 1.391 . S
C996 C997 1.400 . S
C997 C991 1.491 . S
C997 C996 1.400 . S
C997 C998 1.398 . S
C998 H986 0.950 . S
C998 C997 1.398 . S
C998 C999 1.391 . S
C999 H987 0.950 . S
C999 C995 1.393 . S
C999 C998 1.391 . S
H1000 C1008 0.950 . S
H1001 C1013 0.950 . S
H1002 C1010 0.950 . S
H1003 C1012 0.950 . S
H1004 C1014 0.950 . S
H1005 C1016 0.950 . S
H1006 C1018 0.950 . S
H1007 C1019 0.950 . S
C1008 H1000 0.950 . S
C1008 C1009 1.386 . S
C1008 C1010 1.391 . S
C1009 C1008 1.386 . S
C1009 C1013 1.393 . S
C1010 H1002 0.950 . S
C1010 C1008 1.391 . S
C1010 C1011 1.400 . S
C1011 C1010 1.400 . S
C1011 C1012 1.398 . S
C1011 C1017 1.491 . S
C1012 H1003 0.950 . S
C1012 C1011 1.398 . S
C1012 C1013 1.391 . S
C1013 H1001 0.950 . S
C1013 C1009 1.393 . S
C1013 C1012 1.391 . S
C1014 H1004 0.950 . S
C1014 C1015 1.386 . S
C1014 C1016 1.391 . S
C1015 C1014 1.386 . S
C1015 C1019 1.393 . S
C1016 H1005 0.950 . S
C1016 C1014 1.391 . S
C1016 C1017 1.400 . S
C1017 C1011 1.491 . S
C1017 C1016 1.400 . S
C1017 C1018 1.398 . S
C1018 H1006 0.950 . S
C1018 C1017 1.398 . S
C1018 C1019 1.391 . S
C1019 H1007 0.950 . S
C1019 C1015 1.393 . S
C1019 C1018 1.391 . S
H1020 C1028 0.950 . S
H1021 C1033 0.950 . S
H1022 C1030 0.950 . S
H1023 C1032 0.950 . S
H1024 C1034 0.950 . S
H1025 C1036 0.950 . S
H1026 C1038 0.950 . S
H1027 C1039 0.950 . S
C1028 H1020 0.950 . S
C1028 C1029 1.386 . S
C1028 C1030 1.391 . S
C1029 C1028 1.386 . S
C1029 C1033 1.393 . S
C1030 H1022 0.950 . S
C1030 C1028 1.391 . S
C1030 C1031 1.400 . S
C1031 C1030 1.400 . S
C1031 C1032 1.398 . S
C1031 C1037 1.491 . S
C1032 H1023 0.950 . S
C1032 C1031 1.398 . S
C1032 C1033 1.391 . S
C1033 H1021 0.950 . S
C1033 C1029 1.393 . S
C1033 C1032 1.391 . S
C1034 H1024 0.950 . S
C1034 C1035 1.386 . S
C1034 C1036 1.391 . S
C1035 C1034 1.386 . S
C1035 C1039 1.393 . S
C1036 H1025 0.950 . S
C1036 C1034 1.391 . S
C1036 C1037 1.400 . S
C1037 C1031 1.491 . S
C1037 C1036 1.400 . S
C1037 C1038 1.398 . S
C1038 H1026 0.950 . S
C1038 C1037 1.398 . S
C1038 C1039 1.391 . S
C1039 H1027 0.950 . S
C1039 C1035 1.393 . S
C1039 C1038 1.391 . S
H1040 C1048 0.950 . S
H1041 C1053 0.950 . S
H1042 C1050 0.950 . S
H1043 C1052 0.950 . S
H1044 C1054 0.950 . S
H1045 C1056 0.950 . S
H1046 C1058 0.950 . S
H1047 C1059 0.950 . S
C1048 H1040 0.950 . S
C1048 C1049 1.386 . S
C1048 C1050 1.391 . S
C1049 C1048 1.386 . S
C1049 C1053 1.393 . S
C1050 H1042 0.950 . S
C1050 C1048 1.391 . S
C1050 C1051 1.400 . S
C1051 C1050 1.400 . S
C1051 C1052 1.398 . S
C1051 C1057 1.491 . S
C1052 H1043 0.950 . S
C1052 C1051 1.398 . S
C1052 C1053 1.391 . S
C1053 H1041 0.950 . S
C1053 C1049 1.393 . S
C1053 C1052 1.391 . S
C1054 H1044 0.950 . S
C1054 C1055 1.386 . S
C1054 C1056 1.391 . S
C1055 C1054 1.386 . S
C1055 C1059 1.393 . S
C1056 H1045 0.950 . S
C1056 C1054 1.391 . S
C1056 C1057 1.400 . S
C1057 C1051 1.491 . S
C1057 C1056 1.400 . S
C1057 C1058 1.398 . S
C1058 H1046 0.950 . S
C1058 C1057 1.398 . S
C1058 C1059 1.391 . S
C1059 H1047 0.950 . S
C1059 C1055 1.393 . S
C1059 C1058 1.391 . S
H1060 C1068 0.950 . S
H1061 C1073 0.950 . S
H1062 C1070 0.950 . S
H1063 C1072 0.950 . S
H1064 C1074 0.950 . S
H1065 C1076 0.950 . S
H1066 C1078 0.950 . S
H1067 C1079 0.950 . S
C1068 H1060 0.950 . S
C1068 C1069 1.386 . S
C1068 C1070 1.391 . S
C1069 C1068 1.386 . S
C1069 C1073 1.393 . S
C1070 H1062 0.950 . S
C1070 C1068 1.391 . S
C1070 C1071 1.400 . S
C1071 C1070 1.400 . S
C1071 C1072 1.398 . S
C1071 C1077 1.491 . S
C1072 H1063 0.950 . S
C1072 C1071 1.398 . S
C1072 C1073 1.391 . S
C1073 H1061 0.950 . S
C1073 C1069 1.393 . S
C1073 C1072 1.391 . S
C1074 H1064 0.950 . S
C1074 C1075 1.386 . S
C1074 C1076 1.391 . S
C1075 C1074 1.386 . S
C1075 C1079 1.393 . S
C1076 H1065 0.950 . S
C1076 C1074 1.391 . S
C1076 C1077 1.400 . S
C1077 C1071 1.491 . S
C1077 C1076 1.400 . S
C1077 C1078 1.398 . S
C1078 H1066 0.950 . S
C1078 C1077 1.398 . S
C1078 C1079 1.391 . S
C1079 H1067 0.950 . S
C1079 C1075 1.393 . S
C1079 C1078 1.391 . S
H1080 C1088 0.950 . S
H1081 C1093 0.950 . S
H1082 C1090 0.950 . S
H1083 C1092 0.950 . S
H1084 C1094 0.950 . S
H1085 C1096 0.950 . S
H1086 C1098 0.950 . S
H1087 C1099 0.950 . S
C1088 H1080 0.950 . S
C1088 C1089 1.386 . S
C1088 C1090 1.391 . S
C1089 C1088 1.386 . S
C1089 C1093 1.393 . S
C1090 H1082 0.950 . S
C1090 C1088 1.391 . S
C1090 C1091 1.400 . S
C1091 C1090 1.400 . S
C1091 C1092 1.398 . S
C1091 C1097 1.491 . S
C1092 H1083 0.950 . S
C1092 C1091 1.398 . S
C1092 C1093 1.391 . S
C1093 H1081 0.950 . S
C1093 C1089 1.393 . S
C1093 C1092 1.391 . S
C1094 H1084 0.950 . S
C1094 C1095 1.386 . S
C1094 C1096 1.391 . S
C1095 C1094 1.386 . S
C1095 C1099 1.393 . S
C1096 H1085 0.950 . S
C1096 C1094 1.391 . S
C1096 C1097 1.400 . S
C1097 C1091 1.491 . S
C1097 C1096 1.400 . S
C1097 C1098 1.398 . S
C1098 H1086 0.950 . S
C1098 C1097 1.398 . S
C1098 C1099 1.391 . S
C1099 H1087 0.950 . S
C1099 C1095 1.393 . S
C1099 C1098 1.391 . S
H1100 C1108 0.950 . S
H1101 C1113 0.950 . S
H1102 C1110 0.950 . S
H1103 C1112 0.950 . S
H1104 C1114 0.950 . S
H1105 C1116 0.950 . S
H1106 C1118 0.949 . S
H1107 C1119 0.950 . S
C1108 H1100 0.950 . S
C1108 C1109 1.386 . S
C1108 C1110 1.391 . S
C1109 C1108 1.386 . S
C1109 C1113 1.393 . S
C1110 H1102 0.950 . S
C1110 C1108 1.391 . S
C1110 C1111 1.400 . S
C1111 C1110 1.400 . S
C1111 C1112 1.398 . S
C1111 C1117 1.457 1_455 S
C1112 H1103 0.950 . S
C1112 C1111 1.398 . S
C1112 C1113 1.391 . S
C1113 H1101 0.950 . S
C1113 C1109 1.393 . S
C1113 C1112 1.391 . S
C1114 H1104 0.950 . S
C1114 C1115 1.386 . S
C1114 C1116 1.391 . S
C1115 C1114 1.386 . S
C1115 C1119 1.393 . S
C1116 H1105 0.950 . S
C1116 C1114 1.391 . S
C1116 C1117 1.434 . S
C1117 C1111 1.457 1_655 S
C1117 C1116 1.434 . S
C1117 C1118 1.400 1_655 S
C1118 H1106 0.949 . S
C1118 C1117 1.400 1_455 S
C1118 C1119 1.392 1_455 S
C1119 H1107 0.950 . S
C1119 C1115 1.393 . S
C1119 C1118 1.392 1_655 S
H1120 C1128 0.950 . S
H1121 C1133 0.950 . S
H1122 C1130 0.950 . S
H1123 C1132 0.950 1_556 S
H1124 C1134 0.950 . S
H1125 C1136 0.950 1_545 S
H1126 C1138 0.950 1_554 S
H1127 C1139 0.950 . S
C1128 H1120 0.950 . S
C1128 C1129 1.386 . S
C1128 C1130 1.391 1_545 S
C1129 C1128 1.386 . S
C1129 C1133 1.393 1_455 S
C1130 H1122 0.950 . S
C1130 C1128 1.391 1_565 S
C1130 C1131 1.400 1_565 S
C1131 C1130 1.400 1_545 S
C1131 C1132 1.398 1_455 S
C1131 C1137 1.491 1_544 S
C1132 H1123 0.950 1_554 S
C1132 C1131 1.398 1_655 S
C1132 C1133 1.391 . S
C1133 H1121 0.950 . S
C1133 C1129 1.393 1_655 S
C1133 C1132 1.391 . S
C1134 H1124 0.950 . S
C1134 C1135 1.386 1_655 S
C1134 C1136 1.391 . S
C1135 C1134 1.386 1_455 S
C1135 C1139 1.393 . S
C1136 H1125 0.950 1_565 S
C1136 C1134 1.391 . S
C1136 C1137 1.400 1_655 S
C1137 C1131 1.491 1_566 S
C1137 C1136 1.400 1_455 S
C1137 C1138 1.398 . S
C1138 H1126 0.950 1_556 S
C1138 C1137 1.398 . S
C1138 C1139 1.391 . S
C1139 H1127 0.950 . S
C1139 C1135 1.393 . S
C1139 C1138 1.391 . S
H1140 C1148 0.950 . S
H1141 C1153 0.950 . S
H1142 C1150 0.950 . S
H1143 C1152 0.950 . S
H1144 C1154 0.950 . S
H1145 C1156 0.950 . S
H1146 C1158 0.950 . S
H1147 C1159 0.950 . S
C1148 H1140 0.950 . S
C1148 C1149 1.386 . S
C1148 C1150 1.391 . S
C1149 C1148 1.386 . S
C1149 C1153 1.393 . S
C1150 H1142 0.950 . S
C1150 C1148 1.391 . S
C1150 C1151 1.400 . S
C1151 C1150 1.400 . S
C1151 C1152 1.398 . S
C1151 C1157 1.491 . S
C1152 H1143 0.950 . S
C1152 C1151 1.398 . S
C1152 C1153 1.391 . S
C1153 H1141 0.950 . S
C1153 C1149 1.393 . S
C1153 C1152 1.391 . S
C1154 H1144 0.950 . S
C1154 C1155 1.386 . S
C1154 C1156 1.391 . S
C1155 C1154 1.386 . S
C1155 C1159 1.393 . S
C1156 H1145 0.950 . S
C1156 C1154 1.391 . S
C1156 C1157 1.400 . S
C1157 C1151 1.491 . S
C1157 C1156 1.400 . S
C1157 C1158 1.398 . S
C1158 H1146 0.950 . S
C1158 C1157 1.398 . S
C1158 C1159 1.391 . S
C1159 H1147 0.950 . S
C1159 C1155 1.393 . S
C1159 C1158 1.391 . S
H1160 C1168 0.950 . S
H1161 C1173 0.950 . S
H1162 C1170 0.950 . S
H1163 C1172 0.950 . S
H1164 C1174 0.950 . S
H1165 C1176 0.950 . S
H1166 C1178 0.950 . S
H1167 C1179 0.950 . S
C1168 H1160 0.950 . S
C1168 C1169 1.386 . S
C1168 C1170 1.391 . S
C1169 C1168 1.386 . S
C1169 C1173 1.393 . S
C1170 H1162 0.950 . S
C1170 C1168 1.391 . S
C1170 C1171 1.400 . S
C1171 C1170 1.400 . S
C1171 C1172 1.398 . S
C1171 C1177 1.491 1_545 S
C1172 H1163 0.950 . S
C1172 C1171 1.398 . S
C1172 C1173 1.391 . S
C1173 H1161 0.950 . S
C1173 C1169 1.393 . S
C1173 C1172 1.391 . S
C1174 H1164 0.950 . S
C1174 C1175 1.386 . S
C1174 C1176 1.391 . S
C1175 C1174 1.386 . S
C1175 C1179 1.393 . S
C1176 H1165 0.950 . S
C1176 C1174 1.391 . S
C1176 C1177 1.400 . S
C1177 C1171 1.491 1_565 S
C1177 C1176 1.400 . S
C1177 C1178 1.398 . S
C1178 H1166 0.950 . S
C1178 C1177 1.398 . S
C1178 C1179 1.391 . S
C1179 H1167 0.950 . S
C1179 C1175 1.393 . S
C1179 C1178 1.391 . S
H1180 C1188 0.950 . S
H1181 C1193 0.950 . S
H1182 C1190 0.950 . S
H1183 C1192 0.950 . S
H1184 C1194 0.950 . S
H1185 C1196 0.950 . S
H1186 C1198 0.950 . S
H1187 C1199 0.950 . S
C1188 H1180 0.950 . S
C1188 C1189 1.386 . S
C1188 C1190 1.391 . S
C1189 C1188 1.386 . S
C1189 C1193 1.393 . S
C1190 H1182 0.950 . S
C1190 C1188 1.391 . S
C1190 C1191 1.400 . S
C1191 C1190 1.400 . S
C1191 C1192 1.398 . S
C1191 C1197 1.491 . S
C1192 H1183 0.950 . S
C1192 C1191 1.398 . S
C1192 C1193 1.391 . S
C1193 H1181 0.950 . S
C1193 C1189 1.393 . S
C1193 C1192 1.391 . S
C1194 H1184 0.950 . S
C1194 C1195 1.386 . S
C1194 C1196 1.391 . S
C1195 C1194 1.386 . S
C1195 C1199 1.393 . S
C1196 H1185 0.950 . S
C1196 C1194 1.391 . S
C1196 C1197 1.400 . S
C1197 C1191 1.491 . S
C1197 C1196 1.400 . S
C1197 C1198 1.398 . S
C1198 H1186 0.950 . S
C1198 C1197 1.398 . S
C1198 C1199 1.391 . S
C1199 H1187 0.950 . S
C1199 C1195 1.393 . S
C1199 C1198 1.391 . S
H1200 C1208 0.950 . S
H1201 C1213 0.950 . S
H1202 C1210 0.950 . S
H1203 C1212 0.950 . S
H1204 C1214 0.950 . S
H1205 C1216 0.950 . S
H1206 C1218 0.950 . S
H1207 C1219 0.950 . S
C1208 H1200 0.950 . S
C1208 C1209 1.386 . S
C1208 C1210 1.391 . S
C1209 C1208 1.386 . S
C1209 C1213 1.393 . S
C1210 H1202 0.950 . S
C1210 C1208 1.391 . S
C1210 C1211 1.400 . S
C1211 C1210 1.400 . S
C1211 C1212 1.398 . S
C1211 C1217 1.491 . S
C1212 H1203 0.950 . S
C1212 C1211 1.398 . S
C1212 C1213 1.391 . S
C1213 H1201 0.950 . S
C1213 C1209 1.393 . S
C1213 C1212 1.391 . S
C1214 H1204 0.950 . S
C1214 C1215 1.386 . S
C1214 C1216 1.391 . S
C1215 C1214 1.386 . S
C1215 C1219 1.393 . S
C1216 H1205 0.950 . S
C1216 C1214 1.391 . S
C1216 C1217 1.400 . S
C1217 C1211 1.491 . S
C1217 C1216 1.400 . S
C1217 C1218 1.398 . S
C1218 H1206 0.950 . S
C1218 C1217 1.398 . S
C1218 C1219 1.391 . S
C1219 H1207 0.950 . S
C1219 C1215 1.393 . S
C1219 C1218 1.391 . S
H1220 C1228 0.950 . S
H1221 C1233 0.950 . S
H1222 C1230 0.950 . S
H1223 C1232 0.950 . S
H1224 C1234 0.950 . S
H1225 C1236 0.950 . S
H1226 C1238 0.950 . S
H1227 C1239 0.950 . S
C1228 H1220 0.950 . S
C1228 C1229 1.386 . S
C1228 C1230 1.391 . S
C1229 C1228 1.386 . S
C1229 C1233 1.393 . S
C1230 H1222 0.950 . S
C1230 C1228 1.391 . S
C1230 C1231 1.400 . S
C1231 C1230 1.400 . S
C1231 C1232 1.398 . S
C1231 C1237 1.491 . S
C1232 H1223 0.950 . S
C1232 C1231 1.398 . S
C1232 C1233 1.391 . S
C1233 H1221 0.950 . S
C1233 C1229 1.393 . S
C1233 C1232 1.391 . S
C1234 H1224 0.950 . S
C1234 C1235 1.386 . S
C1234 C1236 1.391 . S
C1235 C1234 1.386 . S
C1235 C1239 1.393 . S
C1236 H1225 0.950 . S
C1236 C1234 1.391 . S
C1236 C1237 1.400 . S
C1237 C1231 1.491 . S
C1237 C1236 1.400 . S
C1237 C1238 1.398 . S
C1238 H1226 0.950 . S
C1238 C1237 1.398 . S
C1238 C1239 1.391 . S
C1239 H1227 0.950 . S
C1239 C1235 1.393 . S
C1239 C1238 1.391 . S
H1240 C1248 0.950 . S
H1241 C1253 0.950 . S
H1242 C1250 0.950 . S
H1243 C1252 0.950 . S
H1244 C1254 0.950 . S
H1245 C1256 0.950 . S
H1246 C1258 0.950 . S
H1247 C1259 0.950 . S
C1248 H1240 0.950 . S
C1248 C1249 1.386 . S
C1248 C1250 1.391 . S
C1249 C1248 1.386 . S
C1249 C1253 1.393 . S
C1250 H1242 0.950 . S
C1250 C1248 1.391 . S
C1250 C1251 1.400 . S
C1251 C1250 1.400 . S
C1251 C1252 1.398 . S
C1251 C1257 1.491 . S
C1252 H1243 0.950 . S
C1252 C1251 1.398 . S
C1252 C1253 1.391 . S
C1253 H1241 0.950 . S
C1253 C1249 1.393 . S
C1253 C1252 1.391 . S
C1254 H1244 0.950 . S
C1254 C1255 1.386 . S
C1254 C1256 1.391 . S
C1255 C1254 1.386 . S
C1255 C1259 1.393 . S
C1256 H1245 0.950 . S
C1256 C1254 1.391 . S
C1256 C1257 1.400 . S
C1257 C1251 1.491 . S
C1257 C1256 1.400 . S
C1257 C1258 1.398 . S
C1258 H1246 0.950 . S
C1258 C1257 1.398 . S
C1258 C1259 1.391 . S
C1259 H1247 0.950 . S
C1259 C1255 1.393 . S
C1259 C1258 1.391 . S
H1260 C1268 0.950 . S
H1261 C1273 0.950 . S
H1262 C1270 0.950 . S
H1263 C1272 0.950 . S
H1264 C1274 0.950 . S
H1265 C1276 0.950 . S
H1266 C1278 0.950 . S
H1267 C1279 0.950 . S
C1268 H1260 0.950 . S
C1268 C1269 1.386 . S
C1268 C1270 1.391 . S
C1269 C1268 1.386 . S
C1269 C1273 1.393 1_455 S
C1270 H1262 0.950 . S
C1270 C1268 1.391 . S
C1270 C1271 1.400 . S
C1271 C1270 1.400 . S
C1271 C1272 1.398 1_455 S
C1271 C1277 1.491 1_556 S
C1272 H1263 0.950 . S
C1272 C1271 1.398 1_655 S
C1272 C1273 1.391 . S
C1273 H1261 0.950 . S
C1273 C1269 1.393 1_655 S
C1273 C1272 1.391 . S
C1274 H1264 0.950 . S
C1274 C1275 1.386 1_655 S
C1274 C1276 1.391 . S
C1275 C1274 1.386 1_455 S
C1275 C1279 1.393 . S
C1276 H1265 0.950 . S
C1276 C1274 1.391 . S
C1276 C1277 1.400 1_655 S
C1277 C1271 1.491 1_554 S
C1277 C1276 1.400 1_455 S
C1277 C1278 1.398 . S
C1278 H1266 0.950 . S
C1278 C1277 1.398 . S
C1278 C1279 1.391 . S
C1279 H1267 0.950 . S
C1279 C1275 1.393 . S
C1279 C1278 1.391 . S
H1280 C1288 0.950 . S
H1281 C1293 0.950 . S
H1282 C1290 0.950 . S
H1283 C1292 0.950 . S
H1284 C1294 0.950 . S
H1285 C1296 0.950 . S
H1286 C1298 0.950 . S
H1287 C1299 0.950 . S
C1288 H1280 0.950 . S
C1288 C1289 1.386 . S
C1288 C1290 1.391 . S
C1289 C1288 1.386 . S
C1289 C1293 1.393 . S
C1290 H1282 0.950 . S
C1290 C1288 1.391 . S
C1290 C1291 1.400 . S
C1291 C1290 1.400 . S
C1291 C1292 1.398 . S
C1291 C1297 1.491 . S
C1292 H1283 0.950 . S
C1292 C1291 1.398 . S
C1292 C1293 1.391 . S
C1293 H1281 0.950 . S
C1293 C1289 1.393 . S
C1293 C1292 1.391 . S
C1294 H1284 0.950 . S
C1294 C1295 1.386 . S
C1294 C1296 1.391 . S
C1295 C1294 1.386 . S
C1295 C1299 1.393 . S
C1296 H1285 0.950 . S
C1296 C1294 1.391 . S
C1296 C1297 1.400 . S
C1297 C1291 1.491 . S
C1297 C1296 1.400 . S
C1297 C1298 1.398 . S
C1298 H1286 0.950 . S
C1298 C1297 1.398 . S
C1298 C1299 1.391 . S
C1299 H1287 0.950 . S
C1299 C1295 1.393 . S
C1299 C1298 1.391 . S
H1300 C1308 0.950 . S
H1301 C1313 0.950 . S
H1302 C1310 0.950 . S
H1303 C1312 0.950 . S
H1304 C1314 0.950 . S
H1305 C1316 0.950 . S
H1306 C1318 0.950 . S
H1307 C1319 0.950 . S
C1308 H1300 0.950 . S
C1308 C1309 1.386 . S
C1308 C1310 1.391 . S
C1309 C1308 1.386 . S
C1309 C1313 1.393 . S
C1310 H1302 0.950 . S
C1310 C1308 1.391 . S
C1310 C1311 1.400 . S
C1311 C1310 1.400 . S
C1311 C1312 1.398 . S
C1311 C1317 1.491 . S
C1312 H1303 0.950 . S
C1312 C1311 1.398 . S
C1312 C1313 1.391 . S
C1313 H1301 0.950 . S
C1313 C1309 1.393 . S
C1313 C1312 1.391 . S
C1314 H1304 0.950 . S
C1314 C1315 1.386 . S
C1314 C1316 1.391 . S
C1315 C1314 1.386 . S
C1315 C1319 1.393 . S
C1316 H1305 0.950 . S
C1316 C1314 1.391 . S
C1316 C1317 1.400 . S
C1317 C1311 1.491 . S
C1317 C1316 1.400 . S
C1317 C1318 1.398 . S
C1318 H1306 0.950 . S
C1318 C1317 1.398 . S
C1318 C1319 1.391 . S
C1319 H1307 0.950 . S
C1319 C1315 1.393 . S
C1319 C1318 1.391 . S
H1320 C1328 0.950 . S
H1321 C1333 0.950 . S
H1322 C1330 0.950 . S
H1323 C1332 0.950 . S
H1324 C1334 0.950 . S
H1325 C1336 0.950 . S
H1326 C1338 0.950 . S
H1327 C1339 0.950 . S
C1328 H1320 0.950 . S
C1328 C1329 1.386 . S
C1328 C1330 1.391 . S
C1329 C1328 1.386 . S
C1329 C1333 1.393 . S
C1330 H1322 0.950 . S
C1330 C1328 1.391 . S
C1330 C1331 1.400 1_554 S
C1331 C1330 1.400 1_556 S
C1331 C1332 1.398 . S
C1331 C1337 1.491 . S
C1332 H1323 0.950 . S
C1332 C1331 1.398 . S
C1332 C1333 1.391 1_556 S
C1333 H1321 0.950 . S
C1333 C1329 1.393 . S
C1333 C1332 1.391 1_554 S
C1334 H1324 0.950 . S
C1334 C1335 1.386 . S
C1334 C1336 1.391 . S
C1335 C1334 1.386 . S
C1335 C1339 1.393 . S
C1336 H1325 0.950 . S
C1336 C1334 1.391 . S
C1336 C1337 1.400 . S
C1337 C1331 1.491 . S
C1337 C1336 1.400 . S
C1337 C1338 1.398 . S
C1338 H1326 0.950 . S
C1338 C1337 1.398 . S
C1338 C1339 1.391 . S
C1339 H1327 0.950 . S
C1339 C1335 1.393 . S
C1339 C1338 1.391 . S
H1340 C1348 0.950 . S
H1341 C1353 0.950 . S
H1342 C1350 0.950 . S
H1343 C1352 0.950 . S
H1344 C1354 0.950 . S
H1345 C1356 0.950 . S
H1346 C1358 0.950 . S
H1347 C1359 0.950 . S
C1348 H1340 0.950 . S
C1348 C1349 1.386 . S
C1348 C1350 1.391 . S
C1349 C1348 1.386 . S
C1349 C1353 1.393 . S
C1350 H1342 0.950 . S
C1350 C1348 1.391 . S
C1350 C1351 1.400 . S
C1351 C1350 1.400 . S
C1351 C1352 1.398 . S
C1351 C1357 1.491 . S
C1352 H1343 0.950 . S
C1352 C1351 1.398 . S
C1352 C1353 1.391 . S
C1353 H1341 0.950 . S
C1353 C1349 1.393 . S
C1353 C1352 1.391 . S
C1354 H1344 0.950 . S
C1354 C1355 1.386 . S
C1354 C1356 1.391 . S
C1355 C1354 1.386 . S
C1355 C1359 1.393 . S
C1356 H1345 0.950 . S
C1356 C1354 1.391 . S
C1356 C1357 1.400 . S
C1357 C1351 1.491 . S
C1357 C1356 1.400 . S
C1357 C1358 1.398 . S
C1358 H1346 0.950 . S
C1358 C1357 1.398 . S
C1358 C1359 1.391 . S
C1359 H1347 0.950 . S
C1359 C1355 1.393 . S
C1359 C1358 1.391 . S
H1360 C1368 0.950 . S
H1361 C1373 0.950 . S
H1362 C1370 0.950 . S
H1363 C1372 0.950 . S
H1364 C1374 0.950 . S
H1365 C1376 0.950 . S
H1366 C1378 0.950 . S
H1367 C1379 0.950 . S
C1368 H1360 0.950 . S
C1368 C1369 1.386 . S
C1368 C1370 1.391 . S
C1369 C1368 1.386 . S
C1369 C1373 1.393 . S
C1370 H1362 0.950 . S
C1370 C1368 1.391 . S
C1370 C1371 1.400 . S
C1371 C1370 1.400 . S
C1371 C1372 1.398 . S
C1371 C1377 1.491 . S
C1372 H1363 0.950 . S
C1372 C1371 1.398 . S
C1372 C1373 1.391 . S
C1373 H1361 0.950 . S
C1373 C1369 1.393 . S
C1373 C1372 1.391 . S
C1374 H1364 0.950 . S
C1374 C1375 1.386 . S
C1374 C1376 1.391 . S
C1375 C1374 1.386 . S
C1375 C1379 1.393 . S
C1376 H1365 0.950 . S
C1376 C1374 1.391 . S
C1376 C1377 1.400 . S
C1377 C1371 1.491 . S
C1377 C1376 1.400 . S
C1377 C1378 1.398 . S
C1378 H1366 0.950 . S
C1378 C1377 1.398 . S
C1378 C1379 1.391 . S
C1379 H1367 0.950 . S
C1379 C1375 1.393 . S
C1379 C1378 1.391 . S
H1380 C1388 0.950 . S
H1381 C1393 0.950 . S
H1382 C1390 0.950 . S
H1383 C1392 0.950 . S
H1384 C1394 0.950 . S
H1385 C1396 0.950 . S
H1386 C1398 0.950 . S
H1387 C1399 0.950 . S
C1388 H1380 0.950 . S
C1388 C1389 1.386 . S
C1388 C1390 1.391 . S
C1389 C1388 1.386 . S
C1389 C1393 1.393 . S
C1390 H1382 0.950 . S
C1390 C1388 1.391 . S
C1390 C1391 1.400 . S
C1391 C1390 1.400 . S
C1391 C1392 1.398 . S
C1391 C1397 1.491 . S
C1392 H1383 0.950 . S
C1392 C1391 1.398 . S
C1392 C1393 1.391 . S
C1393 H1381 0.950 . S
C1393 C1389 1.393 . S
C1393 C1392 1.391 . S
C1394 H1384 0.950 . S
C1394 C1395 1.386 . S
C1394 C1396 1.391 . S
C1395 C1394 1.386 . S
C1395 C1399 1.393 . S
C1396 H1385 0.950 . S
C1396 C1394 1.391 . S
C1396 C1397 1.400 . S
C1397 C1391 1.491 . S
C1397 C1396 1.400 . S
C1397 C1398 1.398 . S
C1398 H1386 0.950 . S
C1398 C1397 1.398 . S
C1398 C1399 1.391 . S
C1399 H1387 0.950 . S
C1399 C1395 1.393 . S
C1399 C1398 1.391 . S
H1400 C1408 0.950 1_556 S
H1401 C1413 0.950 . S
H1402 C1410 0.950 . S
H1403 C1412 0.950 . S
H1404 C1414 0.950 . S
H1405 C1416 0.950 . S
H1406 C1418 0.950 . S
H1407 C1419 0.950 . S
C1408 H1400 0.950 1_554 S
C1408 C1409 1.386 1_554 S
C1408 C1410 1.391 . S
C1409 C1408 1.386 1_556 S
C1409 C1413 1.393 1_556 S
C1410 H1402 0.950 . S
C1410 C1408 1.391 . S
C1410 C1411 1.400 . S
C1411 C1410 1.400 . S
C1411 C1412 1.398 . S
C1411 C1417 1.491 . S
C1412 H1403 0.950 . S
C1412 C1411 1.398 . S
C1412 C1413 1.391 . S
C1413 H1401 0.950 . S
C1413 C1409 1.393 1_554 S
C1413 C1412 1.391 . S
C1414 H1404 0.950 . S
C1414 C1415 1.386 . S
C1414 C1416 1.391 . S
C1415 C1414 1.386 . S
C1415 C1419 1.393 . S
C1416 H1405 0.950 . S
C1416 C1414 1.391 . S
C1416 C1417 1.400 . S
C1417 C1411 1.491 . S
C1417 C1416 1.400 . S
C1417 C1418 1.398 . S
C1418 H1406 0.950 . S
C1418 C1417 1.398 . S
C1418 C1419 1.391 . S
C1419 H1407 0.950 . S
C1419 C1415 1.393 . S
C1419 C1418 1.391 . S
H1420 C1428 0.950 . S
H1421 C1433 0.950 . S
H1422 C1430 0.950 . S
H1423 C1432 0.950 . S
H1424 C1434 0.950 . S
H1425 C1436 0.950 . S
H1426 C1438 0.950 . S
H1427 C1439 0.950 . S
C1428 H1420 0.950 . S
C1428 C1429 1.386 . S
C1428 C1430 1.391 . S
C1429 C1428 1.386 . S
C1429 C1433 1.393 . S
C1430 H1422 0.950 . S
C1430 C1428 1.391 . S
C1430 C1431 1.400 . S
C1431 C1430 1.400 . S
C1431 C1432 1.398 . S
C1431 C1437 1.491 . S
C1432 H1423 0.950 . S
C1432 C1431 1.398 . S
C1432 C1433 1.391 . S
C1433 H1421 0.950 . S
C1433 C1429 1.393 . S
C1433 C1432 1.391 . S
C1434 H1424 0.950 . S
C1434 C1435 1.386 . S
C1434 C1436 1.391 . S
C1435 C1434 1.386 . S
C1435 C1439 1.393 . S
C1436 H1425 0.950 . S
C1436 C1434 1.391 . S
C1436 C1437 1.400 . S
C1437 C1431 1.491 . S
C1437 C1436 1.400 . S
C1437 C1438 1.398 . S
C1438 H1426 0.950 . S
C1438 C1437 1.398 . S
C1438 C1439 1.391 . S
C1439 H1427 0.950 . S
C1439 C1435 1.393 . S
C1439 C1438 1.391 . S
H1440 C1448 0.950 . S
H1441 C1453 0.950 . S
H1442 C1450 0.950 . S
H1443 C1452 0.950 . S
H1444 C1454 0.950 . S
H1445 C1456 0.950 . S
H1446 C1458 0.950 . S
H1447 C1459 0.950 . S
C1448 H1440 0.950 . S
C1448 C1449 1.386 . S
C1448 C1450 1.391 . S
C1449 C1448 1.386 . S
C1449 C1453 1.393 . S
C1450 H1442 0.950 . S
C1450 C1448 1.391 . S
C1450 C1451 1.400 . S
C1451 C1450 1.400 . S
C1451 C1452 1.398 . S
C1451 C1457 1.491 . S
C1452 H1443 0.950 . S
C1452 C1451 1.398 . S
C1452 C1453 1.391 . S
C1453 H1441 0.950 . S
C1453 C1449 1.393 . S
C1453 C1452 1.391 . S
C1454 H1444 0.950 . S
C1454 C1455 1.386 . S
C1454 C1456 1.391 . S
C1455 C1454 1.386 . S
C1455 C1459 1.393 . S
C1456 H1445 0.950 . S
C1456 C1454 1.391 . S
C1456 C1457 1.400 . S
C1457 C1451 1.491 . S
C1457 C1456 1.400 . S
C1457 C1458 1.398 . S
C1458 H1446 0.950 . S
C1458 C1457 1.398 . S
C1458 C1459 1.391 . S
C1459 H1447 0.950 . S
C1459 C1455 1.393 . S
C1459 C1458 1.391 . S
H1460 C1468 0.950 . S
H1461 C1473 0.950 . S
H1462 C1470 0.950 . S
H1463 C1472 0.950 . S
H1464 C1474 0.950 . S
H1465 C1476 0.950 . S
H1466 C1478 0.950 . S
H1467 C1479 0.950 . S
C1468 H1460 0.950 . S
C1468 C1469 1.386 . S
C1468 C1470 1.391 . S
C1469 C1468 1.386 . S
C1469 C1473 1.393 . S
C1470 H1462 0.950 . S
C1470 C1468 1.391 . S
C1470 C1471 1.400 . S
C1471 C1470 1.400 . S
C1471 C1472 1.398 . S
C1471 C1477 1.491 . S
C1472 H1463 0.950 . S
C1472 C1471 1.398 . S
C1472 C1473 1.391 . S
C1473 H1461 0.950 . S
C1473 C1469 1.393 . S
C1473 C1472 1.391 . S
C1474 H1464 0.950 . S
C1474 C1475 1.386 . S
C1474 C1476 1.391 . S
C1475 C1474 1.386 . S
C1475 C1479 1.393 . S
C1476 H1465 0.950 . S
C1476 C1474 1.391 . S
C1476 C1477 1.400 . S
C1477 C1471 1.491 . S
C1477 C1476 1.400 . S
C1477 C1478 1.398 . S
C1478 H1466 0.950 . S
C1478 C1477 1.398 . S
C1478 C1479 1.391 . S
C1479 H1467 0.950 . S
C1479 C1475 1.393 . S
C1479 C1478 1.391 . S
H1480 C1488 0.950 . S
H1481 C1493 0.950 . S
H1482 C1490 0.950 . S
H1483 C1492 0.950 . S
H1484 C1494 0.950 . S
H1485 C1496 0.950 . S
H1486 C1498 0.950 . S
H1487 C1499 0.950 . S
C1488 H1480 0.950 . S
C1488 C1489 1.386 . S
C1488 C1490 1.391 . S
C1489 C1488 1.386 . S
C1489 C1493 1.393 . S
C1490 H1482 0.950 . S
C1490 C1488 1.391 . S
C1490 C1491 1.400 . S
C1491 C1490 1.400 . S
C1491 C1492 1.398 . S
C1491 C1497 1.491 . S
C1492 H1483 0.950 . S
C1492 C1491 1.398 . S
C1492 C1493 1.391 . S
C1493 H1481 0.950 . S
C1493 C1489 1.393 . S
C1493 C1492 1.391 . S
C1494 H1484 0.950 . S
C1494 C1495 1.386 . S
C1494 C1496 1.391 . S
C1495 C1494 1.386 . S
C1495 C1499 1.393 . S
C1496 H1485 0.950 . S
C1496 C1494 1.391 . S
C1496 C1497 1.400 . S
C1497 C1491 1.491 . S
C1497 C1496 1.400 . S
C1497 C1498 1.398 . S
C1498 H1486 0.950 . S
C1498 C1497 1.398 . S
C1498 C1499 1.391 . S
C1499 H1487 0.950 . S
C1499 C1495 1.393 . S
C1499 C1498 1.391 . S
H1500 C1508 0.950 . S
H1501 C1513 0.950 . S
H1502 C1510 0.950 . S
H1503 C1512 0.950 . S
H1504 C1514 0.950 . S
H1505 C1516 0.950 . S
H1506 C1518 0.950 . S
H1507 C1519 0.950 . S
C1508 H1500 0.950 . S
C1508 C1509 1.386 . S
C1508 C1510 1.391 . S
C1509 C1508 1.386 . S
C1509 C1513 1.393 . S
C1510 H1502 0.950 . S
C1510 C1508 1.391 . S
C1510 C1511 1.400 . S
C1511 C1510 1.400 . S
C1511 C1512 1.398 . S
C1511 C1517 1.491 . S
C1512 H1503 0.950 . S
C1512 C1511 1.398 . S
C1512 C1513 1.391 . S
C1513 H1501 0.950 . S
C1513 C1509 1.393 . S
C1513 C1512 1.391 . S
C1514 H1504 0.950 . S
C1514 C1515 1.386 . S
C1514 C1516 1.391 . S
C1515 C1514 1.386 . S
C1515 C1519 1.393 . S
C1516 H1505 0.950 . S
C1516 C1514 1.391 . S
C1516 C1517 1.400 . S
C1517 C1511 1.491 . S
C1517 C1516 1.400 . S
C1517 C1518 1.398 . S
C1518 H1506 0.950 . S
C1518 C1517 1.398 . S
C1518 C1519 1.391 . S
C1519 H1507 0.950 . S
C1519 C1515 1.393 . S
C1519 C1518 1.391 . S
H1520 C1528 0.950 . S
H1521 C1533 0.950 . S
H1522 C1530 0.950 . S
H1523 C1532 0.950 . S
H1524 C1534 0.950 . S
H1525 C1536 0.950 . S
H1526 C1538 0.950 . S
H1527 C1539 0.950 . S
C1528 H1520 0.950 . S
C1528 C1529 1.386 . S
C1528 C1530 1.391 . S
C1529 C1528 1.386 . S
C1529 C1533 1.393 . S
C1530 H1522 0.950 . S
C1530 C1528 1.391 . S
C1530 C1531 1.400 . S
C1531 C1530 1.400 . S
C1531 C1532 1.398 . S
C1531 C1537 1.491 . S
C1532 H1523 0.950 . S
C1532 C1531 1.398 . S
C1532 C1533 1.391 . S
C1533 H1521 0.950 . S
C1533 C1529 1.393 . S
C1533 C1532 1.391 . S
C1534 H1524 0.950 . S
C1534 C1535 1.386 . S
C1534 C1536 1.391 . S
C1535 C1534 1.386 . S
C1535 C1539 1.393 . S
C1536 H1525 0.950 . S
C1536 C1534 1.391 . S
C1536 C1537 1.400 1_556 S
C1537 C1531 1.491 . S
C1537 C1536 1.400 1_554 S
C1537 C1538 1.398 . S
C1538 H1526 0.950 . S
C1538 C1537 1.398 . S
C1538 C1539 1.391 1_554 S
C1539 H1527 0.950 . S
C1539 C1535 1.393 . S
C1539 C1538 1.391 1_556 S
H1540 C1548 0.950 . S
H1541 C1553 0.950 . S
H1542 C1550 0.950 . S
H1543 C1552 0.950 . S
H1544 C1554 0.950 . S
H1545 C1556 0.950 . S
H1546 C1558 0.950 . S
H1547 C1559 0.950 . S
C1548 H1540 0.950 . S
C1548 C1549 1.386 . S
C1548 C1550 1.391 . S
C1549 C1548 1.386 . S
C1549 C1553 1.393 . S
C1550 H1542 0.950 . S
C1550 C1548 1.391 . S
C1550 C1551 1.400 . S
C1551 C1550 1.400 . S
C1551 C1552 1.398 . S
C1551 C1557 1.491 . S
C1552 H1543 0.950 . S
C1552 C1551 1.398 . S
C1552 C1553 1.391 . S
C1553 H1541 0.950 . S
C1553 C1549 1.393 . S
C1553 C1552 1.391 . S
C1554 H1544 0.950 . S
C1554 C1555 1.386 . S
C1554 C1556 1.391 . S
C1555 C1554 1.386 . S
C1555 C1559 1.393 . S
C1556 H1545 0.950 . S
C1556 C1554 1.391 . S
C1556 C1557 1.400 . S
C1557 C1551 1.491 . S
C1557 C1556 1.400 . S
C1557 C1558 1.398 . S
C1558 H1546 0.950 . S
C1558 C1557 1.398 . S
C1558 C1559 1.391 . S
C1559 H1547 0.950 . S
C1559 C1555 1.393 . S
C1559 C1558 1.391 . S
H1560 C1568 0.950 . S
H1561 C1573 0.950 . S
H1562 C1570 0.950 . S
H1563 C1572 0.950 . S
H1564 C1574 0.950 . S
H1565 C1576 0.950 . S
H1566 C1578 0.950 . S
H1567 C1579 0.950 . S
C1568 H1560 0.950 . S
C1568 C1569 1.386 . S
C1568 C1570 1.391 . S
C1569 C1568 1.386 . S
C1569 C1573 1.393 . S
C1570 H1562 0.950 . S
C1570 C1568 1.391 . S
C1570 C1571 1.400 . S
C1571 C1570 1.400 . S
C1571 C1572 1.398 . S
C1571 C1577 1.491 . S
C1572 H1563 0.950 . S
C1572 C1571 1.398 . S
C1572 C1573 1.391 . S
C1573 H1561 0.950 . S
C1573 C1569 1.393 . S
C1573 C1572 1.391 . S
C1574 H1564 0.950 . S
C1574 C1575 1.386 . S
C1574 C1576 1.391 . S
C1575 C1574 1.386 . S
C1575 C1579 1.393 . S
C1576 H1565 0.950 . S
C1576 C1574 1.391 . S
C1576 C1577 1.400 . S
C1577 C1571 1.491 . S
C1577 C1576 1.400 . S
C1577 C1578 1.398 . S
C1578 H1566 0.950 . S
C1578 C1577 1.398 . S
C1578 C1579 1.391 . S
C1579 H1567 0.950 . S
C1579 C1575 1.393 . S
C1579 C1578 1.391 . S
H1580 C1588 0.950 . S
H1581 C1593 0.950 . S
H1582 C1590 0.950 . S
H1583 C1592 0.950 . S
H1584 C1594 0.950 . S
H1585 C1596 0.950 . S
H1586 C1598 0.950 . S
H1587 C1599 0.950 . S
C1588 H1580 0.950 . S
C1588 C1589 1.386 . S
C1588 C1590 1.391 . S
C1589 C1588 1.386 . S
C1589 C1593 1.393 . S
C1590 H1582 0.950 . S
C1590 C1588 1.391 . S
C1590 C1591 1.400 . S
C1591 C1590 1.400 . S
C1591 C1592 1.398 . S
C1591 C1597 1.491 . S
C1592 H1583 0.950 . S
C1592 C1591 1.398 . S
C1592 C1593 1.391 . S
C1593 H1581 0.950 . S
C1593 C1589 1.393 . S
C1593 C1592 1.391 . S
C1594 H1584 0.950 . S
C1594 C1595 1.386 . S
C1594 C1596 1.391 . S
C1595 C1594 1.386 . S
C1595 C1599 1.393 . S
C1596 H1585 0.950 . S
C1596 C1594 1.391 . S
C1596 C1597 1.400 . S
C1597 C1591 1.491 . S
C1597 C1596 1.400 . S
C1597 C1598 1.398 . S
C1598 H1586 0.950 . S
C1598 C1597 1.398 . S
C1598 C1599 1.391 . S
C1599 H1587 0.950 . S
C1599 C1595 1.393 . S
C1599 C1598 1.391 . S
C649 C6 0.829 . S
C655 C286 0.909 . S
C669 C59 0.965 . S
C675 C166 0.960 . S
C689 C206 0.529 . S
C695 C99 0.471 . S
C709 C139 0.905 . S
C715 C246 0.903 . S
C729 C455 0.932 . S
C735 C170 0.936 . S
C749 C330 2.720 . S
C755 C10 2.678 1_556 S
C769 C415 0.970 . S
C775 C250 0.970 . S
C789 C95 1.970 . S
C795 C370 1.936 . S
C809 C366 0.946 . S
C815 C486 0.825 . S
C829 C419 0.977 . S
C835 C566 0.949 . S
C849 C539 0.461 . S
C855 C326 0.530 . S
C869 C459 0.916 . S
C875 C606 0.893 . S
C889 C570 0.939 . S
C895 C135 0.927 . S
C909 C490 2.678 . S
C915 C210 2.724 . S
C929 C55 0.936 . S
C935 C610 0.966 . S
C949 C290 1.952 . S
C955 C535 1.961 . S
C969 C538 0.478 . S
C975 C9 0.397 . S
C989 C458 0.518 . S
C995 C58 0.470 . S
C1009 C489 0.464 . S
C1015 C98 0.411 . S
C1029 C418 0.514 . S
C1035 C138 0.566 . S
C1049 C169 0.427 . S
C1055 C609 0.445 . S
C1069 C369 0.730 . S
C1075 C209 0.668 . S
C1089 C249 0.434 . S
C1095 C569 0.469 . S
C1109 C289 0.711 . S
C1115 C329 0.663 . S
C1129 C18 1.488 1_455 S
C1135 C178 1.498 . S
C1149 C49 1.397 . S
C1155 C218 1.404 . S
C1169 C258 1.568 . S
C1175 C89 1.566 . S
C1189 C129 1.769 . S
C1195 C298 1.746 . S
C1209 C409 1.389 . S
C1215 C338 1.401 . S
C1229 C449 1.761 . S
C1235 C378 1.739 . S
C1249 C498 1.494 . S
C1255 C578 1.500 . S
C1269 C618 1.545 . S
C1275 C529 1.545 . S
C1289 C19 3.626 . S
C1295 C299 3.643 . S
C1309 C46 1.992 . S
C1315 C179 2.072 . S
C1329 C219 2.905 . S
C1335 C86 2.851 . S
C1349 C259 2.033 . S
C1355 C126 1.943 . S
C1369 C450 2.033 . S
C1375 C175 1.954 . S
C1389 C335 0.596 . S
C1395 C15 0.551 . S
C1409 C410 2.045 . S
C1415 C255 1.970 . S
C1429 C90 0.992 . S
C1435 C375 0.962 . S
C1449 C499 3.629 . S
C1455 C379 3.643 1_556 S
C1469 C579 2.067 . S
C1475 C406 1.978 . S
C1489 C526 2.850 . S
C1495 C339 2.906 . S
C1509 C619 2.039 . S
C1515 C446 1.963 . S
C1529 C575 1.963 . S
C1535 C130 2.035 . S
C1549 C215 0.541 . S
C1555 C495 0.532 . S
C1569 C50 2.045 . S
C1575 C615 1.972 . S
C1589 C530 0.996 . S
C1595 C295 0.973 . S
