# Generated by pormake.
# Topology umq, (4)-cn, num edge types: 1
# Building blocks:
#     Node 0, Type 0, BuildingBlock: TATPOV_clean_sbu_0, # of connection points: 4
#     Node 1, Type 0, BuildingBlock: TATPOV_clean_sbu_0, # of connection points: 4
#     Node 2, Type 0, BuildingBlock: TATPOV_clean_sbu_0, # of connection points: 4
#     Node 3, Type 0, BuildingBlock: TATPOV_clean_sbu_0, # of connection points: 4
#     Node 4, Type 0, BuildingBlock: TATPOV_clean_sbu_0, # of connection points: 4
#     Node 5, Type 0, BuildingBlock: TATPOV_clean_sbu_0, # of connection points: 4
#     Node 6, Type 0, BuildingBlock: TATPOV_clean_sbu_0, # of connection points: 4
#     Node 7, Type 0, BuildingBlock: TATPOV_clean_sbu_0, # of connection points: 4
#     Node 8, Type 0, BuildingBlock: TATPOV_clean_sbu_0, # of connection points: 4
#     Node 9, Type 0, BuildingBlock: TATPOV_clean_sbu_0, # of connection points: 4
#     Node 10, Type 0, BuildingBlock: TATPOV_clean_sbu_0, # of connection points: 4
#     Node 11, Type 0, BuildingBlock: TATPOV_clean_sbu_0, # of connection points: 4
#     Node 12, Type 0, BuildingBlock: TATPOV_clean_sbu_0, # of connection points: 4
#     Node 13, Type 0, BuildingBlock: TATPOV_clean_sbu_0, # of connection points: 4
#     Node 14, Type 0, BuildingBlock: TATPOV_clean_sbu_0, # of connection points: 4
#     Node 15, Type 0, BuildingBlock: TATPOV_clean_sbu_0, # of connection points: 4
#     Node 16, Type 0, BuildingBlock: TATPOV_clean_sbu_0, # of connection points: 4
#     Node 17, Type 0, BuildingBlock: TATPOV_clean_sbu_0, # of connection points: 4
#     Node 18, Type 0, BuildingBlock: TATPOV_clean_sbu_0, # of connection points: 4
#     Node 19, Type 0, BuildingBlock: TATPOV_clean_sbu_0, # of connection points: 4
#     Node 20, Type 0, BuildingBlock: TATPOV_clean_sbu_0, # of connection points: 4
#     Node 21, Type 0, BuildingBlock: TATPOV_clean_sbu_0, # of connection points: 4
#     Node 22, Type 0, BuildingBlock: TATPOV_clean_sbu_0, # of connection points: 4
#     Node 23, Type 0, BuildingBlock: TATPOV_clean_sbu_0, # of connection points: 4
#     Node 24, Type 0, BuildingBlock: TATPOV_clean_sbu_0, # of connection points: 4
#     Node 25, Type 0, BuildingBlock: TATPOV_clean_sbu_0, # of connection points: 4
#     Node 26, Type 0, BuildingBlock: TATPOV_clean_sbu_0, # of connection points: 4
#     Node 27, Type 0, BuildingBlock: TATPOV_clean_sbu_0, # of connection points: 4
#     Node 28, Type 0, BuildingBlock: TATPOV_clean_sbu_0, # of connection points: 4
#     Node 29, Type 0, BuildingBlock: TATPOV_clean_sbu_0, # of connection points: 4
#     Node 30, Type 0, BuildingBlock: TATPOV_clean_sbu_0, # of connection points: 4
#     Node 31, Type 0, BuildingBlock: TATPOV_clean_sbu_0, # of connection points: 4
#     Edge 32, Type (0, 0), BuildingBlock: KIFKEQ_clean_linker_1, # of connection points: 2
#     Edge 33, Type (0, 0), BuildingBlock: KIFKEQ_clean_linker_1, # of connection points: 2
#     Edge 34, Type (0, 0), BuildingBlock: KIFKEQ_clean_linker_1, # of connection points: 2
#     Edge 35, Type (0, 0), BuildingBlock: KIFKEQ_clean_linker_1, # of connection points: 2
#     Edge 36, Type (0, 0), BuildingBlock: KIFKEQ_clean_linker_1, # of connection points: 2
#     Edge 37, Type (0, 0), BuildingBlock: KIFKEQ_clean_linker_1, # of connection points: 2
#     Edge 38, Type (0, 0), BuildingBlock: KIFKEQ_clean_linker_1, # of connection points: 2
#     Edge 39, Type (0, 0), BuildingBlock: KIFKEQ_clean_linker_1, # of connection points: 2
#     Edge 40, Type (0, 0), BuildingBlock: KIFKEQ_clean_linker_1, # of connection points: 2
#     Edge 41, Type (0, 0), BuildingBlock: KIFKEQ_clean_linker_1, # of connection points: 2
#     Edge 42, Type (0, 0), BuildingBlock: KIFKEQ_clean_linker_1, # of connection points: 2
#     Edge 43, Type (0, 0), BuildingBlock: KIFKEQ_clean_linker_1, # of connection points: 2
#     Edge 44, Type (0, 0), BuildingBlock: KIFKEQ_clean_linker_1, # of connection points: 2
#     Edge 45, Type (0, 0), BuildingBlock: KIFKEQ_clean_linker_1, # of connection points: 2
#     Edge 46, Type (0, 0), BuildingBlock: KIFKEQ_clean_linker_1, # of connection points: 2
#     Edge 47, Type (0, 0), BuildingBlock: KIFKEQ_clean_linker_1, # of connection points: 2
#     Edge 48, Type (0, 0), BuildingBlock: KIFKEQ_clean_linker_1, # of connection points: 2
#     Edge 49, Type (0, 0), BuildingBlock: KIFKEQ_clean_linker_1, # of connection points: 2
#     Edge 50, Type (0, 0), BuildingBlock: KIFKEQ_clean_linker_1, # of connection points: 2
#     Edge 51, Type (0, 0), BuildingBlock: KIFKEQ_clean_linker_1, # of connection points: 2
#     Edge 52, Type (0, 0), BuildingBlock: KIFKEQ_clean_linker_1, # of connection points: 2
#     Edge 53, Type (0, 0), BuildingBlock: KIFKEQ_clean_linker_1, # of connection points: 2
#     Edge 54, Type (0, 0), BuildingBlock: KIFKEQ_clean_linker_1, # of connection points: 2
#     Edge 55, Type (0, 0), BuildingBlock: KIFKEQ_clean_linker_1, # of connection points: 2
#     Edge 56, Type (0, 0), BuildingBlock: KIFKEQ_clean_linker_1, # of connection points: 2
#     Edge 57, Type (0, 0), BuildingBlock: KIFKEQ_clean_linker_1, # of connection points: 2
#     Edge 58, Type (0, 0), BuildingBlock: KIFKEQ_clean_linker_1, # of connection points: 2
#     Edge 59, Type (0, 0), BuildingBlock: KIFKEQ_clean_linker_1, # of connection points: 2
#     Edge 60, Type (0, 0), BuildingBlock: KIFKEQ_clean_linker_1, # of connection points: 2
#     Edge 61, Type (0, 0), BuildingBlock: KIFKEQ_clean_linker_1, # of connection points: 2
#     Edge 62, Type (0, 0), BuildingBlock: KIFKEQ_clean_linker_1, # of connection points: 2
#     Edge 63, Type (0, 0), BuildingBlock: KIFKEQ_clean_linker_1, # of connection points: 2
#     Edge 64, Type (0, 0), BuildingBlock: KIFKEQ_clean_linker_1, # of connection points: 2
#     Edge 65, Type (0, 0), BuildingBlock: KIFKEQ_clean_linker_1, # of connection points: 2
#     Edge 66, Type (0, 0), BuildingBlock: KIFKEQ_clean_linker_1, # of connection points: 2
#     Edge 67, Type (0, 0), BuildingBlock: KIFKEQ_clean_linker_1, # of connection points: 2
#     Edge 68, Type (0, 0), BuildingBlock: KIFKEQ_clean_linker_1, # of connection points: 2
#     Edge 69, Type (0, 0), BuildingBlock: KIFKEQ_clean_linker_1, # of connection points: 2
#     Edge 70, Type (0, 0), BuildingBlock: KIFKEQ_clean_linker_1, # of connection points: 2
#     Edge 71, Type (0, 0), BuildingBlock: KIFKEQ_clean_linker_1, # of connection points: 2
#     Edge 72, Type (0, 0), BuildingBlock: KIFKEQ_clean_linker_1, # of connection points: 2
#     Edge 73, Type (0, 0), BuildingBlock: KIFKEQ_clean_linker_1, # of connection points: 2
#     Edge 74, Type (0, 0), BuildingBlock: KIFKEQ_clean_linker_1, # of connection points: 2
#     Edge 75, Type (0, 0), BuildingBlock: KIFKEQ_clean_linker_1, # of connection points: 2
#     Edge 76, Type (0, 0), BuildingBlock: KIFKEQ_clean_linker_1, # of connection points: 2
#     Edge 77, Type (0, 0), BuildingBlock: KIFKEQ_clean_linker_1, # of connection points: 2
#     Edge 78, Type (0, 0), BuildingBlock: KIFKEQ_clean_linker_1, # of connection points: 2
#     Edge 79, Type (0, 0), BuildingBlock: KIFKEQ_clean_linker_1, # of connection points: 2
#     Edge 80, Type (0, 0), BuildingBlock: KIFKEQ_clean_linker_1, # of connection points: 2
#     Edge 81, Type (0, 0), BuildingBlock: KIFKEQ_clean_linker_1, # of connection points: 2
#     Edge 82, Type (0, 0), BuildingBlock: KIFKEQ_clean_linker_1, # of connection points: 2
#     Edge 83, Type (0, 0), BuildingBlock: KIFKEQ_clean_linker_1, # of connection points: 2
#     Edge 84, Type (0, 0), BuildingBlock: KIFKEQ_clean_linker_1, # of connection points: 2
#     Edge 85, Type (0, 0), BuildingBlock: KIFKEQ_clean_linker_1, # of connection points: 2
#     Edge 86, Type (0, 0), BuildingBlock: KIFKEQ_clean_linker_1, # of connection points: 2
#     Edge 87, Type (0, 0), BuildingBlock: KIFKEQ_clean_linker_1, # of connection points: 2
#     Edge 88, Type (0, 0), BuildingBlock: KIFKEQ_clean_linker_1, # of connection points: 2
#     Edge 89, Type (0, 0), BuildingBlock: KIFKEQ_clean_linker_1, # of connection points: 2
#     Edge 90, Type (0, 0), BuildingBlock: KIFKEQ_clean_linker_1, # of connection points: 2
#     Edge 91, Type (0, 0), BuildingBlock: KIFKEQ_clean_linker_1, # of connection points: 2
#     Edge 92, Type (0, 0), BuildingBlock: KIFKEQ_clean_linker_1, # of connection points: 2
#     Edge 93, Type (0, 0), BuildingBlock: KIFKEQ_clean_linker_1, # of connection points: 2
#     Edge 94, Type (0, 0), BuildingBlock: KIFKEQ_clean_linker_1, # of connection points: 2
#     Edge 95, Type (0, 0), BuildingBlock: KIFKEQ_clean_linker_1, # of connection points: 2
# Relax obj value: 0.062
# Max RMSD: 0.083
# Mean RMSD: 0.083
data_MOF--net-umq--node1-TATPOV_clean_sbu_0--edge1-KIFKEQ_clean_linker_1
_symmetry_space_group_name_H-M    P1
_symmetry_Int_Tables_number       1
_symmetry_cell_setting            triclinic
loop_
_symmetry_equiv_pos_as_xyz
'x, y, z'
_cell_length_a     67.338027
_cell_length_b     67.361953
_cell_length_c     45.201641
_cell_angle_alpha  89.916229
_cell_angle_beta   90.042788
_cell_angle_gamma 89.973338
loop_
_atom_site_label
_atom_site_type_symbol
_atom_site_fract_x
_atom_site_fract_y
_atom_site_fract_z
_atom_type_partial_charge
Zn0 Zn 0.22292 0.13239 0.1188 0.0
Zn1 Zn 0.23325 0.09991 0.14909 0.0
O2 O 0.23052 0.08973 0.10624 0.0
O3 O 0.22025 0.11615 0.08184 0.0
O4 O 0.23848 0.07459 0.17188 0.0
O5 O 0.19907 0.13715 0.14357 0.0
O6 O 0.20773 0.1109 0.16958 0.0
C7 C 0.22483 0.09794 0.08229 0.0
C8 C 0.2618 0.13494 0.14615 0.0
O9 O 0.25824 0.11726 0.15471 0.0
O10 O 0.24915 0.14449 0.13105 0.0
C11 C 0.25552 0.06697 0.17627 0.0
O12 O 0.27138 0.07607 0.16613 0.0
C13 C 0.19594 0.12545 0.16495 0.0
Zn14 Zn 0.87987 0.21002 0.14705 0.0
Zn15 Zn 0.90467 0.2309 0.18007 0.0
O16 O 0.91933 0.22602 0.14029 0.0
O17 O 0.89929 0.20729 0.11399 0.0
O18 O 0.9262 0.24279 0.20581 0.0
O19 O 0.87739 0.18807 0.17642 0.0
O20 O 0.89546 0.20691 0.20568 0.0
C21 C 0.9156 0.21638 0.11668 0.0
C22 C 0.86603 0.25021 0.1628 0.0
O23 O 0.8827 0.25192 0.17596 0.0
O24 O 0.86168 0.23416 0.14962 0.0
C25 C 0.94055 0.25291 0.19545 0.0
O26 O 0.94076 0.25732 0.16713 0.0
C27 C 0.88532 0.19118 0.20132 0.0
Zn28 Zn 0.77839 0.87059 0.14798 0.0
Zn29 Zn 0.76491 0.90078 0.18037 0.0
O30 O 0.76997 0.91377 0.13971 0.0
O31 O 0.7812 0.88886 0.11301 0.0
O32 O 0.75806 0.92404 0.20604 0.0
O33 O 0.802 0.8663 0.17412 0.0
O34 O 0.78876 0.88883 0.20333 0.0
C35 C 0.77652 0.907 0.1153 0.0
C36 C 0.73797 0.86554 0.17081 0.0
O37 O 0.74013 0.88316 0.18043 0.0
O38 O 0.75209 0.85689 0.15745 0.0
C39 C 0.74488 0.93687 0.19974 0.0
O40 O 0.73432 0.93477 0.17549 0.0
C41 C 0.80224 0.87602 0.19801 0.0
Zn42 Zn 0.12504 0.75825 0.13499 0.0
Zn43 Zn 0.09307 0.75518 0.1663 0.0
O44 O 0.08182 0.75659 0.12377 0.0
O45 O 0.1093 0.75222 0.09824 0.0
O46 O 0.06864 0.75366 0.19188 0.0
O47 O 0.12967 0.7865 0.1475 0.0
O48 O 0.10653 0.78102 0.18084 0.0
C49 C 0.09059 0.75379 0.09917 0.0
C50 C 0.12655 0.72486 0.17298 0.0
O51 O 0.10829 0.72926 0.17639 0.0
O52 O 0.13777 0.73606 0.15798 0.0
C53 C 0.05857 0.7378 0.19454 0.0
O54 O 0.06411 0.72187 0.17998 0.0
C55 C 0.12009 0.79209 0.17006 0.0
Zn56 Zn 0.21983 0.87785 0.34516 0.0
Zn57 Zn 0.23798 0.90264 0.30935 0.0
O58 O 0.23443 0.91854 0.34854 0.0
O59 O 0.21853 0.89763 0.37759 0.0
O60 O 0.24749 0.92394 0.28125 0.0
O61 O 0.19617 0.87449 0.31936 0.0
O62 O 0.21277 0.89253 0.28716 0.0
C63 C 0.22619 0.91447 0.37317 0.0
C64 C 0.2591 0.86454 0.3253 0.0
O65 O 0.25993 0.88119 0.31185 0.0
O66 O 0.24378 0.86 0.34015 0.0
C67 C 0.25942 0.9377 0.28864 0.0
O68 O 0.26762 0.93725 0.31502 0.0
C69 C 0.19755 0.8822 0.29397 0.0
Zn70 Zn 0.12375 0.21264 0.37518 0.0
Zn71 Zn 0.09855 0.23033 0.33926 0.0
O72 O 0.08337 0.22713 0.37887 0.0
O73 O 0.10329 0.20927 0.4068 0.0
O74 O 0.07722 0.24068 0.3117 0.0
O75 O 0.12935 0.19042 0.34759 0.0
O76 O 0.1083 0.20491 0.31725 0.0
C77 C 0.08688 0.21805 0.40307 0.0
C78 C 0.13574 0.25258 0.35704 0.0
O79 O 0.1198 0.25235 0.34176 0.0
O80 O 0.14028 0.23772 0.37294 0.0
C81 C 0.06354 0.25231 0.32044 0.0
O82 O 0.06391 0.25887 0.34779 0.0
C83 C 0.12038 0.19079 0.32304 0.0
Zn84 Zn 0.76373 0.13021 0.37748 0.0
Zn85 Zn 0.75929 0.09712 0.34761 0.0
O86 O 0.76114 0.08685 0.39047 0.0
O87 O 0.75892 0.1149 0.41524 0.0
O88 O 0.75711 0.07201 0.32386 0.0
O89 O 0.79152 0.13412 0.36191 0.0
O90 O 0.78496 0.10969 0.33116 0.0
C91 C 0.7596 0.09612 0.41488 0.0
C92 C 0.72918 0.13075 0.34091 0.0
O93 O 0.73355 0.11248 0.33768 0.0
O94 O 0.74061 0.14212 0.35528 0.0
C95 C 0.74078 0.0631 0.31908 0.0
O96 O 0.72426 0.07045 0.32998 0.0
C97 C 0.7964 0.12358 0.33994 0.0
Zn98 Zn 0.8681 0.76155 0.37931 0.0
Zn99 Zn 0.90042 0.75459 0.34893 0.0
O100 O 0.91132 0.75735 0.39151 0.0
O101 O 0.88344 0.75712 0.41701 0.0
O102 O 0.92496 0.75161 0.32397 0.0
O103 O 0.86493 0.78905 0.36228 0.0
O104 O 0.88811 0.77989 0.33088 0.0
C105 C 0.90221 0.75696 0.4162 0.0
C106 C 0.86564 0.72599 0.34478 0.0
O107 O 0.88414 0.72907 0.34098 0.0
O108 O 0.85509 0.73846 0.35857 0.0
C109 C 0.9368 0.73692 0.32506 0.0
O110 O 0.93315 0.7223 0.34354 0.0
C111 C 0.87501 0.79236 0.33919 0.0
Zn112 Zn 0.75689 0.87911 0.88199 0.0
Zn113 Zn 0.75593 0.9106 0.84595 0.0
O114 O 0.757 0.92289 0.88806 0.0
O115 O 0.75742 0.89668 0.91736 0.0
O116 O 0.75526 0.93505 0.82003 0.0
O117 O 0.78233 0.87004 0.86231 0.0
O118 O 0.78155 0.8962 0.8331 0.0
C119 C 0.75733 0.9153 0.91388 0.0
C120 C 0.72224 0.87962 0.84558 0.0
O121 O 0.73037 0.89504 0.83454 0.0
O122 O 0.73043 0.87035 0.86666 0.0
C123 C 0.73928 0.94464 0.81534 0.0
O124 O 0.72263 0.93817 0.82699 0.0
C125 C 0.78994 0.8802 0.84162 0.0
Zn126 Zn 0.12927 0.78569 0.86741 0.0
Zn127 Zn 0.10398 0.76621 0.83365 0.0
O128 O 0.08971 0.7706 0.87382 0.0
O129 O 0.10967 0.78939 0.90016 0.0
O130 O 0.08185 0.75566 0.80771 0.0
O131 O 0.13376 0.80728 0.83806 0.0
O132 O 0.11365 0.79052 0.80908 0.0
C133 C 0.0934 0.78021 0.89746 0.0
C134 C 0.14175 0.74526 0.85095 0.0
O135 O 0.12541 0.74444 0.83668 0.0
O136 O 0.14621 0.76079 0.86536 0.0
C137 C 0.06732 0.74576 0.81799 0.0
O138 O 0.06747 0.74051 0.84599 0.0
C139 C 0.12516 0.80529 0.81339 0.0
Zn140 Zn 0.2402 0.13101 0.83634 0.0
Zn141 Zn 0.24214 0.09778 0.80802 0.0
O142 O 0.24022 0.08827 0.85129 0.0
O143 O 0.24502 0.11651 0.87468 0.0
O144 O 0.24289 0.07234 0.78511 0.0
O145 O 0.21256 0.13652 0.8219 0.0
O146 O 0.21693 0.11145 0.79154 0.0
C147 C 0.24302 0.09784 0.87519 0.0
C148 C 0.27401 0.12947 0.79929 0.0
O149 O 0.26878 0.11135 0.79714 0.0
O150 O 0.26325 0.14169 0.81319 0.0
C151 C 0.25798 0.06101 0.7855 0.0
O152 O 0.27354 0.06607 0.80133 0.0
C153 C 0.20657 0.12615 0.80035 0.0
Zn154 Zn 0.87304 0.2477 0.88866 0.0
Zn155 Zn 0.90459 0.2495 0.85214 0.0
O156 O 0.91776 0.24661 0.89323 0.0
O157 O 0.89184 0.24595 0.92303 0.0
O158 O 0.92764 0.25088 0.82419 0.0
O159 O 0.86348 0.22307 0.86678 0.0
O160 O 0.88964 0.22492 0.83777 0.0
C161 C 0.91045 0.24575 0.91916 0.0
C162 C 0.87464 0.28384 0.85517 0.0
O163 O 0.88995 0.27584 0.84374 0.0
O164 O 0.86491 0.27496 0.87513 0.0
C165 C 0.94299 0.26107 0.83013 0.0
O166 O 0.94386 0.27081 0.85527 0.0
C167 C 0.87361 0.2163 0.84544 0.0
Zn168 Zn 0.78521 0.13162 0.64237 0.0
Zn169 Zn 0.76777 0.10738 0.67876 0.0
O170 O 0.77263 0.09174 0.63976 0.0
O171 O 0.79237 0.1106 0.61321 0.0
O172 O 0.75867 0.08562 0.70631 0.0
O173 O 0.80524 0.14078 0.67181 0.0
O174 O 0.7914 0.11948 0.70232 0.0
C175 C 0.78312 0.09445 0.61663 0.0
C176 C 0.74366 0.14138 0.65545 0.0
O177 O 0.74466 0.12717 0.67408 0.0
O178 O 0.75845 0.14541 0.63915 0.0
C179 C 0.74627 0.07234 0.6987 0.0
O180 O 0.73768 0.07358 0.67266 0.0
C181 C 0.80457 0.13262 0.69698 0.0
Zn182 Zn 0.86918 0.77761 0.65829 0.0
Zn183 Zn 0.90112 0.76725 0.68876 0.0
O184 O 0.91184 0.77172 0.64625 0.0
O185 O 0.88526 0.78097 0.62136 0.0
O186 O 0.92594 0.7611 0.71232 0.0
O187 O 0.86389 0.80111 0.6834 0.0
O188 O 0.88888 0.7915 0.7114 0.0
C189 C 0.90366 0.77722 0.62216 0.0
C190 C 0.86697 0.73798 0.68291 0.0
O191 O 0.88464 0.74157 0.69144 0.0
O192 O 0.85706 0.75107 0.6692 0.0
C193 C 0.93991 0.75056 0.70176 0.0
O194 O 0.93804 0.74315 0.67503 0.0
C195 C 0.87454 0.80345 0.70616 0.0
Zn196 Zn 0.22977 0.8688 0.60623 0.0
Zn197 Zn 0.23576 0.90026 0.64026 0.0
O198 O 0.23187 0.91272 0.59884 0.0
O199 O 0.22231 0.88686 0.57268 0.0
O200 O 0.23892 0.92413 0.66627 0.0
O201 O 0.20832 0.85871 0.63346 0.0
O202 O 0.21139 0.88645 0.65865 0.0
C203 C 0.22555 0.90531 0.5747 0.0
C204 C 0.26895 0.87005 0.63206 0.0
O205 O 0.2619 0.88491 0.6459 0.0
O206 O 0.25859 0.8612 0.61275 0.0
C207 C 0.2543 0.93502 0.66538 0.0
O208 O 0.26876 0.93046 0.64709 0.0
C209 C 0.20265 0.86992 0.65424 0.0
Zn210 Zn 0.12854 0.24247 0.63513 0.0
Zn211 Zn 0.09698 0.24656 0.66822 0.0
O212 O 0.08468 0.24443 0.62661 0.0
O213 O 0.11149 0.2471 0.59904 0.0
O214 O 0.07351 0.24929 0.69518 0.0
O215 O 0.13352 0.21492 0.65073 0.0
O216 O 0.11016 0.22085 0.68349 0.0
C217 C 0.09278 0.24617 0.60131 0.0
C218 C 0.13072 0.27681 0.6713 0.0
O219 O 0.11266 0.27237 0.6764 0.0
O220 O 0.14146 0.26551 0.65573 0.0
C221 C 0.0579 0.25869 0.68782 0.0
O222 O 0.05684 0.26693 0.66151 0.0
C223 C 0.12393 0.20972 0.67352 0.0
Zn224 Zn 0.74546 0.62578 0.60498 0.0
Zn225 Zn 0.74749 0.59585 0.64434 0.0
O226 O 0.74629 0.58111 0.60428 0.0
O227 O 0.74528 0.60579 0.57218 0.0
O228 O 0.74851 0.5736 0.67384 0.0
O229 O 0.71984 0.63513 0.62447 0.0
O230 O 0.72192 0.61023 0.65587 0.0
C231 C 0.7457 0.58738 0.57771 0.0
C232 C 0.78042 0.62745 0.64118 0.0
O233 O 0.77274 0.61224 0.65349 0.0
O234 O 0.77187 0.63574 0.61949 0.0
C235 C 0.76335 0.56201 0.67575 0.0
O236 O 0.77859 0.56472 0.65807 0.0
C237 C 0.71289 0.62556 0.6463 0.0
Zn238 Zn 0.37037 0.73458 0.62291 0.0
Zn239 Zn 0.40371 0.74119 0.65132 0.0
O240 O 0.41364 0.73786 0.60841 0.0
O241 O 0.3852 0.73699 0.58432 0.0
O242 O 0.42902 0.74408 0.67455 0.0
O243 O 0.36589 0.70832 0.64293 0.0
O244 O 0.39123 0.71642 0.67107 0.0
C245 C 0.40399 0.73747 0.58419 0.0
C246 C 0.37003 0.77135 0.65441 0.0
O247 O 0.38836 0.76743 0.65839 0.0
O248 O 0.3588 0.75905 0.64151 0.0
C249 C 0.43908 0.75998 0.67652 0.0
O250 O 0.43286 0.77604 0.66282 0.0
C251 C 0.37688 0.70476 0.66502 0.0
Zn252 Zn 0.26292 0.3797 0.63435 0.0
Zn253 Zn 0.2603 0.4097 0.67239 0.0
O254 O 0.26386 0.42341 0.63148 0.0
O255 O 0.26702 0.39827 0.60065 0.0
O256 O 0.25901 0.4333 0.69957 0.0
O257 O 0.2862 0.36859 0.65709 0.0
O258 O 0.28413 0.39351 0.68839 0.0
C259 C 0.26642 0.41673 0.6054 0.0
C260 C 0.22558 0.38088 0.66499 0.0
O261 O 0.2335 0.39536 0.67874 0.0
O262 O 0.23492 0.37202 0.64462 0.0
C263 C 0.24323 0.44353 0.7022 0.0
O264 O 0.22723 0.43815 0.68764 0.0
C265 C 0.29247 0.37748 0.67993 0.0
Zn266 Zn 0.63101 0.28995 0.62178 0.0
Zn267 Zn 0.6045 0.27296 0.65742 0.0
O268 O 0.58936 0.27768 0.61821 0.0
O269 O 0.61064 0.29342 0.58975 0.0
O270 O 0.58299 0.2624 0.68402 0.0
O271 O 0.63576 0.31195 0.65061 0.0
O272 O 0.61418 0.29773 0.68034 0.0
C273 C 0.59352 0.2862 0.59383 0.0
C274 C 0.64172 0.24992 0.64101 0.0
O275 O 0.62539 0.25067 0.65525 0.0
O276 O 0.64706 0.26453 0.62517 0.0
C277 C 0.5693 0.25124 0.67411 0.0
O278 O 0.56992 0.24547 0.64638 0.0
C279 C 0.62647 0.31167 0.67492 0.0
Zn280 Zn 0.7357 0.37447 0.86476 0.0
Zn281 Zn 0.73959 0.40815 0.83664 0.0
O282 O 0.73783 0.41793 0.87968 0.0
O283 O 0.74001 0.38926 0.90301 0.0
O284 O 0.74168 0.43325 0.81288 0.0
O285 O 0.70842 0.36964 0.84841 0.0
O286 O 0.71402 0.39544 0.81982 0.0
C287 C 0.73943 0.40805 0.90358 0.0
C288 C 0.77046 0.37517 0.82944 0.0
O289 O 0.76576 0.39341 0.82685 0.0
O290 O 0.75912 0.36328 0.84299 0.0
C291 C 0.75748 0.44354 0.81225 0.0
O292 O 0.77287 0.43784 0.828 0.0
C293 C 0.70314 0.38077 0.82725 0.0
Zn294 Zn 0.63861 0.72794 0.83619 0.0
Zn295 Zn 0.60549 0.73685 0.8074 0.0
O296 O 0.59539 0.73127 0.84986 0.0
O297 O 0.62299 0.72373 0.87351 0.0
O298 O 0.58025 0.74124 0.78458 0.0
O299 O 0.64435 0.7047 0.81038 0.0
O300 O 0.61825 0.71343 0.7841 0.0
C301 C 0.60435 0.72614 0.87351 0.0
C302 C 0.63833 0.76765 0.81133 0.0
O303 O 0.62061 0.76331 0.80388 0.0
O304 O 0.64911 0.75501 0.82454 0.0
C305 C 0.56867 0.75585 0.78879 0.0
O306 O 0.57328 0.76921 0.80881 0.0
C307 C 0.63318 0.70208 0.78824 0.0
Zn308 Zn 0.28831 0.63039 0.87718 0.0
Zn309 Zn 0.27235 0.60476 0.83988 0.0
O310 O 0.27649 0.58897 0.87869 0.0
O311 O 0.29345 0.6091 0.90738 0.0
O312 O 0.26359 0.58325 0.81207 0.0
O313 O 0.30961 0.63814 0.8483 0.0
O314 O 0.29691 0.61597 0.8181 0.0
C315 C 0.28557 0.59232 0.90291 0.0
C316 C 0.2475 0.63972 0.85923 0.0
O317 O 0.24927 0.62473 0.84223 0.0
O318 O 0.2616 0.64451 0.87643 0.0
C319 C 0.25006 0.57083 0.81851 0.0
O320 O 0.24026 0.57284 0.84346 0.0
C321 C 0.30995 0.62916 0.82374 0.0
Zn322 Zn 0.37532 0.25752 0.85128 0.0
Zn323 Zn 0.40656 0.25609 0.81486 0.0
O324 O 0.41915 0.25988 0.85643 0.0
O325 O 0.39322 0.26049 0.88618 0.0
O326 O 0.43054 0.25447 0.78853 0.0
O327 O 0.36525 0.28157 0.82885 0.0
O328 O 0.3909 0.2801 0.79875 0.0
C329 C 0.41179 0.26109 0.88231 0.0
C330 C 0.37763 0.221 0.81909 0.0
O331 O 0.39263 0.22927 0.80714 0.0
O332 O 0.36781 0.22989 0.83892 0.0
C333 C 0.44494 0.24335 0.79612 0.0
O334 O 0.44368 0.23315 0.82085 0.0
C335 C 0.37473 0.28833 0.80682 0.0
Zn336 Zn 0.27926 0.36821 0.38033 0.0
Zn337 Zn 0.26376 0.39525 0.34501 0.0
O338 O 0.26996 0.41059 0.38375 0.0
O339 O 0.28665 0.38879 0.41018 0.0
O340 O 0.25507 0.41713 0.31753 0.0
O341 O 0.29931 0.35973 0.35021 0.0
O342 O 0.28744 0.38345 0.32182 0.0
C343 C 0.27984 0.40616 0.40691 0.0
C344 C 0.23794 0.36085 0.36495 0.0
O345 O 0.24001 0.37594 0.34815 0.0
O346 O 0.25212 0.35529 0.38147 0.0
C347 C 0.24258 0.43049 0.32443 0.0
O348 O 0.23374 0.42965 0.35031 0.0
C349 C 0.2998 0.36941 0.32623 0.0
Zn350 Zn 0.61782 0.25706 0.372 0.0
Zn351 Zn 0.58789 0.25221 0.33346 0.0
O352 O 0.57347 0.25615 0.37365 0.0
O353 O 0.59841 0.25926 0.405 0.0
O354 O 0.56515 0.25027 0.30476 0.0
O355 O 0.62706 0.2816 0.35011 0.0
O356 O 0.60327 0.27633 0.31761 0.0
C357 C 0.57998 0.25847 0.39989 0.0
C358 C 0.61885 0.21947 0.3415 0.0
O359 O 0.60339 0.22594 0.32836 0.0
O360 O 0.62756 0.22986 0.36087 0.0
C361 C 0.55337 0.23555 0.30392 0.0
O362 O 0.55626 0.22055 0.32204 0.0
C363 C 0.61813 0.2864 0.3265 0.0
Zn364 Zn 0.72359 0.62093 0.35372 0.0
Zn365 Zn 0.73356 0.59293 0.31664 0.0
O366 O 0.72919 0.57892 0.35712 0.0
O367 O 0.71528 0.60172 0.385 0.0
O368 O 0.73865 0.56932 0.29034 0.0
O369 O 0.70314 0.63196 0.32611 0.0
O370 O 0.7097 0.60706 0.29626 0.0
C371 C 0.72101 0.58402 0.38137 0.0
C372 C 0.76427 0.62371 0.33282 0.0
O373 O 0.75911 0.60971 0.31553 0.0
O374 O 0.75224 0.6303 0.35199 0.0
C375 C 0.75501 0.55987 0.29024 0.0
O376 O 0.76981 0.56633 0.30655 0.0
C377 C 0.69965 0.62259 0.30245 0.0
Zn378 Zn 0.37266 0.71679 0.35057 0.0
Zn379 Zn 0.39887 0.73275 0.31506 0.0
O380 O 0.41321 0.72888 0.35572 0.0
O381 O 0.39214 0.71172 0.3827 0.0
O382 O 0.42152 0.74066 0.28813 0.0
O383 O 0.36582 0.69462 0.32337 0.0
O384 O 0.38698 0.70848 0.29252 0.0
C385 C 0.40895 0.71977 0.37966 0.0
C386 C 0.36366 0.75771 0.33184 0.0
O387 O 0.37929 0.75624 0.31608 0.0
O388 O 0.35831 0.74335 0.3482 0.0
C389 C 0.43479 0.75321 0.29522 0.0
O390 O 0.43328 0.76264 0.32055 0.0
C391 C 0.37441 0.69488 0.29856 0.0
Zn392 Zn 0.25283 0.61772 0.12762 0.0
Zn393 Zn 0.25061 0.58673 0.1647 0.0
O394 O 0.25363 0.57371 0.12324 0.0
O395 O 0.25329 0.59946 0.09305 0.0
O396 O 0.24969 0.56289 0.19174 0.0
O397 O 0.27847 0.62639 0.14725 0.0
O398 O 0.27519 0.60198 0.17937 0.0
C399 C 0.25391 0.58091 0.09715 0.0
C400 C 0.21699 0.61751 0.16188 0.0
O401 O 0.22433 0.60174 0.17305 0.0
O402 O 0.2263 0.62708 0.14219 0.0
C403 C 0.23373 0.55364 0.19775 0.0
O404 O 0.21688 0.55991 0.18642 0.0
C405 C 0.2846 0.61712 0.16989 0.0
Zn406 Zn 0.36856 0.27509 0.11219 0.0
Zn407 Zn 0.39837 0.26514 0.1474 0.0
O408 O 0.41182 0.26999 0.10682 0.0
O409 O 0.38764 0.28289 0.08024 0.0
O410 O 0.42165 0.25977 0.17413 0.0
O411 O 0.35894 0.29578 0.1408 0.0
O412 O 0.38524 0.28911 0.16791 0.0
C413 C 0.40569 0.27799 0.08293 0.0
C414 C 0.36627 0.23473 0.13406 0.0
O415 O 0.38122 0.23987 0.14953 0.0
O416 O 0.35884 0.24664 0.11536 0.0
C417 C 0.43187 0.24391 0.17355 0.0
O418 O 0.42701 0.22975 0.15495 0.0
C419 C 0.36955 0.29926 0.16332 0.0
Zn420 Zn 0.71861 0.36545 0.13503 0.0
Zn421 Zn 0.73585 0.39134 0.17075 0.0
O422 O 0.73151 0.40613 0.13089 0.0
O423 O 0.71408 0.38561 0.10341 0.0
O424 O 0.74463 0.41382 0.19706 0.0
O425 O 0.6966 0.35977 0.16343 0.0
O426 O 0.71158 0.3804 0.19389 0.0
C427 C 0.72223 0.40233 0.10698 0.0
C428 C 0.7595 0.35537 0.15323 0.0
O429 O 0.75866 0.3711 0.16884 0.0
O430 O 0.74484 0.35038 0.13722 0.0
C431 C 0.75743 0.42666 0.18925 0.0
O432 O 0.76689 0.42434 0.16408 0.0
C433 C 0.69747 0.36837 0.18822 0.0
Zn434 Zn 0.6281 0.73636 0.1133 0.0
Zn435 Zn 0.59632 0.74118 0.14746 0.0
O436 O 0.58475 0.73832 0.10485 0.0
O437 O 0.61126 0.73214 0.07772 0.0
O438 O 0.57146 0.74336 0.17244 0.0
O439 O 0.63698 0.71296 0.13764 0.0
O440 O 0.61008 0.71623 0.1648 0.0
C441 C 0.5927 0.73435 0.07995 0.0
C442 C 0.62794 0.77383 0.14342 0.0
O443 O 0.61239 0.76689 0.15578 0.0
O444 O 0.63689 0.76399 0.12367 0.0
C445 C 0.5623 0.7595 0.17771 0.0
O446 O 0.56934 0.77622 0.16705 0.0
C447 C 0.62618 0.70708 0.15882 0.0
H448 H 0.34969 0.21083 0.09266 0.0
H449 H 0.36002 0.21572 0.18662 0.0
H450 H 0.32831 0.18207 0.10116 0.0
H451 H 0.33792 0.18725 0.1952 0.0
H452 H 0.26765 0.16814 0.17834 0.0
H453 H 0.2978 0.18841 0.17987 0.0
H454 H 0.32844 0.14469 0.1272 0.0
H455 H 0.29836 0.12399 0.1267 0.0
C456 C 0.3477 0.20546 0.11507 0.0
C457 C 0.35642 0.21546 0.139 0.0
C458 C 0.33558 0.18896 0.1199 0.0
C459 C 0.33156 0.18249 0.14881 0.0
C460 C 0.34095 0.19194 0.17272 0.0
C461 C 0.35357 0.20814 0.1678 0.0
C462 C 0.28108 0.16255 0.16812 0.0
C463 C 0.28088 0.14453 0.15263 0.0
C464 C 0.2983 0.17408 0.16904 0.0
C465 C 0.31538 0.16804 0.15371 0.0
C466 C 0.31546 0.14954 0.13937 0.0
C467 C 0.29835 0.13772 0.13916 0.0
H468 H 0.87126 0.28904 0.18057 0.0
H469 H 0.82758 0.24869 0.14473 0.0
H470 H 0.84696 0.31612 0.17791 0.0
H471 H 0.80345 0.27528 0.14289 0.0
H472 H 0.78873 0.35304 0.19576 0.0
H473 H 0.81562 0.32855 0.1987 0.0
H474 H 0.79732 0.30437 0.11449 0.0
H475 H 0.77033 0.32816 0.11211 0.0
C476 C 0.85649 0.28591 0.17231 0.0
C477 C 0.85145 0.26673 0.16258 0.0
C478 C 0.84255 0.3014 0.17089 0.0
C479 C 0.82332 0.29796 0.15977 0.0
C480 C 0.81825 0.27864 0.15081 0.0
C481 C 0.83211 0.26331 0.15205 0.0
C482 C 0.79062 0.34257 0.17781 0.0
C483 C 0.77721 0.34232 0.15394 0.0
C484 C 0.80605 0.32859 0.17944 0.0
C485 C 0.8084 0.31422 0.15711 0.0
C486 C 0.79561 0.3148 0.13253 0.0
C487 C 0.78016 0.32854 0.13107 0.0
H488 H 0.63826 0.80541 0.10982 0.0
H489 H 0.6398 0.78295 0.19919 0.0
H490 H 0.66191 0.83147 0.12332 0.0
H491 H 0.66416 0.8086 0.21244 0.0
H492 H 0.70051 0.88101 0.16681 0.0
H493 H 0.6691 0.86235 0.16572 0.0
H494 H 0.70124 0.80804 0.1822 0.0
H495 H 0.73254 0.82641 0.18209 0.0
C496 C 0.64312 0.80656 0.13262 0.0
C497 C 0.63718 0.79237 0.15357 0.0
C498 C 0.65661 0.82143 0.14033 0.0
C499 C 0.66478 0.82195 0.16887 0.0
C500 C 0.65789 0.80853 0.19037 0.0
C501 C 0.64393 0.79398 0.18285 0.0
C502 C 0.70075 0.86514 0.17074 0.0
C503 C 0.71888 0.85507 0.17434 0.0
C504 C 0.68285 0.85454 0.17014 0.0
C505 C 0.68285 0.83386 0.17417 0.0
C506 C 0.70088 0.82402 0.17945 0.0
C507 C 0.71875 0.83449 0.17916 0.0
H508 H 0.1845 0.62513 0.12895 0.0
H509 H 0.20773 0.62949 0.21761 0.0
H510 H 0.1573 0.64738 0.14202 0.0
H511 H 0.18071 0.65238 0.23064 0.0
H512 H 0.10959 0.6881 0.17069 0.0
H513 H 0.12706 0.65632 0.17668 0.0
H514 H 0.17947 0.68767 0.20565 0.0
H515 H 0.1623 0.71921 0.19884 0.0
C516 C 0.18326 0.63027 0.15158 0.0
C517 C 0.19805 0.62566 0.17233 0.0
C518 C 0.16768 0.64293 0.15912 0.0
C519 C 0.16695 0.65163 0.18732 0.0
C520 C 0.18091 0.64578 0.20881 0.0
C521 C 0.19628 0.63268 0.20142 0.0
C522 C 0.1246 0.68807 0.17935 0.0
C523 C 0.13473 0.706 0.18408 0.0
C524 C 0.13457 0.66994 0.18273 0.0
C525 C 0.15459 0.66957 0.19162 0.0
C526 C 0.16398 0.68748 0.19912 0.0
C527 C 0.15422 0.70554 0.19504 0.0
H528 H 0.29756 0.87013 0.30538 0.0
H529 H 0.2581 0.82592 0.34208 0.0
H530 H 0.32488 0.8459 0.30669 0.0
H531 H 0.28485 0.80202 0.34272 0.0
H532 H 0.3611 0.7863 0.28823 0.0
H533 H 0.33696 0.81361 0.28539 0.0
H534 H 0.3145 0.79733 0.37157 0.0
H535 H 0.33791 0.77003 0.37397 0.0
C536 C 0.29468 0.85528 0.31349 0.0
C537 C 0.27571 0.85007 0.32402 0.0
C538 C 0.31029 0.84141 0.31417 0.0
C539 C 0.30714 0.82214 0.32535 0.0
C540 C 0.28798 0.81687 0.33478 0.0
C541 C 0.27256 0.83062 0.33426 0.0
C542 C 0.35111 0.78876 0.30664 0.0
C543 C 0.35114 0.77579 0.33107 0.0
C544 C 0.33735 0.80441 0.30505 0.0
C545 C 0.32352 0.80737 0.32797 0.0
C546 C 0.32452 0.79512 0.35313 0.0
C547 C 0.33802 0.77949 0.35456 0.0
H548 H 0.22302 0.3388 0.40979 0.0
H549 H 0.21161 0.35547 0.3191 0.0
H550 H 0.19624 0.3147 0.40766 0.0
H551 H 0.18501 0.33062 0.31653 0.0
H552 H 0.1298 0.28954 0.33186 0.0
H553 H 0.15219 0.31828 0.3341 0.0
H554 H 0.19459 0.28317 0.38331 0.0
H555 H 0.17241 0.25502 0.3817 0.0
C556 C 0.21464 0.3374 0.38942 0.0
C557 C 0.21959 0.3488 0.36448 0.0
C558 C 0.19936 0.3235 0.38812 0.0
C559 C 0.18882 0.32035 0.36168 0.0
C560 C 0.19286 0.33266 0.33722 0.0
C561 C 0.2081 0.34686 0.33866 0.0
C562 C 0.14392 0.28804 0.34314 0.0
C563 C 0.1492 0.27002 0.35685 0.0
C564 C 0.15674 0.30447 0.34436 0.0
C565 C 0.17503 0.30314 0.35934 0.0
C566 C 0.1804 0.28495 0.37232 0.0
C567 C 0.16767 0.26869 0.3712 0.0
H568 H 0.69256 0.11346 0.3431 0.0
H569 H 0.72324 0.16645 0.31499 0.0
H570 H 0.66056 0.13028 0.3354 0.0
H571 H 0.69148 0.18292 0.30636 0.0
H572 H 0.63233 0.20825 0.28742 0.0
H573 H 0.65647 0.18163 0.27809 0.0
H574 H 0.6504 0.16189 0.36852 0.0
H575 H 0.62692 0.18879 0.37796 0.0
C576 C 0.69241 0.1284 0.3342 0.0
C577 C 0.71025 0.13879 0.32984 0.0
C578 C 0.67417 0.13798 0.32982 0.0
C579 C 0.67361 0.15783 0.3202 0.0
C580 C 0.69149 0.16754 0.3134 0.0
C581 C 0.70964 0.15818 0.31854 0.0
C582 C 0.63557 0.19766 0.30483 0.0
C583 C 0.62787 0.20041 0.33336 0.0
C584 C 0.64939 0.18253 0.29955 0.0
C585 C 0.65524 0.16976 0.3226 0.0
C586 C 0.64594 0.17136 0.35029 0.0
C587 C 0.63257 0.18676 0.35573 0.0
H588 H 0.7883 0.63533 0.37752 0.0
H589 H 0.78398 0.63406 0.28229 0.0
H590 H 0.81779 0.65632 0.37405 0.0
H591 H 0.81322 0.65581 0.27884 0.0
H592 H 0.87613 0.68779 0.35716 0.0
H593 H 0.85528 0.65823 0.34963 0.0
H594 H 0.81273 0.69383 0.30173 0.0
H595 H 0.83308 0.72333 0.31024 0.0
C596 C 0.79397 0.63921 0.35584 0.0
C597 C 0.7839 0.6332 0.33017 0.0
C598 C 0.81089 0.65109 0.35386 0.0
C599 C 0.81775 0.65758 0.32619 0.0
C600 C 0.80825 0.65083 0.30039 0.0
C601 C 0.7916 0.63843 0.30237 0.0
C602 C 0.86264 0.68907 0.34422 0.0
C603 C 0.85611 0.70769 0.33423 0.0
C604 C 0.85074 0.67224 0.33999 0.0
C605 C 0.8325 0.67382 0.32499 0.0
C606 C 0.82685 0.69219 0.31299 0.0
C607 C 0.83842 0.70905 0.31794 0.0
H608 H 0.68899 0.86884 0.87478 0.0
H609 H 0.71566 0.86972 0.78809 0.0
H610 H 0.6639 0.84547 0.85735 0.0
H611 H 0.69082 0.84572 0.77073 0.0
H612 H 0.67561 0.77665 0.79379 0.0
H613 H 0.6913 0.80927 0.79353 0.0
H614 H 0.63558 0.83627 0.81814 0.0
H615 H 0.61961 0.80344 0.81744 0.0
C616 C 0.68894 0.86461 0.85165 0.0
C617 C 0.70415 0.871 0.83271 0.0
C618 C 0.67457 0.85129 0.84165 0.0
C619 C 0.67551 0.84375 0.81275 0.0
C620 C 0.68977 0.85141 0.79308 0.0
C621 C 0.70389 0.86516 0.80294 0.0
C622 C 0.66658 0.78963 0.79825 0.0
C623 C 0.64649 0.7876 0.80583 0.0
C624 C 0.67551 0.8083 0.79785 0.0
C625 C 0.66462 0.82526 0.80574 0.0
C626 C 0.64422 0.8234 0.81179 0.0
C627 C 0.63513 0.80468 0.8114 0.0
H628 H 0.13657 0.7073 0.82908 0.0
H629 H 0.1793 0.74512 0.87278 0.0
H630 H 0.16033 0.67966 0.83139 0.0
H631 H 0.20281 0.71807 0.87437 0.0
H632 H 0.23419 0.66398 0.90272 0.0
H633 H 0.20696 0.68752 0.90062 0.0
H634 H 0.19283 0.66806 0.81204 0.0
H635 H 0.21996 0.64378 0.81458 0.0
C636 C 0.15099 0.70975 0.83903 0.0
C637 C 0.15592 0.72838 0.85102 0.0
C638 C 0.16461 0.69396 0.84026 0.0
C639 C 0.18337 0.69655 0.85351 0.0
C640 C 0.18833 0.71533 0.86477 0.0
C641 C 0.17482 0.73095 0.86366 0.0
C642 C 0.22519 0.66455 0.88286 0.0
C643 C 0.22942 0.65224 0.85864 0.0
C644 C 0.2096 0.67813 0.8816 0.0
C645 C 0.19799 0.68003 0.85589 0.0
C646 C 0.2015 0.66698 0.83216 0.0
C647 C 0.21706 0.65313 0.83358 0.0
H648 H 0.37147 0.20881 0.76234 0.0
H649 H 0.36678 0.19002 0.85333 0.0
H650 H 0.35081 0.18055 0.74715 0.0
H651 H 0.34681 0.16163 0.83826 0.0
H652 H 0.28146 0.1626 0.76756 0.0
H653 H 0.31334 0.1795 0.76365 0.0
H654 H 0.34215 0.12963 0.80578 0.0
H655 H 0.31009 0.11241 0.80886 0.0
C656 C 0.36677 0.19813 0.77885 0.0
C657 C 0.37048 0.20155 0.80897 0.0
C658 C 0.35498 0.18202 0.7702 0.0
C659 C 0.34723 0.16893 0.79154 0.0
C660 C 0.35277 0.17131 0.82129 0.0
C661 C 0.36408 0.18762 0.82997 0.0
C662 C 0.29477 0.15489 0.77468 0.0
C663 C 0.29343 0.13633 0.78863 0.0
C664 C 0.31304 0.16449 0.77232 0.0
C665 C 0.33017 0.1559 0.7846 0.0
C666 C 0.32913 0.13651 0.79608 0.0
C667 C 0.31085 0.12667 0.79778 0.0
H668 H 0.86279 0.31499 0.88821 0.0
H669 H 0.86868 0.29517 0.79795 0.0
H670 H 0.84262 0.34297 0.87178 0.0
H671 H 0.84778 0.32298 0.78141 0.0
H672 H 0.77803 0.3411 0.80009 0.0
H673 H 0.80989 0.32397 0.79772 0.0
H674 H 0.83858 0.37467 0.8374 0.0
H675 H 0.80659 0.39213 0.83889 0.0
C676 C 0.86027 0.31706 0.86473 0.0
C677 C 0.86711 0.30299 0.84431 0.0
C678 C 0.84886 0.33313 0.85527 0.0
C679 C 0.84365 0.3351 0.82532 0.0
C680 C 0.85173 0.32182 0.80458 0.0
C681 C 0.86364 0.30597 0.81401 0.0
C682 C 0.79131 0.34891 0.80702 0.0
C683 C 0.78996 0.36781 0.81982 0.0
C684 C 0.80956 0.33917 0.80553 0.0
C685 C 0.82664 0.34799 0.81753 0.0
C686 C 0.8256 0.36763 0.82791 0.0
C687 C 0.80736 0.3776 0.82871 0.0
H688 H 0.6351 0.21449 0.67011 0.0
H689 H 0.67846 0.24562 0.617 0.0
H690 H 0.65754 0.18586 0.67314 0.0
H691 H 0.70076 0.21762 0.62069 0.0
H692 H 0.73083 0.16065 0.60653 0.0
H693 H 0.7041 0.18469 0.6026 0.0
H694 H 0.68942 0.17516 0.69459 0.0
H695 H 0.71595 0.15028 0.69814 0.0
C696 C 0.64937 0.21524 0.65912 0.0
C697 C 0.6549 0.23232 0.64315 0.0
C698 C 0.66225 0.19889 0.66098 0.0
C699 C 0.68087 0.19932 0.64687 0.0
C700 C 0.68636 0.2165 0.6312 0.0
C701 C 0.67356 0.23269 0.62926 0.0
C702 C 0.72175 0.16349 0.62585 0.0
C703 C 0.72566 0.15383 0.65277 0.0
C704 C 0.70648 0.17736 0.62365 0.0
C705 C 0.69491 0.18226 0.64847 0.0
C706 C 0.69804 0.17175 0.67504 0.0
C707 C 0.71325 0.15755 0.67712 0.0
H708 H 0.78848 0.63543 0.69899 0.0
H709 H 0.81185 0.64177 0.61064 0.0
H710 H 0.81342 0.65905 0.71725 0.0
H711 H 0.83713 0.66468 0.62898 0.0
H712 H 0.8844 0.70194 0.67388 0.0
H713 H 0.86725 0.66983 0.66985 0.0
H714 H 0.81247 0.69766 0.69687 0.0
H715 H 0.82934 0.7297 0.69976 0.0
C716 C 0.79949 0.6412 0.68378 0.0
C717 C 0.79829 0.63693 0.65344 0.0
C718 C 0.81368 0.6547 0.69419 0.0
C719 C 0.82715 0.66358 0.67448 0.0
C720 C 0.82706 0.65784 0.64465 0.0
C721 C 0.81257 0.64483 0.63414 0.0
C722 C 0.86884 0.70099 0.67979 0.0
C723 C 0.8581 0.71819 0.68698 0.0
C724 C 0.85907 0.6827 0.67746 0.0
C725 C 0.83861 0.68134 0.68322 0.0
C726 C 0.8283 0.69828 0.69272 0.0
C727 C 0.8379 0.7166 0.6942 0.0
H728 H 0.29577 0.85424 0.59421 0.0
H729 H 0.28632 0.86744 0.68655 0.0
H730 H 0.32573 0.83567 0.60685 0.0
H731 H 0.31612 0.84816 0.69936 0.0
H732 H 0.33835 0.77844 0.68934 0.0
H733 H 0.31818 0.80858 0.6894 0.0
H734 H 0.36141 0.83759 0.63372 0.0
H735 H 0.38199 0.80748 0.63457 0.0
C736 C 0.3004 0.85352 0.61715 0.0
C737 C 0.28874 0.86211 0.63943 0.0
C738 C 0.31761 0.84305 0.62436 0.0
C739 C 0.32322 0.84057 0.65406 0.0
C740 C 0.31214 0.85002 0.6763 0.0
C741 C 0.29515 0.861 0.66897 0.0
C742 C 0.34397 0.7916 0.67836 0.0
C743 C 0.36166 0.79079 0.66207 0.0
C744 C 0.33247 0.80884 0.67842 0.0
C745 C 0.33824 0.82533 0.66147 0.0
C746 C 0.35674 0.82506 0.64706 0.0
C747 C 0.36852 0.80792 0.64765 0.0
H748 H 0.11534 0.31411 0.66624 0.0
H749 H 0.16587 0.2814 0.69906 0.0
H750 H 0.13381 0.3453 0.67249 0.0
H751 H 0.18397 0.31238 0.70626 0.0
H752 H 0.19478 0.37309 0.62866 0.0
H753 H 0.16627 0.352 0.63968 0.0
H754 H 0.18476 0.34845 0.731 0.0
H755 H 0.21307 0.37024 0.72003 0.0
C756 C 0.13005 0.31371 0.67596 0.0
C757 C 0.13933 0.29549 0.68203 0.0
C758 C 0.14057 0.33148 0.67951 0.0
C759 C 0.16025 0.3312 0.68994 0.0
C760 C 0.16874 0.31305 0.69858 0.0
C761 C 0.15846 0.29533 0.69428 0.0
C762 C 0.19223 0.3685 0.65133 0.0
C763 C 0.20601 0.37316 0.67351 0.0
C764 C 0.17588 0.35654 0.65768 0.0
C765 C 0.17338 0.3486 0.68617 0.0
C766 C 0.18635 0.35451 0.70891 0.0
C767 C 0.20246 0.36696 0.70268 0.0
H768 H 0.25381 0.07312 0.06243 0.0
H769 H 0.19768 0.09948 0.03824 0.0
H770 H 0.25937 0.06381 0.01062 0.0
H771 H 0.20289 0.08969 0.98692 0.0
H772 H 0.2689 0.10301 0.92009 0.0
H773 H 0.26425 0.09307 0.97151 0.0
H774 H 0.21095 0.0614 0.94731 0.0
H775 H 0.21606 0.07087 0.89534 0.0
C776 C 0.24228 0.07607 0.04629 0.0
C777 C 0.22542 0.08716 0.05406 0.0
C778 C 0.24546 0.07077 0.01673 0.0
C779 C 0.23157 0.07608 0.99487 0.0
C780 C 0.21373 0.08523 0.00337 0.0
C781 C 0.21079 0.09094 0.03267 0.0
C782 C 0.25664 0.09327 0.92562 0.0
C783 C 0.24277 0.08776 0.90402 0.0
C784 C 0.25405 0.08746 0.95497 0.0
C785 C 0.23724 0.07648 0.9633 0.0
C786 C 0.22409 0.06975 0.94132 0.0
C787 C 0.22701 0.07515 0.91171 0.0
H788 H 0.90975 0.2698 0.96648 0.0
H789 H 0.93893 0.21803 0.93116 0.0
H790 H 0.92311 0.26256 0.01522 0.0
H791 H 0.95223 0.21037 0.98052 0.0
H792 H 0.91938 0.19035 0.07121 0.0
H793 H 0.92967 0.19874 0.02128 0.0
H794 H 0.95023 0.25588 0.05182 0.0
H795 H 0.93986 0.2474 0.10208 0.0
C796 C 0.91971 0.25726 0.96906 0.0
C797 C 0.92323 0.24435 0.94538 0.0
C798 C 0.92752 0.25316 0.99694 0.0
C799 C 0.93862 0.23578 0.0018 0.0
C800 C 0.9437 0.22385 0.97739 0.0
C801 C 0.93614 0.22821 0.94922 0.0
C802 C 0.92688 0.20436 0.06751 0.0
C803 C 0.92833 0.21844 0.09029 0.0
C804 C 0.93296 0.20913 0.03888 0.0
C805 C 0.94035 0.22816 0.03251 0.0
C806 C 0.94433 0.24119 0.05608 0.0
C807 C 0.93843 0.23632 0.08488 0.0
H808 H 0.78841 0.93771 0.93229 0.0
H809 H 0.7294 0.91884 0.95606 0.0
H810 H 0.79499 0.94645 0.98401 0.0
H811 H 0.73571 0.92768 0.00739 0.0
H812 H 0.80278 0.90491 0.07012 0.0
H813 H 0.79848 0.91844 0.02069 0.0
H814 H 0.74617 0.95003 0.04968 0.0
H815 H 0.75072 0.93656 0.09966 0.0
C816 C 0.77651 0.93651 0.94832 0.0
C817 C 0.75843 0.92764 0.94049 0.0
C818 C 0.78029 0.94138 0.97788 0.0
C819 C 0.76596 0.93751 -0.0002 0.0
C820 C 0.74701 0.931 0.99108 0.0
C821 C 0.74337 0.92589 0.96168 0.0
C822 C 0.79079 0.91532 0.0662 0.0
C823 C 0.7769 0.91945 0.08847 0.0
C824 C 0.78841 0.92326 0.03793 0.0
C825 C 0.77187 0.93518 0.03122 0.0
C826 C 0.75901 0.94083 0.05425 0.0
C827 C 0.76162 0.93315 0.08281 0.0
H828 H 0.08892 0.8063 0.94276 0.0
H829 H 0.06992 0.74867 0.91216 0.0
H830 H 0.07756 0.79822 0.9924 0.0
H831 H 0.05872 0.74045 0.96216 0.0
H832 H 0.09558 0.72917 0.05273 0.0
H833 H 0.08526 0.73534 0.00197 0.0
H834 H 0.05185 0.78657 0.0306 0.0
H835 H 0.06192 0.77999 0.0819 0.0
C836 C 0.08158 0.7922 0.94642 0.0
C837 C 0.08066 0.77797 0.92381 0.0
C838 C 0.07492 0.78761 0.97484 0.0
C839 C 0.06753 0.76858 0.98122 0.0
C840 C 0.06448 0.75518 0.95783 0.0
C841 C 0.07086 0.75991 0.92921 0.0
C842 C 0.08534 0.74124 0.04832 0.0
C843 C 0.07965 0.7542 0.07101 0.0
C844 C 0.0793 0.74472 0.01927 0.0
C845 C 0.06784 0.76153 0.01229 0.0
C846 C 0.06067 0.77351 0.03542 0.0
C847 C 0.06638 0.76973 0.06471 0.0
H848 H 0.25822 0.92425 0.40605 0.0
H849 H 0.19519 0.93373 0.39782 0.0
H850 H 0.25649 0.93253 0.45844 0.0
H851 H 0.19342 0.94295 0.44994 0.0
H852 H 0.24883 0.93598 0.55501 0.0
H853 H 0.24846 0.95021 0.50491 0.0
H854 H 0.19596 0.91582 0.48481 0.0
H855 H 0.1965 0.90182 0.53411 0.0
C856 C 0.24424 0.92941 0.41508 0.0
C857 C 0.22681 0.92823 0.39822 0.0
C858 C 0.2432 0.93416 0.44515 0.0
C859 C 0.22469 0.93781 0.45855 0.0
C860 C 0.20782 0.93974 0.44038 0.0
C861 C 0.20882 0.93465 0.41049 0.0
C862 C 0.23687 0.9321 0.54005 0.0
C863 C 0.22284 0.91765 0.5481 0.0
C864 C 0.23669 0.94016 0.51142 0.0
C865 C 0.22225 0.93412 0.49077 0.0
C866 C 0.20717 0.92108 0.50009 0.0
C867 C 0.20756 0.91285 0.52832 0.0
H868 H 0.0615 0.22192 0.58823 0.0
H869 H 0.0978 0.26908 0.5529 0.0
H870 H 0.04822 0.2155 0.53852 0.0
H871 H 0.08431 0.26313 0.50381 0.0
H872 H 0.06479 0.25059 0.41717 0.0
H873 H 0.05523 0.25985 0.46747 0.0
H874 H 0.07102 0.20118 0.49806 0.0
H875 H 0.08078 0.19208 0.44811 0.0
C876 C 0.06597 0.23143 0.57006 0.0
C877 C 0.08083 0.24579 0.57408 0.0
C878 C 0.05838 0.22778 0.54172 0.0
C879 C 0.06525 0.23878 0.51731 0.0
C880 C 0.07852 0.25455 0.52217 0.0
C881 C 0.08641 0.25785 0.55022 0.0
C882 C 0.06526 0.23939 0.43437 0.0
C883 C 0.07395 0.22078 0.42902 0.0
C884 C 0.05983 0.24471 0.46316 0.0
C885 C 0.06276 0.23136 0.48672 0.0
C886 C 0.06857 0.21179 0.4804 0.0
C887 C 0.07429 0.20659 0.45179 0.0
H888 H 0.75094 0.07238 0.60073 0.0
H889 H 0.81044 0.08771 0.57355 0.0
H890 H 0.7431 0.06256 0.55003 0.0
H891 H 0.80271 0.07764 0.52316 0.0
H892 H 0.78367 0.06545 0.43162 0.0
H893 H 0.78917 0.05386 0.48256 0.0
H894 H 0.74134 0.09152 0.51252 0.0
H895 H 0.73633 0.10338 0.4622 0.0
C896 C 0.76266 0.07264 0.58432 0.0
C897 C 0.78116 0.08122 0.59083 0.0
C898 C 0.75813 0.06708 0.55528 0.0
C899 C 0.77218 0.06971 0.53261 0.0
C900 C 0.79158 0.07544 0.54015 0.0
C901 C 0.796 0.0813 0.56901 0.0
C902 C 0.77395 0.07066 0.44905 0.0
C903 C 0.75973 0.08542 0.44326 0.0
C904 C 0.77708 0.06405 0.47809 0.0
C905 C 0.76567 0.07176 0.50145 0.0
C906 C 0.75019 0.08508 0.49497 0.0
C907 C 0.74742 0.09203 0.46622 0.0
H908 H 0.92939 0.7489 0.60281 0.0
H909 H 0.90144 0.80404 0.57765 0.0
H910 H 0.93842 0.74296 0.55099 0.0
H911 H 0.91094 0.79847 0.52629 0.0
H912 H 0.9287 0.78481 0.43461 0.0
H913 H 0.93865 0.79081 0.48616 0.0
H914 H 0.90933 0.73663 0.51253 0.0
H915 H 0.89892 0.7311 0.46149 0.0
C916 C 0.92606 0.76018 0.58643 0.0
C917 C 0.9146 0.77684 0.594 0.0
C918 C 0.93117 0.75677 0.55685 0.0
C919 C 0.92531 0.77023 0.53469 0.0
C920 C 0.91583 0.78795 0.54293 0.0
C921 C 0.91031 0.79111 0.57228 0.0
C922 C 0.92512 0.77385 0.45134 0.0
C923 C 0.91307 0.75753 0.44436 0.0
C924 C 0.93076 0.77729 0.48073 0.0
C925 C 0.92478 0.76416 0.50324 0.0
C926 C 0.91439 0.74684 0.49559 0.0
C927 C 0.90834 0.7437 0.46645 0.0
H928 H 0.7716 0.58474 0.53265 0.0
H929 H 0.71674 0.56041 0.56571 0.0
H930 H 0.76454 0.57134 0.48389 0.0
H931 H 0.7093 0.5471 0.51642 0.0
H932 H 0.69399 0.58249 0.42573 0.0
H933 H 0.70054 0.57099 0.47571 0.0
H934 H 0.75586 0.5451 0.44663 0.0
H935 H 0.74913 0.55658 0.39623 0.0
C936 C 0.75845 0.57568 0.52968 0.0
C937 C 0.74466 0.57363 0.55264 0.0
C938 C 0.75441 0.56788 0.50178 0.0
C939 C 0.73622 0.55833 0.4962 0.0
C940 C 0.72339 0.55444 0.52009 0.0
C941 C 0.72765 0.56198 0.54826 0.0
C942 C 0.70709 0.57352 0.42974 0.0
C943 C 0.72127 0.57079 0.40737 0.0
C944 C 0.71081 0.56678 0.45839 0.0
C945 C 0.72894 0.55749 0.46523 0.0
C946 C 0.74187 0.55241 0.442 0.0
C947 C 0.73799 0.55893 0.41314 0.0
H948 H 0.4159 0.69138 0.42091 0.0
H949 H 0.42901 0.75233 0.39899 0.0
H950 H 0.42451 0.69769 0.47237 0.0
H951 H 0.43731 0.7588 0.45082 0.0
H952 H 0.43531 0.71458 0.56617 0.0
H953 H 0.44725 0.71086 0.515 0.0
H954 H 0.40752 0.75766 0.48718 0.0
H955 H 0.39532 0.76084 0.53762 0.0
C956 C 0.42157 0.70588 0.42689 0.0
C957 C 0.42155 0.72144 0.40618 0.0
C958 C 0.42657 0.7095 0.45636 0.0
C959 C 0.43124 0.72883 0.46564 0.0
C960 C 0.43365 0.74379 0.4442 0.0
C961 C 0.429 0.74007 0.41453 0.0
C962 C 0.42964 0.72439 0.54914 0.0
C963 C 0.4143 0.73784 0.55553 0.0
C964 C 0.43646 0.7223 0.52 0.0
C965 C 0.42839 0.73405 0.49718 0.0
C966 C 0.41426 0.74862 0.50431 0.0
C967 C 0.40712 0.75032 0.53311 0.0
H968 H 0.25444 0.43627 0.42226 0.0
H969 H 0.30877 0.40712 0.44851 0.0
H970 H 0.25213 0.45159 0.47121 0.0
H971 H 0.30643 0.42195 0.49704 0.0
H972 H 0.29861 0.43727 0.58601 0.0
H973 H 0.30408 0.44695 0.53442 0.0
H974 H 0.24275 0.43318 0.5148 0.0
H975 H 0.23746 0.42411 0.56614 0.0
C976 C 0.26626 0.43374 0.43808 0.0
C977 C 0.28149 0.4201 0.43196 0.0
C978 C 0.26491 0.44244 0.46616 0.0
C979 C 0.27883 0.43767 0.48836 0.0
C980 C 0.29541 0.42607 0.48068 0.0
C981 C 0.29668 0.41733 0.45284 0.0
C982 C 0.28612 0.43746 0.57088 0.0
C983 C 0.26765 0.42996 0.57973 0.0
C984 C 0.28925 0.44281 0.54131 0.0
C985 C 0.27401 0.44035 0.52024 0.0
C986 C 0.25486 0.43536 0.53024 0.0
C987 C 0.25177 0.43008 0.55972 0.0
H988 H 0.5924 0.31114 0.54666 0.0
H989 H 0.56319 0.25988 0.58406 0.0
H990 H 0.57642 0.30497 0.49957 0.0
H991 H 0.54692 0.25366 0.53655 0.0
H992 H 0.57394 0.23207 0.44352 0.0
H993 H 0.5655 0.24091 0.49399 0.0
H994 H 0.54914 0.29983 0.46481 0.0
H995 H 0.55786 0.29076 0.41402 0.0
C996 C 0.582 0.29891 0.54505 0.0
C997 C 0.57946 0.28568 0.56874 0.0
C998 C 0.5726 0.29548 0.51807 0.0
C999 C 0.5606 0.2786 0.51411 0.0
C1000 C 0.55627 0.26665 0.53884 0.0
C1001 C 0.56557 0.27022 0.56604 0.0
C1002 C 0.56742 0.24651 0.4477 0.0
C1003 C 0.5666 0.26078 0.42516 0.0
C1004 C 0.56254 0.25164 0.47667 0.0
C1005 C 0.5571 0.27126 0.48356 0.0
C1006 C 0.55358 0.28468 0.46021 0.0
C1007 C 0.55839 0.27947 0.43112 0.0
H1008 H 0.76504 0.40068 0.94802 0.0
H1009 H 0.71475 0.43705 0.92425 0.0
H1010 H 0.76149 0.41056 -0.00052 0.0
H1011 H 0.71075 0.44666 0.97636 0.0
H1012 H 0.75345 0.42551 0.09027 0.0
H1013 H 0.7595 0.43742 0.03987 0.0
H1014 H 0.69985 0.42067 0.01529 0.0
H1015 H 0.69398 0.40854 0.06524 0.0
C1016 C 0.75361 0.41133 0.95379 0.0
C1017 C 0.74005 0.418 0.93245 0.0
C1018 C 0.75167 0.41715 0.9832 0.0
C1019 C 0.73581 0.42936 0.99194 0.0
C1020 C 0.72315 0.4373 0.97014 0.0
C1021 C 0.72541 0.43182 0.94044 0.0
C1022 C 0.74137 0.42525 0.07443 0.0
C1023 C 0.72339 0.41578 0.08133 0.0
C1024 C 0.74485 0.43202 0.04561 0.0
C1025 C 0.73024 0.4297 0.02361 0.0
C1026 C 0.71136 0.42274 0.03176 0.0
C1027 C 0.70803 0.41566 0.06033 0.0
H1028 H 0.57872 0.7006 0.05554 0.0
H1029 H 0.58246 0.76384 0.04242 0.0
H1030 H 0.57245 0.69601 0.00271 0.0
H1031 H 0.57661 0.7594 0.98955 0.0
H1032 H 0.57186 0.74692 0.89307 0.0
H1033 H 0.55891 0.74743 0.94389 0.0
H1034 H 0.6001 0.70089 0.96784 0.0
H1035 H 0.61294 0.70056 0.91774 0.0
C1036 C 0.57713 0.71357 0.04153 0.0
C1037 C 0.58092 0.73255 0.05283 0.0
C1038 C 0.57374 0.71097 0.01128 0.0
C1039 C 0.57445 0.72731 0.99188 0.0
C1040 C 0.57586 0.74652 0.00387 0.0
C1041 C 0.57918 0.7491 0.03417 0.0
C1042 C 0.57766 0.73644 0.9091 0.0
C1043 C 0.59355 0.72386 0.90169 0.0
C1044 C 0.57031 0.73677 0.93813 0.0
C1045 C 0.57847 0.72422 0.9599 0.0
C1046 C 0.59325 0.71057 0.95162 0.0
C1047 C 0.60078 0.71049 0.92294 0.0
H1048 H 0.22875 0.57825 0.05114 0.0
H1049 H 0.28499 0.5568 0.08363 0.0
H1050 H 0.23806 0.56921 0.00109 0.0
H1051 H 0.29461 0.54772 0.03313 0.0
H1052 H 0.31034 0.5896 0.95025 0.0
H1053 H 0.30258 0.57452 -0.00242 0.0
H1054 H 0.24985 0.54815 0.9599 0.0
H1055 H 0.25768 0.56343 0.91221 0.0
C1056 C 0.24271 0.5706 0.04764 0.0
C1057 C 0.25621 0.56828 0.07099 0.0
C1058 C 0.24808 0.56533 0.01893 0.0
C1059 C 0.26725 0.55806 0.01302 0.0
C1060 C 0.27982 0.55347 0.03701 0.0
C1061 C 0.27428 0.55852 0.0659 0.0
C1062 C 0.29748 0.57999 0.95175 0.0
C1063 C 0.28433 0.57814 0.9278 0.0
C1064 C 0.29311 0.57113 0.97888 0.0
C1065 C 0.27537 0.56042 0.98267 0.0
C1066 C 0.2635 0.55653 0.95771 0.0
C1067 C 0.26801 0.56526 0.93039 0.0
H1068 H 0.41755 0.23331 0.92406 0.0
H1069 H 0.43282 0.29335 0.90026 0.0
H1070 H 0.42742 0.2396 0.97491 0.0
H1071 H 0.44284 0.29989 0.9515 0.0
H1072 H 0.43582 0.25311 0.06643 0.0
H1073 H 0.44918 0.2499 0.01627 0.0
H1074 H 0.41723 0.30275 0.99013 0.0
H1075 H 0.40405 0.30586 0.03981 0.0
C1076 C 0.42401 0.24757 0.92955 0.0
C1077 C 0.42443 0.26287 0.90855 0.0
C1078 C 0.42976 0.25121 0.95867 0.0
C1079 C 0.43565 0.27036 0.96738 0.0
C1080 C 0.43821 0.28504 0.94548 0.0
C1081 C 0.43259 0.2813 0.91617 0.0
C1082 C 0.43238 0.26447 0.05022 0.0
C1083 C 0.41858 0.27948 0.05668 0.0
C1084 C 0.43997 0.2626 0.0215 0.0
C1085 C 0.43401 0.27587 -0.00091 0.0
C1086 C 0.42223 0.2923 0.00678 0.0
C1087 C 0.41449 0.294 0.03525 0.0
H1088 H 0.2256 0.04205 0.19305 0.0
H1089 H 0.28948 0.0482 0.1949 0.0
H1090 H 0.22836 0.01023 0.21832 0.0
H1091 H 0.29219 0.01618 0.22021 0.0
H1092 H 0.28294 0.97033 0.29781 0.0
H1093 H 0.28318 0.00124 0.26944 0.0
H1094 H 0.24097 0.97624 0.20797 0.0
H1095 H 0.24061 0.94544 0.23625 0.0
C1096 C 0.24025 0.03662 0.19882 0.0
C1097 C 0.25732 0.04769 0.19193 0.0
C1098 C 0.24183 0.0183 0.21311 0.0
C1099 C 0.2605 0.01063 0.22107 0.0
C1100 C 0.27759 0.02175 0.21445 0.0
C1101 C 0.27603 0.04005 0.19987 0.0
C1102 C 0.27391 0.97133 0.27802 0.0
C1103 C 0.26163 0.95545 0.26947 0.0
C1104 C 0.2741 0.98902 0.26173 0.0
C1105 C 0.26192 0.99125 0.23668 0.0
C1106 C 0.25027 0.97509 0.22746 0.0
C1107 C 0.25018 0.95738 0.24359 0.0
H1108 H 0.94437 0.24761 0.25521 0.0
H1109 H 0.97653 0.26776 0.17811 0.0
H1110 H 0.97445 0.25076 0.28487 0.0
H1111 H 0.0066 0.27101 0.20792 0.0
H1112 H 0.05888 0.24285 0.262 0.0
H1113 H 0.02904 0.24644 0.23188 0.0
H1114 H 0.99907 0.2747 0.305 0.0
H1115 H 0.02888 0.27103 0.33527 0.0
C1116 C 0.95777 0.253 0.24467 0.0
C1117 C 0.95807 0.25728 0.21422 0.0
C1118 C 0.97499 0.25491 0.26172 0.0
C1119 C 0.99293 0.26101 0.24869 0.0
C1120 C 0.99305 0.26604 0.2185 0.0
C1121 C 0.97578 0.26428 0.20148 0.0
C1122 C 0.04602 0.25005 0.27156 0.0
C1123 C 0.04624 0.25651 0.30112 0.0
C1124 C 0.02895 0.25222 0.25423 0.0
C1125 C 0.01166 0.26077 0.26612 0.0
C1126 C 0.01209 0.26785 0.29534 0.0
C1127 C 0.02922 0.26583 0.31262 0.0
H1128 H 0.70845 0.04151 0.30119 0.0
H1129 H 0.77259 0.04266 0.29752 0.0
H1130 H 0.70836 0.01055 0.27301 0.0
H1131 H 0.77242 0.01195 0.26928 0.0
H1132 H 0.76618 0.94644 0.24903 0.0
H1133 H 0.76423 0.97668 0.27821 0.0
H1134 H 0.71687 0.99818 0.22221 0.0
H1135 H 0.71866 0.96772 0.19294 0.0
C1136 C 0.72251 0.03519 0.29435 0.0
C1137 C 0.74053 0.04451 0.30169 0.0
C1138 C 0.72243 0.01753 0.2781 0.0
C1139 C 0.74038 0.00878 0.26909 0.0
C1140 C 0.75836 0.01818 0.2763 0.0
C1141 C 0.75844 0.03585 0.29234 0.0
C1142 C 0.75524 0.95753 0.24297 0.0
C1143 C 0.74265 0.95471 0.21852 0.0
C1144 C 0.75422 0.97491 0.25963 0.0
C1145 C 0.74053 0.98987 0.25232 0.0
C1146 C 0.7275 0.98685 0.22843 0.0
C1147 C 0.72859 0.96945 0.21162 0.0
H1148 H 0.04286 0.76829 0.22676 0.0
H1149 H 0.03416 0.70625 0.20625 0.0
H1150 H 0.0137 0.76763 0.25856 0.0
H1151 H 0.00474 0.7057 0.23776 0.0
H1152 H 0.96541 0.70806 0.32132 0.0
H1153 H 0.995 0.70802 0.29007 0.0
H1154 H 0.97778 0.76483 0.25375 0.0
H1155 H 0.94849 0.76506 0.28519 0.0
C1156 C 0.0347 0.75451 0.22896 0.0
C1157 C 0.04083 0.73733 0.2139 0.0
C1158 C 0.01791 0.75417 0.24708 0.0
C1159 C 0.00684 0.73663 0.25061 0.0
C1160 C 0.01305 0.7194 0.23574 0.0
C1161 C 0.02985 0.71975 0.21754 0.0
C1162 C 0.96795 0.72053 0.30666 0.0
C1163 C 0.95461 0.73658 0.30584 0.0
C1164 C 0.98485 0.72046 0.28865 0.0
C1165 C 0.98878 0.73645 0.2695 0.0
C1166 C 0.97536 0.75242 0.26858 0.0
C1167 C 0.95848 0.75249 0.28651 0.0
H1168 H 0.70756 0.96665 0.79627 0.0
H1169 H 0.77172 0.96499 0.79527 0.0
H1170 H 0.70819 0.998 0.76901 0.0
H1171 H 0.77229 0.99624 0.76801 0.0
H1172 H 0.76623 0.06246 0.7493 0.0
H1173 H 0.76383 0.03174 0.77763 0.0
H1174 H 0.71785 0.01085 0.71879 0.0
H1175 H 0.72017 0.04165 0.69036 0.0
C1176 C 0.72179 0.97293 0.79018 0.0
C1177 C 0.73959 0.96333 0.798 0.0
C1178 C 0.72213 0.99085 0.77448 0.0
C1179 C 0.74028 0.99964 0.76653 0.0
C1180 C 0.75807 0.98997 0.77419 0.0
C1181 C 0.75773 0.97199 0.78963 0.0
C1182 C 0.75546 0.05142 0.74252 0.0
C1183 C 0.74345 0.05449 0.71746 0.0
C1184 C 0.7542 0.03376 0.75864 0.0
C1185 C 0.74078 0.01881 0.75027 0.0
C1186 C 0.72828 0.02214 0.72585 0.0
C1187 C 0.72965 0.03976 0.70953 0.0
H1188 H 0.94717 0.76022 0.75951 0.0
H1189 H 0.97461 0.73374 0.6827 0.0
H1190 H 0.97814 0.75641 0.78694 0.0
H1191 H 0.00559 0.72988 0.71027 0.0
H1192 H 0.06224 0.75369 0.75902 0.0
H1193 H 0.03134 0.75268 0.73083 0.0
H1194 H 0.00046 0.73035 0.80765 0.0
H1195 H 0.0313 0.73141 0.83595 0.0
C1196 C 0.95976 0.75347 0.74853 0.0
C1197 C 0.95842 0.74736 0.71887 0.0
C1198 C 0.97747 0.75116 0.76432 0.0
C1199 C 0.99431 0.74283 0.75076 0.0
C1200 C 0.99291 0.73649 0.72123 0.0
C1201 C 0.97513 0.73863 0.7055 0.0
C1202 C 0.04892 0.74831 0.76981 0.0
C1203 C 0.04923 0.74276 0.79981 0.0
C1204 C 0.03123 0.74766 0.7536 0.0
C1205 C 0.01343 0.74159 0.7671 0.0
C1206 C 0.01389 0.73535 0.79677 0.0
C1207 C 0.0316 0.73584 0.81291 0.0
H1208 H 0.28498 0.96155 0.66945 0.0
H1209 H 0.22636 0.94911 0.7037 0.0
H1210 H 0.28627 0.99184 0.699 0.0
H1211 H 0.2278 0.97917 0.73341 0.0
H1212 H 0.22759 0.04573 0.75269 0.0
H1213 H 0.22731 0.01508 0.72429 0.0
H1214 H 0.28774 0.00317 0.75113 0.0
H1215 H 0.28816 0.03407 0.77936 0.0
C1216 C 0.27243 0.9652 0.68339 0.0
C1217 C 0.25553 0.95297 0.6841 0.0
C1218 C 0.27322 0.9825 0.70042 0.0
C1219 C 0.25709 0.98793 0.7184 0.0
C1220 C 0.24033 0.97553 0.71943 0.0
C1221 C 0.23957 0.95824 0.7025 0.0
C1222 C 0.24084 0.0366 0.75257 0.0
C1223 C 0.2579 0.04234 0.76832 0.0
C1224 C 0.24063 0.01897 0.73642 0.0
C1225 C 0.25748 0.00668 0.73557 0.0
C1226 C 0.27459 0.01244 0.75117 0.0
C1227 C 0.27478 0.03007 0.76745 0.0
H1228 H 0.94359 0.24769 0.77316 0.0
H1229 H 0.98019 0.27605 0.83938 0.0
H1230 H 0.97141 0.24819 0.73863 0.0
H1231 H 0.008 0.27651 0.80472 0.0
H1232 H 0.0576 0.24885 0.74639 0.0
H1233 H 0.02969 0.25047 0.78065 0.0
H1234 H 0.99228 0.27331 0.71083 0.0
H1235 H 0.02021 0.27172 0.67641 0.0
C1236 C 0.95755 0.25407 0.78033 0.0
C1237 C 0.95972 0.26178 0.80904 0.0
C1238 C 0.97342 0.25446 0.76048 0.0
C1239 C 0.99183 0.26238 0.76904 0.0
C1240 C 0.99399 0.27018 0.79766 0.0
C1241 C 0.97806 0.26999 0.81743 0.0
C1242 C 0.04344 0.25427 0.73833 0.0
C1243 C 0.04108 0.26011 0.70867 0.0
C1244 C 0.02752 0.2553 0.75801 0.0
C1245 C 0.00886 0.26202 0.74836 0.0
C1246 C 0.00649 0.26794 0.71876 0.0
C1247 C 0.02249 0.26711 0.69912 0.0
H1248 H 0.73396 0.55231 0.71477 0.0
H1249 H 0.79212 0.53394 0.68498 0.0
H1250 H 0.733 0.52432 0.74886 0.0
H1251 H 0.79096 0.50569 0.71884 0.0
H1252 H 0.78932 0.46818 0.8038 0.0
H1253 H 0.79114 0.4974 0.77189 0.0
H1254 H 0.73012 0.4883 0.74561 0.0
H1255 H 0.72818 0.45937 0.77774 0.0
C1256 C 0.74655 0.5423 0.71548 0.0
C1257 C 0.76309 0.54532 0.69706 0.0
C1258 C 0.74594 0.5262 0.73493 0.0
C1259 C 0.76185 0.51273 0.73644 0.0
C1260 C 0.77855 0.51592 0.71839 0.0
C1261 C 0.77916 0.53204 0.69887 0.0
C1262 C 0.77628 0.47246 0.79129 0.0
C1263 C 0.7586 0.46145 0.79334 0.0
C1264 C 0.77736 0.48914 0.77289 0.0
C1265 C 0.76077 0.49518 0.75625 0.0
C1266 C 0.74309 0.48421 0.75845 0.0
C1267 C 0.74201 0.46754 0.77676 0.0
H1268 H 0.55435 0.72982 0.74781 0.0
H1269 H 0.54047 0.78519 0.7914 0.0
H1270 H 0.52314 0.73157 0.72083 0.0
H1271 H 0.509 0.78677 0.76451 0.0
H1272 H 0.46416 0.79134 0.68652 0.0
H1273 H 0.49563 0.79099 0.71354 0.0
H1274 H 0.48769 0.72861 0.73235 0.0
H1275 H 0.45651 0.72885 0.70519 0.0
C1276 C 0.54465 0.74238 0.75165 0.0
C1277 C 0.54989 0.75734 0.77186 0.0
C1278 C 0.52669 0.74332 0.73629 0.0
C1279 C 0.51354 0.75924 0.74069 0.0
C1280 C 0.51889 0.77439 0.76051 0.0
C1281 C 0.53687 0.77342 0.776 0.0
C1282 C 0.46913 0.77756 0.69647 0.0
C1283 C 0.45787 0.7601 0.69357 0.0
C1284 C 0.4871 0.7774 0.71206 0.0
C1285 C 0.49419 0.75975 0.72492 0.0
C1286 C 0.48279 0.74238 0.7223 0.0
C1287 C 0.46484 0.74255 0.70685 0.0
H1288 H 0.21146 0.46679 0.71726 0.0
H1289 H 0.27513 0.462 0.72729 0.0
H1290 H 0.21193 0.49806 0.74469 0.0
H1291 H 0.27552 0.49315 0.75462 0.0
H1292 H 0.27165 0.55972 0.77022 0.0
H1293 H 0.26909 0.52896 0.74226 0.0
H1294 H 0.21961 0.51065 0.79648 0.0
H1295 H 0.22211 0.54153 0.82465 0.0
C1296 C 0.22553 0.47235 0.7254 0.0
C1297 C 0.24327 0.46195 0.72001 0.0
C1298 C 0.22577 0.49021 0.74118 0.0
C1299 C 0.24377 0.49809 0.75156 0.0
C1300 C 0.26145 0.48756 0.7465 0.0
C1301 C 0.2612 0.46964 0.73101 0.0
C1302 C 0.26009 0.54925 0.77608 0.0
C1303 C 0.24715 0.55304 0.79981 0.0
C1304 C 0.25873 0.53157 0.76016 0.0
C1305 C 0.24429 0.51734 0.76741 0.0
C1306 C 0.23085 0.5214 0.79038 0.0
C1307 C 0.23232 0.53905 0.80653 0.0
H1308 H 0.45029 0.2575 0.74001 0.0
H1309 H 0.4807 0.22697 0.81099 0.0
H1310 H 0.48068 0.25691 0.71064 0.0
H1311 H 0.5111 0.22646 0.78155 0.0
H1312 H 0.56506 0.25685 0.73364 0.0
H1313 H 0.53491 0.25289 0.76302 0.0
H1314 H 0.50356 0.2321 0.68569 0.0
H1315 H 0.5337 0.23599 0.65622 0.0
C1316 C 0.46342 0.25059 0.74929 0.0
C1317 C 0.46311 0.24235 0.77786 0.0
C1318 C 0.48078 0.25013 0.73239 0.0
C1319 C 0.49822 0.24162 0.74384 0.0
C1320 C 0.49788 0.23322 0.77228 0.0
C1321 C 0.48046 0.23346 0.78906 0.0
C1322 C 0.5518 0.25121 0.72297 0.0
C1323 C 0.55173 0.24684 0.69258 0.0
C1324 C 0.53458 0.24887 0.73983 0.0
C1325 C 0.51689 0.24231 0.72656 0.0
C1326 C 0.51696 0.23738 0.69638 0.0
C1327 C 0.53424 0.23949 0.67959 0.0
H1328 H 0.26644 0.53413 0.21864 0.0
H1329 H 0.20228 0.53235 0.21941 0.0
H1330 H 0.26746 0.50407 0.24864 0.0
H1331 H 0.20336 0.50214 0.24942 0.0
H1332 H 0.21657 0.46148 0.33125 0.0
H1333 H 0.21373 0.49121 0.30044 0.0
H1334 H 0.25906 0.46835 0.24218 0.0
H1335 H 0.262 0.43876 0.27286 0.0
C1336 C 0.25254 0.52735 0.22523 0.0
C1337 C 0.23427 0.53563 0.21657 0.0
C1338 C 0.25314 0.51005 0.24226 0.0
C1339 C 0.23549 0.50068 0.25122 0.0
C1340 C 0.2172 0.50909 0.24296 0.0
C1341 C 0.2166 0.52634 0.22568 0.0
C1342 C 0.22582 0.46273 0.31174 0.0
C1343 C 0.23959 0.44778 0.30462 0.0
C1344 C 0.22413 0.47973 0.29405 0.0
C1345 C 0.2363 0.48218 0.26905 0.0
C1346 C 0.2497 0.46701 0.26157 0.0
C1347 C 0.25128 0.44999 0.27907 0.0
H1348 H 0.54204 0.26538 0.26659 0.0
H1349 H 0.52544 0.20649 0.29556 0.0
H1350 H 0.51283 0.26664 0.2349 0.0
H1351 H 0.49602 0.2079 0.26393 0.0
H1352 H 0.45645 0.2117 0.1798 0.0
H1353 H 0.48614 0.20903 0.21073 0.0
H1354 H 0.47665 0.2688 0.24216 0.0
H1355 H 0.44721 0.27158 0.21121 0.0
C1356 C 0.53219 0.25267 0.26617 0.0
C1357 C 0.53604 0.23586 0.28373 0.0
C1358 C 0.51538 0.25346 0.24812 0.0
C1359 C 0.50205 0.23744 0.24709 0.0
C1360 C 0.50609 0.22043 0.26413 0.0
C1361 C 0.5229 0.21967 0.28234 0.0
C1362 C 0.46069 0.22425 0.19336 0.0
C1363 C 0.4495 0.24188 0.19294 0.0
C1364 C 0.47764 0.22268 0.21116 0.0
C1365 C 0.4838 0.23874 0.22873 0.0
C1366 C 0.47247 0.25627 0.22852 0.0
C1367 C 0.45551 0.25781 0.2109 0.0
H1368 H 0.72515 0.53866 0.26448 0.0
H1369 H 0.7885 0.53777 0.27997 0.0
H1370 H 0.72727 0.50614 0.24118 0.0
H1371 H 0.79056 0.50512 0.25636 0.0
H1372 H 0.78423 0.45679 0.18073 0.0
H1373 H 0.78476 0.48921 0.20511 0.0
H1374 H 0.73536 0.47144 0.25984 0.0
H1375 H 0.73482 0.43912 0.23578 0.0
C1376 C 0.73956 0.53161 0.26272 0.0
C1377 C 0.75665 0.54079 0.27419 0.0
C1378 C 0.74074 0.51291 0.24956 0.0
C1379 C 0.75905 0.50304 0.24724 0.0
C1380 C 0.77626 0.51243 0.25785 0.0
C1381 C 0.77505 0.53107 0.2714 0.0
C1382 C 0.77365 0.45971 0.19822 0.0
C1383 C 0.75941 0.44539 0.20617 0.0
C1384 C 0.77399 0.47826 0.21219 0.0
C1385 C 0.75995 0.48289 0.23409 0.0
C1386 C 0.74617 0.46836 0.2427 0.0
C1387 C 0.74596 0.44979 0.22903 0.0
H1388 H 0.46564 0.77924 0.30288 0.0
H1389 H 0.44463 0.73263 0.24521 0.0
H1390 H 0.49629 0.78138 0.27416 0.0
H1391 H 0.47516 0.7349 0.2165 0.0
H1392 H 0.54164 0.72716 0.19743 0.0
H1393 H 0.51053 0.72667 0.2249 0.0
H1394 H 0.50917 0.79076 0.22434 0.0
H1395 H 0.54045 0.79131 0.19694 0.0
C1396 C 0.46746 0.76958 0.28394 0.0
C1397 C 0.4527 0.7557 0.27645 0.0
C1398 C 0.485 0.77087 0.26743 0.0
C1399 C 0.48822 0.7582 0.2432 0.0
C1400 C 0.47326 0.74466 0.23532 0.0
C1401 C 0.45569 0.74346 0.25168 0.0
C1402 C 0.53475 0.74117 0.20317 0.0
C1403 C 0.54355 0.75928 0.19493 0.0
C1404 C 0.51683 0.74088 0.21876 0.0
C1405 C 0.50731 0.75867 0.22666 0.0
C1406 C 0.5162 0.7768 0.21873 0.0
C1407 C 0.53408 0.7771 0.20293 0.0
H1408 H 0.16993 0.15629 0.16167 0.0
H1409 H 0.18485 0.10522 0.21527 0.0
H1410 H 0.14716 0.16761 0.1992 0.0
H1411 H 0.16108 0.11616 0.25268 0.0
H1412 H 0.1481 0.16151 0.32747 0.0
H1413 H 0.16174 0.14156 0.28806 0.0
H1414 H 0.11814 0.16558 0.22747 0.0
H1415 H 0.10503 0.18647 0.267 0.0
C1416 C 0.168 0.14717 0.18122 0.0
C1417 C 0.17957 0.13005 0.18573 0.0
C1418 C 0.15467 0.1536 0.20273 0.0
C1419 C 0.15235 0.14296 0.22927 0.0
C1420 C 0.1628 0.12497 0.2328 0.0
C1421 C 0.17636 0.11862 0.2113 0.0
C1422 C 0.14117 0.16236 0.30588 0.0
C1423 C 0.12575 0.17596 0.30024 0.0
C1424 C 0.1489 0.15069 0.28321 0.0
C1425 C 0.14128 0.1521 0.25433 0.0
C1426 C 0.12472 0.16446 0.24928 0.0
C1427 C 0.11711 0.17637 0.27196 0.0
H1428 H 0.87845 0.20135 0.25857 0.0
H1429 H 0.87962 0.15126 0.19927 0.0
H1430 H 0.86089 0.18156 0.2951 0.0
H1431 H 0.86327 0.13085 0.23651 0.0
H1432 H 0.80427 0.1152 0.28222 0.0
H1433 H 0.83078 0.12862 0.25202 0.0
H1434 H 0.85643 0.15645 0.32937 0.0
H1435 H 0.82903 0.1439 0.35919 0.0
C1436 C 0.87568 0.18583 0.2539 0.0
C1437 C 0.8801 0.17789 0.22602 0.0
C1438 C 0.86562 0.17437 0.2749 0.0
C1439 C 0.86016 0.15461 0.26863 0.0
C1440 C 0.86655 0.14617 0.2418 0.0
C1441 C 0.87614 0.15777 0.22055 0.0
C1442 C 0.81576 0.12391 0.29285 0.0
C1443 C 0.81441 0.12874 0.32295 0.0
C1444 C 0.83114 0.13154 0.27556 0.0
C1445 C 0.84581 0.14388 0.28807 0.0
C1446 C 0.84519 0.14747 0.31873 0.0
C1447 C 0.82955 0.14016 0.3359 0.0
H1448 H 0.87991 0.79552 0.27973 0.0
H1449 H 0.85809 0.82749 0.35571 0.0
H1450 H 0.86564 0.82028 0.24722 0.0
H1451 H 0.84491 0.85329 0.32332 0.0
H1452 H 0.79645 0.87358 0.25735 0.0
H1453 H 0.8179 0.85719 0.29302 0.0
H1454 H 0.86321 0.85082 0.22575 0.0
H1455 H 0.84087 0.86582 0.18968 0.0
C1456 C 0.87261 0.80825 0.2895 0.0
C1457 C 0.86985 0.80944 0.32019 0.0
C1458 C 0.86448 0.82264 0.27083 0.0
C1459 C 0.85379 0.83885 0.28244 0.0
C1460 C 0.85248 0.84078 0.3134 0.0
C1461 C 0.86018 0.82609 0.33205 0.0
C1462 C 0.81117 0.86903 0.25046 0.0
C1463 C 0.81694 0.87066 0.22078 0.0
C1464 C 0.82361 0.85967 0.27096 0.0
C1465 C 0.84229 0.8522 0.26231 0.0
C1466 C 0.84871 0.85567 0.2331 0.0
C1467 C 0.83602 0.86448 0.21245 0.0
H1468 H 0.15792 0.87735 0.30222 0.0
H1469 H 0.20374 0.8741 0.23579 0.0
H1470 H 0.13478 0.86084 0.26893 0.0
H1471 H 0.18123 0.85637 0.20313 0.0
H1472 H 0.13906 0.82418 0.14643 0.0
H1473 H 0.1538 0.85195 0.17303 0.0
H1474 H 0.1309 0.82815 0.25519 0.0
H1475 H 0.11527 0.80125 0.22827 0.0
C1476 C 0.16289 0.87337 0.28021 0.0
C1477 C 0.18261 0.8768 0.27158 0.0
C1478 C 0.14973 0.86369 0.26123 0.0
C1479 C 0.15619 0.85668 0.23355 0.0
C1480 C 0.17554 0.86159 0.22411 0.0
C1481 C 0.18855 0.87174 0.24286 0.0
C1482 C 0.13685 0.82521 0.17012 0.0
C1483 C 0.12621 0.81046 0.18536 0.0
C1484 C 0.14542 0.84105 0.18543 0.0
C1485 C 0.14392 0.84225 0.21643 0.0
C1486 C 0.13224 0.82803 0.23134 0.0
C1487 C 0.12333 0.81244 0.21593 0.0
H1488 H 0.88361 0.80612 0.76541 0.0
H1489 H 0.85184 0.83588 0.69512 0.0
H1490 H 0.86805 0.82829 0.80153 0.0
H1491 H 0.83605 0.85744 0.7308 0.0
H1492 H 0.81102 0.89794 0.79687 0.0
H1493 H 0.8372 0.88311 0.76687 0.0
H1494 H 0.83463 0.82994 0.82034 0.0
H1495 H 0.80905 0.84494 0.85079 0.0
C1496 C 0.87369 0.81766 0.75762 0.0
C1497 C 0.86872 0.81905 0.7275 0.0
C1498 C 0.86464 0.83025 0.7783 0.0
C1499 C 0.85058 0.84452 0.76916 0.0
C1500 C 0.84689 0.84681 0.73875 0.0
C1501 C 0.85584 0.83427 0.71823 0.0
C1502 C 0.81631 0.88323 0.80255 0.0
C1503 C 0.80769 0.87251 0.82593 0.0
C1504 C 0.83129 0.87469 0.7853 0.0
C1505 C 0.83787 0.8552 0.79091 0.0
C1506 C 0.83012 0.84503 0.81548 0.0
C1507 C 0.81526 0.8536 0.83282 0.0
H1508 H 0.18459 0.8909 0.69867 0.0
H1509 H 0.18443 0.83375 0.65534 0.0
H1510 H 0.16066 0.87855 0.73476 0.0
H1511 H 0.16117 0.82125 0.69184 0.0
H1512 H 0.11458 0.80269 0.7548 0.0
H1513 H 0.12885 0.82136 0.71361 0.0
H1514 H 0.16304 0.85636 0.77544 0.0
H1515 H 0.14838 0.83832 0.81628 0.0
C1516 C 0.17935 0.87576 0.69671 0.0
C1517 C 0.18663 0.86324 0.67436 0.0
C1518 C 0.16567 0.86866 0.71744 0.0
C1519 C 0.15909 0.84884 0.71642 0.0
C1520 C 0.16566 0.83666 0.69316 0.0
C1521 C 0.1792 0.84379 0.67234 0.0
C1522 C 0.12477 0.81471 0.75957 0.0
C1523 C 0.13058 0.81879 0.7888 0.0
C1524 C 0.13306 0.82531 0.73597 0.0
C1525 C 0.14735 0.84017 0.74114 0.0
C1526 C 0.152 0.84516 0.77052 0.0
C1527 C 0.14368 0.83465 0.79403 0.0
H1528 H 0.10973 0.19592 0.72658 0.0
H1529 H 0.15271 0.18315 0.65822 0.0
H1530 H 0.12457 0.17027 0.75776 0.0
H1531 H 0.16779 0.15808 0.68951 0.0
H1532 H 0.19255 0.11192 0.74743 0.0
H1533 H 0.16712 0.12708 0.71612 0.0
H1534 H 0.15558 0.17064 0.7841 0.0
H1535 H 0.18041 0.15528 0.81546 0.0
C1536 C 0.1221 0.18742 0.71798 0.0
C1537 C 0.13029 0.19186 0.69016 0.0
C1538 C 0.13065 0.17277 0.73589 0.0
C1539 C 0.14756 0.16231 0.72634 0.0
C1540 C 0.1547 0.16569 0.69756 0.0
C1541 C 0.14615 0.18027 0.67967 0.0
C1542 C 0.18421 0.12442 0.75594 0.0
C1543 C 0.18878 0.13264 0.78369 0.0
C1544 C 0.16971 0.13317 0.73795 0.0
C1545 C 0.1595 0.15025 0.74741 0.0
C1546 C 0.163 0.15742 0.77613 0.0
C1547 C 0.17743 0.1487 0.79405 0.0
H1548 H 0.89282 0.19588 0.80172 0.0
H1549 H 0.83723 0.1984 0.8493 0.0
H1550 H 0.87886 0.17106 0.76855 0.0
H1551 H 0.82311 0.17405 0.81562 0.0
H1552 H 0.80312 0.12456 0.75658 0.0
H1553 H 0.82239 0.14066 0.79569 0.0
H1554 H 0.85498 0.17361 0.72953 0.0
H1555 H 0.83625 0.15732 0.69081 0.0
C1556 C 0.87768 0.19101 0.80529 0.0
C1557 C 0.86605 0.19935 0.82789 0.0
C1558 C 0.86966 0.17682 0.78621 0.0
C1559 C 0.84977 0.17075 0.78914 0.0
C1560 C 0.83852 0.17823 0.81284 0.0
C1561 C 0.84659 0.19233 0.83205 0.0
C1562 C 0.8147 0.13493 0.75044 0.0
C1563 C 0.818 0.13982 0.7206 0.0
C1564 C 0.82564 0.14425 0.77284 0.0
C1565 C 0.84014 0.15855 0.76579 0.0
C1566 C 0.84413 0.16253 0.73585 0.0
C1567 C 0.83323 0.15328 0.71357 0.0
H1568 H 0.6935 0.66083 0.63775 0.0
H1569 H 0.6928 0.60786 0.69182 0.0
H1570 H 0.66907 0.67608 0.67019 0.0
H1571 H 0.66795 0.62296 0.72384 0.0
H1572 H 0.65777 0.67067 0.79673 0.0
H1573 H 0.67211 0.64924 0.75944 0.0
H1574 H 0.63592 0.67733 0.69238 0.0
H1575 H 0.62165 0.69922 0.73006 0.0
C1576 C 0.68777 0.65224 0.65612 0.0
C1577 C 0.69543 0.63329 0.66254 0.0
C1578 C 0.67362 0.66094 0.67462 0.0
C1579 C 0.66676 0.65084 0.69987 0.0
C1580 C 0.67324 0.63127 0.70489 0.0
C1581 C 0.68746 0.62261 0.68649 0.0
C1582 C 0.65257 0.67208 0.77413 0.0
C1583 C 0.63879 0.68683 0.76627 0.0
C1584 C 0.66068 0.65963 0.75273 0.0
C1585 C 0.65526 0.66164 0.72285 0.0
C1586 C 0.64055 0.67558 0.71519 0.0
C1587 C 0.63229 0.68802 0.73676 0.0
H1588 H 0.33774 0.65849 0.82761 0.0
H1589 H 0.3146 0.61422 0.76769 0.0
H1590 H 0.35745 0.67251 0.78794 0.0
H1591 H 0.33496 0.62792 0.72796 0.0
H1592 H 0.34519 0.67965 0.66116 0.0
H1593 H 0.33274 0.65745 0.69907 0.0
H1594 H 0.38401 0.67024 0.75338 0.0
H1595 H 0.39618 0.69313 0.71566 0.0
C1596 C 0.33719 0.65144 0.8061 0.0
C1597 C 0.32432 0.63542 0.80074 0.0
C1598 C 0.34868 0.65941 0.78332 0.0
C1599 C 0.3477 0.65148 0.7546 0.0
C1600 C 0.3358 0.63463 0.74969 0.0
C1601 C 0.3242 0.6267 0.7725 0.0
C1602 C 0.35403 0.6775 0.68094 0.0
C1603 C 0.37151 0.68847 0.68558 0.0
C1604 C 0.34694 0.66459 0.70267 0.0
C1605 C 0.35722 0.66221 0.72952 0.0
C1606 C 0.37549 0.67205 0.73323 0.0
C1607 C 0.38254 0.68509 0.71152 0.0
H1608 H 0.3427 0.31124 0.82113 0.0
H1609 H 0.38726 0.30318 0.75342 0.0
H1610 H 0.32613 0.33588 0.7905 0.0
H1611 H 0.37071 0.32815 0.72283 0.0
H1612 H 0.31629 0.34648 0.66434 0.0
H1613 H 0.33916 0.32807 0.69567 0.0
H1614 H 0.32793 0.36887 0.76737 0.0
H1615 H 0.30471 0.38726 0.73601 0.0
C1616 C 0.34915 0.31494 0.79988 0.0
C1617 C 0.36619 0.30504 0.78959 0.0
C1618 C 0.33972 0.32922 0.78241 0.0
C1619 C 0.34704 0.33393 0.75416 0.0
C1620 C 0.36458 0.32469 0.74438 0.0
C1621 C 0.37411 0.31044 0.76195 0.0
C1622 C 0.31888 0.35173 0.68665 0.0
C1623 C 0.30847 0.36822 0.69777 0.0
C1624 C 0.33214 0.34124 0.70456 0.0
C1625 C 0.33529 0.34692 0.73409 0.0
C1626 C 0.32564 0.36399 0.74481 0.0
C1627 C 0.31242 0.37459 0.72679 0.0
H1628 H 0.61272 0.31399 0.73205 0.0
H1629 H 0.65192 0.34288 0.66976 0.0
H1630 H 0.62558 0.33513 0.77152 0.0
H1631 H 0.66518 0.36329 0.709 0.0
H1632 H 0.68692 0.40094 0.78034 0.0
H1633 H 0.66242 0.38845 0.74523 0.0
H1634 H 0.65629 0.33497 0.79743 0.0
H1635 H 0.68 0.34775 0.8329 0.0
C1636 C 0.62384 0.32503 0.72667 0.0
C1637 C 0.63154 0.32649 0.69786 0.0
C1638 C 0.63129 0.33708 0.74931 0.0
C1639 C 0.64663 0.35076 0.74359 0.0
C1640 C 0.65325 0.35313 0.71431 0.0
C1641 C 0.64576 0.34121 0.69175 0.0
C1642 C 0.67996 0.38674 0.78465 0.0
C1643 C 0.68572 0.37518 0.8091 0.0
C1644 C 0.66599 0.37952 0.76446 0.0
C1645 C 0.65764 0.36052 0.76814 0.0
C1646 C 0.66225 0.34971 0.79388 0.0
C1647 C 0.67605 0.35699 0.81417 0.0
H1648 H 0.38768 0.30999 0.21523 0.0
H1649 H 0.33593 0.32186 0.16137 0.0
H1650 H 0.37413 0.33106 0.25418 0.0
H1651 H 0.32222 0.34235 0.20044 0.0
H1652 H 0.30373 0.38496 0.27039 0.0
H1653 H 0.32402 0.372 0.23003 0.0
H1654 H 0.3472 0.3267 0.28843 0.0
H1655 H 0.32747 0.33989 0.32871 0.0
C1656 C 0.37354 0.31725 0.21155 0.0
C1657 C 0.36277 0.31402 0.18535 0.0
C1658 C 0.36573 0.32926 0.23392 0.0
C1659 C 0.34699 0.33823 0.23057 0.0
C1660 C 0.33677 0.33586 0.20369 0.0
C1661 C 0.34459 0.32394 0.18133 0.0
C1662 C 0.31342 0.37245 0.2747 0.0
C1663 C 0.31379 0.36331 0.30267 0.0
C1664 C 0.32498 0.36497 0.25155 0.0
C1665 C 0.33711 0.3482 0.25591 0.0
C1666 C 0.33822 0.33976 0.28431 0.0
C1667 C 0.32674 0.34724 0.30741 0.0
H1668 H 0.61424 0.2911 0.26704 0.0
H1669 H 0.64015 0.31826 0.34439 0.0
H1670 H 0.63119 0.31484 0.23568 0.0
H1671 H 0.65617 0.34308 0.31323 0.0
H1672 H 0.70464 0.36225 0.24672 0.0
H1673 H 0.68289 0.34567 0.28185 0.0
H1674 H 0.63565 0.34598 0.21679 0.0
H1675 H 0.65812 0.36114 0.18114 0.0
C1676 C 0.62315 0.30255 0.27738 0.0
C1677 C 0.62605 0.3027 0.3081 0.0
C1678 C 0.63281 0.31636 0.25939 0.0
C1679 C 0.64527 0.33098 0.27173 0.0
C1680 C 0.64716 0.3318 0.30274 0.0
C1681 C 0.63785 0.31766 0.32068 0.0
C1682 C 0.68947 0.3591 0.24025 0.0
C1683 C 0.68308 0.36271 0.21123 0.0
C1684 C 0.67689 0.34963 0.26043 0.0
C1685 C 0.65748 0.34403 0.25214 0.0
C1686 C 0.65066 0.34935 0.22376 0.0
C1687 C 0.66342 0.35827 0.20338 0.0
H1688 H 0.69248 0.61119 0.24504 0.0
H1689 H 0.67338 0.65261 0.31219 0.0
H1690 H 0.67109 0.62787 0.20899 0.0
H1691 H 0.65251 0.66939 0.27629 0.0
H1692 H 0.6096 0.69286 0.21013 0.0
H1693 H 0.62382 0.66842 0.24408 0.0
H1694 H 0.67317 0.65986 0.18441 0.0
H1695 H 0.65884 0.6838 0.15036 0.0
C1696 C 0.68353 0.62364 0.25222 0.0
C1697 C 0.68484 0.63071 0.2814 0.0
C1698 C 0.67135 0.63326 0.23154 0.0
C1699 C 0.66019 0.65007 0.23968 0.0
C1700 C 0.6607 0.65639 0.26927 0.0
C1701 C 0.67286 0.64684 0.28984 0.0
C1702 C 0.6233 0.68549 0.20404 0.0
C1703 C 0.6332 0.69049 0.17771 0.0
C1704 C 0.63149 0.67155 0.22354 0.0
C1705 C 0.64973 0.6623 0.21709 0.0
C1706 C 0.65902 0.66651 0.18998 0.0
C1707 C 0.65086 0.68042 0.17054 0.0
H1708 H 0.2925 0.61294 0.22861 0.0
H1709 H 0.31554 0.63898 0.14841 0.0
H1710 H 0.31814 0.62944 0.25706 0.0
H1711 H 0.34223 0.65451 0.17647 0.0
H1712 H 0.36594 0.70227 0.24081 0.0
H1713 H 0.34725 0.68091 0.20757 0.0
H1714 H 0.35023 0.63344 0.27212 0.0
H1715 H 0.3675 0.65555 0.30603 0.0
C1716 C 0.30343 0.62178 0.21697 0.0
C1717 C 0.3019 0.62484 0.18637 0.0
C1718 C 0.31834 0.63118 0.23326 0.0
C1719 C 0.3324 0.64353 0.21925 0.0
C1720 C 0.33146 0.64559 0.18827 0.0
C1721 C 0.31624 0.63656 0.17208 0.0
C1722 C 0.36296 0.68711 0.24747 0.0
C1723 C 0.36795 0.68056 0.27596 0.0
C1724 C 0.35225 0.67475 0.2284 0.0
C1725 C 0.34674 0.65542 0.23723 0.0
C1726 C 0.35348 0.6484 0.26483 0.0
C1727 C 0.36365 0.66095 0.28417 0.0
loop_
_geom_bond_atom_site_label_1
_geom_bond_atom_site_label_2
_geom_bond_distance
_geom_bond_site_symmetry_2
_ccdc_geom_bond_type
Zn0 O3 2.031 . S
Zn0 O5 2.049 . S
Zn0 O10 2.067 . S
Zn1 O2 1.962 . S
Zn1 O4 1.986 . S
Zn1 O6 1.996 . S
Zn1 O9 1.943 . S
O2 Zn1 1.962 . S
O2 C7 1.254 . S
O3 Zn0 2.031 . S
O3 C7 1.269 . S
O4 Zn1 1.986 . S
O4 C11 1.262 . S
O5 Zn0 2.049 . S
O5 C13 1.260 . S
O6 Zn1 1.996 . S
O6 C13 1.257 . S
C7 O2 1.254 . S
C7 O3 1.269 . S
C8 O9 1.249 . S
C8 O10 1.270 . S
O9 Zn1 1.943 . S
O9 C8 1.249 . S
O10 Zn0 2.067 . S
O10 C8 1.270 . S
C11 O4 1.262 . S
C11 O12 1.232 . S
O12 C11 1.232 . S
C13 O5 1.260 . S
C13 O6 1.257 . S
Zn14 O17 2.031 . S
Zn14 O19 2.049 . S
Zn14 O24 2.067 . S
Zn15 O16 1.962 . S
Zn15 O18 1.986 . S
Zn15 O20 1.996 . S
Zn15 O23 1.943 . S
O16 Zn15 1.962 . S
O16 C21 1.254 . S
O17 Zn14 2.031 . S
O17 C21 1.269 . S
O18 Zn15 1.986 . S
O18 C25 1.262 . S
O19 Zn14 2.049 . S
O19 C27 1.260 . S
O20 Zn15 1.996 . S
O20 C27 1.257 . S
C21 O16 1.254 . S
C21 O17 1.269 . S
C22 O23 1.249 . S
C22 O24 1.270 . S
O23 Zn15 1.943 . S
O23 C22 1.249 . S
O24 Zn14 2.067 . S
O24 C22 1.270 . S
C25 O18 1.262 . S
C25 O26 1.232 . S
O26 C25 1.232 . S
C27 O19 1.260 . S
C27 O20 1.257 . S
Zn28 O31 2.031 . S
Zn28 O33 2.049 . S
Zn28 O38 2.067 . S
Zn29 O30 1.962 . S
Zn29 O32 1.986 . S
Zn29 O34 1.996 . S
Zn29 O37 1.943 . S
O30 Zn29 1.962 . S
O30 C35 1.254 . S
O31 Zn28 2.031 . S
O31 C35 1.269 . S
O32 Zn29 1.986 . S
O32 C39 1.262 . S
O33 Zn28 2.049 . S
O33 C41 1.260 . S
O34 Zn29 1.996 . S
O34 C41 1.257 . S
C35 O30 1.254 . S
C35 O31 1.269 . S
C36 O37 1.249 . S
C36 O38 1.270 . S
O37 Zn29 1.943 . S
O37 C36 1.249 . S
O38 Zn28 2.067 . S
O38 C36 1.270 . S
C39 O32 1.262 . S
C39 O40 1.232 . S
O40 C39 1.232 . S
C41 O33 1.260 . S
C41 O34 1.257 . S
Zn42 O45 2.031 . S
Zn42 O47 2.049 . S
Zn42 O52 2.067 . S
Zn43 O44 1.962 . S
Zn43 O46 1.986 . S
Zn43 O48 1.996 . S
Zn43 O51 1.943 . S
O44 Zn43 1.962 . S
O44 C49 1.254 . S
O45 Zn42 2.031 . S
O45 C49 1.269 . S
O46 Zn43 1.986 . S
O46 C53 1.262 . S
O47 Zn42 2.049 . S
O47 C55 1.260 . S
O48 Zn43 1.996 . S
O48 C55 1.257 . S
C49 O44 1.254 . S
C49 O45 1.269 . S
C50 O51 1.249 . S
C50 O52 1.270 . S
O51 Zn43 1.943 . S
O51 C50 1.249 . S
O52 Zn42 2.067 . S
O52 C50 1.270 . S
C53 O46 1.262 . S
C53 O54 1.232 . S
O54 C53 1.232 . S
C55 O47 1.260 . S
C55 O48 1.257 . S
Zn56 O59 2.031 . S
Zn56 O61 2.049 . S
Zn56 O66 2.067 . S
Zn57 O58 1.962 . S
Zn57 O60 1.986 . S
Zn57 O62 1.996 . S
Zn57 O65 1.943 . S
O58 Zn57 1.962 . S
O58 C63 1.254 . S
O59 Zn56 2.031 . S
O59 C63 1.269 . S
O60 Zn57 1.986 . S
O60 C67 1.262 . S
O61 Zn56 2.049 . S
O61 C69 1.260 . S
O62 Zn57 1.996 . S
O62 C69 1.257 . S
C63 O58 1.254 . S
C63 O59 1.269 . S
C64 O65 1.249 . S
C64 O66 1.270 . S
O65 Zn57 1.943 . S
O65 C64 1.249 . S
O66 Zn56 2.067 . S
O66 C64 1.270 . S
C67 O60 1.262 . S
C67 O68 1.232 . S
O68 C67 1.232 . S
C69 O61 1.260 . S
C69 O62 1.257 . S
Zn70 O73 2.031 . S
Zn70 O75 2.049 . S
Zn70 O80 2.067 . S
Zn71 O72 1.962 . S
Zn71 O74 1.986 . S
Zn71 O76 1.996 . S
Zn71 O79 1.943 . S
O72 Zn71 1.962 . S
O72 C77 1.254 . S
O73 Zn70 2.031 . S
O73 C77 1.269 . S
O74 Zn71 1.986 . S
O74 C81 1.262 . S
O75 Zn70 2.049 . S
O75 C83 1.260 . S
O76 Zn71 1.996 . S
O76 C83 1.257 . S
C77 O72 1.254 . S
C77 O73 1.269 . S
C78 O79 1.249 . S
C78 O80 1.270 . S
O79 Zn71 1.943 . S
O79 C78 1.249 . S
O80 Zn70 2.067 . S
O80 C78 1.270 . S
C81 O74 1.262 . S
C81 O82 1.232 . S
O82 C81 1.232 . S
C83 O75 1.260 . S
C83 O76 1.257 . S
Zn84 O87 2.031 . S
Zn84 O89 2.049 . S
Zn84 O94 2.067 . S
Zn85 O86 1.962 . S
Zn85 O88 1.986 . S
Zn85 O90 1.996 . S
Zn85 O93 1.943 . S
O86 Zn85 1.962 . S
O86 C91 1.254 . S
O87 Zn84 2.031 . S
O87 C91 1.269 . S
O88 Zn85 1.986 . S
O88 C95 1.262 . S
O89 Zn84 2.049 . S
O89 C97 1.260 . S
O90 Zn85 1.996 . S
O90 C97 1.257 . S
C91 O86 1.254 . S
C91 O87 1.269 . S
C92 O93 1.249 . S
C92 O94 1.270 . S
O93 Zn85 1.943 . S
O93 C92 1.249 . S
O94 Zn84 2.067 . S
O94 C92 1.270 . S
C95 O88 1.262 . S
C95 O96 1.232 . S
O96 C95 1.232 . S
C97 O89 1.260 . S
C97 O90 1.257 . S
Zn98 O101 2.031 . S
Zn98 O103 2.049 . S
Zn98 O108 2.067 . S
Zn99 O100 1.962 . S
Zn99 O102 1.986 . S
Zn99 O104 1.996 . S
Zn99 O107 1.943 . S
O100 Zn99 1.962 . S
O100 C105 1.254 . S
O101 Zn98 2.031 . S
O101 C105 1.269 . S
O102 Zn99 1.986 . S
O102 C109 1.262 . S
O103 Zn98 2.049 . S
O103 C111 1.260 . S
O104 Zn99 1.996 . S
O104 C111 1.257 . S
C105 O100 1.254 . S
C105 O101 1.269 . S
C106 O107 1.249 . S
C106 O108 1.270 . S
O107 Zn99 1.943 . S
O107 C106 1.249 . S
O108 Zn98 2.067 . S
O108 C106 1.270 . S
C109 O102 1.262 . S
C109 O110 1.232 . S
O110 C109 1.232 . S
C111 O103 1.260 . S
C111 O104 1.257 . S
Zn112 O115 2.031 . S
Zn112 O117 2.049 . S
Zn112 O122 2.067 . S
Zn113 O114 1.962 . S
Zn113 O116 1.986 . S
Zn113 O118 1.996 . S
Zn113 O121 1.943 . S
O114 Zn113 1.962 . S
O114 C119 1.254 . S
O115 Zn112 2.031 . S
O115 C119 1.269 . S
O116 Zn113 1.986 . S
O116 C123 1.262 . S
O117 Zn112 2.049 . S
O117 C125 1.260 . S
O118 Zn113 1.996 . S
O118 C125 1.257 . S
C119 O114 1.254 . S
C119 O115 1.269 . S
C120 O121 1.249 . S
C120 O122 1.270 . S
O121 Zn113 1.943 . S
O121 C120 1.249 . S
O122 Zn112 2.067 . S
O122 C120 1.270 . S
C123 O116 1.262 . S
C123 O124 1.232 . S
O124 C123 1.232 . S
C125 O117 1.260 . S
C125 O118 1.257 . S
Zn126 O129 2.031 . S
Zn126 O131 2.049 . S
Zn126 O136 2.067 . S
Zn127 O128 1.962 . S
Zn127 O130 1.986 . S
Zn127 O132 1.996 . S
Zn127 O135 1.943 . S
O128 Zn127 1.962 . S
O128 C133 1.254 . S
O129 Zn126 2.031 . S
O129 C133 1.269 . S
O130 Zn127 1.986 . S
O130 C137 1.262 . S
O131 Zn126 2.049 . S
O131 C139 1.260 . S
O132 Zn127 1.996 . S
O132 C139 1.257 . S
C133 O128 1.254 . S
C133 O129 1.269 . S
C134 O135 1.249 . S
C134 O136 1.270 . S
O135 Zn127 1.943 . S
O135 C134 1.249 . S
O136 Zn126 2.067 . S
O136 C134 1.270 . S
C137 O130 1.262 . S
C137 O138 1.232 . S
O138 C137 1.232 . S
C139 O131 1.260 . S
C139 O132 1.257 . S
Zn140 O143 2.031 . S
Zn140 O145 2.049 . S
Zn140 O150 2.067 . S
Zn141 O142 1.962 . S
Zn141 O144 1.986 . S
Zn141 O146 1.996 . S
Zn141 O149 1.943 . S
O142 Zn141 1.962 . S
O142 C147 1.254 . S
O143 Zn140 2.031 . S
O143 C147 1.269 . S
O144 Zn141 1.986 . S
O144 C151 1.262 . S
O145 Zn140 2.049 . S
O145 C153 1.260 . S
O146 Zn141 1.996 . S
O146 C153 1.257 . S
C147 O142 1.254 . S
C147 O143 1.269 . S
C148 O149 1.249 . S
C148 O150 1.270 . S
O149 Zn141 1.943 . S
O149 C148 1.249 . S
O150 Zn140 2.067 . S
O150 C148 1.270 . S
C151 O144 1.262 . S
C151 O152 1.232 . S
O152 C151 1.232 . S
C153 O145 1.260 . S
C153 O146 1.257 . S
Zn154 O157 2.031 . S
Zn154 O159 2.049 . S
Zn154 O164 2.067 . S
Zn155 O156 1.962 . S
Zn155 O158 1.986 . S
Zn155 O160 1.996 . S
Zn155 O163 1.943 . S
O156 Zn155 1.962 . S
O156 C161 1.254 . S
O157 Zn154 2.031 . S
O157 C161 1.269 . S
O158 Zn155 1.986 . S
O158 C165 1.262 . S
O159 Zn154 2.049 . S
O159 C167 1.260 . S
O160 Zn155 1.996 . S
O160 C167 1.257 . S
C161 O156 1.254 . S
C161 O157 1.269 . S
C162 O163 1.249 . S
C162 O164 1.270 . S
O163 Zn155 1.943 . S
O163 C162 1.249 . S
O164 Zn154 2.067 . S
O164 C162 1.270 . S
C165 O158 1.262 . S
C165 O166 1.232 . S
O166 C165 1.232 . S
C167 O159 1.260 . S
C167 O160 1.257 . S
Zn168 O171 2.031 . S
Zn168 O173 2.049 . S
Zn168 O178 2.067 . S
Zn169 O170 1.962 . S
Zn169 O172 1.986 . S
Zn169 O174 1.996 . S
Zn169 O177 1.943 . S
O170 Zn169 1.962 . S
O170 C175 1.254 . S
O171 Zn168 2.031 . S
O171 C175 1.269 . S
O172 Zn169 1.986 . S
O172 C179 1.262 . S
O173 Zn168 2.049 . S
O173 C181 1.260 . S
O174 Zn169 1.996 . S
O174 C181 1.257 . S
C175 O170 1.254 . S
C175 O171 1.269 . S
C176 O177 1.249 . S
C176 O178 1.270 . S
O177 Zn169 1.943 . S
O177 C176 1.249 . S
O178 Zn168 2.067 . S
O178 C176 1.270 . S
C179 O172 1.262 . S
C179 O180 1.232 . S
O180 C179 1.232 . S
C181 O173 1.260 . S
C181 O174 1.257 . S
Zn182 O185 2.031 . S
Zn182 O187 2.049 . S
Zn182 O192 2.067 . S
Zn183 O184 1.962 . S
Zn183 O186 1.986 . S
Zn183 O188 1.996 . S
Zn183 O191 1.943 . S
O184 Zn183 1.962 . S
O184 C189 1.254 . S
O185 Zn182 2.031 . S
O185 C189 1.269 . S
O186 Zn183 1.986 . S
O186 C193 1.262 . S
O187 Zn182 2.049 . S
O187 C195 1.260 . S
O188 Zn183 1.996 . S
O188 C195 1.257 . S
C189 O184 1.254 . S
C189 O185 1.269 . S
C190 O191 1.249 . S
C190 O192 1.270 . S
O191 Zn183 1.943 . S
O191 C190 1.249 . S
O192 Zn182 2.067 . S
O192 C190 1.270 . S
C193 O186 1.262 . S
C193 O194 1.232 . S
O194 C193 1.232 . S
C195 O187 1.260 . S
C195 O188 1.257 . S
Zn196 O199 2.031 . S
Zn196 O201 2.049 . S
Zn196 O206 2.067 . S
Zn197 O198 1.962 . S
Zn197 O200 1.986 . S
Zn197 O202 1.996 . S
Zn197 O205 1.943 . S
O198 Zn197 1.962 . S
O198 C203 1.254 . S
O199 Zn196 2.031 . S
O199 C203 1.269 . S
O200 Zn197 1.986 . S
O200 C207 1.262 . S
O201 Zn196 2.049 . S
O201 C209 1.260 . S
O202 Zn197 1.996 . S
O202 C209 1.257 . S
C203 O198 1.254 . S
C203 O199 1.269 . S
C204 O205 1.249 . S
C204 O206 1.270 . S
O205 Zn197 1.943 . S
O205 C204 1.249 . S
O206 Zn196 2.067 . S
O206 C204 1.270 . S
C207 O200 1.262 . S
C207 O208 1.232 . S
O208 C207 1.232 . S
C209 O201 1.260 . S
C209 O202 1.257 . S
Zn210 O213 2.031 . S
Zn210 O215 2.049 . S
Zn210 O220 2.067 . S
Zn211 O212 1.962 . S
Zn211 O214 1.986 . S
Zn211 O216 1.996 . S
Zn211 O219 1.943 . S
O212 Zn211 1.962 . S
O212 C217 1.254 . S
O213 Zn210 2.031 . S
O213 C217 1.269 . S
O214 Zn211 1.986 . S
O214 C221 1.262 . S
O215 Zn210 2.049 . S
O215 C223 1.260 . S
O216 Zn211 1.996 . S
O216 C223 1.257 . S
C217 O212 1.254 . S
C217 O213 1.269 . S
C218 O219 1.249 . S
C218 O220 1.270 . S
O219 Zn211 1.943 . S
O219 C218 1.249 . S
O220 Zn210 2.067 . S
O220 C218 1.270 . S
C221 O214 1.262 . S
C221 O222 1.232 . S
O222 C221 1.232 . S
C223 O215 1.260 . S
C223 O216 1.257 . S
Zn224 O227 2.031 . S
Zn224 O229 2.049 . S
Zn224 O234 2.067 . S
Zn225 O226 1.962 . S
Zn225 O228 1.986 . S
Zn225 O230 1.996 . S
Zn225 O233 1.943 . S
O226 Zn225 1.962 . S
O226 C231 1.254 . S
O227 Zn224 2.031 . S
O227 C231 1.269 . S
O228 Zn225 1.986 . S
O228 C235 1.262 . S
O229 Zn224 2.049 . S
O229 C237 1.260 . S
O230 Zn225 1.996 . S
O230 C237 1.257 . S
C231 O226 1.254 . S
C231 O227 1.269 . S
C232 O233 1.249 . S
C232 O234 1.270 . S
O233 Zn225 1.943 . S
O233 C232 1.249 . S
O234 Zn224 2.067 . S
O234 C232 1.270 . S
C235 O228 1.262 . S
C235 O236 1.232 . S
O236 C235 1.232 . S
C237 O229 1.260 . S
C237 O230 1.257 . S
Zn238 O241 2.031 . S
Zn238 O243 2.049 . S
Zn238 O248 2.067 . S
Zn239 O240 1.962 . S
Zn239 O242 1.986 . S
Zn239 O244 1.996 . S
Zn239 O247 1.943 . S
O240 Zn239 1.962 . S
O240 C245 1.254 . S
O241 Zn238 2.031 . S
O241 C245 1.269 . S
O242 Zn239 1.986 . S
O242 C249 1.262 . S
O243 Zn238 2.049 . S
O243 C251 1.260 . S
O244 Zn239 1.996 . S
O244 C251 1.257 . S
C245 O240 1.254 . S
C245 O241 1.269 . S
C246 O247 1.249 . S
C246 O248 1.270 . S
O247 Zn239 1.943 . S
O247 C246 1.249 . S
O248 Zn238 2.067 . S
O248 C246 1.270 . S
C249 O242 1.262 . S
C249 O250 1.232 . S
O250 C249 1.232 . S
C251 O243 1.260 . S
C251 O244 1.257 . S
Zn252 O255 2.031 . S
Zn252 O257 2.049 . S
Zn252 O262 2.067 . S
Zn253 O254 1.962 . S
Zn253 O256 1.986 . S
Zn253 O258 1.996 . S
Zn253 O261 1.943 . S
O254 Zn253 1.962 . S
O254 C259 1.254 . S
O255 Zn252 2.031 . S
O255 C259 1.269 . S
O256 Zn253 1.986 . S
O256 C263 1.262 . S
O257 Zn252 2.049 . S
O257 C265 1.260 . S
O258 Zn253 1.996 . S
O258 C265 1.257 . S
C259 O254 1.254 . S
C259 O255 1.269 . S
C260 O261 1.249 . S
C260 O262 1.270 . S
O261 Zn253 1.943 . S
O261 C260 1.249 . S
O262 Zn252 2.067 . S
O262 C260 1.270 . S
C263 O256 1.262 . S
C263 O264 1.232 . S
O264 C263 1.232 . S
C265 O257 1.260 . S
C265 O258 1.257 . S
Zn266 O269 2.031 . S
Zn266 O271 2.049 . S
Zn266 O276 2.067 . S
Zn267 O268 1.962 . S
Zn267 O270 1.986 . S
Zn267 O272 1.996 . S
Zn267 O275 1.943 . S
O268 Zn267 1.962 . S
O268 C273 1.254 . S
O269 Zn266 2.031 . S
O269 C273 1.269 . S
O270 Zn267 1.986 . S
O270 C277 1.262 . S
O271 Zn266 2.049 . S
O271 C279 1.260 . S
O272 Zn267 1.996 . S
O272 C279 1.257 . S
C273 O268 1.254 . S
C273 O269 1.269 . S
C274 O275 1.249 . S
C274 O276 1.270 . S
O275 Zn267 1.943 . S
O275 C274 1.249 . S
O276 Zn266 2.067 . S
O276 C274 1.270 . S
C277 O270 1.262 . S
C277 O278 1.232 . S
O278 C277 1.232 . S
C279 O271 1.260 . S
C279 O272 1.257 . S
Zn280 O283 2.031 . S
Zn280 O285 2.049 . S
Zn280 O290 2.067 . S
Zn281 O282 1.962 . S
Zn281 O284 1.986 . S
Zn281 O286 1.996 . S
Zn281 O289 1.943 . S
O282 Zn281 1.962 . S
O282 C287 1.254 . S
O283 Zn280 2.031 . S
O283 C287 1.269 . S
O284 Zn281 1.986 . S
O284 C291 1.262 . S
O285 Zn280 2.049 . S
O285 C293 1.260 . S
O286 Zn281 1.996 . S
O286 C293 1.257 . S
C287 O282 1.254 . S
C287 O283 1.269 . S
C288 O289 1.249 . S
C288 O290 1.270 . S
O289 Zn281 1.943 . S
O289 C288 1.249 . S
O290 Zn280 2.067 . S
O290 C288 1.270 . S
C291 O284 1.262 . S
C291 O292 1.232 . S
O292 C291 1.232 . S
C293 O285 1.260 . S
C293 O286 1.257 . S
Zn294 O297 2.031 . S
Zn294 O299 2.049 . S
Zn294 O304 2.067 . S
Zn295 O296 1.962 . S
Zn295 O298 1.986 . S
Zn295 O300 1.996 . S
Zn295 O303 1.943 . S
O296 Zn295 1.962 . S
O296 C301 1.254 . S
O297 Zn294 2.031 . S
O297 C301 1.269 . S
O298 Zn295 1.986 . S
O298 C305 1.262 . S
O299 Zn294 2.049 . S
O299 C307 1.260 . S
O300 Zn295 1.996 . S
O300 C307 1.257 . S
C301 O296 1.254 . S
C301 O297 1.269 . S
C302 O303 1.249 . S
C302 O304 1.270 . S
O303 Zn295 1.943 . S
O303 C302 1.249 . S
O304 Zn294 2.067 . S
O304 C302 1.270 . S
C305 O298 1.262 . S
C305 O306 1.232 . S
O306 C305 1.232 . S
C307 O299 1.260 . S
C307 O300 1.257 . S
Zn308 O311 2.031 . S
Zn308 O313 2.049 . S
Zn308 O318 2.067 . S
Zn309 O310 1.962 . S
Zn309 O312 1.986 . S
Zn309 O314 1.996 . S
Zn309 O317 1.943 . S
O310 Zn309 1.962 . S
O310 C315 1.254 . S
O311 Zn308 2.031 . S
O311 C315 1.269 . S
O312 Zn309 1.986 . S
O312 C319 1.262 . S
O313 Zn308 2.049 . S
O313 C321 1.260 . S
O314 Zn309 1.996 . S
O314 C321 1.257 . S
C315 O310 1.254 . S
C315 O311 1.269 . S
C316 O317 1.249 . S
C316 O318 1.270 . S
O317 Zn309 1.943 . S
O317 C316 1.249 . S
O318 Zn308 2.067 . S
O318 C316 1.270 . S
C319 O312 1.262 . S
C319 O320 1.232 . S
O320 C319 1.232 . S
C321 O313 1.260 . S
C321 O314 1.257 . S
Zn322 O325 2.031 . S
Zn322 O327 2.049 . S
Zn322 O332 2.067 . S
Zn323 O324 1.962 . S
Zn323 O326 1.986 . S
Zn323 O328 1.996 . S
Zn323 O331 1.943 . S
O324 Zn323 1.962 . S
O324 C329 1.254 . S
O325 Zn322 2.031 . S
O325 C329 1.269 . S
O326 Zn323 1.986 . S
O326 C333 1.262 . S
O327 Zn322 2.049 . S
O327 C335 1.260 . S
O328 Zn323 1.996 . S
O328 C335 1.257 . S
C329 O324 1.254 . S
C329 O325 1.269 . S
C330 O331 1.249 . S
C330 O332 1.270 . S
O331 Zn323 1.943 . S
O331 C330 1.249 . S
O332 Zn322 2.067 . S
O332 C330 1.270 . S
C333 O326 1.262 . S
C333 O334 1.232 . S
O334 C333 1.232 . S
C335 O327 1.260 . S
C335 O328 1.257 . S
Zn336 O339 2.031 . S
Zn336 O341 2.049 . S
Zn336 O346 2.067 . S
Zn337 O338 1.962 . S
Zn337 O340 1.986 . S
Zn337 O342 1.996 . S
Zn337 O345 1.943 . S
O338 Zn337 1.962 . S
O338 C343 1.254 . S
O339 Zn336 2.031 . S
O339 C343 1.269 . S
O340 Zn337 1.986 . S
O340 C347 1.262 . S
O341 Zn336 2.049 . S
O341 C349 1.260 . S
O342 Zn337 1.996 . S
O342 C349 1.257 . S
C343 O338 1.254 . S
C343 O339 1.269 . S
C344 O345 1.249 . S
C344 O346 1.270 . S
O345 Zn337 1.943 . S
O345 C344 1.249 . S
O346 Zn336 2.067 . S
O346 C344 1.270 . S
C347 O340 1.262 . S
C347 O348 1.232 . S
O348 C347 1.232 . S
C349 O341 1.260 . S
C349 O342 1.257 . S
Zn350 O353 2.031 . S
Zn350 O355 2.049 . S
Zn350 O360 2.067 . S
Zn351 O352 1.962 . S
Zn351 O354 1.986 . S
Zn351 O356 1.996 . S
Zn351 O359 1.943 . S
O352 Zn351 1.962 . S
O352 C357 1.254 . S
O353 Zn350 2.031 . S
O353 C357 1.269 . S
O354 Zn351 1.986 . S
O354 C361 1.262 . S
O355 Zn350 2.049 . S
O355 C363 1.260 . S
O356 Zn351 1.996 . S
O356 C363 1.257 . S
C357 O352 1.254 . S
C357 O353 1.269 . S
C358 O359 1.249 . S
C358 O360 1.270 . S
O359 Zn351 1.943 . S
O359 C358 1.249 . S
O360 Zn350 2.067 . S
O360 C358 1.270 . S
C361 O354 1.262 . S
C361 O362 1.232 . S
O362 C361 1.232 . S
C363 O355 1.260 . S
C363 O356 1.257 . S
Zn364 O367 2.031 . S
Zn364 O369 2.049 . S
Zn364 O374 2.067 . S
Zn365 O366 1.962 . S
Zn365 O368 1.986 . S
Zn365 O370 1.996 . S
Zn365 O373 1.943 . S
O366 Zn365 1.962 . S
O366 C371 1.254 . S
O367 Zn364 2.031 . S
O367 C371 1.269 . S
O368 Zn365 1.986 . S
O368 C375 1.262 . S
O369 Zn364 2.049 . S
O369 C377 1.260 . S
O370 Zn365 1.996 . S
O370 C377 1.257 . S
C371 O366 1.254 . S
C371 O367 1.269 . S
C372 O373 1.249 . S
C372 O374 1.270 . S
O373 Zn365 1.943 . S
O373 C372 1.249 . S
O374 Zn364 2.067 . S
O374 C372 1.270 . S
C375 O368 1.262 . S
C375 O376 1.232 . S
O376 C375 1.232 . S
C377 O369 1.260 . S
C377 O370 1.257 . S
Zn378 O381 2.031 . S
Zn378 O383 2.049 . S
Zn378 O388 2.067 . S
Zn379 O380 1.962 . S
Zn379 O382 1.986 . S
Zn379 O384 1.996 . S
Zn379 O387 1.943 . S
O380 Zn379 1.962 . S
O380 C385 1.254 . S
O381 Zn378 2.031 . S
O381 C385 1.269 . S
O382 Zn379 1.986 . S
O382 C389 1.262 . S
O383 Zn378 2.049 . S
O383 C391 1.260 . S
O384 Zn379 1.996 . S
O384 C391 1.257 . S
C385 O380 1.254 . S
C385 O381 1.269 . S
C386 O387 1.249 . S
C386 O388 1.270 . S
O387 Zn379 1.943 . S
O387 C386 1.249 . S
O388 Zn378 2.067 . S
O388 C386 1.270 . S
C389 O382 1.262 . S
C389 O390 1.232 . S
O390 C389 1.232 . S
C391 O383 1.260 . S
C391 O384 1.257 . S
Zn392 O395 2.031 . S
Zn392 O397 2.049 . S
Zn392 O402 2.067 . S
Zn393 O394 1.962 . S
Zn393 O396 1.986 . S
Zn393 O398 1.996 . S
Zn393 O401 1.943 . S
O394 Zn393 1.962 . S
O394 C399 1.254 . S
O395 Zn392 2.031 . S
O395 C399 1.269 . S
O396 Zn393 1.986 . S
O396 C403 1.262 . S
O397 Zn392 2.049 . S
O397 C405 1.260 . S
O398 Zn393 1.996 . S
O398 C405 1.257 . S
C399 O394 1.254 . S
C399 O395 1.269 . S
C400 O401 1.249 . S
C400 O402 1.270 . S
O401 Zn393 1.943 . S
O401 C400 1.249 . S
O402 Zn392 2.067 . S
O402 C400 1.270 . S
C403 O396 1.262 . S
C403 O404 1.232 . S
O404 C403 1.232 . S
C405 O397 1.260 . S
C405 O398 1.257 . S
Zn406 O409 2.031 . S
Zn406 O411 2.049 . S
Zn406 O416 2.067 . S
Zn407 O408 1.962 . S
Zn407 O410 1.986 . S
Zn407 O412 1.996 . S
Zn407 O415 1.943 . S
O408 Zn407 1.962 . S
O408 C413 1.254 . S
O409 Zn406 2.031 . S
O409 C413 1.269 . S
O410 Zn407 1.986 . S
O410 C417 1.262 . S
O411 Zn406 2.049 . S
O411 C419 1.260 . S
O412 Zn407 1.996 . S
O412 C419 1.257 . S
C413 O408 1.254 . S
C413 O409 1.269 . S
C414 O415 1.249 . S
C414 O416 1.270 . S
O415 Zn407 1.943 . S
O415 C414 1.249 . S
O416 Zn406 2.067 . S
O416 C414 1.270 . S
C417 O410 1.262 . S
C417 O418 1.232 . S
O418 C417 1.232 . S
C419 O411 1.260 . S
C419 O412 1.257 . S
Zn420 O423 2.031 . S
Zn420 O425 2.049 . S
Zn420 O430 2.067 . S
Zn421 O422 1.962 . S
Zn421 O424 1.986 . S
Zn421 O426 1.996 . S
Zn421 O429 1.943 . S
O422 Zn421 1.962 . S
O422 C427 1.254 . S
O423 Zn420 2.031 . S
O423 C427 1.269 . S
O424 Zn421 1.986 . S
O424 C431 1.262 . S
O425 Zn420 2.049 . S
O425 C433 1.260 . S
O426 Zn421 1.996 . S
O426 C433 1.257 . S
C427 O422 1.254 . S
C427 O423 1.269 . S
C428 O429 1.249 . S
C428 O430 1.270 . S
O429 Zn421 1.943 . S
O429 C428 1.249 . S
O430 Zn420 2.067 . S
O430 C428 1.270 . S
C431 O424 1.262 . S
C431 O432 1.232 . S
O432 C431 1.232 . S
C433 O425 1.260 . S
C433 O426 1.257 . S
Zn434 O437 2.031 . S
Zn434 O439 2.049 . S
Zn434 O444 2.067 . S
Zn435 O436 1.962 . S
Zn435 O438 1.986 . S
Zn435 O440 1.996 . S
Zn435 O443 1.943 . S
O436 Zn435 1.962 . S
O436 C441 1.254 . S
O437 Zn434 2.031 . S
O437 C441 1.269 . S
O438 Zn435 1.986 . S
O438 C445 1.262 . S
O439 Zn434 2.049 . S
O439 C447 1.260 . S
O440 Zn435 1.996 . S
O440 C447 1.257 . S
C441 O436 1.254 . S
C441 O437 1.269 . S
C442 O443 1.249 . S
C442 O444 1.270 . S
O443 Zn435 1.943 . S
O443 C442 1.249 . S
O444 Zn434 2.067 . S
O444 C442 1.270 . S
C445 O438 1.262 . S
C445 O446 1.232 . S
O446 C445 1.232 . S
C447 O439 1.260 . S
C447 O440 1.257 . S
H448 C456 0.950 . S
H449 C461 0.950 . S
H450 C458 0.950 . S
H451 C460 0.950 . S
H452 C462 0.950 . S
H453 C464 0.950 . S
H454 C466 0.950 . S
H455 C467 0.950 . S
C456 H448 0.950 . S
C456 C457 1.386 . S
C456 C458 1.391 . S
C457 C456 1.386 . S
C457 C461 1.393 . S
C458 H450 0.950 . S
C458 C456 1.391 . S
C458 C459 1.400 . S
C459 C458 1.400 . S
C459 C460 1.398 . S
C459 C465 1.491 . S
C460 H451 0.950 . S
C460 C459 1.398 . S
C460 C461 1.391 . S
C461 H449 0.950 . S
C461 C457 1.393 . S
C461 C460 1.391 . S
C462 H452 0.950 . S
C462 C463 1.386 . S
C462 C464 1.391 . S
C463 C462 1.386 . S
C463 C467 1.393 . S
C464 H453 0.950 . S
C464 C462 1.391 . S
C464 C465 1.400 . S
C465 C459 1.491 . S
C465 C464 1.400 . S
C465 C466 1.398 . S
C466 H454 0.950 . S
C466 C465 1.398 . S
C466 C467 1.391 . S
C467 H455 0.950 . S
C467 C463 1.393 . S
C467 C466 1.391 . S
H468 C476 0.950 . S
H469 C481 0.950 . S
H470 C478 0.950 . S
H471 C480 0.950 . S
H472 C482 0.950 . S
H473 C484 0.950 . S
H474 C486 0.950 . S
H475 C487 0.950 . S
C476 H468 0.950 . S
C476 C477 1.386 . S
C476 C478 1.391 . S
C477 C476 1.386 . S
C477 C481 1.393 . S
C478 H470 0.950 . S
C478 C476 1.391 . S
C478 C479 1.400 . S
C479 C478 1.400 . S
C479 C480 1.398 . S
C479 C485 1.491 . S
C480 H471 0.950 . S
C480 C479 1.398 . S
C480 C481 1.391 . S
C481 H469 0.950 . S
C481 C477 1.393 . S
C481 C480 1.391 . S
C482 H472 0.950 . S
C482 C483 1.386 . S
C482 C484 1.391 . S
C483 C482 1.386 . S
C483 C487 1.393 . S
C484 H473 0.950 . S
C484 C482 1.391 . S
C484 C485 1.400 . S
C485 C479 1.491 . S
C485 C484 1.400 . S
C485 C486 1.398 . S
C486 H474 0.950 . S
C486 C485 1.398 . S
C486 C487 1.391 . S
C487 H475 0.950 . S
C487 C483 1.393 . S
C487 C486 1.391 . S
H488 C496 0.950 . S
H489 C501 0.950 . S
H490 C498 0.950 . S
H491 C500 0.950 . S
H492 C502 0.950 . S
H493 C504 0.950 . S
H494 C506 0.950 . S
H495 C507 0.950 . S
C496 H488 0.950 . S
C496 C497 1.386 . S
C496 C498 1.391 . S
C497 C496 1.386 . S
C497 C501 1.393 . S
C498 H490 0.950 . S
C498 C496 1.391 . S
C498 C499 1.400 . S
C499 C498 1.400 . S
C499 C500 1.398 . S
C499 C505 1.491 . S
C500 H491 0.950 . S
C500 C499 1.398 . S
C500 C501 1.391 . S
C501 H489 0.950 . S
C501 C497 1.393 . S
C501 C500 1.391 . S
C502 H492 0.950 . S
C502 C503 1.386 . S
C502 C504 1.391 . S
C503 C502 1.386 . S
C503 C507 1.393 . S
C504 H493 0.950 . S
C504 C502 1.391 . S
C504 C505 1.400 . S
C505 C499 1.491 . S
C505 C504 1.400 . S
C505 C506 1.398 . S
C506 H494 0.950 . S
C506 C505 1.398 . S
C506 C507 1.391 . S
C507 H495 0.950 . S
C507 C503 1.393 . S
C507 C506 1.391 . S
H508 C516 0.950 . S
H509 C521 0.950 . S
H510 C518 0.950 . S
H511 C520 0.950 . S
H512 C522 0.950 . S
H513 C524 0.950 . S
H514 C526 0.950 . S
H515 C527 0.950 . S
C516 H508 0.950 . S
C516 C517 1.386 . S
C516 C518 1.391 . S
C517 C516 1.386 . S
C517 C521 1.393 . S
C518 H510 0.950 . S
C518 C516 1.391 . S
C518 C519 1.400 . S
C519 C518 1.400 . S
C519 C520 1.398 . S
C519 C525 1.491 . S
C520 H511 0.950 . S
C520 C519 1.398 . S
C520 C521 1.391 . S
C521 H509 0.950 . S
C521 C517 1.393 . S
C521 C520 1.391 . S
C522 H512 0.950 . S
C522 C523 1.386 . S
C522 C524 1.391 . S
C523 C522 1.386 . S
C523 C527 1.393 . S
C524 H513 0.950 . S
C524 C522 1.391 . S
C524 C525 1.400 . S
C525 C519 1.491 . S
C525 C524 1.400 . S
C525 C526 1.398 . S
C526 H514 0.950 . S
C526 C525 1.398 . S
C526 C527 1.391 . S
C527 H515 0.950 . S
C527 C523 1.393 . S
C527 C526 1.391 . S
H528 C536 0.950 . S
H529 C541 0.950 . S
H530 C538 0.950 . S
H531 C540 0.950 . S
H532 C542 0.950 . S
H533 C544 0.950 . S
H534 C546 0.950 . S
H535 C547 0.950 . S
C536 H528 0.950 . S
C536 C537 1.386 . S
C536 C538 1.391 . S
C537 C536 1.386 . S
C537 C541 1.393 . S
C538 H530 0.950 . S
C538 C536 1.391 . S
C538 C539 1.400 . S
C539 C538 1.400 . S
C539 C540 1.398 . S
C539 C545 1.491 . S
C540 H531 0.950 . S
C540 C539 1.398 . S
C540 C541 1.391 . S
C541 H529 0.950 . S
C541 C537 1.393 . S
C541 C540 1.391 . S
C542 H532 0.950 . S
C542 C543 1.386 . S
C542 C544 1.391 . S
C543 C542 1.386 . S
C543 C547 1.393 . S
C544 H533 0.950 . S
C544 C542 1.391 . S
C544 C545 1.400 . S
C545 C539 1.491 . S
C545 C544 1.400 . S
C545 C546 1.398 . S
C546 H534 0.950 . S
C546 C545 1.398 . S
C546 C547 1.391 . S
C547 H535 0.950 . S
C547 C543 1.393 . S
C547 C546 1.391 . S
H548 C556 0.950 . S
H549 C561 0.950 . S
H550 C558 0.950 . S
H551 C560 0.950 . S
H552 C562 0.950 . S
H553 C564 0.950 . S
H554 C566 0.950 . S
H555 C567 0.950 . S
C556 H548 0.950 . S
C556 C557 1.386 . S
C556 C558 1.391 . S
C557 C556 1.386 . S
C557 C561 1.393 . S
C558 H550 0.950 . S
C558 C556 1.391 . S
C558 C559 1.400 . S
C559 C558 1.400 . S
C559 C560 1.398 . S
C559 C565 1.491 . S
C560 H551 0.950 . S
C560 C559 1.398 . S
C560 C561 1.391 . S
C561 H549 0.950 . S
C561 C557 1.393 . S
C561 C560 1.391 . S
C562 H552 0.950 . S
C562 C563 1.386 . S
C562 C564 1.391 . S
C563 C562 1.386 . S
C563 C567 1.393 . S
C564 H553 0.950 . S
C564 C562 1.391 . S
C564 C565 1.400 . S
C565 C559 1.491 . S
C565 C564 1.400 . S
C565 C566 1.398 . S
C566 H554 0.950 . S
C566 C565 1.398 . S
C566 C567 1.391 . S
C567 H555 0.950 . S
C567 C563 1.393 . S
C567 C566 1.391 . S
H568 C576 0.950 . S
H569 C581 0.950 . S
H570 C578 0.950 . S
H571 C580 0.950 . S
H572 C582 0.950 . S
H573 C584 0.950 . S
H574 C586 0.950 . S
H575 C587 0.950 . S
C576 H568 0.950 . S
C576 C577 1.386 . S
C576 C578 1.391 . S
C577 C576 1.386 . S
C577 C581 1.393 . S
C578 H570 0.950 . S
C578 C576 1.391 . S
C578 C579 1.400 . S
C579 C578 1.400 . S
C579 C580 1.398 . S
C579 C585 1.491 . S
C580 H571 0.950 . S
C580 C579 1.398 . S
C580 C581 1.391 . S
C581 H569 0.950 . S
C581 C577 1.393 . S
C581 C580 1.391 . S
C582 H572 0.950 . S
C582 C583 1.386 . S
C582 C584 1.391 . S
C583 C582 1.386 . S
C583 C587 1.393 . S
C584 H573 0.950 . S
C584 C582 1.391 . S
C584 C585 1.400 . S
C585 C579 1.491 . S
C585 C584 1.400 . S
C585 C586 1.398 . S
C586 H574 0.950 . S
C586 C585 1.398 . S
C586 C587 1.391 . S
C587 H575 0.950 . S
C587 C583 1.393 . S
C587 C586 1.391 . S
H588 C596 0.950 . S
H589 C601 0.950 . S
H590 C598 0.950 . S
H591 C600 0.950 . S
H592 C602 0.950 . S
H593 C604 0.950 . S
H594 C606 0.950 . S
H595 C607 0.950 . S
C596 H588 0.950 . S
C596 C597 1.386 . S
C596 C598 1.391 . S
C597 C596 1.386 . S
C597 C601 1.393 . S
C598 H590 0.950 . S
C598 C596 1.391 . S
C598 C599 1.400 . S
C599 C598 1.400 . S
C599 C600 1.398 . S
C599 C605 1.491 . S
C600 H591 0.950 . S
C600 C599 1.398 . S
C600 C601 1.391 . S
C601 H589 0.950 . S
C601 C597 1.393 . S
C601 C600 1.391 . S
C602 H592 0.950 . S
C602 C603 1.386 . S
C602 C604 1.391 . S
C603 C602 1.386 . S
C603 C607 1.393 . S
C604 H593 0.950 . S
C604 C602 1.391 . S
C604 C605 1.400 . S
C605 C599 1.491 . S
C605 C604 1.400 . S
C605 C606 1.398 . S
C606 H594 0.950 . S
C606 C605 1.398 . S
C606 C607 1.391 . S
C607 H595 0.950 . S
C607 C603 1.393 . S
C607 C606 1.391 . S
H608 C616 0.950 . S
H609 C621 0.950 . S
H610 C618 0.950 . S
H611 C620 0.950 . S
H612 C622 0.950 . S
H613 C624 0.950 . S
H614 C626 0.950 . S
H615 C627 0.950 . S
C616 H608 0.950 . S
C616 C617 1.386 . S
C616 C618 1.391 . S
C617 C616 1.386 . S
C617 C621 1.393 . S
C618 H610 0.950 . S
C618 C616 1.391 . S
C618 C619 1.400 . S
C619 C618 1.400 . S
C619 C620 1.398 . S
C619 C625 1.491 . S
C620 H611 0.950 . S
C620 C619 1.398 . S
C620 C621 1.391 . S
C621 H609 0.950 . S
C621 C617 1.393 . S
C621 C620 1.391 . S
C622 H612 0.950 . S
C622 C623 1.386 . S
C622 C624 1.391 . S
C623 C622 1.386 . S
C623 C627 1.393 . S
C624 H613 0.950 . S
C624 C622 1.391 . S
C624 C625 1.400 . S
C625 C619 1.491 . S
C625 C624 1.400 . S
C625 C626 1.398 . S
C626 H614 0.950 . S
C626 C625 1.398 . S
C626 C627 1.391 . S
C627 H615 0.950 . S
C627 C623 1.393 . S
C627 C626 1.391 . S
H628 C636 0.950 . S
H629 C641 0.950 . S
H630 C638 0.950 . S
H631 C640 0.950 . S
H632 C642 0.950 . S
H633 C644 0.950 . S
H634 C646 0.950 . S
H635 C647 0.950 . S
C636 H628 0.950 . S
C636 C637 1.386 . S
C636 C638 1.391 . S
C637 C636 1.386 . S
C637 C641 1.393 . S
C638 H630 0.950 . S
C638 C636 1.391 . S
C638 C639 1.400 . S
C639 C638 1.400 . S
C639 C640 1.398 . S
C639 C645 1.491 . S
C640 H631 0.950 . S
C640 C639 1.398 . S
C640 C641 1.391 . S
C641 H629 0.950 . S
C641 C637 1.393 . S
C641 C640 1.391 . S
C642 H632 0.950 . S
C642 C643 1.386 . S
C642 C644 1.391 . S
C643 C642 1.386 . S
C643 C647 1.393 . S
C644 H633 0.950 . S
C644 C642 1.391 . S
C644 C645 1.400 . S
C645 C639 1.491 . S
C645 C644 1.400 . S
C645 C646 1.398 . S
C646 H634 0.950 . S
C646 C645 1.398 . S
C646 C647 1.391 . S
C647 H635 0.950 . S
C647 C643 1.393 . S
C647 C646 1.391 . S
H648 C656 0.950 . S
H649 C661 0.950 . S
H650 C658 0.950 . S
H651 C660 0.950 . S
H652 C662 0.950 . S
H653 C664 0.950 . S
H654 C666 0.950 . S
H655 C667 0.950 . S
C656 H648 0.950 . S
C656 C657 1.386 . S
C656 C658 1.391 . S
C657 C656 1.386 . S
C657 C661 1.393 . S
C658 H650 0.950 . S
C658 C656 1.391 . S
C658 C659 1.400 . S
C659 C658 1.400 . S
C659 C660 1.398 . S
C659 C665 1.491 . S
C660 H651 0.950 . S
C660 C659 1.398 . S
C660 C661 1.391 . S
C661 H649 0.950 . S
C661 C657 1.393 . S
C661 C660 1.391 . S
C662 H652 0.950 . S
C662 C663 1.386 . S
C662 C664 1.391 . S
C663 C662 1.386 . S
C663 C667 1.393 . S
C664 H653 0.950 . S
C664 C662 1.391 . S
C664 C665 1.400 . S
C665 C659 1.491 . S
C665 C664 1.400 . S
C665 C666 1.398 . S
C666 H654 0.950 . S
C666 C665 1.398 . S
C666 C667 1.391 . S
C667 H655 0.950 . S
C667 C663 1.393 . S
C667 C666 1.391 . S
H668 C676 0.950 . S
H669 C681 0.950 . S
H670 C678 0.950 . S
H671 C680 0.950 . S
H672 C682 0.950 . S
H673 C684 0.950 . S
H674 C686 0.950 . S
H675 C687 0.950 . S
C676 H668 0.950 . S
C676 C677 1.386 . S
C676 C678 1.391 . S
C677 C676 1.386 . S
C677 C681 1.393 . S
C678 H670 0.950 . S
C678 C676 1.391 . S
C678 C679 1.400 . S
C679 C678 1.400 . S
C679 C680 1.398 . S
C679 C685 1.491 . S
C680 H671 0.950 . S
C680 C679 1.398 . S
C680 C681 1.391 . S
C681 H669 0.950 . S
C681 C677 1.393 . S
C681 C680 1.391 . S
C682 H672 0.950 . S
C682 C683 1.386 . S
C682 C684 1.391 . S
C683 C682 1.386 . S
C683 C687 1.393 . S
C684 H673 0.950 . S
C684 C682 1.391 . S
C684 C685 1.400 . S
C685 C679 1.491 . S
C685 C684 1.400 . S
C685 C686 1.398 . S
C686 H674 0.950 . S
C686 C685 1.398 . S
C686 C687 1.391 . S
C687 H675 0.950 . S
C687 C683 1.393 . S
C687 C686 1.391 . S
H688 C696 0.950 . S
H689 C701 0.950 . S
H690 C698 0.950 . S
H691 C700 0.950 . S
H692 C702 0.950 . S
H693 C704 0.950 . S
H694 C706 0.950 . S
H695 C707 0.950 . S
C696 H688 0.950 . S
C696 C697 1.386 . S
C696 C698 1.391 . S
C697 C696 1.386 . S
C697 C701 1.393 . S
C698 H690 0.950 . S
C698 C696 1.391 . S
C698 C699 1.400 . S
C699 C698 1.400 . S
C699 C700 1.398 . S
C699 C705 1.491 . S
C700 H691 0.950 . S
C700 C699 1.398 . S
C700 C701 1.391 . S
C701 H689 0.950 . S
C701 C697 1.393 . S
C701 C700 1.391 . S
C702 H692 0.950 . S
C702 C703 1.386 . S
C702 C704 1.391 . S
C703 C702 1.386 . S
C703 C707 1.393 . S
C704 H693 0.950 . S
C704 C702 1.391 . S
C704 C705 1.400 . S
C705 C699 1.491 . S
C705 C704 1.400 . S
C705 C706 1.398 . S
C706 H694 0.950 . S
C706 C705 1.398 . S
C706 C707 1.391 . S
C707 H695 0.950 . S
C707 C703 1.393 . S
C707 C706 1.391 . S
H708 C716 0.950 . S
H709 C721 0.950 . S
H710 C718 0.950 . S
H711 C720 0.950 . S
H712 C722 0.950 . S
H713 C724 0.950 . S
H714 C726 0.950 . S
H715 C727 0.950 . S
C716 H708 0.950 . S
C716 C717 1.386 . S
C716 C718 1.391 . S
C717 C716 1.386 . S
C717 C721 1.393 . S
C718 H710 0.950 . S
C718 C716 1.391 . S
C718 C719 1.400 . S
C719 C718 1.400 . S
C719 C720 1.398 . S
C719 C725 1.491 . S
C720 H711 0.950 . S
C720 C719 1.398 . S
C720 C721 1.391 . S
C721 H709 0.950 . S
C721 C717 1.393 . S
C721 C720 1.391 . S
C722 H712 0.950 . S
C722 C723 1.386 . S
C722 C724 1.391 . S
C723 C722 1.386 . S
C723 C727 1.393 . S
C724 H713 0.950 . S
C724 C722 1.391 . S
C724 C725 1.400 . S
C725 C719 1.491 . S
C725 C724 1.400 . S
C725 C726 1.398 . S
C726 H714 0.950 . S
C726 C725 1.398 . S
C726 C727 1.391 . S
C727 H715 0.950 . S
C727 C723 1.393 . S
C727 C726 1.391 . S
H728 C736 0.950 . S
H729 C741 0.950 . S
H730 C738 0.950 . S
H731 C740 0.950 . S
H732 C742 0.950 . S
H733 C744 0.950 . S
H734 C746 0.950 . S
H735 C747 0.950 . S
C736 H728 0.950 . S
C736 C737 1.386 . S
C736 C738 1.391 . S
C737 C736 1.386 . S
C737 C741 1.393 . S
C738 H730 0.950 . S
C738 C736 1.391 . S
C738 C739 1.400 . S
C739 C738 1.400 . S
C739 C740 1.398 . S
C739 C745 1.491 . S
C740 H731 0.950 . S
C740 C739 1.398 . S
C740 C741 1.391 . S
C741 H729 0.950 . S
C741 C737 1.393 . S
C741 C740 1.391 . S
C742 H732 0.950 . S
C742 C743 1.386 . S
C742 C744 1.391 . S
C743 C742 1.386 . S
C743 C747 1.393 . S
C744 H733 0.950 . S
C744 C742 1.391 . S
C744 C745 1.400 . S
C745 C739 1.491 . S
C745 C744 1.400 . S
C745 C746 1.398 . S
C746 H734 0.950 . S
C746 C745 1.398 . S
C746 C747 1.391 . S
C747 H735 0.950 . S
C747 C743 1.393 . S
C747 C746 1.391 . S
H748 C756 0.950 . S
H749 C761 0.950 . S
H750 C758 0.950 . S
H751 C760 0.950 . S
H752 C762 0.950 . S
H753 C764 0.950 . S
H754 C766 0.950 . S
H755 C767 0.950 . S
C756 H748 0.950 . S
C756 C757 1.386 . S
C756 C758 1.391 . S
C757 C756 1.386 . S
C757 C761 1.393 . S
C758 H750 0.950 . S
C758 C756 1.391 . S
C758 C759 1.400 . S
C759 C758 1.400 . S
C759 C760 1.398 . S
C759 C765 1.491 . S
C760 H751 0.950 . S
C760 C759 1.398 . S
C760 C761 1.391 . S
C761 H749 0.950 . S
C761 C757 1.393 . S
C761 C760 1.391 . S
C762 H752 0.950 . S
C762 C763 1.386 . S
C762 C764 1.391 . S
C763 C762 1.386 . S
C763 C767 1.393 . S
C764 H753 0.950 . S
C764 C762 1.391 . S
C764 C765 1.400 . S
C765 C759 1.491 . S
C765 C764 1.400 . S
C765 C766 1.398 . S
C766 H754 0.950 . S
C766 C765 1.398 . S
C766 C767 1.391 . S
C767 H755 0.950 . S
C767 C763 1.393 . S
C767 C766 1.391 . S
H768 C776 0.950 . S
H769 C781 0.950 . S
H770 C778 0.950 . S
H771 C780 0.950 . S
H772 C782 0.950 . S
H773 C784 0.950 . S
H774 C786 0.950 . S
H775 C787 0.950 . S
C776 H768 0.950 . S
C776 C777 1.386 . S
C776 C778 1.391 . S
C777 C776 1.386 . S
C777 C781 1.393 . S
C778 H770 0.950 . S
C778 C776 1.391 . S
C778 C779 1.400 . S
C779 C778 1.400 . S
C779 C780 1.398 . S
C779 C785 1.491 1_554 S
C780 H771 0.950 . S
C780 C779 1.398 . S
C780 C781 1.391 . S
C781 H769 0.950 . S
C781 C777 1.393 . S
C781 C780 1.391 . S
C782 H772 0.950 . S
C782 C783 1.386 . S
C782 C784 1.391 . S
C783 C782 1.386 . S
C783 C787 1.393 . S
C784 H773 0.950 . S
C784 C782 1.391 . S
C784 C785 1.400 . S
C785 C779 1.491 1_556 S
C785 C784 1.400 . S
C785 C786 1.398 . S
C786 H774 0.950 . S
C786 C785 1.398 . S
C786 C787 1.391 . S
C787 H775 0.950 . S
C787 C783 1.393 . S
C787 C786 1.391 . S
H788 C796 0.950 . S
H789 C801 0.950 . S
H790 C798 0.950 . S
H791 C800 0.950 . S
H792 C802 0.950 . S
H793 C804 0.950 . S
H794 C806 0.950 . S
H795 C807 0.950 . S
C796 H788 0.950 . S
C796 C797 1.386 . S
C796 C798 1.391 . S
C797 C796 1.386 . S
C797 C801 1.393 . S
C798 H790 0.950 . S
C798 C796 1.391 . S
C798 C799 1.400 . S
C799 C798 1.400 . S
C799 C800 1.398 . S
C799 C805 1.491 1_556 S
C800 H791 0.950 . S
C800 C799 1.398 . S
C800 C801 1.391 . S
C801 H789 0.950 . S
C801 C797 1.393 . S
C801 C800 1.391 . S
C802 H792 0.950 . S
C802 C803 1.386 . S
C802 C804 1.391 . S
C803 C802 1.386 . S
C803 C807 1.393 . S
C804 H793 0.950 . S
C804 C802 1.391 . S
C804 C805 1.400 . S
C805 C799 1.491 1_554 S
C805 C804 1.400 . S
C805 C806 1.398 . S
C806 H794 0.950 . S
C806 C805 1.398 . S
C806 C807 1.391 . S
C807 H795 0.950 . S
C807 C803 1.393 . S
C807 C806 1.391 . S
H808 C816 0.950 . S
H809 C821 0.950 . S
H810 C818 0.950 . S
H811 C820 0.950 . S
H812 C822 0.950 . S
H813 C824 0.950 . S
H814 C826 0.950 . S
H815 C827 0.950 . S
C816 H808 0.950 . S
C816 C817 1.386 . S
C816 C818 1.391 . S
C817 C816 1.386 . S
C817 C821 1.393 . S
C818 H810 0.950 . S
C818 C816 1.391 . S
C818 C819 1.400 . S
C819 C818 1.400 . S
C819 C820 1.398 . S
C819 C825 1.491 1_556 S
C820 H811 0.950 . S
C820 C819 1.398 . S
C820 C821 1.391 . S
C821 H809 0.950 . S
C821 C817 1.393 . S
C821 C820 1.391 . S
C822 H812 0.950 . S
C822 C823 1.386 . S
C822 C824 1.391 . S
C823 C822 1.386 . S
C823 C827 1.393 . S
C824 H813 0.950 . S
C824 C822 1.391 . S
C824 C825 1.400 . S
C825 C819 1.491 1_554 S
C825 C824 1.400 . S
C825 C826 1.398 . S
C826 H814 0.950 . S
C826 C825 1.398 . S
C826 C827 1.391 . S
C827 H815 0.950 . S
C827 C823 1.393 . S
C827 C826 1.391 . S
H828 C836 0.950 . S
H829 C841 0.950 . S
H830 C838 0.950 . S
H831 C840 0.950 . S
H832 C842 0.950 . S
H833 C844 0.950 . S
H834 C846 0.950 . S
H835 C847 0.950 . S
C836 H828 0.950 . S
C836 C837 1.386 . S
C836 C838 1.391 . S
C837 C836 1.386 . S
C837 C841 1.393 . S
C838 H830 0.950 . S
C838 C836 1.391 . S
C838 C839 1.400 . S
C839 C838 1.400 . S
C839 C840 1.398 . S
C839 C845 1.491 1_556 S
C840 H831 0.950 . S
C840 C839 1.398 . S
C840 C841 1.391 . S
C841 H829 0.950 . S
C841 C837 1.393 . S
C841 C840 1.391 . S
C842 H832 0.950 . S
C842 C843 1.386 . S
C842 C844 1.391 . S
C843 C842 1.386 . S
C843 C847 1.393 . S
C844 H833 0.950 . S
C844 C842 1.391 . S
C844 C845 1.400 . S
C845 C839 1.491 1_554 S
C845 C844 1.400 . S
C845 C846 1.398 . S
C846 H834 0.950 . S
C846 C845 1.398 . S
C846 C847 1.391 . S
C847 H835 0.950 . S
C847 C843 1.393 . S
C847 C846 1.391 . S
H848 C856 0.950 . S
H849 C861 0.950 . S
H850 C858 0.950 . S
H851 C860 0.950 . S
H852 C862 0.950 . S
H853 C864 0.950 . S
H854 C866 0.950 . S
H855 C867 0.950 . S
C856 H848 0.950 . S
C856 C857 1.386 . S
C856 C858 1.391 . S
C857 C856 1.386 . S
C857 C861 1.393 . S
C858 H850 0.950 . S
C858 C856 1.391 . S
C858 C859 1.400 . S
C859 C858 1.400 . S
C859 C860 1.398 . S
C859 C865 1.491 . S
C860 H851 0.950 . S
C860 C859 1.398 . S
C860 C861 1.391 . S
C861 H849 0.950 . S
C861 C857 1.393 . S
C861 C860 1.391 . S
C862 H852 0.950 . S
C862 C863 1.386 . S
C862 C864 1.391 . S
C863 C862 1.386 . S
C863 C867 1.393 . S
C864 H853 0.950 . S
C864 C862 1.391 . S
C864 C865 1.400 . S
C865 C859 1.491 . S
C865 C864 1.400 . S
C865 C866 1.398 . S
C866 H854 0.950 . S
C866 C865 1.398 . S
C866 C867 1.391 . S
C867 H855 0.950 . S
C867 C863 1.393 . S
C867 C866 1.391 . S
H868 C876 0.950 . S
H869 C881 0.950 . S
H870 C878 0.950 . S
H871 C880 0.950 . S
H872 C882 0.950 . S
H873 C884 0.950 . S
H874 C886 0.950 . S
H875 C887 0.950 . S
C876 H868 0.950 . S
C876 C877 1.386 . S
C876 C878 1.391 . S
C877 C876 1.386 . S
C877 C881 1.393 . S
C878 H870 0.950 . S
C878 C876 1.391 . S
C878 C879 1.400 . S
C879 C878 1.400 . S
C879 C880 1.398 . S
C879 C885 1.491 . S
C880 H871 0.950 . S
C880 C879 1.398 . S
C880 C881 1.391 . S
C881 H869 0.950 . S
C881 C877 1.393 . S
C881 C880 1.391 . S
C882 H872 0.950 . S
C882 C883 1.386 . S
C882 C884 1.391 . S
C883 C882 1.386 . S
C883 C887 1.393 . S
C884 H873 0.950 . S
C884 C882 1.391 . S
C884 C885 1.400 . S
C885 C879 1.491 . S
C885 C884 1.400 . S
C885 C886 1.398 . S
C886 H874 0.950 . S
C886 C885 1.398 . S
C886 C887 1.391 . S
C887 H875 0.950 . S
C887 C883 1.393 . S
C887 C886 1.391 . S
H888 C896 0.950 . S
H889 C901 0.950 . S
H890 C898 0.950 . S
H891 C900 0.950 . S
H892 C902 0.950 . S
H893 C904 0.950 . S
H894 C906 0.950 . S
H895 C907 0.950 . S
C896 H888 0.950 . S
C896 C897 1.386 . S
C896 C898 1.391 . S
C897 C896 1.386 . S
C897 C901 1.393 . S
C898 H890 0.950 . S
C898 C896 1.391 . S
C898 C899 1.400 . S
C899 C898 1.400 . S
C899 C900 1.398 . S
C899 C905 1.491 . S
C900 H891 0.950 . S
C900 C899 1.398 . S
C900 C901 1.391 . S
C901 H889 0.950 . S
C901 C897 1.393 . S
C901 C900 1.391 . S
C902 H892 0.950 . S
C902 C903 1.386 . S
C902 C904 1.391 . S
C903 C902 1.386 . S
C903 C907 1.393 . S
C904 H893 0.950 . S
C904 C902 1.391 . S
C904 C905 1.400 . S
C905 C899 1.491 . S
C905 C904 1.400 . S
C905 C906 1.398 . S
C906 H894 0.950 . S
C906 C905 1.398 . S
C906 C907 1.391 . S
C907 H895 0.950 . S
C907 C903 1.393 . S
C907 C906 1.391 . S
H908 C916 0.950 . S
H909 C921 0.950 . S
H910 C918 0.950 . S
H911 C920 0.950 . S
H912 C922 0.950 . S
H913 C924 0.950 . S
H914 C926 0.950 . S
H915 C927 0.950 . S
C916 H908 0.950 . S
C916 C917 1.386 . S
C916 C918 1.391 . S
C917 C916 1.386 . S
C917 C921 1.393 . S
C918 H910 0.950 . S
C918 C916 1.391 . S
C918 C919 1.400 . S
C919 C918 1.400 . S
C919 C920 1.398 . S
C919 C925 1.491 . S
C920 H911 0.950 . S
C920 C919 1.398 . S
C920 C921 1.391 . S
C921 H909 0.950 . S
C921 C917 1.393 . S
C921 C920 1.391 . S
C922 H912 0.950 . S
C922 C923 1.386 . S
C922 C924 1.391 . S
C923 C922 1.386 . S
C923 C927 1.393 . S
C924 H913 0.950 . S
C924 C922 1.391 . S
C924 C925 1.400 . S
C925 C919 1.491 . S
C925 C924 1.400 . S
C925 C926 1.398 . S
C926 H914 0.950 . S
C926 C925 1.398 . S
C926 C927 1.391 . S
C927 H915 0.950 . S
C927 C923 1.393 . S
C927 C926 1.391 . S
H928 C936 0.950 . S
H929 C941 0.950 . S
H930 C938 0.950 . S
H931 C940 0.950 . S
H932 C942 0.950 . S
H933 C944 0.950 . S
H934 C946 0.950 . S
H935 C947 0.950 . S
C936 H928 0.950 . S
C936 C937 1.386 . S
C936 C938 1.391 . S
C937 C936 1.386 . S
C937 C941 1.393 . S
C938 H930 0.950 . S
C938 C936 1.391 . S
C938 C939 1.400 . S
C939 C938 1.400 . S
C939 C940 1.398 . S
C939 C945 1.491 . S
C940 H931 0.950 . S
C940 C939 1.398 . S
C940 C941 1.391 . S
C941 H929 0.950 . S
C941 C937 1.393 . S
C941 C940 1.391 . S
C942 H932 0.950 . S
C942 C943 1.386 . S
C942 C944 1.391 . S
C943 C942 1.386 . S
C943 C947 1.393 . S
C944 H933 0.950 . S
C944 C942 1.391 . S
C944 C945 1.400 . S
C945 C939 1.491 . S
C945 C944 1.400 . S
C945 C946 1.398 . S
C946 H934 0.950 . S
C946 C945 1.398 . S
C946 C947 1.391 . S
C947 H935 0.950 . S
C947 C943 1.393 . S
C947 C946 1.391 . S
H948 C956 0.950 . S
H949 C961 0.950 . S
H950 C958 0.950 . S
H951 C960 0.950 . S
H952 C962 0.950 . S
H953 C964 0.950 . S
H954 C966 0.950 . S
H955 C967 0.950 . S
C956 H948 0.950 . S
C956 C957 1.386 . S
C956 C958 1.391 . S
C957 C956 1.386 . S
C957 C961 1.393 . S
C958 H950 0.950 . S
C958 C956 1.391 . S
C958 C959 1.400 . S
C959 C958 1.400 . S
C959 C960 1.398 . S
C959 C965 1.491 . S
C960 H951 0.950 . S
C960 C959 1.398 . S
C960 C961 1.391 . S
C961 H949 0.950 . S
C961 C957 1.393 . S
C961 C960 1.391 . S
C962 H952 0.950 . S
C962 C963 1.386 . S
C962 C964 1.391 . S
C963 C962 1.386 . S
C963 C967 1.393 . S
C964 H953 0.950 . S
C964 C962 1.391 . S
C964 C965 1.400 . S
C965 C959 1.491 . S
C965 C964 1.400 . S
C965 C966 1.398 . S
C966 H954 0.950 . S
C966 C965 1.398 . S
C966 C967 1.391 . S
C967 H955 0.950 . S
C967 C963 1.393 . S
C967 C966 1.391 . S
H968 C976 0.950 . S
H969 C981 0.950 . S
H970 C978 0.950 . S
H971 C980 0.950 . S
H972 C982 0.950 . S
H973 C984 0.950 . S
H974 C986 0.950 . S
H975 C987 0.950 . S
C976 H968 0.950 . S
C976 C977 1.386 . S
C976 C978 1.391 . S
C977 C976 1.386 . S
C977 C981 1.393 . S
C978 H970 0.950 . S
C978 C976 1.391 . S
C978 C979 1.400 . S
C979 C978 1.400 . S
C979 C980 1.398 . S
C979 C985 1.491 . S
C980 H971 0.950 . S
C980 C979 1.398 . S
C980 C981 1.391 . S
C981 H969 0.950 . S
C981 C977 1.393 . S
C981 C980 1.391 . S
C982 H972 0.950 . S
C982 C983 1.386 . S
C982 C984 1.391 . S
C983 C982 1.386 . S
C983 C987 1.393 . S
C984 H973 0.950 . S
C984 C982 1.391 . S
C984 C985 1.400 . S
C985 C979 1.491 . S
C985 C984 1.400 . S
C985 C986 1.398 . S
C986 H974 0.950 . S
C986 C985 1.398 . S
C986 C987 1.391 . S
C987 H975 0.950 . S
C987 C983 1.393 . S
C987 C986 1.391 . S
H988 C996 0.950 . S
H989 C1001 0.950 . S
H990 C998 0.950 . S
H991 C1000 0.950 . S
H992 C1002 0.950 . S
H993 C1004 0.950 . S
H994 C1006 0.950 . S
H995 C1007 0.950 . S
C996 H988 0.950 . S
C996 C997 1.386 . S
C996 C998 1.391 . S
C997 C996 1.386 . S
C997 C1001 1.393 . S
C998 H990 0.950 . S
C998 C996 1.391 . S
C998 C999 1.400 . S
C999 C998 1.400 . S
C999 C1000 1.398 . S
C999 C1005 1.491 . S
C1000 H991 0.950 . S
C1000 C999 1.398 . S
C1000 C1001 1.391 . S
C1001 H989 0.950 . S
C1001 C997 1.393 . S
C1001 C1000 1.391 . S
C1002 H992 0.950 . S
C1002 C1003 1.386 . S
C1002 C1004 1.391 . S
C1003 C1002 1.386 . S
C1003 C1007 1.393 . S
C1004 H993 0.950 . S
C1004 C1002 1.391 . S
C1004 C1005 1.400 . S
C1005 C999 1.491 . S
C1005 C1004 1.400 . S
C1005 C1006 1.398 . S
C1006 H994 0.950 . S
C1006 C1005 1.398 . S
C1006 C1007 1.391 . S
C1007 H995 0.950 . S
C1007 C1003 1.393 . S
C1007 C1006 1.391 . S
H1008 C1016 0.950 . S
H1009 C1021 0.950 . S
H1010 C1018 0.950 . S
H1011 C1020 0.950 . S
H1012 C1022 0.950 . S
H1013 C1024 0.950 . S
H1014 C1026 0.950 . S
H1015 C1027 0.950 . S
C1016 H1008 0.950 . S
C1016 C1017 1.386 . S
C1016 C1018 1.391 . S
C1017 C1016 1.386 . S
C1017 C1021 1.393 . S
C1018 H1010 0.950 . S
C1018 C1016 1.391 . S
C1018 C1019 1.400 . S
C1019 C1018 1.400 . S
C1019 C1020 1.398 . S
C1019 C1025 1.491 1_556 S
C1020 H1011 0.950 . S
C1020 C1019 1.398 . S
C1020 C1021 1.391 . S
C1021 H1009 0.950 . S
C1021 C1017 1.393 . S
C1021 C1020 1.391 . S
C1022 H1012 0.950 . S
C1022 C1023 1.386 . S
C1022 C1024 1.391 . S
C1023 C1022 1.386 . S
C1023 C1027 1.393 . S
C1024 H1013 0.950 . S
C1024 C1022 1.391 . S
C1024 C1025 1.400 . S
C1025 C1019 1.491 1_554 S
C1025 C1024 1.400 . S
C1025 C1026 1.398 . S
C1026 H1014 0.950 . S
C1026 C1025 1.398 . S
C1026 C1027 1.391 . S
C1027 H1015 0.950 . S
C1027 C1023 1.393 . S
C1027 C1026 1.391 . S
H1028 C1036 0.950 . S
H1029 C1041 0.950 . S
H1030 C1038 0.950 . S
H1031 C1040 0.950 . S
H1032 C1042 0.950 . S
H1033 C1044 0.950 . S
H1034 C1046 0.950 . S
H1035 C1047 0.950 . S
C1036 H1028 0.950 . S
C1036 C1037 1.386 . S
C1036 C1038 1.391 . S
C1037 C1036 1.386 . S
C1037 C1041 1.393 . S
C1038 H1030 0.950 . S
C1038 C1036 1.391 . S
C1038 C1039 1.400 . S
C1039 C1038 1.400 . S
C1039 C1040 1.398 . S
C1039 C1045 1.491 1_554 S
C1040 H1031 0.950 . S
C1040 C1039 1.398 . S
C1040 C1041 1.391 . S
C1041 H1029 0.950 . S
C1041 C1037 1.393 . S
C1041 C1040 1.391 . S
C1042 H1032 0.950 . S
C1042 C1043 1.386 . S
C1042 C1044 1.391 . S
C1043 C1042 1.386 . S
C1043 C1047 1.393 . S
C1044 H1033 0.950 . S
C1044 C1042 1.391 . S
C1044 C1045 1.400 . S
C1045 C1039 1.491 1_556 S
C1045 C1044 1.400 . S
C1045 C1046 1.398 . S
C1046 H1034 0.950 . S
C1046 C1045 1.398 . S
C1046 C1047 1.391 . S
C1047 H1035 0.950 . S
C1047 C1043 1.393 . S
C1047 C1046 1.391 . S
H1048 C1056 0.950 . S
H1049 C1061 0.950 . S
H1050 C1058 0.950 . S
H1051 C1060 0.950 . S
H1052 C1062 0.950 . S
H1053 C1064 0.950 . S
H1054 C1066 0.950 . S
H1055 C1067 0.950 . S
C1056 H1048 0.950 . S
C1056 C1057 1.386 . S
C1056 C1058 1.391 . S
C1057 C1056 1.386 . S
C1057 C1061 1.393 . S
C1058 H1050 0.950 . S
C1058 C1056 1.391 . S
C1058 C1059 1.400 . S
C1059 C1058 1.400 . S
C1059 C1060 1.398 . S
C1059 C1065 1.491 1_554 S
C1060 H1051 0.950 . S
C1060 C1059 1.398 . S
C1060 C1061 1.391 . S
C1061 H1049 0.950 . S
C1061 C1057 1.393 . S
C1061 C1060 1.391 . S
C1062 H1052 0.950 . S
C1062 C1063 1.386 . S
C1062 C1064 1.391 . S
C1063 C1062 1.386 . S
C1063 C1067 1.393 . S
C1064 H1053 0.950 . S
C1064 C1062 1.391 . S
C1064 C1065 1.400 . S
C1065 C1059 1.491 1_556 S
C1065 C1064 1.400 . S
C1065 C1066 1.398 . S
C1066 H1054 0.950 . S
C1066 C1065 1.398 . S
C1066 C1067 1.391 . S
C1067 H1055 0.950 . S
C1067 C1063 1.393 . S
C1067 C1066 1.391 . S
H1068 C1076 0.950 . S
H1069 C1081 0.950 . S
H1070 C1078 0.950 . S
H1071 C1080 0.950 . S
H1072 C1082 0.950 . S
H1073 C1084 0.950 . S
H1074 C1086 0.950 . S
H1075 C1087 0.950 . S
C1076 H1068 0.950 . S
C1076 C1077 1.386 . S
C1076 C1078 1.391 . S
C1077 C1076 1.386 . S
C1077 C1081 1.393 . S
C1078 H1070 0.950 . S
C1078 C1076 1.391 . S
C1078 C1079 1.400 . S
C1079 C1078 1.400 . S
C1079 C1080 1.398 . S
C1079 C1085 1.491 1_556 S
C1080 H1071 0.950 . S
C1080 C1079 1.398 . S
C1080 C1081 1.391 . S
C1081 H1069 0.950 . S
C1081 C1077 1.393 . S
C1081 C1080 1.391 . S
C1082 H1072 0.950 . S
C1082 C1083 1.386 . S
C1082 C1084 1.391 . S
C1083 C1082 1.386 . S
C1083 C1087 1.393 . S
C1084 H1073 0.950 . S
C1084 C1082 1.391 . S
C1084 C1085 1.400 . S
C1085 C1079 1.491 1_554 S
C1085 C1084 1.400 . S
C1085 C1086 1.398 . S
C1086 H1074 0.950 . S
C1086 C1085 1.398 . S
C1086 C1087 1.391 . S
C1087 H1075 0.950 . S
C1087 C1083 1.393 . S
C1087 C1086 1.391 . S
H1088 C1096 0.950 . S
H1089 C1101 0.950 . S
H1090 C1098 0.950 . S
H1091 C1100 0.950 . S
H1092 C1102 0.950 . S
H1093 C1104 0.950 . S
H1094 C1106 0.950 . S
H1095 C1107 0.950 . S
C1096 H1088 0.950 . S
C1096 C1097 1.386 . S
C1096 C1098 1.391 . S
C1097 C1096 1.386 . S
C1097 C1101 1.393 . S
C1098 H1090 0.950 . S
C1098 C1096 1.391 . S
C1098 C1099 1.400 . S
C1099 C1098 1.400 . S
C1099 C1100 1.398 . S
C1099 C1105 1.491 1_545 S
C1100 H1091 0.950 . S
C1100 C1099 1.398 . S
C1100 C1101 1.391 . S
C1101 H1089 0.950 . S
C1101 C1097 1.393 . S
C1101 C1100 1.391 . S
C1102 H1092 0.950 . S
C1102 C1103 1.386 . S
C1102 C1104 1.391 . S
C1103 C1102 1.386 . S
C1103 C1107 1.393 . S
C1104 H1093 0.950 . S
C1104 C1102 1.391 . S
C1104 C1105 1.400 . S
C1105 C1099 1.491 1_565 S
C1105 C1104 1.400 . S
C1105 C1106 1.398 . S
C1106 H1094 0.950 . S
C1106 C1105 1.398 . S
C1106 C1107 1.391 . S
C1107 H1095 0.950 . S
C1107 C1103 1.393 . S
C1107 C1106 1.391 . S
H1108 C1116 0.950 . S
H1109 C1121 0.950 . S
H1110 C1118 0.950 . S
H1111 C1120 0.925 1_455 S
H1112 C1122 0.950 . S
H1113 C1124 0.950 . S
H1114 C1126 0.925 1_655 S
H1115 C1127 0.950 . S
C1116 H1108 0.950 . S
C1116 C1117 1.386 . S
C1116 C1118 1.391 . S
C1117 C1116 1.386 . S
C1117 C1121 1.393 . S
C1118 H1110 0.950 . S
C1118 C1116 1.391 . S
C1118 C1119 1.400 . S
C1119 C1118 1.400 . S
C1119 C1120 1.398 . S
C1119 C1125 1.491 1_655 S
C1120 H1111 0.925 1_655 S
C1120 C1119 1.398 . S
C1120 C1121 1.391 . S
C1121 H1109 0.950 . S
C1121 C1117 1.393 . S
C1121 C1120 1.391 . S
C1122 H1112 0.950 . S
C1122 C1123 1.386 . S
C1122 C1124 1.391 . S
C1123 C1122 1.386 . S
C1123 C1127 1.393 . S
C1124 H1113 0.950 . S
C1124 C1122 1.391 . S
C1124 C1125 1.400 . S
C1125 C1119 1.491 1_455 S
C1125 C1124 1.400 . S
C1125 C1126 1.398 . S
C1126 H1114 0.925 1_455 S
C1126 C1125 1.398 . S
C1126 C1127 1.391 . S
C1127 H1115 0.950 . S
C1127 C1123 1.393 . S
C1127 C1126 1.391 . S
H1128 C1136 0.950 . S
H1129 C1141 0.950 . S
H1130 C1138 0.950 . S
H1131 C1140 0.950 . S
H1132 C1142 0.950 . S
H1133 C1144 0.950 . S
H1134 C1146 0.950 . S
H1135 C1147 0.950 . S
C1136 H1128 0.950 . S
C1136 C1137 1.386 . S
C1136 C1138 1.391 . S
C1137 C1136 1.386 . S
C1137 C1141 1.393 . S
C1138 H1130 0.950 . S
C1138 C1136 1.391 . S
C1138 C1139 1.400 . S
C1139 C1138 1.400 . S
C1139 C1140 1.398 . S
C1139 C1145 1.491 1_545 S
C1140 H1131 0.950 . S
C1140 C1139 1.398 . S
C1140 C1141 1.391 . S
C1141 H1129 0.950 . S
C1141 C1137 1.393 . S
C1141 C1140 1.391 . S
C1142 H1132 0.950 . S
C1142 C1143 1.386 . S
C1142 C1144 1.391 . S
C1143 C1142 1.386 . S
C1143 C1147 1.393 . S
C1144 H1133 0.950 . S
C1144 C1142 1.391 . S
C1144 C1145 1.400 . S
C1145 C1139 1.491 1_565 S
C1145 C1144 1.400 . S
C1145 C1146 1.398 . S
C1146 H1134 0.950 . S
C1146 C1145 1.398 . S
C1146 C1147 1.391 . S
C1147 H1135 0.950 . S
C1147 C1143 1.393 . S
C1147 C1146 1.391 . S
H1148 C1156 0.950 . S
H1149 C1161 0.950 . S
H1150 C1158 0.950 . S
H1151 C1160 0.950 . S
H1152 C1162 0.950 . S
H1153 C1164 0.950 . S
H1154 C1166 0.950 . S
H1155 C1167 0.950 . S
C1156 H1148 0.950 . S
C1156 C1157 1.386 . S
C1156 C1158 1.391 . S
C1157 C1156 1.386 . S
C1157 C1161 1.393 . S
C1158 H1150 0.950 . S
C1158 C1156 1.391 . S
C1158 C1159 1.400 . S
C1159 C1158 1.400 . S
C1159 C1160 1.398 . S
C1159 C1165 1.491 1_455 S
C1160 H1151 0.950 . S
C1160 C1159 1.398 . S
C1160 C1161 1.391 . S
C1161 H1149 0.950 . S
C1161 C1157 1.393 . S
C1161 C1160 1.391 . S
C1162 H1152 0.950 . S
C1162 C1163 1.386 . S
C1162 C1164 1.391 . S
C1163 C1162 1.386 . S
C1163 C1167 1.393 . S
C1164 H1153 0.950 . S
C1164 C1162 1.391 . S
C1164 C1165 1.400 . S
C1165 C1159 1.491 1_655 S
C1165 C1164 1.400 . S
C1165 C1166 1.398 . S
C1166 H1154 0.950 . S
C1166 C1165 1.398 . S
C1166 C1167 1.391 . S
C1167 H1155 0.950 . S
C1167 C1163 1.393 . S
C1167 C1166 1.391 . S
H1168 C1176 0.950 . S
H1169 C1181 0.950 . S
H1170 C1178 0.950 . S
H1171 C1180 0.950 . S
H1172 C1182 0.950 . S
H1173 C1184 0.950 . S
H1174 C1186 0.950 . S
H1175 C1187 0.950 . S
C1176 H1168 0.950 . S
C1176 C1177 1.386 . S
C1176 C1178 1.391 . S
C1177 C1176 1.386 . S
C1177 C1181 1.393 . S
C1178 H1170 0.950 . S
C1178 C1176 1.391 . S
C1178 C1179 1.400 . S
C1179 C1178 1.400 . S
C1179 C1180 1.398 . S
C1179 C1185 1.491 1_565 S
C1180 H1171 0.950 . S
C1180 C1179 1.398 . S
C1180 C1181 1.391 . S
C1181 H1169 0.950 . S
C1181 C1177 1.393 . S
C1181 C1180 1.391 . S
C1182 H1172 0.950 . S
C1182 C1183 1.386 . S
C1182 C1184 1.391 . S
C1183 C1182 1.386 . S
C1183 C1187 1.393 . S
C1184 H1173 0.950 . S
C1184 C1182 1.391 . S
C1184 C1185 1.400 . S
C1185 C1179 1.491 1_545 S
C1185 C1184 1.400 . S
C1185 C1186 1.398 . S
C1186 H1174 0.950 . S
C1186 C1185 1.398 . S
C1186 C1187 1.391 . S
C1187 H1175 0.950 . S
C1187 C1183 1.393 . S
C1187 C1186 1.391 . S
H1188 C1196 0.950 . S
H1189 C1201 0.950 . S
H1190 C1198 0.950 . S
H1191 C1200 0.950 1_455 S
H1192 C1202 0.950 . S
H1193 C1204 0.950 . S
H1194 C1206 0.950 1_655 S
H1195 C1207 0.950 . S
C1196 H1188 0.950 . S
C1196 C1197 1.386 . S
C1196 C1198 1.391 . S
C1197 C1196 1.386 . S
C1197 C1201 1.393 . S
C1198 H1190 0.950 . S
C1198 C1196 1.391 . S
C1198 C1199 1.400 . S
C1199 C1198 1.400 . S
C1199 C1200 1.398 . S
C1199 C1205 1.491 1_655 S
C1200 H1191 0.950 1_655 S
C1200 C1199 1.398 . S
C1200 C1201 1.391 . S
C1201 H1189 0.950 . S
C1201 C1197 1.393 . S
C1201 C1200 1.391 . S
C1202 H1192 0.950 . S
C1202 C1203 1.386 . S
C1202 C1204 1.391 . S
C1203 C1202 1.386 . S
C1203 C1207 1.393 . S
C1204 H1193 0.950 . S
C1204 C1202 1.391 . S
C1204 C1205 1.400 . S
C1205 C1199 1.491 1_455 S
C1205 C1204 1.400 . S
C1205 C1206 1.398 . S
C1206 H1194 0.950 1_455 S
C1206 C1205 1.398 . S
C1206 C1207 1.391 . S
C1207 H1195 0.950 . S
C1207 C1203 1.393 . S
C1207 C1206 1.391 . S
H1208 C1216 0.950 . S
H1209 C1221 0.950 . S
H1210 C1218 0.950 . S
H1211 C1220 0.950 . S
H1212 C1222 0.950 . S
H1213 C1224 0.950 . S
H1214 C1226 0.950 . S
H1215 C1227 0.950 . S
C1216 H1208 0.950 . S
C1216 C1217 1.386 . S
C1216 C1218 1.391 . S
C1217 C1216 1.386 . S
C1217 C1221 1.393 . S
C1218 H1210 0.950 . S
C1218 C1216 1.391 . S
C1218 C1219 1.400 . S
C1219 C1218 1.400 . S
C1219 C1220 1.398 . S
C1219 C1225 1.491 1_565 S
C1220 H1211 0.950 . S
C1220 C1219 1.398 . S
C1220 C1221 1.391 . S
C1221 H1209 0.950 . S
C1221 C1217 1.393 . S
C1221 C1220 1.391 . S
C1222 H1212 0.950 . S
C1222 C1223 1.386 . S
C1222 C1224 1.391 . S
C1223 C1222 1.386 . S
C1223 C1227 1.393 . S
C1224 H1213 0.950 . S
C1224 C1222 1.391 . S
C1224 C1225 1.400 . S
C1225 C1219 1.491 1_545 S
C1225 C1224 1.400 . S
C1225 C1226 1.398 . S
C1226 H1214 0.950 . S
C1226 C1225 1.398 . S
C1226 C1227 1.391 . S
C1227 H1215 0.950 . S
C1227 C1223 1.393 . S
C1227 C1226 1.391 . S
H1228 C1236 0.950 . S
H1229 C1241 0.950 . S
H1230 C1238 0.950 . S
H1231 C1240 0.902 1_455 S
H1232 C1242 0.950 . S
H1233 C1244 0.950 . S
H1234 C1246 0.902 1_655 S
H1235 C1247 0.950 . S
C1236 H1228 0.950 . S
C1236 C1237 1.386 . S
C1236 C1238 1.391 . S
C1237 C1236 1.386 . S
C1237 C1241 1.393 . S
C1238 H1230 0.950 . S
C1238 C1236 1.391 . S
C1238 C1239 1.400 . S
C1239 C1238 1.400 . S
C1239 C1240 1.398 . S
C1239 C1245 1.491 1_655 S
C1240 H1231 0.902 1_655 S
C1240 C1239 1.398 . S
C1240 C1241 1.391 . S
C1241 H1229 0.950 . S
C1241 C1237 1.393 . S
C1241 C1240 1.391 . S
C1242 H1232 0.950 . S
C1242 C1243 1.386 . S
C1242 C1244 1.391 . S
C1243 C1242 1.386 . S
C1243 C1247 1.393 . S
C1244 H1233 0.950 . S
C1244 C1242 1.391 . S
C1244 C1245 1.400 . S
C1245 C1239 1.491 1_455 S
C1245 C1244 1.400 . S
C1245 C1246 1.398 . S
C1246 H1234 0.902 1_455 S
C1246 C1245 1.398 . S
C1246 C1247 1.391 . S
C1247 H1235 0.950 . S
C1247 C1243 1.393 . S
C1247 C1246 1.391 . S
H1248 C1256 0.950 . S
H1249 C1261 0.950 . S
H1250 C1258 0.950 . S
H1251 C1260 0.950 . S
H1252 C1262 0.950 . S
H1253 C1264 0.950 . S
H1254 C1266 0.950 . S
H1255 C1267 0.950 . S
C1256 H1248 0.950 . S
C1256 C1257 1.386 . S
C1256 C1258 1.391 . S
C1257 C1256 1.386 . S
C1257 C1261 1.393 . S
C1258 H1250 0.950 . S
C1258 C1256 1.391 . S
C1258 C1259 1.400 . S
C1259 C1258 1.400 . S
C1259 C1260 1.398 . S
C1259 C1265 1.491 . S
C1260 H1251 0.950 . S
C1260 C1259 1.398 . S
C1260 C1261 1.391 . S
C1261 H1249 0.950 . S
C1261 C1257 1.393 . S
C1261 C1260 1.391 . S
C1262 H1252 0.950 . S
C1262 C1263 1.386 . S
C1262 C1264 1.391 . S
C1263 C1262 1.386 . S
C1263 C1267 1.393 . S
C1264 H1253 0.950 . S
C1264 C1262 1.391 . S
C1264 C1265 1.400 . S
C1265 C1259 1.491 . S
C1265 C1264 1.400 . S
C1265 C1266 1.398 . S
C1266 H1254 0.950 . S
C1266 C1265 1.398 . S
C1266 C1267 1.391 . S
C1267 H1255 0.950 . S
C1267 C1263 1.393 . S
C1267 C1266 1.391 . S
H1268 C1276 0.950 . S
H1269 C1281 0.950 . S
H1270 C1278 0.950 . S
H1271 C1280 0.950 . S
H1272 C1282 0.950 . S
H1273 C1284 0.950 . S
H1274 C1286 0.950 . S
H1275 C1287 0.950 . S
C1276 H1268 0.950 . S
C1276 C1277 1.386 . S
C1276 C1278 1.391 . S
C1277 C1276 1.386 . S
C1277 C1281 1.393 . S
C1278 H1270 0.950 . S
C1278 C1276 1.391 . S
C1278 C1279 1.400 . S
C1279 C1278 1.400 . S
C1279 C1280 1.398 . S
C1279 C1285 1.491 . S
C1280 H1271 0.950 . S
C1280 C1279 1.398 . S
C1280 C1281 1.391 . S
C1281 H1269 0.950 . S
C1281 C1277 1.393 . S
C1281 C1280 1.391 . S
C1282 H1272 0.950 . S
C1282 C1283 1.386 . S
C1282 C1284 1.391 . S
C1283 C1282 1.386 . S
C1283 C1287 1.393 . S
C1284 H1273 0.950 . S
C1284 C1282 1.391 . S
C1284 C1285 1.400 . S
C1285 C1279 1.491 . S
C1285 C1284 1.400 . S
C1285 C1286 1.398 . S
C1286 H1274 0.950 . S
C1286 C1285 1.398 . S
C1286 C1287 1.391 . S
C1287 H1275 0.950 . S
C1287 C1283 1.393 . S
C1287 C1286 1.391 . S
H1288 C1296 0.950 . S
H1289 C1301 0.950 . S
H1290 C1298 0.950 . S
H1291 C1300 0.950 . S
H1292 C1302 0.950 . S
H1293 C1304 0.950 . S
H1294 C1306 0.950 . S
H1295 C1307 0.950 . S
C1296 H1288 0.950 . S
C1296 C1297 1.386 . S
C1296 C1298 1.391 . S
C1297 C1296 1.386 . S
C1297 C1301 1.393 . S
C1298 H1290 0.950 . S
C1298 C1296 1.391 . S
C1298 C1299 1.400 . S
C1299 C1298 1.400 . S
C1299 C1300 1.398 . S
C1299 C1305 1.491 . S
C1300 H1291 0.950 . S
C1300 C1299 1.398 . S
C1300 C1301 1.391 . S
C1301 H1289 0.950 . S
C1301 C1297 1.393 . S
C1301 C1300 1.391 . S
C1302 H1292 0.950 . S
C1302 C1303 1.386 . S
C1302 C1304 1.391 . S
C1303 C1302 1.386 . S
C1303 C1307 1.393 . S
C1304 H1293 0.950 . S
C1304 C1302 1.391 . S
C1304 C1305 1.400 . S
C1305 C1299 1.491 . S
C1305 C1304 1.400 . S
C1305 C1306 1.398 . S
C1306 H1294 0.950 . S
C1306 C1305 1.398 . S
C1306 C1307 1.391 . S
C1307 H1295 0.950 . S
C1307 C1303 1.393 . S
C1307 C1306 1.391 . S
H1308 C1316 0.950 . S
H1309 C1321 0.950 . S
H1310 C1318 0.950 . S
H1311 C1320 0.950 . S
H1312 C1322 0.950 . S
H1313 C1324 0.950 . S
H1314 C1326 0.950 . S
H1315 C1327 0.950 . S
C1316 H1308 0.950 . S
C1316 C1317 1.386 . S
C1316 C1318 1.391 . S
C1317 C1316 1.386 . S
C1317 C1321 1.393 . S
C1318 H1310 0.950 . S
C1318 C1316 1.391 . S
C1318 C1319 1.400 . S
C1319 C1318 1.400 . S
C1319 C1320 1.398 . S
C1319 C1325 1.491 . S
C1320 H1311 0.950 . S
C1320 C1319 1.398 . S
C1320 C1321 1.391 . S
C1321 H1309 0.950 . S
C1321 C1317 1.393 . S
C1321 C1320 1.391 . S
C1322 H1312 0.950 . S
C1322 C1323 1.386 . S
C1322 C1324 1.391 . S
C1323 C1322 1.386 . S
C1323 C1327 1.393 . S
C1324 H1313 0.950 . S
C1324 C1322 1.391 . S
C1324 C1325 1.400 . S
C1325 C1319 1.491 . S
C1325 C1324 1.400 . S
C1325 C1326 1.398 . S
C1326 H1314 0.950 . S
C1326 C1325 1.398 . S
C1326 C1327 1.391 . S
C1327 H1315 0.950 . S
C1327 C1323 1.393 . S
C1327 C1326 1.391 . S
H1328 C1336 0.950 . S
H1329 C1341 0.950 . S
H1330 C1338 0.950 . S
H1331 C1340 0.950 . S
H1332 C1342 0.950 . S
H1333 C1344 0.950 . S
H1334 C1346 0.950 . S
H1335 C1347 0.950 . S
C1336 H1328 0.950 . S
C1336 C1337 1.386 . S
C1336 C1338 1.391 . S
C1337 C1336 1.386 . S
C1337 C1341 1.393 . S
C1338 H1330 0.950 . S
C1338 C1336 1.391 . S
C1338 C1339 1.400 . S
C1339 C1338 1.400 . S
C1339 C1340 1.398 . S
C1339 C1345 1.491 . S
C1340 H1331 0.950 . S
C1340 C1339 1.398 . S
C1340 C1341 1.391 . S
C1341 H1329 0.950 . S
C1341 C1337 1.393 . S
C1341 C1340 1.391 . S
C1342 H1332 0.950 . S
C1342 C1343 1.386 . S
C1342 C1344 1.391 . S
C1343 C1342 1.386 . S
C1343 C1347 1.393 . S
C1344 H1333 0.950 . S
C1344 C1342 1.391 . S
C1344 C1345 1.400 . S
C1345 C1339 1.491 . S
C1345 C1344 1.400 . S
C1345 C1346 1.398 . S
C1346 H1334 0.950 . S
C1346 C1345 1.398 . S
C1346 C1347 1.391 . S
C1347 H1335 0.950 . S
C1347 C1343 1.393 . S
C1347 C1346 1.391 . S
H1348 C1356 0.950 . S
H1349 C1361 0.950 . S
H1350 C1358 0.950 . S
H1351 C1360 0.950 . S
H1352 C1362 0.950 . S
H1353 C1364 0.950 . S
H1354 C1366 0.950 . S
H1355 C1367 0.950 . S
C1356 H1348 0.950 . S
C1356 C1357 1.386 . S
C1356 C1358 1.391 . S
C1357 C1356 1.386 . S
C1357 C1361 1.393 . S
C1358 H1350 0.950 . S
C1358 C1356 1.391 . S
C1358 C1359 1.400 . S
C1359 C1358 1.400 . S
C1359 C1360 1.398 . S
C1359 C1365 1.491 . S
C1360 H1351 0.950 . S
C1360 C1359 1.398 . S
C1360 C1361 1.391 . S
C1361 H1349 0.950 . S
C1361 C1357 1.393 . S
C1361 C1360 1.391 . S
C1362 H1352 0.950 . S
C1362 C1363 1.386 . S
C1362 C1364 1.391 . S
C1363 C1362 1.386 . S
C1363 C1367 1.393 . S
C1364 H1353 0.950 . S
C1364 C1362 1.391 . S
C1364 C1365 1.400 . S
C1365 C1359 1.491 . S
C1365 C1364 1.400 . S
C1365 C1366 1.398 . S
C1366 H1354 0.950 . S
C1366 C1365 1.398 . S
C1366 C1367 1.391 . S
C1367 H1355 0.950 . S
C1367 C1363 1.393 . S
C1367 C1366 1.391 . S
H1368 C1376 0.950 . S
H1369 C1381 0.950 . S
H1370 C1378 0.950 . S
H1371 C1380 0.950 . S
H1372 C1382 0.950 . S
H1373 C1384 0.950 . S
H1374 C1386 0.950 . S
H1375 C1387 0.950 . S
C1376 H1368 0.950 . S
C1376 C1377 1.386 . S
C1376 C1378 1.391 . S
C1377 C1376 1.386 . S
C1377 C1381 1.393 . S
C1378 H1370 0.950 . S
C1378 C1376 1.391 . S
C1378 C1379 1.400 . S
C1379 C1378 1.400 . S
C1379 C1380 1.398 . S
C1379 C1385 1.491 . S
C1380 H1371 0.950 . S
C1380 C1379 1.398 . S
C1380 C1381 1.391 . S
C1381 H1369 0.950 . S
C1381 C1377 1.393 . S
C1381 C1380 1.391 . S
C1382 H1372 0.950 . S
C1382 C1383 1.386 . S
C1382 C1384 1.391 . S
C1383 C1382 1.386 . S
C1383 C1387 1.393 . S
C1384 H1373 0.950 . S
C1384 C1382 1.391 . S
C1384 C1385 1.400 . S
C1385 C1379 1.491 . S
C1385 C1384 1.400 . S
C1385 C1386 1.398 . S
C1386 H1374 0.950 . S
C1386 C1385 1.398 . S
C1386 C1387 1.391 . S
C1387 H1375 0.950 . S
C1387 C1383 1.393 . S
C1387 C1386 1.391 . S
H1388 C1396 0.950 . S
H1389 C1401 0.950 . S
H1390 C1398 0.950 . S
H1391 C1400 0.950 . S
H1392 C1402 0.950 . S
H1393 C1404 0.950 . S
H1394 C1406 0.950 . S
H1395 C1407 0.950 . S
C1396 H1388 0.950 . S
C1396 C1397 1.386 . S
C1396 C1398 1.391 . S
C1397 C1396 1.386 . S
C1397 C1401 1.393 . S
C1398 H1390 0.950 . S
C1398 C1396 1.391 . S
C1398 C1399 1.400 . S
C1399 C1398 1.400 . S
C1399 C1400 1.398 . S
C1399 C1405 1.491 . S
C1400 H1391 0.950 . S
C1400 C1399 1.398 . S
C1400 C1401 1.391 . S
C1401 H1389 0.950 . S
C1401 C1397 1.393 . S
C1401 C1400 1.391 . S
C1402 H1392 0.950 . S
C1402 C1403 1.386 . S
C1402 C1404 1.391 . S
C1403 C1402 1.386 . S
C1403 C1407 1.393 . S
C1404 H1393 0.950 . S
C1404 C1402 1.391 . S
C1404 C1405 1.400 . S
C1405 C1399 1.491 . S
C1405 C1404 1.400 . S
C1405 C1406 1.398 . S
C1406 H1394 0.950 . S
C1406 C1405 1.398 . S
C1406 C1407 1.391 . S
C1407 H1395 0.950 . S
C1407 C1403 1.393 . S
C1407 C1406 1.391 . S
H1408 C1416 0.950 . S
H1409 C1421 0.950 . S
H1410 C1418 0.950 . S
H1411 C1420 0.950 . S
H1412 C1422 0.950 . S
H1413 C1424 0.950 . S
H1414 C1426 0.950 . S
H1415 C1427 0.950 . S
C1416 H1408 0.950 . S
C1416 C1417 1.386 . S
C1416 C1418 1.391 . S
C1417 C1416 1.386 . S
C1417 C1421 1.393 . S
C1418 H1410 0.950 . S
C1418 C1416 1.391 . S
C1418 C1419 1.400 . S
C1419 C1418 1.400 . S
C1419 C1420 1.398 . S
C1419 C1425 1.491 . S
C1420 H1411 0.950 . S
C1420 C1419 1.398 . S
C1420 C1421 1.391 . S
C1421 H1409 0.950 . S
C1421 C1417 1.393 . S
C1421 C1420 1.391 . S
C1422 H1412 0.950 . S
C1422 C1423 1.386 . S
C1422 C1424 1.391 . S
C1423 C1422 1.386 . S
C1423 C1427 1.393 . S
C1424 H1413 0.950 . S
C1424 C1422 1.391 . S
C1424 C1425 1.400 . S
C1425 C1419 1.491 . S
C1425 C1424 1.400 . S
C1425 C1426 1.398 . S
C1426 H1414 0.950 . S
C1426 C1425 1.398 . S
C1426 C1427 1.391 . S
C1427 H1415 0.950 . S
C1427 C1423 1.393 . S
C1427 C1426 1.391 . S
H1428 C1436 0.950 . S
H1429 C1441 0.950 . S
H1430 C1438 0.950 . S
H1431 C1440 0.950 . S
H1432 C1442 0.950 . S
H1433 C1444 0.950 . S
H1434 C1446 0.950 . S
H1435 C1447 0.950 . S
C1436 H1428 0.950 . S
C1436 C1437 1.386 . S
C1436 C1438 1.391 . S
C1437 C1436 1.386 . S
C1437 C1441 1.393 . S
C1438 H1430 0.950 . S
C1438 C1436 1.391 . S
C1438 C1439 1.400 . S
C1439 C1438 1.400 . S
C1439 C1440 1.398 . S
C1439 C1445 1.491 . S
C1440 H1431 0.950 . S
C1440 C1439 1.398 . S
C1440 C1441 1.391 . S
C1441 H1429 0.950 . S
C1441 C1437 1.393 . S
C1441 C1440 1.391 . S
C1442 H1432 0.950 . S
C1442 C1443 1.386 . S
C1442 C1444 1.391 . S
C1443 C1442 1.386 . S
C1443 C1447 1.393 . S
C1444 H1433 0.950 . S
C1444 C1442 1.391 . S
C1444 C1445 1.400 . S
C1445 C1439 1.491 . S
C1445 C1444 1.400 . S
C1445 C1446 1.398 . S
C1446 H1434 0.950 . S
C1446 C1445 1.398 . S
C1446 C1447 1.391 . S
C1447 H1435 0.950 . S
C1447 C1443 1.393 . S
C1447 C1446 1.391 . S
H1448 C1456 0.950 . S
H1449 C1461 0.950 . S
H1450 C1458 0.950 . S
H1451 C1460 0.950 . S
H1452 C1462 0.950 . S
H1453 C1464 0.950 . S
H1454 C1466 0.950 . S
H1455 C1467 0.950 . S
C1456 H1448 0.950 . S
C1456 C1457 1.386 . S
C1456 C1458 1.391 . S
C1457 C1456 1.386 . S
C1457 C1461 1.393 . S
C1458 H1450 0.950 . S
C1458 C1456 1.391 . S
C1458 C1459 1.400 . S
C1459 C1458 1.400 . S
C1459 C1460 1.398 . S
C1459 C1465 1.491 . S
C1460 H1451 0.950 . S
C1460 C1459 1.398 . S
C1460 C1461 1.391 . S
C1461 H1449 0.950 . S
C1461 C1457 1.393 . S
C1461 C1460 1.391 . S
C1462 H1452 0.950 . S
C1462 C1463 1.386 . S
C1462 C1464 1.391 . S
C1463 C1462 1.386 . S
C1463 C1467 1.393 . S
C1464 H1453 0.950 . S
C1464 C1462 1.391 . S
C1464 C1465 1.400 . S
C1465 C1459 1.491 . S
C1465 C1464 1.400 . S
C1465 C1466 1.398 . S
C1466 H1454 0.950 . S
C1466 C1465 1.398 . S
C1466 C1467 1.391 . S
C1467 H1455 0.950 . S
C1467 C1463 1.393 . S
C1467 C1466 1.391 . S
H1468 C1476 0.950 . S
H1469 C1481 0.950 . S
H1470 C1478 0.950 . S
H1471 C1480 0.950 . S
H1472 C1482 0.950 . S
H1473 C1484 0.950 . S
H1474 C1486 0.950 . S
H1475 C1487 0.950 . S
C1476 H1468 0.950 . S
C1476 C1477 1.386 . S
C1476 C1478 1.391 . S
C1477 C1476 1.386 . S
C1477 C1481 1.393 . S
C1478 H1470 0.950 . S
C1478 C1476 1.391 . S
C1478 C1479 1.400 . S
C1479 C1478 1.400 . S
C1479 C1480 1.398 . S
C1479 C1485 1.491 . S
C1480 H1471 0.950 . S
C1480 C1479 1.398 . S
C1480 C1481 1.391 . S
C1481 H1469 0.950 . S
C1481 C1477 1.393 . S
C1481 C1480 1.391 . S
C1482 H1472 0.950 . S
C1482 C1483 1.386 . S
C1482 C1484 1.391 . S
C1483 C1482 1.386 . S
C1483 C1487 1.393 . S
C1484 H1473 0.950 . S
C1484 C1482 1.391 . S
C1484 C1485 1.400 . S
C1485 C1479 1.491 . S
C1485 C1484 1.400 . S
C1485 C1486 1.398 . S
C1486 H1474 0.950 . S
C1486 C1485 1.398 . S
C1486 C1487 1.391 . S
C1487 H1475 0.950 . S
C1487 C1483 1.393 . S
C1487 C1486 1.391 . S
H1488 C1496 0.950 . S
H1489 C1501 0.950 . S
H1490 C1498 0.950 . S
H1491 C1500 0.950 . S
H1492 C1502 0.950 . S
H1493 C1504 0.950 . S
H1494 C1506 0.950 . S
H1495 C1507 0.950 . S
C1496 H1488 0.950 . S
C1496 C1497 1.386 . S
C1496 C1498 1.391 . S
C1497 C1496 1.386 . S
C1497 C1501 1.393 . S
C1498 H1490 0.950 . S
C1498 C1496 1.391 . S
C1498 C1499 1.400 . S
C1499 C1498 1.400 . S
C1499 C1500 1.398 . S
C1499 C1505 1.491 . S
C1500 H1491 0.950 . S
C1500 C1499 1.398 . S
C1500 C1501 1.391 . S
C1501 H1489 0.950 . S
C1501 C1497 1.393 . S
C1501 C1500 1.391 . S
C1502 H1492 0.950 . S
C1502 C1503 1.386 . S
C1502 C1504 1.391 . S
C1503 C1502 1.386 . S
C1503 C1507 1.393 . S
C1504 H1493 0.950 . S
C1504 C1502 1.391 . S
C1504 C1505 1.400 . S
C1505 C1499 1.491 . S
C1505 C1504 1.400 . S
C1505 C1506 1.398 . S
C1506 H1494 0.950 . S
C1506 C1505 1.398 . S
C1506 C1507 1.391 . S
C1507 H1495 0.950 . S
C1507 C1503 1.393 . S
C1507 C1506 1.391 . S
H1508 C1516 0.950 . S
H1509 C1521 0.950 . S
H1510 C1518 0.950 . S
H1511 C1520 0.950 . S
H1512 C1522 0.950 . S
H1513 C1524 0.950 . S
H1514 C1526 0.950 . S
H1515 C1527 0.950 . S
C1516 H1508 0.950 . S
C1516 C1517 1.386 . S
C1516 C1518 1.391 . S
C1517 C1516 1.386 . S
C1517 C1521 1.393 . S
C1518 H1510 0.950 . S
C1518 C1516 1.391 . S
C1518 C1519 1.400 . S
C1519 C1518 1.400 . S
C1519 C1520 1.398 . S
C1519 C1525 1.491 . S
C1520 H1511 0.950 . S
C1520 C1519 1.398 . S
C1520 C1521 1.391 . S
C1521 H1509 0.950 . S
C1521 C1517 1.393 . S
C1521 C1520 1.391 . S
C1522 H1512 0.950 . S
C1522 C1523 1.386 . S
C1522 C1524 1.391 . S
C1523 C1522 1.386 . S
C1523 C1527 1.393 . S
C1524 H1513 0.950 . S
C1524 C1522 1.391 . S
C1524 C1525 1.400 . S
C1525 C1519 1.491 . S
C1525 C1524 1.400 . S
C1525 C1526 1.398 . S
C1526 H1514 0.950 . S
C1526 C1525 1.398 . S
C1526 C1527 1.391 . S
C1527 H1515 0.950 . S
C1527 C1523 1.393 . S
C1527 C1526 1.391 . S
H1528 C1536 0.950 . S
H1529 C1541 0.950 . S
H1530 C1538 0.950 . S
H1531 C1540 0.950 . S
H1532 C1542 0.950 . S
H1533 C1544 0.950 . S
H1534 C1546 0.950 . S
H1535 C1547 0.950 . S
C1536 H1528 0.950 . S
C1536 C1537 1.386 . S
C1536 C1538 1.391 . S
C1537 C1536 1.386 . S
C1537 C1541 1.393 . S
C1538 H1530 0.950 . S
C1538 C1536 1.391 . S
C1538 C1539 1.400 . S
C1539 C1538 1.400 . S
C1539 C1540 1.398 . S
C1539 C1545 1.491 . S
C1540 H1531 0.950 . S
C1540 C1539 1.398 . S
C1540 C1541 1.391 . S
C1541 H1529 0.950 . S
C1541 C1537 1.393 . S
C1541 C1540 1.391 . S
C1542 H1532 0.950 . S
C1542 C1543 1.386 . S
C1542 C1544 1.391 . S
C1543 C1542 1.386 . S
C1543 C1547 1.393 . S
C1544 H1533 0.950 . S
C1544 C1542 1.391 . S
C1544 C1545 1.400 . S
C1545 C1539 1.491 . S
C1545 C1544 1.400 . S
C1545 C1546 1.398 . S
C1546 H1534 0.950 . S
C1546 C1545 1.398 . S
C1546 C1547 1.391 . S
C1547 H1535 0.950 . S
C1547 C1543 1.393 . S
C1547 C1546 1.391 . S
H1548 C1556 0.950 . S
H1549 C1561 0.950 . S
H1550 C1558 0.950 . S
H1551 C1560 0.950 . S
H1552 C1562 0.950 . S
H1553 C1564 0.950 . S
H1554 C1566 0.950 . S
H1555 C1567 0.950 . S
C1556 H1548 0.950 . S
C1556 C1557 1.386 . S
C1556 C1558 1.391 . S
C1557 C1556 1.386 . S
C1557 C1561 1.393 . S
C1558 H1550 0.950 . S
C1558 C1556 1.391 . S
C1558 C1559 1.400 . S
C1559 C1558 1.400 . S
C1559 C1560 1.398 . S
C1559 C1565 1.491 . S
C1560 H1551 0.950 . S
C1560 C1559 1.398 . S
C1560 C1561 1.391 . S
C1561 H1549 0.950 . S
C1561 C1557 1.393 . S
C1561 C1560 1.391 . S
C1562 H1552 0.950 . S
C1562 C1563 1.386 . S
C1562 C1564 1.391 . S
C1563 C1562 1.386 . S
C1563 C1567 1.393 . S
C1564 H1553 0.950 . S
C1564 C1562 1.391 . S
C1564 C1565 1.400 . S
C1565 C1559 1.491 . S
C1565 C1564 1.400 . S
C1565 C1566 1.398 . S
C1566 H1554 0.950 . S
C1566 C1565 1.398 . S
C1566 C1567 1.391 . S
C1567 H1555 0.950 . S
C1567 C1563 1.393 . S
C1567 C1566 1.391 . S
H1568 C1576 0.950 . S
H1569 C1581 0.950 . S
H1570 C1578 0.950 . S
H1571 C1580 0.950 . S
H1572 C1582 0.950 . S
H1573 C1584 0.950 . S
H1574 C1586 0.950 . S
H1575 C1587 0.950 . S
C1576 H1568 0.950 . S
C1576 C1577 1.386 . S
C1576 C1578 1.391 . S
C1577 C1576 1.386 . S
C1577 C1581 1.393 . S
C1578 H1570 0.950 . S
C1578 C1576 1.391 . S
C1578 C1579 1.400 . S
C1579 C1578 1.400 . S
C1579 C1580 1.398 . S
C1579 C1585 1.491 . S
C1580 H1571 0.950 . S
C1580 C1579 1.398 . S
C1580 C1581 1.391 . S
C1581 H1569 0.950 . S
C1581 C1577 1.393 . S
C1581 C1580 1.391 . S
C1582 H1572 0.950 . S
C1582 C1583 1.386 . S
C1582 C1584 1.391 . S
C1583 C1582 1.386 . S
C1583 C1587 1.393 . S
C1584 H1573 0.950 . S
C1584 C1582 1.391 . S
C1584 C1585 1.400 . S
C1585 C1579 1.491 . S
C1585 C1584 1.400 . S
C1585 C1586 1.398 . S
C1586 H1574 0.950 . S
C1586 C1585 1.398 . S
C1586 C1587 1.391 . S
C1587 H1575 0.950 . S
C1587 C1583 1.393 . S
C1587 C1586 1.391 . S
H1588 C1596 0.950 . S
H1589 C1601 0.950 . S
H1590 C1598 0.950 . S
H1591 C1600 0.950 . S
H1592 C1602 0.950 . S
H1593 C1604 0.950 . S
H1594 C1606 0.950 . S
H1595 C1607 0.950 . S
C1596 H1588 0.950 . S
C1596 C1597 1.386 . S
C1596 C1598 1.391 . S
C1597 C1596 1.386 . S
C1597 C1601 1.393 . S
C1598 H1590 0.950 . S
C1598 C1596 1.391 . S
C1598 C1599 1.400 . S
C1599 C1598 1.400 . S
C1599 C1600 1.398 . S
C1599 C1605 1.491 . S
C1600 H1591 0.950 . S
C1600 C1599 1.398 . S
C1600 C1601 1.391 . S
C1601 H1589 0.950 . S
C1601 C1597 1.393 . S
C1601 C1600 1.391 . S
C1602 H1592 0.950 . S
C1602 C1603 1.386 . S
C1602 C1604 1.391 . S
C1603 C1602 1.386 . S
C1603 C1607 1.393 . S
C1604 H1593 0.950 . S
C1604 C1602 1.391 . S
C1604 C1605 1.400 . S
C1605 C1599 1.491 . S
C1605 C1604 1.400 . S
C1605 C1606 1.398 . S
C1606 H1594 0.950 . S
C1606 C1605 1.398 . S
C1606 C1607 1.391 . S
C1607 H1595 0.950 . S
C1607 C1603 1.393 . S
C1607 C1606 1.391 . S
H1608 C1616 0.950 . S
H1609 C1621 0.950 . S
H1610 C1618 0.950 . S
H1611 C1620 0.950 . S
H1612 C1622 0.950 . S
H1613 C1624 0.950 . S
H1614 C1626 0.950 . S
H1615 C1627 0.950 . S
C1616 H1608 0.950 . S
C1616 C1617 1.386 . S
C1616 C1618 1.391 . S
C1617 C1616 1.386 . S
C1617 C1621 1.393 . S
C1618 H1610 0.950 . S
C1618 C1616 1.391 . S
C1618 C1619 1.400 . S
C1619 C1618 1.400 . S
C1619 C1620 1.398 . S
C1619 C1625 1.491 . S
C1620 H1611 0.950 . S
C1620 C1619 1.398 . S
C1620 C1621 1.391 . S
C1621 H1609 0.950 . S
C1621 C1617 1.393 . S
C1621 C1620 1.391 . S
C1622 H1612 0.950 . S
C1622 C1623 1.386 . S
C1622 C1624 1.391 . S
C1623 C1622 1.386 . S
C1623 C1627 1.393 . S
C1624 H1613 0.950 . S
C1624 C1622 1.391 . S
C1624 C1625 1.400 . S
C1625 C1619 1.491 . S
C1625 C1624 1.400 . S
C1625 C1626 1.398 . S
C1626 H1614 0.950 . S
C1626 C1625 1.398 . S
C1626 C1627 1.391 . S
C1627 H1615 0.950 . S
C1627 C1623 1.393 . S
C1627 C1626 1.391 . S
H1628 C1636 0.950 . S
H1629 C1641 0.950 . S
H1630 C1638 0.950 . S
H1631 C1640 0.950 . S
H1632 C1642 0.950 . S
H1633 C1644 0.950 . S
H1634 C1646 0.950 . S
H1635 C1647 0.950 . S
C1636 H1628 0.950 . S
C1636 C1637 1.386 . S
C1636 C1638 1.391 . S
C1637 C1636 1.386 . S
C1637 C1641 1.393 . S
C1638 H1630 0.950 . S
C1638 C1636 1.391 . S
C1638 C1639 1.400 . S
C1639 C1638 1.400 . S
C1639 C1640 1.398 . S
C1639 C1645 1.491 . S
C1640 H1631 0.950 . S
C1640 C1639 1.398 . S
C1640 C1641 1.391 . S
C1641 H1629 0.950 . S
C1641 C1637 1.393 . S
C1641 C1640 1.391 . S
C1642 H1632 0.950 . S
C1642 C1643 1.386 . S
C1642 C1644 1.391 . S
C1643 C1642 1.386 . S
C1643 C1647 1.393 . S
C1644 H1633 0.950 . S
C1644 C1642 1.391 . S
C1644 C1645 1.400 . S
C1645 C1639 1.491 . S
C1645 C1644 1.400 . S
C1645 C1646 1.398 . S
C1646 H1634 0.950 . S
C1646 C1645 1.398 . S
C1646 C1647 1.391 . S
C1647 H1635 0.950 . S
C1647 C1643 1.393 . S
C1647 C1646 1.391 . S
H1648 C1656 0.950 . S
H1649 C1661 0.950 . S
H1650 C1658 0.950 . S
H1651 C1660 0.950 . S
H1652 C1662 0.950 . S
H1653 C1664 0.950 . S
H1654 C1666 0.950 . S
H1655 C1667 0.950 . S
C1656 H1648 0.950 . S
C1656 C1657 1.386 . S
C1656 C1658 1.391 . S
C1657 C1656 1.386 . S
C1657 C1661 1.393 . S
C1658 H1650 0.950 . S
C1658 C1656 1.391 . S
C1658 C1659 1.400 . S
C1659 C1658 1.400 . S
C1659 C1660 1.398 . S
C1659 C1665 1.491 . S
C1660 H1651 0.950 . S
C1660 C1659 1.398 . S
C1660 C1661 1.391 . S
C1661 H1649 0.950 . S
C1661 C1657 1.393 . S
C1661 C1660 1.391 . S
C1662 H1652 0.950 . S
C1662 C1663 1.386 . S
C1662 C1664 1.391 . S
C1663 C1662 1.386 . S
C1663 C1667 1.393 . S
C1664 H1653 0.950 . S
C1664 C1662 1.391 . S
C1664 C1665 1.400 . S
C1665 C1659 1.491 . S
C1665 C1664 1.400 . S
C1665 C1666 1.398 . S
C1666 H1654 0.950 . S
C1666 C1665 1.398 . S
C1666 C1667 1.391 . S
C1667 H1655 0.950 . S
C1667 C1663 1.393 . S
C1667 C1666 1.391 . S
H1668 C1676 0.950 . S
H1669 C1681 0.950 . S
H1670 C1678 0.950 . S
H1671 C1680 0.950 . S
H1672 C1682 0.950 . S
H1673 C1684 0.950 . S
H1674 C1686 0.950 . S
H1675 C1687 0.950 . S
C1676 H1668 0.950 . S
C1676 C1677 1.386 . S
C1676 C1678 1.391 . S
C1677 C1676 1.386 . S
C1677 C1681 1.393 . S
C1678 H1670 0.950 . S
C1678 C1676 1.391 . S
C1678 C1679 1.400 . S
C1679 C1678 1.400 . S
C1679 C1680 1.398 . S
C1679 C1685 1.491 . S
C1680 H1671 0.950 . S
C1680 C1679 1.398 . S
C1680 C1681 1.391 . S
C1681 H1669 0.950 . S
C1681 C1677 1.393 . S
C1681 C1680 1.391 . S
C1682 H1672 0.950 . S
C1682 C1683 1.386 . S
C1682 C1684 1.391 . S
C1683 C1682 1.386 . S
C1683 C1687 1.393 . S
C1684 H1673 0.950 . S
C1684 C1682 1.391 . S
C1684 C1685 1.400 . S
C1685 C1679 1.491 . S
C1685 C1684 1.400 . S
C1685 C1686 1.398 . S
C1686 H1674 0.950 . S
C1686 C1685 1.398 . S
C1686 C1687 1.391 . S
C1687 H1675 0.950 . S
C1687 C1683 1.393 . S
C1687 C1686 1.391 . S
H1688 C1696 0.950 . S
H1689 C1701 0.950 . S
H1690 C1698 0.950 . S
H1691 C1700 0.950 . S
H1692 C1702 0.950 . S
H1693 C1704 0.950 . S
H1694 C1706 0.950 . S
H1695 C1707 0.950 . S
C1696 H1688 0.950 . S
C1696 C1697 1.386 . S
C1696 C1698 1.391 . S
C1697 C1696 1.386 . S
C1697 C1701 1.393 . S
C1698 H1690 0.950 . S
C1698 C1696 1.391 . S
C1698 C1699 1.400 . S
C1699 C1698 1.400 . S
C1699 C1700 1.398 . S
C1699 C1705 1.491 . S
C1700 H1691 0.950 . S
C1700 C1699 1.398 . S
C1700 C1701 1.391 . S
C1701 H1689 0.950 . S
C1701 C1697 1.393 . S
C1701 C1700 1.391 . S
C1702 H1692 0.950 . S
C1702 C1703 1.386 . S
C1702 C1704 1.391 . S
C1703 C1702 1.386 . S
C1703 C1707 1.393 . S
C1704 H1693 0.950 . S
C1704 C1702 1.391 . S
C1704 C1705 1.400 . S
C1705 C1699 1.491 . S
C1705 C1704 1.400 . S
C1705 C1706 1.398 . S
C1706 H1694 0.950 . S
C1706 C1705 1.398 . S
C1706 C1707 1.391 . S
C1707 H1695 0.950 . S
C1707 C1703 1.393 . S
C1707 C1706 1.391 . S
H1708 C1716 0.950 . S
H1709 C1721 0.950 . S
H1710 C1718 0.950 . S
H1711 C1720 0.950 . S
H1712 C1722 0.950 . S
H1713 C1724 0.950 . S
H1714 C1726 0.950 . S
H1715 C1727 0.950 . S
C1716 H1708 0.950 . S
C1716 C1717 1.386 . S
C1716 C1718 1.391 . S
C1717 C1716 1.386 . S
C1717 C1721 1.393 . S
C1718 H1710 0.950 . S
C1718 C1716 1.391 . S
C1718 C1719 1.400 . S
C1719 C1718 1.400 . S
C1719 C1720 1.398 . S
C1719 C1725 1.491 . S
C1720 H1711 0.950 . S
C1720 C1719 1.398 . S
C1720 C1721 1.391 . S
C1721 H1709 0.950 . S
C1721 C1717 1.393 . S
C1721 C1720 1.391 . S
C1722 H1712 0.950 . S
C1722 C1723 1.386 . S
C1722 C1724 1.391 . S
C1723 C1722 1.386 . S
C1723 C1727 1.393 . S
C1724 H1713 0.950 . S
C1724 C1722 1.391 . S
C1724 C1725 1.400 . S
C1725 C1719 1.491 . S
C1725 C1724 1.400 . S
C1725 C1726 1.398 . S
C1726 H1714 0.950 . S
C1726 C1725 1.398 . S
C1726 C1727 1.391 . S
C1727 H1715 0.950 . S
C1727 C1723 1.393 . S
C1727 C1726 1.391 . S
C457 C414 1.290 . S
C463 C8 1.261 . S
C477 C22 1.272 . S
C483 C428 1.280 . S
C497 C442 1.286 . S
C503 C36 1.265 . S
C517 C400 1.286 . S
C523 C50 1.265 . S
C537 C64 1.259 . S
C543 C386 1.292 . S
C557 C344 1.286 . S
C563 C78 1.265 . S
C577 C92 1.263 . S
C583 C358 1.287 . S
C597 C372 1.285 . S
C603 C106 1.266 . S
C617 C120 1.291 . S
C623 C302 1.260 . S
C637 C134 1.269 . S
C643 C316 1.282 . S
C657 C330 1.281 . S
C663 C148 1.270 . S
C677 C162 1.279 . S
C683 C288 1.272 . S
C697 C274 1.291 . S
C703 C176 1.260 . S
C717 C232 1.288 . S
C723 C190 1.263 . S
C737 C204 1.281 . S
C743 C246 1.270 . S
C757 C218 1.271 . S
C763 C260 1.280 . S
C777 C7 1.423 . S
C783 C147 1.429 . S
C797 C161 1.419 . S
C803 C21 1.432 . S
C817 C119 1.428 . S
C823 C35 1.424 . S
C837 C133 1.432 . S
C843 C49 1.419 . S
C857 C63 1.431 . S
C863 C203 1.421 . S
C877 C217 1.432 . S
C883 C77 1.419 . S
C897 C175 1.422 . S
C903 C91 1.429 . S
C917 C189 1.423 . S
C923 C105 1.428 . S
C937 C231 1.431 . S
C943 C371 1.420 . S
C957 C385 1.428 . S
C963 C245 1.423 . S
C977 C343 1.418 . S
C983 C259 1.433 . S
C997 C273 1.424 . S
C1003 C357 1.427 . S
C1017 C287 1.426 . S
C1023 C427 1.425 . S
C1037 C441 1.431 . S
C1043 C301 1.420 . S
C1057 C399 1.419 . S
C1063 C315 1.433 . S
C1077 C329 1.425 . S
C1083 C413 1.426 . S
C1097 C11 1.261 . S
C1103 C67 1.262 . S
C1117 C25 1.264 . S
C1123 C81 1.267 . S
C1137 C95 1.270 . S
C1143 C39 1.270 . S
C1157 C53 1.263 . S
C1163 C109 1.261 . S
C1177 C123 1.261 . S
C1183 C179 1.263 . S
C1197 C193 1.267 . S
C1203 C137 1.264 . S
C1217 C207 1.261 . S
C1223 C151 1.261 . S
C1237 C165 1.265 . S
C1243 C221 1.263 . S
C1257 C235 1.262 . S
C1263 C291 1.261 . S
C1277 C305 1.262 . S
C1283 C249 1.261 . S
C1297 C263 1.269 . S
C1303 C319 1.270 . S
C1317 C333 1.262 . S
C1323 C277 1.265 . S
C1337 C403 1.268 . S
C1343 C347 1.270 . S
C1357 C361 1.270 . S
C1363 C417 1.268 . S
C1377 C375 1.270 . S
C1383 C431 1.270 . S
C1397 C389 1.261 . S
C1403 C445 1.262 . S
C1417 C13 1.393 . S
C1423 C83 1.377 . S
C1437 C27 1.378 . S
C1443 C97 1.397 . S
C1457 C111 1.386 . S
C1463 C41 1.409 . S
C1477 C69 1.413 . S
C1483 C55 1.395 . S
C1497 C195 1.414 . S
C1503 C125 1.401 . S
C1517 C209 1.390 . S
C1523 C139 1.377 . S
C1537 C223 1.414 . S
C1543 C153 1.403 . S
C1557 C167 1.381 . S
C1563 C181 1.381 . S
C1577 C237 1.388 . S
C1583 C307 1.377 . S
C1597 C321 1.411 . S
C1603 C251 1.409 . S
C1617 C335 1.394 . S
C1623 C265 1.377 . S
C1637 C279 1.378 . S
C1643 C293 1.384 . S
C1657 C419 1.414 . S
C1663 C349 1.400 . S
C1677 C363 1.411 . S
C1683 C433 1.389 . S
C1697 C377 1.412 . S
C1703 C447 1.392 . S
C1717 C405 1.410 . S
C1723 C391 1.388 . S
