# Generated by pormake.
# Topology lon, (4)-cn, num edge types: 1
# Building blocks:
#     Node 0, Type 0, BuildingBlock: ICAMEG_clean_sbu_1, # of connection points: 4
#     Node 1, Type 0, BuildingBlock: ICAMEG_clean_sbu_1, # of connection points: 4
#     Node 2, Type 0, BuildingBlock: ICAMEG_clean_sbu_1, # of connection points: 4
#     Node 3, Type 0, BuildingBlock: ICAMEG_clean_sbu_1, # of connection points: 4
#     Edge 4, Type (0, 0), BuildingBlock: XUDNAN_clean_linker_2, # of connection points: 2
#     Edge 5, Type (0, 0), BuildingBlock: XUDNAN_clean_linker_2, # of connection points: 2
#     Edge 6, Type (0, 0), BuildingBlock: XUDNAN_clean_linker_2, # of connection points: 2
#     Edge 7, Type (0, 0), BuildingBlock: XUDNAN_clean_linker_2, # of connection points: 2
#     Edge 8, Type (0, 0), BuildingBlock: XUDNAN_clean_linker_2, # of connection points: 2
#     Edge 9, Type (0, 0), BuildingBlock: XUDNAN_clean_linker_2, # of connection points: 2
#     Edge 10, Type (0, 0), BuildingBlock: XUDNAN_clean_linker_2, # of connection points: 2
#     Edge 11, Type (0, 0), BuildingBlock: XUDNAN_clean_linker_2, # of connection points: 2
# Relax obj value: 0.243
# Max RMSD: 0.269
# Mean RMSD: 0.258
data_MOF--net-lon--node1-ICAMEG_clean_sbu_1--edge1-XUDNAN_clean_linker_2
_symmetry_space_group_name_H-M    P1
_symmetry_Int_Tables_number       1
_symmetry_cell_setting            triclinic
loop_
_symmetry_equiv_pos_as_xyz
'x, y, z'
_cell_length_a     22.189486
_cell_length_b     26.008213
_cell_length_c     43.770444
_cell_angle_alpha  93.142311
_cell_angle_beta   89.505908
_cell_angle_gamma 115.49634
loop_
_atom_site_label
_atom_site_type_symbol
_atom_site_fract_x
_atom_site_fract_y
_atom_site_fract_z
_atom_type_partial_charge
Co0 Co 0.36375 0.70404 0.05034 0.0
Co1 Co 0.36196 0.64764 0.11994 0.0
O2 O 0.38629 0.71397 0.09455 0.0
C3 C 0.49968 0.80708 0.05591 0.0
O4 O 0.50584 0.80098 0.08511 0.0
C5 C 0.34308 0.73676 0.16226 0.0
O6 O 0.35313 0.77176 0.1403 0.0
O7 O 0.2666 0.61912 0.10733 0.0
O8 O 0.2769 0.63613 0.05747 0.0
H9 H 0.24393 0.43936 0.14026 0.0
H10 H 0.39582 0.81557 0.08447 0.0
O11 O 0.44869 0.77203 0.04048 0.0
H12 H 0.17313 0.75814 0.03807 0.0
H13 H 0.34671 0.76884 0.9456 0.0
H14 H 0.30641 0.6034 1.00648 0.0
H15 H 0.23291 0.69803 0.02968 0.0
H16 H 0.37437 0.78223 1.00077 0.0
O17 O 0.34505 0.68888 0.15692 0.0
H18 H 0.27775 0.52342 0.10925 0.0
H19 H 0.39205 0.63113 0.18416 0.0
H20 H 0.27714 0.58806 0.95145 0.0
H21 H 0.33864 0.87764 0.09294 0.0
H22 H 0.29733 0.67117 0.92062 0.0
H23 H 0.22618 0.849 0.0698 0.0
O24 O 0.41096 0.65394 0.04373 0.0
H25 H 0.58638 0.7958 0.15807 0.0
H26 H 0.45683 0.59442 0.12286 0.0
H27 H 0.57532 0.62866 0.1375 0.0
H28 H 0.64094 0.72999 0.15541 0.0
H29 H 0.46815 0.76001 0.14278 0.0
H30 H 0.35877 0.54836 0.21606 0.0
H31 H 0.28445 0.45155 0.19409 0.0
O32 O 0.37725 0.60217 0.08494 0.0
C33 C 0.24211 0.61192 0.08034 0.0
C34 C 0.27656 0.48129 0.15005 0.0
C35 C 0.34095 0.54245 0.19261 0.0
N36 N 0.33731 0.5821 0.14474 0.0
C37 C 0.29606 0.52903 0.13257 0.0
C38 C 0.35951 0.5892 0.17443 0.0
C39 C 0.29925 0.48816 0.18027 0.0
C40 C 0.34742 0.80292 0.074 0.0
N41 N 0.31799 0.75295 0.05658 0.0
C42 C 0.31502 0.83821 0.07902 0.0
C43 C 0.25189 0.82209 0.06609 0.0
C44 C 0.22208 0.77111 0.04834 0.0
C45 C 0.25603 0.73695 0.04383 0.0
C46 C 0.33763 0.73229 0.9588 0.0
C47 C 0.31501 0.63977 0.99326 0.0
C48 C 0.35344 0.73961 0.99004 0.0
N49 N 0.34169 0.69359 1.0069 0.0
C50 C 0.2985 0.63082 0.96209 0.0
C51 C 0.30988 0.67747 0.9448 0.0
C52 C 0.40353 0.61085 0.05858 0.0
C53 C 0.55826 0.75149 0.15043 0.0
C54 C 0.48501 0.63867 0.13045 0.0
C55 C 0.55211 0.65775 0.13881 0.0
C56 C 0.58887 0.71458 0.14888 0.0
N57 N 0.45518 0.67508 0.13214 0.0
C58 C 0.49104 0.73087 0.14189 0.0
Co59 Co 0.61462 0.32422 0.54752 0.0
Co60 Co 0.71454 0.32981 0.60866 0.0
O61 O 0.64355 0.34411 0.59036 0.0
C62 C 0.64274 0.44675 0.5537 0.0
O63 O 0.7025 0.45799 0.56438 0.0
C64 C 0.63942 0.26521 0.66185 0.0
O65 O 0.64337 0.21953 0.64972 0.0
O66 O 0.67008 0.24804 0.59292 0.0
O67 O 0.62524 0.25202 0.5479 0.0
H68 H 0.8842 0.25004 0.61025 0.0
H69 H 0.52992 0.35211 0.59192 0.0
O70 O 0.60187 0.39566 0.54606 0.0
H71 H 0.38827 0.15718 0.5499 0.0
H72 H 0.47086 0.30905 0.45595 0.0
H73 H 0.66026 0.27725 0.49357 0.0
H74 H 0.50364 0.20926 0.53232 0.0
H75 H 0.50765 0.33225 0.51001 0.0
O76 O 0.66238 0.31136 0.64776 0.0
H77 H 0.79633 0.27061 0.58729 0.0
H78 H 0.78146 0.35651 0.67032 0.0
H79 H 0.62458 0.25279 0.43943 0.0
H80 H 0.41447 0.30175 0.6099 0.0
H81 H 0.52924 0.2687 0.42029 0.0
H82 H 0.34285 0.20353 0.58888 0.0
O83 O 0.7083 0.36492 0.53368 0.0
H84 H 0.71844 0.51097 0.65712 0.0
H85 H 0.85469 0.42089 0.61044 0.0
H86 H 0.90867 0.52271 0.62748 0.0
H87 H 0.84036 0.56841 0.65116 0.0
H88 H 0.66644 0.40949 0.63918 0.0
H89 H 0.86856 0.33636 0.6943 0.0
H90 H 0.92079 0.28296 0.66415 0.0
O91 O 0.76912 0.35089 0.57042 0.0
C92 C 0.64141 0.22517 0.56727 0.0
C93 C 0.86191 0.27343 0.62361 0.0
C94 C 0.85308 0.32181 0.67079 0.0
N95 N 0.78396 0.31486 0.6274 0.0
C96 C 0.81225 0.28529 0.61071 0.0
C97 C 0.80362 0.33294 0.65712 0.0
C98 C 0.88238 0.29187 0.65386 0.0
C99 C 0.4989 0.30951 0.58253 0.0
N100 N 0.52342 0.28379 0.56101 0.0
C101 C 0.43364 0.28115 0.59286 0.0
C102 C 0.3935 0.22602 0.58107 0.0
C103 C 0.41896 0.19997 0.55921 0.0
C104 C 0.48443 0.22964 0.54942 0.0
C105 C 0.5124 0.30183 0.46402 0.0
C106 C 0.61847 0.28397 0.48547 0.0
C107 C 0.53358 0.31504 0.49459 0.0
N108 N 0.58575 0.30571 0.50499 0.0
C109 C 0.59862 0.27019 0.45476 0.0
C110 C 0.54516 0.27917 0.44403 0.0
C111 C 0.76324 0.36768 0.54413 0.0
C112 C 0.74872 0.49159 0.64679 0.0
C113 C 0.82456 0.44064 0.62023 0.0
C114 C 0.85544 0.49823 0.63009 0.0
C115 C 0.81712 0.52381 0.64341 0.0
N116 N 0.75742 0.40935 0.62347 0.0
C117 C 0.71958 0.4341 0.63664 0.0
Co118 Co 0.31673 0.71167 0.4923 0.0
Co119 Co 0.42567 0.74894 0.43325 0.0
O120 O 0.3333 0.71397 0.44802 0.0
C121 C 0.20497 0.6031 0.46414 0.0
O122 O 0.23099 0.61215 0.43683 0.0
C123 C 0.34196 0.77116 0.38555 0.0
O124 O 0.28771 0.74795 0.40167 0.0
O125 O 0.43962 0.82191 0.45576 0.0
O126 O 0.39857 0.7857 0.50061 0.0
H127 H 0.67316 0.86726 0.44619 0.0
H128 H 0.20854 0.70394 0.44971 0.0
O129 O 0.23365 0.6377 0.48687 0.0
H130 H 0.24947 0.8698 0.52058 0.0
H131 H 0.17586 0.67481 0.5867 0.0
H132 H 0.40349 0.73359 0.54726 0.0
H133 H 0.31352 0.81339 0.52587 0.0
H134 H 0.19625 0.68133 0.5313 0.0
O135 O 0.3977 0.77485 0.39536 0.0
H136 H 0.55678 0.82052 0.46336 0.0
H137 H 0.49062 0.75517 0.37256 0.0
H138 H 0.38541 0.72837 0.60288 0.0
H139 H 0.14281 0.75865 0.44384 0.0
H140 H 0.2709 0.69872 0.62294 0.0
H141 H 0.16315 0.84243 0.4794 0.0
O142 O 0.37045 0.66787 0.49611 0.0
H143 H 0.30013 0.57196 0.36517 0.0
H144 H 0.50332 0.67963 0.42826 0.0
H145 H 0.48679 0.58842 0.4018 0.0
H146 H 0.38481 0.53401 0.36977 0.0
H147 H 0.31792 0.6625 0.39254 0.0
H148 H 0.60628 0.8016 0.3544 0.0
H149 H 0.69855 0.85795 0.39135 0.0
O150 O 0.4591 0.72443 0.46988 0.0
C151 C 0.434 0.82756 0.48462 0.0
C152 C 0.6334 0.84272 0.42988 0.0
C153 C 0.59585 0.80594 0.37836 0.0
N154 N 0.51691 0.78489 0.41905 0.0
C155 C 0.56738 0.81605 0.43948 0.0
C156 C 0.53042 0.77989 0.38877 0.0
C157 C 0.64761 0.83752 0.3991 0.0
C158 C 0.21736 0.73981 0.46547 0.0
N159 N 0.26461 0.75495 0.48822 0.0
C160 C 0.18011 0.77089 0.46195 0.0
C161 C 0.1916 0.81793 0.48188 0.0
C162 C 0.24003 0.83332 0.50497 0.0
C163 C 0.27628 0.80123 0.50779 0.0
C164 C 0.22602 0.68793 0.57825 0.0
C165 C 0.3536 0.7211 0.5558 0.0
C166 C 0.23789 0.69157 0.54688 0.0
N167 N 0.30114 0.70823 0.53603 0.0
C168 C 0.34363 0.71804 0.58733 0.0
C169 C 0.27936 0.70135 0.59857 0.0
C170 C 0.43136 0.68527 0.4886 0.0
C171 C 0.34497 0.59539 0.37892 0.0
C172 C 0.45858 0.65621 0.41451 0.0
C173 C 0.44961 0.60457 0.39951 0.0
C174 C 0.39242 0.57409 0.38154 0.0
N175 N 0.412 0.67713 0.41171 0.0
C176 C 0.35556 0.6471 0.39434 0.0
Co177 Co 0.65986 0.27727 0.98285 0.0
Co178 Co 0.73481 0.38227 0.93144 0.0
O179 O 0.69259 0.30193 0.942 0.0
C180 C 0.71876 0.19967 0.9986 0.0
O181 O 0.74478 0.2342 0.02285 0.0
C182 C 0.62774 0.32427 0.88387 0.0
O183 O 0.58736 0.29628 0.90543 0.0
O184 O 0.66067 0.39734 0.95026 0.0
O185 O 0.62837 0.33816 0.98868 0.0
H186 H 0.8184 0.59372 0.95262 0.0
H187 H 0.6185 0.1926 0.93014 0.0
O188 O 0.68952 0.21407 0.97796 0.0
H189 H 0.40895 0.18954 0.97052 0.0
H190 H 0.53843 0.13342 0.06095 0.0
H191 H 0.67041 0.33732 0.04342 0.0
H192 H 0.51701 0.25206 0.99533 0.0
H193 H 0.57802 0.1643 1.00937 0.0
O194 O 0.68668 0.36136 0.89075 0.0
H195 H 0.76603 0.4927 0.96536 0.0
H196 H 0.79265 0.44159 0.87433 0.0
H197 H 0.63129 0.30828 0.09537 0.0
H198 H 0.51141 0.12851 0.90492 0.0
H199 H 0.56501 0.20565 0.10441 0.0
H200 H 0.40563 0.12694 0.925 0.0
O201 O 0.74864 0.33019 1.00136 0.0
H202 H 0.83071 0.27093 0.86659 0.0
H203 H 0.88376 0.4444 0.93313 0.0
H204 H 0.97542 0.42598 0.91088 0.0
H205 H 0.94912 0.33875 0.87716 0.0
H206 H 0.74067 0.29062 0.88984 0.0
H207 H 0.84466 0.54197 0.86053 0.0
H208 H 0.85813 0.61888 0.89986 0.0
O209 O 0.78604 0.40477 0.97123 0.0
C210 C 0.62736 0.37927 0.97446 0.0
C211 C 0.813 0.56061 0.9353 0.0
C212 C 0.82763 0.53155 0.88361 0.0
N213 N 0.77664 0.46132 0.92068 0.0
C214 C 0.78356 0.50335 0.94241 0.0
C215 C 0.79791 0.47476 0.89153 0.0
C216 C 0.83521 0.57469 0.90569 0.0
C217 C 0.57265 0.19174 0.93924 0.0
N218 N 0.57415 0.22634 0.96417 0.0
C219 C 0.51217 0.15552 0.92476 0.0
C220 C 0.45287 0.15476 0.93599 0.0
C221 C 0.45471 0.18995 0.96149 0.0
C222 C 0.51614 0.22567 0.97534 0.0
C223 C 0.56718 0.17828 0.0573 0.0
C224 C 0.64138 0.2926 0.04715 0.0
C225 C 0.58974 0.19606 0.02813 0.0
N226 N 0.62671 0.25264 0.02336 0.0
C227 C 0.61939 0.2764 0.07662 0.0
C228 C 0.58218 0.21882 0.08168 0.0
C229 C 0.79068 0.38034 0.99509 0.0
C230 C 0.84283 0.30901 0.88129 0.0
C231 C 0.87193 0.40598 0.91896 0.0
C232 C 0.92404 0.39595 0.90619 0.0
C233 C 0.90925 0.34706 0.88725 0.0
N234 N 0.8069 0.36841 0.91311 0.0
C235 C 0.79204 0.32044 0.89451 0.0
H236 H 0.29283 0.668 0.21004 0.0
H237 H 0.38203 0.84571 0.18772 0.0
H238 H 0.38417 0.87471 0.24273 0.0
H239 H 0.1883 0.68273 0.27258 0.0
H240 H 0.20038 0.63148 0.29481 0.0
H241 H 0.20165 0.62528 0.25362 0.0
H242 H 0.31865 0.62604 0.25627 0.0
H243 H 0.31789 0.63243 0.2974 0.0
H244 H 0.38552 0.68435 0.27687 0.0
H245 H 0.38921 0.88382 0.30116 0.0
H246 H 0.38785 0.87167 0.35713 0.0
H247 H 0.28851 0.68832 0.34038 0.0
C248 C 0.31185 0.71306 0.21662 0.0
C249 C 0.33726 0.75464 0.19454 0.0
C250 C 0.36181 0.81309 0.20416 0.0
C251 C 0.36342 0.82994 0.23538 0.0
C252 C 0.33922 0.78778 0.25662 0.0
C253 C 0.31293 0.73048 0.24752 0.0
C254 C 0.29179 0.69343 0.27474 0.0
C255 C 0.21602 0.65603 0.27388 0.0
C256 C 0.3308 0.65693 0.2764 0.0
C257 C 0.3116 0.73875 0.30073 0.0
C258 C 0.33915 0.793 0.2899 0.0
C259 C 0.36619 0.84158 0.30982 0.0
C260 C 0.36519 0.83442 0.3415 0.0
C261 C 0.33632 0.77924 0.35283 0.0
C262 C 0.30883 0.731 0.3322 0.0
H263 H 0.6872 0.35437 0.70475 0.0
H264 H 0.54617 0.17654 0.69178 0.0
H265 H 0.51828 0.17537 0.74676 0.0
H266 H 0.75239 0.33814 0.77427 0.0
H267 H 0.76624 0.40721 0.79112 0.0
H268 H 0.76727 0.39636 0.7502 0.0
H269 H 0.6757 0.43206 0.74434 0.0
H270 H 0.67442 0.44306 0.78532 0.0
H271 H 0.59839 0.39849 0.76447 0.0
H272 H 0.51046 0.1927 0.80403 0.0
H273 H 0.53101 0.22376 0.85894 0.0
H274 H 0.68376 0.3879 0.83463 0.0
C275 C 0.6492 0.31559 0.71333 0.0
C276 C 0.61784 0.26576 0.69393 0.0
C277 C 0.57015 0.2153 0.70622 0.0
C278 C 0.55392 0.21434 0.73738 0.0
C279 C 0.58662 0.26397 0.75604 0.0
C280 C 0.63376 0.31352 0.74448 0.0
C281 C 0.66717 0.35911 0.7698 0.0
C282 C 0.74272 0.37618 0.77144 0.0
C283 C 0.65305 0.41126 0.76573 0.0
C284 C 0.63201 0.32739 0.79748 0.0
C285 C 0.58479 0.27296 0.78906 0.0
C286 C 0.54709 0.23534 0.81083 0.0
C287 C 0.55891 0.25342 0.84198 0.0
C288 C 0.60888 0.30826 0.8511 0.0
C289 C 0.64507 0.34578 0.82841 0.0
H290 H 0.4918 0.61931 1.0109 0.0
H291 H 0.36446 0.5036 0.07704 0.0
H292 H 0.40447 0.43283 0.06036 0.0
H293 H 0.47263 0.50604 0.95075 0.0
H294 H 0.5583 0.54085 0.93903 0.0
H295 H 0.51685 0.58274 0.95429 0.0
H296 H 0.61065 0.63045 0.99534 0.0
H297 H 0.65215 0.58849 0.98035 0.0
H298 H 0.63014 0.58639 1.02015 0.0
H299 H 0.46338 0.37841 0.04165 0.0
H300 H 0.53463 0.33785 1.01868 0.0
H301 H 0.62389 0.48224 0.96111 0.0
C302 C 0.47164 0.57868 0.02144 0.0
C303 C 0.42497 0.56745 0.04547 0.0
C304 C 0.40041 0.51386 0.05884 0.0
C305 C 0.42271 0.47301 0.04945 0.0
C306 C 0.4695 0.48571 0.02641 0.0
C307 C 0.49354 0.53674 1.01223 0.0
C308 C 0.54559 0.539 0.98866 0.0
C309 C 0.52192 0.54236 0.95625 0.0
C310 C 0.61367 0.58906 0.99661 0.0
C311 C 0.54756 0.48181 0.9925 0.0
C312 C 0.50293 0.45226 1.01448 0.0
C313 C 0.4975 0.40038 0.02388 0.0
C314 C 0.53844 0.37752 1.01045 0.0
C315 C 0.58413 0.40572 0.98731 0.0
C316 C 0.58857 0.45884 0.97819 0.0
H317 H 0.15082 0.55371 0.51732 0.0
H318 H 0.10478 0.55121 0.42099 0.0
H319 H 0.98692 0.48531 0.4301 0.0
H320 H 0.03732 0.40237 0.52785 0.0
H321 H 0.01599 0.41809 0.56594 0.0
H322 H 0.09723 0.46127 0.55112 0.0
H323 H 0.07783 0.55183 0.56237 0.0
H324 H 0.99641 0.50896 0.57696 0.0
H325 H 1.00511 0.55518 0.54636 0.0
H326 H 0.871 0.42952 0.45148 0.0
H327 H 0.76987 0.3812 0.48213 0.0
H328 H 0.89456 0.41416 0.56335 0.0
C329 C 0.11624 0.53843 0.49801 0.0
C330 C 0.13696 0.55753 0.46842 0.0
C331 C 0.09015 0.53673 0.44378 0.0
C332 C 0.02305 0.49949 0.44878 0.0
C333 C 1.00392 0.48261 0.47842 0.0
C334 C 0.04956 0.50058 0.50249 0.0
C335 C 0.0163 0.47747 0.53229 0.0
C336 C 0.04332 0.43741 0.54504 0.0
C337 C 0.0244 0.52627 0.55587 0.0
C338 C 0.94445 0.44488 0.52143 0.0
C339 C 0.93809 0.44854 0.49035 0.0
C340 C 0.87565 0.42551 0.47573 0.0
C341 C 0.81842 0.39829 0.49337 0.0
C342 C 0.82395 0.39366 0.52525 0.0
C343 C 0.88816 0.41655 0.53914 0.0
H344 H 0.71335 0.14177 0.0496 0.0
H345 H 0.68443 0.11862 0.95106 0.0
H346 H 0.63855 1.0141 0.95482 0.0
H347 H 0.75093 0.01716 0.06148 0.0
H348 H 0.70378 1.00123 0.09624 0.0
H349 H 0.74567 0.07392 0.08522 0.0
H350 H 0.63377 0.08274 0.08814 0.0
H351 H 0.59146 1.01014 0.09893 0.0
H352 H 0.56275 0.03246 0.06597 0.0
H353 H 0.58205 0.91269 0.96989 0.0
H354 H 0.51868 0.82252 0.9948 0.0
H355 H 0.58199 0.91129 0.0839 0.0
C356 C 0.70001 0.11492 0.02865 0.0
C357 C 0.7039 0.13851 0.99991 0.0
C358 C 0.683 0.10158 0.97323 0.0
C359 C 0.65683 0.04215 0.97517 0.0
C360 C 0.65163 0.02023 1.00399 0.0
C361 C 0.67291 0.05554 0.03026 0.0
C362 C 0.65456 0.02137 0.05868 0.0
C363 C 0.7175 0.02887 0.07645 0.0
C364 C 0.60787 0.03764 0.07912 0.0
C365 C 0.61845 0.96132 0.04436 0.0
C366 C 0.61795 0.9616 1.01277 0.0
C367 C 0.58319 0.91188 0.99457 0.0
C368 C 0.54719 0.86083 1.00896 0.0
C369 C 0.54593 0.85961 0.04132 0.0
C370 C 0.58325 0.91048 0.05914 0.0
H371 H 0.5169 0.43674 0.54267 0.0
H372 H 0.72356 0.56166 0.55334 0.0
H373 H 0.69061 0.63779 0.54091 0.0
H374 H 0.47628 0.49372 0.47948 0.0
H375 H 0.39279 0.47872 0.49159 0.0
H376 H 0.43206 0.43504 0.50334 0.0
H377 H 0.41226 0.456 0.56018 0.0
H378 H 0.37277 0.49973 0.54858 0.0
H379 H 0.44259 0.52892 0.57513 0.0
H380 H 0.63666 0.6981 0.52202 0.0
H381 H 0.56478 0.73951 0.50165 0.0
H382 H 0.39241 0.57611 0.50611 0.0
C383 C 0.55523 0.48022 0.54275 0.0
C384 C 0.62293 0.4933 0.54888 0.0
C385 C 0.67142 0.5507 0.54881 0.0
C386 C 0.65317 0.59418 0.54174 0.0
C387 C 0.58612 0.57959 0.53527 0.0
C388 C 0.53779 0.52409 0.53612 0.0
C389 C 0.46951 0.51935 0.52752 0.0
C390 C 0.44102 0.47935 0.49878 0.0
C391 C 0.42145 0.49986 0.55447 0.0
C392 C 0.4871 0.58072 0.52105 0.0
C393 C 0.55466 0.61476 0.52557 0.0
C394 C 0.58354 0.6721 0.51893 0.0
C395 C 0.54239 0.69516 0.50729 0.0
C396 C 0.47299 0.66113 0.50272 0.0
C397 C 0.44503 0.60337 0.51005 0.0
H398 H 0.16642 0.60231 0.02936 0.0
H399 H 0.15494 0.5322 0.11808 0.0
H400 H 0.03634 0.46609 0.1072 0.0
H401 H 1.00199 0.59996 0.03141 0.0
H402 H 0.98821 0.58333 0.99082 0.0
H403 H 0.07176 0.62383 1.00588 0.0
H404 H 0.10795 0.55 0.97961 0.0
H405 H 0.02448 0.50915 0.96462 0.0
H406 H 0.06325 0.47571 0.98743 0.0
H407 H 0.91905 0.4028 0.08403 0.0
H408 H 0.81492 0.35437 0.05284 0.0
H409 H 0.9035 0.47606 0.98298 0.0
C410 C 0.13917 0.57387 0.04683 0.0
C411 C 0.17031 0.57299 0.07471 0.0
C412 C 0.13229 0.53403 0.0966 0.0
C413 C 0.06487 0.49624 0.0906 0.0
C414 C 0.03583 0.49866 0.06285 0.0
C415 C 0.07184 0.53719 0.04158 0.0
C416 C 0.02955 0.53253 1.01374 0.0
C417 C 0.02245 0.58822 1.01028 0.0
C418 C 0.05801 0.51585 0.98465 0.0
C419 C 0.96414 0.48468 0.02235 0.0
C420 C 0.96853 0.46503 0.05055 0.0
C421 C 0.915 0.41847 0.0621 0.0
C422 C 0.85601 0.39118 0.04421 0.0
C423 C 0.85067 0.41104 1.01527 0.0
C424 C 0.90539 0.45922 1.00478 0.0
H425 H 0.59415 0.16614 0.51217 0.0
H426 H 0.64457 0.14443 0.60476 0.0
H427 H 0.60172 0.04067 0.59275 0.0
H428 H 0.4431 0.043 0.50481 0.0
H429 H 0.45357 0.02636 0.46517 0.0
H430 H 0.49239 0.09919 0.48039 0.0
H431 H 0.60783 0.1079 0.46259 0.0
H432 H 0.56942 0.03512 0.44712 0.0
H433 H 0.63732 0.05737 0.47454 0.0
H434 H 0.54326 0.93845 0.57204 0.0
H435 H 0.48149 0.8462 0.54331 0.0
H436 H 0.47399 0.93496 0.46337 0.0
C437 C 0.59709 0.13988 0.52993 0.0
C438 C 0.62244 0.16371 0.55958 0.0
C439 C 0.6253 0.12744 0.58196 0.0
C440 C 0.60104 0.06838 0.57532 0.0
C441 C 0.575 0.04634 0.54608 0.0
C442 C 0.57376 0.08111 0.52362 0.0
C443 C 0.54173 0.04678 0.49424 0.0
C444 C 0.47898 0.05429 0.48567 0.0
C445 C 0.5921 0.06275 0.46808 0.0
C446 C 0.52392 0.98691 0.50379 0.0
C447 C 0.54338 0.98764 0.53383 0.0
C448 C 0.52873 0.93746 0.5484 0.0
C449 C 0.49334 0.88525 0.53191 0.0
C450 C 0.47341 0.88343 0.50102 0.0
C451 C 0.48958 0.93507 0.48676 0.0
loop_
_geom_bond_atom_site_label_1
_geom_bond_atom_site_label_2
_geom_bond_distance
_geom_bond_site_symmetry_2
_ccdc_geom_bond_type
Co0 O2 2.143 . S
Co0 O8 2.074 . S
Co0 O11 2.093 . S
Co0 O24 2.097 . S
Co0 N41 2.151 . S
Co0 N49 2.214 1_554 S
Co1 O2 2.160 . S
Co1 O7 2.058 . S
Co1 O17 2.057 . S
Co1 O32 2.037 . S
Co1 N36 2.145 . S
Co1 N57 2.257 . S
O2 Co0 2.143 . S
O2 Co1 2.160 . S
C3 O4 1.278 . S
C3 O11 1.224 . S
O4 C3 1.278 . S
C5 O6 1.245 . S
C5 O17 1.232 . S
O6 C5 1.245 . S
O7 Co1 2.058 . S
O7 C33 1.269 . S
O8 Co0 2.074 . S
O8 C33 1.257 . S
H9 C34 0.930 . S
H10 C40 0.930 . S
O11 Co0 2.093 . S
O11 C3 1.224 . S
H12 C44 0.929 . S
H13 C46 0.930 . S
H14 C47 0.930 . S
H15 C45 0.929 . S
H16 C48 0.928 . S
O17 Co1 2.057 . S
O17 C5 1.232 . S
H18 C37 0.929 . S
H19 C38 0.929 . S
H20 C50 0.931 . S
H21 C42 0.929 . S
H22 C51 0.930 . S
H23 C43 0.931 . S
O24 Co0 2.097 . S
O24 C52 1.214 . S
H25 C53 0.929 . S
H26 C54 0.929 . S
H27 C55 0.930 . S
H28 C56 0.929 . S
H29 C58 0.930 . S
H30 C35 0.930 . S
H31 C39 0.930 . S
O32 Co1 2.037 . S
O32 C52 1.234 . S
C33 O7 1.269 . S
C33 O8 1.257 . S
C34 H9 0.930 . S
C34 C37 1.388 . S
C34 C39 1.418 . S
C35 H30 0.930 . S
C35 C38 1.404 . S
C35 C39 1.353 . S
N36 Co1 2.145 . S
N36 C37 1.397 . S
N36 C38 1.334 . S
C37 H18 0.929 . S
C37 C34 1.388 . S
C37 N36 1.397 . S
C38 H19 0.929 . S
C38 C35 1.404 . S
C38 N36 1.334 . S
C39 H31 0.930 . S
C39 C34 1.418 . S
C39 C35 1.353 . S
C40 H10 0.930 . S
C40 N41 1.330 . S
C40 C42 1.446 . S
N41 Co0 2.151 . S
N41 C40 1.330 . S
N41 C45 1.418 . S
C42 H21 0.929 . S
C42 C40 1.446 . S
C42 C43 1.332 . S
C43 H23 0.931 . S
C43 C42 1.332 . S
C43 C44 1.267 . S
C44 H12 0.929 . S
C44 C43 1.267 . S
C44 C45 1.251 . S
C45 H15 0.929 . S
C45 N41 1.418 . S
C45 C44 1.251 . S
C46 H13 0.930 . S
C46 C48 1.406 . S
C46 C51 1.261 . S
C47 H14 0.930 . S
C47 N49 1.325 . S
C47 C50 1.357 . S
C48 H16 0.928 . S
C48 C46 1.406 . S
C48 N49 1.261 . S
N49 Co0 2.214 1_556 S
N49 C47 1.325 . S
N49 C48 1.261 . S
C50 H20 0.931 . S
C50 C47 1.357 . S
C50 C51 1.312 . S
C51 H22 0.930 . S
C51 C46 1.261 . S
C51 C50 1.312 . S
C52 O24 1.214 . S
C52 O32 1.234 . S
C53 H25 0.929 . S
C53 C56 1.391 . S
C53 C58 1.391 . S
C54 H26 0.929 . S
C54 C55 1.390 . S
C54 N57 1.391 . S
C55 H27 0.930 . S
C55 C54 1.390 . S
C55 C56 1.392 . S
C56 H28 0.929 . S
C56 C53 1.391 . S
C56 C55 1.392 . S
N57 Co1 2.257 . S
N57 C54 1.391 . S
N57 C58 1.388 . S
C58 H29 0.930 . S
C58 C53 1.391 . S
C58 N57 1.388 . S
Co59 O61 2.143 . S
Co59 O67 2.074 . S
Co59 O70 2.093 . S
Co59 O83 2.097 . S
Co59 N100 2.151 . S
Co59 N108 2.214 . S
Co60 O61 2.160 . S
Co60 O66 2.058 . S
Co60 O76 2.057 . S
Co60 O91 2.037 . S
Co60 N95 2.145 . S
Co60 N116 2.257 . S
O61 Co59 2.143 . S
O61 Co60 2.160 . S
C62 O63 1.278 . S
C62 O70 1.224 . S
O63 C62 1.278 . S
C64 O65 1.245 . S
C64 O76 1.232 . S
O65 C64 1.245 . S
O66 Co60 2.058 . S
O66 C92 1.269 . S
O67 Co59 2.074 . S
O67 C92 1.257 . S
H68 C93 0.930 . S
H69 C99 0.930 . S
O70 Co59 2.093 . S
O70 C62 1.224 . S
H71 C103 0.929 . S
H72 C105 0.930 . S
H73 C106 0.930 . S
H74 C104 0.929 . S
H75 C107 0.928 . S
O76 Co60 2.057 . S
O76 C64 1.232 . S
H77 C96 0.929 . S
H78 C97 0.929 . S
H79 C109 0.931 . S
H80 C101 0.929 . S
H81 C110 0.930 . S
H82 C102 0.931 . S
O83 Co59 2.097 . S
O83 C111 1.214 . S
H84 C112 0.929 . S
H85 C113 0.929 . S
H86 C114 0.930 . S
H87 C115 0.929 . S
H88 C117 0.930 . S
H89 C94 0.930 . S
H90 C98 0.930 . S
O91 Co60 2.037 . S
O91 C111 1.234 . S
C92 O66 1.269 . S
C92 O67 1.257 . S
C93 H68 0.930 . S
C93 C96 1.388 . S
C93 C98 1.418 . S
C94 H89 0.930 . S
C94 C97 1.404 . S
C94 C98 1.353 . S
N95 Co60 2.145 . S
N95 C96 1.397 . S
N95 C97 1.334 . S
C96 H77 0.929 . S
C96 C93 1.388 . S
C96 N95 1.397 . S
C97 H78 0.929 . S
C97 C94 1.404 . S
C97 N95 1.334 . S
C98 H90 0.930 . S
C98 C93 1.418 . S
C98 C94 1.353 . S
C99 H69 0.930 . S
C99 N100 1.330 . S
C99 C101 1.446 . S
N100 Co59 2.151 . S
N100 C99 1.330 . S
N100 C104 1.418 . S
C101 H80 0.929 . S
C101 C99 1.446 . S
C101 C102 1.332 . S
C102 H82 0.931 . S
C102 C101 1.332 . S
C102 C103 1.267 . S
C103 H71 0.929 . S
C103 C102 1.267 . S
C103 C104 1.251 . S
C104 H74 0.929 . S
C104 N100 1.418 . S
C104 C103 1.251 . S
C105 H72 0.930 . S
C105 C107 1.406 . S
C105 C110 1.261 . S
C106 H73 0.930 . S
C106 N108 1.325 . S
C106 C109 1.357 . S
C107 H75 0.928 . S
C107 C105 1.406 . S
C107 N108 1.261 . S
N108 Co59 2.214 . S
N108 C106 1.325 . S
N108 C107 1.261 . S
C109 H79 0.931 . S
C109 C106 1.357 . S
C109 C110 1.312 . S
C110 H81 0.930 . S
C110 C105 1.261 . S
C110 C109 1.312 . S
C111 O83 1.214 . S
C111 O91 1.234 . S
C112 H84 0.929 . S
C112 C115 1.391 . S
C112 C117 1.391 . S
C113 H85 0.929 . S
C113 C114 1.390 . S
C113 N116 1.391 . S
C114 H86 0.930 . S
C114 C113 1.390 . S
C114 C115 1.392 . S
C115 H87 0.929 . S
C115 C112 1.391 . S
C115 C114 1.392 . S
N116 Co60 2.257 . S
N116 C113 1.391 . S
N116 C117 1.388 . S
C117 H88 0.930 . S
C117 C112 1.391 . S
C117 N116 1.388 . S
Co118 O120 2.143 . S
Co118 O126 2.074 . S
Co118 O129 2.093 . S
Co118 O142 2.097 . S
Co118 N159 2.151 . S
Co118 N167 2.214 . S
Co119 O120 2.160 . S
Co119 O125 2.058 . S
Co119 O135 2.057 . S
Co119 O150 2.037 . S
Co119 N154 2.145 . S
Co119 N175 2.257 . S
O120 Co118 2.143 . S
O120 Co119 2.160 . S
C121 O122 1.278 . S
C121 O129 1.224 . S
O122 C121 1.278 . S
C123 O124 1.245 . S
C123 O135 1.232 . S
O124 C123 1.245 . S
O125 Co119 2.058 . S
O125 C151 1.269 . S
O126 Co118 2.074 . S
O126 C151 1.257 . S
H127 C152 0.930 . S
H128 C158 0.930 . S
O129 Co118 2.093 . S
O129 C121 1.224 . S
H130 C162 0.929 . S
H131 C164 0.930 . S
H132 C165 0.930 . S
H133 C163 0.929 . S
H134 C166 0.928 . S
O135 Co119 2.057 . S
O135 C123 1.232 . S
H136 C155 0.929 . S
H137 C156 0.929 . S
H138 C168 0.931 . S
H139 C160 0.929 . S
H140 C169 0.930 . S
H141 C161 0.931 . S
O142 Co118 2.097 . S
O142 C170 1.214 . S
H143 C171 0.929 . S
H144 C172 0.929 . S
H145 C173 0.930 . S
H146 C174 0.929 . S
H147 C176 0.930 . S
H148 C153 0.930 . S
H149 C157 0.930 . S
O150 Co119 2.037 . S
O150 C170 1.234 . S
C151 O125 1.269 . S
C151 O126 1.257 . S
C152 H127 0.930 . S
C152 C155 1.388 . S
C152 C157 1.418 . S
C153 H148 0.930 . S
C153 C156 1.404 . S
C153 C157 1.353 . S
N154 Co119 2.145 . S
N154 C155 1.397 . S
N154 C156 1.334 . S
C155 H136 0.929 . S
C155 C152 1.388 . S
C155 N154 1.397 . S
C156 H137 0.929 . S
C156 C153 1.404 . S
C156 N154 1.334 . S
C157 H149 0.930 . S
C157 C152 1.418 . S
C157 C153 1.353 . S
C158 H128 0.930 . S
C158 N159 1.330 . S
C158 C160 1.446 . S
N159 Co118 2.151 . S
N159 C158 1.330 . S
N159 C163 1.418 . S
C160 H139 0.929 . S
C160 C158 1.446 . S
C160 C161 1.332 . S
C161 H141 0.931 . S
C161 C160 1.332 . S
C161 C162 1.267 . S
C162 H130 0.929 . S
C162 C161 1.267 . S
C162 C163 1.251 . S
C163 H133 0.929 . S
C163 N159 1.418 . S
C163 C162 1.251 . S
C164 H131 0.930 . S
C164 C166 1.406 . S
C164 C169 1.261 . S
C165 H132 0.930 . S
C165 N167 1.325 . S
C165 C168 1.357 . S
C166 H134 0.928 . S
C166 C164 1.406 . S
C166 N167 1.261 . S
N167 Co118 2.214 . S
N167 C165 1.325 . S
N167 C166 1.261 . S
C168 H138 0.931 . S
C168 C165 1.357 . S
C168 C169 1.312 . S
C169 H140 0.930 . S
C169 C164 1.261 . S
C169 C168 1.312 . S
C170 O142 1.214 . S
C170 O150 1.234 . S
C171 H143 0.929 . S
C171 C174 1.391 . S
C171 C176 1.391 . S
C172 H144 0.929 . S
C172 C173 1.390 . S
C172 N175 1.391 . S
C173 H145 0.930 . S
C173 C172 1.390 . S
C173 C174 1.392 . S
C174 H146 0.929 . S
C174 C171 1.391 . S
C174 C173 1.392 . S
N175 Co119 2.257 . S
N175 C172 1.391 . S
N175 C176 1.388 . S
C176 H147 0.930 . S
C176 C171 1.391 . S
C176 N175 1.388 . S
Co177 O179 2.143 . S
Co177 O185 2.074 . S
Co177 O188 2.093 . S
Co177 O201 2.097 . S
Co177 N218 2.151 . S
Co177 N226 2.214 1_556 S
Co178 O179 2.160 . S
Co178 O184 2.058 . S
Co178 O194 2.057 . S
Co178 O209 2.037 . S
Co178 N213 2.145 . S
Co178 N234 2.257 . S
O179 Co177 2.143 . S
O179 Co178 2.160 . S
C180 O181 1.278 . S
C180 O188 1.224 . S
O181 C180 1.278 . S
C182 O183 1.245 . S
C182 O194 1.232 . S
O183 C182 1.245 . S
O184 Co178 2.058 . S
O184 C210 1.269 . S
O185 Co177 2.074 . S
O185 C210 1.257 . S
H186 C211 0.930 . S
H187 C217 0.930 . S
O188 Co177 2.093 . S
O188 C180 1.224 . S
H189 C221 0.929 . S
H190 C223 0.930 . S
H191 C224 0.930 . S
H192 C222 0.929 . S
H193 C225 0.928 . S
O194 Co178 2.057 . S
O194 C182 1.232 . S
H195 C214 0.929 . S
H196 C215 0.929 . S
H197 C227 0.931 . S
H198 C219 0.929 . S
H199 C228 0.930 . S
H200 C220 0.931 . S
O201 Co177 2.097 . S
O201 C229 1.214 . S
H202 C230 0.929 . S
H203 C231 0.929 . S
H204 C232 0.930 . S
H205 C233 0.929 . S
H206 C235 0.930 . S
H207 C212 0.930 . S
H208 C216 0.930 . S
O209 Co178 2.037 . S
O209 C229 1.234 . S
C210 O184 1.269 . S
C210 O185 1.257 . S
C211 H186 0.930 . S
C211 C214 1.388 . S
C211 C216 1.418 . S
C212 H207 0.930 . S
C212 C215 1.404 . S
C212 C216 1.353 . S
N213 Co178 2.145 . S
N213 C214 1.397 . S
N213 C215 1.334 . S
C214 H195 0.929 . S
C214 C211 1.388 . S
C214 N213 1.397 . S
C215 H196 0.929 . S
C215 C212 1.404 . S
C215 N213 1.334 . S
C216 H208 0.930 . S
C216 C211 1.418 . S
C216 C212 1.353 . S
C217 H187 0.930 . S
C217 N218 1.330 . S
C217 C219 1.446 . S
N218 Co177 2.151 . S
N218 C217 1.330 . S
N218 C222 1.418 . S
C219 H198 0.929 . S
C219 C217 1.446 . S
C219 C220 1.332 . S
C220 H200 0.931 . S
C220 C219 1.332 . S
C220 C221 1.267 . S
C221 H189 0.929 . S
C221 C220 1.267 . S
C221 C222 1.251 . S
C222 H192 0.929 . S
C222 N218 1.418 . S
C222 C221 1.251 . S
C223 H190 0.930 . S
C223 C225 1.406 . S
C223 C228 1.261 . S
C224 H191 0.930 . S
C224 N226 1.325 . S
C224 C227 1.357 . S
C225 H193 0.928 . S
C225 C223 1.406 . S
C225 N226 1.261 . S
N226 Co177 2.214 1_554 S
N226 C224 1.325 . S
N226 C225 1.261 . S
C227 H197 0.931 . S
C227 C224 1.357 . S
C227 C228 1.312 . S
C228 H199 0.930 . S
C228 C223 1.261 . S
C228 C227 1.312 . S
C229 O201 1.214 . S
C229 O209 1.234 . S
C230 H202 0.929 . S
C230 C233 1.391 . S
C230 C235 1.391 . S
C231 H203 0.929 . S
C231 C232 1.390 . S
C231 N234 1.391 . S
C232 H204 0.930 . S
C232 C231 1.390 . S
C232 C233 1.392 . S
C233 H205 0.929 . S
C233 C230 1.391 . S
C233 C232 1.392 . S
N234 Co178 2.257 . S
N234 C231 1.391 . S
N234 C235 1.388 . S
C235 H206 0.930 . S
C235 C230 1.391 . S
C235 N234 1.388 . S
H236 C248 0.930 . S
H237 C250 0.930 . S
H238 C251 0.930 . S
H239 C255 0.959 . S
H240 C255 0.959 . S
H241 C255 0.961 . S
H242 C256 0.960 . S
H243 C256 0.961 . S
H244 C256 0.959 . S
H245 C259 0.929 . S
H246 C260 0.931 . S
H247 C262 0.930 . S
C248 H236 0.930 . S
C248 C249 1.399 . S
C248 C253 1.399 . S
C249 C248 1.399 . S
C249 C250 1.376 . S
C250 H237 0.930 . S
C250 C249 1.376 . S
C250 C251 1.388 . S
C251 H238 0.930 . S
C251 C250 1.388 . S
C251 C252 1.390 . S
C252 C251 1.390 . S
C252 C253 1.394 . S
C252 C258 1.465 . S
C253 C248 1.399 . S
C253 C252 1.394 . S
C253 C254 1.516 . S
C254 C253 1.516 . S
C254 C255 1.502 . S
C254 C256 1.561 . S
C254 C257 1.526 . S
C255 H239 0.959 . S
C255 H240 0.959 . S
C255 H241 0.961 . S
C255 C254 1.502 . S
C256 H242 0.960 . S
C256 H243 0.961 . S
C256 H244 0.959 . S
C256 C254 1.561 . S
C257 C254 1.526 . S
C257 C258 1.396 . S
C257 C262 1.390 . S
C258 C252 1.465 . S
C258 C257 1.396 . S
C258 C259 1.399 . S
C259 H245 0.929 . S
C259 C258 1.399 . S
C259 C260 1.385 . S
C260 H246 0.931 . S
C260 C259 1.385 . S
C260 C261 1.389 . S
C261 C260 1.389 . S
C261 C262 1.387 . S
C262 H247 0.930 . S
C262 C257 1.390 . S
C262 C261 1.387 . S
H263 C275 0.930 . S
H264 C277 0.930 . S
H265 C278 0.930 . S
H266 C282 0.959 . S
H267 C282 0.959 . S
H268 C282 0.961 . S
H269 C283 0.960 . S
H270 C283 0.961 . S
H271 C283 0.959 . S
H272 C286 0.929 . S
H273 C287 0.931 . S
H274 C289 0.930 . S
C275 H263 0.930 . S
C275 C276 1.399 . S
C275 C280 1.399 . S
C276 C275 1.399 . S
C276 C277 1.376 . S
C277 H264 0.930 . S
C277 C276 1.376 . S
C277 C278 1.388 . S
C278 H265 0.930 . S
C278 C277 1.388 . S
C278 C279 1.390 . S
C279 C278 1.390 . S
C279 C280 1.394 . S
C279 C285 1.465 . S
C280 C275 1.399 . S
C280 C279 1.394 . S
C280 C281 1.516 . S
C281 C280 1.516 . S
C281 C282 1.502 . S
C281 C283 1.561 . S
C281 C284 1.526 . S
C282 H266 0.959 . S
C282 H267 0.959 . S
C282 H268 0.961 . S
C282 C281 1.502 . S
C283 H269 0.960 . S
C283 H270 0.961 . S
C283 H271 0.959 . S
C283 C281 1.561 . S
C284 C281 1.526 . S
C284 C285 1.396 . S
C284 C289 1.390 . S
C285 C279 1.465 . S
C285 C284 1.396 . S
C285 C286 1.399 . S
C286 H272 0.929 . S
C286 C285 1.399 . S
C286 C287 1.385 . S
C287 H273 0.931 . S
C287 C286 1.385 . S
C287 C288 1.389 . S
C288 C287 1.389 . S
C288 C289 1.387 . S
C289 H274 0.930 . S
C289 C284 1.390 . S
C289 C288 1.387 . S
H290 C302 0.930 . S
H291 C304 0.930 . S
H292 C305 0.930 . S
H293 C309 0.959 . S
H294 C309 0.959 . S
H295 C309 0.961 . S
H296 C310 0.960 . S
H297 C310 0.961 . S
H298 C310 0.959 . S
H299 C313 0.929 . S
H300 C314 0.931 1_554 S
H301 C316 0.930 . S
C302 H290 0.930 . S
C302 C303 1.399 1_556 S
C302 C307 1.399 . S
C303 C302 1.399 1_554 S
C303 C304 1.376 . S
C304 H291 0.930 . S
C304 C303 1.376 . S
C304 C305 1.388 . S
C305 H292 0.930 . S
C305 C304 1.388 . S
C305 C306 1.390 . S
C306 C305 1.390 . S
C306 C307 1.394 1_554 S
C306 C312 1.465 1_554 S
C307 C302 1.399 . S
C307 C306 1.394 1_556 S
C307 C308 1.516 . S
C308 C307 1.516 . S
C308 C309 1.502 . S
C308 C310 1.561 . S
C308 C311 1.526 . S
C309 H293 0.959 . S
C309 H294 0.959 . S
C309 H295 0.961 . S
C309 C308 1.502 . S
C310 H296 0.960 . S
C310 H297 0.961 . S
C310 H298 0.959 . S
C310 C308 1.561 . S
C311 C308 1.526 . S
C311 C312 1.396 . S
C311 C316 1.390 . S
C312 C306 1.465 1_556 S
C312 C311 1.396 . S
C312 C313 1.399 1_556 S
C313 H299 0.929 . S
C313 C312 1.399 1_554 S
C313 C314 1.385 1_554 S
C314 H300 0.931 1_556 S
C314 C313 1.385 1_556 S
C314 C315 1.389 . S
C315 C314 1.389 . S
C315 C316 1.387 . S
C316 H301 0.930 . S
C316 C311 1.390 . S
C316 C315 1.387 . S
H317 C329 0.930 . S
H318 C331 0.930 . S
H319 C332 0.930 . S
H320 C336 0.959 . S
H321 C336 0.959 . S
H322 C336 0.961 . S
H323 C337 0.962 1_455 S
H324 C337 0.960 . S
H325 C337 0.957 . S
H326 C340 0.929 . S
H327 C341 0.931 . S
H328 C343 0.930 . S
C329 H317 0.930 . S
C329 C330 1.399 . S
C329 C334 1.399 . S
C330 C329 1.399 . S
C330 C331 1.376 . S
C331 H318 0.930 . S
C331 C330 1.376 . S
C331 C332 1.388 1_455 S
C332 H319 0.930 . S
C332 C331 1.388 1_655 S
C332 C333 1.390 . S
C333 C332 1.390 . S
C333 C334 1.394 1_655 S
C333 C339 1.465 . S
C334 C329 1.399 . S
C334 C333 1.394 1_455 S
C334 C335 1.516 1_455 S
C335 C334 1.516 1_655 S
C335 C336 1.502 1_655 S
C335 C337 1.562 . S
C335 C338 1.526 . S
C336 H320 0.959 . S
C336 H321 0.959 . S
C336 H322 0.961 . S
C336 C335 1.502 1_455 S
C337 H323 0.962 1_655 S
C337 H324 0.960 . S
C337 H325 0.957 . S
C337 C335 1.562 . S
C338 C335 1.526 . S
C338 C339 1.396 . S
C338 C343 1.390 . S
C339 C333 1.465 . S
C339 C338 1.396 . S
C339 C340 1.399 . S
C340 H326 0.929 . S
C340 C339 1.399 . S
C340 C341 1.385 . S
C341 H327 0.931 . S
C341 C340 1.385 . S
C341 C342 1.389 . S
C342 C341 1.389 . S
C342 C343 1.387 . S
C343 H328 0.930 . S
C343 C338 1.390 . S
C343 C342 1.387 . S
H344 C356 0.930 . S
H345 C358 0.930 . S
H346 C359 0.930 . S
H347 C363 0.959 1_566 S
H348 C363 0.959 1_565 S
H349 C363 0.961 . S
H350 C364 0.960 . S
H351 C364 0.961 . S
H352 C364 0.959 . S
H353 C367 0.929 1_556 S
H354 C368 0.931 . S
H355 C370 0.930 . S
C356 H344 0.930 . S
C356 C357 1.399 . S
C356 C361 1.399 . S
C357 C356 1.399 . S
C357 C358 1.376 . S
C358 H345 0.930 . S
C358 C357 1.376 . S
C358 C359 1.388 . S
C359 H346 0.930 . S
C359 C358 1.388 . S
C359 C360 1.390 . S
C360 C359 1.390 . S
C360 C361 1.394 . S
C360 C366 1.465 1_546 S
C361 C356 1.399 . S
C361 C360 1.394 . S
C361 C362 1.516 1_556 S
C362 C361 1.516 1_554 S
C362 C363 1.502 . S
C362 C364 1.561 . S
C362 C365 1.526 1_545 S
C363 H347 0.959 1_544 S
C363 H348 0.959 1_545 S
C363 H349 0.961 . S
C363 C362 1.502 . S
C364 H350 0.960 . S
C364 H351 0.961 . S
C364 H352 0.959 . S
C364 C362 1.561 . S
C365 C362 1.526 1_565 S
C365 C366 1.396 . S
C365 C370 1.390 . S
C366 C360 1.465 1_564 S
C366 C365 1.396 . S
C366 C367 1.399 . S
C367 H353 0.929 1_554 S
C367 C366 1.399 . S
C367 C368 1.385 . S
C368 H354 0.931 . S
C368 C367 1.385 . S
C368 C369 1.389 . S
C369 C368 1.389 . S
C369 C370 1.387 . S
C370 H355 0.930 . S
C370 C365 1.390 . S
C370 C369 1.387 . S
H371 C383 0.930 . S
H372 C385 0.930 . S
H373 C386 0.930 . S
H374 C390 0.959 . S
H375 C390 0.959 . S
H376 C390 0.961 . S
H377 C391 0.960 . S
H378 C391 0.961 . S
H379 C391 0.959 . S
H380 C394 0.929 . S
H381 C395 0.931 . S
H382 C397 0.930 . S
C383 H371 0.930 . S
C383 C384 1.399 . S
C383 C388 1.399 . S
C384 C383 1.399 . S
C384 C385 1.376 . S
C385 H372 0.930 . S
C385 C384 1.376 . S
C385 C386 1.388 . S
C386 H373 0.930 . S
C386 C385 1.388 . S
C386 C387 1.390 . S
C387 C386 1.390 . S
C387 C388 1.394 . S
C387 C393 1.465 . S
C388 C383 1.399 . S
C388 C387 1.394 . S
C388 C389 1.516 . S
C389 C388 1.516 . S
C389 C390 1.502 . S
C389 C391 1.561 . S
C389 C392 1.526 . S
C390 H374 0.959 . S
C390 H375 0.959 . S
C390 H376 0.961 . S
C390 C389 1.502 . S
C391 H377 0.960 . S
C391 H378 0.961 . S
C391 H379 0.959 . S
C391 C389 1.561 . S
C392 C389 1.526 . S
C392 C393 1.396 . S
C392 C397 1.390 . S
C393 C387 1.465 . S
C393 C392 1.396 . S
C393 C394 1.399 . S
C394 H380 0.929 . S
C394 C393 1.399 . S
C394 C395 1.385 . S
C395 H381 0.931 . S
C395 C394 1.385 . S
C395 C396 1.389 . S
C396 C395 1.389 . S
C396 C397 1.387 . S
C397 H382 0.930 . S
C397 C392 1.390 . S
C397 C396 1.387 . S
H398 C410 0.930 . S
H399 C412 0.930 . S
H400 C413 0.930 . S
H401 C417 0.959 1_655 S
H402 C417 0.959 1_655 S
H403 C417 0.961 . S
H404 C418 0.960 . S
H405 C418 0.961 . S
H406 C418 0.959 . S
H407 C421 0.929 . S
H408 C422 0.931 . S
H409 C424 0.930 . S
C410 H398 0.930 . S
C410 C411 1.399 . S
C410 C415 1.399 . S
C411 C410 1.399 . S
C411 C412 1.376 . S
C412 H399 0.930 . S
C412 C411 1.376 . S
C412 C413 1.388 . S
C413 H400 0.930 . S
C413 C412 1.388 . S
C413 C414 1.390 . S
C414 C413 1.390 . S
C414 C415 1.394 . S
C414 C420 1.465 1_455 S
C415 C410 1.399 . S
C415 C414 1.394 . S
C415 C416 1.516 1_554 S
C416 C415 1.516 1_556 S
C416 C417 1.502 . S
C416 C418 1.561 . S
C416 C419 1.526 1_455 S
C417 H401 0.959 1_455 S
C417 H402 0.959 1_455 S
C417 H403 0.961 . S
C417 C416 1.502 . S
C418 H404 0.960 . S
C418 H405 0.961 . S
C418 H406 0.959 . S
C418 C416 1.561 . S
C419 C416 1.526 1_655 S
C419 C420 1.396 1_556 S
C419 C424 1.390 . S
C420 C414 1.465 1_655 S
C420 C419 1.396 1_554 S
C420 C421 1.399 . S
C421 H407 0.929 . S
C421 C420 1.399 . S
C421 C422 1.385 . S
C422 H408 0.931 . S
C422 C421 1.385 . S
C422 C423 1.389 1_554 S
C423 C422 1.389 1_556 S
C423 C424 1.387 . S
C424 H409 0.930 . S
C424 C419 1.390 . S
C424 C423 1.387 . S
H425 C437 0.930 . S
H426 C439 0.930 . S
H427 C440 0.930 . S
H428 C444 0.959 . S
H429 C444 0.959 1_565 S
H430 C444 0.961 . S
H431 C445 0.960 1_545 S
H432 C445 0.961 . S
H433 C445 0.959 . S
H434 C448 0.929 . S
H435 C449 0.931 . S
H436 C451 0.930 . S
C437 H425 0.930 . S
C437 C438 1.399 . S
C437 C442 1.399 . S
C438 C437 1.399 . S
C438 C439 1.376 . S
C439 H426 0.930 . S
C439 C438 1.376 . S
C439 C440 1.388 . S
C440 H427 0.930 . S
C440 C439 1.388 . S
C440 C441 1.390 . S
C441 C440 1.390 . S
C441 C442 1.394 . S
C441 C447 1.465 1_545 S
C442 C437 1.399 . S
C442 C441 1.394 . S
C442 C443 1.516 . S
C443 C442 1.516 . S
C443 C444 1.502 . S
C443 C445 1.561 1_545 S
C443 C446 1.526 1_545 S
C444 H428 0.959 . S
C444 H429 0.959 1_545 S
C444 H430 0.961 . S
C444 C443 1.502 . S
C445 H431 0.960 1_565 S
C445 H432 0.961 . S
C445 H433 0.959 . S
C445 C443 1.561 1_565 S
C446 C443 1.526 1_565 S
C446 C447 1.396 . S
C446 C451 1.390 . S
C447 C441 1.465 1_565 S
C447 C446 1.396 . S
C447 C448 1.399 . S
C448 H434 0.929 . S
C448 C447 1.399 . S
C448 C449 1.385 . S
C449 H435 0.931 . S
C449 C448 1.385 . S
C449 C450 1.389 . S
C450 C449 1.389 . S
C450 C451 1.387 . S
C451 H436 0.930 . S
C451 C446 1.390 . S
C451 C450 1.387 . S
C249 C5 1.613 . S
C261 C123 1.612 . S
C276 C64 1.621 . S
C288 C182 1.622 . S
C303 C52 1.698 . S
C315 C210 1.722 . S
C330 C121 1.520 . S
C342 C111 1.501 . S
C357 C180 1.359 . S
C369 C3 1.343 . S
C384 C62 1.474 . S
C396 C170 1.483 . S
C411 C33 1.741 . S
C423 C229 1.730 . S
C438 C92 1.922 . S
C450 C151 1.914 . S
