# Generated by pormake.
# Topology umv, (4)-cn, num edge types: 1
# Building blocks:
#     Node 0, Type 0, BuildingBlock: QUQFOY_clean_sbu_3, # of connection points: 4
#     Node 1, Type 0, BuildingBlock: QUQFOY_clean_sbu_3, # of connection points: 4
#     Node 2, Type 0, BuildingBlock: QUQFOY_clean_sbu_3, # of connection points: 4
#     Node 3, Type 0, BuildingBlock: QUQFOY_clean_sbu_3, # of connection points: 4
#     Node 4, Type 0, BuildingBlock: QUQFOY_clean_sbu_3, # of connection points: 4
#     Node 5, Type 0, BuildingBlock: QUQFOY_clean_sbu_3, # of connection points: 4
#     Node 6, Type 0, BuildingBlock: QUQFOY_clean_sbu_3, # of connection points: 4
#     Node 7, Type 0, BuildingBlock: QUQFOY_clean_sbu_3, # of connection points: 4
#     Node 8, Type 0, BuildingBlock: QUQFOY_clean_sbu_3, # of connection points: 4
#     Node 9, Type 0, BuildingBlock: QUQFOY_clean_sbu_3, # of connection points: 4
#     Node 10, Type 0, BuildingBlock: QUQFOY_clean_sbu_3, # of connection points: 4
#     Node 11, Type 0, BuildingBlock: QUQFOY_clean_sbu_3, # of connection points: 4
#     Node 12, Type 0, BuildingBlock: QUQFOY_clean_sbu_3, # of connection points: 4
#     Node 13, Type 0, BuildingBlock: QUQFOY_clean_sbu_3, # of connection points: 4
#     Node 14, Type 0, BuildingBlock: QUQFOY_clean_sbu_3, # of connection points: 4
#     Node 15, Type 0, BuildingBlock: QUQFOY_clean_sbu_3, # of connection points: 4
#     Node 16, Type 0, BuildingBlock: QUQFOY_clean_sbu_3, # of connection points: 4
#     Node 17, Type 0, BuildingBlock: QUQFOY_clean_sbu_3, # of connection points: 4
#     Node 18, Type 0, BuildingBlock: QUQFOY_clean_sbu_3, # of connection points: 4
#     Node 19, Type 0, BuildingBlock: QUQFOY_clean_sbu_3, # of connection points: 4
#     Node 20, Type 0, BuildingBlock: QUQFOY_clean_sbu_3, # of connection points: 4
#     Node 21, Type 0, BuildingBlock: QUQFOY_clean_sbu_3, # of connection points: 4
#     Node 22, Type 0, BuildingBlock: QUQFOY_clean_sbu_3, # of connection points: 4
#     Node 23, Type 0, BuildingBlock: QUQFOY_clean_sbu_3, # of connection points: 4
#     Node 24, Type 0, BuildingBlock: QUQFOY_clean_sbu_3, # of connection points: 4
#     Node 25, Type 0, BuildingBlock: QUQFOY_clean_sbu_3, # of connection points: 4
#     Node 26, Type 0, BuildingBlock: QUQFOY_clean_sbu_3, # of connection points: 4
#     Node 27, Type 0, BuildingBlock: QUQFOY_clean_sbu_3, # of connection points: 4
#     Node 28, Type 0, BuildingBlock: QUQFOY_clean_sbu_3, # of connection points: 4
#     Node 29, Type 0, BuildingBlock: QUQFOY_clean_sbu_3, # of connection points: 4
#     Node 30, Type 0, BuildingBlock: QUQFOY_clean_sbu_3, # of connection points: 4
#     Node 31, Type 0, BuildingBlock: QUQFOY_clean_sbu_3, # of connection points: 4
#     Edge 32, Type (0, 0), BuildingBlock: XIVTED_clean_linker_0, # of connection points: 2
#     Edge 33, Type (0, 0), BuildingBlock: XIVTED_clean_linker_0, # of connection points: 2
#     Edge 34, Type (0, 0), BuildingBlock: XIVTED_clean_linker_0, # of connection points: 2
#     Edge 35, Type (0, 0), BuildingBlock: XIVTED_clean_linker_0, # of connection points: 2
#     Edge 36, Type (0, 0), BuildingBlock: XIVTED_clean_linker_0, # of connection points: 2
#     Edge 37, Type (0, 0), BuildingBlock: XIVTED_clean_linker_0, # of connection points: 2
#     Edge 38, Type (0, 0), BuildingBlock: XIVTED_clean_linker_0, # of connection points: 2
#     Edge 39, Type (0, 0), BuildingBlock: XIVTED_clean_linker_0, # of connection points: 2
#     Edge 40, Type (0, 0), BuildingBlock: XIVTED_clean_linker_0, # of connection points: 2
#     Edge 41, Type (0, 0), BuildingBlock: XIVTED_clean_linker_0, # of connection points: 2
#     Edge 42, Type (0, 0), BuildingBlock: XIVTED_clean_linker_0, # of connection points: 2
#     Edge 43, Type (0, 0), BuildingBlock: XIVTED_clean_linker_0, # of connection points: 2
#     Edge 44, Type (0, 0), BuildingBlock: XIVTED_clean_linker_0, # of connection points: 2
#     Edge 45, Type (0, 0), BuildingBlock: XIVTED_clean_linker_0, # of connection points: 2
#     Edge 46, Type (0, 0), BuildingBlock: XIVTED_clean_linker_0, # of connection points: 2
#     Edge 47, Type (0, 0), BuildingBlock: XIVTED_clean_linker_0, # of connection points: 2
#     Edge 48, Type (0, 0), BuildingBlock: XIVTED_clean_linker_0, # of connection points: 2
#     Edge 49, Type (0, 0), BuildingBlock: XIVTED_clean_linker_0, # of connection points: 2
#     Edge 50, Type (0, 0), BuildingBlock: XIVTED_clean_linker_0, # of connection points: 2
#     Edge 51, Type (0, 0), BuildingBlock: XIVTED_clean_linker_0, # of connection points: 2
#     Edge 52, Type (0, 0), BuildingBlock: XIVTED_clean_linker_0, # of connection points: 2
#     Edge 53, Type (0, 0), BuildingBlock: XIVTED_clean_linker_0, # of connection points: 2
#     Edge 54, Type (0, 0), BuildingBlock: XIVTED_clean_linker_0, # of connection points: 2
#     Edge 55, Type (0, 0), BuildingBlock: XIVTED_clean_linker_0, # of connection points: 2
#     Edge 56, Type (0, 0), BuildingBlock: XIVTED_clean_linker_0, # of connection points: 2
#     Edge 57, Type (0, 0), BuildingBlock: XIVTED_clean_linker_0, # of connection points: 2
#     Edge 58, Type (0, 0), BuildingBlock: XIVTED_clean_linker_0, # of connection points: 2
#     Edge 59, Type (0, 0), BuildingBlock: XIVTED_clean_linker_0, # of connection points: 2
#     Edge 60, Type (0, 0), BuildingBlock: XIVTED_clean_linker_0, # of connection points: 2
#     Edge 61, Type (0, 0), BuildingBlock: XIVTED_clean_linker_0, # of connection points: 2
#     Edge 62, Type (0, 0), BuildingBlock: XIVTED_clean_linker_0, # of connection points: 2
#     Edge 63, Type (0, 0), BuildingBlock: XIVTED_clean_linker_0, # of connection points: 2
#     Edge 64, Type (0, 0), BuildingBlock: XIVTED_clean_linker_0, # of connection points: 2
#     Edge 65, Type (0, 0), BuildingBlock: XIVTED_clean_linker_0, # of connection points: 2
#     Edge 66, Type (0, 0), BuildingBlock: XIVTED_clean_linker_0, # of connection points: 2
#     Edge 67, Type (0, 0), BuildingBlock: XIVTED_clean_linker_0, # of connection points: 2
#     Edge 68, Type (0, 0), BuildingBlock: XIVTED_clean_linker_0, # of connection points: 2
#     Edge 69, Type (0, 0), BuildingBlock: XIVTED_clean_linker_0, # of connection points: 2
#     Edge 70, Type (0, 0), BuildingBlock: XIVTED_clean_linker_0, # of connection points: 2
#     Edge 71, Type (0, 0), BuildingBlock: XIVTED_clean_linker_0, # of connection points: 2
#     Edge 72, Type (0, 0), BuildingBlock: XIVTED_clean_linker_0, # of connection points: 2
#     Edge 73, Type (0, 0), BuildingBlock: XIVTED_clean_linker_0, # of connection points: 2
#     Edge 74, Type (0, 0), BuildingBlock: XIVTED_clean_linker_0, # of connection points: 2
#     Edge 75, Type (0, 0), BuildingBlock: XIVTED_clean_linker_0, # of connection points: 2
#     Edge 76, Type (0, 0), BuildingBlock: XIVTED_clean_linker_0, # of connection points: 2
#     Edge 77, Type (0, 0), BuildingBlock: XIVTED_clean_linker_0, # of connection points: 2
#     Edge 78, Type (0, 0), BuildingBlock: XIVTED_clean_linker_0, # of connection points: 2
#     Edge 79, Type (0, 0), BuildingBlock: XIVTED_clean_linker_0, # of connection points: 2
#     Edge 80, Type (0, 0), BuildingBlock: XIVTED_clean_linker_0, # of connection points: 2
#     Edge 81, Type (0, 0), BuildingBlock: XIVTED_clean_linker_0, # of connection points: 2
#     Edge 82, Type (0, 0), BuildingBlock: XIVTED_clean_linker_0, # of connection points: 2
#     Edge 83, Type (0, 0), BuildingBlock: XIVTED_clean_linker_0, # of connection points: 2
#     Edge 84, Type (0, 0), BuildingBlock: XIVTED_clean_linker_0, # of connection points: 2
#     Edge 85, Type (0, 0), BuildingBlock: XIVTED_clean_linker_0, # of connection points: 2
#     Edge 86, Type (0, 0), BuildingBlock: XIVTED_clean_linker_0, # of connection points: 2
#     Edge 87, Type (0, 0), BuildingBlock: XIVTED_clean_linker_0, # of connection points: 2
#     Edge 88, Type (0, 0), BuildingBlock: XIVTED_clean_linker_0, # of connection points: 2
#     Edge 89, Type (0, 0), BuildingBlock: XIVTED_clean_linker_0, # of connection points: 2
#     Edge 90, Type (0, 0), BuildingBlock: XIVTED_clean_linker_0, # of connection points: 2
#     Edge 91, Type (0, 0), BuildingBlock: XIVTED_clean_linker_0, # of connection points: 2
#     Edge 92, Type (0, 0), BuildingBlock: XIVTED_clean_linker_0, # of connection points: 2
#     Edge 93, Type (0, 0), BuildingBlock: XIVTED_clean_linker_0, # of connection points: 2
#     Edge 94, Type (0, 0), BuildingBlock: XIVTED_clean_linker_0, # of connection points: 2
#     Edge 95, Type (0, 0), BuildingBlock: XIVTED_clean_linker_0, # of connection points: 2
# Relax obj value: 0.123
# Max RMSD: 0.107
# Mean RMSD: 0.107
data_MOF--net-umv--node1-QUQFOY_clean_sbu_3--edge1-XIVTED_clean_linker_0
_symmetry_space_group_name_H-M    P1
_symmetry_Int_Tables_number       1
_symmetry_cell_setting            triclinic
loop_
_symmetry_equiv_pos_as_xyz
'x, y, z'
_cell_length_a     108.16477
_cell_length_b     26.432333
_cell_length_c     62.355503
_cell_angle_alpha  89.94089
_cell_angle_beta   89.974567
_cell_angle_gamma 90.05372
loop_
_atom_site_label
_atom_site_type_symbol
_atom_site_fract_x
_atom_site_fract_y
_atom_site_fract_z
_atom_type_partial_charge
C0 C 0.03844 -0.01337 0.32639 0.0
O1 O 0.04352 -0.00863 0.34457 0.0
Cd2 Cd 0.05614 0.05885 0.3551 0.0
O3 O 0.03905 0.02161 0.31232 0.0
Cd4 Cd 0.04703 0.11132 0.31352 0.0
C5 C 0.07611 0.07139 0.31173 0.0
O6 O 0.04344 0.13074 0.35118 0.0
O7 O 0.05712 0.17671 0.33521 0.0
O8 O 0.02678 0.14329 0.30388 0.0
C9 C 0.05017 0.16981 0.35132 0.0
O10 O 0.07382 0.05866 0.33102 0.0
C11 C 0.03037 0.17295 0.28915 0.0
O12 O 0.0678 0.09151 0.30003 0.0
O13 O 0.04179 0.17153 0.28439 0.0
C14 C 0.19365 0.20898 0.35074 0.0
O15 O 0.18991 0.17711 0.36452 0.0
Cd16 Cd 0.18594 0.09031 0.36038 0.0
O17 O 0.19612 0.19554 0.33152 0.0
Cd18 Cd 0.19626 0.11021 0.31341 0.0
C19 C 0.1659 0.09335 0.3167 0.0
O20 O 0.20367 0.06021 0.34323 0.0
O21 O 0.19257 0.02034 0.32031 0.0
O22 O 0.21704 0.11685 0.29896 0.0
C23 C 0.19961 0.01839 0.33651 0.0
O24 O 0.16848 0.08133 0.33598 0.0
C25 C 0.21446 0.09652 0.28108 0.0
O26 O 0.17411 0.11187 0.30426 0.0
O27 O 0.20306 0.08982 0.27699 0.0
C28 C 0.06253 0.16515 0.90324 0.0
O29 O 0.06602 0.1295 0.89104 0.0
Cd30 Cd 0.06415 0.04148 0.89781 0.0
O31 O 0.05763 0.15573 0.92147 0.0
Cd32 Cd 0.05236 0.07626 0.94144 0.0
C33 C 0.08147 0.03208 0.94383 0.0
O34 O 0.0437 0.03378 0.91056 0.0
O35 O 0.04752 -0.01392 0.93768 0.0
O36 O 0.03263 0.11056 0.95317 0.0
C37 C 0.04226 -0.00847 0.91968 0.0
O38 O 0.07951 0.01852 0.92455 0.0
C39 C 0.03293 0.08958 0.97149 0.0
O40 O 0.07363 0.05912 0.9539 0.0
O41 O 0.04314 0.0698 0.97705 0.0
C42 C 0.20094 0.03785 0.88864 0.0
O43 O 0.19241 0.04943 0.87559 0.0
Cd44 Cd 0.17522 0.09949 0.88588 0.0
O45 O 0.20136 0.05808 0.90717 0.0
Cd46 Cd 0.19082 0.12943 0.9258 0.0
C47 C 0.16689 0.05501 0.93647 0.0
O48 O 0.18261 0.17994 0.89621 0.0
O49 O 0.17482 0.19307 0.92771 0.0
O50 O 0.21069 0.17147 0.92535 0.0
C51 C 0.17557 0.20595 0.90819 0.0
O52 O 0.16512 0.05946 0.91637 0.0
C53 C 0.21086 0.18292 0.94507 0.0
O54 O 0.17615 0.07582 0.94554 0.0
O55 O 0.20186 0.16726 0.95645 0.0
C56 C 0.94966 0.89784 0.63995 0.0
O57 O 0.94225 0.86576 0.63196 0.0
Cd58 Cd 0.93511 0.79217 0.64982 0.0
O59 O 0.95386 0.89203 0.65893 0.0
Cd60 Cd 0.95171 0.82594 0.68735 0.0
C61 C 0.92194 0.84416 0.69532 0.0
O62 O 0.95284 0.75347 0.66439 0.0
O63 O 0.94305 0.74114 0.69398 0.0
O64 O 0.9739 0.82581 0.69238 0.0
C65 C 0.94841 0.72251 0.67776 0.0
O66 O 0.92104 0.81716 0.67849 0.0
C67 C 0.97349 0.81707 0.71237 0.0
O68 O 0.93238 0.86043 0.70181 0.0
O69 O 0.96295 0.81997 0.72129 0.0
C70 C 0.80834 0.79034 0.65539 0.0
O71 O 0.81473 0.8187 0.64325 0.0
Cd72 Cd 0.81824 0.90565 0.64987 0.0
O73 O 0.80405 0.80717 0.67307 0.0
Cd74 Cd 0.80502 0.89101 0.69153 0.0
C75 C 0.83552 0.90165 0.69546 0.0
O76 O 0.7984 0.93591 0.66001 0.0
O77 O 0.80699 0.98285 0.68392 0.0
O78 O 0.78418 0.87411 0.70414 0.0
C79 C 0.80015 0.97959 0.66748 0.0
O80 O 0.83463 0.91694 0.67618 0.0
C81 C 0.78525 0.89874 0.72147 0.0
O82 O 0.82621 0.88291 0.70511 0.0
O83 O 0.79601 0.91439 0.72619 0.0
C84 C 0.92872 0.81673 0.08593 0.0
O85 O 0.92254 0.84741 0.09731 0.0
Cd86 Cd 0.92013 0.93428 0.08984 0.0
O87 O 0.93366 0.83128 0.06836 0.0
Cd88 Cd 0.93449 0.91509 0.04924 0.0
C89 C 0.90438 0.93183 0.04217 0.0
O90 O 0.94038 0.96087 0.0809 0.0
O91 O 0.93224 0.00694 0.05626 0.0
O92 O 0.9559 0.89777 0.03976 0.0
C93 C 0.93872 0.00434 0.07315 0.0
O94 O 0.90499 0.94666 0.06155 0.0
C95 C 0.95574 0.92249 0.02232 0.0
O96 O 0.91366 0.91101 0.0332 0.0
O97 O 0.94524 0.93769 0.01589 0.0
C98 C 0.79006 0.9337 0.09906 0.0
O99 O 0.79929 0.91551 0.10899 0.0
Cd100 Cd 0.81263 0.85069 0.09733 0.0
O101 O 0.78656 0.91553 0.08107 0.0
Cd102 Cd 0.79201 0.84006 0.05842 0.0
C103 C 0.81947 0.88999 0.04504 0.0
O104 O 0.79831 0.78859 0.08794 0.0
O105 O 0.8031 0.75823 0.05704 0.0
O106 O 0.77013 0.81797 0.05892 0.0
C107 C 0.80301 0.75305 0.07723 0.0
O108 O 0.8223 0.8809 0.06449 0.0
C109 C 0.76958 0.80527 0.03934 0.0
O110 O 0.80867 0.88116 0.03774 0.0
O111 O 0.77923 0.81256 0.02811 0.0
C112 C 0.06373 0.52229 0.84977 0.0
O113 O 0.06634 0.55775 0.86274 0.0
Cd114 Cd 0.06377 0.64617 0.85759 0.0
O115 O 0.05966 0.532 0.83097 0.0
Cd116 Cd 0.05515 0.61277 0.81152 0.0
C117 C 0.08331 0.66636 0.81525 0.0
O118 O 0.04414 0.65131 0.84124 0.0
O119 O 0.04892 0.7013 0.81538 0.0
O120 O 0.03658 0.58301 0.79367 0.0
C121 C 0.04283 0.69399 0.83244 0.0
O122 O 0.08013 0.67752 0.83432 0.0
C123 C 0.03923 0.60351 0.77581 0.0
O124 O 0.07658 0.63771 0.80371 0.0
O125 O 0.0502 0.61983 0.77364 0.0
C126 C 0.20631 0.70359 0.85941 0.0
O127 O 0.19913 0.69226 0.87475 0.0
Cd128 Cd 0.18111 0.64308 0.86929 0.0
O129 O 0.20521 0.68182 0.84129 0.0
Cd130 Cd 0.19356 0.6066 0.82794 0.0
C131 C 0.16957 0.6809 0.81965 0.0
O132 O 0.18683 0.56009 0.85992 0.0
O133 O 0.17634 0.54876 0.83076 0.0
O134 O 0.21257 0.55861 0.82499 0.0
C135 C 0.17848 0.53589 0.84997 0.0
O136 O 0.16907 0.6794 0.84005 0.0
C137 C 0.21103 0.5454 0.80563 0.0
O138 O 0.17819 0.65841 0.8095 0.0
O139 O 0.20162 0.56321 0.796 0.0
C140 C 0.03602 0.65356 0.37684 0.0
O141 O 0.043 0.61918 0.36946 0.0
Cd142 Cd 0.04986 0.54838 0.39009 0.0
O143 O 0.0323 0.65182 0.39624 0.0
Cd144 Cd 0.03446 0.59309 0.42719 0.0
C145 C 0.06477 0.60612 0.43255 0.0
O146 O 0.03261 0.51354 0.40832 0.0
O147 O 0.04192 0.51011 0.43886 0.0
O148 O 0.01229 0.59848 0.43252 0.0
C149 C 0.03676 0.48684 0.42355 0.0
O150 O 0.06496 0.5758 0.41669 0.0
C151 C 0.01274 0.59869 0.45283 0.0
O152 O 0.05468 0.62584 0.43901 0.0
O153 O 0.0234 0.6027 0.46126 0.0
C154 C 0.18225 0.55508 0.41032 0.0
O155 O 0.17793 0.5891 0.39807 0.0
Cd156 Cd 0.17407 0.67334 0.40919 0.0
O157 O 0.18453 0.5646 0.43001 0.0
Cd158 Cd 0.18343 0.63946 0.4544 0.0
C159 C 0.15294 0.65364 0.45001 0.0
O160 O 0.19221 0.69527 0.42825 0.0
O161 O 0.1823 0.73263 0.45356 0.0
O162 O 0.20313 0.61038 0.46784 0.0
C163 C 0.18982 0.7358 0.43805 0.0
O164 O 0.15573 0.67329 0.43198 0.0
C165 C 0.20206 0.62994 0.4863 0.0
O166 O 0.16113 0.63212 0.46153 0.0
O167 O 0.19152 0.64784 0.4911 0.0
C168 C 0.94325 0.47168 0.14693 0.0
O169 O 0.9403 0.43509 0.13481 0.0
Cd170 Cd 0.93871 0.34854 0.14401 0.0
O171 O 0.94622 0.46416 0.16653 0.0
Cd172 Cd 0.94892 0.3864 0.18938 0.0
C173 C 0.91902 0.35441 0.18815 0.0
O174 O 0.95697 0.32949 0.1625 0.0
O175 O 0.94781 0.29393 0.189 0.0
O176 O 0.96972 0.40539 0.2018 0.0
C177 C 0.95415 0.28897 0.17206 0.0
O178 O 0.92169 0.33892 0.16936 0.0
C179 C 0.96766 0.39401 0.22125 0.0
O180 O 0.92684 0.37933 0.19926 0.0
O181 O 0.95644 0.38617 0.22641 0.0
C182 C 0.79548 0.26562 0.15248 0.0
O183 O 0.80299 0.28275 0.13862 0.0
Cd184 Cd 0.81704 0.35004 0.14308 0.0
O185 O 0.79432 0.28645 0.17085 0.0
Cd186 Cd 0.8017 0.36676 0.1882 0.0
C187 C 0.83087 0.32445 0.19261 0.0
O188 O 0.80395 0.41379 0.15557 0.0
O189 O 0.81181 0.44956 0.18343 0.0
O190 O 0.78015 0.38789 0.19275 0.0
C191 C 0.80946 0.45144 0.16354 0.0
O192 O 0.83092 0.32794 0.17224 0.0
C193 C 0.78078 0.40012 0.21236 0.0
O194 O 0.82126 0.33498 0.2036 0.0
O195 O 0.79119 0.39418 0.22153 0.0
C196 C 0.94233 0.23243 0.58351 0.0
O197 O 0.93797 0.24882 0.60103 0.0
Cd198 Cd 0.92619 0.32192 0.60534 0.0
O199 O 0.94112 0.25724 0.56604 0.0
Cd200 Cd 0.93357 0.34545 0.55747 0.0
C201 C 0.90421 0.31271 0.56463 0.0
O202 O 0.93984 0.38209 0.59097 0.0
O203 O 0.9264 0.42586 0.57366 0.0
O204 O 0.95351 0.35909 0.5412 0.0
C205 C 0.93405 0.42314 0.58898 0.0
O206 O 0.90746 0.31161 0.58425 0.0
C207 C 0.94979 0.38609 0.5257 0.0
O208 O 0.912 0.32284 0.5499 0.0
O209 O 0.93815 0.39034 0.52348 0.0
C210 C 0.78568 0.44839 0.59994 0.0
O211 O 0.78689 0.41254 0.61333 0.0
Cd212 Cd 0.78953 0.32525 0.60574 0.0
O213 O 0.78472 0.43955 0.57986 0.0
Cd214 Cd 0.78342 0.3629 0.55649 0.0
C215 C 0.81302 0.3357 0.56724 0.0
O216 O 0.77421 0.30321 0.58109 0.0
O217 O 0.7845 0.27108 0.55505 0.0
O218 O 0.76404 0.38448 0.53943 0.0
C219 C 0.778 0.26382 0.57167 0.0
O220 O 0.80875 0.32099 0.58529 0.0
C221 C 0.76767 0.37479 0.52051 0.0
O222 O 0.80607 0.35745 0.55347 0.0
O223 O 0.77915 0.3661 0.51806 0.0
C224 C 0.5518 0.05037 0.83438 0.0
O225 O 0.56146 0.06914 0.84278 0.0
Cd226 Cd 0.56974 0.15046 0.83551 0.0
O227 O 0.54597 0.07398 0.81966 0.0
Cd228 Cd 0.54847 0.15751 0.80156 0.0
C229 C 0.57711 0.14242 0.78224 0.0
O230 O 0.5515 0.19902 0.83573 0.0
O231 O 0.55378 0.24681 0.808 0.0
O232 O 0.52587 0.16053 0.80061 0.0
C233 C 0.55246 0.24306 0.82811 0.0
O234 O 0.5804 0.15074 0.80147 0.0
C235 C 0.5253 0.18398 0.78289 0.0
O236 O 0.56578 0.13682 0.77731 0.0
O237 O 0.5354 0.18988 0.7728 0.0
C238 C 0.68123 0.18824 0.83433 0.0
O239 O 0.67372 0.15822 0.84344 0.0
Cd240 Cd 0.67078 0.07268 0.83399 0.0
O241 O 0.68742 0.17409 0.81795 0.0
Cd242 Cd 0.68852 0.09229 0.79781 0.0
C243 C 0.65917 0.08466 0.78332 0.0
O244 O 0.69125 0.04289 0.82962 0.0
O245 O 0.68416 0.00056 0.80299 0.0
O246 O 0.71069 0.1032 0.79233 0.0
C247 C 0.68926 0.00034 0.82127 0.0
O248 O 0.6579 0.06627 0.80206 0.0
C249 C 0.71083 0.08253 0.77399 0.0
O250 O 0.66932 0.10483 0.77756 0.0
O251 O 0.70042 0.07217 0.7657 0.0
C252 C 0.55796 0.18609 0.40574 0.0
O253 O 0.5604 0.15171 0.39218 0.0
Cd254 Cd 0.55882 0.06305 0.39714 0.0
O255 O 0.55468 0.17483 0.42486 0.0
Cd256 Cd 0.55139 0.0934 0.44467 0.0
C257 C 0.58003 0.04683 0.43754 0.0
O258 O 0.53981 0.05592 0.41545 0.0
O259 O 0.54503 0.00467 0.44058 0.0
O260 O 0.53382 0.12872 0.4637 0.0
C261 C 0.53871 0.01271 0.42385 0.0
O262 O 0.57629 0.03613 0.41874 0.0
C263 C 0.53591 0.10499 0.48104 0.0
O264 O 0.57334 0.07279 0.45025 0.0
O265 O 0.54625 0.08256 0.48248 0.0
C266 C 0.70508 -0.01232 0.39042 0.0
O267 O 0.69922 -0.00103 0.3735 0.0
Cd268 Cd 0.68225 0.05491 0.37402 0.0
O269 O 0.7036 0.01336 0.40752 0.0
Cd270 Cd 0.6936 0.09691 0.41517 0.0
C271 C 0.66778 0.03345 0.42319 0.0
O272 O 0.68993 0.13676 0.38021 0.0
O273 O 0.6778 0.15825 0.4062 0.0
O274 O 0.71329 0.13976 0.42 0.0
C275 C 0.68151 0.16575 0.38719 0.0
O276 O 0.66814 0.02971 0.40282 0.0
C277 C 0.71074 0.15819 0.43826 0.0
O278 O 0.67637 0.05589 0.43341 0.0
O279 O 0.70045 0.14544 0.44653 0.0
C280 C 0.45241 0.95326 0.15136 0.0
O281 O 0.4464 0.93998 0.13486 0.0
Cd282 Cd 0.42879 0.88696 0.13674 0.0
O283 O 0.45051 0.93179 0.16938 0.0
Cd284 Cd 0.43949 0.85354 0.18124 0.0
C285 C 0.41385 0.92155 0.18427 0.0
O286 O 0.43543 0.80699 0.1482 0.0
O287 O 0.42379 0.78995 0.17553 0.0
O288 O 0.45912 0.81211 0.18585 0.0
C289 C 0.42698 0.77994 0.15644 0.0
O290 O 0.41474 0.92006 0.1639 0.0
C291 C 0.45744 0.79802 0.20507 0.0
O292 O 0.42201 0.90102 0.19621 0.0
O293 O 0.44744 0.81211 0.21407 0.0
C294 C 0.30499 0.78348 0.14487 0.0
O295 O 0.30881 0.81677 0.13174 0.0
Cd296 Cd 0.30746 0.90595 0.13468 0.0
O297 O 0.30022 0.79628 0.16283 0.0
Cd298 Cd 0.29661 0.88107 0.17977 0.0
C299 C 0.326 0.92419 0.17813 0.0
O300 O 0.28724 0.91806 0.14803 0.0
O301 O 0.29211 0.9705 0.17293 0.0
O302 O 0.27689 0.85967 0.19648 0.0
C303 C 0.28624 0.96196 0.15575 0.0
O304 O 0.32364 0.93498 0.15868 0.0
C305 C 0.27936 0.88165 0.21407 0.0
O306 O 0.31831 0.89908 0.18939 0.0
O307 O 0.2905 0.89537 0.21681 0.0
C308 C 0.43225 0.79677 0.58654 0.0
O309 O 0.42281 0.82055 0.59327 0.0
Cd310 Cd 0.41701 0.90435 0.58491 0.0
O311 O 0.43937 0.81599 0.57235 0.0
Cd312 Cd 0.43933 0.89859 0.55281 0.0
C313 C 0.4109 0.89326 0.5315 0.0
O314 O 0.43665 0.94198 0.58623 0.0
O315 O 0.43527 -0.00983 0.55859 0.0
O316 O 0.46201 0.89731 0.55206 0.0
C317 C 0.43623 -0.01386 0.57874 0.0
O318 O 0.40734 0.9074 0.54998 0.0
C319 C 0.46281 0.9191 0.53397 0.0
O320 O 0.42207 0.88042 0.52814 0.0
O321 O 0.4528 0.92543 0.52372 0.0
C322 C 0.30908 0.92135 0.58495 0.0
O323 O 0.31831 0.89904 0.59325 0.0
Cd324 Cd 0.32386 0.8134 0.58656 0.0
O325 O 0.30249 0.89938 0.57076 0.0
Cd326 Cd 0.30302 0.81465 0.55348 0.0
C327 C 0.33184 0.81643 0.53391 0.0
O328 O 0.30443 0.77255 0.58796 0.0
O329 O 0.30623 0.72392 0.56044 0.0
O330 O 0.28047 0.81942 0.55166 0.0
C331 C 0.30433 0.72831 0.58039 0.0
O332 O 0.33488 0.80464 0.55295 0.0
C333 C 0.27964 0.7967 0.5338 0.0
O334 O 0.32079 0.82911 0.52945 0.0
O335 O 0.28971 0.78761 0.52407 0.0
C336 C 0.5507 0.54326 0.35372 0.0
O337 O 0.55378 0.57941 0.36601 0.0
Cd338 Cd 0.5522 0.66709 0.35846 0.0
O339 O 0.54626 0.55187 0.33508 0.0
Cd340 Cd 0.5412 0.62999 0.31407 0.0
C341 C 0.57068 0.67324 0.31366 0.0
O342 O 0.53212 0.67444 0.34388 0.0
O343 O 0.53617 0.72088 0.31656 0.0
O344 O 0.52156 0.59787 0.30062 0.0
C345 C 0.531 0.71674 0.33471 0.0
O346 O 0.56853 0.68695 0.33287 0.0
C347 C 0.52337 0.61218 0.28144 0.0
O348 O 0.5627 0.64777 0.30318 0.0
O349 O 0.53412 0.62853 0.27695 0.0
C350 C 0.69209 0.6558 0.3523 0.0
O351 O 0.68383 0.63478 0.36372 0.0
Cd352 Cd 0.6691 0.57629 0.34986 0.0
O353 O 0.69334 0.64435 0.33254 0.0
Cd354 Cd 0.68559 0.5844 0.30486 0.0
C355 C 0.65781 0.64198 0.30522 0.0
O356 O 0.6812 0.51883 0.33008 0.0
O357 O 0.67533 0.50296 0.29769 0.0
O358 O 0.70743 0.56905 0.30112 0.0
C359 C 0.67609 0.48875 0.31705 0.0
O360 O 0.65698 0.62434 0.32418 0.0
C361 C 0.70762 0.56701 0.28083 0.0
O362 O 0.6674 0.63477 0.29369 0.0
O363 O 0.6975 0.57607 0.27115 0.0
C364 C 0.52861 0.7192 0.89575 0.0
O365 O 0.53001 0.68605 0.88123 0.0
Cd366 Cd 0.53609 0.60082 0.88597 0.0
O367 O 0.52909 0.70742 0.91563 0.0
Cd368 Cd 0.53065 0.6284 0.93775 0.0
C369 C 0.56042 0.62121 0.92269 0.0
O370 O 0.52263 0.57018 0.9119 0.0
O371 O 0.53287 0.53645 0.93764 0.0
O372 O 0.51108 0.64394 0.95496 0.0
C373 C 0.52685 0.53039 0.92041 0.0
O374 O 0.55582 0.60859 0.90462 0.0
C375 C 0.5146 0.6311 0.9736 0.0
O376 O 0.55348 0.63352 0.93843 0.0
O377 O 0.52614 0.62371 0.97618 0.0
C378 C 0.68597 0.53154 0.89905 0.0
O379 O 0.68467 0.56598 0.88507 0.0
Cd380 Cd 0.67819 0.6487 0.89276 0.0
O381 O 0.68496 0.54137 0.91905 0.0
Cd382 Cd 0.68258 0.6196 0.94175 0.0
C383 C 0.65319 0.62358 0.92738 0.0
O384 O 0.69261 0.67789 0.91791 0.0
O385 O 0.67921 0.71156 0.93881 0.0
O386 O 0.70168 0.59706 0.95911 0.0
C387 C 0.68777 0.71769 0.92519 0.0
O388 O 0.65804 0.63825 0.90979 0.0
C389 C 0.699 0.61555 0.97728 0.0
O390 O 0.65995 0.61066 0.94322 0.0
O391 O 0.68789 0.62995 0.97995 0.0
C392 C 0.43979 0.46077 0.65424 0.0
O393 O 0.43757 0.42768 0.64001 0.0
Cd394 Cd 0.43028 0.34543 0.64627 0.0
O395 O 0.4391 0.45025 0.67425 0.0
Cd396 Cd 0.43607 0.37302 0.69747 0.0
C397 C 0.40634 0.37327 0.68291 0.0
O398 O 0.44479 0.3187 0.67138 0.0
O399 O 0.4347 0.2795 0.69581 0.0
O400 O 0.45511 0.39807 0.71446 0.0
C401 C 0.44141 0.27701 0.6792 0.0
O402 O 0.41073 0.35994 0.66479 0.0
C403 C 0.45279 0.3777 0.73244 0.0
O404 O 0.41342 0.38245 0.69882 0.0
O405 O 0.44184 0.36131 0.73524 0.0
C406 C 0.28594 0.2571 0.64504 0.0
O407 O 0.28706 0.2923 0.6313 0.0
Cd408 Cd 0.29031 0.37959 0.63781 0.0
O409 O 0.28538 0.26666 0.66512 0.0
Cd410 Cd 0.28444 0.3438 0.68842 0.0
C411 C 0.31413 0.36863 0.67588 0.0
O412 O 0.27525 0.4003 0.66294 0.0
O413 O 0.28386 0.43642 0.68979 0.0
O414 O 0.26526 0.3196 0.7055 0.0
C415 C 0.27806 0.44113 0.67228 0.0
O416 O 0.30971 0.38166 0.65773 0.0
C417 C 0.26874 0.3307 0.72437 0.0
O418 O 0.3072 0.34978 0.69046 0.0
O419 O 0.28013 0.34129 0.72685 0.0
C420 C 0.44534 0.28568 0.11791 0.0
O421 O 0.43671 0.29972 0.13032 0.0
Cd422 Cd 0.41989 0.35106 0.11946 0.0
O423 O 0.44601 0.30239 0.09875 0.0
Cd424 Cd 0.43562 0.36886 0.07673 0.0
C425 C 0.41024 0.29806 0.07111 0.0
O426 O 0.42891 0.42495 0.10524 0.0
O427 O 0.4211 0.43858 0.07382 0.0
O428 O 0.456 0.40601 0.07294 0.0
C429 C 0.42222 0.45212 0.09318 0.0
O430 O 0.40885 0.30745 0.091 0.0
C431 C 0.45526 0.41417 0.05295 0.0
O432 O 0.41964 0.31432 0.06085 0.0
O433 O 0.44564 0.39784 0.04347 0.0
C434 C 0.30236 0.42687 0.09093 0.0
O435 O 0.30386 0.39072 0.10409 0.0
Cd436 Cd 0.30178 0.3031 0.0963 0.0
O437 O 0.29951 0.41826 0.07137 0.0
Cd438 Cd 0.2952 0.34138 0.04929 0.0
C439 C 0.32348 0.29026 0.05616 0.0
O440 O 0.28317 0.29906 0.07659 0.0
O441 O 0.28865 0.25223 0.05019 0.0
O442 O 0.27758 0.38141 0.03232 0.0
C443 C 0.28225 0.2571 0.06708 0.0
O444 O 0.3195 0.27814 0.07469 0.0
C445 C 0.27979 0.36401 0.01375 0.0
O446 O 0.31704 0.31795 0.04369 0.0
O447 O 0.29018 0.34247 0.01109 0.0
H448 H 0.09146 -0.00681 0.31982 0.0
H449 H 0.15212 0.14773 0.28734 0.0
H450 H 0.08982 0.13635 0.28677 0.0
H451 H 0.1508 0.01742 0.32897 0.0
H452 H 0.12997 0.13551 0.27935 0.0
H453 H 0.11375 -0.00847 0.31461 0.0
C454 C 0.09582 0.02387 0.31107 0.0
C455 C 0.08887 0.06523 0.30394 0.0
C456 C 0.13462 0.10926 0.28997 0.0
C457 C 0.11448 0.06461 0.29853 0.0
C458 C 0.14722 0.11615 0.29447 0.0
C459 C 0.15319 0.08404 0.30912 0.0
C460 C 0.12812 0.06958 0.29997 0.0
C461 C 0.14649 0.04365 0.31792 0.0
C462 C 0.10856 0.0231 0.30818 0.0
C463 C 0.09491 0.10383 0.29254 0.0
N464 N 0.13434 0.03781 0.31331 0.0
N465 N 0.10747 0.10317 0.29056 0.0
H466 H 0.15581 0.09404 0.9721 0.0
H467 H 0.09546 0.94871 0.93645 0.0
H468 H 0.15444 0.96807 0.92839 0.0
H469 H 0.09521 0.08804 0.97233 0.0
H470 H 0.11734 0.93849 0.94457 0.0
H471 H 0.13453 0.0751 0.98325 0.0
C472 C 0.15123 0.06095 0.96561 0.0
C473 C 0.15676 0.03284 0.94914 0.0
C474 C 0.11249 0.97084 0.95107 0.0
C475 C 0.13248 0.01169 0.96139 0.0
C476 C 0.09998 0.97666 0.94643 0.0
C477 C 0.09361 0.01987 0.95332 0.0
C478 C 0.11878 0.00913 0.96224 0.0
C479 C 0.09984 0.05445 0.96652 0.0
C480 C 0.13904 0.05052 0.97178 0.0
C481 C 0.15042 -0.00913 0.941 0.0
N482 N 0.1122 0.04903 0.97011 0.0
N483 N 0.13854 0.98209 0.94692 0.0
H484 H 0.91359 0.93843 0.70584 0.0
H485 H 0.84518 0.83242 0.72349 0.0
H486 H 0.90407 0.78026 0.70892 0.0
H487 H 0.85389 0.97072 0.68995 0.0
H488 H 0.86711 0.82364 0.73304 0.0
H489 H 0.89209 0.95982 0.71504 0.0
C490 C 0.90707 0.90833 0.70925 0.0
C491 C 0.91045 0.85764 0.70646 0.0
C492 C 0.86412 0.85658 0.72409 0.0
C493 C 0.8861 0.8815 0.71692 0.0
C494 C 0.85164 0.86168 0.71871 0.0
C495 C 0.84783 0.90181 0.70558 0.0
C496 C 0.87271 0.8923 0.71654 0.0
C497 C 0.85654 0.93871 0.69977 0.0
C498 C 0.89484 0.92047 0.71436 0.0
C499 C 0.90171 0.81983 0.71078 0.0
N500 N 0.86862 0.9328 0.70508 0.0
N501 N 0.88988 0.8325 0.71559 0.0
H502 H 0.8936 0.86531 0.01391 0.0
H503 H 0.82875 0.98485 0.04237 0.0
H504 H 0.88777 0.00787 0.04585 0.0
H505 H 0.83348 0.83373 0.01809 0.0
H506 H 0.84982 0.0053 0.03113 0.0
H507 H 0.87166 0.86435 0.00366 0.0
C508 C 0.88779 0.8971 0.01817 0.0
C509 C 0.89238 0.93617 0.03112 0.0
C510 C 0.84617 0.96808 0.02759 0.0
C511 C 0.86741 0.93535 0.01961 0.0
C512 C 0.83409 0.95671 0.03378 0.0
C513 C 0.82946 0.90773 0.03103 0.0
C514 C 0.85376 0.9296 0.01927 0.0
C515 C 0.83677 0.8721 0.02029 0.0
C516 C 0.87527 0.89648 0.01241 0.0
C517 C 0.8845 0.97649 0.03624 0.0
N518 N 0.8487 0.88332 0.01524 0.0
N519 N 0.87239 0.97468 0.03075 0.0
H520 H 0.09578 0.75044 0.82801 0.0
H521 H 0.15863 0.64247 0.78367 0.0
H522 H 0.09828 0.62416 0.78446 0.0
H523 H 0.15522 0.76104 0.8307 0.0
H524 H 0.1368 0.65364 0.77442 0.0
H525 H 0.11718 0.77205 0.82002 0.0
C526 C 0.10081 0.72761 0.81653 0.0
C527 C 0.09538 0.68465 0.80731 0.0
C528 C 0.14093 0.67835 0.78626 0.0
C529 C 0.11999 0.70866 0.79833 0.0
C530 C 0.15343 0.67238 0.79138 0.0
C531 C 0.15862 0.70021 0.80828 0.0
C532 C 0.13368 0.71237 0.79818 0.0
C533 C 0.15148 0.73822 0.81783 0.0
C534 C 0.11303 0.74006 0.8119 0.0
C535 C 0.10221 0.65716 0.79216 0.0
N536 N 0.13931 0.74248 0.81296 0.0
N537 N 0.11428 0.66891 0.78851 0.0
H538 H 0.07415 0.69823 0.44475 0.0
H539 H 0.14044 0.57989 0.47209 0.0
H540 H 0.08221 0.53856 0.44434 0.0
H541 H 0.13551 0.725 0.44159 0.0
H542 H 0.11787 0.57186 0.47513 0.0
H543 H 0.09553 0.71489 0.45652 0.0
C544 C 0.08033 0.66675 0.4477 0.0
C545 C 0.07656 0.61708 0.44337 0.0
C546 C 0.12178 0.60593 0.46823 0.0
C547 C 0.10073 0.63555 0.45696 0.0
C548 C 0.13463 0.61062 0.46659 0.0
C549 C 0.13978 0.65277 0.45626 0.0
C550 C 0.11414 0.64404 0.4598 0.0
C551 C 0.13185 0.69151 0.44935 0.0
C552 C 0.09249 0.67621 0.4543 0.0
C553 C 0.08488 0.57745 0.44728 0.0
N554 N 0.1194 0.68604 0.45106 0.0
N555 N 0.0966 0.58753 0.45375 0.0
H556 H 0.90485 0.4076 0.21733 0.0
H557 H 0.84582 0.24411 0.18608 0.0
H558 H 0.905 0.27285 0.17837 0.0
H559 H 0.84335 0.38445 0.22081 0.0
H560 H 0.86807 0.24275 0.19237 0.0
H561 H 0.88312 0.39039 0.22673 0.0
C562 C 0.90038 0.37402 0.21108 0.0
C563 C 0.90661 0.34219 0.19669 0.0
C564 C 0.86268 0.27334 0.19913 0.0
C565 C 0.88196 0.32205 0.20746 0.0
C566 C 0.84995 0.2737 0.19574 0.0
C567 C 0.84282 0.31436 0.20297 0.0
C568 C 0.86837 0.31485 0.20921 0.0
C569 C 0.84858 0.35223 0.21515 0.0
C570 C 0.888 0.36422 0.21642 0.0
C571 C 0.90045 0.29905 0.18912 0.0
N572 N 0.86111 0.35228 0.21745 0.0
N573 N 0.88848 0.29056 0.19444 0.0
H574 H 0.88832 0.25072 0.58535 0.0
H575 H 0.82784 0.3785 0.53589 0.0
H576 H 0.8901 0.35812 0.53334 0.0
H577 H 0.82833 0.27095 0.58805 0.0
H578 H 0.85017 0.36496 0.53098 0.0
H579 H 0.86594 0.24934 0.58231 0.0
C580 C 0.88396 0.27351 0.57304 0.0
C581 C 0.89102 0.3049 0.55971 0.0
C582 C 0.84532 0.3441 0.54334 0.0
C583 C 0.86528 0.3047 0.55644 0.0
C584 C 0.8326 0.35183 0.54617 0.0
C585 C 0.82625 0.32645 0.56264 0.0
C586 C 0.85163 0.31056 0.55701 0.0
C587 C 0.83285 0.2921 0.5754 0.0
C588 C 0.87116 0.2729 0.57133 0.0
C589 C 0.88493 0.33337 0.54391 0.0
N590 N 0.84513 0.28545 0.57238 0.0
N591 N 0.87234 0.33331 0.54294 0.0
H592 H 0.64208 0.01097 0.77731 0.0
H593 H 0.59291 0.21333 0.76719 0.0
H594 H 0.65113 0.16352 0.75858 0.0
H595 H 0.58424 0.05463 0.76345 0.0
H596 H 0.61377 0.19553 0.75432 0.0
H597 H 0.62127 0.02255 0.76319 0.0
C598 C 0.63974 0.04651 0.76965 0.0
C599 C 0.64818 0.08672 0.76945 0.0
C600 C 0.60721 0.16465 0.75545 0.0
C601 C 0.62427 0.10103 0.75395 0.0
C602 C 0.59527 0.17495 0.76266 0.0
C603 C 0.58697 0.13527 0.76644 0.0
C604 C 0.61094 0.1141 0.7529 0.0
C605 C 0.59044 0.08616 0.76068 0.0
C606 C 0.62786 0.05316 0.76153 0.0
C607 C 0.6448 0.1318 0.75919 0.0
N608 N 0.60232 0.07666 0.7548 0.0
N609 N 0.63295 0.13834 0.75242 0.0
H610 H 0.65278 0.9545 0.4132 0.0
H611 H 0.59558 0.09068 0.46713 0.0
H612 H 0.65647 0.07901 0.45735 0.0
H613 H 0.5933 0.96823 0.42161 0.0
H614 H 0.61777 0.07379 0.47122 0.0
H615 H 0.63129 0.94443 0.42413 0.0
C616 C 0.64912 0.97891 0.42563 0.0
C617 C 0.65631 0.01812 0.43415 0.0
C618 C 0.61235 0.04999 0.46068 0.0
C619 C 0.63158 0.00818 0.4462 0.0
C620 C 0.59969 0.05956 0.45838 0.0
C621 C 0.59268 0.03156 0.44363 0.0
C622 C 0.61794 0.01211 0.44818 0.0
C623 C 0.59843 -0.00848 0.43278 0.0
C624 C 0.63682 0.97337 0.43181 0.0
C625 C 0.65118 0.04845 0.45032 0.0
N626 N 0.61073 0.98346 0.43506 0.0
N627 N 0.639 0.04372 0.45545 0.0
H628 H 0.3405 0.00302 0.16583 0.0
H629 H 0.40038 0.8815 0.21739 0.0
H630 H 0.33937 0.87749 0.21003 0.0
H631 H 0.40029 0.0015 0.17053 0.0
H632 H 0.37815 0.89455 0.22295 0.0
H633 H 0.36204 0.01753 0.17524 0.0
C634 C 0.34477 0.97887 0.17776 0.0
C635 C 0.33823 0.93834 0.18683 0.0
C636 C 0.38307 0.91903 0.21192 0.0
C637 C 0.36304 0.9541 0.19745 0.0
C638 C 0.39578 0.91196 0.20893 0.0
C639 C 0.40209 0.94007 0.19327 0.0
C640 C 0.37674 0.95446 0.19917 0.0
C641 C 0.3957 0.97863 0.18257 0.0
C642 C 0.35709 -0.0128 0.18317 0.0
C643 C 0.34414 0.90885 0.2025 0.0
N644 N 0.38335 0.98413 0.18545 0.0
N645 N 0.35632 0.91661 0.20699 0.0
H646 H 0.3367 0.89635 0.5075 0.0
H647 H 0.40618 0.80707 0.50908 0.0
H648 H 0.34989 0.74839 0.52527 0.0
H649 H 0.39335 0.95965 0.51851 0.0
H650 H 0.38573 0.7841 0.49514 0.0
H651 H 0.35707 0.91537 0.49203 0.0
C652 C 0.34371 0.86708 0.50723 0.0
C653 C 0.3418 0.82119 0.518 0.0
C654 C 0.38757 0.82313 0.49937 0.0
C655 C 0.36494 0.84257 0.50059 0.0
C656 C 0.39925 0.8363 0.50716 0.0
C657 C 0.40127 0.88499 0.51528 0.0
C658 C 0.37799 0.85908 0.49976 0.0
C659 C 0.39201 0.92146 0.51267 0.0
C660 C 0.35532 0.878 0.49851 0.0
C661 C 0.35115 0.78457 0.51739 0.0
N662 N 0.38065 0.90754 0.50554 0.0
N663 N 0.36241 0.79636 0.50921 0.0
H664 H 0.64696 0.72714 0.31992 0.0
H665 H 0.58225 0.62607 0.27978 0.0
H666 H 0.64311 0.60989 0.27252 0.0
H667 H 0.58739 0.74389 0.3268 0.0
H668 H 0.60413 0.63361 0.26994 0.0
H669 H 0.62526 0.74944 0.31495 0.0
C670 C 0.64161 0.70745 0.30783 0.0
C671 C 0.64676 0.66685 0.29655 0.0
C672 C 0.6004 0.6585 0.28211 0.0
C673 C 0.62175 0.68997 0.2916 0.0
C674 C 0.5879 0.65425 0.28771 0.0
C675 C 0.58306 0.68356 0.3045 0.0
C676 C 0.60805 0.69233 0.29337 0.0
C677 C 0.59079 0.71968 0.31411 0.0
C678 C 0.62918 0.71972 0.30514 0.0
C679 C 0.63944 0.6418 0.28135 0.0
N680 N 0.60291 0.72252 0.30863 0.0
N681 N 0.62719 0.65291 0.27968 0.0
H682 H 0.63807 0.61394 0.96315 0.0
H683 H 0.57716 0.60875 0.89071 0.0
H684 H 0.63709 0.62831 0.89417 0.0
H685 H 0.57493 0.6334 0.95908 0.0
H686 H 0.59941 0.6073 0.89318 0.0
H687 H 0.61524 0.61313 0.96344 0.0
C688 C 0.63309 0.61671 0.94813 0.0
C689 C 0.63952 0.62129 0.92861 0.0
C690 C 0.59413 0.61321 0.90772 0.0
C691 C 0.61361 0.62025 0.92886 0.0
C692 C 0.58134 0.61395 0.90634 0.0
C693 C 0.57408 0.62139 0.92472 0.0
C694 C 0.59991 0.61982 0.92765 0.0
C695 C 0.58016 0.62783 0.94448 0.0
C696 C 0.6201 0.61649 0.94833 0.0
C697 C 0.63261 0.62497 0.90964 0.0
N698 N 0.59277 0.62683 0.94546 0.0
N699 N 0.62012 0.62427 0.91028 0.0
H700 H 0.33044 0.41647 0.64964 0.0
H701 H 0.39134 0.36306 0.71867 0.0
H702 H 0.32858 0.33676 0.71008 0.0
H703 H 0.39049 0.39603 0.65089 0.0
H704 H 0.36851 0.36634 0.71921 0.0
H705 H 0.35262 0.42352 0.65362 0.0
C706 C 0.33468 0.40038 0.66383 0.0
C707 C 0.32759 0.37523 0.6794 0.0
C708 C 0.3734 0.37308 0.70432 0.0
C709 C 0.35325 0.38326 0.68402 0.0
C710 C 0.38637 0.37151 0.70402 0.0
C711 C 0.39279 0.37894 0.68467 0.0
C712 C 0.36694 0.38307 0.68522 0.0
C713 C 0.38594 0.38952 0.66612 0.0
C714 C 0.34741 0.40447 0.66608 0.0
C715 C 0.33369 0.35604 0.69759 0.0
N716 N 0.37345 0.39127 0.66688 0.0
N717 N 0.34623 0.36012 0.69936 0.0
H718 H 0.33652 0.2103 0.07169 0.0
H719 H 0.40019 0.32733 0.03287 0.0
H720 H 0.33937 0.33507 0.0273 0.0
H721 H 0.39576 0.22045 0.08454 0.0
H722 H 0.37878 0.31094 0.02185 0.0
H723 H 0.35858 0.1947 0.06757 0.0
C724 C 0.34177 0.23401 0.06081 0.0
C725 C 0.33617 0.27485 0.05023 0.0
C726 C 0.38262 0.28989 0.03517 0.0
C727 C 0.36153 0.25763 0.04567 0.0
C728 C 0.39488 0.29879 0.0413 0.0
C729 C 0.39964 0.2756 0.05978 0.0
C730 C 0.3752 0.25747 0.04761 0.0
C731 C 0.39236 0.23946 0.07033 0.0
C732 C 0.35438 0.22502 0.05843 0.0
C733 C 0.34337 0.30359 0.03597 0.0
N734 N 0.38044 0.23211 0.06431 0.0
N735 N 0.35576 0.29516 0.03446 0.0
H736 H 0.03495 0.24276 0.25729 0.0
H737 H 0.96613 0.35417 0.26172 0.0
H738 H 0.00624 0.18906 0.29973 0.0
H739 H -0.0075 0.3946 0.21262 0.0
H740 H 0.98217 0.30529 0.27982 0.0
H741 H 0.02062 0.30711 0.24358 0.0
C742 C 0.02563 0.2443 0.26364 0.0
C743 C 0.02176 0.21013 0.27953 0.0
C744 C 0.98451 0.32548 0.26525 0.0
C745 C 0.00544 0.28418 0.26428 0.0
C746 C 0.97537 0.35394 0.25503 0.0
C747 C 0.97791 0.37799 0.23545 0.0
C748 C -0.00374 0.32091 0.25582 0.0
C749 C 0.99009 0.3763 0.22759 0.0
C750 C 0.01749 0.28123 0.25592 0.0
C751 C 0.00962 0.21425 0.28734 0.0
N752 N -0.00124 0.34753 0.23761 0.0
N753 N 0.00192 0.2505 0.27965 0.0
H754 H 0.2116 0.03469 0.24616 0.0
H755 H 0.2817 0.93803 0.25062 0.0
H756 H 0.23941 0.09734 0.28809 0.0
H757 H 0.25436 0.87694 0.20738 0.0
H758 H 0.26591 -0.00715 0.26609 0.0
H759 H 0.22708 0.97694 0.2315 0.0
C760 C 0.22102 0.03715 0.25194 0.0
C761 C 0.22419 0.07094 0.26841 0.0
C762 C 0.26332 0.96703 0.25339 0.0
C763 C 0.24188 0.00385 0.25214 0.0
C764 C 0.27231 0.93516 0.24473 0.0
C765 C 0.26939 0.903 0.22756 0.0
C766 C 0.25131 0.9669 0.24479 0.0
C767 C 0.25705 0.90115 0.22057 0.0
C768 C 0.22982 0.00366 0.24376 0.0
C769 C 0.23653 0.072 0.27541 0.0
N770 N 0.2485 0.93314 0.22902 0.0
N771 N 0.24488 0.03865 0.26737 0.0
H772 H 0.00932 0.11726 0.96091 0.0
H773 H 0.97946 0.90058 0.03427 0.0
H774 H 0.03001 0.0287 0.00667 0.0
H775 H 0.95845 -0.00891 0.98965 0.0
H776 H -0.0019 0.94678 0.02406 0.0
H777 H 0.99039 0.07511 0.97267 0.0
C778 C 0.00985 0.08992 0.97383 0.0
C779 C 0.02131 0.07627 0.9827 0.0
C780 C 0.98943 0.95632 0.01637 0.0
C781 C -0.00031 0.02675 0.99579 0.0
C782 C 0.9788 0.9295 0.02201 0.0
C783 C 0.96735 0.94192 0.0128 0.0
C784 C 0.98865 -0.00399 0.00143 0.0
C785 C 0.96707 0.98005 0.99711 0.0
C786 C -0.00096 0.06536 0.98034 0.0
C787 C 0.0214 0.0404 -0.00067 0.0
N788 N 0.97754 0.00597 0.99203 0.0
N789 N 0.01079 0.01642 0.00513 0.0
H790 H 0.21131 0.2328 0.98355 0.0
H791 H 0.28088 0.32102 0.97377 0.0
H792 H 0.23282 0.20788 0.92622 0.0
H793 H 0.25533 0.38606 0.01921 0.0
H794 H 0.26344 0.28289 0.9548 0.0
H795 H 0.22753 0.28929 0.99683 0.0
C796 C 0.21947 0.23902 0.97382 0.0
C797 C 0.22077 0.21531 0.95385 0.0
C798 C 0.26164 0.30643 0.96865 0.0
C799 C 0.2393 0.28014 0.96882 0.0
C800 C 0.27159 0.32861 0.97939 0.0
C801 C 0.26959 0.3561 -0.00168 0.0
C802 C 0.24966 0.31123 0.97712 0.0
C803 C 0.25733 0.3647 0.00482 0.0
C804 C 0.22866 0.27169 0.98128 0.0
C805 C 0.23147 0.22521 0.94177 0.0
N806 N 0.24785 0.34135 0.99453 0.0
N807 N 0.24038 0.25653 0.94952 0.0
H808 H 0.97368 0.76988 0.75139 0.0
H809 H 0.04158 0.65694 0.73834 0.0
H810 H -0.00291 0.80545 0.69734 0.0
H811 H 0.01427 0.59668 0.78197 0.0
H812 H 0.02576 0.71191 0.72285 0.0
H813 H 0.98941 0.71133 0.76446 0.0
C814 C 0.98225 0.76633 0.74253 0.0
C815 C 0.98405 0.79254 0.72321 0.0
C816 C 0.02319 0.68603 0.73557 0.0
C817 C 0.00196 0.7245 0.73778 0.0
C818 C 0.03218 0.65412 0.74424 0.0
C819 C 0.0293 0.62252 0.76166 0.0
C820 C 0.01128 0.68661 0.74454 0.0
C821 C 0.01696 0.62061 0.76865 0.0
C822 C 0.99115 0.73222 0.74982 0.0
C823 C -0.00469 0.78598 0.71231 0.0
N824 N 0.00846 0.65294 0.76034 0.0
N825 N 0.00382 0.75239 0.71969 0.0
H826 H 0.73443 0.09416 0.78918 0.0
H827 H 0.76107 0.87699 0.71292 0.0
H828 H 0.7135 0.02219 0.73876 0.0
H829 H 0.78419 0.96581 0.75494 0.0
H830 H 0.74309 0.92415 0.72536 0.0
H831 H 0.75262 0.04547 0.77838 0.0
C832 C 0.73372 0.06887 0.77557 0.0
C833 C 0.72242 0.06222 0.76486 0.0
C834 C 0.75208 0.93305 0.73202 0.0
C835 C 0.74308 0.00541 0.75285 0.0
C836 C 0.76234 0.90569 0.72511 0.0
C837 C 0.77418 0.91769 0.73279 0.0
C838 C 0.75364 0.97272 0.74673 0.0
C839 C 0.77524 0.95533 0.74857 0.0
C840 C 0.74407 0.04073 0.76956 0.0
C841 C 0.72202 0.02865 0.74745 0.0
N842 N 0.76511 0.98187 0.75488 0.0
N843 N 0.73216 0.00117 0.74213 0.0
H844 H 0.69744 0.67538 0.01325 0.0
H845 H 0.76798 0.75199 0.00198 0.0
H846 H 0.72353 0.5934 0.97411 0.0
H847 H 0.74669 0.79416 0.05772 0.0
H848 H 0.75091 0.69831 0.99022 0.0
H849 H 0.71473 0.72042 0.03005 0.0
C850 C 0.7068 0.66574 0.00863 0.0
C851 C 0.70903 0.63099 0.99204 0.0
C852 C 0.74996 0.7193 0.00504 0.0
C853 C 0.72874 0.68347 0.01064 0.0
C854 C 0.75965 0.75046 0.01162 0.0
C855 C 0.75874 0.77773 0.03082 0.0
C856 C 0.7392 0.7158 0.01758 0.0
C857 C 0.74776 0.77383 0.04278 0.0
C858 C 0.71665 0.69184 0.01807 0.0
C859 C 0.72135 0.62025 0.98665 0.0
N860 N 0.73838 0.74356 0.03592 0.0
N861 N 0.73072 0.64707 0.99561 0.0
H862 H 0.23313 0.51032 0.82076 0.0
H863 H 0.24358 0.32401 0.72157 0.0
H864 H 0.20779 0.49495 0.7677 0.0
H865 H 0.27283 0.36955 0.76451 0.0
H866 H 0.22881 0.37051 0.74359 0.0
H867 H 0.24642 0.4461 0.80451 0.0
C868 C 0.23037 0.49353 0.80565 0.0
C869 C 0.2194 0.50841 0.79542 0.0
C870 C 0.23843 0.36959 0.7484 0.0
C871 C 0.23445 0.43423 0.77701 0.0
C872 C 0.24686 0.34255 0.73598 0.0
C873 C 0.25952 0.34364 0.74098 0.0
C874 C 0.24267 0.39771 0.766 0.0
C875 C 0.26319 0.36812 0.75992 0.0
C876 C 0.23794 0.45672 0.79646 0.0
C877 C 0.21624 0.48507 0.77599 0.0
N878 N 0.25483 0.3949 0.77157 0.0
N879 N 0.22374 0.44914 0.76741 0.0
H880 H 0.98868 0.59021 0.43955 0.0
H881 H 0.97474 0.38988 0.5306 0.0
H882 H 0.01226 0.5671 0.4945 0.0
H883 H 0.94508 0.45407 0.49312 0.0
H884 H 0.98903 0.44995 0.51447 0.0
H885 H 0.97253 0.54009 0.45718 0.0
C886 C 0.99034 0.57578 0.45556 0.0
C887 C 0.00189 0.58245 0.46549 0.0
C888 C 0.9794 0.45094 0.50974 0.0
C889 C 0.98364 0.52392 0.48533 0.0
C890 C 0.97124 0.4162 0.51875 0.0
C891 C 0.95867 0.41693 0.51323 0.0
C892 C 0.97504 0.48653 0.49487 0.0
C893 C 0.9547 0.45211 0.49779 0.0
C894 C 0.98115 0.54689 0.46551 0.0
C895 C 0.00354 0.56284 0.4862 0.0
N896 N 0.96288 0.48559 0.48909 0.0
N897 N -0.00539 0.53365 0.49524 0.0
H898 H 0.20395 0.69231 0.52134 0.0
H899 H 0.27585 0.7343 0.49958 0.0
H900 H 0.22577 0.59969 0.47876 0.0
H901 H 0.25668 0.80623 0.55206 0.0
H902 H 0.25713 0.68688 0.49122 0.0
H903 H 0.22295 0.73293 0.53397 0.0
C904 C 0.21275 0.67944 0.5151 0.0
C905 C 0.21325 0.64293 0.49877 0.0
C906 C 0.25699 0.71312 0.50454 0.0
C907 C 0.23494 0.69033 0.51265 0.0
C908 C 0.26764 0.74072 0.50916 0.0
C909 C 0.26783 0.77445 0.52651 0.0
C910 C 0.24638 0.71939 0.51726 0.0
C911 C 0.25693 0.78079 0.53847 0.0
C912 C 0.22358 0.70309 0.52214 0.0
C913 C 0.22492 0.62799 0.49121 0.0
N914 N 0.24663 0.75347 0.53363 0.0
N915 N 0.23526 0.65232 0.49795 0.0
H916 H 0.77932 0.43703 0.25349 0.0
H917 H 0.71023 0.54174 0.23835 0.0
H918 H 0.75794 0.41845 0.19559 0.0
H919 H 0.73053 0.55116 0.29779 0.0
H920 H 0.72823 0.50186 0.22158 0.0
H921 H 0.76187 0.48215 0.26965 0.0
C922 C 0.77093 0.44207 0.24425 0.0
C923 C 0.77008 0.4238 0.22319 0.0
C924 C 0.72877 0.51298 0.23826 0.0
C925 C 0.75016 0.47594 0.24143 0.0
C926 C 0.71852 0.53609 0.24778 0.0
C927 C 0.71886 0.54959 0.26951 0.0
C928 C 0.73941 0.50337 0.25057 0.0
C929 C 0.72984 0.54114 0.28101 0.0
C930 C 0.761 0.46806 0.25343 0.0
C931 C 0.75901 0.43174 0.2119 0.0
N932 N 0.73964 0.51835 0.27144 0.0
N933 N 0.74951 0.45727 0.22113 0.0
H934 H 0.74248 0.38133 0.52247 0.0
H935 H 0.73379 0.18784 0.42526 0.0
H936 H 0.77222 0.33514 0.48069 0.0
H937 H 0.70639 0.2146 0.47429 0.0
H938 H 0.74697 0.25239 0.44156 0.0
H939 H 0.72796 0.33447 0.50008 0.0
C940 C 0.74592 0.36252 0.50825 0.0
C941 C 0.75863 0.36142 0.50367 0.0
C942 C 0.73806 0.24422 0.44872 0.0
C943 C 0.74207 0.30675 0.47826 0.0
C944 C 0.73056 0.20717 0.4395 0.0
C945 C 0.71903 0.1954 0.44858 0.0
C946 C 0.73398 0.26995 0.46709 0.0
C947 C 0.71527 0.22203 0.4669 0.0
C948 C 0.73763 0.33528 0.4956 0.0
C949 C 0.76252 0.33661 0.48495 0.0
N950 N 0.72273 0.25799 0.47557 0.0
N951 N 0.7543 0.3095 0.47313 0.0
H952 H 0.47679 0.40895 0.73077 0.0
H953 H 0.50206 0.177 0.80041 0.0
H954 H 0.45242 0.30777 0.76501 0.0
H955 H 0.52279 0.25342 0.75083 0.0
H956 H 0.48426 0.23132 0.79239 0.0
H957 H 0.49449 0.36256 0.74482 0.0
C958 C 0.47516 0.37783 0.74174 0.0
C959 C 0.46309 0.36173 0.74644 0.0
C960 C 0.4927 0.23592 0.78324 0.0
C961 C 0.48333 0.30763 0.76214 0.0
C962 C 0.50282 0.20469 0.78766 0.0
C963 C 0.51391 0.21044 0.77616 0.0
C964 C 0.49377 0.27357 0.76745 0.0
C965 C 0.51441 0.24729 0.75998 0.0
C966 C 0.48528 0.35093 0.74953 0.0
C967 C 0.46156 0.32131 0.76086 0.0
N968 N 0.50453 0.27761 0.75621 0.0
N969 N 0.47158 0.29504 0.76794 0.0
H970 H 0.4859 0.91328 0.55221 0.0
H971 H 0.51201 0.13804 0.47918 0.0
H972 H 0.46581 0.98438 0.50053 0.0
H973 H 0.53605 0.0385 0.51486 0.0
H974 H 0.49417 0.09361 0.49395 0.0
H975 H 0.50386 0.96651 0.54364 0.0
C976 C 0.48532 0.93949 0.53889 0.0
C977 C 0.47436 0.94413 0.52697 0.0
C978 C 0.50335 0.08199 0.49881 0.0
C979 C 0.49465 0.00614 0.51765 0.0
C980 C 0.51355 0.10782 0.49062 0.0
C981 C 0.52556 0.09137 0.49546 0.0
C982 C 0.50516 0.03955 0.512 0.0
C983 C 0.52696 0.05213 0.5105 0.0
C984 C 0.49552 0.97015 0.53417 0.0
C985 C 0.47408 0.97916 0.51005 0.0
N986 N 0.51687 0.02691 0.51798 0.0
N987 N 0.48403 0.009 0.50601 0.0
H988 H 0.45567 0.75144 0.24445 0.0
H989 H 0.52418 0.64146 0.23936 0.0
H990 H 0.47979 0.76751 0.18968 0.0
H991 H 0.49867 0.60687 0.29056 0.0
H992 H 0.5073 0.6803 0.2193 0.0
H993 H 0.47079 0.69414 0.26083 0.0
C994 C 0.46415 0.74307 0.23591 0.0
C995 C 0.46652 0.76468 0.21577 0.0
C996 C 0.50533 0.66343 0.23476 0.0
C997 C 0.48377 0.69883 0.23425 0.0
C998 C 0.51496 0.64083 0.24615 0.0
C999 C 0.51288 0.62142 0.26678 0.0
C1000 C 0.49356 0.66726 0.2442 0.0
C1001 C 0.50072 0.62162 0.27475 0.0
C1002 C 0.47273 0.71004 0.24518 0.0
C1003 C 0.4776 0.75204 0.20531 0.0
N1004 N 0.49157 0.64513 0.26363 0.0
N1005 N 0.48582 0.72023 0.21471 0.0
H1006 H 0.47809 0.44231 0.06749 0.0
H1007 H 0.48945 0.63544 0.97083 0.0
H1008 H 0.45325 0.46064 0.0139 0.0
H1009 H 0.51889 0.58386 0.01213 0.0
H1010 H 0.47484 0.5844 0.99136 0.0
H1011 H 0.49224 0.50337 0.05099 0.0
C1012 C 0.47567 0.45883 0.05216 0.0
C1013 C 0.46451 0.44616 0.04197 0.0
C1014 C 0.48447 0.58478 0.9961 0.0
C1015 C 0.48049 0.51692 0.02336 0.0
C1016 C 0.49281 0.61442 0.98456 0.0
C1017 C 0.50546 0.61343 0.98958 0.0
C1018 C 0.48878 0.55412 0.01288 0.0
C1019 C 0.50924 0.58555 0.00761 0.0
C1020 C 0.48372 0.49385 0.04284 0.0
C1021 C 0.4618 0.46894 0.02221 0.0
N1022 N 0.50095 0.55644 0.01847 0.0
N1023 N 0.4697 0.50345 0.01361 0.0
H1024 H 0.01985 0.42107 0.40808 0.0
H1025 H 0.06732 0.24075 0.36257 0.0
H1026 H 0.05718 0.43024 0.43197 0.0
H1027 H 0.03128 0.18294 0.37948 0.0
H1028 H 0.0643 0.31051 0.38788 0.0
H1029 H 0.02362 0.33333 0.39739 0.0
C1030 C 0.02875 0.40405 0.41143 0.0
C1031 C 0.03825 0.43237 0.42074 0.0
C1032 C 0.0572 0.28177 0.3864 0.0
C1033 C 0.04272 0.33351 0.40815 0.0
C1034 C 0.05888 0.24234 0.37189 0.0
C1035 C 0.04945 0.20676 0.36878 0.0
C1036 C 0.0459 0.28611 0.39726 0.0
C1037 C 0.03872 0.21 0.38133 0.0
C1038 C 0.03088 0.35416 0.40547 0.0
C1039 C 0.04965 0.40917 0.42482 0.0
N1040 N 0.03708 0.2499 0.39468 0.0
N1041 N 0.05171 0.36119 0.41794 0.0
H1042 H 0.21146 0.76331 0.41975 0.0
H1043 H 0.18037 0.954 0.34267 0.0
H1044 H 0.17433 0.81527 0.43194 0.0
H1045 H 0.21742 -0.01287 0.36423 0.0
H1046 H 0.17858 0.88991 0.37087 0.0
H1047 H 0.21471 0.836 0.39582 0.0
C1048 C 0.20412 0.79077 0.41771 0.0
C1049 C 0.19265 0.78391 0.42771 0.0
C1050 C 0.1871 0.9112 0.3693 0.0
C1051 C 0.1961 0.86475 0.40008 0.0
C1052 C 0.1882 0.94703 0.3531 0.0
C1053 C 0.1991 0.97531 0.35118 0.0
C1054 C 0.19706 0.90301 0.38322 0.0
C1055 C 0.20891 0.96569 0.36528 0.0
C1056 C 0.20597 0.83186 0.40412 0.0
C1057 C 0.18333 0.81983 0.42457 0.0
N1058 N 0.20771 0.92976 0.38071 0.0
N1059 N 0.18517 0.85837 0.41056 0.0
H1060 H 0.03839 0.89546 0.93446 0.0
H1061 H 0.03822 0.78928 0.81764 0.0
H1062 H 0.03417 -0.01043 0.87831 0.0
H1063 H 0.03453 0.69466 0.87375 0.0
H1064 H 0.03271 0.86268 0.83927 0.0
H1065 H 0.03306 0.82159 0.91292 0.0
C1066 C 0.03617 0.90061 0.91766 0.0
C1067 C 0.03708 0.94828 0.90796 0.0
C1068 C 0.03287 0.82575 0.8468 0.0
C1069 C 0.03107 0.86427 0.88324 0.0
C1070 C 0.03606 0.78391 0.83445 0.0
C1071 C 0.0372 0.7363 0.84411 0.0
C1072 C 0.03104 0.81982 0.86897 0.0
C1073 C 0.03403 0.73104 0.86581 0.0
C1074 C 0.03307 0.85851 0.90538 0.0
C1075 C 0.03386 0.95319 0.88628 0.0
N1076 N 0.03136 0.77258 0.87766 0.0
N1077 N 0.03124 0.91147 0.87452 0.0
H1078 H 0.16504 0.46311 0.82959 0.0
H1079 H 0.16693 0.28479 0.93204 0.0
H1080 H 0.17774 0.50923 0.89222 0.0
H1081 H 0.1713 0.2336 0.86676 0.0
H1082 H 0.16181 0.36925 0.91863 0.0
H1083 H 0.15833 0.38233 0.84484 0.0
C1084 C 0.16616 0.45668 0.84664 0.0
C1085 C 0.17227 0.49205 0.85961 0.0
C1086 C 0.16358 0.33909 0.90729 0.0
C1087 C 0.16453 0.40057 0.87701 0.0
C1088 C 0.1665 0.29101 0.91488 0.0
C1089 C 0.16988 0.25284 0.90042 0.0
C1090 C 0.16395 0.34851 0.88517 0.0
C1091 C 0.16905 0.26254 0.87839 0.0
C1092 C 0.16232 0.41072 0.85528 0.0
C1093 C 0.17335 0.48227 0.88161 0.0
N1094 N 0.16633 0.3098 0.8714 0.0
N1095 N 0.16968 0.43697 0.88961 0.0
H1096 H 0.96551 0.65766 0.66277 0.0
H1097 H 0.9181 0.50075 0.59782 0.0
H1098 H 0.92661 0.67162 0.67661 0.0
H1099 H 0.95295 0.43515 0.61692 0.0
H1100 H 0.92107 0.56746 0.62472 0.0
H1101 H 0.96141 0.57754 0.64445 0.0
C1102 C 0.95615 0.64295 0.66235 0.0
C1103 C 0.94637 0.67042 0.67117 0.0
C1104 C 0.92795 0.53794 0.62314 0.0
C1105 C 0.94157 0.58088 0.64975 0.0
C1106 C 0.92633 0.50039 0.60771 0.0
C1107 C 0.93534 0.46289 0.60515 0.0
C1108 C 0.93876 0.53825 0.63556 0.0
C1109 C 0.9458 0.46359 0.61842 0.0
C1110 C 0.95382 0.59755 0.65193 0.0
C1111 C 0.93436 0.65076 0.67011 0.0
N1112 N 0.94732 0.50121 0.63289 0.0
N1113 N 0.93222 0.6074 0.65908 0.0
H1114 H 0.81275 0.0674 0.66057 0.0
H1115 H 0.76178 0.21895 0.5993 0.0
H1116 H 0.77839 -0.00892 0.6468 0.0
H1117 H 0.79864 0.20614 0.57331 0.0
H1118 H 0.76651 0.14904 0.62422 0.0
H1119 H 0.80646 0.13647 0.63645 0.0
C1120 C 0.80381 0.06579 0.65276 0.0
C1121 C 0.79606 0.02387 0.65541 0.0
C1122 C 0.77344 0.1615 0.61284 0.0
C1123 C 0.78886 0.10191 0.62847 0.0
C1124 C 0.77075 0.20083 0.59865 0.0
C1125 C 0.77978 0.21748 0.58415 0.0
C1126 C 0.78534 0.14062 0.61289 0.0
C1127 C 0.79136 0.19368 0.58403 0.0
C1128 C 0.80029 0.10471 0.63899 0.0
C1129 C 0.7846 0.02293 0.64491 0.0
N1130 N 0.7939 0.15686 0.59848 0.0
N1131 N 0.78127 0.0617 0.63188 0.0
H1132 H 0.97163 0.24914 0.14567 0.0
H1133 H 0.92469 0.0882 0.07989 0.0
H1134 H 0.93458 0.22552 0.16935 0.0
H1135 H 0.95978 0.01998 0.09544 0.0
H1136 H 0.92926 0.15683 0.10531 0.0
H1137 H 0.96858 0.17881 0.12028 0.0
C1138 C 0.96297 0.22848 0.14574 0.0
C1139 C 0.9534 0.24224 0.15967 0.0
C1140 C 0.93597 0.12696 0.10288 0.0
C1141 C 0.9497 0.16488 0.1304 0.0
C1142 C 0.93343 0.08837 0.08835 0.0
C1143 C 0.94189 0.04885 0.0858 0.0
C1144 C 0.94714 0.12629 0.11427 0.0
C1145 C 0.95305 0.05003 0.09719 0.0
C1146 C 0.96123 0.18892 0.13129 0.0
C1147 C 0.94224 0.21527 0.15906 0.0
N1148 N 0.95543 0.0885 0.11096 0.0
N1149 N 0.94061 0.17825 0.14433 0.0
H1150 H 0.81858 0.54302 0.17638 0.0
H1151 H 0.80902 0.66105 0.06011 0.0
H1152 H 0.809 0.45677 0.12 0.0
H1153 H 0.81 0.74699 0.11891 0.0
H1154 H 0.81544 0.58575 0.08017 0.0
H1155 H 0.82189 0.61732 0.15367 0.0
C1156 C 0.81734 0.5396 0.15921 0.0
C1157 C 0.81319 0.49431 0.15006 0.0
C1158 C 0.81444 0.62135 0.08857 0.0
C1159 C 0.81695 0.57854 0.12414 0.0
C1160 C 0.81079 0.66418 0.07715 0.0
C1161 C 0.80868 0.70965 0.08804 0.0
C1162 C 0.81599 0.6245 0.11091 0.0
C1163 C 0.81123 0.71215 0.11005 0.0
C1164 C 0.81924 0.58188 0.14627 0.0
C1165 C 0.81191 0.49147 0.12772 0.0
N1166 N 0.8146 0.66991 0.12084 0.0
N1167 N 0.81361 0.53332 0.11551 0.0
H1168 H 0.55387 0.24705 0.87148 0.0
H1169 H 0.52091 0.51591 0.87831 0.0
H1170 H 0.5453 0.33793 0.81589 0.0
H1171 H 0.53758 0.44172 0.93285 0.0
H1172 H 0.52771 0.44627 0.85554 0.0
H1173 H 0.54672 0.31547 0.89452 0.0
C1174 C 0.55063 0.28177 0.86415 0.0
C1175 C 0.55014 0.28703 0.84181 0.0
C1176 C 0.52982 0.44517 0.87251 0.0
C1177 C 0.54173 0.3648 0.86798 0.0
C1178 C 0.52584 0.4846 0.88556 0.0
C1179 C 0.52882 0.48475 0.90745 0.0
C1180 C 0.53672 0.40557 0.88149 0.0
C1181 C 0.53518 0.44322 0.91601 0.0
C1182 C 0.5465 0.32065 0.8773 0.0
C1183 C 0.54587 0.33262 0.83308 0.0
N1184 N 0.53899 0.40535 0.90296 0.0
N1185 N 0.5417 0.36975 0.84623 0.0
H1186 H 0.7085 0.75873 0.90817 0.0
H1187 H 0.6726 0.9231 0.82362 0.0
H1188 H 0.66903 0.77925 0.91266 0.0
H1189 H 0.70709 0.97696 0.84982 0.0
H1190 H 0.67243 0.85521 0.85063 0.0
H1191 H 0.70942 0.82768 0.88175 0.0
C1192 C 0.70009 0.7785 0.90384 0.0
C1193 C 0.68871 0.76417 0.91264 0.0
C1194 C 0.68006 0.88176 0.85024 0.0
C1195 C 0.6896 0.84037 0.88209 0.0
C1196 C 0.68024 0.91983 0.83477 0.0
C1197 C 0.68989 0.95512 0.83466 0.0
C1198 C 0.68974 0.87875 0.86516 0.0
C1199 C 0.69951 0.95016 0.84955 0.0
C1200 C 0.70061 0.81733 0.88878 0.0
C1201 C 0.678 0.79002 0.90641 0.0
N1202 N 0.69924 0.91236 0.86423 0.0
N1203 N 0.67867 0.82656 0.89117 0.0
H1204 H 0.52911 0.81455 0.32068 0.0
H1205 H 0.53421 0.91658 0.43792 0.0
H1206 H 0.52359 0.7202 0.37644 0.0
H1207 H 0.52954 0.0147 0.38313 0.0
H1208 H 0.52737 0.84514 0.41617 0.0
H1209 H 0.52621 0.8893 0.34309 0.0
C1210 C 0.52708 0.80959 0.33757 0.0
C1211 C 0.52694 0.76133 0.34687 0.0
C1212 C 0.52762 0.88245 0.40899 0.0
C1213 C 0.52373 0.8463 0.37257 0.0
C1214 C 0.53158 0.92314 0.42139 0.0
C1215 C 0.53274 0.97119 0.41212 0.0
C1216 C 0.52502 0.88992 0.38714 0.0
C1217 C 0.529 0.97796 0.39077 0.0
C1218 C 0.52539 0.85222 0.35035 0.0
C1219 C 0.52405 0.75686 0.36873 0.0
N1220 N 0.52554 0.93751 0.37884 0.0
N1221 N 0.52282 0.79891 0.38095 0.0
H1222 H 0.66481 0.23735 0.3993 0.0
H1223 H 0.67524 0.4015 0.29367 0.0
H1224 H 0.68643 0.18715 0.34512 0.0
H1225 H 0.66779 0.46261 0.35648 0.0
H1226 H 0.67227 0.31585 0.30813 0.0
H1227 H 0.65878 0.31238 0.379 0.0
C1228 C 0.66814 0.24174 0.38302 0.0
C1229 C 0.67639 0.20681 0.37403 0.0
C1230 C 0.67102 0.34818 0.31856 0.0
C1231 C 0.66948 0.29209 0.35082 0.0
C1232 C 0.67268 0.39684 0.31035 0.0
C1233 C 0.672 0.43863 0.3241 0.0
C1234 C 0.66851 0.34193 0.34049 0.0
C1235 C 0.66863 0.43101 0.34553 0.0
C1236 C 0.66467 0.28445 0.37146 0.0
C1237 C 0.68026 0.21385 0.35277 0.0
N1238 N 0.66712 0.38344 0.35315 0.0
N1239 N 0.67691 0.25622 0.34194 0.0
H1240 H 0.41598 0.47638 0.13402 0.0
H1241 H 0.42935 0.7576 0.11391 0.0
H1242 H 0.41729 0.53682 0.06977 0.0
H1243 H 0.41186 0.70634 0.17229 0.0
H1244 H 0.42276 0.67975 0.09624 0.0
H1245 H 0.4119 0.56113 0.14771 0.0
C1246 C 0.41516 0.50752 0.12279 0.0
C1247 C 0.41722 0.50021 0.10086 0.0
C1248 C 0.42012 0.68606 0.11277 0.0
C1249 C 0.41284 0.59695 0.11631 0.0
C1250 C 0.42396 0.73025 0.1229 0.0
C1251 C 0.42142 0.73756 0.14471 0.0
C1252 C 0.41394 0.64875 0.12472 0.0
C1253 C 0.41422 0.70158 0.15554 0.0
C1254 C 0.41277 0.55579 0.13056 0.0
C1255 C 0.41589 0.54131 0.08685 0.0
N1256 N 0.41096 0.65808 0.14555 0.0
N1257 N 0.41411 0.58842 0.09489 0.0
H1258 H 0.28084 0.05746 0.16928 0.0
H1259 H 0.28035 0.1601 0.05223 0.0
H1260 H 0.27866 0.95954 0.11404 0.0
H1261 H 0.27234 0.25355 0.10725 0.0
H1262 H 0.27614 0.08504 0.07386 0.0
H1263 H 0.27433 0.12839 0.14693 0.0
C1264 C 0.27885 0.05086 0.15248 0.0
C1265 C 0.28061 0.00308 0.14331 0.0
C1266 C 0.27504 0.12199 0.08109 0.0
C1267 C 0.27327 0.08377 0.11765 0.0
C1268 C 0.27747 0.16481 0.06875 0.0
C1269 C 0.27708 0.21285 0.0782 0.0
C1270 C 0.2724 0.12752 0.10303 0.0
C1271 C 0.27305 0.21703 0.0995 0.0
C1272 C 0.27506 0.09123 0.13975 0.0
C1273 C 0.27765 -0.00387 0.12162 0.0
N1274 N 0.27115 0.17478 0.11138 0.0
N1275 N 0.27437 0.03636 0.10938 0.0
H1276 H 0.4322 0.18294 0.68855 0.0
H1277 H 0.44082 0.08506 0.56861 0.0
H1278 H 0.45154 0.26744 0.63956 0.0
H1279 H 0.43239 0.98567 0.62168 0.0
H1280 H 0.44277 0.15539 0.59397 0.0
H1281 H 0.43078 0.11119 0.66389 0.0
C1282 C 0.43626 0.18614 0.67272 0.0
C1283 C 0.44189 0.23117 0.66599 0.0
C1284 C 0.44049 0.11811 0.60001 0.0
C1285 C 0.44013 0.15016 0.63776 0.0
C1286 C 0.43928 0.07822 0.58558 0.0
C1287 C 0.43648 0.02974 0.59318 0.0
C1288 C 0.43876 0.10918 0.62203 0.0
C1289 C 0.43463 0.02254 0.61524 0.0
C1290 C 0.43541 0.14538 0.65866 0.0
C1291 C 0.44703 0.23346 0.64534 0.0
N1292 N 0.43579 0.06194 0.62893 0.0
N1293 N 0.44592 0.19364 0.63186 0.0
H1294 H 0.28613 0.53323 0.68635 0.0
H1295 H 0.29722 0.63378 0.56753 0.0
H1296 H 0.27273 0.45597 0.62995 0.0
H1297 H 0.30265 0.72605 0.62385 0.0
H1298 H 0.28893 0.56645 0.59034 0.0
H1299 H 0.2921 0.6049 0.6639 0.0
C1300 C 0.28425 0.53174 0.6693 0.0
C1301 C 0.27911 0.48836 0.65993 0.0
C1302 C 0.29194 0.60148 0.59768 0.0
C1303 C 0.28612 0.56952 0.63418 0.0
C1304 C 0.29679 0.63959 0.58471 0.0
C1305 C 0.30063 0.68534 0.59387 0.0
C1306 C 0.29104 0.60922 0.61991 0.0
C1307 C 0.29978 0.69126 0.61617 0.0
C1308 C 0.28771 0.57251 0.65649 0.0
C1309 C 0.27679 0.48851 0.6378 0.0
N1310 N 0.29508 0.65357 0.62845 0.0
N1311 N 0.28049 0.5282 0.62559 0.0
H1312 H 0.0447 0.67637 0.33665 0.0
H1313 H 0.01716 0.95272 0.34372 0.0
H1314 H 0.01948 0.72931 0.38541 0.0
H1315 H 0.04683 0.91 0.30144 0.0
H1316 H 0.01262 0.86342 0.35004 0.0
H1317 H 0.04082 0.75348 0.31609 0.0
C1318 C 0.03822 0.70386 0.34292 0.0
C1319 C 0.03263 0.69693 0.36305 0.0
C1320 C 0.01986 0.87338 0.33879 0.0
C1321 C 0.02811 0.78501 0.33949 0.0
C1322 C 0.02232 0.92432 0.33495 0.0
C1323 C 0.03236 0.93829 0.32207 0.0
C1324 C 0.02773 0.83648 0.3301 0.0
C1325 C 0.03895 0.90041 0.31137 0.0
C1326 C 0.03599 0.74779 0.33111 0.0
C1327 C 0.0242 0.73352 0.37019 0.0
N1328 N 0.03673 0.85099 0.31606 0.0
N1329 N 0.02232 0.77626 0.35855 0.0
H1330 H 0.19154 0.47206 0.43115 0.0
H1331 H 0.1913 0.29581 0.32657 0.0
H1332 H 0.17974 0.52382 0.36869 0.0
H1333 H 0.19816 0.2426 0.39093 0.0
H1334 H 0.18989 0.38262 0.34053 0.0
H1335 H 0.19648 0.38989 0.41558 0.0
C1336 C 0.18997 0.46616 0.41418 0.0
C1337 C 0.18512 0.50478 0.40127 0.0
C1338 C 0.19183 0.35187 0.35152 0.0
C1339 C 0.19084 0.41086 0.38327 0.0
C1340 C 0.19272 0.30253 0.34353 0.0
C1341 C 0.19469 0.26209 0.35767 0.0
C1342 C 0.19301 0.36043 0.3737 0.0
C1343 C 0.19643 0.27267 0.37951 0.0
C1344 C 0.19283 0.41926 0.40527 0.0
C1345 C 0.18337 0.49502 0.37931 0.0
N1346 N 0.19547 0.32068 0.38686 0.0
N1347 N 0.1862 0.44898 0.37102 0.0
H1348 H 0.06762 0.49013 0.89079 0.0
H1349 H 0.06769 0.19661 0.86251 0.0
H1350 H 0.06196 0.43416 0.82647 0.0
H1351 H 0.05988 0.25354 0.92599 0.0
H1352 H 0.06877 0.28331 0.84925 0.0
H1353 H 0.06802 0.40338 0.90394 0.0
C1354 C 0.06655 0.45961 0.87936 0.0
C1355 C 0.06471 0.46951 0.85744 0.0
C1356 C 0.06683 0.2768 0.86607 0.0
C1357 C 0.06519 0.36998 0.87254 0.0
C1358 C 0.06627 0.22734 0.87372 0.0
C1359 C 0.06366 0.21777 0.89543 0.0
C1360 C 0.06493 0.3171 0.88026 0.0
C1361 C 0.06187 0.25915 0.90914 0.0
C1362 C 0.06672 0.41009 0.88696 0.0
C1363 C 0.06335 0.4283 0.84348 0.0
N1364 N 0.06257 0.3071 0.90132 0.0
N1365 N 0.06363 0.38024 0.85127 0.0
H1366 H 0.21525 0.98045 0.91558 0.0
H1367 H 0.21481 0.7673 0.82803 0.0
H1368 H 0.20602 0.00064 0.84879 0.0
H1369 H 0.21568 0.74281 0.89642 0.0
H1370 H 0.22114 0.85502 0.83383 0.0
H1371 H 0.22461 0.89888 0.90679 0.0
C1372 C 0.21549 0.9684 0.89898 0.0
C1373 C 0.20944 -0.00367 0.883 0.0
C1374 C 0.22033 0.82998 0.84753 0.0
C1375 C 0.22005 0.90329 0.8729 0.0
C1376 C 0.21677 0.77981 0.84421 0.0
C1377 C 0.21427 0.7485 0.86185 0.0
C1378 C 0.22129 0.84855 0.86858 0.0
C1379 C 0.21712 0.7664 0.88243 0.0
C1380 C 0.22084 0.92183 0.89398 0.0
C1381 C 0.21022 0.97938 0.86172 0.0
N1382 N 0.22018 0.81568 0.88529 0.0
N1383 N 0.21517 0.93341 0.85735 0.0
H1384 H 0.93883 0.14984 0.55769 0.0
H1385 H 0.96469 0.97702 0.65146 0.0
H1386 H 0.95978 0.20405 0.61177 0.0
H1387 H 0.94199 0.92218 0.59945 0.0
H1388 H 0.96755 0.05634 0.63201 0.0
H1389 H 0.94475 0.06288 0.56709 0.0
C1390 C 0.94504 0.14345 0.57104 0.0
C1391 C 0.94869 0.18356 0.58422 0.0
C1392 C 0.96208 0.02667 0.62471 0.0
C1393 C 0.95524 0.08517 0.59533 0.0
C1394 C 0.96042 0.98141 0.63587 0.0
C1395 C 0.95284 0.94339 0.62734 0.0
C1396 C 0.95603 0.03412 0.605 0.0
C1397 C 0.94771 0.95088 0.60687 0.0
C1398 C 0.94833 0.09394 0.57655 0.0
C1399 C 0.95665 0.1737 0.60145 0.0
N1400 N 0.94923 -0.00432 0.59656 0.0
N1401 N 0.95949 0.1254 0.60673 0.0
H1402 H 0.78275 0.48188 0.64104 0.0
H1403 H 0.81336 0.74887 0.61632 0.0
H1404 H 0.79135 0.53387 0.57709 0.0
H1405 H 0.79537 0.71588 0.67662 0.0
H1406 H 0.80638 0.66778 0.6025 0.0
H1407 H 0.7877 0.56586 0.6549 0.0
C1408 C 0.78553 0.51116 0.62987 0.0
C1409 C 0.78673 0.50079 0.60787 0.0
C1410 C 0.80394 0.67825 0.61874 0.0
C1411 C 0.79259 0.59661 0.62371 0.0
C1412 C 0.80801 0.72443 0.62676 0.0
C1413 C 0.80496 0.73928 0.64772 0.0
C1414 C 0.79685 0.64623 0.6318 0.0
C1415 C 0.79795 0.70597 0.66039 0.0
C1416 C 0.78836 0.55904 0.63781 0.0
C1417 C 0.7903 0.5402 0.59414 0.0
N1418 N 0.79415 0.66084 0.65223 0.0
N1419 N 0.79326 0.58624 0.60233 0.0
H1420 H 0.94439 0.49884 0.10484 0.0
H1421 H 0.92333 0.7816 0.12595 0.0
H1422 H 0.94071 0.56179 0.16838 0.0
H1423 H 0.93941 0.73496 0.0657 0.0
H1424 H 0.92802 0.69892 0.14095 0.0
H1425 H 0.94143 0.58306 0.08961 0.0
C1426 C 0.94304 0.53049 0.11561 0.0
C1427 C 0.94272 0.5233 0.13794 0.0
C1428 C 0.93055 0.70675 0.12446 0.0
C1429 C 0.93918 0.6196 0.12053 0.0
C1430 C 0.92778 0.75387 0.11577 0.0
C1431 C 0.93095 0.7653 0.09445 0.0
C1432 C 0.9364 0.67031 0.11173 0.0
C1433 C 0.93679 0.72778 0.08218 0.0
C1434 C 0.94138 0.57852 0.10688 0.0
C1435 C 0.94103 0.56567 0.1511 0.0
N1436 N 0.93928 0.68177 0.09098 0.0
N1437 N 0.93918 0.61201 0.14218 0.0
H1438 H 0.78772 0.18898 0.17903 0.0
H1439 H 0.77829 0.01081 0.07786 0.0
H1440 H 0.78715 0.23882 0.11315 0.0
H1441 H 0.78847 0.95939 0.14112 0.0
H1442 H 0.77348 0.09416 0.09292 0.0
H1443 H 0.78012 0.10584 0.16742 0.0
C1444 C 0.78569 0.18279 0.16223 0.0
C1445 C 0.78838 0.22 0.14692 0.0
C1446 C 0.77648 0.06418 0.10356 0.0
C1447 C 0.77973 0.12584 0.13359 0.0
C1448 C 0.77917 0.01665 0.09499 0.0
C1449 C 0.78412 0.97888 0.1082 0.0
C1450 C 0.77875 0.07355 0.12542 0.0
C1451 C 0.785 -0.01186 0.13031 0.0
C1452 C 0.78138 0.13545 0.1556 0.0
C1453 C 0.7855 0.21045 0.12537 0.0
N1454 N 0.78256 0.03485 0.13818 0.0
N1455 N 0.78151 0.16403 0.11929 0.0
H1456 H 0.535 0.80281 0.9191 0.0
H1457 H 0.53383 -0.01184 0.8176 0.0
H1458 H 0.52153 0.75692 0.85692 0.0
H1459 H 0.55795 0.00599 0.87227 0.0
H1460 H 0.52526 0.91148 0.83422 0.0
H1461 H 0.53873 0.88772 0.90483 0.0
C1462 C 0.53254 0.81092 0.90262 0.0
C1463 C 0.52814 0.77266 0.88907 0.0
C1464 C 0.5324 0.93246 0.84252 0.0
C1465 C 0.53252 0.86914 0.87264 0.0
C1466 C 0.53732 0.97596 0.83303 0.0
C1467 C 0.54672 0.0031 0.84343 0.0
C1468 C 0.53679 0.9167 0.86265 0.0
C1469 C 0.55084 -0.01411 0.86351 0.0
C1470 C 0.53478 0.85918 0.89443 0.0
C1471 C 0.52512 0.78522 0.86781 0.0
N1472 N 0.54584 0.94387 0.87246 0.0
N1473 N 0.52749 0.83232 0.86016 0.0
H1474 H 0.68172 0.4429 0.92079 0.0
H1475 H 0.69436 0.26882 0.81798 0.0
H1476 H 0.69438 0.50139 0.85994 0.0
H1477 H 0.67287 0.22194 0.87295 0.0
H1478 H 0.69763 0.35119 0.83515 0.0
H1479 H 0.68208 0.35741 0.90569 0.0
C1480 C 0.68476 0.43767 0.90439 0.0
C1481 C 0.68786 0.47926 0.89151 0.0
C1482 C 0.69222 0.32269 0.84341 0.0
C1483 C 0.68823 0.38205 0.87414 0.0
C1484 C 0.69033 0.27581 0.83361 0.0
C1485 C 0.68323 0.23864 0.84393 0.0
C1486 C 0.68708 0.33208 0.86373 0.0
C1487 C 0.6783 0.24961 0.86425 0.0
C1488 C 0.68488 0.389 0.89573 0.0
C1489 C 0.69173 0.47039 0.87034 0.0
N1490 N 0.68032 0.29528 0.87347 0.0
N1491 N 0.69173 0.42278 0.86226 0.0
H1492 H 0.55515 0.51249 0.3948 0.0
H1493 H 0.5612 0.22082 0.36491 0.0
H1494 H 0.54964 0.45478 0.33072 0.0
H1495 H 0.55477 0.27265 0.42965 0.0
H1496 H 0.55982 0.30773 0.35228 0.0
H1497 H 0.55762 0.42606 0.40782 0.0
C1498 C 0.55448 0.48165 0.38343 0.0
C1499 C 0.55218 0.49089 0.36159 0.0
C1500 C 0.55873 0.30011 0.36925 0.0
C1501 C 0.55506 0.39191 0.37648 0.0
C1502 C 0.55959 0.25049 0.37655 0.0
C1503 C 0.55806 0.23931 0.39843 0.0
C1504 C 0.55644 0.3391 0.38391 0.0
C1505 C 0.55598 0.27949 0.41266 0.0
C1506 C 0.55586 0.43233 0.39093 0.0
C1507 C 0.55136 0.4494 0.34767 0.0
N1508 N 0.55523 0.32771 0.40514 0.0
N1509 N 0.55286 0.40165 0.35535 0.0
H1510 H 0.7056 0.91845 0.4229 0.0
H1511 H 0.7104 0.71101 0.33282 0.0
H1512 H 0.71838 0.94453 0.35834 0.0
H1513 H 0.69166 0.69198 0.39347 0.0
H1514 H 0.7205 0.78656 0.34692 0.0
H1515 H 0.70827 0.82744 0.4175 0.0
C1516 C 0.7095 0.90516 0.40794 0.0
C1517 C 0.71145 0.9386 0.3908 0.0
C1518 C 0.71436 0.76528 0.35728 0.0
C1519 C 0.71423 0.83514 0.38435 0.0
C1520 C 0.70854 0.72225 0.34921 0.0
C1521 C 0.69985 0.69611 0.36174 0.0
C1522 C 0.71137 0.78255 0.37795 0.0
C1523 C 0.69804 0.71176 0.38303 0.0
C1524 C 0.7109 0.85318 0.40476 0.0
C1525 C 0.7165 0.9196 0.37176 0.0
N1526 N 0.70355 0.75456 0.39032 0.0
N1527 N 0.71744 0.86895 0.36883 0.0
H1528 H 0.45006 0.25681 0.15915 0.0
H1529 H 0.46485 -0.01087 0.11655 0.0
H1530 H 0.45997 0.22333 0.09365 0.0
H1531 H 0.45685 0.02315 0.18272 0.0
H1532 H 0.47066 0.07717 0.11078 0.0
H1533 H 0.45964 0.17786 0.17048 0.0
C1534 C 0.45447 0.23325 0.14719 0.0
C1535 C 0.45381 0.24559 0.12532 0.0
C1536 C 0.46798 0.06528 0.12674 0.0
C1537 C 0.46462 0.1548 0.13814 0.0
C1538 C 0.46468 0.01494 0.13004 0.0
C1539 C 0.45996 -0.00051 0.14994 0.0
C1540 C 0.46618 0.10046 0.14331 0.0
C1541 C 0.46019 0.03392 0.167 0.0
C1542 C 0.46 0.1882 0.15368 0.0
C1543 C 0.46 0.21457 0.11061 0.0
N1544 N 0.46285 0.08333 0.16313 0.0
N1545 N 0.46486 0.16984 0.11722 0.0
H1546 H 0.29946 0.69813 0.16853 0.0
H1547 H 0.30382 0.51433 0.06735 0.0
H1548 H 0.31155 0.74658 0.10573 0.0
H1549 H 0.30329 0.45898 0.13254 0.0
H1550 H 0.30507 0.60079 0.08108 0.0
H1551 H 0.29936 0.61039 0.15566 0.0
C1552 C 0.30215 0.69037 0.15213 0.0
C1553 C 0.3055 0.72982 0.13821 0.0
C1554 C 0.30474 0.56965 0.09237 0.0
C1555 C 0.30527 0.63003 0.12338 0.0
C1556 C 0.30399 0.52033 0.08453 0.0
C1557 C 0.30347 0.47938 0.0988 0.0
C1558 C 0.3048 0.57809 0.11462 0.0
C1559 C 0.30373 0.48941 0.12094 0.0
C1560 C 0.3021 0.64037 0.14481 0.0
C1561 C 0.3089 0.71753 0.11708 0.0
N1562 N 0.30431 0.53779 0.12818 0.0
N1563 N 0.30861 0.66886 0.1103 0.0
H1564 H 0.43582 0.54934 0.67594 0.0
H1565 H 0.44824 0.72252 0.57269 0.0
H1566 H 0.44923 0.49022 0.61577 0.0
H1567 H 0.42368 0.7619 0.62471 0.0
H1568 H 0.45306 0.64288 0.59128 0.0
H1569 H 0.43632 0.63466 0.66055 0.0
C1570 C 0.43911 0.55446 0.65967 0.0
C1571 C 0.44227 0.51278 0.64696 0.0
C1572 C 0.44667 0.66928 0.59858 0.0
C1573 C 0.44279 0.60959 0.62929 0.0
C1574 C 0.44389 0.71448 0.58798 0.0
C1575 C 0.4354 0.74841 0.59699 0.0
C1576 C 0.44106 0.65865 0.61843 0.0
C1577 C 0.43012 0.73645 0.61695 0.0
C1578 C 0.43931 0.60298 0.65085 0.0
C1579 C 0.44649 0.5214 0.62596 0.0
N1580 N 0.43303 0.69259 0.62697 0.0
N1581 N 0.44652 0.56885 0.61769 0.0
H1582 H 0.31753 0.96786 0.62112 0.0
H1583 H 0.27984 0.2214 0.60546 0.0
H1584 H 0.29179 -0.01264 0.5688 0.0
H1585 H 0.29414 0.17377 0.66685 0.0
H1586 H 0.28462 0.1379 0.59086 0.0
H1587 H 0.31017 0.04659 0.63682 0.0
C1588 C 0.31039 -0.01111 0.61281 0.0
C1589 C 0.30529 0.97103 0.59354 0.0
C1590 C 0.28654 0.14549 0.6076 0.0
C1591 C 0.29678 0.06112 0.61161 0.0
C1592 C 0.28382 0.19305 0.61595 0.0
C1593 C 0.28668 0.2045 0.63736 0.0
C1594 C 0.29238 0.10953 0.62064 0.0
C1595 C 0.29177 0.16643 0.65027 0.0
C1596 C 0.30611 0.03358 0.62194 0.0
C1597 C 0.29599 -0.00023 0.58365 0.0
N1598 N 0.29465 0.12079 0.64161 0.0
N1599 N 0.29207 0.04364 0.59275 0.0
loop_
_geom_bond_atom_site_label_1
_geom_bond_atom_site_label_2
_geom_bond_distance
_geom_bond_site_symmetry_2
_ccdc_geom_bond_type
C0 O1 1.306 . S
C0 O3 1.160 . S
O1 C0 1.306 . S
O1 Cd2 2.228 . S
Cd2 O1 2.228 . S
Cd2 O6 2.273 . S
Cd2 O10 2.277 . S
O3 C0 1.160 . S
O3 Cd4 2.203 . S
Cd4 O3 2.203 . S
Cd4 O6 2.411 . S
Cd4 O7 2.333 . S
Cd4 O8 2.352 . S
Cd4 O12 2.277 . S
Cd4 O13 2.356 . S
C5 O10 1.209 . S
C5 O12 1.226 . S
O6 Cd2 2.273 . S
O6 Cd4 2.411 . S
O6 C9 1.320 . S
O7 Cd4 2.333 . S
O7 C9 1.214 . S
O8 Cd4 2.352 . S
O8 C11 1.258 . S
C9 O6 1.320 . S
C9 O7 1.214 . S
O10 Cd2 2.277 . S
O10 C5 1.209 . S
C11 O8 1.258 . S
C11 O13 1.282 . S
O12 Cd4 2.277 . S
O12 C5 1.226 . S
O13 Cd4 2.356 . S
O13 C11 1.282 . S
C14 O15 1.306 . S
C14 O17 1.160 . S
O15 C14 1.306 . S
O15 Cd16 2.228 . S
Cd16 O15 2.228 . S
Cd16 O20 2.273 . S
Cd16 O24 2.277 . S
O17 C14 1.160 . S
O17 Cd18 2.203 . S
Cd18 O17 2.203 . S
Cd18 O20 2.411 . S
Cd18 O21 2.333 . S
Cd18 O22 2.352 . S
Cd18 O26 2.277 . S
Cd18 O27 2.356 . S
C19 O24 1.209 . S
C19 O26 1.226 . S
O20 Cd16 2.273 . S
O20 Cd18 2.411 . S
O20 C23 1.320 . S
O21 Cd18 2.333 . S
O21 C23 1.214 . S
O22 Cd18 2.352 . S
O22 C25 1.258 . S
C23 O20 1.320 . S
C23 O21 1.214 . S
O24 Cd16 2.277 . S
O24 C19 1.209 . S
C25 O22 1.258 . S
C25 O27 1.282 . S
O26 Cd18 2.277 . S
O26 C19 1.226 . S
O27 Cd18 2.356 . S
O27 C25 1.282 . S
C28 O29 1.306 . S
C28 O31 1.160 . S
O29 C28 1.306 . S
O29 Cd30 2.228 . S
Cd30 O29 2.228 . S
Cd30 O34 2.273 . S
Cd30 O38 2.277 . S
O31 C28 1.160 . S
O31 Cd32 2.203 . S
Cd32 O31 2.203 . S
Cd32 O34 2.411 . S
Cd32 O35 2.333 . S
Cd32 O36 2.352 . S
Cd32 O40 2.277 . S
Cd32 O41 2.356 . S
C33 O38 1.209 . S
C33 O40 1.226 . S
O34 Cd30 2.273 . S
O34 Cd32 2.411 . S
O34 C37 1.320 . S
O35 Cd32 2.333 . S
O35 C37 1.214 . S
O36 Cd32 2.352 . S
O36 C39 1.258 . S
C37 O34 1.320 . S
C37 O35 1.214 . S
O38 Cd30 2.277 . S
O38 C33 1.209 . S
C39 O36 1.258 . S
C39 O41 1.282 . S
O40 Cd32 2.277 . S
O40 C33 1.226 . S
O41 Cd32 2.356 . S
O41 C39 1.282 . S
C42 O43 1.306 . S
C42 O45 1.160 . S
O43 C42 1.306 . S
O43 Cd44 2.228 . S
Cd44 O43 2.228 . S
Cd44 O48 2.273 . S
Cd44 O52 2.277 . S
O45 C42 1.160 . S
O45 Cd46 2.203 . S
Cd46 O45 2.203 . S
Cd46 O48 2.411 . S
Cd46 O49 2.333 . S
Cd46 O50 2.352 . S
Cd46 O54 2.277 . S
Cd46 O55 2.356 . S
C47 O52 1.209 . S
C47 O54 1.226 . S
O48 Cd44 2.273 . S
O48 Cd46 2.411 . S
O48 C51 1.320 . S
O49 Cd46 2.333 . S
O49 C51 1.214 . S
O50 Cd46 2.352 . S
O50 C53 1.258 . S
C51 O48 1.320 . S
C51 O49 1.214 . S
O52 Cd44 2.277 . S
O52 C47 1.209 . S
C53 O50 1.258 . S
C53 O55 1.282 . S
O54 Cd46 2.277 . S
O54 C47 1.226 . S
O55 Cd46 2.356 . S
O55 C53 1.282 . S
C56 O57 1.306 . S
C56 O59 1.160 . S
O57 C56 1.306 . S
O57 Cd58 2.228 . S
Cd58 O57 2.228 . S
Cd58 O62 2.273 . S
Cd58 O66 2.277 . S
O59 C56 1.160 . S
O59 Cd60 2.203 . S
Cd60 O59 2.203 . S
Cd60 O62 2.411 . S
Cd60 O63 2.333 . S
Cd60 O64 2.352 . S
Cd60 O68 2.277 . S
Cd60 O69 2.356 . S
C61 O66 1.209 . S
C61 O68 1.226 . S
O62 Cd58 2.273 . S
O62 Cd60 2.411 . S
O62 C65 1.320 . S
O63 Cd60 2.333 . S
O63 C65 1.214 . S
O64 Cd60 2.352 . S
O64 C67 1.258 . S
C65 O62 1.320 . S
C65 O63 1.214 . S
O66 Cd58 2.277 . S
O66 C61 1.209 . S
C67 O64 1.258 . S
C67 O69 1.282 . S
O68 Cd60 2.277 . S
O68 C61 1.226 . S
O69 Cd60 2.356 . S
O69 C67 1.282 . S
C70 O71 1.306 . S
C70 O73 1.160 . S
O71 C70 1.306 . S
O71 Cd72 2.228 . S
Cd72 O71 2.228 . S
Cd72 O76 2.273 . S
Cd72 O80 2.277 . S
O73 C70 1.160 . S
O73 Cd74 2.203 . S
Cd74 O73 2.203 . S
Cd74 O76 2.411 . S
Cd74 O77 2.333 . S
Cd74 O78 2.352 . S
Cd74 O82 2.277 . S
Cd74 O83 2.356 . S
C75 O80 1.209 . S
C75 O82 1.226 . S
O76 Cd72 2.273 . S
O76 Cd74 2.411 . S
O76 C79 1.320 . S
O77 Cd74 2.333 . S
O77 C79 1.214 . S
O78 Cd74 2.352 . S
O78 C81 1.258 . S
C79 O76 1.320 . S
C79 O77 1.214 . S
O80 Cd72 2.277 . S
O80 C75 1.209 . S
C81 O78 1.258 . S
C81 O83 1.282 . S
O82 Cd74 2.277 . S
O82 C75 1.226 . S
O83 Cd74 2.356 . S
O83 C81 1.282 . S
C84 O85 1.306 . S
C84 O87 1.160 . S
O85 C84 1.306 . S
O85 Cd86 2.228 . S
Cd86 O85 2.228 . S
Cd86 O90 2.273 . S
Cd86 O94 2.277 . S
O87 C84 1.160 . S
O87 Cd88 2.203 . S
Cd88 O87 2.203 . S
Cd88 O90 2.411 . S
Cd88 O91 2.333 . S
Cd88 O92 2.352 . S
Cd88 O96 2.277 . S
Cd88 O97 2.356 . S
C89 O94 1.209 . S
C89 O96 1.226 . S
O90 Cd86 2.273 . S
O90 Cd88 2.411 . S
O90 C93 1.320 . S
O91 Cd88 2.333 . S
O91 C93 1.214 . S
O92 Cd88 2.352 . S
O92 C95 1.258 . S
C93 O90 1.320 . S
C93 O91 1.214 . S
O94 Cd86 2.277 . S
O94 C89 1.209 . S
C95 O92 1.258 . S
C95 O97 1.282 . S
O96 Cd88 2.277 . S
O96 C89 1.226 . S
O97 Cd88 2.356 . S
O97 C95 1.282 . S
C98 O99 1.306 . S
C98 O101 1.160 . S
O99 C98 1.306 . S
O99 Cd100 2.228 . S
Cd100 O99 2.228 . S
Cd100 O104 2.273 . S
Cd100 O108 2.277 . S
O101 C98 1.160 . S
O101 Cd102 2.203 . S
Cd102 O101 2.203 . S
Cd102 O104 2.411 . S
Cd102 O105 2.333 . S
Cd102 O106 2.352 . S
Cd102 O110 2.277 . S
Cd102 O111 2.356 . S
C103 O108 1.209 . S
C103 O110 1.226 . S
O104 Cd100 2.273 . S
O104 Cd102 2.411 . S
O104 C107 1.320 . S
O105 Cd102 2.333 . S
O105 C107 1.214 . S
O106 Cd102 2.352 . S
O106 C109 1.258 . S
C107 O104 1.320 . S
C107 O105 1.214 . S
O108 Cd100 2.277 . S
O108 C103 1.209 . S
C109 O106 1.258 . S
C109 O111 1.282 . S
O110 Cd102 2.277 . S
O110 C103 1.226 . S
O111 Cd102 2.356 . S
O111 C109 1.282 . S
C112 O113 1.306 . S
C112 O115 1.160 . S
O113 C112 1.306 . S
O113 Cd114 2.228 . S
Cd114 O113 2.228 . S
Cd114 O118 2.273 . S
Cd114 O122 2.277 . S
O115 C112 1.160 . S
O115 Cd116 2.203 . S
Cd116 O115 2.203 . S
Cd116 O118 2.411 . S
Cd116 O119 2.333 . S
Cd116 O120 2.352 . S
Cd116 O124 2.277 . S
Cd116 O125 2.356 . S
C117 O122 1.209 . S
C117 O124 1.226 . S
O118 Cd114 2.273 . S
O118 Cd116 2.411 . S
O118 C121 1.320 . S
O119 Cd116 2.333 . S
O119 C121 1.214 . S
O120 Cd116 2.352 . S
O120 C123 1.258 . S
C121 O118 1.320 . S
C121 O119 1.214 . S
O122 Cd114 2.277 . S
O122 C117 1.209 . S
C123 O120 1.258 . S
C123 O125 1.282 . S
O124 Cd116 2.277 . S
O124 C117 1.226 . S
O125 Cd116 2.356 . S
O125 C123 1.282 . S
C126 O127 1.306 . S
C126 O129 1.160 . S
O127 C126 1.306 . S
O127 Cd128 2.228 . S
Cd128 O127 2.228 . S
Cd128 O132 2.273 . S
Cd128 O136 2.277 . S
O129 C126 1.160 . S
O129 Cd130 2.203 . S
Cd130 O129 2.203 . S
Cd130 O132 2.411 . S
Cd130 O133 2.333 . S
Cd130 O134 2.352 . S
Cd130 O138 2.277 . S
Cd130 O139 2.356 . S
C131 O136 1.209 . S
C131 O138 1.226 . S
O132 Cd128 2.273 . S
O132 Cd130 2.411 . S
O132 C135 1.320 . S
O133 Cd130 2.333 . S
O133 C135 1.214 . S
O134 Cd130 2.352 . S
O134 C137 1.258 . S
C135 O132 1.320 . S
C135 O133 1.214 . S
O136 Cd128 2.277 . S
O136 C131 1.209 . S
C137 O134 1.258 . S
C137 O139 1.282 . S
O138 Cd130 2.277 . S
O138 C131 1.226 . S
O139 Cd130 2.356 . S
O139 C137 1.282 . S
C140 O141 1.306 . S
C140 O143 1.160 . S
O141 C140 1.306 . S
O141 Cd142 2.228 . S
Cd142 O141 2.228 . S
Cd142 O146 2.273 . S
Cd142 O150 2.277 . S
O143 C140 1.160 . S
O143 Cd144 2.203 . S
Cd144 O143 2.203 . S
Cd144 O146 2.411 . S
Cd144 O147 2.333 . S
Cd144 O148 2.352 . S
Cd144 O152 2.277 . S
Cd144 O153 2.356 . S
C145 O150 1.209 . S
C145 O152 1.226 . S
O146 Cd142 2.273 . S
O146 Cd144 2.411 . S
O146 C149 1.320 . S
O147 Cd144 2.333 . S
O147 C149 1.214 . S
O148 Cd144 2.352 . S
O148 C151 1.258 . S
C149 O146 1.320 . S
C149 O147 1.214 . S
O150 Cd142 2.277 . S
O150 C145 1.209 . S
C151 O148 1.258 . S
C151 O153 1.282 . S
O152 Cd144 2.277 . S
O152 C145 1.226 . S
O153 Cd144 2.356 . S
O153 C151 1.282 . S
C154 O155 1.306 . S
C154 O157 1.160 . S
O155 C154 1.306 . S
O155 Cd156 2.228 . S
Cd156 O155 2.228 . S
Cd156 O160 2.273 . S
Cd156 O164 2.277 . S
O157 C154 1.160 . S
O157 Cd158 2.203 . S
Cd158 O157 2.203 . S
Cd158 O160 2.411 . S
Cd158 O161 2.333 . S
Cd158 O162 2.352 . S
Cd158 O166 2.277 . S
Cd158 O167 2.356 . S
C159 O164 1.209 . S
C159 O166 1.226 . S
O160 Cd156 2.273 . S
O160 Cd158 2.411 . S
O160 C163 1.320 . S
O161 Cd158 2.333 . S
O161 C163 1.214 . S
O162 Cd158 2.352 . S
O162 C165 1.258 . S
C163 O160 1.320 . S
C163 O161 1.214 . S
O164 Cd156 2.277 . S
O164 C159 1.209 . S
C165 O162 1.258 . S
C165 O167 1.282 . S
O166 Cd158 2.277 . S
O166 C159 1.226 . S
O167 Cd158 2.356 . S
O167 C165 1.282 . S
C168 O169 1.306 . S
C168 O171 1.160 . S
O169 C168 1.306 . S
O169 Cd170 2.228 . S
Cd170 O169 2.228 . S
Cd170 O174 2.273 . S
Cd170 O178 2.277 . S
O171 C168 1.160 . S
O171 Cd172 2.203 . S
Cd172 O171 2.203 . S
Cd172 O174 2.411 . S
Cd172 O175 2.333 . S
Cd172 O176 2.352 . S
Cd172 O180 2.277 . S
Cd172 O181 2.356 . S
C173 O178 1.209 . S
C173 O180 1.226 . S
O174 Cd170 2.273 . S
O174 Cd172 2.411 . S
O174 C177 1.320 . S
O175 Cd172 2.333 . S
O175 C177 1.214 . S
O176 Cd172 2.352 . S
O176 C179 1.258 . S
C177 O174 1.320 . S
C177 O175 1.214 . S
O178 Cd170 2.277 . S
O178 C173 1.209 . S
C179 O176 1.258 . S
C179 O181 1.282 . S
O180 Cd172 2.277 . S
O180 C173 1.226 . S
O181 Cd172 2.356 . S
O181 C179 1.282 . S
C182 O183 1.306 . S
C182 O185 1.160 . S
O183 C182 1.306 . S
O183 Cd184 2.228 . S
Cd184 O183 2.228 . S
Cd184 O188 2.273 . S
Cd184 O192 2.277 . S
O185 C182 1.160 . S
O185 Cd186 2.203 . S
Cd186 O185 2.203 . S
Cd186 O188 2.411 . S
Cd186 O189 2.333 . S
Cd186 O190 2.352 . S
Cd186 O194 2.277 . S
Cd186 O195 2.356 . S
C187 O192 1.209 . S
C187 O194 1.226 . S
O188 Cd184 2.273 . S
O188 Cd186 2.411 . S
O188 C191 1.320 . S
O189 Cd186 2.333 . S
O189 C191 1.214 . S
O190 Cd186 2.352 . S
O190 C193 1.258 . S
C191 O188 1.320 . S
C191 O189 1.214 . S
O192 Cd184 2.277 . S
O192 C187 1.209 . S
C193 O190 1.258 . S
C193 O195 1.282 . S
O194 Cd186 2.277 . S
O194 C187 1.226 . S
O195 Cd186 2.356 . S
O195 C193 1.282 . S
C196 O197 1.306 . S
C196 O199 1.160 . S
O197 C196 1.306 . S
O197 Cd198 2.228 . S
Cd198 O197 2.228 . S
Cd198 O202 2.273 . S
Cd198 O206 2.277 . S
O199 C196 1.160 . S
O199 Cd200 2.203 . S
Cd200 O199 2.203 . S
Cd200 O202 2.411 . S
Cd200 O203 2.333 . S
Cd200 O204 2.352 . S
Cd200 O208 2.277 . S
Cd200 O209 2.356 . S
C201 O206 1.209 . S
C201 O208 1.226 . S
O202 Cd198 2.273 . S
O202 Cd200 2.411 . S
O202 C205 1.320 . S
O203 Cd200 2.333 . S
O203 C205 1.214 . S
O204 Cd200 2.352 . S
O204 C207 1.258 . S
C205 O202 1.320 . S
C205 O203 1.214 . S
O206 Cd198 2.277 . S
O206 C201 1.209 . S
C207 O204 1.258 . S
C207 O209 1.282 . S
O208 Cd200 2.277 . S
O208 C201 1.226 . S
O209 Cd200 2.356 . S
O209 C207 1.282 . S
C210 O211 1.306 . S
C210 O213 1.160 . S
O211 C210 1.306 . S
O211 Cd212 2.228 . S
Cd212 O211 2.228 . S
Cd212 O216 2.273 . S
Cd212 O220 2.277 . S
O213 C210 1.160 . S
O213 Cd214 2.203 . S
Cd214 O213 2.203 . S
Cd214 O216 2.411 . S
Cd214 O217 2.333 . S
Cd214 O218 2.352 . S
Cd214 O222 2.277 . S
Cd214 O223 2.356 . S
C215 O220 1.209 . S
C215 O222 1.226 . S
O216 Cd212 2.273 . S
O216 Cd214 2.411 . S
O216 C219 1.320 . S
O217 Cd214 2.333 . S
O217 C219 1.214 . S
O218 Cd214 2.352 . S
O218 C221 1.258 . S
C219 O216 1.320 . S
C219 O217 1.214 . S
O220 Cd212 2.277 . S
O220 C215 1.209 . S
C221 O218 1.258 . S
C221 O223 1.282 . S
O222 Cd214 2.277 . S
O222 C215 1.226 . S
O223 Cd214 2.356 . S
O223 C221 1.282 . S
C224 O225 1.306 . S
C224 O227 1.160 . S
O225 C224 1.306 . S
O225 Cd226 2.228 . S
Cd226 O225 2.228 . S
Cd226 O230 2.273 . S
Cd226 O234 2.277 . S
O227 C224 1.160 . S
O227 Cd228 2.203 . S
Cd228 O227 2.203 . S
Cd228 O230 2.411 . S
Cd228 O231 2.333 . S
Cd228 O232 2.352 . S
Cd228 O236 2.277 . S
Cd228 O237 2.356 . S
C229 O234 1.209 . S
C229 O236 1.226 . S
O230 Cd226 2.273 . S
O230 Cd228 2.411 . S
O230 C233 1.320 . S
O231 Cd228 2.333 . S
O231 C233 1.214 . S
O232 Cd228 2.352 . S
O232 C235 1.258 . S
C233 O230 1.320 . S
C233 O231 1.214 . S
O234 Cd226 2.277 . S
O234 C229 1.209 . S
C235 O232 1.258 . S
C235 O237 1.282 . S
O236 Cd228 2.277 . S
O236 C229 1.226 . S
O237 Cd228 2.356 . S
O237 C235 1.282 . S
C238 O239 1.306 . S
C238 O241 1.160 . S
O239 C238 1.306 . S
O239 Cd240 2.228 . S
Cd240 O239 2.228 . S
Cd240 O244 2.273 . S
Cd240 O248 2.277 . S
O241 C238 1.160 . S
O241 Cd242 2.203 . S
Cd242 O241 2.203 . S
Cd242 O244 2.411 . S
Cd242 O245 2.333 . S
Cd242 O246 2.352 . S
Cd242 O250 2.277 . S
Cd242 O251 2.356 . S
C243 O248 1.209 . S
C243 O250 1.226 . S
O244 Cd240 2.273 . S
O244 Cd242 2.411 . S
O244 C247 1.320 . S
O245 Cd242 2.333 . S
O245 C247 1.214 . S
O246 Cd242 2.352 . S
O246 C249 1.258 . S
C247 O244 1.320 . S
C247 O245 1.214 . S
O248 Cd240 2.277 . S
O248 C243 1.209 . S
C249 O246 1.258 . S
C249 O251 1.282 . S
O250 Cd242 2.277 . S
O250 C243 1.226 . S
O251 Cd242 2.356 . S
O251 C249 1.282 . S
C252 O253 1.306 . S
C252 O255 1.160 . S
O253 C252 1.306 . S
O253 Cd254 2.228 . S
Cd254 O253 2.228 . S
Cd254 O258 2.273 . S
Cd254 O262 2.277 . S
O255 C252 1.160 . S
O255 Cd256 2.203 . S
Cd256 O255 2.203 . S
Cd256 O258 2.411 . S
Cd256 O259 2.333 . S
Cd256 O260 2.352 . S
Cd256 O264 2.277 . S
Cd256 O265 2.356 . S
C257 O262 1.209 . S
C257 O264 1.226 . S
O258 Cd254 2.273 . S
O258 Cd256 2.411 . S
O258 C261 1.320 . S
O259 Cd256 2.333 . S
O259 C261 1.214 . S
O260 Cd256 2.352 . S
O260 C263 1.258 . S
C261 O258 1.320 . S
C261 O259 1.214 . S
O262 Cd254 2.277 . S
O262 C257 1.209 . S
C263 O260 1.258 . S
C263 O265 1.282 . S
O264 Cd256 2.277 . S
O264 C257 1.226 . S
O265 Cd256 2.356 . S
O265 C263 1.282 . S
C266 O267 1.306 . S
C266 O269 1.160 . S
O267 C266 1.306 . S
O267 Cd268 2.228 . S
Cd268 O267 2.228 . S
Cd268 O272 2.273 . S
Cd268 O276 2.277 . S
O269 C266 1.160 . S
O269 Cd270 2.203 . S
Cd270 O269 2.203 . S
Cd270 O272 2.411 . S
Cd270 O273 2.333 . S
Cd270 O274 2.352 . S
Cd270 O278 2.277 . S
Cd270 O279 2.356 . S
C271 O276 1.209 . S
C271 O278 1.226 . S
O272 Cd268 2.273 . S
O272 Cd270 2.411 . S
O272 C275 1.320 . S
O273 Cd270 2.333 . S
O273 C275 1.214 . S
O274 Cd270 2.352 . S
O274 C277 1.258 . S
C275 O272 1.320 . S
C275 O273 1.214 . S
O276 Cd268 2.277 . S
O276 C271 1.209 . S
C277 O274 1.258 . S
C277 O279 1.282 . S
O278 Cd270 2.277 . S
O278 C271 1.226 . S
O279 Cd270 2.356 . S
O279 C277 1.282 . S
C280 O281 1.306 . S
C280 O283 1.160 . S
O281 C280 1.306 . S
O281 Cd282 2.228 . S
Cd282 O281 2.228 . S
Cd282 O286 2.273 . S
Cd282 O290 2.277 . S
O283 C280 1.160 . S
O283 Cd284 2.203 . S
Cd284 O283 2.203 . S
Cd284 O286 2.411 . S
Cd284 O287 2.333 . S
Cd284 O288 2.352 . S
Cd284 O292 2.277 . S
Cd284 O293 2.356 . S
C285 O290 1.209 . S
C285 O292 1.226 . S
O286 Cd282 2.273 . S
O286 Cd284 2.411 . S
O286 C289 1.320 . S
O287 Cd284 2.333 . S
O287 C289 1.214 . S
O288 Cd284 2.352 . S
O288 C291 1.258 . S
C289 O286 1.320 . S
C289 O287 1.214 . S
O290 Cd282 2.277 . S
O290 C285 1.209 . S
C291 O288 1.258 . S
C291 O293 1.282 . S
O292 Cd284 2.277 . S
O292 C285 1.226 . S
O293 Cd284 2.356 . S
O293 C291 1.282 . S
C294 O295 1.306 . S
C294 O297 1.160 . S
O295 C294 1.306 . S
O295 Cd296 2.228 . S
Cd296 O295 2.228 . S
Cd296 O300 2.273 . S
Cd296 O304 2.277 . S
O297 C294 1.160 . S
O297 Cd298 2.203 . S
Cd298 O297 2.203 . S
Cd298 O300 2.411 . S
Cd298 O301 2.333 . S
Cd298 O302 2.352 . S
Cd298 O306 2.277 . S
Cd298 O307 2.356 . S
C299 O304 1.209 . S
C299 O306 1.226 . S
O300 Cd296 2.273 . S
O300 Cd298 2.411 . S
O300 C303 1.320 . S
O301 Cd298 2.333 . S
O301 C303 1.214 . S
O302 Cd298 2.352 . S
O302 C305 1.258 . S
C303 O300 1.320 . S
C303 O301 1.214 . S
O304 Cd296 2.277 . S
O304 C299 1.209 . S
C305 O302 1.258 . S
C305 O307 1.282 . S
O306 Cd298 2.277 . S
O306 C299 1.226 . S
O307 Cd298 2.356 . S
O307 C305 1.282 . S
C308 O309 1.306 . S
C308 O311 1.160 . S
O309 C308 1.306 . S
O309 Cd310 2.228 . S
Cd310 O309 2.228 . S
Cd310 O314 2.273 . S
Cd310 O318 2.277 . S
O311 C308 1.160 . S
O311 Cd312 2.203 . S
Cd312 O311 2.203 . S
Cd312 O314 2.411 . S
Cd312 O315 2.333 . S
Cd312 O316 2.352 . S
Cd312 O320 2.277 . S
Cd312 O321 2.356 . S
C313 O318 1.209 . S
C313 O320 1.226 . S
O314 Cd310 2.273 . S
O314 Cd312 2.411 . S
O314 C317 1.320 . S
O315 Cd312 2.333 . S
O315 C317 1.214 . S
O316 Cd312 2.352 . S
O316 C319 1.258 . S
C317 O314 1.320 . S
C317 O315 1.214 . S
O318 Cd310 2.277 . S
O318 C313 1.209 . S
C319 O316 1.258 . S
C319 O321 1.282 . S
O320 Cd312 2.277 . S
O320 C313 1.226 . S
O321 Cd312 2.356 . S
O321 C319 1.282 . S
C322 O323 1.306 . S
C322 O325 1.160 . S
O323 C322 1.306 . S
O323 Cd324 2.228 . S
Cd324 O323 2.228 . S
Cd324 O328 2.273 . S
Cd324 O332 2.277 . S
O325 C322 1.160 . S
O325 Cd326 2.203 . S
Cd326 O325 2.203 . S
Cd326 O328 2.411 . S
Cd326 O329 2.333 . S
Cd326 O330 2.352 . S
Cd326 O334 2.277 . S
Cd326 O335 2.356 . S
C327 O332 1.209 . S
C327 O334 1.226 . S
O328 Cd324 2.273 . S
O328 Cd326 2.411 . S
O328 C331 1.320 . S
O329 Cd326 2.333 . S
O329 C331 1.214 . S
O330 Cd326 2.352 . S
O330 C333 1.258 . S
C331 O328 1.320 . S
C331 O329 1.214 . S
O332 Cd324 2.277 . S
O332 C327 1.209 . S
C333 O330 1.258 . S
C333 O335 1.282 . S
O334 Cd326 2.277 . S
O334 C327 1.226 . S
O335 Cd326 2.356 . S
O335 C333 1.282 . S
C336 O337 1.306 . S
C336 O339 1.160 . S
O337 C336 1.306 . S
O337 Cd338 2.228 . S
Cd338 O337 2.228 . S
Cd338 O342 2.273 . S
Cd338 O346 2.277 . S
O339 C336 1.160 . S
O339 Cd340 2.203 . S
Cd340 O339 2.203 . S
Cd340 O342 2.411 . S
Cd340 O343 2.333 . S
Cd340 O344 2.352 . S
Cd340 O348 2.277 . S
Cd340 O349 2.356 . S
C341 O346 1.209 . S
C341 O348 1.226 . S
O342 Cd338 2.273 . S
O342 Cd340 2.411 . S
O342 C345 1.320 . S
O343 Cd340 2.333 . S
O343 C345 1.214 . S
O344 Cd340 2.352 . S
O344 C347 1.258 . S
C345 O342 1.320 . S
C345 O343 1.214 . S
O346 Cd338 2.277 . S
O346 C341 1.209 . S
C347 O344 1.258 . S
C347 O349 1.282 . S
O348 Cd340 2.277 . S
O348 C341 1.226 . S
O349 Cd340 2.356 . S
O349 C347 1.282 . S
C350 O351 1.306 . S
C350 O353 1.160 . S
O351 C350 1.306 . S
O351 Cd352 2.228 . S
Cd352 O351 2.228 . S
Cd352 O356 2.273 . S
Cd352 O360 2.277 . S
O353 C350 1.160 . S
O353 Cd354 2.203 . S
Cd354 O353 2.203 . S
Cd354 O356 2.411 . S
Cd354 O357 2.333 . S
Cd354 O358 2.352 . S
Cd354 O362 2.277 . S
Cd354 O363 2.356 . S
C355 O360 1.209 . S
C355 O362 1.226 . S
O356 Cd352 2.273 . S
O356 Cd354 2.411 . S
O356 C359 1.320 . S
O357 Cd354 2.333 . S
O357 C359 1.214 . S
O358 Cd354 2.352 . S
O358 C361 1.258 . S
C359 O356 1.320 . S
C359 O357 1.214 . S
O360 Cd352 2.277 . S
O360 C355 1.209 . S
C361 O358 1.258 . S
C361 O363 1.282 . S
O362 Cd354 2.277 . S
O362 C355 1.226 . S
O363 Cd354 2.356 . S
O363 C361 1.282 . S
C364 O365 1.306 . S
C364 O367 1.160 . S
O365 C364 1.306 . S
O365 Cd366 2.228 . S
Cd366 O365 2.228 . S
Cd366 O370 2.273 . S
Cd366 O374 2.277 . S
O367 C364 1.160 . S
O367 Cd368 2.203 . S
Cd368 O367 2.203 . S
Cd368 O370 2.411 . S
Cd368 O371 2.333 . S
Cd368 O372 2.352 . S
Cd368 O376 2.277 . S
Cd368 O377 2.356 . S
C369 O374 1.209 . S
C369 O376 1.226 . S
O370 Cd366 2.273 . S
O370 Cd368 2.411 . S
O370 C373 1.320 . S
O371 Cd368 2.333 . S
O371 C373 1.214 . S
O372 Cd368 2.352 . S
O372 C375 1.258 . S
C373 O370 1.320 . S
C373 O371 1.214 . S
O374 Cd366 2.277 . S
O374 C369 1.209 . S
C375 O372 1.258 . S
C375 O377 1.282 . S
O376 Cd368 2.277 . S
O376 C369 1.226 . S
O377 Cd368 2.356 . S
O377 C375 1.282 . S
C378 O379 1.306 . S
C378 O381 1.160 . S
O379 C378 1.306 . S
O379 Cd380 2.228 . S
Cd380 O379 2.228 . S
Cd380 O384 2.273 . S
Cd380 O388 2.277 . S
O381 C378 1.160 . S
O381 Cd382 2.203 . S
Cd382 O381 2.203 . S
Cd382 O384 2.411 . S
Cd382 O385 2.333 . S
Cd382 O386 2.352 . S
Cd382 O390 2.277 . S
Cd382 O391 2.356 . S
C383 O388 1.209 . S
C383 O390 1.226 . S
O384 Cd380 2.273 . S
O384 Cd382 2.411 . S
O384 C387 1.320 . S
O385 Cd382 2.333 . S
O385 C387 1.214 . S
O386 Cd382 2.352 . S
O386 C389 1.258 . S
C387 O384 1.320 . S
C387 O385 1.214 . S
O388 Cd380 2.277 . S
O388 C383 1.209 . S
C389 O386 1.258 . S
C389 O391 1.282 . S
O390 Cd382 2.277 . S
O390 C383 1.226 . S
O391 Cd382 2.356 . S
O391 C389 1.282 . S
C392 O393 1.306 . S
C392 O395 1.160 . S
O393 C392 1.306 . S
O393 Cd394 2.228 . S
Cd394 O393 2.228 . S
Cd394 O398 2.273 . S
Cd394 O402 2.277 . S
O395 C392 1.160 . S
O395 Cd396 2.203 . S
Cd396 O395 2.203 . S
Cd396 O398 2.411 . S
Cd396 O399 2.333 . S
Cd396 O400 2.352 . S
Cd396 O404 2.277 . S
Cd396 O405 2.356 . S
C397 O402 1.209 . S
C397 O404 1.226 . S
O398 Cd394 2.273 . S
O398 Cd396 2.411 . S
O398 C401 1.320 . S
O399 Cd396 2.333 . S
O399 C401 1.214 . S
O400 Cd396 2.352 . S
O400 C403 1.258 . S
C401 O398 1.320 . S
C401 O399 1.214 . S
O402 Cd394 2.277 . S
O402 C397 1.209 . S
C403 O400 1.258 . S
C403 O405 1.282 . S
O404 Cd396 2.277 . S
O404 C397 1.226 . S
O405 Cd396 2.356 . S
O405 C403 1.282 . S
C406 O407 1.306 . S
C406 O409 1.160 . S
O407 C406 1.306 . S
O407 Cd408 2.228 . S
Cd408 O407 2.228 . S
Cd408 O412 2.273 . S
Cd408 O416 2.277 . S
O409 C406 1.160 . S
O409 Cd410 2.203 . S
Cd410 O409 2.203 . S
Cd410 O412 2.411 . S
Cd410 O413 2.333 . S
Cd410 O414 2.352 . S
Cd410 O418 2.277 . S
Cd410 O419 2.356 . S
C411 O416 1.209 . S
C411 O418 1.226 . S
O412 Cd408 2.273 . S
O412 Cd410 2.411 . S
O412 C415 1.320 . S
O413 Cd410 2.333 . S
O413 C415 1.214 . S
O414 Cd410 2.352 . S
O414 C417 1.258 . S
C415 O412 1.320 . S
C415 O413 1.214 . S
O416 Cd408 2.277 . S
O416 C411 1.209 . S
C417 O414 1.258 . S
C417 O419 1.282 . S
O418 Cd410 2.277 . S
O418 C411 1.226 . S
O419 Cd410 2.356 . S
O419 C417 1.282 . S
C420 O421 1.306 . S
C420 O423 1.160 . S
O421 C420 1.306 . S
O421 Cd422 2.228 . S
Cd422 O421 2.228 . S
Cd422 O426 2.273 . S
Cd422 O430 2.277 . S
O423 C420 1.160 . S
O423 Cd424 2.203 . S
Cd424 O423 2.203 . S
Cd424 O426 2.411 . S
Cd424 O427 2.333 . S
Cd424 O428 2.352 . S
Cd424 O432 2.277 . S
Cd424 O433 2.356 . S
C425 O430 1.209 . S
C425 O432 1.226 . S
O426 Cd422 2.273 . S
O426 Cd424 2.411 . S
O426 C429 1.320 . S
O427 Cd424 2.333 . S
O427 C429 1.214 . S
O428 Cd424 2.352 . S
O428 C431 1.258 . S
C429 O426 1.320 . S
C429 O427 1.214 . S
O430 Cd422 2.277 . S
O430 C425 1.209 . S
C431 O428 1.258 . S
C431 O433 1.282 . S
O432 Cd424 2.277 . S
O432 C425 1.226 . S
O433 Cd424 2.356 . S
O433 C431 1.282 . S
C434 O435 1.306 . S
C434 O437 1.160 . S
O435 C434 1.306 . S
O435 Cd436 2.228 . S
Cd436 O435 2.228 . S
Cd436 O440 2.273 . S
Cd436 O444 2.277 . S
O437 C434 1.160 . S
O437 Cd438 2.203 . S
Cd438 O437 2.203 . S
Cd438 O440 2.411 . S
Cd438 O441 2.333 . S
Cd438 O442 2.352 . S
Cd438 O446 2.277 . S
Cd438 O447 2.356 . S
C439 O444 1.209 . S
C439 O446 1.226 . S
O440 Cd436 2.273 . S
O440 Cd438 2.411 . S
O440 C443 1.320 . S
O441 Cd438 2.333 . S
O441 C443 1.214 . S
O442 Cd438 2.352 . S
O442 C445 1.258 . S
C443 O440 1.320 . S
C443 O441 1.214 . S
O444 Cd436 2.277 . S
O444 C439 1.209 . S
C445 O442 1.258 . S
C445 O447 1.282 . S
O446 Cd438 2.277 . S
O446 C439 1.226 . S
O447 Cd438 2.356 . S
O447 C445 1.282 . S
H448 C454 0.930 . S
H449 C458 0.930 . S
H450 C463 0.929 . S
H451 C461 0.929 . S
H452 C456 0.929 . S
H453 C462 0.929 . S
C454 H448 0.930 . S
C454 C455 1.367 . S
C454 C462 1.378 . S
C455 C454 1.367 . S
C455 C463 1.433 . S
C456 H452 0.929 . S
C456 C458 1.378 . S
C456 C460 1.350 . S
C457 C460 1.463 . S
C457 C462 1.350 . S
C457 N465 1.427 . S
C458 H449 0.930 . S
C458 C456 1.378 . S
C458 C459 1.367 . S
C459 C458 1.367 . S
C459 C461 1.433 . S
C460 C456 1.350 . S
C460 C457 1.463 . S
C460 N464 1.427 . S
C461 H451 0.929 . S
C461 C459 1.433 . S
C461 N464 1.384 . S
C462 H453 0.929 . S
C462 C454 1.378 . S
C462 C457 1.350 . S
C463 H450 0.929 . S
C463 C455 1.433 . S
C463 N465 1.384 . S
N464 C460 1.427 . S
N464 C461 1.384 . S
N465 C457 1.427 . S
N465 C463 1.384 . S
H466 C472 0.930 . S
H467 C476 0.930 . S
H468 C481 0.929 . S
H469 C479 0.929 . S
H470 C474 0.929 . S
H471 C480 0.929 . S
C472 H466 0.930 . S
C472 C473 1.367 . S
C472 C480 1.378 . S
C473 C472 1.367 . S
C473 C481 1.433 . S
C474 H470 0.929 . S
C474 C476 1.378 . S
C474 C478 1.350 . S
C475 C478 1.463 . S
C475 C480 1.350 . S
C475 N483 1.427 . S
C476 H467 0.930 . S
C476 C474 1.378 . S
C476 C477 1.367 . S
C477 C476 1.367 . S
C477 C479 1.433 . S
C478 C474 1.350 . S
C478 C475 1.463 . S
C478 N482 1.427 . S
C479 H469 0.929 . S
C479 C477 1.433 . S
C479 N482 1.384 . S
C480 H471 0.929 . S
C480 C472 1.378 . S
C480 C475 1.350 . S
C481 H468 0.929 . S
C481 C473 1.433 . S
C481 N483 1.384 . S
N482 C478 1.427 . S
N482 C479 1.384 . S
N483 C475 1.427 . S
N483 C481 1.384 . S
H484 C490 0.930 . S
H485 C494 0.930 . S
H486 C499 0.929 . S
H487 C497 0.929 . S
H488 C492 0.929 . S
H489 C498 0.929 . S
C490 H484 0.930 . S
C490 C491 1.367 . S
C490 C498 1.378 . S
C491 C490 1.367 . S
C491 C499 1.433 . S
C492 H488 0.929 . S
C492 C494 1.378 . S
C492 C496 1.350 . S
C493 C496 1.463 . S
C493 C498 1.350 . S
C493 N501 1.427 . S
C494 H485 0.930 . S
C494 C492 1.378 . S
C494 C495 1.367 . S
C495 C494 1.367 . S
C495 C497 1.433 . S
C496 C492 1.350 . S
C496 C493 1.463 . S
C496 N500 1.427 . S
C497 H487 0.929 . S
C497 C495 1.433 . S
C497 N500 1.384 . S
C498 H489 0.929 . S
C498 C490 1.378 . S
C498 C493 1.350 . S
C499 H486 0.929 . S
C499 C491 1.433 . S
C499 N501 1.384 . S
N500 C496 1.427 . S
N500 C497 1.384 . S
N501 C493 1.427 . S
N501 C499 1.384 . S
H502 C508 0.930 . S
H503 C512 0.930 . S
H504 C517 0.929 . S
H505 C515 0.929 . S
H506 C510 0.929 . S
H507 C516 0.929 . S
C508 H502 0.930 . S
C508 C509 1.367 . S
C508 C516 1.378 . S
C509 C508 1.367 . S
C509 C517 1.433 . S
C510 H506 0.929 . S
C510 C512 1.378 . S
C510 C514 1.350 . S
C511 C514 1.463 . S
C511 C516 1.350 . S
C511 N519 1.427 . S
C512 H503 0.930 . S
C512 C510 1.378 . S
C512 C513 1.367 . S
C513 C512 1.367 . S
C513 C515 1.433 . S
C514 C510 1.350 . S
C514 C511 1.463 . S
C514 N518 1.427 . S
C515 H505 0.929 . S
C515 C513 1.433 . S
C515 N518 1.384 . S
C516 H507 0.929 . S
C516 C508 1.378 . S
C516 C511 1.350 . S
C517 H504 0.929 . S
C517 C509 1.433 . S
C517 N519 1.384 . S
N518 C514 1.427 . S
N518 C515 1.384 . S
N519 C511 1.427 . S
N519 C517 1.384 . S
H520 C526 0.930 . S
H521 C530 0.930 . S
H522 C535 0.929 . S
H523 C533 0.929 . S
H524 C528 0.929 . S
H525 C534 0.929 . S
C526 H520 0.930 . S
C526 C527 1.367 . S
C526 C534 1.378 . S
C527 C526 1.367 . S
C527 C535 1.433 . S
C528 H524 0.929 . S
C528 C530 1.378 . S
C528 C532 1.350 . S
C529 C532 1.463 . S
C529 C534 1.350 . S
C529 N537 1.427 . S
C530 H521 0.930 . S
C530 C528 1.378 . S
C530 C531 1.367 . S
C531 C530 1.367 . S
C531 C533 1.433 . S
C532 C528 1.350 . S
C532 C529 1.463 . S
C532 N536 1.427 . S
C533 H523 0.929 . S
C533 C531 1.433 . S
C533 N536 1.384 . S
C534 H525 0.929 . S
C534 C526 1.378 . S
C534 C529 1.350 . S
C535 H522 0.929 . S
C535 C527 1.433 . S
C535 N537 1.384 . S
N536 C532 1.427 . S
N536 C533 1.384 . S
N537 C529 1.427 . S
N537 C535 1.384 . S
H538 C544 0.930 . S
H539 C548 0.930 . S
H540 C553 0.929 . S
H541 C551 0.929 . S
H542 C546 0.929 . S
H543 C552 0.929 . S
C544 H538 0.930 . S
C544 C545 1.367 . S
C544 C552 1.378 . S
C545 C544 1.367 . S
C545 C553 1.433 . S
C546 H542 0.929 . S
C546 C548 1.378 . S
C546 C550 1.350 . S
C547 C550 1.463 . S
C547 C552 1.350 . S
C547 N555 1.427 . S
C548 H539 0.930 . S
C548 C546 1.378 . S
C548 C549 1.367 . S
C549 C548 1.367 . S
C549 C551 1.433 . S
C550 C546 1.350 . S
C550 C547 1.463 . S
C550 N554 1.427 . S
C551 H541 0.929 . S
C551 C549 1.433 . S
C551 N554 1.384 . S
C552 H543 0.929 . S
C552 C544 1.378 . S
C552 C547 1.350 . S
C553 H540 0.929 . S
C553 C545 1.433 . S
C553 N555 1.384 . S
N554 C550 1.427 . S
N554 C551 1.384 . S
N555 C547 1.427 . S
N555 C553 1.384 . S
H556 C562 0.930 . S
H557 C566 0.930 . S
H558 C571 0.929 . S
H559 C569 0.929 . S
H560 C564 0.929 . S
H561 C570 0.929 . S
C562 H556 0.930 . S
C562 C563 1.367 . S
C562 C570 1.378 . S
C563 C562 1.367 . S
C563 C571 1.433 . S
C564 H560 0.929 . S
C564 C566 1.378 . S
C564 C568 1.350 . S
C565 C568 1.463 . S
C565 C570 1.350 . S
C565 N573 1.427 . S
C566 H557 0.930 . S
C566 C564 1.378 . S
C566 C567 1.367 . S
C567 C566 1.367 . S
C567 C569 1.433 . S
C568 C564 1.350 . S
C568 C565 1.463 . S
C568 N572 1.427 . S
C569 H559 0.929 . S
C569 C567 1.433 . S
C569 N572 1.384 . S
C570 H561 0.929 . S
C570 C562 1.378 . S
C570 C565 1.350 . S
C571 H558 0.929 . S
C571 C563 1.433 . S
C571 N573 1.384 . S
N572 C568 1.427 . S
N572 C569 1.384 . S
N573 C565 1.427 . S
N573 C571 1.384 . S
H574 C580 0.930 . S
H575 C584 0.930 . S
H576 C589 0.929 . S
H577 C587 0.929 . S
H578 C582 0.929 . S
H579 C588 0.929 . S
C580 H574 0.930 . S
C580 C581 1.367 . S
C580 C588 1.378 . S
C581 C580 1.367 . S
C581 C589 1.433 . S
C582 H578 0.929 . S
C582 C584 1.378 . S
C582 C586 1.350 . S
C583 C586 1.463 . S
C583 C588 1.350 . S
C583 N591 1.427 . S
C584 H575 0.930 . S
C584 C582 1.378 . S
C584 C585 1.367 . S
C585 C584 1.367 . S
C585 C587 1.433 . S
C586 C582 1.350 . S
C586 C583 1.463 . S
C586 N590 1.427 . S
C587 H577 0.929 . S
C587 C585 1.433 . S
C587 N590 1.384 . S
C588 H579 0.929 . S
C588 C580 1.378 . S
C588 C583 1.350 . S
C589 H576 0.929 . S
C589 C581 1.433 . S
C589 N591 1.384 . S
N590 C586 1.427 . S
N590 C587 1.384 . S
N591 C583 1.427 . S
N591 C589 1.384 . S
H592 C598 0.930 . S
H593 C602 0.930 . S
H594 C607 0.929 . S
H595 C605 0.929 . S
H596 C600 0.929 . S
H597 C606 0.929 . S
C598 H592 0.930 . S
C598 C599 1.367 . S
C598 C606 1.378 . S
C599 C598 1.367 . S
C599 C607 1.433 . S
C600 H596 0.929 . S
C600 C602 1.378 . S
C600 C604 1.350 . S
C601 C604 1.463 . S
C601 C606 1.350 . S
C601 N609 1.427 . S
C602 H593 0.930 . S
C602 C600 1.378 . S
C602 C603 1.367 . S
C603 C602 1.367 . S
C603 C605 1.433 . S
C604 C600 1.350 . S
C604 C601 1.463 . S
C604 N608 1.427 . S
C605 H595 0.929 . S
C605 C603 1.433 . S
C605 N608 1.384 . S
C606 H597 0.929 . S
C606 C598 1.378 . S
C606 C601 1.350 . S
C607 H594 0.929 . S
C607 C599 1.433 . S
C607 N609 1.384 . S
N608 C604 1.427 . S
N608 C605 1.384 . S
N609 C601 1.427 . S
N609 C607 1.384 . S
H610 C616 0.930 . S
H611 C620 0.930 . S
H612 C625 0.929 . S
H613 C623 0.929 . S
H614 C618 0.929 . S
H615 C624 0.929 . S
C616 H610 0.930 . S
C616 C617 1.367 . S
C616 C624 1.378 . S
C617 C616 1.367 . S
C617 C625 1.433 . S
C618 H614 0.929 . S
C618 C620 1.378 . S
C618 C622 1.350 . S
C619 C622 1.463 . S
C619 C624 1.350 . S
C619 N627 1.427 . S
C620 H611 0.930 . S
C620 C618 1.378 . S
C620 C621 1.367 . S
C621 C620 1.367 . S
C621 C623 1.433 . S
C622 C618 1.350 . S
C622 C619 1.463 . S
C622 N626 1.427 . S
C623 H613 0.929 . S
C623 C621 1.433 . S
C623 N626 1.384 . S
C624 H615 0.929 . S
C624 C616 1.378 . S
C624 C619 1.350 . S
C625 H612 0.929 . S
C625 C617 1.433 . S
C625 N627 1.384 . S
N626 C622 1.427 . S
N626 C623 1.384 . S
N627 C619 1.427 . S
N627 C625 1.384 . S
H628 C634 0.930 . S
H629 C638 0.930 . S
H630 C643 0.929 . S
H631 C641 0.929 . S
H632 C636 0.929 . S
H633 C642 0.929 . S
C634 H628 0.930 . S
C634 C635 1.367 . S
C634 C642 1.378 . S
C635 C634 1.367 . S
C635 C643 1.433 . S
C636 H632 0.929 . S
C636 C638 1.378 . S
C636 C640 1.350 . S
C637 C640 1.463 . S
C637 C642 1.350 . S
C637 N645 1.427 . S
C638 H629 0.930 . S
C638 C636 1.378 . S
C638 C639 1.367 . S
C639 C638 1.367 . S
C639 C641 1.433 . S
C640 C636 1.350 . S
C640 C637 1.463 . S
C640 N644 1.427 . S
C641 H631 0.929 . S
C641 C639 1.433 . S
C641 N644 1.384 . S
C642 H633 0.929 . S
C642 C634 1.378 . S
C642 C637 1.350 . S
C643 H630 0.929 . S
C643 C635 1.433 . S
C643 N645 1.384 . S
N644 C640 1.427 . S
N644 C641 1.384 . S
N645 C637 1.427 . S
N645 C643 1.384 . S
H646 C652 0.930 . S
H647 C656 0.930 . S
H648 C661 0.929 . S
H649 C659 0.929 . S
H650 C654 0.929 . S
H651 C660 0.929 . S
C652 H646 0.930 . S
C652 C653 1.367 . S
C652 C660 1.378 . S
C653 C652 1.367 . S
C653 C661 1.433 . S
C654 H650 0.929 . S
C654 C656 1.378 . S
C654 C658 1.350 . S
C655 C658 1.463 . S
C655 C660 1.350 . S
C655 N663 1.427 . S
C656 H647 0.930 . S
C656 C654 1.378 . S
C656 C657 1.367 . S
C657 C656 1.367 . S
C657 C659 1.433 . S
C658 C654 1.350 . S
C658 C655 1.463 . S
C658 N662 1.427 . S
C659 H649 0.929 . S
C659 C657 1.433 . S
C659 N662 1.384 . S
C660 H651 0.929 . S
C660 C652 1.378 . S
C660 C655 1.350 . S
C661 H648 0.929 . S
C661 C653 1.433 . S
C661 N663 1.384 . S
N662 C658 1.427 . S
N662 C659 1.384 . S
N663 C655 1.427 . S
N663 C661 1.384 . S
H664 C670 0.930 . S
H665 C674 0.930 . S
H666 C679 0.929 . S
H667 C677 0.929 . S
H668 C672 0.929 . S
H669 C678 0.929 . S
C670 H664 0.930 . S
C670 C671 1.367 . S
C670 C678 1.378 . S
C671 C670 1.367 . S
C671 C679 1.433 . S
C672 H668 0.929 . S
C672 C674 1.378 . S
C672 C676 1.350 . S
C673 C676 1.463 . S
C673 C678 1.350 . S
C673 N681 1.427 . S
C674 H665 0.930 . S
C674 C672 1.378 . S
C674 C675 1.367 . S
C675 C674 1.367 . S
C675 C677 1.433 . S
C676 C672 1.350 . S
C676 C673 1.463 . S
C676 N680 1.427 . S
C677 H667 0.929 . S
C677 C675 1.433 . S
C677 N680 1.384 . S
C678 H669 0.929 . S
C678 C670 1.378 . S
C678 C673 1.350 . S
C679 H666 0.929 . S
C679 C671 1.433 . S
C679 N681 1.384 . S
N680 C676 1.427 . S
N680 C677 1.384 . S
N681 C673 1.427 . S
N681 C679 1.384 . S
H682 C688 0.930 . S
H683 C692 0.930 . S
H684 C697 0.929 . S
H685 C695 0.929 . S
H686 C690 0.929 . S
H687 C696 0.929 . S
C688 H682 0.930 . S
C688 C689 1.367 . S
C688 C696 1.378 . S
C689 C688 1.367 . S
C689 C697 1.433 . S
C690 H686 0.929 . S
C690 C692 1.378 . S
C690 C694 1.350 . S
C691 C694 1.463 . S
C691 C696 1.350 . S
C691 N699 1.427 . S
C692 H683 0.930 . S
C692 C690 1.378 . S
C692 C693 1.367 . S
C693 C692 1.367 . S
C693 C695 1.433 . S
C694 C690 1.350 . S
C694 C691 1.463 . S
C694 N698 1.427 . S
C695 H685 0.929 . S
C695 C693 1.433 . S
C695 N698 1.384 . S
C696 H687 0.929 . S
C696 C688 1.378 . S
C696 C691 1.350 . S
C697 H684 0.929 . S
C697 C689 1.433 . S
C697 N699 1.384 . S
N698 C694 1.427 . S
N698 C695 1.384 . S
N699 C691 1.427 . S
N699 C697 1.384 . S
H700 C706 0.930 . S
H701 C710 0.930 . S
H702 C715 0.929 . S
H703 C713 0.929 . S
H704 C708 0.929 . S
H705 C714 0.929 . S
C706 H700 0.930 . S
C706 C707 1.367 . S
C706 C714 1.378 . S
C707 C706 1.367 . S
C707 C715 1.433 . S
C708 H704 0.929 . S
C708 C710 1.378 . S
C708 C712 1.350 . S
C709 C712 1.463 . S
C709 C714 1.350 . S
C709 N717 1.427 . S
C710 H701 0.930 . S
C710 C708 1.378 . S
C710 C711 1.367 . S
C711 C710 1.367 . S
C711 C713 1.433 . S
C712 C708 1.350 . S
C712 C709 1.463 . S
C712 N716 1.427 . S
C713 H703 0.929 . S
C713 C711 1.433 . S
C713 N716 1.384 . S
C714 H705 0.929 . S
C714 C706 1.378 . S
C714 C709 1.350 . S
C715 H702 0.929 . S
C715 C707 1.433 . S
C715 N717 1.384 . S
N716 C712 1.427 . S
N716 C713 1.384 . S
N717 C709 1.427 . S
N717 C715 1.384 . S
H718 C724 0.930 . S
H719 C728 0.930 . S
H720 C733 0.929 . S
H721 C731 0.929 . S
H722 C726 0.929 . S
H723 C732 0.929 . S
C724 H718 0.930 . S
C724 C725 1.367 . S
C724 C732 1.378 . S
C725 C724 1.367 . S
C725 C733 1.433 . S
C726 H722 0.929 . S
C726 C728 1.378 . S
C726 C730 1.350 . S
C727 C730 1.463 . S
C727 C732 1.350 . S
C727 N735 1.427 . S
C728 H719 0.930 . S
C728 C726 1.378 . S
C728 C729 1.367 . S
C729 C728 1.367 . S
C729 C731 1.433 . S
C730 C726 1.350 . S
C730 C727 1.463 . S
C730 N734 1.427 . S
C731 H721 0.929 . S
C731 C729 1.433 . S
C731 N734 1.384 . S
C732 H723 0.929 . S
C732 C724 1.378 . S
C732 C727 1.350 . S
C733 H720 0.929 . S
C733 C725 1.433 . S
C733 N735 1.384 . S
N734 C730 1.427 . S
N734 C731 1.384 . S
N735 C727 1.427 . S
N735 C733 1.384 . S
H736 C742 0.930 . S
H737 C746 0.930 . S
H738 C751 0.929 . S
H739 C749 0.929 . S
H740 C744 0.929 . S
H741 C750 0.929 . S
C742 H736 0.930 . S
C742 C743 1.367 . S
C742 C750 1.378 . S
C743 C742 1.367 . S
C743 C751 1.433 . S
C744 H740 0.929 . S
C744 C746 1.378 . S
C744 C748 1.350 . S
C745 C748 1.463 1_455 S
C745 C750 1.350 . S
C745 N753 1.427 . S
C746 H737 0.930 . S
C746 C744 1.378 . S
C746 C747 1.367 . S
C747 C746 1.367 . S
C747 C749 1.433 . S
C748 C744 1.350 . S
C748 C745 1.463 1_655 S
C748 N752 1.427 . S
C749 H739 0.929 . S
C749 C747 1.433 . S
C749 N752 1.384 . S
C750 H741 0.929 . S
C750 C742 1.378 . S
C750 C745 1.350 . S
C751 H738 0.929 . S
C751 C743 1.433 . S
C751 N753 1.384 . S
N752 C748 1.427 . S
N752 C749 1.384 . S
N753 C745 1.427 . S
N753 C751 1.384 . S
H754 C760 0.930 . S
H755 C764 0.930 . S
H756 C769 0.929 . S
H757 C767 0.929 . S
H758 C762 0.929 . S
H759 C768 0.929 . S
C760 H754 0.930 . S
C760 C761 1.367 . S
C760 C768 1.378 . S
C761 C760 1.367 . S
C761 C769 1.433 . S
C762 H758 0.929 . S
C762 C764 1.378 . S
C762 C766 1.350 . S
C763 C766 1.463 1_545 S
C763 C768 1.350 . S
C763 N771 1.427 1_545 S
C764 H755 0.930 . S
C764 C762 1.378 . S
C764 C765 1.367 . S
C765 C764 1.367 . S
C765 C767 1.433 . S
C766 C762 1.350 . S
C766 C763 1.463 1_565 S
C766 N770 1.427 1_565 S
C767 H757 0.929 . S
C767 C765 1.433 . S
C767 N770 1.384 1_565 S
C768 H759 0.929 . S
C768 C760 1.378 . S
C768 C763 1.350 . S
C769 H756 0.929 . S
C769 C761 1.433 . S
C769 N771 1.384 1_545 S
N770 C766 1.427 1_545 S
N770 C767 1.384 1_545 S
N771 C763 1.427 1_565 S
N771 C769 1.384 1_565 S
H772 C778 0.930 . S
H773 C782 0.930 . S
H774 C787 0.928 1_565 S
H775 C785 0.928 1_545 S
H776 C780 0.888 1_456 S
H777 C786 0.888 1_654 S
C778 H772 0.930 . S
C778 C779 1.367 . S
C778 C786 1.378 . S
C779 C778 1.367 . S
C779 C787 1.433 . S
C780 H776 0.888 1_654 S
C780 C782 1.378 . S
C780 C784 1.350 . S
C781 C784 1.463 1_446 S
C781 C786 1.350 . S
C781 N789 1.427 1_545 S
C782 H773 0.930 . S
C782 C780 1.378 . S
C782 C783 1.367 . S
C783 C782 1.367 . S
C783 C785 1.433 . S
C784 C780 1.350 . S
C784 C781 1.463 1_664 S
C784 N788 1.427 1_565 S
C785 H775 0.928 1_565 S
C785 C783 1.433 . S
C785 N788 1.384 1_565 S
C786 H777 0.888 1_456 S
C786 C778 1.378 . S
C786 C781 1.350 . S
C787 H774 0.928 1_545 S
C787 C779 1.433 . S
C787 N789 1.384 1_545 S
N788 C784 1.427 1_545 S
N788 C785 1.384 1_545 S
N789 C781 1.427 1_565 S
N789 C787 1.384 1_565 S
H790 C796 0.930 . S
H791 C800 0.930 . S
H792 C805 0.929 . S
H793 C803 0.929 . S
H794 C798 0.929 . S
H795 C804 0.929 . S
C796 H790 0.930 . S
C796 C797 1.367 . S
C796 C804 1.378 1_556 S
C797 C796 1.367 . S
C797 C805 1.433 . S
C798 H794 0.929 . S
C798 C800 1.378 1_556 S
C798 C802 1.350 1_556 S
C799 C802 1.463 1_556 S
C799 C804 1.350 1_556 S
C799 N807 1.427 . S
C800 H791 0.930 . S
C800 C798 1.378 1_554 S
C800 C801 1.367 . S
C801 C800 1.367 . S
C801 C803 1.433 . S
C802 C798 1.350 1_554 S
C802 C799 1.463 1_554 S
C802 N806 1.427 . S
C803 H793 0.929 . S
C803 C801 1.433 . S
C803 N806 1.384 . S
C804 H795 0.929 . S
C804 C796 1.378 1_554 S
C804 C799 1.350 1_554 S
C805 H792 0.929 . S
C805 C797 1.433 . S
C805 N807 1.384 . S
N806 C802 1.427 . S
N806 C803 1.384 . S
N807 C799 1.427 . S
N807 C805 1.384 . S
H808 C814 0.930 . S
H809 C818 0.930 . S
H810 C823 0.929 . S
H811 C821 0.929 . S
H812 C816 0.929 . S
H813 C822 0.929 . S
C814 H808 0.930 . S
C814 C815 1.367 . S
C814 C822 1.378 . S
C815 C814 1.367 . S
C815 C823 1.433 . S
C816 H812 0.929 . S
C816 C818 1.378 . S
C816 C820 1.350 . S
C817 C820 1.463 1_655 S
C817 C822 1.350 . S
C817 N825 1.427 . S
C818 H809 0.930 . S
C818 C816 1.378 . S
C818 C819 1.367 . S
C819 C818 1.367 . S
C819 C821 1.433 . S
C820 C816 1.350 . S
C820 C817 1.463 1_455 S
C820 N824 1.427 . S
C821 H811 0.929 . S
C821 C819 1.433 . S
C821 N824 1.384 . S
C822 H813 0.929 . S
C822 C814 1.378 . S
C822 C817 1.350 . S
C823 H810 0.929 . S
C823 C815 1.433 . S
C823 N825 1.384 . S
N824 C820 1.427 . S
N824 C821 1.384 . S
N825 C817 1.427 . S
N825 C823 1.384 . S
H826 C832 0.930 . S
H827 C836 0.930 . S
H828 C841 0.929 . S
H829 C839 0.929 . S
H830 C834 0.929 . S
H831 C840 0.929 . S
C832 H826 0.930 . S
C832 C833 1.367 . S
C832 C840 1.378 . S
C833 C832 1.367 . S
C833 C841 1.433 . S
C834 H830 0.929 . S
C834 C836 1.378 . S
C834 C838 1.350 . S
C835 C838 1.463 1_545 S
C835 C840 1.350 . S
C835 N843 1.427 1_545 S
C836 H827 0.930 . S
C836 C834 1.378 . S
C836 C837 1.367 . S
C837 C836 1.367 . S
C837 C839 1.433 . S
C838 C834 1.350 . S
C838 C835 1.463 1_565 S
C838 N842 1.427 1_565 S
C839 H829 0.929 . S
C839 C837 1.433 . S
C839 N842 1.384 1_565 S
C840 H831 0.929 . S
C840 C832 1.378 . S
C840 C835 1.350 . S
C841 H828 0.929 . S
C841 C833 1.433 . S
C841 N843 1.384 1_545 S
N842 C838 1.427 1_545 S
N842 C839 1.384 1_545 S
N843 C835 1.427 1_565 S
N843 C841 1.384 1_565 S
H844 C850 0.930 . S
H845 C854 0.930 . S
H846 C859 0.929 . S
H847 C857 0.929 . S
H848 C852 0.961 . S
H849 C858 0.961 . S
C850 H844 0.930 . S
C850 C851 1.367 . S
C850 C858 1.358 1_556 S
C851 C850 1.367 . S
C851 C859 1.433 . S
C852 H848 0.961 . S
C852 C854 1.358 1_556 S
C852 C856 1.339 1_556 S
C853 C856 1.463 1_556 S
C853 C858 1.339 1_556 S
C853 N861 1.427 . S
C854 H845 0.930 . S
C854 C852 1.358 1_554 S
C854 C855 1.367 . S
C855 C854 1.367 . S
C855 C857 1.433 . S
C856 C852 1.339 1_554 S
C856 C853 1.463 1_554 S
C856 N860 1.427 . S
C857 H847 0.929 . S
C857 C855 1.433 . S
C857 N860 1.384 . S
C858 H849 0.961 . S
C858 C850 1.358 1_554 S
C858 C853 1.339 1_554 S
C859 H846 0.929 . S
C859 C851 1.433 . S
C859 N861 1.384 . S
N860 C856 1.427 . S
N860 C857 1.384 . S
N861 C853 1.427 . S
N861 C859 1.384 . S
H862 C868 0.930 . S
H863 C872 0.930 . S
H864 C877 0.929 . S
H865 C875 0.929 . S
H866 C870 0.929 . S
H867 C876 0.929 . S
C868 H862 0.930 . S
C868 C869 1.367 . S
C868 C876 1.378 . S
C869 C868 1.367 . S
C869 C877 1.433 . S
C870 H866 0.929 . S
C870 C872 1.378 . S
C870 C874 1.350 . S
C871 C874 1.463 . S
C871 C876 1.350 . S
C871 N879 1.427 . S
C872 H863 0.930 . S
C872 C870 1.378 . S
C872 C873 1.367 . S
C873 C872 1.367 . S
C873 C875 1.433 . S
C874 C870 1.350 . S
C874 C871 1.463 . S
C874 N878 1.427 . S
C875 H865 0.929 . S
C875 C873 1.433 . S
C875 N878 1.384 . S
C876 H867 0.929 . S
C876 C868 1.378 . S
C876 C871 1.350 . S
C877 H864 0.929 . S
C877 C869 1.433 . S
C877 N879 1.384 . S
N878 C874 1.427 . S
N878 C875 1.384 . S
N879 C871 1.427 . S
N879 C877 1.384 . S
H880 C886 0.930 . S
H881 C890 0.930 . S
H882 C895 0.929 . S
H883 C893 0.929 . S
H884 C888 0.973 . S
H885 C894 0.973 . S
C886 H880 0.930 . S
C886 C887 1.367 . S
C886 C894 1.378 . S
C887 C886 1.367 . S
C887 C895 1.433 . S
C888 H884 0.973 . S
C888 C890 1.378 . S
C888 C892 1.350 . S
C889 C892 1.463 1_455 S
C889 C894 1.350 . S
C889 N897 1.427 . S
C890 H881 0.930 . S
C890 C888 1.378 . S
C890 C891 1.367 . S
C891 C890 1.367 . S
C891 C893 1.433 . S
C892 C888 1.350 . S
C892 C889 1.463 1_655 S
C892 N896 1.427 . S
C893 H883 0.929 . S
C893 C891 1.433 . S
C893 N896 1.384 . S
C894 H885 0.973 . S
C894 C886 1.378 . S
C894 C889 1.350 . S
C895 H882 0.929 . S
C895 C887 1.433 . S
C895 N897 1.384 . S
N896 C892 1.427 . S
N896 C893 1.384 . S
N897 C889 1.427 . S
N897 C895 1.384 . S
H898 C904 0.930 . S
H899 C908 0.930 . S
H900 C913 0.929 . S
H901 C911 0.929 . S
H902 C906 0.929 . S
H903 C912 0.929 . S
C904 H898 0.930 . S
C904 C905 1.367 . S
C904 C912 1.378 . S
C905 C904 1.367 . S
C905 C913 1.433 . S
C906 H902 0.929 . S
C906 C908 1.378 . S
C906 C910 1.350 . S
C907 C910 1.463 . S
C907 C912 1.350 . S
C907 N915 1.427 . S
C908 H899 0.930 . S
C908 C906 1.378 . S
C908 C909 1.367 . S
C909 C908 1.367 . S
C909 C911 1.433 . S
C910 C906 1.350 . S
C910 C907 1.463 . S
C910 N914 1.427 . S
C911 H901 0.929 . S
C911 C909 1.433 . S
C911 N914 1.384 . S
C912 H903 0.929 . S
C912 C904 1.378 . S
C912 C907 1.350 . S
C913 H900 0.929 . S
C913 C905 1.433 . S
C913 N915 1.384 . S
N914 C910 1.427 . S
N914 C911 1.384 . S
N915 C907 1.427 . S
N915 C913 1.384 . S
H916 C922 0.930 . S
H917 C926 0.930 . S
H918 C931 0.929 . S
H919 C929 0.929 . S
H920 C924 0.929 . S
H921 C930 0.929 . S
C922 H916 0.930 . S
C922 C923 1.367 . S
C922 C930 1.378 . S
C923 C922 1.367 . S
C923 C931 1.433 . S
C924 H920 0.929 . S
C924 C926 1.378 . S
C924 C928 1.350 . S
C925 C928 1.463 . S
C925 C930 1.350 . S
C925 N933 1.427 . S
C926 H917 0.930 . S
C926 C924 1.378 . S
C926 C927 1.367 . S
C927 C926 1.367 . S
C927 C929 1.433 . S
C928 C924 1.350 . S
C928 C925 1.463 . S
C928 N932 1.427 . S
C929 H919 0.929 . S
C929 C927 1.433 . S
C929 N932 1.384 . S
C930 H921 0.929 . S
C930 C922 1.378 . S
C930 C925 1.350 . S
C931 H918 0.929 . S
C931 C923 1.433 . S
C931 N933 1.384 . S
N932 C928 1.427 . S
N932 C929 1.384 . S
N933 C925 1.427 . S
N933 C931 1.384 . S
H934 C940 0.930 . S
H935 C944 0.930 . S
H936 C949 0.929 . S
H937 C947 0.929 . S
H938 C942 0.929 . S
H939 C948 0.929 . S
C940 H934 0.930 . S
C940 C941 1.367 . S
C940 C948 1.378 . S
C941 C940 1.367 . S
C941 C949 1.433 . S
C942 H938 0.929 . S
C942 C944 1.378 . S
C942 C946 1.350 . S
C943 C946 1.463 . S
C943 C948 1.350 . S
C943 N951 1.427 . S
C944 H935 0.930 . S
C944 C942 1.378 . S
C944 C945 1.367 . S
C945 C944 1.367 . S
C945 C947 1.433 . S
C946 C942 1.350 . S
C946 C943 1.463 . S
C946 N950 1.427 . S
C947 H937 0.929 . S
C947 C945 1.433 . S
C947 N950 1.384 . S
C948 H939 0.929 . S
C948 C940 1.378 . S
C948 C943 1.350 . S
C949 H936 0.929 . S
C949 C941 1.433 . S
C949 N951 1.384 . S
N950 C946 1.427 . S
N950 C947 1.384 . S
N951 C943 1.427 . S
N951 C949 1.384 . S
H952 C958 0.930 . S
H953 C962 0.930 . S
H954 C967 0.929 . S
H955 C965 0.929 . S
H956 C960 0.929 . S
H957 C966 0.929 . S
C958 H952 0.930 . S
C958 C959 1.367 . S
C958 C966 1.378 . S
C959 C958 1.367 . S
C959 C967 1.433 . S
C960 H956 0.929 . S
C960 C962 1.378 . S
C960 C964 1.350 . S
C961 C964 1.463 . S
C961 C966 1.350 . S
C961 N969 1.427 . S
C962 H953 0.930 . S
C962 C960 1.378 . S
C962 C963 1.367 . S
C963 C962 1.367 . S
C963 C965 1.433 . S
C964 C960 1.350 . S
C964 C961 1.463 . S
C964 N968 1.427 . S
C965 H955 0.929 . S
C965 C963 1.433 . S
C965 N968 1.384 . S
C966 H957 0.929 . S
C966 C958 1.378 . S
C966 C961 1.350 . S
C967 H954 0.929 . S
C967 C959 1.433 . S
C967 N969 1.384 . S
N968 C964 1.427 . S
N968 C965 1.384 . S
N969 C961 1.427 . S
N969 C967 1.384 . S
H970 C976 0.930 . S
H971 C980 0.930 . S
H972 C985 0.921 1_545 S
H973 C983 0.921 1_565 S
H974 C978 0.929 . S
H975 C984 0.929 . S
C976 H970 0.930 . S
C976 C977 1.367 . S
C976 C984 1.378 . S
C977 C976 1.367 . S
C977 C985 1.433 . S
C978 H974 0.929 . S
C978 C980 1.378 . S
C978 C982 1.350 . S
C979 C982 1.463 1_565 S
C979 C984 1.350 . S
C979 N987 1.427 1_565 S
C980 H971 0.930 . S
C980 C978 1.378 . S
C980 C981 1.367 . S
C981 C980 1.367 . S
C981 C983 1.433 . S
C982 C978 1.350 . S
C982 C979 1.463 1_545 S
C982 N986 1.427 1_545 S
C983 H973 0.921 1_545 S
C983 C981 1.433 . S
C983 N986 1.384 1_545 S
C984 H975 0.929 . S
C984 C976 1.378 . S
C984 C979 1.350 . S
C985 H972 0.921 1_565 S
C985 C977 1.433 . S
C985 N987 1.384 1_565 S
N986 C982 1.427 1_565 S
N986 C983 1.384 1_565 S
N987 C979 1.427 1_545 S
N987 C985 1.384 1_545 S
H988 C994 0.930 . S
H989 C998 0.930 . S
H990 C1003 0.929 . S
H991 C1001 0.929 . S
H992 C996 0.929 . S
H993 C1002 0.929 . S
C994 H988 0.930 . S
C994 C995 1.367 . S
C994 C1002 1.378 . S
C995 C994 1.367 . S
C995 C1003 1.433 . S
C996 H992 0.929 . S
C996 C998 1.378 . S
C996 C1000 1.350 . S
C997 C1000 1.463 . S
C997 C1002 1.350 . S
C997 N1005 1.427 . S
C998 H989 0.930 . S
C998 C996 1.378 . S
C998 C999 1.367 . S
C999 C998 1.367 . S
C999 C1001 1.433 . S
C1000 C996 1.350 . S
C1000 C997 1.463 . S
C1000 N1004 1.427 . S
C1001 H991 0.929 . S
C1001 C999 1.433 . S
C1001 N1004 1.384 . S
C1002 H993 0.929 . S
C1002 C994 1.378 . S
C1002 C997 1.350 . S
C1003 H990 0.929 . S
C1003 C995 1.433 . S
C1003 N1005 1.384 . S
N1004 C1000 1.427 . S
N1004 C1001 1.384 . S
N1005 C997 1.427 . S
N1005 C1003 1.384 . S
H1006 C1012 0.930 . S
H1007 C1016 0.930 . S
H1008 C1021 0.929 . S
H1009 C1019 0.929 . S
H1010 C1014 0.929 1_554 S
H1011 C1020 0.929 1_556 S
C1012 H1006 0.930 . S
C1012 C1013 1.367 . S
C1012 C1020 1.378 . S
C1013 C1012 1.367 . S
C1013 C1021 1.433 . S
C1014 H1010 0.929 1_556 S
C1014 C1016 1.378 . S
C1014 C1018 1.350 . S
C1015 C1018 1.463 1_554 S
C1015 C1020 1.350 . S
C1015 N1023 1.427 . S
C1016 H1007 0.930 . S
C1016 C1014 1.378 . S
C1016 C1017 1.367 . S
C1017 C1016 1.367 . S
C1017 C1019 1.433 . S
C1018 C1014 1.350 . S
C1018 C1015 1.463 1_556 S
C1018 N1022 1.427 . S
C1019 H1009 0.929 . S
C1019 C1017 1.433 . S
C1019 N1022 1.384 . S
C1020 H1011 0.929 1_554 S
C1020 C1012 1.378 . S
C1020 C1015 1.350 . S
C1021 H1008 0.929 . S
C1021 C1013 1.433 . S
C1021 N1023 1.384 . S
N1022 C1018 1.427 . S
N1022 C1019 1.384 . S
N1023 C1015 1.427 . S
N1023 C1021 1.384 . S
H1024 C1030 0.930 . S
H1025 C1034 0.930 . S
H1026 C1039 0.929 . S
H1027 C1037 0.929 . S
H1028 C1032 0.929 . S
H1029 C1038 0.929 . S
C1030 H1024 0.930 . S
C1030 C1031 1.367 . S
C1030 C1038 1.378 . S
C1031 C1030 1.367 . S
C1031 C1039 1.433 . S
C1032 H1028 0.929 . S
C1032 C1034 1.378 . S
C1032 C1036 1.350 . S
C1033 C1036 1.463 . S
C1033 C1038 1.350 . S
C1033 N1041 1.427 . S
C1034 H1025 0.930 . S
C1034 C1032 1.378 . S
C1034 C1035 1.367 . S
C1035 C1034 1.367 . S
C1035 C1037 1.433 . S
C1036 C1032 1.350 . S
C1036 C1033 1.463 . S
C1036 N1040 1.427 . S
C1037 H1027 0.929 . S
C1037 C1035 1.433 . S
C1037 N1040 1.384 . S
C1038 H1029 0.929 . S
C1038 C1030 1.378 . S
C1038 C1033 1.350 . S
C1039 H1026 0.929 . S
C1039 C1031 1.433 . S
C1039 N1041 1.384 . S
N1040 C1036 1.427 . S
N1040 C1037 1.384 . S
N1041 C1033 1.427 . S
N1041 C1039 1.384 . S
H1042 C1048 0.930 . S
H1043 C1052 0.930 . S
H1044 C1057 0.929 . S
H1045 C1055 0.929 1_545 S
H1046 C1050 0.929 . S
H1047 C1056 0.929 . S
C1048 H1042 0.930 . S
C1048 C1049 1.367 . S
C1048 C1056 1.378 . S
C1049 C1048 1.367 . S
C1049 C1057 1.433 . S
C1050 H1046 0.929 . S
C1050 C1052 1.378 . S
C1050 C1054 1.350 . S
C1051 C1054 1.463 . S
C1051 C1056 1.350 . S
C1051 N1059 1.427 . S
C1052 H1043 0.930 . S
C1052 C1050 1.378 . S
C1052 C1053 1.367 . S
C1053 C1052 1.367 . S
C1053 C1055 1.433 . S
C1054 C1050 1.350 . S
C1054 C1051 1.463 . S
C1054 N1058 1.427 . S
C1055 H1045 0.929 1_565 S
C1055 C1053 1.433 . S
C1055 N1058 1.384 . S
C1056 H1047 0.929 . S
C1056 C1048 1.378 . S
C1056 C1051 1.350 . S
C1057 H1044 0.929 . S
C1057 C1049 1.433 . S
C1057 N1059 1.384 . S
N1058 C1054 1.427 . S
N1058 C1055 1.384 . S
N1059 C1051 1.427 . S
N1059 C1057 1.384 . S
H1060 C1066 0.930 . S
H1061 C1070 0.930 . S
H1062 C1075 0.929 1_545 S
H1063 C1073 0.929 . S
H1064 C1068 0.929 . S
H1065 C1074 0.929 . S
C1066 H1060 0.930 . S
C1066 C1067 1.367 . S
C1066 C1074 1.378 . S
C1067 C1066 1.367 . S
C1067 C1075 1.433 . S
C1068 H1064 0.929 . S
C1068 C1070 1.378 . S
C1068 C1072 1.350 . S
C1069 C1072 1.463 . S
C1069 C1074 1.350 . S
C1069 N1077 1.427 . S
C1070 H1061 0.930 . S
C1070 C1068 1.378 . S
C1070 C1071 1.367 . S
C1071 C1070 1.367 . S
C1071 C1073 1.433 . S
C1072 C1068 1.350 . S
C1072 C1069 1.463 . S
C1072 N1076 1.427 . S
C1073 H1063 0.929 . S
C1073 C1071 1.433 . S
C1073 N1076 1.384 . S
C1074 H1065 0.929 . S
C1074 C1066 1.378 . S
C1074 C1069 1.350 . S
C1075 H1062 0.929 1_565 S
C1075 C1067 1.433 . S
C1075 N1077 1.384 . S
N1076 C1072 1.427 . S
N1076 C1073 1.384 . S
N1077 C1069 1.427 . S
N1077 C1075 1.384 . S
H1078 C1084 0.930 . S
H1079 C1088 0.930 . S
H1080 C1093 0.929 . S
H1081 C1091 0.929 . S
H1082 C1086 0.929 . S
H1083 C1092 0.929 . S
C1084 H1078 0.930 . S
C1084 C1085 1.367 . S
C1084 C1092 1.378 . S
C1085 C1084 1.367 . S
C1085 C1093 1.433 . S
C1086 H1082 0.929 . S
C1086 C1088 1.378 . S
C1086 C1090 1.350 . S
C1087 C1090 1.463 . S
C1087 C1092 1.350 . S
C1087 N1095 1.427 . S
C1088 H1079 0.930 . S
C1088 C1086 1.378 . S
C1088 C1089 1.367 . S
C1089 C1088 1.367 . S
C1089 C1091 1.433 . S
C1090 C1086 1.350 . S
C1090 C1087 1.463 . S
C1090 N1094 1.427 . S
C1091 H1081 0.929 . S
C1091 C1089 1.433 . S
C1091 N1094 1.384 . S
C1092 H1083 0.929 . S
C1092 C1084 1.378 . S
C1092 C1087 1.350 . S
C1093 H1080 0.929 . S
C1093 C1085 1.433 . S
C1093 N1095 1.384 . S
N1094 C1090 1.427 . S
N1094 C1091 1.384 . S
N1095 C1087 1.427 . S
N1095 C1093 1.384 . S
H1096 C1102 0.930 . S
H1097 C1106 0.930 . S
H1098 C1111 0.929 . S
H1099 C1109 0.929 . S
H1100 C1104 0.929 . S
H1101 C1110 0.929 . S
C1102 H1096 0.930 . S
C1102 C1103 1.367 . S
C1102 C1110 1.378 . S
C1103 C1102 1.367 . S
C1103 C1111 1.433 . S
C1104 H1100 0.929 . S
C1104 C1106 1.378 . S
C1104 C1108 1.350 . S
C1105 C1108 1.463 . S
C1105 C1110 1.350 . S
C1105 N1113 1.427 . S
C1106 H1097 0.930 . S
C1106 C1104 1.378 . S
C1106 C1107 1.367 . S
C1107 C1106 1.367 . S
C1107 C1109 1.433 . S
C1108 C1104 1.350 . S
C1108 C1105 1.463 . S
C1108 N1112 1.427 . S
C1109 H1099 0.929 . S
C1109 C1107 1.433 . S
C1109 N1112 1.384 . S
C1110 H1101 0.929 . S
C1110 C1102 1.378 . S
C1110 C1105 1.350 . S
C1111 H1098 0.929 . S
C1111 C1103 1.433 . S
C1111 N1113 1.384 . S
N1112 C1108 1.427 . S
N1112 C1109 1.384 . S
N1113 C1105 1.427 . S
N1113 C1111 1.384 . S
H1114 C1120 0.930 . S
H1115 C1124 0.930 . S
H1116 C1129 0.929 1_565 S
H1117 C1127 0.929 . S
H1118 C1122 0.929 . S
H1119 C1128 0.929 . S
C1120 H1114 0.930 . S
C1120 C1121 1.367 . S
C1120 C1128 1.378 . S
C1121 C1120 1.367 . S
C1121 C1129 1.433 . S
C1122 H1118 0.929 . S
C1122 C1124 1.378 . S
C1122 C1126 1.350 . S
C1123 C1126 1.463 . S
C1123 C1128 1.350 . S
C1123 N1131 1.427 . S
C1124 H1115 0.930 . S
C1124 C1122 1.378 . S
C1124 C1125 1.367 . S
C1125 C1124 1.367 . S
C1125 C1127 1.433 . S
C1126 C1122 1.350 . S
C1126 C1123 1.463 . S
C1126 N1130 1.427 . S
C1127 H1117 0.929 . S
C1127 C1125 1.433 . S
C1127 N1130 1.384 . S
C1128 H1119 0.929 . S
C1128 C1120 1.378 . S
C1128 C1123 1.350 . S
C1129 H1116 0.929 1_545 S
C1129 C1121 1.433 . S
C1129 N1131 1.384 . S
N1130 C1126 1.427 . S
N1130 C1127 1.384 . S
N1131 C1123 1.427 . S
N1131 C1129 1.384 . S
H1132 C1138 0.930 . S
H1133 C1142 0.930 . S
H1134 C1147 0.929 . S
H1135 C1145 0.929 . S
H1136 C1140 0.929 . S
H1137 C1146 0.929 . S
C1138 H1132 0.930 . S
C1138 C1139 1.367 . S
C1138 C1146 1.378 . S
C1139 C1138 1.367 . S
C1139 C1147 1.433 . S
C1140 H1136 0.929 . S
C1140 C1142 1.378 . S
C1140 C1144 1.350 . S
C1141 C1144 1.463 . S
C1141 C1146 1.350 . S
C1141 N1149 1.427 . S
C1142 H1133 0.930 . S
C1142 C1140 1.378 . S
C1142 C1143 1.367 . S
C1143 C1142 1.367 . S
C1143 C1145 1.433 . S
C1144 C1140 1.350 . S
C1144 C1141 1.463 . S
C1144 N1148 1.427 . S
C1145 H1135 0.929 . S
C1145 C1143 1.433 . S
C1145 N1148 1.384 . S
C1146 H1137 0.929 . S
C1146 C1138 1.378 . S
C1146 C1141 1.350 . S
C1147 H1134 0.929 . S
C1147 C1139 1.433 . S
C1147 N1149 1.384 . S
N1148 C1144 1.427 . S
N1148 C1145 1.384 . S
N1149 C1141 1.427 . S
N1149 C1147 1.384 . S
H1150 C1156 0.930 . S
H1151 C1160 0.930 . S
H1152 C1165 0.929 . S
H1153 C1163 0.929 . S
H1154 C1158 0.929 . S
H1155 C1164 0.929 . S
C1156 H1150 0.930 . S
C1156 C1157 1.367 . S
C1156 C1164 1.378 . S
C1157 C1156 1.367 . S
C1157 C1165 1.433 . S
C1158 H1154 0.929 . S
C1158 C1160 1.378 . S
C1158 C1162 1.350 . S
C1159 C1162 1.463 . S
C1159 C1164 1.350 . S
C1159 N1167 1.427 . S
C1160 H1151 0.930 . S
C1160 C1158 1.378 . S
C1160 C1161 1.367 . S
C1161 C1160 1.367 . S
C1161 C1163 1.433 . S
C1162 C1158 1.350 . S
C1162 C1159 1.463 . S
C1162 N1166 1.427 . S
C1163 H1153 0.929 . S
C1163 C1161 1.433 . S
C1163 N1166 1.384 . S
C1164 H1155 0.929 . S
C1164 C1156 1.378 . S
C1164 C1159 1.350 . S
C1165 H1152 0.929 . S
C1165 C1157 1.433 . S
C1165 N1167 1.384 . S
N1166 C1162 1.427 . S
N1166 C1163 1.384 . S
N1167 C1159 1.427 . S
N1167 C1165 1.384 . S
H1168 C1174 0.930 . S
H1169 C1178 0.930 . S
H1170 C1183 0.929 . S
H1171 C1181 0.929 . S
H1172 C1176 0.929 . S
H1173 C1182 0.929 . S
C1174 H1168 0.930 . S
C1174 C1175 1.367 . S
C1174 C1182 1.378 . S
C1175 C1174 1.367 . S
C1175 C1183 1.433 . S
C1176 H1172 0.929 . S
C1176 C1178 1.378 . S
C1176 C1180 1.350 . S
C1177 C1180 1.463 . S
C1177 C1182 1.350 . S
C1177 N1185 1.427 . S
C1178 H1169 0.930 . S
C1178 C1176 1.378 . S
C1178 C1179 1.367 . S
C1179 C1178 1.367 . S
C1179 C1181 1.433 . S
C1180 C1176 1.350 . S
C1180 C1177 1.463 . S
C1180 N1184 1.427 . S
C1181 H1171 0.929 . S
C1181 C1179 1.433 . S
C1181 N1184 1.384 . S
C1182 H1173 0.929 . S
C1182 C1174 1.378 . S
C1182 C1177 1.350 . S
C1183 H1170 0.929 . S
C1183 C1175 1.433 . S
C1183 N1185 1.384 . S
N1184 C1180 1.427 . S
N1184 C1181 1.384 . S
N1185 C1177 1.427 . S
N1185 C1183 1.384 . S
H1186 C1192 0.930 . S
H1187 C1196 0.930 . S
H1188 C1201 0.929 . S
H1189 C1199 0.929 . S
H1190 C1194 0.929 . S
H1191 C1200 0.929 . S
C1192 H1186 0.930 . S
C1192 C1193 1.367 . S
C1192 C1200 1.378 . S
C1193 C1192 1.367 . S
C1193 C1201 1.433 . S
C1194 H1190 0.929 . S
C1194 C1196 1.378 . S
C1194 C1198 1.350 . S
C1195 C1198 1.463 . S
C1195 C1200 1.350 . S
C1195 N1203 1.427 . S
C1196 H1187 0.930 . S
C1196 C1194 1.378 . S
C1196 C1197 1.367 . S
C1197 C1196 1.367 . S
C1197 C1199 1.433 . S
C1198 C1194 1.350 . S
C1198 C1195 1.463 . S
C1198 N1202 1.427 . S
C1199 H1189 0.929 . S
C1199 C1197 1.433 . S
C1199 N1202 1.384 . S
C1200 H1191 0.929 . S
C1200 C1192 1.378 . S
C1200 C1195 1.350 . S
C1201 H1188 0.929 . S
C1201 C1193 1.433 . S
C1201 N1203 1.384 . S
N1202 C1198 1.427 . S
N1202 C1199 1.384 . S
N1203 C1195 1.427 . S
N1203 C1201 1.384 . S
H1204 C1210 0.930 . S
H1205 C1214 0.930 . S
H1206 C1219 0.929 . S
H1207 C1217 0.929 1_545 S
H1208 C1212 0.929 . S
H1209 C1218 0.929 . S
C1210 H1204 0.930 . S
C1210 C1211 1.367 . S
C1210 C1218 1.378 . S
C1211 C1210 1.367 . S
C1211 C1219 1.433 . S
C1212 H1208 0.929 . S
C1212 C1214 1.378 . S
C1212 C1216 1.350 . S
C1213 C1216 1.463 . S
C1213 C1218 1.350 . S
C1213 N1221 1.427 . S
C1214 H1205 0.930 . S
C1214 C1212 1.378 . S
C1214 C1215 1.367 . S
C1215 C1214 1.367 . S
C1215 C1217 1.433 . S
C1216 C1212 1.350 . S
C1216 C1213 1.463 . S
C1216 N1220 1.427 . S
C1217 H1207 0.929 1_565 S
C1217 C1215 1.433 . S
C1217 N1220 1.384 . S
C1218 H1209 0.929 . S
C1218 C1210 1.378 . S
C1218 C1213 1.350 . S
C1219 H1206 0.929 . S
C1219 C1211 1.433 . S
C1219 N1221 1.384 . S
N1220 C1216 1.427 . S
N1220 C1217 1.384 . S
N1221 C1213 1.427 . S
N1221 C1219 1.384 . S
H1222 C1228 0.930 . S
H1223 C1232 0.930 . S
H1224 C1237 0.929 . S
H1225 C1235 0.929 . S
H1226 C1230 0.929 . S
H1227 C1236 0.929 . S
C1228 H1222 0.930 . S
C1228 C1229 1.367 . S
C1228 C1236 1.378 . S
C1229 C1228 1.367 . S
C1229 C1237 1.433 . S
C1230 H1226 0.929 . S
C1230 C1232 1.378 . S
C1230 C1234 1.350 . S
C1231 C1234 1.463 . S
C1231 C1236 1.350 . S
C1231 N1239 1.427 . S
C1232 H1223 0.930 . S
C1232 C1230 1.378 . S
C1232 C1233 1.367 . S
C1233 C1232 1.367 . S
C1233 C1235 1.433 . S
C1234 C1230 1.350 . S
C1234 C1231 1.463 . S
C1234 N1238 1.427 . S
C1235 H1225 0.929 . S
C1235 C1233 1.433 . S
C1235 N1238 1.384 . S
C1236 H1227 0.929 . S
C1236 C1228 1.378 . S
C1236 C1231 1.350 . S
C1237 H1224 0.929 . S
C1237 C1229 1.433 . S
C1237 N1239 1.384 . S
N1238 C1234 1.427 . S
N1238 C1235 1.384 . S
N1239 C1231 1.427 . S
N1239 C1237 1.384 . S
H1240 C1246 0.930 . S
H1241 C1250 0.930 . S
H1242 C1255 0.929 . S
H1243 C1253 0.929 . S
H1244 C1248 0.929 . S
H1245 C1254 0.929 . S
C1246 H1240 0.930 . S
C1246 C1247 1.367 . S
C1246 C1254 1.378 . S
C1247 C1246 1.367 . S
C1247 C1255 1.433 . S
C1248 H1244 0.929 . S
C1248 C1250 1.378 . S
C1248 C1252 1.350 . S
C1249 C1252 1.463 . S
C1249 C1254 1.350 . S
C1249 N1257 1.427 . S
C1250 H1241 0.930 . S
C1250 C1248 1.378 . S
C1250 C1251 1.367 . S
C1251 C1250 1.367 . S
C1251 C1253 1.433 . S
C1252 C1248 1.350 . S
C1252 C1249 1.463 . S
C1252 N1256 1.427 . S
C1253 H1243 0.929 . S
C1253 C1251 1.433 . S
C1253 N1256 1.384 . S
C1254 H1245 0.929 . S
C1254 C1246 1.378 . S
C1254 C1249 1.350 . S
C1255 H1242 0.929 . S
C1255 C1247 1.433 . S
C1255 N1257 1.384 . S
N1256 C1252 1.427 . S
N1256 C1253 1.384 . S
N1257 C1249 1.427 . S
N1257 C1255 1.384 . S
H1258 C1264 0.930 . S
H1259 C1268 0.930 . S
H1260 C1273 0.929 1_565 S
H1261 C1271 0.929 . S
H1262 C1266 0.929 . S
H1263 C1272 0.929 . S
C1264 H1258 0.930 . S
C1264 C1265 1.367 . S
C1264 C1272 1.378 . S
C1265 C1264 1.367 . S
C1265 C1273 1.433 . S
C1266 H1262 0.929 . S
C1266 C1268 1.378 . S
C1266 C1270 1.350 . S
C1267 C1270 1.463 . S
C1267 C1272 1.350 . S
C1267 N1275 1.427 . S
C1268 H1259 0.930 . S
C1268 C1266 1.378 . S
C1268 C1269 1.367 . S
C1269 C1268 1.367 . S
C1269 C1271 1.433 . S
C1270 C1266 1.350 . S
C1270 C1267 1.463 . S
C1270 N1274 1.427 . S
C1271 H1261 0.929 . S
C1271 C1269 1.433 . S
C1271 N1274 1.384 . S
C1272 H1263 0.929 . S
C1272 C1264 1.378 . S
C1272 C1267 1.350 . S
C1273 H1260 0.929 1_545 S
C1273 C1265 1.433 . S
C1273 N1275 1.384 . S
N1274 C1270 1.427 . S
N1274 C1271 1.384 . S
N1275 C1267 1.427 . S
N1275 C1273 1.384 . S
H1276 C1282 0.930 . S
H1277 C1286 0.930 . S
H1278 C1291 0.929 . S
H1279 C1289 0.929 1_565 S
H1280 C1284 0.929 . S
H1281 C1290 0.929 . S
C1282 H1276 0.930 . S
C1282 C1283 1.367 . S
C1282 C1290 1.378 . S
C1283 C1282 1.367 . S
C1283 C1291 1.433 . S
C1284 H1280 0.929 . S
C1284 C1286 1.378 . S
C1284 C1288 1.350 . S
C1285 C1288 1.463 . S
C1285 C1290 1.350 . S
C1285 N1293 1.427 . S
C1286 H1277 0.930 . S
C1286 C1284 1.378 . S
C1286 C1287 1.367 . S
C1287 C1286 1.367 . S
C1287 C1289 1.433 . S
C1288 C1284 1.350 . S
C1288 C1285 1.463 . S
C1288 N1292 1.427 . S
C1289 H1279 0.929 1_545 S
C1289 C1287 1.433 . S
C1289 N1292 1.384 . S
C1290 H1281 0.929 . S
C1290 C1282 1.378 . S
C1290 C1285 1.350 . S
C1291 H1278 0.929 . S
C1291 C1283 1.433 . S
C1291 N1293 1.384 . S
N1292 C1288 1.427 . S
N1292 C1289 1.384 . S
N1293 C1285 1.427 . S
N1293 C1291 1.384 . S
H1294 C1300 0.930 . S
H1295 C1304 0.930 . S
H1296 C1309 0.929 . S
H1297 C1307 0.929 . S
H1298 C1302 0.929 . S
H1299 C1308 0.929 . S
C1300 H1294 0.930 . S
C1300 C1301 1.367 . S
C1300 C1308 1.378 . S
C1301 C1300 1.367 . S
C1301 C1309 1.433 . S
C1302 H1298 0.929 . S
C1302 C1304 1.378 . S
C1302 C1306 1.350 . S
C1303 C1306 1.463 . S
C1303 C1308 1.350 . S
C1303 N1311 1.427 . S
C1304 H1295 0.930 . S
C1304 C1302 1.378 . S
C1304 C1305 1.367 . S
C1305 C1304 1.367 . S
C1305 C1307 1.433 . S
C1306 C1302 1.350 . S
C1306 C1303 1.463 . S
C1306 N1310 1.427 . S
C1307 H1297 0.929 . S
C1307 C1305 1.433 . S
C1307 N1310 1.384 . S
C1308 H1299 0.929 . S
C1308 C1300 1.378 . S
C1308 C1303 1.350 . S
C1309 H1296 0.929 . S
C1309 C1301 1.433 . S
C1309 N1311 1.384 . S
N1310 C1306 1.427 . S
N1310 C1307 1.384 . S
N1311 C1303 1.427 . S
N1311 C1309 1.384 . S
H1312 C1318 0.930 . S
H1313 C1322 0.930 1_545 S
H1314 C1327 0.929 . S
H1315 C1325 0.929 . S
H1316 C1320 0.929 . S
H1317 C1326 0.929 . S
C1318 H1312 0.930 . S
C1318 C1319 1.367 . S
C1318 C1326 1.378 . S
C1319 C1318 1.367 . S
C1319 C1327 1.433 . S
C1320 H1316 0.929 . S
C1320 C1322 1.378 . S
C1320 C1324 1.350 . S
C1321 C1324 1.463 . S
C1321 C1326 1.350 . S
C1321 N1329 1.427 . S
C1322 H1313 0.930 1_565 S
C1322 C1320 1.378 . S
C1322 C1323 1.367 . S
C1323 C1322 1.367 . S
C1323 C1325 1.433 . S
C1324 C1320 1.350 . S
C1324 C1321 1.463 . S
C1324 N1328 1.427 . S
C1325 H1315 0.929 . S
C1325 C1323 1.433 . S
C1325 N1328 1.384 . S
C1326 H1317 0.929 . S
C1326 C1318 1.378 . S
C1326 C1321 1.350 . S
C1327 H1314 0.929 . S
C1327 C1319 1.433 . S
C1327 N1329 1.384 . S
N1328 C1324 1.427 . S
N1328 C1325 1.384 . S
N1329 C1321 1.427 . S
N1329 C1327 1.384 . S
H1330 C1336 0.930 . S
H1331 C1340 0.930 . S
H1332 C1345 0.929 . S
H1333 C1343 0.929 . S
H1334 C1338 0.929 . S
H1335 C1344 0.929 . S
C1336 H1330 0.930 . S
C1336 C1337 1.367 . S
C1336 C1344 1.378 . S
C1337 C1336 1.367 . S
C1337 C1345 1.433 . S
C1338 H1334 0.929 . S
C1338 C1340 1.378 . S
C1338 C1342 1.350 . S
C1339 C1342 1.463 . S
C1339 C1344 1.350 . S
C1339 N1347 1.427 . S
C1340 H1331 0.930 . S
C1340 C1338 1.378 . S
C1340 C1341 1.367 . S
C1341 C1340 1.367 . S
C1341 C1343 1.433 . S
C1342 C1338 1.350 . S
C1342 C1339 1.463 . S
C1342 N1346 1.427 . S
C1343 H1333 0.929 . S
C1343 C1341 1.433 . S
C1343 N1346 1.384 . S
C1344 H1335 0.929 . S
C1344 C1336 1.378 . S
C1344 C1339 1.350 . S
C1345 H1332 0.929 . S
C1345 C1337 1.433 . S
C1345 N1347 1.384 . S
N1346 C1342 1.427 . S
N1346 C1343 1.384 . S
N1347 C1339 1.427 . S
N1347 C1345 1.384 . S
H1348 C1354 0.930 . S
H1349 C1358 0.930 . S
H1350 C1363 0.929 . S
H1351 C1361 0.929 . S
H1352 C1356 0.929 . S
H1353 C1362 0.929 . S
C1354 H1348 0.930 . S
C1354 C1355 1.367 . S
C1354 C1362 1.378 . S
C1355 C1354 1.367 . S
C1355 C1363 1.433 . S
C1356 H1352 0.929 . S
C1356 C1358 1.378 . S
C1356 C1360 1.350 . S
C1357 C1360 1.463 . S
C1357 C1362 1.350 . S
C1357 N1365 1.427 . S
C1358 H1349 0.930 . S
C1358 C1356 1.378 . S
C1358 C1359 1.367 . S
C1359 C1358 1.367 . S
C1359 C1361 1.433 . S
C1360 C1356 1.350 . S
C1360 C1357 1.463 . S
C1360 N1364 1.427 . S
C1361 H1351 0.929 . S
C1361 C1359 1.433 . S
C1361 N1364 1.384 . S
C1362 H1353 0.929 . S
C1362 C1354 1.378 . S
C1362 C1357 1.350 . S
C1363 H1350 0.929 . S
C1363 C1355 1.433 . S
C1363 N1365 1.384 . S
N1364 C1360 1.427 . S
N1364 C1361 1.384 . S
N1365 C1357 1.427 . S
N1365 C1363 1.384 . S
H1366 C1372 0.930 . S
H1367 C1376 0.930 . S
H1368 C1381 0.929 1_545 S
H1369 C1379 0.929 . S
H1370 C1374 0.929 . S
H1371 C1380 0.929 . S
C1372 H1366 0.930 . S
C1372 C1373 1.367 . S
C1372 C1380 1.378 . S
C1373 C1372 1.367 . S
C1373 C1381 1.433 . S
C1374 H1370 0.929 . S
C1374 C1376 1.378 . S
C1374 C1378 1.350 . S
C1375 C1378 1.463 . S
C1375 C1380 1.350 . S
C1375 N1383 1.427 . S
C1376 H1367 0.930 . S
C1376 C1374 1.378 . S
C1376 C1377 1.367 . S
C1377 C1376 1.367 . S
C1377 C1379 1.433 . S
C1378 C1374 1.350 . S
C1378 C1375 1.463 . S
C1378 N1382 1.427 . S
C1379 H1369 0.929 . S
C1379 C1377 1.433 . S
C1379 N1382 1.384 . S
C1380 H1371 0.929 . S
C1380 C1372 1.378 . S
C1380 C1375 1.350 . S
C1381 H1368 0.929 1_565 S
C1381 C1373 1.433 . S
C1381 N1383 1.384 . S
N1382 C1378 1.427 . S
N1382 C1379 1.384 . S
N1383 C1375 1.427 . S
N1383 C1381 1.384 . S
H1384 C1390 0.930 . S
H1385 C1394 0.930 . S
H1386 C1399 0.929 . S
H1387 C1397 0.929 1_565 S
H1388 C1392 0.929 . S
H1389 C1398 0.929 . S
C1390 H1384 0.930 . S
C1390 C1391 1.367 . S
C1390 C1398 1.378 . S
C1391 C1390 1.367 . S
C1391 C1399 1.433 . S
C1392 H1388 0.929 . S
C1392 C1394 1.378 . S
C1392 C1396 1.350 . S
C1393 C1396 1.463 . S
C1393 C1398 1.350 . S
C1393 N1401 1.427 . S
C1394 H1385 0.930 . S
C1394 C1392 1.378 . S
C1394 C1395 1.367 . S
C1395 C1394 1.367 . S
C1395 C1397 1.433 . S
C1396 C1392 1.350 . S
C1396 C1393 1.463 . S
C1396 N1400 1.427 . S
C1397 H1387 0.929 1_545 S
C1397 C1395 1.433 . S
C1397 N1400 1.384 . S
C1398 H1389 0.929 . S
C1398 C1390 1.378 . S
C1398 C1393 1.350 . S
C1399 H1386 0.929 . S
C1399 C1391 1.433 . S
C1399 N1401 1.384 . S
N1400 C1396 1.427 . S
N1400 C1397 1.384 . S
N1401 C1393 1.427 . S
N1401 C1399 1.384 . S
H1402 C1408 0.930 . S
H1403 C1412 0.930 . S
H1404 C1417 0.929 . S
H1405 C1415 0.929 . S
H1406 C1410 0.929 . S
H1407 C1416 0.929 . S
C1408 H1402 0.930 . S
C1408 C1409 1.367 . S
C1408 C1416 1.378 . S
C1409 C1408 1.367 . S
C1409 C1417 1.433 . S
C1410 H1406 0.929 . S
C1410 C1412 1.378 . S
C1410 C1414 1.350 . S
C1411 C1414 1.463 . S
C1411 C1416 1.350 . S
C1411 N1419 1.427 . S
C1412 H1403 0.930 . S
C1412 C1410 1.378 . S
C1412 C1413 1.367 . S
C1413 C1412 1.367 . S
C1413 C1415 1.433 . S
C1414 C1410 1.350 . S
C1414 C1411 1.463 . S
C1414 N1418 1.427 . S
C1415 H1405 0.929 . S
C1415 C1413 1.433 . S
C1415 N1418 1.384 . S
C1416 H1407 0.929 . S
C1416 C1408 1.378 . S
C1416 C1411 1.350 . S
C1417 H1404 0.929 . S
C1417 C1409 1.433 . S
C1417 N1419 1.384 . S
N1418 C1414 1.427 . S
N1418 C1415 1.384 . S
N1419 C1411 1.427 . S
N1419 C1417 1.384 . S
H1420 C1426 0.930 . S
H1421 C1430 0.930 . S
H1422 C1435 0.929 . S
H1423 C1433 0.929 . S
H1424 C1428 0.929 . S
H1425 C1434 0.929 . S
C1426 H1420 0.930 . S
C1426 C1427 1.367 . S
C1426 C1434 1.378 . S
C1427 C1426 1.367 . S
C1427 C1435 1.433 . S
C1428 H1424 0.929 . S
C1428 C1430 1.378 . S
C1428 C1432 1.350 . S
C1429 C1432 1.463 . S
C1429 C1434 1.350 . S
C1429 N1437 1.427 . S
C1430 H1421 0.930 . S
C1430 C1428 1.378 . S
C1430 C1431 1.367 . S
C1431 C1430 1.367 . S
C1431 C1433 1.433 . S
C1432 C1428 1.350 . S
C1432 C1429 1.463 . S
C1432 N1436 1.427 . S
C1433 H1423 0.929 . S
C1433 C1431 1.433 . S
C1433 N1436 1.384 . S
C1434 H1425 0.929 . S
C1434 C1426 1.378 . S
C1434 C1429 1.350 . S
C1435 H1422 0.929 . S
C1435 C1427 1.433 . S
C1435 N1437 1.384 . S
N1436 C1432 1.427 . S
N1436 C1433 1.384 . S
N1437 C1429 1.427 . S
N1437 C1435 1.384 . S
H1438 C1444 0.930 . S
H1439 C1448 0.930 . S
H1440 C1453 0.929 . S
H1441 C1451 0.929 1_565 S
H1442 C1446 0.929 . S
H1443 C1452 0.929 . S
C1444 H1438 0.930 . S
C1444 C1445 1.367 . S
C1444 C1452 1.378 . S
C1445 C1444 1.367 . S
C1445 C1453 1.433 . S
C1446 H1442 0.929 . S
C1446 C1448 1.378 . S
C1446 C1450 1.350 . S
C1447 C1450 1.463 . S
C1447 C1452 1.350 . S
C1447 N1455 1.427 . S
C1448 H1439 0.930 . S
C1448 C1446 1.378 . S
C1448 C1449 1.367 . S
C1449 C1448 1.367 . S
C1449 C1451 1.433 . S
C1450 C1446 1.350 . S
C1450 C1447 1.463 . S
C1450 N1454 1.427 . S
C1451 H1441 0.929 1_545 S
C1451 C1449 1.433 . S
C1451 N1454 1.384 . S
C1452 H1443 0.929 . S
C1452 C1444 1.378 . S
C1452 C1447 1.350 . S
C1453 H1440 0.929 . S
C1453 C1445 1.433 . S
C1453 N1455 1.384 . S
N1454 C1450 1.427 . S
N1454 C1451 1.384 . S
N1455 C1447 1.427 . S
N1455 C1453 1.384 . S
H1456 C1462 0.930 . S
H1457 C1466 0.930 . S
H1458 C1471 0.929 . S
H1459 C1469 0.929 1_545 S
H1460 C1464 0.929 . S
H1461 C1470 0.929 . S
C1462 H1456 0.930 . S
C1462 C1463 1.367 . S
C1462 C1470 1.378 . S
C1463 C1462 1.367 . S
C1463 C1471 1.433 . S
C1464 H1460 0.929 . S
C1464 C1466 1.378 . S
C1464 C1468 1.350 . S
C1465 C1468 1.463 . S
C1465 C1470 1.350 . S
C1465 N1473 1.427 . S
C1466 H1457 0.930 . S
C1466 C1464 1.378 . S
C1466 C1467 1.367 . S
C1467 C1466 1.367 . S
C1467 C1469 1.433 . S
C1468 C1464 1.350 . S
C1468 C1465 1.463 . S
C1468 N1472 1.427 . S
C1469 H1459 0.929 1_565 S
C1469 C1467 1.433 . S
C1469 N1472 1.384 . S
C1470 H1461 0.929 . S
C1470 C1462 1.378 . S
C1470 C1465 1.350 . S
C1471 H1458 0.929 . S
C1471 C1463 1.433 . S
C1471 N1473 1.384 . S
N1472 C1468 1.427 . S
N1472 C1469 1.384 . S
N1473 C1465 1.427 . S
N1473 C1471 1.384 . S
H1474 C1480 0.930 . S
H1475 C1484 0.930 . S
H1476 C1489 0.929 . S
H1477 C1487 0.929 . S
H1478 C1482 0.929 . S
H1479 C1488 0.929 . S
C1480 H1474 0.930 . S
C1480 C1481 1.367 . S
C1480 C1488 1.378 . S
C1481 C1480 1.367 . S
C1481 C1489 1.433 . S
C1482 H1478 0.929 . S
C1482 C1484 1.378 . S
C1482 C1486 1.350 . S
C1483 C1486 1.463 . S
C1483 C1488 1.350 . S
C1483 N1491 1.427 . S
C1484 H1475 0.930 . S
C1484 C1482 1.378 . S
C1484 C1485 1.367 . S
C1485 C1484 1.367 . S
C1485 C1487 1.433 . S
C1486 C1482 1.350 . S
C1486 C1483 1.463 . S
C1486 N1490 1.427 . S
C1487 H1477 0.929 . S
C1487 C1485 1.433 . S
C1487 N1490 1.384 . S
C1488 H1479 0.929 . S
C1488 C1480 1.378 . S
C1488 C1483 1.350 . S
C1489 H1476 0.929 . S
C1489 C1481 1.433 . S
C1489 N1491 1.384 . S
N1490 C1486 1.427 . S
N1490 C1487 1.384 . S
N1491 C1483 1.427 . S
N1491 C1489 1.384 . S
H1492 C1498 0.930 . S
H1493 C1502 0.930 . S
H1494 C1507 0.929 . S
H1495 C1505 0.929 . S
H1496 C1500 0.929 . S
H1497 C1506 0.929 . S
C1498 H1492 0.930 . S
C1498 C1499 1.367 . S
C1498 C1506 1.378 . S
C1499 C1498 1.367 . S
C1499 C1507 1.433 . S
C1500 H1496 0.929 . S
C1500 C1502 1.378 . S
C1500 C1504 1.350 . S
C1501 C1504 1.463 . S
C1501 C1506 1.350 . S
C1501 N1509 1.427 . S
C1502 H1493 0.930 . S
C1502 C1500 1.378 . S
C1502 C1503 1.367 . S
C1503 C1502 1.367 . S
C1503 C1505 1.433 . S
C1504 C1500 1.350 . S
C1504 C1501 1.463 . S
C1504 N1508 1.427 . S
C1505 H1495 0.929 . S
C1505 C1503 1.433 . S
C1505 N1508 1.384 . S
C1506 H1497 0.929 . S
C1506 C1498 1.378 . S
C1506 C1501 1.350 . S
C1507 H1494 0.929 . S
C1507 C1499 1.433 . S
C1507 N1509 1.384 . S
N1508 C1504 1.427 . S
N1508 C1505 1.384 . S
N1509 C1501 1.427 . S
N1509 C1507 1.384 . S
H1510 C1516 0.930 . S
H1511 C1520 0.930 . S
H1512 C1525 0.929 1_545 S
H1513 C1523 0.929 . S
H1514 C1518 0.929 . S
H1515 C1524 0.929 . S
C1516 H1510 0.930 . S
C1516 C1517 1.367 . S
C1516 C1524 1.378 . S
C1517 C1516 1.367 . S
C1517 C1525 1.433 . S
C1518 H1514 0.929 . S
C1518 C1520 1.378 . S
C1518 C1522 1.350 . S
C1519 C1522 1.463 . S
C1519 C1524 1.350 . S
C1519 N1527 1.427 . S
C1520 H1511 0.930 . S
C1520 C1518 1.378 . S
C1520 C1521 1.367 . S
C1521 C1520 1.367 . S
C1521 C1523 1.433 . S
C1522 C1518 1.350 . S
C1522 C1519 1.463 . S
C1522 N1526 1.427 . S
C1523 H1513 0.929 . S
C1523 C1521 1.433 . S
C1523 N1526 1.384 . S
C1524 H1515 0.929 . S
C1524 C1516 1.378 . S
C1524 C1519 1.350 . S
C1525 H1512 0.929 1_565 S
C1525 C1517 1.433 . S
C1525 N1527 1.384 . S
N1526 C1522 1.427 . S
N1526 C1523 1.384 . S
N1527 C1519 1.427 . S
N1527 C1525 1.384 . S
H1528 C1534 0.930 . S
H1529 C1538 0.930 1_565 S
H1530 C1543 0.929 . S
H1531 C1541 0.929 . S
H1532 C1536 0.929 . S
H1533 C1542 0.929 . S
C1534 H1528 0.930 . S
C1534 C1535 1.367 . S
C1534 C1542 1.378 . S
C1535 C1534 1.367 . S
C1535 C1543 1.433 . S
C1536 H1532 0.929 . S
C1536 C1538 1.378 . S
C1536 C1540 1.350 . S
C1537 C1540 1.463 . S
C1537 C1542 1.350 . S
C1537 N1545 1.427 . S
C1538 H1529 0.930 1_545 S
C1538 C1536 1.378 . S
C1538 C1539 1.367 . S
C1539 C1538 1.367 . S
C1539 C1541 1.433 . S
C1540 C1536 1.350 . S
C1540 C1537 1.463 . S
C1540 N1544 1.427 . S
C1541 H1531 0.929 . S
C1541 C1539 1.433 . S
C1541 N1544 1.384 . S
C1542 H1533 0.929 . S
C1542 C1534 1.378 . S
C1542 C1537 1.350 . S
C1543 H1530 0.929 . S
C1543 C1535 1.433 . S
C1543 N1545 1.384 . S
N1544 C1540 1.427 . S
N1544 C1541 1.384 . S
N1545 C1537 1.427 . S
N1545 C1543 1.384 . S
H1546 C1552 0.930 . S
H1547 C1556 0.930 . S
H1548 C1561 0.929 . S
H1549 C1559 0.929 . S
H1550 C1554 0.929 . S
H1551 C1560 0.929 . S
C1552 H1546 0.930 . S
C1552 C1553 1.367 . S
C1552 C1560 1.378 . S
C1553 C1552 1.367 . S
C1553 C1561 1.433 . S
C1554 H1550 0.929 . S
C1554 C1556 1.378 . S
C1554 C1558 1.350 . S
C1555 C1558 1.463 . S
C1555 C1560 1.350 . S
C1555 N1563 1.427 . S
C1556 H1547 0.930 . S
C1556 C1554 1.378 . S
C1556 C1557 1.367 . S
C1557 C1556 1.367 . S
C1557 C1559 1.433 . S
C1558 C1554 1.350 . S
C1558 C1555 1.463 . S
C1558 N1562 1.427 . S
C1559 H1549 0.929 . S
C1559 C1557 1.433 . S
C1559 N1562 1.384 . S
C1560 H1551 0.929 . S
C1560 C1552 1.378 . S
C1560 C1555 1.350 . S
C1561 H1548 0.929 . S
C1561 C1553 1.433 . S
C1561 N1563 1.384 . S
N1562 C1558 1.427 . S
N1562 C1559 1.384 . S
N1563 C1555 1.427 . S
N1563 C1561 1.384 . S
H1564 C1570 0.930 . S
H1565 C1574 0.930 . S
H1566 C1579 0.929 . S
H1567 C1577 0.929 . S
H1568 C1572 0.929 . S
H1569 C1578 0.929 . S
C1570 H1564 0.930 . S
C1570 C1571 1.367 . S
C1570 C1578 1.378 . S
C1571 C1570 1.367 . S
C1571 C1579 1.433 . S
C1572 H1568 0.929 . S
C1572 C1574 1.378 . S
C1572 C1576 1.350 . S
C1573 C1576 1.463 . S
C1573 C1578 1.350 . S
C1573 N1581 1.427 . S
C1574 H1565 0.930 . S
C1574 C1572 1.378 . S
C1574 C1575 1.367 . S
C1575 C1574 1.367 . S
C1575 C1577 1.433 . S
C1576 C1572 1.350 . S
C1576 C1573 1.463 . S
C1576 N1580 1.427 . S
C1577 H1567 0.929 . S
C1577 C1575 1.433 . S
C1577 N1580 1.384 . S
C1578 H1569 0.929 . S
C1578 C1570 1.378 . S
C1578 C1573 1.350 . S
C1579 H1566 0.929 . S
C1579 C1571 1.433 . S
C1579 N1581 1.384 . S
N1580 C1576 1.427 . S
N1580 C1577 1.384 . S
N1581 C1573 1.427 . S
N1581 C1579 1.384 . S
H1582 C1588 0.930 1_565 S
H1583 C1592 0.930 . S
H1584 C1597 0.929 . S
H1585 C1595 0.929 . S
H1586 C1590 0.929 . S
H1587 C1596 0.929 . S
C1588 H1582 0.930 1_545 S
C1588 C1589 1.367 . S
C1588 C1596 1.378 . S
C1589 C1588 1.367 . S
C1589 C1597 1.433 . S
C1590 H1586 0.929 . S
C1590 C1592 1.378 . S
C1590 C1594 1.350 . S
C1591 C1594 1.463 . S
C1591 C1596 1.350 . S
C1591 N1599 1.427 . S
C1592 H1583 0.930 . S
C1592 C1590 1.378 . S
C1592 C1593 1.367 . S
C1593 C1592 1.367 . S
C1593 C1595 1.433 . S
C1594 C1590 1.350 . S
C1594 C1591 1.463 . S
C1594 N1598 1.427 . S
C1595 H1585 0.929 . S
C1595 C1593 1.433 . S
C1595 N1598 1.384 . S
C1596 H1587 0.929 . S
C1596 C1588 1.378 . S
C1596 C1591 1.350 . S
C1597 H1584 0.929 . S
C1597 C1589 1.433 . S
C1597 N1599 1.384 . S
N1598 C1594 1.427 . S
N1598 C1595 1.384 . S
N1599 C1591 1.427 . S
N1599 C1597 1.384 . S
C455 C5 1.424 . S
C459 C19 1.429 . S
C473 C47 1.428 . S
C477 C33 1.424 . S
C491 C61 1.426 . S
C495 C75 1.428 . S
C509 C89 1.426 . S
C513 C103 1.428 . S
C527 C117 1.425 . S
C531 C131 1.428 . S
C545 C145 1.427 . S
C549 C159 1.427 . S
C563 C173 1.429 . S
C567 C187 1.425 . S
C581 C201 1.424 . S
C585 C215 1.429 . S
C599 C243 1.426 . S
C603 C229 1.427 . S
C617 C271 1.425 . S
C621 C257 1.428 . S
C635 C299 1.424 . S
C639 C285 1.429 . S
C653 C327 1.427 . S
C657 C313 1.427 . S
C671 C355 1.426 . S
C675 C341 1.428 . S
C689 C383 1.429 . S
C693 C369 1.425 . S
C707 C411 1.424 . S
C711 C397 1.429 . S
C725 C439 1.424 . S
C729 C425 1.429 . S
C743 C11 1.467 . S
C747 C179 1.467 . S
C761 C25 1.475 . S
C765 C305 1.475 . S
C779 C39 1.475 . S
C783 C95 1.475 . S
C797 C53 1.475 . S
C801 C445 1.475 . S
C815 C67 1.463 . S
C819 C123 1.463 . S
C833 C249 1.474 . S
C837 C81 1.474 . S
C851 C389 1.466 . S
C855 C109 1.466 . S
C869 C137 1.473 . S
C873 C417 1.473 . S
C887 C151 1.475 . S
C891 C207 1.475 . S
C905 C165 1.475 . S
C909 C333 1.475 . S
C923 C193 1.473 . S
C927 C361 1.473 . S
C941 C221 1.469 . S
C945 C277 1.469 . S
C959 C403 1.475 . S
C963 C235 1.475 . S
C977 C319 1.475 . S
C981 C263 1.475 . S
C995 C291 1.463 . S
C999 C347 1.463 . S
C1013 C431 1.475 . S
C1017 C375 1.475 . S
C1031 C149 0.797 . S
C1035 C9 0.798 . S
C1049 C163 0.798 . S
C1053 C23 0.798 1_565 S
C1067 C37 0.797 1_565 S
C1071 C121 0.797 . S
C1085 C135 0.797 . S
C1089 C51 0.797 . S
C1103 C65 0.798 . S
C1107 C205 0.799 . S
C1121 C79 0.798 1_545 S
C1125 C219 0.798 . S
C1139 C177 0.802 . S
C1143 C93 0.803 1_545 S
C1157 C191 0.797 . S
C1161 C107 0.797 . S
C1175 C233 0.807 . S
C1179 C373 0.806 . S
C1193 C387 0.801 . S
C1197 C247 0.802 1_565 S
C1211 C345 0.797 . S
C1215 C261 0.797 1_565 S
C1229 C275 0.803 . S
C1233 C359 0.802 . S
C1247 C429 0.798 . S
C1251 C289 0.797 . S
C1265 C303 0.797 1_545 S
C1269 C443 0.797 . S
C1283 C401 0.797 . S
C1287 C317 0.797 1_545 S
C1301 C415 0.798 . S
C1305 C331 0.797 . S
C1319 C140 1.535 . S
C1323 C0 1.536 1_565 S
C1337 C154 1.537 . S
C1341 C14 1.545 . S
C1355 C112 1.540 . S
C1359 C28 1.534 . S
C1373 C42 1.544 1_565 S
C1377 C126 1.543 . S
C1391 C196 1.541 . S
C1395 C56 1.545 1_545 S
C1409 C210 1.534 . S
C1413 C70 1.539 . S
C1427 C168 1.534 . S
C1431 C84 1.540 . S
C1445 C182 1.545 . S
C1449 C98 1.539 1_545 S
C1463 C364 1.541 . S
C1467 C224 1.545 1_565 S
C1481 C378 1.541 . S
C1485 C238 1.545 . S
C1499 C336 1.541 . S
C1503 C252 1.534 . S
C1517 C266 1.539 1_565 S
C1521 C350 1.545 . S
C1535 C420 1.534 . S
C1539 C280 1.537 1_545 S
C1553 C294 1.544 . S
C1557 C434 1.543 . S
C1571 C392 1.545 . S
C1575 C308 1.541 . S
C1589 C322 1.534 1_545 S
C1593 C406 1.538 . S
