# Generated by pormake.
# Topology wfz, (7)-cn, num edge types: 1
# Building blocks:
#     Node 0, Type 0, BuildingBlock: HICVOG_clean_sbu_0, # of connection points: 7
#     Node 1, Type 0, BuildingBlock: HICVOG_clean_sbu_0, # of connection points: 7
#     Node 2, Type 0, BuildingBlock: HICVOG_clean_sbu_0, # of connection points: 7
#     Node 3, Type 0, BuildingBlock: HICVOG_clean_sbu_0, # of connection points: 7
#     Node 4, Type 0, BuildingBlock: HICVOG_clean_sbu_0, # of connection points: 7
#     Node 5, Type 0, BuildingBlock: HICVOG_clean_sbu_0, # of connection points: 7
#     Node 6, Type 0, BuildingBlock: HICVOG_clean_sbu_0, # of connection points: 7
#     Node 7, Type 0, BuildingBlock: HICVOG_clean_sbu_0, # of connection points: 7
#     Edge 8, Type (0, 0), BuildingBlock: TEMPAE_clean_linker_10, # of connection points: 2
#     Edge 9, Type (0, 0), BuildingBlock: TEMPAE_clean_linker_10, # of connection points: 2
#     Edge 10, Type (0, 0), BuildingBlock: TEMPAE_clean_linker_10, # of connection points: 2
#     Edge 11, Type (0, 0), BuildingBlock: TEMPAE_clean_linker_10, # of connection points: 2
#     Edge 12, Type (0, 0), BuildingBlock: TEMPAE_clean_linker_10, # of connection points: 2
#     Edge 13, Type (0, 0), BuildingBlock: TEMPAE_clean_linker_10, # of connection points: 2
#     Edge 14, Type (0, 0), BuildingBlock: TEMPAE_clean_linker_10, # of connection points: 2
#     Edge 15, Type (0, 0), BuildingBlock: TEMPAE_clean_linker_10, # of connection points: 2
#     Edge 16, Type (0, 0), BuildingBlock: TEMPAE_clean_linker_10, # of connection points: 2
#     Edge 17, Type (0, 0), BuildingBlock: TEMPAE_clean_linker_10, # of connection points: 2
#     Edge 18, Type (0, 0), BuildingBlock: TEMPAE_clean_linker_10, # of connection points: 2
#     Edge 19, Type (0, 0), BuildingBlock: TEMPAE_clean_linker_10, # of connection points: 2
#     Edge 20, Type (0, 0), BuildingBlock: TEMPAE_clean_linker_10, # of connection points: 2
#     Edge 21, Type (0, 0), BuildingBlock: TEMPAE_clean_linker_10, # of connection points: 2
#     Edge 22, Type (0, 0), BuildingBlock: TEMPAE_clean_linker_10, # of connection points: 2
#     Edge 23, Type (0, 0), BuildingBlock: TEMPAE_clean_linker_10, # of connection points: 2
#     Edge 24, Type (0, 0), BuildingBlock: TEMPAE_clean_linker_10, # of connection points: 2
#     Edge 25, Type (0, 0), BuildingBlock: TEMPAE_clean_linker_10, # of connection points: 2
#     Edge 26, Type (0, 0), BuildingBlock: TEMPAE_clean_linker_10, # of connection points: 2
#     Edge 27, Type (0, 0), BuildingBlock: TEMPAE_clean_linker_10, # of connection points: 2
#     Edge 28, Type (0, 0), BuildingBlock: TEMPAE_clean_linker_10, # of connection points: 2
#     Edge 29, Type (0, 0), BuildingBlock: TEMPAE_clean_linker_10, # of connection points: 2
#     Edge 30, Type (0, 0), BuildingBlock: TEMPAE_clean_linker_10, # of connection points: 2
#     Edge 31, Type (0, 0), BuildingBlock: TEMPAE_clean_linker_10, # of connection points: 2
#     Edge 32, Type (0, 0), BuildingBlock: TEMPAE_clean_linker_10, # of connection points: 2
#     Edge 33, Type (0, 0), BuildingBlock: TEMPAE_clean_linker_10, # of connection points: 2
#     Edge 34, Type (0, 0), BuildingBlock: TEMPAE_clean_linker_10, # of connection points: 2
#     Edge 35, Type (0, 0), BuildingBlock: TEMPAE_clean_linker_10, # of connection points: 2
# Relax obj value: 0.179
# Max RMSD: 0.259
# Mean RMSD: 0.259
data_MOF--net-wfz--node1-HICVOG_clean_sbu_0--edge1-TEMPAE_clean_linker_10
_symmetry_space_group_name_H-M    P1
_symmetry_Int_Tables_number       1
_symmetry_cell_setting            triclinic
loop_
_symmetry_equiv_pos_as_xyz
'x, y, z'
_cell_length_a     24.020258
_cell_length_b     24.026301
_cell_length_c     63.681246
_cell_angle_alpha  90.068235
_cell_angle_beta   90.018571
_cell_angle_gamma 90.058009
loop_
_atom_site_label
_atom_site_type_symbol
_atom_site_fract_x
_atom_site_fract_y
_atom_site_fract_z
_atom_type_partial_charge
Zn0 Zn 0.23438 0.47002 0.40264 0.0
C1 C 0.35607 0.46256 0.4447 0.0
N2 N 0.36143 0.41053 0.43729 0.0
C3 C 0.32824 0.41089 0.42031 0.0
N4 N 0.30385 0.46086 0.41751 0.0
N5 N 0.32193 0.49385 0.43273 0.0
C6 C 0.27249 0.59785 0.46952 0.0
O7 O 0.23371 0.57148 0.4589 0.0
O8 O 0.22966 0.42377 0.37601 0.0
Zn9 Zn 0.32621 0.57467 0.43126 0.0
N10 N 0.176 0.44295 0.42104 0.0
C11 C 0.13824 0.43233 0.45536 0.0
C12 C 0.18089 0.45019 0.44213 0.0
C13 C 0.13058 0.41735 0.41267 0.0
N14 N 0.09288 0.40677 0.44703 0.0
C15 C 0.0879 0.39813 0.42598 0.0
O16 O 0.26501 0.61115 0.4136 0.0
C17 C 0.22607 0.5994 0.40066 0.0
O18 O 0.21449 0.54937 0.39569 0.0
H19 H 0.21758 0.46962 0.44861 0.0
H20 H 0.12771 0.41255 0.39581 0.0
C21 C 0.42449 0.64321 0.42001 0.0
C22 C 0.47883 0.64975 0.41189 0.0
C23 C 0.47964 0.55455 0.40212 0.0
C24 C 0.42598 0.54827 0.40991 0.0
N25 N 0.39957 0.59206 0.41916 0.0
N26 N 0.5048 0.60486 0.40335 0.0
H27 H 0.40285 0.67788 0.42716 0.0
C28 C 0.24648 0.44108 0.35825 0.0
O29 O 0.2722 0.48928 0.35718 0.0
O30 O 0.31945 0.6059 0.4608 0.0
H31 H 0.40594 0.50829 0.40862 0.0
H32 H 0.14137 0.43833 0.47216 0.0
H33 H 0.50113 0.5197 0.39504 0.0
Zn34 Zn 0.99208 0.82443 0.68124 0.0
C35 C 0.15401 0.82856 0.66656 0.0
N36 N 0.15779 0.85907 0.6842 0.0
C37 C 0.10705 0.85313 0.69274 0.0
N38 N 0.07311 0.82155 0.68073 0.0
N39 N 0.10318 0.80532 0.66444 0.0
C40 C 0.12605 0.74644 0.60606 0.0
O41 O 0.07944 0.77457 0.60415 0.0
O42 O 0.96759 0.81263 0.7115 0.0
Zn43 Zn 0.09104 0.73638 0.6498 0.0
N44 N 0.97129 0.89926 0.67154 0.0
C45 C 1.00381 0.98648 0.65853 0.0
C46 C 1.01393 0.93203 0.66472 0.0
C47 C 0.91777 0.91853 0.67126 0.0
N48 N 0.95101 1.00597 0.65867 0.0
C49 C 0.90732 0.97361 0.66463 0.0
O50 O 1.01188 0.72088 0.64179 0.0
C51 C 0.96253 0.73151 0.64782 0.0
O52 O 0.95278 0.76684 0.66237 0.0
H53 H 0.05587 0.91645 0.664 0.0
H54 H 0.88409 0.89171 0.67628 0.0
C55 C 0.14485 0.63531 0.66216 0.0
C56 C 0.15804 0.59111 0.67579 0.0
C57 C 0.1019 0.6329 0.70214 0.0
C58 C 0.08933 0.6767 0.68858 0.0
N59 N 0.11107 0.67704 0.66889 0.0
N60 N 0.13571 0.59119 0.69544 0.0
H61 H 0.16004 0.6361 0.64619 0.0
C62 C 0.92316 0.78653 0.71616 0.0
O63 O 0.89067 0.76891 0.70093 0.0
O64 O 0.14009 0.72852 0.62407 0.0
H65 H 0.06194 0.70985 0.69361 0.0
H66 H 0.03763 1.01298 0.65343 0.0
H67 H 0.08472 0.63191 0.71783 0.0
Zn68 Zn 0.75358 0.49139 0.9318 0.0
C69 C 0.73847 0.6538 0.91924 0.0
N70 N 0.70178 0.65221 0.93513 0.0
C71 C 0.70934 0.60094 0.94296 0.0
N72 N 0.74871 0.57227 0.93238 0.0
N73 N 0.76739 0.60601 0.91751 0.0
C74 C 0.87489 0.628 0.86157 0.0
O75 O 0.91082 0.5889 0.86642 0.0
O76 O 0.75095 0.46033 0.96148 0.0
Zn77 Zn 0.8383 0.60076 0.90316 0.0
N78 N 0.69292 0.46654 0.91361 0.0
C79 C 0.65161 0.48448 0.88029 0.0
C80 C 0.68969 0.49795 0.8959 0.0
C81 C 0.65918 0.42124 0.9163 0.0
N82 N 0.61885 0.43911 0.88271 0.0
C83 C 0.62131 0.40674 0.9002 0.0
O84 O 0.86665 0.5227 0.89845 0.0
C85 C 0.8616 0.47332 0.90536 0.0
O86 O 0.82357 0.46007 0.91837 0.0
H87 H 0.71756 0.53267 0.89363 0.0
H88 H 0.66328 0.39583 0.93024 0.0
C89 C 0.93801 0.66229 0.91331 0.0
C90 C 0.97902 0.68374 0.92689 0.0
C91 C 0.92728 0.65064 0.95605 0.0
C92 C 0.88667 0.62974 0.94252 0.0
N93 N 0.89297 0.63553 0.92142 0.0
N94 N 0.97253 0.67687 0.94797 0.0
H95 H 0.94244 0.66565 0.89648 0.0
C96 C 0.79312 0.47505 0.97226 0.0
O97 O 0.8302 0.50777 0.96346 0.0
O98 O 0.83802 0.64139 0.87502 0.0
H99 H 0.85072 0.60848 0.94877 0.0
H100 H 0.64889 0.5092 0.86614 0.0
H101 H 0.923 0.64585 0.97286 0.0
Zn102 Zn 0.07999 0.248 0.18088 0.0
C103 C 0.91669 0.2433 0.16947 0.0
N104 N 0.91589 0.21117 0.18671 0.0
C105 C 0.96759 0.2176 0.19437 0.0
N106 N 0.99909 0.25125 0.18228 0.0
N107 N 0.96654 0.26807 0.16677 0.0
C108 C 0.94325 0.32825 0.10803 0.0
O109 O 0.99279 0.30565 0.10614 0.0
O110 O 0.11121 0.25612 0.21043 0.0
Zn111 Zn 0.97458 0.33788 0.15231 0.0
N112 N 0.09824 0.17449 0.16931 0.0
C113 C 0.06274 0.09125 0.15385 0.0
C114 C 0.05468 0.14507 0.16123 0.0
C115 C 0.15069 0.15251 0.16933 0.0
N116 N 0.11445 0.06901 0.15427 0.0
C117 C 0.15901 0.09808 0.16161 0.0
O118 O 0.05349 0.35817 0.14498 0.0
C119 C 0.10381 0.34672 0.14953 0.0
O120 O 0.11613 0.30812 0.16251 0.0
H121 H 1.01358 0.16283 0.16051 0.0
H122 H 0.18508 0.17663 0.17551 0.0
C123 C 0.92291 0.44114 0.16289 0.0
C124 C 0.90381 0.48361 0.1763 0.0
C125 C 0.93768 0.43284 0.20556 0.0
C126 C 0.95526 0.39027 0.19221 0.0
N127 N 0.94818 0.39554 0.17114 0.0
N128 N 0.91236 0.4784 0.19734 0.0
H129 H 0.91812 0.44426 0.14604 0.0
C130 C 0.10279 0.30271 0.21939 0.0
O131 O 0.07602 0.34154 0.20901 0.0
O132 O 0.92642 0.3426 0.12617 0.0
H133 H 0.97429 0.35336 0.19861 0.0
H134 H 0.02816 0.06736 0.14771 0.0
H135 H 0.9436 0.42944 0.22235 0.0
Zn136 Zn 0.82568 0.99466 0.34159 0.0
C137 C 0.82799 0.15834 0.3532 0.0
N138 N 0.86039 0.15935 0.33602 0.0
C139 C 0.85507 0.10741 0.32852 0.0
N140 N 0.82169 0.07559 0.34059 0.0
N141 N 0.80405 0.10812 0.35603 0.0
C142 C 0.74365 0.12842 0.41574 0.0
O143 O 0.76533 0.07845 0.41748 0.0
O144 O 0.81875 0.96384 0.31185 0.0
Zn145 Zn 0.73492 0.09896 0.3711 0.0
N146 N 0.89915 0.97661 0.3536 0.0
C147 C 0.97992 1.01363 0.37041 0.0
C148 C 0.92626 0.02031 0.36267 0.0
C149 C 0.92343 0.92515 0.35289 0.0
N150 N 1.00443 0.96303 0.36931 0.0
C151 C 0.97781 0.91822 0.36096 0.0
O152 O 0.71538 0.01947 0.37806 0.0
C153 C 0.72646 0.96965 0.37265 0.0
O154 O 0.76458 0.95834 0.35933 0.0
H155 H 0.90678 0.06054 0.36386 0.0
H156 H 0.90128 0.89053 0.3459 0.0
C157 C 0.63072 0.15095 0.36127 0.0
C158 C 0.58788 0.1702 0.34804 0.0
C159 C 0.63813 0.13674 0.31854 0.0
C160 C 0.68094 0.11891 0.3317 0.0
N161 N 0.67616 0.12574 0.3528 0.0
N162 N 0.59275 0.16193 0.32697 0.0
H163 H 0.62797 0.15547 0.37814 0.0
C164 C 0.77273 0.97285 0.30256 0.0
O165 O 0.73382 1.00036 0.31264 0.0
O166 O 0.73053 0.14621 0.3976 0.0
H167 H 0.71768 0.09988 0.32514 0.0
H168 H 1.00193 0.04841 0.37734 0.0
H169 H 0.64117 0.13106 0.30172 0.0
Zn170 Zn 0.57582 0.31723 0.5922 0.0
C171 C 0.41632 0.34551 0.60575 0.0
N172 N 0.42064 0.38295 0.5902 0.0
C173 C 0.47059 0.37117 0.58189 0.0
N174 N 0.49572 0.32845 0.59186 0.0
N175 N 0.46116 0.31196 0.60684 0.0
C176 C 0.43589 0.24803 0.66448 0.0
O177 O 0.48617 0.26947 0.66544 0.0
O178 O 0.60789 0.3185 0.56257 0.0
Zn179 Zn 0.46142 0.23894 0.61985 0.0
N180 N 0.60477 0.37465 0.61099 0.0
C181 C 0.59474 0.40619 0.64624 0.0
C182 C 0.57882 0.37131 0.62992 0.0
C183 C 0.64667 0.41222 0.60767 0.0
N184 N 0.63687 0.44271 0.64318 0.0
C185 C 0.66364 0.44706 0.62442 0.0
O186 O 0.53704 0.20655 0.62609 0.0
C187 C 0.58649 0.20843 0.61897 0.0
O188 O 0.60161 0.24504 0.60566 0.0
H189 H 0.54643 0.34079 0.63242 0.0
H190 H 0.66759 0.41359 0.59263 0.0
C191 C 0.40141 0.14127 0.60793 0.0
C192 C 0.37881 0.10186 0.59394 0.0
C193 C 0.41014 0.15676 0.56531 0.0
C194 C 0.43188 0.19596 0.57927 0.0
N195 N 0.42742 0.18728 0.60028 0.0
N196 N 0.3843 0.1107 0.57293 0.0
H197 H 0.39947 0.1351 0.62474 0.0
C198 C 0.59244 0.27698 0.55156 0.0
O199 O 0.55807 0.24083 0.56002 0.0
O200 O 0.41584 0.23509 0.64665 0.0
H201 H 0.45259 0.23269 0.5734 0.0
H202 H 0.57441 0.40366 0.66137 0.0
H203 H 0.41382 0.16288 0.54854 0.0
Zn204 Zn 0.25086 0.07419 0.84193 0.0
C205 C 0.24845 0.91076 0.85279 0.0
N206 N 0.21785 0.90953 0.83513 0.0
C207 C 0.22395 0.96139 0.82765 0.0
N208 N 0.25587 0.99343 0.84023 0.0
N209 N 0.27208 0.961 0.85586 0.0
C210 C 0.33076 0.93871 0.91502 0.0
O211 O 0.30754 0.98801 0.91669 0.0
O212 O 0.2577 0.10662 0.81249 0.0
Zn213 Zn 0.34141 0.96931 0.8707 0.0
N214 N 0.1772 0.09086 0.85374 0.0
C215 C 0.0941 0.0536 0.86867 0.0
C216 C 0.14789 0.04643 0.86113 0.0
C217 C 0.15509 0.14321 0.85453 0.0
N218 N 0.07174 0.10526 0.86905 0.0
C219 C 0.10065 0.15061 0.86239 0.0
O220 O 0.36078 0.04841 0.87801 0.0
C221 C 0.34905 0.09863 0.87346 0.0
O222 O 0.31059 0.11074 0.86037 0.0
H223 H 0.16566 1.00532 0.86114 0.0
H224 H 0.17908 0.17826 0.84887 0.0
C225 C 0.44541 0.91783 0.86049 0.0
C226 C 0.48823 0.8991 0.84716 0.0
C227 C 0.43776 0.93298 0.81782 0.0
C228 C 0.39492 0.95027 0.83107 0.0
N229 N 0.39983 0.94304 0.85215 0.0
N230 N 0.48331 0.90782 0.82613 0.0
H231 H 0.44826 0.91286 0.87734 0.0
C232 C 0.30302 0.0971 0.8028 0.0
O233 O 0.3418 0.06817 0.81235 0.0
O234 O 0.34574 0.92164 0.89698 0.0
H235 H 0.35805 0.9692 0.82461 0.0
H236 H 0.07031 0.01837 0.87427 0.0
H237 H 0.43461 0.93902 0.80103 0.0
Zn238 Zn 0.60805 0.83659 0.11934 0.0
C239 C 0.60577 0.70602 0.08026 0.0
N240 N 0.65697 0.69773 0.08808 0.0
C241 C 0.65955 0.73513 0.10373 0.0
N242 N 0.61238 0.76508 0.10535 0.0
N243 N 0.57804 0.74642 0.09064 0.0
C244 C 0.47819 0.79348 0.05164 0.0
O245 O 0.51039 0.83089 0.06055 0.0
O246 O 0.65404 0.84084 0.14609 0.0
Zn247 Zn 0.49724 0.75184 0.09174 0.0
N248 N 0.63913 0.89129 0.10036 0.0
C249 C 0.65306 0.92601 0.06577 0.0
C250 C 0.63319 0.88486 0.07927 0.0
C251 C 0.66503 0.9368 0.10849 0.0
N252 N 0.67883 0.97159 0.07388 0.0
C253 C 0.68592 0.97806 0.09495 0.0
O254 O 0.46757 0.82152 0.106 0.0
C255 C 0.48118 0.85905 0.11921 0.0
O256 O 0.53085 0.86422 0.12588 0.0
H257 H 0.61288 0.84832 0.07302 0.0
H258 H 0.66841 0.94107 0.12536 0.0
C259 C 0.4269 0.65723 0.10711 0.0
C260 C 0.41292 0.61884 0.12309 0.0
C261 C 0.49198 0.64781 0.14263 0.0
C262 C 0.50493 0.68637 0.12716 0.0
N263 N 0.47263 0.69054 0.10969 0.0
N264 N 0.44622 0.61549 0.14033 0.0
H265 H 0.40078 0.66205 0.09339 0.0
C266 C 0.63556 0.82602 0.16394 0.0
O267 O 0.58629 0.80239 0.16507 0.0
O268 O 0.46476 0.75057 0.06221 0.0
H269 H 0.53998 0.71389 0.12935 0.0
H270 H 0.64816 0.92171 0.04895 0.0
H271 H 0.51743 0.64437 0.15659 0.0
C272 C 0.33931 0.31269 0.40978 0.0
C273 C 0.33557 0.36864 0.40386 0.0
C274 C 0.36983 0.27466 0.39767 0.0
C275 C 0.39804 0.29365 0.37951 0.0
C276 C 0.38835 0.34841 0.37212 0.0
C277 C 0.35707 0.38538 0.38445 0.0
C278 C 0.37758 0.21622 0.4058 0.0
C279 C 0.41709 0.37056 0.35279 0.0
C280 C 0.54466 0.2376 0.37323 0.0
C281 C 0.53878 0.20043 0.3564 0.0
C282 C 0.49915 0.2682 0.38072 0.0
C283 C 0.44611 0.26122 0.37127 0.0
C284 C 0.43973 0.22362 0.35432 0.0
C285 C 0.48632 0.19402 0.34695 0.0
C286 C 0.50809 0.30845 0.39868 0.0
C287 C 0.38375 0.21451 0.34409 0.0
H288 H 0.32301 0.29994 0.42492 0.0
H289 H 0.3554 0.42897 0.38011 0.0
H290 H 0.378 0.1857 0.39271 0.0
H291 H 0.4182 0.21333 0.41404 0.0
H292 H 0.34424 0.20451 0.41705 0.0
H293 H 0.39526 0.40765 0.34643 0.0
H294 H 0.46022 0.38299 0.35697 0.0
H295 H 0.41967 0.33846 0.34032 0.0
H296 H 0.58526 0.24394 0.38027 0.0
H297 H 0.4816 0.16538 0.3339 0.0
H298 H 0.48197 0.29623 0.41228 0.0
H299 H 0.49524 0.35096 0.39392 0.0
H300 H 0.55221 0.30997 0.4039 0.0
H301 H 0.35353 0.19905 0.3559 0.0
H302 H 0.38584 0.18414 0.33095 0.0
H303 H 0.36727 0.25446 0.33799 0.0
C304 C 0.31477 0.05455 0.61932 0.0
C305 C 0.34913 0.05156 0.60157 0.0
C306 C 0.28579 1.00765 0.62652 0.0
C307 C 0.29161 0.95612 0.61586 0.0
C308 C 0.32607 0.95277 0.59788 0.0
C309 C 0.35406 1.00072 0.59083 0.0
C310 C 0.2488 1.01342 0.64561 0.0
C311 C 0.33392 0.89847 0.58631 0.0
C312 C 0.2497 0.84331 0.65357 0.0
C313 C 0.19277 0.83911 0.64915 0.0
C314 C 0.2847 0.87623 0.64105 0.0
C315 C 0.26168 0.90632 0.62403 0.0
C316 C 0.20576 0.89638 0.61799 0.0
C317 C 0.17186 0.86271 0.63067 0.0
C318 C 0.34449 0.88421 0.64768 0.0
C319 C 0.17938 0.92706 0.59989 0.0
H320 H 0.30962 0.09393 0.6274 0.0
H321 H 0.38059 0.99824 0.57709 0.0
H322 H 0.20576 1.00004 0.64173 0.0
H323 H 0.2641 0.98605 0.65838 0.0
H324 H 0.24733 0.05682 0.65162 0.0
H325 H 0.36009 0.90334 0.57205 0.0
H326 H 0.35396 0.86768 0.59684 0.0
H327 H 0.29302 0.88094 0.58162 0.0
H328 H 0.26574 0.82534 0.66796 0.0
H329 H 0.12756 0.86057 0.62749 0.0
H330 H 0.34838 0.92385 0.65653 0.0
H331 H 0.37231 0.88681 0.63382 0.0
H332 H 0.35892 0.84982 0.65798 0.0
H333 H 0.16731 0.96939 0.60519 0.0
H334 H 0.14137 0.90539 0.59418 0.0
H335 H 0.20885 0.93175 0.58661 0.0
C336 C 0.53094 0.83009 0.87168 0.0
C337 C 0.53726 0.86873 0.85541 0.0
C338 C 0.57636 0.79926 0.87906 0.0
C339 C 0.62987 0.80778 0.87017 0.0
C340 C 0.6367 0.84717 0.85385 0.0
C341 C 0.59005 0.87652 0.84643 0.0
C342 C 0.56679 0.75716 0.89633 0.0
C343 C 0.69264 0.85805 0.84389 0.0
C344 C 0.7309 0.75294 0.90985 0.0
C345 C 0.73512 0.69755 0.90324 0.0
C346 C 0.70314 0.7924 0.8975 0.0
C347 C 0.6777 0.77523 0.87852 0.0
C348 C 0.68886 0.72141 0.87047 0.0
C349 C 0.71772 0.68297 0.88299 0.0
C350 C 0.69513 0.85047 0.906 0.0
C351 C 0.66428 0.70218 0.84992 0.0
H352 H 0.49006 0.82279 0.87833 0.0
H353 H 0.59506 0.90612 0.83373 0.0
H354 H 0.58153 0.71551 0.89124 0.0
H355 H 0.59095 0.76906 0.91049 0.0
H356 H 0.52222 0.7538 0.90081 0.0
H357 H 0.69535 0.90133 0.83786 0.0
H358 H 0.72752 0.85098 0.85499 0.0
H359 H 0.69798 0.82953 0.83033 0.0
H360 H 0.74451 0.76411 0.92555 0.0
H361 H 0.72057 0.63991 0.87797 0.0
H362 H 0.653 0.85398 0.91302 0.0
H363 H 0.69825 0.88162 0.89319 0.0
H364 H 0.72633 0.86062 0.91831 0.0
H365 H 0.61882 0.69561 0.85187 0.0
H366 H 0.68326 0.66257 0.84445 0.0
H367 H 0.67022 0.73429 0.83763 0.0
C368 C 0.81953 0.22825 0.15808 0.0
C369 C 0.87569 0.23413 0.15269 0.0
C370 C 0.78327 0.19704 0.14543 0.0
C371 C 0.8043 0.17027 0.12727 0.0
C372 C 0.85921 0.18202 0.12044 0.0
C373 C 0.89437 0.21397 0.1333 0.0
C374 C 0.72453 0.18711 0.15294 0.0
C375 C 0.8835 0.15483 0.10115 0.0
C376 C 0.75256 0.02234 0.12012 0.0
C377 C 0.71589 0.02755 0.10312 0.0
C378 C 0.78191 0.06845 0.12784 0.0
C379 C 0.77401 0.12141 0.11849 0.0
C380 C 0.73721 0.12702 0.10127 0.0
C381 C 0.70893 0.07981 0.09365 0.0
C382 C 0.82149 0.06029 0.14604 0.0
C383 C 0.72711 0.18289 0.09115 0.0
H384 H 0.80525 0.24359 0.17317 0.0
H385 H 0.93814 0.2174 0.12933 0.0
H386 H 0.69494 0.1864 0.13957 0.0
H387 H 0.72227 0.14604 0.16086 0.0
H388 H 0.7111 0.21951 0.16432 0.0
H389 H 0.89709 0.11202 0.10519 0.0
H390 H 0.85229 0.15161 0.08838 0.0
H391 H 0.92025 0.17817 0.09524 0.0
H392 H 0.75918 0.98187 0.12719 0.0
H393 H 0.68061 0.08395 0.08048 0.0
H394 H 0.80726 0.08496 0.15976 0.0
H395 H 0.86368 0.07537 0.14177 0.0
H396 H 0.82467 1.01599 0.15087 0.0
H397 H 0.7079 0.21157 0.10272 0.0
H398 H 0.69931 0.1798 0.07725 0.0
H399 H 0.76712 0.20189 0.08621 0.0
C400 C 0.04466 0.33017 0.40098 0.0
C401 C 0.03878 0.36765 0.41771 0.0
C402 C 0.99907 0.2996 0.39348 0.0
C403 C 0.94596 0.30696 0.4028 0.0
C404 C 0.93961 0.34474 0.41969 0.0
C405 C 0.98628 0.37431 0.42708 0.0
C406 C 1.00798 0.25912 0.3756 0.0
C407 C 0.88356 0.35425 0.42978 0.0
C408 C 0.83979 0.25641 0.36385 0.0
C409 C 0.83545 0.20046 0.36971 0.0
C410 C 0.87022 0.29421 0.37613 0.0
C411 C 0.89772 0.27496 0.3944 0.0
C412 C 0.88733 0.22024 0.40172 0.0
C413 C 0.85611 0.18352 0.38923 0.0
C414 C 0.8787 0.35264 0.36807 0.0
C415 C 0.9153 0.19786 0.42117 0.0
H416 H 0.08529 0.32365 0.39401 0.0
H417 H 0.98158 0.4032 0.44004 0.0
H418 H 0.99417 0.21683 0.3803 0.0
H419 H 0.98262 0.27174 0.36185 0.0
H420 H 0.05226 0.25685 0.37065 0.0
H421 H 0.88588 0.38396 0.44314 0.0
H422 H 0.85395 0.37079 0.41797 0.0
H423 H 0.86616 0.3143 0.43554 0.0
H424 H 0.82403 0.26935 0.34866 0.0
H425 H 0.85377 0.13994 0.39358 0.0
H426 H 0.91956 0.35529 0.36001 0.0
H427 H 0.879 0.38309 0.38118 0.0
H428 H 0.84578 0.3646 0.35669 0.0
H429 H 0.95841 0.18507 0.41717 0.0
H430 H 0.89292 0.16094 0.42744 0.0
H431 H 0.91787 0.22994 0.43366 0.0
C432 C 0.18586 0.49045 0.67684 0.0
C433 C 0.1946 0.54447 0.66907 0.0
C434 C 0.21877 0.4455 0.67001 0.0
C435 C 0.26152 0.45495 0.65516 0.0
C436 C 0.27168 0.50972 0.64782 0.0
C437 C 0.23829 0.55368 0.65489 0.0
C438 C 0.20667 0.38781 0.67818 0.0
C439 C 0.31726 0.52191 0.6321 0.0
C440 C 0.38578 0.36604 0.64189 0.0
C441 C 0.37184 0.35 0.62143 0.0
C442 C 0.3473 0.39482 0.65446 0.0
C443 C 0.29422 0.40806 0.64612 0.0
C444 C 0.27786 0.38533 0.62654 0.0
C445 C 0.31717 0.35684 0.61434 0.0
C446 C 0.36626 0.41715 0.67542 0.0
C447 C 0.22137 0.3973 0.61721 0.0
H448 H 0.15234 0.48302 0.68788 0.0
H449 H 0.2467 0.59543 0.64931 0.0
H450 H 0.18832 0.36218 0.66543 0.0
H451 H 0.24564 0.36699 0.68323 0.0
H452 H 0.17712 0.38844 0.6916 0.0
H453 H 0.32119 0.56706 0.62865 0.0
H454 H 0.35783 0.50663 0.6381 0.0
H455 H 0.30859 0.49972 0.61716 0.0
H456 H 0.42852 0.36201 0.64716 0.0
H457 H 0.30672 0.34484 0.59838 0.0
H458 H 0.33169 0.41759 0.68696 0.0
H459 H 0.38098 0.46062 0.6734 0.0
H460 H 0.40117 0.39215 0.6819 0.0
H461 H 0.21127 0.36822 0.60417 0.0
H462 H 0.22094 0.44036 0.61091 0.0
H463 H 0.18834 0.39435 0.62931 0.0
C464 C 0.21753 0.88931 0.88882 0.0
C465 C 0.23788 0.87009 0.86954 0.0
C466 C 0.18482 0.8548 0.9016 0.0
C467 C 0.17247 0.79999 0.89481 0.0
C468 C 0.1993 0.77834 0.87677 0.0
C469 C 0.23132 0.81397 0.86419 0.0
C470 C 0.1576 0.87971 0.92078 0.0
C471 C 0.18867 0.71967 0.8693 0.0
C472 C 0.08084 0.70599 0.92836 0.0
C473 C 0.02871 0.71333 0.91878 0.0
C474 C 0.12836 0.73372 0.9208 0.0
C475 C 0.12322 0.77038 0.90353 0.0
C476 C 0.07039 0.77871 0.8941 0.0
C477 C 0.02393 0.74986 0.90176 0.0
C478 C 0.18406 0.72325 0.93104 0.0
C479 C 0.06278 0.81827 0.87588 0.0
H480 H 0.22149 0.93306 0.89276 0.0
H481 H 0.24686 0.79926 0.84918 0.0
H482 H 0.11507 0.8939 0.91658 0.0
H483 H 0.15366 0.84871 0.93357 0.0
H484 H 0.18137 0.91617 0.92673 0.0
H485 H 0.22096 0.7057 0.85797 0.0
H486 H 0.18753 0.69025 0.8827 0.0
H487 H 0.14759 0.71782 0.86134 0.0
H488 H 0.08463 0.67774 0.94154 0.0
H489 H 0.98355 0.75673 0.89462 0.0
H490 H 0.2033 0.76312 0.93602 0.0
H491 H 0.21273 0.70377 0.91952 0.0
H492 H 0.1806 0.69553 0.94493 0.0
H493 H 0.0777 0.86044 0.88026 0.0
H494 H 0.01862 0.82142 0.87082 0.0
H495 H 0.08792 0.8041 0.86228 0.0
C496 C 0.83475 0.52587 0.1517 0.0
C497 C 0.87309 0.53244 0.1681 0.0
C498 C 0.80394 0.57109 0.14419 0.0
C499 C 0.81195 0.62458 0.15315 0.0
C500 C 0.85065 0.63165 0.1697 0.0
C501 C 0.88042 0.58527 0.17714 0.0
C502 C 0.76249 0.56137 0.12668 0.0
C503 C 0.86097 0.68814 0.17935 0.0
C504 C 0.75835 0.72686 0.11362 0.0
C505 C 0.70272 0.73079 0.11992 0.0
C506 C 0.79733 0.69843 0.12599 0.0
C507 C 0.77948 0.67232 0.14475 0.0
C508 C 0.72507 0.68258 0.15242 0.0
C509 C 0.68718 0.71186 0.13983 0.0
C510 C 0.85541 0.69013 0.11755 0.0
C511 C 0.70413 0.65606 0.17238 0.0
H512 H 0.8278 0.48495 0.145 0.0
H513 H 0.91002 0.59044 0.18985 0.0
H514 H 0.72046 0.57529 0.13164 0.0
H515 H 0.77437 0.58613 0.11268 0.0
H516 H 0.75996 0.51689 0.12197 0.0
H517 H 0.87771 0.71685 0.16726 0.0
H518 H 0.82134 0.70633 0.18507 0.0
H519 H 0.89089 0.68627 0.19264 0.0
H520 H 0.77009 0.74116 0.09809 0.0
H521 H 0.64378 0.71372 0.14446 0.0
H522 H 0.85797 0.64892 0.10972 0.0
H523 H 0.88656 0.69079 0.13041 0.0
H524 H 0.86646 0.72259 0.10585 0.0
H525 H 0.69124 0.6126 0.16897 0.0
H526 H 0.66753 0.67873 0.17876 0.0
H527 H 0.73703 0.65467 0.18458 0.0
C528 C 0.14571 0.75389 0.56757 0.0
C529 C 0.1585 0.73054 0.58715 0.0
C530 C 0.17114 0.73447 0.54911 0.0
C531 C 0.21011 0.69033 0.5502 0.0
C532 C 0.22536 0.66852 0.57004 0.0
C533 C 0.19954 0.68904 0.58829 0.0
C534 C 0.15409 0.75932 0.52831 0.0
C535 C 0.26664 0.62142 0.57191 0.0
C536 C 0.21327 0.59865 0.50165 0.0
C537 C 0.26025 0.6186 0.49097 0.0
C538 C 0.19789 0.62026 0.52127 0.0
C539 C 0.22997 0.66336 0.53045 0.0
C540 C 0.27863 0.68243 0.52011 0.0
C541 C 0.2934 0.65957 0.50051 0.0
C542 C 0.14619 0.59805 0.53187 0.0
C543 C 0.31389 0.72829 0.52939 0.0
H544 H 0.11456 0.78639 0.56657 0.0
H545 H 0.20986 0.67082 0.60336 0.0
H546 H 0.1914 0.77078 0.519 0.0
H547 H 0.13041 0.72802 0.5191 0.0
H548 H 0.12765 0.79688 0.53028 0.0
H549 H 0.2787 0.61339 0.58848 0.0
H550 H 0.24813 0.58281 0.56534 0.0
H551 H 0.30473 0.6306 0.5627 0.0
H552 H 0.18786 0.56642 0.49454 0.0
H553 H 0.32987 0.67506 0.49236 0.0
H554 H 0.11441 0.63142 0.53291 0.0
H555 H 0.15597 0.58476 0.54814 0.0
H556 H 0.12783 0.56216 0.52329 0.0
H557 H 0.28972 0.76761 0.52971 0.0
H558 H 0.35269 0.73536 0.52029 0.0
H559 H 0.32516 0.71828 0.54585 0.0
C560 C 0.84689 0.70355 0.83627 0.0
C561 C 0.87869 0.65612 0.84086 0.0
C562 C 0.85169 0.73054 0.81672 0.0
C563 C 0.88825 0.70887 0.80126 0.0
C564 C 0.92025 0.66094 0.80584 0.0
C565 C 0.91531 0.63545 0.82556 0.0
C566 C 0.81725 0.78186 0.81262 0.0
C567 C 0.95944 0.63612 0.78982 0.0
C568 C 0.86698 0.73475 0.74293 0.0
C569 C 0.91061 0.77169 0.73832 0.0
C570 C 0.8577 0.7159 0.76351 0.0
C571 C 0.89249 0.73479 0.78 0.0
C572 C 0.93478 0.77432 0.77565 0.0
C573 C 0.94365 0.79195 0.75485 0.0
C574 C 0.81227 0.67369 0.76743 0.0
C575 C 0.97217 0.7964 0.79279 0.0
H576 H 0.81854 0.71989 0.848 0.0
H577 H 0.94 0.59877 0.8289 0.0
H578 H 0.84228 0.81429 0.80457 0.0
H579 H 0.78187 0.77095 0.80219 0.0
H580 H 0.8002 0.79967 0.82737 0.0
H581 H 0.98123 0.59861 0.79583 0.0
H582 H 0.936 0.62442 0.77545 0.0
H583 H 0.99114 0.66736 0.78517 0.0
H584 H 0.84106 0.71896 0.73033 0.0
H585 H 0.9772 0.82082 0.75151 0.0
H586 H 0.78463 0.68807 0.78028 0.0
H587 H 0.83108 0.63373 0.77252 0.0
H588 H 0.78657 0.66584 0.75323 0.0
H589 H 0.94777 0.80653 0.80709 0.0
H590 H 0.99503 0.83423 0.78773 0.0
H591 H 1.00308 0.76409 0.79711 0.0
C592 C 0.77582 0.40677 1.00155 0.0
C593 C 0.80298 0.4543 0.99388 0.0
C594 C 0.79076 0.38352 0.02107 0.0
C595 C 0.83355 0.40864 0.03316 0.0
C596 C 0.85871 0.45839 0.02597 0.0
C597 C 0.84321 0.48046 1.00646 0.0
C598 C 0.76254 0.33079 0.02831 0.0
C599 C 0.90395 0.48707 0.03843 0.0
C600 C 0.86255 0.37617 0.09063 0.0
C601 C 0.91013 0.34244 0.08907 0.0
C602 C 0.83512 0.39571 0.07256 0.0
C603 C 0.85568 0.38112 0.05245 0.0
C604 C 0.90173 0.34454 0.05082 0.0
C605 C 0.92835 0.3257 0.06912 0.0
C606 C 0.7861 0.43445 0.07504 0.0
C607 C 0.92487 0.32766 0.02971 0.0
H608 H 0.74453 0.38646 0.99195 0.0
H609 H 0.86377 0.51775 1.00081 0.0
H610 H 0.79265 0.29583 0.02776 0.0
H611 H 0.74853 0.33507 0.04483 0.0
H612 H 0.72611 0.31989 0.01836 0.0
H613 H 0.91652 0.52743 0.03137 0.0
H614 H 0.88978 0.49474 0.05476 0.0
H615 H 0.94114 0.4598 0.03929 0.0
H616 H 0.84793 0.3892 0.10597 0.0
H617 H 0.96468 0.29923 0.06774 0.0
H618 H 0.75188 0.42249 0.06423 0.0
H619 H 0.79897 0.47744 0.07091 0.0
H620 H 0.76991 0.43475 0.09138 0.0
H621 H 0.89111 0.31179 0.01943 0.0
H622 H 0.95748 0.2951 0.03108 0.0
H623 H 0.94331 0.36454 0.02186 0.0
C624 C 0.10175 0.35969 0.25216 0.0
C625 C 0.12334 0.31434 0.24093 0.0
C626 C 0.12275 0.37427 0.27198 0.0
C627 C 0.16701 0.34317 0.28078 0.0
C628 C 0.18795 0.29625 0.26983 0.0
C629 C 0.16559 0.28214 0.25007 0.0
C630 C 0.09846 0.424 0.28324 0.0
C631 C 0.23517 0.26214 0.27866 0.0
C632 C 0.25424 0.42668 0.3194 0.0
C633 C 0.23157 0.41051 0.33875 0.0
C634 C 0.23563 0.40286 0.3005 0.0
C635 C 0.19295 0.36211 0.30088 0.0
C636 C 0.17175 0.34367 0.32043 0.0
C637 C 0.19148 0.36791 0.33913 0.0
C638 C 0.25985 0.42329 0.28003 0.0
C639 C 0.12609 0.30053 0.32158 0.0
H640 H 0.06856 0.38432 0.24535 0.0
H641 H 0.1824 0.24697 0.24149 0.0
H642 H 0.08537 0.41216 0.29933 0.0
H643 H 0.13059 0.45696 0.28479 0.0
H644 H 0.06199 0.4417 0.27486 0.0
H645 H 0.24423 0.22483 0.26893 0.0
H646 H 0.27335 0.28808 0.27956 0.0
H647 H 0.22526 0.24849 0.29487 0.0
H648 H 0.2856 0.45913 0.31896 0.0
H649 H 0.17371 0.35505 0.35401 0.0
H650 H 0.22764 0.44661 0.27118 0.0
H651 H 0.27285 0.38758 0.27012 0.0
H652 H 0.2963 0.45106 0.28246 0.0
H653 H 0.08679 0.31851 0.31544 0.0
H654 H 0.1187 0.28604 0.3379 0.0
H655 H 0.13641 0.26405 0.31163 0.0
C656 C 0.70919 0.88069 0.18296 0.0
C657 C 0.66612 0.8411 0.18343 0.0
C658 C 0.73332 0.90081 0.20163 0.0
C659 C 0.71437 0.88046 0.22124 0.0
C660 C 0.67318 0.8382 0.22172 0.0
C661 C 0.64941 0.81926 0.20285 0.0
C662 C 0.77689 0.94604 0.20037 0.0
C663 C 0.65222 0.81482 0.24225 0.0
C664 C 0.79362 0.90898 0.27216 0.0
C665 C 0.76159 0.9518 0.28103 0.0
C666 C 0.77972 0.88606 0.25246 0.0
C667 C 0.73318 0.90697 0.24128 0.0
C668 C 0.70229 0.95178 0.2498 0.0
C669 C 0.71666 0.97337 0.26956 0.0
C670 C 0.81363 0.83827 0.24393 0.0
C671 C 0.65294 0.97605 0.23831 0.0
H672 H 0.72243 0.89786 0.16804 0.0
H673 H 0.61661 0.78828 0.20336 0.0
H674 H 0.75915 0.98569 0.20629 0.0
H675 H 0.81312 0.93574 0.21044 0.0
H676 H 0.79171 0.95274 0.18404 0.0
H677 H 0.62424 0.77849 0.23991 0.0
H678 H 0.68767 0.8019 0.25229 0.0
H679 H 0.62896 0.84747 0.2509 0.0
H680 H 0.82845 0.89215 0.28091 0.0
H681 H 0.69213 1.00697 0.27615 0.0
H682 H 0.8276 0.84745 0.22769 0.0
H683 H 0.78742 0.80026 0.24318 0.0
H684 H 0.85074 0.82933 0.25378 0.0
H685 H 0.66516 0.98843 0.22218 0.0
H686 H 0.63539 1.01296 0.24647 0.0
H687 H 0.61973 0.94414 0.23685 0.0
C688 C 0.58796 0.22706 0.51724 0.0
C689 C 0.61413 0.26679 0.53005 0.0
C690 C 0.61059 0.21152 0.4978 0.0
C691 C 0.66096 0.23609 0.49089 0.0
C692 C 0.68624 0.27826 0.50326 0.0
C693 C 0.66243 0.29326 0.52269 0.0
C694 C 0.58171 0.16696 0.48505 0.0
C695 C 0.73964 0.30583 0.49636 0.0
C696 C 0.74424 0.14157 0.45478 0.0
C697 C 0.72874 0.16085 0.43484 0.0
C698 C 0.72479 0.16761 0.47314 0.0
C699 C 0.68879 0.21413 0.47159 0.0
C700 C 0.6753 0.2356 0.45151 0.0
C701 C 0.69547 0.20877 0.43339 0.0
C702 C 0.74052 0.14345 0.4942 0.0
C703 C 0.63714 0.28508 0.4491 0.0
H704 H 0.55014 0.20699 0.52263 0.0
H705 H 0.68279 0.32415 0.53246 0.0
H706 H 0.57472 0.18161 0.46875 0.0
H707 H 0.60854 0.12945 0.48416 0.0
H708 H 0.54098 0.15473 0.49191 0.0
H709 H 0.75099 0.3416 0.50658 0.0
H710 H 0.77406 0.27509 0.49679 0.0
H711 H 0.73596 0.32066 0.47993 0.0
H712 H 0.77029 0.10493 0.4561 0.0
H713 H 0.68332 0.22416 0.41806 0.0
H714 H 0.70306 0.12531 0.50177 0.0
H715 H 0.75651 0.1766 0.50474 0.0
H716 H 0.77263 0.11041 0.49282 0.0
H717 H 0.59386 0.2725 0.45292 0.0
H718 H 0.63768 0.30188 0.43286 0.0
H719 H 0.649 0.31877 0.46017 0.0
C720 C 0.28221 0.16336 0.77322 0.0
C721 C 0.31343 0.11903 0.78138 0.0
C722 C 0.29551 0.187 0.75361 0.0
C723 C 0.34059 0.1653 0.74181 0.0
C724 C 0.37058 0.11901 0.74962 0.0
C725 C 0.35685 0.09672 0.7693 0.0
C726 C 0.26263 0.23636 0.74586 0.0
C727 C 0.41831 0.09388 0.73743 0.0
C728 C 0.36163 0.19466 0.68358 0.0
C729 C 0.40597 0.2328 0.68407 0.0
C730 C 0.33808 0.17406 0.70226 0.0
C731 C 0.35896 0.19248 0.72189 0.0
C732 C 0.4015 0.23337 0.72242 0.0
C733 C 0.42463 0.2528 0.70353 0.0
C734 C 0.29302 0.13032 0.70095 0.0
C735 C 0.42454 0.25468 0.74298 0.0
H736 H 0.24854 0.18075 0.78245 0.0
H737 H 0.3807 0.06196 0.77535 0.0
H738 H 0.28999 0.27356 0.74525 0.0
H739 H 0.24736 0.22867 0.72967 0.0
H740 H 0.22646 0.24583 0.75612 0.0
H741 H 0.43512 0.05588 0.74506 0.0
H742 H 0.40465 0.08297 0.7213 0.0
H743 H 0.45248 0.12475 0.73599 0.0
H744 H 0.3469 0.17891 0.66862 0.0
H745 H 0.45846 0.28267 0.70405 0.0
H746 H 0.25779 0.14109 0.71144 0.0
H747 H 0.30984 0.08976 0.70632 0.0
H748 H 0.27695 0.12514 0.6847 0.0
H749 H 0.39019 0.26805 0.75347 0.0
H750 H 0.45353 0.29024 0.74075 0.0
H751 H 0.44727 0.22073 0.75107 0.0
C752 C 0.48202 0.8447 0.01768 0.0
C753 C 0.45705 0.8034 0.03006 0.0
C754 C 0.45987 0.85961 0.9981 0.0
C755 C 0.41121 0.83278 0.99065 0.0
C756 C 0.38718 0.78919 1.00261 0.0
C757 C 0.41052 0.77485 0.02219 0.0
C758 C 0.48738 0.90579 0.9858 0.0
C759 C 0.33556 0.75932 0.99513 0.0
C760 C 0.32688 0.92433 0.95394 0.0
C761 C 0.34503 0.9063 0.93414 0.0
C762 C 0.34569 0.89859 0.97242 0.0
C763 C 0.38378 0.8537 0.97114 0.0
C764 C 0.39991 0.8333 0.95117 0.0
C765 C 0.38027 0.85976 0.93291 0.0
C766 C 0.32713 0.92151 0.99337 0.0
C767 C 0.44033 0.78554 0.94906 0.0
H768 H 0.51852 0.86641 0.02348 0.0
H769 H 0.39112 0.74275 0.03164 0.0
H770 H 0.49624 0.8918 0.96953 0.0
H771 H 0.4588 0.94194 0.98474 0.0
H772 H 0.52696 0.9199 0.99311 0.0
H773 H 0.32531 0.72281 1.0051 0.0
H774 H 0.29972 0.7884 0.99537 0.0
H775 H 0.34091 0.74508 0.97867 0.0
H776 H 0.29923 0.95983 0.95507 0.0
H777 H 0.39443 0.84532 0.91769 0.0
H778 H 0.36301 0.94142 1.0014 0.0
H779 H 0.31207 0.88741 1.00363 0.0
H780 H 0.29348 0.95288 0.99171 0.0
H781 H 0.48252 0.79956 0.95382 0.0
H782 H 0.44259 0.76964 0.93269 0.0
H783 H 0.4284 0.7508 0.95961 0.0
C784 C 0.65954 0.93193 0.39941 0.0
C785 C 0.6908 0.92413 0.38099 0.0
C786 C 0.62296 0.89055 0.40677 0.0
C787 C 0.61654 0.84053 0.39524 0.0
C788 C 0.64807 0.83239 0.37667 0.0
C789 C 0.68518 0.87396 0.3699 0.0
C790 C 0.59119 0.90035 0.42689 0.0
C791 C 0.64202 0.78 0.36374 0.0
C792 C 0.56378 0.70557 0.41906 0.0
C793 C 0.50891 0.7035 0.41163 0.0
C794 C 0.59814 0.75162 0.415 0.0
C795 C 0.57765 0.79605 0.40263 0.0
C796 C 0.52132 0.7953 0.39589 0.0
C797 C 0.4874 0.74913 0.40064 0.0
C798 C 0.65735 0.7512 0.42297 0.0
C799 C 0.49801 0.84138 0.38243 0.0
H800 H 0.66372 0.9705 0.40812 0.0
H801 H 0.70865 0.86777 0.35555 0.0
H802 H 0.54578 0.89935 0.42375 0.0
H803 H 0.60027 0.86659 0.43826 0.0
H804 H 0.60178 0.94092 0.43427 0.0
H805 H 0.66829 0.78072 0.34938 0.0
H806 H 0.65381 0.74323 0.37326 0.0
H807 H 0.59792 0.77441 0.35897 0.0
H808 H 0.5805 0.67004 0.42744 0.0
H809 H 0.4453 0.74704 0.39453 0.0
H810 H 0.66774 0.7916 0.43047 0.0
H811 H 0.68636 0.74536 0.4096 0.0
H812 H 0.66463 0.71732 0.4345 0.0
H813 H 0.50678 0.88255 0.3896 0.0
H814 H 0.45236 0.83722 0.38009 0.0
H815 H 0.51858 0.84064 0.36683 0.0
C816 C 0.61709 0.13477 0.64452 0.0
C817 C 0.62802 0.16732 0.62667 0.0
C818 C 0.65707 0.09754 0.65246 0.0
C819 C 0.70907 0.09225 0.64219 0.0
C820 C 0.71966 0.12371 0.6238 0.0
C821 C 0.67924 0.16101 0.61635 0.0
C822 C 0.64436 0.06521 0.67219 0.0
C823 C 0.77434 0.11899 0.61223 0.0
C824 C 0.84223 0.05225 0.67024 0.0
C825 C 0.85089 0.99783 0.66302 0.0
C826 C 0.7942 0.08202 0.66476 0.0
C827 C 0.75426 0.05719 0.65134 0.0
C828 C 0.76114 1.00096 0.64503 0.0
C829 C 0.80939 0.97173 0.65107 0.0
C830 C 0.78818 0.14142 0.67221 0.0
C831 C 0.71974 0.97302 0.63064 0.0
H832 H 0.57769 0.13928 0.65264 0.0
H833 H 0.68797 0.18547 0.60245 0.0
H834 H 0.65207 0.0202 0.66965 0.0
H835 H 0.67249 0.07906 0.685 0.0
H836 H 0.60061 0.07087 0.67744 0.0
H837 H 0.77461 0.14334 0.59741 0.0
H838 H 0.80867 0.13425 0.62238 0.0
H839 H 0.78319 0.07478 0.60845 0.0
H840 H 0.87442 0.07247 0.67945 0.0
H841 H 0.81644 0.92996 0.64519 0.0
H842 H 0.74578 0.14865 0.67854 0.0
H843 H 0.79405 0.17015 0.65875 0.0
H844 H 0.81912 0.15222 0.68453 0.0
H845 H 0.67655 0.98047 0.63612 0.0
H846 H 0.72684 0.92743 0.62953 0.0
H847 H 0.72338 0.9911 0.61467 0.0
C848 C 0.58329 0.32274 0.88275 0.0
C849 C 0.58589 0.35629 0.90074 0.0
C850 C 0.54429 0.27959 0.88099 0.0
C851 C 0.50598 0.27017 0.8975 0.0
C852 C 0.50955 0.30271 0.91607 0.0
C853 C 0.54985 0.34532 0.91754 0.0
C854 C 0.5429 0.24534 0.86107 0.0
C855 C 0.46923 0.29424 0.93394 0.0
C856 C 0.3739 0.19984 0.8779 0.0
C857 C 0.38487 0.14367 0.88226 0.0
C858 C 0.41129 0.24195 0.88403 0.0
C859 C 0.46119 0.22763 0.89463 0.0
C860 C 0.47106 0.17141 0.90005 0.0
C861 C 0.43277 0.13023 0.8939 0.0
C862 C 0.39879 0.3015 0.87817 0.0
C863 C 0.52376 0.15417 0.91121 0.0
H864 H 0.61122 0.33119 0.86976 0.0
H865 H 0.55128 0.37178 0.93133 0.0
H866 H 0.545 0.20034 0.86488 0.0
H867 H 0.50311 0.25261 0.85267 0.0
H868 H 0.57779 0.25568 0.85031 0.0
H869 H 0.4806 0.31925 0.94799 0.0
H870 H 0.4268 0.30644 0.92882 0.0
H871 H 0.46745 0.24968 0.93843 0.0
H872 H 0.33688 0.21088 0.8691 0.0
H873 H 0.44175 0.08709 0.89751 0.0
H874 H 0.4279 0.3152 0.86567 0.0
H875 H 0.4051 0.32933 0.89188 0.0
H876 H 0.35551 0.30671 0.87234 0.0
H877 H 0.55966 0.1588 0.90039 0.0
H878 H 0.52206 0.11026 0.91662 0.0
H879 H 0.53167 0.18144 0.92496 0.0
C880 C 0.21971 1.01602 0.16728 0.0
C881 C 0.21425 0.07118 0.16048 0.0
C882 C 0.26728 0.98471 0.16248 0.0
C883 C 0.30991 1.0087 0.15008 0.0
C884 C 0.30592 0.06542 0.14409 0.0
C885 C 0.25817 0.09621 0.14952 0.0
C886 C 0.27027 0.92486 0.16961 0.0
C887 C 0.35011 0.0924 0.13068 0.0
C888 C 0.44679 0.92958 0.14531 0.0
C889 C 0.43805 0.89836 0.12693 0.0
C890 C 0.40591 0.96632 0.15291 0.0
C891 C 0.3554 0.97269 0.14171 0.0
C892 C 0.34689 0.94221 0.12291 0.0
C893 C 0.38803 0.90513 0.11586 0.0
C894 C 0.41622 0.9973 0.17318 0.0
C895 C 0.29393 0.94826 0.11032 0.0
H896 H 0.1856 0.99665 0.17572 0.0
H897 H 0.25354 0.13859 0.14395 0.0
H898 H 0.26535 0.89686 0.15586 0.0
H899 H 0.31146 0.91596 0.17673 0.0
H900 H 0.2373 0.91465 0.18122 0.0
H901 H 0.34424 0.13814 0.12944 0.0
H902 H 0.39216 0.08404 0.13714 0.0
H903 H 0.34866 0.07431 0.11465 0.0
H904 H 0.48525 0.92455 0.15401 0.0
H905 H 0.3811 0.88168 0.10154 0.0
H906 H 0.38512 0.98433 0.1851 0.0
H907 H 0.41096 0.0427 0.17074 0.0
H908 H 0.45856 0.98958 0.17956 0.0
H909 H 0.25795 0.93356 0.11973 0.0
H910 H 0.29515 0.92423 0.09542 0.0
H911 H 0.28653 0.99273 0.10657 0.0
C912 C 0.06163 0.86129 0.35335 0.0
C913 C 1.00736 0.86423 0.36134 0.0
C914 C 0.096 0.81537 0.35755 0.0
C915 C 0.07621 0.77198 0.37061 0.0
C916 C 0.02042 0.77357 0.37793 0.0
C917 C 0.98643 0.81957 0.37305 0.0
C918 C 0.15457 0.81488 0.34896 0.0
C919 C 0.99783 0.72864 0.39212 0.0
C920 C 0.15736 0.63582 0.37429 0.0
C921 C 0.19011 0.64464 0.39228 0.0
C922 C 0.12051 0.67692 0.36692 0.0
C923 C 0.11535 0.72776 0.37802 0.0
C924 C 0.1484 0.73693 0.39616 0.0
C925 C 0.18571 0.69558 0.40293 0.0
C926 C 0.08708 0.66593 0.34727 0.0
C927 C 0.14378 0.79023 0.40863 0.0
H928 H 0.07795 0.89611 0.34444 0.0
H929 H 0.94486 0.82237 0.3796 0.0
H930 H 0.18464 0.82148 0.36195 0.0
H931 H 0.1641 0.77391 0.34176 0.0
H932 H 0.16121 0.84789 0.33701 0.0
H933 H 0.95242 0.73325 0.39491 0.0
H934 H 1.00574 0.68691 0.38529 0.0
H935 H 0.01963 0.73039 0.40747 0.0
H936 H 0.16056 0.59666 0.3659 0.0
H937 H 0.21033 0.70259 0.41696 0.0
H938 H 0.09551 0.69882 0.33547 0.0
H939 H 0.04195 0.66745 0.3509 0.0
H940 H 0.09677 0.62479 0.34018 0.0
H941 H 0.15506 0.82625 0.39861 0.0
H942 H 0.17119 0.79034 0.42268 0.0
H943 H 0.10012 0.7964 0.41383 0.0
C944 C 0.71439 0.52678 0.60718 0.0
C945 C 0.71091 0.48663 0.62309 0.0
C946 C 0.75427 0.56991 0.60826 0.0
C947 C 0.79175 0.57225 0.62549 0.0
C948 C 0.78972 0.53019 0.64102 0.0
C949 C 0.74913 0.48838 0.63971 0.0
C950 C 0.75477 0.61418 0.59149 0.0
C951 C 0.82944 0.53015 0.65943 0.0
C952 C 0.9282 0.65232 0.62552 0.0
C953 C 0.91634 0.69662 0.63927 0.0
C954 C 0.88716 0.61339 0.61983 0.0
C955 C 0.83254 0.61892 0.62787 0.0
C956 C 0.81928 0.66562 0.64056 0.0
C957 C 0.86132 0.70374 0.64619 0.0
C958 C 0.90339 0.5642 0.60638 0.0
C959 C 0.76137 0.67359 0.64923 0.0
H960 H 0.68431 0.52603 0.59449 0.0
H961 H 0.74652 0.45733 0.65203 0.0
H962 H 0.74203 0.65458 0.59844 0.0
H963 H 0.79742 0.61968 0.58515 0.0
H964 H 0.72612 0.60413 0.57832 0.0
H965 H 0.82424 0.49285 0.66954 0.0
H966 H 0.8731 0.53152 0.65377 0.0
H967 H 0.82256 0.56781 0.66918 0.0
H968 H 0.97036 0.64634 0.6199 0.0
H969 H 0.8514 0.73793 0.65665 0.0
H970 H 0.87243 0.55742 0.59371 0.0
H971 H 0.90406 0.52605 0.61618 0.0
H972 H 0.94515 0.5696 0.59916 0.0
H973 H 0.72985 0.66796 0.63667 0.0
H974 H 0.75582 0.71542 0.65639 0.0
H975 H 0.75312 0.64172 0.66144 0.0
C976 C 0.01804 0.21123 0.85769 0.0
C977 C 0.07345 0.20561 0.86422 0.0
C978 C 0.98685 0.25864 0.86283 0.0
C979 C 1.01125 0.30098 0.8753 0.0
C980 C 0.0681 0.29673 0.88112 0.0
C981 C 0.09876 0.24914 0.87535 0.0
C982 C 0.92683 0.26192 0.85587 0.0
C983 C 0.09551 0.34062 0.89458 0.0
C984 C 0.9328 0.43825 0.87968 0.0
C985 C 0.90135 0.43008 0.89802 0.0
C986 C 0.96957 0.39717 0.87228 0.0
C987 C 0.97569 0.34691 0.88362 0.0
C988 C 0.94507 0.33898 0.90241 0.0
C989 C 0.908 0.38039 0.90928 0.0
C990 C 1.0007 0.40692 0.85202 0.0
C991 C 0.95085 0.28629 0.91514 0.0
H992 H 0.99845 0.17746 0.84911 0.0
H993 H 0.14134 0.24441 0.88071 0.0
H994 H 0.8991 0.25767 0.86971 0.0
H995 H 0.91816 0.30299 0.84864 0.0
H996 H 0.91604 0.22876 0.8444 0.0
H997 H 0.14118 0.33427 0.89589 0.0
H998 H 0.08763 0.38272 0.88811 0.0
H999 H 0.07728 0.33946 0.91059 0.0
H1000 H 0.92781 0.47633 0.8708 0.0
H1001 H 0.88434 0.37387 0.92356 0.0
H1002 H 0.9872 0.37601 0.8401 0.0
H1003 H 0.04603 0.40099 0.85446 0.0
H1004 H 0.99361 0.44935 0.84564 0.0
H1005 H 0.9357 0.25025 0.90584 0.0
H1006 H 0.92699 0.28808 0.93006 0.0
H1007 H 0.99531 0.27859 0.91886 0.0
C1008 C 0.34958 0.54893 0.10567 0.0
C1009 C 0.36215 0.58372 0.12271 0.0
C1010 C 0.30672 0.50888 0.10715 0.0
C1011 C 0.2755 0.50427 0.126 0.0
C1012 C 0.28653 0.54133 0.1428 0.0
C1013 C 0.32991 0.58009 0.141 0.0
C1014 C 0.29654 0.46991 0.08897 0.0
C1015 C 0.25375 0.53886 0.16303 0.0
C1016 C 0.135 0.43197 0.12996 0.0
C1017 C 0.14868 0.38302 0.14089 0.0
C1018 C 0.17615 0.47045 0.12397 0.0
C1019 C 0.23263 0.45971 0.12881 0.0
C1020 C 0.2471 0.40891 0.13872 0.0
C1021 C 0.20501 0.37137 0.14474 0.0
C1022 C 0.15871 0.52416 0.1136 0.0
C1023 C 0.30689 0.39542 0.14393 0.0
H1024 H 0.37499 0.55111 0.09163 0.0
H1025 H 0.33954 0.60704 0.15419 0.0
H1026 H 0.30844 0.42699 0.09355 0.0
H1027 H 0.25168 0.46907 0.08484 0.0
H1028 H 0.32082 0.48187 0.07482 0.0
H1029 H 0.26522 0.57287 0.17405 0.0
H1030 H 0.2085 0.54164 0.1597 0.0
H1031 H 0.26123 0.49844 0.17094 0.0
H1032 H 0.09172 0.44156 0.1268 0.0
H1033 H 0.21624 0.33357 0.15299 0.0
H1034 H 0.18499 0.53277 0.09966 0.0
H1035 H 0.16464 0.55918 0.12476 0.0
H1036 H 0.11436 0.52341 0.10864 0.0
H1037 H 0.33389 0.40239 0.13004 0.0
H1038 H 0.31203 0.35172 0.14927 0.0
H1039 H 0.32173 0.42353 0.15659 0.0
C1040 C 0.48855 0.45211 0.55885 0.0
C1041 C 0.48647 0.39423 0.5614 0.0
C1042 C 0.48004 0.47646 0.53904 0.0
C1043 C 0.46671 0.44201 0.5217 0.0
C1044 C 0.47001 0.3833 0.52389 0.0
C1045 C 0.48025 0.36019 0.54375 0.0
C1046 C 0.48039 0.53903 0.53719 0.0
C1047 C 0.45635 0.34464 0.50589 0.0
C1048 C 0.35447 0.48025 0.48267 0.0
C1049 C 0.38469 0.48016 0.46395 0.0
C1050 C 0.38143 0.47266 0.50202 0.0
C1051 C 0.44015 0.46585 0.50253 0.0
C1052 C 0.47124 0.47294 0.48383 0.0
C1053 C 0.44296 0.47876 0.46464 0.0
C1054 C 0.34632 0.46563 0.52151 0.0
C1055 C 0.53393 0.4694 0.48375 0.0
H1056 H 0.49258 0.47848 0.5726 0.0
H1057 H 0.47685 0.31554 0.54584 0.0
H1058 H 0.49578 0.55242 0.52155 0.0
H1059 H 0.43743 0.55511 0.53913 0.0
H1060 H 0.5068 0.55829 0.54955 0.0
H1061 H 0.46486 0.30038 0.50979 0.0
H1062 H 0.41163 0.3488 0.50178 0.0
H1063 H 0.48089 0.35581 0.49178 0.0
H1064 H 0.30934 0.48017 0.48201 0.0
H1065 H 0.46625 0.47807 0.45005 0.0
H1066 H 0.36219 0.49234 0.53438 0.0
H1067 H 0.3487 0.42178 0.52692 0.0
H1068 H 0.30191 0.47624 0.5187 0.0
H1069 H 0.55186 0.48682 0.49842 0.0
H1070 H 0.55179 0.49198 0.4701 0.0
H1071 H 0.54681 0.42519 0.48255 0.0
C1072 C 0.228 0.97244 0.78945 0.0
C1073 C 0.19736 0.97832 0.80795 0.0
C1074 C 0.20107 0.96289 0.77023 0.0
C1075 C 0.14203 0.96043 0.76956 0.0
C1076 C 0.1111 0.97385 0.78779 0.0
C1077 C 0.1392 0.98131 0.80696 0.0
C1078 C 0.23604 0.94925 0.7512 0.0
C1079 C 0.04834 0.9751 0.78756 0.0
C1080 C 0.09496 0.93925 0.71349 0.0
C1081 C 0.09257 0.88103 0.7125 0.0
C1082 C 0.10432 0.96673 0.73265 0.0
C1083 C 0.11421 0.93488 0.75095 0.0
C1084 C 0.10643 0.87628 0.7503 0.0
C1085 C 0.09502 0.85013 0.73103 0.0
C1086 C 0.10882 0.02936 0.7328 0.0
C1087 C 0.117 0.84025 0.76929 0.0
H1088 H 0.27298 0.9692 0.79039 0.0
H1089 H 0.1155 0.98508 0.82138 0.0
H1090 H 0.23004 0.90485 0.7469 0.0
H1091 H 0.22291 0.9747 0.73757 0.0
H1092 H 0.28111 0.95662 0.75401 0.0
H1093 H 0.03177 1.00078 0.80066 0.0
H1094 H 0.03239 0.99176 0.77247 0.0
H1095 H 0.03205 0.9322 0.78944 0.0
H1096 H 0.09387 0.96314 0.69906 0.0
H1097 H 0.09423 0.80504 0.73013 0.0
H1098 H 0.15288 0.04172 0.73044 0.0
H1099 H 0.09461 0.047 0.74799 0.0
H1100 H 0.0839 0.04798 0.7199 0.0
H1101 H 0.16252 0.83797 0.77219 0.0
H1102 H 0.10091 0.79726 0.76708 0.0
H1103 H 0.09747 0.85823 0.78352 0.0
C1104 C 0.59131 0.7117 0.04215 0.0
C1105 C 0.58887 0.67969 0.06043 0.0
C1106 C 0.60019 0.68656 0.02253 0.0
C1107 C 0.60609 0.62786 0.02124 0.0
C1108 C 0.59662 0.59509 0.03936 0.0
C1109 C 0.5893 0.62152 0.05887 0.0
C1110 C 0.60972 0.72346 1.00368 0.0
C1111 C 0.59929 0.5324 0.03855 0.0
C1112 C 0.62546 0.58373 0.96458 0.0
C1113 C 0.68361 0.58487 0.96297 0.0
C1114 C 0.59902 0.59139 0.98408 0.0
C1115 C 0.6317 0.60283 1.00208 0.0
C1116 C 0.69057 0.59889 1.00075 0.0
C1117 C 0.71573 0.58966 0.98117 0.0
C1118 C 0.53627 0.59204 0.98494 0.0
C1119 C 0.7274 0.61063 0.01948 0.0
H1120 H 0.59273 0.75669 0.04346 0.0
H1121 H 0.58821 0.59679 0.0731 0.0
H1122 H 0.65418 0.7213 0.99898 0.0
H1123 H 0.58449 0.70903 0.99016 0.0
H1124 H 0.59903 0.76762 1.00694 0.0
H1125 H 0.57587 0.51346 0.05179 0.0
H1126 H 0.58226 0.51628 0.02352 0.0
H1127 H 0.64327 0.51876 0.03977 0.0
H1128 H 0.60061 0.58096 0.95039 0.0
H1129 H 0.76065 0.59238 0.97979 0.0
H1130 H 0.52118 0.6354 0.98317 0.0
H1131 H 0.52082 0.57587 1.00018 0.0
H1132 H 0.518 0.56684 0.97202 0.0
H1133 H 0.72328 0.65504 0.02406 0.0
H1134 H 0.77196 0.6019 0.01615 0.0
H1135 H 0.71442 0.58511 0.0331 0.0
C1136 C 0.98488 0.13197 0.21479 0.0
C1137 C 0.98464 0.19022 0.2139 0.0
C1138 C 0.97701 0.1041 0.23395 0.0
C1139 C 0.96596 0.13549 0.2523 0.0
C1140 C 0.97156 0.19432 0.25173 0.0
C1141 C 0.98152 0.22093 0.23248 0.0
C1142 C 0.97537 0.04135 0.23406 0.0
C1143 C 0.96049 0.22977 0.27088 0.0
C1144 C 0.85258 0.09447 0.29037 0.0
C1145 C 0.88282 0.09054 0.30903 0.0
C1146 C 0.87975 0.1043 0.27122 0.0
C1147 C 0.93869 0.10901 0.27082 0.0
C1148 C 0.96952 0.09742 0.28925 0.0
C1149 C 0.94109 0.08963 0.30832 0.0
C1150 C 0.84485 0.11607 0.252 0.0
C1151 C 0.0323 0.09821 0.28934 0.0
H1152 H 0.98677 0.10824 0.20031 0.0
H1153 H 0.98043 0.26602 0.23164 0.0
H1154 H 0.99002 0.02442 0.2493 0.0
H1155 H 0.93199 0.02696 0.23152 0.0
H1156 H 1.00144 0.02389 0.22124 0.0
H1157 H 0.97012 0.27441 0.2681 0.0
H1158 H 0.91599 0.22608 0.27538 0.0
H1159 H 0.98573 0.21519 0.28435 0.0
H1160 H 0.80748 0.09614 0.29108 0.0
H1161 H 0.96444 0.08718 0.32287 0.0
H1162 H 0.85908 0.09045 0.23856 0.0
H1163 H 0.84959 0.16044 0.24749 0.0
H1164 H 0.79996 0.10743 0.25468 0.0
H1165 H 0.04948 0.08413 0.27406 0.0
H1166 H 0.04905 0.07124 0.30202 0.0
H1167 H 0.04719 0.14122 0.29229 0.0
loop_
_geom_bond_atom_site_label_1
_geom_bond_atom_site_label_2
_geom_bond_distance
_geom_bond_site_symmetry_2
_ccdc_geom_bond_type
Zn0 N4 2.020 . S
Zn0 O8 2.019 . S
Zn0 N10 2.119 . S
Zn0 O18 1.975 . S
C1 N2 1.334 . S
C1 N5 1.336 . S
N2 C1 1.334 . S
N2 C3 1.334 . S
C3 N2 1.334 . S
C3 N4 1.336 . S
N4 Zn0 2.020 . S
N4 C3 1.336 . S
N4 N5 1.354 . S
N5 C1 1.336 . S
N5 N4 1.354 . S
N5 Zn9 2.020 . S
C6 O7 1.244 . S
C6 O30 1.257 . S
O7 C6 1.244 . S
O8 Zn0 2.019 . S
O8 C28 1.257 . S
Zn9 N5 2.020 . S
Zn9 O16 1.975 . S
Zn9 N25 2.119 . S
Zn9 O30 2.019 . S
N10 Zn0 2.119 . S
N10 C12 1.334 . S
N10 C13 1.328 . S
C11 C12 1.391 . S
C11 N14 1.329 . S
C11 H32 0.930 . S
C12 N10 1.334 . S
C12 C11 1.391 . S
C12 H19 0.930 . S
C13 N10 1.328 . S
C13 C15 1.392 . S
C13 H20 0.930 . S
N14 C11 1.329 . S
N14 C15 1.331 . S
C15 C13 1.392 . S
C15 N14 1.331 . S
O16 Zn9 1.975 . S
O16 C17 1.252 . S
C17 O16 1.252 . S
C17 O18 1.252 . S
O18 Zn0 1.975 . S
O18 C17 1.252 . S
H19 C12 0.930 . S
H20 C13 0.930 . S
C21 C22 1.392 . S
C21 N25 1.328 . S
C21 H27 0.930 . S
C22 C21 1.392 . S
C22 N26 1.331 . S
C23 C24 1.391 . S
C23 N26 1.329 . S
C23 H33 0.930 . S
C24 C23 1.391 . S
C24 N25 1.334 . S
C24 H31 0.930 . S
N25 Zn9 2.119 . S
N25 C21 1.328 . S
N25 C24 1.334 . S
N26 C22 1.331 . S
N26 C23 1.329 . S
H27 C21 0.930 . S
C28 O8 1.257 . S
C28 O29 1.244 . S
O29 C28 1.244 . S
O30 C6 1.257 . S
O30 Zn9 2.019 . S
H31 C24 0.930 . S
H32 C11 0.930 . S
H33 C23 0.930 . S
Zn34 N38 2.020 1_655 S
Zn34 O42 2.019 . S
Zn34 N44 2.119 . S
Zn34 O52 1.975 . S
C35 N36 1.334 . S
C35 N39 1.336 . S
N36 C35 1.334 . S
N36 C37 1.334 . S
C37 N36 1.334 . S
C37 N38 1.336 . S
N38 Zn34 2.020 1_455 S
N38 C37 1.336 . S
N38 N39 1.354 . S
N39 C35 1.336 . S
N39 N38 1.354 . S
N39 Zn43 2.020 . S
C40 O41 1.244 . S
C40 O64 1.257 . S
O41 C40 1.244 . S
O42 Zn34 2.019 . S
O42 C62 1.257 . S
Zn43 N39 2.020 . S
Zn43 O50 1.975 1_455 S
Zn43 N59 2.119 . S
Zn43 O64 2.019 . S
N44 Zn34 2.119 . S
N44 C46 1.334 . S
N44 C47 1.328 . S
C45 C46 1.391 . S
C45 N48 1.329 . S
C45 H66 0.930 . S
C46 N44 1.334 . S
C46 C45 1.391 . S
C46 H53 0.930 . S
C47 N44 1.328 . S
C47 C49 1.392 . S
C47 H54 0.930 . S
N48 C45 1.329 . S
N48 C49 1.331 . S
C49 C47 1.392 . S
C49 N48 1.331 . S
O50 Zn43 1.975 1_655 S
O50 C51 1.252 . S
C51 O50 1.252 . S
C51 O52 1.252 . S
O52 Zn34 1.975 . S
O52 C51 1.252 . S
H53 C46 0.930 . S
H54 C47 0.930 . S
C55 C56 1.392 . S
C55 N59 1.328 . S
C55 H61 0.930 . S
C56 C55 1.392 . S
C56 N60 1.331 . S
C57 C58 1.391 . S
C57 N60 1.329 . S
C57 H67 0.930 . S
C58 C57 1.391 . S
C58 N59 1.334 . S
C58 H65 0.930 . S
N59 Zn43 2.119 . S
N59 C55 1.328 . S
N59 C58 1.334 . S
N60 C56 1.331 . S
N60 C57 1.329 . S
H61 C55 0.930 . S
C62 O42 1.257 . S
C62 O63 1.244 . S
O63 C62 1.244 . S
O64 C40 1.257 . S
O64 Zn43 2.019 . S
H65 C58 0.930 . S
H66 C45 0.930 . S
H67 C57 0.930 . S
Zn68 N72 2.020 . S
Zn68 O76 2.019 . S
Zn68 N78 2.119 . S
Zn68 O86 1.975 . S
C69 N70 1.334 . S
C69 N73 1.336 . S
N70 C69 1.334 . S
N70 C71 1.334 . S
C71 N70 1.334 . S
C71 N72 1.336 . S
N72 Zn68 2.020 . S
N72 C71 1.336 . S
N72 N73 1.354 . S
N73 C69 1.336 . S
N73 N72 1.354 . S
N73 Zn77 2.020 . S
C74 O75 1.244 . S
C74 O98 1.257 . S
O75 C74 1.244 . S
O76 Zn68 2.019 . S
O76 C96 1.257 . S
Zn77 N73 2.020 . S
Zn77 O84 1.975 . S
Zn77 N93 2.119 . S
Zn77 O98 2.019 . S
N78 Zn68 2.119 . S
N78 C80 1.334 . S
N78 C81 1.328 . S
C79 C80 1.391 . S
C79 N82 1.329 . S
C79 H100 0.930 . S
C80 N78 1.334 . S
C80 C79 1.391 . S
C80 H87 0.930 . S
C81 N78 1.328 . S
C81 C83 1.392 . S
C81 H88 0.930 . S
N82 C79 1.329 . S
N82 C83 1.331 . S
C83 C81 1.392 . S
C83 N82 1.331 . S
O84 Zn77 1.975 . S
O84 C85 1.252 . S
C85 O84 1.252 . S
C85 O86 1.252 . S
O86 Zn68 1.975 . S
O86 C85 1.252 . S
H87 C80 0.930 . S
H88 C81 0.930 . S
C89 C90 1.392 . S
C89 N93 1.328 . S
C89 H95 0.930 . S
C90 C89 1.392 . S
C90 N94 1.331 . S
C91 C92 1.391 . S
C91 N94 1.329 . S
C91 H101 0.930 . S
C92 C91 1.391 . S
C92 N93 1.334 . S
C92 H99 0.930 . S
N93 Zn77 2.119 . S
N93 C89 1.328 . S
N93 C92 1.334 . S
N94 C90 1.331 . S
N94 C91 1.329 . S
H95 C89 0.930 . S
C96 O76 1.257 . S
C96 O97 1.244 . S
O97 C96 1.244 . S
O98 C74 1.257 . S
O98 Zn77 2.019 . S
H99 C92 0.930 . S
H100 C79 0.930 . S
H101 C91 0.930 . S
Zn102 N106 2.020 1_455 S
Zn102 O110 2.019 . S
Zn102 N112 2.119 . S
Zn102 O120 1.975 . S
C103 N104 1.334 . S
C103 N107 1.336 . S
N104 C103 1.334 . S
N104 C105 1.334 . S
C105 N104 1.334 . S
C105 N106 1.336 . S
N106 Zn102 2.020 1_655 S
N106 C105 1.336 . S
N106 N107 1.354 . S
N107 C103 1.336 . S
N107 N106 1.354 . S
N107 Zn111 2.020 . S
C108 O109 1.244 . S
C108 O132 1.257 . S
O109 C108 1.244 . S
O110 Zn102 2.019 . S
O110 C130 1.257 . S
Zn111 N107 2.020 . S
Zn111 O118 1.975 1_655 S
Zn111 N127 2.119 . S
Zn111 O132 2.019 . S
N112 Zn102 2.119 . S
N112 C114 1.334 . S
N112 C115 1.328 . S
C113 C114 1.391 . S
C113 N116 1.329 . S
C113 H134 0.930 . S
C114 N112 1.334 . S
C114 C113 1.391 . S
C114 H121 0.930 . S
C115 N112 1.328 . S
C115 C117 1.392 . S
C115 H122 0.930 . S
N116 C113 1.329 . S
N116 C117 1.331 . S
C117 C115 1.392 . S
C117 N116 1.331 . S
O118 Zn111 1.975 1_455 S
O118 C119 1.252 . S
C119 O118 1.252 . S
C119 O120 1.252 . S
O120 Zn102 1.975 . S
O120 C119 1.252 . S
H121 C114 0.930 . S
H122 C115 0.930 . S
C123 C124 1.392 . S
C123 N127 1.328 . S
C123 H129 0.930 . S
C124 C123 1.392 . S
C124 N128 1.331 . S
C125 C126 1.391 . S
C125 N128 1.329 . S
C125 H135 0.930 . S
C126 C125 1.391 . S
C126 N127 1.334 . S
C126 H133 0.930 . S
N127 Zn111 2.119 . S
N127 C123 1.328 . S
N127 C126 1.334 . S
N128 C124 1.331 . S
N128 C125 1.329 . S
H129 C123 0.930 . S
C130 O110 1.257 . S
C130 O131 1.244 . S
O131 C130 1.244 . S
O132 C108 1.257 . S
O132 Zn111 2.019 . S
H133 C126 0.930 . S
H134 C113 0.930 . S
H135 C125 0.930 . S
Zn136 N140 2.020 1_565 S
Zn136 O144 2.019 . S
Zn136 N146 2.119 . S
Zn136 O154 1.975 . S
C137 N138 1.334 . S
C137 N141 1.336 . S
N138 C137 1.334 . S
N138 C139 1.334 . S
C139 N138 1.334 . S
C139 N140 1.336 . S
N140 Zn136 2.020 1_545 S
N140 C139 1.336 . S
N140 N141 1.354 . S
N141 C137 1.336 . S
N141 N140 1.354 . S
N141 Zn145 2.020 . S
C142 O143 1.244 . S
C142 O166 1.257 . S
O143 C142 1.244 . S
O144 Zn136 2.019 . S
O144 C164 1.257 . S
Zn145 N141 2.020 . S
Zn145 O152 1.975 1_545 S
Zn145 N161 2.119 . S
Zn145 O166 2.019 . S
N146 Zn136 2.119 . S
N146 C148 1.334 . S
N146 C149 1.328 . S
C147 C148 1.391 . S
C147 N150 1.329 . S
C147 H168 0.930 . S
C148 N146 1.334 . S
C148 C147 1.391 . S
C148 H155 0.930 . S
C149 N146 1.328 . S
C149 C151 1.392 . S
C149 H156 0.930 . S
N150 C147 1.329 . S
N150 C151 1.331 . S
C151 C149 1.392 . S
C151 N150 1.331 . S
O152 Zn145 1.975 1_565 S
O152 C153 1.252 . S
C153 O152 1.252 . S
C153 O154 1.252 . S
O154 Zn136 1.975 . S
O154 C153 1.252 . S
H155 C148 0.930 . S
H156 C149 0.930 . S
C157 C158 1.392 . S
C157 N161 1.328 . S
C157 H163 0.930 . S
C158 C157 1.392 . S
C158 N162 1.331 . S
C159 C160 1.391 . S
C159 N162 1.329 . S
C159 H169 0.930 . S
C160 C159 1.391 . S
C160 N161 1.334 . S
C160 H167 0.930 . S
N161 Zn145 2.119 . S
N161 C157 1.328 . S
N161 C160 1.334 . S
N162 C158 1.331 . S
N162 C159 1.329 . S
H163 C157 0.930 . S
C164 O144 1.257 . S
C164 O165 1.244 . S
O165 C164 1.244 . S
O166 C142 1.257 . S
O166 Zn145 2.019 . S
H167 C160 0.930 . S
H168 C147 0.930 . S
H169 C159 0.930 . S
Zn170 N174 2.020 . S
Zn170 O178 2.019 . S
Zn170 N180 2.119 . S
Zn170 O188 1.975 . S
C171 N172 1.334 . S
C171 N175 1.336 . S
N172 C171 1.334 . S
N172 C173 1.334 . S
C173 N172 1.334 . S
C173 N174 1.336 . S
N174 Zn170 2.020 . S
N174 C173 1.336 . S
N174 N175 1.354 . S
N175 C171 1.336 . S
N175 N174 1.354 . S
N175 Zn179 2.020 . S
C176 O177 1.244 . S
C176 O200 1.257 . S
O177 C176 1.244 . S
O178 Zn170 2.019 . S
O178 C198 1.257 . S
Zn179 N175 2.020 . S
Zn179 O186 1.975 . S
Zn179 N195 2.119 . S
Zn179 O200 2.019 . S
N180 Zn170 2.119 . S
N180 C182 1.334 . S
N180 C183 1.328 . S
C181 C182 1.391 . S
C181 N184 1.329 . S
C181 H202 0.930 . S
C182 N180 1.334 . S
C182 C181 1.391 . S
C182 H189 0.930 . S
C183 N180 1.328 . S
C183 C185 1.392 . S
C183 H190 0.930 . S
N184 C181 1.329 . S
N184 C185 1.331 . S
C185 C183 1.392 . S
C185 N184 1.331 . S
O186 Zn179 1.975 . S
O186 C187 1.252 . S
C187 O186 1.252 . S
C187 O188 1.252 . S
O188 Zn170 1.975 . S
O188 C187 1.252 . S
H189 C182 0.930 . S
H190 C183 0.930 . S
C191 C192 1.392 . S
C191 N195 1.328 . S
C191 H197 0.930 . S
C192 C191 1.392 . S
C192 N196 1.331 . S
C193 C194 1.391 . S
C193 N196 1.329 . S
C193 H203 0.930 . S
C194 C193 1.391 . S
C194 N195 1.334 . S
C194 H201 0.930 . S
N195 Zn179 2.119 . S
N195 C191 1.328 . S
N195 C194 1.334 . S
N196 C192 1.331 . S
N196 C193 1.329 . S
H197 C191 0.930 . S
C198 O178 1.257 . S
C198 O199 1.244 . S
O199 C198 1.244 . S
O200 C176 1.257 . S
O200 Zn179 2.019 . S
H201 C194 0.930 . S
H202 C181 0.930 . S
H203 C193 0.930 . S
Zn204 N208 2.020 1_545 S
Zn204 O212 2.019 . S
Zn204 N214 2.119 . S
Zn204 O222 1.975 . S
C205 N206 1.334 . S
C205 N209 1.336 . S
N206 C205 1.334 . S
N206 C207 1.334 . S
C207 N206 1.334 . S
C207 N208 1.336 . S
N208 Zn204 2.020 1_565 S
N208 C207 1.336 . S
N208 N209 1.354 . S
N209 C205 1.336 . S
N209 N208 1.354 . S
N209 Zn213 2.020 . S
C210 O211 1.244 . S
C210 O234 1.257 . S
O211 C210 1.244 . S
O212 Zn204 2.019 . S
O212 C232 1.257 . S
Zn213 N209 2.020 . S
Zn213 O220 1.975 1_565 S
Zn213 N229 2.119 . S
Zn213 O234 2.019 . S
N214 Zn204 2.119 . S
N214 C216 1.334 . S
N214 C217 1.328 . S
C215 C216 1.391 . S
C215 N218 1.329 . S
C215 H236 0.930 . S
C216 N214 1.334 . S
C216 C215 1.391 . S
C216 H223 0.930 . S
C217 N214 1.328 . S
C217 C219 1.392 . S
C217 H224 0.930 . S
N218 C215 1.329 . S
N218 C219 1.331 . S
C219 C217 1.392 . S
C219 N218 1.331 . S
O220 Zn213 1.975 1_545 S
O220 C221 1.252 . S
C221 O220 1.252 . S
C221 O222 1.252 . S
O222 Zn204 1.975 . S
O222 C221 1.252 . S
H223 C216 0.930 . S
H224 C217 0.930 . S
C225 C226 1.392 . S
C225 N229 1.328 . S
C225 H231 0.930 . S
C226 C225 1.392 . S
C226 N230 1.331 . S
C227 C228 1.391 . S
C227 N230 1.329 . S
C227 H237 0.930 . S
C228 C227 1.391 . S
C228 N229 1.334 . S
C228 H235 0.930 . S
N229 Zn213 2.119 . S
N229 C225 1.328 . S
N229 C228 1.334 . S
N230 C226 1.331 . S
N230 C227 1.329 . S
H231 C225 0.930 . S
C232 O212 1.257 . S
C232 O233 1.244 . S
O233 C232 1.244 . S
O234 C210 1.257 . S
O234 Zn213 2.019 . S
H235 C228 0.930 . S
H236 C215 0.930 . S
H237 C227 0.930 . S
Zn238 N242 2.020 . S
Zn238 O246 2.019 . S
Zn238 N248 2.119 . S
Zn238 O256 1.975 . S
C239 N240 1.334 . S
C239 N243 1.336 . S
N240 C239 1.334 . S
N240 C241 1.334 . S
C241 N240 1.334 . S
C241 N242 1.336 . S
N242 Zn238 2.020 . S
N242 C241 1.336 . S
N242 N243 1.354 . S
N243 C239 1.336 . S
N243 N242 1.354 . S
N243 Zn247 2.020 . S
C244 O245 1.244 . S
C244 O268 1.257 . S
O245 C244 1.244 . S
O246 Zn238 2.019 . S
O246 C266 1.257 . S
Zn247 N243 2.020 . S
Zn247 O254 1.975 . S
Zn247 N263 2.119 . S
Zn247 O268 2.019 . S
N248 Zn238 2.119 . S
N248 C250 1.334 . S
N248 C251 1.328 . S
C249 C250 1.391 . S
C249 N252 1.329 . S
C249 H270 0.930 . S
C250 N248 1.334 . S
C250 C249 1.391 . S
C250 H257 0.930 . S
C251 N248 1.328 . S
C251 C253 1.392 . S
C251 H258 0.930 . S
N252 C249 1.329 . S
N252 C253 1.331 . S
C253 C251 1.392 . S
C253 N252 1.331 . S
O254 Zn247 1.975 . S
O254 C255 1.252 . S
C255 O254 1.252 . S
C255 O256 1.252 . S
O256 Zn238 1.975 . S
O256 C255 1.252 . S
H257 C250 0.930 . S
H258 C251 0.930 . S
C259 C260 1.392 . S
C259 N263 1.328 . S
C259 H265 0.930 . S
C260 C259 1.392 . S
C260 N264 1.331 . S
C261 C262 1.391 . S
C261 N264 1.329 . S
C261 H271 0.930 . S
C262 C261 1.391 . S
C262 N263 1.334 . S
C262 H269 0.930 . S
N263 Zn247 2.119 . S
N263 C259 1.328 . S
N263 C262 1.334 . S
N264 C260 1.331 . S
N264 C261 1.329 . S
H265 C259 0.930 . S
C266 O246 1.257 . S
C266 O267 1.244 . S
O267 C266 1.244 . S
O268 C244 1.257 . S
O268 Zn247 2.019 . S
H269 C262 0.930 . S
H270 C249 0.930 . S
H271 C261 0.930 . S
C272 C273 1.391 . S
C272 C274 1.394 . S
C272 H288 0.931 . S
C273 C272 1.391 . S
C273 C277 1.376 . S
C274 C272 1.394 . S
C274 C275 1.369 . S
C274 C278 1.531 . S
C275 C274 1.369 . S
C275 C276 1.410 . S
C275 C283 1.503 . S
C276 C275 1.410 . S
C276 C277 1.392 . S
C276 C279 1.511 . S
C277 C273 1.376 . S
C277 C276 1.392 . S
C277 H289 0.929 . S
C278 C274 1.531 . S
C278 H290 0.960 . S
C278 H291 0.962 . S
C278 H292 0.960 . S
C279 C276 1.511 . S
C279 H293 0.961 . S
C279 H294 0.961 . S
C279 H295 0.961 . S
C280 C281 1.370 . S
C280 C282 1.363 . S
C280 H296 0.931 . S
C281 C280 1.370 . S
C281 C285 1.408 . S
C282 C280 1.363 . S
C282 C283 1.370 . S
C282 C286 1.524 . S
C283 C275 1.503 . S
C283 C282 1.370 . S
C283 C284 1.403 . S
C284 C283 1.403 . S
C284 C285 1.404 . S
C284 C287 1.539 . S
C285 C281 1.408 . S
C285 C284 1.404 . S
C285 H297 0.930 . S
C286 C282 1.524 . S
C286 H298 0.956 . S
C286 H299 0.961 . S
C286 H300 0.961 . S
C287 C284 1.539 . S
C287 H301 0.958 . S
C287 H302 0.961 . S
C287 H303 0.960 . S
H288 C272 0.931 . S
H289 C277 0.929 . S
H290 C278 0.960 . S
H291 C278 0.962 . S
H292 C278 0.960 . S
H293 C279 0.961 . S
H294 C279 0.961 . S
H295 C279 0.961 . S
H296 C280 0.931 . S
H297 C285 0.930 . S
H298 C286 0.956 . S
H299 C286 0.961 . S
H300 C286 0.961 . S
H301 C287 0.958 . S
H302 C287 0.961 . S
H303 C287 0.960 . S
C304 C305 1.391 . S
C304 C306 1.394 1_545 S
C304 H320 0.931 . S
C305 C304 1.391 . S
C305 C309 1.376 . S
C306 C304 1.394 1_565 S
C306 C307 1.369 . S
C306 C310 1.531 . S
C307 C306 1.369 . S
C307 C308 1.410 . S
C307 C315 1.503 . S
C308 C307 1.410 . S
C308 C309 1.392 1_565 S
C308 C311 1.511 . S
C309 C305 1.376 . S
C309 C308 1.392 1_545 S
C309 H321 0.929 . S
C310 C306 1.531 . S
C310 H322 0.960 . S
C310 H323 0.962 . S
C310 H324 0.960 1_565 S
C311 C308 1.511 . S
C311 H325 0.961 . S
C311 H326 0.961 . S
C311 H327 0.961 . S
C312 C313 1.370 . S
C312 C314 1.363 . S
C312 H328 0.931 . S
C313 C312 1.370 . S
C313 C317 1.408 . S
C314 C312 1.363 . S
C314 C315 1.370 . S
C314 C318 1.524 . S
C315 C307 1.503 . S
C315 C314 1.370 . S
C315 C316 1.403 . S
C316 C315 1.403 . S
C316 C317 1.404 . S
C316 C319 1.539 . S
C317 C313 1.408 . S
C317 C316 1.404 . S
C317 H329 0.930 . S
C318 C314 1.524 . S
C318 H330 0.956 . S
C318 H331 0.961 . S
C318 H332 0.961 . S
C319 C316 1.539 . S
C319 H333 0.958 . S
C319 H334 0.961 . S
C319 H335 0.960 . S
H320 C304 0.931 . S
H321 C309 0.929 . S
H322 C310 0.960 . S
H323 C310 0.962 . S
H324 C310 0.960 1_545 S
H325 C311 0.961 . S
H326 C311 0.961 . S
H327 C311 0.961 . S
H328 C312 0.931 . S
H329 C317 0.930 . S
H330 C318 0.956 . S
H331 C318 0.961 . S
H332 C318 0.961 . S
H333 C319 0.958 . S
H334 C319 0.961 . S
H335 C319 0.960 . S
C336 C337 1.391 . S
C336 C338 1.394 . S
C336 H352 0.931 . S
C337 C336 1.391 . S
C337 C341 1.376 . S
C338 C336 1.394 . S
C338 C339 1.369 . S
C338 C342 1.531 . S
C339 C338 1.369 . S
C339 C340 1.410 . S
C339 C347 1.503 . S
C340 C339 1.410 . S
C340 C341 1.392 . S
C340 C343 1.511 . S
C341 C337 1.376 . S
C341 C340 1.392 . S
C341 H353 0.929 . S
C342 C338 1.531 . S
C342 H354 0.960 . S
C342 H355 0.962 . S
C342 H356 0.960 . S
C343 C340 1.511 . S
C343 H357 0.961 . S
C343 H358 0.961 . S
C343 H359 0.961 . S
C344 C345 1.370 . S
C344 C346 1.363 . S
C344 H360 0.931 . S
C345 C344 1.370 . S
C345 C349 1.408 . S
C346 C344 1.363 . S
C346 C347 1.370 . S
C346 C350 1.524 . S
C347 C339 1.503 . S
C347 C346 1.370 . S
C347 C348 1.403 . S
C348 C347 1.403 . S
C348 C349 1.404 . S
C348 C351 1.539 . S
C349 C345 1.408 . S
C349 C348 1.404 . S
C349 H361 0.930 . S
C350 C346 1.524 . S
C350 H362 0.956 . S
C350 H363 0.961 . S
C350 H364 0.961 . S
C351 C348 1.539 . S
C351 H365 0.958 . S
C351 H366 0.961 . S
C351 H367 0.960 . S
H352 C336 0.931 . S
H353 C341 0.929 . S
H354 C342 0.960 . S
H355 C342 0.962 . S
H356 C342 0.960 . S
H357 C343 0.961 . S
H358 C343 0.961 . S
H359 C343 0.961 . S
H360 C344 0.931 . S
H361 C349 0.930 . S
H362 C350 0.956 . S
H363 C350 0.961 . S
H364 C350 0.961 . S
H365 C351 0.958 . S
H366 C351 0.961 . S
H367 C351 0.960 . S
C368 C369 1.391 . S
C368 C370 1.394 . S
C368 H384 0.931 . S
C369 C368 1.391 . S
C369 C373 1.376 . S
C370 C368 1.394 . S
C370 C371 1.369 . S
C370 C374 1.531 . S
C371 C370 1.369 . S
C371 C372 1.410 . S
C371 C379 1.503 . S
C372 C371 1.410 . S
C372 C373 1.392 . S
C372 C375 1.511 . S
C373 C369 1.376 . S
C373 C372 1.392 . S
C373 H385 0.929 . S
C374 C370 1.531 . S
C374 H386 0.960 . S
C374 H387 0.962 . S
C374 H388 0.960 . S
C375 C372 1.511 . S
C375 H389 0.961 . S
C375 H390 0.961 . S
C375 H391 0.961 . S
C376 C377 1.370 1_545 S
C376 C378 1.363 . S
C376 H392 0.931 . S
C377 C376 1.370 1_565 S
C377 C381 1.408 . S
C378 C376 1.363 . S
C378 C379 1.370 . S
C378 C382 1.524 . S
C379 C371 1.503 . S
C379 C378 1.370 . S
C379 C380 1.403 . S
C380 C379 1.403 . S
C380 C381 1.404 1_545 S
C380 C383 1.539 . S
C381 C377 1.408 . S
C381 C380 1.404 1_565 S
C381 H393 0.930 . S
C382 C378 1.524 . S
C382 H394 0.956 . S
C382 H395 0.961 . S
C382 H396 0.961 . S
C383 C380 1.539 . S
C383 H397 0.958 . S
C383 H398 0.961 1_545 S
C383 H399 0.960 . S
H384 C368 0.931 . S
H385 C373 0.929 . S
H386 C374 0.960 . S
H387 C374 0.962 . S
H388 C374 0.960 . S
H389 C375 0.961 . S
H390 C375 0.961 . S
H391 C375 0.961 . S
H392 C376 0.931 . S
H393 C381 0.930 . S
H394 C382 0.956 . S
H395 C382 0.961 . S
H396 C382 0.961 . S
H397 C383 0.958 . S
H398 C383 0.961 1_565 S
H399 C383 0.960 . S
C400 C401 1.391 . S
C400 C402 1.394 . S
C400 H416 0.931 . S
C401 C400 1.391 . S
C401 C405 1.376 1_455 S
C402 C400 1.394 . S
C402 C403 1.369 1_455 S
C402 C406 1.531 . S
C403 C402 1.369 1_655 S
C403 C404 1.410 . S
C403 C411 1.503 . S
C404 C403 1.410 . S
C404 C405 1.392 . S
C404 C407 1.511 . S
C405 C401 1.376 1_655 S
C405 C404 1.392 . S
C405 H417 0.929 . S
C406 C402 1.531 . S
C406 H418 0.960 1_455 S
C406 H419 0.962 . S
C406 H420 0.960 . S
C407 C404 1.511 . S
C407 H421 0.961 . S
C407 H422 0.961 . S
C407 H423 0.961 . S
C408 C409 1.370 . S
C408 C410 1.363 . S
C408 H424 0.931 . S
C409 C408 1.370 . S
C409 C413 1.408 . S
C410 C408 1.363 . S
C410 C411 1.370 . S
C410 C414 1.524 . S
C411 C403 1.503 . S
C411 C410 1.370 . S
C411 C412 1.403 . S
C412 C411 1.403 . S
C412 C413 1.404 . S
C412 C415 1.539 . S
C413 C409 1.408 . S
C413 C412 1.404 . S
C413 H425 0.930 . S
C414 C410 1.524 . S
C414 H426 0.956 . S
C414 H427 0.961 . S
C414 H428 0.961 . S
C415 C412 1.539 . S
C415 H429 0.958 . S
C415 H430 0.961 . S
C415 H431 0.960 . S
H416 C400 0.931 . S
H417 C405 0.929 . S
H418 C406 0.960 1_655 S
H419 C406 0.962 . S
H420 C406 0.960 . S
H421 C407 0.961 . S
H422 C407 0.961 . S
H423 C407 0.961 . S
H424 C408 0.931 . S
H425 C413 0.930 . S
H426 C414 0.956 . S
H427 C414 0.961 . S
H428 C414 0.961 . S
H429 C415 0.958 . S
H430 C415 0.961 . S
H431 C415 0.960 . S
C432 C433 1.391 . S
C432 C434 1.394 . S
C432 H448 0.931 . S
C433 C432 1.391 . S
C433 C437 1.376 . S
C434 C432 1.394 . S
C434 C435 1.369 . S
C434 C438 1.531 . S
C435 C434 1.369 . S
C435 C436 1.410 . S
C435 C443 1.503 . S
C436 C435 1.410 . S
C436 C437 1.392 . S
C436 C439 1.511 . S
C437 C433 1.376 . S
C437 C436 1.392 . S
C437 H449 0.929 . S
C438 C434 1.531 . S
C438 H450 0.960 . S
C438 H451 0.962 . S
C438 H452 0.960 . S
C439 C436 1.511 . S
C439 H453 0.961 . S
C439 H454 0.961 . S
C439 H455 0.961 . S
C440 C441 1.370 . S
C440 C442 1.363 . S
C440 H456 0.931 . S
C441 C440 1.370 . S
C441 C445 1.408 . S
C442 C440 1.363 . S
C442 C443 1.370 . S
C442 C446 1.524 . S
C443 C435 1.503 . S
C443 C442 1.370 . S
C443 C444 1.403 . S
C444 C443 1.403 . S
C444 C445 1.404 . S
C444 C447 1.539 . S
C445 C441 1.408 . S
C445 C444 1.404 . S
C445 H457 0.930 . S
C446 C442 1.524 . S
C446 H458 0.956 . S
C446 H459 0.961 . S
C446 H460 0.961 . S
C447 C444 1.539 . S
C447 H461 0.958 . S
C447 H462 0.961 . S
C447 H463 0.960 . S
H448 C432 0.931 . S
H449 C437 0.929 . S
H450 C438 0.960 . S
H451 C438 0.962 . S
H452 C438 0.960 . S
H453 C439 0.961 . S
H454 C439 0.961 . S
H455 C439 0.961 . S
H456 C440 0.931 . S
H457 C445 0.930 . S
H458 C446 0.956 . S
H459 C446 0.961 . S
H460 C446 0.961 . S
H461 C447 0.958 . S
H462 C447 0.961 . S
H463 C447 0.960 . S
C464 C465 1.391 . S
C464 C466 1.394 . S
C464 H480 0.931 . S
C465 C464 1.391 . S
C465 C469 1.376 . S
C466 C464 1.394 . S
C466 C467 1.369 . S
C466 C470 1.531 . S
C467 C466 1.369 . S
C467 C468 1.410 . S
C467 C475 1.503 . S
C468 C467 1.410 . S
C468 C469 1.392 . S
C468 C471 1.511 . S
C469 C465 1.376 . S
C469 C468 1.392 . S
C469 H481 0.929 . S
C470 C466 1.531 . S
C470 H482 0.960 . S
C470 H483 0.962 . S
C470 H484 0.960 . S
C471 C468 1.511 . S
C471 H485 0.961 . S
C471 H486 0.961 . S
C471 H487 0.961 . S
C472 C473 1.370 . S
C472 C474 1.363 . S
C472 H488 0.931 1_455 S
C473 C472 1.370 . S
C473 C477 1.410 . S
C474 C472 1.363 . S
C474 C475 1.370 . S
C474 C478 1.524 . S
C475 C467 1.503 . S
C475 C474 1.370 . S
C475 C476 1.403 . S
C476 C475 1.403 . S
C476 C477 1.404 . S
C476 C479 1.539 . S
C477 C473 1.410 . S
C477 C476 1.404 . S
C477 H489 0.930 . S
C478 C474 1.524 . S
C478 H490 0.956 . S
C478 H491 0.961 . S
C478 H492 0.961 . S
C479 C476 1.539 . S
C479 H493 0.958 . S
C479 H494 0.961 . S
C479 H495 0.960 . S
H480 C464 0.931 . S
H481 C469 0.929 . S
H482 C470 0.960 . S
H483 C470 0.962 . S
H484 C470 0.960 . S
H485 C471 0.961 . S
H486 C471 0.961 . S
H487 C471 0.961 . S
H488 C472 0.931 1_655 S
H489 C477 0.930 . S
H490 C478 0.956 . S
H491 C478 0.961 . S
H492 C478 0.961 . S
H493 C479 0.958 . S
H494 C479 0.961 . S
H495 C479 0.960 . S
C496 C497 1.391 . S
C496 C498 1.394 . S
C496 H512 0.931 . S
C497 C496 1.391 . S
C497 C501 1.376 . S
C498 C496 1.394 . S
C498 C499 1.369 . S
C498 C502 1.531 . S
C499 C498 1.369 . S
C499 C500 1.410 . S
C499 C507 1.503 . S
C500 C499 1.410 . S
C500 C501 1.392 . S
C500 C503 1.511 . S
C501 C497 1.376 . S
C501 C500 1.392 . S
C501 H513 0.929 . S
C502 C498 1.531 . S
C502 H514 0.960 . S
C502 H515 0.962 . S
C502 H516 0.960 . S
C503 C500 1.511 . S
C503 H517 0.961 . S
C503 H518 0.961 . S
C503 H519 0.961 . S
C504 C505 1.370 . S
C504 C506 1.363 . S
C504 H520 0.931 . S
C505 C504 1.370 . S
C505 C509 1.408 . S
C506 C504 1.363 . S
C506 C507 1.370 . S
C506 C510 1.524 . S
C507 C499 1.503 . S
C507 C506 1.370 . S
C507 C508 1.403 . S
C508 C507 1.403 . S
C508 C509 1.404 . S
C508 C511 1.539 . S
C509 C505 1.408 . S
C509 C508 1.404 . S
C509 H521 0.930 . S
C510 C506 1.524 . S
C510 H522 0.956 . S
C510 H523 0.961 . S
C510 H524 0.961 . S
C511 C508 1.539 . S
C511 H525 0.958 . S
C511 H526 0.961 . S
C511 H527 0.960 . S
H512 C496 0.931 . S
H513 C501 0.929 . S
H514 C502 0.960 . S
H515 C502 0.962 . S
H516 C502 0.960 . S
H517 C503 0.961 . S
H518 C503 0.961 . S
H519 C503 0.961 . S
H520 C504 0.931 . S
H521 C509 0.930 . S
H522 C510 0.956 . S
H523 C510 0.961 . S
H524 C510 0.961 . S
H525 C511 0.958 . S
H526 C511 0.961 . S
H527 C511 0.960 . S
C528 C529 1.391 . S
C528 C530 1.394 . S
C528 H544 0.931 . S
C529 C528 1.391 . S
C529 C533 1.376 . S
C530 C528 1.394 . S
C530 C531 1.369 . S
C530 C534 1.531 . S
C531 C530 1.369 . S
C531 C532 1.410 . S
C531 C539 1.503 . S
C532 C531 1.410 . S
C532 C533 1.392 . S
C532 C535 1.511 . S
C533 C529 1.376 . S
C533 C532 1.392 . S
C533 H545 0.929 . S
C534 C530 1.531 . S
C534 H546 0.960 . S
C534 H547 0.962 . S
C534 H548 0.960 . S
C535 C532 1.511 . S
C535 H549 0.961 . S
C535 H550 0.961 . S
C535 H551 0.961 . S
C536 C537 1.370 . S
C536 C538 1.363 . S
C536 H552 0.931 . S
C537 C536 1.370 . S
C537 C541 1.408 . S
C538 C536 1.363 . S
C538 C539 1.370 . S
C538 C542 1.524 . S
C539 C531 1.503 . S
C539 C538 1.370 . S
C539 C540 1.403 . S
C540 C539 1.403 . S
C540 C541 1.404 . S
C540 C543 1.539 . S
C541 C537 1.408 . S
C541 C540 1.404 . S
C541 H553 0.930 . S
C542 C538 1.524 . S
C542 H554 0.956 . S
C542 H555 0.961 . S
C542 H556 0.961 . S
C543 C540 1.539 . S
C543 H557 0.958 . S
C543 H558 0.961 . S
C543 H559 0.960 . S
H544 C528 0.931 . S
H545 C533 0.929 . S
H546 C534 0.960 . S
H547 C534 0.962 . S
H548 C534 0.960 . S
H549 C535 0.961 . S
H550 C535 0.961 . S
H551 C535 0.961 . S
H552 C536 0.931 . S
H553 C541 0.930 . S
H554 C542 0.956 . S
H555 C542 0.961 . S
H556 C542 0.961 . S
H557 C543 0.958 . S
H558 C543 0.961 . S
H559 C543 0.960 . S
C560 C561 1.391 . S
C560 C562 1.394 . S
C560 H576 0.931 . S
C561 C560 1.391 . S
C561 C565 1.376 . S
C562 C560 1.394 . S
C562 C563 1.369 . S
C562 C566 1.531 . S
C563 C562 1.369 . S
C563 C564 1.410 . S
C563 C571 1.503 . S
C564 C563 1.410 . S
C564 C565 1.392 . S
C564 C567 1.511 . S
C565 C561 1.376 . S
C565 C564 1.392 . S
C565 H577 0.929 . S
C566 C562 1.531 . S
C566 H578 0.960 . S
C566 H579 0.962 . S
C566 H580 0.960 . S
C567 C564 1.511 . S
C567 H581 0.961 . S
C567 H582 0.961 . S
C567 H583 0.961 . S
C568 C569 1.370 . S
C568 C570 1.363 . S
C568 H584 0.931 . S
C569 C568 1.370 . S
C569 C573 1.408 . S
C570 C568 1.363 . S
C570 C571 1.370 . S
C570 C574 1.524 . S
C571 C563 1.503 . S
C571 C570 1.370 . S
C571 C572 1.403 . S
C572 C571 1.403 . S
C572 C573 1.404 . S
C572 C575 1.539 . S
C573 C569 1.408 . S
C573 C572 1.404 . S
C573 H585 0.930 . S
C574 C570 1.524 . S
C574 H586 0.956 . S
C574 H587 0.961 . S
C574 H588 0.961 . S
C575 C572 1.539 . S
C575 H589 0.958 . S
C575 H590 0.961 . S
C575 H591 0.960 . S
H576 C560 0.931 . S
H577 C565 0.929 . S
H578 C566 0.960 . S
H579 C566 0.962 . S
H580 C566 0.960 . S
H581 C567 0.961 . S
H582 C567 0.961 . S
H583 C567 0.961 . S
H584 C568 0.931 . S
H585 C573 0.930 . S
H586 C574 0.956 . S
H587 C574 0.961 . S
H588 C574 0.961 . S
H589 C575 0.958 . S
H590 C575 0.961 . S
H591 C575 0.960 . S
C592 C593 1.391 . S
C592 C594 1.394 . S
C592 H608 0.931 . S
C593 C592 1.391 . S
C593 C597 1.376 . S
C594 C592 1.394 . S
C594 C595 1.369 1_556 S
C594 C598 1.531 . S
C595 C594 1.369 1_554 S
C595 C596 1.410 . S
C595 C603 1.503 . S
C596 C595 1.410 . S
C596 C597 1.392 1_554 S
C596 C599 1.511 . S
C597 C593 1.376 . S
C597 C596 1.392 1_556 S
C597 H609 0.929 . S
C598 C594 1.531 . S
C598 H610 0.960 1_556 S
C598 H611 0.962 1_556 S
C598 H612 0.960 . S
C599 C596 1.511 . S
C599 H613 0.961 . S
C599 H614 0.961 . S
C599 H615 0.961 . S
C600 C601 1.370 . S
C600 C602 1.363 . S
C600 H616 0.931 . S
C601 C600 1.370 . S
C601 C605 1.408 . S
C602 C600 1.363 . S
C602 C603 1.370 . S
C602 C606 1.524 . S
C603 C595 1.503 . S
C603 C602 1.370 . S
C603 C604 1.403 . S
C604 C603 1.403 . S
C604 C605 1.404 . S
C604 C607 1.539 1_655 S
C605 C601 1.408 . S
C605 C604 1.404 . S
C605 H617 0.930 1_655 S
C606 C602 1.524 . S
C606 H618 0.956 . S
C606 H619 0.961 . S
C606 H620 0.961 . S
C607 C604 1.539 1_455 S
C607 H621 0.958 . S
C607 H622 0.961 . S
C607 H623 0.960 1_455 S
H608 C592 0.931 . S
H609 C597 0.929 . S
H610 C598 0.960 1_554 S
H611 C598 0.962 1_554 S
H612 C598 0.960 . S
H613 C599 0.961 . S
H614 C599 0.961 . S
H615 C599 0.961 . S
H616 C600 0.931 . S
H617 C605 0.930 1_455 S
H618 C606 0.956 . S
H619 C606 0.961 . S
H620 C606 0.961 . S
H621 C607 0.958 . S
H622 C607 0.961 . S
H623 C607 0.960 1_655 S
C624 C625 1.391 . S
C624 C626 1.394 . S
C624 H640 0.931 . S
C625 C624 1.391 . S
C625 C629 1.376 . S
C626 C624 1.394 . S
C626 C627 1.369 . S
C626 C630 1.531 . S
C627 C626 1.369 . S
C627 C628 1.410 . S
C627 C635 1.503 . S
C628 C627 1.410 . S
C628 C629 1.392 . S
C628 C631 1.511 . S
C629 C625 1.376 . S
C629 C628 1.392 . S
C629 H641 0.929 . S
C630 C626 1.531 . S
C630 H642 0.960 . S
C630 H643 0.962 . S
C630 H644 0.960 . S
C631 C628 1.511 . S
C631 H645 0.961 . S
C631 H646 0.961 . S
C631 H647 0.961 . S
C632 C633 1.370 . S
C632 C634 1.363 . S
C632 H648 0.931 . S
C633 C632 1.370 . S
C633 C637 1.408 . S
C634 C632 1.363 . S
C634 C635 1.370 . S
C634 C638 1.524 . S
C635 C627 1.503 . S
C635 C634 1.370 . S
C635 C636 1.403 . S
C636 C635 1.403 . S
C636 C637 1.404 . S
C636 C639 1.539 . S
C637 C633 1.408 . S
C637 C636 1.404 . S
C637 H649 0.930 . S
C638 C634 1.524 . S
C638 H650 0.956 . S
C638 H651 0.961 . S
C638 H652 0.961 . S
C639 C636 1.539 . S
C639 H653 0.958 . S
C639 H654 0.961 . S
C639 H655 0.960 . S
H640 C624 0.931 . S
H641 C629 0.929 . S
H642 C630 0.960 . S
H643 C630 0.962 . S
H644 C630 0.960 . S
H645 C631 0.961 . S
H646 C631 0.961 . S
H647 C631 0.961 . S
H648 C632 0.931 . S
H649 C637 0.930 . S
H650 C638 0.956 . S
H651 C638 0.961 . S
H652 C638 0.961 . S
H653 C639 0.958 . S
H654 C639 0.961 . S
H655 C639 0.960 . S
C656 C657 1.391 . S
C656 C658 1.394 . S
C656 H672 0.931 . S
C657 C656 1.391 . S
C657 C661 1.376 . S
C658 C656 1.394 . S
C658 C659 1.369 . S
C658 C662 1.531 . S
C659 C658 1.369 . S
C659 C660 1.410 . S
C659 C667 1.503 . S
C660 C659 1.410 . S
C660 C661 1.392 . S
C660 C663 1.511 . S
C661 C657 1.376 . S
C661 C660 1.392 . S
C661 H673 0.929 . S
C662 C658 1.531 . S
C662 H674 0.960 . S
C662 H675 0.962 . S
C662 H676 0.960 . S
C663 C660 1.511 . S
C663 H677 0.961 . S
C663 H678 0.961 . S
C663 H679 0.961 . S
C664 C665 1.370 . S
C664 C666 1.363 . S
C664 H680 0.931 . S
C665 C664 1.370 . S
C665 C669 1.408 . S
C666 C664 1.363 . S
C666 C667 1.370 . S
C666 C670 1.524 . S
C667 C659 1.503 . S
C667 C666 1.370 . S
C667 C668 1.403 . S
C668 C667 1.403 . S
C668 C669 1.404 . S
C668 C671 1.539 . S
C669 C665 1.408 . S
C669 C668 1.404 . S
C669 H681 0.930 . S
C670 C666 1.524 . S
C670 H682 0.956 . S
C670 H683 0.961 . S
C670 H684 0.961 . S
C671 C668 1.539 . S
C671 H685 0.958 . S
C671 H686 0.961 . S
C671 H687 0.960 . S
H672 C656 0.931 . S
H673 C661 0.929 . S
H674 C662 0.960 . S
H675 C662 0.962 . S
H676 C662 0.960 . S
H677 C663 0.961 . S
H678 C663 0.961 . S
H679 C663 0.961 . S
H680 C664 0.931 . S
H681 C669 0.930 . S
H682 C670 0.956 . S
H683 C670 0.961 . S
H684 C670 0.961 . S
H685 C671 0.958 . S
H686 C671 0.961 . S
H687 C671 0.960 . S
C688 C689 1.391 . S
C688 C690 1.394 . S
C688 H704 0.931 . S
C689 C688 1.391 . S
C689 C693 1.376 . S
C690 C688 1.394 . S
C690 C691 1.369 . S
C690 C694 1.531 . S
C691 C690 1.369 . S
C691 C692 1.410 . S
C691 C699 1.503 . S
C692 C691 1.410 . S
C692 C693 1.392 . S
C692 C695 1.511 . S
C693 C689 1.376 . S
C693 C692 1.392 . S
C693 H705 0.929 . S
C694 C690 1.531 . S
C694 H706 0.960 . S
C694 H707 0.962 . S
C694 H708 0.960 . S
C695 C692 1.511 . S
C695 H709 0.961 . S
C695 H710 0.961 . S
C695 H711 0.961 . S
C696 C697 1.370 . S
C696 C698 1.363 . S
C696 H712 0.931 . S
C697 C696 1.370 . S
C697 C701 1.408 . S
C698 C696 1.363 . S
C698 C699 1.370 . S
C698 C702 1.524 . S
C699 C691 1.503 . S
C699 C698 1.370 . S
C699 C700 1.403 . S
C700 C699 1.403 . S
C700 C701 1.404 . S
C700 C703 1.539 . S
C701 C697 1.408 . S
C701 C700 1.404 . S
C701 H713 0.930 . S
C702 C698 1.524 . S
C702 H714 0.956 . S
C702 H715 0.961 . S
C702 H716 0.961 . S
C703 C700 1.539 . S
C703 H717 0.958 . S
C703 H718 0.961 . S
C703 H719 0.960 . S
H704 C688 0.931 . S
H705 C693 0.929 . S
H706 C694 0.960 . S
H707 C694 0.962 . S
H708 C694 0.960 . S
H709 C695 0.961 . S
H710 C695 0.961 . S
H711 C695 0.961 . S
H712 C696 0.931 . S
H713 C701 0.930 . S
H714 C702 0.956 . S
H715 C702 0.961 . S
H716 C702 0.961 . S
H717 C703 0.958 . S
H718 C703 0.961 . S
H719 C703 0.960 . S
C720 C721 1.391 . S
C720 C722 1.394 . S
C720 H736 0.931 . S
C721 C720 1.391 . S
C721 C725 1.376 . S
C722 C720 1.394 . S
C722 C723 1.369 . S
C722 C726 1.531 . S
C723 C722 1.369 . S
C723 C724 1.410 . S
C723 C731 1.503 . S
C724 C723 1.410 . S
C724 C725 1.392 . S
C724 C727 1.511 . S
C725 C721 1.376 . S
C725 C724 1.392 . S
C725 H737 0.929 . S
C726 C722 1.531 . S
C726 H738 0.960 . S
C726 H739 0.962 . S
C726 H740 0.960 . S
C727 C724 1.511 . S
C727 H741 0.961 . S
C727 H742 0.961 . S
C727 H743 0.961 . S
C728 C729 1.370 . S
C728 C730 1.363 . S
C728 H744 0.931 . S
C729 C728 1.370 . S
C729 C733 1.408 . S
C730 C728 1.363 . S
C730 C731 1.370 . S
C730 C734 1.524 . S
C731 C723 1.503 . S
C731 C730 1.370 . S
C731 C732 1.403 . S
C732 C731 1.403 . S
C732 C733 1.404 . S
C732 C735 1.539 . S
C733 C729 1.408 . S
C733 C732 1.404 . S
C733 H745 0.930 . S
C734 C730 1.524 . S
C734 H746 0.956 . S
C734 H747 0.961 . S
C734 H748 0.961 . S
C735 C732 1.539 . S
C735 H749 0.958 . S
C735 H750 0.961 . S
C735 H751 0.960 . S
H736 C720 0.931 . S
H737 C725 0.929 . S
H738 C726 0.960 . S
H739 C726 0.962 . S
H740 C726 0.960 . S
H741 C727 0.961 . S
H742 C727 0.961 . S
H743 C727 0.961 . S
H744 C728 0.931 . S
H745 C733 0.930 . S
H746 C734 0.956 . S
H747 C734 0.961 . S
H748 C734 0.961 . S
H749 C735 0.958 . S
H750 C735 0.961 . S
H751 C735 0.960 . S
C752 C753 1.391 . S
C752 C754 1.394 1_554 S
C752 H768 0.931 . S
C753 C752 1.391 . S
C753 C757 1.376 . S
C754 C752 1.394 1_556 S
C754 C755 1.369 . S
C754 C758 1.531 . S
C755 C754 1.369 . S
C755 C756 1.410 1_556 S
C755 C763 1.503 . S
C756 C755 1.410 1_554 S
C756 C757 1.392 . S
C756 C759 1.511 . S
C757 C753 1.376 . S
C757 C756 1.392 . S
C757 H769 0.929 . S
C758 C754 1.531 . S
C758 H770 0.960 . S
C758 H771 0.962 . S
C758 H772 0.960 . S
C759 C756 1.511 . S
C759 H773 0.961 . S
C759 H774 0.961 1_554 S
C759 H775 0.961 1_554 S
C760 C761 1.370 . S
C760 C762 1.363 . S
C760 H776 0.931 1_565 S
C761 C760 1.370 . S
C761 C765 1.408 . S
C762 C760 1.363 . S
C762 C763 1.370 . S
C762 C766 1.524 . S
C763 C755 1.503 . S
C763 C762 1.370 . S
C763 C764 1.403 . S
C764 C763 1.403 . S
C764 C765 1.404 . S
C764 C767 1.539 . S
C765 C761 1.408 . S
C765 C764 1.404 . S
C765 H777 0.930 . S
C766 C762 1.524 . S
C766 H778 0.956 . S
C766 H779 0.961 . S
C766 H780 0.961 1_565 S
C767 C764 1.539 . S
C767 H781 0.958 . S
C767 H782 0.961 . S
C767 H783 0.960 . S
H768 C752 0.931 . S
H769 C757 0.929 . S
H770 C758 0.960 . S
H771 C758 0.962 . S
H772 C758 0.960 . S
H773 C759 0.961 . S
H774 C759 0.961 1_556 S
H775 C759 0.961 1_556 S
H776 C760 0.931 1_545 S
H777 C765 0.930 . S
H778 C766 0.956 . S
H779 C766 0.961 . S
H780 C766 0.961 1_545 S
H781 C767 0.958 . S
H782 C767 0.961 . S
H783 C767 0.960 . S
C784 C785 1.391 . S
C784 C786 1.394 . S
C784 H800 0.931 . S
C785 C784 1.391 . S
C785 C789 1.376 . S
C786 C784 1.394 . S
C786 C787 1.369 . S
C786 C790 1.531 . S
C787 C786 1.369 . S
C787 C788 1.410 . S
C787 C795 1.503 . S
C788 C787 1.410 . S
C788 C789 1.392 . S
C788 C791 1.511 . S
C789 C785 1.376 . S
C789 C788 1.392 . S
C789 H801 0.929 . S
C790 C786 1.531 . S
C790 H802 0.960 . S
C790 H803 0.962 . S
C790 H804 0.960 . S
C791 C788 1.511 . S
C791 H805 0.961 . S
C791 H806 0.961 . S
C791 H807 0.961 . S
C792 C793 1.370 . S
C792 C794 1.363 . S
C792 H808 0.931 . S
C793 C792 1.370 . S
C793 C797 1.408 . S
C794 C792 1.363 . S
C794 C795 1.370 . S
C794 C798 1.524 . S
C795 C787 1.503 . S
C795 C794 1.370 . S
C795 C796 1.403 . S
C796 C795 1.403 . S
C796 C797 1.404 . S
C796 C799 1.539 . S
C797 C793 1.408 . S
C797 C796 1.404 . S
C797 H809 0.930 . S
C798 C794 1.524 . S
C798 H810 0.956 . S
C798 H811 0.961 . S
C798 H812 0.961 . S
C799 C796 1.539 . S
C799 H813 0.958 . S
C799 H814 0.961 . S
C799 H815 0.960 . S
H800 C784 0.931 . S
H801 C789 0.929 . S
H802 C790 0.960 . S
H803 C790 0.962 . S
H804 C790 0.960 . S
H805 C791 0.961 . S
H806 C791 0.961 . S
H807 C791 0.961 . S
H808 C792 0.931 . S
H809 C797 0.930 . S
H810 C798 0.956 . S
H811 C798 0.961 . S
H812 C798 0.961 . S
H813 C799 0.958 . S
H814 C799 0.961 . S
H815 C799 0.960 . S
C816 C817 1.391 . S
C816 C818 1.394 . S
C816 H832 0.931 . S
C817 C816 1.391 . S
C817 C821 1.376 . S
C818 C816 1.394 . S
C818 C819 1.369 . S
C818 C822 1.531 1_545 S
C819 C818 1.369 . S
C819 C820 1.410 . S
C819 C827 1.503 1_545 S
C820 C819 1.410 . S
C820 C821 1.392 . S
C820 C823 1.511 . S
C821 C817 1.376 . S
C821 C820 1.392 . S
C821 H833 0.929 . S
C822 C818 1.531 1_565 S
C822 H834 0.960 . S
C822 H835 0.962 . S
C822 H836 0.960 . S
C823 C820 1.511 . S
C823 H837 0.961 . S
C823 H838 0.961 . S
C823 H839 0.961 . S
C824 C825 1.370 . S
C824 C826 1.363 . S
C824 H840 0.931 . S
C825 C824 1.370 . S
C825 C829 1.408 . S
C826 C824 1.363 . S
C826 C827 1.370 . S
C826 C830 1.524 1_565 S
C827 C819 1.503 1_565 S
C827 C826 1.370 . S
C827 C828 1.403 . S
C828 C827 1.403 . S
C828 C829 1.404 . S
C828 C831 1.539 . S
C829 C825 1.408 . S
C829 C828 1.404 . S
C829 H841 0.930 . S
C830 C826 1.524 1_545 S
C830 H842 0.956 . S
C830 H843 0.961 . S
C830 H844 0.961 . S
C831 C828 1.539 . S
C831 H845 0.958 . S
C831 H846 0.961 . S
C831 H847 0.960 1_565 S
H832 C816 0.931 . S
H833 C821 0.929 . S
H834 C822 0.960 . S
H835 C822 0.962 . S
H836 C822 0.960 . S
H837 C823 0.961 . S
H838 C823 0.961 . S
H839 C823 0.961 . S
H840 C824 0.931 . S
H841 C829 0.930 . S
H842 C830 0.956 . S
H843 C830 0.961 . S
H844 C830 0.961 . S
H845 C831 0.958 . S
H846 C831 0.961 . S
H847 C831 0.960 1_545 S
C848 C849 1.391 . S
C848 C850 1.394 . S
C848 H864 0.931 . S
C849 C848 1.391 . S
C849 C853 1.376 . S
C850 C848 1.394 . S
C850 C851 1.369 . S
C850 C854 1.531 . S
C851 C850 1.369 . S
C851 C852 1.410 . S
C851 C859 1.503 . S
C852 C851 1.410 . S
C852 C853 1.392 . S
C852 C855 1.511 . S
C853 C849 1.376 . S
C853 C852 1.392 . S
C853 H865 0.929 . S
C854 C850 1.531 . S
C854 H866 0.960 . S
C854 H867 0.962 . S
C854 H868 0.960 . S
C855 C852 1.511 . S
C855 H869 0.961 . S
C855 H870 0.961 . S
C855 H871 0.961 . S
C856 C857 1.370 . S
C856 C858 1.363 . S
C856 H872 0.931 . S
C857 C856 1.370 . S
C857 C861 1.408 . S
C858 C856 1.363 . S
C858 C859 1.370 . S
C858 C862 1.524 . S
C859 C851 1.503 . S
C859 C858 1.370 . S
C859 C860 1.403 . S
C860 C859 1.403 . S
C860 C861 1.404 . S
C860 C863 1.539 . S
C861 C857 1.408 . S
C861 C860 1.404 . S
C861 H873 0.930 . S
C862 C858 1.524 . S
C862 H874 0.956 . S
C862 H875 0.961 . S
C862 H876 0.961 . S
C863 C860 1.539 . S
C863 H877 0.958 . S
C863 H878 0.961 . S
C863 H879 0.960 . S
H864 C848 0.931 . S
H865 C853 0.929 . S
H866 C854 0.960 . S
H867 C854 0.962 . S
H868 C854 0.960 . S
H869 C855 0.961 . S
H870 C855 0.961 . S
H871 C855 0.961 . S
H872 C856 0.931 . S
H873 C861 0.930 . S
H874 C862 0.956 . S
H875 C862 0.961 . S
H876 C862 0.961 . S
H877 C863 0.958 . S
H878 C863 0.961 . S
H879 C863 0.960 . S
C880 C881 1.391 . S
C880 C882 1.394 . S
C880 H896 0.931 . S
C881 C880 1.391 . S
C881 C885 1.376 . S
C882 C880 1.394 . S
C882 C883 1.369 . S
C882 C886 1.531 1_545 S
C883 C882 1.369 . S
C883 C884 1.410 . S
C883 C891 1.503 1_545 S
C884 C883 1.410 . S
C884 C885 1.392 . S
C884 C887 1.511 . S
C885 C881 1.376 . S
C885 C884 1.392 . S
C885 H897 0.929 . S
C886 C882 1.531 1_565 S
C886 H898 0.960 . S
C886 H899 0.962 . S
C886 H900 0.960 . S
C887 C884 1.511 . S
C887 H901 0.961 . S
C887 H902 0.961 . S
C887 H903 0.961 . S
C888 C889 1.370 . S
C888 C890 1.363 . S
C888 H904 0.931 . S
C889 C888 1.370 . S
C889 C893 1.408 . S
C890 C888 1.363 . S
C890 C891 1.370 . S
C890 C894 1.524 1_565 S
C891 C883 1.503 1_565 S
C891 C890 1.370 . S
C891 C892 1.403 . S
C892 C891 1.403 . S
C892 C893 1.404 . S
C892 C895 1.539 . S
C893 C889 1.408 . S
C893 C892 1.404 . S
C893 H905 0.930 . S
C894 C890 1.524 1_545 S
C894 H906 0.956 . S
C894 H907 0.961 . S
C894 H908 0.961 . S
C895 C892 1.539 . S
C895 H909 0.958 . S
C895 H910 0.961 . S
C895 H911 0.960 1_565 S
H896 C880 0.931 . S
H897 C885 0.929 . S
H898 C886 0.960 . S
H899 C886 0.962 . S
H900 C886 0.960 . S
H901 C887 0.961 . S
H902 C887 0.961 . S
H903 C887 0.961 . S
H904 C888 0.931 . S
H905 C893 0.930 . S
H906 C894 0.956 . S
H907 C894 0.961 . S
H908 C894 0.961 . S
H909 C895 0.958 . S
H910 C895 0.961 . S
H911 C895 0.960 1_545 S
C912 C913 1.391 . S
C912 C914 1.394 1_655 S
C912 H928 0.931 . S
C913 C912 1.391 . S
C913 C917 1.376 . S
C914 C912 1.394 1_455 S
C914 C915 1.369 1_455 S
C914 C918 1.531 . S
C915 C914 1.369 1_655 S
C915 C916 1.410 . S
C915 C923 1.503 1_655 S
C916 C915 1.410 . S
C916 C917 1.392 . S
C916 C919 1.511 . S
C917 C913 1.376 . S
C917 C916 1.392 . S
C917 H929 0.929 . S
C918 C914 1.531 . S
C918 H930 0.960 . S
C918 H931 0.962 . S
C918 H932 0.960 . S
C919 C916 1.511 . S
C919 H933 0.961 . S
C919 H934 0.961 . S
C919 H935 0.961 . S
C920 C921 1.370 . S
C920 C922 1.363 . S
C920 H936 0.931 . S
C921 C920 1.370 . S
C921 C925 1.408 . S
C922 C920 1.363 . S
C922 C923 1.370 . S
C922 C926 1.524 . S
C923 C915 1.503 1_455 S
C923 C922 1.370 . S
C923 C924 1.403 . S
C924 C923 1.403 . S
C924 C925 1.404 . S
C924 C927 1.539 . S
C925 C921 1.408 . S
C925 C924 1.404 . S
C925 H937 0.930 . S
C926 C922 1.524 . S
C926 H938 0.956 . S
C926 H939 0.961 . S
C926 H940 0.961 . S
C927 C924 1.539 . S
C927 H941 0.958 . S
C927 H942 0.961 . S
C927 H943 0.960 1_455 S
H928 C912 0.931 . S
H929 C917 0.929 . S
H930 C918 0.960 . S
H931 C918 0.962 . S
H932 C918 0.960 . S
H933 C919 0.961 . S
H934 C919 0.961 . S
H935 C919 0.961 . S
H936 C920 0.931 . S
H937 C925 0.930 . S
H938 C926 0.956 . S
H939 C926 0.961 . S
H940 C926 0.961 . S
H941 C927 0.958 . S
H942 C927 0.961 . S
H943 C927 0.960 1_655 S
C944 C945 1.391 . S
C944 C946 1.394 . S
C944 H960 0.931 . S
C945 C944 1.391 . S
C945 C949 1.376 . S
C946 C944 1.394 . S
C946 C947 1.369 . S
C946 C950 1.531 . S
C947 C946 1.369 . S
C947 C948 1.410 . S
C947 C955 1.503 . S
C948 C947 1.410 . S
C948 C949 1.392 . S
C948 C951 1.511 . S
C949 C945 1.376 . S
C949 C948 1.392 . S
C949 H961 0.929 . S
C950 C946 1.531 . S
C950 H962 0.960 . S
C950 H963 0.962 . S
C950 H964 0.960 . S
C951 C948 1.511 . S
C951 H965 0.961 . S
C951 H966 0.961 . S
C951 H967 0.961 . S
C952 C953 1.370 . S
C952 C954 1.363 . S
C952 H968 0.931 . S
C953 C952 1.370 . S
C953 C957 1.408 . S
C954 C952 1.363 . S
C954 C955 1.370 . S
C954 C958 1.524 . S
C955 C947 1.503 . S
C955 C954 1.370 . S
C955 C956 1.403 . S
C956 C955 1.403 . S
C956 C957 1.404 . S
C956 C959 1.539 . S
C957 C953 1.408 . S
C957 C956 1.404 . S
C957 H969 0.930 . S
C958 C954 1.524 . S
C958 H970 0.956 . S
C958 H971 0.961 . S
C958 H972 0.961 . S
C959 C956 1.539 . S
C959 H973 0.958 . S
C959 H974 0.961 . S
C959 H975 0.960 . S
H960 C944 0.931 . S
H961 C949 0.929 . S
H962 C950 0.960 . S
H963 C950 0.962 . S
H964 C950 0.960 . S
H965 C951 0.961 . S
H966 C951 0.961 . S
H967 C951 0.961 . S
H968 C952 0.931 . S
H969 C957 0.930 . S
H970 C958 0.956 . S
H971 C958 0.961 . S
H972 C958 0.961 . S
H973 C959 0.958 . S
H974 C959 0.961 . S
H975 C959 0.960 . S
C976 C977 1.391 . S
C976 C978 1.394 . S
C976 H992 0.931 . S
C977 C976 1.391 . S
C977 C981 1.376 . S
C978 C976 1.394 . S
C978 C979 1.369 . S
C978 C982 1.527 1_455 S
C979 C978 1.369 . S
C979 C980 1.410 . S
C979 C987 1.503 1_455 S
C980 C979 1.410 . S
C980 C981 1.392 . S
C980 C983 1.511 . S
C981 C977 1.376 . S
C981 C980 1.392 . S
C981 H993 0.929 . S
C982 C978 1.527 1_655 S
C982 H994 0.965 . S
C982 H995 0.960 1_655 S
C982 H996 0.961 . S
C983 C980 1.511 . S
C983 H997 0.961 . S
C983 H998 0.961 . S
C983 H999 0.961 . S
C984 C985 1.370 . S
C984 C986 1.363 1_655 S
C984 H1000 0.931 . S
C985 C984 1.370 . S
C985 C989 1.408 . S
C986 C984 1.363 1_455 S
C986 C987 1.370 1_455 S
C986 C990 1.524 . S
C987 C979 1.503 1_655 S
C987 C986 1.370 1_655 S
C987 C988 1.403 . S
C988 C987 1.403 . S
C988 C989 1.404 . S
C988 C991 1.539 . S
C989 C985 1.408 . S
C989 C988 1.404 . S
C989 H1001 0.930 . S
C990 C986 1.524 . S
C990 H1002 0.956 . S
C990 H1003 0.961 . S
C990 H1004 0.961 . S
C991 C988 1.539 . S
C991 H1005 0.958 . S
C991 H1006 0.961 . S
C991 H1007 0.960 . S
H992 C976 0.931 . S
H993 C981 0.929 . S
H994 C982 0.965 . S
H995 C982 0.960 1_455 S
H996 C982 0.961 . S
H997 C983 0.961 . S
H998 C983 0.961 . S
H999 C983 0.961 . S
H1000 C984 0.931 . S
H1001 C989 0.930 . S
H1002 C990 0.956 . S
H1003 C990 0.961 . S
H1004 C990 0.961 . S
H1005 C991 0.958 . S
H1006 C991 0.961 . S
H1007 C991 0.960 . S
C1008 C1009 1.391 . S
C1008 C1010 1.394 . S
C1008 H1024 0.931 . S
C1009 C1008 1.391 . S
C1009 C1013 1.376 . S
C1010 C1008 1.394 . S
C1010 C1011 1.369 . S
C1010 C1014 1.531 . S
C1011 C1010 1.369 . S
C1011 C1012 1.410 . S
C1011 C1019 1.503 . S
C1012 C1011 1.410 . S
C1012 C1013 1.392 . S
C1012 C1015 1.511 . S
C1013 C1009 1.376 . S
C1013 C1012 1.392 . S
C1013 H1025 0.929 . S
C1014 C1010 1.531 . S
C1014 H1026 0.960 . S
C1014 H1027 0.962 . S
C1014 H1028 0.960 . S
C1015 C1012 1.511 . S
C1015 H1029 0.961 . S
C1015 H1030 0.961 . S
C1015 H1031 0.961 . S
C1016 C1017 1.370 . S
C1016 C1018 1.363 . S
C1016 H1032 0.931 . S
C1017 C1016 1.370 . S
C1017 C1021 1.408 . S
C1018 C1016 1.363 . S
C1018 C1019 1.370 . S
C1018 C1022 1.524 . S
C1019 C1011 1.503 . S
C1019 C1018 1.370 . S
C1019 C1020 1.403 . S
C1020 C1019 1.403 . S
C1020 C1021 1.404 . S
C1020 C1023 1.539 . S
C1021 C1017 1.408 . S
C1021 C1020 1.404 . S
C1021 H1033 0.930 . S
C1022 C1018 1.524 . S
C1022 H1034 0.956 . S
C1022 H1035 0.961 . S
C1022 H1036 0.961 . S
C1023 C1020 1.539 . S
C1023 H1037 0.958 . S
C1023 H1038 0.961 . S
C1023 H1039 0.960 . S
H1024 C1008 0.931 . S
H1025 C1013 0.929 . S
H1026 C1014 0.960 . S
H1027 C1014 0.962 . S
H1028 C1014 0.960 . S
H1029 C1015 0.961 . S
H1030 C1015 0.961 . S
H1031 C1015 0.961 . S
H1032 C1016 0.931 . S
H1033 C1021 0.930 . S
H1034 C1022 0.956 . S
H1035 C1022 0.961 . S
H1036 C1022 0.961 . S
H1037 C1023 0.958 . S
H1038 C1023 0.961 . S
H1039 C1023 0.960 . S
C1040 C1041 1.391 . S
C1040 C1042 1.394 . S
C1040 H1056 0.931 . S
C1041 C1040 1.391 . S
C1041 C1045 1.376 . S
C1042 C1040 1.394 . S
C1042 C1043 1.369 . S
C1042 C1046 1.531 . S
C1043 C1042 1.369 . S
C1043 C1044 1.410 . S
C1043 C1051 1.503 . S
C1044 C1043 1.410 . S
C1044 C1045 1.392 . S
C1044 C1047 1.511 . S
C1045 C1041 1.376 . S
C1045 C1044 1.392 . S
C1045 H1057 0.929 . S
C1046 C1042 1.531 . S
C1046 H1058 0.960 . S
C1046 H1059 0.962 . S
C1046 H1060 0.960 . S
C1047 C1044 1.511 . S
C1047 H1061 0.961 . S
C1047 H1062 0.961 . S
C1047 H1063 0.961 . S
C1048 C1049 1.370 . S
C1048 C1050 1.363 . S
C1048 H1064 0.931 . S
C1049 C1048 1.370 . S
C1049 C1053 1.408 . S
C1050 C1048 1.363 . S
C1050 C1051 1.370 . S
C1050 C1054 1.524 . S
C1051 C1043 1.503 . S
C1051 C1050 1.370 . S
C1051 C1052 1.403 . S
C1052 C1051 1.403 . S
C1052 C1053 1.404 . S
C1052 C1055 1.539 . S
C1053 C1049 1.408 . S
C1053 C1052 1.404 . S
C1053 H1065 0.930 . S
C1054 C1050 1.524 . S
C1054 H1066 0.956 . S
C1054 H1067 0.961 . S
C1054 H1068 0.961 . S
C1055 C1052 1.539 . S
C1055 H1069 0.958 . S
C1055 H1070 0.961 . S
C1055 H1071 0.960 . S
H1056 C1040 0.931 . S
H1057 C1045 0.929 . S
H1058 C1046 0.960 . S
H1059 C1046 0.962 . S
H1060 C1046 0.960 . S
H1061 C1047 0.961 . S
H1062 C1047 0.961 . S
H1063 C1047 0.961 . S
H1064 C1048 0.931 . S
H1065 C1053 0.930 . S
H1066 C1054 0.956 . S
H1067 C1054 0.961 . S
H1068 C1054 0.961 . S
H1069 C1055 0.958 . S
H1070 C1055 0.961 . S
H1071 C1055 0.960 . S
C1072 C1073 1.391 . S
C1072 C1074 1.394 . S
C1072 H1088 0.931 . S
C1073 C1072 1.391 . S
C1073 C1077 1.376 . S
C1074 C1072 1.394 . S
C1074 C1075 1.369 . S
C1074 C1078 1.531 . S
C1075 C1074 1.369 . S
C1075 C1076 1.410 . S
C1075 C1083 1.503 . S
C1076 C1075 1.410 . S
C1076 C1077 1.392 . S
C1076 C1079 1.511 . S
C1077 C1073 1.376 . S
C1077 C1076 1.392 . S
C1077 H1089 0.929 . S
C1078 C1074 1.531 . S
C1078 H1090 0.960 . S
C1078 H1091 0.962 . S
C1078 H1092 0.960 . S
C1079 C1076 1.511 . S
C1079 H1093 0.961 . S
C1079 H1094 0.961 . S
C1079 H1095 0.961 . S
C1080 C1081 1.370 . S
C1080 C1082 1.363 . S
C1080 H1096 0.931 . S
C1081 C1080 1.370 . S
C1081 C1085 1.408 . S
C1082 C1080 1.363 . S
C1082 C1083 1.370 . S
C1082 C1086 1.524 . S
C1083 C1075 1.503 . S
C1083 C1082 1.370 . S
C1083 C1084 1.403 . S
C1084 C1083 1.403 . S
C1084 C1085 1.404 . S
C1084 C1087 1.539 . S
C1085 C1081 1.408 . S
C1085 C1084 1.404 . S
C1085 H1097 0.930 . S
C1086 C1082 1.524 . S
C1086 H1098 0.956 . S
C1086 H1099 0.961 . S
C1086 H1100 0.961 . S
C1087 C1084 1.539 . S
C1087 H1101 0.958 . S
C1087 H1102 0.961 . S
C1087 H1103 0.960 . S
H1088 C1072 0.931 . S
H1089 C1077 0.929 . S
H1090 C1078 0.960 . S
H1091 C1078 0.962 . S
H1092 C1078 0.960 . S
H1093 C1079 0.961 . S
H1094 C1079 0.961 . S
H1095 C1079 0.961 . S
H1096 C1080 0.931 . S
H1097 C1085 0.930 . S
H1098 C1086 0.956 . S
H1099 C1086 0.961 . S
H1100 C1086 0.961 . S
H1101 C1087 0.958 . S
H1102 C1087 0.961 . S
H1103 C1087 0.960 . S
C1104 C1105 1.391 . S
C1104 C1106 1.394 . S
C1104 H1120 0.931 . S
C1105 C1104 1.391 . S
C1105 C1109 1.376 . S
C1106 C1104 1.394 . S
C1106 C1107 1.369 . S
C1106 C1110 1.531 1_554 S
C1107 C1106 1.369 . S
C1107 C1108 1.410 . S
C1107 C1115 1.503 1_554 S
C1108 C1107 1.410 . S
C1108 C1109 1.392 . S
C1108 C1111 1.511 . S
C1109 C1105 1.376 . S
C1109 C1108 1.392 . S
C1109 H1121 0.929 . S
C1110 C1106 1.531 1_556 S
C1110 H1122 0.960 . S
C1110 H1123 0.962 . S
C1110 H1124 0.960 . S
C1111 C1108 1.511 . S
C1111 H1125 0.961 . S
C1111 H1126 0.961 . S
C1111 H1127 0.961 . S
C1112 C1113 1.370 . S
C1112 C1114 1.363 . S
C1112 H1128 0.931 . S
C1113 C1112 1.370 . S
C1113 C1117 1.408 . S
C1114 C1112 1.363 . S
C1114 C1115 1.370 . S
C1114 C1118 1.490 1_556 S
C1115 C1107 1.503 1_556 S
C1115 C1114 1.370 . S
C1115 C1116 1.403 . S
C1116 C1115 1.403 . S
C1116 C1117 1.404 . S
C1116 C1119 1.539 . S
C1117 C1113 1.408 . S
C1117 C1116 1.404 . S
C1117 H1129 0.930 . S
C1118 C1114 1.490 1_554 S
C1118 H1130 0.961 . S
C1118 H1131 1.007 . S
C1118 H1132 0.946 1_554 S
C1119 C1116 1.539 . S
C1119 H1133 0.958 . S
C1119 H1134 0.961 . S
C1119 H1135 0.960 . S
H1120 C1104 0.931 . S
H1121 C1109 0.929 . S
H1122 C1110 0.960 . S
H1123 C1110 0.962 . S
H1124 C1110 0.960 . S
H1125 C1111 0.961 . S
H1126 C1111 0.961 . S
H1127 C1111 0.961 . S
H1128 C1112 0.931 . S
H1129 C1117 0.930 . S
H1130 C1118 0.961 . S
H1131 C1118 1.007 . S
H1132 C1118 0.946 1_556 S
H1133 C1119 0.958 . S
H1134 C1119 0.961 . S
H1135 C1119 0.960 . S
C1136 C1137 1.391 . S
C1136 C1138 1.394 . S
C1136 H1152 0.931 . S
C1137 C1136 1.391 . S
C1137 C1141 1.376 . S
C1138 C1136 1.394 . S
C1138 C1139 1.369 . S
C1138 C1142 1.531 . S
C1139 C1138 1.369 . S
C1139 C1140 1.410 . S
C1139 C1147 1.503 . S
C1140 C1139 1.410 . S
C1140 C1141 1.392 . S
C1140 C1143 1.511 . S
C1141 C1137 1.376 . S
C1141 C1140 1.392 . S
C1141 H1153 0.929 1_655 S
C1142 C1138 1.531 . S
C1142 H1154 0.960 . S
C1142 H1155 0.962 . S
C1142 H1156 0.960 . S
C1143 C1140 1.511 . S
C1143 H1157 0.961 1_655 S
C1143 H1158 0.961 . S
C1143 H1159 0.961 1_655 S
C1144 C1145 1.370 . S
C1144 C1146 1.363 . S
C1144 H1160 0.931 . S
C1145 C1144 1.370 . S
C1145 C1149 1.408 . S
C1146 C1144 1.363 . S
C1146 C1147 1.370 . S
C1146 C1150 1.524 . S
C1147 C1139 1.503 . S
C1147 C1146 1.370 . S
C1147 C1148 1.403 . S
C1148 C1147 1.403 . S
C1148 C1149 1.404 . S
C1148 C1151 1.539 . S
C1149 C1145 1.408 . S
C1149 C1148 1.404 . S
C1149 H1161 0.930 . S
C1150 C1146 1.524 . S
C1150 H1162 0.956 . S
C1150 H1163 0.961 . S
C1150 H1164 0.961 . S
C1151 C1148 1.539 . S
C1151 H1165 0.958 . S
C1151 H1166 0.961 . S
C1151 H1167 0.960 . S
H1152 C1136 0.931 . S
H1153 C1141 0.929 1_455 S
H1154 C1142 0.960 . S
H1155 C1142 0.962 . S
H1156 C1142 0.960 . S
H1157 C1143 0.961 1_455 S
H1158 C1143 0.961 . S
H1159 C1143 0.961 1_455 S
H1160 C1144 0.931 . S
H1161 C1149 0.930 . S
H1162 C1150 0.956 . S
H1163 C1150 0.961 . S
H1164 C1150 0.961 . S
H1165 C1151 0.958 . S
H1166 C1151 0.961 . S
H1167 C1151 0.960 . S
C273 C3 1.306 . S
C281 C158 1.400 . S
C305 C192 1.417 . S
C313 C35 1.262 . S
C337 C226 1.384 . S
C345 C69 1.290 . S
C369 C103 1.256 . S
C377 C253 1.410 . S
C401 C15 1.393 . S
C409 C137 1.282 . S
C433 C56 1.431 . S
C441 C171 1.255 . S
C465 C205 1.288 . S
C473 C90 1.405 1_455 S
C497 C124 1.376 . S
C505 C241 1.299 . S
C529 C40 1.438 . S
C537 C6 1.454 . S
C561 C74 1.397 . S
C569 C62 1.456 . S
C593 C96 1.431 . S
C601 C108 1.427 . S
C625 C130 1.462 . S
C633 C28 1.421 . S
C657 C266 1.420 . S
C665 C164 1.444 . S
C689 C198 1.461 . S
C697 C142 1.424 . S
C721 C232 1.433 . S
C729 C176 1.433 . S
C753 C244 1.461 . S
C761 C210 1.423 . S
C785 C153 1.875 . S
C793 C22 1.687 . S
C817 C187 1.886 . S
C825 C49 1.655 . S
C849 C83 1.706 . S
C857 C221 1.883 . S
C881 C117 1.625 . S
C889 C255 1.888 . S
C913 C151 1.625 . S
C921 C17 1.888 . S
C945 C185 1.631 . S
C953 C51 1.888 . S
C977 C219 1.650 . S
C985 C85 1.888 . S
C1009 C260 1.681 . S
C1017 C119 1.887 . S
C1041 C173 2.095 . S
C1049 C1 2.101 . S
C1073 C207 2.063 . S
C1081 C37 2.095 . S
C1105 C239 2.070 . S
C1113 C71 2.078 . S
C1137 C105 2.108 . S
C1145 C139 2.099 . S
