# Generated by pormake.
# Topology ech, (8)-cn, num edge types: 1
# Building blocks:
#     Node 0, Type 0, BuildingBlock: AJUNOK_clean_sbu_0, # of connection points: 8
#     Node 1, Type 0, BuildingBlock: AJUNOK_clean_sbu_0, # of connection points: 8
#     Node 2, Type 0, BuildingBlock: AJUNOK_clean_sbu_0, # of connection points: 8
#     Node 3, Type 0, BuildingBlock: AJUNOK_clean_sbu_0, # of connection points: 8
#     Node 4, Type 0, BuildingBlock: AJUNOK_clean_sbu_0, # of connection points: 8
#     Node 5, Type 0, BuildingBlock: AJUNOK_clean_sbu_0, # of connection points: 8
#     Node 6, Type 0, BuildingBlock: AJUNOK_clean_sbu_0, # of connection points: 8
#     Node 7, Type 0, BuildingBlock: AJUNOK_clean_sbu_0, # of connection points: 8
#     Node 8, Type 0, BuildingBlock: AJUNOK_clean_sbu_0, # of connection points: 8
#     Node 9, Type 0, BuildingBlock: AJUNOK_clean_sbu_0, # of connection points: 8
#     Node 10, Type 0, BuildingBlock: AJUNOK_clean_sbu_0, # of connection points: 8
#     Node 11, Type 0, BuildingBlock: AJUNOK_clean_sbu_0, # of connection points: 8
#     Node 12, Type 0, BuildingBlock: AJUNOK_clean_sbu_0, # of connection points: 8
#     Node 13, Type 0, BuildingBlock: AJUNOK_clean_sbu_0, # of connection points: 8
#     Node 14, Type 0, BuildingBlock: AJUNOK_clean_sbu_0, # of connection points: 8
#     Node 15, Type 0, BuildingBlock: AJUNOK_clean_sbu_0, # of connection points: 8
#     Node 16, Type 0, BuildingBlock: AJUNOK_clean_sbu_0, # of connection points: 8
#     Node 17, Type 0, BuildingBlock: AJUNOK_clean_sbu_0, # of connection points: 8
#     Node 18, Type 0, BuildingBlock: AJUNOK_clean_sbu_0, # of connection points: 8
#     Node 19, Type 0, BuildingBlock: AJUNOK_clean_sbu_0, # of connection points: 8
#     Node 20, Type 0, BuildingBlock: AJUNOK_clean_sbu_0, # of connection points: 8
#     Node 21, Type 0, BuildingBlock: AJUNOK_clean_sbu_0, # of connection points: 8
#     Node 22, Type 0, BuildingBlock: AJUNOK_clean_sbu_0, # of connection points: 8
#     Node 23, Type 0, BuildingBlock: AJUNOK_clean_sbu_0, # of connection points: 8
#     Edge 24, Type (0, 0), BuildingBlock: CIFDUS_clean_linker_0, # of connection points: 2
#     Edge 25, Type (0, 0), BuildingBlock: CIFDUS_clean_linker_0, # of connection points: 2
#     Edge 26, Type (0, 0), BuildingBlock: CIFDUS_clean_linker_0, # of connection points: 2
#     Edge 27, Type (0, 0), BuildingBlock: CIFDUS_clean_linker_0, # of connection points: 2
#     Edge 28, Type (0, 0), BuildingBlock: CIFDUS_clean_linker_0, # of connection points: 2
#     Edge 29, Type (0, 0), BuildingBlock: CIFDUS_clean_linker_0, # of connection points: 2
#     Edge 30, Type (0, 0), BuildingBlock: CIFDUS_clean_linker_0, # of connection points: 2
#     Edge 31, Type (0, 0), BuildingBlock: CIFDUS_clean_linker_0, # of connection points: 2
#     Edge 32, Type (0, 0), BuildingBlock: CIFDUS_clean_linker_0, # of connection points: 2
#     Edge 33, Type (0, 0), BuildingBlock: CIFDUS_clean_linker_0, # of connection points: 2
#     Edge 34, Type (0, 0), BuildingBlock: CIFDUS_clean_linker_0, # of connection points: 2
#     Edge 35, Type (0, 0), BuildingBlock: CIFDUS_clean_linker_0, # of connection points: 2
#     Edge 36, Type (0, 0), BuildingBlock: CIFDUS_clean_linker_0, # of connection points: 2
#     Edge 37, Type (0, 0), BuildingBlock: CIFDUS_clean_linker_0, # of connection points: 2
#     Edge 38, Type (0, 0), BuildingBlock: CIFDUS_clean_linker_0, # of connection points: 2
#     Edge 39, Type (0, 0), BuildingBlock: CIFDUS_clean_linker_0, # of connection points: 2
#     Edge 40, Type (0, 0), BuildingBlock: CIFDUS_clean_linker_0, # of connection points: 2
#     Edge 41, Type (0, 0), BuildingBlock: CIFDUS_clean_linker_0, # of connection points: 2
#     Edge 42, Type (0, 0), BuildingBlock: CIFDUS_clean_linker_0, # of connection points: 2
#     Edge 43, Type (0, 0), BuildingBlock: CIFDUS_clean_linker_0, # of connection points: 2
#     Edge 44, Type (0, 0), BuildingBlock: CIFDUS_clean_linker_0, # of connection points: 2
#     Edge 45, Type (0, 0), BuildingBlock: CIFDUS_clean_linker_0, # of connection points: 2
#     Edge 46, Type (0, 0), BuildingBlock: CIFDUS_clean_linker_0, # of connection points: 2
#     Edge 47, Type (0, 0), BuildingBlock: CIFDUS_clean_linker_0, # of connection points: 2
#     Edge 48, Type (0, 0), BuildingBlock: CIFDUS_clean_linker_0, # of connection points: 2
#     Edge 49, Type (0, 0), BuildingBlock: CIFDUS_clean_linker_0, # of connection points: 2
#     Edge 50, Type (0, 0), BuildingBlock: CIFDUS_clean_linker_0, # of connection points: 2
#     Edge 51, Type (0, 0), BuildingBlock: CIFDUS_clean_linker_0, # of connection points: 2
#     Edge 52, Type (0, 0), BuildingBlock: CIFDUS_clean_linker_0, # of connection points: 2
#     Edge 53, Type (0, 0), BuildingBlock: CIFDUS_clean_linker_0, # of connection points: 2
#     Edge 54, Type (0, 0), BuildingBlock: CIFDUS_clean_linker_0, # of connection points: 2
#     Edge 55, Type (0, 0), BuildingBlock: CIFDUS_clean_linker_0, # of connection points: 2
#     Edge 56, Type (0, 0), BuildingBlock: CIFDUS_clean_linker_0, # of connection points: 2
#     Edge 57, Type (0, 0), BuildingBlock: CIFDUS_clean_linker_0, # of connection points: 2
#     Edge 58, Type (0, 0), BuildingBlock: CIFDUS_clean_linker_0, # of connection points: 2
#     Edge 59, Type (0, 0), BuildingBlock: CIFDUS_clean_linker_0, # of connection points: 2
#     Edge 60, Type (0, 0), BuildingBlock: CIFDUS_clean_linker_0, # of connection points: 2
#     Edge 61, Type (0, 0), BuildingBlock: CIFDUS_clean_linker_0, # of connection points: 2
#     Edge 62, Type (0, 0), BuildingBlock: CIFDUS_clean_linker_0, # of connection points: 2
#     Edge 63, Type (0, 0), BuildingBlock: CIFDUS_clean_linker_0, # of connection points: 2
#     Edge 64, Type (0, 0), BuildingBlock: CIFDUS_clean_linker_0, # of connection points: 2
#     Edge 65, Type (0, 0), BuildingBlock: CIFDUS_clean_linker_0, # of connection points: 2
#     Edge 66, Type (0, 0), BuildingBlock: CIFDUS_clean_linker_0, # of connection points: 2
#     Edge 67, Type (0, 0), BuildingBlock: CIFDUS_clean_linker_0, # of connection points: 2
#     Edge 68, Type (0, 0), BuildingBlock: CIFDUS_clean_linker_0, # of connection points: 2
#     Edge 69, Type (0, 0), BuildingBlock: CIFDUS_clean_linker_0, # of connection points: 2
#     Edge 70, Type (0, 0), BuildingBlock: CIFDUS_clean_linker_0, # of connection points: 2
#     Edge 71, Type (0, 0), BuildingBlock: CIFDUS_clean_linker_0, # of connection points: 2
#     Edge 72, Type (0, 0), BuildingBlock: CIFDUS_clean_linker_0, # of connection points: 2
#     Edge 73, Type (0, 0), BuildingBlock: CIFDUS_clean_linker_0, # of connection points: 2
#     Edge 74, Type (0, 0), BuildingBlock: CIFDUS_clean_linker_0, # of connection points: 2
#     Edge 75, Type (0, 0), BuildingBlock: CIFDUS_clean_linker_0, # of connection points: 2
#     Edge 76, Type (0, 0), BuildingBlock: CIFDUS_clean_linker_0, # of connection points: 2
#     Edge 77, Type (0, 0), BuildingBlock: CIFDUS_clean_linker_0, # of connection points: 2
#     Edge 78, Type (0, 0), BuildingBlock: CIFDUS_clean_linker_0, # of connection points: 2
#     Edge 79, Type (0, 0), BuildingBlock: CIFDUS_clean_linker_0, # of connection points: 2
#     Edge 80, Type (0, 0), BuildingBlock: CIFDUS_clean_linker_0, # of connection points: 2
#     Edge 81, Type (0, 0), BuildingBlock: CIFDUS_clean_linker_0, # of connection points: 2
#     Edge 82, Type (0, 0), BuildingBlock: CIFDUS_clean_linker_0, # of connection points: 2
#     Edge 83, Type (0, 0), BuildingBlock: CIFDUS_clean_linker_0, # of connection points: 2
#     Edge 84, Type (0, 0), BuildingBlock: CIFDUS_clean_linker_0, # of connection points: 2
#     Edge 85, Type (0, 0), BuildingBlock: CIFDUS_clean_linker_0, # of connection points: 2
#     Edge 86, Type (0, 0), BuildingBlock: CIFDUS_clean_linker_0, # of connection points: 2
#     Edge 87, Type (0, 0), BuildingBlock: CIFDUS_clean_linker_0, # of connection points: 2
#     Edge 88, Type (0, 0), BuildingBlock: CIFDUS_clean_linker_0, # of connection points: 2
#     Edge 89, Type (0, 0), BuildingBlock: CIFDUS_clean_linker_0, # of connection points: 2
#     Edge 90, Type (0, 0), BuildingBlock: CIFDUS_clean_linker_0, # of connection points: 2
#     Edge 91, Type (0, 0), BuildingBlock: CIFDUS_clean_linker_0, # of connection points: 2
#     Edge 92, Type (0, 0), BuildingBlock: CIFDUS_clean_linker_0, # of connection points: 2
#     Edge 93, Type (0, 0), BuildingBlock: CIFDUS_clean_linker_0, # of connection points: 2
#     Edge 94, Type (0, 0), BuildingBlock: CIFDUS_clean_linker_0, # of connection points: 2
#     Edge 95, Type (0, 0), BuildingBlock: CIFDUS_clean_linker_0, # of connection points: 2
#     Edge 96, Type (0, 0), BuildingBlock: CIFDUS_clean_linker_0, # of connection points: 2
#     Edge 97, Type (0, 0), BuildingBlock: CIFDUS_clean_linker_0, # of connection points: 2
#     Edge 98, Type (0, 0), BuildingBlock: CIFDUS_clean_linker_0, # of connection points: 2
#     Edge 99, Type (0, 0), BuildingBlock: CIFDUS_clean_linker_0, # of connection points: 2
#     Edge 100, Type (0, 0), BuildingBlock: CIFDUS_clean_linker_0, # of connection points: 2
#     Edge 101, Type (0, 0), BuildingBlock: CIFDUS_clean_linker_0, # of connection points: 2
#     Edge 102, Type (0, 0), BuildingBlock: CIFDUS_clean_linker_0, # of connection points: 2
#     Edge 103, Type (0, 0), BuildingBlock: CIFDUS_clean_linker_0, # of connection points: 2
#     Edge 104, Type (0, 0), BuildingBlock: CIFDUS_clean_linker_0, # of connection points: 2
#     Edge 105, Type (0, 0), BuildingBlock: CIFDUS_clean_linker_0, # of connection points: 2
#     Edge 106, Type (0, 0), BuildingBlock: CIFDUS_clean_linker_0, # of connection points: 2
#     Edge 107, Type (0, 0), BuildingBlock: CIFDUS_clean_linker_0, # of connection points: 2
#     Edge 108, Type (0, 0), BuildingBlock: CIFDUS_clean_linker_0, # of connection points: 2
#     Edge 109, Type (0, 0), BuildingBlock: CIFDUS_clean_linker_0, # of connection points: 2
#     Edge 110, Type (0, 0), BuildingBlock: CIFDUS_clean_linker_0, # of connection points: 2
#     Edge 111, Type (0, 0), BuildingBlock: CIFDUS_clean_linker_0, # of connection points: 2
#     Edge 112, Type (0, 0), BuildingBlock: CIFDUS_clean_linker_0, # of connection points: 2
#     Edge 113, Type (0, 0), BuildingBlock: CIFDUS_clean_linker_0, # of connection points: 2
#     Edge 114, Type (0, 0), BuildingBlock: CIFDUS_clean_linker_0, # of connection points: 2
#     Edge 115, Type (0, 0), BuildingBlock: CIFDUS_clean_linker_0, # of connection points: 2
#     Edge 116, Type (0, 0), BuildingBlock: CIFDUS_clean_linker_0, # of connection points: 2
#     Edge 117, Type (0, 0), BuildingBlock: CIFDUS_clean_linker_0, # of connection points: 2
#     Edge 118, Type (0, 0), BuildingBlock: CIFDUS_clean_linker_0, # of connection points: 2
#     Edge 119, Type (0, 0), BuildingBlock: CIFDUS_clean_linker_0, # of connection points: 2
# Relax obj value: 0.301
# Max RMSD: 0.229
# Mean RMSD: 0.229
data_MOF--net-ech--node1-AJUNOK_clean_sbu_0--edge1-CIFDUS_clean_linker_0
_symmetry_space_group_name_H-M    P1
_symmetry_Int_Tables_number       1
_symmetry_cell_setting            triclinic
loop_
_symmetry_equiv_pos_as_xyz
'x, y, z'
_cell_length_a     46.719325
_cell_length_b     46.719274
_cell_length_c     46.727582
_cell_angle_alpha  90.096904
_cell_angle_beta   90.010329
_cell_angle_gamma 89.988439
loop_
_atom_site_label
_atom_site_type_symbol
_atom_site_fract_x
_atom_site_fract_y
_atom_site_fract_z
_atom_type_partial_charge
Cd0 Cd 0.16326 0.32054 0.42184 0.0
Cd1 Cd 0.1221 0.27752 0.4907 0.0
C2 C 0.1232 0.37401 0.43836 0.0
N3 N 0.12178 0.34758 0.42618 0.0
C4 C 0.07995 0.36068 0.40021 0.0
C5 C 0.08187 0.38886 0.41061 0.0
C6 C 0.10316 0.39504 0.43105 0.0
C7 C 0.10015 0.34045 0.40817 0.0
H8 H 0.14133 0.37966 0.45159 0.0
H9 H 0.10004 0.32006 0.39747 0.0
C10 C 0.11454 0.25999 0.41824 0.0
C11 C 0.1444 0.21236 0.48905 0.0
C12 C 0.16106 0.18898 0.49742 0.0
C13 C 0.18762 0.19367 0.51077 0.0
C14 C 0.1977 0.22192 0.51332 0.0
C15 C 0.18036 0.24464 0.50461 0.0
N16 N 0.15401 0.23947 0.49344 0.0
H17 H 0.12305 0.20892 0.48078 0.0
H18 H 0.18722 0.26645 0.50828 0.0
C19 C 0.06191 0.29442 0.46131 0.0
N20 N 0.08383 0.30673 0.47603 0.0
C21 C 0.0593 0.35182 0.47616 0.0
C22 C 0.03719 0.33983 0.45972 0.0
C23 C 0.03858 0.31074 0.4525 0.0
C24 C 0.08268 0.33475 0.48407 0.0
H25 H 0.06232 0.27182 0.45647 0.0
H26 H 0.1 0.34386 0.49646 0.0
C27 C 0.17444 0.33563 0.49012 0.0
C28 C 0.18709 0.35147 0.37477 0.0
N29 N 0.19728 0.28579 0.43153 0.0
C30 C 0.22445 0.29573 0.42929 0.0
C31 C 0.24714 0.27671 0.42615 0.0
C32 C 0.24173 0.24713 0.42516 0.0
C33 C 0.21376 0.23741 0.43046 0.0
C34 C 0.19162 0.2573 0.43342 0.0
C35 C 0.09956 0.27034 0.54645 0.0
O36 O 0.1304 0.28061 0.4101 0.0
O37 O 0.11072 0.25457 0.44466 0.0
O38 O 0.15626 0.31597 0.49417 0.0
O39 O 0.18193 0.34192 0.46493 0.0
O40 O 0.17424 0.32788 0.37078 0.0
O41 O 0.18957 0.35977 0.4004 0.0
O42 O 0.12172 0.2851 0.54147 0.0
O43 O 0.08818 0.25756 0.52526 0.0
H44 H 0.22819 0.3185 0.42749 0.0
H45 H 0.16988 0.24985 0.43527 0.0
H46 H 0.06438 0.35462 0.38424 0.0
H47 H 0.10611 0.41649 0.4393 0.0
H48 H 0.15233 0.16761 0.49531 0.0
H49 H 0.21819 0.22647 0.52315 0.0
H50 H 0.05892 0.37427 0.48199 0.0
H51 H 0.02171 0.30071 0.44014 0.0
H52 H 0.26822 0.28531 0.42185 0.0
H53 H 0.20875 0.21478 0.43037 0.0
Cd54 Cd 0.37179 0.71679 0.99139 0.0
Cd55 Cd 0.33258 0.67028 0.92452 0.0
C56 C 0.43337 0.69515 0.97194 0.0
N57 N 0.40836 0.68399 0.98171 0.0
C58 C 0.42978 0.63756 0.98542 0.0
C59 C 0.45574 0.64852 0.9748 0.0
C60 C 0.45719 0.67773 0.96791 0.0
C61 C 0.40624 0.65586 0.98889 0.0
H62 H 0.43508 0.71782 0.96775 0.0
H63 H 0.38642 0.6477 0.99764 0.0
C64 C 0.316 0.66223 0.99414 0.0
C65 C 0.27566 0.70467 0.93862 0.0
C66 C 0.25394 0.72447 0.93342 0.0
C67 C 0.26051 0.75003 0.91917 0.0
C68 C 0.28929 0.75671 0.91392 0.0
C69 C 0.31032 0.73633 0.91949 0.0
N70 N 0.30301 0.71034 0.93037 0.0
H71 H 0.2701 0.68368 0.94652 0.0
H72 H 0.33182 0.74054 0.91248 0.0
C73 C 0.35674 0.61026 0.94991 0.0
N74 N 0.36558 0.63453 0.93637 0.0
C75 C 0.40797 0.61103 0.9202 0.0
C76 C 0.39848 0.58535 0.93248 0.0
C77 C 0.37318 0.5853 0.94847 0.0
C78 C 0.39109 0.63556 0.92243 0.0
H79 H 0.33578 0.60924 0.95956 0.0
H80 H 0.39716 0.65467 0.91095 0.0
C81 C 0.38726 0.72471 0.91849 0.0
C82 C 0.39503 0.72745 0.04658 0.0
N83 N 0.34148 0.75639 0.99025 0.0
C84 C 0.35337 0.78281 0.98768 0.0
C85 C 0.33816 0.80709 0.9964 0.0
C86 C 0.31068 0.80397 0.00824 0.0
C87 C 0.29813 0.77661 0.00836 0.0
C88 C 0.31405 0.75295 -0.00069 0.0
C89 C 0.30759 0.64308 0.87554 0.0
O90 O 0.33483 0.6809 -0.0 0.0
O91 O 0.31124 0.6551 0.96847 0.0
O92 O 0.36998 0.70464 0.91219 0.0
O93 O 0.38968 0.73376 0.94412 0.0
O94 O 0.37284 0.71242 0.0427 0.0
O95 O 0.40585 0.73922 0.0246 0.0
O96 O 0.3318 0.65517 0.87413 0.0
O97 O 0.2948 0.64428 0.89939 0.0
H98 H 0.3755 0.7848 0.98115 0.0
H99 H 0.30532 0.73165 0.00168 0.0
H100 H 0.42776 0.61523 0.99125 0.0
H101 H 0.47655 0.68713 0.95934 0.0
H102 H 0.23195 0.71845 0.93763 0.0
H103 H 0.29515 0.77636 0.90314 0.0
H104 H 0.4271 0.6115 0.90711 0.0
H105 H 0.36487 0.56557 0.95735 0.0
H106 H 0.34873 0.82772 0.9961 0.0
H107 H 0.27686 0.77333 0.01697 0.0
Cd108 Cd 0.65397 0.17573 0.58067 0.0
Cd109 Cd 0.62426 0.21673 0.50818 0.0
C110 C 0.62577 0.11835 0.55717 0.0
N111 N 0.61799 0.14292 0.57076 0.0
C112 C 0.5749 0.12109 0.58756 0.0
C113 C 0.58335 0.09505 0.57518 0.0
C114 C 0.60849 0.09414 0.55883 0.0
C115 C 0.59278 0.14496 0.5852 0.0
H116 H 0.64642 0.1167 0.54697 0.0
H117 H 0.58768 0.16429 0.59685 0.0
C118 C 0.60558 0.23399 0.57874 0.0
C119 C 0.64683 0.27983 0.49971 0.0
C120 C 0.66357 0.3014 0.48768 0.0
C121 C 0.69151 0.29509 0.47846 0.0
C122 C 0.70272 0.26771 0.48399 0.0
C123 C 0.68516 0.24676 0.49597 0.0
N124 N 0.65753 0.25297 0.50262 0.0
H125 H 0.62458 0.28391 0.50464 0.0
H126 H 0.69306 0.22514 0.49818 0.0
C127 C 0.56504 0.1957 0.53123 0.0
N128 N 0.589 0.1837 0.51995 0.0
C129 C 0.56552 0.13825 0.51663 0.0
C130 C 0.54122 0.14989 0.53009 0.0
C131 C 0.54103 0.17918 0.53669 0.0
C132 C 0.58936 0.15579 0.51156 0.0
H133 H 0.56414 0.21843 0.53524 0.0
H134 H 0.60808 0.14717 0.501 0.0
C135 C 0.67816 0.16212 0.51183 0.0
C136 C 0.67341 0.14949 0.63238 0.0
N137 N 0.68902 0.21019 0.57287 0.0
C138 C 0.7161 0.20048 0.57695 0.0
C139 C 0.73879 0.21967 0.57911 0.0
C140 C 0.73352 0.24922 0.57726 0.0
C141 C 0.70562 0.25853 0.571 0.0
C142 C 0.68349 0.2385 0.56903 0.0
C143 C 0.59185 0.22849 0.45821 0.0
O144 O 0.61804 0.21227 0.58929 0.0
O145 O 0.60848 0.24091 0.55257 0.0
O146 O 0.66121 0.1799 0.50015 0.0
O147 O 0.67833 0.15857 0.53869 0.0
O148 O 0.66065 0.17342 0.63263 0.0
O149 O 0.67789 0.13832 0.60811 0.0
O150 O 0.61381 0.21257 0.45758 0.0
O151 O 0.58631 0.24086 0.48169 0.0
H152 H 0.71978 0.17787 0.58034 0.0
H153 H 0.66186 0.24578 0.56593 0.0
H154 H 0.55602 0.12232 0.60095 0.0
H155 H 0.61582 0.07426 0.54937 0.0
H156 H 0.65394 0.32207 0.48362 0.0
H157 H 0.72431 0.2621 0.4777 0.0
H158 H 0.56639 0.11582 0.51084 0.0
H159 H 0.52231 0.1894 0.54579 0.0
H160 H 0.75982 0.21147 0.58437 0.0
H161 H 0.70071 0.2811 0.56907 0.0
Cd162 Cd 0.87835 0.77988 0.00999 0.0
Cd163 Cd 0.84238 0.8256 0.07801 0.0
C164 C 0.93502 0.80737 0.03379 0.0
N165 N 0.91126 0.816 0.0195 0.0
C166 C 0.93348 0.86082 0.00814 0.0
C167 C 0.9584 0.85212 0.02257 0.0
C168 C 0.95855 0.8253 0.03611 0.0
C169 C 0.91 0.84215 0.00668 0.0
H170 H 0.93637 0.78604 0.04241 0.0
H171 H 0.89131 0.84807 0.99439 0.0
C172 C 0.82547 0.83623 0.00737 0.0
C173 C 0.78504 0.794 0.05607 0.0
C174 C 0.76302 0.77395 0.05529 0.0
C175 C 0.76584 0.74822 0.0705 0.0
C176 C 0.7922 0.74204 0.08352 0.0
C177 C 0.81393 0.76248 0.08326 0.0
N178 N 0.80981 0.7882 0.07025 0.0
H179 H 0.78149 0.81477 0.0467 0.0
H180 H 0.83315 0.75847 0.09535 0.0
C181 C 0.86795 0.88531 0.05721 0.0
N182 N 0.87711 0.85963 0.06735 0.0
C183 C 0.923 0.87937 0.0782 0.0
C184 C 0.91369 0.90657 0.06916 0.0
C185 C 0.886 0.90906 0.05769 0.0
C186 C 0.90412 0.8562 0.07753 0.0
H187 H 0.8459 0.8881 0.05084 0.0
H188 H 0.91054 0.83587 0.08649 0.0
C189 C 0.89195 0.76694 0.082 0.0
C190 C 0.90816 0.76615 0.95879 0.0
N191 N 0.84464 0.74365 0.00691 0.0
C192 C 0.8554 0.71708 0.00209 0.0
C193 C 0.83818 0.69583 0.9901 0.0
C194 C 0.80956 0.70202 0.98308 0.0
C195 C 0.79841 0.72892 0.99091 0.0
C196 C 0.81657 0.74971 0.00241 0.0
C197 C 0.82223 0.85249 0.12903 0.0
O198 O 0.84238 0.81646 -0.00054 0.0
O199 O 0.82323 0.84311 0.0335 0.0
O200 O 0.87652 0.78815 0.08909 0.0
O201 O 0.89394 0.75886 0.05606 0.0
O202 O 0.88517 0.78047 0.95895 0.0
O203 O 0.91659 0.75633 0.98264 0.0
O204 O 0.84414 0.83657 0.12885 0.0
O205 O 0.80877 0.85498 0.10561 0.0
H206 H 0.87803 0.71319 0.00511 0.0
H207 H 0.80878 0.77125 0.0055 0.0
H208 H 0.93246 0.88132 0.99742 0.0
H209 H 0.97693 0.81787 0.04811 0.0
H210 H 0.74319 0.77947 0.04462 0.0
H211 H 0.79522 0.72274 0.09596 0.0
H212 H 0.94429 0.87619 0.08678 0.0
H213 H 0.8774 0.92958 0.05124 0.0
H214 H 0.84795 0.67565 0.98422 0.0
H215 H 0.77636 0.73453 0.9865 0.0
Cd216 Cd 0.49332 0.12148 0.27572 0.0
Cd217 Cd 0.4246 0.15863 0.31654 0.0
C218 C 0.46727 0.06297 0.30084 0.0
N219 N 0.48268 0.08594 0.30997 0.0
C220 C 0.49091 0.06313 0.35525 0.0
C221 C 0.47496 0.03932 0.3462 0.0
C222 C 0.46299 0.03952 0.3187 0.0
C223 C 0.4949 0.08622 0.33646 0.0
H224 H 0.45903 0.06223 0.2793 0.0
H225 H 0.50798 0.10418 0.34294 0.0
C226 C 0.49469 0.17135 0.33359 0.0
C227 C 0.44533 0.21725 0.29065 0.0
C228 C 0.44614 0.24055 0.27214 0.0
C229 C 0.43755 0.23691 0.24362 0.0
C230 C 0.43162 0.20922 0.23357 0.0
C231 C 0.43103 0.1865 0.25285 0.0
N232 N 0.43681 0.19114 0.281 0.0
H233 H 0.44915 0.22055 0.31323 0.0
H234 H 0.42398 0.16582 0.24553 0.0
C235 C 0.44319 0.11651 0.36736 0.0
N236 N 0.42619 0.11749 0.34381 0.0
C237 C 0.39632 0.08048 0.3624 0.0
C238 C 0.41231 0.08035 0.38787 0.0
C239 C 0.43698 0.09754 0.38946 0.0
C240 C 0.40362 0.09941 0.34059 0.0
H241 H 0.46042 0.13167 0.36996 0.0
H242 H 0.38949 0.10166 0.32242 0.0
C243 C 0.42147 0.10903 0.25839 0.0
C244 C 0.54695 0.09711 0.26169 0.0
N245 N 0.49399 0.1574 0.24133 0.0
C246 C 0.49349 0.14931 0.21339 0.0
C247 C 0.50424 0.16758 0.1923 0.0
C248 C 0.51583 0.1942 0.20024 0.0
C249 C 0.51347 0.20296 0.22894 0.0
C250 C 0.50275 0.18399 0.2493 0.0
C251 C 0.37941 0.18533 0.34792 0.0
O252 O 0.50287 0.15461 0.31392 0.0
O253 O 0.46834 0.17503 0.33859 0.0
O254 O 0.41183 0.12481 0.27841 0.0
O255 O 0.4482 0.10683 0.25365 0.0
O256 O 0.54465 0.12062 0.2749 0.0
O257 O 0.52393 0.08553 0.25305 0.0
O258 O 0.37391 0.17085 0.32558 0.0
O259 O 0.40551 0.18838 0.35428 0.0
H260 H 0.48725 0.12771 0.2078 0.0
H261 H 0.50354 0.18975 0.27167 0.0
H262 H 0.50056 0.06363 0.37632 0.0
H263 H 0.45052 0.02154 0.31099 0.0
H264 H 0.45045 0.26164 0.2808 0.0
H265 H 0.42504 0.20564 0.21162 0.0
H266 H 0.37688 0.06807 0.36025 0.0
H267 H 0.45047 0.0976 0.4083 0.0
H268 H 0.50581 0.15984 0.1705 0.0
H269 H 0.52168 0.2235 0.23591 0.0
Cd270 Cd 0.07118 0.83841 0.82117 0.0
Cd271 Cd 0.0054 0.87824 0.77641 0.0
C272 C 0.05031 0.87921 0.87132 0.0
N273 N 0.0669 0.88018 0.84748 0.0
C274 C 0.09184 0.92118 0.86519 0.0
C275 C 0.07672 0.91903 0.89095 0.0
C276 C 0.05468 0.89879 0.89337 0.0
C277 C 0.08686 0.90106 0.8437 0.0
H278 H 0.03543 0.8618 0.87437 0.0
H279 H 0.10087 0.90055 0.82535 0.0
C280 C 0.07745 0.88799 0.76271 0.0
C281 C -0.00195 0.85171 0.71505 0.0
C282 C 0.98793 0.83289 0.6942 0.0
C283 C 0.98269 0.8041 0.70126 0.0
C284 C 0.98994 0.79464 0.7289 0.0
C285 C -0.00029 0.81433 0.74923 0.0
N286 N 0.00283 0.84236 0.7421 0.0
H287 H -2e-05 0.87428 0.71027 0.0
H288 H 0.00305 0.80752 0.77104 0.0
C289 C 0.03432 0.93199 0.80713 0.0
N290 N 0.01605 0.91028 0.81341 0.0
C291 C 0.00223 0.93372 0.85701 0.0
C292 C 0.02078 0.95647 0.85067 0.0
C293 C 0.03734 0.95506 0.82567 0.0
C294 C -8e-05 0.91079 0.83772 0.0
H295 H 0.04568 0.93229 0.78709 0.0
H296 H 0.98453 0.89396 0.84164 0.0
C297 C -0.00023 0.82553 0.83225 0.0
C298 C 0.11781 0.81504 0.853 0.0
N299 N 0.06311 0.80385 0.78625 0.0
C300 C 0.05415 0.77775 0.7954 0.0
C301 C 0.05564 0.75413 0.77721 0.0
C302 C 0.06724 0.75734 0.74967 0.0
C303 C 0.07401 0.78496 0.74003 0.0
C304 C 0.07195 0.80804 0.75885 0.0
C305 C 0.9555 0.90996 0.76204 0.0
O306 O 0.083 0.87175 0.78371 0.0
O307 O 0.05179 0.8918 0.75438 0.0
O308 O 0.99212 0.8432 0.8131 0.0
O309 O 0.02593 0.82161 0.83804 0.0
O310 O 0.1212 0.82463 0.82785 0.0
O311 O 0.09262 0.8155 0.86294 0.0
O312 O 0.95457 0.88636 0.77522 0.0
O313 O 0.97986 0.91794 0.75311 0.0
H314 H 0.04775 0.77481 0.81743 0.0
H315 H 0.07947 0.82873 0.75207 0.0
H316 H 0.10942 0.93613 0.86294 0.0
H317 H 0.04283 0.89647 0.91315 0.0
H318 H 0.98227 0.84142 0.67343 0.0
H319 H 0.98674 0.77258 0.73522 0.0
H320 H 0.98901 0.93415 0.87603 0.0
H321 H 0.05214 0.97202 0.82013 0.0
H322 H 0.0498 0.73323 0.78535 0.0
H323 H 0.08331 0.78842 0.7191 0.0
Cd324 Cd 0.92021 0.34221 0.67458 0.0
Cd325 Cd 0.99284 0.37465 0.71539 0.0
C326 C 0.94232 0.37233 0.61798 0.0
N327 N 0.92889 0.37922 0.6429 0.0
C328 C 0.9058 0.41898 0.62076 0.0
C329 C 0.91768 0.41101 0.5944 0.0
C330 C 0.93723 0.38832 0.59335 0.0
C331 C 0.91184 0.40271 0.64504 0.0
H332 H 0.95453 0.35278 0.61636 0.0
H333 H 0.90022 0.4068 0.66462 0.0
C334 C 0.92095 0.39247 0.73183 0.0
C335 C 0.99467 0.35225 0.77922 0.0
C336 C 0.00548 0.3349 0.80099 0.0
C337 C 0.0134 0.30657 0.79471 0.0
C338 C 0.00705 0.29545 0.76746 0.0
C339 C 0.99623 0.31355 0.74636 0.0
N340 N 0.99154 0.34164 0.75232 0.0
H341 H 0.99154 0.37488 0.78307 0.0
H342 H 0.99401 0.30574 0.7247 0.0
C343 C 0.96913 0.43303 0.68996 0.0
N344 N 0.982 0.40873 0.68042 0.0
C345 C 0.98616 0.4286 0.63334 0.0
C346 C 0.97139 0.45314 0.64247 0.0
C347 C 0.96322 0.45533 0.67124 0.0
C348 C 0.9913 0.40642 0.65289 0.0
H349 H 0.96393 0.43552 0.71231 0.0
H350 H 0.00265 0.38741 0.64609 0.0
C351 C 0.99021 0.32055 0.66205 0.0
C352 C 0.87368 0.31864 0.64248 0.0
N353 N 0.92538 0.3079 0.70997 0.0
C354 C 0.92494 0.28083 0.69941 0.0
C355 C 0.92074 0.2577 0.71759 0.0
C356 C 0.9169 0.26246 0.74705 0.0
C357 C 0.92007 0.29048 0.75768 0.0
C358 C 0.92406 0.31312 0.73858 0.0
C359 C 0.04742 0.39888 0.72769 0.0
O360 O 0.91066 0.37735 0.71167 0.0
O361 O 0.94771 0.39265 0.73723 0.0
O362 O 0.00207 0.3376 0.67956 0.0
O363 O 0.96338 0.3204 0.65877 0.0
O364 O 0.86886 0.335 0.66367 0.0
O365 O 0.89959 0.31304 0.63713 0.0
O366 O 0.04452 0.37566 0.71408 0.0
O367 O 0.02472 0.41037 0.73726 0.0
H368 H 0.92574 0.27739 0.67653 0.0
H369 H 0.92447 0.3348 0.74653 0.0
H370 H 0.88964 0.43557 0.62191 0.0
H371 H 0.94592 0.38109 0.57309 0.0
H372 H 0.0102 0.34436 0.82163 0.0
H373 H 0.01245 0.27358 0.76191 0.0
H374 H 0.99297 0.42632 0.6113 0.0
H375 H 0.95259 0.47432 0.67928 0.0
H376 H 0.91811 0.23667 0.7082 0.0
H377 H 0.91781 0.29506 0.78029 0.0
Cd378 Cd 0.50738 0.62674 0.21447 0.0
Cd379 Cd 0.57841 0.66168 0.17228 0.0
C380 C 0.52571 0.56398 0.19821 0.0
N381 N 0.51666 0.58788 0.18439 0.0
C382 C 0.51215 0.56156 0.14055 0.0
C383 C 0.52208 0.53673 0.15436 0.0
C384 C 0.52905 0.53835 0.18353 0.0
C385 C 0.50938 0.58711 0.15618 0.0
H386 H 0.52959 0.56451 0.22099 0.0
H387 H 0.50109 0.60614 0.14595 0.0
C388 C 0.50906 0.68121 0.15968 0.0
C389 C 0.57092 0.72108 0.2022 0.0
C390 C 0.57391 0.74282 0.22235 0.0
C391 C 0.57665 0.73588 0.25147 0.0
C392 C 0.57354 0.70714 0.25969 0.0
C393 C 0.57077 0.68599 0.23869 0.0
N394 N 0.57075 0.69324 0.21049 0.0
H395 H 0.57076 0.72635 0.17969 0.0
H396 H 0.57026 0.66391 0.24509 0.0
C397 C 0.55664 0.6341 0.11402 0.0
N398 N 0.5669 0.62553 0.13985 0.0
C399 C 0.57728 0.57904 0.12114 0.0
C400 C 0.56852 0.58786 0.09368 0.0
C401 C 0.55705 0.61551 0.09065 0.0
C402 C 0.57661 0.59843 0.14395 0.0
H403 H 0.55035 0.65611 0.11082 0.0
H404 H 0.58536 0.59228 0.16444 0.0
C405 C 0.5813 0.61105 0.22808 0.0
C406 C 0.45227 0.60255 0.22388 0.0
N407 N 0.50694 0.65709 0.25416 0.0
C408 C 0.51486 0.64758 0.2805 0.0
C409 C 0.50702 0.66294 0.30505 0.0
C410 C 0.49045 0.68787 0.30226 0.0
C411 C 0.48449 0.69821 0.27468 0.0
C412 C 0.49294 0.68236 0.25079 0.0
C413 C 0.62501 0.68754 0.14257 0.0
O414 O 0.4985 0.66376 0.17765 0.0
O415 O 0.53572 0.68267 0.15581 0.0
O416 O 0.59032 0.62737 0.20838 0.0
O417 O 0.55469 0.60904 0.23389 0.0
O418 O 0.45595 0.62453 0.20853 0.0
O419 O 0.47412 0.59287 0.23683 0.0
O420 O 0.62914 0.66539 0.15765 0.0
O421 O 0.59986 0.69739 0.14191 0.0
H422 H 0.52543 0.6271 0.2826 0.0
H423 H 0.48649 0.68915 0.22964 0.0
H424 H 0.50637 0.56118 0.11811 0.0
H425 H 0.53702 0.51991 0.19506 0.0
H426 H 0.57639 0.76458 0.21482 0.0
H427 H 0.57488 0.70088 0.28196 0.0
H428 H 0.58582 0.55782 0.1248 0.0
H429 H 0.55072 0.62374 0.06996 0.0
H430 H 0.51185 0.6542 0.32595 0.0
H431 H 0.47194 0.71747 0.27166 0.0
Cd432 Cd 0.283 0.48635 0.12236 0.0
Cd433 Cd 0.32496 0.41674 0.15596 0.0
C434 C 0.31741 0.45887 0.06925 0.0
N435 N 0.3211 0.47849 0.09044 0.0
C436 C 0.36306 0.49672 0.067 0.0
C437 C 0.35906 0.47697 0.04475 0.0
C438 C 0.33638 0.45747 0.04645 0.0
C439 C 0.34345 0.49729 0.08974 0.0
H440 H 0.29893 0.44527 0.06887 0.0
H441 H 0.34534 0.51355 0.10613 0.0
C442 C 0.34194 0.48618 0.17256 0.0
C443 C 0.2981 0.43023 0.21628 0.0
C444 C 0.27883 0.42681 0.23878 0.0
C445 C 0.25016 0.42 0.23276 0.0
C446 C 0.24091 0.42032 0.2042 0.0
C447 C 0.26093 0.42375 0.18236 0.0
N448 N 0.2891 0.4273 0.18879 0.0
H449 H 0.3207 0.43244 0.22078 0.0
H450 H 0.25414 0.42125 0.1605 0.0
C451 C 0.37526 0.43914 0.11249 0.0
N452 N 0.35454 0.4191 0.11614 0.0
C453 C 0.3735 0.39097 0.07792 0.0
C454 C 0.39554 0.41104 0.07356 0.0
C455 C 0.39582 0.43572 0.091 0.0
C456 C 0.35332 0.39542 0.09937 0.0
H457 H 0.37649 0.45729 0.12679 0.0
H458 H 0.33773 0.37901 0.10393 0.0
C459 C 0.2683 0.41533 0.10467 0.0
C460 C 0.26625 0.53692 0.09249 0.0
N461 N 0.25057 0.48896 0.16054 0.0
C462 C 0.22264 0.48283 0.15517 0.0
C463 C 0.20127 0.49217 0.17397 0.0
C464 C 0.20872 0.50837 0.19828 0.0
C465 C 0.23792 0.51245 0.20428 0.0
C466 C 0.25856 0.50266 0.18498 0.0
C467 C 0.34879 0.36582 0.17905 0.0
O468 O 0.32257 0.497 0.15673 0.0
O469 O 0.34544 0.45939 0.17403 0.0
O470 O 0.28903 0.40828 0.12062 0.0
O471 O 0.25986 0.44126 0.10357 0.0
O472 O 0.28157 0.5377 0.1148 0.0
O473 O 0.25695 0.51256 0.08499 0.0
O474 O 0.32467 0.36586 0.16666 0.0
O475 O 0.36126 0.38973 0.18173 0.0
H476 H 0.21679 0.47243 0.13532 0.0
H477 H 0.28074 0.50802 0.18855 0.0
H478 H 0.3803 0.51219 0.06617 0.0
H479 H 0.33269 0.44192 0.0296 0.0
H480 H 0.28695 0.42656 0.26049 0.0
H481 H 0.21887 0.4156 0.19872 0.0
H482 H 0.37268 0.37097 0.06625 0.0
H483 H 0.41205 0.45204 0.08872 0.0
H484 H 0.17908 0.48801 0.16873 0.0
H485 H 0.24479 0.52503 0.22251 0.0
Cd486 Cd 0.81634 0.07429 0.83422 0.0
Cd487 Cd 0.77554 0.00789 0.87849 0.0
C488 C 0.87571 0.06649 0.86469 0.0
N489 N 0.84824 0.07246 0.87214 0.0
C490 C 0.86357 0.09224 0.91669 0.0
C491 C 0.8923 0.08829 0.90865 0.0
C492 C 0.89821 0.07415 0.88277 0.0
C493 C 0.84176 0.08449 0.89786 0.0
H494 H 0.88032 0.05796 0.84366 0.0
H495 H 0.81993 0.08974 0.90316 0.0
C496 C 0.76086 0.08152 0.88627 0.0
C497 C 0.71097 0.00941 0.85481 0.0
C498 C 0.68749 0.00026 0.83862 0.0
C499 C 0.692 0.98576 0.81262 0.0
C500 C 0.72022 0.98303 0.80247 0.0
C501 C 0.74306 0.99247 0.81936 0.0
N502 N 0.73807 0.00461 0.84535 0.0
H503 H 0.70763 0.0185 0.87585 0.0
H504 H 0.76477 0.98851 0.81243 0.0
C505 C 0.80121 0.02987 0.9369 0.0
N506 N 0.81132 0.02045 0.91128 0.0
C507 C 0.85889 0.01778 0.93029 0.0
C508 C 0.84878 0.02703 0.95709 0.0
C509 C 0.8196 0.03332 0.96013 0.0
C510 C 0.83954 0.01412 0.90762 0.0
H511 H 0.77856 0.0338 0.93959 0.0
H512 H 0.84699 0.00574 0.88738 0.0
C513 C 0.83047 0.00267 0.82473 0.0
C514 C 0.84477 0.12016 0.80544 0.0
N515 N 0.78045 0.0603 0.80272 0.0
C516 C 0.78965 0.0529 0.77612 0.0
C517 C 0.77044 0.05189 0.75334 0.0
C518 C 0.74166 0.05905 0.75804 0.0
C519 C 0.73223 0.06357 0.78622 0.0
C520 C 0.75219 0.06432 0.80841 0.0
C521 C 0.7627 0.95838 0.91153 0.0
O522 O 0.7797 0.08863 0.86803 0.0
O523 O 0.75611 0.05536 0.89227 0.0
O524 O 0.81171 0.99469 0.8427 0.0
O525 O 0.83526 0.02893 0.82025 0.0
O526 O 0.82369 0.12482 0.82188 0.0
O527 O 0.85129 0.09424 0.80108 0.0
O528 O 0.77725 0.95734 0.88871 0.0
O529 O 0.75197 0.98246 0.91809 0.0
H530 H 0.81229 0.05025 0.77211 0.0
H531 H 0.74527 0.07021 0.82963 0.0
H532 H 0.85801 0.1024 0.93678 0.0
H533 H 0.91999 0.07094 0.87552 0.0
H534 H 0.66617 0.00265 0.8474 0.0
H535 H 0.7247 0.97245 0.78233 0.0
H536 H 0.88133 0.0129 0.92711 0.0
H537 H 0.81107 0.04092 0.98031 0.0
H538 H 0.77863 0.04859 0.7319 0.0
H539 H 0.7101 0.06891 0.79065 0.0
Cd540 Cd 0.71849 0.9972 0.37336 0.0
Cd541 Cd 0.67602 0.92178 0.34484 0.0
C542 C 0.70542 0.97329 0.43526 0.0
N543 N 0.69052 0.98324 0.41235 0.0
C544 C 0.64642 0.97778 0.43784 0.0
C545 C 0.66123 0.96471 0.46049 0.0
C546 C 0.69116 0.96333 0.45934 0.0
C547 C 0.66164 0.98681 0.41361 0.0
H548 H 0.72853 0.97284 0.43484 0.0
H549 H 0.65041 0.99619 0.39569 0.0
C550 C 0.65856 0.99247 0.32762 0.0
C551 C 0.70784 0.94858 0.28868 0.0
C552 C 0.72507 0.94746 0.26439 0.0
C553 C 0.74548 0.92562 0.2617 0.0
C554 C 0.75013 0.90731 0.28511 0.0
C555 C 0.73267 0.90948 0.30924 0.0
N556 N 0.71133 0.9292 0.31015 0.0
H557 H 0.69054 0.96373 0.28908 0.0
H558 H 0.73464 0.89393 0.32624 0.0
C559 C 0.62074 0.9418 0.37918 0.0
N560 N 0.64562 0.9274 0.38374 0.0
C561 C 0.62657 0.9062 0.42617 0.0
C562 C 0.60019 0.91953 0.42087 0.0
C563 C 0.59785 0.93858 0.39787 0.0
C564 C 0.64922 0.91043 0.4071 0.0
H565 H 0.61762 0.95408 0.35994 0.0
H566 H 0.6687 0.89822 0.40955 0.0
C567 C 0.73632 0.9249 0.39051 0.0
C568 C 0.7304 0.05237 0.39698 0.0
N569 N 0.75271 0.99496 0.33743 0.0
C570 C 0.78003 0.98722 0.34375 0.0
C571 C 0.80225 0.99398 0.32497 0.0
C572 C 0.79628 0.00938 0.29983 0.0
C573 C 0.76753 0.01494 0.29287 0.0
C574 C 0.74598 0.00761 0.31216 0.0
C575 C 0.64484 0.87523 0.32023 0.0
O576 O 0.6779 0.00597 0.34109 0.0
O577 O 0.65714 0.96554 0.32854 0.0
O578 O 0.71474 0.91382 0.3782 0.0
O579 O 0.74196 0.95155 0.38869 0.0
O580 O 0.71457 0.04878 0.37531 0.0
O581 O 0.7427 0.03025 0.40681 0.0
O582 O 0.66557 0.87049 0.33716 0.0
O583 O 0.63977 0.90113 0.31423 0.0
H584 H 0.78492 0.97781 0.36429 0.0
H585 H 0.72417 0.01412 0.308 0.0
H586 H 0.62334 0.97976 0.4383 0.0
H587 H 0.70344 0.95441 0.47686 0.0
H588 H 0.72109 0.96235 0.2471 0.0
H589 H 0.76537 0.88989 0.28395 0.0
H590 H 0.62886 0.89077 0.4433 0.0
H591 H 0.57772 0.94902 0.39304 0.0
H592 H 0.82404 0.98883 0.33095 0.0
H593 H 0.76183 0.02699 0.27394 0.0
Cd594 Cd 0.21914 0.5082 0.62638 0.0
Cd595 Cd 0.17824 0.57813 0.65632 0.0
C596 C 0.1979 0.53344 0.56742 0.0
N597 N 0.18612 0.52206 0.59141 0.0
C598 C 0.14125 0.51602 0.56719 0.0
C599 C 0.15329 0.52733 0.54207 0.0
C600 C 0.18167 0.53706 0.54287 0.0
C601 C 0.15832 0.51328 0.59178 0.0
H602 H 0.22049 0.53799 0.56645 0.0
H603 H 0.14982 0.50289 0.61061 0.0
C604 C 0.16312 0.50807 0.67656 0.0
C605 C 0.21697 0.55183 0.70719 0.0
C606 C 0.23681 0.55297 0.72938 0.0
C607 C 0.25905 0.57303 0.72831 0.0
C608 C 0.26275 0.58916 0.70327 0.0
C609 C 0.24234 0.58733 0.68146 0.0
N610 N 0.21941 0.56957 0.68422 0.0
H611 H 0.19829 0.53873 0.71003 0.0
H612 H 0.24345 0.60209 0.66373 0.0
C613 C 0.11759 0.55576 0.63016 0.0
N614 N 0.14124 0.57114 0.62284 0.0
C615 C 0.11622 0.59161 0.58309 0.0
C616 C 0.09099 0.57745 0.59144 0.0
C617 C 0.09252 0.558 0.61425 0.0
C618 C 0.14124 0.58811 0.5992 0.0
H619 H 0.11716 0.54311 0.64937 0.0
H620 H 0.15995 0.60076 0.59419 0.0
C621 C 0.23414 0.58007 0.60714 0.0
C622 C 0.22845 0.45643 0.59526 0.0
N623 N 0.25642 0.50432 0.65926 0.0
C624 C 0.27998 0.52145 0.65987 0.0
C625 C 0.30423 0.51315 0.67542 0.0
C626 C 0.30427 0.48682 0.69006 0.0
C627 C 0.27895 0.47052 0.69013 0.0
C628 C 0.25524 0.47975 0.67462 0.0
C629 C 0.15297 0.62454 0.68703 0.0
O630 O 0.18263 0.49574 0.66224 0.0
O631 O 0.15985 0.53485 0.67533 0.0
O632 O 0.2119 0.59043 0.61887 0.0
O633 O 0.24157 0.55405 0.61071 0.0
O634 O 0.21122 0.45828 0.61605 0.0
O635 O 0.24338 0.47846 0.58989 0.0
O636 O 0.16214 0.62804 0.66175 0.0
O637 O 0.15662 0.60014 0.69806 0.0
H638 H 0.28062 0.54075 0.64718 0.0
H639 H 0.23644 0.4663 0.67324 0.0
H640 H 0.11947 0.50811 0.56743 0.0
H641 H 0.19181 0.54627 0.52418 0.0
H642 H 0.23327 0.54019 0.74838 0.0
H643 H 0.27947 0.60515 0.70182 0.0
H644 H 0.11616 0.60701 0.56582 0.0
H645 H 0.0739 0.54602 0.62109 0.0
H646 H 0.32305 0.52666 0.67508 0.0
H647 H 0.27787 0.44986 0.70049 0.0
Cd648 Cd 0.8419 0.67557 0.57118 0.0
Cd649 Cd 0.87683 0.72313 0.50139 0.0
C650 C 0.86742 0.61715 0.54381 0.0
N651 N 0.87525 0.64023 0.55986 0.0
C652 C 0.91319 0.61356 0.58131 0.0
C653 C 0.90428 0.58903 0.56651 0.0
C654 C 0.88201 0.59127 0.54658 0.0
C655 C 0.89838 0.63923 0.57749 0.0
H656 H 0.84829 0.61772 0.53093 0.0
H657 H 0.90331 0.6574 0.59098 0.0
C658 C 0.89508 0.73189 0.57327 0.0
C659 C 0.85006 0.78655 0.50874 0.0
C660 C 0.83175 0.80923 0.50186 0.0
C661 C 0.80561 0.8036 0.488 0.0
C662 C 0.79762 0.77491 0.48357 0.0
C663 C 0.81648 0.75299 0.49083 0.0
N664 N 0.84245 0.7592 0.50235 0.0
H665 H 0.87106 0.79089 0.51747 0.0
H666 H 0.81116 0.73119 0.48531 0.0
C667 C 0.93786 0.69996 0.51907 0.0
N668 N 0.91213 0.68914 0.51078 0.0
C669 C 0.93183 0.64189 0.50849 0.0
C670 C 0.95828 0.65263 0.51774 0.0
C671 C 0.96126 0.68195 0.52294 0.0
C672 C 0.90888 0.66082 0.50471 0.0
H673 H 0.94038 0.72274 0.52225 0.0
H674 H 0.88859 0.65297 0.49682 0.0
C675 C 0.82255 0.66761 0.50135 0.0
C676 C 0.82122 0.64794 0.6221 0.0
N677 N 0.80947 0.71297 0.56599 0.0
C678 C 0.78187 0.70397 0.56486 0.0
C679 C 0.75957 0.72332 0.56867 0.0
C680 C 0.76571 0.75231 0.57385 0.0
C681 C 0.79437 0.76142 0.57247 0.0
C682 C 0.81611 0.7412 0.56866 0.0
C683 C 0.90402 0.73537 0.44867 0.0
O684 O 0.87936 0.71135 0.58186 0.0
O685 O 0.89505 0.73986 0.54726 0.0
O686 O 0.84087 0.68664 0.49539 0.0
O687 O 0.81835 0.66021 0.5271 0.0
O688 O 0.84271 0.66444 0.62259 0.0
O689 O 0.80869 0.64506 0.59825 0.0
O690 O 0.88249 0.71898 0.45051 0.0
O691 O 0.91146 0.74846 0.4713 0.0
H692 H 0.77722 0.68137 0.56307 0.0
H693 H 0.83816 0.74794 0.56957 0.0
H694 H 0.92948 0.61219 0.59775 0.0
H695 H 0.87414 0.57249 0.53545 0.0
H696 H 0.83861 0.83097 0.50606 0.0
H697 H 0.77795 0.76941 0.47261 0.0
H698 H 0.92899 0.61925 0.50435 0.0
H699 H 0.98148 0.69079 0.53008 0.0
H700 H 0.73793 0.71512 0.56993 0.0
H701 H 0.80001 0.78364 0.57594 0.0
Cd702 Cd 0.62311 0.28066 0.00204 0.0
Cd703 Cd 0.66031 0.31979 0.0761 0.0
C704 C 0.56124 0.30504 0.01512 0.0
N705 N 0.58803 0.31532 0.01042 0.0
C706 C 0.57025 0.36338 0.00969 0.0
C707 C 0.54237 0.35332 0.0151 0.0
C708 C 0.53811 0.32369 0.01775 0.0
C709 C 0.59289 0.34385 0.00722 0.0
H710 H 0.55774 0.28221 0.01653 0.0
H711 H 0.61423 0.35146 0.00255 0.0
C712 C 0.67917 0.33426 0.0078 0.0
C713 C 0.71829 0.2894 0.05582 0.0
C714 C 0.73996 0.26895 0.05601 0.0
C715 C 0.7341 0.24142 0.06628 0.0
C716 C 0.70577 0.23412 0.07307 0.0
C717 C 0.68457 0.25517 0.0721 0.0
N718 N 0.69141 0.28244 0.06459 0.0
H719 H 0.72368 0.31136 0.05109 0.0
H720 H 0.6633 0.2502 0.0796 0.0
C721 C 0.63731 0.38187 0.06244 0.0
N722 N 0.62653 0.35574 0.06932 0.0
C723 C 0.58155 0.37666 0.08163 0.0
C724 C 0.59252 0.40416 0.07593 0.0
C725 C 0.62059 0.4064 0.06541 0.0
C726 C 0.59906 0.35265 0.07836 0.0
H727 H 0.65958 0.38401 0.05663 0.0
H728 H 0.59115 0.33184 0.08452 0.0
C729 C 0.6029 0.26763 0.07261 0.0
C730 C 0.60159 0.27085 0.946 0.0
N731 N 0.65407 0.24186 0.00551 0.0
C732 C 0.64259 0.21539 0.00913 0.0
C733 C 0.65854 0.19102 0.00225 0.0
C734 C 0.68632 0.19414 0.99123 0.0
C735 C 0.69846 0.22166 0.99029 0.0
C736 C 0.68176 0.24541 0.99737 0.0
C737 C 0.68249 0.34117 0.12913 0.0
O738 O 0.6605 0.31604 0.00045 0.0
O739 O 0.68288 0.34028 0.03397 0.0
O740 O 0.62091 0.28554 0.08247 0.0
O741 O 0.60115 0.2624 0.04595 0.0
O742 O 0.62355 0.28611 0.95043 0.0
O743 O 0.59085 0.25833 0.96757 0.0
O744 O 0.66687 0.31901 0.12836 0.0
O745 O 0.68879 0.35239 0.10533 0.0
H746 H 0.62029 0.21327 0.01498 0.0
H747 H 0.6902 0.26672 0.99422 0.0
H748 H 0.57453 0.38603 0.00741 0.0
H749 H 0.51717 0.31492 0.0224 0.0
H750 H 0.76166 0.27552 0.05116 0.0
H751 H 0.70058 0.21307 0.08123 0.0
H752 H 0.55989 0.37371 0.0893 0.0
H753 H 0.63031 0.42702 0.06133 0.0
H754 H 0.64832 0.17023 0.00309 0.0
H755 H 0.71995 0.22491 0.98223 0.0
Cd756 Cd 0.33821 0.81774 0.41364 0.0
Cd757 Cd 0.37191 0.77759 0.48966 0.0
C758 C 0.38307 0.86845 0.43347 0.0
N759 N 0.37865 0.84698 0.41433 0.0
C760 C 0.41367 0.86668 0.38283 0.0
C761 C 0.41875 0.88965 0.40185 0.0
C762 C 0.40363 0.8896 0.42802 0.0
C763 C 0.39389 0.84547 0.3897 0.0
H764 H 0.36998 0.86987 0.45248 0.0
H765 H 0.38906 0.82885 0.37429 0.0
C766 C 0.38755 0.75849 0.41881 0.0
C767 C 0.34532 0.71432 0.48373 0.0
C768 C 0.32682 0.69194 0.49076 0.0
C769 C 0.30016 0.69805 0.50336 0.0
C770 C 0.29168 0.72685 0.50576 0.0
C771 C 0.31078 0.74855 0.49826 0.0
N772 N 0.33736 0.74188 0.48853 0.0
H773 H 0.36676 0.70963 0.47638 0.0
H774 H 0.3052 0.77065 0.5023 0.0
C775 C 0.4343 0.79376 0.46626 0.0
N776 N 0.41081 0.80621 0.47812 0.0
C777 C 0.43443 0.85158 0.47942 0.0
C778 C 0.45767 0.83959 0.46477 0.0
C779 C 0.4578 0.81029 0.45869 0.0
C780 C 0.41086 0.8343 0.48585 0.0
H781 H 0.435 0.77096 0.46268 0.0
H782 H 0.39246 0.84333 0.49663 0.0
C783 C 0.32214 0.83744 0.48095 0.0
C784 C 0.31622 0.84235 0.3627 0.0
N785 N 0.30368 0.78306 0.42518 0.0
C786 C 0.27854 0.79176 0.43705 0.0
C787 C 0.25515 0.77324 0.4381 0.0
C788 C 0.25737 0.74575 0.42608 0.0
C789 C 0.28422 0.73659 0.41609 0.0
C790 C 0.30714 0.75574 0.41569 0.0
C791 C 0.39095 0.77274 0.5475 0.0
O792 O 0.37167 0.77868 0.41009 0.0
O793 O 0.38997 0.75283 0.44538 0.0
O794 O 0.33799 0.8177 0.49083 0.0
O795 O 0.32035 0.8418 0.45435 0.0
O796 O 0.32975 0.81882 0.36186 0.0
O797 O 0.3117 0.85308 0.38715 0.0
O798 O 0.37007 0.78839 0.54026 0.0
O799 O 0.40197 0.75728 0.52797 0.0
H800 H 0.27584 0.81368 0.44388 0.0
H801 H 0.32693 0.7493 0.40573 0.0
H802 H 0.42345 0.86553 0.36193 0.0
H803 H 0.40677 0.90605 0.44399 0.0
H804 H 0.33402 0.67008 0.48796 0.0
H805 H 0.2715 0.73271 0.51553 0.0
H806 H 0.434 0.87417 0.48465 0.0
H807 H 0.47584 0.80036 0.44799 0.0
H808 H 0.23497 0.78106 0.44643 0.0
H809 H 0.28695 0.71573 0.40633 0.0
Cd810 Cd 0.1228 0.21462 0.99038 0.0
Cd811 Cd 0.15585 0.17697 0.91796 0.0
C812 C 0.06154 0.19445 0.96965 0.0
N813 N 0.0861 0.18266 0.97973 0.0
C814 C 0.06347 0.13683 0.98323 0.0
C815 C 0.038 0.14837 0.97193 0.0
C816 C 0.03754 0.17761 0.9649 0.0
C817 C 0.08743 0.15449 0.98695 0.0
H818 H 0.06026 0.21717 0.96574 0.0
H819 H 0.10688 0.14585 0.99604 0.0
C820 C 0.17396 0.15755 0.98584 0.0
C821 C 0.21229 0.20728 0.94032 0.0
C822 C 0.23519 0.2264 0.94007 0.0
C823 C 0.23132 0.25392 0.92875 0.0
C824 C 0.2036 0.26254 0.92101 0.0
C825 C 0.1813 0.24268 0.92148 0.0
N826 N 0.18623 0.21528 0.93006 0.0
H827 H 0.21617 0.18527 0.94614 0.0
H828 H 0.16092 0.24877 0.91267 0.0
C829 C 0.12458 0.11698 0.93034 0.0
N830 N 0.11795 0.14466 0.92415 0.0
C831 C 0.0711 0.13082 0.9089 0.0
C832 C 0.07811 0.1019 0.91305 0.0
C833 C 0.10475 0.09516 0.92521 0.0
C834 C 0.09149 0.15193 0.9144 0.0
H835 H 0.14606 0.11145 0.93691 0.0
H836 H 0.08669 0.17381 0.90893 0.0
C837 C 0.10547 0.23276 0.91826 0.0
C838 C 0.09938 0.22283 0.04589 0.0
N839 N 0.15392 0.25331 0.99128 0.0
C840 C 0.14825 0.27886 0.97856 0.0
C841 C 0.16356 0.30335 0.98655 0.0
C842 C 0.18432 0.30156 0.0083 0.0
C843 C 0.19058 0.27442 0.01979 0.0
C844 C 0.17516 0.25054 0.01085 0.0
C845 C 0.18388 0.15116 0.8702 0.0
O846 O 0.15835 0.17694 0.9967 0.0
O847 O 0.17449 0.15342 0.95912 0.0
O848 O 0.12143 0.214 0.90671 0.0
O849 O 0.10447 0.23587 0.94532 0.0
O850 O 0.12176 0.20818 0.04162 0.0
O851 O 0.08872 0.23549 0.02434 0.0
O852 O 0.15925 0.16212 0.86732 0.0
O853 O 0.19547 0.15341 0.89451 0.0
H854 H 0.13078 0.28071 0.96351 0.0
H855 H 0.17862 0.2301 0.02114 0.0
H856 H 0.0649 0.11455 0.98936 0.0
H857 H 0.01889 0.18763 0.95552 0.0
H858 H 0.25626 0.2187 0.94593 0.0
H859 H 0.19969 0.28372 0.91244 0.0
H860 H 0.05064 0.13694 0.89989 0.0
H861 H 0.11118 0.07311 0.92832 0.0
H862 H 0.15826 0.32363 0.97671 0.0
H863 H 0.20582 0.27174 0.03702 0.0
Cd864 Cd 0.57512 0.83549 0.67329 0.0
Cd865 Cd 0.5059 0.87114 0.72077 0.0
C866 C 0.5521 0.8706 0.61894 0.0
N867 N 0.56794 0.87415 0.64315 0.0
C868 C 0.59162 0.91462 0.62301 0.0
C869 C 0.57632 0.91084 0.59753 0.0
C870 C 0.5558 0.88907 0.59576 0.0
C871 C 0.58692 0.89604 0.64585 0.0
H872 H 0.53833 0.85218 0.61664 0.0
H873 H 0.60039 0.89738 0.66461 0.0
C874 C 0.58052 0.88233 0.73344 0.0
C875 C 0.50613 0.85075 0.78615 0.0
C876 C 0.49808 0.83455 0.80996 0.0
C877 C 0.48764 0.80658 0.80613 0.0
C878 C 0.48772 0.79493 0.77832 0.0
C879 C 0.49583 0.81194 0.7551 0.0
N880 N 0.50408 0.83952 0.75938 0.0
H881 H 0.5122 0.87294 0.78885 0.0
H882 H 0.49406 0.80364 0.73356 0.0
C883 C 0.53294 0.93112 0.70343 0.0
N884 N 0.51997 0.90839 0.69067 0.0
C885 C 0.52101 0.93229 0.64542 0.0
C886 C 0.53679 0.95467 0.65778 0.0
C887 C 0.54221 0.95422 0.68722 0.0
C888 C 0.51285 0.909 0.66244 0.0
H889 H 0.53603 0.93148 0.72631 0.0
H890 H 0.50115 0.89132 0.65312 0.0
C891 C 0.50342 0.81891 0.66362 0.0
C892 C 0.62225 0.81209 0.6419 0.0
N893 N 0.56491 0.80026 0.70679 0.0
C894 C 0.5618 0.77343 0.69594 0.0
C895 C 0.56162 0.74983 0.71411 0.0
C896 C 0.5652 0.754 0.74362 0.0
C897 C 0.56604 0.78202 0.75445 0.0
C898 C 0.56589 0.80504 0.73548 0.0
C899 C 0.45367 0.90057 0.73184 0.0
O900 O 0.58826 0.86741 0.71205 0.0
O901 O 0.55422 0.88467 0.74045 0.0
O902 O 0.49397 0.83532 0.68322 0.0
O903 O 0.52988 0.81759 0.65804 0.0
O904 O 0.62621 0.8262 0.66476 0.0
O905 O 0.59652 0.80782 0.63459 0.0
O906 O 0.45547 0.88 0.71428 0.0
O907 O 0.47611 0.9066 0.74595 0.0
H908 H 0.56137 0.77025 0.67301 0.0
H909 H 0.56823 0.82644 0.74372 0.0
H910 H 0.60869 0.93024 0.62434 0.0
H911 H 0.54447 0.88501 0.57593 0.0
H912 H 0.49817 0.84457 0.83087 0.0
H913 H 0.48033 0.77331 0.77438 0.0
H914 H 0.5161 0.9323 0.62277 0.0
H915 H 0.55356 0.97161 0.69759 0.0
H916 H 0.56128 0.72853 0.70493 0.0
H917 H 0.56864 0.78599 0.77715 0.0
Cd918 Cd 0.98979 0.12421 0.21674 0.0
Cd919 Cd 0.91613 0.1568 0.17807 0.0
C920 C 0.95846 0.06973 0.18808 0.0
N921 N 0.97793 0.09036 0.18165 0.0
C922 C 0.99337 0.06372 0.14049 0.0
C923 C 0.9738 0.04207 0.14733 0.0
C924 C 0.95573 0.04562 0.17093 0.0
C925 C 0.99525 0.08786 0.15828 0.0
H926 H 0.94625 0.0707 0.20748 0.0
H927 H 0.01144 0.1039 0.15426 0.0
C928 C 0.98472 0.17453 0.15847 0.0
C929 C 0.93428 0.21892 0.20009 0.0
C930 C 0.93417 0.24302 0.21776 0.0
C931 C 0.92731 0.24002 0.24682 0.0
C932 C 0.92362 0.21238 0.258 0.0
C933 C 0.92422 0.1888 0.23959 0.0
N934 N 0.92844 0.1926 0.21104 0.0
H935 H 0.93671 0.22161 0.17724 0.0
H936 H 0.9191 0.16789 0.24786 0.0
C937 C 0.93875 0.11282 0.12824 0.0
N938 N 0.91912 0.11606 0.14946 0.0
C939 C 0.89075 0.07814 0.13019 0.0
C940 C 0.90998 0.07484 0.10718 0.0
C941 C 0.93494 0.09181 0.10722 0.0
C942 C 0.8958 0.09884 0.1511 0.0
H943 H 0.95675 0.12725 0.12684 0.0
H944 H 0.87991 0.10272 0.16747 0.0
C945 C 0.91939 0.10915 0.23749 0.0
C946 C 0.04091 0.09263 0.22786 0.0
N947 N 0.99704 0.16182 0.24877 0.0
C948 C 0.98737 0.16021 0.27616 0.0
C949 C -0.00176 0.17871 0.29708 0.0
C950 C 0.01945 0.19878 0.2897 0.0
C951 C 0.02752 0.20108 0.26082 0.0
C952 C 0.01611 0.18221 0.24067 0.0
C953 C 0.86377 0.17792 0.15462 0.0
O954 O 0.9959 0.15876 0.17759 0.0
O955 O 0.95785 0.17564 0.15515 0.0
O956 O 0.9091 0.12282 0.21641 0.0
O957 O 0.94608 0.10934 0.24303 0.0
O958 O 0.04038 0.11376 0.21093 0.0
O959 O 0.01805 0.08752 0.24157 0.0
O960 O 0.86494 0.16794 0.17979 0.0
O961 O 0.88709 0.17906 0.14088 0.0
H962 H 0.97262 0.14343 0.28217 0.0
H963 H 0.02413 0.18251 0.21899 0.0
H964 H 0.00782 0.06138 0.12252 0.0
H965 H 0.94056 0.02912 0.17688 0.0
H966 H 0.93675 0.26399 0.20825 0.0
H967 H 0.91835 0.20926 0.28035 0.0
H968 H 0.87079 0.06647 0.13115 0.0
H969 H 0.95095 0.08982 0.09062 0.0
H970 H 0.9911 0.17645 0.319 0.0
H971 H 0.04404 0.21587 0.25413 0.0
Cd972 Cd 0.00863 0.61474 0.27443 0.0
Cd973 Cd 0.07312 0.6504 0.32438 0.0
C974 C 0.03679 0.56004 0.30246 0.0
N975 N 0.02031 0.58249 0.31075 0.0
C976 C 0.0098 0.55924 0.35526 0.0
C977 C 0.02659 0.53567 0.34694 0.0
C978 C 0.04078 0.53678 0.32045 0.0
C979 C 0.0068 0.58255 0.3366 0.0
H980 H 0.04589 0.55937 0.28127 0.0
H981 H 0.99271 0.60001 0.34226 0.0
C982 C 6e-05 0.66345 0.33213 0.0
C983 C 0.04687 0.70325 0.28788 0.0
C984 C 0.04876 0.72709 0.27015 0.0
C985 C 0.07204 0.72975 0.25138 0.0
C986 C 0.09088 0.70643 0.24847 0.0
C987 C 0.08782 0.68266 0.26621 0.0
N988 N 0.06668 0.68194 0.28615 0.0
H989 H 0.03086 0.7032 0.30439 0.0
H990 H 0.104 0.66614 0.26593 0.0
C991 C 0.05377 0.6236 0.38406 0.0
N992 N 0.06527 0.61527 0.35865 0.0
C993 C 0.07952 0.57052 0.37873 0.0
C994 C 0.06926 0.57914 0.40575 0.0
C995 C 0.05537 0.60576 0.4079 0.0
C996 C 0.07775 0.58921 0.3555 0.0
H997 H 0.04529 0.64499 0.3865 0.0
H998 H 0.08757 0.58347 0.33535 0.0
C999 C 0.08265 0.60402 0.26438 0.0
C1000 C 0.95991 0.58151 0.25862 0.0
N1001 N 0.0081 0.64897 0.23824 0.0
C1002 C 0.01321 0.6401 0.211 0.0
C1003 C 0.00558 0.65742 0.18786 0.0
C1004 C 0.99239 0.68401 0.19289 0.0
C1005 C 0.98952 0.69347 0.22134 0.0
C1006 C 0.99718 0.67536 0.2438 0.0
C1007 C 0.11778 0.68053 0.35393 0.0
O1008 O 0.993 0.64812 0.31087 0.0
O1009 O 0.02594 0.66545 0.34007 0.0
O1010 O 0.09017 0.61656 0.28742 0.0
O1011 O 0.05676 0.604 0.25582 0.0
O1012 O 0.95791 0.60572 0.27064 0.0
O1013 O 0.98486 0.57353 0.25146 0.0
O1014 O 0.12216 0.65604 0.34312 0.0
O1015 O 0.09303 0.69101 0.35066 0.0
H1016 H 0.02125 0.61871 0.20721 0.0
H1017 H 0.99265 0.68166 0.26559 0.0
H1018 H -0.00161 0.55926 0.37542 0.0
H1019 H 0.05454 0.51955 0.31328 0.0
H1020 H 0.03338 0.74425 0.27277 0.0
H1021 H 0.10944 0.70754 0.23466 0.0
H1022 H 0.08985 0.55 0.3757 0.0
H1023 H 0.04778 0.61386 0.42825 0.0
H1024 H 0.00798 0.64909 0.16635 0.0
H1025 H 0.97992 0.71401 0.22625 0.0
Cd1026 Cd 0.49317 0.37286 0.77867 0.0
Cd1027 Cd 0.41584 0.342 0.82367 0.0
C1028 C 0.47692 0.43521 0.79646 0.0
N1029 N 0.48065 0.40965 0.80973 0.0
C1030 C 0.46994 0.43088 0.85506 0.0
C1031 C 0.46238 0.45654 0.84126 0.0
C1032 C 0.46762 0.45891 0.81177 0.0
C1033 C 0.47877 0.40733 0.83867 0.0
H1034 H 0.48047 0.43701 0.77367 0.0
H1035 H 0.48335 0.38712 0.84893 0.0
C1036 C 0.48423 0.32159 0.83827 0.0
C1037 C 0.42353 0.27946 0.80091 0.0
C1038 C 0.42135 0.25609 0.78257 0.0
C1039 C 0.41981 0.26062 0.75288 0.0
C1040 C 0.42355 0.28849 0.74232 0.0
C1041 C 0.42554 0.3113 0.7615 0.0
N1042 N 0.42434 0.30641 0.79017 0.0
H1043 H 0.42238 0.2763 0.82381 0.0
H1044 H 0.42618 0.33284 0.75331 0.0
C1045 C 0.42671 0.37557 0.88196 0.0
N1046 N 0.41799 0.38048 0.85468 0.0
C1047 C 0.40042 0.42671 0.86752 0.0
C1048 C 0.40845 0.42205 0.89614 0.0
C1049 C 0.42222 0.39619 0.90313 0.0
C1050 C 0.4053 0.4055 0.84708 0.0
H1051 H 0.43573 0.35501 0.88759 0.0
H1052 H 0.3979 0.40856 0.82545 0.0
C1053 C 0.42586 0.39266 0.76514 0.0
C1054 C 0.54922 0.39524 0.77035 0.0
N1055 N 0.49076 0.33835 0.74298 0.0
C1056 C 0.48585 0.34664 0.71556 0.0
C1057 C 0.49253 0.32829 0.6929 0.0
C1058 C 0.50485 0.30143 0.69859 0.0
C1059 C 0.50748 0.29267 0.72726 0.0
C1060 C 0.50039 0.31164 0.74924 0.0
C1061 C 0.36247 0.32215 0.84506 0.0
O1062 O 0.49431 0.33734 0.81842 0.0
O1063 O 0.4577 0.32132 0.84394 0.0
O1064 O 0.4223 0.37514 0.78541 0.0
O1065 O 0.45075 0.39537 0.75453 0.0
O1066 O 0.54467 0.37368 0.78608 0.0
O1067 O 0.52799 0.40503 0.75659 0.0
O1068 O 0.36375 0.33605 0.82173 0.0
O1069 O 0.38595 0.31701 0.85764 0.0
H1070 H 0.47872 0.36822 0.71119 0.0
H1071 H 0.50468 0.30585 0.77122 0.0
H1072 H 0.46743 0.42841 0.87792 0.0
H1073 H 0.46381 0.47872 0.80039 0.0
H1074 H 0.41825 0.23506 0.79175 0.0
H1075 H 0.42297 0.29281 0.71956 0.0
H1076 H 0.38981 0.44624 0.86103 0.0
H1077 H 0.42803 0.39116 0.92498 0.0
H1078 H 0.48967 0.33574 0.67115 0.0
H1079 H 0.51712 0.27234 0.73277 0.0
Cd1080 Cd 0.71756 0.50689 0.87609 0.0
Cd1081 Cd 0.67796 0.5801 0.84248 0.0
C1082 C 0.69617 0.53263 0.93432 0.0
N1083 N 0.68409 0.52104 0.91054 0.0
C1084 C 0.63918 0.51623 0.93492 0.0
C1085 C 0.65156 0.52747 0.95997 0.0
C1086 C 0.68019 0.53647 0.95907 0.0
C1087 C 0.65608 0.5129 0.91029 0.0
H1088 H 0.71873 0.53751 0.93476 0.0
H1089 H 0.6472 0.50266 0.89152 0.0
C1090 C 0.65943 0.50864 0.82755 0.0
C1091 C 0.70173 0.55621 0.78144 0.0
C1092 C 0.71744 0.55762 0.75608 0.0
C1093 C 0.74101 0.57622 0.75416 0.0
C1094 C 0.74989 0.59061 0.77912 0.0
C1095 C 0.73392 0.58806 0.80424 0.0
N1096 N 0.70982 0.57182 0.80469 0.0
H1097 H 0.6821 0.5441 0.78168 0.0
H1098 H 0.73947 0.60092 0.82269 0.0
C1099 C 0.61977 0.56957 0.87474 0.0
N1100 N 0.64723 0.57627 0.8815 0.0
C1101 C 0.63292 0.59139 0.92827 0.0
C1102 C 0.604 0.58658 0.92119 0.0
C1103 C 0.59778 0.57453 0.89428 0.0
C1104 C 0.65425 0.58656 0.90782 0.0
H1105 H 0.61459 0.56251 0.85331 0.0
H1106 H 0.67612 0.59247 0.91249 0.0
C1107 C 0.73826 0.57806 0.88879 0.0
C1108 C 0.73234 0.45741 0.90852 0.0
N1109 N 0.75252 0.50357 0.84095 0.0
C1110 C 0.77933 0.49884 0.85109 0.0
C1111 C 0.80061 0.48822 0.83306 0.0
C1112 C 0.79426 0.48247 0.80419 0.0
C1113 C 0.76691 0.48991 0.79383 0.0
C1114 C 0.7461 0.50013 0.81279 0.0
C1115 C 0.6518 0.63086 0.82098 0.0
O1116 O 0.67886 0.49648 0.84218 0.0
O1117 O 0.657 0.53564 0.8271 0.0
O1118 O 0.71762 0.58864 0.87468 0.0
O1119 O 0.74229 0.55118 0.88986 0.0
O1120 O 0.71679 0.45594 0.88636 0.0
O1121 O 0.74259 0.48174 0.91462 0.0
O1122 O 0.67441 0.63183 0.83593 0.0
O1123 O 0.64185 0.60626 0.81544 0.0
H1124 H 0.78356 0.50117 0.87374 0.0
H1125 H 0.72442 0.50342 0.80542 0.0
H1126 H 0.61715 0.50902 0.93474 0.0
H1127 H 0.69051 0.54575 0.97765 0.0
H1128 H 0.71006 0.54558 0.73769 0.0
H1129 H 0.76758 0.60555 0.77882 0.0
H1130 H 0.63897 0.60005 0.9489 0.0
H1131 H 0.57598 0.571 0.8873 0.0
H1132 H 0.82108 0.48254 0.84229 0.0
H1133 H 0.76113 0.4864 0.77166 0.0
Cd1134 Cd 0.21558 0.98689 0.12216 0.0
Cd1135 Cd 0.1735 0.91639 0.16223 0.0
C1136 C 0.20265 0.96011 0.06036 0.0
N1137 N 0.18881 0.97228 0.08291 0.0
C1138 C 0.14444 0.97104 0.0575 0.0
C1139 C 0.15809 0.95713 0.03468 0.0
C1140 C 0.18749 0.95172 0.03615 0.0
C1141 C 0.16038 0.97842 0.08174 0.0
H1142 H 0.22555 0.95716 0.06093 0.0
H1143 H 0.15013 0.989 0.09962 0.0
C1144 C 0.15628 0.98181 0.17432 0.0
C1145 C 0.19689 0.93457 0.22257 0.0
C1146 C 0.2155 0.93664 0.24573 0.0
C1147 C 0.24506 0.93443 0.24104 0.0
C1148 C 0.25535 0.93362 0.21288 0.0
C1149 C 0.23594 0.93184 0.1903 0.0
N1150 N 0.20733 0.93105 0.19566 0.0
H1151 H 0.17408 0.93347 0.22631 0.0
H1152 H 0.24397 0.92928 0.16889 0.0
C1153 C 0.11869 0.93474 0.12337 0.0
N1154 N 0.14511 0.92258 0.12202 0.0
C1155 C 0.13331 0.89932 0.07823 0.0
C1156 C 0.10525 0.91018 0.0795 0.0
C1157 C 0.09843 0.92905 0.10207 0.0
C1158 C 0.15283 0.90575 0.09966 0.0
H1159 H 0.1124 0.94689 0.14202 0.0
H1160 H 0.17327 0.89502 0.09967 0.0
C1161 C 0.23489 0.916 0.11345 0.0
C1162 C 0.2191 0.04269 0.09915 0.0
N1163 N 0.25208 0.99398 0.15452 0.0
C1164 C 0.27889 0.99742 0.14391 0.0
C1165 C 0.30006 0.0102 0.16064 0.0
C1166 C 0.29347 0.01951 0.18853 0.0
C1167 C 0.26607 0.01362 0.19954 0.0
C1168 C 0.24544 0.00115 0.1819 0.0
C1169 C 0.14982 0.86368 0.18191 0.0
O1170 O 0.17656 0.98428 0.15644 0.0
O1171 O 0.14842 0.95702 0.18168 0.0
O1172 O 0.21411 0.90912 0.12963 0.0
O1173 O 0.24102 0.94217 0.1089 0.0
O1174 O 0.20294 0.03665 0.12005 0.0
O1175 O 0.23482 0.02272 0.08943 0.0
O1176 O 0.16973 0.86419 0.16354 0.0
O1177 O 0.14214 0.88751 0.19229 0.0
H1178 H 0.28318 0.99231 0.12173 0.0
H1179 H 0.2237 -0.00123 0.18949 0.0
H1180 H 0.12168 0.97541 0.05686 0.0
H1181 H 0.1986 0.9413 0.01865 0.0
H1182 H 0.20675 0.93686 0.2672 0.0
H1183 H 0.27808 0.93199 0.20855 0.0
H1184 H 0.13992 0.88425 0.06204 0.0
H1185 H 0.07701 0.93742 0.10482 0.0
H1186 H 0.32065 0.01461 0.151 0.0
H1187 H 0.26017 0.01988 0.22107 0.0
Cd1188 Cd 0.27976 0.00687 0.61988 0.0
Cd1189 Cd 0.32023 0.0723 0.66645 0.0
C1190 C 0.29642 0.03122 0.55815 0.0
N1191 N 0.30897 0.02189 0.58269 0.0
C1192 C 0.35543 0.02627 0.56184 0.0
C1193 C 0.34299 0.03661 0.5366 0.0
C1194 C 0.31317 0.03886 0.53471 0.0
C1195 C 0.33778 0.01846 0.58466 0.0
H1196 H 0.27336 0.03238 0.55664 0.0
H1197 H 0.34694 0.00948 0.60389 0.0
C1198 C 0.33338 0.00377 0.67698 0.0
C1199 C 0.28693 0.04695 0.72055 0.0
C1200 C 0.26655 0.04672 0.74226 0.0
C1201 C 0.24034 0.06074 0.73802 0.0
C1202 C 0.23349 0.07051 0.7105 0.0
C1203 C 0.2544 0.06993 0.6892 0.0
N1204 N 0.28103 0.05965 0.69504 0.0
H1205 H 0.30828 0.03954 0.72527 0.0
H1206 H 0.25002 0.08033 0.66913 0.0
C1207 C 0.37696 0.0524 0.63268 0.0
N1208 N 0.35264 0.06803 0.62888 0.0
C1209 C 0.37501 0.09551 0.59213 0.0
C1210 C 0.40072 0.08086 0.59688 0.0
C1211 C 0.40132 0.05828 0.61648 0.0
C1212 C 0.35098 0.08862 0.60841 0.0
H1213 H 0.37851 0.03716 0.6499 0.0
H1214 H 0.33211 0.10188 0.60683 0.0
C1215 C 0.26656 0.08025 0.61168 0.0
C1216 C 0.27742 0.95161 0.59563 0.0
N1217 N 0.24015 0.00187 0.6491 0.0
C1218 C 0.21541 0.01717 0.64778 0.0
C1219 C 0.19134 0.00803 0.66315 0.0
C1220 C 0.19282 0.98275 0.6795 0.0
C1221 C 0.21914 0.96822 0.68102 0.0
C1222 C 0.24257 0.97829 0.66578 0.0
C1223 C 0.34858 0.11855 0.69432 0.0
O1224 O 0.31519 4e-05 0.65721 0.0
O1225 O 0.33983 0.02882 0.68475 0.0
O1226 O 0.28535 0.08666 0.63029 0.0
O1227 O 0.26056 0.05429 0.60588 0.0
O1228 O 0.29418 0.9582 0.61585 0.0
O1229 O 0.26039 0.97094 0.58679 0.0
O1230 O 0.32788 0.12306 0.67738 0.0
O1231 O 0.35447 0.0927 0.69969 0.0
H1232 H 0.21397 0.0357 0.63403 0.0
H1233 H 0.26242 0.96638 0.66597 0.0
H1234 H 0.37842 0.02396 0.56369 0.0
H1235 H 0.30299 0.04662 0.51538 0.0
H1236 H 0.27248 0.03862 0.76316 0.0
H1237 H 0.21354 0.08156 0.70635 0.0
H1238 H 0.37426 0.1138 0.57793 0.0
H1239 H 0.42118 0.04728 0.62125 0.0
H1240 H 0.17164 0.02013 0.66159 0.0
H1241 H 0.22142 0.94832 0.69262 0.0
Cd1242 Cd 0.8196 0.42226 0.34054 0.0
Cd1243 Cd 0.77532 0.49536 0.37263 0.0
C1244 C 0.87542 0.4443 0.373 0.0
N1245 N 0.85051 0.43054 0.379 0.0
C1246 C 0.86993 0.41291 0.42299 0.0
C1247 C 0.89655 0.42496 0.41603 0.0
C1248 C 0.89867 0.44213 0.39152 0.0
C1249 C 0.84702 0.41584 0.4039 0.0
H1250 H 0.87817 0.45504 0.35276 0.0
H1251 H 0.82738 0.40425 0.40778 0.0
C1252 C 0.7618 0.42351 0.39052 0.0
C1253 C 0.71104 0.48825 0.35046 0.0
C1254 C 0.6871 0.49471 0.33374 0.0
C1255 C 0.69098 0.50608 0.30624 0.0
C1256 C 0.71889 0.5078 0.2951 0.0
C1257 C 0.7422 0.50101 0.31252 0.0
N1258 N 0.73784 0.49256 0.33998 0.0
H1259 H 0.70826 0.48205 0.37258 0.0
H1260 H 0.76374 0.5046 0.30484 0.0
C1261 C 0.79618 0.47603 0.43379 0.0
N1262 N 0.80798 0.48506 0.40882 0.0
C1263 C 0.85431 0.48725 0.43065 0.0
C1264 C 0.8428 0.47615 0.4561 0.0
C1265 C 0.81325 0.47111 0.4576 0.0
C1266 C 0.83631 0.49163 0.40705 0.0
H1267 H 0.77331 0.47313 0.43547 0.0
H1268 H 0.84491 0.50024 0.38738 0.0
C1269 C 0.83213 0.49239 0.32005 0.0
C1270 C 0.84436 0.36999 0.31931 0.0
N1271 N 0.78504 0.43169 0.30566 0.0
C1272 C 0.79512 0.43757 0.27902 0.0
C1273 C 0.77695 0.4364 0.25543 0.0
C1274 C 0.74833 0.42825 0.25921 0.0
C1275 C 0.73795 0.4242 0.2871 0.0
C1276 C 0.75683 0.42603 0.31022 0.0
C1277 C 0.76222 0.54831 0.40012 0.0
O1278 O 0.78213 0.41373 0.37536 0.0
O1279 O 0.75583 0.45006 0.39092 0.0
O1280 O 0.81264 0.50215 0.33636 0.0
O1281 O 0.83792 0.46588 0.31938 0.0
O1282 O 0.82074 0.37038 0.33262 0.0
O1283 O 0.85635 0.39397 0.31536 0.0
O1284 O 0.77896 0.54685 0.37884 0.0
O1285 O 0.74953 0.52538 0.40713 0.0
H1286 H 0.81777 0.44092 0.27569 0.0
H1287 H 0.74929 0.42084 0.3314 0.0
H1288 H 0.86764 0.39912 0.44146 0.0
H1289 H 0.91891 0.45166 0.38544 0.0
H1290 H 0.66597 0.4933 0.34317 0.0
H1291 H 0.72271 0.51625 0.27387 0.0
H1292 H 0.87697 0.49172 0.42879 0.0
H1293 H 0.80334 0.46358 0.47715 0.0
H1294 H 0.78588 0.43917 0.23421 0.0
H1295 H 0.71596 0.41785 0.29078 0.0
H1296 H 0.02795 0.48071 0.329 0.0
H1297 H 0.03057 0.53173 0.40586 0.0
H1298 H 0.04494 0.48961 0.43354 0.0
H1299 H 0.06213 0.43935 0.43437 0.0
H1300 H 0.06431 0.39174 0.35479 0.0
H1301 H 0.04216 0.4311 0.33016 0.0
C1302 C 0.03181 0.48277 0.35181 0.0
C1303 C 0.02964 0.50968 0.36506 0.0
C1304 C 0.04078 0.45882 0.36724 0.0
C1305 C 0.03303 0.51149 0.39491 0.0
C1306 C 0.04125 0.48737 0.41074 0.0
C1307 C 0.05777 0.43753 0.41166 0.0
C1308 C 0.06499 0.41219 0.3968 0.0
C1309 C 0.04623 0.46111 0.39688 0.0
C1310 C 0.05849 0.41029 0.36738 0.0
C1311 C 0.0461 0.4331 0.35294 0.0
H1312 H 0.38885 0.56185 0.88187 0.0
H1313 H 0.43447 0.54792 0.96062 0.0
H1314 H 0.45836 0.50583 0.93963 0.0
H1315 H 0.46861 0.47552 0.89701 0.0
H1316 H 0.4191 0.48888 0.81997 0.0
H1317 H 0.3945 0.52872 0.84213 0.0
C1318 C 0.40393 0.5494 0.89443 0.0
C1319 C 0.4107 0.55816 0.92225 0.0
C1320 C 0.41712 0.52543 0.88239 0.0
C1321 C 0.4296 0.54175 0.93881 0.0
C1322 C 0.44317 0.51777 0.92682 0.0
C1323 C 0.45236 0.48704 0.88514 0.0
C1324 C 0.44673 0.47985 0.85635 0.0
C1325 C 0.43758 0.50981 0.8983 0.0
C1326 C 0.42508 0.49475 0.84158 0.0
C1327 C 0.41061 0.51735 0.85436 0.0
H1328 H 0.5093 0.99238 0.62261 0.0
H1329 H 0.59245 0.96895 0.65507 0.0
H1330 H 0.61451 0.00797 0.62854 0.0
H1331 H 0.60981 0.05107 0.60006 0.0
H1332 H 0.52667 0.07947 0.57242 0.0
H1333 H 0.50466 0.03652 0.59318 0.0
C1334 C 0.53225 0.99577 0.62347 0.0
C1335 C 0.5494 0.97765 0.64025 0.0
C1336 C 0.54462 0.01928 0.60932 0.0
C1337 C 0.579 0.98245 0.64187 0.0
C1338 C 0.59158 0.00479 0.62686 0.0
C1339 C 0.58693 0.04752 0.59805 0.0
C1340 C 0.56983 0.06805 0.58444 0.0
C1341 C 0.57456 0.02361 0.61099 0.0
C1342 C 0.54015 0.06375 0.58267 0.0
C1343 C 0.52765 0.03927 0.5946 0.0
H1344 H 0.94837 0.91623 0.11487 0.0
H1345 H 0.91748 0.95637 0.03759 0.0
H1346 H 0.93782 0.00199 0.05305 0.0
H1347 H 0.95821 0.03176 0.09209 0.0
H1348 H 0.98749 0.99072 0.16921 0.0
H1349 H 0.97519 0.94388 0.1496 0.0
C1350 C 0.94677 0.93458 0.1008 0.0
C1351 C 0.93082 0.93279 0.07534 0.0
C1352 C 0.95826 0.96073 0.10988 0.0
C1353 C 0.92888 0.9572 0.05775 0.0
C1354 C 0.94063 0.98333 0.0665 0.0
C1355 C 0.96243 0.01243 0.10416 0.0
C1356 C 0.97325 0.01445 0.13211 0.0
C1357 C 0.95437 0.98559 0.09309 0.0
C1358 C 0.97894 0.98944 0.14768 0.0
C1359 C 0.97175 0.96274 0.13657 0.0
H1360 H 0.34534 0.01277 0.48386 0.0
H1361 H 0.37988 0.08102 0.53527 0.0
H1362 H 0.40646 0.09931 0.49421 0.0
H1363 H 0.41586 0.0984 0.44307 0.0
H1364 H 0.38315 0.02916 0.39109 0.0
H1365 H 0.35942 0.00886 0.43296 0.0
C1366 C 0.35899 0.03144 0.48595 0.0
C1367 C 0.36089 0.04564 0.51237 0.0
C1368 C 0.3741 0.04179 0.46216 0.0
C1369 C 0.3785 0.06973 0.51515 0.0
C1370 C 0.39348 0.08024 0.49164 0.0
C1371 C 0.4043 0.07841 0.44083 0.0
C1372 C 0.40117 0.06555 0.41375 0.0
C1373 C 0.39101 0.06672 0.46495 0.0
C1374 C 0.38541 0.03996 0.41148 0.0
C1375 C 0.37195 0.02822 0.43545 0.0
H1376 H 0.13284 0.98845 0.99273 0.0
H1377 H 0.1497 0.90218 0.01998 0.0
H1378 H 0.121 0.88325 0.98087 0.0
H1379 H 0.09418 0.89107 0.93717 0.0
H1380 H 0.08904 0.97568 0.90126 0.0
H1381 H 0.11035 0.99594 0.94495 0.0
C1382 C 0.12987 0.96558 0.99004 0.0
C1383 C 0.14164 0.94657 0.01007 0.0
C1384 C 0.1157 0.95482 0.96578 0.0
C1385 C 0.13906 0.91701 0.0059 0.0
C1386 C 0.12318 0.90624 0.98321 0.0
C1387 C 0.09721 0.91402 0.9392 0.0
C1388 C 0.08856 0.93219 0.91702 0.0
C1389 C 0.11157 0.92494 0.96298 0.0
C1390 C 0.09421 0.96162 0.91891 0.0
C1391 C 0.10672 0.97306 0.94364 0.0
H1392 H 0.84023 0.42766 0.48658 0.0
H1393 H 0.88668 0.50713 0.48062 0.0
H1394 H 0.91471 0.49425 0.52324 0.0
H1395 H 0.9249 0.46019 0.56313 0.0
H1396 H 0.87784 0.38093 0.56711 0.0
H1397 H 0.85085 0.39398 0.52443 0.0
C1398 C 0.85631 0.44232 0.49473 0.0
C1399 C 0.86115 0.46842 0.48077 0.0
C1400 C 0.87213 0.43479 0.51893 0.0
C1401 C 0.88265 0.48683 0.49103 0.0
C1402 C 0.89855 0.47954 0.51543 0.0
C1403 C 0.90876 0.44596 0.55444 0.0
C1404 C 0.90316 0.41971 0.56794 0.0
C1405 C 0.89334 0.45358 0.52969 0.0
C1406 C 0.88239 0.40117 0.55674 0.0
C1407 C 0.86695 0.40863 0.53248 0.0
H1408 H 0.59623 0.54512 0.96899 0.0
H1409 H 0.67097 0.51336 0.0129 0.0
H1410 H 0.64993 0.52593 0.05882 0.0
H1411 H 0.61453 0.55303 0.08544 0.0
H1412 H 0.53834 0.58361 0.04294 0.0
H1413 H 0.55578 0.5643 0.99764 0.0
C1414 C 0.60766 0.54059 0.98863 0.0
C1415 C 0.63565 0.52952 0.98743 0.0
C1416 C 0.59548 0.54811 0.01517 0.0
C1417 C 0.64986 0.52295 0.01315 0.0
C1418 C 0.63782 0.53004 0.03946 0.0
C1419 C 0.60113 0.55484 0.0666 0.0
C1420 C 0.57543 0.57052 0.06771 0.0
C1421 C 0.61125 0.5438 0.04061 0.0
C1422 C 0.55867 0.5725 0.04271 0.0
C1423 C 0.56861 0.56141 0.0167 0.0
H1424 H 0.45172 0.42858 0.0766 0.0
H1425 H 0.39405 0.37878 0.0239 0.0
H1426 H 0.43469 0.35805 -0.00119 0.0
H1427 H 0.48672 0.34882 0.99705 0.0
H1428 H 0.54342 0.40376 0.04437 0.0
H1429 H 0.50283 0.42871 0.06553 0.0
C1430 C 0.4476 0.41395 0.0591 0.0
C1431 C 0.41957 0.40427 0.05343 0.0
C1432 C 0.47099 0.4028 0.04391 0.0
C1433 C 0.41533 0.38549 0.03013 0.0
C1434 C 0.43859 0.37378 0.01543 0.0
C1435 C 0.49018 0.36652 0.0117 0.0
C1436 C 0.51814 0.37327 0.02071 0.0
C1437 C 0.46657 0.38128 0.02312 0.0
C1438 C 0.52222 0.39722 0.03838 0.0
C1439 C 0.49893 0.41157 0.05035 0.0
H1440 H 0.98169 0.1638 0.97519 0.0
H1441 H 0.03596 0.09149 0.95664 0.0
H1442 H 0.99513 0.06552 0.9369 0.0
H1443 H 0.94522 0.06577 0.9198 0.0
H1444 H 0.89226 0.13982 0.93623 0.0
H1445 H 0.93148 0.16272 0.96161 0.0
C1446 C 0.98482 0.14248 0.96656 0.0
C1447 C 0.01238 0.13031 0.96587 0.0
C1448 C 0.96143 0.12803 0.95464 0.0
C1449 C 0.01533 0.10186 0.95647 0.0
C1450 C 0.99196 0.08699 0.94511 0.0
C1451 C 0.9423 0.08696 0.92885 0.0
C1452 C 0.91583 0.10109 0.92585 0.0
C1453 C 0.96516 0.10035 0.94305 0.0
C1454 C 0.91221 0.12823 0.93841 0.0
C1455 C 0.93471 0.14148 0.95282 0.0
H1456 H 0.55337 0.90049 0.39442 0.0
H1457 H 0.58902 0.91373 0.47833 0.0
H1458 H 0.54612 0.89257 0.50021 0.0
H1459 H 0.49944 0.86733 0.49449 0.0
H1460 H 0.46791 0.85015 0.40952 0.0
H1461 H 0.50815 0.87608 0.38873 0.0
C1462 C 0.55149 0.89931 0.41754 0.0
C1463 C 0.57392 0.9091 0.4349 0.0
C1464 C 0.52747 0.88637 0.42959 0.0
C1465 C 0.57175 0.90656 0.46473 0.0
C1466 C 0.54731 0.89443 0.47712 0.0
C1467 C 0.50132 0.86986 0.4715 0.0
C1468 C 0.48073 0.85754 0.45338 0.0
C1469 C 0.52515 0.8839 0.45968 0.0
C1470 C 0.4834 0.86007 0.42364 0.0
C1471 C 0.50637 0.87471 0.41182 0.0
H1472 H 0.96803 0.62637 0.56724 0.0
H1473 H 0.00341 0.63878 0.48334 0.0
H1474 H 0.04768 0.61445 0.49801 0.0
H1475 H 0.07733 0.59313 0.53636 0.0
H1476 H 0.04065 0.58255 0.62064 0.0
H1477 H 0.99539 0.60128 0.60383 0.0
C1478 C 0.98496 0.62258 0.55193 0.0
C1479 C 0.98244 0.63356 0.52425 0.0
C1480 C 0.0101 0.60885 0.56061 0.0
C1481 C 0.00495 0.62996 0.50471 0.0
C1482 C 0.0302 0.6162 0.51315 0.0
C1483 C 0.05937 0.59462 0.55096 0.0
C1484 C 0.0626 0.58604 0.57968 0.0
C1485 C 0.03325 0.60611 0.54132 0.0
C1486 C 0.03891 0.58818 0.59825 0.0
C1487 C 0.01295 0.59927 0.58878 0.0
H1488 H 0.91928 0.47604 0.63587 0.0
H1489 H 0.00586 0.48259 0.60499 0.0
H1490 H 0.99279 0.52518 0.57697 0.0
H1491 H 0.95679 0.56277 0.56461 0.0
H1492 H 0.86982 0.55258 0.59379 0.0
H1493 H 0.88274 0.50867 0.61872 0.0
C1494 C 0.93514 0.48636 0.62247 0.0
C1495 C 0.96341 0.47634 0.62247 0.0
C1496 C 0.92735 0.51016 0.60621 0.0
C1497 C 0.98388 0.48998 0.6052 0.0
C1498 C 0.97643 0.51434 0.58933 0.0
C1499 C 0.94074 0.55052 0.57604 0.0
C1500 C 0.91244 0.56065 0.57747 0.0
C1501 C 0.94828 0.52497 0.59013 0.0
C1502 C 0.89165 0.54487 0.59228 0.0
C1503 C 0.89904 0.51992 0.60666 0.0
H1504 H 0.5448 0.528 0.10109 0.0
H1505 H 0.50819 0.48326 0.17298 0.0
H1506 H 0.5248 0.43778 0.15361 0.0
H1507 H 0.5557 0.41195 0.12049 0.0
H1508 H 0.59143 0.45576 0.04743 0.0
H1509 H 0.56919 0.50036 0.06315 0.0
C1510 C 0.54002 0.50828 0.11222 0.0
C1511 C 0.52624 0.50918 0.13897 0.0
C1512 C 0.54999 0.48211 0.10112 0.0
C1513 C 0.51964 0.48328 0.15282 0.0
C1514 C 0.52911 0.45723 0.14177 0.0
C1515 C 0.55819 0.431 0.10752 0.0
C1516 C 0.57589 0.43047 0.08317 0.0
C1517 C 0.54534 0.45656 0.1166 0.0
C1518 C 0.57879 0.45563 0.06685 0.0
C1519 C 0.56593 0.48118 0.07572 0.0
H1520 H 0.48756 0.98399 0.33451 0.0
H1521 H 0.45264 0.0382 0.40024 0.0
H1522 H 0.43282 0.99633 0.42482 0.0
H1523 H 0.41967 0.9455 0.42281 0.0
H1524 H 0.46235 0.89045 0.36145 0.0
H1525 H 0.48477 0.93168 0.33998 0.0
C1526 C 0.47605 0.98653 0.35452 0.0
C1527 C 0.47015 0.01415 0.36487 0.0
C1528 C 0.46564 0.96233 0.36892 0.0
C1529 C 0.45622 0.0172 0.39128 0.0
C1530 C 0.44502 0.99325 0.40533 0.0
C1531 C 0.43438 0.94191 0.40531 0.0
C1532 C 0.43759 0.91434 0.39307 0.0
C1533 C 0.44858 0.96576 0.39361 0.0
C1534 C 0.45745 0.91117 0.37049 0.0
C1535 C 0.47086 0.93485 0.35827 0.0
H1536 H 0.06295 0.05018 0.93653 0.0
H1537 H 0.05309 0.10203 0.86073 0.0
H1538 H 0.02992 0.06247 0.83614 0.0
H1539 H 0.01884 0.01154 0.83381 0.0
H1540 H 0.02701 0.95914 0.90913 0.0
H1541 H 0.04278 0.00097 0.9368 0.0
C1542 C 0.05524 0.05293 0.91482 0.0
C1543 C 0.05995 0.07902 0.90046 0.0
C1544 C 0.04154 0.03007 0.90075 0.0
C1545 C 0.04957 0.08234 0.87242 0.0
C1546 C 0.03643 0.05966 0.85822 0.0
C1547 C 0.02381 0.00934 0.85639 0.0
C1548 C 0.02304 0.98217 0.86917 0.0
C1549 C 0.03327 0.03319 0.87184 0.0
C1550 C 0.02808 0.97978 0.89869 0.0
C1551 C 0.0373 0.00365 0.91443 0.0
H1552 H 0.61764 0.98625 0.49337 0.0
H1553 H 0.67075 0.91162 0.48109 0.0
H1554 H 0.64801 0.88816 0.52161 0.0
H1555 H 0.61434 0.88918 0.56144 0.0
H1556 H 0.56184 0.96345 0.57593 0.0
H1557 H 0.58274 0.98687 0.53363 0.0
C1558 C 0.624 0.96481 0.49955 0.0
C1559 C 0.64599 0.95076 0.48447 0.0
C1560 C 0.61101 0.95149 0.52324 0.0
C1561 C 0.65421 0.92303 0.4927 0.0
C1562 C 0.64116 0.90954 0.51576 0.0
C1563 C 0.60739 0.91041 0.55506 0.0
C1564 C 0.58669 0.9247 0.57132 0.0
C1565 C 0.61979 0.92364 0.5313 0.0
C1566 C 0.57779 0.95223 0.5634 0.0
C1567 C 0.58976 0.96552 0.53935 0.0
H1568 H 0.92597 0.08185 0.05088 0.0
H1569 H 0.8762 0.02618 0.10554 0.0
H1570 H 0.85382 0.00489 0.0636 0.0
H1571 H 0.84358 0.00702 0.01166 0.0
H1572 H 0.89845 0.05674 0.95738 0.0
H1573 H 0.9244 0.075 -0.00097 0.0
C1574 C 0.91098 0.06448 0.05402 0.0
C1575 C 0.90194 0.05684 0.08181 0.0
C1576 C 0.89883 0.0515 0.02977 0.0
C1577 C 0.88254 0.03388 0.08466 0.0
C1578 C 0.86985 0.02139 0.06061 0.0
C1579 C 0.86157 0.02146 0.00901 0.0
C1580 C 0.8684 0.03181 0.9816 0.0
C1581 C 0.87692 0.03095 0.03311 0.0
C1582 C 0.89229 0.04959 0.97833 0.0
C1583 C 0.90713 0.05983 0.00217 0.0
H1584 H 0.09705 0.54154 0.53183 0.0
H1585 H 0.17426 0.5129 0.48984 0.0
H1586 H 0.15347 0.52317 0.44338 0.0
H1587 H 0.11722 0.5476 0.41568 0.0
H1588 H 0.03795 0.57337 0.45569 0.0
H1589 H 0.05546 0.5559 0.50174 0.0
C1590 C 0.10903 0.537 0.51248 0.0
C1591 C 0.13767 0.52781 0.51438 0.0
C1592 C 0.09681 0.54274 0.48551 0.0
C1593 C 0.15266 0.52129 0.48906 0.0
C1594 C 0.14074 0.52697 0.46241 0.0
C1595 C 0.10321 0.54879 0.43411 0.0
C1596 C 0.07663 0.56276 0.43216 0.0
C1597 C 0.11339 0.53893 0.46049 0.0
C1598 C 0.05905 0.56383 0.45666 0.0
C1599 C 0.06903 0.55384 0.48307 0.0
H1600 H 0.34055 0.4861 0.99147 0.0
H1601 H 0.41683 0.46753 0.03958 0.0
H1602 H 0.4413 0.45235 0.99563 0.0
H1603 H 0.43742 0.43669 0.94517 0.0
H1604 H 0.3589 0.45294 0.89895 0.0
H1605 H 0.33949 0.47799 0.93998 0.0
C1606 C 0.36283 0.47952 0.9921 0.0
C1607 C 0.37671 0.477 0.01858 0.0
C1608 C 0.37631 0.47035 0.96701 0.0
C1609 C 0.40563 0.46899 0.01939 0.0
C1610 C 0.41952 0.46025 0.99429 0.0
C1611 C 0.41615 0.44589 0.94401 0.0
C1612 C 0.39949 0.44225 0.91909 0.0
C1613 C 0.40449 0.45942 0.96823 0.0
C1614 C 0.37238 0.45531 0.91764 0.0
C1615 C 0.36104 0.46947 0.94128 0.0
H1616 H 0.55003 0.56431 0.92832 0.0
H1617 H 0.60421 0.63416 0.95582 0.0
H1618 H 0.56365 0.65695 0.97886 0.0
H1619 H 0.51182 0.66094 0.98513 0.0
H1620 H 0.45681 0.59403 0.95355 0.0
H1621 H 0.49842 0.56639 0.93819 0.0
C1622 C 0.55306 0.58457 0.93924 0.0
C1623 C 0.58031 0.59758 0.93967 0.0
C1624 C 0.52929 0.59839 0.95144 0.0
C1625 C 0.58378 0.62327 0.95511 0.0
C1626 C 0.56042 0.63664 0.96808 0.0
C1627 C 0.50891 0.64028 0.97493 0.0
C1628 C 0.4811 0.62984 0.96986 0.0
C1629 C 0.53294 0.62498 0.96539 0.0
C1630 C 0.47786 0.60258 0.95757 0.0
C1631 C 0.5017 0.58688 0.9486 0.0
H1632 H 0.01328 0.8348 0.01762 0.0
H1633 H 0.96229 0.91059 0.0299 0.0
H1634 H 0.00497 0.93724 0.04485 0.0
H1635 H 0.05539 0.93635 0.0612 0.0
H1636 H 0.10292 0.85696 0.05429 0.0
H1637 H 0.06357 0.83505 0.02958 0.0
C1638 C 0.01145 0.8572 0.02351 0.0
C1639 C 0.98443 0.87031 0.02426 0.0
C1640 C 0.03573 0.87187 0.03295 0.0
C1641 C 0.9827 0.89974 0.03027 0.0
C1642 C 0.00713 0.91494 0.03881 0.0
C1643 C 0.05724 0.91425 0.0544 0.0
C1644 C 0.08246 0.8986 0.0602 0.0
C1645 C 0.03354 0.90077 0.04156 0.0
C1646 C 0.08445 0.8702 0.05004 0.0
C1647 C 0.06159 0.85725 0.0361 0.0
H1648 H 0.43219 0.07102 0.54831 0.0
H1649 H 0.42942 0.12022 0.62637 0.0
H1650 H 0.47366 0.14466 0.61327 0.0
H1651 H 0.51201 0.15292 0.57956 0.0
H1652 H 0.51496 0.1064 0.49981 0.0
H1653 H 0.47194 0.07958 0.5137 0.0
C1654 C 0.44137 0.08718 0.5622 0.0
C1655 C 0.42777 0.09417 0.58808 0.0
C1656 C 0.4667 0.10146 0.55431 0.0
C1657 C 0.43976 0.11477 0.60632 0.0
C1658 C 0.46494 0.12868 0.59886 0.0
C1659 C 0.50312 0.13716 0.56498 0.0
C1660 C 0.51638 0.132 0.53851 0.0
C1661 C 0.47838 0.1224 0.57284 0.0
C1662 C 0.50514 0.11076 0.52035 0.0
C1663 C 0.48048 0.09556 0.52821 0.0
H1664 H 0.94126 0.40173 0.3893 0.0
H1665 H 0.9103 0.42274 0.47345 0.0
H1666 H 0.95285 0.40046 0.49498 0.0
H1667 H -0.00189 0.3724 0.48912 0.0
H1668 H 0.02219 0.34493 0.40442 0.0
H1669 H 0.98415 0.37342 0.38356 0.0
C1670 C 0.94412 0.40203 0.41235 0.0
C1671 C 0.92303 0.41432 0.42982 0.0
C1672 C 0.96778 0.38825 0.42431 0.0
C1673 C 0.92645 0.41362 0.45967 0.0
C1674 C 0.95075 0.40085 0.47188 0.0
C1675 C 0.99505 0.37303 0.46612 0.0
C1676 C 0.01371 0.35761 0.44813 0.0
C1677 C 0.97144 0.38771 0.45436 0.0
C1678 C 0.00903 0.3577 0.41848 0.0
C1679 C 0.98695 0.37361 0.40659 0.0
H1680 H 0.24356 0.43782 0.28799 0.0
H1681 H 0.21725 0.37225 0.22836 0.0
H1682 H 0.1945 0.34568 0.26687 0.0
H1683 H 0.18552 0.33891 0.31805 0.0
H1684 H 0.21301 0.40359 0.37813 0.0
H1685 H 0.23205 0.43239 0.33902 0.0
C1686 C 0.23252 0.4179 0.28344 0.0
C1687 C 0.23204 0.40714 0.25535 0.0
C1688 C 0.22008 0.40227 0.30584 0.0
C1689 C 0.2175 0.38136 0.24969 0.0
C1690 C 0.20479 0.3659 0.27177 0.0
C1691 C 0.19561 0.35934 0.32256 0.0
C1692 C 0.19816 0.36891 0.35093 0.0
C1693 C 0.20653 0.37581 0.30001 0.0
C1694 C 0.21108 0.39555 0.35646 0.0
C1695 C 0.22188 0.41211 0.33411 0.0
H1696 H 0.33469 0.62481 0.82738 0.0
H1697 H 0.252 0.62759 0.86851 0.0
H1698 H 0.23039 0.60366 0.82741 0.0
H1699 H 0.23443 0.58453 0.779 0.0
H1700 H 0.31651 0.58192 0.7369 0.0
H1701 H 0.33917 0.60282 0.77949 0.0
C1702 C 0.31196 0.62014 0.82729 0.0
C1703 C 0.2949 0.62816 0.85079 0.0
C1704 C 0.29968 0.60624 0.80361 0.0
C1705 C 0.26555 0.62167 0.85064 0.0
C1706 C 0.25318 0.60797 0.82717 0.0
C1707 C 0.2574 0.5879 0.77936 0.0
C1708 C 0.27387 0.58156 0.75498 0.0
C1709 C 0.27 0.60039 0.8035 0.0
C1710 C 0.30347 0.58668 0.75548 0.0
C1711 C 0.31634 0.5987 0.77973 0.0
H1712 H 0.69273 0.09499 0.63827 0.0
H1713 H 0.67373 0.17177 0.68622 0.0
H1714 H 0.68968 0.14864 0.73019 0.0
H1715 H 0.71235 0.1083 0.75414 0.0
H1716 H 0.73304 0.03183 0.70662 0.0
H1717 H 0.71247 0.05298 0.66324 0.0
C1718 C 0.692 0.10661 0.65838 0.0
C1719 C 0.68234 0.13514 0.65899 0.0
C1720 C 0.70122 0.09318 0.68358 0.0
C1721 C 0.68121 0.14984 0.68519 0.0
C1722 C 0.69026 0.13662 0.71033 0.0
C1723 C 0.71157 0.09587 0.73452 0.0
C1724 C 0.72397 0.06848 0.73357 0.0
C1725 C 0.7006 0.10846 0.70969 0.0
C1726 C 0.72351 0.05294 0.70781 0.0
C1727 C 0.71196 0.0651 0.68303 0.0
H1728 H 0.7732 0.8825 0.13733 0.0
H1729 H 0.85158 0.8572 0.17915 0.0
H1730 H 0.83645 0.88136 0.22294 0.0
H1731 H 0.79952 0.90659 0.25036 0.0
H1732 H 0.7197 0.92867 0.20928 0.0
H1733 H 0.73732 0.9099 0.16406 0.0
C1734 C 0.787 0.88238 0.156 0.0
C1735 C 0.81325 0.86777 0.15515 0.0
C1736 C 0.77805 0.896 0.18121 0.0
C1737 C 0.83104 0.86795 0.17941 0.0
C1738 C 0.82249 0.88187 0.20443 0.0
C1739 C 0.78604 0.90743 0.23149 0.0
C1740 C 0.7583 0.9189 0.2334 0.0
C1741 C 0.7958 0.89549 0.20573 0.0
C1742 C 0.74133 0.92037 0.20852 0.0
C1743 C 0.75121 0.90925 0.18263 0.0
H1744 H 0.32211 0.17525 0.34517 0.0
H1745 H 0.38634 0.2212 0.39324 0.0
H1746 H 0.34954 0.24075 0.42462 0.0
H1747 H 0.29896 0.24751 0.43633 0.0
H1748 H 0.23448 0.20354 0.38681 0.0
H1749 H 0.27154 0.17948 0.35914 0.0
C1750 C 0.32801 0.18958 0.36249 0.0
C1751 C 0.35682 0.19714 0.36656 0.0
C1752 C 0.30674 0.20074 0.38056 0.0
C1753 C 0.36424 0.21531 0.38941 0.0
C1754 C 0.34324 0.22641 0.40748 0.0
C1755 C 0.29302 0.23245 0.41966 0.0
C1756 C 0.26397 0.22765 0.41351 0.0
C1757 C 0.3144 0.2196 0.40299 0.0
C1758 C 0.25664 0.20753 0.39227 0.0
C1759 C 0.27785 0.19406 0.37607 0.0
H1760 H 0.17091 0.80245 0.834 0.0
H1761 H 0.11912 0.80403 0.91041 0.0
H1762 H 0.15953 0.7862 0.93854 0.0
H1763 H 0.20924 0.76813 0.94083 0.0
H1764 H 0.25995 0.76606 0.86367 0.0
H1765 H 0.22044 0.78629 0.83653 0.0
C1766 C 0.16849 0.79899 0.85682 0.0
C1767 C 0.14209 0.80432 0.87006 0.0
C1768 C 0.19168 0.78873 0.87277 0.0
C1769 C 0.13921 0.79972 0.89966 0.0
C1770 C 0.16232 0.78965 0.91577 0.0
C1771 C 0.21165 0.77253 0.91817 0.0
C1772 C 0.23758 0.76604 0.90438 0.0
C1773 C 0.18861 0.78383 0.90249 0.0
C1774 C 0.24046 0.77159 0.87495 0.0
C1775 C 0.21777 0.78284 0.85931 0.0
H1776 H 0.79026 0.24774 0.56406 0.0
H1777 H 0.72748 0.2964 0.61129 0.0
H1778 H 0.76545 0.32387 0.63427 0.0
H1779 H 0.81655 0.32993 0.64544 0.0
H1780 H 0.87916 0.27975 0.59951 0.0
H1781 H 0.84127 0.25677 0.57202 0.0
C1782 C 0.78489 0.26456 0.57916 0.0
C1783 C 0.7561 0.26973 0.58616 0.0
C1784 C 0.80684 0.27963 0.59304 0.0
C1785 C 0.74945 0.29204 0.60531 0.0
C1786 C 0.77118 0.30754 0.61878 0.0
C1787 C 0.82187 0.31408 0.62931 0.0
C1788 C 0.85055 0.30623 0.62489 0.0
C1789 C 0.79995 0.30082 0.61357 0.0
C1790 C 0.85719 0.28597 0.6036 0.0
C1791 C 0.83555 0.27282 0.58779 0.0
H1792 H 0.67422 0.66394 0.12206 0.0
H1793 H 0.62699 0.74318 0.12741 0.0
H1794 H 0.66527 0.7682 0.10248 0.0
H1795 H 0.71322 0.76842 0.08306 0.0
H1796 H 0.76097 0.68963 0.07559 0.0
H1797 H 0.72111 0.66338 0.09727 0.0
C1798 C 0.67243 0.68666 0.11768 0.0
C1799 C 0.64813 0.70185 0.12684 0.0
C1800 C 0.6944 0.70089 0.10293 0.0
C1801 C 0.64562 0.73113 0.12064 0.0
C1802 C 0.66745 0.74543 0.10638 0.0
C1803 C 0.71474 0.74537 0.08522 0.0
C1804 C 0.74015 0.73106 0.0778 0.0
C1805 C 0.69203 0.7306 0.09778 0.0
C1806 C 0.74176 0.70122 0.08146 0.0
C1807 C 0.71904 0.68623 0.09391 0.0
H1808 H 0.38701 0.24301 0.21728 0.0
H1809 H 0.46584 0.28768 0.23498 0.0
H1810 H 0.44513 0.33204 0.21602 0.0
H1811 H 0.40331 0.35843 0.19771 0.0
H1812 H 0.32434 0.31312 0.18161 0.0
H1813 H 0.34649 0.26845 0.19691 0.0
C1814 C 0.4 0.26223 0.21621 0.0
C1815 C 0.42799 0.2621 0.22717 0.0
C1816 C 0.38773 0.28755 0.20617 0.0
C1817 C 0.44428 0.28735 0.22647 0.0
C1818 C 0.43238 0.31267 0.21586 0.0
C1819 C 0.39098 0.33876 0.19759 0.0
C1820 C 0.36219 0.33905 0.18878 0.0
C1821 C 0.40387 0.31313 0.20632 0.0
C1822 C 0.3465 0.31343 0.18843 0.0
C1823 C 0.35916 0.28788 0.19706 0.0
H1824 H 0.8387 0.17711 0.81521 0.0
H1825 H 0.89045 0.11569 0.76941 0.0
H1826 H 0.92019 0.15427 0.75064 0.0
H1827 H 0.93004 0.2055 0.74541 0.0
H1828 H 0.87628 0.26692 0.78894 0.0
H1829 H 0.84984 0.22824 0.81153 0.0
C1830 C 0.85643 0.17217 0.80105 0.0
C1831 C 0.86211 0.14364 0.79342 0.0
C1832 C 0.87347 0.19443 0.79035 0.0
C1833 C 0.8854 0.13754 0.77536 0.0
C1834 C 0.90254 0.15956 0.76475 0.0
C1835 C 0.91261 0.21045 0.75992 0.0
C1836 C 0.90509 0.23916 0.76517 0.0
C1837 C 0.89658 0.1881 0.77188 0.0
C1838 C 0.88289 0.24512 0.78466 0.0
C1839 C 0.86739 0.22297 0.79729 0.0
H1840 H 0.56165 0.79222 0.25432 0.0
H1841 H 0.61605 0.72912 0.29422 0.0
H1842 H 0.64072 0.76664 0.32073 0.0
H1843 H 0.6508 0.81778 0.32816 0.0
H1844 H 0.5984 0.88084 0.2856 0.0
H1845 H 0.56963 0.84303 0.26407 0.0
C1846 C 0.57878 0.78664 0.26896 0.0
C1847 C 0.58711 0.75789 0.27195 0.0
C1848 C 0.59375 0.80841 0.28321 0.0
C1849 C 0.6089 0.751 0.2916 0.0
C1850 C 0.62336 0.77252 0.3065 0.0
C1851 C 0.63302 0.82322 0.31427 0.0
C1852 C 0.62704 0.85204 0.30818 0.0
C1853 C 0.61663 0.80135 0.30172 0.0
C1854 C 0.60372 0.85879 0.29037 0.0
C1855 C 0.58715 0.83719 0.27812 0.0
H1856 H 0.09347 0.71061 0.77121 0.0
H1857 H 0.06518 0.7479 0.69162 0.0
H1858 H 0.09013 0.71026 0.66494 0.0
H1859 H 0.12222 0.66827 0.66449 0.0
H1860 H 0.14859 0.6306 0.74452 0.0
H1861 H 0.12199 0.66705 0.77092 0.0
C1862 C 0.092 0.71014 0.74805 0.0
C1863 C 0.07746 0.73205 0.73343 0.0
C1864 C 0.10648 0.6887 0.73298 0.0
C1865 C 0.07642 0.73138 0.70336 0.0
C1866 C 0.09074 0.70995 0.68813 0.0
C1867 C 0.12222 0.66823 0.6877 0.0
C1868 C 0.1376 0.64715 0.70262 0.0
C1869 C 0.10638 0.68889 0.70273 0.0
C1870 C 0.13701 0.64681 0.73265 0.0
C1871 C 0.12175 0.66754 0.74773 0.0
H1872 H 0.79654 0.59055 0.74158 0.0
H1873 H 0.71331 0.58001 0.70252 0.0
H1874 H 0.73153 0.59892 0.65779 0.0
H1875 H 0.76956 0.62302 0.63088 0.0
H1876 H 0.85132 0.6381 0.67107 0.0
H1877 H 0.83497 0.61361 0.71428 0.0
C1878 C 0.78231 0.5924 0.72335 0.0
C1879 C 0.75351 0.58384 0.72578 0.0
C1880 C 0.79253 0.60466 0.69789 0.0
C1881 C 0.73571 0.58582 0.70149 0.0
C1882 C 0.74599 0.59708 0.67584 0.0
C1883 C 0.78383 0.62082 0.64906 0.0
C1884 C 0.81147 0.63259 0.64792 0.0
C1885 C 0.77412 0.60725 0.67402 0.0
C1886 C 0.82977 0.62956 0.6716 0.0
C1887 C 0.82049 0.61545 0.69626 0.0
H1888 H 0.70185 0.39514 0.1375 0.0
H1889 H 0.68355 0.31631 0.18188 0.0
H1890 H 0.69927 0.3378 0.22698 0.0
H1891 H 0.7209 0.37792 0.25303 0.0
H1892 H 0.73984 0.45655 0.20873 0.0
H1893 H 0.7205 0.43643 0.1643 0.0
C1894 C 0.70134 0.38267 0.15706 0.0
C1895 C 0.6919 0.35409 0.15637 0.0
C1896 C 0.71016 0.39523 0.18288 0.0
C1897 C 0.69089 0.3383 0.18189 0.0
C1898 C 0.69979 0.35059 0.20766 0.0
C1899 C 0.72007 0.39091 0.23382 0.0
C1900 C 0.7316 0.4187 0.23408 0.0
C1901 C 0.70966 0.37895 0.20834 0.0
C1902 C 0.73101 0.43511 0.20894 0.0
C1903 C 0.72016 0.42355 0.18357 0.0
H1904 H 0.27903 0.88834 0.2422 0.0
H1905 H 0.25071 0.95956 0.29372 0.0
H1906 H 0.27188 0.93746 0.33632 0.0
H1907 H 0.29348 0.89548 0.35921 0.0
H1908 H 0.31944 0.82322 0.30761 0.0
H1909 H 0.30386 0.84818 0.26443 0.0
C1910 C 0.27832 0.89947 0.26259 0.0
C1911 C 0.26358 0.92557 0.26495 0.0
C1912 C 0.28939 0.88612 0.28693 0.0
C1913 C 0.26213 0.93949 0.29154 0.0
C1914 C 0.27395 0.92674 0.31583 0.0
C1915 C 0.29576 0.88519 0.33851 0.0
C1916 C 0.30716 0.85738 0.33658 0.0
C1917 C 0.28671 0.8996 0.31388 0.0
C1918 C 0.31041 0.84449 0.30962 0.0
C1919 C 0.30164 0.85878 0.28496 0.0
H1920 H 0.15883 0.1226 0.82608 0.0
H1921 H 0.24074 0.14321 0.86357 0.0
H1922 H 0.26499 0.11443 0.82741 0.0
H1923 H 0.26314 0.0852 0.78467 0.0
H1924 H 0.182 0.06347 0.74628 0.0
H1925 H 0.15698 0.09059 0.78376 0.0
C1926 C 0.18199 0.1209 0.82608 0.0
C1927 C 0.19808 0.13517 0.84715 0.0
C1928 C 0.19579 0.10385 0.8055 0.0
C1929 C 0.22799 0.13247 0.84743 0.0
C1930 C 0.24184 0.11595 0.82688 0.0
C1931 C 0.23992 0.0856 0.78487 0.0
C1932 C 0.2244 0.07206 0.76294 0.0
C1933 C 0.22595 0.10156 0.80591 0.0
C1934 C 0.19436 0.07365 0.76306 0.0
C1935 C 0.18013 0.08928 0.78433 0.0
H1936 H 0.71003 0.75546 0.55663 0.0
H1937 H 0.76986 0.7912 0.61736 0.0
H1938 H 0.73072 0.81433 0.64288 0.0
H1939 H 0.67914 0.81977 0.65131 0.0
H1940 H 0.61914 0.78169 0.59218 0.0
H1941 H 0.65863 0.76357 0.56319 0.0
C1942 C 0.71453 0.76851 0.57531 0.0
C1943 C 0.74284 0.7713 0.58516 0.0
C1944 C 0.69181 0.7808 0.59063 0.0
C1945 C 0.74835 0.78885 0.60904 0.0
C1946 C 0.72591 0.80178 0.62396 0.0
C1947 C 0.67471 0.80756 0.63205 0.0
C1948 C 0.64628 0.8017 0.62418 0.0
C1949 C 0.69751 0.79709 0.61551 0.0
C1950 C 0.64087 0.78618 0.59895 0.0
C1951 C 0.66342 0.7759 0.58226 0.0
H1952 H 0.74101 0.21994 0.11899 0.0
H1953 H 0.7817 0.22478 0.03636 0.0
H1954 H 0.8257 0.20444 0.05653 0.0
H1955 H 0.85355 0.18949 0.09866 0.0
H1956 H 0.81279 0.1865 0.18152 0.0
H1957 H 0.76773 0.20223 0.16027 0.0
C1958 C 0.75924 0.21572 0.10523 0.0
C1959 C 0.75816 0.22351 0.07622 0.0
C1960 C 0.78455 0.20505 0.11716 0.0
C1961 C 0.78212 0.21872 0.05873 0.0
C1962 C 0.80726 0.20736 0.0703 0.0
C1963 C 0.83478 0.19224 0.11204 0.0
C1964 C 0.83652 0.18711 0.14165 0.0
C1965 C 0.80894 0.20124 0.09967 0.0
C1966 C 0.81199 0.19044 0.15869 0.0
C1967 C 0.78622 0.19935 0.14656 0.0
H1968 H 0.16454 0.65873 0.38089 0.0
H1969 H 0.12132 0.73798 0.36144 0.0
H1970 H 0.15953 0.76499 0.3847 0.0
H1971 H 0.20662 0.76624 0.407 0.0
H1972 H 0.24969 0.68738 0.42847 0.0
H1973 H 0.20988 0.65998 0.40817 0.0
C1974 C 0.16352 0.68191 0.38187 0.0
C1975 C 0.1404 0.69641 0.36919 0.0
C1976 C 0.1854 0.69731 0.39565 0.0
C1977 C 0.13899 0.72638 0.37098 0.0
C1978 C 0.16081 0.74183 0.38426 0.0
C1979 C 0.20706 0.74306 0.40809 0.0
C1980 C 0.23126 0.72892 0.41912 0.0
C1981 C 0.18426 0.72753 0.39634 0.0
C1982 C 0.23151 0.69882 0.41974 0.0
C1983 C 0.20878 0.68315 0.40812 0.0
H1984 H 0.2389 0.28039 0.87801 0.0
H1985 H 0.28099 0.26399 0.95854 0.0
H1986 H 0.32547 0.28424 0.93964 0.0
H1987 H 0.35295 0.30348 0.89911 0.0
H1988 H 0.31044 0.31975 0.81874 0.0
H1989 H 0.26529 0.30269 0.83885 0.0
C1990 C 0.25753 0.28198 0.89176 0.0
C1991 C 0.2566 0.27082 0.9197 0.0
C1992 C 0.283 0.29318 0.88063 0.0
C1993 C 0.28121 0.27238 0.93694 0.0
C1994 C 0.30663 0.28384 0.92611 0.0
C1995 C 0.33378 0.30335 0.88602 0.0
C1996 C 0.33503 0.31261 0.8574 0.0
C1997 C 0.3079 0.29368 0.89777 0.0
C1998 C 0.31 0.31265 0.84079 0.0
C1999 C 0.28421 0.30294 0.85228 0.0
H2000 H 0.61106 0.75155 0.77813 0.0
H2001 H 0.53955 0.70148 0.74814 0.0
H2002 H 0.5597 0.65869 0.77082 0.0
H2003 H 0.59981 0.63509 0.79542 0.0
H2004 H 0.672 0.68545 0.82371 0.0
H2005 H 0.64938 0.72875 0.80531 0.0
C2006 C 0.59948 0.73144 0.77725 0.0
C2007 C 0.57382 0.72959 0.7617 0.0
C2008 C 0.61159 0.70698 0.78952 0.0
C2009 C 0.55934 0.7033 0.76008 0.0
C2010 C 0.57093 0.67889 0.77287 0.0
C2011 C 0.61053 0.65557 0.79764 0.0
C2012 C 0.63764 0.65707 0.81065 0.0
C2013 C 0.59745 0.68036 0.78695 0.0
C2014 C 0.65117 0.68374 0.81366 0.0
C2015 C 0.63825 0.7085 0.8032 0.0
H2016 H 0.11542 0.85476 0.22756 0.0
H2017 H 0.15115 0.8128 0.15341 0.0
H2018 H 0.12648 0.76848 0.16609 0.0
H2019 H 0.09705 0.74104 0.19972 0.0
H2020 H 0.06522 0.78242 0.27616 0.0
H2021 H 0.08498 0.82773 0.26041 0.0
C2022 C 0.11777 0.83591 0.21418 0.0
C2023 C 0.13532 0.83688 0.18983 0.0
C2024 C 0.10388 0.81047 0.22178 0.0
C2025 C 0.13811 0.81239 0.17256 0.0
C2026 C 0.12386 0.78712 0.17968 0.0
C2027 C 0.09435 0.75996 0.21292 0.0
C2028 C 0.07967 0.75807 0.23911 0.0
C2029 C 0.10704 0.78581 0.20448 0.0
C2030 C 0.07589 0.78307 0.25561 0.0
C2031 C 0.08761 0.80905 0.24687 0.0
H2032 H 0.34284 0.17532 0.68395 0.0
H2033 H 0.39474 0.11411 0.72967 0.0
H2034 H 0.42466 0.15273 0.74817 0.0
H2035 H 0.4339 0.20404 0.75409 0.0
H2036 H 0.38022 0.26515 0.7103 0.0
H2037 H 0.35408 0.22639 0.68736 0.0
C2038 C 0.36066 0.17044 0.69801 0.0
C2039 C 0.36624 0.142 0.70585 0.0
C2040 C 0.37778 0.1927 0.70856 0.0
C2041 C 0.3897 0.13593 0.72369 0.0
C2042 C 0.40694 0.15796 0.73414 0.0
C2043 C 0.41669 0.20884 0.73928 0.0
C2044 C 0.40894 0.23744 0.73414 0.0
C2045 C 0.4009 0.18645 0.72706 0.0
C2046 C 0.38694 0.24337 0.71444 0.0
C2047 C 0.37162 0.22119 0.70162 0.0
H2048 H 0.89752 0.36196 0.29659 0.0
H2049 H 0.81992 0.31714 0.31907 0.0
H2050 H 0.84019 0.27243 0.30125 0.0
H2051 H 0.87862 0.24664 0.27688 0.0
H2052 H 0.95586 0.29099 0.2529 0.0
H2053 H 0.93729 0.33529 0.27417 0.0
C2054 C 0.8851 0.34238 0.29766 0.0
C2055 C 0.85718 0.34292 0.309 0.0
C2056 C 0.89689 0.31667 0.28732 0.0
C2057 C 0.84142 0.31734 0.31041 0.0
C2058 C 0.85301 0.29174 0.30026 0.0
C2059 C 0.89169 0.26583 0.27694 0.0
C2060 C 0.91864 0.26555 0.26358 0.0
C2061 C 0.88059 0.29121 0.28848 0.0
C2062 C 0.93506 0.29074 0.26315 0.0
C2063 C 0.92439 0.31604 0.27516 0.0
H2064 H 0.21936 0.37272 0.49065 0.0
H2065 H 0.15335 0.33686 0.54444 0.0
H2066 H 0.16723 0.36877 0.58331 0.0
H2067 H 0.19457 0.40989 0.6002 0.0
H2068 H 0.25938 0.44747 0.54623 0.0
H2069 H 0.25004 0.41125 0.50951 0.0
C2070 C 0.20823 0.37168 0.51099 0.0
C2071 C 0.18518 0.35262 0.51454 0.0
C2072 C 0.21616 0.39031 0.53323 0.0
C2073 C 0.17116 0.35131 0.54111 0.0
C2074 C 0.17903 0.36961 0.56335 0.0
C2075 C 0.20708 0.40989 0.58064 0.0
C2076 C 0.22745 0.43151 0.57581 0.0
C2077 C 0.20103 0.38961 0.5594 0.0
C2078 C 0.24351 0.43111 0.55041 0.0
C2079 C 0.23803 0.41054 0.52933 0.0
H2080 H 0.28617 0.59034 0.10284 0.0
H2081 H 0.24225 0.53961 0.03925 0.0
H2082 H 0.25042 0.57682 0.00357 0.0
H2083 H 0.27696 0.61949 0.98883 0.0
H2084 H 0.3234 0.66875 0.05189 0.0
H2085 H 0.307 0.63649 0.08947 0.0
C2086 C 0.27777 0.58772 0.08136 0.0
C2087 C 0.26409 0.56206 0.07356 0.0
C2088 C 0.2834 0.60872 0.06074 0.0
C2089 C 0.25303 0.55909 0.04574 0.0
C2090 C 0.2579 0.58026 0.02526 0.0
C2091 C 0.28313 0.6235 0.01085 0.0
C2092 C 0.30189 0.64615 0.01743 0.0
C2093 C 0.27419 0.60451 0.03224 0.0
C2094 C 0.3093 0.65125 0.04615 0.0
C2095 C 0.29998 0.63278 0.06766 0.0
H2096 H 0.68474 0.16357 0.45387 0.0
H2097 H 0.71296 0.1186 0.52949 0.0
H2098 H 0.73717 0.0832 0.49984 0.0
H2099 H 0.74368 0.06094 0.45277 0.0
H2100 H 0.71332 0.10444 0.37728 0.0
H2101 H 0.69747 0.14482 0.40646 0.0
C2102 C 0.69653 0.14628 0.46389 0.0
C2103 C 0.69644 0.14345 0.49384 0.0
C2104 C 0.71009 0.12565 0.44671 0.0
C2105 C 0.71227 0.12113 0.50646 0.0
C2106 C 0.72617 0.10082 0.48952 0.0
C2107 C 0.73444 0.07966 0.44262 0.0
C2108 C 0.7293 0.07957 0.41301 0.0
C2109 C 0.72432 0.10228 0.45964 0.0
C2110 C 0.71726 0.10393 0.40012 0.0
C2111 C 0.70797 0.12693 0.41682 0.0
H2112 H 0.7895 0.88113 0.01646 0.0
H2113 H 0.82505 0.82814 0.94943 0.0
H2114 H 0.80354 0.85901 0.91332 0.0
H2115 H 0.78071 0.90444 0.90101 0.0
H2116 H 0.74724 0.95874 0.9679 0.0
H2117 H 0.7612 0.92348 0.00383 0.0
C2118 C 0.79227 0.87608 0.99396 0.0
C2119 C 0.8094 0.85269 0.98567 0.0
C2120 C 0.78021 0.89415 0.97329 0.0
C2121 C 0.81238 0.84627 0.95642 0.0
C2122 C 0.80005 0.86388 0.93574 0.0
C2123 C 0.77584 0.90825 0.9234 0.0
C2124 C 0.76335 0.93429 0.93184 0.0
C2125 C 0.78478 0.88839 0.94395 0.0
C2126 C 0.75687 0.93885 0.96086 0.0
C2127 C 0.76513 0.91883 0.98144 0.0
H2128 H 0.60156 0.21275 0.40348 0.0
H2129 H 0.53516 0.24162 0.46082 0.0
H2130 H 0.49868 0.22845 0.42578 0.0
H2131 H 0.48568 0.20288 0.38174 0.0
H2132 H 0.55237 0.17287 0.32509 0.0
H2133 H 0.58868 0.19258 0.3569 0.0
C2134 C 0.57913 0.2168 0.40796 0.0
C2135 C 0.57101 0.22789 0.43466 0.0
C2136 C 0.5583 0.20857 0.38806 0.0
C2137 C 0.54194 0.23324 0.44027 0.0
C2138 C 0.52104 0.22542 0.42039 0.0
C2139 C 0.50814 0.20095 0.37617 0.0
C2140 C 0.51631 0.18591 0.35141 0.0
C2141 C 0.52897 0.2121 0.39467 0.0
C2142 C 0.5455 0.18386 0.34433 0.0
C2143 C 0.56631 0.1952 0.36244 0.0
H2144 H 0.8952 0.78682 0.90643 0.0
H2145 H 0.96286 0.7459 0.95419 0.0
H2146 H 0.99706 0.7579 0.91655 0.0
H2147 H 0.00884 0.78666 0.87443 0.0
H2148 H 0.94153 0.83029 0.82844 0.0
H2149 H 0.90601 0.81043 0.8611 0.0
C2150 C 0.9173 0.77992 0.90831 0.0
C2151 C 0.92662 0.76595 0.93324 0.0
C2152 C 0.93698 0.78787 0.8872 0.0
C2153 C 0.9552 0.75683 0.93525 0.0
C2154 C 0.97481 0.76393 0.91387 0.0
C2155 C 0.98637 0.79159 0.87129 0.0
C2156 C 0.97793 0.81046 0.8494 0.0
C2157 C 0.96615 0.78057 0.89045 0.0
C2158 C 0.94867 0.81618 0.84537 0.0
C2159 C 0.92834 0.80482 0.86403 0.0
H2160 H 0.04529 0.25476 0.55937 0.0
H2161 H 0.12184 0.29115 0.59611 0.0
H2162 H 0.09489 0.30664 0.63807 0.0
H2163 H 0.04835 0.31712 0.65991 0.0
H2164 H 0.97146 0.28276 0.62164 0.0
H2165 H -0.00019 0.25907 0.58492 0.0
C2166 C 0.05621 0.26535 0.57693 0.0
C2167 C 0.08532 0.27228 0.57447 0.0
C2168 C 0.04042 0.2751 0.60049 0.0
C2169 C 0.09929 0.2859 0.5974 0.0
C2170 C 0.08388 0.29493 0.62132 0.0
C2171 C 0.03783 0.30405 0.64384 0.0
C2172 C 0.00782 0.30232 0.64315 0.0
C2173 C 0.05419 0.29087 0.6224 0.0
C2174 C 0.99454 0.28491 0.62242 0.0
C2175 C 0.01071 0.27131 0.60136 0.0
H2176 H 0.4506 0.68357 0.15924 0.0
H2177 H 0.52569 0.71775 0.11751 0.0
H2178 H 0.49593 0.74006 0.08127 0.0
H2179 H 0.44961 0.74361 0.05733 0.0
H2180 H 0.37454 0.70805 0.09758 0.0
H2181 H 0.4031 0.69348 0.1388 0.0
C2182 C 0.4604 0.6963 0.1425 0.0
C2183 C 0.49035 0.69839 0.14082 0.0
C2184 C 0.44316 0.7089 0.12136 0.0
C2185 C 0.50269 0.71535 0.11918 0.0
C2186 C 0.4857 0.72819 0.09835 0.0
C2187 C 0.43935 0.73343 0.07549 0.0
C2188 C 0.41018 0.72645 0.07422 0.0
C2189 C 0.45603 0.72423 0.09864 0.0
C2190 C 0.39712 0.71334 0.09794 0.0
C2191 C 0.41345 0.70481 0.12143 0.0
H2192 H 0.44551 0.54614 0.23378 0.0
H2193 H 0.39964 0.62171 0.20738 0.0
H2194 H 0.35951 0.59217 0.19125 0.0
H2195 H 0.34073 0.5445 0.17845 0.0
H2196 H 0.38866 0.46927 0.20289 0.0
H2197 H 0.42467 0.49902 0.22565 0.0
C2198 C 0.42638 0.5562 0.22529 0.0
C2199 C 0.42554 0.58598 0.22162 0.0
C2200 C 0.40401 0.53907 0.21498 0.0
C2201 C 0.40076 0.59874 0.21031 0.0
C2202 C 0.37794 0.58186 0.20085 0.0
C2203 C 0.35889 0.53463 0.18902 0.0
C2204 C 0.36208 0.50471 0.18857 0.0
C2205 C 0.37986 0.55192 0.20198 0.0
C2206 C 0.38564 0.49226 0.20266 0.0
C2207 C 0.40633 0.50924 0.21577 0.0
H2208 H 0.87481 0.01255 0.78846 0.0
H2209 H 0.8253 0.94439 0.82648 0.0
H2210 H 0.85723 0.909 0.80508 0.0
H2211 H 0.90231 0.89791 0.78107 0.0
H2212 H 0.95357 0.96613 0.74578 0.0
H2213 H 0.91723 0.00101 0.75988 0.0
C2214 C 0.87076 0.98995 0.79185 0.0
C2215 C 0.84798 0.98115 0.8095 0.0
C2216 C 0.88944 0.96975 0.77988 0.0
C2217 C 0.84292 0.95177 0.81336 0.0
C2218 C 0.86111 0.93151 0.80107 0.0
C2219 C 0.90524 0.92033 0.77584 0.0
C2220 C 0.93073 0.92948 0.76275 0.0
C2221 C 0.88489 0.94032 0.78504 0.0
C2222 C 0.93413 0.95855 0.75588 0.0
C2223 C 0.91351 0.97854 0.76422 0.0
H2224 H 0.55329 0.03998 0.25971 0.0
H2225 H 0.60063 0.11869 0.26891 0.0
H2226 H 0.64137 0.09238 0.28852 0.0
H2227 H 0.65985 0.04824 0.31052 0.0
H2228 H 0.61032 0.9704 0.30385 0.0
H2229 H 0.574 0.99522 0.27624 0.0
C2230 C 0.57289 0.05124 0.26505 0.0
C2231 C 0.57395 0.08115 0.26323 0.0
C2232 C 0.59548 0.03626 0.27772 0.0
C2233 C 0.59938 0.09557 0.27032 0.0
C2234 C 0.6225 0.08061 0.28187 0.0
C2235 C 0.64118 0.03673 0.30287 0.0
C2236 C 0.63757 0.00771 0.30971 0.0
C2237 C 0.62015 0.05117 0.28707 0.0
C2238 C 0.61352 0.99288 0.2992 0.0
C2239 C 0.59274 0.00699 0.28327 0.0
H2240 H 0.16286 0.45041 0.68627 0.0
H2241 H 0.11728 0.52844 0.70619 0.0
H2242 H 0.07958 0.50114 0.72919 0.0
H2243 H 0.05617 0.45522 0.7373 0.0
H2244 H 0.10011 0.37694 0.71558 0.0
H2245 H 0.14216 0.4042 0.70071 0.0
C2246 C 0.14489 0.46143 0.69602 0.0
C2247 C 0.14268 0.49135 0.69393 0.0
C2248 C 0.12295 0.44558 0.70904 0.0
C2249 C 0.11943 0.50537 0.70707 0.0
C2250 C 0.09778 0.4898 0.72032 0.0
C2251 C 0.07526 0.44408 0.73013 0.0
C2252 C 0.07493 0.41422 0.72709 0.0
C2253 C 0.09885 0.45989 0.72056 0.0
C2254 C 0.0998 0.40003 0.71779 0.0
C2255 C 0.12375 0.41559 0.70907 0.0
H2256 H 0.7894 0.59868 0.39125 0.0
H2257 H 0.73607 0.55428 0.45211 0.0
H2258 H 0.74765 0.58986 0.48866 0.0
H2259 H 0.7791 0.62879 0.50521 0.0
H2260 H 0.83351 0.67196 0.44426 0.0
H2261 H 0.8153 0.64167 0.40598 0.0
C2262 C 0.77972 0.59716 0.41229 0.0
C2263 C 0.76233 0.57361 0.4191 0.0
C2264 C 0.78715 0.61716 0.43341 0.0
C2265 C 0.7497 0.57212 0.44637 0.0
C2266 C 0.75653 0.59232 0.46738 0.0
C2267 C 0.78665 0.63185 0.48348 0.0
C2268 C 0.80805 0.65223 0.47777 0.0
C2269 C 0.77627 0.61415 0.46148 0.0
C2270 C 0.81727 0.65624 0.44939 0.0
C2271 C 0.80689 0.63889 0.42742 0.0
H2272 H 0.71594 0.40273 0.89911 0.0
H2273 H 0.75129 0.45853 0.96375 0.0
H2274 H 0.74121 0.42287 0.00051 0.0
H2275 H 0.715 0.37968 0.015 0.0
H2276 H 0.67793 0.32501 0.95021 0.0
H2277 H 0.6963 0.35626 0.91284 0.0
C2278 C 0.72207 0.40678 0.92114 0.0
C2279 C 0.73382 0.43336 0.92881 0.0
C2280 C 0.71546 0.38659 0.94224 0.0
C2281 C 0.74205 0.43824 0.95734 0.0
C2282 C 0.73606 0.41796 0.97842 0.0
C2283 C 0.71136 0.37433 0.9927 0.0
C2284 C 0.69451 0.35046 0.98545 0.0
C2285 C 0.72157 0.39266 0.97126 0.0
C2286 C 0.69035 0.34359 0.95642 0.0
C2287 C 0.70086 0.36143 0.935 0.0
H2288 H 0.25733 0.93704 0.54326 0.0
H2289 H 0.30652 0.90496 0.61451 0.0
H2290 H 0.32246 0.86436 0.5858 0.0
H2291 H 0.32787 0.84204 0.53865 0.0
H2292 H 0.28049 0.87565 0.46679 0.0
H2293 H 0.25831 0.9114 0.49759 0.0
C2294 C 0.27091 0.92075 0.5527 0.0
C2295 C 0.28101 0.92411 0.58074 0.0
C2296 C 0.28076 0.89799 0.53582 0.0
C2297 C 0.29865 0.90291 0.59279 0.0
C2298 C 0.30792 0.87978 0.57637 0.0
C2299 C 0.31239 0.85691 0.52983 0.0
C2300 C 0.30631 0.85657 0.50043 0.0
C2301 C 0.30003 0.87776 0.54753 0.0
C2302 C 0.28599 0.87583 0.48932 0.0
C2303 C 0.2732 0.89625 0.5069 0.0
H2304 H 0.23729 0.05578 0.04582 0.0
H2305 H 0.19337 0.091 0.1191 0.0
H2306 H 0.17834 0.13222 0.09082 0.0
H2307 H 0.17171 0.15423 0.04381 0.0
H2308 H 0.2131 0.11721 0.96984 0.0
H2309 H 0.2352 0.08083 -8e-05 0.0
C2310 C 0.22506 0.07285 0.05577 0.0
C2311 C 0.21615 0.07026 0.08433 0.0
C2312 C 0.21559 0.0959 0.03914 0.0
C2313 C 0.20028 0.09247 0.09701 0.0
C2314 C 0.19154 0.11594 0.08084 0.0
C2315 C 0.1859 0.13847 0.03432 0.0
C2316 C 0.19029 0.13811 0.00459 0.0
C2317 C 0.19807 0.11724 0.05161 0.0
C2318 C 0.20896 0.11769 0.99264 0.0
C2319 C 0.22166 0.09688 0.00981 0.0
H2320 H 0.44552 0.82542 0.65781 0.0
H2321 H 0.51692 0.77462 0.6283 0.0
H2322 H 0.48664 0.75192 0.59251 0.0
H2323 H 0.44204 0.7515 0.56513 0.0
H2324 H 0.37103 0.80363 0.59295 0.0
H2325 H 0.39869 0.82013 0.63409 0.0
C2326 C 0.45429 0.809 0.64391 0.0
C2327 C 0.48357 0.80219 0.6454 0.0
C2328 C 0.43684 0.79629 0.62289 0.0
C2329 C 0.49456 0.78071 0.6273 0.0
C2330 C 0.47726 0.76763 0.6068 0.0
C2331 C 0.43234 0.76587 0.5806 0.0
C2332 C 0.40469 0.77659 0.57575 0.0
C2333 C 0.44866 0.77598 0.60373 0.0
C2334 C 0.3924 0.79519 0.59605 0.0
C2335 C 0.40827 0.80482 0.61951 0.0
H2336 H 0.043 0.17615 0.15721 0.0
H2337 H 0.96783 0.21004 0.11537 0.0
H2338 H 0.99773 0.23274 0.07932 0.0
H2339 H 0.04437 0.23756 0.05619 0.0
H2340 H 0.11934 0.20165 0.09641 0.0
H2341 H 0.09045 0.18591 0.13696 0.0
C2342 C 0.03316 0.18877 0.14041 0.0
C2343 C 0.0032 0.19088 0.13871 0.0
C2344 C 0.05045 0.2015 0.11945 0.0
C2345 C 0.99084 0.20766 0.11699 0.0
C2346 C 0.00791 0.22073 0.09634 0.0
C2347 C 0.05452 0.227 0.07419 0.0
C2348 C 0.08382 0.22049 0.07319 0.0
C2349 C 0.03764 0.21706 0.09688 0.0
C2350 C 0.09671 0.20674 0.09663 0.0
C2351 C 0.08018 0.19753 0.11972 0.0
H2352 H 0.00767 0.70608 0.37102 0.0
H2353 H 0.94221 0.65689 0.32799 0.0
H2354 H 0.90544 0.68006 0.35688 0.0
H2355 H 0.89276 0.70912 0.39841 0.0
H2356 H 0.95823 0.75664 0.44311 0.0
H2357 H 0.99398 0.74015 0.4087 0.0
C2358 C 0.98534 0.70058 0.36782 0.0
C2359 C 0.97774 0.67935 0.34784 0.0
C2360 C 0.9643 0.71385 0.38461 0.0
C2361 C 0.94868 0.6729 0.34348 0.0
C2362 C 0.92762 0.68617 0.35995 0.0
C2363 C 0.91472 0.71649 0.4002 0.0
C2364 C 0.92296 0.73362 0.42353 0.0
C2365 C 0.93529 0.70602 0.38111 0.0
C2366 C 0.95137 0.74333 0.42539 0.0
C2367 C 0.97189 0.73361 0.40593 0.0
H2368 H 0.54274 0.31946 0.837 0.0
H2369 H 0.46898 0.28413 0.88013 0.0
H2370 H 0.49994 0.26005 0.9142 0.0
H2371 H 0.54701 0.25488 0.93593 0.0
H2372 H 0.62083 0.29241 0.89519 0.0
H2373 H 0.59095 0.30875 0.85549 0.0
C2374 C 0.53347 0.30618 0.8536 0.0
C2375 C 0.50356 0.3042 0.85633 0.0
C2376 C 0.55142 0.29264 0.87355 0.0
C2377 C 0.49192 0.28653 0.87777 0.0
C2378 C 0.5096 0.27263 0.89728 0.0
C2379 C 0.55673 0.2659 0.91797 0.0
C2380 C 0.58594 0.27283 0.91868 0.0
C2381 C 0.53928 0.27634 0.89597 0.0
C2382 C 0.59826 0.28707 0.89523 0.0
C2383 C 0.58116 0.29664 0.87266 0.0
H2384 H 0.55552 0.45203 0.76368 0.0
H2385 H 0.60201 0.37532 0.78531 0.0
H2386 H 0.64212 0.40419 0.80277 0.0
H2387 H 0.66064 0.45104 0.81808 0.0
H2388 H 0.6119 0.52737 0.79941 0.0
H2389 H 0.57588 0.49881 0.77493 0.0
C2390 C 0.5748 0.44163 0.7714 0.0
C2391 C 0.5759 0.41167 0.77328 0.0
C2392 C 0.59702 0.45831 0.78269 0.0
C2393 C 0.60078 0.39842 0.78371 0.0
C2394 C 0.62355 0.41491 0.79393 0.0
C2395 C 0.64226 0.46144 0.80846 0.0
C2396 C 0.63885 0.49125 0.81094 0.0
C2397 C 0.62135 0.44485 0.79465 0.0
C2398 C 0.61504 0.50444 0.79803 0.0
C2399 C 0.5944 0.48814 0.78395 0.0
H2400 H 0.08973 0.09649 0.19682 0.0
H2401 H 0.04569 0.04235 0.25727 0.0
H2402 H 0.07963 0.00373 0.24774 0.0
H2403 H 0.11765 0.9835 0.21766 0.0
H2404 H 0.16038 0.03715 0.15592 0.0
H2405 H 0.13114 0.07786 0.17061 0.0
C2406 C 0.0879 0.07646 0.2084 0.0
C2407 C 0.06501 0.07218 0.22747 0.0
C2408 C 0.10696 0.05411 0.20221 0.0
C2409 C 0.06305 0.04617 0.2424 0.0
C2410 C 0.08232 0.02399 0.23679 0.0
C2411 C 0.12077 0.00417 0.20758 0.0
C2412 C 0.14089 0.00718 0.18537 0.0
C2413 C 0.10365 0.02739 0.21595 0.0
C2414 C 0.14496 0.03419 0.17289 0.0
C2415 C 0.12819 0.05749 0.18127 0.0
H2416 H 0.40464 0.89307 0.70197 0.0
H2417 H 0.44606 0.95061 0.76131 0.0
H2418 H 0.4096 0.9869 0.75194 0.0
H2419 H 0.37072 0.00457 0.72147 0.0
H2420 H 0.33091 0.94765 0.66039 0.0
H2421 H 0.36198 0.90873 0.676 0.0
C2422 C 0.40537 0.91332 0.71334 0.0
C2423 C 0.42828 0.91935 0.73193 0.0
C2424 C 0.38493 0.93435 0.70715 0.0
C2425 C 0.42875 0.94554 0.74673 0.0
C2426 C 0.40803 0.96637 0.74122 0.0
C2427 C 0.36856 0.98356 0.7118 0.0
C2428 C 0.34895 0.97919 0.68934 0.0
C2429 C 0.38679 0.96141 0.72055 0.0
C2430 C 0.34608 0.95171 0.67743 0.0
C2431 C 0.36386 0.92943 0.68633 0.0
H2432 H 0.90505 0.59407 0.27198 0.0
H2433 H 0.95993 0.52414 0.24673 0.0
H2434 H 0.92301 0.48983 0.26065 0.0
H2435 H 0.87869 0.47989 0.28717 0.0
H2436 H 0.82533 0.55023 0.31486 0.0
H2437 H 0.85814 0.58415 0.29274 0.0
C2438 C 0.90869 0.57134 0.26885 0.0
C2439 C 0.93534 0.56164 0.25876 0.0
C2440 C 0.88786 0.55178 0.2779 0.0
C2441 C 0.93962 0.53216 0.25453 0.0
C2442 C 0.91862 0.51252 0.26278 0.0
C2443 C 0.87399 0.50261 0.28803 0.0
C2444 C 0.84986 0.5125 0.3032 0.0
C2445 C 0.89322 0.52209 0.27569 0.0
C2446 C 0.84396 0.54201 0.30376 0.0
C2447 C 0.8627 0.56146 0.29107 0.0
H2448 H 0.24222 0.07913 0.55854 0.0
H2449 H 0.25835 0.13456 0.63075 0.0
H2450 H 0.23625 0.17453 0.60555 0.0
H2451 H 0.21214 0.19377 0.56334 0.0
H2452 H 0.19689 0.13933 0.49026 0.0
H2453 H 0.21892 0.09899 0.51541 0.0
C2454 C 0.2407 0.09992 0.56878 0.0
C2455 C 0.25182 0.10382 0.59651 0.0
C2456 C 0.22834 0.12304 0.55395 0.0
C2457 C 0.25002 0.13099 0.60939 0.0
C2458 C 0.23741 0.15389 0.595 0.0
C2459 C 0.21406 0.17322 0.55267 0.0
C2460 C 0.20302 0.16964 0.52488 0.0
C2461 C 0.22666 0.1502 0.56724 0.0
C2462 C 0.2051 0.14264 0.5117 0.0
C2463 C 0.21769 0.11957 0.52606 0.0
H2464 H 0.26293 0.91905 0.06222 0.0
H2465 H 0.24086 0.86067 0.1302 0.0
H2466 H 0.26169 0.82098 0.10334 0.0
H2467 H 0.2852 0.80256 0.0603 0.0
H2468 H 0.30624 0.8601 0.99137 0.0
H2469 H 0.28654 0.90036 0.0187 0.0
C2470 C 0.26298 0.89771 0.07127 0.0
C2471 C 0.25043 0.89288 0.09824 0.0
C2472 C 0.27442 0.87476 0.05537 0.0
C2473 C 0.25037 0.86499 0.10951 0.0
C2474 C 0.26217 0.84224 0.09411 0.0
C2475 C 0.28509 0.82383 0.05103 0.0
C2476 C 0.29693 0.82825 0.02369 0.0
C2477 C 0.2739 0.8468 0.06689 0.0
C2478 C 0.29727 0.85611 0.01236 0.0
C2479 C 0.28605 0.87913 0.028 0.0
H2480 H 0.6948 0.35324 0.48432 0.0
H2481 H 0.72298 0.28328 0.43076 0.0
H2482 H 0.74663 0.31682 0.39875 0.0
H2483 H 0.75892 0.36587 0.38552 0.0
H2484 H 0.72937 0.43631 0.43759 0.0
H2485 H 0.70611 0.40273 0.47025 0.0
C2486 C 0.70609 0.34535 0.46563 0.0
C2487 C 0.7074 0.31572 0.46025 0.0
C2488 C 0.71916 0.36483 0.44686 0.0
C2489 C 0.72224 0.30587 0.43594 0.0
C2490 C 0.73551 0.32507 0.41738 0.0
C2491 C 0.74734 0.37391 0.40398 0.0
C2492 C 0.74591 0.40353 0.40914 0.0
C2493 C 0.73406 0.35456 0.4226 0.0
C2494 C 0.73062 0.41361 0.43302 0.0
C2495 C 0.71746 0.39442 0.4518 0.0
H2496 H 0.73796 0.63616 0.88918 0.0
H2497 H 0.77681 0.56318 0.9304 0.0
H2498 H 0.80097 0.59492 0.96425 0.0
H2499 H 0.80991 0.64329 0.98301 0.0
H2500 H 0.77247 0.71609 0.94003 0.0
H2501 H 0.74811 0.68433 0.90681 0.0
C2502 C 0.75187 0.62713 0.90542 0.0
C2503 C 0.75553 0.5973 0.90718 0.0
C2504 C 0.76549 0.64543 0.92495 0.0
C2505 C 0.77372 0.58606 0.92837 0.0
C2506 C 0.78738 0.60419 0.94791 0.0
C2507 C 0.79655 0.65228 0.96632 0.0
C2508 C 0.79292 0.68217 0.96442 0.0
C2509 C 0.78321 0.6339 0.94656 0.0
C2510 C 0.77517 0.69324 0.94272 0.0
C2511 C 0.7615 0.67509 0.92334 0.0
H2512 H 0.50617 0.20473 0.14335 0.0
H2513 H 0.56716 0.21941 0.21123 0.0
H2514 H 0.59914 0.24342 0.17796 0.0
H2515 H 0.61053 0.25944 0.12948 0.0
H2516 H 0.55093 0.24342 0.06077 0.0
H2517 H 0.51789 0.22058 0.09434 0.0
C2518 C 0.52641 0.21327 0.15084 0.0
C2519 C 0.53396 0.21062 0.17988 0.0
C2520 C 0.54509 0.22668 0.1314 0.0
C2521 C 0.56034 0.22181 0.18921 0.0
C2522 C 0.57886 0.2353 0.17012 0.0
C2523 C 0.59028 0.25099 0.12185 0.0
C2524 C 0.58323 0.25308 0.09269 0.0
C2525 C 0.57151 0.23777 0.14118 0.0
C2526 C 0.557 0.24183 0.08309 0.0
C2527 C 0.53804 0.2289 0.10229 0.0
H2528 H 0.89534 0.72785 0.63152 0.0
H2529 H 0.93913 0.76809 0.56084 0.0
H2530 H 0.97179 0.79162 0.59402 0.0
H2531 H 0.98716 0.80194 0.64301 0.0
H2532 H 0.94138 0.76442 0.71392 0.0
H2533 H 0.91108 0.73796 0.68072 0.0
C2534 C 0.91204 0.74174 0.62336 0.0
C2535 C 0.91459 0.74631 0.59371 0.0
C2536 C 0.93069 0.75546 0.6426 0.0
C2537 C 0.93642 0.76438 0.58355 0.0
C2538 C 0.95524 0.77777 0.60251 0.0
C2539 C 0.97054 0.78804 0.65127 0.0
C2540 C 0.96669 0.78532 0.68101 0.0
C2541 C 0.95243 0.77365 0.63207 0.0
C2542 C 0.94532 0.76667 0.6912 0.0
C2543 C 0.92766 0.75175 0.6722 0.0
H2544 H 0.00878 0.30127 0.85292 0.0
H2545 H 0.06155 0.27715 0.78098 0.0
H2546 H 0.09517 0.25353 0.81293 0.0
H2547 H 0.10972 0.23958 0.86098 0.0
H2548 H 0.0579 0.2636 0.9336 0.0
H2549 H 0.02407 0.28778 0.90177 0.0
C2550 C 0.02758 0.29073 0.8443 0.0
C2551 C 0.03232 0.29053 0.81455 0.0
C2552 C 0.04715 0.27739 0.8629 0.0
C2553 C 0.05689 0.27691 0.80368 0.0
C2554 C 0.07635 0.26367 0.82197 0.0
C2555 C 0.09108 0.25018 0.86992 0.0
C2556 C 0.08634 0.24974 0.89962 0.0
C2557 C 0.07168 0.26376 0.85156 0.0
C2558 C 0.06219 0.26378 0.91083 0.0
C2559 C 0.04272 0.27745 0.89262 0.0
H2560 H 0.43446 0.70037 0.30713 0.0
H2561 H 0.51368 0.70302 0.35427 0.0
H2562 H 0.48847 0.72299 0.39594 0.0
H2563 H 0.44357 0.74111 0.4183 0.0
H2564 H 0.36529 0.73903 0.36939 0.0
H2565 H 0.39028 0.71695 0.32929 0.0
C2566 C 0.44628 0.70557 0.32644 0.0
C2567 C 0.47592 0.70064 0.32752 0.0
C2568 C 0.43167 0.71675 0.35014 0.0
C2569 C 0.49084 0.70676 0.35293 0.0
C2570 C 0.47642 0.71811 0.37672 0.0
C2571 C 0.43201 0.73528 0.39904 0.0
C2572 C 0.40259 0.74143 0.39686 0.0
C2573 C 0.44677 0.72324 0.37558 0.0
C2574 C 0.3879 0.73436 0.37159 0.0
C2575 C 0.40219 0.7219 0.34858 0.0
H2576 H 0.1305 0.57785 0.28478 0.0
H2577 H 0.08243 0.59224 0.20729 0.0
H2578 H 0.11664 0.56323 0.18029 0.0
H2579 H 0.16041 0.53442 0.17855 0.0
H2580 H 0.20725 0.51766 0.2564 0.0
H2581 H 0.17335 0.54703 0.28335 0.0
C2582 C 0.12766 0.57479 0.26194 0.0
C2583 C 0.1041 0.58738 0.248 0.0
C2584 C 0.14708 0.55754 0.24665 0.0
C2585 C 0.10041 0.58281 0.2185 0.0
C2586 C 0.11993 0.5662 0.20306 0.0
C2587 C 0.16296 0.53662 0.20151 0.0
C2588 C 0.18645 0.52371 0.21534 0.0
C2589 C 0.14327 0.55336 0.21693 0.0
C2590 C 0.18961 0.52752 0.24507 0.0
C2591 C 0.17018 0.5443 0.26053 0.0
H2592 H 0.57774 0.935 0.7591 0.0
H2593 H 0.63439 0.86372 0.74353 0.0
H2594 H 0.67376 0.88955 0.76611 0.0
H2595 H 0.69244 0.93244 0.78949 0.0
H2596 H 0.63708 0.00502 0.80353 0.0
H2597 H 0.59697 0.97876 0.78224 0.0
C2598 C 0.59862 0.92506 0.76098 0.0
C2599 C 0.6031 0.89742 0.7498 0.0
C2600 C 0.6215 0.94039 0.77339 0.0
C2601 C 0.6304 0.88497 0.75198 0.0
C2602 C 0.65296 0.89975 0.76481 0.0
C2603 C 0.67174 0.94276 0.78751 0.0
C2604 C 0.6679 0.97079 0.79794 0.0
C2605 C 0.64886 0.92758 0.77526 0.0
C2606 C 0.64065 0.98344 0.7958 0.0
C2607 C 0.6177 0.96843 0.78362 0.0
H2608 H 0.84464 0.03426 0.32083 0.0
H2609 H 0.80018 0.01655 0.24169 0.0
H2610 H 0.83439 0.04626 0.21571 0.0
H2611 H 0.87515 0.07925 0.21595 0.0
H2612 H 0.92127 0.09513 0.29431 0.0
H2613 H 0.88821 0.06366 0.32026 0.0
C2614 C 0.84278 0.03621 0.29779 0.0
C2615 C 0.81966 0.02328 0.2833 0.0
C2616 C 0.86258 0.05324 0.28298 0.0
C2617 C 0.81746 0.02657 0.25347 0.0
C2618 C 0.83702 0.04355 0.23859 0.0
C2619 C 0.87788 0.0759 0.23875 0.0
C2620 C 0.90017 0.08987 0.25341 0.0
C2621 C 0.85924 0.05746 0.25325 0.0
C2622 C 0.90406 0.08475 0.28272 0.0
C2623 C 0.88521 0.06678 0.29748 0.0
H2624 H 0.30912 0.45448 0.73828 0.0
H2625 H 0.35971 0.49165 0.67056 0.0
H2626 H 0.40215 0.46687 0.68833 0.0
H2627 H 0.42431 0.4318 0.72135 0.0
H2628 H 0.37127 0.39097 0.78508 0.0
H2629 H 0.33048 0.41935 0.77007 0.0
C2630 C 0.32933 0.45709 0.72718 0.0
C2631 C 0.33094 0.47483 0.70295 0.0
C2632 C 0.35332 0.44174 0.73661 0.0
C2633 C 0.35769 0.47849 0.6895 0.0
C2634 C 0.38198 0.46399 0.69942 0.0
C2635 C 0.40381 0.4291 0.73188 0.0
C2636 C 0.40107 0.4094 0.7545 0.0
C2637 C 0.37994 0.44508 0.72265 0.0
C2638 C 0.37425 0.40612 0.76782 0.0
C2639 C 0.35078 0.42236 0.75925 0.0
H2640 H 0.82499 0.85179 0.46122 0.0
H2641 H 0.74719 0.80792 0.48508 0.0
H2642 H 0.71919 0.84168 0.45682 0.0
H2643 H 0.71705 0.88158 0.42308 0.0
H2644 H 0.79396 0.92751 0.40109 0.0
H2645 H 0.82218 0.89511 0.43132 0.0
C2646 C 0.80186 0.84998 0.46089 0.0
C2647 C 0.78831 0.82703 0.47505 0.0
C2648 C 0.78581 0.8696 0.4447 0.0
C2649 C 0.75828 0.82497 0.47398 0.0
C2650 C 0.74223 0.84429 0.45786 0.0
C2651 C 0.74001 0.8845 0.42489 0.0
C2652 C 0.75356 0.9065 0.40951 0.0
C2653 C 0.75584 0.86623 0.44262 0.0
C2654 C 0.78316 0.91054 0.4126 0.0
C2655 C 0.79923 0.89205 0.42985 0.0
H2656 H 0.71086 0.19494 0.93906 0.0
H2657 H 0.69219 0.13852 0.00954 0.0
H2658 H 0.71219 0.09802 0.98265 0.0
H2659 H 0.73525 0.07888 0.93886 0.0
H2660 H 0.75354 0.1364 0.86896 0.0
H2661 H 0.73325 0.17619 0.89585 0.0
C2662 C 0.71162 0.17388 0.94879 0.0
C2663 C 0.70047 0.16981 0.97642 0.0
C2664 C 0.72275 0.15082 0.93314 0.0
C2665 C 0.7008 0.1422 0.98835 0.0
C2666 C 0.71214 0.11907 0.97295 0.0
C2667 C 0.73445 0.10006 0.92943 0.0
C2668 C 0.74586 0.10463 0.90192 0.0
C2669 C 0.72305 0.1231 0.94523 0.0
C2670 C 0.74499 0.13228 0.89011 0.0
C2671 C 0.73346 0.1551 0.9055 0.0
H2672 H 0.21323 0.62098 0.57211 0.0
H2673 H 0.29174 0.5796 0.59745 0.0
H2674 H 0.31897 0.61128 0.56579 0.0
H2675 H 0.32051 0.65255 0.53352 0.0
H2676 H 0.24168 0.69231 0.5061 0.0
H2677 H 0.21442 0.65928 0.53606 0.0
C2678 C 0.23632 0.61895 0.57068 0.0
C2679 C 0.2506 0.59837 0.58737 0.0
C2680 C 0.25169 0.63685 0.55211 0.0
C2681 C 0.28038 0.59542 0.58489 0.0
C2682 C 0.2959 0.61351 0.56682 0.0
C2683 C 0.29733 0.65361 0.53341 0.0
C2684 C 0.28324 0.67514 0.51766 0.0
C2685 C 0.28179 0.63448 0.55055 0.0
C2686 C 0.25315 0.67632 0.51834 0.0
C2687 C 0.23754 0.65741 0.53544 0.0
H2688 H 0.21756 0.41572 0.07423 0.0
H2689 H 0.29208 0.36402 0.09224 0.0
H2690 H 0.2747 0.32675 0.06096 0.0
H2691 H 0.23809 0.30749 0.02988 0.0
H2692 H 0.15997 0.35488 0.01615 0.0
H2693 H 0.17949 0.39527 0.04301 0.0
C2694 C 0.22993 0.39632 0.07123 0.0
C2695 C 0.25619 0.39293 0.08564 0.0
C2696 C 0.21934 0.37413 0.0536 0.0
C2697 C 0.27187 0.36749 0.08155 0.0
C2698 C 0.26198 0.346 0.06353 0.0
C2699 C 0.22507 0.32647 0.0329 0.0
C2700 C 0.19743 0.32775 0.02115 0.0
C2701 C 0.23567 0.34894 0.04969 0.0
C2702 C 0.18148 0.35316 0.02458 0.0
C2703 C 0.19247 0.37624 0.04033 0.0
H2704 H 0.4388 0.77515 0.80452 0.0
H2705 H 0.50477 0.8038 0.86247 0.0
H2706 H 0.47933 0.78178 0.90261 0.0
H2707 H 0.43761 0.75485 0.92138 0.0
H2708 H 0.37291 0.72546 0.86225 0.0
H2709 H 0.39869 0.74712 0.82257 0.0
C2710 C 0.448 0.77614 0.8258 0.0
C2711 C 0.47379 0.79105 0.83034 0.0
C2712 C 0.43332 0.76345 0.84871 0.0
C2713 C 0.48487 0.79265 0.85831 0.0
C2714 C 0.47034 0.78002 0.8813 0.0
C2715 C 0.42917 0.7533 0.89982 0.0
C2716 C 0.40332 0.73857 0.89488 0.0
C2717 C 0.44436 0.76557 0.87681 0.0
C2718 C 0.3928 0.73651 0.86673 0.0
C2719 C 0.40752 0.74893 0.84395 0.0
H2720 H 0.03728 0.17955 0.34181 0.0
H2721 H 0.0382 0.25434 0.28765 0.0
H2722 H 0.06935 0.27891 0.32168 0.0
H2723 H 0.09696 0.2789 0.36629 0.0
H2724 H 0.09341 0.20561 0.42223 0.0
H2725 H 0.06273 0.18059 0.38785 0.0
C2726 C 0.04378 0.20143 0.33767 0.0
C2727 C 0.03542 0.21499 0.31207 0.0
C2728 C 0.06156 0.21553 0.35744 0.0
C2729 C 0.04456 0.24321 0.30694 0.0
C2730 C 0.06239 0.2573 0.32641 0.0
C2731 C 0.08963 0.25739 0.37093 0.0
C2732 C 0.09767 0.24403 0.39667 0.0
C2733 C 0.0713 0.24354 0.35153 0.0
C2734 C 0.08763 0.2163 0.40249 0.0
C2735 C 0.07 0.20204 0.38291 0.0
H2736 H 0.94063 0.71016 0.19382 0.0
H2737 H 0.01216 0.69269 0.13805 0.0
H2738 H 0.9868 0.71538 0.0982 0.0
H2739 H 0.9439 0.74023 0.07922 0.0
H2740 H 0.87395 0.75926 0.13645 0.0
H2741 H 0.89914 0.73594 0.1757 0.0
C2742 C 0.95102 0.71178 0.17314 0.0
C2743 C 0.9784 0.69988 0.16907 0.0
C2744 C 0.93642 0.72489 0.15046 0.0
C2745 C 0.99106 0.70153 0.1418 0.0
C2746 C 0.97657 0.71451 0.119 0.0
C2747 C 0.93418 0.73901 0.10025 0.0
C2748 C 0.90707 0.75129 0.10492 0.0
C2749 C 0.94912 0.7261 0.12302 0.0
C2750 C 0.89482 0.74999 0.13235 0.0
C2751 C 0.90921 0.73671 0.15482 0.0
H2752 H 0.53512 0.32154 0.65308 0.0
H2753 H 0.50611 0.24302 0.69216 0.0
H2754 H 0.53491 0.21534 0.65838 0.0
H2755 H 0.57046 0.21361 0.61965 0.0
H2756 H 0.59742 0.29181 0.57888 0.0
H2757 H 0.56691 0.31959 0.61135 0.0
C2758 C 0.53442 0.29836 0.65382 0.0
C2759 C 0.51855 0.28443 0.67535 0.0
C2760 C 0.55093 0.28258 0.63427 0.0
C2761 C 0.51845 0.25434 0.67616 0.0
C2762 C 0.53489 0.23849 0.65683 0.0
C2763 C 0.5696 0.23676 0.61792 0.0
C2764 C 0.5864 0.25079 0.59731 0.0
C2765 C 0.55168 0.25242 0.63623 0.0
C2766 C 0.58472 0.28065 0.59473 0.0
C2767 C 0.56732 0.29648 0.61327 0.0
H2768 H 0.85302 0.48471 0.80412 0.0
H2769 H 0.78157 0.44112 0.76462 0.0
H2770 H 0.81437 0.4099 0.73901 0.0
H2771 H 0.86294 0.39335 0.7293 0.0
H2772 H 0.93469 0.43478 0.7703 0.0
H2773 H 0.902 0.46773 0.7946 0.0
C2774 C 0.84455 0.46835 0.79 0.0
C2775 C 0.8147 0.46557 0.78635 0.0
C2776 C 0.86356 0.44967 0.77594 0.0
C2777 C 0.80433 0.44442 0.7675 0.0
C2778 C 0.82309 0.42618 0.75308 0.0
C2779 C 0.87153 0.40952 0.7436 0.0
C2780 C 0.90128 0.41146 0.74801 0.0
C2781 C 0.85268 0.42839 0.75741 0.0
C2782 C 0.9119 0.4326 0.76666 0.0
C2783 C 0.89322 0.45158 0.78043 0.0
H2784 H 0.35184 0.01556 0.19026 0.0
H2785 H 0.28108 0.06577 0.22233 0.0
H2786 H 0.31431 0.098 0.24622 0.0
H2787 H 0.3634 0.11257 0.25742 0.0
H2788 H 0.43429 0.06401 0.22325 0.0
H2789 H 0.401 0.03117 0.19999 0.0
C2790 C 0.34364 0.03363 0.20231 0.0
C2791 C 0.31391 0.03793 0.20462 0.0
C2792 C 0.36289 0.05269 0.21532 0.0
C2793 C 0.30377 0.06135 0.2207 0.0
C2794 C 0.32279 0.0801 0.23411 0.0
C2795 C 0.37161 0.09491 0.24475 0.0
C2796 C 0.40131 0.09082 0.2421 0.0
C2797 C 0.35238 0.07605 0.23145 0.0
C2798 C 0.41153 0.06784 0.22551 0.0
C2799 C 0.39251 0.0489 0.21234 0.0
H2800 H 0.19014 0.95371 0.72981 0.0
H2801 H 0.13715 0.98274 0.65994 0.0
H2802 H 0.09641 0.95667 0.67973 0.0
H2803 H 0.07659 0.92295 0.71548 0.0
H2804 H 0.1323 0.89052 0.78182 0.0
H2805 H 0.17133 0.91958 0.76399 0.0
C2806 C 0.16982 0.95418 0.71861 0.0
C2807 C 0.16699 0.97002 0.69321 0.0
C2808 C 0.14695 0.93802 0.72921 0.0
C2809 C 0.14006 0.97105 0.67971 0.0
C2810 C 0.11677 0.95579 0.6908 0.0
C2811 C 0.0973 0.92216 0.72592 0.0
C2812 C 0.10133 0.90451 0.74998 0.0
C2813 C 0.12011 0.93874 0.71527 0.0
C2814 C 0.1284 0.90378 0.76324 0.0
C2815 C 0.15083 0.92053 0.75316 0.0
H2816 H 0.57744 0.55743 0.25195 0.0
H2817 H 0.63437 0.62934 0.24093 0.0
H2818 H 0.67317 0.6028 0.26317 0.0
H2819 H 0.69157 0.55921 0.28456 0.0
H2820 H 0.63618 0.48649 0.2965 0.0
H2821 H 0.59621 0.51309 0.27497 0.0
C2822 C 0.59825 0.56729 0.25482 0.0
C2823 C 0.60305 0.59527 0.24474 0.0
C2824 C 0.62085 0.55165 0.26735 0.0
C2825 C 0.63019 0.60777 0.24832 0.0
C2826 C 0.65244 0.5926 0.26098 0.0
C2827 C 0.67087 0.54898 0.28204 0.0
C2828 C 0.66695 0.52078 0.29156 0.0
C2829 C 0.64815 0.56445 0.27014 0.0
C2830 C 0.63975 0.50814 0.28905 0.0
C2831 C 0.61692 0.52337 0.27685 0.0
loop_
_geom_bond_atom_site_label_1
_geom_bond_atom_site_label_2
_geom_bond_distance
_geom_bond_site_symmetry_2
_ccdc_geom_bond_type
Cd0 N3 2.334 . S
Cd0 N29 2.304 . S
Cd0 O36 2.268 . S
Cd0 O39 2.273 . S
Cd0 O40 2.417 . S
Cd0 O41 2.330 . S
Cd1 N16 2.304 . S
Cd1 N20 2.334 . S
Cd1 O37 2.273 . S
Cd1 O38 2.268 . S
Cd1 O42 2.417 . S
Cd1 O43 2.330 . S
C2 N3 1.332 . S
C2 C6 1.381 . S
C2 H8 0.931 . S
N3 Cd0 2.334 . S
N3 C2 1.332 . S
N3 C7 1.328 . S
C4 C5 1.396 . S
C4 C7 1.378 . S
C4 H46 0.931 . S
C5 C4 1.396 . S
C5 C6 1.382 . S
C6 C2 1.381 . S
C6 C5 1.382 . S
C6 H47 0.930 . S
C7 N3 1.328 . S
C7 C4 1.378 . S
C7 H9 0.930 . S
H8 C2 0.931 . S
H9 C7 0.930 . S
C10 O36 1.238 . S
C10 O37 1.253 . S
C11 C12 1.379 . S
C11 N16 1.337 . S
C11 H17 0.929 . S
C12 C11 1.379 . S
C12 C13 1.380 . S
C12 H48 0.929 . S
C13 C12 1.380 . S
C13 C14 1.399 . S
C14 C13 1.399 . S
C14 C15 1.376 . S
C14 H49 0.931 . S
C15 C14 1.376 . S
C15 N16 1.338 . S
C15 H18 0.930 . S
N16 Cd1 2.304 . S
N16 C11 1.337 . S
N16 C15 1.338 . S
H17 C11 0.929 . S
H18 C15 0.930 . S
C19 N20 1.332 . S
C19 C23 1.381 . S
C19 H25 0.931 . S
N20 Cd1 2.334 . S
N20 C19 1.332 . S
N20 C24 1.328 . S
C21 C22 1.396 . S
C21 C24 1.378 . S
C21 H50 0.931 . S
C22 C21 1.396 . S
C22 C23 1.382 . S
C23 C19 1.381 . S
C23 C22 1.382 . S
C23 H51 0.930 . S
C24 N20 1.328 . S
C24 C21 1.378 . S
C24 H26 0.930 . S
H25 C19 0.931 . S
H26 C24 0.930 . S
C27 O38 1.238 . S
C27 O39 1.253 . S
C28 O40 1.239 . S
C28 O41 1.230 . S
N29 Cd0 2.304 . S
N29 C30 1.337 . S
N29 C34 1.338 . S
C30 N29 1.337 . S
C30 C31 1.379 . S
C30 H44 0.929 . S
C31 C30 1.379 . S
C31 C32 1.380 . S
C31 H52 0.929 . S
C32 C31 1.380 . S
C32 C33 1.399 . S
C33 C32 1.399 . S
C33 C34 1.376 . S
C33 H53 0.931 . S
C34 N29 1.338 . S
C34 C33 1.376 . S
C34 H45 0.930 . S
C35 O42 1.239 . S
C35 O43 1.230 . S
O36 Cd0 2.268 . S
O36 C10 1.238 . S
O37 Cd1 2.273 . S
O37 C10 1.253 . S
O38 Cd1 2.268 . S
O38 C27 1.238 . S
O39 Cd0 2.273 . S
O39 C27 1.253 . S
O40 Cd0 2.417 . S
O40 C28 1.239 . S
O41 Cd0 2.330 . S
O41 C28 1.230 . S
O42 Cd1 2.417 . S
O42 C35 1.239 . S
O43 Cd1 2.330 . S
O43 C35 1.230 . S
H44 C30 0.929 . S
H45 C34 0.930 . S
H46 C4 0.931 . S
H47 C6 0.930 . S
H48 C12 0.929 . S
H49 C14 0.931 . S
H50 C21 0.931 . S
H51 C23 0.930 . S
H52 C31 0.929 . S
H53 C33 0.931 . S
Cd54 N57 2.334 . S
Cd54 N83 2.304 . S
Cd54 O90 2.268 . S
Cd54 O93 2.273 . S
Cd54 O94 2.417 1_556 S
Cd54 O95 2.330 1_556 S
Cd55 N70 2.304 . S
Cd55 N74 2.334 . S
Cd55 O91 2.273 . S
Cd55 O92 2.268 . S
Cd55 O96 2.417 . S
Cd55 O97 2.330 . S
C56 N57 1.332 . S
C56 C60 1.381 . S
C56 H62 0.931 . S
N57 Cd54 2.334 . S
N57 C56 1.332 . S
N57 C61 1.328 . S
C58 C59 1.396 . S
C58 C61 1.378 . S
C58 H100 0.931 . S
C59 C58 1.396 . S
C59 C60 1.382 . S
C60 C56 1.381 . S
C60 C59 1.382 . S
C60 H101 0.930 . S
C61 N57 1.328 . S
C61 C58 1.378 . S
C61 H63 0.930 . S
H62 C56 0.931 . S
H63 C61 0.930 . S
C64 O90 1.238 . S
C64 O91 1.253 . S
C65 C66 1.379 . S
C65 N70 1.337 . S
C65 H71 0.929 . S
C66 C65 1.379 . S
C66 C67 1.380 . S
C66 H102 0.929 . S
C67 C66 1.380 . S
C67 C68 1.399 . S
C68 C67 1.399 . S
C68 C69 1.376 . S
C68 H103 0.931 . S
C69 C68 1.376 . S
C69 N70 1.338 . S
C69 H72 0.930 . S
N70 Cd55 2.304 . S
N70 C65 1.337 . S
N70 C69 1.338 . S
H71 C65 0.929 . S
H72 C69 0.930 . S
C73 N74 1.332 . S
C73 C77 1.381 . S
C73 H79 0.931 . S
N74 Cd55 2.334 . S
N74 C73 1.332 . S
N74 C78 1.328 . S
C75 C76 1.396 . S
C75 C78 1.378 . S
C75 H104 0.931 . S
C76 C75 1.396 . S
C76 C77 1.382 . S
C77 C73 1.381 . S
C77 C76 1.382 . S
C77 H105 0.930 . S
C78 N74 1.328 . S
C78 C75 1.378 . S
C78 H80 0.930 . S
H79 C73 0.931 . S
H80 C78 0.930 . S
C81 O92 1.238 . S
C81 O93 1.253 . S
C82 O94 1.239 . S
C82 O95 1.230 . S
N83 Cd54 2.304 . S
N83 C84 1.337 . S
N83 C88 1.338 1_556 S
C84 N83 1.337 . S
C84 C85 1.379 . S
C84 H98 0.929 . S
C85 C84 1.379 . S
C85 C86 1.380 1_556 S
C85 H106 0.929 . S
C86 C85 1.380 1_554 S
C86 C87 1.399 . S
C87 C86 1.399 . S
C87 C88 1.376 . S
C87 H107 0.931 . S
C88 N83 1.338 1_554 S
C88 C87 1.376 . S
C88 H99 0.930 . S
C89 O96 1.239 . S
C89 O97 1.230 . S
O90 Cd54 2.268 . S
O90 C64 1.238 . S
O91 Cd55 2.273 . S
O91 C64 1.253 . S
O92 Cd55 2.268 . S
O92 C81 1.238 . S
O93 Cd54 2.273 . S
O93 C81 1.253 . S
O94 Cd54 2.417 1_554 S
O94 C82 1.239 . S
O95 Cd54 2.330 1_554 S
O95 C82 1.230 . S
O96 Cd55 2.417 . S
O96 C89 1.239 . S
O97 Cd55 2.330 . S
O97 C89 1.230 . S
H98 C84 0.929 . S
H99 C88 0.930 . S
H100 C58 0.931 . S
H101 C60 0.930 . S
H102 C66 0.929 . S
H103 C68 0.931 . S
H104 C75 0.931 . S
H105 C77 0.930 . S
H106 C85 0.929 . S
H107 C87 0.931 . S
Cd108 N111 2.334 . S
Cd108 N137 2.304 . S
Cd108 O144 2.268 . S
Cd108 O147 2.273 . S
Cd108 O148 2.417 . S
Cd108 O149 2.330 . S
Cd109 N124 2.304 . S
Cd109 N128 2.334 . S
Cd109 O145 2.273 . S
Cd109 O146 2.268 . S
Cd109 O150 2.417 . S
Cd109 O151 2.330 . S
C110 N111 1.332 . S
C110 C114 1.381 . S
C110 H116 0.931 . S
N111 Cd108 2.334 . S
N111 C110 1.332 . S
N111 C115 1.328 . S
C112 C113 1.396 . S
C112 C115 1.378 . S
C112 H154 0.931 . S
C113 C112 1.396 . S
C113 C114 1.382 . S
C114 C110 1.381 . S
C114 C113 1.382 . S
C114 H155 0.930 . S
C115 N111 1.328 . S
C115 C112 1.378 . S
C115 H117 0.930 . S
H116 C110 0.931 . S
H117 C115 0.930 . S
C118 O144 1.238 . S
C118 O145 1.253 . S
C119 C120 1.379 . S
C119 N124 1.337 . S
C119 H125 0.929 . S
C120 C119 1.379 . S
C120 C121 1.380 . S
C120 H156 0.929 . S
C121 C120 1.380 . S
C121 C122 1.399 . S
C122 C121 1.399 . S
C122 C123 1.376 . S
C122 H157 0.931 . S
C123 C122 1.376 . S
C123 N124 1.338 . S
C123 H126 0.930 . S
N124 Cd109 2.304 . S
N124 C119 1.337 . S
N124 C123 1.338 . S
H125 C119 0.929 . S
H126 C123 0.930 . S
C127 N128 1.332 . S
C127 C131 1.381 . S
C127 H133 0.931 . S
N128 Cd109 2.334 . S
N128 C127 1.332 . S
N128 C132 1.328 . S
C129 C130 1.396 . S
C129 C132 1.378 . S
C129 H158 0.931 . S
C130 C129 1.396 . S
C130 C131 1.382 . S
C131 C127 1.381 . S
C131 C130 1.382 . S
C131 H159 0.930 . S
C132 N128 1.328 . S
C132 C129 1.378 . S
C132 H134 0.930 . S
H133 C127 0.931 . S
H134 C132 0.930 . S
C135 O146 1.238 . S
C135 O147 1.253 . S
C136 O148 1.239 . S
C136 O149 1.230 . S
N137 Cd108 2.304 . S
N137 C138 1.337 . S
N137 C142 1.338 . S
C138 N137 1.337 . S
C138 C139 1.379 . S
C138 H152 0.929 . S
C139 C138 1.379 . S
C139 C140 1.380 . S
C139 H160 0.929 . S
C140 C139 1.380 . S
C140 C141 1.399 . S
C141 C140 1.399 . S
C141 C142 1.376 . S
C141 H161 0.931 . S
C142 N137 1.338 . S
C142 C141 1.376 . S
C142 H153 0.930 . S
C143 O150 1.239 . S
C143 O151 1.230 . S
O144 Cd108 2.268 . S
O144 C118 1.238 . S
O145 Cd109 2.273 . S
O145 C118 1.253 . S
O146 Cd109 2.268 . S
O146 C135 1.238 . S
O147 Cd108 2.273 . S
O147 C135 1.253 . S
O148 Cd108 2.417 . S
O148 C136 1.239 . S
O149 Cd108 2.330 . S
O149 C136 1.230 . S
O150 Cd109 2.417 . S
O150 C143 1.239 . S
O151 Cd109 2.330 . S
O151 C143 1.230 . S
H152 C138 0.929 . S
H153 C142 0.930 . S
H154 C112 0.931 . S
H155 C114 0.930 . S
H156 C120 0.929 . S
H157 C122 0.931 . S
H158 C129 0.931 . S
H159 C131 0.930 . S
H160 C139 0.929 . S
H161 C141 0.931 . S
Cd162 N165 2.334 . S
Cd162 N191 2.304 . S
Cd162 O198 2.268 . S
Cd162 O201 2.273 . S
Cd162 O202 2.417 1_554 S
Cd162 O203 2.330 1_554 S
Cd163 N178 2.304 . S
Cd163 N182 2.334 . S
Cd163 O199 2.273 . S
Cd163 O200 2.268 . S
Cd163 O204 2.417 . S
Cd163 O205 2.330 . S
C164 N165 1.332 . S
C164 C168 1.381 . S
C164 H170 0.931 . S
N165 Cd162 2.334 . S
N165 C164 1.332 . S
N165 C169 1.328 . S
C166 C167 1.396 . S
C166 C169 1.378 . S
C166 H208 0.931 . S
C167 C166 1.396 . S
C167 C168 1.382 . S
C168 C164 1.381 . S
C168 C167 1.382 . S
C168 H209 0.930 . S
C169 N165 1.328 . S
C169 C166 1.378 . S
C169 H171 0.930 . S
H170 C164 0.931 . S
H171 C169 0.930 . S
C172 O198 1.238 . S
C172 O199 1.253 . S
C173 C174 1.379 . S
C173 N178 1.337 . S
C173 H179 0.929 . S
C174 C173 1.379 . S
C174 C175 1.380 . S
C174 H210 0.929 . S
C175 C174 1.380 . S
C175 C176 1.399 . S
C176 C175 1.399 . S
C176 C177 1.376 . S
C176 H211 0.931 . S
C177 C176 1.376 . S
C177 N178 1.338 . S
C177 H180 0.930 . S
N178 Cd163 2.304 . S
N178 C173 1.337 . S
N178 C177 1.338 . S
H179 C173 0.929 . S
H180 C177 0.930 . S
C181 N182 1.332 . S
C181 C185 1.381 . S
C181 H187 0.931 . S
N182 Cd163 2.334 . S
N182 C181 1.332 . S
N182 C186 1.328 . S
C183 C184 1.396 . S
C183 C186 1.378 . S
C183 H212 0.931 . S
C184 C183 1.396 . S
C184 C185 1.382 . S
C185 C181 1.381 . S
C185 C184 1.382 . S
C185 H213 0.930 . S
C186 N182 1.328 . S
C186 C183 1.378 . S
C186 H188 0.930 . S
H187 C181 0.931 . S
H188 C186 0.930 . S
C189 O200 1.238 . S
C189 O201 1.253 . S
C190 O202 1.239 . S
C190 O203 1.230 . S
N191 Cd162 2.304 . S
N191 C192 1.337 . S
N191 C196 1.338 1_554 S
C192 N191 1.337 . S
C192 C193 1.379 . S
C192 H206 0.929 . S
C193 C192 1.379 . S
C193 C194 1.380 1_554 S
C193 H214 0.929 . S
C194 C193 1.380 1_556 S
C194 C195 1.399 . S
C195 C194 1.399 . S
C195 C196 1.376 . S
C195 H215 0.931 . S
C196 N191 1.338 1_556 S
C196 C195 1.376 . S
C196 H207 0.930 . S
C197 O204 1.239 . S
C197 O205 1.230 . S
O198 Cd162 2.268 . S
O198 C172 1.238 . S
O199 Cd163 2.273 . S
O199 C172 1.253 . S
O200 Cd163 2.268 . S
O200 C189 1.238 . S
O201 Cd162 2.273 . S
O201 C189 1.253 . S
O202 Cd162 2.417 1_556 S
O202 C190 1.239 . S
O203 Cd162 2.330 1_556 S
O203 C190 1.230 . S
O204 Cd163 2.417 . S
O204 C197 1.239 . S
O205 Cd163 2.330 . S
O205 C197 1.230 . S
H206 C192 0.929 . S
H207 C196 0.930 . S
H208 C166 0.931 . S
H209 C168 0.930 . S
H210 C174 0.929 . S
H211 C176 0.931 . S
H212 C183 0.931 . S
H213 C185 0.930 . S
H214 C193 0.929 . S
H215 C195 0.931 . S
Cd216 N219 2.334 . S
Cd216 N245 2.304 . S
Cd216 O252 2.268 . S
Cd216 O255 2.273 . S
Cd216 O256 2.417 . S
Cd216 O257 2.330 . S
Cd217 N232 2.304 . S
Cd217 N236 2.334 . S
Cd217 O253 2.273 . S
Cd217 O254 2.268 . S
Cd217 O258 2.417 . S
Cd217 O259 2.330 . S
C218 N219 1.332 . S
C218 C222 1.381 . S
C218 H224 0.931 . S
N219 Cd216 2.334 . S
N219 C218 1.332 . S
N219 C223 1.328 . S
C220 C221 1.396 . S
C220 C223 1.378 . S
C220 H262 0.931 . S
C221 C220 1.396 . S
C221 C222 1.382 . S
C222 C218 1.381 . S
C222 C221 1.382 . S
C222 H263 0.930 . S
C223 N219 1.328 . S
C223 C220 1.378 . S
C223 H225 0.930 . S
H224 C218 0.931 . S
H225 C223 0.930 . S
C226 O252 1.238 . S
C226 O253 1.253 . S
C227 C228 1.379 . S
C227 N232 1.337 . S
C227 H233 0.929 . S
C228 C227 1.379 . S
C228 C229 1.380 . S
C228 H264 0.929 . S
C229 C228 1.380 . S
C229 C230 1.399 . S
C230 C229 1.399 . S
C230 C231 1.376 . S
C230 H265 0.931 . S
C231 C230 1.376 . S
C231 N232 1.338 . S
C231 H234 0.930 . S
N232 Cd217 2.304 . S
N232 C227 1.337 . S
N232 C231 1.338 . S
H233 C227 0.929 . S
H234 C231 0.930 . S
C235 N236 1.332 . S
C235 C239 1.381 . S
C235 H241 0.931 . S
N236 Cd217 2.334 . S
N236 C235 1.332 . S
N236 C240 1.328 . S
C237 C238 1.396 . S
C237 C240 1.378 . S
C237 H266 0.931 . S
C238 C237 1.396 . S
C238 C239 1.382 . S
C239 C235 1.381 . S
C239 C238 1.382 . S
C239 H267 0.930 . S
C240 N236 1.328 . S
C240 C237 1.378 . S
C240 H242 0.930 . S
H241 C235 0.931 . S
H242 C240 0.930 . S
C243 O254 1.238 . S
C243 O255 1.253 . S
C244 O256 1.239 . S
C244 O257 1.230 . S
N245 Cd216 2.304 . S
N245 C246 1.337 . S
N245 C250 1.338 . S
C246 N245 1.337 . S
C246 C247 1.379 . S
C246 H260 0.929 . S
C247 C246 1.379 . S
C247 C248 1.380 . S
C247 H268 0.929 . S
C248 C247 1.380 . S
C248 C249 1.399 . S
C249 C248 1.399 . S
C249 C250 1.376 . S
C249 H269 0.931 . S
C250 N245 1.338 . S
C250 C249 1.376 . S
C250 H261 0.930 . S
C251 O258 1.239 . S
C251 O259 1.230 . S
O252 Cd216 2.268 . S
O252 C226 1.238 . S
O253 Cd217 2.273 . S
O253 C226 1.253 . S
O254 Cd217 2.268 . S
O254 C243 1.238 . S
O255 Cd216 2.273 . S
O255 C243 1.253 . S
O256 Cd216 2.417 . S
O256 C244 1.239 . S
O257 Cd216 2.330 . S
O257 C244 1.230 . S
O258 Cd217 2.417 . S
O258 C251 1.239 . S
O259 Cd217 2.330 . S
O259 C251 1.230 . S
H260 C246 0.929 . S
H261 C250 0.930 . S
H262 C220 0.931 . S
H263 C222 0.930 . S
H264 C228 0.929 . S
H265 C230 0.931 . S
H266 C237 0.931 . S
H267 C239 0.930 . S
H268 C247 0.929 . S
H269 C249 0.931 . S
Cd270 N273 2.334 . S
Cd270 N299 2.304 . S
Cd270 O306 2.268 . S
Cd270 O309 2.273 . S
Cd270 O310 2.417 . S
Cd270 O311 2.330 . S
Cd271 N286 2.304 . S
Cd271 N290 2.334 . S
Cd271 O307 2.273 . S
Cd271 O308 2.268 . S
Cd271 O312 2.417 1_455 S
Cd271 O313 2.330 1_455 S
C272 N273 1.332 . S
C272 C276 1.381 . S
C272 H278 0.931 . S
N273 Cd270 2.334 . S
N273 C272 1.332 . S
N273 C277 1.328 . S
C274 C275 1.396 . S
C274 C277 1.378 . S
C274 H316 0.931 . S
C275 C274 1.396 . S
C275 C276 1.382 . S
C276 C272 1.381 . S
C276 C275 1.382 . S
C276 H317 0.930 . S
C277 N273 1.328 . S
C277 C274 1.378 . S
C277 H279 0.930 . S
H278 C272 0.931 . S
H279 C277 0.930 . S
C280 O306 1.238 . S
C280 O307 1.253 . S
C281 C282 1.379 . S
C281 N286 1.337 . S
C281 H287 0.929 . S
C282 C281 1.379 . S
C282 C283 1.380 1_455 S
C282 H318 0.929 . S
C283 C282 1.380 1_655 S
C283 C284 1.399 . S
C284 C283 1.399 . S
C284 C285 1.376 . S
C284 H319 0.931 . S
C285 C284 1.376 . S
C285 N286 1.338 1_655 S
C285 H288 0.930 . S
N286 Cd271 2.304 . S
N286 C281 1.337 . S
N286 C285 1.338 1_455 S
H287 C281 0.929 . S
H288 C285 0.930 . S
C289 N290 1.332 . S
C289 C293 1.381 . S
C289 H295 0.931 . S
N290 Cd271 2.334 . S
N290 C289 1.332 . S
N290 C294 1.328 . S
C291 C292 1.396 . S
C291 C294 1.378 . S
C291 H320 0.931 . S
C292 C291 1.396 . S
C292 C293 1.382 . S
C293 C289 1.381 . S
C293 C292 1.382 . S
C293 H321 0.930 . S
C294 N290 1.328 . S
C294 C291 1.378 . S
C294 H296 0.930 . S
H295 C289 0.931 . S
H296 C294 0.930 . S
C297 O308 1.238 . S
C297 O309 1.253 . S
C298 O310 1.239 . S
C298 O311 1.230 . S
N299 Cd270 2.304 . S
N299 C300 1.337 . S
N299 C304 1.338 . S
C300 N299 1.337 . S
C300 C301 1.379 . S
C300 H314 0.929 . S
C301 C300 1.379 . S
C301 C302 1.380 . S
C301 H322 0.929 . S
C302 C301 1.380 . S
C302 C303 1.399 . S
C303 C302 1.399 . S
C303 C304 1.376 . S
C303 H323 0.931 . S
C304 N299 1.338 . S
C304 C303 1.376 . S
C304 H315 0.930 . S
C305 O312 1.239 . S
C305 O313 1.230 . S
O306 Cd270 2.268 . S
O306 C280 1.238 . S
O307 Cd271 2.273 . S
O307 C280 1.253 . S
O308 Cd271 2.268 . S
O308 C297 1.238 . S
O309 Cd270 2.273 . S
O309 C297 1.253 . S
O310 Cd270 2.417 . S
O310 C298 1.239 . S
O311 Cd270 2.330 . S
O311 C298 1.230 . S
O312 Cd271 2.417 1_655 S
O312 C305 1.239 . S
O313 Cd271 2.330 1_655 S
O313 C305 1.230 . S
H314 C300 0.929 . S
H315 C304 0.930 . S
H316 C274 0.931 . S
H317 C276 0.930 . S
H318 C282 0.929 . S
H319 C284 0.931 . S
H320 C291 0.931 . S
H321 C293 0.930 . S
H322 C301 0.929 . S
H323 C303 0.931 . S
Cd324 N327 2.334 . S
Cd324 N353 2.304 . S
Cd324 O360 2.268 . S
Cd324 O363 2.273 . S
Cd324 O364 2.417 . S
Cd324 O365 2.330 . S
Cd325 N340 2.304 . S
Cd325 N344 2.334 . S
Cd325 O361 2.273 . S
Cd325 O362 2.268 . S
Cd325 O366 2.417 1_655 S
Cd325 O367 2.330 1_655 S
C326 N327 1.332 . S
C326 C330 1.381 . S
C326 H332 0.931 . S
N327 Cd324 2.334 . S
N327 C326 1.332 . S
N327 C331 1.328 . S
C328 C329 1.396 . S
C328 C331 1.378 . S
C328 H370 0.931 . S
C329 C328 1.396 . S
C329 C330 1.382 . S
C330 C326 1.381 . S
C330 C329 1.382 . S
C330 H371 0.930 . S
C331 N327 1.328 . S
C331 C328 1.378 . S
C331 H333 0.930 . S
H332 C326 0.931 . S
H333 C331 0.930 . S
C334 O360 1.238 . S
C334 O361 1.253 . S
C335 C336 1.379 . S
C335 N340 1.337 . S
C335 H341 0.929 . S
C336 C335 1.379 . S
C336 C337 1.380 1_655 S
C336 H372 0.929 . S
C337 C336 1.380 1_455 S
C337 C338 1.399 . S
C338 C337 1.399 . S
C338 C339 1.376 . S
C338 H373 0.931 . S
C339 C338 1.376 . S
C339 N340 1.338 1_455 S
C339 H342 0.930 . S
N340 Cd325 2.304 . S
N340 C335 1.337 . S
N340 C339 1.338 1_655 S
H341 C335 0.929 . S
H342 C339 0.930 . S
C343 N344 1.332 . S
C343 C347 1.381 . S
C343 H349 0.931 . S
N344 Cd325 2.334 . S
N344 C343 1.332 . S
N344 C348 1.328 . S
C345 C346 1.396 . S
C345 C348 1.378 . S
C345 H374 0.931 . S
C346 C345 1.396 . S
C346 C347 1.382 . S
C347 C343 1.381 . S
C347 C346 1.382 . S
C347 H375 0.930 . S
C348 N344 1.328 . S
C348 C345 1.378 . S
C348 H350 0.930 . S
H349 C343 0.931 . S
H350 C348 0.930 . S
C351 O362 1.238 . S
C351 O363 1.253 . S
C352 O364 1.239 . S
C352 O365 1.230 . S
N353 Cd324 2.304 . S
N353 C354 1.337 . S
N353 C358 1.338 . S
C354 N353 1.337 . S
C354 C355 1.379 . S
C354 H368 0.929 . S
C355 C354 1.379 . S
C355 C356 1.380 . S
C355 H376 0.929 . S
C356 C355 1.380 . S
C356 C357 1.399 . S
C357 C356 1.399 . S
C357 C358 1.376 . S
C357 H377 0.931 . S
C358 N353 1.338 . S
C358 C357 1.376 . S
C358 H369 0.930 . S
C359 O366 1.239 . S
C359 O367 1.230 . S
O360 Cd324 2.268 . S
O360 C334 1.238 . S
O361 Cd325 2.273 . S
O361 C334 1.253 . S
O362 Cd325 2.268 . S
O362 C351 1.238 . S
O363 Cd324 2.273 . S
O363 C351 1.253 . S
O364 Cd324 2.417 . S
O364 C352 1.239 . S
O365 Cd324 2.330 . S
O365 C352 1.230 . S
O366 Cd325 2.417 1_455 S
O366 C359 1.239 . S
O367 Cd325 2.330 1_455 S
O367 C359 1.230 . S
H368 C354 0.929 . S
H369 C358 0.930 . S
H370 C328 0.931 . S
H371 C330 0.930 . S
H372 C336 0.929 . S
H373 C338 0.931 . S
H374 C345 0.931 . S
H375 C347 0.930 . S
H376 C355 0.929 . S
H377 C357 0.931 . S
Cd378 N381 2.334 . S
Cd378 N407 2.304 . S
Cd378 O414 2.268 . S
Cd378 O417 2.273 . S
Cd378 O418 2.417 . S
Cd378 O419 2.330 . S
Cd379 N394 2.304 . S
Cd379 N398 2.334 . S
Cd379 O415 2.273 . S
Cd379 O416 2.268 . S
Cd379 O420 2.417 . S
Cd379 O421 2.330 . S
C380 N381 1.332 . S
C380 C384 1.381 . S
C380 H386 0.931 . S
N381 Cd378 2.334 . S
N381 C380 1.332 . S
N381 C385 1.328 . S
C382 C383 1.396 . S
C382 C385 1.378 . S
C382 H424 0.931 . S
C383 C382 1.396 . S
C383 C384 1.382 . S
C384 C380 1.381 . S
C384 C383 1.382 . S
C384 H425 0.930 . S
C385 N381 1.328 . S
C385 C382 1.378 . S
C385 H387 0.930 . S
H386 C380 0.931 . S
H387 C385 0.930 . S
C388 O414 1.238 . S
C388 O415 1.253 . S
C389 C390 1.379 . S
C389 N394 1.337 . S
C389 H395 0.929 . S
C390 C389 1.379 . S
C390 C391 1.380 . S
C390 H426 0.929 . S
C391 C390 1.380 . S
C391 C392 1.399 . S
C392 C391 1.399 . S
C392 C393 1.376 . S
C392 H427 0.931 . S
C393 C392 1.376 . S
C393 N394 1.338 . S
C393 H396 0.930 . S
N394 Cd379 2.304 . S
N394 C389 1.337 . S
N394 C393 1.338 . S
H395 C389 0.929 . S
H396 C393 0.930 . S
C397 N398 1.332 . S
C397 C401 1.381 . S
C397 H403 0.931 . S
N398 Cd379 2.334 . S
N398 C397 1.332 . S
N398 C402 1.328 . S
C399 C400 1.396 . S
C399 C402 1.378 . S
C399 H428 0.931 . S
C400 C399 1.396 . S
C400 C401 1.382 . S
C401 C397 1.381 . S
C401 C400 1.382 . S
C401 H429 0.930 . S
C402 N398 1.328 . S
C402 C399 1.378 . S
C402 H404 0.930 . S
H403 C397 0.931 . S
H404 C402 0.930 . S
C405 O416 1.238 . S
C405 O417 1.253 . S
C406 O418 1.239 . S
C406 O419 1.230 . S
N407 Cd378 2.304 . S
N407 C408 1.337 . S
N407 C412 1.338 . S
C408 N407 1.337 . S
C408 C409 1.379 . S
C408 H422 0.929 . S
C409 C408 1.379 . S
C409 C410 1.380 . S
C409 H430 0.929 . S
C410 C409 1.380 . S
C410 C411 1.399 . S
C411 C410 1.399 . S
C411 C412 1.376 . S
C411 H431 0.931 . S
C412 N407 1.338 . S
C412 C411 1.376 . S
C412 H423 0.930 . S
C413 O420 1.239 . S
C413 O421 1.230 . S
O414 Cd378 2.268 . S
O414 C388 1.238 . S
O415 Cd379 2.273 . S
O415 C388 1.253 . S
O416 Cd379 2.268 . S
O416 C405 1.238 . S
O417 Cd378 2.273 . S
O417 C405 1.253 . S
O418 Cd378 2.417 . S
O418 C406 1.239 . S
O419 Cd378 2.330 . S
O419 C406 1.230 . S
O420 Cd379 2.417 . S
O420 C413 1.239 . S
O421 Cd379 2.330 . S
O421 C413 1.230 . S
H422 C408 0.929 . S
H423 C412 0.930 . S
H424 C382 0.931 . S
H425 C384 0.930 . S
H426 C390 0.929 . S
H427 C392 0.931 . S
H428 C399 0.931 . S
H429 C401 0.930 . S
H430 C409 0.929 . S
H431 C411 0.931 . S
Cd432 N435 2.334 . S
Cd432 N461 2.304 . S
Cd432 O468 2.268 . S
Cd432 O471 2.273 . S
Cd432 O472 2.417 . S
Cd432 O473 2.330 . S
Cd433 N448 2.304 . S
Cd433 N452 2.334 . S
Cd433 O469 2.273 . S
Cd433 O470 2.268 . S
Cd433 O474 2.417 . S
Cd433 O475 2.330 . S
C434 N435 1.332 . S
C434 C438 1.381 . S
C434 H440 0.931 . S
N435 Cd432 2.334 . S
N435 C434 1.332 . S
N435 C439 1.328 . S
C436 C437 1.396 . S
C436 C439 1.378 . S
C436 H478 0.931 . S
C437 C436 1.396 . S
C437 C438 1.382 . S
C438 C434 1.381 . S
C438 C437 1.382 . S
C438 H479 0.930 . S
C439 N435 1.328 . S
C439 C436 1.378 . S
C439 H441 0.930 . S
H440 C434 0.931 . S
H441 C439 0.930 . S
C442 O468 1.238 . S
C442 O469 1.253 . S
C443 C444 1.379 . S
C443 N448 1.337 . S
C443 H449 0.929 . S
C444 C443 1.379 . S
C444 C445 1.380 . S
C444 H480 0.929 . S
C445 C444 1.380 . S
C445 C446 1.399 . S
C446 C445 1.399 . S
C446 C447 1.376 . S
C446 H481 0.931 . S
C447 C446 1.376 . S
C447 N448 1.338 . S
C447 H450 0.930 . S
N448 Cd433 2.304 . S
N448 C443 1.337 . S
N448 C447 1.338 . S
H449 C443 0.929 . S
H450 C447 0.930 . S
C451 N452 1.332 . S
C451 C455 1.381 . S
C451 H457 0.931 . S
N452 Cd433 2.334 . S
N452 C451 1.332 . S
N452 C456 1.328 . S
C453 C454 1.396 . S
C453 C456 1.378 . S
C453 H482 0.931 . S
C454 C453 1.396 . S
C454 C455 1.382 . S
C455 C451 1.381 . S
C455 C454 1.382 . S
C455 H483 0.930 . S
C456 N452 1.328 . S
C456 C453 1.378 . S
C456 H458 0.930 . S
H457 C451 0.931 . S
H458 C456 0.930 . S
C459 O470 1.238 . S
C459 O471 1.253 . S
C460 O472 1.239 . S
C460 O473 1.230 . S
N461 Cd432 2.304 . S
N461 C462 1.337 . S
N461 C466 1.338 . S
C462 N461 1.337 . S
C462 C463 1.379 . S
C462 H476 0.929 . S
C463 C462 1.379 . S
C463 C464 1.380 . S
C463 H484 0.929 . S
C464 C463 1.380 . S
C464 C465 1.399 . S
C465 C464 1.399 . S
C465 C466 1.376 . S
C465 H485 0.931 . S
C466 N461 1.338 . S
C466 C465 1.376 . S
C466 H477 0.930 . S
C467 O474 1.239 . S
C467 O475 1.230 . S
O468 Cd432 2.268 . S
O468 C442 1.238 . S
O469 Cd433 2.273 . S
O469 C442 1.253 . S
O470 Cd433 2.268 . S
O470 C459 1.238 . S
O471 Cd432 2.273 . S
O471 C459 1.253 . S
O472 Cd432 2.417 . S
O472 C460 1.239 . S
O473 Cd432 2.330 . S
O473 C460 1.230 . S
O474 Cd433 2.417 . S
O474 C467 1.239 . S
O475 Cd433 2.330 . S
O475 C467 1.230 . S
H476 C462 0.929 . S
H477 C466 0.930 . S
H478 C436 0.931 . S
H479 C438 0.930 . S
H480 C444 0.929 . S
H481 C446 0.931 . S
H482 C453 0.931 . S
H483 C455 0.930 . S
H484 C463 0.929 . S
H485 C465 0.931 . S
Cd486 N489 2.334 . S
Cd486 N515 2.304 . S
Cd486 O522 2.268 . S
Cd486 O525 2.273 . S
Cd486 O526 2.417 . S
Cd486 O527 2.330 . S
Cd487 N502 2.304 . S
Cd487 N506 2.334 . S
Cd487 O523 2.273 . S
Cd487 O524 2.268 . S
Cd487 O528 2.417 1_545 S
Cd487 O529 2.330 1_545 S
C488 N489 1.332 . S
C488 C492 1.381 . S
C488 H494 0.931 . S
N489 Cd486 2.334 . S
N489 C488 1.332 . S
N489 C493 1.328 . S
C490 C491 1.396 . S
C490 C493 1.378 . S
C490 H532 0.931 . S
C491 C490 1.396 . S
C491 C492 1.382 . S
C492 C488 1.381 . S
C492 C491 1.382 . S
C492 H533 0.930 . S
C493 N489 1.328 . S
C493 C490 1.378 . S
C493 H495 0.930 . S
H494 C488 0.931 . S
H495 C493 0.930 . S
C496 O522 1.238 . S
C496 O523 1.253 . S
C497 C498 1.379 . S
C497 N502 1.337 . S
C497 H503 0.929 . S
C498 C497 1.379 . S
C498 C499 1.380 1_545 S
C498 H534 0.929 . S
C499 C498 1.380 1_565 S
C499 C500 1.399 . S
C500 C499 1.399 . S
C500 C501 1.376 . S
C500 H535 0.931 . S
C501 C500 1.376 . S
C501 N502 1.338 1_565 S
C501 H504 0.930 . S
N502 Cd487 2.304 . S
N502 C497 1.337 . S
N502 C501 1.338 1_545 S
H503 C497 0.929 . S
H504 C501 0.930 . S
C505 N506 1.332 . S
C505 C509 1.381 . S
C505 H511 0.931 . S
N506 Cd487 2.334 . S
N506 C505 1.332 . S
N506 C510 1.328 . S
C507 C508 1.396 . S
C507 C510 1.378 . S
C507 H536 0.931 . S
C508 C507 1.396 . S
C508 C509 1.382 . S
C509 C505 1.381 . S
C509 C508 1.382 . S
C509 H537 0.930 . S
C510 N506 1.328 . S
C510 C507 1.378 . S
C510 H512 0.930 . S
H511 C505 0.931 . S
H512 C510 0.930 . S
C513 O524 1.238 . S
C513 O525 1.253 . S
C514 O526 1.239 . S
C514 O527 1.230 . S
N515 Cd486 2.304 . S
N515 C516 1.337 . S
N515 C520 1.338 . S
C516 N515 1.337 . S
C516 C517 1.379 . S
C516 H530 0.929 . S
C517 C516 1.379 . S
C517 C518 1.380 . S
C517 H538 0.929 . S
C518 C517 1.380 . S
C518 C519 1.399 . S
C519 C518 1.399 . S
C519 C520 1.376 . S
C519 H539 0.931 . S
C520 N515 1.338 . S
C520 C519 1.376 . S
C520 H531 0.930 . S
C521 O528 1.239 . S
C521 O529 1.230 . S
O522 Cd486 2.268 . S
O522 C496 1.238 . S
O523 Cd487 2.273 . S
O523 C496 1.253 . S
O524 Cd487 2.268 . S
O524 C513 1.238 . S
O525 Cd486 2.273 . S
O525 C513 1.253 . S
O526 Cd486 2.417 . S
O526 C514 1.239 . S
O527 Cd486 2.330 . S
O527 C514 1.230 . S
O528 Cd487 2.417 1_565 S
O528 C521 1.239 . S
O529 Cd487 2.330 1_565 S
O529 C521 1.230 . S
H530 C516 0.929 . S
H531 C520 0.930 . S
H532 C490 0.931 . S
H533 C492 0.930 . S
H534 C498 0.929 . S
H535 C500 0.931 . S
H536 C507 0.931 . S
H537 C509 0.930 . S
H538 C517 0.929 . S
H539 C519 0.931 . S
Cd540 N543 2.334 . S
Cd540 N569 2.304 . S
Cd540 O576 2.268 . S
Cd540 O579 2.273 . S
Cd540 O580 2.417 1_565 S
Cd540 O581 2.330 1_565 S
Cd541 N556 2.304 . S
Cd541 N560 2.334 . S
Cd541 O577 2.273 . S
Cd541 O578 2.268 . S
Cd541 O582 2.417 . S
Cd541 O583 2.330 . S
C542 N543 1.332 . S
C542 C546 1.381 . S
C542 H548 0.931 . S
N543 Cd540 2.334 . S
N543 C542 1.332 . S
N543 C547 1.328 . S
C544 C545 1.396 . S
C544 C547 1.378 . S
C544 H586 0.931 . S
C545 C544 1.396 . S
C545 C546 1.382 . S
C546 C542 1.381 . S
C546 C545 1.382 . S
C546 H587 0.930 . S
C547 N543 1.328 . S
C547 C544 1.378 . S
C547 H549 0.930 . S
H548 C542 0.931 . S
H549 C547 0.930 . S
C550 O576 1.238 . S
C550 O577 1.253 . S
C551 C552 1.379 . S
C551 N556 1.337 . S
C551 H557 0.929 . S
C552 C551 1.379 . S
C552 C553 1.380 . S
C552 H588 0.929 . S
C553 C552 1.380 . S
C553 C554 1.399 . S
C554 C553 1.399 . S
C554 C555 1.376 . S
C554 H589 0.931 . S
C555 C554 1.376 . S
C555 N556 1.338 . S
C555 H558 0.930 . S
N556 Cd541 2.304 . S
N556 C551 1.337 . S
N556 C555 1.338 . S
H557 C551 0.929 . S
H558 C555 0.930 . S
C559 N560 1.332 . S
C559 C563 1.381 . S
C559 H565 0.931 . S
N560 Cd541 2.334 . S
N560 C559 1.332 . S
N560 C564 1.328 . S
C561 C562 1.396 . S
C561 C564 1.378 . S
C561 H590 0.931 . S
C562 C561 1.396 . S
C562 C563 1.382 . S
C563 C559 1.381 . S
C563 C562 1.382 . S
C563 H591 0.930 . S
C564 N560 1.328 . S
C564 C561 1.378 . S
C564 H566 0.930 . S
H565 C559 0.931 . S
H566 C564 0.930 . S
C567 O578 1.238 . S
C567 O579 1.253 . S
C568 O580 1.239 . S
C568 O581 1.230 . S
N569 Cd540 2.304 . S
N569 C570 1.337 . S
N569 C574 1.338 1_565 S
C570 N569 1.337 . S
C570 C571 1.379 . S
C570 H584 0.929 . S
C571 C570 1.379 . S
C571 C572 1.380 1_565 S
C571 H592 0.929 . S
C572 C571 1.380 1_545 S
C572 C573 1.399 . S
C573 C572 1.399 . S
C573 C574 1.376 . S
C573 H593 0.931 . S
C574 N569 1.338 1_545 S
C574 C573 1.376 . S
C574 H585 0.930 . S
C575 O582 1.239 . S
C575 O583 1.230 . S
O576 Cd540 2.268 . S
O576 C550 1.238 . S
O577 Cd541 2.273 . S
O577 C550 1.253 . S
O578 Cd541 2.268 . S
O578 C567 1.238 . S
O579 Cd540 2.273 . S
O579 C567 1.253 . S
O580 Cd540 2.417 1_545 S
O580 C568 1.239 . S
O581 Cd540 2.330 1_545 S
O581 C568 1.230 . S
O582 Cd541 2.417 . S
O582 C575 1.239 . S
O583 Cd541 2.330 . S
O583 C575 1.230 . S
H584 C570 0.929 . S
H585 C574 0.930 . S
H586 C544 0.931 . S
H587 C546 0.930 . S
H588 C552 0.929 . S
H589 C554 0.931 . S
H590 C561 0.931 . S
H591 C563 0.930 . S
H592 C571 0.929 . S
H593 C573 0.931 . S
Cd594 N597 2.334 . S
Cd594 N623 2.304 . S
Cd594 O630 2.268 . S
Cd594 O633 2.273 . S
Cd594 O634 2.417 . S
Cd594 O635 2.330 . S
Cd595 N610 2.304 . S
Cd595 N614 2.334 . S
Cd595 O631 2.273 . S
Cd595 O632 2.268 . S
Cd595 O636 2.417 . S
Cd595 O637 2.330 . S
C596 N597 1.332 . S
C596 C600 1.381 . S
C596 H602 0.931 . S
N597 Cd594 2.334 . S
N597 C596 1.332 . S
N597 C601 1.328 . S
C598 C599 1.396 . S
C598 C601 1.378 . S
C598 H640 0.931 . S
C599 C598 1.396 . S
C599 C600 1.382 . S
C600 C596 1.381 . S
C600 C599 1.382 . S
C600 H641 0.930 . S
C601 N597 1.328 . S
C601 C598 1.378 . S
C601 H603 0.930 . S
H602 C596 0.931 . S
H603 C601 0.930 . S
C604 O630 1.238 . S
C604 O631 1.253 . S
C605 C606 1.379 . S
C605 N610 1.337 . S
C605 H611 0.929 . S
C606 C605 1.379 . S
C606 C607 1.380 . S
C606 H642 0.929 . S
C607 C606 1.380 . S
C607 C608 1.399 . S
C608 C607 1.399 . S
C608 C609 1.376 . S
C608 H643 0.931 . S
C609 C608 1.376 . S
C609 N610 1.338 . S
C609 H612 0.930 . S
N610 Cd595 2.304 . S
N610 C605 1.337 . S
N610 C609 1.338 . S
H611 C605 0.929 . S
H612 C609 0.930 . S
C613 N614 1.332 . S
C613 C617 1.381 . S
C613 H619 0.931 . S
N614 Cd595 2.334 . S
N614 C613 1.332 . S
N614 C618 1.328 . S
C615 C616 1.396 . S
C615 C618 1.378 . S
C615 H644 0.931 . S
C616 C615 1.396 . S
C616 C617 1.382 . S
C617 C613 1.381 . S
C617 C616 1.382 . S
C617 H645 0.930 . S
C618 N614 1.328 . S
C618 C615 1.378 . S
C618 H620 0.930 . S
H619 C613 0.931 . S
H620 C618 0.930 . S
C621 O632 1.238 . S
C621 O633 1.253 . S
C622 O634 1.239 . S
C622 O635 1.230 . S
N623 Cd594 2.304 . S
N623 C624 1.337 . S
N623 C628 1.338 . S
C624 N623 1.337 . S
C624 C625 1.379 . S
C624 H638 0.929 . S
C625 C624 1.379 . S
C625 C626 1.380 . S
C625 H646 0.929 . S
C626 C625 1.380 . S
C626 C627 1.399 . S
C627 C626 1.399 . S
C627 C628 1.376 . S
C627 H647 0.931 . S
C628 N623 1.338 . S
C628 C627 1.376 . S
C628 H639 0.930 . S
C629 O636 1.239 . S
C629 O637 1.230 . S
O630 Cd594 2.268 . S
O630 C604 1.238 . S
O631 Cd595 2.273 . S
O631 C604 1.253 . S
O632 Cd595 2.268 . S
O632 C621 1.238 . S
O633 Cd594 2.273 . S
O633 C621 1.253 . S
O634 Cd594 2.417 . S
O634 C622 1.239 . S
O635 Cd594 2.330 . S
O635 C622 1.230 . S
O636 Cd595 2.417 . S
O636 C629 1.239 . S
O637 Cd595 2.330 . S
O637 C629 1.230 . S
H638 C624 0.929 . S
H639 C628 0.930 . S
H640 C598 0.931 . S
H641 C600 0.930 . S
H642 C606 0.929 . S
H643 C608 0.931 . S
H644 C615 0.931 . S
H645 C617 0.930 . S
H646 C625 0.929 . S
H647 C627 0.931 . S
Cd648 N651 2.334 . S
Cd648 N677 2.304 . S
Cd648 O684 2.268 . S
Cd648 O687 2.273 . S
Cd648 O688 2.417 . S
Cd648 O689 2.330 . S
Cd649 N664 2.304 . S
Cd649 N668 2.334 . S
Cd649 O685 2.273 . S
Cd649 O686 2.268 . S
Cd649 O690 2.417 . S
Cd649 O691 2.330 . S
C650 N651 1.332 . S
C650 C654 1.381 . S
C650 H656 0.931 . S
N651 Cd648 2.334 . S
N651 C650 1.332 . S
N651 C655 1.328 . S
C652 C653 1.396 . S
C652 C655 1.378 . S
C652 H694 0.931 . S
C653 C652 1.396 . S
C653 C654 1.382 . S
C654 C650 1.381 . S
C654 C653 1.382 . S
C654 H695 0.930 . S
C655 N651 1.328 . S
C655 C652 1.378 . S
C655 H657 0.930 . S
H656 C650 0.931 . S
H657 C655 0.930 . S
C658 O684 1.238 . S
C658 O685 1.253 . S
C659 C660 1.379 . S
C659 N664 1.337 . S
C659 H665 0.929 . S
C660 C659 1.379 . S
C660 C661 1.380 . S
C660 H696 0.929 . S
C661 C660 1.380 . S
C661 C662 1.399 . S
C662 C661 1.399 . S
C662 C663 1.376 . S
C662 H697 0.931 . S
C663 C662 1.376 . S
C663 N664 1.338 . S
C663 H666 0.930 . S
N664 Cd649 2.304 . S
N664 C659 1.337 . S
N664 C663 1.338 . S
H665 C659 0.929 . S
H666 C663 0.930 . S
C667 N668 1.332 . S
C667 C671 1.381 . S
C667 H673 0.931 . S
N668 Cd649 2.334 . S
N668 C667 1.332 . S
N668 C672 1.328 . S
C669 C670 1.396 . S
C669 C672 1.378 . S
C669 H698 0.931 . S
C670 C669 1.396 . S
C670 C671 1.382 . S
C671 C667 1.381 . S
C671 C670 1.382 . S
C671 H699 0.930 . S
C672 N668 1.328 . S
C672 C669 1.378 . S
C672 H674 0.930 . S
H673 C667 0.931 . S
H674 C672 0.930 . S
C675 O686 1.238 . S
C675 O687 1.253 . S
C676 O688 1.239 . S
C676 O689 1.230 . S
N677 Cd648 2.304 . S
N677 C678 1.337 . S
N677 C682 1.338 . S
C678 N677 1.337 . S
C678 C679 1.379 . S
C678 H692 0.929 . S
C679 C678 1.379 . S
C679 C680 1.380 . S
C679 H700 0.929 . S
C680 C679 1.380 . S
C680 C681 1.399 . S
C681 C680 1.399 . S
C681 C682 1.376 . S
C681 H701 0.931 . S
C682 N677 1.338 . S
C682 C681 1.376 . S
C682 H693 0.930 . S
C683 O690 1.239 . S
C683 O691 1.230 . S
O684 Cd648 2.268 . S
O684 C658 1.238 . S
O685 Cd649 2.273 . S
O685 C658 1.253 . S
O686 Cd649 2.268 . S
O686 C675 1.238 . S
O687 Cd648 2.273 . S
O687 C675 1.253 . S
O688 Cd648 2.417 . S
O688 C676 1.239 . S
O689 Cd648 2.330 . S
O689 C676 1.230 . S
O690 Cd649 2.417 . S
O690 C683 1.239 . S
O691 Cd649 2.330 . S
O691 C683 1.230 . S
H692 C678 0.929 . S
H693 C682 0.930 . S
H694 C652 0.931 . S
H695 C654 0.930 . S
H696 C660 0.929 . S
H697 C662 0.931 . S
H698 C669 0.931 . S
H699 C671 0.930 . S
H700 C679 0.929 . S
H701 C681 0.931 . S
Cd702 N705 2.334 . S
Cd702 N731 2.304 . S
Cd702 O738 2.268 . S
Cd702 O741 2.273 . S
Cd702 O742 2.417 1_554 S
Cd702 O743 2.330 1_554 S
Cd703 N718 2.304 . S
Cd703 N722 2.334 . S
Cd703 O739 2.273 . S
Cd703 O740 2.268 . S
Cd703 O744 2.417 . S
Cd703 O745 2.330 . S
C704 N705 1.332 . S
C704 C708 1.381 . S
C704 H710 0.931 . S
N705 Cd702 2.334 . S
N705 C704 1.332 . S
N705 C709 1.328 . S
C706 C707 1.396 . S
C706 C709 1.378 . S
C706 H748 0.931 . S
C707 C706 1.396 . S
C707 C708 1.382 . S
C708 C704 1.381 . S
C708 C707 1.382 . S
C708 H749 0.930 . S
C709 N705 1.328 . S
C709 C706 1.378 . S
C709 H711 0.930 . S
H710 C704 0.931 . S
H711 C709 0.930 . S
C712 O738 1.238 . S
C712 O739 1.253 . S
C713 C714 1.379 . S
C713 N718 1.337 . S
C713 H719 0.929 . S
C714 C713 1.379 . S
C714 C715 1.380 . S
C714 H750 0.929 . S
C715 C714 1.380 . S
C715 C716 1.399 . S
C716 C715 1.399 . S
C716 C717 1.376 . S
C716 H751 0.931 . S
C717 C716 1.376 . S
C717 N718 1.338 . S
C717 H720 0.930 . S
N718 Cd703 2.304 . S
N718 C713 1.337 . S
N718 C717 1.338 . S
H719 C713 0.929 . S
H720 C717 0.930 . S
C721 N722 1.332 . S
C721 C725 1.381 . S
C721 H727 0.931 . S
N722 Cd703 2.334 . S
N722 C721 1.332 . S
N722 C726 1.328 . S
C723 C724 1.396 . S
C723 C726 1.378 . S
C723 H752 0.931 . S
C724 C723 1.396 . S
C724 C725 1.382 . S
C725 C721 1.381 . S
C725 C724 1.382 . S
C725 H753 0.930 . S
C726 N722 1.328 . S
C726 C723 1.378 . S
C726 H728 0.930 . S
H727 C721 0.931 . S
H728 C726 0.930 . S
C729 O740 1.238 . S
C729 O741 1.253 . S
C730 O742 1.239 . S
C730 O743 1.230 . S
N731 Cd702 2.304 . S
N731 C732 1.337 . S
N731 C736 1.338 1_554 S
C732 N731 1.337 . S
C732 C733 1.379 . S
C732 H746 0.929 . S
C733 C732 1.379 . S
C733 C734 1.380 1_554 S
C733 H754 0.929 . S
C734 C733 1.380 1_556 S
C734 C735 1.399 . S
C735 C734 1.399 . S
C735 C736 1.376 . S
C735 H755 0.931 . S
C736 N731 1.338 1_556 S
C736 C735 1.376 . S
C736 H747 0.930 . S
C737 O744 1.239 . S
C737 O745 1.230 . S
O738 Cd702 2.268 . S
O738 C712 1.238 . S
O739 Cd703 2.273 . S
O739 C712 1.253 . S
O740 Cd703 2.268 . S
O740 C729 1.238 . S
O741 Cd702 2.273 . S
O741 C729 1.253 . S
O742 Cd702 2.417 1_556 S
O742 C730 1.239 . S
O743 Cd702 2.330 1_556 S
O743 C730 1.230 . S
O744 Cd703 2.417 . S
O744 C737 1.239 . S
O745 Cd703 2.330 . S
O745 C737 1.230 . S
H746 C732 0.929 . S
H747 C736 0.930 . S
H748 C706 0.931 . S
H749 C708 0.930 . S
H750 C714 0.929 . S
H751 C716 0.931 . S
H752 C723 0.931 . S
H753 C725 0.930 . S
H754 C733 0.929 . S
H755 C735 0.931 . S
Cd756 N759 2.334 . S
Cd756 N785 2.304 . S
Cd756 O792 2.268 . S
Cd756 O795 2.273 . S
Cd756 O796 2.417 . S
Cd756 O797 2.330 . S
Cd757 N772 2.304 . S
Cd757 N776 2.334 . S
Cd757 O793 2.273 . S
Cd757 O794 2.268 . S
Cd757 O798 2.417 . S
Cd757 O799 2.330 . S
C758 N759 1.332 . S
C758 C762 1.381 . S
C758 H764 0.931 . S
N759 Cd756 2.334 . S
N759 C758 1.332 . S
N759 C763 1.328 . S
C760 C761 1.396 . S
C760 C763 1.378 . S
C760 H802 0.931 . S
C761 C760 1.396 . S
C761 C762 1.382 . S
C762 C758 1.381 . S
C762 C761 1.382 . S
C762 H803 0.930 . S
C763 N759 1.328 . S
C763 C760 1.378 . S
C763 H765 0.930 . S
H764 C758 0.931 . S
H765 C763 0.930 . S
C766 O792 1.238 . S
C766 O793 1.253 . S
C767 C768 1.379 . S
C767 N772 1.337 . S
C767 H773 0.929 . S
C768 C767 1.379 . S
C768 C769 1.380 . S
C768 H804 0.929 . S
C769 C768 1.380 . S
C769 C770 1.399 . S
C770 C769 1.399 . S
C770 C771 1.376 . S
C770 H805 0.931 . S
C771 C770 1.376 . S
C771 N772 1.338 . S
C771 H774 0.930 . S
N772 Cd757 2.304 . S
N772 C767 1.337 . S
N772 C771 1.338 . S
H773 C767 0.929 . S
H774 C771 0.930 . S
C775 N776 1.332 . S
C775 C779 1.381 . S
C775 H781 0.931 . S
N776 Cd757 2.334 . S
N776 C775 1.332 . S
N776 C780 1.328 . S
C777 C778 1.396 . S
C777 C780 1.378 . S
C777 H806 0.931 . S
C778 C777 1.396 . S
C778 C779 1.382 . S
C779 C775 1.381 . S
C779 C778 1.382 . S
C779 H807 0.930 . S
C780 N776 1.328 . S
C780 C777 1.378 . S
C780 H782 0.930 . S
H781 C775 0.931 . S
H782 C780 0.930 . S
C783 O794 1.238 . S
C783 O795 1.253 . S
C784 O796 1.239 . S
C784 O797 1.230 . S
N785 Cd756 2.304 . S
N785 C786 1.337 . S
N785 C790 1.338 . S
C786 N785 1.337 . S
C786 C787 1.379 . S
C786 H800 0.929 . S
C787 C786 1.379 . S
C787 C788 1.380 . S
C787 H808 0.929 . S
C788 C787 1.380 . S
C788 C789 1.399 . S
C789 C788 1.399 . S
C789 C790 1.376 . S
C789 H809 0.931 . S
C790 N785 1.338 . S
C790 C789 1.376 . S
C790 H801 0.930 . S
C791 O798 1.239 . S
C791 O799 1.230 . S
O792 Cd756 2.268 . S
O792 C766 1.238 . S
O793 Cd757 2.273 . S
O793 C766 1.253 . S
O794 Cd757 2.268 . S
O794 C783 1.238 . S
O795 Cd756 2.273 . S
O795 C783 1.253 . S
O796 Cd756 2.417 . S
O796 C784 1.239 . S
O797 Cd756 2.330 . S
O797 C784 1.230 . S
O798 Cd757 2.417 . S
O798 C791 1.239 . S
O799 Cd757 2.330 . S
O799 C791 1.230 . S
H800 C786 0.929 . S
H801 C790 0.930 . S
H802 C760 0.931 . S
H803 C762 0.930 . S
H804 C768 0.929 . S
H805 C770 0.931 . S
H806 C777 0.931 . S
H807 C779 0.930 . S
H808 C787 0.929 . S
H809 C789 0.931 . S
Cd810 N813 2.334 . S
Cd810 N839 2.304 . S
Cd810 O846 2.268 . S
Cd810 O849 2.273 . S
Cd810 O850 2.417 1_556 S
Cd810 O851 2.330 1_556 S
Cd811 N826 2.304 . S
Cd811 N830 2.334 . S
Cd811 O847 2.273 . S
Cd811 O848 2.268 . S
Cd811 O852 2.417 . S
Cd811 O853 2.330 . S
C812 N813 1.332 . S
C812 C816 1.381 . S
C812 H818 0.931 . S
N813 Cd810 2.334 . S
N813 C812 1.332 . S
N813 C817 1.328 . S
C814 C815 1.396 . S
C814 C817 1.378 . S
C814 H856 0.931 . S
C815 C814 1.396 . S
C815 C816 1.382 . S
C816 C812 1.381 . S
C816 C815 1.382 . S
C816 H857 0.930 . S
C817 N813 1.328 . S
C817 C814 1.378 . S
C817 H819 0.930 . S
H818 C812 0.931 . S
H819 C817 0.930 . S
C820 O846 1.238 . S
C820 O847 1.253 . S
C821 C822 1.379 . S
C821 N826 1.337 . S
C821 H827 0.929 . S
C822 C821 1.379 . S
C822 C823 1.380 . S
C822 H858 0.929 . S
C823 C822 1.380 . S
C823 C824 1.399 . S
C824 C823 1.399 . S
C824 C825 1.376 . S
C824 H859 0.931 . S
C825 C824 1.376 . S
C825 N826 1.338 . S
C825 H828 0.930 . S
N826 Cd811 2.304 . S
N826 C821 1.337 . S
N826 C825 1.338 . S
H827 C821 0.929 . S
H828 C825 0.930 . S
C829 N830 1.332 . S
C829 C833 1.381 . S
C829 H835 0.931 . S
N830 Cd811 2.334 . S
N830 C829 1.332 . S
N830 C834 1.328 . S
C831 C832 1.396 . S
C831 C834 1.378 . S
C831 H860 0.931 . S
C832 C831 1.396 . S
C832 C833 1.382 . S
C833 C829 1.381 . S
C833 C832 1.382 . S
C833 H861 0.930 . S
C834 N830 1.328 . S
C834 C831 1.378 . S
C834 H836 0.930 . S
H835 C829 0.931 . S
H836 C834 0.930 . S
C837 O848 1.238 . S
C837 O849 1.253 . S
C838 O850 1.239 . S
C838 O851 1.230 . S
N839 Cd810 2.304 . S
N839 C840 1.337 . S
N839 C844 1.338 1_556 S
C840 N839 1.337 . S
C840 C841 1.379 . S
C840 H854 0.929 . S
C841 C840 1.379 . S
C841 C842 1.380 1_556 S
C841 H862 0.929 . S
C842 C841 1.380 1_554 S
C842 C843 1.399 . S
C843 C842 1.399 . S
C843 C844 1.376 . S
C843 H863 0.931 . S
C844 N839 1.338 1_554 S
C844 C843 1.376 . S
C844 H855 0.930 . S
C845 O852 1.239 . S
C845 O853 1.230 . S
O846 Cd810 2.268 . S
O846 C820 1.238 . S
O847 Cd811 2.273 . S
O847 C820 1.253 . S
O848 Cd811 2.268 . S
O848 C837 1.238 . S
O849 Cd810 2.273 . S
O849 C837 1.253 . S
O850 Cd810 2.417 1_554 S
O850 C838 1.239 . S
O851 Cd810 2.330 1_554 S
O851 C838 1.230 . S
O852 Cd811 2.417 . S
O852 C845 1.239 . S
O853 Cd811 2.330 . S
O853 C845 1.230 . S
H854 C840 0.929 . S
H855 C844 0.930 . S
H856 C814 0.931 . S
H857 C816 0.930 . S
H858 C822 0.929 . S
H859 C824 0.931 . S
H860 C831 0.931 . S
H861 C833 0.930 . S
H862 C841 0.929 . S
H863 C843 0.931 . S
Cd864 N867 2.334 . S
Cd864 N893 2.304 . S
Cd864 O900 2.268 . S
Cd864 O903 2.273 . S
Cd864 O904 2.417 . S
Cd864 O905 2.330 . S
Cd865 N880 2.304 . S
Cd865 N884 2.334 . S
Cd865 O901 2.273 . S
Cd865 O902 2.268 . S
Cd865 O906 2.417 . S
Cd865 O907 2.330 . S
C866 N867 1.332 . S
C866 C870 1.381 . S
C866 H872 0.931 . S
N867 Cd864 2.334 . S
N867 C866 1.332 . S
N867 C871 1.328 . S
C868 C869 1.396 . S
C868 C871 1.378 . S
C868 H910 0.931 . S
C869 C868 1.396 . S
C869 C870 1.382 . S
C870 C866 1.381 . S
C870 C869 1.382 . S
C870 H911 0.930 . S
C871 N867 1.328 . S
C871 C868 1.378 . S
C871 H873 0.930 . S
H872 C866 0.931 . S
H873 C871 0.930 . S
C874 O900 1.238 . S
C874 O901 1.253 . S
C875 C876 1.379 . S
C875 N880 1.337 . S
C875 H881 0.929 . S
C876 C875 1.379 . S
C876 C877 1.380 . S
C876 H912 0.929 . S
C877 C876 1.380 . S
C877 C878 1.399 . S
C878 C877 1.399 . S
C878 C879 1.376 . S
C878 H913 0.931 . S
C879 C878 1.376 . S
C879 N880 1.338 . S
C879 H882 0.930 . S
N880 Cd865 2.304 . S
N880 C875 1.337 . S
N880 C879 1.338 . S
H881 C875 0.929 . S
H882 C879 0.930 . S
C883 N884 1.332 . S
C883 C887 1.381 . S
C883 H889 0.931 . S
N884 Cd865 2.334 . S
N884 C883 1.332 . S
N884 C888 1.328 . S
C885 C886 1.396 . S
C885 C888 1.378 . S
C885 H914 0.931 . S
C886 C885 1.396 . S
C886 C887 1.382 . S
C887 C883 1.381 . S
C887 C886 1.382 . S
C887 H915 0.930 . S
C888 N884 1.328 . S
C888 C885 1.378 . S
C888 H890 0.930 . S
H889 C883 0.931 . S
H890 C888 0.930 . S
C891 O902 1.238 . S
C891 O903 1.253 . S
C892 O904 1.239 . S
C892 O905 1.230 . S
N893 Cd864 2.304 . S
N893 C894 1.337 . S
N893 C898 1.338 . S
C894 N893 1.337 . S
C894 C895 1.379 . S
C894 H908 0.929 . S
C895 C894 1.379 . S
C895 C896 1.380 . S
C895 H916 0.929 . S
C896 C895 1.380 . S
C896 C897 1.399 . S
C897 C896 1.399 . S
C897 C898 1.376 . S
C897 H917 0.931 . S
C898 N893 1.338 . S
C898 C897 1.376 . S
C898 H909 0.930 . S
C899 O906 1.239 . S
C899 O907 1.230 . S
O900 Cd864 2.268 . S
O900 C874 1.238 . S
O901 Cd865 2.273 . S
O901 C874 1.253 . S
O902 Cd865 2.268 . S
O902 C891 1.238 . S
O903 Cd864 2.273 . S
O903 C891 1.253 . S
O904 Cd864 2.417 . S
O904 C892 1.239 . S
O905 Cd864 2.330 . S
O905 C892 1.230 . S
O906 Cd865 2.417 . S
O906 C899 1.239 . S
O907 Cd865 2.330 . S
O907 C899 1.230 . S
H908 C894 0.929 . S
H909 C898 0.930 . S
H910 C868 0.931 . S
H911 C870 0.930 . S
H912 C876 0.929 . S
H913 C878 0.931 . S
H914 C885 0.931 . S
H915 C887 0.930 . S
H916 C895 0.929 . S
H917 C897 0.931 . S
Cd918 N921 2.334 . S
Cd918 N947 2.304 . S
Cd918 O954 2.268 . S
Cd918 O957 2.273 . S
Cd918 O958 2.417 1_655 S
Cd918 O959 2.330 1_655 S
Cd919 N934 2.304 . S
Cd919 N938 2.334 . S
Cd919 O955 2.273 . S
Cd919 O956 2.268 . S
Cd919 O960 2.417 . S
Cd919 O961 2.330 . S
C920 N921 1.332 . S
C920 C924 1.381 . S
C920 H926 0.931 . S
N921 Cd918 2.334 . S
N921 C920 1.332 . S
N921 C925 1.328 . S
C922 C923 1.396 . S
C922 C925 1.378 . S
C922 H964 0.931 . S
C923 C922 1.396 . S
C923 C924 1.382 . S
C924 C920 1.381 . S
C924 C923 1.382 . S
C924 H965 0.930 . S
C925 N921 1.328 . S
C925 C922 1.378 . S
C925 H927 0.930 . S
H926 C920 0.931 . S
H927 C925 0.930 . S
C928 O954 1.238 . S
C928 O955 1.253 . S
C929 C930 1.379 . S
C929 N934 1.337 . S
C929 H935 0.929 . S
C930 C929 1.379 . S
C930 C931 1.380 . S
C930 H966 0.929 . S
C931 C930 1.380 . S
C931 C932 1.399 . S
C932 C931 1.399 . S
C932 C933 1.376 . S
C932 H967 0.931 . S
C933 C932 1.376 . S
C933 N934 1.338 . S
C933 H936 0.930 . S
N934 Cd919 2.304 . S
N934 C929 1.337 . S
N934 C933 1.338 . S
H935 C929 0.929 . S
H936 C933 0.930 . S
C937 N938 1.332 . S
C937 C941 1.381 . S
C937 H943 0.931 . S
N938 Cd919 2.334 . S
N938 C937 1.332 . S
N938 C942 1.328 . S
C939 C940 1.396 . S
C939 C942 1.378 . S
C939 H968 0.931 . S
C940 C939 1.396 . S
C940 C941 1.382 . S
C941 C937 1.381 . S
C941 C940 1.382 . S
C941 H969 0.930 . S
C942 N938 1.328 . S
C942 C939 1.378 . S
C942 H944 0.930 . S
H943 C937 0.931 . S
H944 C942 0.930 . S
C945 O956 1.238 . S
C945 O957 1.253 . S
C946 O958 1.239 . S
C946 O959 1.230 . S
N947 Cd918 2.304 . S
N947 C948 1.337 . S
N947 C952 1.338 1_655 S
C948 N947 1.337 . S
C948 C949 1.379 . S
C948 H962 0.929 . S
C949 C948 1.379 . S
C949 C950 1.380 1_655 S
C949 H970 0.929 . S
C950 C949 1.380 1_455 S
C950 C951 1.399 . S
C951 C950 1.399 . S
C951 C952 1.376 . S
C951 H971 0.931 . S
C952 N947 1.338 1_455 S
C952 C951 1.376 . S
C952 H963 0.930 . S
C953 O960 1.239 . S
C953 O961 1.230 . S
O954 Cd918 2.268 . S
O954 C928 1.238 . S
O955 Cd919 2.273 . S
O955 C928 1.253 . S
O956 Cd919 2.268 . S
O956 C945 1.238 . S
O957 Cd918 2.273 . S
O957 C945 1.253 . S
O958 Cd918 2.417 1_455 S
O958 C946 1.239 . S
O959 Cd918 2.330 1_455 S
O959 C946 1.230 . S
O960 Cd919 2.417 . S
O960 C953 1.239 . S
O961 Cd919 2.330 . S
O961 C953 1.230 . S
H962 C948 0.929 . S
H963 C952 0.930 . S
H964 C922 0.931 . S
H965 C924 0.930 . S
H966 C930 0.929 . S
H967 C932 0.931 . S
H968 C939 0.931 . S
H969 C941 0.930 . S
H970 C949 0.929 . S
H971 C951 0.931 . S
Cd972 N975 2.334 . S
Cd972 N1001 2.304 . S
Cd972 O1008 2.268 . S
Cd972 O1011 2.273 . S
Cd972 O1012 2.417 1_455 S
Cd972 O1013 2.330 1_455 S
Cd973 N988 2.304 . S
Cd973 N992 2.334 . S
Cd973 O1009 2.273 . S
Cd973 O1010 2.268 . S
Cd973 O1014 2.417 . S
Cd973 O1015 2.330 . S
C974 N975 1.332 . S
C974 C978 1.381 . S
C974 H980 0.931 . S
N975 Cd972 2.334 . S
N975 C974 1.332 . S
N975 C979 1.328 . S
C976 C977 1.396 . S
C976 C979 1.378 . S
C976 H1018 0.931 . S
C977 C976 1.396 . S
C977 C978 1.382 . S
C978 C974 1.381 . S
C978 C977 1.382 . S
C978 H1019 0.930 . S
C979 N975 1.328 . S
C979 C976 1.378 . S
C979 H981 0.930 . S
H980 C974 0.931 . S
H981 C979 0.930 . S
C982 O1008 1.238 . S
C982 O1009 1.253 . S
C983 C984 1.379 . S
C983 N988 1.337 . S
C983 H989 0.929 . S
C984 C983 1.379 . S
C984 C985 1.380 . S
C984 H1020 0.929 . S
C985 C984 1.380 . S
C985 C986 1.399 . S
C986 C985 1.399 . S
C986 C987 1.376 . S
C986 H1021 0.931 . S
C987 C986 1.376 . S
C987 N988 1.338 . S
C987 H990 0.930 . S
N988 Cd973 2.304 . S
N988 C983 1.337 . S
N988 C987 1.338 . S
H989 C983 0.929 . S
H990 C987 0.930 . S
C991 N992 1.332 . S
C991 C995 1.381 . S
C991 H997 0.931 . S
N992 Cd973 2.334 . S
N992 C991 1.332 . S
N992 C996 1.328 . S
C993 C994 1.396 . S
C993 C996 1.378 . S
C993 H1022 0.931 . S
C994 C993 1.396 . S
C994 C995 1.382 . S
C995 C991 1.381 . S
C995 C994 1.382 . S
C995 H1023 0.930 . S
C996 N992 1.328 . S
C996 C993 1.378 . S
C996 H998 0.930 . S
H997 C991 0.931 . S
H998 C996 0.930 . S
C999 O1010 1.238 . S
C999 O1011 1.253 . S
C1000 O1012 1.239 . S
C1000 O1013 1.230 . S
N1001 Cd972 2.304 . S
N1001 C1002 1.337 . S
N1001 C1006 1.338 1_455 S
C1002 N1001 1.337 . S
C1002 C1003 1.379 . S
C1002 H1016 0.929 . S
C1003 C1002 1.379 . S
C1003 C1004 1.380 1_455 S
C1003 H1024 0.929 . S
C1004 C1003 1.380 1_655 S
C1004 C1005 1.399 . S
C1005 C1004 1.399 . S
C1005 C1006 1.376 . S
C1005 H1025 0.931 . S
C1006 N1001 1.338 1_655 S
C1006 C1005 1.376 . S
C1006 H1017 0.930 . S
C1007 O1014 1.239 . S
C1007 O1015 1.230 . S
O1008 Cd972 2.268 . S
O1008 C982 1.238 . S
O1009 Cd973 2.273 . S
O1009 C982 1.253 . S
O1010 Cd973 2.268 . S
O1010 C999 1.238 . S
O1011 Cd972 2.273 . S
O1011 C999 1.253 . S
O1012 Cd972 2.417 1_655 S
O1012 C1000 1.239 . S
O1013 Cd972 2.330 1_655 S
O1013 C1000 1.230 . S
O1014 Cd973 2.417 . S
O1014 C1007 1.239 . S
O1015 Cd973 2.330 . S
O1015 C1007 1.230 . S
H1016 C1002 0.929 . S
H1017 C1006 0.930 . S
H1018 C976 0.931 . S
H1019 C978 0.930 . S
H1020 C984 0.929 . S
H1021 C986 0.931 . S
H1022 C993 0.931 . S
H1023 C995 0.930 . S
H1024 C1003 0.929 . S
H1025 C1005 0.931 . S
Cd1026 N1029 2.334 . S
Cd1026 N1055 2.304 . S
Cd1026 O1062 2.268 . S
Cd1026 O1065 2.273 . S
Cd1026 O1066 2.417 . S
Cd1026 O1067 2.330 . S
Cd1027 N1042 2.304 . S
Cd1027 N1046 2.334 . S
Cd1027 O1063 2.273 . S
Cd1027 O1064 2.268 . S
Cd1027 O1068 2.417 . S
Cd1027 O1069 2.330 . S
C1028 N1029 1.332 . S
C1028 C1032 1.381 . S
C1028 H1034 0.931 . S
N1029 Cd1026 2.334 . S
N1029 C1028 1.332 . S
N1029 C1033 1.328 . S
C1030 C1031 1.396 . S
C1030 C1033 1.378 . S
C1030 H1072 0.931 . S
C1031 C1030 1.396 . S
C1031 C1032 1.382 . S
C1032 C1028 1.381 . S
C1032 C1031 1.382 . S
C1032 H1073 0.930 . S
C1033 N1029 1.328 . S
C1033 C1030 1.378 . S
C1033 H1035 0.930 . S
H1034 C1028 0.931 . S
H1035 C1033 0.930 . S
C1036 O1062 1.238 . S
C1036 O1063 1.253 . S
C1037 C1038 1.379 . S
C1037 N1042 1.337 . S
C1037 H1043 0.929 . S
C1038 C1037 1.379 . S
C1038 C1039 1.380 . S
C1038 H1074 0.929 . S
C1039 C1038 1.380 . S
C1039 C1040 1.399 . S
C1040 C1039 1.399 . S
C1040 C1041 1.376 . S
C1040 H1075 0.931 . S
C1041 C1040 1.376 . S
C1041 N1042 1.338 . S
C1041 H1044 0.930 . S
N1042 Cd1027 2.304 . S
N1042 C1037 1.337 . S
N1042 C1041 1.338 . S
H1043 C1037 0.929 . S
H1044 C1041 0.930 . S
C1045 N1046 1.332 . S
C1045 C1049 1.381 . S
C1045 H1051 0.931 . S
N1046 Cd1027 2.334 . S
N1046 C1045 1.332 . S
N1046 C1050 1.328 . S
C1047 C1048 1.396 . S
C1047 C1050 1.378 . S
C1047 H1076 0.931 . S
C1048 C1047 1.396 . S
C1048 C1049 1.382 . S
C1049 C1045 1.381 . S
C1049 C1048 1.382 . S
C1049 H1077 0.930 . S
C1050 N1046 1.328 . S
C1050 C1047 1.378 . S
C1050 H1052 0.930 . S
H1051 C1045 0.931 . S
H1052 C1050 0.930 . S
C1053 O1064 1.238 . S
C1053 O1065 1.253 . S
C1054 O1066 1.239 . S
C1054 O1067 1.230 . S
N1055 Cd1026 2.304 . S
N1055 C1056 1.337 . S
N1055 C1060 1.338 . S
C1056 N1055 1.337 . S
C1056 C1057 1.379 . S
C1056 H1070 0.929 . S
C1057 C1056 1.379 . S
C1057 C1058 1.380 . S
C1057 H1078 0.929 . S
C1058 C1057 1.380 . S
C1058 C1059 1.399 . S
C1059 C1058 1.399 . S
C1059 C1060 1.376 . S
C1059 H1079 0.931 . S
C1060 N1055 1.338 . S
C1060 C1059 1.376 . S
C1060 H1071 0.930 . S
C1061 O1068 1.239 . S
C1061 O1069 1.230 . S
O1062 Cd1026 2.268 . S
O1062 C1036 1.238 . S
O1063 Cd1027 2.273 . S
O1063 C1036 1.253 . S
O1064 Cd1027 2.268 . S
O1064 C1053 1.238 . S
O1065 Cd1026 2.273 . S
O1065 C1053 1.253 . S
O1066 Cd1026 2.417 . S
O1066 C1054 1.239 . S
O1067 Cd1026 2.330 . S
O1067 C1054 1.230 . S
O1068 Cd1027 2.417 . S
O1068 C1061 1.239 . S
O1069 Cd1027 2.330 . S
O1069 C1061 1.230 . S
H1070 C1056 0.929 . S
H1071 C1060 0.930 . S
H1072 C1030 0.931 . S
H1073 C1032 0.930 . S
H1074 C1038 0.929 . S
H1075 C1040 0.931 . S
H1076 C1047 0.931 . S
H1077 C1049 0.930 . S
H1078 C1057 0.929 . S
H1079 C1059 0.931 . S
Cd1080 N1083 2.334 . S
Cd1080 N1109 2.304 . S
Cd1080 O1116 2.268 . S
Cd1080 O1119 2.273 . S
Cd1080 O1120 2.417 . S
Cd1080 O1121 2.330 . S
Cd1081 N1096 2.304 . S
Cd1081 N1100 2.334 . S
Cd1081 O1117 2.273 . S
Cd1081 O1118 2.268 . S
Cd1081 O1122 2.417 . S
Cd1081 O1123 2.330 . S
C1082 N1083 1.332 . S
C1082 C1086 1.381 . S
C1082 H1088 0.931 . S
N1083 Cd1080 2.334 . S
N1083 C1082 1.332 . S
N1083 C1087 1.328 . S
C1084 C1085 1.396 . S
C1084 C1087 1.378 . S
C1084 H1126 0.931 . S
C1085 C1084 1.396 . S
C1085 C1086 1.382 . S
C1086 C1082 1.381 . S
C1086 C1085 1.382 . S
C1086 H1127 0.930 . S
C1087 N1083 1.328 . S
C1087 C1084 1.378 . S
C1087 H1089 0.930 . S
H1088 C1082 0.931 . S
H1089 C1087 0.930 . S
C1090 O1116 1.238 . S
C1090 O1117 1.253 . S
C1091 C1092 1.379 . S
C1091 N1096 1.337 . S
C1091 H1097 0.929 . S
C1092 C1091 1.379 . S
C1092 C1093 1.380 . S
C1092 H1128 0.929 . S
C1093 C1092 1.380 . S
C1093 C1094 1.399 . S
C1094 C1093 1.399 . S
C1094 C1095 1.376 . S
C1094 H1129 0.931 . S
C1095 C1094 1.376 . S
C1095 N1096 1.338 . S
C1095 H1098 0.930 . S
N1096 Cd1081 2.304 . S
N1096 C1091 1.337 . S
N1096 C1095 1.338 . S
H1097 C1091 0.929 . S
H1098 C1095 0.930 . S
C1099 N1100 1.332 . S
C1099 C1103 1.381 . S
C1099 H1105 0.931 . S
N1100 Cd1081 2.334 . S
N1100 C1099 1.332 . S
N1100 C1104 1.328 . S
C1101 C1102 1.396 . S
C1101 C1104 1.378 . S
C1101 H1130 0.931 . S
C1102 C1101 1.396 . S
C1102 C1103 1.382 . S
C1103 C1099 1.381 . S
C1103 C1102 1.382 . S
C1103 H1131 0.930 . S
C1104 N1100 1.328 . S
C1104 C1101 1.378 . S
C1104 H1106 0.930 . S
H1105 C1099 0.931 . S
H1106 C1104 0.930 . S
C1107 O1118 1.238 . S
C1107 O1119 1.253 . S
C1108 O1120 1.239 . S
C1108 O1121 1.230 . S
N1109 Cd1080 2.304 . S
N1109 C1110 1.337 . S
N1109 C1114 1.338 . S
C1110 N1109 1.337 . S
C1110 C1111 1.379 . S
C1110 H1124 0.929 . S
C1111 C1110 1.379 . S
C1111 C1112 1.380 . S
C1111 H1132 0.929 . S
C1112 C1111 1.380 . S
C1112 C1113 1.399 . S
C1113 C1112 1.399 . S
C1113 C1114 1.376 . S
C1113 H1133 0.931 . S
C1114 N1109 1.338 . S
C1114 C1113 1.376 . S
C1114 H1125 0.930 . S
C1115 O1122 1.239 . S
C1115 O1123 1.230 . S
O1116 Cd1080 2.268 . S
O1116 C1090 1.238 . S
O1117 Cd1081 2.273 . S
O1117 C1090 1.253 . S
O1118 Cd1081 2.268 . S
O1118 C1107 1.238 . S
O1119 Cd1080 2.273 . S
O1119 C1107 1.253 . S
O1120 Cd1080 2.417 . S
O1120 C1108 1.239 . S
O1121 Cd1080 2.330 . S
O1121 C1108 1.230 . S
O1122 Cd1081 2.417 . S
O1122 C1115 1.239 . S
O1123 Cd1081 2.330 . S
O1123 C1115 1.230 . S
H1124 C1110 0.929 . S
H1125 C1114 0.930 . S
H1126 C1084 0.931 . S
H1127 C1086 0.930 . S
H1128 C1092 0.929 . S
H1129 C1094 0.931 . S
H1130 C1101 0.931 . S
H1131 C1103 0.930 . S
H1132 C1111 0.929 . S
H1133 C1113 0.931 . S
Cd1134 N1137 2.334 . S
Cd1134 N1163 2.304 . S
Cd1134 O1170 2.268 . S
Cd1134 O1173 2.273 . S
Cd1134 O1174 2.417 1_565 S
Cd1134 O1175 2.330 1_565 S
Cd1135 N1150 2.304 . S
Cd1135 N1154 2.334 . S
Cd1135 O1171 2.273 . S
Cd1135 O1172 2.268 . S
Cd1135 O1176 2.417 . S
Cd1135 O1177 2.330 . S
C1136 N1137 1.332 . S
C1136 C1140 1.381 . S
C1136 H1142 0.931 . S
N1137 Cd1134 2.334 . S
N1137 C1136 1.332 . S
N1137 C1141 1.328 . S
C1138 C1139 1.396 . S
C1138 C1141 1.378 . S
C1138 H1180 0.931 . S
C1139 C1138 1.396 . S
C1139 C1140 1.382 . S
C1140 C1136 1.381 . S
C1140 C1139 1.382 . S
C1140 H1181 0.930 . S
C1141 N1137 1.328 . S
C1141 C1138 1.378 . S
C1141 H1143 0.930 . S
H1142 C1136 0.931 . S
H1143 C1141 0.930 . S
C1144 O1170 1.238 . S
C1144 O1171 1.253 . S
C1145 C1146 1.379 . S
C1145 N1150 1.337 . S
C1145 H1151 0.929 . S
C1146 C1145 1.379 . S
C1146 C1147 1.380 . S
C1146 H1182 0.929 . S
C1147 C1146 1.380 . S
C1147 C1148 1.399 . S
C1148 C1147 1.399 . S
C1148 C1149 1.376 . S
C1148 H1183 0.931 . S
C1149 C1148 1.376 . S
C1149 N1150 1.338 . S
C1149 H1152 0.930 . S
N1150 Cd1135 2.304 . S
N1150 C1145 1.337 . S
N1150 C1149 1.338 . S
H1151 C1145 0.929 . S
H1152 C1149 0.930 . S
C1153 N1154 1.332 . S
C1153 C1157 1.381 . S
C1153 H1159 0.931 . S
N1154 Cd1135 2.334 . S
N1154 C1153 1.332 . S
N1154 C1158 1.328 . S
C1155 C1156 1.396 . S
C1155 C1158 1.378 . S
C1155 H1184 0.931 . S
C1156 C1155 1.396 . S
C1156 C1157 1.382 . S
C1157 C1153 1.381 . S
C1157 C1156 1.382 . S
C1157 H1185 0.930 . S
C1158 N1154 1.328 . S
C1158 C1155 1.378 . S
C1158 H1160 0.930 . S
H1159 C1153 0.931 . S
H1160 C1158 0.930 . S
C1161 O1172 1.238 . S
C1161 O1173 1.253 . S
C1162 O1174 1.239 . S
C1162 O1175 1.230 . S
N1163 Cd1134 2.304 . S
N1163 C1164 1.337 . S
N1163 C1168 1.338 1_565 S
C1164 N1163 1.337 . S
C1164 C1165 1.379 . S
C1164 H1178 0.929 . S
C1165 C1164 1.379 . S
C1165 C1166 1.380 1_565 S
C1165 H1186 0.929 . S
C1166 C1165 1.380 1_545 S
C1166 C1167 1.399 . S
C1167 C1166 1.399 . S
C1167 C1168 1.376 . S
C1167 H1187 0.931 . S
C1168 N1163 1.338 1_545 S
C1168 C1167 1.376 . S
C1168 H1179 0.930 . S
C1169 O1176 1.239 . S
C1169 O1177 1.230 . S
O1170 Cd1134 2.268 . S
O1170 C1144 1.238 . S
O1171 Cd1135 2.273 . S
O1171 C1144 1.253 . S
O1172 Cd1135 2.268 . S
O1172 C1161 1.238 . S
O1173 Cd1134 2.273 . S
O1173 C1161 1.253 . S
O1174 Cd1134 2.417 1_545 S
O1174 C1162 1.239 . S
O1175 Cd1134 2.330 1_545 S
O1175 C1162 1.230 . S
O1176 Cd1135 2.417 . S
O1176 C1169 1.239 . S
O1177 Cd1135 2.330 . S
O1177 C1169 1.230 . S
H1178 C1164 0.929 . S
H1179 C1168 0.930 . S
H1180 C1138 0.931 . S
H1181 C1140 0.930 . S
H1182 C1146 0.929 . S
H1183 C1148 0.931 . S
H1184 C1155 0.931 . S
H1185 C1157 0.930 . S
H1186 C1165 0.929 . S
H1187 C1167 0.931 . S
Cd1188 N1191 2.334 . S
Cd1188 N1217 2.304 . S
Cd1188 O1224 2.268 . S
Cd1188 O1227 2.273 . S
Cd1188 O1228 2.417 1_545 S
Cd1188 O1229 2.330 1_545 S
Cd1189 N1204 2.304 . S
Cd1189 N1208 2.334 . S
Cd1189 O1225 2.273 . S
Cd1189 O1226 2.268 . S
Cd1189 O1230 2.417 . S
Cd1189 O1231 2.330 . S
C1190 N1191 1.332 . S
C1190 C1194 1.381 . S
C1190 H1196 0.931 . S
N1191 Cd1188 2.334 . S
N1191 C1190 1.332 . S
N1191 C1195 1.328 . S
C1192 C1193 1.396 . S
C1192 C1195 1.378 . S
C1192 H1234 0.931 . S
C1193 C1192 1.396 . S
C1193 C1194 1.382 . S
C1194 C1190 1.381 . S
C1194 C1193 1.382 . S
C1194 H1235 0.930 . S
C1195 N1191 1.328 . S
C1195 C1192 1.378 . S
C1195 H1197 0.930 . S
H1196 C1190 0.931 . S
H1197 C1195 0.930 . S
C1198 O1224 1.238 . S
C1198 O1225 1.253 . S
C1199 C1200 1.379 . S
C1199 N1204 1.337 . S
C1199 H1205 0.929 . S
C1200 C1199 1.379 . S
C1200 C1201 1.380 . S
C1200 H1236 0.929 . S
C1201 C1200 1.380 . S
C1201 C1202 1.399 . S
C1202 C1201 1.399 . S
C1202 C1203 1.376 . S
C1202 H1237 0.931 . S
C1203 C1202 1.376 . S
C1203 N1204 1.338 . S
C1203 H1206 0.930 . S
N1204 Cd1189 2.304 . S
N1204 C1199 1.337 . S
N1204 C1203 1.338 . S
H1205 C1199 0.929 . S
H1206 C1203 0.930 . S
C1207 N1208 1.332 . S
C1207 C1211 1.381 . S
C1207 H1213 0.931 . S
N1208 Cd1189 2.334 . S
N1208 C1207 1.332 . S
N1208 C1212 1.328 . S
C1209 C1210 1.396 . S
C1209 C1212 1.378 . S
C1209 H1238 0.931 . S
C1210 C1209 1.396 . S
C1210 C1211 1.382 . S
C1211 C1207 1.381 . S
C1211 C1210 1.382 . S
C1211 H1239 0.930 . S
C1212 N1208 1.328 . S
C1212 C1209 1.378 . S
C1212 H1214 0.930 . S
H1213 C1207 0.931 . S
H1214 C1212 0.930 . S
C1215 O1226 1.238 . S
C1215 O1227 1.253 . S
C1216 O1228 1.239 . S
C1216 O1229 1.230 . S
N1217 Cd1188 2.304 . S
N1217 C1218 1.337 . S
N1217 C1222 1.338 1_545 S
C1218 N1217 1.337 . S
C1218 C1219 1.379 . S
C1218 H1232 0.929 . S
C1219 C1218 1.379 . S
C1219 C1220 1.380 1_545 S
C1219 H1240 0.929 . S
C1220 C1219 1.380 1_565 S
C1220 C1221 1.399 . S
C1221 C1220 1.399 . S
C1221 C1222 1.376 . S
C1221 H1241 0.931 . S
C1222 N1217 1.338 1_565 S
C1222 C1221 1.376 . S
C1222 H1233 0.930 . S
C1223 O1230 1.239 . S
C1223 O1231 1.230 . S
O1224 Cd1188 2.268 . S
O1224 C1198 1.238 . S
O1225 Cd1189 2.273 . S
O1225 C1198 1.253 . S
O1226 Cd1189 2.268 . S
O1226 C1215 1.238 . S
O1227 Cd1188 2.273 . S
O1227 C1215 1.253 . S
O1228 Cd1188 2.417 1_565 S
O1228 C1216 1.239 . S
O1229 Cd1188 2.330 1_565 S
O1229 C1216 1.230 . S
O1230 Cd1189 2.417 . S
O1230 C1223 1.239 . S
O1231 Cd1189 2.330 . S
O1231 C1223 1.230 . S
H1232 C1218 0.929 . S
H1233 C1222 0.930 . S
H1234 C1192 0.931 . S
H1235 C1194 0.930 . S
H1236 C1200 0.929 . S
H1237 C1202 0.931 . S
H1238 C1209 0.931 . S
H1239 C1211 0.930 . S
H1240 C1219 0.929 . S
H1241 C1221 0.931 . S
Cd1242 N1245 2.334 . S
Cd1242 N1271 2.304 . S
Cd1242 O1278 2.268 . S
Cd1242 O1281 2.273 . S
Cd1242 O1282 2.417 . S
Cd1242 O1283 2.330 . S
Cd1243 N1258 2.304 . S
Cd1243 N1262 2.334 . S
Cd1243 O1279 2.273 . S
Cd1243 O1280 2.268 . S
Cd1243 O1284 2.417 . S
Cd1243 O1285 2.330 . S
C1244 N1245 1.332 . S
C1244 C1248 1.381 . S
C1244 H1250 0.931 . S
N1245 Cd1242 2.334 . S
N1245 C1244 1.332 . S
N1245 C1249 1.328 . S
C1246 C1247 1.396 . S
C1246 C1249 1.378 . S
C1246 H1288 0.931 . S
C1247 C1246 1.396 . S
C1247 C1248 1.382 . S
C1248 C1244 1.381 . S
C1248 C1247 1.382 . S
C1248 H1289 0.930 . S
C1249 N1245 1.328 . S
C1249 C1246 1.378 . S
C1249 H1251 0.930 . S
H1250 C1244 0.931 . S
H1251 C1249 0.930 . S
C1252 O1278 1.238 . S
C1252 O1279 1.253 . S
C1253 C1254 1.379 . S
C1253 N1258 1.337 . S
C1253 H1259 0.929 . S
C1254 C1253 1.379 . S
C1254 C1255 1.380 . S
C1254 H1290 0.929 . S
C1255 C1254 1.380 . S
C1255 C1256 1.399 . S
C1256 C1255 1.399 . S
C1256 C1257 1.376 . S
C1256 H1291 0.931 . S
C1257 C1256 1.376 . S
C1257 N1258 1.338 . S
C1257 H1260 0.930 . S
N1258 Cd1243 2.304 . S
N1258 C1253 1.337 . S
N1258 C1257 1.338 . S
H1259 C1253 0.929 . S
H1260 C1257 0.930 . S
C1261 N1262 1.332 . S
C1261 C1265 1.381 . S
C1261 H1267 0.931 . S
N1262 Cd1243 2.334 . S
N1262 C1261 1.332 . S
N1262 C1266 1.328 . S
C1263 C1264 1.396 . S
C1263 C1266 1.378 . S
C1263 H1292 0.931 . S
C1264 C1263 1.396 . S
C1264 C1265 1.382 . S
C1265 C1261 1.381 . S
C1265 C1264 1.382 . S
C1265 H1293 0.930 . S
C1266 N1262 1.328 . S
C1266 C1263 1.378 . S
C1266 H1268 0.930 . S
H1267 C1261 0.931 . S
H1268 C1266 0.930 . S
C1269 O1280 1.238 . S
C1269 O1281 1.253 . S
C1270 O1282 1.239 . S
C1270 O1283 1.230 . S
N1271 Cd1242 2.304 . S
N1271 C1272 1.337 . S
N1271 C1276 1.338 . S
C1272 N1271 1.337 . S
C1272 C1273 1.379 . S
C1272 H1286 0.929 . S
C1273 C1272 1.379 . S
C1273 C1274 1.380 . S
C1273 H1294 0.929 . S
C1274 C1273 1.380 . S
C1274 C1275 1.399 . S
C1275 C1274 1.399 . S
C1275 C1276 1.376 . S
C1275 H1295 0.931 . S
C1276 N1271 1.338 . S
C1276 C1275 1.376 . S
C1276 H1287 0.930 . S
C1277 O1284 1.239 . S
C1277 O1285 1.230 . S
O1278 Cd1242 2.268 . S
O1278 C1252 1.238 . S
O1279 Cd1243 2.273 . S
O1279 C1252 1.253 . S
O1280 Cd1243 2.268 . S
O1280 C1269 1.238 . S
O1281 Cd1242 2.273 . S
O1281 C1269 1.253 . S
O1282 Cd1242 2.417 . S
O1282 C1270 1.239 . S
O1283 Cd1242 2.330 . S
O1283 C1270 1.230 . S
O1284 Cd1243 2.417 . S
O1284 C1277 1.239 . S
O1285 Cd1243 2.330 . S
O1285 C1277 1.230 . S
H1286 C1272 0.929 . S
H1287 C1276 0.930 . S
H1288 C1246 0.931 . S
H1289 C1248 0.930 . S
H1290 C1254 0.929 . S
H1291 C1256 0.931 . S
H1292 C1263 0.931 . S
H1293 C1265 0.930 . S
H1294 C1273 0.929 . S
H1295 C1275 0.931 . S
H1296 C1302 0.930 . S
H1297 C1305 0.930 . S
H1298 C1306 0.930 . S
H1299 C1307 0.930 . S
H1300 C1310 0.930 . S
H1301 C1311 0.930 . S
C1302 H1296 0.930 . S
C1302 C1303 1.355 . S
C1302 C1304 1.415 . S
C1303 C1302 1.355 . S
C1303 C1305 1.419 . S
C1304 C1302 1.415 . S
C1304 C1309 1.425 . S
C1304 C1311 1.409 . S
C1305 H1297 0.930 . S
C1305 C1303 1.419 . S
C1305 C1306 1.362 . S
C1306 H1298 0.930 . S
C1306 C1305 1.362 . S
C1306 C1309 1.409 . S
C1307 H1299 0.930 . S
C1307 C1308 1.355 . S
C1307 C1309 1.415 . S
C1308 C1307 1.355 . S
C1308 C1310 1.419 . S
C1309 C1304 1.425 . S
C1309 C1306 1.409 . S
C1309 C1307 1.415 . S
C1310 H1300 0.930 . S
C1310 C1308 1.419 . S
C1310 C1311 1.362 . S
C1311 H1301 0.930 . S
C1311 C1304 1.409 . S
C1311 C1310 1.362 . S
H1312 C1318 0.930 . S
H1313 C1321 0.930 . S
H1314 C1322 0.930 . S
H1315 C1323 0.930 . S
H1316 C1326 0.930 . S
H1317 C1327 0.930 . S
C1318 H1312 0.930 . S
C1318 C1319 1.355 . S
C1318 C1320 1.415 . S
C1319 C1318 1.355 . S
C1319 C1321 1.419 . S
C1320 C1318 1.415 . S
C1320 C1325 1.425 . S
C1320 C1327 1.409 . S
C1321 H1313 0.930 . S
C1321 C1319 1.419 . S
C1321 C1322 1.362 . S
C1322 H1314 0.930 . S
C1322 C1321 1.362 . S
C1322 C1325 1.409 . S
C1323 H1315 0.930 . S
C1323 C1324 1.355 . S
C1323 C1325 1.415 . S
C1324 C1323 1.355 . S
C1324 C1326 1.419 . S
C1325 C1320 1.425 . S
C1325 C1322 1.409 . S
C1325 C1323 1.415 . S
C1326 H1316 0.930 . S
C1326 C1324 1.419 . S
C1326 C1327 1.362 . S
C1327 H1317 0.930 . S
C1327 C1320 1.409 . S
C1327 C1326 1.362 . S
H1328 C1334 0.930 . S
H1329 C1337 0.930 . S
H1330 C1338 0.930 . S
H1331 C1339 0.930 . S
H1332 C1342 0.930 . S
H1333 C1343 0.930 . S
C1334 H1328 0.930 . S
C1334 C1335 1.355 . S
C1334 C1336 1.415 1_565 S
C1335 C1334 1.355 . S
C1335 C1337 1.419 . S
C1336 C1334 1.415 1_545 S
C1336 C1341 1.425 . S
C1336 C1343 1.409 . S
C1337 H1329 0.930 . S
C1337 C1335 1.419 . S
C1337 C1338 1.362 1_565 S
C1338 H1330 0.930 . S
C1338 C1337 1.362 1_545 S
C1338 C1341 1.409 . S
C1339 H1331 0.930 . S
C1339 C1340 1.355 . S
C1339 C1341 1.415 . S
C1340 C1339 1.355 . S
C1340 C1342 1.419 . S
C1341 C1336 1.425 . S
C1341 C1338 1.409 . S
C1341 C1339 1.415 . S
C1342 H1332 0.930 . S
C1342 C1340 1.419 . S
C1342 C1343 1.362 . S
C1343 H1333 0.930 . S
C1343 C1336 1.409 . S
C1343 C1342 1.362 . S
H1344 C1350 0.930 . S
H1345 C1353 0.930 . S
H1346 C1354 0.930 . S
H1347 C1355 0.930 . S
H1348 C1358 0.930 . S
H1349 C1359 0.930 . S
C1350 H1344 0.930 . S
C1350 C1351 1.355 . S
C1350 C1352 1.415 . S
C1351 C1350 1.355 . S
C1351 C1353 1.419 . S
C1352 C1350 1.415 . S
C1352 C1357 1.425 . S
C1352 C1359 1.409 . S
C1353 H1345 0.930 . S
C1353 C1351 1.419 . S
C1353 C1354 1.362 . S
C1354 H1346 0.930 . S
C1354 C1353 1.362 . S
C1354 C1357 1.409 . S
C1355 H1347 0.930 . S
C1355 C1356 1.355 . S
C1355 C1357 1.415 1_545 S
C1356 C1355 1.355 . S
C1356 C1358 1.419 . S
C1357 C1352 1.425 . S
C1357 C1354 1.409 . S
C1357 C1355 1.415 1_565 S
C1358 H1348 0.930 . S
C1358 C1356 1.419 . S
C1358 C1359 1.362 1_545 S
C1359 H1349 0.930 . S
C1359 C1352 1.409 . S
C1359 C1358 1.362 1_565 S
H1360 C1366 0.930 . S
H1361 C1369 0.930 . S
H1362 C1370 0.930 . S
H1363 C1371 0.930 . S
H1364 C1374 0.930 . S
H1365 C1375 0.930 . S
C1366 H1360 0.930 . S
C1366 C1367 1.355 . S
C1366 C1368 1.415 . S
C1367 C1366 1.355 . S
C1367 C1369 1.419 . S
C1368 C1366 1.415 . S
C1368 C1373 1.425 . S
C1368 C1375 1.409 . S
C1369 H1361 0.930 . S
C1369 C1367 1.419 . S
C1369 C1370 1.362 . S
C1370 H1362 0.930 . S
C1370 C1369 1.362 . S
C1370 C1373 1.409 . S
C1371 H1363 0.930 . S
C1371 C1372 1.355 . S
C1371 C1373 1.415 . S
C1372 C1371 1.355 . S
C1372 C1374 1.419 . S
C1373 C1368 1.425 . S
C1373 C1370 1.409 . S
C1373 C1371 1.415 . S
C1374 H1364 0.930 . S
C1374 C1372 1.419 . S
C1374 C1375 1.362 . S
C1375 H1365 0.930 . S
C1375 C1368 1.409 . S
C1375 C1374 1.362 . S
H1376 C1382 0.930 . S
H1377 C1385 0.930 . S
H1378 C1386 0.930 . S
H1379 C1387 0.930 . S
H1380 C1390 0.930 . S
H1381 C1391 0.930 . S
C1382 H1376 0.930 . S
C1382 C1383 1.355 . S
C1382 C1384 1.415 1_554 S
C1383 C1382 1.355 . S
C1383 C1385 1.419 . S
C1384 C1382 1.415 1_556 S
C1384 C1389 1.425 . S
C1384 C1391 1.409 . S
C1385 H1377 0.930 . S
C1385 C1383 1.419 . S
C1385 C1386 1.362 1_554 S
C1386 H1378 0.930 . S
C1386 C1385 1.362 1_556 S
C1386 C1389 1.409 . S
C1387 H1379 0.930 . S
C1387 C1388 1.355 . S
C1387 C1389 1.415 . S
C1388 C1387 1.355 . S
C1388 C1390 1.419 . S
C1389 C1384 1.425 . S
C1389 C1386 1.409 . S
C1389 C1387 1.415 . S
C1390 H1380 0.930 . S
C1390 C1388 1.419 . S
C1390 C1391 1.362 . S
C1391 H1381 0.930 . S
C1391 C1384 1.409 . S
C1391 C1390 1.362 . S
H1392 C1398 0.930 . S
H1393 C1401 0.930 . S
H1394 C1402 0.930 . S
H1395 C1403 0.930 . S
H1396 C1406 0.930 . S
H1397 C1407 0.930 . S
C1398 H1392 0.930 . S
C1398 C1399 1.355 . S
C1398 C1400 1.415 . S
C1399 C1398 1.355 . S
C1399 C1401 1.419 . S
C1400 C1398 1.415 . S
C1400 C1405 1.425 . S
C1400 C1407 1.409 . S
C1401 H1393 0.930 . S
C1401 C1399 1.419 . S
C1401 C1402 1.362 . S
C1402 H1394 0.930 . S
C1402 C1401 1.362 . S
C1402 C1405 1.409 . S
C1403 H1395 0.930 . S
C1403 C1404 1.355 . S
C1403 C1405 1.415 . S
C1404 C1403 1.355 . S
C1404 C1406 1.419 . S
C1405 C1400 1.425 . S
C1405 C1402 1.409 . S
C1405 C1403 1.415 . S
C1406 H1396 0.930 . S
C1406 C1404 1.419 . S
C1406 C1407 1.362 . S
C1407 H1397 0.930 . S
C1407 C1400 1.409 . S
C1407 C1406 1.362 . S
H1408 C1414 0.930 . S
H1409 C1417 0.930 . S
H1410 C1418 0.930 . S
H1411 C1419 0.930 . S
H1412 C1422 0.930 . S
H1413 C1423 0.930 . S
C1414 H1408 0.930 . S
C1414 C1415 1.355 . S
C1414 C1416 1.415 1_556 S
C1415 C1414 1.355 . S
C1415 C1417 1.419 . S
C1416 C1414 1.415 1_554 S
C1416 C1421 1.425 . S
C1416 C1423 1.409 . S
C1417 H1409 0.930 . S
C1417 C1415 1.419 . S
C1417 C1418 1.362 1_556 S
C1418 H1410 0.930 . S
C1418 C1417 1.362 1_554 S
C1418 C1421 1.409 . S
C1419 H1411 0.930 . S
C1419 C1420 1.355 . S
C1419 C1421 1.415 . S
C1420 C1419 1.355 . S
C1420 C1422 1.419 . S
C1421 C1416 1.425 . S
C1421 C1418 1.409 . S
C1421 C1419 1.415 . S
C1422 H1412 0.930 . S
C1422 C1420 1.419 . S
C1422 C1423 1.362 . S
C1423 H1413 0.930 . S
C1423 C1416 1.409 . S
C1423 C1422 1.362 . S
H1424 C1430 0.930 . S
H1425 C1433 0.930 . S
H1426 C1434 0.930 . S
H1427 C1435 0.930 . S
H1428 C1438 0.930 . S
H1429 C1439 0.930 . S
C1430 H1424 0.930 . S
C1430 C1431 1.355 . S
C1430 C1432 1.415 . S
C1431 C1430 1.355 . S
C1431 C1433 1.419 . S
C1432 C1430 1.415 . S
C1432 C1437 1.425 . S
C1432 C1439 1.409 . S
C1433 H1425 0.930 . S
C1433 C1431 1.419 . S
C1433 C1434 1.362 . S
C1434 H1426 0.930 . S
C1434 C1433 1.362 . S
C1434 C1437 1.409 . S
C1435 H1427 0.930 . S
C1435 C1436 1.355 . S
C1435 C1437 1.415 . S
C1436 C1435 1.355 . S
C1436 C1438 1.419 . S
C1437 C1432 1.425 . S
C1437 C1434 1.409 . S
C1437 C1435 1.415 . S
C1438 H1428 0.930 . S
C1438 C1436 1.419 . S
C1438 C1439 1.362 . S
C1439 H1429 0.930 . S
C1439 C1432 1.409 . S
C1439 C1438 1.362 . S
H1440 C1446 0.930 . S
H1441 C1449 0.930 . S
H1442 C1450 0.930 . S
H1443 C1451 0.930 . S
H1444 C1454 0.930 . S
H1445 C1455 0.930 . S
C1446 H1440 0.930 . S
C1446 C1447 1.355 . S
C1446 C1448 1.415 1_455 S
C1447 C1446 1.355 . S
C1447 C1449 1.419 . S
C1448 C1446 1.415 1_655 S
C1448 C1453 1.425 . S
C1448 C1455 1.409 . S
C1449 H1441 0.930 . S
C1449 C1447 1.419 . S
C1449 C1450 1.362 1_455 S
C1450 H1442 0.930 . S
C1450 C1449 1.362 1_655 S
C1450 C1453 1.409 . S
C1451 H1443 0.930 . S
C1451 C1452 1.355 . S
C1451 C1453 1.415 . S
C1452 C1451 1.355 . S
C1452 C1454 1.419 . S
C1453 C1448 1.425 . S
C1453 C1450 1.409 . S
C1453 C1451 1.415 . S
C1454 H1444 0.930 . S
C1454 C1452 1.419 . S
C1454 C1455 1.362 . S
C1455 H1445 0.930 . S
C1455 C1448 1.409 . S
C1455 C1454 1.362 . S
H1456 C1462 0.930 . S
H1457 C1465 0.930 . S
H1458 C1466 0.930 . S
H1459 C1467 0.930 . S
H1460 C1470 0.930 . S
H1461 C1471 0.930 . S
C1462 H1456 0.930 . S
C1462 C1463 1.355 . S
C1462 C1464 1.415 . S
C1463 C1462 1.355 . S
C1463 C1465 1.419 . S
C1464 C1462 1.415 . S
C1464 C1469 1.425 . S
C1464 C1471 1.409 . S
C1465 H1457 0.930 . S
C1465 C1463 1.419 . S
C1465 C1466 1.362 . S
C1466 H1458 0.930 . S
C1466 C1465 1.362 . S
C1466 C1469 1.409 . S
C1467 H1459 0.930 . S
C1467 C1468 1.355 . S
C1467 C1469 1.415 . S
C1468 C1467 1.355 . S
C1468 C1470 1.419 . S
C1469 C1464 1.425 . S
C1469 C1466 1.409 . S
C1469 C1467 1.415 . S
C1470 H1460 0.930 . S
C1470 C1468 1.419 . S
C1470 C1471 1.362 . S
C1471 H1461 0.930 . S
C1471 C1464 1.409 . S
C1471 C1470 1.362 . S
H1472 C1478 0.930 . S
H1473 C1481 0.930 . S
H1474 C1482 0.930 . S
H1475 C1483 0.930 . S
H1476 C1486 0.930 . S
H1477 C1487 0.930 . S
C1478 H1472 0.930 . S
C1478 C1479 1.355 . S
C1478 C1480 1.415 1_655 S
C1479 C1478 1.355 . S
C1479 C1481 1.419 . S
C1480 C1478 1.415 1_455 S
C1480 C1485 1.425 . S
C1480 C1487 1.409 . S
C1481 H1473 0.930 . S
C1481 C1479 1.419 . S
C1481 C1482 1.362 1_655 S
C1482 H1474 0.930 . S
C1482 C1481 1.362 1_455 S
C1482 C1485 1.409 . S
C1483 H1475 0.930 . S
C1483 C1484 1.355 . S
C1483 C1485 1.415 . S
C1484 C1483 1.355 . S
C1484 C1486 1.419 . S
C1485 C1480 1.425 . S
C1485 C1482 1.409 . S
C1485 C1483 1.415 . S
C1486 H1476 0.930 . S
C1486 C1484 1.419 . S
C1486 C1487 1.362 . S
C1487 H1477 0.930 . S
C1487 C1480 1.409 . S
C1487 C1486 1.362 . S
H1488 C1494 0.930 . S
H1489 C1497 0.930 . S
H1490 C1498 0.930 . S
H1491 C1499 0.930 . S
H1492 C1502 0.930 . S
H1493 C1503 0.930 . S
C1494 H1488 0.930 . S
C1494 C1495 1.355 . S
C1494 C1496 1.415 . S
C1495 C1494 1.355 . S
C1495 C1497 1.419 . S
C1496 C1494 1.415 . S
C1496 C1501 1.425 . S
C1496 C1503 1.409 . S
C1497 H1489 0.930 . S
C1497 C1495 1.419 . S
C1497 C1498 1.362 . S
C1498 H1490 0.930 . S
C1498 C1497 1.362 . S
C1498 C1501 1.409 . S
C1499 H1491 0.930 . S
C1499 C1500 1.355 . S
C1499 C1501 1.415 . S
C1500 C1499 1.355 . S
C1500 C1502 1.419 . S
C1501 C1496 1.425 . S
C1501 C1498 1.409 . S
C1501 C1499 1.415 . S
C1502 H1492 0.930 . S
C1502 C1500 1.419 . S
C1502 C1503 1.362 . S
C1503 H1493 0.930 . S
C1503 C1496 1.409 . S
C1503 C1502 1.362 . S
H1504 C1510 0.930 . S
H1505 C1513 0.930 . S
H1506 C1514 0.930 . S
H1507 C1515 0.930 . S
H1508 C1518 0.930 . S
H1509 C1519 0.930 . S
C1510 H1504 0.930 . S
C1510 C1511 1.355 . S
C1510 C1512 1.415 . S
C1511 C1510 1.355 . S
C1511 C1513 1.419 . S
C1512 C1510 1.415 . S
C1512 C1517 1.425 . S
C1512 C1519 1.409 . S
C1513 H1505 0.930 . S
C1513 C1511 1.419 . S
C1513 C1514 1.362 . S
C1514 H1506 0.930 . S
C1514 C1513 1.362 . S
C1514 C1517 1.409 . S
C1515 H1507 0.930 . S
C1515 C1516 1.355 . S
C1515 C1517 1.415 . S
C1516 C1515 1.355 . S
C1516 C1518 1.419 . S
C1517 C1512 1.425 . S
C1517 C1514 1.409 . S
C1517 C1515 1.415 . S
C1518 H1508 0.930 . S
C1518 C1516 1.419 . S
C1518 C1519 1.362 . S
C1519 H1509 0.930 . S
C1519 C1512 1.409 . S
C1519 C1518 1.362 . S
H1520 C1526 0.931 . S
H1521 C1529 0.930 . S
H1522 C1530 0.930 . S
H1523 C1531 0.930 . S
H1524 C1534 0.930 . S
H1525 C1535 0.930 . S
C1526 H1520 0.931 . S
C1526 C1527 1.369 . S
C1526 C1528 1.399 1_545 S
C1527 C1526 1.369 . S
C1527 C1529 1.419 . S
C1528 C1526 1.399 1_565 S
C1528 C1533 1.425 . S
C1528 C1535 1.409 . S
C1529 H1521 0.930 . S
C1529 C1527 1.419 . S
C1529 C1530 1.362 1_545 S
C1530 H1522 0.930 . S
C1530 C1529 1.362 1_565 S
C1530 C1533 1.409 . S
C1531 H1523 0.930 . S
C1531 C1532 1.355 . S
C1531 C1533 1.415 . S
C1532 C1531 1.355 . S
C1532 C1534 1.419 . S
C1533 C1528 1.425 . S
C1533 C1530 1.409 . S
C1533 C1531 1.415 . S
C1534 H1524 0.930 . S
C1534 C1532 1.419 . S
C1534 C1535 1.362 . S
C1535 H1525 0.930 . S
C1535 C1528 1.409 . S
C1535 C1534 1.362 . S
H1536 C1542 0.930 . S
H1537 C1545 0.930 . S
H1538 C1546 0.930 . S
H1539 C1547 0.930 . S
H1540 C1550 0.930 . S
H1541 C1551 0.930 . S
C1542 H1536 0.930 . S
C1542 C1543 1.355 . S
C1542 C1544 1.415 . S
C1543 C1542 1.355 . S
C1543 C1545 1.419 . S
C1544 C1542 1.415 . S
C1544 C1549 1.425 . S
C1544 C1551 1.409 . S
C1545 H1537 0.930 . S
C1545 C1543 1.419 . S
C1545 C1546 1.362 . S
C1546 H1538 0.930 . S
C1546 C1545 1.362 . S
C1546 C1549 1.409 . S
C1547 H1539 0.930 . S
C1547 C1548 1.355 . S
C1547 C1549 1.415 1_565 S
C1548 C1547 1.355 . S
C1548 C1550 1.419 . S
C1549 C1544 1.425 . S
C1549 C1546 1.409 . S
C1549 C1547 1.415 1_545 S
C1550 H1540 0.930 . S
C1550 C1548 1.419 . S
C1550 C1551 1.362 1_565 S
C1551 H1541 0.930 . S
C1551 C1544 1.409 . S
C1551 C1550 1.362 1_545 S
H1552 C1558 0.930 . S
H1553 C1561 0.930 . S
H1554 C1562 0.930 . S
H1555 C1563 0.930 . S
H1556 C1566 0.930 . S
H1557 C1567 0.930 . S
C1558 H1552 0.930 . S
C1558 C1559 1.355 . S
C1558 C1560 1.415 . S
C1559 C1558 1.355 . S
C1559 C1561 1.419 . S
C1560 C1558 1.415 . S
C1560 C1565 1.425 . S
C1560 C1567 1.409 . S
C1561 H1553 0.930 . S
C1561 C1559 1.419 . S
C1561 C1562 1.362 . S
C1562 H1554 0.930 . S
C1562 C1561 1.362 . S
C1562 C1565 1.409 . S
C1563 H1555 0.930 . S
C1563 C1564 1.355 . S
C1563 C1565 1.415 . S
C1564 C1563 1.355 . S
C1564 C1566 1.419 . S
C1565 C1560 1.425 . S
C1565 C1562 1.409 . S
C1565 C1563 1.415 . S
C1566 H1556 0.930 . S
C1566 C1564 1.419 . S
C1566 C1567 1.362 . S
C1567 H1557 0.930 . S
C1567 C1560 1.409 . S
C1567 C1566 1.362 . S
H1568 C1574 0.930 . S
H1569 C1577 0.930 . S
H1570 C1578 0.930 . S
H1571 C1579 0.932 . S
H1572 C1582 0.930 . S
H1573 C1583 0.930 . S
C1574 H1568 0.930 . S
C1574 C1575 1.355 . S
C1574 C1576 1.415 . S
C1575 C1574 1.355 . S
C1575 C1577 1.419 . S
C1576 C1574 1.415 . S
C1576 C1581 1.425 . S
C1576 C1583 1.409 . S
C1577 H1569 0.930 . S
C1577 C1575 1.419 . S
C1577 C1578 1.362 . S
C1578 H1570 0.930 . S
C1578 C1577 1.362 . S
C1578 C1581 1.409 . S
C1579 H1571 0.932 . S
C1579 C1580 1.380 . S
C1579 C1581 1.387 1_556 S
C1580 C1579 1.380 . S
C1580 C1582 1.419 . S
C1581 C1576 1.425 . S
C1581 C1578 1.409 . S
C1581 C1579 1.387 1_554 S
C1582 H1572 0.930 . S
C1582 C1580 1.419 . S
C1582 C1583 1.362 1_556 S
C1583 H1573 0.930 . S
C1583 C1576 1.409 . S
C1583 C1582 1.362 1_554 S
H1584 C1590 0.930 . S
H1585 C1593 0.930 . S
H1586 C1594 0.930 . S
H1587 C1595 0.930 . S
H1588 C1598 0.930 . S
H1589 C1599 0.930 . S
C1590 H1584 0.930 . S
C1590 C1591 1.355 . S
C1590 C1592 1.415 . S
C1591 C1590 1.355 . S
C1591 C1593 1.419 . S
C1592 C1590 1.415 . S
C1592 C1597 1.425 . S
C1592 C1599 1.409 . S
C1593 H1585 0.930 . S
C1593 C1591 1.419 . S
C1593 C1594 1.362 . S
C1594 H1586 0.930 . S
C1594 C1593 1.362 . S
C1594 C1597 1.409 . S
C1595 H1587 0.930 . S
C1595 C1596 1.355 . S
C1595 C1597 1.415 . S
C1596 C1595 1.355 . S
C1596 C1598 1.419 . S
C1597 C1592 1.425 . S
C1597 C1594 1.409 . S
C1597 C1595 1.415 . S
C1598 H1588 0.930 . S
C1598 C1596 1.419 . S
C1598 C1599 1.362 . S
C1599 H1589 0.930 . S
C1599 C1592 1.409 . S
C1599 C1598 1.362 . S
H1600 C1606 0.930 . S
H1601 C1609 0.930 . S
H1602 C1610 0.930 . S
H1603 C1611 0.930 . S
H1604 C1614 0.930 . S
H1605 C1615 0.930 . S
C1606 H1600 0.930 . S
C1606 C1607 1.355 . S
C1606 C1608 1.415 1_554 S
C1607 C1606 1.355 . S
C1607 C1609 1.419 . S
C1608 C1606 1.415 1_556 S
C1608 C1613 1.425 . S
C1608 C1615 1.409 . S
C1609 H1601 0.930 . S
C1609 C1607 1.419 . S
C1609 C1610 1.362 1_554 S
C1610 H1602 0.930 . S
C1610 C1609 1.362 1_556 S
C1610 C1613 1.409 . S
C1611 H1603 0.930 . S
C1611 C1612 1.355 . S
C1611 C1613 1.415 . S
C1612 C1611 1.355 . S
C1612 C1614 1.419 . S
C1613 C1608 1.425 . S
C1613 C1610 1.409 . S
C1613 C1611 1.415 . S
C1614 H1604 0.930 . S
C1614 C1612 1.419 . S
C1614 C1615 1.362 . S
C1615 H1605 0.930 . S
C1615 C1608 1.409 . S
C1615 C1614 1.362 . S
H1616 C1622 0.930 . S
H1617 C1625 0.930 . S
H1618 C1626 0.930 . S
H1619 C1627 0.930 . S
H1620 C1630 0.930 . S
H1621 C1631 0.930 . S
C1622 H1616 0.930 . S
C1622 C1623 1.355 . S
C1622 C1624 1.415 . S
C1623 C1622 1.355 . S
C1623 C1625 1.419 . S
C1624 C1622 1.415 . S
C1624 C1629 1.425 . S
C1624 C1631 1.409 . S
C1625 H1617 0.930 . S
C1625 C1623 1.419 . S
C1625 C1626 1.362 . S
C1626 H1618 0.930 . S
C1626 C1625 1.362 . S
C1626 C1629 1.409 . S
C1627 H1619 0.930 . S
C1627 C1628 1.355 . S
C1627 C1629 1.415 . S
C1628 C1627 1.355 . S
C1628 C1630 1.419 . S
C1629 C1624 1.425 . S
C1629 C1626 1.409 . S
C1629 C1627 1.415 . S
C1630 H1620 0.930 . S
C1630 C1628 1.419 . S
C1630 C1631 1.362 . S
C1631 H1621 0.930 . S
C1631 C1624 1.409 . S
C1631 C1630 1.362 . S
H1632 C1638 0.930 . S
H1633 C1641 0.930 . S
H1634 C1642 0.930 . S
H1635 C1643 0.930 . S
H1636 C1646 0.930 . S
H1637 C1647 0.930 . S
C1638 H1632 0.930 . S
C1638 C1639 1.355 . S
C1638 C1640 1.415 1_655 S
C1639 C1638 1.355 . S
C1639 C1641 1.419 . S
C1640 C1638 1.415 1_455 S
C1640 C1645 1.425 . S
C1640 C1647 1.409 . S
C1641 H1633 0.930 . S
C1641 C1639 1.419 . S
C1641 C1642 1.362 1_655 S
C1642 H1634 0.930 . S
C1642 C1641 1.362 1_455 S
C1642 C1645 1.409 . S
C1643 H1635 0.930 . S
C1643 C1644 1.355 . S
C1643 C1645 1.415 . S
C1644 C1643 1.355 . S
C1644 C1646 1.419 . S
C1645 C1640 1.425 . S
C1645 C1642 1.409 . S
C1645 C1643 1.415 . S
C1646 H1636 0.930 . S
C1646 C1644 1.419 . S
C1646 C1647 1.362 . S
C1647 H1637 0.930 . S
C1647 C1640 1.409 . S
C1647 C1646 1.362 . S
H1648 C1654 0.930 . S
H1649 C1657 0.930 . S
H1650 C1658 0.930 . S
H1651 C1659 0.930 . S
H1652 C1662 0.930 . S
H1653 C1663 0.930 . S
C1654 H1648 0.930 . S
C1654 C1655 1.355 . S
C1654 C1656 1.415 . S
C1655 C1654 1.355 . S
C1655 C1657 1.419 . S
C1656 C1654 1.415 . S
C1656 C1661 1.425 . S
C1656 C1663 1.409 . S
C1657 H1649 0.930 . S
C1657 C1655 1.419 . S
C1657 C1658 1.362 . S
C1658 H1650 0.930 . S
C1658 C1657 1.362 . S
C1658 C1661 1.409 . S
C1659 H1651 0.930 . S
C1659 C1660 1.355 . S
C1659 C1661 1.415 . S
C1660 C1659 1.355 . S
C1660 C1662 1.419 . S
C1661 C1656 1.425 . S
C1661 C1658 1.409 . S
C1661 C1659 1.415 . S
C1662 H1652 0.930 . S
C1662 C1660 1.419 . S
C1662 C1663 1.362 . S
C1663 H1653 0.930 . S
C1663 C1656 1.409 . S
C1663 C1662 1.362 . S
H1664 C1670 0.930 . S
H1665 C1673 0.930 . S
H1666 C1674 0.930 . S
H1667 C1675 0.932 . S
H1668 C1678 0.930 . S
H1669 C1679 0.930 . S
C1670 H1664 0.930 . S
C1670 C1671 1.355 . S
C1670 C1672 1.415 . S
C1671 C1670 1.355 . S
C1671 C1673 1.419 . S
C1672 C1670 1.415 . S
C1672 C1677 1.425 . S
C1672 C1679 1.409 . S
C1673 H1665 0.930 . S
C1673 C1671 1.419 . S
C1673 C1674 1.362 . S
C1674 H1666 0.930 . S
C1674 C1673 1.362 . S
C1674 C1677 1.409 . S
C1675 H1667 0.932 . S
C1675 C1676 1.377 . S
C1675 C1677 1.391 1_455 S
C1676 C1675 1.377 . S
C1676 C1678 1.419 . S
C1677 C1672 1.425 . S
C1677 C1674 1.409 . S
C1677 C1675 1.391 1_655 S
C1678 H1668 0.930 . S
C1678 C1676 1.419 . S
C1678 C1679 1.362 1_455 S
C1679 H1669 0.930 . S
C1679 C1672 1.409 . S
C1679 C1678 1.362 1_655 S
H1680 C1686 0.930 . S
H1681 C1689 0.930 . S
H1682 C1690 0.930 . S
H1683 C1691 0.930 . S
H1684 C1694 0.930 . S
H1685 C1695 0.930 . S
C1686 H1680 0.930 . S
C1686 C1687 1.355 . S
C1686 C1688 1.415 . S
C1687 C1686 1.355 . S
C1687 C1689 1.419 . S
C1688 C1686 1.415 . S
C1688 C1693 1.425 . S
C1688 C1695 1.409 . S
C1689 H1681 0.930 . S
C1689 C1687 1.419 . S
C1689 C1690 1.362 . S
C1690 H1682 0.930 . S
C1690 C1689 1.362 . S
C1690 C1693 1.409 . S
C1691 H1683 0.930 . S
C1691 C1692 1.355 . S
C1691 C1693 1.415 . S
C1692 C1691 1.355 . S
C1692 C1694 1.419 . S
C1693 C1688 1.425 . S
C1693 C1690 1.409 . S
C1693 C1691 1.415 . S
C1694 H1684 0.930 . S
C1694 C1692 1.419 . S
C1694 C1695 1.362 . S
C1695 H1685 0.930 . S
C1695 C1688 1.409 . S
C1695 C1694 1.362 . S
H1696 C1702 0.930 . S
H1697 C1705 0.930 . S
H1698 C1706 0.930 . S
H1699 C1707 0.930 . S
H1700 C1710 0.930 . S
H1701 C1711 0.930 . S
C1702 H1696 0.930 . S
C1702 C1703 1.355 . S
C1702 C1704 1.415 . S
C1703 C1702 1.355 . S
C1703 C1705 1.419 . S
C1704 C1702 1.415 . S
C1704 C1709 1.425 . S
C1704 C1711 1.409 . S
C1705 H1697 0.930 . S
C1705 C1703 1.419 . S
C1705 C1706 1.362 . S
C1706 H1698 0.930 . S
C1706 C1705 1.362 . S
C1706 C1709 1.409 . S
C1707 H1699 0.930 . S
C1707 C1708 1.355 . S
C1707 C1709 1.415 . S
C1708 C1707 1.355 . S
C1708 C1710 1.419 . S
C1709 C1704 1.425 . S
C1709 C1706 1.409 . S
C1709 C1707 1.415 . S
C1710 H1700 0.930 . S
C1710 C1708 1.419 . S
C1710 C1711 1.362 . S
C1711 H1701 0.930 . S
C1711 C1704 1.409 . S
C1711 C1710 1.362 . S
H1712 C1718 0.930 . S
H1713 C1721 0.930 . S
H1714 C1722 0.930 . S
H1715 C1723 0.930 . S
H1716 C1726 0.930 . S
H1717 C1727 0.930 . S
C1718 H1712 0.930 . S
C1718 C1719 1.355 . S
C1718 C1720 1.415 . S
C1719 C1718 1.355 . S
C1719 C1721 1.419 . S
C1720 C1718 1.415 . S
C1720 C1725 1.425 . S
C1720 C1727 1.409 . S
C1721 H1713 0.930 . S
C1721 C1719 1.419 . S
C1721 C1722 1.362 . S
C1722 H1714 0.930 . S
C1722 C1721 1.362 . S
C1722 C1725 1.409 . S
C1723 H1715 0.930 . S
C1723 C1724 1.355 . S
C1723 C1725 1.415 . S
C1724 C1723 1.355 . S
C1724 C1726 1.419 . S
C1725 C1720 1.425 . S
C1725 C1722 1.409 . S
C1725 C1723 1.415 . S
C1726 H1716 0.930 . S
C1726 C1724 1.419 . S
C1726 C1727 1.362 . S
C1727 H1717 0.930 . S
C1727 C1720 1.409 . S
C1727 C1726 1.362 . S
H1728 C1734 0.930 . S
H1729 C1737 0.930 . S
H1730 C1738 0.930 . S
H1731 C1739 0.930 . S
H1732 C1742 0.930 . S
H1733 C1743 0.930 . S
C1734 H1728 0.930 . S
C1734 C1735 1.355 . S
C1734 C1736 1.415 . S
C1735 C1734 1.355 . S
C1735 C1737 1.419 . S
C1736 C1734 1.415 . S
C1736 C1741 1.425 . S
C1736 C1743 1.409 . S
C1737 H1729 0.930 . S
C1737 C1735 1.419 . S
C1737 C1738 1.362 . S
C1738 H1730 0.930 . S
C1738 C1737 1.362 . S
C1738 C1741 1.409 . S
C1739 H1731 0.930 . S
C1739 C1740 1.355 . S
C1739 C1741 1.415 . S
C1740 C1739 1.355 . S
C1740 C1742 1.419 . S
C1741 C1736 1.425 . S
C1741 C1738 1.409 . S
C1741 C1739 1.415 . S
C1742 H1732 0.930 . S
C1742 C1740 1.419 . S
C1742 C1743 1.362 . S
C1743 H1733 0.930 . S
C1743 C1736 1.409 . S
C1743 C1742 1.362 . S
H1744 C1750 0.930 . S
H1745 C1753 0.930 . S
H1746 C1754 0.930 . S
H1747 C1755 0.930 . S
H1748 C1758 0.930 . S
H1749 C1759 0.930 . S
C1750 H1744 0.930 . S
C1750 C1751 1.355 . S
C1750 C1752 1.415 . S
C1751 C1750 1.355 . S
C1751 C1753 1.419 . S
C1752 C1750 1.415 . S
C1752 C1757 1.425 . S
C1752 C1759 1.409 . S
C1753 H1745 0.930 . S
C1753 C1751 1.419 . S
C1753 C1754 1.362 . S
C1754 H1746 0.930 . S
C1754 C1753 1.362 . S
C1754 C1757 1.409 . S
C1755 H1747 0.930 . S
C1755 C1756 1.355 . S
C1755 C1757 1.415 . S
C1756 C1755 1.355 . S
C1756 C1758 1.419 . S
C1757 C1752 1.425 . S
C1757 C1754 1.409 . S
C1757 C1755 1.415 . S
C1758 H1748 0.930 . S
C1758 C1756 1.419 . S
C1758 C1759 1.362 . S
C1759 H1749 0.930 . S
C1759 C1752 1.409 . S
C1759 C1758 1.362 . S
H1760 C1766 0.930 . S
H1761 C1769 0.930 . S
H1762 C1770 0.930 . S
H1763 C1771 0.930 . S
H1764 C1774 0.930 . S
H1765 C1775 0.930 . S
C1766 H1760 0.930 . S
C1766 C1767 1.355 . S
C1766 C1768 1.415 . S
C1767 C1766 1.355 . S
C1767 C1769 1.419 . S
C1768 C1766 1.415 . S
C1768 C1773 1.425 . S
C1768 C1775 1.409 . S
C1769 H1761 0.930 . S
C1769 C1767 1.419 . S
C1769 C1770 1.362 . S
C1770 H1762 0.930 . S
C1770 C1769 1.362 . S
C1770 C1773 1.409 . S
C1771 H1763 0.930 . S
C1771 C1772 1.355 . S
C1771 C1773 1.415 . S
C1772 C1771 1.355 . S
C1772 C1774 1.419 . S
C1773 C1768 1.425 . S
C1773 C1770 1.409 . S
C1773 C1771 1.415 . S
C1774 H1764 0.930 . S
C1774 C1772 1.419 . S
C1774 C1775 1.362 . S
C1775 H1765 0.930 . S
C1775 C1768 1.409 . S
C1775 C1774 1.362 . S
H1776 C1782 0.930 . S
H1777 C1785 0.930 . S
H1778 C1786 0.930 . S
H1779 C1787 0.930 . S
H1780 C1790 0.930 . S
H1781 C1791 0.930 . S
C1782 H1776 0.930 . S
C1782 C1783 1.355 . S
C1782 C1784 1.415 . S
C1783 C1782 1.355 . S
C1783 C1785 1.419 . S
C1784 C1782 1.415 . S
C1784 C1789 1.425 . S
C1784 C1791 1.409 . S
C1785 H1777 0.930 . S
C1785 C1783 1.419 . S
C1785 C1786 1.362 . S
C1786 H1778 0.930 . S
C1786 C1785 1.362 . S
C1786 C1789 1.409 . S
C1787 H1779 0.930 . S
C1787 C1788 1.355 . S
C1787 C1789 1.415 . S
C1788 C1787 1.355 . S
C1788 C1790 1.419 . S
C1789 C1784 1.425 . S
C1789 C1786 1.409 . S
C1789 C1787 1.415 . S
C1790 H1780 0.930 . S
C1790 C1788 1.419 . S
C1790 C1791 1.362 . S
C1791 H1781 0.930 . S
C1791 C1784 1.409 . S
C1791 C1790 1.362 . S
H1792 C1798 0.930 . S
H1793 C1801 0.930 . S
H1794 C1802 0.930 . S
H1795 C1803 0.930 . S
H1796 C1806 0.930 . S
H1797 C1807 0.930 . S
C1798 H1792 0.930 . S
C1798 C1799 1.355 . S
C1798 C1800 1.415 . S
C1799 C1798 1.355 . S
C1799 C1801 1.419 . S
C1800 C1798 1.415 . S
C1800 C1805 1.425 . S
C1800 C1807 1.409 . S
C1801 H1793 0.930 . S
C1801 C1799 1.419 . S
C1801 C1802 1.362 . S
C1802 H1794 0.930 . S
C1802 C1801 1.362 . S
C1802 C1805 1.409 . S
C1803 H1795 0.930 . S
C1803 C1804 1.355 . S
C1803 C1805 1.415 . S
C1804 C1803 1.355 . S
C1804 C1806 1.419 . S
C1805 C1800 1.425 . S
C1805 C1802 1.409 . S
C1805 C1803 1.415 . S
C1806 H1796 0.930 . S
C1806 C1804 1.419 . S
C1806 C1807 1.362 . S
C1807 H1797 0.930 . S
C1807 C1800 1.409 . S
C1807 C1806 1.362 . S
H1808 C1814 0.930 . S
H1809 C1817 0.930 . S
H1810 C1818 0.930 . S
H1811 C1819 0.930 . S
H1812 C1822 0.930 . S
H1813 C1823 0.930 . S
C1814 H1808 0.930 . S
C1814 C1815 1.355 . S
C1814 C1816 1.415 . S
C1815 C1814 1.355 . S
C1815 C1817 1.419 . S
C1816 C1814 1.415 . S
C1816 C1821 1.425 . S
C1816 C1823 1.409 . S
C1817 H1809 0.930 . S
C1817 C1815 1.419 . S
C1817 C1818 1.362 . S
C1818 H1810 0.930 . S
C1818 C1817 1.362 . S
C1818 C1821 1.409 . S
C1819 H1811 0.930 . S
C1819 C1820 1.355 . S
C1819 C1821 1.415 . S
C1820 C1819 1.355 . S
C1820 C1822 1.419 . S
C1821 C1816 1.425 . S
C1821 C1818 1.409 . S
C1821 C1819 1.415 . S
C1822 H1812 0.930 . S
C1822 C1820 1.419 . S
C1822 C1823 1.362 . S
C1823 H1813 0.930 . S
C1823 C1816 1.409 . S
C1823 C1822 1.362 . S
H1824 C1830 0.930 . S
H1825 C1833 0.930 . S
H1826 C1834 0.930 . S
H1827 C1835 0.930 . S
H1828 C1838 0.930 . S
H1829 C1839 0.930 . S
C1830 H1824 0.930 . S
C1830 C1831 1.355 . S
C1830 C1832 1.415 . S
C1831 C1830 1.355 . S
C1831 C1833 1.419 . S
C1832 C1830 1.415 . S
C1832 C1837 1.425 . S
C1832 C1839 1.409 . S
C1833 H1825 0.930 . S
C1833 C1831 1.419 . S
C1833 C1834 1.362 . S
C1834 H1826 0.930 . S
C1834 C1833 1.362 . S
C1834 C1837 1.409 . S
C1835 H1827 0.930 . S
C1835 C1836 1.355 . S
C1835 C1837 1.415 . S
C1836 C1835 1.355 . S
C1836 C1838 1.419 . S
C1837 C1832 1.425 . S
C1837 C1834 1.409 . S
C1837 C1835 1.415 . S
C1838 H1828 0.930 . S
C1838 C1836 1.419 . S
C1838 C1839 1.362 . S
C1839 H1829 0.930 . S
C1839 C1832 1.409 . S
C1839 C1838 1.362 . S
H1840 C1846 0.930 . S
H1841 C1849 0.930 . S
H1842 C1850 0.930 . S
H1843 C1851 0.930 . S
H1844 C1854 0.930 . S
H1845 C1855 0.930 . S
C1846 H1840 0.930 . S
C1846 C1847 1.355 . S
C1846 C1848 1.415 . S
C1847 C1846 1.355 . S
C1847 C1849 1.419 . S
C1848 C1846 1.415 . S
C1848 C1853 1.425 . S
C1848 C1855 1.409 . S
C1849 H1841 0.930 . S
C1849 C1847 1.419 . S
C1849 C1850 1.362 . S
C1850 H1842 0.930 . S
C1850 C1849 1.362 . S
C1850 C1853 1.409 . S
C1851 H1843 0.930 . S
C1851 C1852 1.355 . S
C1851 C1853 1.415 . S
C1852 C1851 1.355 . S
C1852 C1854 1.419 . S
C1853 C1848 1.425 . S
C1853 C1850 1.409 . S
C1853 C1851 1.415 . S
C1854 H1844 0.930 . S
C1854 C1852 1.419 . S
C1854 C1855 1.362 . S
C1855 H1845 0.930 . S
C1855 C1848 1.409 . S
C1855 C1854 1.362 . S
H1856 C1862 0.930 . S
H1857 C1865 0.930 . S
H1858 C1866 0.930 . S
H1859 C1867 0.930 . S
H1860 C1870 0.930 . S
H1861 C1871 0.930 . S
C1862 H1856 0.930 . S
C1862 C1863 1.355 . S
C1862 C1864 1.415 . S
C1863 C1862 1.355 . S
C1863 C1865 1.419 . S
C1864 C1862 1.415 . S
C1864 C1869 1.425 . S
C1864 C1871 1.409 . S
C1865 H1857 0.930 . S
C1865 C1863 1.419 . S
C1865 C1866 1.362 . S
C1866 H1858 0.930 . S
C1866 C1865 1.362 . S
C1866 C1869 1.409 . S
C1867 H1859 0.930 . S
C1867 C1868 1.355 . S
C1867 C1869 1.415 . S
C1868 C1867 1.355 . S
C1868 C1870 1.419 . S
C1869 C1864 1.425 . S
C1869 C1866 1.409 . S
C1869 C1867 1.415 . S
C1870 H1860 0.930 . S
C1870 C1868 1.419 . S
C1870 C1871 1.362 . S
C1871 H1861 0.930 . S
C1871 C1864 1.409 . S
C1871 C1870 1.362 . S
H1872 C1878 0.930 . S
H1873 C1881 0.930 . S
H1874 C1882 0.930 . S
H1875 C1883 0.930 . S
H1876 C1886 0.930 . S
H1877 C1887 0.930 . S
C1878 H1872 0.930 . S
C1878 C1879 1.355 . S
C1878 C1880 1.415 . S
C1879 C1878 1.355 . S
C1879 C1881 1.419 . S
C1880 C1878 1.415 . S
C1880 C1885 1.425 . S
C1880 C1887 1.409 . S
C1881 H1873 0.930 . S
C1881 C1879 1.419 . S
C1881 C1882 1.362 . S
C1882 H1874 0.930 . S
C1882 C1881 1.362 . S
C1882 C1885 1.409 . S
C1883 H1875 0.930 . S
C1883 C1884 1.355 . S
C1883 C1885 1.415 . S
C1884 C1883 1.355 . S
C1884 C1886 1.419 . S
C1885 C1880 1.425 . S
C1885 C1882 1.409 . S
C1885 C1883 1.415 . S
C1886 H1876 0.930 . S
C1886 C1884 1.419 . S
C1886 C1887 1.362 . S
C1887 H1877 0.930 . S
C1887 C1880 1.409 . S
C1887 C1886 1.362 . S
H1888 C1894 0.930 . S
H1889 C1897 0.930 . S
H1890 C1898 0.930 . S
H1891 C1899 0.930 . S
H1892 C1902 0.930 . S
H1893 C1903 0.930 . S
C1894 H1888 0.930 . S
C1894 C1895 1.355 . S
C1894 C1896 1.415 . S
C1895 C1894 1.355 . S
C1895 C1897 1.419 . S
C1896 C1894 1.415 . S
C1896 C1901 1.425 . S
C1896 C1903 1.409 . S
C1897 H1889 0.930 . S
C1897 C1895 1.419 . S
C1897 C1898 1.362 . S
C1898 H1890 0.930 . S
C1898 C1897 1.362 . S
C1898 C1901 1.409 . S
C1899 H1891 0.930 . S
C1899 C1900 1.355 . S
C1899 C1901 1.415 . S
C1900 C1899 1.355 . S
C1900 C1902 1.419 . S
C1901 C1896 1.425 . S
C1901 C1898 1.409 . S
C1901 C1899 1.415 . S
C1902 H1892 0.930 . S
C1902 C1900 1.419 . S
C1902 C1903 1.362 . S
C1903 H1893 0.930 . S
C1903 C1896 1.409 . S
C1903 C1902 1.362 . S
H1904 C1910 0.930 . S
H1905 C1913 0.930 . S
H1906 C1914 0.930 . S
H1907 C1915 0.930 . S
H1908 C1918 0.930 . S
H1909 C1919 0.930 . S
C1910 H1904 0.930 . S
C1910 C1911 1.355 . S
C1910 C1912 1.415 . S
C1911 C1910 1.355 . S
C1911 C1913 1.419 . S
C1912 C1910 1.415 . S
C1912 C1917 1.425 . S
C1912 C1919 1.409 . S
C1913 H1905 0.930 . S
C1913 C1911 1.419 . S
C1913 C1914 1.362 . S
C1914 H1906 0.930 . S
C1914 C1913 1.362 . S
C1914 C1917 1.409 . S
C1915 H1907 0.930 . S
C1915 C1916 1.355 . S
C1915 C1917 1.415 . S
C1916 C1915 1.355 . S
C1916 C1918 1.419 . S
C1917 C1912 1.425 . S
C1917 C1914 1.409 . S
C1917 C1915 1.415 . S
C1918 H1908 0.930 . S
C1918 C1916 1.419 . S
C1918 C1919 1.362 . S
C1919 H1909 0.930 . S
C1919 C1912 1.409 . S
C1919 C1918 1.362 . S
H1920 C1926 0.930 . S
H1921 C1929 0.930 . S
H1922 C1930 0.930 . S
H1923 C1931 0.930 . S
H1924 C1934 0.930 . S
H1925 C1935 0.930 . S
C1926 H1920 0.930 . S
C1926 C1927 1.355 . S
C1926 C1928 1.415 . S
C1927 C1926 1.355 . S
C1927 C1929 1.419 . S
C1928 C1926 1.415 . S
C1928 C1933 1.425 . S
C1928 C1935 1.409 . S
C1929 H1921 0.930 . S
C1929 C1927 1.419 . S
C1929 C1930 1.362 . S
C1930 H1922 0.930 . S
C1930 C1929 1.362 . S
C1930 C1933 1.409 . S
C1931 H1923 0.930 . S
C1931 C1932 1.355 . S
C1931 C1933 1.415 . S
C1932 C1931 1.355 . S
C1932 C1934 1.419 . S
C1933 C1928 1.425 . S
C1933 C1930 1.409 . S
C1933 C1931 1.415 . S
C1934 H1924 0.930 . S
C1934 C1932 1.419 . S
C1934 C1935 1.362 . S
C1935 H1925 0.930 . S
C1935 C1928 1.409 . S
C1935 C1934 1.362 . S
H1936 C1942 0.930 . S
H1937 C1945 0.930 . S
H1938 C1946 0.930 . S
H1939 C1947 0.930 . S
H1940 C1950 0.930 . S
H1941 C1951 0.930 . S
C1942 H1936 0.930 . S
C1942 C1943 1.355 . S
C1942 C1944 1.415 . S
C1943 C1942 1.355 . S
C1943 C1945 1.419 . S
C1944 C1942 1.415 . S
C1944 C1949 1.425 . S
C1944 C1951 1.409 . S
C1945 H1937 0.930 . S
C1945 C1943 1.419 . S
C1945 C1946 1.362 . S
C1946 H1938 0.930 . S
C1946 C1945 1.362 . S
C1946 C1949 1.409 . S
C1947 H1939 0.930 . S
C1947 C1948 1.355 . S
C1947 C1949 1.415 . S
C1948 C1947 1.355 . S
C1948 C1950 1.419 . S
C1949 C1944 1.425 . S
C1949 C1946 1.409 . S
C1949 C1947 1.415 . S
C1950 H1940 0.930 . S
C1950 C1948 1.419 . S
C1950 C1951 1.362 . S
C1951 H1941 0.930 . S
C1951 C1944 1.409 . S
C1951 C1950 1.362 . S
H1952 C1958 0.930 . S
H1953 C1961 0.930 . S
H1954 C1962 0.930 . S
H1955 C1963 0.930 . S
H1956 C1966 0.930 . S
H1957 C1967 0.930 . S
C1958 H1952 0.930 . S
C1958 C1959 1.355 . S
C1958 C1960 1.415 . S
C1959 C1958 1.355 . S
C1959 C1961 1.419 . S
C1960 C1958 1.415 . S
C1960 C1965 1.425 . S
C1960 C1967 1.409 . S
C1961 H1953 0.930 . S
C1961 C1959 1.419 . S
C1961 C1962 1.362 . S
C1962 H1954 0.930 . S
C1962 C1961 1.362 . S
C1962 C1965 1.409 . S
C1963 H1955 0.930 . S
C1963 C1964 1.355 . S
C1963 C1965 1.415 . S
C1964 C1963 1.355 . S
C1964 C1966 1.419 . S
C1965 C1960 1.425 . S
C1965 C1962 1.409 . S
C1965 C1963 1.415 . S
C1966 H1956 0.930 . S
C1966 C1964 1.419 . S
C1966 C1967 1.362 . S
C1967 H1957 0.930 . S
C1967 C1960 1.409 . S
C1967 C1966 1.362 . S
H1968 C1974 0.930 . S
H1969 C1977 0.930 . S
H1970 C1978 0.930 . S
H1971 C1979 0.930 . S
H1972 C1982 0.930 . S
H1973 C1983 0.930 . S
C1974 H1968 0.930 . S
C1974 C1975 1.355 . S
C1974 C1976 1.415 . S
C1975 C1974 1.355 . S
C1975 C1977 1.419 . S
C1976 C1974 1.415 . S
C1976 C1981 1.425 . S
C1976 C1983 1.409 . S
C1977 H1969 0.930 . S
C1977 C1975 1.419 . S
C1977 C1978 1.362 . S
C1978 H1970 0.930 . S
C1978 C1977 1.362 . S
C1978 C1981 1.409 . S
C1979 H1971 0.930 . S
C1979 C1980 1.355 . S
C1979 C1981 1.415 . S
C1980 C1979 1.355 . S
C1980 C1982 1.419 . S
C1981 C1976 1.425 . S
C1981 C1978 1.409 . S
C1981 C1979 1.415 . S
C1982 H1972 0.930 . S
C1982 C1980 1.419 . S
C1982 C1983 1.362 . S
C1983 H1973 0.930 . S
C1983 C1976 1.409 . S
C1983 C1982 1.362 . S
H1984 C1990 0.930 . S
H1985 C1993 0.930 . S
H1986 C1994 0.930 . S
H1987 C1995 0.930 . S
H1988 C1998 0.930 . S
H1989 C1999 0.930 . S
C1990 H1984 0.930 . S
C1990 C1991 1.355 . S
C1990 C1992 1.415 . S
C1991 C1990 1.355 . S
C1991 C1993 1.419 . S
C1992 C1990 1.415 . S
C1992 C1997 1.425 . S
C1992 C1999 1.409 . S
C1993 H1985 0.930 . S
C1993 C1991 1.419 . S
C1993 C1994 1.362 . S
C1994 H1986 0.930 . S
C1994 C1993 1.362 . S
C1994 C1997 1.409 . S
C1995 H1987 0.930 . S
C1995 C1996 1.355 . S
C1995 C1997 1.415 . S
C1996 C1995 1.355 . S
C1996 C1998 1.419 . S
C1997 C1992 1.425 . S
C1997 C1994 1.409 . S
C1997 C1995 1.415 . S
C1998 H1988 0.930 . S
C1998 C1996 1.419 . S
C1998 C1999 1.362 . S
C1999 H1989 0.930 . S
C1999 C1992 1.409 . S
C1999 C1998 1.362 . S
H2000 C2006 0.930 . S
H2001 C2009 0.930 . S
H2002 C2010 0.930 . S
H2003 C2011 0.930 . S
H2004 C2014 0.930 . S
H2005 C2015 0.930 . S
C2006 H2000 0.930 . S
C2006 C2007 1.355 . S
C2006 C2008 1.415 . S
C2007 C2006 1.355 . S
C2007 C2009 1.419 . S
C2008 C2006 1.415 . S
C2008 C2013 1.425 . S
C2008 C2015 1.409 . S
C2009 H2001 0.930 . S
C2009 C2007 1.419 . S
C2009 C2010 1.362 . S
C2010 H2002 0.930 . S
C2010 C2009 1.362 . S
C2010 C2013 1.409 . S
C2011 H2003 0.930 . S
C2011 C2012 1.355 . S
C2011 C2013 1.415 . S
C2012 C2011 1.355 . S
C2012 C2014 1.419 . S
C2013 C2008 1.425 . S
C2013 C2010 1.409 . S
C2013 C2011 1.415 . S
C2014 H2004 0.930 . S
C2014 C2012 1.419 . S
C2014 C2015 1.362 . S
C2015 H2005 0.930 . S
C2015 C2008 1.409 . S
C2015 C2014 1.362 . S
H2016 C2022 0.930 . S
H2017 C2025 0.930 . S
H2018 C2026 0.930 . S
H2019 C2027 0.930 . S
H2020 C2030 0.930 . S
H2021 C2031 0.930 . S
C2022 H2016 0.930 . S
C2022 C2023 1.355 . S
C2022 C2024 1.415 . S
C2023 C2022 1.355 . S
C2023 C2025 1.419 . S
C2024 C2022 1.415 . S
C2024 C2029 1.425 . S
C2024 C2031 1.409 . S
C2025 H2017 0.930 . S
C2025 C2023 1.419 . S
C2025 C2026 1.362 . S
C2026 H2018 0.930 . S
C2026 C2025 1.362 . S
C2026 C2029 1.409 . S
C2027 H2019 0.930 . S
C2027 C2028 1.355 . S
C2027 C2029 1.415 . S
C2028 C2027 1.355 . S
C2028 C2030 1.419 . S
C2029 C2024 1.425 . S
C2029 C2026 1.409 . S
C2029 C2027 1.415 . S
C2030 H2020 0.930 . S
C2030 C2028 1.419 . S
C2030 C2031 1.362 . S
C2031 H2021 0.930 . S
C2031 C2024 1.409 . S
C2031 C2030 1.362 . S
H2032 C2038 0.930 . S
H2033 C2041 0.930 . S
H2034 C2042 0.930 . S
H2035 C2043 0.930 . S
H2036 C2046 0.930 . S
H2037 C2047 0.930 . S
C2038 H2032 0.930 . S
C2038 C2039 1.355 . S
C2038 C2040 1.415 . S
C2039 C2038 1.355 . S
C2039 C2041 1.419 . S
C2040 C2038 1.415 . S
C2040 C2045 1.425 . S
C2040 C2047 1.409 . S
C2041 H2033 0.930 . S
C2041 C2039 1.419 . S
C2041 C2042 1.362 . S
C2042 H2034 0.930 . S
C2042 C2041 1.362 . S
C2042 C2045 1.409 . S
C2043 H2035 0.930 . S
C2043 C2044 1.355 . S
C2043 C2045 1.415 . S
C2044 C2043 1.355 . S
C2044 C2046 1.419 . S
C2045 C2040 1.425 . S
C2045 C2042 1.409 . S
C2045 C2043 1.415 . S
C2046 H2036 0.930 . S
C2046 C2044 1.419 . S
C2046 C2047 1.362 . S
C2047 H2037 0.930 . S
C2047 C2040 1.409 . S
C2047 C2046 1.362 . S
H2048 C2054 0.930 . S
H2049 C2057 0.930 . S
H2050 C2058 0.930 . S
H2051 C2059 0.930 . S
H2052 C2062 0.930 . S
H2053 C2063 0.930 . S
C2054 H2048 0.930 . S
C2054 C2055 1.355 . S
C2054 C2056 1.415 . S
C2055 C2054 1.355 . S
C2055 C2057 1.419 . S
C2056 C2054 1.415 . S
C2056 C2061 1.425 . S
C2056 C2063 1.409 . S
C2057 H2049 0.930 . S
C2057 C2055 1.419 . S
C2057 C2058 1.362 . S
C2058 H2050 0.930 . S
C2058 C2057 1.362 . S
C2058 C2061 1.409 . S
C2059 H2051 0.930 . S
C2059 C2060 1.355 . S
C2059 C2061 1.415 . S
C2060 C2059 1.355 . S
C2060 C2062 1.419 . S
C2061 C2056 1.425 . S
C2061 C2058 1.409 . S
C2061 C2059 1.415 . S
C2062 H2052 0.930 . S
C2062 C2060 1.419 . S
C2062 C2063 1.362 . S
C2063 H2053 0.930 . S
C2063 C2056 1.409 . S
C2063 C2062 1.362 . S
H2064 C2070 0.930 . S
H2065 C2073 0.930 . S
H2066 C2074 0.930 . S
H2067 C2075 0.930 . S
H2068 C2078 0.930 . S
H2069 C2079 0.930 . S
C2070 H2064 0.930 . S
C2070 C2071 1.355 . S
C2070 C2072 1.415 . S
C2071 C2070 1.355 . S
C2071 C2073 1.419 . S
C2072 C2070 1.415 . S
C2072 C2077 1.425 . S
C2072 C2079 1.409 . S
C2073 H2065 0.930 . S
C2073 C2071 1.419 . S
C2073 C2074 1.362 . S
C2074 H2066 0.930 . S
C2074 C2073 1.362 . S
C2074 C2077 1.409 . S
C2075 H2067 0.930 . S
C2075 C2076 1.355 . S
C2075 C2077 1.415 . S
C2076 C2075 1.355 . S
C2076 C2078 1.419 . S
C2077 C2072 1.425 . S
C2077 C2074 1.409 . S
C2077 C2075 1.415 . S
C2078 H2068 0.930 . S
C2078 C2076 1.419 . S
C2078 C2079 1.362 . S
C2079 H2069 0.930 . S
C2079 C2072 1.409 . S
C2079 C2078 1.362 . S
H2080 C2086 0.930 . S
H2081 C2089 0.930 . S
H2082 C2090 0.930 . S
H2083 C2091 0.930 1_556 S
H2084 C2094 0.930 . S
H2085 C2095 0.930 . S
C2086 H2080 0.930 . S
C2086 C2087 1.355 . S
C2086 C2088 1.415 . S
C2087 C2086 1.355 . S
C2087 C2089 1.419 . S
C2088 C2086 1.415 . S
C2088 C2093 1.425 . S
C2088 C2095 1.409 . S
C2089 H2081 0.930 . S
C2089 C2087 1.419 . S
C2089 C2090 1.362 . S
C2090 H2082 0.930 . S
C2090 C2089 1.362 . S
C2090 C2093 1.409 . S
C2091 H2083 0.930 1_554 S
C2091 C2092 1.355 . S
C2091 C2093 1.415 . S
C2092 C2091 1.355 . S
C2092 C2094 1.419 . S
C2093 C2088 1.425 . S
C2093 C2090 1.409 . S
C2093 C2091 1.415 . S
C2094 H2084 0.930 . S
C2094 C2092 1.419 . S
C2094 C2095 1.362 . S
C2095 H2085 0.930 . S
C2095 C2088 1.409 . S
C2095 C2094 1.362 . S
H2096 C2102 0.930 . S
H2097 C2105 0.930 . S
H2098 C2106 0.930 . S
H2099 C2107 0.930 . S
H2100 C2110 0.930 . S
H2101 C2111 0.930 . S
C2102 H2096 0.930 . S
C2102 C2103 1.355 . S
C2102 C2104 1.415 . S
C2103 C2102 1.355 . S
C2103 C2105 1.419 . S
C2104 C2102 1.415 . S
C2104 C2109 1.425 . S
C2104 C2111 1.409 . S
C2105 H2097 0.930 . S
C2105 C2103 1.419 . S
C2105 C2106 1.362 . S
C2106 H2098 0.930 . S
C2106 C2105 1.362 . S
C2106 C2109 1.409 . S
C2107 H2099 0.930 . S
C2107 C2108 1.355 . S
C2107 C2109 1.415 . S
C2108 C2107 1.355 . S
C2108 C2110 1.419 . S
C2109 C2104 1.425 . S
C2109 C2106 1.409 . S
C2109 C2107 1.415 . S
C2110 H2100 0.930 . S
C2110 C2108 1.419 . S
C2110 C2111 1.362 . S
C2111 H2101 0.930 . S
C2111 C2104 1.409 . S
C2111 C2110 1.362 . S
H2112 C2118 0.930 . S
H2113 C2121 0.930 . S
H2114 C2122 0.930 . S
H2115 C2123 0.930 . S
H2116 C2126 0.930 . S
H2117 C2127 0.930 . S
C2118 H2112 0.930 . S
C2118 C2119 1.355 . S
C2118 C2120 1.415 . S
C2119 C2118 1.355 . S
C2119 C2121 1.419 . S
C2120 C2118 1.415 . S
C2120 C2125 1.425 . S
C2120 C2127 1.409 . S
C2121 H2113 0.930 . S
C2121 C2119 1.419 . S
C2121 C2122 1.362 . S
C2122 H2114 0.930 . S
C2122 C2121 1.362 . S
C2122 C2125 1.409 . S
C2123 H2115 0.930 . S
C2123 C2124 1.355 . S
C2123 C2125 1.415 . S
C2124 C2123 1.355 . S
C2124 C2126 1.419 . S
C2125 C2120 1.425 . S
C2125 C2122 1.409 . S
C2125 C2123 1.415 . S
C2126 H2116 0.930 . S
C2126 C2124 1.419 . S
C2126 C2127 1.362 . S
C2127 H2117 0.930 . S
C2127 C2120 1.409 . S
C2127 C2126 1.362 . S
H2128 C2134 0.930 . S
H2129 C2137 0.930 . S
H2130 C2138 0.930 . S
H2131 C2139 0.930 . S
H2132 C2142 0.930 . S
H2133 C2143 0.930 . S
C2134 H2128 0.930 . S
C2134 C2135 1.355 . S
C2134 C2136 1.415 . S
C2135 C2134 1.355 . S
C2135 C2137 1.419 . S
C2136 C2134 1.415 . S
C2136 C2141 1.425 . S
C2136 C2143 1.409 . S
C2137 H2129 0.930 . S
C2137 C2135 1.419 . S
C2137 C2138 1.362 . S
C2138 H2130 0.930 . S
C2138 C2137 1.362 . S
C2138 C2141 1.409 . S
C2139 H2131 0.930 . S
C2139 C2140 1.355 . S
C2139 C2141 1.415 . S
C2140 C2139 1.355 . S
C2140 C2142 1.419 . S
C2141 C2136 1.425 . S
C2141 C2138 1.409 . S
C2141 C2139 1.415 . S
C2142 H2132 0.930 . S
C2142 C2140 1.419 . S
C2142 C2143 1.362 . S
C2143 H2133 0.930 . S
C2143 C2136 1.409 . S
C2143 C2142 1.362 . S
H2144 C2150 0.930 . S
H2145 C2153 0.930 . S
H2146 C2154 0.930 . S
H2147 C2155 0.930 1_455 S
H2148 C2158 0.930 . S
H2149 C2159 0.930 . S
C2150 H2144 0.930 . S
C2150 C2151 1.355 . S
C2150 C2152 1.415 . S
C2151 C2150 1.355 . S
C2151 C2153 1.419 . S
C2152 C2150 1.415 . S
C2152 C2157 1.425 . S
C2152 C2159 1.409 . S
C2153 H2145 0.930 . S
C2153 C2151 1.419 . S
C2153 C2154 1.362 . S
C2154 H2146 0.930 . S
C2154 C2153 1.362 . S
C2154 C2157 1.409 . S
C2155 H2147 0.930 1_655 S
C2155 C2156 1.355 . S
C2155 C2157 1.415 . S
C2156 C2155 1.355 . S
C2156 C2158 1.419 . S
C2157 C2152 1.425 . S
C2157 C2154 1.409 . S
C2157 C2155 1.415 . S
C2158 H2148 0.930 . S
C2158 C2156 1.419 . S
C2158 C2159 1.362 . S
C2159 H2149 0.930 . S
C2159 C2152 1.409 . S
C2159 C2158 1.362 . S
H2160 C2166 0.930 . S
H2161 C2169 0.930 . S
H2162 C2170 0.930 . S
H2163 C2171 0.930 . S
H2164 C2174 0.930 . S
H2165 C2175 0.930 . S
C2166 H2160 0.930 . S
C2166 C2167 1.355 . S
C2166 C2168 1.415 . S
C2167 C2166 1.355 . S
C2167 C2169 1.419 . S
C2168 C2166 1.415 . S
C2168 C2173 1.425 . S
C2168 C2175 1.409 1_455 S
C2169 H2161 0.930 . S
C2169 C2167 1.419 . S
C2169 C2170 1.362 . S
C2170 H2162 0.930 . S
C2170 C2169 1.362 . S
C2170 C2173 1.409 . S
C2171 H2163 0.930 . S
C2171 C2172 1.355 . S
C2171 C2173 1.415 . S
C2172 C2171 1.355 . S
C2172 C2174 1.419 1_455 S
C2173 C2168 1.425 . S
C2173 C2170 1.409 . S
C2173 C2171 1.415 . S
C2174 H2164 0.930 . S
C2174 C2172 1.419 1_655 S
C2174 C2175 1.362 . S
C2175 H2165 0.930 . S
C2175 C2168 1.409 1_655 S
C2175 C2174 1.362 . S
H2176 C2182 0.930 . S
H2177 C2185 0.930 . S
H2178 C2186 0.930 . S
H2179 C2187 0.930 . S
H2180 C2190 0.930 . S
H2181 C2191 0.930 . S
C2182 H2176 0.930 . S
C2182 C2183 1.355 . S
C2182 C2184 1.415 . S
C2183 C2182 1.355 . S
C2183 C2185 1.419 . S
C2184 C2182 1.415 . S
C2184 C2189 1.425 . S
C2184 C2191 1.409 . S
C2185 H2177 0.930 . S
C2185 C2183 1.419 . S
C2185 C2186 1.362 . S
C2186 H2178 0.930 . S
C2186 C2185 1.362 . S
C2186 C2189 1.409 . S
C2187 H2179 0.930 . S
C2187 C2188 1.355 . S
C2187 C2189 1.415 . S
C2188 C2187 1.355 . S
C2188 C2190 1.419 . S
C2189 C2184 1.425 . S
C2189 C2186 1.409 . S
C2189 C2187 1.415 . S
C2190 H2180 0.930 . S
C2190 C2188 1.419 . S
C2190 C2191 1.362 . S
C2191 H2181 0.930 . S
C2191 C2184 1.409 . S
C2191 C2190 1.362 . S
H2192 C2198 0.930 . S
H2193 C2201 0.930 . S
H2194 C2202 0.930 . S
H2195 C2203 0.930 . S
H2196 C2206 0.930 . S
H2197 C2207 0.930 . S
C2198 H2192 0.930 . S
C2198 C2199 1.355 . S
C2198 C2200 1.415 . S
C2199 C2198 1.355 . S
C2199 C2201 1.419 . S
C2200 C2198 1.415 . S
C2200 C2205 1.425 . S
C2200 C2207 1.409 . S
C2201 H2193 0.930 . S
C2201 C2199 1.419 . S
C2201 C2202 1.362 . S
C2202 H2194 0.930 . S
C2202 C2201 1.362 . S
C2202 C2205 1.409 . S
C2203 H2195 0.930 . S
C2203 C2204 1.355 . S
C2203 C2205 1.415 . S
C2204 C2203 1.355 . S
C2204 C2206 1.419 . S
C2205 C2200 1.425 . S
C2205 C2202 1.409 . S
C2205 C2203 1.415 . S
C2206 H2196 0.930 . S
C2206 C2204 1.419 . S
C2206 C2207 1.362 . S
C2207 H2197 0.930 . S
C2207 C2200 1.409 . S
C2207 C2206 1.362 . S
H2208 C2214 0.930 . S
H2209 C2217 0.930 . S
H2210 C2218 0.930 . S
H2211 C2219 0.930 . S
H2212 C2222 0.930 . S
H2213 C2223 0.930 . S
C2214 H2208 0.930 . S
C2214 C2215 1.355 . S
C2214 C2216 1.415 . S
C2215 C2214 1.355 . S
C2215 C2217 1.419 . S
C2216 C2214 1.415 . S
C2216 C2221 1.425 . S
C2216 C2223 1.409 . S
C2217 H2209 0.930 . S
C2217 C2215 1.419 . S
C2217 C2218 1.362 . S
C2218 H2210 0.930 . S
C2218 C2217 1.362 . S
C2218 C2221 1.409 . S
C2219 H2211 0.930 . S
C2219 C2220 1.355 . S
C2219 C2221 1.415 . S
C2220 C2219 1.355 . S
C2220 C2222 1.419 . S
C2221 C2216 1.425 . S
C2221 C2218 1.409 . S
C2221 C2219 1.415 . S
C2222 H2212 0.930 . S
C2222 C2220 1.419 . S
C2222 C2223 1.362 . S
C2223 H2213 0.930 . S
C2223 C2216 1.409 . S
C2223 C2222 1.362 . S
H2224 C2230 0.930 . S
H2225 C2233 0.930 . S
H2226 C2234 0.930 . S
H2227 C2235 0.930 . S
H2228 C2238 0.930 . S
H2229 C2239 0.930 1_565 S
C2230 H2224 0.930 . S
C2230 C2231 1.355 . S
C2230 C2232 1.415 . S
C2231 C2230 1.355 . S
C2231 C2233 1.419 . S
C2232 C2230 1.415 . S
C2232 C2237 1.425 . S
C2232 C2239 1.409 . S
C2233 H2225 0.930 . S
C2233 C2231 1.419 . S
C2233 C2234 1.362 . S
C2234 H2226 0.930 . S
C2234 C2233 1.362 . S
C2234 C2237 1.409 . S
C2235 H2227 0.930 . S
C2235 C2236 1.355 . S
C2235 C2237 1.415 . S
C2236 C2235 1.355 . S
C2236 C2238 1.419 1_545 S
C2237 C2232 1.425 . S
C2237 C2234 1.409 . S
C2237 C2235 1.415 . S
C2238 H2228 0.930 . S
C2238 C2236 1.419 1_565 S
C2238 C2239 1.362 1_565 S
C2239 H2229 0.930 1_545 S
C2239 C2232 1.409 . S
C2239 C2238 1.362 1_545 S
H2240 C2246 0.930 . S
H2241 C2249 0.930 . S
H2242 C2250 0.930 . S
H2243 C2251 0.930 . S
H2244 C2254 0.930 . S
H2245 C2255 0.930 . S
C2246 H2240 0.930 . S
C2246 C2247 1.355 . S
C2246 C2248 1.415 . S
C2247 C2246 1.355 . S
C2247 C2249 1.419 . S
C2248 C2246 1.415 . S
C2248 C2253 1.425 . S
C2248 C2255 1.409 . S
C2249 H2241 0.930 . S
C2249 C2247 1.419 . S
C2249 C2250 1.362 . S
C2250 H2242 0.930 . S
C2250 C2249 1.362 . S
C2250 C2253 1.409 . S
C2251 H2243 0.930 . S
C2251 C2252 1.355 . S
C2251 C2253 1.415 . S
C2252 C2251 1.355 . S
C2252 C2254 1.419 . S
C2253 C2248 1.425 . S
C2253 C2250 1.409 . S
C2253 C2251 1.415 . S
C2254 H2244 0.930 . S
C2254 C2252 1.419 . S
C2254 C2255 1.362 . S
C2255 H2245 0.930 . S
C2255 C2248 1.409 . S
C2255 C2254 1.362 . S
H2256 C2262 0.930 . S
H2257 C2265 0.930 . S
H2258 C2266 0.930 . S
H2259 C2267 0.930 . S
H2260 C2270 0.930 . S
H2261 C2271 0.930 . S
C2262 H2256 0.930 . S
C2262 C2263 1.355 . S
C2262 C2264 1.415 . S
C2263 C2262 1.355 . S
C2263 C2265 1.419 . S
C2264 C2262 1.415 . S
C2264 C2269 1.425 . S
C2264 C2271 1.409 . S
C2265 H2257 0.930 . S
C2265 C2263 1.419 . S
C2265 C2266 1.362 . S
C2266 H2258 0.930 . S
C2266 C2265 1.362 . S
C2266 C2269 1.409 . S
C2267 H2259 0.930 . S
C2267 C2268 1.355 . S
C2267 C2269 1.415 . S
C2268 C2267 1.355 . S
C2268 C2270 1.419 . S
C2269 C2264 1.425 . S
C2269 C2266 1.409 . S
C2269 C2267 1.415 . S
C2270 H2260 0.930 . S
C2270 C2268 1.419 . S
C2270 C2271 1.362 . S
C2271 H2261 0.930 . S
C2271 C2264 1.409 . S
C2271 C2270 1.362 . S
H2272 C2278 0.930 . S
H2273 C2281 0.930 . S
H2274 C2282 0.930 . S
H2275 C2283 0.930 1_554 S
H2276 C2286 0.930 . S
H2277 C2287 0.930 . S
C2278 H2272 0.930 . S
C2278 C2279 1.355 . S
C2278 C2280 1.415 . S
C2279 C2278 1.355 . S
C2279 C2281 1.419 . S
C2280 C2278 1.415 . S
C2280 C2285 1.425 . S
C2280 C2287 1.409 . S
C2281 H2273 0.930 . S
C2281 C2279 1.419 . S
C2281 C2282 1.362 . S
C2282 H2274 0.930 . S
C2282 C2281 1.362 . S
C2282 C2285 1.409 . S
C2283 H2275 0.930 1_556 S
C2283 C2284 1.355 . S
C2283 C2285 1.415 . S
C2284 C2283 1.355 . S
C2284 C2286 1.419 . S
C2285 C2280 1.425 . S
C2285 C2282 1.409 . S
C2285 C2283 1.415 . S
C2286 H2276 0.930 . S
C2286 C2284 1.419 . S
C2286 C2287 1.362 . S
C2287 H2277 0.930 . S
C2287 C2280 1.409 . S
C2287 C2286 1.362 . S
H2288 C2294 0.930 . S
H2289 C2297 0.930 . S
H2290 C2298 0.930 . S
H2291 C2299 0.930 . S
H2292 C2302 0.930 . S
H2293 C2303 0.930 . S
C2294 H2288 0.930 . S
C2294 C2295 1.355 . S
C2294 C2296 1.415 . S
C2295 C2294 1.355 . S
C2295 C2297 1.419 . S
C2296 C2294 1.415 . S
C2296 C2301 1.425 . S
C2296 C2303 1.409 . S
C2297 H2289 0.930 . S
C2297 C2295 1.419 . S
C2297 C2298 1.362 . S
C2298 H2290 0.930 . S
C2298 C2297 1.362 . S
C2298 C2301 1.409 . S
C2299 H2291 0.930 . S
C2299 C2300 1.355 . S
C2299 C2301 1.415 . S
C2300 C2299 1.355 . S
C2300 C2302 1.419 . S
C2301 C2296 1.425 . S
C2301 C2298 1.409 . S
C2301 C2299 1.415 . S
C2302 H2292 0.930 . S
C2302 C2300 1.419 . S
C2302 C2303 1.362 . S
C2303 H2293 0.930 . S
C2303 C2296 1.409 . S
C2303 C2302 1.362 . S
H2304 C2310 0.930 . S
H2305 C2313 0.930 . S
H2306 C2314 0.930 . S
H2307 C2315 0.930 . S
H2308 C2318 0.930 . S
H2309 C2319 0.930 . S
C2310 H2304 0.930 . S
C2310 C2311 1.355 . S
C2310 C2312 1.415 . S
C2311 C2310 1.355 . S
C2311 C2313 1.419 . S
C2312 C2310 1.415 . S
C2312 C2317 1.425 . S
C2312 C2319 1.409 . S
C2313 H2305 0.930 . S
C2313 C2311 1.419 . S
C2313 C2314 1.362 . S
C2314 H2306 0.930 . S
C2314 C2313 1.362 . S
C2314 C2317 1.409 . S
C2315 H2307 0.930 . S
C2315 C2316 1.355 . S
C2315 C2317 1.415 . S
C2316 C2315 1.355 . S
C2316 C2318 1.419 1_554 S
C2317 C2312 1.425 . S
C2317 C2314 1.409 . S
C2317 C2315 1.415 . S
C2318 H2308 0.930 . S
C2318 C2316 1.419 1_556 S
C2318 C2319 1.362 1_556 S
C2319 H2309 0.930 . S
C2319 C2312 1.409 . S
C2319 C2318 1.362 1_554 S
H2320 C2326 0.930 . S
H2321 C2329 0.930 . S
H2322 C2330 0.930 . S
H2323 C2331 0.930 . S
H2324 C2334 0.930 . S
H2325 C2335 0.930 . S
C2326 H2320 0.930 . S
C2326 C2327 1.355 . S
C2326 C2328 1.415 . S
C2327 C2326 1.355 . S
C2327 C2329 1.419 . S
C2328 C2326 1.415 . S
C2328 C2333 1.425 . S
C2328 C2335 1.409 . S
C2329 H2321 0.930 . S
C2329 C2327 1.419 . S
C2329 C2330 1.362 . S
C2330 H2322 0.930 . S
C2330 C2329 1.362 . S
C2330 C2333 1.409 . S
C2331 H2323 0.930 . S
C2331 C2332 1.355 . S
C2331 C2333 1.415 . S
C2332 C2331 1.355 . S
C2332 C2334 1.419 . S
C2333 C2328 1.425 . S
C2333 C2330 1.409 . S
C2333 C2331 1.415 . S
C2334 H2324 0.930 . S
C2334 C2332 1.419 . S
C2334 C2335 1.362 . S
C2335 H2325 0.930 . S
C2335 C2328 1.409 . S
C2335 C2334 1.362 . S
H2336 C2342 0.930 . S
H2337 C2345 0.930 . S
H2338 C2346 0.930 . S
H2339 C2347 0.930 . S
H2340 C2350 0.930 . S
H2341 C2351 0.930 . S
C2342 H2336 0.930 . S
C2342 C2343 1.355 . S
C2342 C2344 1.415 . S
C2343 C2342 1.355 . S
C2343 C2345 1.419 1_455 S
C2344 C2342 1.415 . S
C2344 C2349 1.425 . S
C2344 C2351 1.409 . S
C2345 H2337 0.930 . S
C2345 C2343 1.419 1_655 S
C2345 C2346 1.362 . S
C2346 H2338 0.930 . S
C2346 C2345 1.362 . S
C2346 C2349 1.409 1_655 S
C2347 H2339 0.930 . S
C2347 C2348 1.355 . S
C2347 C2349 1.415 . S
C2348 C2347 1.355 . S
C2348 C2350 1.419 . S
C2349 C2344 1.425 . S
C2349 C2346 1.409 1_455 S
C2349 C2347 1.415 . S
C2350 H2340 0.930 . S
C2350 C2348 1.419 . S
C2350 C2351 1.362 . S
C2351 H2341 0.930 . S
C2351 C2344 1.409 . S
C2351 C2350 1.362 . S
H2352 C2358 0.930 1_455 S
H2353 C2361 0.930 . S
H2354 C2362 0.930 . S
H2355 C2363 0.930 . S
H2356 C2366 0.930 . S
H2357 C2367 0.926 1_455 S
C2358 H2352 0.930 1_655 S
C2358 C2359 1.355 . S
C2358 C2360 1.415 . S
C2359 C2358 1.355 . S
C2359 C2361 1.419 . S
C2360 C2358 1.415 . S
C2360 C2365 1.425 . S
C2360 C2367 1.409 . S
C2361 H2353 0.930 . S
C2361 C2359 1.419 . S
C2361 C2362 1.362 . S
C2362 H2354 0.930 . S
C2362 C2361 1.362 . S
C2362 C2365 1.409 . S
C2363 H2355 0.930 . S
C2363 C2364 1.355 . S
C2363 C2365 1.415 . S
C2364 C2363 1.355 . S
C2364 C2366 1.419 . S
C2365 C2360 1.425 . S
C2365 C2362 1.409 . S
C2365 C2363 1.415 . S
C2366 H2356 0.930 . S
C2366 C2364 1.419 . S
C2366 C2367 1.362 . S
C2367 H2357 0.926 1_655 S
C2367 C2360 1.409 . S
C2367 C2366 1.362 . S
H2368 C2374 0.930 . S
H2369 C2377 0.930 . S
H2370 C2378 0.930 . S
H2371 C2379 0.930 . S
H2372 C2382 0.930 . S
H2373 C2383 0.930 . S
C2374 H2368 0.930 . S
C2374 C2375 1.355 . S
C2374 C2376 1.415 . S
C2375 C2374 1.355 . S
C2375 C2377 1.419 . S
C2376 C2374 1.415 . S
C2376 C2381 1.425 . S
C2376 C2383 1.409 . S
C2377 H2369 0.930 . S
C2377 C2375 1.419 . S
C2377 C2378 1.362 . S
C2378 H2370 0.930 . S
C2378 C2377 1.362 . S
C2378 C2381 1.409 . S
C2379 H2371 0.930 . S
C2379 C2380 1.355 . S
C2379 C2381 1.415 . S
C2380 C2379 1.355 . S
C2380 C2382 1.419 . S
C2381 C2376 1.425 . S
C2381 C2378 1.409 . S
C2381 C2379 1.415 . S
C2382 H2372 0.930 . S
C2382 C2380 1.419 . S
C2382 C2383 1.362 . S
C2383 H2373 0.930 . S
C2383 C2376 1.409 . S
C2383 C2382 1.362 . S
H2384 C2390 0.930 . S
H2385 C2393 0.930 . S
H2386 C2394 0.930 . S
H2387 C2395 0.930 . S
H2388 C2398 0.930 . S
H2389 C2399 0.930 . S
C2390 H2384 0.930 . S
C2390 C2391 1.355 . S
C2390 C2392 1.415 . S
C2391 C2390 1.355 . S
C2391 C2393 1.419 . S
C2392 C2390 1.415 . S
C2392 C2397 1.425 . S
C2392 C2399 1.409 . S
C2393 H2385 0.930 . S
C2393 C2391 1.419 . S
C2393 C2394 1.362 . S
C2394 H2386 0.930 . S
C2394 C2393 1.362 . S
C2394 C2397 1.409 . S
C2395 H2387 0.930 . S
C2395 C2396 1.355 . S
C2395 C2397 1.415 . S
C2396 C2395 1.355 . S
C2396 C2398 1.419 . S
C2397 C2392 1.425 . S
C2397 C2394 1.409 . S
C2397 C2395 1.415 . S
C2398 H2388 0.930 . S
C2398 C2396 1.419 . S
C2398 C2399 1.362 . S
C2399 H2389 0.930 . S
C2399 C2392 1.409 . S
C2399 C2398 1.362 . S
H2400 C2406 0.930 . S
H2401 C2409 0.930 . S
H2402 C2410 0.909 1_565 S
H2403 C2411 0.930 1_565 S
H2404 C2414 0.930 . S
H2405 C2415 0.930 . S
C2406 H2400 0.930 . S
C2406 C2407 1.355 . S
C2406 C2408 1.415 . S
C2407 C2406 1.355 . S
C2407 C2409 1.419 . S
C2408 C2406 1.415 . S
C2408 C2413 1.425 . S
C2408 C2415 1.409 . S
C2409 H2401 0.930 . S
C2409 C2407 1.419 . S
C2409 C2410 1.362 . S
C2410 H2402 0.909 1_545 S
C2410 C2409 1.362 . S
C2410 C2413 1.409 . S
C2411 H2403 0.930 1_545 S
C2411 C2412 1.355 . S
C2411 C2413 1.415 . S
C2412 C2411 1.355 . S
C2412 C2414 1.419 . S
C2413 C2408 1.425 . S
C2413 C2410 1.409 . S
C2413 C2411 1.415 . S
C2414 H2404 0.930 . S
C2414 C2412 1.419 . S
C2414 C2415 1.362 . S
C2415 H2405 0.930 . S
C2415 C2408 1.409 . S
C2415 C2414 1.362 . S
H2416 C2422 0.930 . S
H2417 C2425 0.930 . S
H2418 C2426 0.930 . S
H2419 C2427 0.930 1_545 S
H2420 C2430 0.930 . S
H2421 C2431 0.930 . S
C2422 H2416 0.930 . S
C2422 C2423 1.355 . S
C2422 C2424 1.415 . S
C2423 C2422 1.355 . S
C2423 C2425 1.419 . S
C2424 C2422 1.415 . S
C2424 C2429 1.425 . S
C2424 C2431 1.409 . S
C2425 H2417 0.930 . S
C2425 C2423 1.419 . S
C2425 C2426 1.362 . S
C2426 H2418 0.930 . S
C2426 C2425 1.362 . S
C2426 C2429 1.409 . S
C2427 H2419 0.930 1_565 S
C2427 C2428 1.355 . S
C2427 C2429 1.415 . S
C2428 C2427 1.355 . S
C2428 C2430 1.419 . S
C2429 C2424 1.425 . S
C2429 C2426 1.409 . S
C2429 C2427 1.415 . S
C2430 H2420 0.930 . S
C2430 C2428 1.419 . S
C2430 C2431 1.362 . S
C2431 H2421 0.930 . S
C2431 C2424 1.409 . S
C2431 C2430 1.362 . S
H2432 C2438 0.930 . S
H2433 C2441 0.930 . S
H2434 C2442 0.930 . S
H2435 C2443 0.930 . S
H2436 C2446 0.930 . S
H2437 C2447 0.930 . S
C2438 H2432 0.930 . S
C2438 C2439 1.355 . S
C2438 C2440 1.415 . S
C2439 C2438 1.355 . S
C2439 C2441 1.419 . S
C2440 C2438 1.415 . S
C2440 C2445 1.425 . S
C2440 C2447 1.409 . S
C2441 H2433 0.930 . S
C2441 C2439 1.419 . S
C2441 C2442 1.362 . S
C2442 H2434 0.930 . S
C2442 C2441 1.362 . S
C2442 C2445 1.409 . S
C2443 H2435 0.930 . S
C2443 C2444 1.355 . S
C2443 C2445 1.415 . S
C2444 C2443 1.355 . S
C2444 C2446 1.419 . S
C2445 C2440 1.425 . S
C2445 C2442 1.409 . S
C2445 C2443 1.415 . S
C2446 H2436 0.930 . S
C2446 C2444 1.419 . S
C2446 C2447 1.362 . S
C2447 H2437 0.930 . S
C2447 C2440 1.409 . S
C2447 C2446 1.362 . S
H2448 C2454 0.930 . S
H2449 C2457 0.930 . S
H2450 C2458 0.930 . S
H2451 C2459 0.930 . S
H2452 C2462 0.930 . S
H2453 C2463 0.930 . S
C2454 H2448 0.930 . S
C2454 C2455 1.355 . S
C2454 C2456 1.415 . S
C2455 C2454 1.355 . S
C2455 C2457 1.419 . S
C2456 C2454 1.415 . S
C2456 C2461 1.425 . S
C2456 C2463 1.409 . S
C2457 H2449 0.930 . S
C2457 C2455 1.419 . S
C2457 C2458 1.362 . S
C2458 H2450 0.930 . S
C2458 C2457 1.362 . S
C2458 C2461 1.409 . S
C2459 H2451 0.930 . S
C2459 C2460 1.355 . S
C2459 C2461 1.415 . S
C2460 C2459 1.355 . S
C2460 C2462 1.419 . S
C2461 C2456 1.425 . S
C2461 C2458 1.409 . S
C2461 C2459 1.415 . S
C2462 H2452 0.930 . S
C2462 C2460 1.419 . S
C2462 C2463 1.362 . S
C2463 H2453 0.930 . S
C2463 C2456 1.409 . S
C2463 C2462 1.362 . S
H2464 C2470 0.930 . S
H2465 C2473 0.930 . S
H2466 C2474 0.930 . S
H2467 C2475 0.930 . S
H2468 C2478 0.930 1_556 S
H2469 C2479 0.930 . S
C2470 H2464 0.930 . S
C2470 C2471 1.355 . S
C2470 C2472 1.415 . S
C2471 C2470 1.355 . S
C2471 C2473 1.419 . S
C2472 C2470 1.415 . S
C2472 C2477 1.425 . S
C2472 C2479 1.409 . S
C2473 H2465 0.930 . S
C2473 C2471 1.419 . S
C2473 C2474 1.362 . S
C2474 H2466 0.930 . S
C2474 C2473 1.362 . S
C2474 C2477 1.409 . S
C2475 H2467 0.930 . S
C2475 C2476 1.355 . S
C2475 C2477 1.415 . S
C2476 C2475 1.355 . S
C2476 C2478 1.419 . S
C2477 C2472 1.425 . S
C2477 C2474 1.409 . S
C2477 C2475 1.415 . S
C2478 H2468 0.930 1_554 S
C2478 C2476 1.419 . S
C2478 C2479 1.362 . S
C2479 H2469 0.930 . S
C2479 C2472 1.409 . S
C2479 C2478 1.362 . S
H2480 C2486 0.930 . S
H2481 C2489 0.930 . S
H2482 C2490 0.930 . S
H2483 C2491 0.930 . S
H2484 C2494 0.930 . S
H2485 C2495 0.930 . S
C2486 H2480 0.930 . S
C2486 C2487 1.355 . S
C2486 C2488 1.415 . S
C2487 C2486 1.355 . S
C2487 C2489 1.419 . S
C2488 C2486 1.415 . S
C2488 C2493 1.425 . S
C2488 C2495 1.409 . S
C2489 H2481 0.930 . S
C2489 C2487 1.419 . S
C2489 C2490 1.362 . S
C2490 H2482 0.930 . S
C2490 C2489 1.362 . S
C2490 C2493 1.409 . S
C2491 H2483 0.930 . S
C2491 C2492 1.355 . S
C2491 C2493 1.415 . S
C2492 C2491 1.355 . S
C2492 C2494 1.419 . S
C2493 C2488 1.425 . S
C2493 C2490 1.409 . S
C2493 C2491 1.415 . S
C2494 H2484 0.930 . S
C2494 C2492 1.419 . S
C2494 C2495 1.362 . S
C2495 H2485 0.930 . S
C2495 C2488 1.409 . S
C2495 C2494 1.362 . S
H2496 C2502 0.930 . S
H2497 C2505 0.930 . S
H2498 C2506 0.930 . S
H2499 C2507 0.930 . S
H2500 C2510 0.930 . S
H2501 C2511 0.930 . S
C2502 H2496 0.930 . S
C2502 C2503 1.355 . S
C2502 C2504 1.415 . S
C2503 C2502 1.355 . S
C2503 C2505 1.419 . S
C2504 C2502 1.415 . S
C2504 C2509 1.425 . S
C2504 C2511 1.409 . S
C2505 H2497 0.930 . S
C2505 C2503 1.419 . S
C2505 C2506 1.362 . S
C2506 H2498 0.930 . S
C2506 C2505 1.362 . S
C2506 C2509 1.409 . S
C2507 H2499 0.930 . S
C2507 C2508 1.355 . S
C2507 C2509 1.415 . S
C2508 C2507 1.355 . S
C2508 C2510 1.419 . S
C2509 C2504 1.425 . S
C2509 C2506 1.409 . S
C2509 C2507 1.415 . S
C2510 H2500 0.930 . S
C2510 C2508 1.419 . S
C2510 C2511 1.362 . S
C2511 H2501 0.930 . S
C2511 C2504 1.409 . S
C2511 C2510 1.362 . S
H2512 C2518 0.930 . S
H2513 C2521 0.930 . S
H2514 C2522 0.930 . S
H2515 C2523 0.930 . S
H2516 C2526 0.930 . S
H2517 C2527 0.930 . S
C2518 H2512 0.930 . S
C2518 C2519 1.355 . S
C2518 C2520 1.415 . S
C2519 C2518 1.355 . S
C2519 C2521 1.419 . S
C2520 C2518 1.415 . S
C2520 C2525 1.425 . S
C2520 C2527 1.409 . S
C2521 H2513 0.930 . S
C2521 C2519 1.419 . S
C2521 C2522 1.362 . S
C2522 H2514 0.930 . S
C2522 C2521 1.362 . S
C2522 C2525 1.409 . S
C2523 H2515 0.930 . S
C2523 C2524 1.355 . S
C2523 C2525 1.415 . S
C2524 C2523 1.355 . S
C2524 C2526 1.419 . S
C2525 C2520 1.425 . S
C2525 C2522 1.409 . S
C2525 C2523 1.415 . S
C2526 H2516 0.930 . S
C2526 C2524 1.419 . S
C2526 C2527 1.362 . S
C2527 H2517 0.930 . S
C2527 C2520 1.409 . S
C2527 C2526 1.362 . S
H2528 C2534 0.930 . S
H2529 C2537 0.930 . S
H2530 C2538 0.930 . S
H2531 C2539 0.930 . S
H2532 C2542 0.930 . S
H2533 C2543 0.930 . S
C2534 H2528 0.930 . S
C2534 C2535 1.355 . S
C2534 C2536 1.415 . S
C2535 C2534 1.355 . S
C2535 C2537 1.419 . S
C2536 C2534 1.415 . S
C2536 C2541 1.425 . S
C2536 C2543 1.409 . S
C2537 H2529 0.930 . S
C2537 C2535 1.419 . S
C2537 C2538 1.362 . S
C2538 H2530 0.930 . S
C2538 C2537 1.362 . S
C2538 C2541 1.409 . S
C2539 H2531 0.930 . S
C2539 C2540 1.355 . S
C2539 C2541 1.415 . S
C2540 C2539 1.355 . S
C2540 C2542 1.419 . S
C2541 C2536 1.425 . S
C2541 C2538 1.409 . S
C2541 C2539 1.415 . S
C2542 H2532 0.930 . S
C2542 C2540 1.419 . S
C2542 C2543 1.362 . S
C2543 H2533 0.930 . S
C2543 C2536 1.409 . S
C2543 C2542 1.362 . S
H2544 C2550 0.930 . S
H2545 C2553 0.930 . S
H2546 C2554 0.930 . S
H2547 C2555 0.930 . S
H2548 C2558 0.930 . S
H2549 C2559 0.930 . S
C2550 H2544 0.930 . S
C2550 C2551 1.355 . S
C2550 C2552 1.415 . S
C2551 C2550 1.355 . S
C2551 C2553 1.419 . S
C2552 C2550 1.415 . S
C2552 C2557 1.425 . S
C2552 C2559 1.409 . S
C2553 H2545 0.930 . S
C2553 C2551 1.419 . S
C2553 C2554 1.362 . S
C2554 H2546 0.930 . S
C2554 C2553 1.362 . S
C2554 C2557 1.409 . S
C2555 H2547 0.930 . S
C2555 C2556 1.355 . S
C2555 C2557 1.415 . S
C2556 C2555 1.355 . S
C2556 C2558 1.419 . S
C2557 C2552 1.425 . S
C2557 C2554 1.409 . S
C2557 C2555 1.415 . S
C2558 H2548 0.930 . S
C2558 C2556 1.419 . S
C2558 C2559 1.362 . S
C2559 H2549 0.930 . S
C2559 C2552 1.409 . S
C2559 C2558 1.362 . S
H2560 C2566 0.930 . S
H2561 C2569 0.930 . S
H2562 C2570 0.930 . S
H2563 C2571 0.930 . S
H2564 C2574 0.930 . S
H2565 C2575 0.930 . S
C2566 H2560 0.930 . S
C2566 C2567 1.355 . S
C2566 C2568 1.415 . S
C2567 C2566 1.355 . S
C2567 C2569 1.419 . S
C2568 C2566 1.415 . S
C2568 C2573 1.425 . S
C2568 C2575 1.409 . S
C2569 H2561 0.930 . S
C2569 C2567 1.419 . S
C2569 C2570 1.362 . S
C2570 H2562 0.930 . S
C2570 C2569 1.362 . S
C2570 C2573 1.409 . S
C2571 H2563 0.930 . S
C2571 C2572 1.355 . S
C2571 C2573 1.415 . S
C2572 C2571 1.355 . S
C2572 C2574 1.419 . S
C2573 C2568 1.425 . S
C2573 C2570 1.409 . S
C2573 C2571 1.415 . S
C2574 H2564 0.930 . S
C2574 C2572 1.419 . S
C2574 C2575 1.362 . S
C2575 H2565 0.930 . S
C2575 C2568 1.409 . S
C2575 C2574 1.362 . S
H2576 C2582 0.930 . S
H2577 C2585 0.930 . S
H2578 C2586 0.930 . S
H2579 C2587 0.930 . S
H2580 C2590 0.930 . S
H2581 C2591 0.930 . S
C2582 H2576 0.930 . S
C2582 C2583 1.355 . S
C2582 C2584 1.415 . S
C2583 C2582 1.355 . S
C2583 C2585 1.419 . S
C2584 C2582 1.415 . S
C2584 C2589 1.425 . S
C2584 C2591 1.409 . S
C2585 H2577 0.930 . S
C2585 C2583 1.419 . S
C2585 C2586 1.362 . S
C2586 H2578 0.930 . S
C2586 C2585 1.362 . S
C2586 C2589 1.409 . S
C2587 H2579 0.930 . S
C2587 C2588 1.355 . S
C2587 C2589 1.415 . S
C2588 C2587 1.355 . S
C2588 C2590 1.419 . S
C2589 C2584 1.425 . S
C2589 C2586 1.409 . S
C2589 C2587 1.415 . S
C2590 H2580 0.930 . S
C2590 C2588 1.419 . S
C2590 C2591 1.362 . S
C2591 H2581 0.930 . S
C2591 C2584 1.409 . S
C2591 C2590 1.362 . S
H2592 C2598 0.930 . S
H2593 C2601 0.930 . S
H2594 C2602 0.930 . S
H2595 C2603 0.930 . S
H2596 C2606 0.930 1_545 S
H2597 C2607 0.930 . S
C2598 H2592 0.930 . S
C2598 C2599 1.355 . S
C2598 C2600 1.415 . S
C2599 C2598 1.355 . S
C2599 C2601 1.419 . S
C2600 C2598 1.415 . S
C2600 C2605 1.425 . S
C2600 C2607 1.409 . S
C2601 H2593 0.930 . S
C2601 C2599 1.419 . S
C2601 C2602 1.362 . S
C2602 H2594 0.930 . S
C2602 C2601 1.362 . S
C2602 C2605 1.409 . S
C2603 H2595 0.930 . S
C2603 C2604 1.355 . S
C2603 C2605 1.415 . S
C2604 C2603 1.355 . S
C2604 C2606 1.419 . S
C2605 C2600 1.425 . S
C2605 C2602 1.409 . S
C2605 C2603 1.415 . S
C2606 H2596 0.930 1_565 S
C2606 C2604 1.419 . S
C2606 C2607 1.362 . S
C2607 H2597 0.930 . S
C2607 C2600 1.409 . S
C2607 C2606 1.362 . S
H2608 C2614 0.930 . S
H2609 C2617 0.930 . S
H2610 C2618 0.930 . S
H2611 C2619 0.930 . S
H2612 C2622 0.930 . S
H2613 C2623 0.930 . S
C2614 H2608 0.930 . S
C2614 C2615 1.355 . S
C2614 C2616 1.415 . S
C2615 C2614 1.355 . S
C2615 C2617 1.419 . S
C2616 C2614 1.415 . S
C2616 C2621 1.425 . S
C2616 C2623 1.409 . S
C2617 H2609 0.930 . S
C2617 C2615 1.419 . S
C2617 C2618 1.362 . S
C2618 H2610 0.930 . S
C2618 C2617 1.362 . S
C2618 C2621 1.409 . S
C2619 H2611 0.930 . S
C2619 C2620 1.355 . S
C2619 C2621 1.415 . S
C2620 C2619 1.355 . S
C2620 C2622 1.419 . S
C2621 C2616 1.425 . S
C2621 C2618 1.409 . S
C2621 C2619 1.415 . S
C2622 H2612 0.930 . S
C2622 C2620 1.419 . S
C2622 C2623 1.362 . S
C2623 H2613 0.930 . S
C2623 C2616 1.409 . S
C2623 C2622 1.362 . S
H2624 C2630 0.930 . S
H2625 C2633 0.930 . S
H2626 C2634 0.930 . S
H2627 C2635 0.930 . S
H2628 C2638 0.930 . S
H2629 C2639 0.930 . S
C2630 H2624 0.930 . S
C2630 C2631 1.355 . S
C2630 C2632 1.415 . S
C2631 C2630 1.355 . S
C2631 C2633 1.419 . S
C2632 C2630 1.415 . S
C2632 C2637 1.425 . S
C2632 C2639 1.409 . S
C2633 H2625 0.930 . S
C2633 C2631 1.419 . S
C2633 C2634 1.362 . S
C2634 H2626 0.930 . S
C2634 C2633 1.362 . S
C2634 C2637 1.409 . S
C2635 H2627 0.930 . S
C2635 C2636 1.355 . S
C2635 C2637 1.415 . S
C2636 C2635 1.355 . S
C2636 C2638 1.419 . S
C2637 C2632 1.425 . S
C2637 C2634 1.409 . S
C2637 C2635 1.415 . S
C2638 H2628 0.930 . S
C2638 C2636 1.419 . S
C2638 C2639 1.362 . S
C2639 H2629 0.930 . S
C2639 C2632 1.409 . S
C2639 C2638 1.362 . S
H2640 C2646 0.930 . S
H2641 C2649 0.930 . S
H2642 C2650 0.930 . S
H2643 C2651 0.930 . S
H2644 C2654 0.930 . S
H2645 C2655 0.930 . S
C2646 H2640 0.930 . S
C2646 C2647 1.355 . S
C2646 C2648 1.415 . S
C2647 C2646 1.355 . S
C2647 C2649 1.419 . S
C2648 C2646 1.415 . S
C2648 C2653 1.425 . S
C2648 C2655 1.409 . S
C2649 H2641 0.930 . S
C2649 C2647 1.419 . S
C2649 C2650 1.362 . S
C2650 H2642 0.930 . S
C2650 C2649 1.362 . S
C2650 C2653 1.409 . S
C2651 H2643 0.930 . S
C2651 C2652 1.355 . S
C2651 C2653 1.415 . S
C2652 C2651 1.355 . S
C2652 C2654 1.419 . S
C2653 C2648 1.425 . S
C2653 C2650 1.409 . S
C2653 C2651 1.415 . S
C2654 H2644 0.930 . S
C2654 C2652 1.419 . S
C2654 C2655 1.362 . S
C2655 H2645 0.930 . S
C2655 C2648 1.409 . S
C2655 C2654 1.362 . S
H2656 C2662 0.930 . S
H2657 C2665 0.930 . S
H2658 C2666 0.930 . S
H2659 C2667 0.930 . S
H2660 C2670 0.930 . S
H2661 C2671 0.930 . S
C2662 H2656 0.930 . S
C2662 C2663 1.355 . S
C2662 C2664 1.415 . S
C2663 C2662 1.355 . S
C2663 C2665 1.419 . S
C2664 C2662 1.415 . S
C2664 C2669 1.425 . S
C2664 C2671 1.409 . S
C2665 H2657 0.930 . S
C2665 C2663 1.419 . S
C2665 C2666 1.362 . S
C2666 H2658 0.930 . S
C2666 C2665 1.362 . S
C2666 C2669 1.409 . S
C2667 H2659 0.930 . S
C2667 C2668 1.355 . S
C2667 C2669 1.415 . S
C2668 C2667 1.355 . S
C2668 C2670 1.419 . S
C2669 C2664 1.425 . S
C2669 C2666 1.409 . S
C2669 C2667 1.415 . S
C2670 H2660 0.930 . S
C2670 C2668 1.419 . S
C2670 C2671 1.362 . S
C2671 H2661 0.930 . S
C2671 C2664 1.409 . S
C2671 C2670 1.362 . S
H2672 C2678 0.930 . S
H2673 C2681 0.930 . S
H2674 C2682 0.930 . S
H2675 C2683 0.930 . S
H2676 C2686 0.930 . S
H2677 C2687 0.930 . S
C2678 H2672 0.930 . S
C2678 C2679 1.355 . S
C2678 C2680 1.415 . S
C2679 C2678 1.355 . S
C2679 C2681 1.419 . S
C2680 C2678 1.415 . S
C2680 C2685 1.425 . S
C2680 C2687 1.409 . S
C2681 H2673 0.930 . S
C2681 C2679 1.419 . S
C2681 C2682 1.362 . S
C2682 H2674 0.930 . S
C2682 C2681 1.362 . S
C2682 C2685 1.409 . S
C2683 H2675 0.930 . S
C2683 C2684 1.355 . S
C2683 C2685 1.415 . S
C2684 C2683 1.355 . S
C2684 C2686 1.419 . S
C2685 C2680 1.425 . S
C2685 C2682 1.409 . S
C2685 C2683 1.415 . S
C2686 H2676 0.930 . S
C2686 C2684 1.419 . S
C2686 C2687 1.362 . S
C2687 H2677 0.930 . S
C2687 C2680 1.409 . S
C2687 C2686 1.362 . S
H2688 C2694 0.930 . S
H2689 C2697 0.930 . S
H2690 C2698 0.930 . S
H2691 C2699 0.930 . S
H2692 C2702 0.930 . S
H2693 C2703 0.930 . S
C2694 H2688 0.930 . S
C2694 C2695 1.355 . S
C2694 C2696 1.415 . S
C2695 C2694 1.355 . S
C2695 C2697 1.419 . S
C2696 C2694 1.415 . S
C2696 C2701 1.425 . S
C2696 C2703 1.409 . S
C2697 H2689 0.930 . S
C2697 C2695 1.419 . S
C2697 C2698 1.362 . S
C2698 H2690 0.930 . S
C2698 C2697 1.362 . S
C2698 C2701 1.409 . S
C2699 H2691 0.930 . S
C2699 C2700 1.355 . S
C2699 C2701 1.415 . S
C2700 C2699 1.355 . S
C2700 C2702 1.419 . S
C2701 C2696 1.425 . S
C2701 C2698 1.409 . S
C2701 C2699 1.415 . S
C2702 H2692 0.930 . S
C2702 C2700 1.419 . S
C2702 C2703 1.362 . S
C2703 H2693 0.930 . S
C2703 C2696 1.409 . S
C2703 C2702 1.362 . S
H2704 C2710 0.930 . S
H2705 C2713 0.930 . S
H2706 C2714 0.930 . S
H2707 C2715 0.930 . S
H2708 C2718 0.930 . S
H2709 C2719 0.930 . S
C2710 H2704 0.930 . S
C2710 C2711 1.355 . S
C2710 C2712 1.415 . S
C2711 C2710 1.355 . S
C2711 C2713 1.419 . S
C2712 C2710 1.415 . S
C2712 C2717 1.425 . S
C2712 C2719 1.409 . S
C2713 H2705 0.930 . S
C2713 C2711 1.419 . S
C2713 C2714 1.362 . S
C2714 H2706 0.930 . S
C2714 C2713 1.362 . S
C2714 C2717 1.409 . S
C2715 H2707 0.930 . S
C2715 C2716 1.355 . S
C2715 C2717 1.415 . S
C2716 C2715 1.355 . S
C2716 C2718 1.419 . S
C2717 C2712 1.425 . S
C2717 C2714 1.409 . S
C2717 C2715 1.415 . S
C2718 H2708 0.930 . S
C2718 C2716 1.419 . S
C2718 C2719 1.362 . S
C2719 H2709 0.930 . S
C2719 C2712 1.409 . S
C2719 C2718 1.362 . S
H2720 C2726 0.930 . S
H2721 C2729 0.930 . S
H2722 C2730 0.930 . S
H2723 C2731 0.930 . S
H2724 C2734 0.930 . S
H2725 C2735 0.930 . S
C2726 H2720 0.930 . S
C2726 C2727 1.355 . S
C2726 C2728 1.415 . S
C2727 C2726 1.355 . S
C2727 C2729 1.419 . S
C2728 C2726 1.415 . S
C2728 C2733 1.425 . S
C2728 C2735 1.409 . S
C2729 H2721 0.930 . S
C2729 C2727 1.419 . S
C2729 C2730 1.362 . S
C2730 H2722 0.930 . S
C2730 C2729 1.362 . S
C2730 C2733 1.409 . S
C2731 H2723 0.930 . S
C2731 C2732 1.355 . S
C2731 C2733 1.415 . S
C2732 C2731 1.355 . S
C2732 C2734 1.419 . S
C2733 C2728 1.425 . S
C2733 C2730 1.409 . S
C2733 C2731 1.415 . S
C2734 H2724 0.930 . S
C2734 C2732 1.419 . S
C2734 C2735 1.362 . S
C2735 H2725 0.930 . S
C2735 C2728 1.409 . S
C2735 C2734 1.362 . S
H2736 C2742 0.930 . S
H2737 C2745 0.930 1_455 S
H2738 C2746 0.930 . S
H2739 C2747 0.930 . S
H2740 C2750 0.930 . S
H2741 C2751 0.930 . S
C2742 H2736 0.930 . S
C2742 C2743 1.355 . S
C2742 C2744 1.415 . S
C2743 C2742 1.355 . S
C2743 C2745 1.419 . S
C2744 C2742 1.415 . S
C2744 C2749 1.425 . S
C2744 C2751 1.409 . S
C2745 H2737 0.930 1_655 S
C2745 C2743 1.419 . S
C2745 C2746 1.362 . S
C2746 H2738 0.930 . S
C2746 C2745 1.362 . S
C2746 C2749 1.409 . S
C2747 H2739 0.930 . S
C2747 C2748 1.355 . S
C2747 C2749 1.415 . S
C2748 C2747 1.355 . S
C2748 C2750 1.419 . S
C2749 C2744 1.425 . S
C2749 C2746 1.409 . S
C2749 C2747 1.415 . S
C2750 H2740 0.930 . S
C2750 C2748 1.419 . S
C2750 C2751 1.362 . S
C2751 H2741 0.930 . S
C2751 C2744 1.409 . S
C2751 C2750 1.362 . S
H2752 C2758 0.930 . S
H2753 C2761 0.930 . S
H2754 C2762 0.930 . S
H2755 C2763 0.930 . S
H2756 C2766 0.930 . S
H2757 C2767 0.930 . S
C2758 H2752 0.930 . S
C2758 C2759 1.355 . S
C2758 C2760 1.415 . S
C2759 C2758 1.355 . S
C2759 C2761 1.419 . S
C2760 C2758 1.415 . S
C2760 C2765 1.425 . S
C2760 C2767 1.409 . S
C2761 H2753 0.930 . S
C2761 C2759 1.419 . S
C2761 C2762 1.362 . S
C2762 H2754 0.930 . S
C2762 C2761 1.362 . S
C2762 C2765 1.409 . S
C2763 H2755 0.930 . S
C2763 C2764 1.355 . S
C2763 C2765 1.415 . S
C2764 C2763 1.355 . S
C2764 C2766 1.419 . S
C2765 C2760 1.425 . S
C2765 C2762 1.409 . S
C2765 C2763 1.415 . S
C2766 H2756 0.930 . S
C2766 C2764 1.419 . S
C2766 C2767 1.362 . S
C2767 H2757 0.930 . S
C2767 C2760 1.409 . S
C2767 C2766 1.362 . S
H2768 C2774 0.930 . S
H2769 C2777 0.930 . S
H2770 C2778 0.930 . S
H2771 C2779 0.930 . S
H2772 C2782 0.930 . S
H2773 C2783 0.930 . S
C2774 H2768 0.930 . S
C2774 C2775 1.355 . S
C2774 C2776 1.415 . S
C2775 C2774 1.355 . S
C2775 C2777 1.419 . S
C2776 C2774 1.415 . S
C2776 C2781 1.425 . S
C2776 C2783 1.409 . S
C2777 H2769 0.930 . S
C2777 C2775 1.419 . S
C2777 C2778 1.362 . S
C2778 H2770 0.930 . S
C2778 C2777 1.362 . S
C2778 C2781 1.409 . S
C2779 H2771 0.930 . S
C2779 C2780 1.355 . S
C2779 C2781 1.415 . S
C2780 C2779 1.355 . S
C2780 C2782 1.419 . S
C2781 C2776 1.425 . S
C2781 C2778 1.409 . S
C2781 C2779 1.415 . S
C2782 H2772 0.930 . S
C2782 C2780 1.419 . S
C2782 C2783 1.362 . S
C2783 H2773 0.930 . S
C2783 C2776 1.409 . S
C2783 C2782 1.362 . S
H2784 C2790 0.930 . S
H2785 C2793 0.930 . S
H2786 C2794 0.930 . S
H2787 C2795 0.930 . S
H2788 C2798 0.930 . S
H2789 C2799 0.930 . S
C2790 H2784 0.930 . S
C2790 C2791 1.355 . S
C2790 C2792 1.415 . S
C2791 C2790 1.355 . S
C2791 C2793 1.419 . S
C2792 C2790 1.415 . S
C2792 C2797 1.425 . S
C2792 C2799 1.409 . S
C2793 H2785 0.930 . S
C2793 C2791 1.419 . S
C2793 C2794 1.362 . S
C2794 H2786 0.930 . S
C2794 C2793 1.362 . S
C2794 C2797 1.409 . S
C2795 H2787 0.930 . S
C2795 C2796 1.355 . S
C2795 C2797 1.415 . S
C2796 C2795 1.355 . S
C2796 C2798 1.419 . S
C2797 C2792 1.425 . S
C2797 C2794 1.409 . S
C2797 C2795 1.415 . S
C2798 H2788 0.930 . S
C2798 C2796 1.419 . S
C2798 C2799 1.362 . S
C2799 H2789 0.930 . S
C2799 C2792 1.409 . S
C2799 C2798 1.362 . S
H2800 C2806 0.930 . S
H2801 C2809 0.930 . S
H2802 C2810 0.930 . S
H2803 C2811 0.930 . S
H2804 C2814 0.930 . S
H2805 C2815 0.930 . S
C2806 H2800 0.930 . S
C2806 C2807 1.355 . S
C2806 C2808 1.415 . S
C2807 C2806 1.355 . S
C2807 C2809 1.419 . S
C2808 C2806 1.415 . S
C2808 C2813 1.425 . S
C2808 C2815 1.409 . S
C2809 H2801 0.930 . S
C2809 C2807 1.419 . S
C2809 C2810 1.362 . S
C2810 H2802 0.930 . S
C2810 C2809 1.362 . S
C2810 C2813 1.409 . S
C2811 H2803 0.930 . S
C2811 C2812 1.355 . S
C2811 C2813 1.415 . S
C2812 C2811 1.355 . S
C2812 C2814 1.419 . S
C2813 C2808 1.425 . S
C2813 C2810 1.409 . S
C2813 C2811 1.415 . S
C2814 H2804 0.930 . S
C2814 C2812 1.419 . S
C2814 C2815 1.362 . S
C2815 H2805 0.930 . S
C2815 C2808 1.409 . S
C2815 C2814 1.362 . S
H2816 C2822 0.930 . S
H2817 C2825 0.930 . S
H2818 C2826 0.930 . S
H2819 C2827 0.930 . S
H2820 C2830 0.930 . S
H2821 C2831 0.930 . S
C2822 H2816 0.930 . S
C2822 C2823 1.355 . S
C2822 C2824 1.415 . S
C2823 C2822 1.355 . S
C2823 C2825 1.419 . S
C2824 C2822 1.415 . S
C2824 C2829 1.425 . S
C2824 C2831 1.409 . S
C2825 H2817 0.930 . S
C2825 C2823 1.419 . S
C2825 C2826 1.362 . S
C2826 H2818 0.930 . S
C2826 C2825 1.362 . S
C2826 C2829 1.409 . S
C2827 H2819 0.930 . S
C2827 C2828 1.355 . S
C2827 C2829 1.415 . S
C2828 C2827 1.355 . S
C2828 C2830 1.419 . S
C2829 C2824 1.425 . S
C2829 C2826 1.409 . S
C2829 C2827 1.415 . S
C2830 H2820 0.930 . S
C2830 C2828 1.419 . S
C2830 C2831 1.362 . S
C2831 H2821 0.930 . S
C2831 C2824 1.409 . S
C2831 C2830 1.362 . S
C1303 C977 0.962 . S
C1308 C5 0.912 . S
C1319 C76 0.900 . S
C1324 C1031 0.831 . S
C1335 C886 0.887 . S
C1340 C113 0.955 . S
C1351 C184 0.859 . S
C1356 C923 0.845 . S
C1367 C1193 0.951 . S
C1372 C238 0.957 . S
C1383 C1139 0.883 . S
C1388 C275 0.954 . S
C1399 C1264 0.915 . S
C1404 C329 0.861 . S
C1415 C1085 0.830 . S
C1420 C400 0.893 . S
C1431 C454 0.962 . S
C1436 C707 0.911 . S
C1447 C815 0.958 . S
C1452 C491 0.902 . S
C1463 C562 0.956 . S
C1468 C778 0.888 . S
C1479 C670 0.847 . S
C1484 C616 0.858 . S
C1495 C346 0.949 . S
C1500 C653 0.889 . S
C1511 C383 0.865 . S
C1516 C724 0.852 . S
C1527 C221 0.908 . S
C1532 C761 0.962 . S
C1543 C832 0.919 . S
C1548 C292 0.964 . S
C1559 C545 0.831 . S
C1564 C869 0.899 . S
C1575 C940 0.962 . S
C1580 C508 0.940 . S
C1591 C599 0.830 . S
C1596 C994 0.879 . S
C1607 C437 0.962 . S
C1612 C1048 0.945 . S
C1623 C1102 0.952 . S
C1628 C59 0.957 . S
C1639 C167 0.963 . S
C1644 C1156 0.943 . S
C1655 C1210 0.870 . S
C1660 C130 0.929 . S
C1671 C1247 0.961 . S
C1676 C22 0.943 . S
C1687 C445 1.823 . S
C1692 C28 2.059 . S
C1703 C89 2.109 . S
C1708 C607 1.916 . S
C1719 C136 2.102 . S
C1724 C518 1.904 . S
C1735 C197 2.059 . S
C1740 C553 1.824 . S
C1751 C251 2.077 . S
C1756 C32 1.855 . S
C1767 C298 2.058 . S
C1772 C67 1.821 . S
C1783 C140 1.830 . S
C1788 C352 2.063 . S
C1799 C413 2.099 . S
C1804 C175 1.896 . S
C1815 C229 1.905 . S
C1820 C467 2.102 . S
C1831 C514 2.068 . S
C1836 C356 1.838 . S
C1847 C391 1.827 . S
C1852 C575 2.061 . S
C1863 C302 1.899 . S
C1868 C629 2.100 . S
C1879 C1093 1.821 . S
C1884 C676 2.058 . S
C1895 C737 2.110 . S
C1900 C1274 1.918 . S
C1911 C1147 1.863 . S
C1916 C784 2.079 . S
C1927 C845 2.103 . S
C1932 C1201 1.904 . S
C1943 C680 1.831 . S
C1948 C892 2.063 . S
C1959 C715 1.915 . S
C1964 C953 2.108 . S
C1975 C1007 2.103 . S
C1980 C788 1.905 . S
C1991 C823 1.889 . S
C1996 C1061 2.093 . S
C2007 C896 1.893 . S
C2012 C1115 2.096 . S
C2023 C1169 2.063 . S
C2028 C985 1.833 . S
C2039 C1223 2.058 . S
C2044 C1039 1.821 . S
C2055 C1270 2.110 . S
C2060 C931 1.918 . S
C2071 C27 1.185 . S
C2076 C622 1.188 . S
C2087 C460 1.127 . S
C2092 C64 1.202 1_554 S
C2103 C135 1.140 . S
C2108 C568 1.135 . S
C2119 C172 1.167 1_556 S
C2124 C521 1.078 . S
C2135 C143 1.090 . S
C2140 C226 1.184 . S
C2151 C190 1.118 . S
C2156 C297 1.200 1_655 S
C2167 C35 1.103 . S
C2172 C351 1.140 1_455 S
C2183 C388 1.146 . S
C2188 C82 1.153 . S
C2199 C406 1.146 . S
C2204 C442 1.143 . S
C2215 C513 1.168 1_565 S
C2220 C305 1.078 . S
C2231 C244 1.146 . S
C2236 C550 1.143 1_545 S
C2247 C604 1.160 . S
C2252 C359 1.176 . S
C2263 C1277 1.185 . S
C2268 C675 1.192 . S
C2279 C1108 1.087 . S
C2284 C712 1.182 1_556 S
C2295 C1216 1.087 . S
C2300 C783 1.147 . S
C2311 C1162 1.092 . S
C2316 C820 1.144 1_554 S
C2327 C891 1.145 . S
C2332 C791 1.089 . S
C2343 C928 1.139 1_455 S
C2348 C838 1.108 . S
C2359 C982 1.198 1_655 S
C2364 C683 1.179 . S
C2375 C1036 1.139 . S
C2380 C730 1.129 . S
C2391 C1054 1.185 . S
C2396 C1090 1.171 . S
C2407 C946 1.151 . S
C2412 C1144 1.205 1_545 S
C2423 C899 1.161 . S
C2428 C1198 1.205 1_565 S
C2439 C1000 1.082 . S
C2444 C1269 1.176 . S
C2455 C1215 2.197 . S
C2460 C13 2.180 . S
C2471 C1161 2.195 . S
C2476 C86 2.175 . S
C2487 C121 2.149 . S
C2492 C1252 2.169 . S
C2503 C1107 2.173 . S
C2508 C194 2.167 . S
C2519 C248 2.150 . S
C2524 C729 2.170 . S
C2535 C658 2.171 . S
C2540 C283 2.163 . S
C2551 C337 2.150 . S
C2556 C837 2.170 . S
C2567 C410 2.188 . S
C2572 C766 2.196 . S
C2583 C999 2.191 . S
C2588 C464 2.186 . S
C2599 C874 2.196 . S
C2604 C499 2.177 . S
C2615 C572 2.180 . S
C2620 C945 2.184 . S
C2631 C626 2.165 . S
C2636 C1053 2.187 . S
C2647 C661 2.188 . S
C2652 C567 2.194 . S
C2663 C734 2.163 . S
C2668 C496 2.185 . S
C2679 C621 2.189 . S
C2684 C769 2.184 . S
C2695 C459 2.191 . S
C2700 C842 2.170 . S
C2711 C877 2.165 . S
C2716 C81 2.188 . S
C2727 C950 2.183 . S
C2732 C10 2.188 . S
C2743 C1004 2.172 . S
C2748 C189 2.193 . S
C2759 C1058 2.187 . S
C2764 C118 2.199 . S
C2775 C1112 2.173 . S
C2780 C334 2.178 . S
C2791 C1166 2.158 . S
C2796 C243 2.168 . S
C2807 C1220 2.159 . S
C2812 C280 2.182 . S
C2823 C405 2.198 . S
C2828 C1255 2.181 . S
