# Generated by pormake.
# Topology bcu-h, (3)-cn, num edge types: 1
# Building blocks:
#     Node 0, Type 0, BuildingBlock: OLANEW_clean_sbu_2, # of connection points: 3
#     Node 1, Type 0, BuildingBlock: OLANEW_clean_sbu_2, # of connection points: 3
#     Node 2, Type 0, BuildingBlock: OLANEW_clean_sbu_2, # of connection points: 3
#     Node 3, Type 0, BuildingBlock: OLANEW_clean_sbu_2, # of connection points: 3
#     Node 4, Type 0, BuildingBlock: OLANEW_clean_sbu_2, # of connection points: 3
#     Node 5, Type 0, BuildingBlock: OLANEW_clean_sbu_2, # of connection points: 3
#     Node 6, Type 0, BuildingBlock: OLANEW_clean_sbu_2, # of connection points: 3
#     Node 7, Type 0, BuildingBlock: OLANEW_clean_sbu_2, # of connection points: 3
#     Node 8, Type 0, BuildingBlock: OLANEW_clean_sbu_2, # of connection points: 3
#     Node 9, Type 0, BuildingBlock: OLANEW_clean_sbu_2, # of connection points: 3
#     Node 10, Type 0, BuildingBlock: OLANEW_clean_sbu_2, # of connection points: 3
#     Node 11, Type 0, BuildingBlock: OLANEW_clean_sbu_2, # of connection points: 3
#     Node 12, Type 0, BuildingBlock: OLANEW_clean_sbu_2, # of connection points: 3
#     Node 13, Type 0, BuildingBlock: OLANEW_clean_sbu_2, # of connection points: 3
#     Node 14, Type 0, BuildingBlock: OLANEW_clean_sbu_2, # of connection points: 3
#     Node 15, Type 0, BuildingBlock: OLANEW_clean_sbu_2, # of connection points: 3
#     Edge 16, Type (0, 0), BuildingBlock: XUDNAN_clean_linker_2, # of connection points: 2
#     Edge 17, Type (0, 0), BuildingBlock: XUDNAN_clean_linker_2, # of connection points: 2
#     Edge 18, Type (0, 0), BuildingBlock: XUDNAN_clean_linker_2, # of connection points: 2
#     Edge 19, Type (0, 0), BuildingBlock: XUDNAN_clean_linker_2, # of connection points: 2
#     Edge 20, Type (0, 0), BuildingBlock: XUDNAN_clean_linker_2, # of connection points: 2
#     Edge 21, Type (0, 0), BuildingBlock: XUDNAN_clean_linker_2, # of connection points: 2
#     Edge 22, Type (0, 0), BuildingBlock: XUDNAN_clean_linker_2, # of connection points: 2
#     Edge 23, Type (0, 0), BuildingBlock: XUDNAN_clean_linker_2, # of connection points: 2
#     Edge 24, Type (0, 0), BuildingBlock: XUDNAN_clean_linker_2, # of connection points: 2
#     Edge 25, Type (0, 0), BuildingBlock: XUDNAN_clean_linker_2, # of connection points: 2
#     Edge 26, Type (0, 0), BuildingBlock: XUDNAN_clean_linker_2, # of connection points: 2
#     Edge 27, Type (0, 0), BuildingBlock: XUDNAN_clean_linker_2, # of connection points: 2
#     Edge 28, Type (0, 0), BuildingBlock: XUDNAN_clean_linker_2, # of connection points: 2
#     Edge 29, Type (0, 0), BuildingBlock: XUDNAN_clean_linker_2, # of connection points: 2
#     Edge 30, Type (0, 0), BuildingBlock: XUDNAN_clean_linker_2, # of connection points: 2
#     Edge 31, Type (0, 0), BuildingBlock: XUDNAN_clean_linker_2, # of connection points: 2
#     Edge 32, Type (0, 0), BuildingBlock: XUDNAN_clean_linker_2, # of connection points: 2
#     Edge 33, Type (0, 0), BuildingBlock: XUDNAN_clean_linker_2, # of connection points: 2
#     Edge 34, Type (0, 0), BuildingBlock: XUDNAN_clean_linker_2, # of connection points: 2
#     Edge 35, Type (0, 0), BuildingBlock: XUDNAN_clean_linker_2, # of connection points: 2
#     Edge 36, Type (0, 0), BuildingBlock: XUDNAN_clean_linker_2, # of connection points: 2
#     Edge 37, Type (0, 0), BuildingBlock: XUDNAN_clean_linker_2, # of connection points: 2
#     Edge 38, Type (0, 0), BuildingBlock: XUDNAN_clean_linker_2, # of connection points: 2
#     Edge 39, Type (0, 0), BuildingBlock: XUDNAN_clean_linker_2, # of connection points: 2
# Relax obj value: 0.003
# Max RMSD: 0.057
# Mean RMSD: 0.057
data_MOF--net-bcu-h--node1-OLANEW_clean_sbu_2--edge1-XUDNAN_clean_linker_2
_symmetry_space_group_name_H-M    P1
_symmetry_Int_Tables_number       1
_symmetry_cell_setting            triclinic
loop_
_symmetry_equiv_pos_as_xyz
'x, y, z'
_cell_length_a     59.604708
_cell_length_b     59.11343
_cell_length_c     47.052497
_cell_angle_alpha  89.837969
_cell_angle_beta   90.400396
_cell_angle_gamma 89.940464
loop_
_atom_site_label
_atom_site_type_symbol
_atom_site_fract_x
_atom_site_fract_y
_atom_site_fract_z
_atom_type_partial_charge
O0 O 0.59704 0.00944 0.19762 0.0
Cd1 Cd 0.61877 0.0017 0.15479 0.0
O2 O 0.60925 0.04444 0.20097 0.0
Cd3 Cd 0.63415 0.04037 0.16762 0.0
O4 O 0.66655 0.03735 0.14667 0.0
C5 C 0.682 0.05074 0.1547 0.0
O6 O 0.67744 0.06592 0.17419 0.0
C7 C 0.59671 0.02859 0.20988 0.0
C8 C 0.5899 -0.00185 0.10811 0.0
O9 O 0.59556 0.98065 0.12264 0.0
O10 O 0.5982 0.01729 0.11539 0.0
O11 O 0.47893 0.59129 0.60919 0.0
Cd12 Cd 0.49875 0.60761 0.56865 0.0
O13 O 0.44785 0.58837 0.58394 0.0
Cd14 Cd 0.45856 0.61526 0.55519 0.0
O15 O 0.46164 0.65174 0.54873 0.0
C16 C 0.44592 0.66337 0.55953 0.0
O17 O 0.42928 0.65271 0.57189 0.0
C18 C 0.45905 0.58379 0.60634 0.0
C19 C 0.50474 0.5739 0.52781 0.0
O20 O 0.51997 0.57791 0.54647 0.0
O21 O 0.48698 0.58611 0.52809 0.0
O22 O 0.88082 0.4561 0.18981 0.0
Cd23 Cd 0.85405 0.46772 0.15276 0.0
O24 O 0.89385 0.42781 0.16445 0.0
Cd25 Cd 0.86594 0.43017 0.13444 0.0
O26 O 0.83171 0.42956 0.11775 0.0
C27 C 0.82585 0.4157 0.0985 0.0
O28 O 0.84098 0.40213 0.08762 0.0
C29 C 0.89487 0.4401 0.18657 0.0
C30 C 0.87605 0.49289 0.11112 0.0
O31 O 0.86612 0.50269 0.1318 0.0
O32 O 0.87526 0.47127 0.10989 0.0
O33 O -0.00225 0.89009 0.60904 0.0
Cd34 Cd 0.97728 0.873 0.56927 0.0
O35 O 0.02528 0.90128 0.58143 0.0
Cd36 Cd 0.01593 0.87549 0.55046 0.0
O37 O 0.01235 0.83902 0.54444 0.0
C38 C 0.02449 0.82731 0.56124 0.0
O39 O 0.03794 0.83791 0.57899 0.0
C40 C 0.01556 0.90155 0.60542 0.0
C41 C 0.95952 0.90735 0.53488 0.0
O42 O 0.94787 0.89849 0.5548 0.0
O43 O 0.97935 0.89969 0.53089 0.0
O44 O 0.10328 0.95871 0.78984 0.0
Cd45 Cd 0.1234 0.96064 0.83539 0.0
O46 O 0.09019 0.92452 0.79802 0.0
Cd47 Cd 0.11316 0.91975 0.83376 0.0
O48 O 0.1458 0.91593 0.85447 0.0
C49 C 0.15149 0.89775 0.86707 0.0
O50 O 0.13691 0.88117 0.86898 0.0
C51 C 0.09091 0.94216 0.7825 0.0
C52 C 0.09426 0.97215 0.87931 0.0
O53 O 0.10537 0.98739 0.86604 0.0
O54 O 0.0971 0.9515 0.872 0.0
O55 O 0.50438 0.07258 0.39643 0.0
Cd56 Cd 0.48828 0.08953 0.43894 0.0
O57 O 0.52363 0.10272 0.38382 0.0
Cd58 Cd 0.51199 0.12622 0.41629 0.0
O59 O 0.51078 0.16262 0.42434 0.0
C60 C 0.51827 0.17412 0.40361 0.0
O61 O 0.52537 0.16329 0.38103 0.0
C62 C 0.51796 0.08226 0.37964 0.0
C63 C 0.46639 0.05605 0.4702 0.0
O64 O 0.4558 0.06795 0.45165 0.0
O65 O 0.48725 0.06026 0.4743 0.0
O66 O 0.39409 0.55397 0.80301 0.0
Cd67 Cd 0.37732 0.55716 0.85016 0.0
O68 O 0.36933 0.52911 0.7879 0.0
Cd69 Cd 0.34928 0.53002 0.82645 0.0
O70 O 0.31944 0.53271 0.85281 0.0
C71 C 0.30092 0.53405 0.83936 0.0
O72 O 0.30117 0.53366 0.81144 0.0
C73 C 0.3867 0.54104 0.78352 0.0
C74 C 0.39911 0.52958 0.88981 0.0
O75 O 0.40592 0.54977 0.88494 0.0
O76 O 0.38192 0.52246 0.87598 0.0
O77 O 0.95508 0.40284 0.38498 0.0
Cd78 Cd 0.95991 0.39082 0.43437 0.0
O79 O 0.97861 0.37752 0.36834 0.0
Cd80 Cd 0.98038 0.35756 0.40743 0.0
O81 O 0.97459 0.323 0.42223 0.0
C82 C -0.01017 0.31063 0.43317 0.0
O83 O 0.00974 0.31936 0.43809 0.0
C84 C 0.96584 0.39448 0.36427 0.0
C85 C 0.96564 0.42852 0.46928 0.0
O86 O 0.98255 0.41848 0.4583 0.0
O87 O 0.94605 0.42057 0.46399 0.0
O88 O 0.42932 0.93422 0.90285 0.0
Cd89 Cd 0.4291 0.93879 0.95446 0.0
O90 O 0.39303 0.93134 0.90792 0.0
Cd91 Cd 0.35818 0.92478 0.89565 0.0
O92 O 0.32229 0.9182 0.89133 0.0
C93 C 0.31398 0.90053 0.90254 0.0
O94 O 0.32735 0.88637 0.91603 0.0
C95 C 0.41002 0.93161 0.8917 0.0
C96 C 0.46774 0.95783 0.9779 0.0
O97 O 0.46549 0.93631 0.97617 0.0
O98 O 0.45192 0.97033 0.96796 0.0
O99 O 0.5735 0.41956 0.32998 0.0
Cd100 Cd 0.56721 0.40881 0.3795 0.0
O101 O 0.54241 0.40287 0.31585 0.0
Cd102 Cd 0.53588 0.38572 0.35616 0.0
O103 O 0.53039 0.35441 0.37997 0.0
C104 C 0.53481 0.33666 0.36589 0.0
O105 O 0.54226 0.33892 0.33981 0.0
C106 C 0.55953 0.41488 0.31031 0.0
C107 C 0.54754 0.44442 0.40916 0.0
O108 O 0.56887 0.44162 0.4094 0.0
O109 O 0.53556 0.43027 0.39514 0.0
O110 O 0.02515 0.56164 0.89941 0.0
Cd111 Cd 0.0274 0.56242 0.95128 0.0
O112 O 0.0611 0.55474 0.90235 0.0
Cd113 Cd 0.09562 0.55078 0.88768 0.0
O114 O 0.13168 0.54769 0.88088 0.0
C115 C 0.1447 0.54746 0.90239 0.0
O116 O 0.136 0.54902 0.9279 0.0
C117 C 0.04368 0.55789 0.88707 0.0
C118 C 0.98748 0.5533 0.97957 0.0
O119 O -0.00713 0.57361 0.97288 0.0
O120 O 0.00073 0.53728 0.97226 0.0
O121 O 0.9306 0.06899 0.32872 0.0
Cd122 Cd 0.93408 0.07875 0.37903 0.0
O123 O 0.95411 0.09569 0.31567 0.0
Cd124 Cd 0.95902 0.1105 0.35779 0.0
O125 O 0.96718 0.13741 0.38793 0.0
C126 C 0.95431 0.15455 0.38858 0.0
O127 O 0.93617 0.15461 0.37254 0.0
C128 C 0.94137 0.07919 0.30929 0.0
C129 C 0.93248 0.04051 0.41393 0.0
O130 O 0.9146 0.05159 0.40768 0.0
O131 O 0.95109 0.04753 0.40366 0.0
O132 O 0.96067 0.06921 0.09149 0.0
Cd133 Cd 0.96161 0.07401 0.03988 0.0
O134 O 0.926 0.05849 0.08453 0.0
Cd135 Cd 0.8915 0.04973 0.09555 0.0
O136 O 0.85575 0.0426 0.09964 0.0
C137 C 0.84335 0.05558 0.11423 0.0
O138 O 0.85247 0.07298 0.1272 0.0
C139 C 0.94211 0.06253 0.10165 0.0
C140 C -0.00973 0.04438 0.0118 0.0
O141 O -0.00321 0.06429 0.01874 0.0
O142 O 0.97035 0.03838 0.01858 0.0
O143 O 0.40853 0.89854 0.66805 0.0
Cd144 Cd 0.4159 0.88673 0.61923 0.0
O145 O 0.43934 0.88295 0.68512 0.0
Cd146 Cd 0.44735 0.86574 0.64541 0.0
O147 O 0.45264 0.83739 0.61645 0.0
C148 C 0.4379 0.82187 0.61669 0.0
O149 O 0.42026 0.82434 0.633 0.0
C150 C 0.42174 0.89471 0.68887 0.0
C151 C 0.42045 0.92432 0.58369 0.0
O152 O 0.40131 0.91496 0.58742 0.0
O153 O 0.43748 0.91578 0.59661 0.0
O154 O 0.54487 0.43608 0.09287 0.0
Cd155 Cd 0.54346 0.43209 0.0412 0.0
O156 O 0.58118 0.43628 0.08709 0.0
Cd157 Cd 0.61681 0.43447 0.09828 0.0
O158 O 0.65323 0.43049 0.09793 0.0
C159 C 0.66163 0.41735 0.07949 0.0
O160 O 0.64812 0.40662 0.06195 0.0
C161 C 0.56444 0.43697 0.1037 0.0
C162 C 0.50525 0.44987 0.01496 0.0
O163 O 0.50568 0.42938 0.02396 0.0
O164 O 0.52276 0.46207 0.01893 0.0
O165 O 0.044 0.58071 0.66129 0.0
Cd166 Cd 0.0379 0.59302 0.61219 0.0
O167 O 0.01826 0.60364 0.67815 0.0
Cd168 Cd 0.01276 0.62162 0.63804 0.0
O169 O 0.0105 0.65122 0.61017 0.0
C170 C 0.0236 0.66745 0.61639 0.0
O171 O 0.03764 0.66491 0.63782 0.0
C172 C 0.03271 0.58808 0.68215 0.0
C173 C 0.01561 0.55953 0.58132 0.0
O174 O 0.03709 0.56023 0.58231 0.0
O175 O 0.00469 0.5748 0.59472 0.0
H176 H 0.49947 0.9362 0.01043 0.0
H177 H 0.48018 0.00242 0.97848 0.0
H178 H 0.51141 0.01967 0.00552 0.0
H179 H 0.51181 0.95359 0.07976 0.0
H180 H 0.53529 0.93472 0.08483 0.0
H181 H 0.51307 0.92728 0.06054 0.0
H182 H 0.54192 0.92272 0.01999 0.0
H183 H 0.56428 0.93007 0.04421 0.0
H184 H 0.56051 0.9458 0.01165 0.0
H185 H 0.54312 0.02998 0.03858 0.0
H186 H 0.57232 0.03266 0.07591 0.0
H187 H 0.57027 0.95974 0.08693 0.0
C188 C 0.50207 0.95428 0.00867 0.0
C189 C 0.48748 0.96795 0.9922 0.0
C190 C 0.4912 0.9916 0.99089 0.0
C191 C 0.50892 0.00155 0.00611 0.0
C192 C 0.52276 0.98762 0.02254 0.0
C193 C 0.51955 0.96449 0.02388 0.0
C194 C 0.5358 0.95349 0.04459 0.0
C195 C 0.52324 0.94158 0.06886 0.0
C196 C 0.55157 0.93705 0.02918 0.0
C197 C 0.54835 0.9741 0.05515 0.0
C198 C 0.54077 -0.00641 0.04193 0.0
C199 C 0.54932 0.01481 0.04891 0.0
C200 C 0.56589 0.01616 0.07016 0.0
C201 C 0.57361 -0.00358 0.08433 0.0
C202 C 0.56482 0.97514 0.07642 0.0
H203 H 0.54229 0.54834 0.5172 0.0
H204 H 0.47267 0.55725 0.49172 0.0
H205 H 0.47611 0.52519 0.45854 0.0
H206 H 0.56296 0.53388 0.44725 0.0
H207 H 0.58287 0.51344 0.46067 0.0
H208 H 0.57497 0.53723 0.48225 0.0
H209 H 0.56318 0.50991 0.52264 0.0
H210 H 0.57095 0.48604 0.50114 0.0
H211 H 0.54299 0.48796 0.51528 0.0
H212 H 0.48662 0.49128 0.42956 0.0
H213 H 0.50412 0.45907 0.40478 0.0
H214 H 0.56722 0.47295 0.44795 0.0
C215 C 0.52779 0.54361 0.50456 0.0
C216 C 0.50719 0.55529 0.50708 0.0
C217 C 0.48864 0.5486 0.4901 0.0
C218 C 0.4904 0.53038 0.47124 0.0
C219 C 0.51088 0.51912 0.46943 0.0
C220 C 0.52931 0.52558 0.48544 0.0
C221 C 0.54941 0.51071 0.47932 0.0
C222 C 0.56869 0.52465 0.46661 0.0
C223 C 0.55707 0.4979 0.50619 0.0
C224 C 0.53935 0.49478 0.45754 0.0
C225 C 0.51708 0.49987 0.45224 0.0
C226 C 0.50409 0.48721 0.4334 0.0
C227 C 0.51417 0.46891 0.41949 0.0
C228 C 0.53705 0.46355 0.42434 0.0
C229 C 0.54974 0.47672 0.44364 0.0
H230 H 0.97112 0.51193 -0.00424 0.0
H231 H 0.95826 0.58403 0.0023 0.0
H232 H 0.92643 0.57627 0.03419 0.0
H233 H 0.91194 0.49389 -0.00248 0.0
H234 H 0.91833 0.46902 0.01831 0.0
H235 H 0.93882 0.4802 0.99404 0.0
H236 H 0.9678 0.48279 0.03523 0.0
H237 H 0.94741 0.47173 0.0596 0.0
H238 H 0.96079 0.49847 0.06677 0.0
H239 H 0.89841 0.56084 0.06898 0.0
H240 H 0.87536 0.53876 0.10256 0.0
H241 H 0.90599 0.47678 0.07225 0.0
C242 C 0.9614 0.52609 0.00351 0.0
C243 C 0.96717 0.54859 -0.00349 0.0
C244 C 0.95411 0.56664 0.00728 0.0
C245 C 0.93599 0.56241 0.02541 0.0
C246 C 0.93103 0.54004 0.03232 0.0
C247 C 0.94321 0.52217 0.02149 0.0
C248 C 0.93508 0.49977 0.03319 0.0
C249 C 0.92547 0.48484 0.00934 0.0
C250 C 0.95389 0.48748 0.04968 0.0
C251 C 0.91679 0.50787 0.05287 0.0
C252 C 0.91464 0.53114 0.05199 0.0
C253 C 0.89972 0.54259 0.06955 0.0
C254 C 0.88676 0.52991 0.08861 0.0
C255 C 0.88877 0.50605 0.08987 0.0
C256 C 0.90383 0.49497 0.0715 0.0
H257 H 0.98251 0.93383 0.49715 0.0
H258 H 0.91654 0.92391 0.53363 0.0
H259 H 0.90211 0.95636 0.5057 0.0
H260 H 0.98129 -0.00597 0.49826 0.0
H261 H -0.00395 -0.00272 0.4652 0.0
H262 H 0.00087 0.97265 0.487 0.0
H263 H -0.00951 0.94675 0.44455 0.0
H264 H 0.98569 0.97131 0.42258 0.0
H265 H 0.96387 0.95049 0.42671 0.0
H266 H 0.8951 0.99034 0.47427 0.0
H267 H 0.8962 0.02368 0.44252 0.0
H268 H 0.96702 0.01168 0.42758 0.0
C269 C 0.96497 0.93833 0.49909 0.0
C270 C 0.95061 0.92627 0.51747 0.0
C271 C 0.92784 0.93289 0.51964 0.0
C272 C 0.91948 0.95127 0.50385 0.0
C273 C 0.93414 0.96289 0.48608 0.0
C274 C 0.95641 0.9567 0.48366 0.0
C275 C 0.96885 0.9724 0.46377 0.0
C276 C 0.98788 0.98482 0.4795 0.0
C277 C 0.97774 0.95946 0.43787 0.0
C278 C 0.95013 0.98845 0.45543 0.0
C279 C 0.93021 0.98262 0.46839 0.0
C280 C 0.9106 -0.00496 0.46398 0.0
C281 C 0.9114 0.01395 0.44591 0.0
C282 C 0.93169 0.02032 0.43258 0.0
C283 C 0.95125 0.0073 0.43746 0.0
H284 H 0.08813 0.01369 0.90399 0.0
H285 H 0.06396 0.94444 0.90547 0.0
H286 H 0.03586 0.95497 0.94143 0.0
H287 H 0.08118 0.02435 0.97998 0.0
H288 H 0.0725 0.05326 0.97445 0.0
H289 H 0.09138 0.04002 0.94979 0.0
H290 H 0.06417 0.04961 0.90825 0.0
H291 H 0.04522 0.06284 0.93276 0.0
H292 H 0.03538 0.04041 0.91001 0.0
H293 H 0.00866 0.97363 0.97458 0.0
H294 H 0.98527 -0.00118 0.00397 0.0
H295 H 0.02811 0.05551 0.9822 0.0
C296 C 0.07706 0.00069 0.91204 0.0
C297 C 0.07822 0.97824 0.90189 0.0
C298 C 0.06342 0.96173 0.91298 0.0
C299 C 0.0474 0.96754 0.93341 0.0
C300 C 0.04656 0.98987 0.94275 0.0
C301 C 0.06111 0.00614 0.93262 0.0
C302 C 0.05642 0.02901 0.94574 0.0
C303 C 0.07657 0.03713 0.96355 0.0
C304 C 0.04991 0.04649 0.92282 0.0
C305 C 0.03666 0.02316 0.96441 0.0
C306 C 0.03124 0.00049 0.9624 0.0
C307 C 0.01291 0.99135 0.9766 0.0
C308 C -0.00031 0.00579 0.99317 0.0
C309 C 0.00497 0.02907 -0.00447 0.0
C310 C 0.02385 0.03773 0.98114 0.0
H311 H 0.45868 0.94862 0.57283 0.0
H312 H 0.38753 0.94564 0.55272 0.0
H313 H 0.39139 0.97937 0.52205 0.0
H314 H 0.46277 0.0093 0.57586 0.0
H315 H 0.49018 0.01018 0.55993 0.0
H316 H 0.4818 0.98581 0.58031 0.0
H317 H 0.49025 0.95987 0.53736 0.0
H318 H 0.49869 0.98415 0.51688 0.0
H319 H 0.47703 0.96567 0.50353 0.0
H320 H 0.40311 0.01324 0.49318 0.0
H321 H 0.42186 0.04467 0.46812 0.0
H322 H 0.48524 0.02563 0.50752 0.0
C323 C 0.44389 0.95504 0.56199 0.0
C324 C 0.42279 0.94447 0.56517 0.0
C325 C 0.40387 0.95344 0.55061 0.0
C326 C 0.40589 0.9726 0.53316 0.0
C327 C 0.42692 0.98262 0.53053 0.0
C328 C 0.44559 0.97416 0.54454 0.0
C329 C 0.46629 0.98802 0.53803 0.0
C330 C 0.47581 -0.00102 0.56515 0.0
C331 C 0.48411 0.97356 0.52306 0.0
C332 C 0.45636 0.00558 0.51811 0.0
C333 C 0.43364 0.00218 0.51405 0.0
C334 C 0.42089 0.0161 0.49625 0.0
C335 C 0.4317 0.03391 0.48211 0.0
C336 C 0.45501 0.03766 0.4859 0.0
C337 C 0.46739 0.0233 0.50427 0.0
H338 H 0.50021 0.49199 0.99119 0.0
H339 H 0.46585 0.42794 0.00294 0.0
H340 H 0.43402 0.44207 0.97404 0.0
H341 H 0.4502 0.52795 0.99323 0.0
H342 H 0.46063 0.5469 0.96631 0.0
H343 H 0.47998 0.53225 0.98952 0.0
H344 H 0.50041 0.51583 0.94571 0.0
H345 H 0.4811 0.53033 0.92239 0.0
H346 H 0.48462 0.50013 0.91959 0.0
H347 H 0.40707 0.46227 0.9413 0.0
H348 H 0.38663 0.48739 0.908 0.0
H349 H 0.43856 0.53826 0.91803 0.0
C350 C 0.48588 0.48102 0.98802 0.0
C351 C 0.48551 0.45887 -0.00062 0.0
C352 C 0.46649 0.445 0.99452 0.0
C353 C 0.44832 0.45287 0.97814 0.0
C354 C 0.44939 0.47467 0.9669 0.0
C355 C 0.46761 0.48859 0.97176 0.0
C356 C 0.46499 0.51099 0.95641 0.0
C357 C 0.46388 0.53068 0.97764 0.0
C358 C 0.4839 0.51451 0.93474 0.0
C359 C 0.4426 0.50735 0.94176 0.0
C360 C 0.43383 0.48633 0.94817 0.0
C361 C 0.41368 0.47885 0.93633 0.0
C362 C 0.40222 0.49322 0.91738 0.0
C363 C 0.41095 0.51481 0.91047 0.0
C364 C 0.43135 0.52193 0.92303 0.0
H365 H 0.03418 0.52525 0.55001 0.0
H366 H 0.97024 0.55286 0.57693 0.0
H367 H 0.95049 0.52232 0.55128 0.0
H368 H 0.01619 0.5086 0.47981 0.0
H369 H 0.03285 0.48314 0.47975 0.0
H370 H 0.04191 0.50724 0.50014 0.0
H371 H 0.04373 0.48235 0.54554 0.0
H372 H 0.03462 0.45819 0.52531 0.0
H373 H 0.01921 0.46677 0.55631 0.0
H374 H 0.93772 0.48849 0.52316 0.0
H375 H 0.93284 0.45422 0.49387 0.0
H376 H 0.00514 0.44889 0.48518 0.0
C377 C 0.01602 0.52493 0.55048 0.0
C378 C 0.00376 0.54146 0.5655 0.0
C379 C 0.98001 0.5404 0.56556 0.0
C380 C 0.96863 0.5231 0.55108 0.0
C381 C 0.98124 0.50703 0.5366 0.0
C382 C 0.0044 0.50782 0.53612 0.0
C383 C 0.01398 0.48849 0.51895 0.0
C384 C 0.027 0.49741 0.49313 0.0
C385 C 0.02875 0.47304 0.53765 0.0
C386 C -0.00741 0.47667 0.50991 0.0
C387 C 0.97388 0.48761 0.52032 0.0
C388 C 0.95224 0.47979 0.51486 0.0
C389 C 0.94965 0.46029 0.49822 0.0
C390 C 0.96859 0.44886 0.48722 0.0
C391 C -0.00969 0.45723 0.49325 0.0
H392 H 0.59264 0.06733 0.24124 0.0
H393 H 0.56807 -0.00164 0.23523 0.0
H394 H 0.54483 0.00454 0.27782 0.0
H395 H 0.59677 0.06925 0.3167 0.0
H396 H 0.5878 0.09831 0.31914 0.0
H397 H 0.60195 0.08858 0.28778 0.0
H398 H 0.56864 0.10238 0.25651 0.0
H399 H 0.55441 0.11222 0.28778 0.0
H400 H 0.54068 0.09258 0.26415 0.0
H401 H 0.52483 0.01822 0.32191 0.0
H402 H 0.50941 0.03843 0.36338 0.0
H403 H 0.54738 0.09822 0.33991 0.0
C404 C 0.58231 0.05351 0.24874 0.0
C405 C 0.58219 0.03235 0.23486 0.0
C406 C 0.56844 0.01473 0.24548 0.0
C407 C 0.55518 0.01808 0.26967 0.0
C408 C 0.55585 0.03912 0.28293 0.0
C409 C 0.56902 0.05654 0.27277 0.0
C410 C 0.56698 0.07746 0.29101 0.0
C411 C 0.58973 0.08376 0.30445 0.0
C412 C 0.55708 0.09733 0.27383 0.0
C413 C 0.55068 0.06908 0.31314 0.0
C414 C 0.54441 0.04694 0.30815 0.0
C415 C 0.52959 0.03558 0.32598 0.0
C416 C 0.52094 0.04719 0.3495 0.0
C417 C 0.52716 0.06992 0.35495 0.0
C418 C 0.54224 0.08088 0.33641 0.0
H419 H 0.42521 0.56289 0.76704 0.0
H420 H 0.37183 0.51951 0.73555 0.0
H421 H 0.38699 0.52269 0.68713 0.0
H422 H 0.42531 0.60056 0.71051 0.0
H423 H 0.45527 0.60455 0.70963 0.0
H424 H 0.4419 0.59677 0.74236 0.0
H425 H 0.46793 0.56179 0.74694 0.0
H426 H 0.48148 0.56952 0.71419 0.0
H427 H 0.46933 0.54179 0.71815 0.0
H428 H 0.40464 0.53469 0.64151 0.0
H429 H 0.42508 0.553 0.60215 0.0
H430 H 0.46812 0.58701 0.6632 0.0
C431 C 0.41696 0.55368 0.75008 0.0
C432 C 0.39731 0.54096 0.75514 0.0
C433 C 0.38694 0.52931 0.73228 0.0
C434 C 0.39544 0.53099 0.70466 0.0
C435 C 0.41451 0.54409 0.70028 0.0
C436 C 0.42533 0.555 0.7224 0.0
C437 C 0.4448 0.56904 0.71171 0.0
C438 C 0.44161 0.59421 0.71898 0.0
C439 C 0.46721 0.55998 0.72345 0.0
C440 C 0.44271 0.56495 0.68004 0.0
C441 C 0.42518 0.55043 0.67391 0.0
C442 C 0.41872 0.54568 0.64604 0.0
C443 C 0.43034 0.55621 0.62385 0.0
C444 C 0.44833 0.57115 0.62968 0.0
C445 C 0.45479 0.57523 0.65814 0.0
H446 H 0.93548 0.42661 0.34654 0.0
H447 H 0.98704 0.38111 0.31566 0.0
H448 H 0.97721 0.39146 0.26635 0.0
H449 H 0.89544 0.41325 0.29648 0.0
H450 H 0.88417 0.44138 0.29235 0.0
H451 H 0.89745 0.43325 0.32525 0.0
H452 H 0.92492 0.46704 0.32112 0.0
H453 H 0.9116 0.4754 0.28821 0.0
H454 H 0.94142 0.47036 0.28942 0.0
H455 H 0.95843 0.40242 0.22075 0.0
H456 H 0.9328 0.41431 0.18206 0.0
H457 H 0.89391 0.45329 0.24231 0.0
C458 C 0.94513 0.41928 0.32946 0.0
C459 C 0.96207 0.40308 0.33502 0.0
C460 C 0.97403 0.3936 0.31199 0.0
C461 C 0.96861 0.39942 0.28387 0.0
C462 C 0.95135 0.4149 0.27911 0.0
C463 C 0.93994 0.42491 0.30125 0.0
C464 C 0.92088 0.4396 0.29035 0.0
C465 C 0.89815 0.43136 0.30178 0.0
C466 C 0.92496 0.46458 0.29771 0.0
C467 C 0.92281 0.43558 0.2587 0.0
C468 C 0.94065 0.42147 0.25263 0.0
C469 C 0.94469 0.41383 0.22515 0.0
C470 C 0.92998 0.4206 0.20334 0.0
C471 C 0.91148 0.43487 0.20913 0.0
C472 C 0.90816 0.44274 0.23712 0.0
H473 H 0.01208 0.89135 0.66175 0.0
H474 H 0.04295 0.93864 0.60328 0.0
H475 H 0.06247 0.95712 0.64358 0.0
H476 H 0.00624 0.92993 0.72296 0.0
H477 H 0.01355 0.90809 0.74819 0.0
H478 H -0.00048 0.90083 0.71541 0.0
H479 H 0.03148 0.87268 0.70361 0.0
H480 H 0.0456 0.87987 0.73625 0.0
H481 H 0.06006 0.88261 0.70291 0.0
H482 H 0.08039 0.9688 0.68985 0.0
H483 H 0.09775 0.97083 0.73759 0.0
H484 H 0.05683 0.91426 0.7651 0.0
C485 C 0.0225 0.90596 0.65753 0.0
C486 C 0.02579 0.91382 0.62951 0.0
C487 C 0.04012 0.93249 0.62466 0.0
C488 C 0.05117 0.94314 0.64741 0.0
C489 C 0.04785 0.93473 0.67478 0.0
C490 C 0.03397 0.91647 0.67989 0.0
C491 C 0.0351 0.90916 0.71073 0.0
C492 C 0.01224 0.91219 0.72517 0.0
C493 C 0.04357 0.88463 0.71352 0.0
C494 C 0.05215 0.92586 0.72208 0.0
C495 C 0.05895 0.94077 0.70117 0.0
C496 C 0.07508 0.95731 0.70644 0.0
C497 C 0.08482 0.95835 0.73363 0.0
C498 C 0.07867 0.94268 0.75505 0.0
C499 C 0.06187 0.92649 0.74919 0.0
H500 H 0.4399 0.91176 0.85577 0.0
H501 H 0.37522 0.94538 0.85743 0.0
H502 H 0.37126 0.93998 0.8056 0.0
H503 H 0.45808 0.93499 0.78879 0.0
H504 H 0.4719 0.90936 0.77781 0.0
H505 H 0.46958 0.91589 0.81505 0.0
H506 H 0.45018 0.8773 0.82391 0.0
H507 H 0.45249 0.87064 0.78672 0.0
H508 H 0.42546 0.87001 0.80363 0.0
H509 H 0.3745 0.93094 0.75346 0.0
H510 H 0.38419 0.9181 0.70517 0.0
H511 H 0.4469 0.89051 0.73771 0.0
C512 C 0.42492 0.918 0.84519 0.0
C513 C 0.40763 0.92856 0.86067 0.0
C514 C 0.38831 0.93656 0.84613 0.0
C515 C 0.38605 0.93382 0.81664 0.0
C516 C 0.40331 0.92312 0.80203 0.0
C517 C 0.42236 0.91531 0.81581 0.0
C518 C 0.43832 0.90413 0.79526 0.0
C519 C 0.4608 0.91686 0.79417 0.0
C520 C 0.44181 0.87903 0.80284 0.0
C521 C 0.42526 0.90684 0.76775 0.0
C522 C 0.40516 0.91792 0.77207 0.0
C523 C 0.39021 0.92226 0.74981 0.0
C524 C 0.39588 0.91491 0.72245 0.0
C525 C 0.41631 0.90328 0.71759 0.0
C526 C 0.43117 0.89936 0.74064 0.0
H527 H 0.53622 0.41961 0.14348 0.0
H528 H 0.59886 0.45612 0.13449 0.0
H529 H 0.60404 0.45557 0.18666 0.0
H530 H 0.51811 0.44754 0.20804 0.0
H531 H 0.50597 0.42218 0.22268 0.0
H532 H 0.50705 0.42606 0.18472 0.0
H533 H 0.52825 0.38797 0.17975 0.0
H534 H 0.52721 0.38398 0.21765 0.0
H535 H 0.55381 0.38344 0.19968 0.0
H536 H 0.60266 0.45002 0.24007 0.0
H537 H 0.59515 0.4395 0.29 0.0
H538 H 0.53314 0.40707 0.26348 0.0
C539 C 0.55096 0.42763 0.1525 0.0
C540 C 0.56738 0.43752 0.13491 0.0
C541 C 0.58644 0.44781 0.14749 0.0
C542 C 0.58937 0.44782 0.17713 0.0
C543 C 0.57301 0.4376 0.19385 0.0
C544 C 0.55416 0.42774 0.18196 0.0
C545 C 0.53934 0.41735 0.20446 0.0
C546 C 0.51625 0.42899 0.205 0.0
C547 C 0.53703 0.39166 0.20012 0.0
C548 C 0.55288 0.42272 0.23089 0.0
C549 C 0.57218 0.43452 0.22441 0.0
C550 C 0.58754 0.44088 0.2454 0.0
C551 C 0.58312 0.43483 0.2737 0.0
C552 C 0.56354 0.42248 0.28073 0.0
C553 C 0.54821 0.41658 0.25893 0.0
H554 H 0.0178 0.58261 0.85039 0.0
H555 H 0.07174 0.53334 0.85291 0.0
H556 H 0.07436 0.53499 0.80055 0.0
H557 H -0.00887 0.56184 0.78603 0.0
H558 H 0.98383 0.58974 0.77345 0.0
H559 H 0.986 0.58426 0.81105 0.0
H560 H 0.01487 0.61679 0.81612 0.0
H561 H 0.01279 0.62236 0.77857 0.0
H562 H 0.03976 0.61658 0.79456 0.0
H563 H 0.07142 0.54266 0.74779 0.0
H564 H 0.06357 0.5561 0.69895 0.0
H565 H 0.01128 0.60011 0.73126 0.0
C566 C 0.03008 0.57208 0.83989 0.0
C567 C 0.0449 0.5582 0.85571 0.0
C568 C 0.06074 0.54466 0.84127 0.0
C569 C 0.06215 0.54528 0.81151 0.0
C570 C 0.04751 0.55943 0.79655 0.0
C571 C 0.03176 0.57256 0.81027 0.0
C572 C 0.01832 0.5867 0.78936 0.0
C573 C -0.00666 0.58024 0.79002 0.0
C574 C 0.02165 0.61211 0.79499 0.0
C575 C 0.02908 0.57961 0.76175 0.0
C576 C 0.04579 0.56378 0.76629 0.0
C577 C 0.05831 0.555 0.74397 0.0
C578 C 0.05372 0.56274 0.71629 0.0
C579 C 0.0368 0.57916 0.7112 0.0
C580 C 0.02429 0.58752 0.73434 0.0
H581 H 0.96323 0.08734 0.14257 0.0
H582 H 0.91514 0.03307 0.13106 0.0
H583 H 0.90975 0.03109 0.18305 0.0
H584 H -0.01109 0.06521 0.20668 0.0
H585 H -0.00735 0.09275 0.22235 0.0
H586 H -0.00731 0.08969 0.18428 0.0
H587 H 0.96076 0.11934 0.17997 0.0
H588 H 0.96062 0.12249 0.21801 0.0
H589 H 0.93513 0.1151 0.1994 0.0
H590 H 0.90954 0.03542 0.23664 0.0
H591 H 0.91424 0.0459 0.28718 0.0
H592 H 0.96282 0.09706 0.26307 0.0
C593 C 0.95163 0.07497 0.151 0.0
C594 C 0.93923 0.06068 0.13276 0.0
C595 C 0.92423 0.04471 0.14457 0.0
C596 C 0.92127 0.04328 0.1741 0.0
C597 C 0.93354 0.05786 0.19149 0.0
C598 C 0.94845 0.07337 0.18035 0.0
C599 C 0.95939 0.08732 0.20351 0.0
C600 C 0.98492 0.0835 0.20424 0.0
C601 C 0.95362 0.11255 0.20001 0.0
C602 C 0.94827 0.0773 0.22945 0.0
C603 C 0.93347 0.06027 0.22215 0.0
C604 C 0.92112 0.04869 0.2426 0.0
C605 C 0.92391 0.05477 0.27126 0.0
C606 C 0.93889 0.0723 0.27916 0.0
C607 C 0.95124 0.08357 0.25784 0.0
H608 H 0.81242 0.07923 0.1452 0.0
H609 H 0.819 0.02248 0.08743 0.0
H610 H 0.7782 0.01575 0.09026 0.0
H611 H 0.77125 0.05408 0.19018 0.0
H612 H 0.75619 0.08013 0.19579 0.0
H613 H 0.78581 0.08076 0.18861 0.0
H614 H 0.77861 0.10774 0.14597 0.0
H615 H 0.74895 0.10713 0.15298 0.0
H616 H 0.7592 0.09947 0.11836 0.0
H617 H 0.73664 0.01499 0.09981 0.0
H618 H 0.69768 0.01964 0.11643 0.0
H619 H 0.71856 0.07675 0.16806 0.0
C620 C 0.80531 0.0654 0.13308 0.0
C621 C 0.81892 0.0514 0.11607 0.0
C622 C 0.80892 0.03344 0.10062 0.0
C623 C 0.78575 0.0295 0.10204 0.0
C624 C 0.77282 0.04366 0.11899 0.0
C625 C 0.78225 0.06121 0.13429 0.0
C626 C 0.76473 0.07369 0.15132 0.0
C627 C 0.7698 0.07205 0.18337 0.0
C628 C 0.76276 0.09847 0.14156 0.0
C629 C 0.74399 0.06033 0.14337 0.0
C630 C 0.74897 0.04314 0.12459 0.0
C631 C 0.73253 0.02841 0.11448 0.0
C632 C 0.71045 0.0312 0.12402 0.0
C633 C 0.70505 0.04855 0.14355 0.0
C634 C 0.7221 0.06334 0.15311 0.0
H635 H 0.41116 0.78434 0.6171 0.0
H636 H 0.47288 0.81071 0.58158 0.0
H637 H 0.48017 0.77363 0.55922 0.0
H638 H 0.43216 0.73135 0.63561 0.0
H639 H 0.40685 0.71607 0.6271 0.0
H640 H 0.40528 0.74528 0.63745 0.0
H641 H 0.38386 0.75487 0.5908 0.0
H642 H 0.3853 0.7256 0.58033 0.0
H643 H 0.39597 0.74732 0.55712 0.0
H644 H 0.48226 0.73251 0.54432 0.0
H645 H 0.47897 0.69106 0.53838 0.0
H646 H 0.41588 0.69221 0.58391 0.0
C647 C 0.42602 0.78251 0.6042 0.0
C648 C 0.44142 0.80047 0.60103 0.0
C649 C 0.4608 0.79721 0.58424 0.0
C650 C 0.46506 0.77623 0.57141 0.0
C651 C 0.44972 0.75873 0.57545 0.0
C652 C 0.43053 0.76173 0.59134 0.0
C653 C 0.41743 0.73993 0.59407 0.0
C654 C 0.41532 0.73274 0.62541 0.0
C655 C 0.39427 0.74207 0.57971 0.0
C656 C 0.43252 0.72404 0.57784 0.0
C657 C 0.45095 0.73518 0.56699 0.0
C658 C 0.46775 0.72367 0.55244 0.0
C659 C 0.46575 0.70013 0.54919 0.0
C660 C 0.44714 0.68838 0.5606 0.0
C661 C 0.43023 0.70066 0.57472 0.0
H662 H 0.78993 0.43833 0.1209 0.0
H663 H 0.80772 0.38866 0.05705 0.0
H664 H 0.76764 0.3842 0.04456 0.0
H665 H 0.74075 0.41069 0.14499 0.0
H666 H 0.72518 0.43644 0.15051 0.0
H667 H 0.75531 0.43656 0.15345 0.0
H668 H 0.75743 0.46848 0.11568 0.0
H669 H 0.72728 0.46854 0.11272 0.0
H670 H 0.74417 0.46451 0.08151 0.0
H671 H 0.72552 0.38436 0.04008 0.0
H672 H 0.68451 0.38933 0.0436 0.0
H673 H 0.69442 0.43861 0.1108 0.0
C674 C 0.78546 0.42666 0.1041 0.0
C675 C 0.80199 0.41387 0.0899 0.0
C676 C 0.79537 0.39867 0.06819 0.0
C677 C 0.77265 0.39601 0.06095 0.0
C678 C 0.75678 0.40869 0.07561 0.0
C679 C 0.7629 0.42375 0.09667 0.0
C680 C 0.74256 0.43493 0.10968 0.0
C681 C 0.74086 0.42931 0.14154 0.0
C682 C 0.74288 0.46064 0.10458 0.0
C683 C 0.72401 0.42368 0.09279 0.0
C684 C 0.73255 0.40866 0.07317 0.0
C685 C 0.71864 0.39613 0.0553 0.0
C686 C 0.69536 0.39906 0.05749 0.0
C687 C 0.68623 0.41436 0.07748 0.0
C688 C 0.70084 0.42678 0.09531 0.0
H689 H 0.04766 0.70576 0.62749 0.0
H690 H -0.00408 0.67906 0.57159 0.0
H691 H -0.00798 0.71669 0.5489 0.0
H692 H 0.0221 0.75822 0.63977 0.0
H693 H 0.04795 0.774 0.64048 0.0
H694 H 0.0479 0.7446 0.65046 0.0
H695 H 0.07819 0.73623 0.61261 0.0
H696 H 0.07838 0.76566 0.60256 0.0
H697 H 0.07316 0.74425 0.57612 0.0
H698 H -0.00772 0.75822 0.53449 0.0
H699 H -0.0034 0.79972 0.52988 0.0
H700 H 0.04807 0.79843 0.59559 0.0
C701 C 0.0357 0.70767 0.61022 0.0
C702 C 0.02213 0.68943 0.60127 0.0
C703 C 0.00655 0.69278 0.57875 0.0
C704 C 0.00424 0.71408 0.56572 0.0
C705 C 0.01768 0.7318 0.57538 0.0
C706 C 0.03317 0.72874 0.59707 0.0
C707 C 0.04486 0.75064 0.60457 0.0
C708 C 0.04042 0.75725 0.63565 0.0
C709 C 0.07014 0.7491 0.5986 0.0
C710 C 0.03328 0.76664 0.58407 0.0
C711 C 0.01777 0.7555 0.56723 0.0
C712 C 0.00452 0.76706 0.54741 0.0
C713 C 0.00707 0.79063 0.54495 0.0
C714 C 0.0227 0.80234 0.56233 0.0
C715 C 0.03606 0.79002 0.58187 0.0
H716 H 0.18689 0.92671 0.86005 0.0
H717 H 0.16906 0.86169 0.89659 0.0
H718 H 0.20862 0.85566 0.91079 0.0
H719 H 0.23863 0.9094 0.83088 0.0
H720 H 0.25286 0.93565 0.83824 0.0
H721 H 0.22297 0.93546 0.83255 0.0
H722 H 0.21708 0.95482 0.8813 0.0
H723 H 0.24699 0.9552 0.88708 0.0
H724 H 0.22892 0.94212 0.9129 0.0
H725 H 0.25048 0.8562 0.9194 0.0
H726 H 0.29125 0.86339 0.92212 0.0
H727 H 0.28143 0.92781 0.8792 0.0
C728 C 0.1912 0.9113 0.87133 0.0
C729 C 0.17484 0.89469 0.87729 0.0
C730 C 0.18128 0.87468 0.89185 0.0
C731 C 0.20371 0.87109 0.9 0.0
C732 C 0.21946 0.88769 0.89341 0.0
C733 C 0.21347 0.90741 0.87948 0.0
C734 C 0.23367 0.92226 0.87408 0.0
C735 C 0.23724 0.9259 0.84203 0.0
C736 C 0.23153 0.94494 0.88978 0.0
C737 C 0.25203 0.90773 0.88693 0.0
C738 C 0.2435 0.8879 0.8981 0.0
C739 C 0.25733 0.87171 0.91082 0.0
C740 C 0.28047 0.87594 0.91223 0.0
C741 C 0.28956 0.89616 0.90086 0.0
C742 C 0.27505 0.91219 0.88807 0.0
H743 H 0.5424 0.29621 0.33992 0.0
H744 H 0.51895 0.32531 0.41894 0.0
H745 H 0.51232 0.28677 0.43794 0.0
H746 H 0.50287 0.25119 0.33652 0.0
H747 H 0.52256 0.23131 0.32184 0.0
H748 H 0.52581 0.26111 0.31506 0.0
H749 H 0.56635 0.25955 0.33537 0.0
H750 H 0.56324 0.22973 0.34216 0.0
H751 H 0.5711 0.24849 0.37066 0.0
H752 H 0.50774 0.24441 0.44767 0.0
H753 H 0.50599 0.20252 0.44726 0.0
H754 H 0.53256 0.20237 0.3616 0.0
C755 C 0.53594 0.29458 0.36128 0.0
C756 C 0.5312 0.31379 0.37795 0.0
C757 C 0.52273 0.31081 0.40578 0.0
C758 C 0.5189 0.289 0.41674 0.0
C759 C 0.52367 0.27041 0.39959 0.0
C760 C 0.53205 0.27306 0.37247 0.0
C761 C 0.53563 0.25053 0.35809 0.0
C762 C 0.52083 0.24842 0.3313 0.0
C763 C 0.56056 0.24686 0.35118 0.0
C764 C 0.52793 0.2347 0.3813 0.0
C765 C 0.52108 0.24637 0.40512 0.0
C766 C 0.51311 0.23512 0.42913 0.0
C767 C 0.51216 0.21135 0.4287 0.0
C768 C 0.51915 0.19915 0.40442 0.0
C769 C 0.52711 0.21112 0.38054 0.0
H770 H 0.16809 0.54436 0.85253 0.0
H771 H 0.17693 0.54615 0.94419 0.0
H772 H 0.21794 0.54291 0.93823 0.0
H773 H 0.21139 0.50372 0.83857 0.0
H774 H 0.2201 0.51719 0.80606 0.0
H775 H 0.19147 0.5197 0.81762 0.0
H776 H 0.19464 0.56342 0.81569 0.0
H777 H 0.22327 0.56104 0.80413 0.0
H778 H 0.21672 0.57731 0.83533 0.0
H779 H 0.25814 0.5394 0.92212 0.0
H780 H 0.2943 0.536 0.89703 0.0
H781 H 0.25879 0.53662 0.81613 0.0
C782 C 0.17861 0.54406 0.87138 0.0
C783 C 0.16928 0.5455 0.89883 0.0
C784 C 0.18368 0.54507 0.92293 0.0
C785 C 0.20701 0.54323 0.91977 0.0
C786 C 0.21565 0.54185 0.8924 0.0
C787 C 0.20189 0.54225 0.86864 0.0
C788 C 0.21535 0.54054 0.84159 0.0
C789 C 0.20921 0.51901 0.82499 0.0
C790 C 0.21231 0.56185 0.8231 0.0
C791 C 0.23884 0.5391 0.85383 0.0
C792 C 0.2387 0.53987 0.88317 0.0
C793 C 0.25846 0.53878 0.89915 0.0
C794 C 0.27891 0.53685 0.88471 0.0
C795 C 0.27939 0.53604 0.85463 0.0
C796 C 0.25903 0.53719 0.83913 0.0
H797 H 0.93243 0.19524 0.38959 0.0
H798 H -0.00829 0.16088 0.42207 0.0
H799 H 0.00506 0.19679 0.4429 0.0
H800 H 0.95914 0.24343 0.36744 0.0
H801 H 0.93704 0.2628 0.37681 0.0
H802 H 0.93044 0.23389 0.3686 0.0
H803 H 0.91094 0.22936 0.41735 0.0
H804 H 0.91743 0.25838 0.42571 0.0
H805 H 0.92618 0.23604 0.44948 0.0
H806 H 0.01431 0.23733 0.45447 0.0
H807 H 0.01855 0.2789 0.45584 0.0
H808 H 0.95304 0.28643 0.41606 0.0
C809 C 0.94794 0.19509 0.40171 0.0
C810 C 0.96098 0.17521 0.40426 0.0
C811 C 0.98137 0.17587 0.41992 0.0
C812 C -0.01094 0.19618 0.4319 0.0
C813 C 0.97609 0.21563 0.42827 0.0
C814 C 0.95585 0.21518 0.41374 0.0
C815 C 0.94604 0.23869 0.41054 0.0
C816 C 0.94301 0.24507 0.37899 0.0
C817 C 0.92383 0.24073 0.42675 0.0
C818 C 0.96434 0.25256 0.42453 0.0
C819 C 0.98139 0.23896 0.435 0.0
C820 C 0.00087 0.24812 0.44681 0.0
C821 C 0.00316 0.27176 0.44745 0.0
C822 C 0.9861 0.28596 0.43619 0.0
C823 C 0.96626 0.27611 0.42522 0.0
loop_
_geom_bond_atom_site_label_1
_geom_bond_atom_site_label_2
_geom_bond_distance
_geom_bond_site_symmetry_2
_ccdc_geom_bond_type
O0 Cd1 2.300 . S
O0 C7 1.275 . S
Cd1 O0 2.300 . S
Cd1 O9 2.381 . S
Cd1 O10 2.378 . S
O2 Cd3 2.385 . S
O2 C7 1.255 . S
Cd3 O2 2.385 . S
Cd3 O4 2.317 . S
O4 Cd3 2.317 . S
O4 C5 1.232 . S
C5 O4 1.232 . S
C5 O6 1.218 . S
O6 C5 1.218 . S
C7 O0 1.275 . S
C7 O2 1.255 . S
C8 O9 1.258 . S
C8 O10 1.256 . S
O9 Cd1 2.381 . S
O9 C8 1.258 . S
O10 Cd1 2.378 . S
O10 C8 1.256 . S
O11 Cd12 2.300 . S
O11 C18 1.275 . S
Cd12 O11 2.300 . S
Cd12 O20 2.381 . S
Cd12 O21 2.378 . S
O13 Cd14 2.385 . S
O13 C18 1.255 . S
Cd14 O13 2.385 . S
Cd14 O15 2.317 . S
O15 Cd14 2.317 . S
O15 C16 1.232 . S
C16 O15 1.232 . S
C16 O17 1.218 . S
O17 C16 1.218 . S
C18 O11 1.275 . S
C18 O13 1.255 . S
C19 O20 1.258 . S
C19 O21 1.256 . S
O20 Cd12 2.381 . S
O20 C19 1.258 . S
O21 Cd12 2.378 . S
O21 C19 1.256 . S
O22 Cd23 2.300 . S
O22 C29 1.275 . S
Cd23 O22 2.300 . S
Cd23 O31 2.381 . S
Cd23 O32 2.378 . S
O24 Cd25 2.385 . S
O24 C29 1.255 . S
Cd25 O24 2.385 . S
Cd25 O26 2.317 . S
O26 Cd25 2.317 . S
O26 C27 1.232 . S
C27 O26 1.232 . S
C27 O28 1.218 . S
O28 C27 1.218 . S
C29 O22 1.275 . S
C29 O24 1.255 . S
C30 O31 1.258 . S
C30 O32 1.256 . S
O31 Cd23 2.381 . S
O31 C30 1.258 . S
O32 Cd23 2.378 . S
O32 C30 1.256 . S
O33 Cd34 2.300 . S
O33 C40 1.275 . S
Cd34 O33 2.300 . S
Cd34 O42 2.381 . S
Cd34 O43 2.378 . S
O35 Cd36 2.385 . S
O35 C40 1.255 . S
Cd36 O35 2.385 . S
Cd36 O37 2.317 . S
O37 Cd36 2.317 . S
O37 C38 1.232 . S
C38 O37 1.232 . S
C38 O39 1.218 . S
O39 C38 1.218 . S
C40 O33 1.275 . S
C40 O35 1.255 . S
C41 O42 1.258 . S
C41 O43 1.256 . S
O42 Cd34 2.381 . S
O42 C41 1.258 . S
O43 Cd34 2.378 . S
O43 C41 1.256 . S
O44 Cd45 2.300 . S
O44 C51 1.275 . S
Cd45 O44 2.300 . S
Cd45 O53 2.381 . S
Cd45 O54 2.378 . S
O46 Cd47 2.385 . S
O46 C51 1.255 . S
Cd47 O46 2.385 . S
Cd47 O48 2.317 . S
O48 Cd47 2.317 . S
O48 C49 1.232 . S
C49 O48 1.232 . S
C49 O50 1.218 . S
O50 C49 1.218 . S
C51 O44 1.275 . S
C51 O46 1.255 . S
C52 O53 1.258 . S
C52 O54 1.256 . S
O53 Cd45 2.381 . S
O53 C52 1.258 . S
O54 Cd45 2.378 . S
O54 C52 1.256 . S
O55 Cd56 2.300 . S
O55 C62 1.275 . S
Cd56 O55 2.300 . S
Cd56 O64 2.381 . S
Cd56 O65 2.378 . S
O57 Cd58 2.385 . S
O57 C62 1.255 . S
Cd58 O57 2.385 . S
Cd58 O59 2.317 . S
O59 Cd58 2.317 . S
O59 C60 1.232 . S
C60 O59 1.232 . S
C60 O61 1.218 . S
O61 C60 1.218 . S
C62 O55 1.275 . S
C62 O57 1.255 . S
C63 O64 1.258 . S
C63 O65 1.256 . S
O64 Cd56 2.381 . S
O64 C63 1.258 . S
O65 Cd56 2.378 . S
O65 C63 1.256 . S
O66 Cd67 2.300 . S
O66 C73 1.275 . S
Cd67 O66 2.300 . S
Cd67 O75 2.381 . S
Cd67 O76 2.378 . S
O68 Cd69 2.385 . S
O68 C73 1.255 . S
Cd69 O68 2.385 . S
Cd69 O70 2.317 . S
O70 Cd69 2.317 . S
O70 C71 1.232 . S
C71 O70 1.232 . S
C71 O72 1.218 . S
O72 C71 1.218 . S
C73 O66 1.275 . S
C73 O68 1.255 . S
C74 O75 1.258 . S
C74 O76 1.256 . S
O75 Cd67 2.381 . S
O75 C74 1.258 . S
O76 Cd67 2.378 . S
O76 C74 1.256 . S
O77 Cd78 2.300 . S
O77 C84 1.275 . S
Cd78 O77 2.300 . S
Cd78 O86 2.381 . S
Cd78 O87 2.378 . S
O79 Cd80 2.385 . S
O79 C84 1.255 . S
Cd80 O79 2.385 . S
Cd80 O81 2.317 . S
O81 Cd80 2.317 . S
O81 C82 1.232 . S
C82 O81 1.232 . S
C82 O83 1.218 . S
O83 C82 1.218 . S
C84 O77 1.275 . S
C84 O79 1.255 . S
C85 O86 1.258 . S
C85 O87 1.256 . S
O86 Cd78 2.381 . S
O86 C85 1.258 . S
O87 Cd78 2.378 . S
O87 C85 1.256 . S
O88 Cd89 2.300 . S
O88 C95 1.275 . S
Cd89 O88 2.300 . S
Cd89 O97 2.381 . S
Cd89 O98 2.378 . S
O90 Cd91 2.385 . S
O90 C95 1.255 . S
Cd91 O90 2.385 . S
Cd91 O92 2.317 . S
O92 Cd91 2.317 . S
O92 C93 1.232 . S
C93 O92 1.232 . S
C93 O94 1.218 . S
O94 C93 1.218 . S
C95 O88 1.275 . S
C95 O90 1.255 . S
C96 O97 1.258 . S
C96 O98 1.256 . S
O97 Cd89 2.381 . S
O97 C96 1.258 . S
O98 Cd89 2.378 . S
O98 C96 1.256 . S
O99 Cd100 2.300 . S
O99 C106 1.275 . S
Cd100 O99 2.300 . S
Cd100 O108 2.381 . S
Cd100 O109 2.378 . S
O101 Cd102 2.385 . S
O101 C106 1.255 . S
Cd102 O101 2.385 . S
Cd102 O103 2.317 . S
O103 Cd102 2.317 . S
O103 C104 1.232 . S
C104 O103 1.232 . S
C104 O105 1.218 . S
O105 C104 1.218 . S
C106 O99 1.275 . S
C106 O101 1.255 . S
C107 O108 1.258 . S
C107 O109 1.256 . S
O108 Cd100 2.381 . S
O108 C107 1.258 . S
O109 Cd100 2.378 . S
O109 C107 1.256 . S
O110 Cd111 2.300 . S
O110 C117 1.275 . S
Cd111 O110 2.300 . S
Cd111 O119 2.381 . S
Cd111 O120 2.378 . S
O112 Cd113 2.385 . S
O112 C117 1.255 . S
Cd113 O112 2.385 . S
Cd113 O114 2.317 . S
O114 Cd113 2.317 . S
O114 C115 1.232 . S
C115 O114 1.232 . S
C115 O116 1.218 . S
O116 C115 1.218 . S
C117 O110 1.275 . S
C117 O112 1.255 . S
C118 O119 1.258 . S
C118 O120 1.256 . S
O119 Cd111 2.381 . S
O119 C118 1.258 . S
O120 Cd111 2.378 . S
O120 C118 1.256 . S
O121 Cd122 2.300 . S
O121 C128 1.275 . S
Cd122 O121 2.300 . S
Cd122 O130 2.381 . S
Cd122 O131 2.378 . S
O123 Cd124 2.385 . S
O123 C128 1.255 . S
Cd124 O123 2.385 . S
Cd124 O125 2.317 . S
O125 Cd124 2.317 . S
O125 C126 1.232 . S
C126 O125 1.232 . S
C126 O127 1.218 . S
O127 C126 1.218 . S
C128 O121 1.275 . S
C128 O123 1.255 . S
C129 O130 1.258 . S
C129 O131 1.256 . S
O130 Cd122 2.381 . S
O130 C129 1.258 . S
O131 Cd122 2.378 . S
O131 C129 1.256 . S
O132 Cd133 2.300 . S
O132 C139 1.275 . S
Cd133 O132 2.300 . S
Cd133 O141 2.381 . S
Cd133 O142 2.378 . S
O134 Cd135 2.385 . S
O134 C139 1.255 . S
Cd135 O134 2.385 . S
Cd135 O136 2.317 . S
O136 Cd135 2.317 . S
O136 C137 1.232 . S
C137 O136 1.232 . S
C137 O138 1.218 . S
O138 C137 1.218 . S
C139 O132 1.275 . S
C139 O134 1.255 . S
C140 O141 1.258 . S
C140 O142 1.256 . S
O141 Cd133 2.381 . S
O141 C140 1.258 . S
O142 Cd133 2.378 . S
O142 C140 1.256 . S
O143 Cd144 2.300 . S
O143 C150 1.275 . S
Cd144 O143 2.300 . S
Cd144 O152 2.381 . S
Cd144 O153 2.378 . S
O145 Cd146 2.385 . S
O145 C150 1.255 . S
Cd146 O145 2.385 . S
Cd146 O147 2.317 . S
O147 Cd146 2.317 . S
O147 C148 1.232 . S
C148 O147 1.232 . S
C148 O149 1.218 . S
O149 C148 1.218 . S
C150 O143 1.275 . S
C150 O145 1.255 . S
C151 O152 1.258 . S
C151 O153 1.256 . S
O152 Cd144 2.381 . S
O152 C151 1.258 . S
O153 Cd144 2.378 . S
O153 C151 1.256 . S
O154 Cd155 2.300 . S
O154 C161 1.275 . S
Cd155 O154 2.300 . S
Cd155 O163 2.381 . S
Cd155 O164 2.378 . S
O156 Cd157 2.385 . S
O156 C161 1.255 . S
Cd157 O156 2.385 . S
Cd157 O158 2.317 . S
O158 Cd157 2.317 . S
O158 C159 1.232 . S
C159 O158 1.232 . S
C159 O160 1.218 . S
O160 C159 1.218 . S
C161 O154 1.275 . S
C161 O156 1.255 . S
C162 O163 1.258 . S
C162 O164 1.256 . S
O163 Cd155 2.381 . S
O163 C162 1.258 . S
O164 Cd155 2.378 . S
O164 C162 1.256 . S
O165 Cd166 2.300 . S
O165 C172 1.275 . S
Cd166 O165 2.300 . S
Cd166 O174 2.381 . S
Cd166 O175 2.378 . S
O167 Cd168 2.385 . S
O167 C172 1.255 . S
Cd168 O167 2.385 . S
Cd168 O169 2.317 . S
O169 Cd168 2.317 . S
O169 C170 1.232 . S
C170 O169 1.232 . S
C170 O171 1.218 . S
O171 C170 1.218 . S
C172 O165 1.275 . S
C172 O167 1.255 . S
C173 O174 1.258 . S
C173 O175 1.256 . S
O174 Cd166 2.381 . S
O174 C173 1.258 . S
O175 Cd166 2.378 . S
O175 C173 1.256 . S
H176 C188 0.930 . S
H177 C190 0.930 . S
H178 C191 0.912 1_545 S
H179 C195 0.959 . S
H180 C195 0.959 . S
H181 C195 0.961 . S
H182 C196 0.981 . S
H183 C196 0.961 . S
H184 C196 0.959 . S
H185 C199 0.929 . S
H186 C200 0.931 . S
H187 C202 0.930 . S
C188 H176 0.930 . S
C188 C189 1.399 . S
C188 C193 1.399 . S
C189 C188 1.399 . S
C189 C190 1.376 . S
C190 H177 0.930 . S
C190 C189 1.376 . S
C190 C191 1.388 1_556 S
C191 H178 0.912 1_565 S
C191 C190 1.388 1_554 S
C191 C192 1.390 . S
C192 C191 1.390 . S
C192 C193 1.391 1_554 S
C192 C198 1.467 1_565 S
C193 C188 1.399 . S
C193 C192 1.391 1_556 S
C193 C194 1.516 . S
C194 C193 1.516 . S
C194 C195 1.502 . S
C194 C196 1.561 1_565 S
C194 C197 1.526 1_566 S
C195 H179 0.959 . S
C195 H180 0.959 . S
C195 H181 0.961 . S
C195 C194 1.502 . S
C196 H182 0.981 . S
C196 H183 0.961 . S
C196 H184 0.959 . S
C196 C194 1.561 1_545 S
C197 C194 1.526 1_544 S
C197 C198 1.396 . S
C197 C202 1.390 . S
C198 C192 1.467 1_545 S
C198 C197 1.396 . S
C198 C199 1.399 . S
C199 H185 0.929 . S
C199 C198 1.399 . S
C199 C200 1.385 . S
C200 H186 0.931 . S
C200 C199 1.385 . S
C200 C201 1.389 . S
C201 C200 1.389 . S
C201 C202 1.387 . S
C202 H187 0.930 . S
C202 C197 1.390 . S
C202 C201 1.387 . S
H203 C215 0.930 . S
H204 C217 0.930 . S
H205 C218 0.930 . S
H206 C222 0.959 . S
H207 C222 0.959 . S
H208 C222 0.961 . S
H209 C223 0.960 . S
H210 C223 0.961 . S
H211 C223 0.959 . S
H212 C226 0.929 . S
H213 C227 0.931 . S
H214 C229 0.930 . S
C215 H203 0.930 . S
C215 C216 1.399 . S
C215 C220 1.399 . S
C216 C215 1.399 . S
C216 C217 1.376 . S
C217 H204 0.930 . S
C217 C216 1.376 . S
C217 C218 1.388 . S
C218 H205 0.930 . S
C218 C217 1.388 . S
C218 C219 1.390 . S
C219 C218 1.390 . S
C219 C220 1.394 . S
C219 C225 1.465 . S
C220 C215 1.399 . S
C220 C219 1.394 . S
C220 C221 1.516 . S
C221 C220 1.516 . S
C221 C222 1.502 . S
C221 C223 1.561 . S
C221 C224 1.526 . S
C222 H206 0.959 . S
C222 H207 0.959 . S
C222 H208 0.961 . S
C222 C221 1.502 . S
C223 H209 0.960 . S
C223 H210 0.961 . S
C223 H211 0.959 . S
C223 C221 1.561 . S
C224 C221 1.526 . S
C224 C225 1.396 . S
C224 C229 1.390 . S
C225 C219 1.465 . S
C225 C224 1.396 . S
C225 C226 1.399 . S
C226 H212 0.929 . S
C226 C225 1.399 . S
C226 C227 1.385 . S
C227 H213 0.931 . S
C227 C226 1.385 . S
C227 C228 1.389 . S
C228 C227 1.389 . S
C228 C229 1.387 . S
C229 H214 0.930 . S
C229 C224 1.390 . S
C229 C228 1.387 . S
H230 C242 0.930 . S
H231 C244 0.930 1_554 S
H232 C245 0.930 . S
H233 C249 0.959 . S
H234 C249 0.959 . S
H235 C249 0.961 . S
H236 C250 0.960 . S
H237 C250 0.961 1_655 S
H238 C250 0.959 . S
H239 C253 0.931 . S
H240 C254 0.931 . S
H241 C256 0.930 1_556 S
C242 H230 0.930 . S
C242 C243 1.399 . S
C242 C247 1.399 . S
C243 C242 1.399 . S
C243 C244 1.376 . S
C244 H231 0.930 1_556 S
C244 C243 1.376 . S
C244 C245 1.388 1_556 S
C245 H232 0.930 . S
C245 C244 1.388 1_554 S
C245 C246 1.390 . S
C246 C245 1.390 . S
C246 C247 1.394 1_554 S
C246 C252 1.465 1_455 S
C247 C242 1.399 . S
C247 C246 1.394 1_556 S
C247 C248 1.516 1_455 S
C248 C247 1.516 1_655 S
C248 C249 1.502 . S
C248 C250 1.561 1_655 S
C248 C251 1.523 1_556 S
C249 H233 0.959 . S
C249 H234 0.959 . S
C249 H235 0.961 . S
C249 C248 1.502 . S
C250 H236 0.960 . S
C250 H237 0.961 1_455 S
C250 H238 0.959 . S
C250 C248 1.561 1_455 S
C251 C248 1.523 1_554 S
C251 C252 1.398 . S
C251 C256 1.390 . S
C252 C246 1.465 1_655 S
C252 C251 1.398 . S
C252 C253 1.399 . S
C253 H239 0.931 . S
C253 C252 1.399 . S
C253 C254 1.385 . S
C254 H240 0.931 . S
C254 C253 1.385 . S
C254 C255 1.389 . S
C255 C254 1.389 . S
C255 C256 1.387 . S
C256 H241 0.930 1_554 S
C256 C251 1.390 . S
C256 C255 1.387 . S
H257 C269 0.930 . S
H258 C271 0.930 . S
H259 C272 0.930 1_545 S
H260 C276 0.959 . S
H261 C276 0.959 . S
H262 C276 0.961 . S
H263 C277 0.960 . S
H264 C277 0.961 . S
H265 C277 0.959 . S
H266 C280 0.929 . S
H267 C281 0.931 . S
H268 C283 0.930 . S
C269 H257 0.930 . S
C269 C270 1.399 . S
C269 C274 1.399 . S
C270 C269 1.399 . S
C270 C271 1.376 . S
C271 H258 0.930 . S
C271 C270 1.376 . S
C271 C272 1.388 . S
C272 H259 0.930 1_565 S
C272 C271 1.388 . S
C272 C273 1.390 . S
C273 C272 1.390 . S
C273 C274 1.394 . S
C273 C279 1.465 1_465 S
C274 C269 1.399 . S
C274 C273 1.394 . S
C274 C275 1.516 1_455 S
C275 C274 1.516 1_655 S
C275 C276 1.501 1_655 S
C275 C277 1.562 . S
C275 C278 1.526 1_565 S
C276 H260 0.959 . S
C276 H261 0.959 . S
C276 H262 0.961 . S
C276 C275 1.501 1_455 S
C277 H263 0.960 . S
C277 H264 0.961 . S
C277 H265 0.959 . S
C277 C275 1.562 . S
C278 C275 1.526 1_545 S
C278 C279 1.396 . S
C278 C283 1.390 . S
C279 C273 1.465 1_645 S
C279 C278 1.396 . S
C279 C280 1.399 . S
C280 H266 0.929 . S
C280 C279 1.399 . S
C280 C281 1.385 . S
C281 H267 0.931 . S
C281 C280 1.385 . S
C281 C282 1.389 . S
C282 C281 1.389 . S
C282 C283 1.387 . S
C283 H268 0.930 . S
C283 C278 1.390 . S
C283 C282 1.387 . S
H284 C296 0.912 1_554 S
H285 C298 0.930 . S
H286 C299 0.905 1_655 S
H287 C303 0.959 . S
H288 C303 0.959 1_545 S
H289 C303 0.961 . S
H290 C304 0.960 . S
H291 C304 0.961 . S
H292 C304 0.959 . S
H293 C307 0.929 . S
H294 C308 0.931 . S
H295 C310 0.930 . S
C296 H284 0.912 1_556 S
C296 C297 1.399 . S
C296 C301 1.399 . S
C297 C296 1.399 . S
C297 C298 1.376 . S
C298 H285 0.930 . S
C298 C297 1.376 . S
C298 C299 1.413 . S
C299 H286 0.905 1_455 S
C299 C298 1.413 . S
C299 C300 1.392 . S
C300 C299 1.392 . S
C300 C301 1.394 . S
C300 C306 1.465 1_465 S
C301 C296 1.399 . S
C301 C300 1.394 . S
C301 C302 1.516 1_566 S
C302 C301 1.516 1_544 S
C302 C303 1.502 1_545 S
C302 C304 1.561 . S
C302 C305 1.526 1_455 S
C303 H287 0.959 . S
C303 H288 0.959 1_565 S
C303 H289 0.961 . S
C303 C302 1.502 1_565 S
C304 H290 0.960 . S
C304 H291 0.961 . S
C304 H292 0.959 . S
C304 C302 1.561 . S
C305 C302 1.526 1_655 S
C305 C306 1.396 1_554 S
C305 C310 1.390 . S
C306 C300 1.465 1_645 S
C306 C305 1.396 1_556 S
C306 C307 1.399 . S
C307 H293 0.929 . S
C307 C306 1.399 . S
C307 C308 1.385 1_556 S
C308 H294 0.931 . S
C308 C307 1.385 1_554 S
C308 C309 1.389 . S
C309 C308 1.389 . S
C309 C310 1.387 . S
C310 H295 0.930 . S
C310 C305 1.390 . S
C310 C309 1.387 . S
H311 C323 0.930 . S
H312 C325 0.930 . S
H313 C326 0.930 . S
H314 C330 0.959 . S
H315 C330 0.959 . S
H316 C330 0.961 . S
H317 C331 0.960 . S
H318 C331 0.961 1_545 S
H319 C331 0.959 . S
H320 C334 0.929 1_565 S
H321 C335 0.931 . S
H322 C337 0.930 . S
C323 H311 0.930 . S
C323 C324 1.399 . S
C323 C328 1.399 . S
C324 C323 1.399 . S
C324 C325 1.376 . S
C325 H312 0.930 . S
C325 C324 1.376 . S
C325 C326 1.388 . S
C326 H313 0.930 . S
C326 C325 1.388 . S
C326 C327 1.390 . S
C327 C326 1.390 . S
C327 C328 1.394 . S
C327 C333 1.465 1_565 S
C328 C323 1.399 . S
C328 C327 1.394 . S
C328 C329 1.516 1_565 S
C329 C328 1.516 1_545 S
C329 C330 1.502 . S
C329 C331 1.561 1_545 S
C329 C332 1.526 . S
C330 H314 0.959 . S
C330 H315 0.959 . S
C330 H316 0.961 . S
C330 C329 1.502 . S
C331 H317 0.960 . S
C331 H318 0.961 1_565 S
C331 H319 0.959 . S
C331 C329 1.561 1_565 S
C332 C329 1.526 . S
C332 C333 1.396 . S
C332 C337 1.390 . S
C333 C327 1.465 1_545 S
C333 C332 1.396 . S
C333 C334 1.399 . S
C334 H320 0.929 1_545 S
C334 C333 1.399 . S
C334 C335 1.385 . S
C335 H321 0.931 . S
C335 C334 1.385 . S
C335 C336 1.389 . S
C336 C335 1.389 . S
C336 C337 1.387 . S
C337 H322 0.930 . S
C337 C332 1.390 . S
C337 C336 1.387 . S
H338 C350 0.930 1_556 S
H339 C352 0.930 . S
H340 C353 0.930 . S
H341 C357 0.959 . S
H342 C357 0.959 . S
H343 C357 0.961 . S
H344 C358 0.960 . S
H345 C358 0.961 . S
H346 C358 0.959 . S
H347 C361 0.929 . S
H348 C362 0.931 1_554 S
H349 C364 0.930 . S
C350 H338 0.930 1_554 S
C350 C351 1.399 . S
C350 C355 1.394 1_554 S
C351 C350 1.399 . S
C351 C352 1.376 . S
C352 H339 0.930 . S
C352 C351 1.376 . S
C352 C353 1.388 . S
C353 H340 0.930 . S
C353 C352 1.388 . S
C353 C354 1.390 . S
C354 C353 1.390 . S
C354 C355 1.384 1_554 S
C354 C360 1.465 . S
C355 C350 1.394 1_556 S
C355 C354 1.384 1_556 S
C355 C356 1.531 . S
C356 C355 1.531 . S
C356 C357 1.502 . S
C356 C358 1.561 . S
C356 C359 1.526 . S
C357 H341 0.959 . S
C357 H342 0.959 . S
C357 H343 0.961 . S
C357 C356 1.502 . S
C358 H344 0.960 . S
C358 H345 0.961 . S
C358 H346 0.959 . S
C358 C356 1.561 . S
C359 C356 1.526 . S
C359 C360 1.396 1_556 S
C359 C364 1.390 . S
C360 C354 1.465 . S
C360 C359 1.396 1_554 S
C360 C361 1.399 . S
C361 H347 0.929 . S
C361 C360 1.399 . S
C361 C362 1.385 1_554 S
C362 H348 0.931 1_556 S
C362 C361 1.385 1_556 S
C362 C363 1.389 . S
C363 C362 1.389 . S
C363 C364 1.387 . S
C364 H349 0.930 . S
C364 C359 1.390 . S
C364 C363 1.387 . S
H365 C377 0.930 . S
H366 C379 0.930 . S
H367 C380 0.930 1_655 S
H368 C384 0.959 . S
H369 C384 0.959 . S
H370 C384 0.961 . S
H371 C385 0.960 1_455 S
H372 C385 0.961 . S
H373 C385 0.959 . S
H374 C388 0.929 . S
H375 C389 0.931 . S
H376 C391 0.930 . S
C377 H365 0.930 . S
C377 C378 1.399 . S
C377 C382 1.399 . S
C378 C377 1.399 . S
C378 C379 1.376 . S
C379 H366 0.930 . S
C379 C378 1.376 . S
C379 C380 1.388 . S
C380 H367 0.930 1_455 S
C380 C379 1.388 . S
C380 C381 1.390 . S
C381 C380 1.390 . S
C381 C382 1.394 . S
C381 C387 1.465 1_455 S
C382 C377 1.399 . S
C382 C381 1.394 . S
C382 C383 1.516 . S
C383 C382 1.516 . S
C383 C384 1.502 . S
C383 C385 1.561 1_455 S
C383 C386 1.526 1_455 S
C384 H368 0.959 . S
C384 H369 0.959 . S
C384 H370 0.961 . S
C384 C383 1.502 . S
C385 H371 0.960 1_655 S
C385 H372 0.961 . S
C385 H373 0.959 . S
C385 C383 1.561 1_655 S
C386 C383 1.526 1_655 S
C386 C387 1.396 . S
C386 C391 1.390 . S
C387 C381 1.465 1_655 S
C387 C386 1.396 . S
C387 C388 1.399 . S
C388 H374 0.929 . S
C388 C387 1.399 . S
C388 C389 1.385 . S
C389 H375 0.931 . S
C389 C388 1.385 . S
C389 C390 1.389 . S
C390 C389 1.389 . S
C390 C391 1.387 . S
C391 H376 0.930 . S
C391 C386 1.390 . S
C391 C390 1.387 . S
H392 C404 0.930 . S
H393 C406 0.930 . S
H394 C407 0.930 . S
H395 C411 0.959 . S
H396 C411 0.959 . S
H397 C411 0.961 . S
H398 C412 0.960 . S
H399 C412 0.961 . S
H400 C412 0.959 . S
H401 C415 0.929 . S
H402 C416 0.931 . S
H403 C418 0.930 . S
C404 H392 0.930 . S
C404 C405 1.399 . S
C404 C409 1.399 . S
C405 C404 1.399 . S
C405 C406 1.376 . S
C406 H393 0.930 . S
C406 C405 1.376 . S
C406 C407 1.388 . S
C407 H394 0.930 . S
C407 C406 1.388 . S
C407 C408 1.390 . S
C408 C407 1.390 . S
C408 C409 1.394 . S
C408 C414 1.465 . S
C409 C404 1.399 . S
C409 C408 1.394 . S
C409 C410 1.516 . S
C410 C409 1.516 . S
C410 C411 1.502 . S
C410 C412 1.561 . S
C410 C413 1.526 . S
C411 H395 0.959 . S
C411 H396 0.959 . S
C411 H397 0.961 . S
C411 C410 1.502 . S
C412 H398 0.960 . S
C412 H399 0.961 . S
C412 H400 0.959 . S
C412 C410 1.561 . S
C413 C410 1.526 . S
C413 C414 1.396 . S
C413 C418 1.390 . S
C414 C408 1.465 . S
C414 C413 1.396 . S
C414 C415 1.399 . S
C415 H401 0.929 . S
C415 C414 1.399 . S
C415 C416 1.385 . S
C416 H402 0.931 . S
C416 C415 1.385 . S
C416 C417 1.389 . S
C417 C416 1.389 . S
C417 C418 1.387 . S
C418 H403 0.930 . S
C418 C413 1.390 . S
C418 C417 1.387 . S
H419 C431 0.930 . S
H420 C433 0.930 . S
H421 C434 0.930 . S
H422 C438 0.959 . S
H423 C438 0.959 . S
H424 C438 0.961 . S
H425 C439 0.960 . S
H426 C439 0.961 . S
H427 C439 0.959 . S
H428 C442 0.929 . S
H429 C443 0.931 . S
H430 C445 0.930 . S
C431 H419 0.930 . S
C431 C432 1.399 . S
C431 C436 1.399 . S
C432 C431 1.399 . S
C432 C433 1.376 . S
C433 H420 0.930 . S
C433 C432 1.376 . S
C433 C434 1.388 . S
C434 H421 0.930 . S
C434 C433 1.388 . S
C434 C435 1.390 . S
C435 C434 1.390 . S
C435 C436 1.394 . S
C435 C441 1.465 . S
C436 C431 1.399 . S
C436 C435 1.394 . S
C436 C437 1.516 . S
C437 C436 1.516 . S
C437 C438 1.502 . S
C437 C439 1.561 . S
C437 C440 1.526 . S
C438 H422 0.959 . S
C438 H423 0.959 . S
C438 H424 0.961 . S
C438 C437 1.502 . S
C439 H425 0.960 . S
C439 H426 0.961 . S
C439 H427 0.959 . S
C439 C437 1.561 . S
C440 C437 1.526 . S
C440 C441 1.396 . S
C440 C445 1.390 . S
C441 C435 1.465 . S
C441 C440 1.396 . S
C441 C442 1.399 . S
C442 H428 0.929 . S
C442 C441 1.399 . S
C442 C443 1.385 . S
C443 H429 0.931 . S
C443 C442 1.385 . S
C443 C444 1.389 . S
C444 C443 1.389 . S
C444 C445 1.387 . S
C445 H430 0.930 . S
C445 C440 1.390 . S
C445 C444 1.387 . S
H446 C458 0.930 . S
H447 C460 0.930 . S
H448 C461 0.930 . S
H449 C465 0.959 . S
H450 C465 0.959 . S
H451 C465 0.961 . S
H452 C466 0.960 . S
H453 C466 0.961 . S
H454 C466 0.959 . S
H455 C469 0.929 . S
H456 C470 0.931 . S
H457 C472 0.930 . S
C458 H446 0.930 . S
C458 C459 1.399 . S
C458 C463 1.399 . S
C459 C458 1.399 . S
C459 C460 1.376 . S
C460 H447 0.930 . S
C460 C459 1.376 . S
C460 C461 1.388 . S
C461 H448 0.930 . S
C461 C460 1.388 . S
C461 C462 1.390 . S
C462 C461 1.390 . S
C462 C463 1.394 . S
C462 C468 1.465 . S
C463 C458 1.399 . S
C463 C462 1.394 . S
C463 C464 1.516 . S
C464 C463 1.516 . S
C464 C465 1.502 . S
C464 C466 1.561 . S
C464 C467 1.526 . S
C465 H449 0.959 . S
C465 H450 0.959 . S
C465 H451 0.961 . S
C465 C464 1.502 . S
C466 H452 0.960 . S
C466 H453 0.961 . S
C466 H454 0.959 . S
C466 C464 1.561 . S
C467 C464 1.526 . S
C467 C468 1.396 . S
C467 C472 1.390 . S
C468 C462 1.465 . S
C468 C467 1.396 . S
C468 C469 1.399 . S
C469 H455 0.929 . S
C469 C468 1.399 . S
C469 C470 1.385 . S
C470 H456 0.931 . S
C470 C469 1.385 . S
C470 C471 1.389 . S
C471 C470 1.389 . S
C471 C472 1.387 . S
C472 H457 0.930 . S
C472 C467 1.390 . S
C472 C471 1.387 . S
H473 C485 0.930 . S
H474 C487 0.930 . S
H475 C488 0.930 . S
H476 C492 0.959 . S
H477 C492 0.959 . S
H478 C492 0.961 . S
H479 C493 0.960 . S
H480 C493 0.961 . S
H481 C493 0.959 . S
H482 C496 0.929 . S
H483 C497 0.931 . S
H484 C499 0.930 . S
C485 H473 0.930 . S
C485 C486 1.399 . S
C485 C490 1.399 . S
C486 C485 1.399 . S
C486 C487 1.376 . S
C487 H474 0.930 . S
C487 C486 1.376 . S
C487 C488 1.388 . S
C488 H475 0.930 . S
C488 C487 1.388 . S
C488 C489 1.390 . S
C489 C488 1.390 . S
C489 C490 1.394 . S
C489 C495 1.465 . S
C490 C485 1.399 . S
C490 C489 1.394 . S
C490 C491 1.516 . S
C491 C490 1.516 . S
C491 C492 1.502 . S
C491 C493 1.561 . S
C491 C494 1.526 . S
C492 H476 0.959 . S
C492 H477 0.959 . S
C492 H478 0.961 . S
C492 C491 1.502 . S
C493 H479 0.960 . S
C493 H480 0.961 . S
C493 H481 0.959 . S
C493 C491 1.561 . S
C494 C491 1.526 . S
C494 C495 1.396 . S
C494 C499 1.390 . S
C495 C489 1.465 . S
C495 C494 1.396 . S
C495 C496 1.399 . S
C496 H482 0.929 . S
C496 C495 1.399 . S
C496 C497 1.385 . S
C497 H483 0.931 . S
C497 C496 1.385 . S
C497 C498 1.389 . S
C498 C497 1.389 . S
C498 C499 1.387 . S
C499 H484 0.930 . S
C499 C494 1.390 . S
C499 C498 1.387 . S
H500 C512 0.930 . S
H501 C514 0.930 . S
H502 C515 0.930 . S
H503 C519 0.959 . S
H504 C519 0.959 . S
H505 C519 0.961 . S
H506 C520 0.960 . S
H507 C520 0.961 . S
H508 C520 0.959 . S
H509 C523 0.929 . S
H510 C524 0.931 . S
H511 C526 0.930 . S
C512 H500 0.930 . S
C512 C513 1.399 . S
C512 C517 1.399 . S
C513 C512 1.399 . S
C513 C514 1.376 . S
C514 H501 0.930 . S
C514 C513 1.376 . S
C514 C515 1.388 . S
C515 H502 0.930 . S
C515 C514 1.388 . S
C515 C516 1.390 . S
C516 C515 1.390 . S
C516 C517 1.394 . S
C516 C522 1.465 . S
C517 C512 1.399 . S
C517 C516 1.394 . S
C517 C518 1.516 . S
C518 C517 1.516 . S
C518 C519 1.502 . S
C518 C520 1.561 . S
C518 C521 1.526 . S
C519 H503 0.959 . S
C519 H504 0.959 . S
C519 H505 0.961 . S
C519 C518 1.502 . S
C520 H506 0.960 . S
C520 H507 0.961 . S
C520 H508 0.959 . S
C520 C518 1.561 . S
C521 C518 1.526 . S
C521 C522 1.396 . S
C521 C526 1.390 . S
C522 C516 1.465 . S
C522 C521 1.396 . S
C522 C523 1.399 . S
C523 H509 0.929 . S
C523 C522 1.399 . S
C523 C524 1.385 . S
C524 H510 0.931 . S
C524 C523 1.385 . S
C524 C525 1.389 . S
C525 C524 1.389 . S
C525 C526 1.387 . S
C526 H511 0.930 . S
C526 C521 1.390 . S
C526 C525 1.387 . S
H527 C539 0.930 . S
H528 C541 0.930 . S
H529 C542 0.930 . S
H530 C546 0.959 . S
H531 C546 0.959 . S
H532 C546 0.961 . S
H533 C547 0.960 . S
H534 C547 0.961 . S
H535 C547 0.959 . S
H536 C550 0.929 . S
H537 C551 0.931 . S
H538 C553 0.930 . S
C539 H527 0.930 . S
C539 C540 1.399 . S
C539 C544 1.399 . S
C540 C539 1.399 . S
C540 C541 1.376 . S
C541 H528 0.930 . S
C541 C540 1.376 . S
C541 C542 1.388 . S
C542 H529 0.930 . S
C542 C541 1.388 . S
C542 C543 1.390 . S
C543 C542 1.390 . S
C543 C544 1.394 . S
C543 C549 1.465 . S
C544 C539 1.399 . S
C544 C543 1.394 . S
C544 C545 1.516 . S
C545 C544 1.516 . S
C545 C546 1.502 . S
C545 C547 1.561 . S
C545 C548 1.526 . S
C546 H530 0.959 . S
C546 H531 0.959 . S
C546 H532 0.961 . S
C546 C545 1.502 . S
C547 H533 0.960 . S
C547 H534 0.961 . S
C547 H535 0.959 . S
C547 C545 1.561 . S
C548 C545 1.526 . S
C548 C549 1.396 . S
C548 C553 1.390 . S
C549 C543 1.465 . S
C549 C548 1.396 . S
C549 C550 1.399 . S
C550 H536 0.929 . S
C550 C549 1.399 . S
C550 C551 1.385 . S
C551 H537 0.931 . S
C551 C550 1.385 . S
C551 C552 1.389 . S
C552 C551 1.389 . S
C552 C553 1.387 . S
C553 H538 0.930 . S
C553 C548 1.390 . S
C553 C552 1.387 . S
H554 C566 0.930 . S
H555 C568 0.930 . S
H556 C569 0.930 . S
H557 C573 0.959 . S
H558 C573 0.959 . S
H559 C573 0.961 . S
H560 C574 0.960 . S
H561 C574 0.961 . S
H562 C574 0.959 . S
H563 C577 0.929 . S
H564 C578 0.931 . S
H565 C580 0.930 . S
C566 H554 0.930 . S
C566 C567 1.399 . S
C566 C571 1.399 . S
C567 C566 1.399 . S
C567 C568 1.376 . S
C568 H555 0.930 . S
C568 C567 1.376 . S
C568 C569 1.388 . S
C569 H556 0.930 . S
C569 C568 1.388 . S
C569 C570 1.390 . S
C570 C569 1.390 . S
C570 C571 1.394 . S
C570 C576 1.465 . S
C571 C566 1.399 . S
C571 C570 1.394 . S
C571 C572 1.516 . S
C572 C571 1.516 . S
C572 C573 1.502 . S
C572 C574 1.561 . S
C572 C575 1.526 . S
C573 H557 0.959 . S
C573 H558 0.959 . S
C573 H559 0.961 . S
C573 C572 1.502 . S
C574 H560 0.960 . S
C574 H561 0.961 . S
C574 H562 0.959 . S
C574 C572 1.561 . S
C575 C572 1.526 . S
C575 C576 1.396 . S
C575 C580 1.390 . S
C576 C570 1.465 . S
C576 C575 1.396 . S
C576 C577 1.399 . S
C577 H563 0.929 . S
C577 C576 1.399 . S
C577 C578 1.385 . S
C578 H564 0.931 . S
C578 C577 1.385 . S
C578 C579 1.389 . S
C579 C578 1.389 . S
C579 C580 1.387 . S
C580 H565 0.930 . S
C580 C575 1.390 . S
C580 C579 1.387 . S
H581 C593 0.930 . S
H582 C595 0.930 . S
H583 C596 0.930 . S
H584 C600 0.959 . S
H585 C600 0.959 . S
H586 C600 0.961 . S
H587 C601 0.960 . S
H588 C601 0.961 . S
H589 C601 0.959 . S
H590 C604 0.929 . S
H591 C605 0.931 . S
H592 C607 0.930 . S
C593 H581 0.930 . S
C593 C594 1.399 . S
C593 C598 1.399 . S
C594 C593 1.399 . S
C594 C595 1.376 . S
C595 H582 0.930 . S
C595 C594 1.376 . S
C595 C596 1.388 . S
C596 H583 0.930 . S
C596 C595 1.388 . S
C596 C597 1.390 . S
C597 C596 1.390 . S
C597 C598 1.394 . S
C597 C603 1.465 . S
C598 C593 1.399 . S
C598 C597 1.394 . S
C598 C599 1.516 . S
C599 C598 1.516 . S
C599 C600 1.502 . S
C599 C601 1.561 . S
C599 C602 1.526 . S
C600 H584 0.959 . S
C600 H585 0.959 . S
C600 H586 0.961 . S
C600 C599 1.502 . S
C601 H587 0.960 . S
C601 H588 0.961 . S
C601 H589 0.959 . S
C601 C599 1.561 . S
C602 C599 1.526 . S
C602 C603 1.396 . S
C602 C607 1.390 . S
C603 C597 1.465 . S
C603 C602 1.396 . S
C603 C604 1.399 . S
C604 H590 0.929 . S
C604 C603 1.399 . S
C604 C605 1.385 . S
C605 H591 0.931 . S
C605 C604 1.385 . S
C605 C606 1.389 . S
C606 C605 1.389 . S
C606 C607 1.387 . S
C607 H592 0.930 . S
C607 C602 1.390 . S
C607 C606 1.387 . S
H608 C620 0.930 . S
H609 C622 0.930 . S
H610 C623 0.930 . S
H611 C627 0.959 . S
H612 C627 0.959 . S
H613 C627 0.961 . S
H614 C628 0.960 . S
H615 C628 0.961 . S
H616 C628 0.959 . S
H617 C631 0.929 . S
H618 C632 0.931 . S
H619 C634 0.930 . S
C620 H608 0.930 . S
C620 C621 1.399 . S
C620 C625 1.399 . S
C621 C620 1.399 . S
C621 C622 1.376 . S
C622 H609 0.930 . S
C622 C621 1.376 . S
C622 C623 1.388 . S
C623 H610 0.930 . S
C623 C622 1.388 . S
C623 C624 1.390 . S
C624 C623 1.390 . S
C624 C625 1.394 . S
C624 C630 1.465 . S
C625 C620 1.399 . S
C625 C624 1.394 . S
C625 C626 1.516 . S
C626 C625 1.516 . S
C626 C627 1.502 . S
C626 C628 1.561 . S
C626 C629 1.526 . S
C627 H611 0.959 . S
C627 H612 0.959 . S
C627 H613 0.961 . S
C627 C626 1.502 . S
C628 H614 0.960 . S
C628 H615 0.961 . S
C628 H616 0.959 . S
C628 C626 1.561 . S
C629 C626 1.526 . S
C629 C630 1.396 . S
C629 C634 1.390 . S
C630 C624 1.465 . S
C630 C629 1.396 . S
C630 C631 1.399 . S
C631 H617 0.929 . S
C631 C630 1.399 . S
C631 C632 1.385 . S
C632 H618 0.931 . S
C632 C631 1.385 . S
C632 C633 1.389 . S
C633 C632 1.389 . S
C633 C634 1.387 . S
C634 H619 0.930 . S
C634 C629 1.390 . S
C634 C633 1.387 . S
H635 C647 0.930 . S
H636 C649 0.930 . S
H637 C650 0.930 . S
H638 C654 0.959 . S
H639 C654 0.959 . S
H640 C654 0.961 . S
H641 C655 0.960 . S
H642 C655 0.961 . S
H643 C655 0.959 . S
H644 C658 0.929 . S
H645 C659 0.931 . S
H646 C661 0.930 . S
C647 H635 0.930 . S
C647 C648 1.399 . S
C647 C652 1.399 . S
C648 C647 1.399 . S
C648 C649 1.376 . S
C649 H636 0.930 . S
C649 C648 1.376 . S
C649 C650 1.388 . S
C650 H637 0.930 . S
C650 C649 1.388 . S
C650 C651 1.390 . S
C651 C650 1.390 . S
C651 C652 1.394 . S
C651 C657 1.465 . S
C652 C647 1.399 . S
C652 C651 1.394 . S
C652 C653 1.516 . S
C653 C652 1.516 . S
C653 C654 1.502 . S
C653 C655 1.561 . S
C653 C656 1.526 . S
C654 H638 0.959 . S
C654 H639 0.959 . S
C654 H640 0.961 . S
C654 C653 1.502 . S
C655 H641 0.960 . S
C655 H642 0.961 . S
C655 H643 0.959 . S
C655 C653 1.561 . S
C656 C653 1.526 . S
C656 C657 1.396 . S
C656 C661 1.390 . S
C657 C651 1.465 . S
C657 C656 1.396 . S
C657 C658 1.399 . S
C658 H644 0.929 . S
C658 C657 1.399 . S
C658 C659 1.385 . S
C659 H645 0.931 . S
C659 C658 1.385 . S
C659 C660 1.389 . S
C660 C659 1.389 . S
C660 C661 1.387 . S
C661 H646 0.930 . S
C661 C656 1.390 . S
C661 C660 1.387 . S
H662 C674 0.930 . S
H663 C676 0.930 . S
H664 C677 0.930 . S
H665 C681 0.959 . S
H666 C681 0.959 . S
H667 C681 0.961 . S
H668 C682 0.960 . S
H669 C682 0.961 . S
H670 C682 0.959 . S
H671 C685 0.929 . S
H672 C686 0.931 . S
H673 C688 0.930 . S
C674 H662 0.930 . S
C674 C675 1.399 . S
C674 C679 1.399 . S
C675 C674 1.399 . S
C675 C676 1.376 . S
C676 H663 0.930 . S
C676 C675 1.376 . S
C676 C677 1.388 . S
C677 H664 0.930 . S
C677 C676 1.388 . S
C677 C678 1.390 . S
C678 C677 1.390 . S
C678 C679 1.394 . S
C678 C684 1.465 . S
C679 C674 1.399 . S
C679 C678 1.394 . S
C679 C680 1.516 . S
C680 C679 1.516 . S
C680 C681 1.502 . S
C680 C682 1.561 . S
C680 C683 1.526 . S
C681 H665 0.959 . S
C681 H666 0.959 . S
C681 H667 0.961 . S
C681 C680 1.502 . S
C682 H668 0.960 . S
C682 H669 0.961 . S
C682 H670 0.959 . S
C682 C680 1.561 . S
C683 C680 1.526 . S
C683 C684 1.396 . S
C683 C688 1.390 . S
C684 C678 1.465 . S
C684 C683 1.396 . S
C684 C685 1.399 . S
C685 H671 0.929 . S
C685 C684 1.399 . S
C685 C686 1.385 . S
C686 H672 0.931 . S
C686 C685 1.385 . S
C686 C687 1.389 . S
C687 C686 1.389 . S
C687 C688 1.387 . S
C688 H673 0.930 . S
C688 C683 1.390 . S
C688 C687 1.387 . S
H689 C701 0.930 . S
H690 C703 0.930 . S
H691 C704 0.930 . S
H692 C708 0.959 . S
H693 C708 0.959 . S
H694 C708 0.961 . S
H695 C709 0.960 . S
H696 C709 0.961 . S
H697 C709 0.959 . S
H698 C712 0.929 . S
H699 C713 0.931 . S
H700 C715 0.930 . S
C701 H689 0.930 . S
C701 C702 1.399 . S
C701 C706 1.399 . S
C702 C701 1.399 . S
C702 C703 1.376 . S
C703 H690 0.930 . S
C703 C702 1.376 . S
C703 C704 1.388 . S
C704 H691 0.930 . S
C704 C703 1.388 . S
C704 C705 1.390 . S
C705 C704 1.390 . S
C705 C706 1.394 . S
C705 C711 1.465 . S
C706 C701 1.399 . S
C706 C705 1.394 . S
C706 C707 1.516 . S
C707 C706 1.516 . S
C707 C708 1.502 . S
C707 C709 1.561 . S
C707 C710 1.526 . S
C708 H692 0.959 . S
C708 H693 0.959 . S
C708 H694 0.961 . S
C708 C707 1.502 . S
C709 H695 0.960 . S
C709 H696 0.961 . S
C709 H697 0.959 . S
C709 C707 1.561 . S
C710 C707 1.526 . S
C710 C711 1.396 . S
C710 C715 1.390 . S
C711 C705 1.465 . S
C711 C710 1.396 . S
C711 C712 1.399 . S
C712 H698 0.929 . S
C712 C711 1.399 . S
C712 C713 1.385 . S
C713 H699 0.931 . S
C713 C712 1.385 . S
C713 C714 1.389 . S
C714 C713 1.389 . S
C714 C715 1.387 . S
C715 H700 0.930 . S
C715 C710 1.390 . S
C715 C714 1.387 . S
H716 C728 0.930 . S
H717 C730 0.930 . S
H718 C731 0.930 . S
H719 C735 0.959 . S
H720 C735 0.959 . S
H721 C735 0.961 . S
H722 C736 0.960 . S
H723 C736 0.961 . S
H724 C736 0.959 . S
H725 C739 0.929 . S
H726 C740 0.931 . S
H727 C742 0.930 . S
C728 H716 0.930 . S
C728 C729 1.399 . S
C728 C733 1.399 . S
C729 C728 1.399 . S
C729 C730 1.376 . S
C730 H717 0.930 . S
C730 C729 1.376 . S
C730 C731 1.388 . S
C731 H718 0.930 . S
C731 C730 1.388 . S
C731 C732 1.390 . S
C732 C731 1.390 . S
C732 C733 1.394 . S
C732 C738 1.465 . S
C733 C728 1.399 . S
C733 C732 1.394 . S
C733 C734 1.516 . S
C734 C733 1.516 . S
C734 C735 1.502 . S
C734 C736 1.561 . S
C734 C737 1.526 . S
C735 H719 0.959 . S
C735 H720 0.959 . S
C735 H721 0.961 . S
C735 C734 1.502 . S
C736 H722 0.960 . S
C736 H723 0.961 . S
C736 H724 0.959 . S
C736 C734 1.561 . S
C737 C734 1.526 . S
C737 C738 1.396 . S
C737 C742 1.390 . S
C738 C732 1.465 . S
C738 C737 1.396 . S
C738 C739 1.399 . S
C739 H725 0.929 . S
C739 C738 1.399 . S
C739 C740 1.385 . S
C740 H726 0.931 . S
C740 C739 1.385 . S
C740 C741 1.389 . S
C741 C740 1.389 . S
C741 C742 1.387 . S
C742 H727 0.930 . S
C742 C737 1.390 . S
C742 C741 1.387 . S
H743 C755 0.930 . S
H744 C757 0.930 . S
H745 C758 0.930 . S
H746 C762 0.959 . S
H747 C762 0.959 . S
H748 C762 0.961 . S
H749 C763 0.960 . S
H750 C763 0.961 . S
H751 C763 0.959 . S
H752 C766 0.929 . S
H753 C767 0.931 . S
H754 C769 0.930 . S
C755 H743 0.930 . S
C755 C756 1.399 . S
C755 C760 1.399 . S
C756 C755 1.399 . S
C756 C757 1.376 . S
C757 H744 0.930 . S
C757 C756 1.376 . S
C757 C758 1.388 . S
C758 H745 0.930 . S
C758 C757 1.388 . S
C758 C759 1.390 . S
C759 C758 1.390 . S
C759 C760 1.394 . S
C759 C765 1.465 . S
C760 C755 1.399 . S
C760 C759 1.394 . S
C760 C761 1.516 . S
C761 C760 1.516 . S
C761 C762 1.502 . S
C761 C763 1.561 . S
C761 C764 1.526 . S
C762 H746 0.959 . S
C762 H747 0.959 . S
C762 H748 0.961 . S
C762 C761 1.502 . S
C763 H749 0.960 . S
C763 H750 0.961 . S
C763 H751 0.959 . S
C763 C761 1.561 . S
C764 C761 1.526 . S
C764 C765 1.396 . S
C764 C769 1.390 . S
C765 C759 1.465 . S
C765 C764 1.396 . S
C765 C766 1.399 . S
C766 H752 0.929 . S
C766 C765 1.399 . S
C766 C767 1.385 . S
C767 H753 0.931 . S
C767 C766 1.385 . S
C767 C768 1.389 . S
C768 C767 1.389 . S
C768 C769 1.387 . S
C769 H754 0.930 . S
C769 C764 1.390 . S
C769 C768 1.387 . S
H770 C782 0.930 . S
H771 C784 0.930 . S
H772 C785 0.930 . S
H773 C789 0.959 . S
H774 C789 0.959 . S
H775 C789 0.961 . S
H776 C790 0.960 . S
H777 C790 0.961 . S
H778 C790 0.959 . S
H779 C793 0.929 . S
H780 C794 0.931 . S
H781 C796 0.930 . S
C782 H770 0.930 . S
C782 C783 1.399 . S
C782 C787 1.399 . S
C783 C782 1.399 . S
C783 C784 1.376 . S
C784 H771 0.930 . S
C784 C783 1.376 . S
C784 C785 1.388 . S
C785 H772 0.930 . S
C785 C784 1.388 . S
C785 C786 1.390 . S
C786 C785 1.390 . S
C786 C787 1.394 . S
C786 C792 1.465 . S
C787 C782 1.399 . S
C787 C786 1.394 . S
C787 C788 1.516 . S
C788 C787 1.516 . S
C788 C789 1.502 . S
C788 C790 1.561 . S
C788 C791 1.526 . S
C789 H773 0.959 . S
C789 H774 0.959 . S
C789 H775 0.961 . S
C789 C788 1.502 . S
C790 H776 0.960 . S
C790 H777 0.961 . S
C790 H778 0.959 . S
C790 C788 1.561 . S
C791 C788 1.526 . S
C791 C792 1.396 . S
C791 C796 1.390 . S
C792 C786 1.465 . S
C792 C791 1.396 . S
C792 C793 1.399 . S
C793 H779 0.929 . S
C793 C792 1.399 . S
C793 C794 1.385 . S
C794 H780 0.931 . S
C794 C793 1.385 . S
C794 C795 1.389 . S
C795 C794 1.389 . S
C795 C796 1.387 . S
C796 H781 0.930 . S
C796 C791 1.390 . S
C796 C795 1.387 . S
H797 C809 0.930 . S
H798 C811 0.930 . S
H799 C812 0.930 . S
H800 C816 0.959 . S
H801 C816 0.959 . S
H802 C816 0.961 . S
H803 C817 0.960 . S
H804 C817 0.961 . S
H805 C817 0.959 . S
H806 C820 0.929 . S
H807 C821 0.931 . S
H808 C823 0.930 . S
C809 H797 0.930 . S
C809 C810 1.399 . S
C809 C814 1.399 . S
C810 C809 1.399 . S
C810 C811 1.376 . S
C811 H798 0.930 . S
C811 C810 1.376 . S
C811 C812 1.388 . S
C812 H799 0.930 . S
C812 C811 1.388 . S
C812 C813 1.390 . S
C813 C812 1.390 . S
C813 C814 1.394 . S
C813 C819 1.465 . S
C814 C809 1.399 . S
C814 C813 1.394 . S
C814 C815 1.516 . S
C815 C814 1.516 . S
C815 C816 1.502 . S
C815 C817 1.561 . S
C815 C818 1.526 . S
C816 H800 0.959 . S
C816 H801 0.959 . S
C816 H802 0.961 . S
C816 C815 1.502 . S
C817 H803 0.960 . S
C817 H804 0.961 . S
C817 H805 0.959 . S
C817 C815 1.561 . S
C818 C815 1.526 . S
C818 C819 1.396 . S
C818 C823 1.390 . S
C819 C813 1.465 . S
C819 C818 1.396 . S
C819 C820 1.399 . S
C820 H806 0.929 . S
C820 C819 1.399 . S
C820 C821 1.385 . S
C821 H807 0.931 . S
C821 C820 1.385 . S
C821 C822 1.389 . S
C822 C821 1.389 . S
C822 C823 1.387 . S
C823 H808 0.930 . S
C823 C818 1.390 . S
C823 C822 1.387 . S
C189 C96 1.608 . S
C201 C8 1.670 . S
C216 C19 1.677 . S
C228 C107 1.590 . S
C243 C118 1.634 . S
C255 C30 1.667 . S
C270 C41 1.666 . S
C282 C129 1.639 . S
C297 C52 1.666 . S
C309 C140 1.632 . S
C324 C151 1.631 . S
C336 C63 1.667 . S
C351 C162 1.623 . S
C363 C74 1.676 . S
C378 C173 1.606 . S
C390 C85 1.670 . S
C405 C7 1.573 . S
C417 C62 1.568 . S
C432 C73 1.605 . S
C444 C18 1.591 . S
C459 C84 1.604 . S
C471 C29 1.577 . S
C486 C40 1.574 . S
C498 C51 1.602 . S
C513 C95 1.488 . S
C525 C150 1.514 . S
C540 C161 1.497 . S
C552 C106 1.525 . S
C567 C117 1.522 . S
C579 C172 1.548 . S
C594 C139 1.496 . S
C606 C128 1.524 . S
C621 C137 1.415 . S
C633 C5 1.469 . S
C648 C148 1.425 . S
C660 C16 1.452 . S
C675 C27 1.409 . S
C687 C159 1.381 . S
C702 C170 1.427 . S
C714 C38 1.441 . S
C729 C49 1.410 . S
C741 C93 1.375 . S
C756 C104 1.428 . S
C768 C60 1.434 . S
C783 C115 1.426 . S
C795 C71 1.447 . S
C810 C126 1.278 . S
C822 C82 1.490 . S
