# Generated by pormake.
# Topology uoj, (4)-cn, num edge types: 1
# Building blocks:
#     Node 0, Type 0, BuildingBlock: CEKHIL_clean_sbu_0, # of connection points: 4
#     Node 1, Type 0, BuildingBlock: CEKHIL_clean_sbu_0, # of connection points: 4
#     Node 2, Type 0, BuildingBlock: CEKHIL_clean_sbu_0, # of connection points: 4
#     Node 3, Type 0, BuildingBlock: CEKHIL_clean_sbu_0, # of connection points: 4
#     Node 4, Type 0, BuildingBlock: CEKHIL_clean_sbu_0, # of connection points: 4
#     Node 5, Type 0, BuildingBlock: CEKHIL_clean_sbu_0, # of connection points: 4
#     Node 6, Type 0, BuildingBlock: CEKHIL_clean_sbu_0, # of connection points: 4
#     Node 7, Type 0, BuildingBlock: CEKHIL_clean_sbu_0, # of connection points: 4
#     Edge 8, Type (0, 0), BuildingBlock: TEMPAE_clean_linker_10, # of connection points: 2
#     Edge 9, Type (0, 0), BuildingBlock: TEMPAE_clean_linker_10, # of connection points: 2
#     Edge 10, Type (0, 0), BuildingBlock: TEMPAE_clean_linker_10, # of connection points: 2
#     Edge 11, Type (0, 0), BuildingBlock: TEMPAE_clean_linker_10, # of connection points: 2
#     Edge 12, Type (0, 0), BuildingBlock: TEMPAE_clean_linker_10, # of connection points: 2
#     Edge 13, Type (0, 0), BuildingBlock: TEMPAE_clean_linker_10, # of connection points: 2
#     Edge 14, Type (0, 0), BuildingBlock: TEMPAE_clean_linker_10, # of connection points: 2
#     Edge 15, Type (0, 0), BuildingBlock: TEMPAE_clean_linker_10, # of connection points: 2
#     Edge 16, Type (0, 0), BuildingBlock: TEMPAE_clean_linker_10, # of connection points: 2
#     Edge 17, Type (0, 0), BuildingBlock: TEMPAE_clean_linker_10, # of connection points: 2
#     Edge 18, Type (0, 0), BuildingBlock: TEMPAE_clean_linker_10, # of connection points: 2
#     Edge 19, Type (0, 0), BuildingBlock: TEMPAE_clean_linker_10, # of connection points: 2
#     Edge 20, Type (0, 0), BuildingBlock: TEMPAE_clean_linker_10, # of connection points: 2
#     Edge 21, Type (0, 0), BuildingBlock: TEMPAE_clean_linker_10, # of connection points: 2
#     Edge 22, Type (0, 0), BuildingBlock: TEMPAE_clean_linker_10, # of connection points: 2
#     Edge 23, Type (0, 0), BuildingBlock: TEMPAE_clean_linker_10, # of connection points: 2
# Relax obj value: 0.110
# Max RMSD: 0.137
# Mean RMSD: 0.134
data_MOF--net-uoj--node1-CEKHIL_clean_sbu_0--edge1-TEMPAE_clean_linker_10
_symmetry_space_group_name_H-M    P1
_symmetry_Int_Tables_number       1
_symmetry_cell_setting            triclinic
loop_
_symmetry_equiv_pos_as_xyz
'x, y, z'
_cell_length_a     33.353571
_cell_length_b     33.110988
_cell_length_c     35.554456
_cell_angle_alpha  90.005041
_cell_angle_beta   89.983183
_cell_angle_gamma 88.707148
loop_
_atom_site_label
_atom_site_type_symbol
_atom_site_fract_x
_atom_site_fract_y
_atom_site_fract_z
_atom_type_partial_charge
Co0 Co 0.07324 0.29078 0.43194 0.0
O1 O 0.11515 0.31228 0.40114 0.0
O2 O 0.05094 0.3101 0.38522 0.0
C3 C 0.10551 0.23375 0.4494 0.0
O4 O 0.02196 0.26939 0.45428 0.0
Co5 Co 0.084 0.27785 0.51783 0.0
O6 O 0.03158 0.25102 0.51456 0.0
C7 C 0.06595 0.35944 0.48913 0.0
C8 C 0.0873 0.31977 0.37637 0.0
C9 C 0.00992 0.2535 0.48511 0.0
O10 O 0.06324 0.34527 0.45558 0.0
O11 O 0.07569 0.33797 0.51775 0.0
O12 O 0.08789 0.23594 0.41683 0.0
O13 O 0.10672 0.26696 0.46843 0.0
Co14 Co 0.28266 0.91441 0.5675 0.0
O15 O 0.23864 0.87863 0.56681 0.0
O16 O 0.27665 0.89243 0.51729 0.0
C17 C 0.31038 0.89158 0.62124 0.0
O18 O 0.33164 0.94877 0.55941 0.0
Co19 Co 0.28538 0.97678 0.63316 0.0
O20 O 0.33946 0.98595 0.61189 0.0
C21 C 0.22922 0.99049 0.57125 0.0
C22 C 0.24656 0.87319 0.53148 0.0
C23 C 0.35158 0.97343 0.57978 0.0
O24 O 0.24625 0.96122 0.55317 0.0
O25 O 0.23742 -0.00095 0.60544 0.0
O26 O 0.31709 0.87228 0.58994 0.0
O27 O 0.28368 0.92034 0.61955 0.0
Co28 Co 0.9278 0.70233 0.43214 0.0
O29 O 0.88575 0.6759 0.4052 0.0
O30 O 0.94804 0.68298 0.38469 0.0
C31 C 0.89135 0.75669 0.44979 0.0
O32 O 0.97867 0.72891 0.44983 0.0
Co33 Co 0.92403 0.71988 0.51756 0.0
O34 O 0.96836 0.75703 0.50645 0.0
C35 C 0.94755 0.63838 0.49121 0.0
C36 C 0.91215 0.66989 0.37876 0.0
C37 C 0.9894 0.75203 0.47684 0.0
O38 O 0.94434 0.65009 0.45688 0.0
O39 O 0.94003 0.66106 0.5196 0.0
O40 O 0.90698 0.75498 0.41632 0.0
O41 O 0.89529 0.72455 0.4702 0.0
Co42 Co 0.7119 0.07679 0.56941 0.0
O43 O 0.7624 0.1022 0.57408 0.0
O44 O 0.72531 0.10239 0.52213 0.0
C45 C 0.68482 0.09919 0.62366 0.0
O46 O 0.65798 0.05344 0.55581 0.0
Co47 Co 0.69458 0.01023 0.62921 0.0
O48 O 0.64366 0.00748 0.60055 0.0
C49 C 0.75363 0.99435 0.57043 0.0
C50 C 0.75817 0.11252 0.53914 0.0
C51 C 0.63511 0.02682 0.57042 0.0
O52 O 0.74026 0.02559 0.55262 0.0
O53 O 0.74304 0.98559 0.60397 0.0
O54 O 0.68423 0.12233 0.59412 0.0
O55 O 0.70605 0.06633 0.62051 0.0
Co56 Co 0.42086 0.78723 0.93491 0.0
O57 O 0.38139 0.81286 0.90324 0.0
O58 O 0.44411 0.79852 0.88632 0.0
C59 C 0.38174 0.73797 0.9559 0.0
O60 O 0.46906 0.75923 0.95936 0.0
Co61 Co 0.40795 0.78613 0.02132 0.0
O62 O 0.4576 0.75213 0.02145 0.0
C63 C 0.43519 0.86037 0.98538 0.0
C64 C 0.40875 0.81284 0.87729 0.0
C65 C 0.47922 0.74653 0.99228 0.0
O66 O 0.43842 0.84106 0.95414 0.0
O67 O 0.42026 0.84496 0.01514 0.0
O68 O 0.39907 0.735 0.92331 0.0
O69 O 0.38491 0.77228 0.973 0.0
Co70 Co 0.79706 0.57127 0.06595 0.0
O71 O 0.82146 0.61185 0.09652 0.0
O72 O 0.81586 0.54743 0.11226 0.0
C73 C 0.74193 0.60747 0.05049 0.0
O74 O 0.77254 0.52111 0.04365 0.0
Co75 Co 0.78167 0.58249 0.98095 0.0
O76 O 0.74399 0.5376 0.98847 0.0
C77 C 0.86275 0.55885 0.00705 0.0
C78 C 0.82742 0.58341 0.12122 0.0
C79 C 0.74919 0.51341 0.01597 0.0
O80 O 0.84989 0.55835 0.04112 0.0
O81 O 0.84073 0.56878 0.97888 0.0
O82 O 0.74416 0.58887 0.08261 0.0
O83 O 0.77421 0.6069 0.03025 0.0
Co84 Co 0.57815 0.20611 0.93751 0.0
O85 O 0.61589 0.1775 0.90611 0.0
O86 O 0.55431 0.19601 0.88893 0.0
C87 C 0.62034 0.25279 0.95827 0.0
O88 O 0.53182 0.23729 0.96185 0.0
Co89 Co 0.59158 0.20665 0.02406 0.0
O90 O 0.54315 0.24252 0.02416 0.0
C91 C 0.5602 0.13427 0.98822 0.0
C92 C 0.58864 0.17909 0.88009 0.0
C93 C 0.52208 0.24986 0.99493 0.0
O94 O 0.55689 0.1539 0.95718 0.0
O95 O 0.57712 0.14838 0.01758 0.0
O96 O 0.60349 0.25661 0.92555 0.0
O97 O 0.61491 0.21895 0.97552 0.0
Co98 Co 0.20086 0.42104 0.06386 0.0
O99 O 0.17554 0.37978 0.09294 0.0
O100 O 0.18003 0.44396 0.10984 0.0
C101 C 0.25686 0.38554 0.04984 0.0
O102 O 0.22594 0.47176 0.04314 0.0
Co103 Co 0.22003 0.4115 0.97932 0.0
O104 O 0.25838 0.45508 0.98989 0.0
C105 C 0.13811 0.43535 0.00272 0.0
C106 C 0.16845 0.40774 0.11788 0.0
C107 C 0.25149 0.47917 0.01715 0.0
O108 O 0.14903 0.43406 0.03734 0.0
O109 O 0.16149 0.42699 0.97511 0.0
O110 O 0.25314 0.40354 0.08215 0.0
O111 O 0.22544 0.38621 0.02845 0.0
C112 C 0.1401 0.35835 0.16308 0.0
C113 C 0.15065 0.3981 0.15476 0.0
C114 C 0.1271 0.34775 0.19916 0.0
C115 C 0.12454 0.37766 0.22756 0.0
C116 C 0.13357 0.41818 0.21895 0.0
C117 C 0.14657 0.42794 0.18259 0.0
C118 C 0.1176 0.30421 0.20727 0.0
C119 C 0.13093 0.45091 0.24848 0.0
C120 C 0.06594 0.35025 0.31508 0.0
C121 C 0.09678 0.33722 0.3393 0.0
C122 C 0.07456 0.36481 0.27897 0.0
C123 C 0.11491 0.36583 0.26676 0.0
C124 C 0.14619 0.35356 0.29143 0.0
C125 C 0.13674 0.33961 0.32751 0.0
C126 C 0.04049 0.3782 0.2536 0.0
C127 C 0.1896 0.354 0.27932 0.0
H128 H 0.14303 0.33518 0.14165 0.0
H129 H 0.15458 0.45875 0.1763 0.0
H130 H 0.13937 0.29162 0.22801 0.0
H131 H 0.0873 0.30217 0.21989 0.0
H132 H 0.11883 0.28514 0.18157 0.0
H133 H 0.13558 0.48142 0.23646 0.0
H134 H 0.10126 0.45072 0.26259 0.0
H135 H 0.15401 0.44511 0.2704 0.0
H136 H 0.035 0.34875 0.3242 0.0
H137 H 0.16069 0.32956 0.34613 0.0
H138 H 0.03895 0.35771 0.22898 0.0
H139 H 0.04576 0.40902 0.24267 0.0
H140 H 0.01107 0.37827 0.26827 0.0
H141 H 0.19439 0.33296 0.25536 0.0
H142 H 0.21041 0.345 0.30238 0.0
H143 H 0.19745 0.38461 0.26946 0.0
C144 C 0.34685 0.84228 0.66248 0.0
C145 C 0.33189 0.88157 0.65628 0.0
C146 C 0.36382 0.8314 0.69725 0.0
C147 C 0.36681 0.8609 0.72592 0.0
C148 C 0.35413 0.90125 0.71878 0.0
C149 C 0.33618 0.91095 0.68422 0.0
C150 C 0.37621 0.78788 0.70406 0.0
C151 C 0.35784 0.9338 0.74824 0.0
C152 C 0.35863 0.82744 0.82729 0.0
C153 C 0.39883 0.82603 0.83872 0.0
C154 C 0.34805 0.83816 0.79049 0.0
C155 C 0.37837 0.84867 0.76467 0.0
C156 C 0.41906 0.84786 0.77611 0.0
C157 C 0.4289 0.83603 0.81302 0.0
C158 C 0.30437 0.83792 0.77921 0.0
C159 C 0.45202 0.85976 0.74951 0.0
H160 H 0.34353 0.81956 0.64081 0.0
H161 H 0.32513 0.9415 0.67925 0.0
H162 H 0.40684 0.78586 0.71613 0.0
H163 H 0.35556 0.77439 0.72482 0.0
H164 H 0.37553 0.76957 0.67789 0.0
H165 H 0.352 0.96446 0.73649 0.0
H166 H 0.33599 0.92863 0.77118 0.0
H167 H 0.38825 0.9328 0.76091 0.0
H168 H 0.33532 0.81933 0.84696 0.0
H169 H 0.46 0.83502 0.82187 0.0
H170 H 0.30038 0.81788 0.75453 0.0
H171 H 0.29423 0.86875 0.77079 0.0
H172 H 0.2847 0.82747 0.8023 0.0
H173 H 0.45236 0.83967 0.72455 0.0
H174 H 0.48207 0.85818 0.76298 0.0
H175 H 0.44633 0.89102 0.73924 0.0
C176 C 0.86104 0.64865 0.33212 0.0
C177 C 0.90136 0.65096 0.34274 0.0
C178 C 0.85044 0.63448 0.29641 0.0
C179 C 0.88093 0.62172 0.27106 0.0
C180 C 0.9216 0.62212 0.28235 0.0
C181 C 0.93138 0.63712 0.318 0.0
C182 C 0.80675 0.63484 0.28524 0.0
C183 C 0.95484 0.608 0.25632 0.0
C184 C 0.84755 0.56185 0.18604 0.0
C185 C 0.84437 0.5922 0.15862 0.0
C186 C 0.86048 0.57073 0.22263 0.0
C187 C 0.87032 0.61087 0.23187 0.0
C188 C 0.86832 0.64135 0.20397 0.0
C189 C 0.8554 0.63162 0.16765 0.0
C190 C 0.86252 0.53744 0.25163 0.0
C191 C 0.87864 0.68452 0.21277 0.0
H192 H 0.83777 0.65939 0.35118 0.0
H193 H 0.96258 0.6385 0.32631 0.0
H194 H 0.80166 0.65664 0.26192 0.0
H195 H 0.79825 0.60466 0.27479 0.0
H196 H 0.78662 0.64345 0.30896 0.0
H197 H 0.98443 0.60654 0.27065 0.0
H198 H 0.94832 0.57768 0.24487 0.0
H199 H 0.95683 0.62898 0.2321 0.0
H200 H 0.83912 0.5313 0.17919 0.0
H201 H 0.85313 0.65518 0.14655 0.0
H202 H 0.84004 0.54361 0.27403 0.0
H203 H 0.89245 0.53642 0.26525 0.0
H204 H 0.85667 0.50733 0.23926 0.0
H205 H 0.8577 0.69688 0.23437 0.0
H206 H 0.87695 0.70429 0.18755 0.0
H207 H 0.90936 0.68579 0.2246 0.0
C208 C 0.56755 0.16205 0.81433 0.0
C209 C 0.59771 0.16462 0.84165 0.0
C210 C 0.57687 0.15021 0.7773 0.0
C211 C 0.61729 0.1415 0.76745 0.0
C212 C 0.6477 0.14375 0.79506 0.0
C213 C 0.63748 0.15494 0.83184 0.0
C214 C 0.54362 0.14736 0.7487 0.0
C215 C 0.69125 0.13516 0.78561 0.0
C216 C 0.65127 0.07968 0.68333 0.0
C217 C 0.66323 0.10994 0.65849 0.0
C218 C 0.63335 0.08959 0.7179 0.0
C219 C 0.62854 0.1307 0.72824 0.0
C220 C 0.63919 0.16136 0.70256 0.0
C221 C 0.65595 0.15055 0.66769 0.0
C222 C 0.62126 0.05605 0.74404 0.0
C223 C 0.63526 0.20553 0.71282 0.0
H224 H 0.53675 0.16942 0.82184 0.0
H225 H 0.66097 0.15703 0.85276 0.0
H226 H 0.54803 0.16982 0.72602 0.0
H227 H 0.54435 0.11704 0.73537 0.0
H228 H 0.51354 0.15283 0.76138 0.0
H229 H 0.71126 0.13868 0.81031 0.0
H230 H 0.69507 0.10391 0.77474 0.0
H231 H 0.7011 0.15595 0.76311 0.0
H232 H 0.65629 0.04823 0.67592 0.0
H233 H 0.66517 0.17394 0.64839 0.0
H234 H 0.59085 0.06227 0.75563 0.0
H235 H 0.64237 0.05428 0.76812 0.0
H236 H 0.62145 0.02623 0.72971 0.0
H237 H 0.60472 0.21274 0.72356 0.0
H238 H 0.64147 0.22559 0.68856 0.0
H239 H 0.65673 0.21238 0.73568 0.0
C240 C 0.21312 0.02875 0.51299 0.0
C241 C 0.20322 0.01896 0.55014 0.0
C242 C 0.1939 0.06117 0.49456 0.0
C243 C 0.16319 0.08336 0.51339 0.0
C244 C 0.1508 0.07138 0.54974 0.0
C245 C 0.17155 0.03972 0.56803 0.0
C246 C 0.20871 0.07361 0.45621 0.0
C247 C 0.11712 0.09336 0.57011 0.0
C248 C 0.15164 0.19486 0.49123 0.0
C249 C 0.12014 0.19518 0.46527 0.0
C250 C 0.1661 0.15852 0.50679 0.0
C251 C 0.14764 0.12185 0.49704 0.0
C252 C 0.1152 0.12213 0.47138 0.0
C253 C 0.10221 0.15886 0.45527 0.0
C254 C 0.20144 0.15935 0.53334 0.0
C255 C 0.09403 0.08379 0.4613 0.0
H256 H 0.23784 0.01287 0.49922 0.0
H257 H 0.16367 0.03186 0.59666 0.0
H258 H 0.18327 0.07796 0.43645 0.0
H259 H 0.22397 0.10295 0.45852 0.0
H260 H 0.23017 0.05103 0.44402 0.0
H261 H 0.10684 0.07632 0.59511 0.0
H262 H 0.12745 0.12328 0.57964 0.0
H263 H 0.09123 0.09871 0.55102 0.0
H264 H 0.16549 0.22302 0.49884 0.0
H265 H 0.07744 0.1593 0.43553 0.0
H266 H 0.22597 0.13922 0.5227 0.0
H267 H 0.1926 0.14788 0.56137 0.0
H268 H 0.21327 0.19022 0.53686 0.0
H269 H 0.11531 0.06211 0.44771 0.0
H270 H 0.06835 0.08944 0.44196 0.0
H271 H 0.08282 0.06913 0.4872 0.0
C272 C 0.1994 0.86622 0.47807 0.0
C273 C 0.21945 0.84889 0.50884 0.0
C274 C 0.16404 0.84923 0.46436 0.0
C275 C 0.14921 0.81405 0.48172 0.0
C276 C 0.17219 0.79406 0.50986 0.0
C277 C 0.20682 0.8121 0.52345 0.0
C278 C 0.14049 0.87132 0.43421 0.0
C279 C 0.15802 0.75596 0.5285 0.0
C280 C 0.0385 0.80217 0.49979 0.0
C281 C 0.02896 0.77124 0.47468 0.0
C282 C 0.07706 0.818 0.50067 0.0
C283 C 0.10696 0.80227 0.47605 0.0
C284 C 0.09704 0.77251 0.44931 0.0
C285 C 0.05805 0.75738 0.44886 0.0
C286 C 0.08628 0.8502 0.52933 0.0
C287 C 0.12806 0.75502 0.42264 0.0
H288 H 0.20908 0.89499 0.46715 0.0
H289 H 0.22254 0.79886 0.54731 0.0
H290 H 0.12698 0.84982 0.4142 0.0
H291 H 0.11564 0.88903 0.44749 0.0
H292 H 0.15953 0.8925 0.41831 0.0
H293 H 0.18217 0.74087 0.54522 0.0
H294 H 0.13266 0.76353 0.54764 0.0
H295 H 0.14705 0.73433 0.50724 0.0
H296 H 0.01604 0.81347 0.51942 0.0
H297 H 0.05089 0.73355 0.42925 0.0
H298 H 0.10109 0.87599 0.51559 0.0
H299 H 0.10734 0.83766 0.55072 0.0
H300 H 0.05891 0.86171 0.54398 0.0
H301 H 0.14624 0.77924 0.41012 0.0
H302 H 0.11419 0.73748 0.3996 0.0
H303 H 0.14885 0.73457 0.43837 0.0
C304 C 0.81152 0.94569 0.56776 0.0
C305 C 0.77894 0.96492 0.54995 0.0
C306 C 0.83335 0.91471 0.54957 0.0
C307 C 0.82107 0.90175 0.51349 0.0
C308 C 0.78878 0.92191 0.49504 0.0
C309 C 0.76851 0.95383 0.5133 0.0
C310 C 0.86856 0.89489 0.56953 0.0
C311 C 0.77398 0.90815 0.4571 0.0
C312 C 0.88745 0.83173 0.45465 0.0
C313 C 0.8731 0.79394 0.4651 0.0
C314 C 0.87134 0.86727 0.47071 0.0
C315 C 0.83933 0.8647 0.4967 0.0
C316 C 0.8243 0.82651 0.50669 0.0
C317 C 0.84191 0.7915 0.49124 0.0
C318 C 0.88897 0.90739 0.46044 0.0
C319 C 0.78945 0.82259 0.53351 0.0
H320 H 0.81965 0.95465 0.59604 0.0
H321 H 0.74301 0.96861 0.49975 0.0
H322 H 0.86059 0.86402 0.57853 0.0
H323 H 0.89464 0.8919 0.55026 0.0
H324 H 0.87767 0.91217 0.5948 0.0
H325 H 0.75016 0.92863 0.44559 0.0
H326 H 0.79906 0.90632 0.43665 0.0
H327 H 0.76173 0.87738 0.45968 0.0
H328 H 0.91202 0.8334 0.43477 0.0
H329 H 0.83085 0.76215 0.49915 0.0
H330 H 0.89962 0.92274 0.48621 0.0
H331 H 0.86567 0.92739 0.44755 0.0
H332 H 0.91445 0.90405 0.44048 0.0
H333 H 0.79763 0.83449 0.56157 0.0
H334 H 0.78016 0.79078 0.53685 0.0
H335 H 0.76335 0.84085 0.52328 0.0
C336 C 0.78587 0.16911 0.50149 0.0
C337 C 0.79134 0.13202 0.51981 0.0
C338 C 0.81923 0.1912 0.48989 0.0
C339 C 0.85841 0.17514 0.4963 0.0
C340 C 0.86358 0.13616 0.51211 0.0
C341 C 0.82994 0.11535 0.52417 0.0
C342 C 0.81263 0.23282 0.47345 0.0
C343 C 0.90474 0.11748 0.51867 0.0
C344 C 0.95304 0.21822 0.45483 0.0
C345 C 0.96927 0.23714 0.48645 0.0
C346 C 0.91583 0.19936 0.4569 0.0
C347 C 0.89417 0.20041 0.49114 0.0
C348 C 0.90944 0.22167 0.5224 0.0
C349 C 0.94711 0.23928 0.51983 0.0
C350 C 0.90093 0.17631 0.42325 0.0
C351 C 0.88684 0.22425 0.55918 0.0
H352 H 0.75585 0.18194 0.49849 0.0
H353 H 0.83387 0.08644 0.53823 0.0
H354 H 0.82056 0.2558 0.49476 0.0
H355 H 0.83228 0.23732 0.4487 0.0
H356 H 0.78093 0.23828 0.4649 0.0
H357 H 0.90333 0.0851 0.52665 0.0
H358 H 0.9235 0.12004 0.49305 0.0
H359 H 0.91995 0.13389 0.54162 0.0
H360 H 0.97029 0.21654 0.42899 0.0
H361 H 0.95943 0.25449 0.5441 0.0
H362 H 0.86885 0.18371 0.41783 0.0
H363 H 0.90336 0.14342 0.42907 0.0
H364 H 0.91846 0.18279 0.39746 0.0
H365 H 0.85515 0.23365 0.5542 0.0
H366 H 0.90042 0.2459 0.57908 0.0
H367 H 0.88677 0.19404 0.57269 0.0
C368 C 0.31102 0.52095 0.00476 0.0
C369 C 0.2713 0.51839 0.01705 0.0
C370 C 0.32911 0.5585 0.00099 0.0
C371 C 0.30639 0.59426 0.00848 0.0
C372 C 0.26676 0.5917 0.02242 0.0
C373 C 0.24984 0.55361 0.02706 0.0
C374 C 0.37183 0.55994 0.98707 0.0
C375 C 0.24128 0.62911 0.02986 0.0
C376 C 0.36172 0.69345 0.00908 0.0
C377 C 0.35904 0.70422 0.97109 0.0
C378 C 0.34398 0.65797 0.02216 0.0
C379 C 0.32226 0.63381 0.99673 0.0
C380 C 0.31772 0.64607 0.9588 0.0
C381 C 0.33678 0.68077 0.94633 0.0
C382 C 0.35024 0.64528 0.06253 0.0
C383 C 0.29386 0.62182 0.93101 0.0
H384 H 0.32774 0.49354 0.99756 0.0
H385 H 0.21902 0.55152 0.03647 0.0
H386 H 0.37211 0.57099 0.95761 0.0
H387 H 0.38932 0.58129 0.00424 0.0
H388 H 0.38707 0.52976 0.9879 0.0
H389 H 0.2131 0.62209 0.04495 0.0
H390 H 0.2581 0.65133 0.04661 0.0
H391 H 0.23332 0.64372 0.00269 0.0
H392 H 0.3793 0.71159 0.02804 0.0
H393 H 0.33455 0.68947 0.91698 0.0
H394 H 0.36979 0.61773 0.06341 0.0
H395 H 0.3213 0.63753 0.07576 0.0
H396 H 0.36447 0.66921 0.0795 0.0
H397 H 0.30935 0.59236 0.92573 0.0
H398 H 0.28995 0.63767 0.90367 0.0
H399 H 0.26378 0.61543 0.94263 0.0
C400 C 0.66748 0.61009 0.04906 0.0
C401 C 0.70397 0.62572 0.03705 0.0
C402 C 0.63094 0.62814 0.03808 0.0
C403 C 0.63106 0.66338 0.01554 0.0
C404 C 0.6679 0.67878 0.00267 0.0
C405 C 0.70402 0.65931 0.01315 0.0
C406 C 0.59226 0.61017 0.05151 0.0
C407 C 0.66924 0.71685 0.97937 0.0
C408 C 0.5335 0.69912 0.96987 0.0
C409 C 0.51847 0.72597 0.99715 0.0
C410 C 0.57028 0.67842 0.97534 0.0
C411 C 0.59285 0.68588 0.00826 0.0
C412 C 0.57824 0.71397 0.03526 0.0
C413 C 0.54092 0.73319 0.02964 0.0
C414 C 0.58443 0.64783 0.9465 0.0
C415 C 0.60188 0.72354 0.07027 0.0
H416 H 0.66752 0.58369 0.06711 0.0
H417 H 0.73235 0.67135 0.00394 0.0
H418 H 0.57741 0.63089 0.07198 0.0
H419 H 0.57132 0.60643 0.02757 0.0
H420 H 0.59723 0.58035 0.06528 0.0
H421 H 0.70008 0.72343 0.96968 0.0
H422 H 0.64947 0.71442 0.95444 0.0
H423 H 0.65785 0.74283 0.99631 0.0
H424 H 0.51595 0.69345 0.94483 0.0
H425 H 0.52946 0.75437 0.05051 0.0
H426 H 0.58694 0.6175 0.9597 0.0
H427 H 0.61469 0.65543 0.93613 0.0
H428 H 0.56375 0.64616 0.92208 0.0
H429 H 0.60481 0.69622 0.0882 0.0
H430 H 0.58753 0.74814 0.08713 0.0
H431 H 0.63263 0.73265 0.06256 0.0
C432 C 0.74822 0.43986 0.03105 0.0
C433 C 0.7296 0.47398 0.01478 0.0
C434 C 0.73176 0.40148 0.027 0.0
C435 C 0.69542 0.39748 0.00696 0.0
C436 C 0.67535 0.43224 0.99239 0.0
C437 C 0.69298 0.47005 0.99605 0.0
C438 C 0.75441 0.36505 0.04225 0.0
C439 C 0.63603 0.42933 0.97161 0.0
C440 C 0.67191 0.30428 0.95075 0.0
C441 C 0.64395 0.28559 0.97385 0.0
C442 C 0.69093 0.33933 0.96246 0.0
C443 C 0.68042 0.35687 0.99751 0.0
C444 C 0.65311 0.33725 0.02156 0.0
C445 C 0.63556 0.30126 0.00959 0.0
C446 C 0.72082 0.35861 0.93648 0.0
C447 C 0.64047 0.35558 0.05869 0.0
H448 H 0.77663 0.44287 0.0455 0.0
H449 H 0.67827 0.49654 0.98395 0.0
H450 H 0.73414 0.34554 0.05855 0.0
H451 H 0.76645 0.34674 0.01848 0.0
H452 H 0.77983 0.37364 0.06056 0.0
H453 H 0.62203 0.45951 0.96606 0.0
H454 H 0.64108 0.41388 0.94427 0.0
H455 H 0.61465 0.41106 0.98796 0.0
H456 H 0.67831 0.29184 0.92311 0.0
H457 H 0.61352 0.28682 0.02715 0.0
H458 H 0.74848 0.3661 0.95209 0.0
H459 H 0.70788 0.38727 0.92514 0.0
H460 H 0.72913 0.33868 0.91245 0.0
H461 H 0.66701 0.36469 0.07515 0.0
H462 H 0.62264 0.33445 0.07586 0.0
H463 H 0.62195 0.38328 0.05344 0.0
C464 C 0.46051 0.2642 0.03214 0.0
C465 C 0.48351 0.27166 3e-05 0.0
C466 C 0.42322 0.28356 0.03747 0.0
C467 C 0.40916 0.31202 0.01057 0.0
C468 C 0.43252 0.32011 0.97826 0.0
C469 C 0.46926 0.29923 0.97304 0.0
C470 C 0.39876 0.27335 0.07183 0.0
C471 C 0.41901 0.35119 0.94963 0.0
C472 C 0.29735 0.33558 0.01265 0.0
C473 C 0.29571 0.36864 0.03717 0.0
C474 C 0.33429 0.31739 0.00279 0.0
C475 C 0.37024 0.33356 0.01695 0.0
C476 C 0.36868 0.36837 0.04006 0.0
C477 C 0.33133 0.38512 0.05039 0.0
C478 C 0.33474 0.27974 0.97881 0.0
C479 C 0.40638 0.38719 0.05482 0.0
H480 H 0.47136 0.24247 0.05279 0.0
H481 H 0.48723 0.30508 0.9483 0.0
H482 H 0.39458 0.30055 0.08973 0.0
H483 H 0.36853 0.26349 0.06325 0.0
H484 H 0.41315 0.24905 0.08902 0.0
H485 H 0.44092 0.35428 0.92632 0.0
H486 H 0.38967 0.34288 0.93757 0.0
H487 H 0.41471 0.38102 0.96347 0.0
H488 H 0.26968 0.32293 0.00246 0.0
H489 H 0.32998 0.41117 0.06887 0.0
H490 H 0.34637 0.25375 0.99558 0.0
H491 H 0.35513 0.28326 0.95445 0.0
H492 H 0.30442 0.27247 0.9682 0.0
H493 H 0.42094 0.36668 0.07564 0.0
H494 H 0.40018 0.41679 0.06861 0.0
H495 H 0.42809 0.3916 0.03161 0.0
C496 C 0.9464 0.56465 0.47946 0.0
C497 C 0.96335 0.59738 0.49791 0.0
C498 C 0.96374 0.52587 0.48248 0.0
C499 C -0.0002 0.52031 0.50308 0.0
C500 C 0.01662 0.55331 0.52233 0.0
C501 C 0.9977 0.59148 0.52001 0.0
C502 C 0.94415 0.49111 0.46269 0.0
C503 C 0.05566 0.5488 0.54356 0.0
C504 C 0.03069 0.41251 0.52686 0.0
C505 C 0.05373 0.40187 0.49527 0.0
C506 C 0.01369 0.45144 0.53042 0.0
C507 C 0.02104 0.48051 0.50223 0.0
C508 C 0.04638 0.47054 0.47147 0.0
C509 C 0.06185 0.43103 0.468 0.0
C510 C 0.98596 0.46062 0.56305 0.0
C511 C 0.05596 0.50117 0.4415 0.0
H512 H 0.91975 0.56952 0.46243 0.0
H513 H 0.01093 0.61718 0.53381 0.0
H514 H 0.96326 0.48066 0.43891 0.0
H515 H 0.94101 0.46523 0.48222 0.0
H516 H 0.91404 0.49965 0.45149 0.0
H517 H 0.06323 0.57672 0.55911 0.0
H518 H 0.05437 0.52341 0.56382 0.0
H519 H 0.08028 0.54159 0.52348 0.0
H520 H 0.02407 0.38974 0.54774 0.0
H521 H 0.07989 0.42275 0.44369 0.0
H522 H 0.9549 0.46518 0.55242 0.0
H523 H 0.99449 0.48896 0.57726 0.0
H524 H 0.98606 0.43585 0.58413 0.0
H525 H 0.02864 0.50832 0.42478 0.0
H526 H 0.07981 0.49003 0.42204 0.0
H527 H 0.06577 0.52973 0.45459 0.0
C528 C 0.57262 0.04986 0.53698 0.0
C529 C 0.59596 0.01873 0.55315 0.0
C530 C 0.53168 0.04432 0.52969 0.0
C531 C 0.51426 0.00698 0.539 0.0
C532 C 0.53906 0.97408 0.55067 0.0
C533 C 0.57964 0.98044 0.55765 0.0
C534 C 0.50645 0.07971 0.51603 0.0
C535 C 0.52199 0.93355 0.56055 0.0
C536 C 0.41677 0.0059 0.5922 0.0
C537 C 0.39141 0.98656 0.56679 0.0
C538 C 0.45613 0.01488 0.58246 0.0
C539 C 0.47054 0.00483 0.54611 0.0
C540 C 0.44442 0.98784 0.51936 0.0
C541 C 0.40511 0.9785 0.53014 0.0
C542 C 0.48301 0.03278 0.61208 0.0
C543 C 0.45846 0.97817 0.47996 0.0
H544 H 0.58537 0.07938 0.53296 0.0
H545 H 0.59804 0.95601 0.56919 0.0
H546 H 0.48176 0.06965 0.4976 0.0
H547 H 0.49278 0.09553 0.54055 0.0
H548 H 0.52484 0.1017 0.50042 0.0
H549 H 0.54578 0.90969 0.56315 0.0
H550 H 0.50596 0.93598 0.58786 0.0
H551 H 0.50007 0.92397 0.53909 0.0
H552 H 0.40651 0.01253 0.6205 0.0
H553 H 0.38547 0.96419 0.51012 0.0
H554 H 0.49714 0.06044 0.60122 0.0
H555 H 0.50746 0.01083 0.61927 0.0
H556 H 0.46651 0.04069 0.63831 0.0
H557 H 0.47314 0.00473 0.46743 0.0
H558 H 0.43339 0.96913 0.46143 0.0
H559 H 0.48113 0.95316 0.48069 0.0
C560 C 0.55811 0.06325 0.0121 0.0
C561 C 0.5412 0.09457 0.99042 0.0
C562 C 0.54045 0.02514 0.01315 0.0
C563 C 0.50451 0.01882 0.99295 0.0
C564 C 0.48664 0.05087 0.97214 0.0
C565 C 0.50553 0.08818 0.97069 0.0
C566 C 0.56085 0.99135 0.0349 0.0
C567 C 0.44782 0.04563 0.951 0.0
C568 C 0.47956 0.91356 0.96001 0.0
C569 C 0.45193 0.90136 0.9873 0.0
C570 C 0.49735 0.9514 0.96198 0.0
C571 C 0.48677 0.9781 0.9916 0.0
C572 C 0.4586 0.96627 0.01906 0.0
C573 C 0.44175 0.92784 0.01678 0.0
C574 C 0.52764 0.96273 0.9324 0.0
C575 C 0.44602 0.99435 0.05059 0.0
H576 H 0.58572 0.06823 0.02732 0.0
H577 H 0.49208 0.11262 0.95439 0.0
H578 H 0.53983 0.97859 0.05569 0.0
H579 H 0.56976 0.96658 0.01538 0.0
H580 H 0.588 0.00152 0.04997 0.0
H581 H 0.43629 0.07443 0.93864 0.0
H582 H 0.45239 0.02341 0.92795 0.0
H583 H 0.42461 0.03354 0.97003 0.0
H584 H 0.48795 0.89319 0.93732 0.0
H585 H 0.42037 0.91866 0.03791 0.0
H586 H 0.55631 0.97085 0.94599 0.0
H587 H 0.51664 0.98964 0.91659 0.0
H588 H 0.53372 0.93787 0.91205 0.0
H589 H 0.47255 0.00266 0.06747 0.0
H590 H 0.42364 0.98065 0.06959 0.0
H591 H 0.43293 0.02273 0.03879 0.0
C592 C 0.06447 0.43234 0.01166 0.0
C593 C 0.09734 0.45051 0.99477 0.0
C594 C 0.02593 0.44982 0.00865 0.0
C595 C 0.02069 0.48723 0.98971 0.0
C596 C 0.05379 0.50511 0.97175 0.0
C597 C 0.09175 0.48609 0.97401 0.0
C598 C 0.99117 0.42915 0.02712 0.0
C599 C 0.04968 0.54554 0.95234 0.0
C600 C 0.9141 0.52255 0.96776 0.0
C601 C 0.90438 0.54471 0.00024 0.0
C602 C 0.95222 0.50425 0.96343 0.0
C603 C 0.98143 0.5092 0.99184 0.0
C604 C 0.97235 0.53337 0.02372 0.0
C605 C 0.93374 0.55036 0.02778 0.0
C606 C 0.9605 0.47796 0.9295 0.0
C607 C 0.00303 0.54028 0.05417 0.0
H608 H 0.0691 0.40481 0.02778 0.0
H609 H 0.11752 0.50032 0.96152 0.0
H610 H 0.98108 0.44676 0.05206 0.0
H611 H 0.96541 0.42774 0.00745 0.0
H612 H -0.0007 0.39798 0.03639 0.0
H613 H 0.07741 0.55358 0.93701 0.0
H614 H 0.0243 0.54566 0.93221 0.0
H615 H 0.04304 0.56934 0.97358 0.0
H616 H 0.89127 0.51781 0.9466 0.0
H617 H 0.92632 0.56771 0.05281 0.0
H618 H 0.96476 0.44609 0.93862 0.0
H619 H 0.9886 0.48694 0.91542 0.0
H620 H 0.93566 0.47954 0.9087 0.0
H621 H 0.00976 0.51149 0.06908 0.0
H622 H 0.99248 0.563 0.07515 0.0
H623 H 0.0315 0.55062 0.04164 0.0
loop_
_geom_bond_atom_site_label_1
_geom_bond_atom_site_label_2
_geom_bond_distance
_geom_bond_site_symmetry_2
_ccdc_geom_bond_type
Co0 O1 2.216 . S
Co0 O2 2.091 . S
Co0 O4 2.004 . S
Co0 O10 2.021 . S
Co0 O12 2.137 . S
Co0 O13 2.244 . S
O1 Co0 2.216 . S
O1 C8 1.247 . S
O2 Co0 2.091 . S
O2 C8 1.261 . S
C3 O12 1.247 . S
C3 O13 1.272 . S
O4 Co0 2.004 . S
O4 C9 1.259 . S
Co5 O6 2.061 . S
Co5 O11 2.052 . S
Co5 O13 2.135 . S
O6 Co5 2.061 . S
O6 C9 1.235 . S
C7 O10 1.238 . S
C7 O11 1.241 . S
C8 O1 1.247 . S
C8 O2 1.261 . S
C9 O4 1.259 . S
C9 O6 1.235 . S
O10 Co0 2.021 . S
O10 C7 1.238 . S
O11 Co5 2.052 . S
O11 C7 1.241 . S
O12 Co0 2.137 . S
O12 C3 1.247 . S
O13 Co0 2.244 . S
O13 C3 1.272 . S
O13 Co5 2.135 . S
Co14 O15 2.216 . S
Co14 O16 2.091 . S
Co14 O18 2.004 . S
Co14 O24 2.021 . S
Co14 O26 2.137 . S
Co14 O27 2.244 . S
O15 Co14 2.216 . S
O15 C22 1.247 . S
O16 Co14 2.091 . S
O16 C22 1.261 . S
C17 O26 1.247 . S
C17 O27 1.272 . S
O18 Co14 2.004 . S
O18 C23 1.259 . S
Co19 O20 2.061 . S
Co19 O25 2.052 1_565 S
Co19 O27 2.135 . S
O20 Co19 2.061 . S
O20 C23 1.235 . S
C21 O24 1.238 . S
C21 O25 1.241 1_565 S
C22 O15 1.247 . S
C22 O16 1.261 . S
C23 O18 1.259 . S
C23 O20 1.235 . S
O24 Co14 2.021 . S
O24 C21 1.238 . S
O25 Co19 2.052 1_545 S
O25 C21 1.241 1_545 S
O26 Co14 2.137 . S
O26 C17 1.247 . S
O27 Co14 2.244 . S
O27 C17 1.272 . S
O27 Co19 2.135 . S
Co28 O29 2.216 . S
Co28 O30 2.091 . S
Co28 O32 2.004 . S
Co28 O38 2.021 . S
Co28 O40 2.137 . S
Co28 O41 2.244 . S
O29 Co28 2.216 . S
O29 C36 1.247 . S
O30 Co28 2.091 . S
O30 C36 1.261 . S
C31 O40 1.247 . S
C31 O41 1.272 . S
O32 Co28 2.004 . S
O32 C37 1.259 . S
Co33 O34 2.061 . S
Co33 O39 2.052 . S
Co33 O41 2.135 . S
O34 Co33 2.061 . S
O34 C37 1.235 . S
C35 O38 1.238 . S
C35 O39 1.241 . S
C36 O29 1.247 . S
C36 O30 1.261 . S
C37 O32 1.259 . S
C37 O34 1.235 . S
O38 Co28 2.021 . S
O38 C35 1.238 . S
O39 Co33 2.052 . S
O39 C35 1.241 . S
O40 Co28 2.137 . S
O40 C31 1.247 . S
O41 Co28 2.244 . S
O41 C31 1.272 . S
O41 Co33 2.135 . S
Co42 O43 2.216 . S
Co42 O44 2.091 . S
Co42 O46 2.004 . S
Co42 O52 2.021 . S
Co42 O54 2.137 . S
Co42 O55 2.244 . S
O43 Co42 2.216 . S
O43 C50 1.247 . S
O44 Co42 2.091 . S
O44 C50 1.261 . S
C45 O54 1.247 . S
C45 O55 1.272 . S
O46 Co42 2.004 . S
O46 C51 1.259 . S
Co47 O48 2.061 . S
Co47 O53 2.052 1_545 S
Co47 O55 2.135 . S
O48 Co47 2.061 . S
O48 C51 1.235 . S
C49 O52 1.238 . S
C49 O53 1.241 1_545 S
C50 O43 1.247 . S
C50 O44 1.261 . S
C51 O46 1.259 . S
C51 O48 1.235 . S
O52 Co42 2.021 . S
O52 C49 1.238 . S
O53 Co47 2.052 1_565 S
O53 C49 1.241 1_565 S
O54 Co42 2.137 . S
O54 C45 1.247 . S
O55 Co42 2.244 . S
O55 C45 1.272 . S
O55 Co47 2.135 . S
Co56 O57 2.216 . S
Co56 O58 2.091 . S
Co56 O60 2.004 . S
Co56 O66 2.021 . S
Co56 O68 2.137 . S
Co56 O69 2.244 . S
O57 Co56 2.216 . S
O57 C64 1.247 . S
O58 Co56 2.091 . S
O58 C64 1.261 . S
C59 O68 1.247 . S
C59 O69 1.272 . S
O60 Co56 2.004 . S
O60 C65 1.259 . S
Co61 O62 2.061 . S
Co61 O67 2.052 . S
Co61 O69 2.135 1_554 S
O62 Co61 2.061 . S
O62 C65 1.235 1_554 S
C63 O66 1.238 . S
C63 O67 1.241 1_556 S
C64 O57 1.247 . S
C64 O58 1.261 . S
C65 O60 1.259 . S
C65 O62 1.235 1_556 S
O66 Co56 2.021 . S
O66 C63 1.238 . S
O67 Co61 2.052 . S
O67 C63 1.241 1_554 S
O68 Co56 2.137 . S
O68 C59 1.247 . S
O69 Co56 2.244 . S
O69 C59 1.272 . S
O69 Co61 2.135 1_556 S
Co70 O71 2.216 . S
Co70 O72 2.091 . S
Co70 O74 2.004 . S
Co70 O80 2.021 . S
Co70 O82 2.137 . S
Co70 O83 2.244 . S
O71 Co70 2.216 . S
O71 C78 1.247 . S
O72 Co70 2.091 . S
O72 C78 1.261 . S
C73 O82 1.247 . S
C73 O83 1.272 . S
O74 Co70 2.004 . S
O74 C79 1.259 . S
Co75 O76 2.061 . S
Co75 O81 2.052 . S
Co75 O83 2.135 1_556 S
O76 Co75 2.061 . S
O76 C79 1.235 1_556 S
C77 O80 1.238 . S
C77 O81 1.241 1_554 S
C78 O71 1.247 . S
C78 O72 1.261 . S
C79 O74 1.259 . S
C79 O76 1.235 1_554 S
O80 Co70 2.021 . S
O80 C77 1.238 . S
O81 Co75 2.052 . S
O81 C77 1.241 1_556 S
O82 Co70 2.137 . S
O82 C73 1.247 . S
O83 Co70 2.244 . S
O83 C73 1.272 . S
O83 Co75 2.135 1_554 S
Co84 O85 2.216 . S
Co84 O86 2.091 . S
Co84 O88 2.004 . S
Co84 O94 2.021 . S
Co84 O96 2.137 . S
Co84 O97 2.244 . S
O85 Co84 2.216 . S
O85 C92 1.247 . S
O86 Co84 2.091 . S
O86 C92 1.261 . S
C87 O96 1.247 . S
C87 O97 1.272 . S
O88 Co84 2.004 . S
O88 C93 1.259 . S
Co89 O90 2.061 . S
Co89 O95 2.052 . S
Co89 O97 2.135 1_554 S
O90 Co89 2.061 . S
O90 C93 1.235 1_554 S
C91 O94 1.238 . S
C91 O95 1.241 1_556 S
C92 O85 1.247 . S
C92 O86 1.261 . S
C93 O88 1.259 . S
C93 O90 1.235 1_556 S
O94 Co84 2.021 . S
O94 C91 1.238 . S
O95 Co89 2.052 . S
O95 C91 1.241 1_554 S
O96 Co84 2.137 . S
O96 C87 1.247 . S
O97 Co84 2.244 . S
O97 C87 1.272 . S
O97 Co89 2.135 1_556 S
Co98 O99 2.216 . S
Co98 O100 2.091 . S
Co98 O102 2.004 . S
Co98 O108 2.021 . S
Co98 O110 2.137 . S
Co98 O111 2.244 . S
O99 Co98 2.216 . S
O99 C106 1.247 . S
O100 Co98 2.091 . S
O100 C106 1.261 . S
C101 O110 1.247 . S
C101 O111 1.272 . S
O102 Co98 2.004 . S
O102 C107 1.259 . S
Co103 O104 2.061 . S
Co103 O109 2.052 . S
Co103 O111 2.135 1_556 S
O104 Co103 2.061 . S
O104 C107 1.235 1_556 S
C105 O108 1.238 . S
C105 O109 1.241 1_554 S
C106 O99 1.247 . S
C106 O100 1.261 . S
C107 O102 1.259 . S
C107 O104 1.235 1_554 S
O108 Co98 2.021 . S
O108 C105 1.238 . S
O109 Co103 2.052 . S
O109 C105 1.241 1_556 S
O110 Co98 2.137 . S
O110 C101 1.247 . S
O111 Co98 2.244 . S
O111 C101 1.272 . S
O111 Co103 2.135 1_554 S
C112 C113 1.391 . S
C112 C114 1.394 . S
C112 H128 0.931 . S
C113 C112 1.391 . S
C113 C117 1.376 . S
C114 C112 1.394 . S
C114 C115 1.369 . S
C114 C118 1.531 . S
C115 C114 1.369 . S
C115 C116 1.410 . S
C115 C123 1.503 . S
C116 C115 1.410 . S
C116 C117 1.392 . S
C116 C119 1.511 . S
C117 C113 1.376 . S
C117 C116 1.392 . S
C117 H129 0.929 . S
C118 C114 1.531 . S
C118 H130 0.960 . S
C118 H131 0.962 . S
C118 H132 0.960 . S
C119 C116 1.511 . S
C119 H133 0.961 . S
C119 H134 0.961 . S
C119 H135 0.961 . S
C120 C121 1.370 . S
C120 C122 1.363 . S
C120 H136 0.931 . S
C121 C120 1.370 . S
C121 C125 1.408 . S
C122 C120 1.363 . S
C122 C123 1.370 . S
C122 C126 1.524 . S
C123 C115 1.503 . S
C123 C122 1.370 . S
C123 C124 1.403 . S
C124 C123 1.403 . S
C124 C125 1.404 . S
C124 C127 1.539 . S
C125 C121 1.408 . S
C125 C124 1.404 . S
C125 H137 0.930 . S
C126 C122 1.524 . S
C126 H138 0.956 . S
C126 H139 0.961 . S
C126 H140 0.961 . S
C127 C124 1.539 . S
C127 H141 0.958 . S
C127 H142 0.961 . S
C127 H143 0.960 . S
H128 C112 0.931 . S
H129 C117 0.929 . S
H130 C118 0.960 . S
H131 C118 0.962 . S
H132 C118 0.960 . S
H133 C119 0.961 . S
H134 C119 0.961 . S
H135 C119 0.961 . S
H136 C120 0.931 . S
H137 C125 0.930 . S
H138 C126 0.956 . S
H139 C126 0.961 . S
H140 C126 0.961 . S
H141 C127 0.958 . S
H142 C127 0.961 . S
H143 C127 0.960 . S
C144 C145 1.391 . S
C144 C146 1.394 . S
C144 H160 0.931 . S
C145 C144 1.391 . S
C145 C149 1.376 . S
C146 C144 1.394 . S
C146 C147 1.369 . S
C146 C150 1.531 . S
C147 C146 1.369 . S
C147 C148 1.410 . S
C147 C155 1.503 . S
C148 C147 1.410 . S
C148 C149 1.392 . S
C148 C151 1.511 . S
C149 C145 1.376 . S
C149 C148 1.392 . S
C149 H161 0.929 . S
C150 C146 1.531 . S
C150 H162 0.960 . S
C150 H163 0.962 . S
C150 H164 0.960 . S
C151 C148 1.511 . S
C151 H165 0.961 . S
C151 H166 0.961 . S
C151 H167 0.961 . S
C152 C153 1.370 . S
C152 C154 1.363 . S
C152 H168 0.931 . S
C153 C152 1.370 . S
C153 C157 1.408 . S
C154 C152 1.363 . S
C154 C155 1.370 . S
C154 C158 1.524 . S
C155 C147 1.503 . S
C155 C154 1.370 . S
C155 C156 1.403 . S
C156 C155 1.403 . S
C156 C157 1.404 . S
C156 C159 1.539 . S
C157 C153 1.408 . S
C157 C156 1.404 . S
C157 H169 0.930 . S
C158 C154 1.524 . S
C158 H170 0.956 . S
C158 H171 0.961 . S
C158 H172 0.961 . S
C159 C156 1.539 . S
C159 H173 0.958 . S
C159 H174 0.961 . S
C159 H175 0.960 . S
H160 C144 0.931 . S
H161 C149 0.929 . S
H162 C150 0.960 . S
H163 C150 0.962 . S
H164 C150 0.960 . S
H165 C151 0.961 . S
H166 C151 0.961 . S
H167 C151 0.961 . S
H168 C152 0.931 . S
H169 C157 0.930 . S
H170 C158 0.956 . S
H171 C158 0.961 . S
H172 C158 0.961 . S
H173 C159 0.958 . S
H174 C159 0.961 . S
H175 C159 0.960 . S
C176 C177 1.391 . S
C176 C178 1.394 . S
C176 H192 0.931 . S
C177 C176 1.391 . S
C177 C181 1.376 . S
C178 C176 1.394 . S
C178 C179 1.369 . S
C178 C182 1.531 . S
C179 C178 1.369 . S
C179 C180 1.410 . S
C179 C187 1.503 . S
C180 C179 1.410 . S
C180 C181 1.392 . S
C180 C183 1.511 . S
C181 C177 1.376 . S
C181 C180 1.392 . S
C181 H193 0.929 . S
C182 C178 1.531 . S
C182 H194 0.960 . S
C182 H195 0.962 . S
C182 H196 0.960 . S
C183 C180 1.511 . S
C183 H197 0.961 . S
C183 H198 0.961 . S
C183 H199 0.961 . S
C184 C185 1.370 . S
C184 C186 1.363 . S
C184 H200 0.931 . S
C185 C184 1.370 . S
C185 C189 1.408 . S
C186 C184 1.363 . S
C186 C187 1.370 . S
C186 C190 1.524 . S
C187 C179 1.503 . S
C187 C186 1.370 . S
C187 C188 1.403 . S
C188 C187 1.403 . S
C188 C189 1.404 . S
C188 C191 1.539 . S
C189 C185 1.408 . S
C189 C188 1.404 . S
C189 H201 0.930 . S
C190 C186 1.524 . S
C190 H202 0.956 . S
C190 H203 0.961 . S
C190 H204 0.961 . S
C191 C188 1.539 . S
C191 H205 0.958 . S
C191 H206 0.961 . S
C191 H207 0.960 . S
H192 C176 0.931 . S
H193 C181 0.929 . S
H194 C182 0.960 . S
H195 C182 0.962 . S
H196 C182 0.960 . S
H197 C183 0.961 . S
H198 C183 0.961 . S
H199 C183 0.961 . S
H200 C184 0.931 . S
H201 C189 0.930 . S
H202 C190 0.956 . S
H203 C190 0.961 . S
H204 C190 0.961 . S
H205 C191 0.958 . S
H206 C191 0.961 . S
H207 C191 0.960 . S
C208 C209 1.391 . S
C208 C210 1.394 . S
C208 H224 0.931 . S
C209 C208 1.391 . S
C209 C213 1.376 . S
C210 C208 1.394 . S
C210 C211 1.369 . S
C210 C214 1.531 . S
C211 C210 1.369 . S
C211 C212 1.410 . S
C211 C219 1.503 . S
C212 C211 1.410 . S
C212 C213 1.392 . S
C212 C215 1.511 . S
C213 C209 1.376 . S
C213 C212 1.392 . S
C213 H225 0.929 . S
C214 C210 1.531 . S
C214 H226 0.960 . S
C214 H227 0.962 . S
C214 H228 0.960 . S
C215 C212 1.511 . S
C215 H229 0.961 . S
C215 H230 0.961 . S
C215 H231 0.961 . S
C216 C217 1.370 . S
C216 C218 1.363 . S
C216 H232 0.931 . S
C217 C216 1.370 . S
C217 C221 1.408 . S
C218 C216 1.363 . S
C218 C219 1.370 . S
C218 C222 1.524 . S
C219 C211 1.503 . S
C219 C218 1.370 . S
C219 C220 1.403 . S
C220 C219 1.403 . S
C220 C221 1.404 . S
C220 C223 1.539 . S
C221 C217 1.408 . S
C221 C220 1.404 . S
C221 H233 0.930 . S
C222 C218 1.524 . S
C222 H234 0.956 . S
C222 H235 0.961 . S
C222 H236 0.961 . S
C223 C220 1.539 . S
C223 H237 0.958 . S
C223 H238 0.961 . S
C223 H239 0.960 . S
H224 C208 0.931 . S
H225 C213 0.929 . S
H226 C214 0.960 . S
H227 C214 0.962 . S
H228 C214 0.960 . S
H229 C215 0.961 . S
H230 C215 0.961 . S
H231 C215 0.961 . S
H232 C216 0.931 . S
H233 C221 0.930 . S
H234 C222 0.956 . S
H235 C222 0.961 . S
H236 C222 0.961 . S
H237 C223 0.958 . S
H238 C223 0.961 . S
H239 C223 0.960 . S
C240 C241 1.391 . S
C240 C242 1.394 . S
C240 H256 0.931 . S
C241 C240 1.391 . S
C241 C245 1.376 . S
C242 C240 1.394 . S
C242 C243 1.369 . S
C242 C246 1.531 . S
C243 C242 1.369 . S
C243 C244 1.410 . S
C243 C251 1.503 . S
C244 C243 1.410 . S
C244 C245 1.392 . S
C244 C247 1.511 . S
C245 C241 1.376 . S
C245 C244 1.392 . S
C245 H257 0.929 . S
C246 C242 1.531 . S
C246 H258 0.960 . S
C246 H259 0.962 . S
C246 H260 0.960 . S
C247 C244 1.511 . S
C247 H261 0.961 . S
C247 H262 0.961 . S
C247 H263 0.961 . S
C248 C249 1.370 . S
C248 C250 1.363 . S
C248 H264 0.931 . S
C249 C248 1.370 . S
C249 C253 1.408 . S
C250 C248 1.363 . S
C250 C251 1.370 . S
C250 C254 1.524 . S
C251 C243 1.503 . S
C251 C250 1.370 . S
C251 C252 1.403 . S
C252 C251 1.403 . S
C252 C253 1.404 . S
C252 C255 1.539 . S
C253 C249 1.408 . S
C253 C252 1.404 . S
C253 H265 0.930 . S
C254 C250 1.524 . S
C254 H266 0.956 . S
C254 H267 0.961 . S
C254 H268 0.961 . S
C255 C252 1.539 . S
C255 H269 0.958 . S
C255 H270 0.961 . S
C255 H271 0.960 . S
H256 C240 0.931 . S
H257 C245 0.929 . S
H258 C246 0.960 . S
H259 C246 0.962 . S
H260 C246 0.960 . S
H261 C247 0.961 . S
H262 C247 0.961 . S
H263 C247 0.961 . S
H264 C248 0.931 . S
H265 C253 0.930 . S
H266 C254 0.956 . S
H267 C254 0.961 . S
H268 C254 0.961 . S
H269 C255 0.958 . S
H270 C255 0.961 . S
H271 C255 0.960 . S
C272 C273 1.391 . S
C272 C274 1.394 . S
C272 H288 0.931 . S
C273 C272 1.391 . S
C273 C277 1.376 . S
C274 C272 1.394 . S
C274 C275 1.369 . S
C274 C278 1.531 . S
C275 C274 1.369 . S
C275 C276 1.410 . S
C275 C283 1.503 . S
C276 C275 1.410 . S
C276 C277 1.392 . S
C276 C279 1.511 . S
C277 C273 1.376 . S
C277 C276 1.392 . S
C277 H289 0.929 . S
C278 C274 1.531 . S
C278 H290 0.960 . S
C278 H291 0.962 . S
C278 H292 0.960 . S
C279 C276 1.511 . S
C279 H293 0.961 . S
C279 H294 0.961 . S
C279 H295 0.961 . S
C280 C281 1.370 . S
C280 C282 1.363 . S
C280 H296 0.931 . S
C281 C280 1.370 . S
C281 C285 1.408 . S
C282 C280 1.363 . S
C282 C283 1.370 . S
C282 C286 1.524 . S
C283 C275 1.503 . S
C283 C282 1.370 . S
C283 C284 1.403 . S
C284 C283 1.403 . S
C284 C285 1.404 . S
C284 C287 1.539 . S
C285 C281 1.408 . S
C285 C284 1.404 . S
C285 H297 0.930 . S
C286 C282 1.524 . S
C286 H298 0.956 . S
C286 H299 0.961 . S
C286 H300 0.961 . S
C287 C284 1.539 . S
C287 H301 0.958 . S
C287 H302 0.961 . S
C287 H303 0.960 . S
H288 C272 0.931 . S
H289 C277 0.929 . S
H290 C278 0.960 . S
H291 C278 0.962 . S
H292 C278 0.960 . S
H293 C279 0.961 . S
H294 C279 0.961 . S
H295 C279 0.961 . S
H296 C280 0.931 . S
H297 C285 0.930 . S
H298 C286 0.956 . S
H299 C286 0.961 . S
H300 C286 0.961 . S
H301 C287 0.958 . S
H302 C287 0.961 . S
H303 C287 0.960 . S
C304 C305 1.391 . S
C304 C306 1.394 . S
C304 H320 0.931 . S
C305 C304 1.391 . S
C305 C309 1.376 . S
C306 C304 1.394 . S
C306 C307 1.369 . S
C306 C310 1.531 . S
C307 C306 1.369 . S
C307 C308 1.410 . S
C307 C315 1.503 . S
C308 C307 1.410 . S
C308 C309 1.392 . S
C308 C311 1.511 . S
C309 C305 1.376 . S
C309 C308 1.392 . S
C309 H321 0.929 . S
C310 C306 1.531 . S
C310 H322 0.960 . S
C310 H323 0.962 . S
C310 H324 0.960 . S
C311 C308 1.511 . S
C311 H325 0.961 . S
C311 H326 0.961 . S
C311 H327 0.961 . S
C312 C313 1.370 . S
C312 C314 1.363 . S
C312 H328 0.931 . S
C313 C312 1.370 . S
C313 C317 1.408 . S
C314 C312 1.363 . S
C314 C315 1.370 . S
C314 C318 1.524 . S
C315 C307 1.503 . S
C315 C314 1.370 . S
C315 C316 1.403 . S
C316 C315 1.403 . S
C316 C317 1.404 . S
C316 C319 1.539 . S
C317 C313 1.408 . S
C317 C316 1.404 . S
C317 H329 0.930 . S
C318 C314 1.524 . S
C318 H330 0.956 . S
C318 H331 0.961 . S
C318 H332 0.961 . S
C319 C316 1.539 . S
C319 H333 0.958 . S
C319 H334 0.961 . S
C319 H335 0.960 . S
H320 C304 0.931 . S
H321 C309 0.929 . S
H322 C310 0.960 . S
H323 C310 0.962 . S
H324 C310 0.960 . S
H325 C311 0.961 . S
H326 C311 0.961 . S
H327 C311 0.961 . S
H328 C312 0.931 . S
H329 C317 0.930 . S
H330 C318 0.956 . S
H331 C318 0.961 . S
H332 C318 0.961 . S
H333 C319 0.958 . S
H334 C319 0.961 . S
H335 C319 0.960 . S
C336 C337 1.391 . S
C336 C338 1.394 . S
C336 H352 0.931 . S
C337 C336 1.391 . S
C337 C341 1.376 . S
C338 C336 1.394 . S
C338 C339 1.369 . S
C338 C342 1.531 . S
C339 C338 1.369 . S
C339 C340 1.410 . S
C339 C347 1.503 . S
C340 C339 1.410 . S
C340 C341 1.392 . S
C340 C343 1.511 . S
C341 C337 1.376 . S
C341 C340 1.392 . S
C341 H353 0.929 . S
C342 C338 1.531 . S
C342 H354 0.960 . S
C342 H355 0.962 . S
C342 H356 0.960 . S
C343 C340 1.511 . S
C343 H357 0.961 . S
C343 H358 0.961 . S
C343 H359 0.961 . S
C344 C345 1.370 . S
C344 C346 1.363 . S
C344 H360 0.931 . S
C345 C344 1.370 . S
C345 C349 1.408 . S
C346 C344 1.363 . S
C346 C347 1.370 . S
C346 C350 1.524 . S
C347 C339 1.503 . S
C347 C346 1.370 . S
C347 C348 1.403 . S
C348 C347 1.403 . S
C348 C349 1.404 . S
C348 C351 1.539 . S
C349 C345 1.408 . S
C349 C348 1.404 . S
C349 H361 0.930 . S
C350 C346 1.524 . S
C350 H362 0.956 . S
C350 H363 0.961 . S
C350 H364 0.961 . S
C351 C348 1.539 . S
C351 H365 0.958 . S
C351 H366 0.961 . S
C351 H367 0.960 . S
H352 C336 0.931 . S
H353 C341 0.929 . S
H354 C342 0.960 . S
H355 C342 0.962 . S
H356 C342 0.960 . S
H357 C343 0.961 . S
H358 C343 0.961 . S
H359 C343 0.961 . S
H360 C344 0.931 . S
H361 C349 0.930 . S
H362 C350 0.956 . S
H363 C350 0.961 . S
H364 C350 0.961 . S
H365 C351 0.958 . S
H366 C351 0.961 . S
H367 C351 0.960 . S
C368 C369 1.391 . S
C368 C370 1.388 1_554 S
C368 H384 0.931 . S
C369 C368 1.391 . S
C369 C373 1.376 . S
C370 C368 1.388 1_556 S
C370 C371 1.370 . S
C370 C374 1.536 . S
C371 C370 1.370 . S
C371 C372 1.410 1_556 S
C371 C379 1.503 . S
C372 C371 1.410 1_554 S
C372 C373 1.392 . S
C372 C375 1.512 . S
C373 C369 1.376 . S
C373 C372 1.392 . S
C373 H385 0.929 . S
C374 C370 1.536 . S
C374 H386 0.960 . S
C374 H387 0.962 1_556 S
C374 H388 0.960 . S
C375 C372 1.512 . S
C375 H389 0.968 . S
C375 H390 0.966 . S
C375 H391 0.948 1_554 S
C376 C377 1.370 1_554 S
C376 C378 1.363 . S
C376 H392 0.931 . S
C377 C376 1.370 1_556 S
C377 C381 1.408 . S
C378 C376 1.363 . S
C378 C379 1.370 1_554 S
C378 C382 1.524 . S
C379 C371 1.503 . S
C379 C378 1.370 1_556 S
C379 C380 1.403 . S
C380 C379 1.403 . S
C380 C381 1.404 . S
C380 C383 1.539 . S
C381 C377 1.408 . S
C381 C380 1.404 . S
C381 H393 0.930 . S
C382 C378 1.524 . S
C382 H394 0.956 . S
C382 H395 0.961 . S
C382 H396 0.961 . S
C383 C380 1.539 . S
C383 H397 0.958 . S
C383 H398 0.961 . S
C383 H399 0.960 . S
H384 C368 0.931 . S
H385 C373 0.929 . S
H386 C374 0.960 . S
H387 C374 0.962 1_554 S
H388 C374 0.960 . S
H389 C375 0.968 . S
H390 C375 0.966 . S
H391 C375 0.948 1_556 S
H392 C376 0.931 . S
H393 C381 0.930 . S
H394 C382 0.956 . S
H395 C382 0.961 . S
H396 C382 0.961 . S
H397 C383 0.958 . S
H398 C383 0.961 . S
H399 C383 0.960 . S
C400 C401 1.391 . S
C400 C402 1.394 . S
C400 H416 0.931 . S
C401 C400 1.391 . S
C401 C405 1.376 1_554 S
C402 C400 1.394 . S
C402 C403 1.369 . S
C402 C406 1.531 . S
C403 C402 1.369 . S
C403 C404 1.410 1_554 S
C403 C411 1.503 . S
C404 C403 1.410 1_556 S
C404 C405 1.392 . S
C404 C407 1.511 . S
C405 C401 1.376 1_556 S
C405 C404 1.392 . S
C405 H417 0.929 . S
C406 C402 1.531 . S
C406 H418 0.960 . S
C406 H419 0.962 . S
C406 H420 0.960 . S
C407 C404 1.511 . S
C407 H421 0.961 . S
C407 H422 0.961 . S
C407 H423 0.961 . S
C408 C409 1.370 . S
C408 C410 1.363 . S
C408 H424 0.931 . S
C409 C408 1.370 . S
C409 C413 1.408 1_556 S
C410 C408 1.363 . S
C410 C411 1.370 1_556 S
C410 C414 1.524 . S
C411 C403 1.503 . S
C411 C410 1.370 1_554 S
C411 C412 1.403 . S
C412 C411 1.403 . S
C412 C413 1.404 . S
C412 C415 1.539 . S
C413 C409 1.408 1_554 S
C413 C412 1.404 . S
C413 H425 0.930 . S
C414 C410 1.524 . S
C414 H426 0.956 . S
C414 H427 0.961 . S
C414 H428 0.961 . S
C415 C412 1.539 . S
C415 H429 0.958 . S
C415 H430 0.961 . S
C415 H431 0.960 . S
H416 C400 0.931 . S
H417 C405 0.929 . S
H418 C406 0.960 . S
H419 C406 0.962 . S
H420 C406 0.960 . S
H421 C407 0.961 . S
H422 C407 0.961 . S
H423 C407 0.961 . S
H424 C408 0.931 . S
H425 C413 0.930 . S
H426 C414 0.956 . S
H427 C414 0.961 . S
H428 C414 0.961 . S
H429 C415 0.958 . S
H430 C415 0.961 . S
H431 C415 0.960 . S
C432 C433 1.391 . S
C432 C434 1.394 . S
C432 H448 0.931 . S
C433 C432 1.391 . S
C433 C437 1.367 1_554 S
C434 C432 1.394 . S
C434 C435 1.369 . S
C434 C438 1.531 . S
C435 C434 1.369 . S
C435 C436 1.410 1_554 S
C435 C443 1.503 . S
C436 C435 1.410 1_556 S
C436 C437 1.394 . S
C436 C439 1.511 . S
C437 C433 1.367 1_556 S
C437 C436 1.394 . S
C437 H449 0.937 . S
C438 C434 1.531 . S
C438 H450 0.960 . S
C438 H451 0.962 . S
C438 H452 0.960 . S
C439 C436 1.511 . S
C439 H453 0.961 . S
C439 H454 0.961 . S
C439 H455 0.961 . S
C440 C441 1.370 . S
C440 C442 1.363 . S
C440 H456 0.931 . S
C441 C440 1.370 . S
C441 C445 1.408 1_556 S
C442 C440 1.363 . S
C442 C443 1.370 1_556 S
C442 C446 1.524 . S
C443 C435 1.503 . S
C443 C442 1.370 1_554 S
C443 C444 1.403 . S
C444 C443 1.403 . S
C444 C445 1.404 . S
C444 C447 1.539 . S
C445 C441 1.408 1_554 S
C445 C444 1.404 . S
C445 H457 0.930 . S
C446 C442 1.524 . S
C446 H458 0.956 . S
C446 H459 0.961 . S
C446 H460 0.961 . S
C447 C444 1.539 . S
C447 H461 0.958 . S
C447 H462 0.961 . S
C447 H463 0.960 . S
H448 C432 0.931 . S
H449 C437 0.937 . S
H450 C438 0.960 . S
H451 C438 0.962 . S
H452 C438 0.960 . S
H453 C439 0.961 . S
H454 C439 0.961 . S
H455 C439 0.961 . S
H456 C440 0.931 . S
H457 C445 0.930 . S
H458 C446 0.956 . S
H459 C446 0.961 . S
H460 C446 0.961 . S
H461 C447 0.958 . S
H462 C447 0.961 . S
H463 C447 0.960 . S
C464 C465 1.391 1_554 S
C464 C466 1.394 . S
C464 H480 0.931 . S
C465 C464 1.391 1_556 S
C465 C469 1.376 . S
C466 C464 1.394 . S
C466 C467 1.369 . S
C466 C470 1.531 . S
C467 C466 1.369 . S
C467 C468 1.410 1_554 S
C467 C475 1.503 . S
C468 C467 1.410 1_556 S
C468 C469 1.392 . S
C468 C471 1.511 . S
C469 C465 1.376 . S
C469 C468 1.392 . S
C469 H481 0.929 . S
C470 C466 1.531 . S
C470 H482 0.960 . S
C470 H483 0.962 . S
C470 H484 0.960 . S
C471 C468 1.511 . S
C471 H485 0.961 . S
C471 H486 0.961 . S
C471 H487 0.961 . S
C472 C473 1.370 1_556 S
C472 C474 1.363 . S
C472 H488 0.931 . S
C473 C472 1.370 1_554 S
C473 C477 1.408 . S
C474 C472 1.363 . S
C474 C475 1.370 1_556 S
C474 C478 1.524 . S
C475 C467 1.503 . S
C475 C474 1.370 1_554 S
C475 C476 1.403 . S
C476 C475 1.403 . S
C476 C477 1.404 . S
C476 C479 1.539 . S
C477 C473 1.408 . S
C477 C476 1.404 . S
C477 H489 0.930 . S
C478 C474 1.524 . S
C478 H490 0.956 . S
C478 H491 0.961 . S
C478 H492 0.961 . S
C479 C476 1.539 . S
C479 H493 0.958 . S
C479 H494 0.961 . S
C479 H495 0.960 . S
H480 C464 0.931 . S
H481 C469 0.929 . S
H482 C470 0.960 . S
H483 C470 0.962 . S
H484 C470 0.960 . S
H485 C471 0.961 . S
H486 C471 0.961 . S
H487 C471 0.961 . S
H488 C472 0.931 . S
H489 C477 0.930 . S
H490 C478 0.956 . S
H491 C478 0.961 . S
H492 C478 0.961 . S
H493 C479 0.958 . S
H494 C479 0.961 . S
H495 C479 0.960 . S
C496 C497 1.391 . S
C496 C498 1.394 . S
C496 H512 0.931 . S
C497 C496 1.391 . S
C497 C501 1.376 . S
C498 C496 1.394 . S
C498 C499 1.369 . S
C498 C502 1.531 . S
C499 C498 1.369 . S
C499 C500 1.410 1_655 S
C499 C507 1.503 1_655 S
C500 C499 1.410 1_455 S
C500 C501 1.392 1_455 S
C500 C503 1.511 . S
C501 C497 1.376 . S
C501 C500 1.392 1_655 S
C501 H513 0.929 1_655 S
C502 C498 1.531 . S
C502 H514 0.960 . S
C502 H515 0.962 . S
C502 H516 0.960 . S
C503 C500 1.511 . S
C503 H517 0.961 . S
C503 H518 0.961 . S
C503 H519 0.961 . S
C504 C505 1.370 . S
C504 C506 1.363 . S
C504 H520 0.931 . S
C505 C504 1.370 . S
C505 C509 1.408 . S
C506 C504 1.363 . S
C506 C507 1.370 . S
C506 C510 1.524 1_455 S
C507 C499 1.503 1_455 S
C507 C506 1.370 . S
C507 C508 1.403 . S
C508 C507 1.403 . S
C508 C509 1.404 . S
C508 C511 1.539 . S
C509 C505 1.408 . S
C509 C508 1.404 . S
C509 H521 0.930 . S
C510 C506 1.524 1_655 S
C510 H522 0.956 . S
C510 H523 0.952 1_655 S
C510 H524 0.961 . S
C511 C508 1.539 . S
C511 H525 0.958 . S
C511 H526 0.961 . S
C511 H527 0.960 . S
H512 C496 0.931 . S
H513 C501 0.929 1_455 S
H514 C502 0.960 . S
H515 C502 0.962 . S
H516 C502 0.960 . S
H517 C503 0.961 . S
H518 C503 0.961 . S
H519 C503 0.961 . S
H520 C504 0.931 . S
H521 C509 0.930 . S
H522 C510 0.956 . S
H523 C510 0.952 1_455 S
H524 C510 0.961 . S
H525 C511 0.958 . S
H526 C511 0.961 . S
H527 C511 0.960 . S
C528 C529 1.391 . S
C528 C530 1.394 . S
C528 H544 0.931 . S
C529 C528 1.391 . S
C529 C533 1.376 . S
C530 C528 1.394 . S
C530 C531 1.369 . S
C530 C534 1.531 . S
C531 C530 1.369 . S
C531 C532 1.410 1_545 S
C531 C539 1.503 1_545 S
C532 C531 1.410 1_565 S
C532 C533 1.392 1_565 S
C532 C535 1.511 . S
C533 C529 1.376 . S
C533 C532 1.392 1_545 S
C533 H545 0.929 1_545 S
C534 C530 1.531 . S
C534 H546 0.960 . S
C534 H547 0.962 . S
C534 H548 0.960 . S
C535 C532 1.511 . S
C535 H549 0.961 . S
C535 H550 0.961 . S
C535 H551 0.961 . S
C536 C537 1.370 . S
C536 C538 1.363 . S
C536 H552 0.931 . S
C537 C536 1.370 . S
C537 C541 1.408 . S
C538 C536 1.363 . S
C538 C539 1.370 . S
C538 C542 1.524 1_565 S
C539 C531 1.503 1_565 S
C539 C538 1.370 . S
C539 C540 1.403 . S
C540 C539 1.403 . S
C540 C541 1.404 . S
C540 C543 1.539 . S
C541 C537 1.408 . S
C541 C540 1.404 . S
C541 H553 0.930 . S
C542 C538 1.524 1_545 S
C542 H554 0.956 . S
C542 H555 0.961 . S
C542 H556 0.961 . S
C543 C540 1.539 . S
C543 H557 0.958 . S
C543 H558 0.961 . S
C543 H559 0.960 . S
H544 C528 0.931 . S
H545 C533 0.929 1_565 S
H546 C534 0.960 . S
H547 C534 0.962 . S
H548 C534 0.960 . S
H549 C535 0.961 . S
H550 C535 0.961 . S
H551 C535 0.961 . S
H552 C536 0.931 . S
H553 C541 0.930 . S
H554 C542 0.956 . S
H555 C542 0.961 . S
H556 C542 0.961 . S
H557 C543 0.958 . S
H558 C543 0.961 . S
H559 C543 0.960 . S
C560 C561 1.391 . S
C560 C562 1.394 . S
C560 H576 0.931 . S
C561 C560 1.391 . S
C561 C565 1.376 . S
C562 C560 1.394 . S
C562 C563 1.369 . S
C562 C566 1.531 1_546 S
C563 C562 1.369 . S
C563 C564 1.410 . S
C563 C571 1.503 1_545 S
C564 C563 1.410 . S
C564 C565 1.392 . S
C564 C567 1.511 . S
C565 C561 1.376 . S
C565 C564 1.392 . S
C565 H577 0.929 . S
C566 C562 1.531 1_564 S
C566 H578 0.960 . S
C566 H579 0.962 1_554 S
C566 H580 0.960 . S
C567 C564 1.511 . S
C567 H581 0.961 . S
C567 H582 0.961 . S
C567 H583 0.961 1_556 S
C568 C569 1.370 . S
C568 C570 1.363 . S
C568 H584 0.931 . S
C569 C568 1.370 . S
C569 C573 1.408 1_556 S
C570 C568 1.363 . S
C570 C571 1.370 . S
C570 C574 1.524 . S
C571 C563 1.503 1_565 S
C571 C570 1.370 . S
C571 C572 1.403 1_556 S
C572 C571 1.403 1_554 S
C572 C573 1.404 . S
C572 C575 1.539 . S
C573 C569 1.408 1_554 S
C573 C572 1.404 . S
C573 H585 0.930 . S
C574 C570 1.524 . S
C574 H586 0.956 . S
C574 H587 0.961 1_565 S
C574 H588 0.961 . S
C575 C572 1.539 . S
C575 H589 0.958 . S
C575 H590 0.961 . S
C575 H591 0.960 1_565 S
H576 C560 0.931 . S
H577 C565 0.929 . S
H578 C566 0.960 . S
H579 C566 0.962 1_556 S
H580 C566 0.960 . S
H581 C567 0.961 . S
H582 C567 0.961 . S
H583 C567 0.961 1_554 S
H584 C568 0.931 . S
H585 C573 0.930 . S
H586 C574 0.956 . S
H587 C574 0.961 1_545 S
H588 C574 0.961 . S
H589 C575 0.958 . S
H590 C575 0.961 . S
H591 C575 0.960 1_545 S
C592 C593 1.391 . S
C592 C594 1.394 . S
C592 H608 0.931 . S
C593 C592 1.391 . S
C593 C597 1.376 . S
C594 C592 1.394 . S
C594 C595 1.369 . S
C594 C598 1.531 1_455 S
C595 C594 1.369 . S
C595 C596 1.410 . S
C595 C603 1.503 1_455 S
C596 C595 1.410 . S
C596 C597 1.392 . S
C596 C599 1.511 . S
C597 C593 1.376 . S
C597 C596 1.392 . S
C597 H609 0.929 . S
C598 C594 1.531 1_655 S
C598 H610 0.960 . S
C598 H611 0.962 . S
C598 H612 0.964 . S
C599 C596 1.511 . S
C599 H613 0.961 . S
C599 H614 0.961 . S
C599 H615 0.961 . S
C600 C601 1.370 1_556 S
C600 C602 1.363 . S
C600 H616 0.931 . S
C601 C600 1.370 1_554 S
C601 C605 1.408 . S
C602 C600 1.363 . S
C602 C603 1.370 1_556 S
C602 C606 1.524 . S
C603 C595 1.503 1_655 S
C603 C602 1.370 1_554 S
C603 C604 1.403 . S
C604 C603 1.403 . S
C604 C605 1.404 . S
C604 C607 1.539 . S
C605 C601 1.408 . S
C605 C604 1.404 . S
C605 H617 0.930 . S
C606 C602 1.524 . S
C606 H618 0.956 . S
C606 H619 0.961 1_655 S
C606 H620 0.961 . S
C607 C604 1.539 . S
C607 H621 0.958 . S
C607 H622 0.961 . S
C607 H623 0.960 1_655 S
H608 C592 0.931 . S
H609 C597 0.929 . S
H610 C598 0.960 . S
H611 C598 0.962 . S
H612 C598 0.964 . S
H613 C599 0.961 . S
H614 C599 0.961 . S
H615 C599 0.961 . S
H616 C600 0.931 . S
H617 C605 0.930 . S
H618 C606 0.956 . S
H619 C606 0.961 1_455 S
H620 C606 0.961 . S
H621 C607 0.958 . S
H622 C607 0.961 . S
H623 C607 0.960 1_455 S
C113 C106 1.560 . S
C121 C8 1.559 . S
C145 C17 1.536 . S
C153 C64 1.536 . S
C177 C36 1.543 . S
C185 C78 1.561 . S
C209 C92 1.539 . S
C217 C45 1.545 . S
C241 C21 1.415 1_545 S
C249 C3 1.372 . S
C273 C22 1.448 . S
C281 C37 1.450 1_455 S
C305 C49 1.351 1_565 S
C313 C31 1.398 . S
C337 C50 1.425 . S
C345 C9 1.447 1_655 S
C369 C107 1.491 . S
C377 C59 1.445 . S
C401 C73 1.431 . S
C409 C65 1.477 . S
C433 C79 1.500 . S
C441 C87 1.453 . S
C465 C93 1.469 . S
C473 C101 1.425 . S
C497 C35 1.059 . S
C505 C7 1.072 . S
C529 C51 1.025 . S
C537 C23 1.031 . S
C561 C91 1.067 . S
C569 C63 1.082 . S
C593 C105 1.112 . S
C601 C77 1.119 . S
