# Generated by pormake.
# Topology smd, (6)-cn, num edge types: 1
# Building blocks:
#     Node 0, Type 0, BuildingBlock: OJICUG_clean_sbu_0, # of connection points: 6
#     Node 1, Type 0, BuildingBlock: OJICUG_clean_sbu_0, # of connection points: 6
#     Node 2, Type 0, BuildingBlock: OJICUG_clean_sbu_0, # of connection points: 6
#     Node 3, Type 0, BuildingBlock: OJICUG_clean_sbu_0, # of connection points: 6
#     Node 4, Type 0, BuildingBlock: OJICUG_clean_sbu_0, # of connection points: 6
#     Node 5, Type 0, BuildingBlock: OJICUG_clean_sbu_0, # of connection points: 6
#     Node 6, Type 0, BuildingBlock: OJICUG_clean_sbu_0, # of connection points: 6
#     Node 7, Type 0, BuildingBlock: OJICUG_clean_sbu_0, # of connection points: 6
#     Node 8, Type 0, BuildingBlock: OJICUG_clean_sbu_0, # of connection points: 6
#     Node 9, Type 0, BuildingBlock: OJICUG_clean_sbu_0, # of connection points: 6
#     Node 10, Type 0, BuildingBlock: OJICUG_clean_sbu_0, # of connection points: 6
#     Node 11, Type 0, BuildingBlock: OJICUG_clean_sbu_0, # of connection points: 6
#     Node 12, Type 0, BuildingBlock: OJICUG_clean_sbu_0, # of connection points: 6
#     Node 13, Type 0, BuildingBlock: OJICUG_clean_sbu_0, # of connection points: 6
#     Node 14, Type 0, BuildingBlock: OJICUG_clean_sbu_0, # of connection points: 6
#     Node 15, Type 0, BuildingBlock: OJICUG_clean_sbu_0, # of connection points: 6
#     Node 16, Type 0, BuildingBlock: OJICUG_clean_sbu_0, # of connection points: 6
#     Node 17, Type 0, BuildingBlock: OJICUG_clean_sbu_0, # of connection points: 6
#     Edge 18, Type (0, 0), BuildingBlock: XUDNAN_clean_linker_2, # of connection points: 2
#     Edge 19, Type (0, 0), BuildingBlock: XUDNAN_clean_linker_2, # of connection points: 2
#     Edge 20, Type (0, 0), BuildingBlock: XUDNAN_clean_linker_2, # of connection points: 2
#     Edge 21, Type (0, 0), BuildingBlock: XUDNAN_clean_linker_2, # of connection points: 2
#     Edge 22, Type (0, 0), BuildingBlock: XUDNAN_clean_linker_2, # of connection points: 2
#     Edge 23, Type (0, 0), BuildingBlock: XUDNAN_clean_linker_2, # of connection points: 2
#     Edge 24, Type (0, 0), BuildingBlock: XUDNAN_clean_linker_2, # of connection points: 2
#     Edge 25, Type (0, 0), BuildingBlock: XUDNAN_clean_linker_2, # of connection points: 2
#     Edge 26, Type (0, 0), BuildingBlock: XUDNAN_clean_linker_2, # of connection points: 2
#     Edge 27, Type (0, 0), BuildingBlock: XUDNAN_clean_linker_2, # of connection points: 2
#     Edge 28, Type (0, 0), BuildingBlock: XUDNAN_clean_linker_2, # of connection points: 2
#     Edge 29, Type (0, 0), BuildingBlock: XUDNAN_clean_linker_2, # of connection points: 2
#     Edge 30, Type (0, 0), BuildingBlock: XUDNAN_clean_linker_2, # of connection points: 2
#     Edge 31, Type (0, 0), BuildingBlock: XUDNAN_clean_linker_2, # of connection points: 2
#     Edge 32, Type (0, 0), BuildingBlock: XUDNAN_clean_linker_2, # of connection points: 2
#     Edge 33, Type (0, 0), BuildingBlock: XUDNAN_clean_linker_2, # of connection points: 2
#     Edge 34, Type (0, 0), BuildingBlock: XUDNAN_clean_linker_2, # of connection points: 2
#     Edge 35, Type (0, 0), BuildingBlock: XUDNAN_clean_linker_2, # of connection points: 2
#     Edge 36, Type (0, 0), BuildingBlock: XUDNAN_clean_linker_2, # of connection points: 2
#     Edge 37, Type (0, 0), BuildingBlock: XUDNAN_clean_linker_2, # of connection points: 2
#     Edge 38, Type (0, 0), BuildingBlock: XUDNAN_clean_linker_2, # of connection points: 2
#     Edge 39, Type (0, 0), BuildingBlock: XUDNAN_clean_linker_2, # of connection points: 2
#     Edge 40, Type (0, 0), BuildingBlock: XUDNAN_clean_linker_2, # of connection points: 2
#     Edge 41, Type (0, 0), BuildingBlock: XUDNAN_clean_linker_2, # of connection points: 2
#     Edge 42, Type (0, 0), BuildingBlock: XUDNAN_clean_linker_2, # of connection points: 2
#     Edge 43, Type (0, 0), BuildingBlock: XUDNAN_clean_linker_2, # of connection points: 2
#     Edge 44, Type (0, 0), BuildingBlock: XUDNAN_clean_linker_2, # of connection points: 2
#     Edge 45, Type (0, 0), BuildingBlock: XUDNAN_clean_linker_2, # of connection points: 2
#     Edge 46, Type (0, 0), BuildingBlock: XUDNAN_clean_linker_2, # of connection points: 2
#     Edge 47, Type (0, 0), BuildingBlock: XUDNAN_clean_linker_2, # of connection points: 2
#     Edge 48, Type (0, 0), BuildingBlock: XUDNAN_clean_linker_2, # of connection points: 2
#     Edge 49, Type (0, 0), BuildingBlock: XUDNAN_clean_linker_2, # of connection points: 2
#     Edge 50, Type (0, 0), BuildingBlock: XUDNAN_clean_linker_2, # of connection points: 2
#     Edge 51, Type (0, 0), BuildingBlock: XUDNAN_clean_linker_2, # of connection points: 2
#     Edge 52, Type (0, 0), BuildingBlock: XUDNAN_clean_linker_2, # of connection points: 2
#     Edge 53, Type (0, 0), BuildingBlock: XUDNAN_clean_linker_2, # of connection points: 2
#     Edge 54, Type (0, 0), BuildingBlock: XUDNAN_clean_linker_2, # of connection points: 2
#     Edge 55, Type (0, 0), BuildingBlock: XUDNAN_clean_linker_2, # of connection points: 2
#     Edge 56, Type (0, 0), BuildingBlock: XUDNAN_clean_linker_2, # of connection points: 2
#     Edge 57, Type (0, 0), BuildingBlock: XUDNAN_clean_linker_2, # of connection points: 2
#     Edge 58, Type (0, 0), BuildingBlock: XUDNAN_clean_linker_2, # of connection points: 2
#     Edge 59, Type (0, 0), BuildingBlock: XUDNAN_clean_linker_2, # of connection points: 2
#     Edge 60, Type (0, 0), BuildingBlock: XUDNAN_clean_linker_2, # of connection points: 2
#     Edge 61, Type (0, 0), BuildingBlock: XUDNAN_clean_linker_2, # of connection points: 2
#     Edge 62, Type (0, 0), BuildingBlock: XUDNAN_clean_linker_2, # of connection points: 2
#     Edge 63, Type (0, 0), BuildingBlock: XUDNAN_clean_linker_2, # of connection points: 2
#     Edge 64, Type (0, 0), BuildingBlock: XUDNAN_clean_linker_2, # of connection points: 2
#     Edge 65, Type (0, 0), BuildingBlock: XUDNAN_clean_linker_2, # of connection points: 2
#     Edge 66, Type (0, 0), BuildingBlock: XUDNAN_clean_linker_2, # of connection points: 2
#     Edge 67, Type (0, 0), BuildingBlock: XUDNAN_clean_linker_2, # of connection points: 2
#     Edge 68, Type (0, 0), BuildingBlock: XUDNAN_clean_linker_2, # of connection points: 2
#     Edge 69, Type (0, 0), BuildingBlock: XUDNAN_clean_linker_2, # of connection points: 2
#     Edge 70, Type (0, 0), BuildingBlock: XUDNAN_clean_linker_2, # of connection points: 2
#     Edge 71, Type (0, 0), BuildingBlock: XUDNAN_clean_linker_2, # of connection points: 2
# Relax obj value: 0.160
# Max RMSD: 0.216
# Mean RMSD: 0.216
data_MOF--net-smd--node1-OJICUG_clean_sbu_0--edge1-XUDNAN_clean_linker_2
_symmetry_space_group_name_H-M    P1
_symmetry_Int_Tables_number       1
_symmetry_cell_setting            triclinic
loop_
_symmetry_equiv_pos_as_xyz
'x, y, z'
_cell_length_a     75.92716
_cell_length_b     75.95172
_cell_length_c     15.995474
_cell_angle_alpha  90.018507
_cell_angle_beta   89.961285
_cell_angle_gamma 120.06272
loop_
_atom_site_label
_atom_site_type_symbol
_atom_site_fract_x
_atom_site_fract_y
_atom_site_fract_z
_atom_type_partial_charge
Sc0 Sc 0.98851 0.22823 0.46441 0.0
Sc1 Sc 0.01204 0.2015 0.53597 0.0
Sc2 Sc 0.02657 0.25049 0.6115 0.0
O3 O 0.00915 0.22663 0.53733 0.0
C4 C 0.02478 0.2746 0.46129 0.0
C5 C 0.00726 0.20988 0.3417 0.0
C6 C 0.05801 0.23663 0.55261 0.0
C7 C 0.96467 0.18136 0.5155 0.0
C8 C 0.98267 0.24654 0.62635 0.0
C9 C 0.01534 0.21312 0.73072 0.0
O10 O 0.00662 0.26085 0.44524 0.0
O11 O 0.0099 0.19964 0.39903 0.0
O12 O 0.05343 0.24842 0.591 0.0
O13 O 0.96667 0.19654 0.47451 0.0
O14 O 0.00174 0.25594 0.64087 0.0
O15 O 0.01434 0.20111 0.67252 0.0
O16 O 0.97439 0.23308 0.57009 0.0
O17 O 0.97963 0.18106 0.54958 0.0
O18 O 0.01834 0.23089 0.71684 0.0
O19 O 0.0017 0.22282 0.35702 0.0
O20 O 0.03615 0.27171 0.51045 0.0
O21 O 0.04469 0.2195 0.52315 0.0
Sc22 Sc 0.79479 0.77659 0.44964 0.0
Sc23 Sc 0.81464 0.82669 0.52078 0.0
Sc24 Sc 0.76788 0.78779 0.59411 0.0
O25 O 0.7926 0.79716 0.52141 0.0
C26 C 0.74765 0.76384 0.43383 0.0
C27 C 0.80987 0.81398 0.32673 0.0
C28 C 0.77681 0.8322 0.54318 0.0
C29 C 0.84101 0.80534 0.50692 0.0
C30 C 0.77485 0.74949 0.60306 0.0
C31 C 0.80316 0.81602 0.71561 0.0
O32 O 0.76231 0.76049 0.42059 0.0
O33 O 0.81738 0.82748 0.38419 0.0
O34 O 0.76699 0.8157 0.58384 0.0
O35 O 0.82719 0.78969 0.46973 0.0
O36 O 0.76416 0.75783 0.61654 0.0
O37 O 0.81382 0.82849 0.65772 0.0
O38 O 0.78984 0.75698 0.55325 0.0
O39 O 0.83818 0.81937 0.53472 0.0
O40 O 0.78687 0.7993 0.70128 0.0
O41 O 0.80013 0.79501 0.34206 0.0
O42 O 0.74846 0.7764 0.48811 0.0
O43 O 0.79345 0.83715 0.50644 0.0
Sc44 Sc 0.24332 0.03186 0.42979 0.0
Sc45 Sc 0.1932 0.00119 0.49863 0.0
Sc46 Sc 0.23194 0.99321 0.57086 0.0
O47 O 0.22266 0.00876 0.49961 0.0
C48 C 0.25685 -0.00189 0.4137 0.0
C49 C 0.20647 0.01002 0.30482 0.0
C50 C 0.18826 0.95793 0.5142 0.0
C51 C 0.21447 0.04889 0.48938 0.0
C52 C 0.27011 0.03851 0.58141 0.0
C53 C 0.20353 -0.00042 0.69341 0.0
O54 O 0.26019 0.01618 0.40265 0.0
O55 O 0.19291 0.0042 0.36215 0.0
O56 O 0.20414 0.96439 0.55872 0.0
O57 O 0.2298 0.05071 0.44961 0.0
O58 O 0.26189 0.01941 0.59257 0.0
O59 O 0.19098 -0.00246 0.63548 0.0
O60 O 0.26211 0.04622 0.53575 0.0
O61 O 0.20053 0.03198 0.51753 0.0
O62 O 0.22042 0.00042 0.67893 0.0
O63 O 0.22542 0.01883 0.3206 0.0
O64 O 0.24341 0.98564 0.46373 0.0
O65 O 0.18329 0.96975 0.47902 0.0
Sc66 Sc 0.02505 0.78969 0.55367 0.0
Sc67 Sc 0.01974 0.82999 0.48071 0.0
Sc68 Sc 0.98862 0.78068 0.40393 0.0
O69 O 0.01107 0.80021 0.47954 0.0
C70 C 0.0213 0.76558 0.3938 0.0
C71 C 0.06199 0.83293 0.50036 0.0
C72 C 0.01264 0.81842 0.28571 0.0
C73 C 0.02016 0.81897 0.67547 0.0
C74 C 0.97882 0.75251 0.55474 0.0
C75 C 0.97235 0.81012 0.46593 0.0
O76 O 0.03297 0.77791 0.44884 0.0
O77 O 0.05093 0.83869 0.46386 0.0
O78 O 0.00353 0.79937 0.29885 0.0
O79 O 0.01792 0.80152 0.66053 0.0
O80 O 0.97236 0.76087 0.50451 0.0
O81 O 0.98919 0.82339 0.49716 0.0
O82 O -0.00238 0.76037 0.57281 0.0
O83 O 0.0229 0.83175 0.61761 0.0
O84 O 0.97039 0.79506 0.4233 0.0
O85 O 0.05464 0.81684 0.54427 0.0
O86 O 0.00375 0.76313 0.37738 0.0
O87 O 0.01764 0.83149 0.3444 0.0
Sc88 Sc 0.23304 0.25266 0.5731 0.0
Sc89 Sc 0.19532 0.20495 0.50337 0.0
Sc90 Sc 0.24565 0.22556 0.4353 0.0
O91 O 0.22452 0.22759 0.50378 0.0
C92 C 0.25836 0.2727 0.41665 0.0
C93 C 0.1883 0.24198 0.51663 0.0
C94 C 0.20878 0.2095 0.3096 0.0
C95 C 0.20525 0.21776 0.69771 0.0
C96 C 0.27188 0.24655 0.5886 0.0
C97 C 0.21763 0.17957 0.49645 0.0
O98 O 0.24457 0.27146 0.46526 0.0
O99 O 0.18399 0.22517 0.48341 0.0
O100 O 0.22772 0.2199 0.32548 0.0
O101 O 0.22159 0.23436 0.68249 0.0
O102 O 0.26443 0.23095 0.54207 0.0
O103 O 0.20352 0.18232 0.52342 0.0
O104 O 0.26333 0.2572 0.59845 0.0
O105 O 0.19308 0.20647 0.64015 0.0
O106 O 0.23292 0.19317 0.45657 0.0
O107 O 0.2046 0.25261 0.55782 0.0
O108 O 0.26195 0.25811 0.40657 0.0
O109 O 0.19521 0.2016 0.36685 0.0
Sc110 Sc 0.77041 0.99384 0.6854 0.0
Sc111 Sc 0.8183 0.00632 0.60136 0.0
Sc112 Sc 0.78814 0.02447 0.50827 0.0
O113 O 0.79239 0.00826 0.59843 0.0
C114 C 0.7427 0.98934 0.52748 0.0
C115 C 0.78164 0.96063 0.62614 0.0
C116 C 0.8107 0.00623 0.4037 0.0
C117 C 0.80911 0.00409 0.7973 0.0
C118 C 0.77242 0.03619 0.67301 0.0
C119 C 0.83524 0.0528 0.56191 0.0
O120 O 0.7458 0.98603 0.60196 0.0
O121 O 0.79991 0.97363 0.60582 0.0
O122 O 0.79787 0.01216 0.41077 0.0
O123 O 0.79081 -0.00085 0.78455 0.0
O124 O 0.77752 0.03835 0.59638 0.0
O125 O 0.8376 0.03887 0.59511 0.0
O126 O 0.77071 0.02161 0.71826 0.0
O127 O 0.82163 0.00803 0.73764 0.0
O128 O 0.8187 0.04943 0.52732 0.0
O129 O 0.76902 0.96544 0.65602 0.0
O130 O 0.75698 0.00155 0.47962 0.0
O131 O 0.82004 0.00429 0.46588 0.0
Sc132 Sc 0.66261 0.56657 0.80308 0.0
Sc133 Sc 0.679 0.53316 0.87632 0.0
Sc134 Sc 0.69944 0.58255 0.95816 0.0
O135 O 0.68026 0.56062 0.87913 0.0
C136 C 0.70527 0.60855 0.79832 0.0
C137 C 0.67594 0.54213 0.6823 0.0
C138 C 0.72618 0.56287 0.90154 0.0
C139 C 0.63247 0.51996 0.8538 0.0
C140 C 0.66089 0.58922 0.96293 0.0
C141 C 0.68168 0.54356 0.07247 0.0
O142 O 0.68686 0.59741 0.77479 0.0
O143 O 0.67824 0.53183 0.73987 0.0
O144 O 0.72342 0.57578 0.94085 0.0
O145 O 0.6364 0.53687 0.82174 0.0
O146 O 0.67857 0.59329 0.98592 0.0
O147 O 0.67947 0.53136 0.01306 0.0
O148 O 0.65165 0.57749 0.90213 0.0
O149 O 0.64622 0.51657 0.88129 0.0
O150 O 0.6874 0.5622 0.06076 0.0
O151 O 0.67162 0.55597 0.69732 0.0
O152 O 0.71285 0.60415 0.85986 0.0
O153 O 0.71166 0.54693 0.86902 0.0
Sc154 Sc 0.45842 0.10788 0.66114 0.0
Sc155 Sc 0.49026 0.15606 0.74842 0.0
Sc156 Sc 0.44445 0.1223 0.84466 0.0
O157 O 0.46433 0.12868 0.75091 0.0
C158 C 0.41562 0.10577 0.68864 0.0
C159 C 0.48122 0.14703 0.55182 0.0
C160 C 0.45931 0.16913 0.80116 0.0
C161 C 0.50552 0.12546 0.70777 0.0
C162 C 0.43981 0.07837 0.81421 0.0
C163 C 0.48415 0.14603 0.9453 0.0
O164 O 0.42687 0.10061 0.64858 0.0
O165 O 0.49224 0.15826 0.61151 0.0
O166 O 0.44969 0.15316 0.84591 0.0
O167 O 0.48941 0.1133 0.66743 0.0
O168 O 0.43591 0.09037 0.85536 0.0
O169 O 0.49294 0.15848 0.88524 0.0
O170 O 0.44979 0.0835 0.74657 0.0
O171 O 0.50764 0.14101 0.74702 0.0
O172 O 0.46753 0.12947 0.9356 0.0
O173 O 0.46607 0.1295 0.56397 0.0
O174 O 0.42048 0.11496 0.75836 0.0
O175 O 0.47337 0.17176 0.75055 0.0
Sc176 Sc 0.91114 0.3583 0.76429 0.0
Sc177 Sc 0.86691 0.34913 0.86474 0.0
Sc178 Sc 0.89909 0.33454 0.95739 0.0
O179 O 0.89253 0.34738 0.86255 0.0
C180 C 0.91287 0.31811 0.80696 0.0
C181 C 0.87127 0.34266 0.6688 0.0
C182 C 0.85112 0.30502 0.92489 0.0
C183 C 0.89826 0.39184 0.80174 0.0
C184 C 0.94298 0.37234 0.90832 0.0
C185 C 0.8786 0.3532 0.0601 0.0
O186 O 0.91817 0.33398 0.76319 0.0
O187 O 0.86346 0.34795 0.72745 0.0
O188 O 0.86731 0.31053 0.96762 0.0
O189 O 0.90665 0.38431 0.75607 0.0
O190 O 0.9316 0.35719 0.95508 0.0
O191 O 0.86592 0.35043 1.00214 0.0
O192 O 0.93685 0.37613 0.84065 0.0
O193 O 0.88477 0.38152 0.85651 0.0
O194 O 0.89499 0.3532 0.04542 0.0
O195 O 0.88665 0.34071 0.68141 0.0
O196 O 0.90362 0.31484 0.87621 0.0
O197 O 0.84925 0.31671 0.87296 0.0
Sc198 Sc 0.68933 0.12956 0.95772 0.0
Sc199 Sc 0.67721 0.1623 0.85605 0.0
Sc200 Sc 0.67123 0.11945 0.75448 0.0
O201 O 0.67926 0.13686 0.85614 0.0
C202 C 0.71025 0.11729 0.81781 0.0
C203 C 0.72009 0.17753 0.92623 0.0
C204 C 0.68573 0.1589 0.66184 0.0
C205 C 0.67028 0.15036 0.05053 0.0
C206 C 0.65374 0.08593 0.89462 0.0
C207 C 0.6359 0.13072 0.78391 0.0
O208 O 0.71049 0.12465 0.88922 0.0
O209 O 0.7094 0.17963 0.86979 0.0
O210 O 0.68994 0.14517 0.67849 0.0
O211 O 0.66844 0.13327 0.03385 0.0
O212 O 0.65254 0.09242 0.82302 0.0
O213 O 0.64509 0.14375 0.84178 0.0
O214 O 0.66665 0.09721 0.94979 0.0
O215 O 0.67504 0.16372 0.9935 0.0
O216 O 0.64452 0.12309 0.7396 0.0
O217 O 0.71347 0.16145 0.97133 0.0
O218 O 0.69662 0.11378 0.76313 0.0
O219 O 0.67909 0.16587 0.71864 0.0
Sc220 Sc 0.90237 0.58096 0.85433 0.0
Sc221 Sc 0.86827 0.53438 0.75701 0.0
Sc222 Sc 0.91673 0.56667 0.6706 0.0
O223 O 0.89574 0.56067 0.7604 0.0
C224 C 0.91891 0.60914 0.69283 0.0
C225 C 0.8555 0.56628 0.80759 0.0
C226 C 0.877 0.54187 0.56031 0.0
C227 C 0.87717 0.5403 0.95493 0.0
C228 C 0.94627 0.58648 0.82698 0.0
C229 C 0.90086 0.52051 0.72279 0.0
O230 O 0.91334 0.60593 0.76884 0.0
O231 O 0.85202 0.55063 0.76546 0.0
O232 O 0.89548 0.55487 0.57197 0.0
O233 O 0.89238 0.55809 0.94848 0.0
O234 O 0.94198 0.57967 0.75325 0.0
O235 O 0.88367 0.51723 0.75001 0.0
O236 O 0.93326 0.58706 0.87524 0.0
O237 O 0.86618 0.53045 0.89273 0.0
O238 O 0.91422 0.53736 0.69064 0.0
O239 O 0.8723 0.57756 0.84531 0.0
O240 O 0.92023 0.59625 0.6462 0.0
O241 O 0.86478 0.53301 0.62065 0.0
Sc242 Sc 0.44051 0.32606 0.9178 0.0
Sc243 Sc 0.48999 0.34366 0.83979 0.0
Sc244 Sc 0.45846 0.36042 0.75174 0.0
O245 O 0.46303 0.3434 0.83664 0.0
C246 C 0.41488 0.3197 0.75476 0.0
C247 C 0.45827 0.29703 0.86572 0.0
C248 C 0.48231 0.34473 0.64277 0.0
C249 C 0.47868 0.341 0.03524 0.0
C250 C 0.4382 0.36707 0.91088 0.0
C251 C 0.50478 0.38996 0.81 0.0
O252 O 0.41838 0.31308 0.82158 0.0
O253 O 0.47479 0.31107 0.83455 0.0
O254 O 0.46803 0.34865 0.65219 0.0
O255 O 0.46057 0.33692 0.0217 0.0
O256 O 0.44874 0.37359 0.84484 0.0
O257 O 0.50708 0.37624 0.84519 0.0
O258 O 0.4327 0.34963 0.94227 0.0
O259 O 0.49093 0.34298 0.97652 0.0
O260 O 0.48884 0.38609 0.7691 0.0
O261 O 0.44538 0.30049 0.90226 0.0
O262 O 0.42714 0.33713 0.72425 0.0
O263 O 0.49291 0.3442 0.70348 0.0
Sc264 Sc 0.32416 0.90116 0.08532 0.0
Sc265 Sc 0.33974 0.86737 0.15768 0.0
Sc266 Sc 0.36545 0.91855 0.22509 0.0
O267 O 0.34313 0.89571 0.15608 0.0
C268 C 0.36742 0.94184 0.05902 0.0
C269 C 0.33321 0.87351 0.9633 0.0
C270 C 0.38785 0.89501 0.15907 0.0
C271 C 0.29361 0.85697 0.15812 0.0
C272 C 0.32895 0.92795 0.24394 0.0
C273 C 0.34839 0.88104 0.35115 0.0
O274 O 0.34894 0.92967 0.0396 0.0
O275 O 0.33677 0.86414 0.02118 0.0
O276 O 0.38806 0.91018 0.19383 0.0
O277 O 0.29697 0.87329 0.12204 0.0
O278 O 0.34635 0.93064 0.26369 0.0
O279 O 0.3425 0.86749 0.29402 0.0
O280 O 0.31826 0.91633 0.1849 0.0
O281 O 0.30755 0.85306 0.17623 0.0
O282 O 0.35638 0.8999 0.33502 0.0
O283 O 0.32862 0.88712 0.97834 0.0
O284 O 0.37611 0.93946 0.12229 0.0
O285 O 0.37155 0.87886 0.14002 0.0
Sc286 Sc 0.12199 0.43886 0.13841 0.0
Sc287 Sc 0.15872 0.48713 0.21209 0.0
Sc288 Sc 0.10771 0.46431 0.28321 0.0
O289 O 0.12948 0.46344 0.2114 0.0
C290 C 0.08238 0.44331 0.12045 0.0
C291 C 0.15077 0.47533 0.01739 0.0
C292 C 0.13318 0.5101 0.21696 0.0
C293 C 0.16626 0.44958 0.20046 0.0
C294 C 0.09657 0.41785 0.30181 0.0
C295 C 0.14612 0.48301 0.40582 0.0
O296 O 0.09394 0.43663 0.09729 0.0
O297 O 0.16104 0.48779 0.07554 0.0
O298 O 0.1172 0.4954 0.24871 0.0
O299 O 0.14899 0.43766 0.16852 0.0
O300 O 0.09506 0.43313 0.32434 0.0
O301 O 0.15963 0.48917 0.34851 0.0
O302 O 0.10677 0.418 0.23863 0.0
O303 O 0.17169 0.46771 0.22184 0.0
O304 O 0.12718 0.47392 0.39017 0.0
O305 O 0.13622 0.45748 0.03175 0.0
O306 O 0.0856 0.45423 0.18493 0.0
O307 O 0.14903 0.5091 0.20081 0.0
Sc308 Sc 0.58532 0.70225 0.09787 0.0
Sc309 Sc 0.53559 0.68577 0.16294 0.0
Sc310 Sc 0.56041 0.65957 0.22579 0.0
O311 O 0.56028 0.68245 0.16213 0.0
C312 C 0.58601 0.6604 0.0775 0.0
C313 C 0.55009 0.69214 0.96906 0.0
C314 C 0.51455 0.63789 0.15962 0.0
C315 C 0.57 0.73175 0.16333 0.0
C316 C 0.60589 0.69713 0.2534 0.0
C317 C 0.54026 0.67591 0.35561 0.0
O318 O 0.59355 0.67952 0.07013 0.0
O319 O 0.53752 0.69062 0.02622 0.0
O320 O 0.52899 0.63744 0.19801 0.0
O321 O 0.58205 0.72863 0.11918 0.0
O322 O 0.59216 0.67847 0.25977 0.0
O323 O 0.53184 0.68116 0.2991 0.0
O324 O 0.60378 0.70973 0.20805 0.0
O325 O 0.5532 0.7175 0.19041 0.0
O326 O 0.55182 0.66873 0.3383 0.0
O327 O 0.56775 0.695 0.98547 0.0
O328 O 0.56966 0.64936 0.11765 0.0
O329 O 0.51539 0.65431 0.13749 0.0
Sc330 Sc 0.36648 0.46295 0.24107 0.0
Sc331 Sc 0.33805 0.485 0.17313 0.0
Sc332 Sc 0.32581 0.43634 0.1055 0.0
O333 O 0.34341 0.46153 0.17329 0.0
C334 C 0.37029 0.44141 0.08494 0.0
C335 C 0.38598 0.50877 0.17629 0.0
C336 C 0.33346 0.47141 0.97928 0.0
C337 C 0.34693 0.48038 0.36701 0.0
C338 C 0.33133 0.41617 0.26225 0.0
C339 C 0.29308 0.44834 0.16758 0.0
O340 O 0.37898 0.45647 0.1342 0.0
O341 O 0.36924 0.50671 0.15117 0.0
O342 O 0.33188 0.45425 0.99509 0.0
O343 O 0.35505 0.4696 0.35122 0.0
O344 O 0.31897 0.41744 0.21281 0.0
O345 O 0.30625 0.46574 0.19429 0.0
O346 O 0.34957 0.43063 0.27252 0.0
O347 O 0.34155 0.48849 0.30967 0.0
O348 O 0.29786 0.43682 0.12793 0.0
O349 O 0.38714 0.49502 0.21705 0.0
O350 O 0.35105 0.43142 0.07477 0.0
O351 O 0.33407 0.48348 0.0366 0.0
Sc352 Sc 0.56194 0.91897 0.24643 0.0
Sc353 Sc 0.53719 0.86837 0.17325 0.0
Sc354 Sc 0.58652 0.90352 0.10098 0.0
O355 O 0.56189 0.89698 0.17343 0.0
C356 C 0.58461 0.94442 0.0842 0.0
C357 C 0.51674 0.8962 0.17336 0.0
C358 C 0.54986 0.87541 0.97891 0.0
C359 C 0.54043 0.88036 0.36722 0.0
C360 C 0.60734 0.92736 0.26898 0.0
C361 C 0.57374 0.85929 0.17021 0.0
O362 O 0.57467 0.94182 0.15124 0.0
O363 O 0.51663 0.87969 0.15937 0.0
O364 O 0.56803 0.8892 0.99387 0.0
O365 O 0.55008 0.89928 0.35198 0.0
O366 O 0.60769 0.91903 0.20056 0.0
O367 O 0.55562 0.85465 0.18754 0.0
O368 O 0.59189 0.92822 0.29431 0.0
O369 O 0.53429 0.867 0.30955 0.0
O370 O 0.5866 0.87601 0.13634 0.0
O371 O 0.53182 0.91181 0.2056 0.0
O372 O 0.58955 0.93177 0.05686 0.0
O373 O 0.53693 0.86596 0.03678 0.0
Sc374 Sc 0.10554 0.65908 0.2425 0.0
Sc375 Sc 0.1568 0.68538 0.176 0.0
Sc376 Sc 0.12261 0.70018 0.10237 0.0
O377 O 0.12831 0.68153 0.17369 0.0
C378 C 0.08233 0.65643 0.07654 0.0
C379 C 0.13018 0.6373 0.18109 0.0
C380 C 0.15035 0.69119 0.98123 0.0
C381 C 0.14282 0.67702 0.36934 0.0
C382 C 0.09516 0.69515 0.25751 0.0
C383 C 0.16684 0.73131 0.17317 0.0
O384 O 0.08516 0.6476 0.13818 0.0
O385 O 0.14588 0.65372 0.15939 0.0
O386 O 0.13639 0.69531 0.99578 0.0
O387 O 0.12395 0.66912 0.35311 0.0
O388 O 0.10775 0.70637 0.20207 0.0
O389 O 0.17077 0.71753 0.19378 0.0
O390 O 0.0922 0.67757 0.27606 0.0
O391 O 0.1564 0.68264 0.31233 0.0
O392 O 0.15056 0.72766 0.136 0.0
O393 O 0.11492 0.63686 0.21626 0.0
O394 O 0.09398 0.67515 0.05898 0.0
O395 O 0.16013 0.68827 0.03941 0.0
H396 H 0.1057 0.3878 0.32709 0.0
H397 H 0.05846 0.40321 0.36558 0.0
H398 H 0.0346 0.36777 0.40862 0.0
H399 H 0.07542 0.33965 0.24199 0.0
H400 H 0.08783 0.32774 0.29384 0.0
H401 H 0.10177 0.35461 0.27222 0.0
H402 H 0.11097 0.36246 0.429 0.0
H403 H 0.09748 0.33558 0.4509 0.0
H404 H 0.09097 0.35222 0.50623 0.0
H405 H 0.01493 0.32988 0.42999 0.0
H406 H 0.00234 0.29334 0.45436 0.0
H407 H 0.06305 0.30321 0.4114 0.0
C408 C 0.09047 0.38379 0.34654 0.0
C409 C 0.08387 0.39815 0.34339 0.0
C410 C 0.06385 0.39244 0.36878 0.0
C411 C 0.05016 0.37233 0.39247 0.0
C412 C 0.05693 0.35834 0.3919 0.0
C413 C 0.07677 0.36393 0.37193 0.0
C414 C 0.08022 0.34598 0.37646 0.0
C415 C 0.08669 0.34176 0.29103 0.0
C416 C 0.09583 0.34926 0.44473 0.0
C417 C 0.05909 0.3293 0.40018 0.0
C418 C 0.04581 0.33669 0.40772 0.0
C419 C 0.02524 0.32397 0.4253 0.0
C420 C 0.01818 0.30323 0.43797 0.0
C421 C 0.03175 0.29557 0.43421 0.0
C422 C 0.05241 0.30875 0.41452 0.0
H423 H 0.72003 0.77489 0.38833 0.0
H424 H 0.73054 0.72376 0.39153 0.0
H425 H 0.69487 0.70087 0.34803 0.0
H426 H 0.67095 0.75003 0.47055 0.0
H427 H 0.66113 0.76242 0.40494 0.0
H428 H 0.68782 0.77514 0.42996 0.0
H429 H 0.69709 0.77962 0.27242 0.0
H430 H 0.67043 0.76736 0.24683 0.0
H431 H 0.68596 0.75769 0.20473 0.0
H432 H 0.65733 0.68327 0.31998 0.0
H433 H 0.62177 0.67265 0.28531 0.0
H434 H 0.63627 0.73568 0.29352 0.0
C435 C 0.71491 0.75894 0.37808 0.0
C436 C 0.72792 0.75101 0.39294 0.0
C437 C 0.7208 0.73011 0.37928 0.0
C438 C 0.70056 0.717 0.35542 0.0
C439 C 0.6879 0.72519 0.34423 0.0
C440 C 0.69492 0.74575 0.353 0.0
C441 C 0.67823 0.75072 0.33738 0.0
C442 C 0.67431 0.76013 0.41537 0.0
C443 C 0.68322 0.76467 0.26077 0.0
C444 C 0.66057 0.72966 0.32021 0.0
C445 C 0.66642 0.71513 0.32531 0.0
C446 C 0.65261 0.69451 0.3149 0.0
C447 C 0.63239 0.68863 0.2962 0.0
C448 C 0.62626 0.70337 0.28695 0.0
C449 C 0.64053 0.7241 0.30015 0.0
H450 H 0.24758 0.96091 0.35474 0.0
H451 H 0.298 0.02177 0.39929 0.0
H452 H 0.32229 0.00994 0.36727 0.0
H453 H 0.26907 0.93391 0.44437 0.0
H454 H 0.25924 0.9138 0.36774 0.0
H455 H 0.24577 0.92718 0.38972 0.0
H456 H 0.24721 0.93671 0.23321 0.0
H457 H 0.2602 0.92289 0.21038 0.0
H458 H 0.27141 0.9492 0.18006 0.0
H459 H 0.34079 0.99052 0.3433 0.0
H460 H 0.35244 0.96656 0.30325 0.0
H461 H 0.2897 0.91892 0.26806 0.0
C462 C 0.26374 0.97181 0.35585 0.0
C463 C 0.27102 0.99223 0.37864 0.0
C464 C 0.29221 0.00613 0.38029 0.0
C465 C 0.30608 -0.00051 0.36329 0.0
C466 C 0.29839 0.97904 0.34368 0.0
C467 C 0.27772 0.96553 0.33773 0.0
C468 C 0.27336 0.94444 0.31428 0.0
C469 C 0.26114 0.92893 0.38315 0.0
C470 C 0.26241 0.93794 0.22943 0.0
C471 C 0.2948 0.94811 0.30878 0.0
C472 C 0.30902 0.96806 0.32722 0.0
C473 C 0.32981 0.9749 0.32799 0.0
C474 C 0.33626 0.96114 0.30613 0.0
C475 C 0.32193 0.94093 0.28274 0.0
C476 C 0.30096 0.9343 0.28567 0.0
H477 H 0.29932 0.02799 0.59923 0.0
H478 H 0.28898 0.07915 0.61597 0.0
H479 H 0.32589 0.10239 0.63548 0.0
H480 H 0.34031 0.04585 0.75124 0.0
H481 H 0.35398 0.03632 0.69207 0.0
H482 H 0.32667 0.02387 0.68498 0.0
H483 H 0.32968 0.02829 0.5242 0.0
H484 H 0.35703 0.04131 0.53067 0.0
H485 H 0.34461 0.05338 0.48014 0.0
H486 H 0.36349 0.11983 0.6527 0.0
H487 H 0.39961 0.13036 0.67578 0.0
H488 H 0.38582 0.0682 0.63839 0.0
C489 C 0.30476 0.04401 0.60926 0.0
C490 C 0.29134 0.0518 0.60745 0.0
C491 C 0.29906 0.07292 0.61806 0.0
C492 C 0.31996 0.08621 0.62856 0.0
C493 C 0.33286 0.07811 0.62713 0.0
C494 C 0.32558 0.05751 0.61838 0.0
C495 C 0.34273 0.05279 0.61713 0.0
C496 C 0.34081 0.03889 0.69075 0.0
C497 C 0.34356 0.0434 0.53302 0.0
C498 C 0.36082 0.07398 0.62763 0.0
C499 C 0.35474 0.08834 0.63305 0.0
C500 C 0.36849 0.1088 0.6477 0.0
C501 C 0.38892 0.11465 0.66024 0.0
C502 C 0.39536 0.10011 0.65703 0.0
C503 C 0.38127 0.07964 0.63842 0.0
H504 H 0.94872 0.32696 0.73399 0.0
H505 H 0.89167 0.2769 0.82455 0.0
H506 H 0.90373 0.25284 0.79177 0.0
H507 H 0.95734 0.30025 0.56558 0.0
H508 H 0.98438 0.31272 0.58369 0.0
H509 H 0.97055 0.32555 0.60897 0.0
H510 H 0.98422 0.33081 0.76085 0.0
H511 H -0.00216 0.31771 0.73632 0.0
H512 H 0.97996 0.30906 0.82181 0.0
H513 H 0.92172 0.23436 0.74549 0.0
H514 H 0.94495 0.22281 0.69268 0.0
H515 H 0.99132 0.28544 0.64638 0.0
C516 C 0.93866 0.31088 0.74534 0.0
C517 C 0.91919 0.30362 0.78042 0.0
C518 C 0.9066 0.28261 0.79698 0.0
C519 C 0.91332 0.2689 0.77877 0.0
C520 C 0.93278 0.27659 0.74568 0.0
C521 C 0.94531 0.29709 0.72948 0.0
C522 C 0.96589 0.30156 0.69745 0.0
C523 C 0.96976 0.31054 0.60865 0.0
C524 C 0.98298 0.31561 0.75773 0.0
C525 C 0.96291 0.28034 0.69746 0.0
C526 C 0.94365 0.26612 0.72475 0.0
C527 C 0.93694 0.24535 0.72518 0.0
C528 C 0.95018 0.23895 0.6955 0.0
C529 C 0.96994 0.25333 0.66777 0.0
C530 C 0.97647 0.27425 0.66995 0.0
H531 H 0.73629 0.72033 0.64835 0.0
H532 H 0.79849 0.73248 0.63281 0.0
H533 H 0.78698 0.69706 0.67467 0.0
H534 H 0.7208 0.68617 0.82701 0.0
H535 H 0.69561 0.6697 0.78642 0.0
H536 H 0.70901 0.6963 0.7595 0.0
H537 H 0.70422 0.68669 0.6023 0.0
H538 H 0.69112 0.66006 0.62878 0.0
H539 H 0.71321 0.67044 0.56198 0.0
H540 H 0.76897 0.66069 0.71777 0.0
H541 H 0.74554 0.62557 0.76508 0.0
H542 H 0.69468 0.63626 0.74504 0.0
C543 C 0.74753 0.71564 0.6554 0.0
C544 C 0.76831 0.72917 0.63817 0.0
C545 C 0.78251 0.72235 0.6461 0.0
C546 C 0.77611 0.70227 0.66951 0.0
C547 C 0.75546 0.68918 0.68385 0.0
C548 C 0.74137 0.69555 0.67753 0.0
C549 C 0.72001 0.67824 0.69462 0.0
C550 C 0.71082 0.68288 0.77146 0.0
C551 C 0.70634 0.67359 0.6173 0.0
C552 C 0.72433 0.66116 0.7121 0.0
C553 C 0.7449 0.66786 0.70559 0.0
C554 C 0.75282 0.65521 0.72249 0.0
C555 C 0.73942 0.63531 0.74899 0.0
C556 C 0.71835 0.62823 0.75737 0.0
C557 C 0.71066 0.64119 0.73703 0.0
H558 H 0.98477 0.7294 0.6712 0.0
H559 H 0.94098 0.72721 0.49063 0.0
H560 H 0.92063 0.6901 0.50735 0.0
H561 H 0.98462 0.68598 0.60779 0.0
H562 H 0.98598 0.67702 0.7106 0.0
H563 H -0.00376 0.70379 0.69255 0.0
H564 H 0.97347 0.70533 0.80978 0.0
H565 H 0.96351 0.67865 0.82988 0.0
H566 H 0.94639 0.68799 0.80716 0.0
H567 H 0.90783 0.65292 0.52711 0.0
H568 H 0.9 0.61832 0.57016 0.0
H569 H 0.95061 0.64483 0.74353 0.0
C570 C 0.97063 0.7212 0.63691 0.0
C571 C 0.96458 0.73125 0.57938 0.0
C572 C 0.94596 0.71992 0.53541 0.0
C573 C 0.93431 0.69878 0.54398 0.0
C574 C 0.94124 0.68925 0.59803 0.0
C575 C 0.95863 0.70011 0.64565 0.0
C576 C 0.9629 0.6861 0.69805 0.0
C577 C 0.98366 0.68836 0.67587 0.0
C578 C 0.96147 0.68973 0.79177 0.0
C579 C 0.94556 0.6657 0.67041 0.0
C580 C 0.93333 0.66781 0.61212 0.0
C581 C 0.91706 0.65104 0.57384 0.0
C582 C 0.91285 0.63154 0.59774 0.0
C583 C 0.92478 0.62922 0.65962 0.0
C584 C 0.94133 0.64643 0.69605 0.0
H585 H 0.30115 0.28599 0.62285 0.0
H586 H 0.2896 0.22392 0.6242 0.0
H587 H 0.32569 0.23649 0.65732 0.0
H588 H 0.34967 0.30798 0.52435 0.0
H589 H 0.36093 0.33115 0.58459 0.0
H590 H 0.3339 0.31747 0.56547 0.0
H591 H 0.32681 0.3153 0.72479 0.0
H592 H 0.35379 0.32935 0.74425 0.0
H593 H 0.33824 0.3049 0.79281 0.0
H594 H 0.36256 0.25533 0.68767 0.0
H595 H 0.39816 0.2795 0.72616 0.0
H596 H 0.38673 0.32974 0.70032 0.0
C597 C 0.30614 0.27504 0.63209 0.0
C598 C 0.29256 0.25395 0.62168 0.0
C599 C 0.29974 0.24012 0.63224 0.0
C600 C 0.32021 0.24711 0.65058 0.0
C601 C 0.33333 0.26799 0.65757 0.0
C602 C 0.32662 0.28178 0.64961 0.0
C603 C 0.34406 0.30345 0.65932 0.0
C604 C 0.34733 0.31573 0.57862 0.0
C605 C 0.34051 0.31386 0.73479 0.0
C606 C 0.36157 0.29962 0.67472 0.0
C607 C 0.35497 0.27903 0.67294 0.0
C608 C 0.36798 0.27149 0.68877 0.0
C609 C 0.38815 0.28531 0.71008 0.0
C610 C 0.39515 0.3064 0.71471 0.0
C611 C 0.38184 0.31372 0.69483 0.0
H612 H 0.71541 0.09963 0.67607 0.0
H613 H 0.73819 0.11845 0.92876 0.0
H614 H 0.75823 0.10137 0.91643 0.0
H615 H 0.70901 0.05148 0.68588 0.0
H616 H 0.71755 0.05098 0.5812 0.0
H617 H 0.70672 0.06672 0.6049 0.0
H618 H 0.73916 0.09851 0.54965 0.0
H619 H 0.75001 0.0828 0.52445 0.0
H620 H 0.76368 0.10469 0.59108 0.0
H621 H 0.77124 0.0776 0.88627 0.0
H622 H 0.78052 0.05286 0.83011 0.0
H623 H 0.75157 0.05166 0.5949 0.0
C624 C 0.72502 0.10063 0.72798 0.0
C625 C 0.72504 0.1103 0.80342 0.0
C626 C 0.73779 0.11113 0.87011 0.0
C627 C 0.74927 0.10143 0.86397 0.0
C628 C 0.74823 0.09132 0.79017 0.0
C629 C 0.73685 0.09127 0.72254 0.0
C630 C 0.73782 0.07862 0.65154 0.0
C631 C 0.71651 0.06091 0.62966 0.0
C632 C 0.7483 0.09195 0.57464 0.0
C633 C 0.75089 0.07105 0.69112 0.0
C634 C 0.75668 0.07845 0.77126 0.0
C635 C 0.76728 0.07209 0.82278 0.0
C636 C 0.77233 0.05797 0.79087 0.0
C637 C 0.76701 0.05073 0.70811 0.0
C638 C 0.75623 0.0574 0.65783 0.0
H639 H 0.6468 0.94231 0.21806 0.0
H640 H 0.60951 0.93307 0.43788 0.0
H641 H 0.64029 0.94797 0.5261 0.0
H642 H 0.68281 0.93105 0.31331 0.0
H643 H 0.70445 0.95057 0.25765 0.0
H644 H 0.67951 0.93902 0.2112 0.0
H645 H 0.68308 0.97457 0.19324 0.0
H646 H 0.70805 0.98623 0.23956 0.0
H647 H 0.68886 0.99092 0.28302 0.0
H648 H 0.67426 0.9625 0.5903 0.0
H649 H 0.71023 0.97793 0.62874 0.0
H650 H 0.72655 0.97965 0.36717 0.0
C651 C 0.64513 0.94338 0.28483 0.0
C652 C 0.62579 0.93647 0.32139 0.0
C653 C 0.6242 0.93834 0.4087 0.0
C654 C 0.64157 0.94672 0.45925 0.0
C655 C 0.66038 0.95337 0.42126 0.0
C656 C 0.66236 0.952 0.3361 0.0
C657 C 0.6845 0.96073 0.31134 0.0
C658 C 0.68802 0.94436 0.271 0.0
C659 C 0.69154 0.97922 0.25336 0.0
C660 C 0.69463 0.96702 0.39623 0.0
C661 C 0.68031 0.96246 0.45848 0.0
C662 C 0.68563 0.96622 0.54224 0.0
C663 C 0.70614 0.9749 0.5633 0.0
C664 C 0.72123 0.97993 0.5009 0.0
C665 C 0.71538 0.97605 0.41605 0.0
H666 H 0.05936 0.77528 0.34567 0.0
H667 H -0.00229 0.72466 0.3679 0.0
H668 H 0.01018 0.7006 0.34149 0.0
H669 H 0.07538 0.75277 0.17829 0.0
H670 H 0.10078 0.76384 0.22001 0.0
H671 H 0.08637 0.77657 0.23412 0.0
H672 H 0.09194 0.77696 0.39415 0.0
H673 H 0.1058 0.76365 0.38083 0.0
H674 H 0.08385 0.7533 0.44834 0.0
H675 H 0.0303 0.68223 0.32847 0.0
H676 H 0.05529 0.67104 0.30194 0.0
H677 H 0.10339 0.73406 0.28352 0.0
C678 C 0.04843 0.75915 0.34256 0.0
C679 C 0.02759 0.75174 0.35803 0.0
C680 C 0.01369 0.73058 0.35453 0.0
C681 C 0.02068 0.71684 0.34071 0.0
C682 C 0.04152 0.72463 0.32936 0.0
C683 C 0.05509 0.74533 0.32775 0.0
C684 C 0.07669 0.74989 0.31435 0.0
C685 C 0.0853 0.76144 0.23177 0.0
C686 C 0.09036 0.76164 0.38887 0.0
C687 C 0.07325 0.72853 0.30989 0.0
C688 C 0.05292 0.71414 0.31976 0.0
C689 C 0.04622 0.69337 0.31984 0.0
C690 C 0.06056 0.68716 0.30588 0.0
C691 C 0.08126 0.7017 0.29104 0.0
C692 C 0.08767 0.72262 0.29487 0.0
H693 H 0.29279 0.38694 0.30237 0.0
H694 H 0.35519 0.39957 0.29869 0.0
H695 H 0.34322 0.36345 0.33176 0.0
H696 H 0.27549 0.35013 0.47413 0.0
H697 H 0.25073 0.33477 0.42782 0.0
H698 H 0.26473 0.36179 0.4094 0.0
H699 H 0.26141 0.35498 0.2497 0.0
H700 H 0.2479 0.32795 0.26761 0.0
H701 H 0.27069 0.33938 0.20485 0.0
H702 H 0.32378 0.32512 0.35395 0.0
H703 H 0.29905 0.28901 0.38503 0.0
H704 H 0.24981 0.30235 0.37533 0.0
C705 C 0.30398 0.3822 0.31028 0.0
C706 C 0.3249 0.396 0.29845 0.0
C707 C 0.3391 0.38926 0.30886 0.0
C708 C 0.33243 0.36875 0.32664 0.0
C709 C 0.31157 0.35536 0.33467 0.0
C710 C 0.29762 0.36194 0.32863 0.0
C711 C 0.27607 0.34463 0.3397 0.0
C712 C 0.26618 0.34803 0.4174 0.0
C713 C 0.26327 0.34157 0.26075 0.0
C714 C 0.27999 0.32719 0.35217 0.0
C715 C 0.30052 0.33357 0.34828 0.0
C716 C 0.30768 0.31998 0.35745 0.0
C717 C 0.29352 0.29948 0.37404 0.0
C718 C 0.27255 0.29294 0.38205 0.0
C719 C 0.26576 0.30694 0.36925 0.0
H720 H 0.96215 0.38127 0.06242 0.0
H721 H 0.97327 0.39237 0.79596 0.0
H722 H 0.00995 0.41327 0.82219 0.0
H723 H 0.00136 0.43242 0.127 0.0
H724 H 0.00855 0.42352 0.21809 0.0
H725 H 0.98283 0.40954 0.17939 0.0
H726 H 0.9856 0.37697 0.16868 0.0
H727 H 0.01129 0.39083 0.20752 0.0
H728 H 0.00607 0.3776 0.10904 0.0
H729 H 0.04541 0.43026 0.87412 0.0
H730 H 0.07786 0.44462 0.95238 0.0
H731 H 0.04429 0.42545 0.18551 0.0
C732 C 0.97234 0.3882 0.00989 0.0
C733 C 0.96485 0.38523 0.92729 0.0
C734 C 0.97863 0.39458 0.85996 0.0
C735 C -0.00047 0.40646 0.87403 0.0
C736 C 0.00645 0.40914 0.9559 0.0
C737 C 0.99335 0.40051 0.02293 0.0
C738 C 0.00498 0.40592 0.10463 0.0
C739 C -0.00093 0.41861 0.16057 0.0
C740 C 0.0018 0.38668 0.15011 0.0
C741 C 0.0266 0.41854 0.07253 0.0
C742 C 0.02708 0.42008 0.98644 0.0
C743 C 0.0453 0.42957 0.9417 0.0
C744 C 0.06358 0.43765 0.98633 0.0
C745 C 0.06338 0.43648 0.07445 0.0
C746 C 0.04471 0.42703 0.11811 0.0
H747 H 0.62088 0.57992 0.95987 0.0
H748 H 0.68101 0.62516 0.04696 0.0
H749 H 0.66783 0.64774 0.08596 0.0
H750 H 0.60728 0.61308 0.87006 0.0
H751 H 0.58106 0.59983 0.90317 0.0
H752 H 0.5944 0.58603 0.88842 0.0
H753 H 0.58602 0.57246 0.04026 0.0
H754 H 0.57226 0.58586 0.05504 0.0
H755 H 0.59254 0.59017 0.12559 0.0
H756 H 0.64993 0.66715 0.09613 0.0
H757 H 0.62652 0.68055 0.10275 0.0
H758 H 0.57673 0.62219 0.02086 0.0
C759 C 0.63114 0.59438 0.98893 0.0
C760 C 0.652 0.6008 1.0002 0.0
C761 C 0.66497 0.61984 0.03826 0.0
C762 C 0.65766 0.63285 0.06013 0.0
C763 C 0.63726 0.6264 0.04515 0.0
C764 C 0.624 0.60744 0.01271 0.0
C765 C 0.6028 0.60447 1.00257 0.0
C766 C 0.596 0.60063 0.91058 0.0
C767 C 0.5875 0.58722 0.05927 0.0
C768 C 0.60644 0.62501 0.032 0.0
C769 C 0.62652 0.63742 0.05529 0.0
C770 C 0.6341 0.6575 0.07944 0.0
C771 C 0.6207 0.66502 0.08194 0.0
C772 C 0.59983 0.6524 0.06187 0.0
C773 C 0.5926 0.63211 0.03653 0.0
H774 H 0.42871 0.06134 0.97226 0.0
H775 H 0.4293 0.04643 0.71045 0.0
H776 H 0.41167 0.01005 0.7452 0.0
H777 H 0.43795 0.02143 0.05253 0.0
H778 H 0.42167 0.01621 0.1422 0.0
H779 H 0.43465 0.04136 0.09746 0.0
H780 H 0.40017 0.04021 0.08003 0.0
H781 H 0.38708 0.01505 0.12441 0.0
H782 H 0.37992 0.01955 0.02268 0.0
H783 H 0.39122 0.97531 0.80474 0.0
H784 H 0.37238 0.94406 0.8902 0.0
H785 H 0.38762 0.98089 0.11453 0.0
C786 C 0.42525 0.0504 0.92258 0.0
C787 C 0.43042 0.05675 0.83875 0.0
C788 C 0.42568 0.04197 0.77532 0.0
C789 C 0.41557 0.02123 0.79423 0.0
C790 C 0.41057 0.01543 0.87712 0.0
C791 C 0.41551 0.02951 0.94061 0.0
C792 C 0.40854 0.01902 0.0246 0.0
C793 C 0.42679 0.02485 0.08261 0.0
C794 C 0.393 0.02374 0.06529 0.0
C795 C 0.39866 0.99693 0.99783 0.0
C796 C 0.3998 0.99522 0.9123 0.0
C797 C 0.39054 0.97639 0.872 0.0
C798 C 0.37986 0.95879 0.92067 0.0
C799 C 0.37899 0.96024 0.00842 0.0
C800 C 0.38857 0.9795 0.04749 0.0
H801 H 0.64246 0.06515 0.04522 0.0
H802 H 0.63593 0.05656 0.77603 0.0
H803 H 0.61628 0.01958 0.79556 0.0
H804 H 0.64851 0.0229 0.09053 0.0
H805 H 0.63368 0.01581 0.18534 0.0
H806 H 0.64665 0.04191 0.15124 0.0
H807 H 0.6126 0.04206 0.15388 0.0
H808 H 0.59952 0.01595 0.18823 0.0
H809 H 0.59116 0.0231 0.09542 0.0
H810 H 0.60049 0.98359 0.84195 0.0
H811 H 0.58642 0.95054 0.91546 0.0
H812 H 0.60047 0.98193 0.15384 0.0
C813 C 0.63672 0.05547 0.99059 0.0
C814 C 0.64075 0.06382 0.90924 0.0
C815 C 0.63293 0.05062 0.83918 0.0
C816 C 0.62178 0.02953 0.84941 0.0
C817 C 0.61823 0.02178 0.93012 0.0
C818 C 0.62516 0.03428 0.99965 0.0
C819 C 0.6192 0.02185 0.07935 0.0
C820 C 0.63814 0.02586 0.12954 0.0
C821 C 0.60476 0.02599 0.13233 0.0
C822 C 0.6083 0.00052 0.04336 0.0
C823 C 0.60805 0.00083 0.95709 0.0
C824 C 0.6002 0.98307 0.90957 0.0
C825 C 0.59233 0.96443 0.95156 0.0
C826 C 0.59209 0.96381 0.03985 0.0
C827 C 0.60003 0.98205 0.08615 0.0
H828 H 0.04326 0.63446 0.1316 0.0
H829 H 0.08034 0.65323 0.90735 0.0
H830 H 0.04927 0.63521 0.82066 0.0
H831 H 0.00296 0.58465 0.0586 0.0
H832 H 0.98293 0.5871 0.10785 0.0
H833 H 0.00808 0.59951 0.15272 0.0
H834 H 0.00909 0.63409 0.14698 0.0
H835 H 0.98398 0.62181 0.10195 0.0
H836 H 0.00475 0.64293 0.04876 0.0
H837 H 0.01486 0.61609 0.75951 0.0
H838 H 0.9787 0.59927 0.72337 0.0
H839 H 0.96292 0.59489 0.98687 0.0
C840 C 0.04474 0.63436 0.06426 0.0
C841 C 0.06403 0.64478 0.02552 0.0
C842 C 0.0656 0.64507 0.93752 0.0
C843 C 0.04809 0.63488 0.88813 0.0
C844 C 0.02922 0.62487 0.92804 0.0
C845 C 0.02736 0.6247 0.01396 0.0
C846 C 0.00517 0.61431 0.04032 0.0
C847 C -0.00055 0.59526 0.09298 0.0
C848 C 0.00048 0.62917 0.08726 0.0
C849 C 0.99485 0.60871 0.95561 0.0
C850 C 0.0091 0.6147 0.89214 0.0
C851 C 0.00355 0.6113 0.80853 0.0
C852 C 0.98288 0.60164 0.78885 0.0
C853 C 0.96786 0.59567 0.85235 0.0
C854 C 0.97399 0.59927 0.93702 0.0
H855 H 0.35931 0.40192 0.04834 0.0
H856 H 0.4103 0.46379 0.04319 0.0
H857 H 0.4333 0.45093 0.00533 0.0
H858 H 0.38587 0.37983 0.14202 0.0
H859 H 0.3735 0.35654 0.08264 0.0
H860 H 0.36042 0.37039 0.10306 0.0
H861 H 0.35478 0.3723 0.94427 0.0
H862 H 0.36744 0.35806 0.9235 0.0
H863 H 0.37631 0.38243 0.8744 0.0
H864 H 0.45089 0.43183 0.97338 0.0
H865 H 0.46195 0.40738 0.93584 0.0
H866 H 0.40013 0.35745 0.96627 0.0
C867 C 0.37522 0.41276 0.03696 0.0
C868 C 0.38304 0.43387 0.04786 0.0
C869 C 0.40403 0.44758 0.03471 0.0
C870 C 0.41721 0.44042 0.01365 0.0
C871 C 0.40918 0.41951 0.00652 0.0
C872 C 0.38867 0.40584 0.01672 0.0
C873 C 0.38419 0.3841 0.00722 0.0
C874 C 0.37548 0.37201 0.08859 0.0
C875 C 0.36984 0.37361 0.93292 0.0
C876 C 0.40541 0.38774 0.9899 0.0
C877 C 0.41953 0.40832 0.99012 0.0
C878 C 0.44002 0.41569 0.97321 0.0
C879 C 0.44617 0.40171 0.95246 0.0
C880 C 0.43192 0.38061 0.94943 0.0
C881 C 0.41136 0.37348 0.97029 0.0
H882 H 0.07488 0.21753 0.46554 0.0
H883 H 0.09062 0.27038 0.62051 0.0
H884 H 0.12678 0.28011 0.61311 0.0
H885 H 0.10797 0.20449 0.55718 0.0
H886 H 0.11462 0.19654 0.46182 0.0
H887 H 0.09038 0.1952 0.47072 0.0
H888 H 0.09833 0.21746 0.33773 0.0
H889 H 0.12269 0.21893 0.32863 0.0
H890 H 0.12129 0.24191 0.33324 0.0
H891 H 0.16068 0.28195 0.60241 0.0
H892 H 0.18928 0.27529 0.59021 0.0
H893 H 0.1513 0.22189 0.43933 0.0
C894 C 0.08593 0.23132 0.49689 0.0
C895 C 0.07984 0.24314 0.54363 0.0
C896 C 0.09485 0.26105 0.58408 0.0
C897 C 0.11548 0.26678 0.58002 0.0
C898 C 0.12091 0.25462 0.53442 0.0
C899 C 0.10658 0.23734 0.4931 0.0
C900 C 0.11616 0.22611 0.45333 0.0
C901 C 0.10673 0.20431 0.48788 0.0
C902 C 0.11452 0.22611 0.35754 0.0
C903 C 0.13795 0.23929 0.48178 0.0
C904 C 0.1405 0.25584 0.52744 0.0
C905 C 0.15898 0.26924 0.56552 0.0
C906 C 0.17514 0.26533 0.55829 0.0
C907 C 0.1726 0.24808 0.51378 0.0
C908 C 0.15388 0.23531 0.47328 0.0
H909 H 0.79908 0.94481 0.52477 0.0
H910 H 0.74875 0.9274 0.69677 0.0
H911 H 0.73872 0.89122 0.67823 0.0
H912 H 0.77268 0.90017 0.38452 0.0
H913 H 0.7956 0.89907 0.36824 0.0
H914 H 0.79711 0.92318 0.38725 0.0
H915 H 0.82142 0.92978 0.5122 0.0
H916 H 0.82007 0.90582 0.49328 0.0
H917 H 0.81356 0.91119 0.59482 0.0
H918 H 0.73697 0.85752 0.65386 0.0
H919 H 0.74404 0.82959 0.62825 0.0
H920 H 0.7949 0.86957 0.469 0.0
C921 C 0.78579 0.93341 0.55792 0.0
C922 C 0.77476 0.93891 0.61256 0.0
C923 C 0.75741 0.9235 0.65442 0.0
C924 C 0.75155 0.90293 0.644 0.0
C925 C 0.76299 0.89808 0.59042 0.0
C926 C 0.77965 0.91292 0.54761 0.0
C927 C 0.79033 0.90403 0.49848 0.0
C928 C 0.78883 0.90677 0.40402 0.0
C929 C 0.81265 0.91325 0.52643 0.0
C930 C 0.77769 0.88196 0.52351 0.0
C931 C 0.76177 0.8787 0.57541 0.0
C932 C 0.74915 0.85981 0.61205 0.0
C933 C 0.7533 0.84403 0.59714 0.0
C934 C 0.77004 0.84736 0.5466 0.0
C935 C 0.78188 0.86641 0.50735 0.0
H936 H 0.08299 0.86477 0.39449 0.0
H937 H 0.09116 0.83206 0.59921 0.0
H938 H 0.12748 0.85842 0.60719 0.0
H939 H 0.13602 0.88679 0.30223 0.0
H940 H 0.13656 0.91023 0.27791 0.0
H941 H 0.11282 0.88645 0.27479 0.0
H942 H 0.09708 0.90106 0.3782 0.0
H943 H 0.12068 0.9247 0.3823 0.0
H944 H 0.1093 0.91097 0.47751 0.0
H945 H 0.16061 0.8913 0.61104 0.0
H946 H 0.18739 0.92752 0.61031 0.0
H947 H 0.15708 0.93848 0.40374 0.0
C948 C 0.09253 0.86279 0.4394 0.0
C949 C 0.08426 0.84643 0.49641 0.0
C950 C 0.09721 0.84444 0.55457 0.0
C951 C 0.11788 0.8593 0.55936 0.0
C952 C 0.12534 0.87579 0.50462 0.0
C953 C 0.11307 0.87743 0.4449 0.0
C954 C 0.12382 0.89775 0.40098 0.0
C955 C 0.12753 0.89514 0.30849 0.0
C956 C 0.11202 0.90929 0.41042 0.0
C957 C 0.14353 0.90788 0.44935 0.0
C958 C 0.14442 0.89484 0.50725 0.0
C959 C 0.16031 0.9015 0.56461 0.0
C960 C 0.17542 0.92212 0.5639 0.0
C961 C 0.17425 0.93581 0.50713 0.0
C962 C 0.15842 0.92838 0.44773 0.0
H963 H 0.23998 0.16371 0.42654 0.0
H964 H 0.19051 0.14972 0.59978 0.0
H965 H 0.18535 0.1154 0.6197 0.0
H966 H 0.21694 0.11547 0.3281 0.0
H967 H 0.24013 0.11462 0.31704 0.0
H968 H 0.24103 0.13875 0.31953 0.0
H969 H 0.26639 0.15031 0.44346 0.0
H970 H 0.26565 0.12623 0.44109 0.0
H971 H 0.25972 0.13485 0.5364 0.0
H972 H 0.18402 0.08228 0.61593 0.0
H973 H 0.18728 0.05207 0.59123 0.0
H974 H 0.2377 0.08708 0.42128 0.0
C975 C 0.22824 0.15352 0.46942 0.0
C976 C 0.21565 0.15945 0.51136 0.0
C977 C 0.20032 0.14556 0.56649 0.0
C978 C 0.19727 0.12601 0.57853 0.0
C979 C 0.20969 0.12055 0.53532 0.0
C980 C 0.22494 0.13385 0.48222 0.0
C981 C 0.23566 0.12377 0.44154 0.0
C982 C 0.23329 0.12311 0.34589 0.0
C983 C 0.25819 0.13443 0.46719 0.0
C984 C 0.22382 0.10269 0.47936 0.0
C985 C 0.20897 0.10124 0.53343 0.0
C986 C 0.19568 0.08321 0.5742 0.0
C987 C 0.19762 0.06611 0.55944 0.0
C988 C 0.21276 0.06717 0.50434 0.0
C989 C 0.22606 0.08578 0.46413 0.0
H990 H 0.87591 0.06616 0.58984 0.0
H991 H 0.83363 0.08727 0.53173 0.0
H992 H 0.86221 0.12233 0.52127 0.0
H993 H 0.91175 0.11099 0.7128 0.0
H994 H 0.93383 0.11078 0.6727 0.0
H995 H 0.90996 0.08731 0.68214 0.0
H996 H 0.91159 0.07991 0.52509 0.0
H997 H 0.93539 0.10338 0.51503 0.0
H998 H 0.91429 0.09847 0.44824 0.0
H999 H 0.89458 0.15423 0.50775 0.0
H1000 H 0.92968 0.18225 0.49409 0.0
H1001 H 0.95211 0.14151 0.56118 0.0
C1002 C 0.87265 0.07821 0.57623 0.0
C1003 C 0.85249 0.07394 0.56158 0.0
C1004 C 0.84891 0.09011 0.54283 0.0
C1005 C 0.86504 0.1101 0.53704 0.0
C1006 C 0.88468 0.11374 0.55031 0.0
C1007 C 0.88864 0.09835 0.56985 0.0
C1008 C 0.91138 0.1065 0.57723 0.0
C1009 C 0.91706 0.10373 0.66654 0.0
C1010 C 0.91858 0.09647 0.51253 0.0
C1011 C 0.9195 0.12879 0.55728 0.0
C1012 C 0.90372 0.1325 0.54244 0.0
C1013 C 0.90709 0.15159 0.51976 0.0
C1014 C 0.92716 0.16739 0.51169 0.0
C1015 C 0.94372 0.1641 0.52623 0.0
C1016 C 0.93979 0.14453 0.55014 0.0
H1017 H 0.9332 0.78614 0.40678 0.0
H1018 H 0.97058 0.83883 0.56274 0.0
H1019 H 0.94073 0.84219 0.59368 0.0
H1020 H 0.90258 0.80529 0.31899 0.0
H1021 H 0.87948 0.78093 0.31873 0.0
H1022 H 0.90374 0.78223 0.30971 0.0
H1023 H 0.89499 0.75848 0.43817 0.0
H1024 H 0.87073 0.75719 0.44785 0.0
H1025 H 0.88799 0.76536 0.53537 0.0
H1026 H 0.90749 0.84035 0.60756 0.0
H1027 H 0.87253 0.83415 0.5993 0.0
H1028 H 0.85619 0.78274 0.43413 0.0
C1029 C 0.93512 0.79838 0.44746 0.0
C1030 C 0.95429 0.8122 0.48225 0.0
C1031 C 0.95611 0.82804 0.53506 0.0
C1032 C 0.93922 0.83007 0.55337 0.0
C1033 C 0.9206 0.81617 0.51845 0.0
C1034 C 0.91839 0.80068 0.46638 0.0
C1035 C 0.89664 0.78811 0.4359 0.0
C1036 C 0.89556 0.78922 0.34015 0.0
C1037 C 0.88702 0.76597 0.46615 0.0
C1038 C 0.88708 0.79908 0.47869 0.0
C1039 C 0.9012 0.81514 0.52628 0.0
C1040 C 0.89624 0.8278 0.57063 0.0
C1041 C 0.87631 0.82414 0.56539 0.0
C1042 C 0.86156 0.80796 0.51593 0.0
C1043 C 0.86704 0.79515 0.47283 0.0
H1044 H 0.81529 0.54203 0.76508 0.0
H1045 H 0.8577 0.60034 0.87682 0.0
H1046 H 0.82922 0.60615 0.90811 0.0
H1047 H 0.78085 0.55767 0.67366 0.0
H1048 H 0.75849 0.53356 0.69617 0.0
H1049 H 0.78243 0.53477 0.6761 0.0
H1050 H 0.77954 0.51702 0.8179 0.0
H1051 H 0.75573 0.51595 0.83887 0.0
H1052 H 0.77636 0.528 0.91264 0.0
H1053 H 0.79627 0.60464 0.93614 0.0
H1054 H 0.7609 0.59666 0.95462 0.0
H1055 H 0.73965 0.53915 0.8252 0.0
C1056 C 0.81869 0.55622 0.7947 0.0
C1057 C 0.83878 0.57075 0.81833 0.0
C1058 C 0.84247 0.58897 0.85808 0.0
C1059 C 0.82639 0.59243 0.87609 0.0
C1060 C 0.80676 0.57756 0.85378 0.0
C1061 C 0.80284 0.55989 0.81342 0.0
C1062 C 0.78022 0.54596 0.79965 0.0
C1063 C 0.77521 0.54281 0.70581 0.0
C1064 C 0.77252 0.52553 0.84499 0.0
C1065 C 0.77203 0.55845 0.83983 0.0
C1066 C 0.78763 0.57665 0.87028 0.0
C1067 C 0.78392 0.59052 0.91199 0.0
C1068 C 0.76371 0.58576 0.92242 0.0
C1069 C 0.74739 0.56724 0.89138 0.0
C1070 C 0.75172 0.55344 0.84952 0.0
H1071 H 0.48116 0.28314 0.78725 0.0
H1072 H 0.42556 0.26269 0.93033 0.0
H1073 H 0.41887 0.22742 0.92273 0.0
H1074 H 0.46179 0.23908 0.65017 0.0
H1075 H 0.48553 0.2391 0.64916 0.0
H1076 H 0.48547 0.26263 0.66253 0.0
H1077 H 0.50588 0.26951 0.80027 0.0
H1078 H 0.50603 0.24604 0.7873 0.0
H1079 H 0.49612 0.25065 0.88209 0.0
H1080 H 0.41913 0.19472 0.90582 0.0
H1081 H 0.42626 0.16686 0.88052 0.0
H1082 H 0.48146 0.2087 0.74698 0.0
C1083 C 0.46749 0.27127 0.81666 0.0
C1084 C 0.45391 0.27575 0.85952 0.0
C1085 C 0.43622 0.2597 0.89711 0.0
C1086 C 0.43225 0.23959 0.89302 0.0
C1087 C 0.44604 0.23577 0.85074 0.0
C1088 C 0.46326 0.25115 0.813 0.0
C1089 C 0.47594 0.24309 0.77348 0.0
C1090 C 0.47725 0.24616 0.67818 0.0
C1091 C 0.49725 0.2529 0.81319 0.0
C1092 C 0.46333 0.22081 0.79613 0.0
C1093 C 0.4461 0.21689 0.84036 0.0
C1094 C 0.43249 0.19757 0.87073 0.0
C1095 C 0.43672 0.18186 0.85619 0.0
C1096 C 0.45441 0.18557 0.81163 0.0
C1097 C 0.46771 0.20529 0.78052 0.0
H1098 H 0.73907 0.2139 0.84352 0.0
H1099 H 0.74851 0.18 0.04004 0.0
H1100 H 0.78345 0.2088 0.0607 0.0
H1101 H 0.78908 0.23673 0.75583 0.0
H1102 H 0.79012 0.26048 0.73331 0.0
H1103 H 0.76599 0.23717 0.73447 0.0
H1104 H 0.75234 0.25255 0.84416 0.0
H1105 H 0.7764 0.27592 0.84324 0.0
H1106 H 0.76613 0.26266 0.94037 0.0
H1107 H 0.81754 0.24171 0.0592 0.0
H1108 H 0.84746 0.27586 0.03711 0.0
H1109 H 0.81479 0.28733 0.84149 0.0
C1110 C 0.74839 0.21241 0.89107 0.0
C1111 C 0.74099 0.19464 0.94019 0.0
C1112 C 0.75382 0.19346 1.00162 0.0
C1113 C 0.77369 0.20972 0.01376 0.0
C1114 C 0.78045 0.22699 0.96397 0.0
C1115 C 0.76814 0.22839 0.90395 0.0
C1116 C 0.77884 0.24855 0.85872 0.0
C1117 C 0.78114 0.24554 0.76505 0.0
C1118 C 0.76777 0.26063 0.8725 0.0
C1119 C 0.79913 0.25838 0.9028 0.0
C1120 C 0.79986 0.24575 0.96318 0.0
C1121 C 0.81713 0.25171 0.01203 0.0
C1122 C 0.83406 0.27114 0.99894 0.0
C1123 C 0.83352 0.28434 0.93759 0.0
C1124 C 0.81578 0.2777 0.88898 0.0
H1125 H 0.88035 0.4859 0.81547 0.0
H1126 H 0.93158 0.51738 0.64588 0.0
H1127 H 0.938 0.48858 0.65474 0.0
H1128 H 0.90294 0.4633 0.94686 0.0
H1129 H 0.87905 0.44006 0.96082 0.0
H1130 H 0.87941 0.46372 0.94491 0.0
H1131 H 0.855 0.44803 0.8186 0.0
H1132 H 0.85457 0.42436 0.83406 0.0
H1133 H 0.86191 0.43695 0.73408 0.0
H1134 H 0.93715 0.45529 0.6747 0.0
H1135 H 0.92949 0.42032 0.70563 0.0
H1136 H 0.87913 0.41145 0.86376 0.0
C1137 C 0.89301 0.48686 0.78039 0.0
C1138 C 0.90541 0.50385 0.72969 0.0
C1139 C 0.92189 0.50452 0.68527 0.0
C1140 C 0.92567 0.48826 0.68996 0.0
C1141 C 0.91297 0.47166 0.73998 0.0
C1142 C 0.89706 0.47093 0.78477 0.0
C1143 C 0.88519 0.45113 0.83174 0.0
C1144 C 0.88676 0.45478 0.92671 0.0
C1145 C 0.86286 0.43943 0.80285 0.0
C1146 C 0.8966 0.44057 0.80479 0.0
C1147 C 0.91264 0.45267 0.7523 0.0
C1148 C 0.92477 0.44575 0.71642 0.0
C1149 C 0.92024 0.42585 0.73419 0.0
C1150 C 0.90372 0.41316 0.78727 0.0
C1151 C 0.89197 0.4208 0.82363 0.0
H1152 H 0.54368 0.40419 0.86747 0.0
H1153 H 0.50339 0.4243 0.76864 0.0
H1154 H 0.53109 0.45997 0.77933 0.0
H1155 H 0.57106 0.44605 0.01389 0.0
H1156 H 0.59512 0.44742 0.99486 0.0
H1157 H 0.57176 0.4235 0.98445 0.0
H1158 H 0.58161 0.41988 0.83282 0.0
H1159 H 0.605 0.44372 0.84288 0.0
H1160 H 0.58771 0.44001 0.75869 0.0
H1161 H 0.56344 0.49327 0.79515 0.0
H1162 H 0.59856 0.52179 0.80903 0.0
H1163 H 0.61782 0.47991 0.89665 0.0
C1164 C 0.54058 0.41608 0.84878 0.0
C1165 C 0.52131 0.4114 0.81732 0.0
C1166 C 0.51801 0.42745 0.79272 0.0
C1167 C 0.53362 0.44778 0.79896 0.0
C1168 C 0.55242 0.45182 0.82993 0.0
C1169 C 0.55599 0.43643 0.85422 0.0
C1170 C 0.57785 0.4448 0.88142 0.0
C1171 C 0.57901 0.44017 0.97417 0.0
C1172 C 0.58867 0.43662 0.8256 0.0
C1173 C 0.58612 0.4673 0.86733 0.0
C1174 C 0.57115 0.47103 0.83844 0.0
C1175 C 0.57527 0.49056 0.81819 0.0
C1176 C 0.5953 0.50667 0.82628 0.0
C1177 C 0.61103 0.50315 0.85396 0.0
C1178 C 0.60619 0.48319 0.87597 0.0
H1179 H 0.61395 0.14647 0.85392 0.0
H1180 H 0.6099 0.10268 0.66905 0.0
H1181 H 0.5751 0.09504 0.63303 0.0
H1182 H 0.56137 0.11872 0.92281 0.0
H1183 H 0.55996 0.14157 0.93484 0.0
H1184 H 0.58387 0.14237 0.94928 0.0
H1185 H 0.60051 0.17087 0.83768 0.0
H1186 H 0.57666 0.17012 0.82268 0.0
H1187 H 0.58945 0.16662 0.73474 0.0
H1188 H 0.541 0.09346 0.61373 0.0
H1189 H 0.51122 0.09853 0.61176 0.0
H1190 H 0.5389 0.14371 0.80843 0.0
C1191 C 0.60575 0.13508 0.80646 0.0
C1192 C 0.61468 0.12515 0.76448 0.0
C1193 C 0.60338 0.11048 0.70223 0.0
C1194 C 0.58359 0.10602 0.68141 0.0
C1195 C 0.57538 0.11632 0.72352 0.0
C1196 C 0.58615 0.13053 0.78482 0.0
C1197 C 0.57445 0.14023 0.81845 0.0
C1198 C 0.56962 0.13542 0.91188 0.0
C1199 C 0.58595 0.16332 0.80238 0.0
C1200 C 0.55547 0.12948 0.7658 0.0
C1201 C 0.55612 0.11562 0.71179 0.0
C1202 C 0.54031 0.10421 0.65607 0.0
C1203 C 0.52347 0.10719 0.65541 0.0
C1204 C 0.52274 0.12157 0.70967 0.0
C1205 C 0.53896 0.13267 0.76576 0.0
H1206 H 0.50108 0.91843 0.2457 0.0
H1207 H 0.49066 0.8751 0.04794 0.0
H1208 H 0.45818 0.8732 0.01394 0.0
H1209 H 0.45109 0.89421 0.31814 0.0
H1210 H 0.45027 0.917 0.34168 0.0
H1211 H 0.47417 0.91742 0.34375 0.0
H1212 H 0.48922 0.9471 0.23717 0.0
H1213 H 0.46534 0.94683 0.23503 0.0
H1214 H 0.47636 0.94429 0.13914 0.0
H1215 H 0.42569 0.87275 0.01062 0.0
H1216 H 0.39441 0.87394 0.0377 0.0
H1217 H 0.42492 0.91756 0.23745 0.0
C1218 C 0.49216 0.90897 0.19397 0.0
C1219 C 0.49837 0.89695 0.14929 0.0
C1220 C 0.48613 0.88437 0.08318 0.0
C1221 C 0.46771 0.88327 0.063 0.0
C1222 C 0.46173 0.89487 0.10942 0.0
C1223 C 0.47353 0.90754 0.17333 0.0
C1224 C 0.46257 0.91696 0.21773 0.0
C1225 C 0.45933 0.91103 0.31082 0.0
C1226 C 0.47406 0.94018 0.20657 0.0
C1227 C 0.44258 0.90706 0.17031 0.0
C1228 C 0.44261 0.89458 0.10753 0.0
C1229 C 0.42553 0.8827 0.0587 0.0
C1230 C 0.40781 0.88339 0.07493 0.0
C1231 C 0.40727 0.89588 0.1395 0.0
C1232 C 0.42501 0.90813 0.18684 0.0
H1233 H 0.10797 0.60026 0.2614 0.0
H1234 H 0.15324 0.63131 0.06736 0.0
H1235 H 0.15688 0.60116 0.05006 0.0
H1236 H 0.13231 0.57664 0.35636 0.0
H1237 H 0.10953 0.55296 0.3798 0.0
H1238 H 0.10851 0.57607 0.37172 0.0
H1239 H 0.08038 0.55955 0.25892 0.0
H1240 H 0.0812 0.5363 0.2671 0.0
H1241 H 0.08481 0.54856 0.16703 0.0
H1242 H 0.1585 0.5698 0.0623 0.0
H1243 H 0.15686 0.5376 0.09926 0.0
H1244 H 0.11019 0.52563 0.28401 0.0
C1245 C 0.11828 0.60049 0.21402 0.0
C1246 C 0.13032 0.61816 0.16578 0.0
C1247 C 0.14392 0.61802 0.10538 0.0
C1248 C 0.14606 0.60093 0.09478 0.0
C1249 C 0.13444 0.584 0.1447 0.0
C1250 C 0.12068 0.58348 0.20267 0.0
C1251 C 0.11101 0.56365 0.25138 0.0
C1252 C 0.11562 0.56758 0.34537 0.0
C1253 C 0.08798 0.55128 0.23511 0.0
C1254 C 0.12189 0.55344 0.21295 0.0
C1255 C 0.13525 0.56549 0.15129 0.0
C1256 C 0.14791 0.56006 0.10967 0.0
C1257 C 0.14696 0.54179 0.13158 0.0
C1258 C 0.13338 0.52908 0.19444 0.0
C1259 C 0.12053 0.53492 0.23504 0.0
H1260 H 0.49961 0.60087 0.23869 0.0
H1261 H 0.48648 0.63168 0.04043 0.0
H1262 H 0.45333 0.60089 0.017 0.0
H1263 H 0.47352 0.54951 0.14195 0.0
H1264 H 0.46395 0.53691 0.24086 0.0
H1265 H 0.48774 0.56061 0.23645 0.0
H1266 H 0.47408 0.57616 0.34505 0.0
H1267 H 0.45024 0.5526 0.34944 0.0
H1268 H 0.45062 0.57592 0.32428 0.0
H1269 H 0.42084 0.56864 0.02273 0.0
H1270 H 0.39043 0.53591 0.05548 0.0
H1271 H 0.42385 0.52519 0.25027 0.0
C1272 C 0.48993 0.60095 0.18915 0.0
C1273 C 0.49563 0.61866 0.14128 0.0
C1274 C 0.4824 0.61832 0.07808 0.0
C1275 C 0.46357 0.60088 0.06399 0.0
C1276 C 0.45819 0.58387 0.11345 0.0
C1277 C 0.47095 0.58364 0.17449 0.0
C1278 C 0.46074 0.56373 0.22241 0.0
C1279 C 0.47217 0.552 0.20962 0.0
C1280 C 0.4588 0.56733 0.31581 0.0
C1281 C 0.44012 0.55307 0.17995 0.0
C1282 C 0.43913 0.56497 0.11688 0.0
C1283 C 0.42145 0.55905 0.07129 0.0
C1284 C 0.40422 0.54046 0.09082 0.0
C1285 C 0.40474 0.52797 0.1555 0.0
C1286 C 0.42304 0.5343 0.19996 0.0
H1287 H 0.5871 0.76559 0.06315 0.0
H1288 H 0.56466 0.74457 0.31376 0.0
H1289 H 0.57027 0.77853 0.35019 0.0
H1290 H 0.6248 0.8206 0.11933 0.0
H1291 H 0.61853 0.82983 0.02669 0.0
H1292 H 0.61735 0.80552 0.02521 0.0
H1293 H 0.57987 0.78825 0.97547 0.0
H1294 H 0.58095 0.81242 0.97677 0.0
H1295 H 0.56163 0.79144 0.03614 0.0
H1296 H 0.57224 0.81155 0.3531 0.0
H1297 H 0.56914 0.8416 0.32053 0.0
H1298 H 0.59011 0.84232 0.06796 0.0
C1299 C 0.58409 0.76847 0.12639 0.0
C1300 C 0.57567 0.75268 0.18611 0.0
C1301 C 0.57118 0.75659 0.26745 0.0
C1302 C 0.57449 0.77585 0.28886 0.0
C1303 C 0.58223 0.79101 0.22808 0.0
C1304 C 0.58699 0.78761 0.14839 0.0
C1305 C 0.59216 0.80556 0.09158 0.0
C1306 C 0.61455 0.816 0.0641 0.0
C1307 C 0.57779 0.79902 0.01556 0.0
C1308 C 0.58846 0.81902 0.15058 0.0
C1309 C 0.58325 0.81049 0.22958 0.0
C1310 C 0.57682 0.81869 0.29234 0.0
C1311 C 0.57505 0.83569 0.27332 0.0
C1312 C 0.57976 0.84431 0.19243 0.0
C1313 C 0.58712 0.8363 0.131 0.0
H1314 H 0.25922 0.83976 0.06087 0.0
H1315 H 0.28163 0.83929 0.3094 0.0
H1316 H 0.24824 0.81016 0.3477 0.0
H1317 H 0.20397 0.82065 0.12163 0.0
H1318 H 0.19476 0.80508 0.02909 0.0
H1319 H 0.21866 0.82871 0.02647 0.0
H1320 H 0.2367 0.80951 0.97391 0.0
H1321 H 0.21296 0.7859 0.97667 0.0
H1322 H 0.23455 0.78843 0.03391 0.0
H1323 H 0.21578 0.77822 0.35192 0.0
H1324 H 0.18588 0.74474 0.32137 0.0
H1325 H 0.1833 0.76467 0.07016 0.0
C1326 C 0.2567 0.83396 0.1242 0.0
C1327 C 0.27274 0.84184 0.18285 0.0
C1328 C 0.26937 0.83348 0.26415 0.0
C1329 C 0.25045 0.81703 0.28651 0.0
C1330 C 0.23506 0.80907 0.22668 0.0
C1331 C 0.23788 0.81723 0.14717 0.0
C1332 C 0.2198 0.80396 0.09153 0.0
C1333 C 0.20864 0.81528 0.06567 0.0
C1334 C 0.22641 0.79651 0.01451 0.0
C1335 C 0.20696 0.7866 0.15094 0.0
C1336 C 0.21592 0.79014 0.22906 0.0
C1337 C 0.20831 0.77547 0.29185 0.0
C1338 C 0.19139 0.7565 0.27392 0.0
C1339 C 0.1822 0.75238 0.19407 0.0
C1340 C 0.18972 0.76777 0.13249 0.0
H1341 H 0.27773 0.46882 0.25283 0.0
H1342 H 0.25924 0.41375 0.10915 0.0
H1343 H 0.22339 0.40547 0.1191 0.0
H1344 H 0.23198 0.44847 0.38904 0.0
H1345 H 0.2322 0.4723 0.38656 0.0
H1346 H 0.25576 0.47204 0.37946 0.0
H1347 H 0.26436 0.49248 0.24103 0.0
H1348 H 0.24089 0.49277 0.24755 0.0
H1349 H 0.24649 0.48273 0.15559 0.0
H1350 H 0.19021 0.40553 0.13055 0.0
H1351 H 0.16306 0.41431 0.13855 0.0
H1352 H 0.20393 0.46961 0.27332 0.0
C1353 C 0.26617 0.45477 0.22478 0.0
C1354 C 0.27135 0.44194 0.18017 0.0
C1355 C 0.25567 0.4238 0.14393 0.0
C1356 C 0.23525 0.41894 0.14952 0.0
C1357 C 0.23079 0.43226 0.19222 0.0
C1358 C 0.24585 0.44975 0.22961 0.0
C1359 C 0.23752 0.46258 0.26494 0.0
C1360 C 0.23948 0.46392 0.36069 0.0
C1361 C 0.24793 0.48388 0.22483 0.0
C1362 C 0.21554 0.45005 0.23842 0.0
C1363 C 0.21181 0.4324 0.19806 0.0
C1364 C 0.19289 0.41914 0.16316 0.0
C1365 C 0.17756 0.42428 0.16801 0.0
C1366 C 0.18134 0.44269 0.20651 0.0
C1367 C 0.20046 0.45539 0.24386 0.0
H1368 H 0.00314 0.22953 0.20797 0.0
H1369 H 0.01683 0.18211 0.27204 0.0
H1370 H 0.0192 0.1761 0.12072 0.0
H1371 H 0.97174 0.20478 0.03245 0.0
H1372 H 0.98073 0.22817 0.97505 0.0
H1373 H 0.98037 0.22842 0.08754 0.0
H1374 H 0.01892 0.25519 0.08983 0.0
H1375 H 0.01935 0.25516 0.97741 0.0
H1376 H 0.03656 0.24991 0.03534 0.0
H1377 H 0.01999 0.17596 0.95681 0.0
H1378 H 0.02059 0.18286 0.80434 0.0
H1379 H 0.00536 0.22963 0.85879 0.0
C1380 C 0.00668 0.21783 0.1911 0.0
C1381 C 0.00979 0.20629 0.25233 0.0
C1382 C 0.01441 0.1912 0.22633 0.0
C1383 C 0.01572 0.18764 0.14053 0.0
C1384 C 0.01228 0.19924 0.08197 0.0
C1385 C 0.0079 0.21406 0.10693 0.0
C1386 C 0.00493 0.22476 0.03377 0.0
C1387 C 0.98315 0.22131 0.03214 0.0
C1388 C 0.02089 0.2476 0.03413 0.0
C1389 C 0.00843 0.21383 0.96294 0.0
C1390 C 0.0126 0.19908 0.99085 0.0
C1391 C 0.0167 0.18747 0.93467 0.0
C1392 C 0.01691 0.1914 0.84826 0.0
C1393 C 0.01316 0.20687 0.81959 0.0
C1394 C 0.00849 0.21781 0.87822 0.0
H1395 H 0.79132 0.78901 0.19498 0.0
H1396 H 0.83407 0.85214 0.25482 0.0
H1397 H 0.83842 0.86025 0.10285 0.0
H1398 H 0.81709 0.78529 0.01704 0.0
H1399 H 0.79383 0.76875 0.96208 0.0
H1400 H 0.7943 0.76855 0.07455 0.0
H1401 H 0.76463 0.77623 0.07963 0.0
H1402 H 0.76395 0.77628 0.96722 0.0
H1403 H 0.76708 0.79808 0.02476 0.0
H1404 H 0.83765 0.86049 0.93897 0.0
H1405 H 0.83065 0.85317 0.78721 0.0
H1406 H 0.78901 0.78972 0.84587 0.0
C1407 C 0.80169 0.80463 0.17704 0.0
C1408 C 0.81243 0.81992 0.2372 0.0
C1409 C 0.82565 0.84014 0.2099 0.0
C1410 C 0.82826 0.84485 0.12376 0.0
C1411 C 0.81753 0.82916 0.06626 0.0
C1412 C 0.80446 0.80949 0.09259 0.0
C1413 C 0.79441 0.79514 0.0205 0.0
C1414 C 0.80027 0.77846 0.01845 0.0
C1415 C 0.77115 0.7859 0.02321 0.0
C1416 C 0.80376 0.80971 0.9486 0.0
C1417 C 0.81711 0.82929 0.97515 0.0
C1418 C 0.82722 0.84518 0.91791 0.0
C1419 C 0.82323 0.84088 0.83188 0.0
C1420 C 0.80921 0.82089 0.80448 0.0
C1421 C 0.79971 0.80522 0.86418 0.0
H1422 H 0.23181 0.01918 0.17158 0.0
H1423 H 0.16793 0.99369 0.23377 0.0
H1424 H 0.15952 0.98925 0.08221 0.0
H1425 H 0.23244 0.04693 0.99051 0.0
H1426 H 0.25019 0.04183 0.93597 0.0
H1427 H 0.25064 0.04314 0.04838 0.0
H1428 H 0.24624 0.00703 0.05672 0.0
H1429 H 0.24587 0.00564 0.94443 0.0
H1430 H 0.22508 0.98618 1.00409 0.0
H1431 H 0.1589 0.98761 0.91856 0.0
H1432 H 0.16598 0.98757 0.76669 0.0
H1433 H 0.2303 0.01436 0.82198 0.0
C1434 C 0.21598 0.0127 0.15423 0.0
C1435 C 0.20055 0.00685 0.2151 0.0
C1436 C 0.18006 -0.00167 0.18843 0.0
C1437 C 0.17516 0.99581 0.10247 0.0
C1438 C 0.19093 0.00189 0.04432 0.0
C1439 C 0.21091 0.01012 0.06985 0.0
C1440 C 0.22526 0.01514 0.99705 0.0
C1441 C 0.24052 0.03812 0.99275 0.0
C1442 C 0.23624 0.00275 1.00082 0.0
C1443 C 0.21032 0.00836 0.92574 0.0
C1444 C 0.19057 0.00084 0.95322 0.0
C1445 C 0.17434 0.9935 0.89678 0.0
C1446 C 0.1785 0.9936 0.81066 0.0
C1447 C 0.19868 0.00084 0.78232 0.0
C1448 C 0.21466 0.00854 0.84115 0.0
H1449 H 0.01837 0.79631 0.80976 0.0
H1450 H 0.02275 0.85387 0.7446 0.0
H1451 H 0.02351 0.86181 0.89591 0.0
H1452 H 0.98549 0.78457 0.98121 0.0
H1453 H -0.00263 0.77306 0.03981 0.0
H1454 H -0.00209 0.7729 0.92745 0.0
H1455 H 0.03732 0.79043 0.93077 0.0
H1456 H 0.03691 0.79078 0.04328 0.0
H1457 H 0.0518 0.81413 0.98612 0.0
H1458 H 0.02271 0.86221 0.05987 0.0
H1459 H 0.01913 0.85437 0.21217 0.0
H1460 H 0.01607 0.79691 0.15884 0.0
C1461 C 0.01951 0.81067 0.82635 0.0
C1462 C 0.02043 0.82444 0.76483 0.0
C1463 C 0.02198 0.84304 0.79053 0.0
C1464 C 0.02249 0.84769 0.8763 0.0
C1465 C 0.02158 0.83363 0.93513 0.0
C1466 C 0.02013 0.81552 0.91043 0.0
C1467 C 0.01887 0.80251 0.98376 0.0
C1468 C -0.00129 0.78207 0.98299 0.0
C1469 C 0.03733 0.79929 0.98609 0.0
C1470 C 0.01953 0.81591 0.05444 0.0
C1471 C 0.02122 0.83389 0.02627 0.0
C1472 C 0.02148 0.84819 0.0822 0.0
C1473 C 0.01953 0.84368 0.16851 0.0
C1474 C 0.01718 0.82497 0.19732 0.0
C1475 C 0.01766 0.81128 0.13911 0.0
H1476 H 0.23345 0.22898 0.17745 0.0
H1477 H 0.17089 0.18434 0.23757 0.0
H1478 H 0.16253 0.18039 0.08596 0.0
H1479 H 0.22266 0.25317 0.01184 0.0
H1480 H 0.2446 0.25754 0.95189 0.0
H1481 H 0.24506 0.25625 0.06411 0.0
H1482 H 0.25419 0.22765 0.05334 0.0
H1483 H 0.25367 0.2288 0.94104 0.0
H1484 H 0.23796 0.20501 0.99413 0.0
H1485 H 0.16188 0.1817 0.92239 0.0
H1486 H 0.16867 0.18927 0.77067 0.0
H1487 H 0.23167 0.23301 0.82771 0.0
C1488 C 0.21793 0.21825 0.15954 0.0
C1489 C 0.20285 0.20688 0.21986 0.0
C1490 C 0.18273 0.19323 0.19265 0.0
C1491 C 0.17788 0.19086 0.10664 0.0
C1492 C 0.1933 0.2023 0.04898 0.0
C1493 C 0.21289 0.21578 0.07507 0.0
C1494 C 0.22688 0.22667 1.00265 0.0
C1495 C 0.23528 0.24977 0.00796 0.0
C1496 C 0.24418 0.22173 0.99751 0.0
C1497 C 0.2122 0.21731 0.93096 0.0
C1498 C 0.19288 0.2032 0.95791 0.0
C1499 C 0.17698 0.19276 0.90104 0.0
C1500 C 0.18097 0.19709 0.81498 0.0
C1501 C 0.20066 0.21183 0.78704 0.0
C1502 C 0.21637 0.22179 0.84643 0.0
H1503 H 0.7837 0.98879 0.27863 0.0
H1504 H 0.84794 0.01647 0.33454 0.0
H1505 H 0.85537 0.0168 0.18287 0.0
H1506 H 0.78288 0.95749 0.09804 0.0
H1507 H 0.76439 0.96164 0.04457 0.0
H1508 H 0.76458 0.9609 0.15712 0.0
H1509 H 0.76753 0.99641 0.16192 0.0
H1510 H 0.76774 -0.00253 0.04975 0.0
H1511 H 0.7883 0.01747 0.10838 0.0
H1512 H 0.85537 0.01815 0.01923 0.0
H1513 H 0.84761 0.01824 0.86793 0.0
H1514 H 0.78335 0.98951 0.92916 0.0
C1515 C 0.79928 0.99436 0.2592 0.0
C1516 C 0.81523 0.0025 0.31786 0.0
C1517 C 0.83547 0.00986 0.29032 0.0
C1518 C 0.83981 0.01022 0.20432 0.0
C1519 C 0.82368 0.00284 0.14743 0.0
C1520 C 0.80378 0.99468 0.17458 0.0
C1521 C 0.78912 0.98899 0.10266 0.0
C1522 C 0.77438 0.96588 0.10047 0.0
C1523 C 0.77751 0.0008 0.10591 0.0
C1524 C 0.80383 0.99581 0.03037 0.0
C1525 C 0.82372 0.00363 0.05622 0.0
C1526 C 0.83978 0.01177 0.99859 0.0
C1527 C 0.83527 0.01184 0.91283 0.0
C1528 C 0.8149 0.00402 0.88613 0.0
C1529 C 0.79917 0.99576 0.94645 0.0
H1530 H 0.67217 0.56059 0.19954 0.0
H1531 H 0.68384 0.51143 0.1449 0.0
H1532 H 0.68281 0.50429 0.29731 0.0
H1533 H 0.70422 0.57963 0.37108 0.0
H1534 H 0.68813 0.58667 0.42765 0.0
H1535 H 0.68753 0.586 0.31529 0.0
H1536 H 0.64858 0.56088 0.31775 0.0
H1537 H 0.64899 0.56172 0.43024 0.0
H1538 H 0.63862 0.53763 0.37702 0.0
H1539 H 0.68296 0.50499 0.4613 0.0
H1540 H 0.68251 0.51228 0.61268 0.0
H1541 H 0.67217 0.56191 0.54845 0.0
C1542 C 0.67426 0.5481 0.21903 0.0
C1543 C 0.67816 0.53661 0.16045 0.0
C1544 C 0.68068 0.52034 0.18888 0.0
C1545 C 0.68024 0.51628 0.27525 0.0
C1546 C 0.67714 0.52857 0.33155 0.0
C1547 C 0.674 0.54402 0.30374 0.0
C1548 C 0.67197 0.55589 0.37472 0.0
C1549 C 0.68898 0.57836 0.37198 0.0
C1550 C 0.65078 0.55389 0.37494 0.0
C1551 C 0.67462 0.54493 0.44764 0.0
C1552 C 0.67752 0.52915 0.42265 0.0
C1553 C 0.68058 0.51727 0.48115 0.0
C1554 C 0.68041 0.52157 0.56695 0.0
C1555 C 0.6773 0.53767 0.59291 0.0
C1556 C 0.67454 0.54944 0.53168 0.0
H1557 H 0.47269 0.12105 0.42336 0.0
H1558 H 0.50348 0.18557 0.47966 0.0
H1559 H 0.51169 0.19315 0.32831 0.0
H1560 H 0.50725 0.12347 0.26051 0.0
H1561 H 0.48685 0.10355 0.20098 0.0
H1562 H 0.4851 0.10385 0.31326 0.0
H1563 H 0.45071 0.10324 0.30119 0.0
H1564 H 0.45227 0.10273 0.18925 0.0
H1565 H 0.44938 0.12239 0.23939 0.0
H1566 H 0.51339 0.19267 0.16503 0.0
H1567 H 0.50761 0.18437 0.01372 0.0
H1568 H 0.47672 0.1201 0.07404 0.0
C1569 C 0.48119 0.13687 0.40452 0.0
C1570 C 0.48717 0.15275 0.46325 0.0
C1571 C 0.49865 0.17316 0.4356 0.0
C1572 C 0.50341 0.17756 0.34991 0.0
C1573 C 0.49695 0.16135 0.29359 0.0
C1574 C 0.4862 0.14142 0.32068 0.0
C1575 C 0.48006 0.12647 0.24944 0.0
C1576 C 0.49044 0.11358 0.2565 0.0
C1577 C 0.45674 0.11293 0.24454 0.0
C1578 C 0.48838 0.14098 0.17675 0.0
C1579 C 0.4983 0.16107 0.20259 0.0
C1580 C 0.50591 0.17698 0.1446 0.0
C1581 C 0.50268 0.17214 0.05873 0.0
C1582 C 0.49177 0.15158 0.03211 0.0
C1583 C 0.48521 0.13597 0.09221 0.0
H1584 H 0.89097 0.33912 0.18881 0.0
H1585 H 0.85288 0.36515 0.13315 0.0
H1586 H 0.84384 0.36287 0.28421 0.0
H1587 H 0.85772 0.30316 0.34213 0.0
H1588 H 0.87861 0.30569 0.40464 0.0
H1589 H 0.88157 0.30947 0.29323 0.0
H1590 H 0.91301 0.34536 0.31555 0.0
H1591 H 0.91031 0.34156 0.42677 0.0
H1592 H 0.91068 0.36342 0.38095 0.0
H1593 H 0.84146 0.35948 0.44814 0.0
H1594 H 0.84586 0.35533 0.59951 0.0
H1595 H 0.8832 0.32885 0.53623 0.0
C1596 C 0.88083 0.34454 0.20791 0.0
C1597 C 0.87295 0.3527 0.14934 0.0
C1598 C 0.85927 0.35904 0.17717 0.0
C1599 C 0.85402 0.35772 0.26272 0.0
C1600 C 0.8622 0.34955 0.31882 0.0
C1601 C 0.87516 0.34292 0.29158 0.0
C1602 C 0.88208 0.33467 0.36215 0.0
C1603 C 0.87453 0.3119 0.34977 0.0
C1604 C 0.90539 0.34699 0.37192 0.0
C1605 C 0.87145 0.3381 0.43461 0.0
C1606 C 0.86001 0.34669 0.40941 0.0
C1607 C 0.85015 0.35247 0.46796 0.0
C1608 C 0.85261 0.34994 0.5539 0.0
C1609 C 0.8648 0.34166 0.58023 0.0
C1610 C 0.87366 0.33511 0.51895 0.0
H1611 H 0.67545 0.13088 0.18195 0.0
H1612 H 0.66754 0.18226 0.1237 0.0
H1613 H 0.67127 0.1913 0.27493 0.0
H1614 H 0.64939 0.11689 0.37774 0.0
H1615 H 0.66721 0.11047 0.42276 0.0
H1616 H 0.66265 0.10804 0.31187 0.0
H1617 H 0.70132 0.13147 0.28536 0.0
H1618 H 0.70597 0.13421 0.39621 0.0
H1619 H 0.71438 0.15646 0.33171 0.0
H1620 H 0.67528 0.19349 0.43939 0.0
H1621 H 0.68014 0.18924 0.59041 0.0
H1622 H 0.68835 0.13819 0.52838 0.0
C1623 C 0.67414 0.1439 0.20036 0.0
C1624 C 0.67081 0.15564 0.14064 0.0
C1625 C 0.66983 0.17287 0.16828 0.0
C1626 C 0.672 0.17813 0.25405 0.0
C1627 C 0.67552 0.16623 0.31098 0.0
C1628 C 0.67671 0.14955 0.28432 0.0
C1629 C 0.68147 0.1395 0.35523 0.0
C1630 C 0.66415 0.11743 0.36762 0.0
C1631 C 0.702 0.14048 0.34126 0.0
C1632 C 0.68261 0.15292 0.42698 0.0
C1633 C 0.67899 0.1682 0.40141 0.0
C1634 C 0.67835 0.18168 0.45938 0.0
C1635 C 0.68121 0.17922 0.54508 0.0
C1636 C 0.68495 0.16358 0.57177 0.0
C1637 C 0.68592 0.15058 0.51092 0.0
H1638 H 0.9029 0.5459 0.08154 0.0
H1639 H 0.83876 0.51747 0.02242 0.0
H1640 H 0.83042 0.51146 0.17377 0.0
H1641 H 0.89798 0.51382 0.26661 0.0
H1642 H 0.91841 0.53537 0.31923 0.0
H1643 H 0.91837 0.53374 0.20685 0.0
H1644 H 0.92124 0.56916 0.19693 0.0
H1645 H 0.92085 0.57075 0.30885 0.0
H1646 H 0.90233 0.57323 0.24736 0.0
H1647 H 0.83017 0.51339 0.33733 0.0
H1648 H 0.83815 0.52141 0.48857 0.0
H1649 H 0.90244 0.54883 0.43063 0.0
C1650 C 0.88705 0.53779 0.10018 0.0
C1651 C 0.87148 0.53202 0.04057 0.0
C1652 C 0.85091 0.52168 0.06726 0.0
C1653 C 0.84607 0.51835 0.15312 0.0
C1654 C 0.86197 0.52519 0.2109 0.0
C1655 C 0.88204 0.53435 0.18473 0.0
C1656 C 0.89662 0.54195 0.25734 0.0
C1657 C 0.90854 0.53053 0.26283 0.0
C1658 C 0.91109 0.56513 0.25227 0.0
C1659 C 0.88179 0.53635 0.32872 0.0
C1660 C 0.86182 0.52649 0.30199 0.0
C1661 C 0.84578 0.52089 0.35867 0.0
C1662 C 0.85041 0.52555 0.44436 0.0
C1663 C 0.87091 0.53597 0.47177 0.0
C1664 C 0.88657 0.54108 0.41251 0.0
H1665 H 0.45337 0.32862 0.16888 0.0
H1666 H 0.51716 0.35481 0.1038 0.0
H1667 H 0.52548 0.35552 0.25473 0.0
H1668 H 0.46005 0.35762 0.34708 0.0
H1669 H 0.43915 0.33715 0.40252 0.0
H1670 H 0.43889 0.33781 0.29027 0.0
H1671 H 0.43434 0.3016 0.28536 0.0
H1672 H 0.43483 0.30094 0.39787 0.0
H1673 H 0.4525 0.29675 0.33782 0.0
H1674 H 0.52619 0.35501 0.41829 0.0
H1675 H 0.51938 0.35484 0.57062 0.0
H1676 H 0.45501 0.32811 0.51825 0.0
C1677 C 0.46918 0.33454 0.18547 0.0
C1678 C 0.48464 0.34183 0.12419 0.0
C1679 C 0.50504 0.34919 0.14964 0.0
C1680 C 0.50987 0.34957 0.23514 0.0
C1681 C 0.49407 0.34226 0.29379 0.0
C1682 C 0.47414 0.33485 0.26921 0.0
C1683 C 0.45978 0.32858 0.34252 0.0
C1684 C 0.44885 0.34104 0.34578 0.0
C1685 C 0.44447 0.3056 0.34075 0.0
C1686 C 0.4747 0.33404 0.41323 0.0
C1687 C 0.49443 0.34173 0.38489 0.0
C1688 C 0.51075 0.34879 0.44075 0.0
C1689 C 0.50676 0.34853 0.5271 0.0
C1690 C 0.48667 0.34145 0.55592 0.0
C1691 C 0.47053 0.33359 0.49808 0.0
H1692 H 0.35035 0.90432 0.48443 0.0
H1693 H 0.33962 0.84413 0.42198 0.0
H1694 H 0.3353 0.83519 0.57294 0.0
H1695 H 0.37854 0.91145 0.67282 0.0
H1696 H 0.36733 0.92452 0.72496 0.0
H1697 H 0.37 0.92588 0.61295 0.0
H1698 H 0.3313 0.91232 0.59708 0.0
H1699 H 0.32854 0.91096 0.70902 0.0
H1700 H 0.3134 0.88864 0.64629 0.0
H1701 H 0.33282 0.83365 0.73627 0.0
H1702 H 0.33021 0.83902 0.88834 0.0
H1703 H 0.34162 0.89985 0.83498 0.0
C1704 C 0.34723 0.88925 0.50194 0.0
C1705 C 0.34551 0.87499 0.44097 0.0
C1706 C 0.34106 0.85536 0.46738 0.0
C1707 C 0.33864 0.85018 0.55306 0.0
C1708 C 0.34056 0.86474 0.61145 0.0
C1709 C 0.34461 0.88383 0.58631 0.0
C1710 C 0.34536 0.89673 0.65959 0.0
C1711 C 0.36657 0.91576 0.66806 0.0
C1712 C 0.32866 0.90249 0.65255 0.0
C1713 C 0.34111 0.882 0.73046 0.0
C1714 C 0.33853 0.86365 0.70244 0.0
C1715 C 0.33473 0.84797 0.75844 0.0
C1716 C 0.33332 0.85114 0.8447 0.0
C1717 C 0.33546 0.86974 0.87369 0.0
C1718 C 0.33957 0.88529 0.8152 0.0
H1719 H 0.1242 0.45955 0.88875 0.0
H1720 H 0.18676 0.50483 0.9441 0.0
H1721 H 0.19317 0.51241 0.7921 0.0
H1722 H 0.13356 0.43997 0.70483 0.0
H1723 H 0.11083 0.43617 0.65308 0.0
H1724 H 0.11153 0.43513 0.76533 0.0
H1725 H 0.10156 0.46309 0.77652 0.0
H1726 H 0.1007 0.46413 0.66426 0.0
H1727 H 0.11664 0.48695 0.72296 0.0
H1728 H 0.19239 0.51314 0.62856 0.0
H1729 H 0.18392 0.50873 0.47703 0.0
H1730 H 0.12171 0.46336 0.53829 0.0
C1731 C 0.13931 0.47111 0.86939 0.0
C1732 C 0.15505 0.48148 0.92828 0.0
C1733 C 0.17447 0.49671 0.9 0.0
C1734 C 0.17824 0.50103 0.81383 0.0
C1735 C 0.16235 0.49015 0.75731 0.0
C1736 C 0.14323 0.47566 0.78473 0.0
C1737 C 0.12851 0.46596 0.71326 0.0
C1738 C 0.12066 0.44295 0.70889 0.0
C1739 C 0.11082 0.4703 0.71965 0.0
C1740 C 0.14228 0.47705 0.64052 0.0
C1741 C 0.1618 0.49091 0.66622 0.0
C1742 C 0.17709 0.50243 0.6082 0.0
C1743 C 0.17218 0.49978 0.52226 0.0
C1744 C 0.15211 0.48585 0.49547 0.0
C1745 C 0.13716 0.47437 0.55607 0.0
H1746 H 0.56846 0.68458 0.83839 0.0
H1747 H 0.51836 0.69474 0.89491 0.0
H1748 H 0.50985 0.69178 0.74365 0.0
H1749 H 0.58417 0.71249 0.64777 0.0
H1750 H 0.59028 0.69488 0.59836 0.0
H1751 H 0.59207 0.69791 0.71019 0.0
H1752 H 0.56764 0.65915 0.72865 0.0
H1753 H 0.56578 0.656 0.61686 0.0
H1754 H 0.54305 0.64724 0.67876 0.0
H1755 H 0.50795 0.6886 0.58076 0.0
H1756 H 0.51182 0.68387 0.42948 0.0
H1757 H 0.56257 0.67483 0.48734 0.0
C1758 C 0.5557 0.68628 0.81951 0.0
C1759 C 0.54419 0.69008 0.879 0.0
C1760 C 0.52745 0.69186 0.8508 0.0
C1761 C 0.52254 0.69024 0.76488 0.0
C1762 C 0.53438 0.68662 0.70801 0.0
C1763 C 0.55053 0.68452 0.73487 0.0
C1764 C 0.56084 0.68037 0.66283 0.0
C1765 C 0.58316 0.69743 0.65431 0.0
C1766 C 0.55922 0.65945 0.67236 0.0
C1767 C 0.54812 0.68054 0.59056 0.0
C1768 C 0.53296 0.68427 0.61707 0.0
C1769 C 0.51972 0.68554 0.55983 0.0
C1770 C 0.52204 0.68286 0.4739 0.0
C1771 C 0.53737 0.67877 0.44598 0.0
C1772 C 0.55049 0.67766 0.5059 0.0
H1773 H 0.34133 0.45362 0.84807 0.0
H1774 H 0.32903 0.50224 0.90661 0.0
H1775 H 0.33066 0.51024 0.75509 0.0
H1776 H 0.37707 0.47934 0.68456 0.0
H1777 H 0.36858 0.45647 0.62402 0.0
H1778 H 0.36629 0.45501 0.73613 0.0
H1779 H 0.32761 0.42944 0.72262 0.0
H1780 H 0.32976 0.43087 0.61047 0.0
H1781 H 0.31195 0.43635 0.66218 0.0
H1782 H 0.33299 0.51182 0.59161 0.0
H1783 H 0.33747 0.50789 0.43998 0.0
H1784 H 0.34856 0.45846 0.49806 0.0
C1785 C 0.33889 0.46596 0.8297 0.0
C1786 C 0.33489 0.4772 0.88959 0.0
C1787 C 0.3321 0.49338 0.86201 0.0
C1788 C 0.33295 0.49799 0.77603 0.0
C1789 C 0.33674 0.48636 0.71872 0.0
C1790 C 0.33978 0.47077 0.74518 0.0
C1791 C 0.34388 0.46053 0.67299 0.0
C1792 C 0.36522 0.463 0.67985 0.0
C1793 C 0.32731 0.43797 0.66672 0.0
C1794 C 0.34263 0.47268 0.60104 0.0
C1795 C 0.33842 0.4875 0.62769 0.0
C1796 C 0.33638 0.5003 0.57052 0.0
C1797 C 0.3389 0.49794 0.48449 0.0
C1798 C 0.34354 0.48299 0.45674 0.0
C1799 C 0.34526 0.47023 0.51651 0.0
H1800 H 0.56836 0.90071 0.84772 0.0
H1801 H 0.51772 0.84091 0.90719 0.0
H1802 H 0.50937 0.83471 0.75575 0.0
H1803 H 0.54346 0.91229 0.68592 0.0
H1804 H 0.56632 0.92592 0.62443 0.0
H1805 H 0.56798 0.92497 0.73642 0.0
H1806 H 0.59217 0.91031 0.7208 0.0
H1807 H 0.59054 0.91115 0.60876 0.0
H1808 H 0.58415 0.88755 0.65996 0.0
H1809 H 0.50793 0.83532 0.59202 0.0
H1810 H 0.51201 0.8437 0.4402 0.0
H1811 H 0.56294 0.90347 0.49758 0.0
C1812 C 0.55553 0.8862 0.82941 0.0
C1813 C 0.54382 0.8712 0.88947 0.0
C1814 C 0.52694 0.85263 0.86231 0.0
C1815 C 0.52215 0.84897 0.77642 0.0
C1816 C 0.53425 0.86413 0.71883 0.0
C1817 C 0.55048 0.88244 0.74498 0.0
C1818 C 0.56101 0.89664 0.67263 0.0
C1819 C 0.55959 0.9161 0.68033 0.0
C1820 C 0.58327 0.9017 0.66511 0.0
C1821 C 0.54831 0.88352 0.60094 0.0
C1822 C 0.53301 0.86473 0.62781 0.0
C1823 C 0.51979 0.85008 0.57078 0.0
C1824 C 0.52223 0.85492 0.48468 0.0
C1825 C 0.53761 0.87433 0.45684 0.0
C1826 C 0.55077 0.8886 0.51639 0.0
H1827 H 0.11907 0.67342 0.50358 0.0
H1828 H 0.1802 0.68717 0.43915 0.0
H1829 H 0.1892 0.69129 0.58991 0.0
H1830 H 0.13319 0.70948 0.66759 0.0
H1831 H 0.11114 0.69333 0.73016 0.0
H1832 H 0.10984 0.69096 0.6181 0.0
H1833 H 0.09806 0.65258 0.63158 0.0
H1834 H 0.0994 0.65489 0.74373 0.0
H1835 H 0.11339 0.6449 0.69001 0.0
H1836 H 0.19086 0.69354 0.75311 0.0
H1837 H 0.18544 0.69576 0.90548 0.0
H1838 H 0.12346 0.68113 0.85422 0.0
C1839 C 0.13437 0.67718 0.52057 0.0
C1840 C 0.14887 0.67983 0.45909 0.0
C1841 C 0.16878 0.68503 0.48492 0.0
C1842 C 0.17401 0.68733 0.5705 0.0
C1843 C 0.1592 0.6845 0.62939 0.0
C1844 C 0.13982 0.67964 0.60486 0.0
C1845 C 0.12667 0.67796 0.67869 0.0
C1846 C 0.11982 0.69388 0.67329 0.0
C1847 C 0.1083 0.65629 0.68644 0.0
C1848 C 0.1416 0.68266 0.74908 0.0
C1849 C 0.16028 0.68625 0.72041 0.0
C1850 C 0.17627 0.69081 0.77584 0.0
C1851 C 0.17308 0.69198 0.86225 0.0
C1852 C 0.15413 0.68885 0.89183 0.0
C1853 C 0.13826 0.68391 0.83394 0.0
loop_
_geom_bond_atom_site_label_1
_geom_bond_atom_site_label_2
_geom_bond_distance
_geom_bond_site_symmetry_2
_ccdc_geom_bond_type
Sc0 O3 2.025 1_655 S
Sc0 O10 2.105 1_655 S
Sc0 O13 2.105 . S
Sc0 O16 2.105 . S
Sc0 O19 2.105 1_655 S
Sc1 O3 2.025 . S
Sc1 O11 2.105 . S
Sc1 O15 2.105 . S
Sc1 O17 2.105 1_455 S
Sc1 O21 2.105 . S
Sc2 O3 2.025 . S
Sc2 O12 2.105 . S
Sc2 O14 2.105 . S
Sc2 O18 2.105 . S
Sc2 O20 2.105 . S
O3 Sc0 2.025 1_455 S
O3 Sc1 2.025 . S
O3 Sc2 2.025 . S
C4 O10 1.268 . S
C4 O20 1.268 . S
C5 O11 1.268 . S
C5 O19 1.268 . S
C6 O12 1.268 . S
C6 O21 1.268 . S
C7 O13 1.268 . S
C7 O17 1.268 . S
C8 O14 1.268 1_655 S
C8 O16 1.268 . S
C9 O15 1.268 . S
C9 O18 1.268 . S
O10 Sc0 2.105 1_455 S
O10 C4 1.268 . S
O11 Sc1 2.105 . S
O11 C5 1.268 . S
O12 Sc2 2.105 . S
O12 C6 1.268 . S
O13 Sc0 2.105 . S
O13 C7 1.268 . S
O14 Sc2 2.105 . S
O14 C8 1.268 1_455 S
O15 Sc1 2.105 . S
O15 C9 1.268 . S
O16 Sc0 2.105 . S
O16 C8 1.268 . S
O17 Sc1 2.105 1_655 S
O17 C7 1.268 . S
O18 Sc2 2.105 . S
O18 C9 1.268 . S
O19 Sc0 2.105 1_455 S
O19 C5 1.268 . S
O20 Sc2 2.105 . S
O20 C4 1.268 . S
O21 Sc1 2.105 . S
O21 C6 1.268 . S
Sc22 O25 2.025 . S
Sc22 O32 2.105 . S
Sc22 O35 2.105 . S
Sc22 O38 2.105 . S
Sc22 O41 2.105 . S
Sc23 O25 2.025 . S
Sc23 O33 2.105 . S
Sc23 O37 2.105 . S
Sc23 O39 2.105 . S
Sc23 O43 2.105 . S
Sc24 O25 2.025 . S
Sc24 O34 2.105 . S
Sc24 O36 2.105 . S
Sc24 O40 2.105 . S
Sc24 O42 2.105 . S
O25 Sc22 2.025 . S
O25 Sc23 2.025 . S
O25 Sc24 2.025 . S
C26 O32 1.268 . S
C26 O42 1.268 . S
C27 O33 1.268 . S
C27 O41 1.268 . S
C28 O34 1.268 . S
C28 O43 1.268 . S
C29 O35 1.268 . S
C29 O39 1.268 . S
C30 O36 1.268 . S
C30 O38 1.268 . S
C31 O37 1.268 . S
C31 O40 1.268 . S
O32 Sc22 2.105 . S
O32 C26 1.268 . S
O33 Sc23 2.105 . S
O33 C27 1.268 . S
O34 Sc24 2.105 . S
O34 C28 1.268 . S
O35 Sc22 2.105 . S
O35 C29 1.268 . S
O36 Sc24 2.105 . S
O36 C30 1.268 . S
O37 Sc23 2.105 . S
O37 C31 1.268 . S
O38 Sc22 2.105 . S
O38 C30 1.268 . S
O39 Sc23 2.105 . S
O39 C29 1.268 . S
O40 Sc24 2.105 . S
O40 C31 1.268 . S
O41 Sc22 2.105 . S
O41 C27 1.268 . S
O42 Sc24 2.105 . S
O42 C26 1.268 . S
O43 Sc23 2.105 . S
O43 C28 1.268 . S
Sc44 O47 2.025 . S
Sc44 O54 2.105 . S
Sc44 O57 2.105 . S
Sc44 O60 2.105 . S
Sc44 O63 2.105 . S
Sc45 O47 2.025 . S
Sc45 O55 2.105 . S
Sc45 O59 2.105 . S
Sc45 O61 2.105 . S
Sc45 O65 2.105 1_545 S
Sc46 O47 2.025 1_565 S
Sc46 O56 2.105 . S
Sc46 O58 2.105 1_565 S
Sc46 O62 2.105 1_565 S
Sc46 O64 2.105 . S
O47 Sc44 2.025 . S
O47 Sc45 2.025 . S
O47 Sc46 2.025 1_545 S
C48 O54 1.268 1_565 S
C48 O64 1.268 . S
C49 O55 1.268 . S
C49 O63 1.268 . S
C50 O56 1.268 . S
C50 O65 1.268 . S
C51 O57 1.268 . S
C51 O61 1.268 . S
C52 O58 1.268 . S
C52 O60 1.268 . S
C53 O59 1.268 . S
C53 O62 1.268 . S
O54 Sc44 2.105 . S
O54 C48 1.268 1_545 S
O55 Sc45 2.105 . S
O55 C49 1.268 . S
O56 Sc46 2.105 . S
O56 C50 1.268 . S
O57 Sc44 2.105 . S
O57 C51 1.268 . S
O58 Sc46 2.105 1_545 S
O58 C52 1.268 . S
O59 Sc45 2.105 . S
O59 C53 1.268 . S
O60 Sc44 2.105 . S
O60 C52 1.268 . S
O61 Sc45 2.105 . S
O61 C51 1.268 . S
O62 Sc46 2.105 1_545 S
O62 C53 1.268 . S
O63 Sc44 2.105 . S
O63 C49 1.268 . S
O64 Sc46 2.105 . S
O64 C48 1.268 . S
O65 Sc45 2.105 1_565 S
O65 C50 1.268 . S
Sc66 O69 2.025 . S
Sc66 O76 2.105 . S
Sc66 O79 2.105 . S
Sc66 O82 2.105 . S
Sc66 O85 2.105 . S
Sc67 O69 2.025 . S
Sc67 O77 2.105 . S
Sc67 O81 2.105 1_455 S
Sc67 O83 2.105 . S
Sc67 O87 2.105 . S
Sc68 O69 2.025 1_655 S
Sc68 O78 2.105 1_655 S
Sc68 O80 2.105 . S
Sc68 O84 2.105 . S
Sc68 O86 2.105 1_655 S
O69 Sc66 2.025 . S
O69 Sc67 2.025 . S
O69 Sc68 2.025 1_455 S
C70 O76 1.268 . S
C70 O86 1.268 . S
C71 O77 1.268 . S
C71 O85 1.268 . S
C72 O78 1.268 . S
C72 O87 1.268 . S
C73 O79 1.268 . S
C73 O83 1.268 . S
C74 O80 1.268 . S
C74 O82 1.268 1_655 S
C75 O81 1.268 . S
C75 O84 1.268 . S
O76 Sc66 2.105 . S
O76 C70 1.268 . S
O77 Sc67 2.105 . S
O77 C71 1.268 . S
O78 Sc68 2.105 1_455 S
O78 C72 1.268 . S
O79 Sc66 2.105 . S
O79 C73 1.268 . S
O80 Sc68 2.105 . S
O80 C74 1.268 . S
O81 Sc67 2.105 1_655 S
O81 C75 1.268 . S
O82 Sc66 2.105 . S
O82 C74 1.268 1_455 S
O83 Sc67 2.105 . S
O83 C73 1.268 . S
O84 Sc68 2.105 . S
O84 C75 1.268 . S
O85 Sc66 2.105 . S
O85 C71 1.268 . S
O86 Sc68 2.105 1_455 S
O86 C70 1.268 . S
O87 Sc67 2.105 . S
O87 C72 1.268 . S
Sc88 O91 2.025 . S
Sc88 O98 2.105 . S
Sc88 O101 2.105 . S
Sc88 O104 2.105 . S
Sc88 O107 2.105 . S
Sc89 O91 2.025 . S
Sc89 O99 2.105 . S
Sc89 O103 2.105 . S
Sc89 O105 2.105 . S
Sc89 O109 2.105 . S
Sc90 O91 2.025 . S
Sc90 O100 2.105 . S
Sc90 O102 2.105 . S
Sc90 O106 2.105 . S
Sc90 O108 2.105 . S
O91 Sc88 2.025 . S
O91 Sc89 2.025 . S
O91 Sc90 2.025 . S
C92 O98 1.268 . S
C92 O108 1.268 . S
C93 O99 1.268 . S
C93 O107 1.268 . S
C94 O100 1.268 . S
C94 O109 1.268 . S
C95 O101 1.268 . S
C95 O105 1.268 . S
C96 O102 1.268 . S
C96 O104 1.268 . S
C97 O103 1.268 . S
C97 O106 1.268 . S
O98 Sc88 2.105 . S
O98 C92 1.268 . S
O99 Sc89 2.105 . S
O99 C93 1.268 . S
O100 Sc90 2.105 . S
O100 C94 1.268 . S
O101 Sc88 2.105 . S
O101 C95 1.268 . S
O102 Sc90 2.105 . S
O102 C96 1.268 . S
O103 Sc89 2.105 . S
O103 C97 1.268 . S
O104 Sc88 2.105 . S
O104 C96 1.268 . S
O105 Sc89 2.105 . S
O105 C95 1.268 . S
O106 Sc90 2.105 . S
O106 C97 1.268 . S
O107 Sc88 2.105 . S
O107 C93 1.268 . S
O108 Sc90 2.105 . S
O108 C92 1.268 . S
O109 Sc89 2.105 . S
O109 C94 1.268 . S
Sc110 O113 2.025 1_565 S
Sc110 O120 2.105 . S
Sc110 O123 2.105 1_565 S
Sc110 O126 2.105 1_565 S
Sc110 O129 2.105 . S
Sc111 O113 2.025 . S
Sc111 O121 2.105 1_545 S
Sc111 O125 2.105 . S
Sc111 O127 2.105 . S
Sc111 O131 2.105 . S
Sc112 O113 2.025 . S
Sc112 O122 2.105 . S
Sc112 O124 2.105 . S
Sc112 O128 2.105 . S
Sc112 O130 2.105 . S
O113 Sc110 2.025 1_545 S
O113 Sc111 2.025 . S
O113 Sc112 2.025 . S
C114 O120 1.268 . S
C114 O130 1.268 1_565 S
C115 O121 1.268 . S
C115 O129 1.268 . S
C116 O122 1.268 . S
C116 O131 1.268 . S
C117 O123 1.268 . S
C117 O127 1.268 . S
C118 O124 1.268 . S
C118 O126 1.268 . S
C119 O125 1.268 . S
C119 O128 1.268 . S
O120 Sc110 2.105 . S
O120 C114 1.268 . S
O121 Sc111 2.105 1_565 S
O121 C115 1.268 . S
O122 Sc112 2.105 . S
O122 C116 1.268 . S
O123 Sc110 2.105 1_545 S
O123 C117 1.268 . S
O124 Sc112 2.105 . S
O124 C118 1.268 . S
O125 Sc111 2.105 . S
O125 C119 1.268 . S
O126 Sc110 2.105 1_545 S
O126 C118 1.268 . S
O127 Sc111 2.105 . S
O127 C117 1.268 . S
O128 Sc112 2.105 . S
O128 C119 1.268 . S
O129 Sc110 2.105 . S
O129 C115 1.268 . S
O130 Sc112 2.105 . S
O130 C114 1.268 1_545 S
O131 Sc111 2.105 . S
O131 C116 1.268 . S
Sc132 O135 2.025 . S
Sc132 O142 2.105 . S
Sc132 O145 2.105 . S
Sc132 O148 2.105 . S
Sc132 O151 2.105 . S
Sc133 O135 2.025 . S
Sc133 O143 2.105 . S
Sc133 O147 2.105 . S
Sc133 O149 2.105 . S
Sc133 O153 2.105 . S
Sc134 O135 2.025 . S
Sc134 O144 2.105 . S
Sc134 O146 2.105 . S
Sc134 O150 2.105 1_556 S
Sc134 O152 2.105 . S
O135 Sc132 2.025 . S
O135 Sc133 2.025 . S
O135 Sc134 2.025 . S
C136 O142 1.268 . S
C136 O152 1.268 . S
C137 O143 1.268 . S
C137 O151 1.268 . S
C138 O144 1.268 . S
C138 O153 1.268 . S
C139 O145 1.268 . S
C139 O149 1.268 . S
C140 O146 1.268 . S
C140 O148 1.268 . S
C141 O147 1.268 1_554 S
C141 O150 1.268 . S
O142 Sc132 2.105 . S
O142 C136 1.268 . S
O143 Sc133 2.105 . S
O143 C137 1.268 . S
O144 Sc134 2.105 . S
O144 C138 1.268 . S
O145 Sc132 2.105 . S
O145 C139 1.268 . S
O146 Sc134 2.105 . S
O146 C140 1.268 . S
O147 Sc133 2.105 . S
O147 C141 1.268 1_556 S
O148 Sc132 2.105 . S
O148 C140 1.268 . S
O149 Sc133 2.105 . S
O149 C139 1.268 . S
O150 Sc134 2.105 1_554 S
O150 C141 1.268 . S
O151 Sc132 2.105 . S
O151 C137 1.268 . S
O152 Sc134 2.105 . S
O152 C136 1.268 . S
O153 Sc133 2.105 . S
O153 C138 1.268 . S
Sc154 O157 2.025 . S
Sc154 O164 2.105 . S
Sc154 O167 2.105 . S
Sc154 O170 2.105 . S
Sc154 O173 2.105 . S
Sc155 O157 2.025 . S
Sc155 O165 2.105 . S
Sc155 O169 2.105 . S
Sc155 O171 2.105 . S
Sc155 O175 2.105 . S
Sc156 O157 2.025 . S
Sc156 O166 2.105 . S
Sc156 O168 2.105 . S
Sc156 O172 2.105 1_556 S
Sc156 O174 2.105 . S
O157 Sc154 2.025 . S
O157 Sc155 2.025 . S
O157 Sc156 2.025 . S
C158 O164 1.268 . S
C158 O174 1.268 . S
C159 O165 1.268 . S
C159 O173 1.268 . S
C160 O166 1.268 . S
C160 O175 1.268 . S
C161 O167 1.268 . S
C161 O171 1.268 . S
C162 O168 1.268 . S
C162 O170 1.268 . S
C163 O169 1.268 1_554 S
C163 O172 1.268 . S
O164 Sc154 2.105 . S
O164 C158 1.268 . S
O165 Sc155 2.105 . S
O165 C159 1.268 . S
O166 Sc156 2.105 . S
O166 C160 1.268 . S
O167 Sc154 2.105 . S
O167 C161 1.268 . S
O168 Sc156 2.105 . S
O168 C162 1.268 . S
O169 Sc155 2.105 . S
O169 C163 1.268 1_556 S
O170 Sc154 2.105 . S
O170 C162 1.268 . S
O171 Sc155 2.105 . S
O171 C161 1.268 . S
O172 Sc156 2.105 1_554 S
O172 C163 1.268 . S
O173 Sc154 2.105 . S
O173 C159 1.268 . S
O174 Sc156 2.105 . S
O174 C158 1.268 . S
O175 Sc155 2.105 . S
O175 C160 1.268 . S
Sc176 O179 2.025 . S
Sc176 O186 2.105 . S
Sc176 O189 2.105 . S
Sc176 O192 2.105 . S
Sc176 O195 2.105 . S
Sc177 O179 2.025 . S
Sc177 O187 2.105 . S
Sc177 O191 2.105 . S
Sc177 O193 2.105 . S
Sc177 O197 2.105 . S
Sc178 O179 2.025 . S
Sc178 O188 2.105 . S
Sc178 O190 2.105 . S
Sc178 O194 2.105 1_556 S
Sc178 O196 2.105 . S
O179 Sc176 2.025 . S
O179 Sc177 2.025 . S
O179 Sc178 2.025 . S
C180 O186 1.268 . S
C180 O196 1.268 . S
C181 O187 1.268 . S
C181 O195 1.268 . S
C182 O188 1.268 . S
C182 O197 1.268 . S
C183 O189 1.268 . S
C183 O193 1.268 . S
C184 O190 1.268 . S
C184 O192 1.268 . S
C185 O191 1.268 1_554 S
C185 O194 1.268 . S
O186 Sc176 2.105 . S
O186 C180 1.268 . S
O187 Sc177 2.105 . S
O187 C181 1.268 . S
O188 Sc178 2.105 . S
O188 C182 1.268 . S
O189 Sc176 2.105 . S
O189 C183 1.268 . S
O190 Sc178 2.105 . S
O190 C184 1.268 . S
O191 Sc177 2.105 . S
O191 C185 1.268 1_556 S
O192 Sc176 2.105 . S
O192 C184 1.268 . S
O193 Sc177 2.105 . S
O193 C183 1.268 . S
O194 Sc178 2.105 1_554 S
O194 C185 1.268 . S
O195 Sc176 2.105 . S
O195 C181 1.268 . S
O196 Sc178 2.105 . S
O196 C180 1.268 . S
O197 Sc177 2.105 . S
O197 C182 1.268 . S
Sc198 O201 2.025 . S
Sc198 O208 2.105 . S
Sc198 O211 2.105 1_556 S
Sc198 O214 2.105 . S
Sc198 O217 2.105 . S
Sc199 O201 2.025 . S
Sc199 O209 2.105 . S
Sc199 O213 2.105 . S
Sc199 O215 2.105 . S
Sc199 O219 2.105 . S
Sc200 O201 2.025 . S
Sc200 O210 2.105 . S
Sc200 O212 2.105 . S
Sc200 O216 2.105 . S
Sc200 O218 2.105 . S
O201 Sc198 2.025 . S
O201 Sc199 2.025 . S
O201 Sc200 2.025 . S
C202 O208 1.268 . S
C202 O218 1.268 . S
C203 O209 1.268 . S
C203 O217 1.268 . S
C204 O210 1.268 . S
C204 O219 1.268 . S
C205 O211 1.268 . S
C205 O215 1.268 1_554 S
C206 O212 1.268 . S
C206 O214 1.268 . S
C207 O213 1.268 . S
C207 O216 1.268 . S
O208 Sc198 2.105 . S
O208 C202 1.268 . S
O209 Sc199 2.105 . S
O209 C203 1.268 . S
O210 Sc200 2.105 . S
O210 C204 1.268 . S
O211 Sc198 2.105 1_554 S
O211 C205 1.268 . S
O212 Sc200 2.105 . S
O212 C206 1.268 . S
O213 Sc199 2.105 . S
O213 C207 1.268 . S
O214 Sc198 2.105 . S
O214 C206 1.268 . S
O215 Sc199 2.105 . S
O215 C205 1.268 1_556 S
O216 Sc200 2.105 . S
O216 C207 1.268 . S
O217 Sc198 2.105 . S
O217 C203 1.268 . S
O218 Sc200 2.105 . S
O218 C202 1.268 . S
O219 Sc199 2.105 . S
O219 C204 1.268 . S
Sc220 O223 2.025 . S
Sc220 O230 2.105 . S
Sc220 O233 2.105 1_556 S
Sc220 O236 2.105 . S
Sc220 O239 2.105 . S
Sc221 O223 2.025 . S
Sc221 O231 2.105 . S
Sc221 O235 2.105 . S
Sc221 O237 2.105 . S
Sc221 O241 2.105 . S
Sc222 O223 2.025 . S
Sc222 O232 2.105 . S
Sc222 O234 2.105 . S
Sc222 O238 2.105 . S
Sc222 O240 2.105 . S
O223 Sc220 2.025 . S
O223 Sc221 2.025 . S
O223 Sc222 2.025 . S
C224 O230 1.268 . S
C224 O240 1.268 . S
C225 O231 1.268 . S
C225 O239 1.268 . S
C226 O232 1.268 . S
C226 O241 1.268 . S
C227 O233 1.268 . S
C227 O237 1.268 1_554 S
C228 O234 1.268 . S
C228 O236 1.268 . S
C229 O235 1.268 . S
C229 O238 1.268 . S
O230 Sc220 2.105 . S
O230 C224 1.268 . S
O231 Sc221 2.105 . S
O231 C225 1.268 . S
O232 Sc222 2.105 . S
O232 C226 1.268 . S
O233 Sc220 2.105 1_554 S
O233 C227 1.268 . S
O234 Sc222 2.105 . S
O234 C228 1.268 . S
O235 Sc221 2.105 . S
O235 C229 1.268 . S
O236 Sc220 2.105 . S
O236 C228 1.268 . S
O237 Sc221 2.105 . S
O237 C227 1.268 1_556 S
O238 Sc222 2.105 . S
O238 C229 1.268 . S
O239 Sc220 2.105 . S
O239 C225 1.268 . S
O240 Sc222 2.105 . S
O240 C224 1.268 . S
O241 Sc221 2.105 . S
O241 C226 1.268 . S
Sc242 O245 2.025 . S
Sc242 O252 2.105 . S
Sc242 O255 2.105 1_556 S
Sc242 O258 2.105 . S
Sc242 O261 2.105 . S
Sc243 O245 2.025 . S
Sc243 O253 2.105 . S
Sc243 O257 2.105 . S
Sc243 O259 2.105 . S
Sc243 O263 2.105 . S
Sc244 O245 2.025 . S
Sc244 O254 2.105 . S
Sc244 O256 2.105 . S
Sc244 O260 2.105 . S
Sc244 O262 2.105 . S
O245 Sc242 2.025 . S
O245 Sc243 2.025 . S
O245 Sc244 2.025 . S
C246 O252 1.268 . S
C246 O262 1.268 . S
C247 O253 1.268 . S
C247 O261 1.268 . S
C248 O254 1.268 . S
C248 O263 1.268 . S
C249 O255 1.268 . S
C249 O259 1.268 1_554 S
C250 O256 1.268 . S
C250 O258 1.268 . S
C251 O257 1.268 . S
C251 O260 1.268 . S
O252 Sc242 2.105 . S
O252 C246 1.268 . S
O253 Sc243 2.105 . S
O253 C247 1.268 . S
O254 Sc244 2.105 . S
O254 C248 1.268 . S
O255 Sc242 2.105 1_554 S
O255 C249 1.268 . S
O256 Sc244 2.105 . S
O256 C250 1.268 . S
O257 Sc243 2.105 . S
O257 C251 1.268 . S
O258 Sc242 2.105 . S
O258 C250 1.268 . S
O259 Sc243 2.105 . S
O259 C249 1.268 1_556 S
O260 Sc244 2.105 . S
O260 C251 1.268 . S
O261 Sc242 2.105 . S
O261 C247 1.268 . S
O262 Sc244 2.105 . S
O262 C246 1.268 . S
O263 Sc243 2.105 . S
O263 C248 1.268 . S
Sc264 O267 2.025 . S
Sc264 O274 2.105 . S
Sc264 O277 2.105 . S
Sc264 O280 2.105 . S
Sc264 O283 2.105 1_554 S
Sc265 O267 2.025 . S
Sc265 O275 2.105 . S
Sc265 O279 2.105 . S
Sc265 O281 2.105 . S
Sc265 O285 2.105 . S
Sc266 O267 2.025 . S
Sc266 O276 2.105 . S
Sc266 O278 2.105 . S
Sc266 O282 2.105 . S
Sc266 O284 2.105 . S
O267 Sc264 2.025 . S
O267 Sc265 2.025 . S
O267 Sc266 2.025 . S
C268 O274 1.268 . S
C268 O284 1.268 . S
C269 O275 1.268 1_556 S
C269 O283 1.268 . S
C270 O276 1.268 . S
C270 O285 1.268 . S
C271 O277 1.268 . S
C271 O281 1.268 . S
C272 O278 1.268 . S
C272 O280 1.268 . S
C273 O279 1.268 . S
C273 O282 1.268 . S
O274 Sc264 2.105 . S
O274 C268 1.268 . S
O275 Sc265 2.105 . S
O275 C269 1.268 1_554 S
O276 Sc266 2.105 . S
O276 C270 1.268 . S
O277 Sc264 2.105 . S
O277 C271 1.268 . S
O278 Sc266 2.105 . S
O278 C272 1.268 . S
O279 Sc265 2.105 . S
O279 C273 1.268 . S
O280 Sc264 2.105 . S
O280 C272 1.268 . S
O281 Sc265 2.105 . S
O281 C271 1.268 . S
O282 Sc266 2.105 . S
O282 C273 1.268 . S
O283 Sc264 2.105 1_556 S
O283 C269 1.268 . S
O284 Sc266 2.105 . S
O284 C268 1.268 . S
O285 Sc265 2.105 . S
O285 C270 1.268 . S
Sc286 O289 2.025 . S
Sc286 O296 2.105 . S
Sc286 O299 2.105 . S
Sc286 O302 2.105 . S
Sc286 O305 2.105 1_554 S
Sc287 O289 2.025 . S
Sc287 O297 2.105 . S
Sc287 O301 2.105 . S
Sc287 O303 2.105 . S
Sc287 O307 2.105 . S
Sc288 O289 2.025 . S
Sc288 O298 2.105 . S
Sc288 O300 2.105 . S
Sc288 O304 2.105 . S
Sc288 O306 2.105 . S
O289 Sc286 2.025 . S
O289 Sc287 2.025 . S
O289 Sc288 2.025 . S
C290 O296 1.268 . S
C290 O306 1.268 . S
C291 O297 1.268 1_556 S
C291 O305 1.268 . S
C292 O298 1.268 . S
C292 O307 1.268 . S
C293 O299 1.268 . S
C293 O303 1.268 . S
C294 O300 1.268 . S
C294 O302 1.268 . S
C295 O301 1.268 . S
C295 O304 1.268 . S
O296 Sc286 2.105 . S
O296 C290 1.268 . S
O297 Sc287 2.105 . S
O297 C291 1.268 1_554 S
O298 Sc288 2.105 . S
O298 C292 1.268 . S
O299 Sc286 2.105 . S
O299 C293 1.268 . S
O300 Sc288 2.105 . S
O300 C294 1.268 . S
O301 Sc287 2.105 . S
O301 C295 1.268 . S
O302 Sc286 2.105 . S
O302 C294 1.268 . S
O303 Sc287 2.105 . S
O303 C293 1.268 . S
O304 Sc288 2.105 . S
O304 C295 1.268 . S
O305 Sc286 2.105 1_556 S
O305 C291 1.268 . S
O306 Sc288 2.105 . S
O306 C290 1.268 . S
O307 Sc287 2.105 . S
O307 C292 1.268 . S
Sc308 O311 2.025 . S
Sc308 O318 2.105 . S
Sc308 O321 2.105 . S
Sc308 O324 2.105 . S
Sc308 O327 2.105 1_554 S
Sc309 O311 2.025 . S
Sc309 O319 2.105 . S
Sc309 O323 2.105 . S
Sc309 O325 2.105 . S
Sc309 O329 2.105 . S
Sc310 O311 2.025 . S
Sc310 O320 2.105 . S
Sc310 O322 2.105 . S
Sc310 O326 2.105 . S
Sc310 O328 2.105 . S
O311 Sc308 2.025 . S
O311 Sc309 2.025 . S
O311 Sc310 2.025 . S
C312 O318 1.268 . S
C312 O328 1.268 . S
C313 O319 1.268 1_556 S
C313 O327 1.268 . S
C314 O320 1.268 . S
C314 O329 1.268 . S
C315 O321 1.268 . S
C315 O325 1.268 . S
C316 O322 1.268 . S
C316 O324 1.268 . S
C317 O323 1.268 . S
C317 O326 1.268 . S
O318 Sc308 2.105 . S
O318 C312 1.268 . S
O319 Sc309 2.105 . S
O319 C313 1.268 1_554 S
O320 Sc310 2.105 . S
O320 C314 1.268 . S
O321 Sc308 2.105 . S
O321 C315 1.268 . S
O322 Sc310 2.105 . S
O322 C316 1.268 . S
O323 Sc309 2.105 . S
O323 C317 1.268 . S
O324 Sc308 2.105 . S
O324 C316 1.268 . S
O325 Sc309 2.105 . S
O325 C315 1.268 . S
O326 Sc310 2.105 . S
O326 C317 1.268 . S
O327 Sc308 2.105 1_556 S
O327 C313 1.268 . S
O328 Sc310 2.105 . S
O328 C312 1.268 . S
O329 Sc309 2.105 . S
O329 C314 1.268 . S
Sc330 O333 2.025 . S
Sc330 O340 2.105 . S
Sc330 O343 2.105 . S
Sc330 O346 2.105 . S
Sc330 O349 2.105 . S
Sc331 O333 2.025 . S
Sc331 O341 2.105 . S
Sc331 O345 2.105 . S
Sc331 O347 2.105 . S
Sc331 O351 2.105 . S
Sc332 O333 2.025 . S
Sc332 O342 2.105 1_554 S
Sc332 O344 2.105 . S
Sc332 O348 2.105 . S
Sc332 O350 2.105 . S
O333 Sc330 2.025 . S
O333 Sc331 2.025 . S
O333 Sc332 2.025 . S
C334 O340 1.268 . S
C334 O350 1.268 . S
C335 O341 1.268 . S
C335 O349 1.268 . S
C336 O342 1.268 . S
C336 O351 1.268 1_556 S
C337 O343 1.268 . S
C337 O347 1.268 . S
C338 O344 1.268 . S
C338 O346 1.268 . S
C339 O345 1.268 . S
C339 O348 1.268 . S
O340 Sc330 2.105 . S
O340 C334 1.268 . S
O341 Sc331 2.105 . S
O341 C335 1.268 . S
O342 Sc332 2.105 1_556 S
O342 C336 1.268 . S
O343 Sc330 2.105 . S
O343 C337 1.268 . S
O344 Sc332 2.105 . S
O344 C338 1.268 . S
O345 Sc331 2.105 . S
O345 C339 1.268 . S
O346 Sc330 2.105 . S
O346 C338 1.268 . S
O347 Sc331 2.105 . S
O347 C337 1.268 . S
O348 Sc332 2.105 . S
O348 C339 1.268 . S
O349 Sc330 2.105 . S
O349 C335 1.268 . S
O350 Sc332 2.105 . S
O350 C334 1.268 . S
O351 Sc331 2.105 . S
O351 C336 1.268 1_554 S
Sc352 O355 2.025 . S
Sc352 O362 2.105 . S
Sc352 O365 2.105 . S
Sc352 O368 2.105 . S
Sc352 O371 2.105 . S
Sc353 O355 2.025 . S
Sc353 O363 2.105 . S
Sc353 O367 2.105 . S
Sc353 O369 2.105 . S
Sc353 O373 2.105 . S
Sc354 O355 2.025 . S
Sc354 O364 2.105 1_554 S
Sc354 O366 2.105 . S
Sc354 O370 2.105 . S
Sc354 O372 2.105 . S
O355 Sc352 2.025 . S
O355 Sc353 2.025 . S
O355 Sc354 2.025 . S
C356 O362 1.268 . S
C356 O372 1.268 . S
C357 O363 1.268 . S
C357 O371 1.268 . S
C358 O364 1.268 . S
C358 O373 1.268 1_556 S
C359 O365 1.268 . S
C359 O369 1.268 . S
C360 O366 1.268 . S
C360 O368 1.268 . S
C361 O367 1.268 . S
C361 O370 1.268 . S
O362 Sc352 2.105 . S
O362 C356 1.268 . S
O363 Sc353 2.105 . S
O363 C357 1.268 . S
O364 Sc354 2.105 1_556 S
O364 C358 1.268 . S
O365 Sc352 2.105 . S
O365 C359 1.268 . S
O366 Sc354 2.105 . S
O366 C360 1.268 . S
O367 Sc353 2.105 . S
O367 C361 1.268 . S
O368 Sc352 2.105 . S
O368 C360 1.268 . S
O369 Sc353 2.105 . S
O369 C359 1.268 . S
O370 Sc354 2.105 . S
O370 C361 1.268 . S
O371 Sc352 2.105 . S
O371 C357 1.268 . S
O372 Sc354 2.105 . S
O372 C356 1.268 . S
O373 Sc353 2.105 . S
O373 C358 1.268 1_554 S
Sc374 O377 2.025 . S
Sc374 O384 2.105 . S
Sc374 O387 2.105 . S
Sc374 O390 2.105 . S
Sc374 O393 2.105 . S
Sc375 O377 2.025 . S
Sc375 O385 2.105 . S
Sc375 O389 2.105 . S
Sc375 O391 2.105 . S
Sc375 O395 2.105 . S
Sc376 O377 2.025 . S
Sc376 O386 2.105 1_554 S
Sc376 O388 2.105 . S
Sc376 O392 2.105 . S
Sc376 O394 2.105 . S
O377 Sc374 2.025 . S
O377 Sc375 2.025 . S
O377 Sc376 2.025 . S
C378 O384 1.268 . S
C378 O394 1.268 . S
C379 O385 1.268 . S
C379 O393 1.268 . S
C380 O386 1.268 . S
C380 O395 1.268 1_556 S
C381 O387 1.268 . S
C381 O391 1.268 . S
C382 O388 1.268 . S
C382 O390 1.268 . S
C383 O389 1.268 . S
C383 O392 1.268 . S
O384 Sc374 2.105 . S
O384 C378 1.268 . S
O385 Sc375 2.105 . S
O385 C379 1.268 . S
O386 Sc376 2.105 1_556 S
O386 C380 1.268 . S
O387 Sc374 2.105 . S
O387 C381 1.268 . S
O388 Sc376 2.105 . S
O388 C382 1.268 . S
O389 Sc375 2.105 . S
O389 C383 1.268 . S
O390 Sc374 2.105 . S
O390 C382 1.268 . S
O391 Sc375 2.105 . S
O391 C381 1.268 . S
O392 Sc376 2.105 . S
O392 C383 1.268 . S
O393 Sc374 2.105 . S
O393 C379 1.268 . S
O394 Sc376 2.105 . S
O394 C378 1.268 . S
O395 Sc375 2.105 . S
O395 C380 1.268 1_554 S
H396 C408 0.930 . S
H397 C410 0.930 . S
H398 C411 0.930 . S
H399 C415 0.959 . S
H400 C415 0.959 . S
H401 C415 0.961 . S
H402 C416 0.960 . S
H403 C416 0.961 . S
H404 C416 0.959 . S
H405 C419 0.929 . S
H406 C420 0.931 . S
H407 C422 0.930 . S
C408 H396 0.930 . S
C408 C409 1.399 . S
C408 C413 1.399 . S
C409 C408 1.399 . S
C409 C410 1.376 . S
C410 H397 0.930 . S
C410 C409 1.376 . S
C410 C411 1.388 . S
C411 H398 0.930 . S
C411 C410 1.388 . S
C411 C412 1.390 . S
C412 C411 1.390 . S
C412 C413 1.394 . S
C412 C418 1.465 . S
C413 C408 1.399 . S
C413 C412 1.394 . S
C413 C414 1.516 . S
C414 C413 1.516 . S
C414 C415 1.502 . S
C414 C416 1.561 . S
C414 C417 1.526 . S
C415 H399 0.959 . S
C415 H400 0.959 . S
C415 H401 0.961 . S
C415 C414 1.502 . S
C416 H402 0.960 . S
C416 H403 0.961 . S
C416 H404 0.959 . S
C416 C414 1.561 . S
C417 C414 1.526 . S
C417 C418 1.396 . S
C417 C422 1.390 . S
C418 C412 1.465 . S
C418 C417 1.396 . S
C418 C419 1.399 . S
C419 H405 0.929 . S
C419 C418 1.399 . S
C419 C420 1.385 . S
C420 H406 0.931 . S
C420 C419 1.385 . S
C420 C421 1.389 . S
C421 C420 1.389 . S
C421 C422 1.387 . S
C422 H407 0.930 . S
C422 C417 1.390 . S
C422 C421 1.387 . S
H423 C435 0.930 . S
H424 C437 0.930 . S
H425 C438 0.930 . S
H426 C442 0.959 . S
H427 C442 0.959 . S
H428 C442 0.961 . S
H429 C443 0.960 . S
H430 C443 0.961 . S
H431 C443 0.959 . S
H432 C446 0.929 . S
H433 C447 0.931 . S
H434 C449 0.930 . S
C435 H423 0.930 . S
C435 C436 1.399 . S
C435 C440 1.399 . S
C436 C435 1.399 . S
C436 C437 1.376 . S
C437 H424 0.930 . S
C437 C436 1.376 . S
C437 C438 1.388 . S
C438 H425 0.930 . S
C438 C437 1.388 . S
C438 C439 1.390 . S
C439 C438 1.390 . S
C439 C440 1.394 . S
C439 C445 1.465 . S
C440 C435 1.399 . S
C440 C439 1.394 . S
C440 C441 1.516 . S
C441 C440 1.516 . S
C441 C442 1.502 . S
C441 C443 1.561 . S
C441 C444 1.526 . S
C442 H426 0.959 . S
C442 H427 0.959 . S
C442 H428 0.961 . S
C442 C441 1.502 . S
C443 H429 0.960 . S
C443 H430 0.961 . S
C443 H431 0.959 . S
C443 C441 1.561 . S
C444 C441 1.526 . S
C444 C445 1.396 . S
C444 C449 1.390 . S
C445 C439 1.465 . S
C445 C444 1.396 . S
C445 C446 1.399 . S
C446 H432 0.929 . S
C446 C445 1.399 . S
C446 C447 1.385 . S
C447 H433 0.931 . S
C447 C446 1.385 . S
C447 C448 1.389 . S
C448 C447 1.389 . S
C448 C449 1.387 . S
C449 H434 0.930 . S
C449 C444 1.390 . S
C449 C448 1.387 . S
H450 C462 0.930 . S
H451 C464 0.930 . S
H452 C465 0.930 . S
H453 C469 0.959 . S
H454 C469 0.959 . S
H455 C469 0.961 . S
H456 C470 0.960 . S
H457 C470 0.961 . S
H458 C470 0.959 . S
H459 C473 0.929 . S
H460 C474 0.931 . S
H461 C476 0.930 . S
C462 H450 0.930 . S
C462 C463 1.399 . S
C462 C467 1.399 . S
C463 C462 1.399 . S
C463 C464 1.376 . S
C464 H451 0.930 . S
C464 C463 1.376 . S
C464 C465 1.388 . S
C465 H452 0.930 . S
C465 C464 1.388 . S
C465 C466 1.390 . S
C466 C465 1.390 . S
C466 C467 1.394 . S
C466 C472 1.465 . S
C467 C462 1.399 . S
C467 C466 1.394 . S
C467 C468 1.516 . S
C468 C467 1.516 . S
C468 C469 1.502 . S
C468 C470 1.561 . S
C468 C471 1.526 . S
C469 H453 0.959 . S
C469 H454 0.959 . S
C469 H455 0.961 . S
C469 C468 1.502 . S
C470 H456 0.960 . S
C470 H457 0.961 . S
C470 H458 0.959 . S
C470 C468 1.561 . S
C471 C468 1.526 . S
C471 C472 1.396 . S
C471 C476 1.390 . S
C472 C466 1.465 . S
C472 C471 1.396 . S
C472 C473 1.399 . S
C473 H459 0.929 . S
C473 C472 1.399 . S
C473 C474 1.385 . S
C474 H460 0.931 . S
C474 C473 1.385 . S
C474 C475 1.389 . S
C475 C474 1.389 . S
C475 C476 1.387 . S
C476 H461 0.930 . S
C476 C471 1.390 . S
C476 C475 1.387 . S
H477 C489 0.930 . S
H478 C491 0.930 . S
H479 C492 0.930 . S
H480 C496 0.959 . S
H481 C496 0.959 . S
H482 C496 0.961 . S
H483 C497 0.960 . S
H484 C497 0.961 . S
H485 C497 0.959 . S
H486 C500 0.929 . S
H487 C501 0.931 . S
H488 C503 0.930 . S
C489 H477 0.930 . S
C489 C490 1.399 . S
C489 C494 1.399 . S
C490 C489 1.399 . S
C490 C491 1.376 . S
C491 H478 0.930 . S
C491 C490 1.376 . S
C491 C492 1.388 . S
C492 H479 0.930 . S
C492 C491 1.388 . S
C492 C493 1.390 . S
C493 C492 1.390 . S
C493 C494 1.394 . S
C493 C499 1.465 . S
C494 C489 1.399 . S
C494 C493 1.394 . S
C494 C495 1.516 . S
C495 C494 1.516 . S
C495 C496 1.502 . S
C495 C497 1.561 . S
C495 C498 1.526 . S
C496 H480 0.959 . S
C496 H481 0.959 . S
C496 H482 0.961 . S
C496 C495 1.502 . S
C497 H483 0.960 . S
C497 H484 0.961 . S
C497 H485 0.959 . S
C497 C495 1.561 . S
C498 C495 1.526 . S
C498 C499 1.396 . S
C498 C503 1.390 . S
C499 C493 1.465 . S
C499 C498 1.396 . S
C499 C500 1.399 . S
C500 H486 0.929 . S
C500 C499 1.399 . S
C500 C501 1.385 . S
C501 H487 0.931 . S
C501 C500 1.385 . S
C501 C502 1.389 . S
C502 C501 1.389 . S
C502 C503 1.387 . S
C503 H488 0.930 . S
C503 C498 1.390 . S
C503 C502 1.387 . S
H504 C516 0.930 . S
H505 C518 0.930 . S
H506 C519 0.930 . S
H507 C523 0.959 . S
H508 C523 0.959 1_455 S
H509 C523 0.961 . S
H510 C524 0.960 . S
H511 C524 0.961 . S
H512 C524 0.959 . S
H513 C527 0.929 . S
H514 C528 0.931 . S
H515 C530 0.930 1_455 S
C516 H504 0.930 . S
C516 C517 1.399 . S
C516 C521 1.399 . S
C517 C516 1.399 . S
C517 C518 1.376 . S
C518 H505 0.930 . S
C518 C517 1.376 . S
C518 C519 1.388 . S
C519 H506 0.930 . S
C519 C518 1.388 . S
C519 C520 1.390 . S
C520 C519 1.390 . S
C520 C521 1.394 . S
C520 C526 1.465 . S
C521 C516 1.399 . S
C521 C520 1.394 . S
C521 C522 1.516 . S
C522 C521 1.516 . S
C522 C523 1.502 . S
C522 C524 1.561 . S
C522 C525 1.526 . S
C523 H507 0.959 . S
C523 H508 0.959 1_655 S
C523 H509 0.961 . S
C523 C522 1.502 . S
C524 H510 0.960 . S
C524 H511 0.961 . S
C524 H512 0.959 . S
C524 C522 1.561 . S
C525 C522 1.526 . S
C525 C526 1.396 . S
C525 C530 1.390 . S
C526 C520 1.465 . S
C526 C525 1.396 . S
C526 C527 1.399 . S
C527 H513 0.929 . S
C527 C526 1.399 . S
C527 C528 1.385 . S
C528 H514 0.931 . S
C528 C527 1.385 . S
C528 C529 1.389 . S
C529 C528 1.389 . S
C529 C530 1.387 . S
C530 H515 0.930 1_655 S
C530 C525 1.390 . S
C530 C529 1.387 . S
H531 C543 0.930 . S
H532 C545 0.930 . S
H533 C546 0.930 . S
H534 C550 0.959 . S
H535 C550 0.959 . S
H536 C550 0.961 . S
H537 C551 0.960 . S
H538 C551 0.961 . S
H539 C551 0.959 . S
H540 C554 0.929 . S
H541 C555 0.931 . S
H542 C557 0.930 . S
C543 H531 0.930 . S
C543 C544 1.399 . S
C543 C548 1.399 . S
C544 C543 1.399 . S
C544 C545 1.376 . S
C545 H532 0.930 . S
C545 C544 1.376 . S
C545 C546 1.388 . S
C546 H533 0.930 . S
C546 C545 1.388 . S
C546 C547 1.390 . S
C547 C546 1.390 . S
C547 C548 1.394 . S
C547 C553 1.465 . S
C548 C543 1.399 . S
C548 C547 1.394 . S
C548 C549 1.516 . S
C549 C548 1.516 . S
C549 C550 1.502 . S
C549 C551 1.561 . S
C549 C552 1.526 . S
C550 H534 0.959 . S
C550 H535 0.959 . S
C550 H536 0.961 . S
C550 C549 1.502 . S
C551 H537 0.960 . S
C551 H538 0.961 . S
C551 H539 0.959 . S
C551 C549 1.561 . S
C552 C549 1.526 . S
C552 C553 1.396 . S
C552 C557 1.390 . S
C553 C547 1.465 . S
C553 C552 1.396 . S
C553 C554 1.399 . S
C554 H540 0.929 . S
C554 C553 1.399 . S
C554 C555 1.385 . S
C555 H541 0.931 . S
C555 C554 1.385 . S
C555 C556 1.389 . S
C556 C555 1.389 . S
C556 C557 1.387 . S
C557 H542 0.930 . S
C557 C552 1.390 . S
C557 C556 1.387 . S
H558 C570 0.930 . S
H559 C572 0.930 . S
H560 C573 0.930 . S
H561 C577 0.959 . S
H562 C577 0.959 . S
H563 C577 0.961 . S
H564 C578 0.960 . S
H565 C578 0.961 . S
H566 C578 0.959 . S
H567 C581 0.929 . S
H568 C582 0.931 . S
H569 C584 0.930 . S
C570 H558 0.930 . S
C570 C571 1.399 . S
C570 C575 1.399 . S
C571 C570 1.399 . S
C571 C572 1.376 . S
C572 H559 0.930 . S
C572 C571 1.376 . S
C572 C573 1.388 . S
C573 H560 0.930 . S
C573 C572 1.388 . S
C573 C574 1.390 . S
C574 C573 1.390 . S
C574 C575 1.394 . S
C574 C580 1.465 . S
C575 C570 1.399 . S
C575 C574 1.394 . S
C575 C576 1.516 . S
C576 C575 1.516 . S
C576 C577 1.502 . S
C576 C578 1.561 . S
C576 C579 1.526 . S
C577 H561 0.959 . S
C577 H562 0.959 . S
C577 H563 0.961 . S
C577 C576 1.502 . S
C578 H564 0.960 . S
C578 H565 0.961 . S
C578 H566 0.959 . S
C578 C576 1.561 . S
C579 C576 1.526 . S
C579 C580 1.396 . S
C579 C584 1.390 . S
C580 C574 1.465 . S
C580 C579 1.396 . S
C580 C581 1.399 . S
C581 H567 0.929 . S
C581 C580 1.399 . S
C581 C582 1.385 . S
C582 H568 0.931 . S
C582 C581 1.385 . S
C582 C583 1.389 . S
C583 C582 1.389 . S
C583 C584 1.387 . S
C584 H569 0.930 . S
C584 C579 1.390 . S
C584 C583 1.387 . S
H585 C597 0.930 . S
H586 C599 0.930 . S
H587 C600 0.930 . S
H588 C604 0.959 . S
H589 C604 0.959 . S
H590 C604 0.961 . S
H591 C605 0.960 . S
H592 C605 0.961 . S
H593 C605 0.959 . S
H594 C608 0.929 . S
H595 C609 0.931 . S
H596 C611 0.930 . S
C597 H585 0.930 . S
C597 C598 1.399 . S
C597 C602 1.399 . S
C598 C597 1.399 . S
C598 C599 1.376 . S
C599 H586 0.930 . S
C599 C598 1.376 . S
C599 C600 1.388 . S
C600 H587 0.930 . S
C600 C599 1.388 . S
C600 C601 1.390 . S
C601 C600 1.390 . S
C601 C602 1.394 . S
C601 C607 1.465 . S
C602 C597 1.399 . S
C602 C601 1.394 . S
C602 C603 1.516 . S
C603 C602 1.516 . S
C603 C604 1.502 . S
C603 C605 1.561 . S
C603 C606 1.526 . S
C604 H588 0.959 . S
C604 H589 0.959 . S
C604 H590 0.961 . S
C604 C603 1.502 . S
C605 H591 0.960 . S
C605 H592 0.961 . S
C605 H593 0.959 . S
C605 C603 1.561 . S
C606 C603 1.526 . S
C606 C607 1.396 . S
C606 C611 1.390 . S
C607 C601 1.465 . S
C607 C606 1.396 . S
C607 C608 1.399 . S
C608 H594 0.929 . S
C608 C607 1.399 . S
C608 C609 1.385 . S
C609 H595 0.931 . S
C609 C608 1.385 . S
C609 C610 1.389 . S
C610 C609 1.389 . S
C610 C611 1.387 . S
C611 H596 0.930 . S
C611 C606 1.390 . S
C611 C610 1.387 . S
H612 C624 0.930 . S
H613 C626 0.930 . S
H614 C627 0.930 . S
H615 C631 0.959 . S
H616 C631 0.959 . S
H617 C631 0.961 . S
H618 C632 0.960 . S
H619 C632 0.961 . S
H620 C632 0.959 . S
H621 C635 0.929 . S
H622 C636 0.931 . S
H623 C638 0.930 . S
C624 H612 0.930 . S
C624 C625 1.399 . S
C624 C629 1.399 . S
C625 C624 1.399 . S
C625 C626 1.376 . S
C626 H613 0.930 . S
C626 C625 1.376 . S
C626 C627 1.388 . S
C627 H614 0.930 . S
C627 C626 1.388 . S
C627 C628 1.390 . S
C628 C627 1.390 . S
C628 C629 1.394 . S
C628 C634 1.465 . S
C629 C624 1.399 . S
C629 C628 1.394 . S
C629 C630 1.516 . S
C630 C629 1.516 . S
C630 C631 1.502 . S
C630 C632 1.561 . S
C630 C633 1.526 . S
C631 H615 0.959 . S
C631 H616 0.959 . S
C631 H617 0.961 . S
C631 C630 1.502 . S
C632 H618 0.960 . S
C632 H619 0.961 . S
C632 H620 0.959 . S
C632 C630 1.561 . S
C633 C630 1.526 . S
C633 C634 1.396 . S
C633 C638 1.390 . S
C634 C628 1.465 . S
C634 C633 1.396 . S
C634 C635 1.399 . S
C635 H621 0.929 . S
C635 C634 1.399 . S
C635 C636 1.385 . S
C636 H622 0.931 . S
C636 C635 1.385 . S
C636 C637 1.389 . S
C637 C636 1.389 . S
C637 C638 1.387 . S
C638 H623 0.930 . S
C638 C633 1.390 . S
C638 C637 1.387 . S
H639 C651 0.930 . S
H640 C653 0.930 . S
H641 C654 0.930 . S
H642 C658 0.959 . S
H643 C658 0.959 . S
H644 C658 0.961 . S
H645 C659 0.960 . S
H646 C659 0.961 . S
H647 C659 0.959 . S
H648 C662 0.929 . S
H649 C663 0.923 1_545 S
H650 C665 0.930 . S
C651 H639 0.930 . S
C651 C652 1.399 . S
C651 C656 1.399 . S
C652 C651 1.399 . S
C652 C653 1.376 . S
C653 H640 0.930 . S
C653 C652 1.376 . S
C653 C654 1.388 . S
C654 H641 0.930 . S
C654 C653 1.388 . S
C654 C655 1.390 . S
C655 C654 1.390 . S
C655 C656 1.394 . S
C655 C661 1.465 . S
C656 C651 1.399 . S
C656 C655 1.394 . S
C656 C657 1.516 . S
C657 C656 1.516 . S
C657 C658 1.502 . S
C657 C659 1.561 . S
C657 C660 1.526 . S
C658 H642 0.959 . S
C658 H643 0.959 . S
C658 H644 0.961 . S
C658 C657 1.502 . S
C659 H645 0.960 . S
C659 H646 0.961 . S
C659 H647 0.959 . S
C659 C657 1.561 . S
C660 C657 1.526 . S
C660 C661 1.396 . S
C660 C665 1.390 . S
C661 C655 1.465 . S
C661 C660 1.396 . S
C661 C662 1.399 . S
C662 H648 0.929 . S
C662 C661 1.399 . S
C662 C663 1.385 . S
C663 H649 0.923 1_565 S
C663 C662 1.385 . S
C663 C664 1.389 . S
C664 C663 1.389 . S
C664 C665 1.387 . S
C665 H650 0.930 . S
C665 C660 1.390 . S
C665 C664 1.387 . S
H666 C678 0.930 . S
H667 C680 0.930 . S
H668 C681 0.930 . S
H669 C685 0.959 . S
H670 C685 0.959 . S
H671 C685 0.961 . S
H672 C686 0.960 . S
H673 C686 0.961 . S
H674 C686 0.959 . S
H675 C689 0.929 . S
H676 C690 0.931 . S
H677 C692 0.930 . S
C678 H666 0.930 . S
C678 C679 1.399 . S
C678 C683 1.399 . S
C679 C678 1.399 . S
C679 C680 1.376 . S
C680 H667 0.930 . S
C680 C679 1.376 . S
C680 C681 1.388 . S
C681 H668 0.930 . S
C681 C680 1.388 . S
C681 C682 1.390 . S
C682 C681 1.390 . S
C682 C683 1.394 . S
C682 C688 1.465 . S
C683 C678 1.399 . S
C683 C682 1.394 . S
C683 C684 1.516 . S
C684 C683 1.516 . S
C684 C685 1.502 . S
C684 C686 1.561 . S
C684 C687 1.526 . S
C685 H669 0.959 . S
C685 H670 0.959 . S
C685 H671 0.961 . S
C685 C684 1.502 . S
C686 H672 0.960 . S
C686 H673 0.961 . S
C686 H674 0.959 . S
C686 C684 1.561 . S
C687 C684 1.526 . S
C687 C688 1.396 . S
C687 C692 1.390 . S
C688 C682 1.465 . S
C688 C687 1.396 . S
C688 C689 1.399 . S
C689 H675 0.929 . S
C689 C688 1.399 . S
C689 C690 1.385 . S
C690 H676 0.931 . S
C690 C689 1.385 . S
C690 C691 1.389 . S
C691 C690 1.389 . S
C691 C692 1.387 . S
C692 H677 0.930 . S
C692 C687 1.390 . S
C692 C691 1.387 . S
H693 C705 0.930 . S
H694 C707 0.930 . S
H695 C708 0.930 . S
H696 C712 0.959 . S
H697 C712 0.959 . S
H698 C712 0.961 . S
H699 C713 0.960 . S
H700 C713 0.961 . S
H701 C713 0.959 . S
H702 C716 0.929 . S
H703 C717 0.931 . S
H704 C719 0.930 . S
C705 H693 0.930 . S
C705 C706 1.399 . S
C705 C710 1.399 . S
C706 C705 1.399 . S
C706 C707 1.376 . S
C707 H694 0.930 . S
C707 C706 1.376 . S
C707 C708 1.388 . S
C708 H695 0.930 . S
C708 C707 1.388 . S
C708 C709 1.390 . S
C709 C708 1.390 . S
C709 C710 1.394 . S
C709 C715 1.465 . S
C710 C705 1.399 . S
C710 C709 1.394 . S
C710 C711 1.516 . S
C711 C710 1.516 . S
C711 C712 1.502 . S
C711 C713 1.561 . S
C711 C714 1.526 . S
C712 H696 0.959 . S
C712 H697 0.959 . S
C712 H698 0.961 . S
C712 C711 1.502 . S
C713 H699 0.960 . S
C713 H700 0.961 . S
C713 H701 0.959 . S
C713 C711 1.561 . S
C714 C711 1.526 . S
C714 C715 1.396 . S
C714 C719 1.390 . S
C715 C709 1.465 . S
C715 C714 1.396 . S
C715 C716 1.399 . S
C716 H702 0.929 . S
C716 C715 1.399 . S
C716 C717 1.385 . S
C717 H703 0.931 . S
C717 C716 1.385 . S
C717 C718 1.389 . S
C718 C717 1.389 . S
C718 C719 1.387 . S
C719 H704 0.930 . S
C719 C714 1.390 . S
C719 C718 1.387 . S
H720 C732 0.930 . S
H721 C734 0.930 . S
H722 C735 0.913 1_455 S
H723 C739 0.959 . S
H724 C739 0.959 . S
H725 C739 0.923 1_655 S
H726 C740 0.960 1_655 S
H727 C740 0.961 . S
H728 C740 0.959 . S
H729 C743 0.929 . S
H730 C744 0.931 . S
H731 C746 0.930 . S
C732 H720 0.930 . S
C732 C733 1.399 1_554 S
C732 C737 1.399 . S
C733 C732 1.399 1_556 S
C733 C734 1.376 . S
C734 H721 0.930 . S
C734 C733 1.376 . S
C734 C735 1.388 . S
C735 H722 0.913 1_655 S
C735 C734 1.388 . S
C735 C736 1.390 1_655 S
C736 C735 1.390 1_455 S
C736 C737 1.394 1_456 S
C736 C742 1.465 . S
C737 C732 1.399 . S
C737 C736 1.394 1_654 S
C737 C738 1.516 1_655 S
C738 C737 1.516 1_455 S
C738 C739 1.502 . S
C738 C740 1.561 . S
C738 C741 1.526 . S
C739 H723 0.959 . S
C739 H724 0.959 . S
C739 H725 0.923 1_455 S
C739 C738 1.502 . S
C740 H726 0.960 1_455 S
C740 H727 0.961 . S
C740 H728 0.959 . S
C740 C738 1.561 . S
C741 C738 1.526 . S
C741 C742 1.396 1_554 S
C741 C746 1.390 . S
C742 C736 1.465 . S
C742 C741 1.396 1_556 S
C742 C743 1.399 . S
C743 H729 0.929 . S
C743 C742 1.399 . S
C743 C744 1.385 . S
C744 H730 0.931 . S
C744 C743 1.385 . S
C744 C745 1.389 1_556 S
C745 C744 1.389 1_554 S
C745 C746 1.387 . S
C746 H731 0.930 . S
C746 C741 1.390 . S
C746 C745 1.387 . S
H747 C759 0.930 . S
H748 C761 0.930 . S
H749 C762 0.930 1_554 S
H750 C766 0.959 . S
H751 C766 0.959 . S
H752 C766 0.961 . S
H753 C767 0.960 . S
H754 C767 0.961 . S
H755 C767 0.959 . S
H756 C770 0.929 . S
H757 C771 0.931 . S
H758 C773 0.930 . S
C759 H747 0.930 . S
C759 C760 1.399 . S
C759 C764 1.399 . S
C760 C759 1.399 . S
C760 C761 1.376 . S
C761 H748 0.930 . S
C761 C760 1.376 . S
C761 C762 1.388 . S
C762 H749 0.930 1_556 S
C762 C761 1.388 . S
C762 C763 1.390 1_556 S
C763 C762 1.390 1_554 S
C763 C764 1.394 1_554 S
C763 C769 1.465 . S
C764 C759 1.399 . S
C764 C763 1.394 1_556 S
C764 C765 1.516 1_556 S
C765 C764 1.516 1_554 S
C765 C766 1.502 1_554 S
C765 C767 1.561 . S
C765 C768 1.526 . S
C766 H750 0.959 . S
C766 H751 0.959 . S
C766 H752 0.961 . S
C766 C765 1.502 1_556 S
C767 H753 0.960 . S
C767 H754 0.961 . S
C767 H755 0.959 . S
C767 C765 1.561 . S
C768 C765 1.526 . S
C768 C769 1.396 . S
C768 C773 1.390 . S
C769 C763 1.465 . S
C769 C768 1.396 . S
C769 C770 1.399 . S
C770 H756 0.929 . S
C770 C769 1.399 . S
C770 C771 1.385 . S
C771 H757 0.931 . S
C771 C770 1.385 . S
C771 C772 1.389 . S
C772 C771 1.389 . S
C772 C773 1.387 . S
C773 H758 0.930 . S
C773 C768 1.390 . S
C773 C772 1.387 . S
H774 C786 0.930 . S
H775 C788 0.930 . S
H776 C789 0.930 . S
H777 C793 0.959 . S
H778 C793 0.959 . S
H779 C793 0.961 . S
H780 C794 0.960 . S
H781 C794 0.961 . S
H782 C794 0.959 . S
H783 C797 0.929 . S
H784 C798 0.931 . S
H785 C800 0.930 . S
C786 H774 0.930 . S
C786 C787 1.399 1_554 S
C786 C791 1.399 . S
C787 C786 1.399 1_556 S
C787 C788 1.376 . S
C788 H775 0.930 . S
C788 C787 1.376 . S
C788 C789 1.388 . S
C789 H776 0.930 . S
C789 C788 1.388 . S
C789 C790 1.390 . S
C790 C789 1.390 . S
C790 C791 1.394 1_556 S
C790 C796 1.465 . S
C791 C786 1.399 . S
C791 C790 1.394 1_554 S
C791 C792 1.516 . S
C792 C791 1.516 . S
C792 C793 1.502 . S
C792 C794 1.561 . S
C792 C795 1.531 1_545 S
C793 H777 0.959 . S
C793 H778 0.959 . S
C793 H779 0.961 . S
C793 C792 1.502 . S
C794 H780 0.960 . S
C794 H781 0.961 . S
C794 H782 0.959 . S
C794 C792 1.561 . S
C795 C792 1.531 1_565 S
C795 C796 1.396 1_564 S
C795 C800 1.385 . S
C796 C790 1.465 . S
C796 C795 1.396 1_546 S
C796 C797 1.399 1_545 S
C797 H783 0.929 . S
C797 C796 1.399 1_565 S
C797 C798 1.385 . S
C798 H784 0.931 . S
C798 C797 1.385 . S
C798 C799 1.389 1_556 S
C799 C798 1.389 1_554 S
C799 C800 1.387 . S
C800 H785 0.930 . S
C800 C795 1.385 . S
C800 C799 1.387 . S
H801 C813 0.930 . S
H802 C815 0.930 . S
H803 C816 0.930 . S
H804 C820 0.959 . S
H805 C820 0.959 . S
H806 C820 0.961 . S
H807 C821 0.960 . S
H808 C821 0.961 . S
H809 C821 0.959 . S
H810 C824 0.929 . S
H811 C825 0.931 . S
H812 C827 0.930 . S
C813 H801 0.930 . S
C813 C814 1.399 1_554 S
C813 C818 1.399 . S
C814 C813 1.399 1_556 S
C814 C815 1.376 . S
C815 H802 0.930 . S
C815 C814 1.376 . S
C815 C816 1.388 . S
C816 H803 0.930 . S
C816 C815 1.388 . S
C816 C817 1.390 . S
C817 C816 1.390 . S
C817 C818 1.394 1_556 S
C817 C823 1.465 . S
C818 C813 1.399 . S
C818 C817 1.394 1_554 S
C818 C819 1.516 . S
C819 C818 1.516 . S
C819 C820 1.502 . S
C819 C821 1.561 . S
C819 C822 1.526 . S
C820 H804 0.959 . S
C820 H805 0.959 . S
C820 H806 0.961 . S
C820 C819 1.502 . S
C821 H807 0.960 . S
C821 H808 0.961 . S
C821 H809 0.959 . S
C821 C819 1.561 . S
C822 C819 1.526 . S
C822 C823 1.396 1_554 S
C822 C827 1.390 1_545 S
C823 C817 1.465 . S
C823 C822 1.396 1_556 S
C823 C824 1.399 1_545 S
C824 H810 0.929 . S
C824 C823 1.399 1_565 S
C824 C825 1.385 . S
C825 H811 0.931 . S
C825 C824 1.385 . S
C825 C826 1.389 1_556 S
C826 C825 1.389 1_554 S
C826 C827 1.387 . S
C827 H812 0.930 . S
C827 C822 1.390 1_565 S
C827 C826 1.387 . S
H828 C840 0.930 . S
H829 C842 0.930 . S
H830 C843 0.930 . S
H831 C847 0.959 . S
H832 C847 0.959 1_655 S
H833 C847 0.961 . S
H834 C848 0.960 . S
H835 C848 0.961 1_655 S
H836 C848 0.959 . S
H837 C851 0.931 1_455 S
H838 C852 0.931 . S
H839 C854 0.930 . S
C840 H828 0.930 . S
C840 C841 1.399 . S
C840 C845 1.399 . S
C841 C840 1.399 . S
C841 C842 1.376 1_554 S
C842 H829 0.930 . S
C842 C841 1.376 1_556 S
C842 C843 1.388 . S
C843 H830 0.930 . S
C843 C842 1.388 . S
C843 C844 1.390 . S
C844 C843 1.390 . S
C844 C845 1.394 1_556 S
C844 C850 1.465 . S
C845 C840 1.399 . S
C845 C844 1.394 1_554 S
C845 C846 1.516 . S
C846 C845 1.516 . S
C846 C847 1.502 . S
C846 C848 1.561 . S
C846 C849 1.526 1_455 S
C847 H831 0.959 . S
C847 H832 0.959 1_455 S
C847 H833 0.961 . S
C847 C846 1.502 . S
C848 H834 0.960 . S
C848 H835 0.961 1_455 S
C848 H836 0.959 . S
C848 C846 1.561 . S
C849 C846 1.526 1_655 S
C849 C850 1.396 1_654 S
C849 C854 1.390 . S
C850 C844 1.465 . S
C850 C849 1.396 1_456 S
C850 C851 1.399 1_455 S
C851 H837 0.931 1_655 S
C851 C850 1.399 1_655 S
C851 C852 1.385 . S
C852 H838 0.931 . S
C852 C851 1.385 . S
C852 C853 1.389 . S
C853 C852 1.389 . S
C853 C854 1.387 1_556 S
C854 H839 0.930 . S
C854 C849 1.390 . S
C854 C853 1.387 1_554 S
H855 C867 0.930 . S
H856 C869 0.930 . S
H857 C870 0.930 . S
H858 C874 0.959 . S
H859 C874 0.959 . S
H860 C874 0.961 . S
H861 C875 0.960 . S
H862 C875 0.961 . S
H863 C875 0.959 . S
H864 C878 0.929 . S
H865 C879 0.931 . S
H866 C881 0.930 . S
C867 H855 0.930 . S
C867 C868 1.399 1_556 S
C867 C872 1.399 . S
C868 C867 1.399 1_554 S
C868 C869 1.376 . S
C869 H856 0.930 . S
C869 C868 1.376 . S
C869 C870 1.388 . S
C870 H857 0.930 . S
C870 C869 1.388 . S
C870 C871 1.390 . S
C871 C870 1.390 . S
C871 C872 1.394 1_554 S
C871 C877 1.465 . S
C872 C867 1.399 . S
C872 C871 1.394 1_556 S
C872 C873 1.516 . S
C873 C872 1.516 . S
C873 C874 1.502 . S
C873 C875 1.561 . S
C873 C876 1.526 . S
C874 H858 0.959 . S
C874 H859 0.959 . S
C874 H860 0.961 . S
C874 C873 1.502 . S
C875 H861 0.960 . S
C875 H862 0.961 . S
C875 H863 0.959 . S
C875 C873 1.561 . S
C876 C873 1.526 . S
C876 C877 1.396 1_556 S
C876 C881 1.390 . S
C877 C871 1.465 . S
C877 C876 1.396 1_554 S
C877 C878 1.399 . S
C878 H864 0.929 . S
C878 C877 1.399 . S
C878 C879 1.385 . S
C879 H865 0.931 . S
C879 C878 1.385 . S
C879 C880 1.389 1_554 S
C880 C879 1.389 1_556 S
C880 C881 1.387 . S
C881 H866 0.930 . S
C881 C876 1.390 . S
C881 C880 1.387 . S
H882 C894 0.930 . S
H883 C896 0.930 . S
H884 C897 0.930 . S
H885 C901 0.959 . S
H886 C901 0.959 . S
H887 C901 0.961 . S
H888 C902 0.960 . S
H889 C902 0.961 . S
H890 C902 0.959 . S
H891 C905 0.929 . S
H892 C906 0.931 . S
H893 C908 0.930 . S
C894 H882 0.930 . S
C894 C895 1.399 . S
C894 C899 1.399 . S
C895 C894 1.399 . S
C895 C896 1.376 . S
C896 H883 0.930 . S
C896 C895 1.376 . S
C896 C897 1.388 . S
C897 H884 0.930 . S
C897 C896 1.388 . S
C897 C898 1.390 . S
C898 C897 1.390 . S
C898 C899 1.394 . S
C898 C904 1.465 . S
C899 C894 1.399 . S
C899 C898 1.394 . S
C899 C900 1.516 . S
C900 C899 1.516 . S
C900 C901 1.502 . S
C900 C902 1.561 . S
C900 C903 1.526 . S
C901 H885 0.959 . S
C901 H886 0.959 . S
C901 H887 0.961 . S
C901 C900 1.502 . S
C902 H888 0.960 . S
C902 H889 0.961 . S
C902 H890 0.959 . S
C902 C900 1.561 . S
C903 C900 1.526 . S
C903 C904 1.396 . S
C903 C908 1.390 . S
C904 C898 1.465 . S
C904 C903 1.396 . S
C904 C905 1.399 . S
C905 H891 0.929 . S
C905 C904 1.399 . S
C905 C906 1.385 . S
C906 H892 0.931 . S
C906 C905 1.385 . S
C906 C907 1.389 . S
C907 C906 1.389 . S
C907 C908 1.387 . S
C908 H893 0.930 . S
C908 C903 1.390 . S
C908 C907 1.387 . S
H909 C921 0.930 . S
H910 C923 0.930 . S
H911 C924 0.930 . S
H912 C928 0.959 . S
H913 C928 0.959 . S
H914 C928 0.961 . S
H915 C929 0.960 . S
H916 C929 0.961 . S
H917 C929 0.959 . S
H918 C932 0.929 . S
H919 C933 0.931 . S
H920 C935 0.930 . S
C921 H909 0.930 . S
C921 C922 1.399 . S
C921 C926 1.399 . S
C922 C921 1.399 . S
C922 C923 1.376 . S
C923 H910 0.930 . S
C923 C922 1.376 . S
C923 C924 1.388 . S
C924 H911 0.930 . S
C924 C923 1.388 . S
C924 C925 1.390 . S
C925 C924 1.390 . S
C925 C926 1.394 . S
C925 C931 1.465 . S
C926 C921 1.399 . S
C926 C925 1.394 . S
C926 C927 1.516 . S
C927 C926 1.516 . S
C927 C928 1.502 . S
C927 C929 1.561 . S
C927 C930 1.526 . S
C928 H912 0.959 . S
C928 H913 0.959 . S
C928 H914 0.961 . S
C928 C927 1.502 . S
C929 H915 0.960 . S
C929 H916 0.961 . S
C929 H917 0.959 . S
C929 C927 1.561 . S
C930 C927 1.526 . S
C930 C931 1.396 . S
C930 C935 1.390 . S
C931 C925 1.465 . S
C931 C930 1.396 . S
C931 C932 1.399 . S
C932 H918 0.929 . S
C932 C931 1.399 . S
C932 C933 1.385 . S
C933 H919 0.931 . S
C933 C932 1.385 . S
C933 C934 1.389 . S
C934 C933 1.389 . S
C934 C935 1.387 . S
C935 H920 0.930 . S
C935 C930 1.390 . S
C935 C934 1.387 . S
H936 C948 0.930 . S
H937 C950 0.930 . S
H938 C951 0.930 . S
H939 C955 0.959 . S
H940 C955 0.959 . S
H941 C955 0.961 . S
H942 C956 0.960 . S
H943 C956 0.961 . S
H944 C956 0.959 . S
H945 C959 0.929 . S
H946 C960 0.931 . S
H947 C962 0.930 . S
C948 H936 0.930 . S
C948 C949 1.399 . S
C948 C953 1.399 . S
C949 C948 1.399 . S
C949 C950 1.376 . S
C950 H937 0.930 . S
C950 C949 1.376 . S
C950 C951 1.388 . S
C951 H938 0.930 . S
C951 C950 1.388 . S
C951 C952 1.390 . S
C952 C951 1.390 . S
C952 C953 1.394 . S
C952 C958 1.465 . S
C953 C948 1.399 . S
C953 C952 1.394 . S
C953 C954 1.516 . S
C954 C953 1.516 . S
C954 C955 1.502 . S
C954 C956 1.561 . S
C954 C957 1.526 . S
C955 H939 0.959 . S
C955 H940 0.959 . S
C955 H941 0.961 . S
C955 C954 1.502 . S
C956 H942 0.960 . S
C956 H943 0.961 . S
C956 H944 0.959 . S
C956 C954 1.561 . S
C957 C954 1.526 . S
C957 C958 1.396 . S
C957 C962 1.390 . S
C958 C952 1.465 . S
C958 C957 1.396 . S
C958 C959 1.399 . S
C959 H945 0.929 . S
C959 C958 1.399 . S
C959 C960 1.385 . S
C960 H946 0.931 . S
C960 C959 1.385 . S
C960 C961 1.389 . S
C961 C960 1.389 . S
C961 C962 1.387 . S
C962 H947 0.930 . S
C962 C957 1.390 . S
C962 C961 1.387 . S
H963 C975 0.930 . S
H964 C977 0.930 . S
H965 C978 0.930 . S
H966 C982 0.959 . S
H967 C982 0.959 . S
H968 C982 0.961 . S
H969 C983 0.960 . S
H970 C983 0.961 . S
H971 C983 0.959 . S
H972 C986 0.929 . S
H973 C987 0.931 . S
H974 C989 0.930 . S
C975 H963 0.930 . S
C975 C976 1.399 . S
C975 C980 1.399 . S
C976 C975 1.399 . S
C976 C977 1.376 . S
C977 H964 0.930 . S
C977 C976 1.376 . S
C977 C978 1.388 . S
C978 H965 0.930 . S
C978 C977 1.388 . S
C978 C979 1.390 . S
C979 C978 1.390 . S
C979 C980 1.394 . S
C979 C985 1.465 . S
C980 C975 1.399 . S
C980 C979 1.394 . S
C980 C981 1.516 . S
C981 C980 1.516 . S
C981 C982 1.502 . S
C981 C983 1.561 . S
C981 C984 1.526 . S
C982 H966 0.959 . S
C982 H967 0.959 . S
C982 H968 0.961 . S
C982 C981 1.502 . S
C983 H969 0.960 . S
C983 H970 0.961 . S
C983 H971 0.959 . S
C983 C981 1.561 . S
C984 C981 1.526 . S
C984 C985 1.396 . S
C984 C989 1.390 . S
C985 C979 1.465 . S
C985 C984 1.396 . S
C985 C986 1.399 . S
C986 H972 0.929 . S
C986 C985 1.399 . S
C986 C987 1.385 . S
C987 H973 0.931 . S
C987 C986 1.385 . S
C987 C988 1.389 . S
C988 C987 1.389 . S
C988 C989 1.387 . S
C989 H974 0.930 . S
C989 C984 1.390 . S
C989 C988 1.387 . S
H990 C1002 0.930 . S
H991 C1004 0.930 . S
H992 C1005 0.930 . S
H993 C1009 0.959 . S
H994 C1009 0.959 . S
H995 C1009 0.961 . S
H996 C1010 0.960 . S
H997 C1010 0.961 . S
H998 C1010 0.959 . S
H999 C1013 0.929 . S
H1000 C1014 0.931 . S
H1001 C1016 0.930 . S
C1002 H990 0.930 . S
C1002 C1003 1.399 . S
C1002 C1007 1.399 . S
C1003 C1002 1.399 . S
C1003 C1004 1.376 . S
C1004 H991 0.930 . S
C1004 C1003 1.376 . S
C1004 C1005 1.388 . S
C1005 H992 0.930 . S
C1005 C1004 1.388 . S
C1005 C1006 1.390 . S
C1006 C1005 1.390 . S
C1006 C1007 1.394 . S
C1006 C1012 1.465 . S
C1007 C1002 1.399 . S
C1007 C1006 1.394 . S
C1007 C1008 1.516 . S
C1008 C1007 1.516 . S
C1008 C1009 1.502 . S
C1008 C1010 1.561 . S
C1008 C1011 1.526 . S
C1009 H993 0.959 . S
C1009 H994 0.959 . S
C1009 H995 0.961 . S
C1009 C1008 1.502 . S
C1010 H996 0.960 . S
C1010 H997 0.961 . S
C1010 H998 0.959 . S
C1010 C1008 1.561 . S
C1011 C1008 1.526 . S
C1011 C1012 1.396 . S
C1011 C1016 1.390 . S
C1012 C1006 1.465 . S
C1012 C1011 1.396 . S
C1012 C1013 1.399 . S
C1013 H999 0.929 . S
C1013 C1012 1.399 . S
C1013 C1014 1.385 . S
C1014 H1000 0.931 . S
C1014 C1013 1.385 . S
C1014 C1015 1.389 . S
C1015 C1014 1.389 . S
C1015 C1016 1.387 . S
C1016 H1001 0.930 . S
C1016 C1011 1.390 . S
C1016 C1015 1.387 . S
H1017 C1029 0.930 . S
H1018 C1031 0.930 . S
H1019 C1032 0.930 . S
H1020 C1036 0.959 . S
H1021 C1036 0.959 . S
H1022 C1036 0.961 . S
H1023 C1037 0.960 . S
H1024 C1037 0.961 . S
H1025 C1037 0.959 . S
H1026 C1040 0.929 . S
H1027 C1041 0.931 . S
H1028 C1043 0.930 . S
C1029 H1017 0.930 . S
C1029 C1030 1.399 . S
C1029 C1034 1.399 . S
C1030 C1029 1.399 . S
C1030 C1031 1.376 . S
C1031 H1018 0.930 . S
C1031 C1030 1.376 . S
C1031 C1032 1.388 . S
C1032 H1019 0.930 . S
C1032 C1031 1.388 . S
C1032 C1033 1.390 . S
C1033 C1032 1.390 . S
C1033 C1034 1.394 . S
C1033 C1039 1.465 . S
C1034 C1029 1.399 . S
C1034 C1033 1.394 . S
C1034 C1035 1.516 . S
C1035 C1034 1.516 . S
C1035 C1036 1.502 . S
C1035 C1037 1.561 . S
C1035 C1038 1.526 . S
C1036 H1020 0.959 . S
C1036 H1021 0.959 . S
C1036 H1022 0.961 . S
C1036 C1035 1.502 . S
C1037 H1023 0.960 . S
C1037 H1024 0.961 . S
C1037 H1025 0.959 . S
C1037 C1035 1.561 . S
C1038 C1035 1.526 . S
C1038 C1039 1.396 . S
C1038 C1043 1.390 . S
C1039 C1033 1.465 . S
C1039 C1038 1.396 . S
C1039 C1040 1.399 . S
C1040 H1026 0.929 . S
C1040 C1039 1.399 . S
C1040 C1041 1.385 . S
C1041 H1027 0.931 . S
C1041 C1040 1.385 . S
C1041 C1042 1.389 . S
C1042 C1041 1.389 . S
C1042 C1043 1.387 . S
C1043 H1028 0.930 . S
C1043 C1038 1.390 . S
C1043 C1042 1.387 . S
H1044 C1056 0.930 . S
H1045 C1058 0.930 . S
H1046 C1059 0.930 . S
H1047 C1063 0.959 . S
H1048 C1063 0.959 . S
H1049 C1063 0.961 . S
H1050 C1064 0.960 . S
H1051 C1064 0.961 . S
H1052 C1064 0.959 . S
H1053 C1067 0.929 . S
H1054 C1068 0.931 . S
H1055 C1070 0.930 . S
C1056 H1044 0.930 . S
C1056 C1057 1.399 . S
C1056 C1061 1.399 . S
C1057 C1056 1.399 . S
C1057 C1058 1.376 . S
C1058 H1045 0.930 . S
C1058 C1057 1.376 . S
C1058 C1059 1.388 . S
C1059 H1046 0.930 . S
C1059 C1058 1.388 . S
C1059 C1060 1.390 . S
C1060 C1059 1.390 . S
C1060 C1061 1.394 . S
C1060 C1066 1.465 . S
C1061 C1056 1.399 . S
C1061 C1060 1.394 . S
C1061 C1062 1.516 . S
C1062 C1061 1.516 . S
C1062 C1063 1.502 . S
C1062 C1064 1.561 . S
C1062 C1065 1.526 . S
C1063 H1047 0.959 . S
C1063 H1048 0.959 . S
C1063 H1049 0.961 . S
C1063 C1062 1.502 . S
C1064 H1050 0.960 . S
C1064 H1051 0.961 . S
C1064 H1052 0.959 . S
C1064 C1062 1.561 . S
C1065 C1062 1.526 . S
C1065 C1066 1.396 . S
C1065 C1070 1.390 . S
C1066 C1060 1.465 . S
C1066 C1065 1.396 . S
C1066 C1067 1.399 . S
C1067 H1053 0.929 . S
C1067 C1066 1.399 . S
C1067 C1068 1.385 . S
C1068 H1054 0.931 . S
C1068 C1067 1.385 . S
C1068 C1069 1.389 . S
C1069 C1068 1.389 . S
C1069 C1070 1.387 . S
C1070 H1055 0.930 . S
C1070 C1065 1.390 . S
C1070 C1069 1.387 . S
H1071 C1083 0.930 . S
H1072 C1085 0.930 . S
H1073 C1086 0.930 . S
H1074 C1090 0.959 . S
H1075 C1090 0.959 . S
H1076 C1090 0.961 . S
H1077 C1091 0.960 . S
H1078 C1091 0.961 . S
H1079 C1091 0.959 . S
H1080 C1094 0.929 . S
H1081 C1095 0.931 . S
H1082 C1097 0.930 . S
C1083 H1071 0.930 . S
C1083 C1084 1.399 . S
C1083 C1088 1.399 . S
C1084 C1083 1.399 . S
C1084 C1085 1.376 . S
C1085 H1072 0.930 . S
C1085 C1084 1.376 . S
C1085 C1086 1.388 . S
C1086 H1073 0.930 . S
C1086 C1085 1.388 . S
C1086 C1087 1.390 . S
C1087 C1086 1.390 . S
C1087 C1088 1.394 . S
C1087 C1093 1.465 . S
C1088 C1083 1.399 . S
C1088 C1087 1.394 . S
C1088 C1089 1.516 . S
C1089 C1088 1.516 . S
C1089 C1090 1.502 . S
C1089 C1091 1.561 1_556 S
C1089 C1092 1.526 . S
C1090 H1074 0.959 . S
C1090 H1075 0.959 . S
C1090 H1076 0.961 . S
C1090 C1089 1.502 . S
C1091 H1077 0.960 . S
C1091 H1078 0.961 . S
C1091 H1079 0.959 . S
C1091 C1089 1.561 1_554 S
C1092 C1089 1.526 . S
C1092 C1093 1.396 . S
C1092 C1097 1.390 . S
C1093 C1087 1.465 . S
C1093 C1092 1.396 . S
C1093 C1094 1.399 . S
C1094 H1080 0.929 . S
C1094 C1093 1.399 . S
C1094 C1095 1.385 . S
C1095 H1081 0.931 . S
C1095 C1094 1.385 . S
C1095 C1096 1.389 . S
C1096 C1095 1.389 . S
C1096 C1097 1.387 . S
C1097 H1082 0.930 . S
C1097 C1092 1.390 . S
C1097 C1096 1.387 . S
H1098 C1110 0.930 . S
H1099 C1112 0.930 . S
H1100 C1113 0.930 . S
H1101 C1117 0.959 . S
H1102 C1117 0.959 . S
H1103 C1117 0.961 . S
H1104 C1118 0.960 . S
H1105 C1118 0.961 . S
H1106 C1118 0.959 . S
H1107 C1121 0.929 . S
H1108 C1122 0.931 . S
H1109 C1124 0.930 . S
C1110 H1098 0.930 . S
C1110 C1111 1.399 . S
C1110 C1115 1.399 . S
C1111 C1110 1.399 . S
C1111 C1112 1.376 . S
C1112 H1099 0.930 . S
C1112 C1111 1.376 . S
C1112 C1113 1.388 . S
C1113 H1100 0.930 . S
C1113 C1112 1.388 . S
C1113 C1114 1.390 . S
C1114 C1113 1.390 . S
C1114 C1115 1.394 . S
C1114 C1120 1.465 . S
C1115 C1110 1.399 . S
C1115 C1114 1.394 . S
C1115 C1116 1.516 . S
C1116 C1115 1.516 . S
C1116 C1117 1.502 . S
C1116 C1118 1.561 . S
C1116 C1119 1.526 . S
C1117 H1101 0.959 . S
C1117 H1102 0.959 . S
C1117 H1103 0.961 . S
C1117 C1116 1.502 . S
C1118 H1104 0.960 . S
C1118 H1105 0.961 . S
C1118 H1106 0.959 . S
C1118 C1116 1.561 . S
C1119 C1116 1.526 . S
C1119 C1120 1.396 . S
C1119 C1124 1.390 . S
C1120 C1114 1.465 . S
C1120 C1119 1.396 . S
C1120 C1121 1.399 . S
C1121 H1107 0.929 . S
C1121 C1120 1.399 . S
C1121 C1122 1.385 . S
C1122 H1108 0.931 . S
C1122 C1121 1.385 . S
C1122 C1123 1.389 . S
C1123 C1122 1.389 . S
C1123 C1124 1.387 . S
C1124 H1109 0.930 . S
C1124 C1119 1.390 . S
C1124 C1123 1.387 . S
H1125 C1137 0.930 . S
H1126 C1139 0.930 . S
H1127 C1140 0.930 . S
H1128 C1144 0.959 . S
H1129 C1144 0.959 1_554 S
H1130 C1144 0.961 1_554 S
H1131 C1145 0.960 1_554 S
H1132 C1145 0.961 1_554 S
H1133 C1145 0.959 . S
H1134 C1148 0.929 . S
H1135 C1149 0.931 . S
H1136 C1151 0.930 . S
C1137 H1125 0.930 . S
C1137 C1138 1.399 . S
C1137 C1142 1.399 . S
C1138 C1137 1.399 . S
C1138 C1139 1.376 . S
C1139 H1126 0.930 . S
C1139 C1138 1.376 . S
C1139 C1140 1.388 . S
C1140 H1127 0.930 . S
C1140 C1139 1.388 . S
C1140 C1141 1.390 . S
C1141 C1140 1.390 . S
C1141 C1142 1.394 . S
C1141 C1147 1.465 . S
C1142 C1137 1.399 . S
C1142 C1141 1.394 . S
C1142 C1143 1.516 . S
C1143 C1142 1.516 . S
C1143 C1144 1.502 . S
C1143 C1145 1.561 . S
C1143 C1146 1.526 . S
C1144 H1128 0.959 . S
C1144 H1129 0.959 1_556 S
C1144 H1130 0.961 1_556 S
C1144 C1143 1.502 . S
C1145 H1131 0.960 1_556 S
C1145 H1132 0.961 1_556 S
C1145 H1133 0.959 . S
C1145 C1143 1.561 . S
C1146 C1143 1.526 . S
C1146 C1147 1.396 . S
C1146 C1151 1.390 . S
C1147 C1141 1.465 . S
C1147 C1146 1.396 . S
C1147 C1148 1.399 . S
C1148 H1134 0.929 . S
C1148 C1147 1.399 . S
C1148 C1149 1.385 . S
C1149 H1135 0.931 . S
C1149 C1148 1.385 . S
C1149 C1150 1.389 . S
C1150 C1149 1.389 . S
C1150 C1151 1.387 . S
C1151 H1136 0.930 . S
C1151 C1146 1.390 . S
C1151 C1150 1.387 . S
H1152 C1164 0.930 . S
H1153 C1166 0.930 . S
H1154 C1167 0.930 . S
H1155 C1171 0.959 1_556 S
H1156 C1171 0.959 . S
H1157 C1171 0.961 . S
H1158 C1172 0.960 . S
H1159 C1172 0.961 . S
H1160 C1172 0.959 . S
H1161 C1175 0.929 . S
H1162 C1176 0.931 . S
H1163 C1178 0.930 . S
C1164 H1152 0.930 . S
C1164 C1165 1.399 . S
C1164 C1169 1.399 . S
C1165 C1164 1.399 . S
C1165 C1166 1.376 . S
C1166 H1153 0.930 . S
C1166 C1165 1.376 . S
C1166 C1167 1.388 . S
C1167 H1154 0.930 . S
C1167 C1166 1.388 . S
C1167 C1168 1.390 . S
C1168 C1167 1.390 . S
C1168 C1169 1.394 . S
C1168 C1174 1.465 . S
C1169 C1164 1.399 . S
C1169 C1168 1.394 . S
C1169 C1170 1.516 . S
C1170 C1169 1.516 . S
C1170 C1171 1.502 1_556 S
C1170 C1172 1.561 . S
C1170 C1173 1.526 . S
C1171 H1155 0.959 1_554 S
C1171 H1156 0.959 . S
C1171 H1157 0.961 . S
C1171 C1170 1.502 1_554 S
C1172 H1158 0.960 . S
C1172 H1159 0.961 . S
C1172 H1160 0.959 . S
C1172 C1170 1.561 . S
C1173 C1170 1.526 . S
C1173 C1174 1.396 . S
C1173 C1178 1.390 . S
C1174 C1168 1.465 . S
C1174 C1173 1.396 . S
C1174 C1175 1.399 . S
C1175 H1161 0.929 . S
C1175 C1174 1.399 . S
C1175 C1176 1.385 . S
C1176 H1162 0.931 . S
C1176 C1175 1.385 . S
C1176 C1177 1.389 . S
C1177 C1176 1.389 . S
C1177 C1178 1.387 . S
C1178 H1163 0.930 . S
C1178 C1173 1.390 . S
C1178 C1177 1.387 . S
H1179 C1191 0.930 . S
H1180 C1193 0.930 . S
H1181 C1194 0.930 . S
H1182 C1198 0.959 . S
H1183 C1198 0.959 . S
H1184 C1198 0.961 . S
H1185 C1199 0.960 . S
H1186 C1199 0.961 . S
H1187 C1199 0.959 . S
H1188 C1202 0.929 . S
H1189 C1203 0.931 . S
H1190 C1205 0.930 . S
C1191 H1179 0.930 . S
C1191 C1192 1.399 . S
C1191 C1196 1.399 . S
C1192 C1191 1.399 . S
C1192 C1193 1.376 . S
C1193 H1180 0.930 . S
C1193 C1192 1.376 . S
C1193 C1194 1.388 . S
C1194 H1181 0.930 . S
C1194 C1193 1.388 . S
C1194 C1195 1.390 . S
C1195 C1194 1.390 . S
C1195 C1196 1.394 . S
C1195 C1201 1.465 . S
C1196 C1191 1.399 . S
C1196 C1195 1.394 . S
C1196 C1197 1.516 . S
C1197 C1196 1.516 . S
C1197 C1198 1.502 . S
C1197 C1199 1.561 . S
C1197 C1200 1.526 . S
C1198 H1182 0.959 . S
C1198 H1183 0.959 . S
C1198 H1184 0.961 . S
C1198 C1197 1.502 . S
C1199 H1185 0.960 . S
C1199 H1186 0.961 . S
C1199 H1187 0.959 . S
C1199 C1197 1.561 . S
C1200 C1197 1.526 . S
C1200 C1201 1.396 . S
C1200 C1205 1.390 . S
C1201 C1195 1.465 . S
C1201 C1200 1.396 . S
C1201 C1202 1.399 . S
C1202 H1188 0.929 . S
C1202 C1201 1.399 . S
C1202 C1203 1.385 . S
C1203 H1189 0.931 . S
C1203 C1202 1.385 . S
C1203 C1204 1.389 . S
C1204 C1203 1.389 . S
C1204 C1205 1.387 . S
C1205 H1190 0.930 . S
C1205 C1200 1.390 . S
C1205 C1204 1.387 . S
H1206 C1218 0.930 . S
H1207 C1220 0.930 . S
H1208 C1221 0.930 . S
H1209 C1225 0.959 . S
H1210 C1225 0.959 . S
H1211 C1225 0.961 . S
H1212 C1226 0.960 . S
H1213 C1226 0.961 . S
H1214 C1226 0.959 . S
H1215 C1229 0.929 . S
H1216 C1230 0.931 . S
H1217 C1232 0.930 . S
C1218 H1206 0.930 . S
C1218 C1219 1.399 . S
C1218 C1223 1.399 . S
C1219 C1218 1.399 . S
C1219 C1220 1.376 . S
C1220 H1207 0.930 . S
C1220 C1219 1.376 . S
C1220 C1221 1.388 . S
C1221 H1208 0.930 . S
C1221 C1220 1.388 . S
C1221 C1222 1.390 . S
C1222 C1221 1.390 . S
C1222 C1223 1.394 . S
C1222 C1228 1.465 . S
C1223 C1218 1.399 . S
C1223 C1222 1.394 . S
C1223 C1224 1.516 . S
C1224 C1223 1.516 . S
C1224 C1225 1.502 . S
C1224 C1226 1.561 . S
C1224 C1227 1.526 . S
C1225 H1209 0.959 . S
C1225 H1210 0.959 . S
C1225 H1211 0.961 . S
C1225 C1224 1.502 . S
C1226 H1212 0.960 . S
C1226 H1213 0.961 . S
C1226 H1214 0.959 . S
C1226 C1224 1.561 . S
C1227 C1224 1.526 . S
C1227 C1228 1.396 . S
C1227 C1232 1.390 . S
C1228 C1222 1.465 . S
C1228 C1227 1.396 . S
C1228 C1229 1.399 . S
C1229 H1215 0.929 . S
C1229 C1228 1.399 . S
C1229 C1230 1.385 . S
C1230 H1216 0.931 . S
C1230 C1229 1.385 . S
C1230 C1231 1.389 . S
C1231 C1230 1.389 . S
C1231 C1232 1.387 . S
C1232 H1217 0.930 . S
C1232 C1227 1.390 . S
C1232 C1231 1.387 . S
H1233 C1245 0.930 . S
H1234 C1247 0.930 . S
H1235 C1248 0.930 . S
H1236 C1252 0.959 . S
H1237 C1252 0.959 . S
H1238 C1252 0.961 . S
H1239 C1253 0.960 . S
H1240 C1253 0.961 . S
H1241 C1253 0.959 . S
H1242 C1256 0.929 . S
H1243 C1257 0.931 . S
H1244 C1259 0.930 . S
C1245 H1233 0.930 . S
C1245 C1246 1.399 . S
C1245 C1250 1.399 . S
C1246 C1245 1.399 . S
C1246 C1247 1.376 . S
C1247 H1234 0.930 . S
C1247 C1246 1.376 . S
C1247 C1248 1.388 . S
C1248 H1235 0.930 . S
C1248 C1247 1.388 . S
C1248 C1249 1.390 . S
C1249 C1248 1.390 . S
C1249 C1250 1.394 . S
C1249 C1255 1.465 . S
C1250 C1245 1.399 . S
C1250 C1249 1.394 . S
C1250 C1251 1.516 . S
C1251 C1250 1.516 . S
C1251 C1252 1.502 . S
C1251 C1253 1.561 . S
C1251 C1254 1.526 . S
C1252 H1236 0.959 . S
C1252 H1237 0.959 . S
C1252 H1238 0.961 . S
C1252 C1251 1.502 . S
C1253 H1239 0.960 . S
C1253 H1240 0.961 . S
C1253 H1241 0.959 . S
C1253 C1251 1.561 . S
C1254 C1251 1.526 . S
C1254 C1255 1.396 . S
C1254 C1259 1.390 . S
C1255 C1249 1.465 . S
C1255 C1254 1.396 . S
C1255 C1256 1.399 . S
C1256 H1242 0.929 . S
C1256 C1255 1.399 . S
C1256 C1257 1.385 . S
C1257 H1243 0.931 . S
C1257 C1256 1.385 . S
C1257 C1258 1.389 . S
C1258 C1257 1.389 . S
C1258 C1259 1.387 . S
C1259 H1244 0.930 . S
C1259 C1254 1.390 . S
C1259 C1258 1.387 . S
H1260 C1272 0.930 . S
H1261 C1274 0.930 . S
H1262 C1275 0.930 . S
H1263 C1279 0.959 . S
H1264 C1279 0.959 . S
H1265 C1279 0.961 . S
H1266 C1280 0.960 . S
H1267 C1280 0.961 . S
H1268 C1280 0.959 . S
H1269 C1283 0.929 . S
H1270 C1284 0.931 . S
H1271 C1286 0.930 . S
C1272 H1260 0.930 . S
C1272 C1273 1.399 . S
C1272 C1277 1.399 . S
C1273 C1272 1.399 . S
C1273 C1274 1.376 . S
C1274 H1261 0.930 . S
C1274 C1273 1.376 . S
C1274 C1275 1.388 . S
C1275 H1262 0.930 . S
C1275 C1274 1.388 . S
C1275 C1276 1.390 . S
C1276 C1275 1.390 . S
C1276 C1277 1.394 . S
C1276 C1282 1.465 . S
C1277 C1272 1.399 . S
C1277 C1276 1.394 . S
C1277 C1278 1.516 . S
C1278 C1277 1.516 . S
C1278 C1279 1.502 . S
C1278 C1280 1.561 . S
C1278 C1281 1.526 . S
C1279 H1263 0.959 . S
C1279 H1264 0.959 . S
C1279 H1265 0.961 . S
C1279 C1278 1.502 . S
C1280 H1266 0.960 . S
C1280 H1267 0.961 . S
C1280 H1268 0.959 . S
C1280 C1278 1.561 . S
C1281 C1278 1.526 . S
C1281 C1282 1.396 . S
C1281 C1286 1.390 . S
C1282 C1276 1.465 . S
C1282 C1281 1.396 . S
C1282 C1283 1.399 . S
C1283 H1269 0.929 . S
C1283 C1282 1.399 . S
C1283 C1284 1.385 . S
C1284 H1270 0.931 . S
C1284 C1283 1.385 . S
C1284 C1285 1.389 . S
C1285 C1284 1.389 . S
C1285 C1286 1.387 . S
C1286 H1271 0.930 . S
C1286 C1281 1.390 . S
C1286 C1285 1.387 . S
H1287 C1299 0.930 . S
H1288 C1301 0.930 . S
H1289 C1302 0.930 . S
H1290 C1306 0.959 . S
H1291 C1306 0.959 1_556 S
H1292 C1306 0.963 . S
H1293 C1307 0.960 . S
H1294 C1307 0.961 . S
H1295 C1307 0.959 1_554 S
H1296 C1310 0.929 . S
H1297 C1311 0.931 . S
H1298 C1313 0.930 . S
C1299 H1287 0.930 . S
C1299 C1300 1.399 . S
C1299 C1304 1.399 . S
C1300 C1299 1.399 . S
C1300 C1301 1.376 . S
C1301 H1288 0.930 . S
C1301 C1300 1.376 . S
C1301 C1302 1.388 . S
C1302 H1289 0.930 . S
C1302 C1301 1.388 . S
C1302 C1303 1.390 . S
C1303 C1302 1.390 . S
C1303 C1304 1.394 . S
C1303 C1309 1.465 . S
C1304 C1299 1.399 . S
C1304 C1303 1.394 . S
C1304 C1305 1.516 . S
C1305 C1304 1.516 . S
C1305 C1306 1.502 . S
C1305 C1307 1.561 1_554 S
C1305 C1308 1.526 . S
C1306 H1290 0.959 . S
C1306 H1291 0.959 1_554 S
C1306 H1292 0.963 . S
C1306 C1305 1.502 . S
C1307 H1293 0.960 . S
C1307 H1294 0.961 . S
C1307 H1295 0.959 1_556 S
C1307 C1305 1.561 1_556 S
C1308 C1305 1.526 . S
C1308 C1309 1.396 . S
C1308 C1313 1.390 . S
C1309 C1303 1.465 . S
C1309 C1308 1.396 . S
C1309 C1310 1.399 . S
C1310 H1296 0.929 . S
C1310 C1309 1.399 . S
C1310 C1311 1.385 . S
C1311 H1297 0.931 . S
C1311 C1310 1.385 . S
C1311 C1312 1.389 . S
C1312 C1311 1.389 . S
C1312 C1313 1.387 . S
C1313 H1298 0.930 . S
C1313 C1308 1.390 . S
C1313 C1312 1.387 . S
H1314 C1326 0.930 . S
H1315 C1328 0.930 . S
H1316 C1329 0.930 . S
H1317 C1333 0.959 . S
H1318 C1333 0.959 . S
H1319 C1333 0.961 . S
H1320 C1334 0.960 . S
H1321 C1334 0.961 . S
H1322 C1334 0.959 1_554 S
H1323 C1337 0.929 . S
H1324 C1338 0.931 . S
H1325 C1340 0.930 . S
C1326 H1314 0.930 . S
C1326 C1327 1.399 . S
C1326 C1331 1.399 . S
C1327 C1326 1.399 . S
C1327 C1328 1.376 . S
C1328 H1315 0.930 . S
C1328 C1327 1.376 . S
C1328 C1329 1.388 . S
C1329 H1316 0.930 . S
C1329 C1328 1.388 . S
C1329 C1330 1.390 . S
C1330 C1329 1.390 . S
C1330 C1331 1.394 . S
C1330 C1336 1.465 . S
C1331 C1326 1.399 . S
C1331 C1330 1.394 . S
C1331 C1332 1.516 . S
C1332 C1331 1.516 . S
C1332 C1333 1.502 . S
C1332 C1334 1.561 1_554 S
C1332 C1335 1.526 . S
C1333 H1317 0.959 . S
C1333 H1318 0.959 . S
C1333 H1319 0.961 . S
C1333 C1332 1.502 . S
C1334 H1320 0.960 . S
C1334 H1321 0.961 . S
C1334 H1322 0.959 1_556 S
C1334 C1332 1.561 1_556 S
C1335 C1332 1.526 . S
C1335 C1336 1.396 . S
C1335 C1340 1.390 . S
C1336 C1330 1.465 . S
C1336 C1335 1.396 . S
C1336 C1337 1.399 . S
C1337 H1323 0.929 . S
C1337 C1336 1.399 . S
C1337 C1338 1.385 . S
C1338 H1324 0.931 . S
C1338 C1337 1.385 . S
C1338 C1339 1.389 . S
C1339 C1338 1.389 . S
C1339 C1340 1.387 . S
C1340 H1325 0.930 . S
C1340 C1335 1.390 . S
C1340 C1339 1.387 . S
H1341 C1353 0.930 . S
H1342 C1355 0.930 . S
H1343 C1356 0.930 . S
H1344 C1360 0.959 . S
H1345 C1360 0.959 . S
H1346 C1360 0.961 . S
H1347 C1361 0.960 . S
H1348 C1361 0.961 . S
H1349 C1361 0.959 . S
H1350 C1364 0.929 . S
H1351 C1365 0.931 . S
H1352 C1367 0.930 . S
C1353 H1341 0.930 . S
C1353 C1354 1.399 . S
C1353 C1358 1.399 . S
C1354 C1353 1.399 . S
C1354 C1355 1.376 . S
C1355 H1342 0.930 . S
C1355 C1354 1.376 . S
C1355 C1356 1.388 . S
C1356 H1343 0.930 . S
C1356 C1355 1.388 . S
C1356 C1357 1.390 . S
C1357 C1356 1.390 . S
C1357 C1358 1.394 . S
C1357 C1363 1.465 . S
C1358 C1353 1.399 . S
C1358 C1357 1.394 . S
C1358 C1359 1.516 . S
C1359 C1358 1.516 . S
C1359 C1360 1.502 . S
C1359 C1361 1.561 . S
C1359 C1362 1.526 . S
C1360 H1344 0.959 . S
C1360 H1345 0.959 . S
C1360 H1346 0.961 . S
C1360 C1359 1.502 . S
C1361 H1347 0.960 . S
C1361 H1348 0.961 . S
C1361 H1349 0.959 . S
C1361 C1359 1.561 . S
C1362 C1359 1.526 . S
C1362 C1363 1.396 . S
C1362 C1367 1.390 . S
C1363 C1357 1.465 . S
C1363 C1362 1.396 . S
C1363 C1364 1.399 . S
C1364 H1350 0.929 . S
C1364 C1363 1.399 . S
C1364 C1365 1.385 . S
C1365 H1351 0.931 . S
C1365 C1364 1.385 . S
C1365 C1366 1.389 . S
C1366 C1365 1.389 . S
C1366 C1367 1.387 . S
C1367 H1352 0.930 . S
C1367 C1362 1.390 . S
C1367 C1366 1.387 . S
H1368 C1380 0.930 . S
H1369 C1382 0.930 . S
H1370 C1383 0.930 . S
H1371 C1387 0.959 . S
H1372 C1387 0.959 . S
H1373 C1387 0.961 1_554 S
H1374 C1388 0.960 . S
H1375 C1388 0.961 1_556 S
H1376 C1388 0.959 1_556 S
H1377 C1391 0.929 . S
H1378 C1392 0.931 . S
H1379 C1394 0.930 . S
C1380 H1368 0.930 . S
C1380 C1381 1.399 . S
C1380 C1385 1.399 . S
C1381 C1380 1.399 . S
C1381 C1382 1.376 . S
C1382 H1369 0.930 . S
C1382 C1381 1.376 . S
C1382 C1383 1.388 . S
C1383 H1370 0.930 . S
C1383 C1382 1.388 . S
C1383 C1384 1.390 . S
C1384 C1383 1.390 . S
C1384 C1385 1.394 . S
C1384 C1390 1.465 1_554 S
C1385 C1380 1.399 . S
C1385 C1384 1.394 . S
C1385 C1386 1.523 . S
C1386 C1385 1.523 . S
C1386 C1387 1.501 1_554 S
C1386 C1388 1.562 1_455 S
C1386 C1389 1.519 1_554 S
C1387 H1371 0.959 . S
C1387 H1372 0.959 . S
C1387 H1373 0.961 1_556 S
C1387 C1386 1.501 1_556 S
C1388 H1374 0.960 . S
C1388 H1375 0.961 1_554 S
C1388 H1376 0.959 1_554 S
C1388 C1386 1.562 1_655 S
C1389 C1386 1.519 1_556 S
C1389 C1390 1.396 . S
C1389 C1394 1.390 . S
C1390 C1384 1.465 1_556 S
C1390 C1389 1.396 . S
C1390 C1391 1.399 . S
C1391 H1377 0.929 . S
C1391 C1390 1.399 . S
C1391 C1392 1.385 . S
C1392 H1378 0.931 . S
C1392 C1391 1.385 . S
C1392 C1393 1.389 . S
C1393 C1392 1.389 . S
C1393 C1394 1.387 . S
C1394 H1379 0.930 . S
C1394 C1389 1.390 . S
C1394 C1393 1.387 . S
H1395 C1407 0.930 . S
H1396 C1409 0.930 . S
H1397 C1410 0.930 . S
H1398 C1414 0.959 . S
H1399 C1414 0.959 . S
H1400 C1414 0.961 1_554 S
H1401 C1415 0.960 1_554 S
H1402 C1415 0.961 . S
H1403 C1415 0.959 . S
H1404 C1418 0.929 . S
H1405 C1419 0.931 . S
H1406 C1421 0.930 . S
C1407 H1395 0.930 . S
C1407 C1408 1.399 . S
C1407 C1412 1.399 . S
C1408 C1407 1.399 . S
C1408 C1409 1.376 . S
C1409 H1396 0.930 . S
C1409 C1408 1.376 . S
C1409 C1410 1.388 . S
C1410 H1397 0.930 . S
C1410 C1409 1.388 . S
C1410 C1411 1.390 . S
C1411 C1410 1.390 . S
C1411 C1412 1.394 . S
C1411 C1417 1.465 1_554 S
C1412 C1407 1.399 . S
C1412 C1411 1.394 . S
C1412 C1413 1.516 1_554 S
C1413 C1412 1.516 1_556 S
C1413 C1414 1.502 . S
C1413 C1415 1.561 . S
C1413 C1416 1.526 . S
C1414 H1398 0.959 . S
C1414 H1399 0.959 . S
C1414 H1400 0.961 1_556 S
C1414 C1413 1.502 . S
C1415 H1401 0.960 1_556 S
C1415 H1402 0.961 . S
C1415 H1403 0.959 . S
C1415 C1413 1.561 . S
C1416 C1413 1.526 . S
C1416 C1417 1.396 . S
C1416 C1421 1.390 . S
C1417 C1411 1.465 1_556 S
C1417 C1416 1.396 . S
C1417 C1418 1.399 . S
C1418 H1404 0.929 . S
C1418 C1417 1.399 . S
C1418 C1419 1.385 . S
C1419 H1405 0.931 . S
C1419 C1418 1.385 . S
C1419 C1420 1.389 . S
C1420 C1419 1.389 . S
C1420 C1421 1.387 . S
C1421 H1406 0.930 . S
C1421 C1416 1.390 . S
C1421 C1420 1.387 . S
H1422 C1434 0.930 . S
H1423 C1436 0.930 . S
H1424 C1437 0.930 . S
H1425 C1441 0.959 1_556 S
H1426 C1441 0.959 1_556 S
H1427 C1441 0.961 . S
H1428 C1442 0.960 . S
H1429 C1442 0.961 1_556 S
H1430 C1442 0.959 . S
H1431 C1445 0.929 . S
H1432 C1446 0.937 . S
H1433 C1448 0.930 . S
C1434 H1422 0.930 . S
C1434 C1435 1.399 . S
C1434 C1439 1.399 . S
C1435 C1434 1.399 . S
C1435 C1436 1.376 1_545 S
C1436 H1423 0.930 . S
C1436 C1435 1.376 1_565 S
C1436 C1437 1.388 . S
C1437 H1424 0.930 . S
C1437 C1436 1.388 . S
C1437 C1438 1.390 1_565 S
C1438 C1437 1.390 1_545 S
C1438 C1439 1.394 . S
C1438 C1444 1.465 1_554 S
C1439 C1434 1.399 . S
C1439 C1438 1.394 . S
C1439 C1440 1.516 . S
C1440 C1439 1.516 . S
C1440 C1441 1.502 . S
C1440 C1442 1.561 . S
C1440 C1443 1.526 1_554 S
C1441 H1425 0.959 1_554 S
C1441 H1426 0.959 1_554 S
C1441 H1427 0.961 . S
C1441 C1440 1.502 . S
C1442 H1428 0.960 . S
C1442 H1429 0.961 1_554 S
C1442 H1430 0.959 . S
C1442 C1440 1.561 . S
C1443 C1440 1.526 1_556 S
C1443 C1444 1.396 . S
C1443 C1448 1.390 . S
C1444 C1438 1.465 1_556 S
C1444 C1443 1.396 . S
C1444 C1445 1.399 1_545 S
C1445 H1431 0.929 . S
C1445 C1444 1.399 1_565 S
C1445 C1446 1.387 . S
C1446 H1432 0.937 . S
C1446 C1445 1.387 . S
C1446 C1447 1.382 1_565 S
C1447 C1446 1.382 1_545 S
C1447 C1448 1.387 . S
C1448 H1433 0.930 . S
C1448 C1443 1.390 . S
C1448 C1447 1.387 . S
H1449 C1461 0.930 . S
H1450 C1463 0.930 . S
H1451 C1464 0.930 . S
H1452 C1468 0.959 1_554 S
H1453 C1468 0.959 1_554 S
H1454 C1468 0.961 . S
H1455 C1469 0.960 . S
H1456 C1469 0.961 1_554 S
H1457 C1469 0.959 1_554 S
H1458 C1472 0.929 . S
H1459 C1473 0.931 . S
H1460 C1475 0.930 . S
C1461 H1449 0.930 . S
C1461 C1462 1.399 . S
C1461 C1466 1.399 . S
C1462 C1461 1.399 . S
C1462 C1463 1.376 1_455 S
C1463 H1450 0.930 . S
C1463 C1462 1.376 1_655 S
C1463 C1464 1.388 . S
C1464 H1451 0.930 . S
C1464 C1463 1.388 . S
C1464 C1465 1.390 1_655 S
C1465 C1464 1.390 1_455 S
C1465 C1466 1.394 . S
C1465 C1471 1.465 1_556 S
C1466 C1461 1.399 . S
C1466 C1465 1.394 . S
C1466 C1467 1.516 . S
C1467 C1466 1.516 . S
C1467 C1468 1.502 . S
C1467 C1469 1.561 . S
C1467 C1470 1.526 1_556 S
C1468 H1452 0.959 1_556 S
C1468 H1453 0.959 1_556 S
C1468 H1454 0.961 . S
C1468 C1467 1.502 . S
C1469 H1455 0.960 . S
C1469 H1456 0.961 1_556 S
C1469 H1457 0.959 1_556 S
C1469 C1467 1.561 . S
C1470 C1467 1.526 1_554 S
C1470 C1471 1.396 . S
C1470 C1475 1.390 . S
C1471 C1465 1.465 1_554 S
C1471 C1470 1.396 . S
C1471 C1472 1.399 1_455 S
C1472 H1458 0.929 . S
C1472 C1471 1.399 1_655 S
C1472 C1473 1.385 . S
C1473 H1459 0.931 . S
C1473 C1472 1.385 . S
C1473 C1474 1.389 1_655 S
C1474 C1473 1.389 1_455 S
C1474 C1475 1.387 . S
C1475 H1460 0.930 . S
C1475 C1470 1.390 . S
C1475 C1474 1.387 . S
H1476 C1488 0.930 . S
H1477 C1490 0.930 . S
H1478 C1491 0.930 . S
H1479 C1495 0.959 1_556 S
H1480 C1495 0.959 1_556 S
H1481 C1495 0.961 . S
H1482 C1496 0.960 . S
H1483 C1496 0.961 1_556 S
H1484 C1496 0.959 1_556 S
H1485 C1499 0.929 . S
H1486 C1500 0.931 . S
H1487 C1502 0.930 . S
C1488 H1476 0.930 . S
C1488 C1489 1.399 . S
C1488 C1493 1.399 . S
C1489 C1488 1.399 . S
C1489 C1490 1.376 . S
C1490 H1477 0.930 . S
C1490 C1489 1.376 . S
C1490 C1491 1.388 . S
C1491 H1478 0.930 . S
C1491 C1490 1.388 . S
C1491 C1492 1.390 . S
C1492 C1491 1.390 . S
C1492 C1493 1.394 . S
C1492 C1498 1.465 1_554 S
C1493 C1488 1.399 . S
C1493 C1492 1.394 . S
C1493 C1494 1.516 . S
C1494 C1493 1.516 . S
C1494 C1495 1.502 . S
C1494 C1496 1.561 . S
C1494 C1497 1.526 1_554 S
C1495 H1479 0.959 1_554 S
C1495 H1480 0.959 1_554 S
C1495 H1481 0.961 . S
C1495 C1494 1.502 . S
C1496 H1482 0.960 . S
C1496 H1483 0.961 1_554 S
C1496 H1484 0.959 1_554 S
C1496 C1494 1.561 . S
C1497 C1494 1.526 1_556 S
C1497 C1498 1.396 . S
C1497 C1502 1.390 . S
C1498 C1492 1.465 1_556 S
C1498 C1497 1.396 . S
C1498 C1499 1.399 . S
C1499 H1485 0.929 . S
C1499 C1498 1.399 . S
C1499 C1500 1.385 . S
C1500 H1486 0.931 . S
C1500 C1499 1.385 . S
C1500 C1501 1.389 . S
C1501 C1500 1.389 . S
C1501 C1502 1.387 . S
C1502 H1487 0.930 . S
C1502 C1497 1.390 . S
C1502 C1501 1.387 . S
H1503 C1515 0.874 1_565 S
H1504 C1517 0.930 . S
H1505 C1518 0.930 . S
H1506 C1522 0.959 . S
H1507 C1522 0.959 . S
H1508 C1522 0.961 1_554 S
H1509 C1523 0.960 1_554 S
H1510 C1523 0.961 . S
H1511 C1523 0.959 . S
H1512 C1526 0.929 . S
H1513 C1527 0.931 . S
H1514 C1529 0.930 1_565 S
C1515 H1503 0.874 1_545 S
C1515 C1516 1.442 . S
C1515 C1520 1.414 . S
C1516 C1515 1.442 . S
C1516 C1517 1.376 . S
C1517 H1504 0.930 . S
C1517 C1516 1.376 . S
C1517 C1518 1.388 . S
C1518 H1505 0.930 . S
C1518 C1517 1.388 . S
C1518 C1519 1.390 . S
C1519 C1518 1.390 . S
C1519 C1520 1.394 . S
C1519 C1525 1.465 1_554 S
C1520 C1515 1.414 . S
C1520 C1519 1.394 . S
C1520 C1521 1.516 1_544 S
C1521 C1520 1.516 1_566 S
C1521 C1522 1.502 . S
C1521 C1523 1.561 . S
C1521 C1524 1.526 1_565 S
C1522 H1506 0.959 . S
C1522 H1507 0.959 . S
C1522 H1508 0.961 1_556 S
C1522 C1521 1.502 . S
C1523 H1509 0.960 1_556 S
C1523 H1510 0.961 . S
C1523 H1511 0.959 . S
C1523 C1521 1.561 . S
C1524 C1521 1.526 1_545 S
C1524 C1525 1.396 . S
C1524 C1529 1.390 . S
C1525 C1519 1.465 1_556 S
C1525 C1524 1.396 . S
C1525 C1526 1.399 . S
C1526 H1512 0.929 . S
C1526 C1525 1.399 . S
C1526 C1527 1.385 . S
C1527 H1513 0.931 . S
C1527 C1526 1.385 . S
C1527 C1528 1.389 . S
C1528 C1527 1.389 . S
C1528 C1529 1.387 . S
C1529 H1514 0.930 1_545 S
C1529 C1524 1.390 . S
C1529 C1528 1.387 . S
H1530 C1542 0.930 . S
H1531 C1544 0.930 . S
H1532 C1545 0.930 . S
H1533 C1549 0.959 . S
H1534 C1549 0.959 . S
H1535 C1549 0.961 . S
H1536 C1550 0.960 . S
H1537 C1550 0.961 . S
H1538 C1550 0.959 . S
H1539 C1553 0.929 . S
H1540 C1554 0.931 . S
H1541 C1556 0.930 . S
C1542 H1530 0.930 . S
C1542 C1543 1.399 . S
C1542 C1547 1.399 . S
C1543 C1542 1.399 . S
C1543 C1544 1.376 . S
C1544 H1531 0.930 . S
C1544 C1543 1.376 . S
C1544 C1545 1.388 . S
C1545 H1532 0.930 . S
C1545 C1544 1.388 . S
C1545 C1546 1.390 . S
C1546 C1545 1.390 . S
C1546 C1547 1.394 . S
C1546 C1552 1.465 . S
C1547 C1542 1.399 . S
C1547 C1546 1.394 . S
C1547 C1548 1.516 . S
C1548 C1547 1.516 . S
C1548 C1549 1.502 . S
C1548 C1550 1.561 . S
C1548 C1551 1.526 . S
C1549 H1533 0.959 . S
C1549 H1534 0.959 . S
C1549 H1535 0.961 . S
C1549 C1548 1.502 . S
C1550 H1536 0.960 . S
C1550 H1537 0.961 . S
C1550 H1538 0.959 . S
C1550 C1548 1.561 . S
C1551 C1548 1.526 . S
C1551 C1552 1.396 . S
C1551 C1556 1.390 . S
C1552 C1546 1.465 . S
C1552 C1551 1.396 . S
C1552 C1553 1.399 . S
C1553 H1539 0.929 . S
C1553 C1552 1.399 . S
C1553 C1554 1.385 . S
C1554 H1540 0.931 . S
C1554 C1553 1.385 . S
C1554 C1555 1.389 . S
C1555 C1554 1.389 . S
C1555 C1556 1.387 . S
C1556 H1541 0.930 . S
C1556 C1551 1.390 . S
C1556 C1555 1.387 . S
H1557 C1569 0.930 . S
H1558 C1571 0.930 . S
H1559 C1572 0.930 . S
H1560 C1576 0.959 . S
H1561 C1576 0.959 . S
H1562 C1576 0.961 . S
H1563 C1577 0.960 . S
H1564 C1577 0.961 . S
H1565 C1577 0.959 . S
H1566 C1580 0.929 . S
H1567 C1581 0.931 . S
H1568 C1583 0.930 . S
C1569 H1557 0.930 . S
C1569 C1570 1.399 . S
C1569 C1574 1.399 . S
C1570 C1569 1.399 . S
C1570 C1571 1.376 . S
C1571 H1558 0.930 . S
C1571 C1570 1.376 . S
C1571 C1572 1.388 . S
C1572 H1559 0.930 . S
C1572 C1571 1.388 . S
C1572 C1573 1.390 . S
C1573 C1572 1.390 . S
C1573 C1574 1.394 . S
C1573 C1579 1.465 . S
C1574 C1569 1.399 . S
C1574 C1573 1.394 . S
C1574 C1575 1.516 . S
C1575 C1574 1.516 . S
C1575 C1576 1.502 . S
C1575 C1577 1.561 . S
C1575 C1578 1.526 . S
C1576 H1560 0.959 . S
C1576 H1561 0.959 . S
C1576 H1562 0.961 . S
C1576 C1575 1.502 . S
C1577 H1563 0.960 . S
C1577 H1564 0.961 . S
C1577 H1565 0.959 . S
C1577 C1575 1.561 . S
C1578 C1575 1.526 . S
C1578 C1579 1.396 . S
C1578 C1583 1.390 . S
C1579 C1573 1.465 . S
C1579 C1578 1.396 . S
C1579 C1580 1.399 . S
C1580 H1566 0.929 . S
C1580 C1579 1.399 . S
C1580 C1581 1.385 . S
C1581 H1567 0.931 . S
C1581 C1580 1.385 . S
C1581 C1582 1.389 . S
C1582 C1581 1.389 . S
C1582 C1583 1.387 . S
C1583 H1568 0.930 . S
C1583 C1578 1.390 . S
C1583 C1582 1.387 . S
H1584 C1596 0.930 . S
H1585 C1598 0.930 . S
H1586 C1599 0.930 . S
H1587 C1603 0.959 . S
H1588 C1603 0.959 . S
H1589 C1603 0.961 . S
H1590 C1604 0.960 . S
H1591 C1604 0.961 . S
H1592 C1604 0.959 . S
H1593 C1607 0.929 . S
H1594 C1608 0.931 . S
H1595 C1610 0.930 . S
C1596 H1584 0.930 . S
C1596 C1597 1.399 . S
C1596 C1601 1.399 . S
C1597 C1596 1.399 . S
C1597 C1598 1.376 . S
C1598 H1585 0.930 . S
C1598 C1597 1.376 . S
C1598 C1599 1.388 . S
C1599 H1586 0.930 . S
C1599 C1598 1.388 . S
C1599 C1600 1.390 . S
C1600 C1599 1.390 . S
C1600 C1601 1.394 . S
C1600 C1606 1.465 . S
C1601 C1596 1.399 . S
C1601 C1600 1.394 . S
C1601 C1602 1.516 . S
C1602 C1601 1.516 . S
C1602 C1603 1.502 . S
C1602 C1604 1.561 . S
C1602 C1605 1.526 . S
C1603 H1587 0.959 . S
C1603 H1588 0.959 . S
C1603 H1589 0.961 . S
C1603 C1602 1.502 . S
C1604 H1590 0.960 . S
C1604 H1591 0.961 . S
C1604 H1592 0.959 . S
C1604 C1602 1.561 . S
C1605 C1602 1.526 . S
C1605 C1606 1.396 . S
C1605 C1610 1.390 . S
C1606 C1600 1.465 . S
C1606 C1605 1.396 . S
C1606 C1607 1.399 . S
C1607 H1593 0.929 . S
C1607 C1606 1.399 . S
C1607 C1608 1.385 . S
C1608 H1594 0.931 . S
C1608 C1607 1.385 . S
C1608 C1609 1.389 . S
C1609 C1608 1.389 . S
C1609 C1610 1.387 . S
C1610 H1595 0.930 . S
C1610 C1605 1.390 . S
C1610 C1609 1.387 . S
H1611 C1623 0.930 . S
H1612 C1625 0.930 . S
H1613 C1626 0.930 . S
H1614 C1630 0.959 . S
H1615 C1630 0.959 . S
H1616 C1630 0.961 . S
H1617 C1631 0.960 . S
H1618 C1631 0.961 . S
H1619 C1631 0.959 . S
H1620 C1634 0.929 . S
H1621 C1635 0.931 . S
H1622 C1637 0.930 . S
C1623 H1611 0.930 . S
C1623 C1624 1.399 . S
C1623 C1628 1.399 . S
C1624 C1623 1.399 . S
C1624 C1625 1.376 . S
C1625 H1612 0.930 . S
C1625 C1624 1.376 . S
C1625 C1626 1.388 . S
C1626 H1613 0.930 . S
C1626 C1625 1.388 . S
C1626 C1627 1.390 . S
C1627 C1626 1.390 . S
C1627 C1628 1.394 . S
C1627 C1633 1.465 . S
C1628 C1623 1.399 . S
C1628 C1627 1.394 . S
C1628 C1629 1.516 . S
C1629 C1628 1.516 . S
C1629 C1630 1.502 . S
C1629 C1631 1.561 . S
C1629 C1632 1.526 . S
C1630 H1614 0.959 . S
C1630 H1615 0.959 . S
C1630 H1616 0.961 . S
C1630 C1629 1.502 . S
C1631 H1617 0.960 . S
C1631 H1618 0.961 . S
C1631 H1619 0.959 . S
C1631 C1629 1.561 . S
C1632 C1629 1.526 . S
C1632 C1633 1.396 . S
C1632 C1637 1.390 . S
C1633 C1627 1.465 . S
C1633 C1632 1.396 . S
C1633 C1634 1.399 . S
C1634 H1620 0.929 . S
C1634 C1633 1.399 . S
C1634 C1635 1.385 . S
C1635 H1621 0.931 . S
C1635 C1634 1.385 . S
C1635 C1636 1.389 . S
C1636 C1635 1.389 . S
C1636 C1637 1.387 . S
C1637 H1622 0.930 . S
C1637 C1632 1.390 . S
C1637 C1636 1.387 . S
H1638 C1650 0.930 . S
H1639 C1652 0.930 . S
H1640 C1653 0.930 . S
H1641 C1657 0.959 . S
H1642 C1657 0.959 . S
H1643 C1657 0.961 . S
H1644 C1658 0.960 . S
H1645 C1658 0.961 . S
H1646 C1658 0.959 . S
H1647 C1661 0.929 . S
H1648 C1662 0.931 . S
H1649 C1664 0.930 . S
C1650 H1638 0.930 . S
C1650 C1651 1.399 . S
C1650 C1655 1.399 . S
C1651 C1650 1.399 . S
C1651 C1652 1.376 . S
C1652 H1639 0.930 . S
C1652 C1651 1.376 . S
C1652 C1653 1.388 . S
C1653 H1640 0.930 . S
C1653 C1652 1.388 . S
C1653 C1654 1.390 . S
C1654 C1653 1.390 . S
C1654 C1655 1.394 . S
C1654 C1660 1.465 . S
C1655 C1650 1.399 . S
C1655 C1654 1.394 . S
C1655 C1656 1.516 . S
C1656 C1655 1.516 . S
C1656 C1657 1.502 . S
C1656 C1658 1.561 . S
C1656 C1659 1.526 . S
C1657 H1641 0.959 . S
C1657 H1642 0.959 . S
C1657 H1643 0.961 . S
C1657 C1656 1.502 . S
C1658 H1644 0.960 . S
C1658 H1645 0.961 . S
C1658 H1646 0.959 . S
C1658 C1656 1.561 . S
C1659 C1656 1.526 . S
C1659 C1660 1.396 . S
C1659 C1664 1.390 . S
C1660 C1654 1.465 . S
C1660 C1659 1.396 . S
C1660 C1661 1.399 . S
C1661 H1647 0.929 . S
C1661 C1660 1.399 . S
C1661 C1662 1.385 . S
C1662 H1648 0.931 . S
C1662 C1661 1.385 . S
C1662 C1663 1.389 . S
C1663 C1662 1.389 . S
C1663 C1664 1.387 . S
C1664 H1649 0.930 . S
C1664 C1659 1.390 . S
C1664 C1663 1.387 . S
H1665 C1677 0.930 . S
H1666 C1679 0.930 . S
H1667 C1680 0.930 . S
H1668 C1684 0.959 . S
H1669 C1684 0.959 . S
H1670 C1684 0.961 . S
H1671 C1685 0.960 . S
H1672 C1685 0.961 . S
H1673 C1685 0.959 . S
H1674 C1688 0.929 . S
H1675 C1689 0.931 . S
H1676 C1691 0.930 . S
C1677 H1665 0.930 . S
C1677 C1678 1.399 . S
C1677 C1682 1.399 . S
C1678 C1677 1.399 . S
C1678 C1679 1.376 . S
C1679 H1666 0.930 . S
C1679 C1678 1.376 . S
C1679 C1680 1.388 . S
C1680 H1667 0.930 . S
C1680 C1679 1.388 . S
C1680 C1681 1.390 . S
C1681 C1680 1.390 . S
C1681 C1682 1.394 . S
C1681 C1687 1.465 . S
C1682 C1677 1.399 . S
C1682 C1681 1.394 . S
C1682 C1683 1.516 . S
C1683 C1682 1.516 . S
C1683 C1684 1.502 . S
C1683 C1685 1.561 . S
C1683 C1686 1.526 . S
C1684 H1668 0.959 . S
C1684 H1669 0.959 . S
C1684 H1670 0.961 . S
C1684 C1683 1.502 . S
C1685 H1671 0.960 . S
C1685 H1672 0.961 . S
C1685 H1673 0.959 . S
C1685 C1683 1.561 . S
C1686 C1683 1.526 . S
C1686 C1687 1.396 . S
C1686 C1691 1.390 . S
C1687 C1681 1.465 . S
C1687 C1686 1.396 . S
C1687 C1688 1.399 . S
C1688 H1674 0.929 . S
C1688 C1687 1.399 . S
C1688 C1689 1.385 . S
C1689 H1675 0.931 . S
C1689 C1688 1.385 . S
C1689 C1690 1.389 . S
C1690 C1689 1.389 . S
C1690 C1691 1.387 . S
C1691 H1676 0.930 . S
C1691 C1686 1.390 . S
C1691 C1690 1.387 . S
H1692 C1704 0.930 . S
H1693 C1706 0.930 . S
H1694 C1707 0.930 . S
H1695 C1711 0.959 . S
H1696 C1711 0.959 . S
H1697 C1711 0.961 . S
H1698 C1712 0.960 . S
H1699 C1712 0.961 . S
H1700 C1712 0.959 . S
H1701 C1715 0.929 . S
H1702 C1716 0.931 . S
H1703 C1718 0.930 . S
C1704 H1692 0.930 . S
C1704 C1705 1.399 . S
C1704 C1709 1.399 . S
C1705 C1704 1.399 . S
C1705 C1706 1.376 . S
C1706 H1693 0.930 . S
C1706 C1705 1.376 . S
C1706 C1707 1.388 . S
C1707 H1694 0.930 . S
C1707 C1706 1.388 . S
C1707 C1708 1.390 . S
C1708 C1707 1.390 . S
C1708 C1709 1.394 . S
C1708 C1714 1.465 . S
C1709 C1704 1.399 . S
C1709 C1708 1.394 . S
C1709 C1710 1.516 . S
C1710 C1709 1.516 . S
C1710 C1711 1.502 . S
C1710 C1712 1.561 . S
C1710 C1713 1.526 . S
C1711 H1695 0.959 . S
C1711 H1696 0.959 . S
C1711 H1697 0.961 . S
C1711 C1710 1.502 . S
C1712 H1698 0.960 . S
C1712 H1699 0.961 . S
C1712 H1700 0.959 . S
C1712 C1710 1.561 . S
C1713 C1710 1.526 . S
C1713 C1714 1.396 . S
C1713 C1718 1.390 . S
C1714 C1708 1.465 . S
C1714 C1713 1.396 . S
C1714 C1715 1.399 . S
C1715 H1701 0.929 . S
C1715 C1714 1.399 . S
C1715 C1716 1.385 . S
C1716 H1702 0.931 . S
C1716 C1715 1.385 . S
C1716 C1717 1.389 . S
C1717 C1716 1.389 . S
C1717 C1718 1.387 . S
C1718 H1703 0.930 . S
C1718 C1713 1.390 . S
C1718 C1717 1.387 . S
H1719 C1731 0.930 . S
H1720 C1733 0.930 . S
H1721 C1734 0.930 . S
H1722 C1738 0.959 . S
H1723 C1738 0.959 . S
H1724 C1738 0.961 . S
H1725 C1739 0.960 . S
H1726 C1739 0.961 . S
H1727 C1739 0.959 . S
H1728 C1742 0.929 . S
H1729 C1743 0.931 . S
H1730 C1745 0.930 . S
C1731 H1719 0.930 . S
C1731 C1732 1.399 . S
C1731 C1736 1.399 . S
C1732 C1731 1.399 . S
C1732 C1733 1.376 . S
C1733 H1720 0.930 . S
C1733 C1732 1.376 . S
C1733 C1734 1.388 . S
C1734 H1721 0.930 . S
C1734 C1733 1.388 . S
C1734 C1735 1.390 . S
C1735 C1734 1.390 . S
C1735 C1736 1.394 . S
C1735 C1741 1.465 . S
C1736 C1731 1.399 . S
C1736 C1735 1.394 . S
C1736 C1737 1.516 . S
C1737 C1736 1.516 . S
C1737 C1738 1.502 . S
C1737 C1739 1.561 . S
C1737 C1740 1.526 . S
C1738 H1722 0.959 . S
C1738 H1723 0.959 . S
C1738 H1724 0.961 . S
C1738 C1737 1.502 . S
C1739 H1725 0.960 . S
C1739 H1726 0.961 . S
C1739 H1727 0.959 . S
C1739 C1737 1.561 . S
C1740 C1737 1.526 . S
C1740 C1741 1.396 . S
C1740 C1745 1.390 . S
C1741 C1735 1.465 . S
C1741 C1740 1.396 . S
C1741 C1742 1.399 . S
C1742 H1728 0.929 . S
C1742 C1741 1.399 . S
C1742 C1743 1.385 . S
C1743 H1729 0.931 . S
C1743 C1742 1.385 . S
C1743 C1744 1.389 . S
C1744 C1743 1.389 . S
C1744 C1745 1.387 . S
C1745 H1730 0.930 . S
C1745 C1740 1.390 . S
C1745 C1744 1.387 . S
H1746 C1758 0.930 . S
H1747 C1760 0.930 . S
H1748 C1761 0.930 . S
H1749 C1765 0.959 . S
H1750 C1765 0.959 . S
H1751 C1765 0.961 . S
H1752 C1766 0.960 . S
H1753 C1766 0.961 . S
H1754 C1766 0.959 . S
H1755 C1769 0.929 . S
H1756 C1770 0.931 . S
H1757 C1772 0.930 . S
C1758 H1746 0.930 . S
C1758 C1759 1.399 . S
C1758 C1763 1.399 . S
C1759 C1758 1.399 . S
C1759 C1760 1.376 . S
C1760 H1747 0.930 . S
C1760 C1759 1.376 . S
C1760 C1761 1.388 . S
C1761 H1748 0.930 . S
C1761 C1760 1.388 . S
C1761 C1762 1.390 . S
C1762 C1761 1.390 . S
C1762 C1763 1.394 . S
C1762 C1768 1.465 . S
C1763 C1758 1.399 . S
C1763 C1762 1.394 . S
C1763 C1764 1.516 . S
C1764 C1763 1.516 . S
C1764 C1765 1.502 . S
C1764 C1766 1.561 . S
C1764 C1767 1.526 . S
C1765 H1749 0.959 . S
C1765 H1750 0.959 . S
C1765 H1751 0.961 . S
C1765 C1764 1.502 . S
C1766 H1752 0.960 . S
C1766 H1753 0.961 . S
C1766 H1754 0.959 . S
C1766 C1764 1.561 . S
C1767 C1764 1.526 . S
C1767 C1768 1.396 . S
C1767 C1772 1.390 . S
C1768 C1762 1.465 . S
C1768 C1767 1.396 . S
C1768 C1769 1.399 . S
C1769 H1755 0.929 . S
C1769 C1768 1.399 . S
C1769 C1770 1.385 . S
C1770 H1756 0.931 . S
C1770 C1769 1.385 . S
C1770 C1771 1.389 . S
C1771 C1770 1.389 . S
C1771 C1772 1.387 . S
C1772 H1757 0.930 . S
C1772 C1767 1.390 . S
C1772 C1771 1.387 . S
H1773 C1785 0.930 . S
H1774 C1787 0.930 . S
H1775 C1788 0.930 . S
H1776 C1792 0.959 . S
H1777 C1792 0.959 . S
H1778 C1792 0.961 . S
H1779 C1793 0.960 . S
H1780 C1793 0.961 . S
H1781 C1793 0.959 . S
H1782 C1796 0.929 . S
H1783 C1797 0.931 . S
H1784 C1799 0.930 . S
C1785 H1773 0.930 . S
C1785 C1786 1.399 . S
C1785 C1790 1.399 . S
C1786 C1785 1.399 . S
C1786 C1787 1.376 . S
C1787 H1774 0.930 . S
C1787 C1786 1.376 . S
C1787 C1788 1.388 . S
C1788 H1775 0.930 . S
C1788 C1787 1.388 . S
C1788 C1789 1.390 . S
C1789 C1788 1.390 . S
C1789 C1790 1.394 . S
C1789 C1795 1.465 . S
C1790 C1785 1.399 . S
C1790 C1789 1.394 . S
C1790 C1791 1.516 . S
C1791 C1790 1.516 . S
C1791 C1792 1.502 . S
C1791 C1793 1.561 . S
C1791 C1794 1.526 . S
C1792 H1776 0.959 . S
C1792 H1777 0.959 . S
C1792 H1778 0.961 . S
C1792 C1791 1.502 . S
C1793 H1779 0.960 . S
C1793 H1780 0.961 . S
C1793 H1781 0.959 . S
C1793 C1791 1.561 . S
C1794 C1791 1.526 . S
C1794 C1795 1.396 . S
C1794 C1799 1.390 . S
C1795 C1789 1.465 . S
C1795 C1794 1.396 . S
C1795 C1796 1.399 . S
C1796 H1782 0.929 . S
C1796 C1795 1.399 . S
C1796 C1797 1.385 . S
C1797 H1783 0.931 . S
C1797 C1796 1.385 . S
C1797 C1798 1.389 . S
C1798 C1797 1.389 . S
C1798 C1799 1.387 . S
C1799 H1784 0.930 . S
C1799 C1794 1.390 . S
C1799 C1798 1.387 . S
H1800 C1812 0.930 . S
H1801 C1814 0.930 . S
H1802 C1815 0.930 . S
H1803 C1819 0.959 . S
H1804 C1819 0.959 . S
H1805 C1819 0.961 . S
H1806 C1820 0.960 . S
H1807 C1820 0.961 . S
H1808 C1820 0.959 . S
H1809 C1823 0.929 . S
H1810 C1824 0.931 . S
H1811 C1826 0.930 . S
C1812 H1800 0.930 . S
C1812 C1813 1.399 . S
C1812 C1817 1.399 . S
C1813 C1812 1.399 . S
C1813 C1814 1.376 . S
C1814 H1801 0.930 . S
C1814 C1813 1.376 . S
C1814 C1815 1.388 . S
C1815 H1802 0.930 . S
C1815 C1814 1.388 . S
C1815 C1816 1.390 . S
C1816 C1815 1.390 . S
C1816 C1817 1.394 . S
C1816 C1822 1.465 . S
C1817 C1812 1.399 . S
C1817 C1816 1.394 . S
C1817 C1818 1.516 . S
C1818 C1817 1.516 . S
C1818 C1819 1.502 . S
C1818 C1820 1.561 . S
C1818 C1821 1.526 . S
C1819 H1803 0.959 . S
C1819 H1804 0.959 . S
C1819 H1805 0.961 . S
C1819 C1818 1.502 . S
C1820 H1806 0.960 . S
C1820 H1807 0.961 . S
C1820 H1808 0.959 . S
C1820 C1818 1.561 . S
C1821 C1818 1.526 . S
C1821 C1822 1.396 . S
C1821 C1826 1.390 . S
C1822 C1816 1.465 . S
C1822 C1821 1.396 . S
C1822 C1823 1.399 . S
C1823 H1809 0.929 . S
C1823 C1822 1.399 . S
C1823 C1824 1.385 . S
C1824 H1810 0.931 . S
C1824 C1823 1.385 . S
C1824 C1825 1.389 . S
C1825 C1824 1.389 . S
C1825 C1826 1.387 . S
C1826 H1811 0.930 . S
C1826 C1821 1.390 . S
C1826 C1825 1.387 . S
H1827 C1839 0.930 . S
H1828 C1841 0.930 . S
H1829 C1842 0.930 . S
H1830 C1846 0.959 . S
H1831 C1846 0.959 . S
H1832 C1846 0.961 . S
H1833 C1847 0.960 . S
H1834 C1847 0.961 . S
H1835 C1847 0.959 . S
H1836 C1850 0.929 . S
H1837 C1851 0.931 . S
H1838 C1853 0.930 . S
C1839 H1827 0.930 . S
C1839 C1840 1.399 . S
C1839 C1844 1.399 . S
C1840 C1839 1.399 . S
C1840 C1841 1.376 . S
C1841 H1828 0.930 . S
C1841 C1840 1.376 . S
C1841 C1842 1.388 . S
C1842 H1829 0.930 . S
C1842 C1841 1.388 . S
C1842 C1843 1.390 . S
C1843 C1842 1.390 . S
C1843 C1844 1.394 . S
C1843 C1849 1.465 . S
C1844 C1839 1.399 . S
C1844 C1843 1.394 . S
C1844 C1845 1.516 . S
C1845 C1844 1.516 . S
C1845 C1846 1.502 . S
C1845 C1847 1.561 . S
C1845 C1848 1.526 . S
C1846 H1830 0.959 . S
C1846 H1831 0.959 . S
C1846 H1832 0.961 . S
C1846 C1845 1.502 . S
C1847 H1833 0.960 . S
C1847 H1834 0.961 . S
C1847 H1835 0.959 . S
C1847 C1845 1.561 . S
C1848 C1845 1.526 . S
C1848 C1849 1.396 . S
C1848 C1853 1.390 . S
C1849 C1843 1.465 . S
C1849 C1848 1.396 . S
C1849 C1850 1.399 . S
C1850 H1836 0.929 . S
C1850 C1849 1.399 . S
C1850 C1851 1.385 . S
C1851 H1837 0.931 . S
C1851 C1850 1.385 . S
C1851 C1852 1.389 . S
C1852 C1851 1.389 . S
C1852 C1853 1.387 . S
C1853 H1838 0.930 . S
C1853 C1848 1.390 . S
C1853 C1852 1.387 . S
C409 C294 1.144 . S
C421 C4 1.199 . S
C436 C26 1.164 . S
C448 C316 1.171 . S
C463 C48 1.140 . S
C475 C272 1.216 . S
C490 C52 1.144 . S
C502 C158 1.228 . S
C517 C180 1.209 . S
C529 C8 1.210 . S
C544 C30 1.143 . S
C556 C136 1.227 . S
C571 C74 1.178 . S
C583 C224 1.233 . S
C598 C96 1.164 . S
C610 C246 1.228 . S
C625 C202 1.165 . S
C637 C118 1.229 . S
C652 C360 1.178 . S
C664 C114 1.143 . S
C679 C70 1.151 . S
C691 C382 1.218 . S
C706 C338 1.213 . S
C718 C92 1.148 . S
C733 C184 1.152 . S
C745 C290 1.186 . S
C760 C140 1.182 . S
C772 C312 1.155 . S
C787 C162 1.143 . S
C799 C268 1.226 . S
C814 C206 1.171 . S
C826 C356 1.231 . S
C841 C378 1.173 . S
C853 C228 1.144 . S
C868 C334 1.156 . S
C880 C250 1.223 . S
C895 C6 1.626 . S
C907 C93 1.627 . S
C922 C115 1.592 . S
C934 C28 1.600 . S
C949 C71 1.576 . S
C961 C50 1.580 . S
C976 C97 1.627 . S
C988 C51 1.626 . S
C1003 C119 1.576 . S
C1015 C7 1.577 . S
C1030 C75 1.601 . S
C1042 C29 1.594 . S
C1057 C225 1.609 . S
C1069 C138 1.616 . S
C1084 C247 1.625 . S
C1096 C160 1.627 . S
C1111 C203 1.576 . S
C1123 C182 1.579 . S
C1138 C229 1.575 . S
C1150 C183 1.579 . S
C1165 C251 1.579 . S
C1177 C139 1.585 . S
C1192 C207 1.602 . S
C1204 C161 1.594 . S
C1219 C357 1.594 . S
C1231 C270 1.587 . S
C1246 C379 1.627 . S
C1258 C292 1.624 . S
C1273 C314 1.599 . S
C1285 C335 1.607 . S
C1300 C315 1.602 . S
C1312 C361 1.610 . S
C1327 C271 1.599 . S
C1339 C383 1.607 . S
C1354 C339 1.600 . S
C1366 C293 1.608 . S
C1381 C5 1.600 . S
C1393 C9 1.606 . S
C1408 C27 1.595 . S
C1420 C31 1.636 . S
C1435 C49 1.620 . S
C1447 C53 1.594 . S
C1462 C73 1.644 . S
C1474 C72 1.594 . S
C1489 C94 1.643 . S
C1501 C95 1.594 . S
C1516 C116 1.594 . S
C1528 C117 1.636 . S
C1543 C141 1.650 . S
C1555 C137 1.609 . S
C1570 C159 1.652 . S
C1582 C163 1.613 . S
C1597 C185 1.625 . S
C1609 C181 1.594 . S
C1624 C205 1.646 . S
C1636 C204 1.594 . S
C1651 C227 1.614 . S
C1663 C226 1.651 . S
C1678 C249 1.652 . S
C1690 C248 1.612 . S
C1705 C273 1.596 . S
C1717 C269 1.639 . S
C1732 C291 1.651 . S
C1744 C295 1.610 . S
C1759 C313 1.616 . S
C1771 C317 1.652 . S
C1786 C336 1.631 . S
C1798 C337 1.641 . S
C1813 C358 1.605 . S
C1825 C359 1.653 . S
C1840 C381 1.629 . S
C1852 C380 1.642 . S
